(venv) ubuntu@RVLSU108-09457:~/Directory/SparQ$ ./pin_champsim/bin/perceptron-no-debugger-no-lru-1core -warmup 1000000 -simulation_instructions 2000000000 -traces ./LLM_Traces/2B_Traces_SelfAttention_Phythia-70M-Seq1024-07-08-0125.champsim.xz
*************************************************
   ChampSim Multicore Out-of-Order Simulator
   Last compiled: Jul 15 2024 10:47:44
*************************************************

trace_0 ./LLM_Traces/2B_Traces_SelfAttention_Phythia-70M-Seq1024-07-08-0125.champsim.xz
CPU 0 L2C next line prefetcher initialized
warmup_instructions 1000000
simulation_instructions 2000000000
champsim_seed 200

num_cpus 1
cpu_freq 4000
dram_io_freq 2400
page_size 4096
block_size 64
max_read_per_cycle 8
max_fill_per_cycle 1
dram_channels 1
dram_ranks 1
dram_banks 8
dram_rows 65536
dram_columns 128
dram_row_size 8
dram_size 4096
dram_pages 1048576

fetch_width 6
decode_width 6
exec_width 4
lq_width 2
sq_width 2
retire_width 4
scheduler_size 128
branch_mispredict_penalty 20
rob_size 256
lq_size 72
sq_size 56
num_instr_destinations_sparc 4
num_instr_destinations 2
num_instr_sources 4

itlb_set 16
itlb_way 8
itlb_rq_size 16
itlb_wq_size 16
itlb_pq_size 0
itlb_mshr_size 8
itlb_latency 1

dtlb_set 16
dtlb_way 4
dtlb_rq_size 16
dtlb_wq_size 16
dtlb_pq_size 0
dtlb_mshr_size 8
dtlb_latency 1

stlb_set 128
stlb_way 12
stlb_rq_size 32
stlb_wq_size 32
stlb_pq_size 0
stlb_mshr_size 16
stlb_latency 8

l1i_size 32
l1i_set 64
l1i_way 8
l1i_rq_size 64
l1i_wq_size 64
l1i_pq_size 8
l1i_mshr_size 8
l1i_latency 1

l1d_size 32
l1d_set 64
l1d_way 8
l1d_rq_size 64
l1d_wq_size 64
l1d_pq_size 8
l1d_mshr_size 16
l1d_latency 4

l2c_size 512
l2c_set 1024
l2c_way 8
l2c_rq_size 32
l2c_wq_size 32
l2c_pq_size 16
l2c_mshr_size 32
l2c_latency 10

llc_size 2048
llc_set 2048
llc_way 16
llc_rq_size 32
llc_wq_size 32
llc_pq_size 32
llc_mshr_size 64
llc_latency 20

dram_channel_width 8
dram_wq_size 64
dram_rq_size 64
tRP 15
tRCD 15
tCAS 12.5
dram_dbus_turn_around_time 30
dram_write_high_wm 56
dram_write_low_wm 48
min_dram_writes_per_switch 16
dram_mtps 2400
dram_dbus_return_time 13


Heartbeat CPU  0 instructions:    1000001 cycles:     466725 heartbeat IPC: 2.14259 cumulative IPC: 2.14259 (Simulation time: 0 hr 0 min 1 sec)

Warmup complete CPU  0 instructions:    1000001 cycles:     466725 (Simulation time: 0 hr 0 min 1 sec)

Heartbeat CPU  0 instructions:    2000000 cycles:    1493670 heartbeat IPC: 0.97376 cumulative IPC: 0.97376 (Simulation time: 0 hr 0 min 2 sec)
Heartbeat CPU  0 instructions:    3000001 cycles:    2531080 heartbeat IPC: 0.96394 cumulative IPC: 0.96883 (Simulation time: 0 hr 0 min 4 sec)
Heartbeat CPU  0 instructions:    4000000 cycles:    3609558 heartbeat IPC: 0.92723 cumulative IPC: 0.95455 (Simulation time: 0 hr 0 min 6 sec)
Heartbeat CPU  0 instructions:    5000002 cycles:    4682078 heartbeat IPC: 0.93239 cumulative IPC: 0.94891 (Simulation time: 0 hr 0 min 8 sec)
Heartbeat CPU  0 instructions:    6000001 cycles:    5758896 heartbeat IPC: 0.92866 cumulative IPC: 0.94479 (Simulation time: 0 hr 0 min 10 sec)
Heartbeat CPU  0 instructions:    7000000 cycles:    6835760 heartbeat IPC: 0.92862 cumulative IPC: 0.94206 (Simulation time: 0 hr 0 min 12 sec)
Heartbeat CPU  0 instructions:    8000000 cycles:    7912175 heartbeat IPC: 0.92901 cumulative IPC: 0.94017 (Simulation time: 0 hr 0 min 14 sec)
Heartbeat CPU  0 instructions:    9000003 cycles:    9003591 heartbeat IPC: 0.91624 cumulative IPC: 0.93711 (Simulation time: 0 hr 0 min 16 sec)
Heartbeat CPU  0 instructions:   10000003 cycles:   10095641 heartbeat IPC: 0.91571 cumulative IPC: 0.93468 (Simulation time: 0 hr 0 min 18 sec)
Heartbeat CPU  0 instructions:   11000000 cycles:   11173598 heartbeat IPC: 0.92768 cumulative IPC: 0.93398 (Simulation time: 0 hr 0 min 20 sec)
Heartbeat CPU  0 instructions:   12000000 cycles:   12274085 heartbeat IPC: 0.90869 cumulative IPC: 0.93162 (Simulation time: 0 hr 0 min 22 sec)
Heartbeat CPU  0 instructions:   13000002 cycles:   13363354 heartbeat IPC: 0.91805 cumulative IPC: 0.93048 (Simulation time: 0 hr 0 min 24 sec)
Heartbeat CPU  0 instructions:   14000002 cycles:   14436241 heartbeat IPC: 0.93206 cumulative IPC: 0.93060 (Simulation time: 0 hr 0 min 26 sec)
Heartbeat CPU  0 instructions:   15000001 cycles:   15517908 heartbeat IPC: 0.92450 cumulative IPC: 0.93016 (Simulation time: 0 hr 0 min 28 sec)
Heartbeat CPU  0 instructions:   16000000 cycles:   16605688 heartbeat IPC: 0.91930 cumulative IPC: 0.92943 (Simulation time: 0 hr 0 min 29 sec)
Heartbeat CPU  0 instructions:   17000001 cycles:   17700943 heartbeat IPC: 0.91303 cumulative IPC: 0.92839 (Simulation time: 0 hr 0 min 31 sec)
Heartbeat CPU  0 instructions:   18000003 cycles:   18808354 heartbeat IPC: 0.90301 cumulative IPC: 0.92685 (Simulation time: 0 hr 0 min 33 sec)
Heartbeat CPU  0 instructions:   19000003 cycles:   19903288 heartbeat IPC: 0.91330 cumulative IPC: 0.92609 (Simulation time: 0 hr 0 min 35 sec)
Heartbeat CPU  0 instructions:   20000000 cycles:   21007178 heartbeat IPC: 0.90588 cumulative IPC: 0.92500 (Simulation time: 0 hr 0 min 37 sec)
Heartbeat CPU  0 instructions:   21000001 cycles:   22091816 heartbeat IPC: 0.92197 cumulative IPC: 0.92485 (Simulation time: 0 hr 0 min 39 sec)
Heartbeat CPU  0 instructions:   22000001 cycles:   23200695 heartbeat IPC: 0.90181 cumulative IPC: 0.92373 (Simulation time: 0 hr 0 min 41 sec)
Heartbeat CPU  0 instructions:   23000002 cycles:   24286697 heartbeat IPC: 0.92081 cumulative IPC: 0.92359 (Simulation time: 0 hr 0 min 43 sec)
Heartbeat CPU  0 instructions:   24000000 cycles:   25385132 heartbeat IPC: 0.91038 cumulative IPC: 0.92301 (Simulation time: 0 hr 0 min 45 sec)
Heartbeat CPU  0 instructions:   25000000 cycles:   26447753 heartbeat IPC: 0.94107 cumulative IPC: 0.92375 (Simulation time: 0 hr 0 min 47 sec)
Heartbeat CPU  0 instructions:   26000003 cycles:   27592982 heartbeat IPC: 0.87319 cumulative IPC: 0.92162 (Simulation time: 0 hr 0 min 49 sec)
Heartbeat CPU  0 instructions:   27000003 cycles:   28671370 heartbeat IPC: 0.92731 cumulative IPC: 0.92183 (Simulation time: 0 hr 0 min 51 sec)
Heartbeat CPU  0 instructions:   28000000 cycles:   29757951 heartbeat IPC: 0.92032 cumulative IPC: 0.92178 (Simulation time: 0 hr 0 min 53 sec)
Heartbeat CPU  0 instructions:   29000000 cycles:   30851407 heartbeat IPC: 0.91453 cumulative IPC: 0.92152 (Simulation time: 0 hr 0 min 55 sec)
Heartbeat CPU  0 instructions:   30000002 cycles:   31953532 heartbeat IPC: 0.90734 cumulative IPC: 0.92102 (Simulation time: 0 hr 0 min 57 sec)
Heartbeat CPU  0 instructions:   31000001 cycles:   33031869 heartbeat IPC: 0.92735 cumulative IPC: 0.92123 (Simulation time: 0 hr 0 min 59 sec)
Heartbeat CPU  0 instructions:   32000000 cycles:   34112137 heartbeat IPC: 0.92570 cumulative IPC: 0.92137 (Simulation time: 0 hr 1 min 1 sec)
Heartbeat CPU  0 instructions:   33000001 cycles:   35206490 heartbeat IPC: 0.91378 cumulative IPC: 0.92113 (Simulation time: 0 hr 1 min 2 sec)
Heartbeat CPU  0 instructions:   34000000 cycles:   36297293 heartbeat IPC: 0.91675 cumulative IPC: 0.92100 (Simulation time: 0 hr 1 min 4 sec)
Heartbeat CPU  0 instructions:   35000003 cycles:   37396338 heartbeat IPC: 0.90988 cumulative IPC: 0.92067 (Simulation time: 0 hr 1 min 6 sec)
Heartbeat CPU  0 instructions:   36000000 cycles:   38487681 heartbeat IPC: 0.91630 cumulative IPC: 0.92054 (Simulation time: 0 hr 1 min 8 sec)
Heartbeat CPU  0 instructions:   37000000 cycles:   39566956 heartbeat IPC: 0.92655 cumulative IPC: 0.92071 (Simulation time: 0 hr 1 min 10 sec)
Heartbeat CPU  0 instructions:   38000003 cycles:   40671235 heartbeat IPC: 0.90557 cumulative IPC: 0.92029 (Simulation time: 0 hr 1 min 12 sec)
Heartbeat CPU  0 instructions:   39000003 cycles:   41762518 heartbeat IPC: 0.91635 cumulative IPC: 0.92019 (Simulation time: 0 hr 1 min 14 sec)
Heartbeat CPU  0 instructions:   40000000 cycles:   42852358 heartbeat IPC: 0.91756 cumulative IPC: 0.92012 (Simulation time: 0 hr 1 min 16 sec)
Heartbeat CPU  0 instructions:   41000002 cycles:   43976914 heartbeat IPC: 0.88924 cumulative IPC: 0.91932 (Simulation time: 0 hr 1 min 18 sec)
Heartbeat CPU  0 instructions:   42000001 cycles:   45068965 heartbeat IPC: 0.91571 cumulative IPC: 0.91924 (Simulation time: 0 hr 1 min 20 sec)
Heartbeat CPU  0 instructions:   43000001 cycles:   46174863 heartbeat IPC: 0.90424 cumulative IPC: 0.91887 (Simulation time: 0 hr 1 min 22 sec)
Heartbeat CPU  0 instructions:   44000000 cycles:   47276991 heartbeat IPC: 0.90733 cumulative IPC: 0.91860 (Simulation time: 0 hr 1 min 24 sec)
Heartbeat CPU  0 instructions:   45000002 cycles:   48371558 heartbeat IPC: 0.91361 cumulative IPC: 0.91849 (Simulation time: 0 hr 1 min 26 sec)
Heartbeat CPU  0 instructions:   46000001 cycles:   49482724 heartbeat IPC: 0.89995 cumulative IPC: 0.91807 (Simulation time: 0 hr 1 min 28 sec)
Heartbeat CPU  0 instructions:   47000001 cycles:   50593499 heartbeat IPC: 0.90027 cumulative IPC: 0.91767 (Simulation time: 0 hr 1 min 30 sec)
Heartbeat CPU  0 instructions:   48000000 cycles:   51707530 heartbeat IPC: 0.89764 cumulative IPC: 0.91724 (Simulation time: 0 hr 1 min 32 sec)
Heartbeat CPU  0 instructions:   49000000 cycles:   52823868 heartbeat IPC: 0.89579 cumulative IPC: 0.91678 (Simulation time: 0 hr 1 min 34 sec)
Heartbeat CPU  0 instructions:   50000000 cycles:   53837436 heartbeat IPC: 0.98661 cumulative IPC: 0.91811 (Simulation time: 0 hr 1 min 36 sec)
Heartbeat CPU  0 instructions:   51000000 cycles:   54792585 heartbeat IPC: 1.04696 cumulative IPC: 0.92037 (Simulation time: 0 hr 1 min 38 sec)
Heartbeat CPU  0 instructions:   52000000 cycles:   55744812 heartbeat IPC: 1.05017 cumulative IPC: 0.92261 (Simulation time: 0 hr 1 min 40 sec)
Heartbeat CPU  0 instructions:   53000002 cycles:   56693101 heartbeat IPC: 1.05453 cumulative IPC: 0.92483 (Simulation time: 0 hr 1 min 42 sec)
Heartbeat CPU  0 instructions:   54000003 cycles:   57639353 heartbeat IPC: 1.05680 cumulative IPC: 0.92702 (Simulation time: 0 hr 1 min 43 sec)
Heartbeat CPU  0 instructions:   55000001 cycles:   58598843 heartbeat IPC: 1.04222 cumulative IPC: 0.92892 (Simulation time: 0 hr 1 min 45 sec)
Heartbeat CPU  0 instructions:   56000000 cycles:   59550935 heartbeat IPC: 1.05032 cumulative IPC: 0.93087 (Simulation time: 0 hr 1 min 47 sec)
Heartbeat CPU  0 instructions:   57000000 cycles:   60509724 heartbeat IPC: 1.04298 cumulative IPC: 0.93266 (Simulation time: 0 hr 1 min 49 sec)
Heartbeat CPU  0 instructions:   58000001 cycles:   61463737 heartbeat IPC: 1.04820 cumulative IPC: 0.93447 (Simulation time: 0 hr 1 min 51 sec)
Heartbeat CPU  0 instructions:   59000001 cycles:   62412385 heartbeat IPC: 1.05413 cumulative IPC: 0.93630 (Simulation time: 0 hr 1 min 53 sec)
Heartbeat CPU  0 instructions:   60000000 cycles:   63357379 heartbeat IPC: 1.05821 cumulative IPC: 0.93814 (Simulation time: 0 hr 1 min 55 sec)
Heartbeat CPU  0 instructions:   61000001 cycles:   64304523 heartbeat IPC: 1.05581 cumulative IPC: 0.93988 (Simulation time: 0 hr 1 min 57 sec)
Heartbeat CPU  0 instructions:   62000001 cycles:   65247789 heartbeat IPC: 1.06015 cumulative IPC: 0.94163 (Simulation time: 0 hr 1 min 59 sec)
Heartbeat CPU  0 instructions:   63000000 cycles:   66196044 heartbeat IPC: 1.05457 cumulative IPC: 0.94326 (Simulation time: 0 hr 2 min 1 sec)
Heartbeat CPU  0 instructions:   64000000 cycles:   67137102 heartbeat IPC: 1.06263 cumulative IPC: 0.94495 (Simulation time: 0 hr 2 min 2 sec)
Heartbeat CPU  0 instructions:   65000003 cycles:   68070808 heartbeat IPC: 1.07100 cumulative IPC: 0.94669 (Simulation time: 0 hr 2 min 4 sec)
Heartbeat CPU  0 instructions:   66000000 cycles:   69284347 heartbeat IPC: 0.82403 cumulative IPC: 0.94453 (Simulation time: 0 hr 2 min 6 sec)
Heartbeat CPU  0 instructions:   67000001 cycles:   70371177 heartbeat IPC: 0.92011 cumulative IPC: 0.94415 (Simulation time: 0 hr 2 min 8 sec)
Heartbeat CPU  0 instructions:   68000000 cycles:   71439749 heartbeat IPC: 0.93583 cumulative IPC: 0.94402 (Simulation time: 0 hr 2 min 10 sec)
Heartbeat CPU  0 instructions:   69000001 cycles:   72518561 heartbeat IPC: 0.92695 cumulative IPC: 0.94376 (Simulation time: 0 hr 2 min 12 sec)
Heartbeat CPU  0 instructions:   70000001 cycles:   73605297 heartbeat IPC: 0.92019 cumulative IPC: 0.94341 (Simulation time: 0 hr 2 min 13 sec)
Heartbeat CPU  0 instructions:   71000003 cycles:   74659218 heartbeat IPC: 0.94884 cumulative IPC: 0.94349 (Simulation time: 0 hr 2 min 15 sec)
Heartbeat CPU  0 instructions:   72000000 cycles:   75724914 heartbeat IPC: 0.93835 cumulative IPC: 0.94342 (Simulation time: 0 hr 2 min 17 sec)
Heartbeat CPU  0 instructions:   73000001 cycles:   76805005 heartbeat IPC: 0.92585 cumulative IPC: 0.94317 (Simulation time: 0 hr 2 min 20 sec)
Heartbeat CPU  0 instructions:   74000001 cycles:   77891576 heartbeat IPC: 0.92033 cumulative IPC: 0.94285 (Simulation time: 0 hr 2 min 22 sec)
Heartbeat CPU  0 instructions:   75000001 cycles:   78982167 heartbeat IPC: 0.91693 cumulative IPC: 0.94249 (Simulation time: 0 hr 2 min 23 sec)
Heartbeat CPU  0 instructions:   76000000 cycles:   80062915 heartbeat IPC: 0.92528 cumulative IPC: 0.94226 (Simulation time: 0 hr 2 min 25 sec)
Heartbeat CPU  0 instructions:   77000000 cycles:   81139197 heartbeat IPC: 0.92912 cumulative IPC: 0.94208 (Simulation time: 0 hr 2 min 27 sec)
Heartbeat CPU  0 instructions:   78000002 cycles:   82212187 heartbeat IPC: 0.93198 cumulative IPC: 0.94195 (Simulation time: 0 hr 2 min 29 sec)
Heartbeat CPU  0 instructions:   79000001 cycles:   83285485 heartbeat IPC: 0.93171 cumulative IPC: 0.94182 (Simulation time: 0 hr 2 min 31 sec)
Heartbeat CPU  0 instructions:   80000000 cycles:   84355500 heartbeat IPC: 0.93457 cumulative IPC: 0.94172 (Simulation time: 0 hr 2 min 33 sec)
Heartbeat CPU  0 instructions:   81000000 cycles:   85442915 heartbeat IPC: 0.91961 cumulative IPC: 0.94144 (Simulation time: 0 hr 2 min 35 sec)
Heartbeat CPU  0 instructions:   82000000 cycles:   86544070 heartbeat IPC: 0.90814 cumulative IPC: 0.94101 (Simulation time: 0 hr 2 min 37 sec)
Heartbeat CPU  0 instructions:   83000003 cycles:   87659157 heartbeat IPC: 0.89679 cumulative IPC: 0.94045 (Simulation time: 0 hr 2 min 39 sec)
Heartbeat CPU  0 instructions:   84000000 cycles:   88770353 heartbeat IPC: 0.89993 cumulative IPC: 0.93994 (Simulation time: 0 hr 2 min 41 sec)
Heartbeat CPU  0 instructions:   85000003 cycles:   89860515 heartbeat IPC: 0.91730 cumulative IPC: 0.93966 (Simulation time: 0 hr 2 min 42 sec)
Heartbeat CPU  0 instructions:   86000001 cycles:   90950548 heartbeat IPC: 0.91740 cumulative IPC: 0.93939 (Simulation time: 0 hr 2 min 44 sec)
Heartbeat CPU  0 instructions:   87000001 cycles:   92057362 heartbeat IPC: 0.90349 cumulative IPC: 0.93896 (Simulation time: 0 hr 2 min 46 sec)
Heartbeat CPU  0 instructions:   88000000 cycles:   93159572 heartbeat IPC: 0.90727 cumulative IPC: 0.93858 (Simulation time: 0 hr 2 min 48 sec)
Heartbeat CPU  0 instructions:   89000002 cycles:   94264834 heartbeat IPC: 0.90476 cumulative IPC: 0.93819 (Simulation time: 0 hr 2 min 50 sec)
Heartbeat CPU  0 instructions:   90000002 cycles:   95321064 heartbeat IPC: 0.94676 cumulative IPC: 0.93828 (Simulation time: 0 hr 2 min 52 sec)
Heartbeat CPU  0 instructions:   91000001 cycles:   96419307 heartbeat IPC: 0.91054 cumulative IPC: 0.93796 (Simulation time: 0 hr 2 min 54 sec)
Heartbeat CPU  0 instructions:   92000000 cycles:   97522781 heartbeat IPC: 0.90623 cumulative IPC: 0.93760 (Simulation time: 0 hr 2 min 55 sec)
Heartbeat CPU  0 instructions:   93000000 cycles:   98624503 heartbeat IPC: 0.90767 cumulative IPC: 0.93727 (Simulation time: 0 hr 2 min 57 sec)
Heartbeat CPU  0 instructions:   94000001 cycles:   99701274 heartbeat IPC: 0.92870 cumulative IPC: 0.93717 (Simulation time: 0 hr 2 min 59 sec)
Heartbeat CPU  0 instructions:   95000000 cycles:  100780014 heartbeat IPC: 0.92701 cumulative IPC: 0.93706 (Simulation time: 0 hr 3 min 1 sec)
Heartbeat CPU  0 instructions:   96000000 cycles:  101867346 heartbeat IPC: 0.91968 cumulative IPC: 0.93688 (Simulation time: 0 hr 3 min 3 sec)
Heartbeat CPU  0 instructions:   97000002 cycles:  102941349 heartbeat IPC: 0.93110 cumulative IPC: 0.93682 (Simulation time: 0 hr 3 min 5 sec)
Heartbeat CPU  0 instructions:   98000000 cycles:  104040326 heartbeat IPC: 0.90994 cumulative IPC: 0.93653 (Simulation time: 0 hr 3 min 7 sec)
Heartbeat CPU  0 instructions:   99000000 cycles:  105131700 heartbeat IPC: 0.91628 cumulative IPC: 0.93632 (Simulation time: 0 hr 3 min 9 sec)
Heartbeat CPU  0 instructions:  100000000 cycles:  106236186 heartbeat IPC: 0.90540 cumulative IPC: 0.93600 (Simulation time: 0 hr 3 min 10 sec)
Heartbeat CPU  0 instructions:  101000001 cycles:  107331398 heartbeat IPC: 0.91307 cumulative IPC: 0.93576 (Simulation time: 0 hr 3 min 12 sec)
Heartbeat CPU  0 instructions:  102000003 cycles:  108421291 heartbeat IPC: 0.91752 cumulative IPC: 0.93558 (Simulation time: 0 hr 3 min 14 sec)
Heartbeat CPU  0 instructions:  103000001 cycles:  109513644 heartbeat IPC: 0.91545 cumulative IPC: 0.93538 (Simulation time: 0 hr 3 min 16 sec)
Heartbeat CPU  0 instructions:  104000000 cycles:  110587336 heartbeat IPC: 0.93136 cumulative IPC: 0.93534 (Simulation time: 0 hr 3 min 18 sec)
Heartbeat CPU  0 instructions:  105000001 cycles:  111684741 heartbeat IPC: 0.91124 cumulative IPC: 0.93510 (Simulation time: 0 hr 3 min 20 sec)
Heartbeat CPU  0 instructions:  106000003 cycles:  112778490 heartbeat IPC: 0.91429 cumulative IPC: 0.93490 (Simulation time: 0 hr 3 min 22 sec)
Heartbeat CPU  0 instructions:  107000000 cycles:  113886306 heartbeat IPC: 0.90267 cumulative IPC: 0.93458 (Simulation time: 0 hr 3 min 24 sec)
Heartbeat CPU  0 instructions:  108000000 cycles:  114987387 heartbeat IPC: 0.90820 cumulative IPC: 0.93433 (Simulation time: 0 hr 3 min 26 sec)
Heartbeat CPU  0 instructions:  109000000 cycles:  116100532 heartbeat IPC: 0.89836 cumulative IPC: 0.93398 (Simulation time: 0 hr 3 min 27 sec)
Heartbeat CPU  0 instructions:  110000002 cycles:  117208337 heartbeat IPC: 0.90269 cumulative IPC: 0.93369 (Simulation time: 0 hr 3 min 29 sec)
Heartbeat CPU  0 instructions:  111000002 cycles:  118319969 heartbeat IPC: 0.89958 cumulative IPC: 0.93336 (Simulation time: 0 hr 3 min 31 sec)
Heartbeat CPU  0 instructions:  112000000 cycles:  119404170 heartbeat IPC: 0.92234 cumulative IPC: 0.93326 (Simulation time: 0 hr 3 min 33 sec)
Heartbeat CPU  0 instructions:  113000000 cycles:  120504534 heartbeat IPC: 0.90879 cumulative IPC: 0.93304 (Simulation time: 0 hr 3 min 35 sec)
Heartbeat CPU  0 instructions:  114000000 cycles:  121564080 heartbeat IPC: 0.94380 cumulative IPC: 0.93313 (Simulation time: 0 hr 3 min 37 sec)
Heartbeat CPU  0 instructions:  115000002 cycles:  122498027 heartbeat IPC: 1.07073 cumulative IPC: 0.93419 (Simulation time: 0 hr 3 min 39 sec)
Heartbeat CPU  0 instructions:  116000000 cycles:  123432518 heartbeat IPC: 1.07010 cumulative IPC: 0.93522 (Simulation time: 0 hr 3 min 40 sec)
Heartbeat CPU  0 instructions:  117000000 cycles:  124360681 heartbeat IPC: 1.07740 cumulative IPC: 0.93628 (Simulation time: 0 hr 3 min 42 sec)
Heartbeat CPU  0 instructions:  118000003 cycles:  125282138 heartbeat IPC: 1.08524 cumulative IPC: 0.93738 (Simulation time: 0 hr 3 min 44 sec)
Heartbeat CPU  0 instructions:  119000001 cycles:  126214877 heartbeat IPC: 1.07211 cumulative IPC: 0.93838 (Simulation time: 0 hr 3 min 46 sec)
Heartbeat CPU  0 instructions:  120000000 cycles:  127139297 heartbeat IPC: 1.08176 cumulative IPC: 0.93943 (Simulation time: 0 hr 3 min 48 sec)
Heartbeat CPU  0 instructions:  121000001 cycles:  128059511 heartbeat IPC: 1.08670 cumulative IPC: 0.94049 (Simulation time: 0 hr 3 min 50 sec)
Heartbeat CPU  0 instructions:  122000000 cycles:  128975216 heartbeat IPC: 1.09205 cumulative IPC: 0.94157 (Simulation time: 0 hr 3 min 52 sec)
Heartbeat CPU  0 instructions:  123000003 cycles:  129889322 heartbeat IPC: 1.09397 cumulative IPC: 0.94265 (Simulation time: 0 hr 3 min 53 sec)
Heartbeat CPU  0 instructions:  124000000 cycles:  130804523 heartbeat IPC: 1.09265 cumulative IPC: 0.94370 (Simulation time: 0 hr 3 min 55 sec)
Heartbeat CPU  0 instructions:  125000003 cycles:  131725606 heartbeat IPC: 1.08568 cumulative IPC: 0.94470 (Simulation time: 0 hr 3 min 57 sec)
Heartbeat CPU  0 instructions:  126000003 cycles:  132651318 heartbeat IPC: 1.08025 cumulative IPC: 0.94565 (Simulation time: 0 hr 3 min 59 sec)
Heartbeat CPU  0 instructions:  127000002 cycles:  133567481 heartbeat IPC: 1.09151 cumulative IPC: 0.94665 (Simulation time: 0 hr 4 min 1 sec)
Heartbeat CPU  0 instructions:  128000000 cycles:  134495096 heartbeat IPC: 1.07803 cumulative IPC: 0.94756 (Simulation time: 0 hr 4 min 3 sec)
Heartbeat CPU  0 instructions:  129000000 cycles:  135422074 heartbeat IPC: 1.07877 cumulative IPC: 0.94846 (Simulation time: 0 hr 4 min 5 sec)
Heartbeat CPU  0 instructions:  130000000 cycles:  135988180 heartbeat IPC: 1.76645 cumulative IPC: 0.95188 (Simulation time: 0 hr 4 min 6 sec)
Heartbeat CPU  0 instructions:  131000000 cycles:  136362458 heartbeat IPC: 2.67181 cumulative IPC: 0.95662 (Simulation time: 0 hr 4 min 6 sec)
Heartbeat CPU  0 instructions:  132000000 cycles:  137791822 heartbeat IPC: 0.69961 cumulative IPC: 0.95394 (Simulation time: 0 hr 4 min 8 sec)
Heartbeat CPU  0 instructions:  133000003 cycles:  145175821 heartbeat IPC: 0.13543 cumulative IPC: 0.91217 (Simulation time: 0 hr 4 min 13 sec)
Heartbeat CPU  0 instructions:  134000002 cycles:  152979892 heartbeat IPC: 0.12814 cumulative IPC: 0.87206 (Simulation time: 0 hr 4 min 18 sec)
Heartbeat CPU  0 instructions:  135000002 cycles:  160820326 heartbeat IPC: 0.12754 cumulative IPC: 0.83565 (Simulation time: 0 hr 4 min 23 sec)
Heartbeat CPU  0 instructions:  136000000 cycles:  168609496 heartbeat IPC: 0.12838 cumulative IPC: 0.80289 (Simulation time: 0 hr 4 min 29 sec)
Heartbeat CPU  0 instructions:  137000000 cycles:  173100746 heartbeat IPC: 0.22266 cumulative IPC: 0.78779 (Simulation time: 0 hr 4 min 32 sec)
Heartbeat CPU  0 instructions:  138000002 cycles:  175652050 heartbeat IPC: 0.39196 cumulative IPC: 0.78203 (Simulation time: 0 hr 4 min 34 sec)
Heartbeat CPU  0 instructions:  139000000 cycles:  178668684 heartbeat IPC: 0.33149 cumulative IPC: 0.77440 (Simulation time: 0 hr 4 min 37 sec)
Heartbeat CPU  0 instructions:  140000000 cycles:  181689005 heartbeat IPC: 0.33109 cumulative IPC: 0.76701 (Simulation time: 0 hr 4 min 40 sec)
Heartbeat CPU  0 instructions:  141000002 cycles:  184549038 heartbeat IPC: 0.34965 cumulative IPC: 0.76053 (Simulation time: 0 hr 4 min 42 sec)
Heartbeat CPU  0 instructions:  142000001 cycles:  187397883 heartbeat IPC: 0.35102 cumulative IPC: 0.75429 (Simulation time: 0 hr 4 min 45 sec)
Heartbeat CPU  0 instructions:  143000000 cycles:  190253309 heartbeat IPC: 0.35021 cumulative IPC: 0.74821 (Simulation time: 0 hr 4 min 48 sec)
Heartbeat CPU  0 instructions:  144000000 cycles:  193181533 heartbeat IPC: 0.34150 cumulative IPC: 0.74203 (Simulation time: 0 hr 4 min 50 sec)
Heartbeat CPU  0 instructions:  145000000 cycles:  196064390 heartbeat IPC: 0.34688 cumulative IPC: 0.73621 (Simulation time: 0 hr 4 min 53 sec)
Heartbeat CPU  0 instructions:  146000003 cycles:  198971852 heartbeat IPC: 0.34394 cumulative IPC: 0.73046 (Simulation time: 0 hr 4 min 56 sec)
Heartbeat CPU  0 instructions:  147000002 cycles:  201804355 heartbeat IPC: 0.35304 cumulative IPC: 0.72515 (Simulation time: 0 hr 4 min 58 sec)
Heartbeat CPU  0 instructions:  148000000 cycles:  204660763 heartbeat IPC: 0.35009 cumulative IPC: 0.71990 (Simulation time: 0 hr 5 min 1 sec)
Heartbeat CPU  0 instructions:  149000003 cycles:  207487693 heartbeat IPC: 0.35374 cumulative IPC: 0.71490 (Simulation time: 0 hr 5 min 4 sec)
Heartbeat CPU  0 instructions:  150000001 cycles:  210313597 heartbeat IPC: 0.35387 cumulative IPC: 0.71004 (Simulation time: 0 hr 5 min 6 sec)
Heartbeat CPU  0 instructions:  151000000 cycles:  213303328 heartbeat IPC: 0.33448 cumulative IPC: 0.70477 (Simulation time: 0 hr 5 min 9 sec)
Heartbeat CPU  0 instructions:  152000000 cycles:  216313213 heartbeat IPC: 0.33224 cumulative IPC: 0.69957 (Simulation time: 0 hr 5 min 12 sec)
Heartbeat CPU  0 instructions:  153000002 cycles:  219263855 heartbeat IPC: 0.33891 cumulative IPC: 0.69471 (Simulation time: 0 hr 5 min 14 sec)
Heartbeat CPU  0 instructions:  154000003 cycles:  222173858 heartbeat IPC: 0.34364 cumulative IPC: 0.69010 (Simulation time: 0 hr 5 min 17 sec)
Heartbeat CPU  0 instructions:  155000000 cycles:  225012536 heartbeat IPC: 0.35228 cumulative IPC: 0.68583 (Simulation time: 0 hr 5 min 20 sec)
Heartbeat CPU  0 instructions:  156000000 cycles:  227881853 heartbeat IPC: 0.34852 cumulative IPC: 0.68157 (Simulation time: 0 hr 5 min 22 sec)
Heartbeat CPU  0 instructions:  157000000 cycles:  230754918 heartbeat IPC: 0.34806 cumulative IPC: 0.67741 (Simulation time: 0 hr 5 min 25 sec)
Heartbeat CPU  0 instructions:  158000001 cycles:  233584872 heartbeat IPC: 0.35336 cumulative IPC: 0.67348 (Simulation time: 0 hr 5 min 28 sec)
Heartbeat CPU  0 instructions:  159000002 cycles:  236454172 heartbeat IPC: 0.34852 cumulative IPC: 0.66953 (Simulation time: 0 hr 5 min 30 sec)
Heartbeat CPU  0 instructions:  160000000 cycles:  239382615 heartbeat IPC: 0.34148 cumulative IPC: 0.66551 (Simulation time: 0 hr 5 min 33 sec)
Heartbeat CPU  0 instructions:  161000001 cycles:  242246173 heartbeat IPC: 0.34922 cumulative IPC: 0.66176 (Simulation time: 0 hr 5 min 36 sec)
Heartbeat CPU  0 instructions:  162000000 cycles:  245122837 heartbeat IPC: 0.34762 cumulative IPC: 0.65807 (Simulation time: 0 hr 5 min 38 sec)
Heartbeat CPU  0 instructions:  163000001 cycles:  248007531 heartbeat IPC: 0.34666 cumulative IPC: 0.65444 (Simulation time: 0 hr 5 min 41 sec)
Heartbeat CPU  0 instructions:  164000000 cycles:  250869959 heartbeat IPC: 0.34935 cumulative IPC: 0.65095 (Simulation time: 0 hr 5 min 44 sec)
Heartbeat CPU  0 instructions:  165000000 cycles:  253730866 heartbeat IPC: 0.34954 cumulative IPC: 0.64755 (Simulation time: 0 hr 5 min 46 sec)
Heartbeat CPU  0 instructions:  166000002 cycles:  256665267 heartbeat IPC: 0.34079 cumulative IPC: 0.64403 (Simulation time: 0 hr 5 min 49 sec)
Heartbeat CPU  0 instructions:  167000000 cycles:  259580530 heartbeat IPC: 0.34302 cumulative IPC: 0.64065 (Simulation time: 0 hr 5 min 52 sec)
Heartbeat CPU  0 instructions:  168000000 cycles:  262431849 heartbeat IPC: 0.35071 cumulative IPC: 0.63749 (Simulation time: 0 hr 5 min 54 sec)
Heartbeat CPU  0 instructions:  169000000 cycles:  265346803 heartbeat IPC: 0.34306 cumulative IPC: 0.63425 (Simulation time: 0 hr 5 min 57 sec)
Heartbeat CPU  0 instructions:  170000000 cycles:  268225395 heartbeat IPC: 0.34739 cumulative IPC: 0.63117 (Simulation time: 0 hr 6 min 0 sec)
Heartbeat CPU  0 instructions:  171000001 cycles:  271112317 heartbeat IPC: 0.34639 cumulative IPC: 0.62813 (Simulation time: 0 hr 6 min 2 sec)
Heartbeat CPU  0 instructions:  172000000 cycles:  274010427 heartbeat IPC: 0.34505 cumulative IPC: 0.62513 (Simulation time: 0 hr 6 min 5 sec)
Heartbeat CPU  0 instructions:  173000001 cycles:  276894220 heartbeat IPC: 0.34677 cumulative IPC: 0.62222 (Simulation time: 0 hr 6 min 8 sec)
Heartbeat CPU  0 instructions:  174000000 cycles:  279773631 heartbeat IPC: 0.34729 cumulative IPC: 0.61939 (Simulation time: 0 hr 6 min 10 sec)
Heartbeat CPU  0 instructions:  175000000 cycles:  282654382 heartbeat IPC: 0.34713 cumulative IPC: 0.61661 (Simulation time: 0 hr 6 min 13 sec)
Heartbeat CPU  0 instructions:  176000000 cycles:  285496938 heartbeat IPC: 0.35180 cumulative IPC: 0.61397 (Simulation time: 0 hr 6 min 16 sec)
Heartbeat CPU  0 instructions:  177000000 cycles:  288345980 heartbeat IPC: 0.35100 cumulative IPC: 0.61137 (Simulation time: 0 hr 6 min 18 sec)
Heartbeat CPU  0 instructions:  178000000 cycles:  291279906 heartbeat IPC: 0.34084 cumulative IPC: 0.60864 (Simulation time: 0 hr 6 min 21 sec)
Heartbeat CPU  0 instructions:  179000003 cycles:  294199727 heartbeat IPC: 0.34249 cumulative IPC: 0.60599 (Simulation time: 0 hr 6 min 24 sec)
Heartbeat CPU  0 instructions:  180000000 cycles:  297103204 heartbeat IPC: 0.34441 cumulative IPC: 0.60343 (Simulation time: 0 hr 6 min 26 sec)
Heartbeat CPU  0 instructions:  181000002 cycles:  300059743 heartbeat IPC: 0.33823 cumulative IPC: 0.60082 (Simulation time: 0 hr 6 min 29 sec)
Heartbeat CPU  0 instructions:  182000001 cycles:  302930523 heartbeat IPC: 0.34834 cumulative IPC: 0.59842 (Simulation time: 0 hr 6 min 32 sec)
Heartbeat CPU  0 instructions:  183000000 cycles:  305799676 heartbeat IPC: 0.34853 cumulative IPC: 0.59607 (Simulation time: 0 hr 6 min 34 sec)
Heartbeat CPU  0 instructions:  184000000 cycles:  308658809 heartbeat IPC: 0.34976 cumulative IPC: 0.59379 (Simulation time: 0 hr 6 min 37 sec)
Heartbeat CPU  0 instructions:  185000002 cycles:  311513009 heartbeat IPC: 0.35036 cumulative IPC: 0.59155 (Simulation time: 0 hr 6 min 40 sec)
Heartbeat CPU  0 instructions:  186000000 cycles:  314341816 heartbeat IPC: 0.35351 cumulative IPC: 0.58941 (Simulation time: 0 hr 6 min 42 sec)
Heartbeat CPU  0 instructions:  187000000 cycles:  317221517 heartbeat IPC: 0.34726 cumulative IPC: 0.58720 (Simulation time: 0 hr 6 min 45 sec)
Heartbeat CPU  0 instructions:  188000000 cycles:  320077797 heartbeat IPC: 0.35011 cumulative IPC: 0.58509 (Simulation time: 0 hr 6 min 48 sec)
Heartbeat CPU  0 instructions:  189000000 cycles:  323000006 heartbeat IPC: 0.34221 cumulative IPC: 0.58289 (Simulation time: 0 hr 6 min 50 sec)
Heartbeat CPU  0 instructions:  190000001 cycles:  325824773 heartbeat IPC: 0.35401 cumulative IPC: 0.58090 (Simulation time: 0 hr 6 min 53 sec)
Heartbeat CPU  0 instructions:  191000002 cycles:  328700966 heartbeat IPC: 0.34768 cumulative IPC: 0.57885 (Simulation time: 0 hr 6 min 56 sec)
Heartbeat CPU  0 instructions:  192000000 cycles:  331539637 heartbeat IPC: 0.35228 cumulative IPC: 0.57691 (Simulation time: 0 hr 6 min 58 sec)
Heartbeat CPU  0 instructions:  193000000 cycles:  334378766 heartbeat IPC: 0.35222 cumulative IPC: 0.57500 (Simulation time: 0 hr 7 min 1 sec)
Heartbeat CPU  0 instructions:  194000002 cycles:  337226719 heartbeat IPC: 0.35113 cumulative IPC: 0.57311 (Simulation time: 0 hr 7 min 4 sec)
Heartbeat CPU  0 instructions:  195000003 cycles:  340213630 heartbeat IPC: 0.33479 cumulative IPC: 0.57101 (Simulation time: 0 hr 7 min 6 sec)
Heartbeat CPU  0 instructions:  196000000 cycles:  343156521 heartbeat IPC: 0.33980 cumulative IPC: 0.56903 (Simulation time: 0 hr 7 min 9 sec)
Heartbeat CPU  0 instructions:  197000000 cycles:  345999510 heartbeat IPC: 0.35174 cumulative IPC: 0.56724 (Simulation time: 0 hr 7 min 12 sec)
Heartbeat CPU  0 instructions:  198000000 cycles:  348879691 heartbeat IPC: 0.34720 cumulative IPC: 0.56542 (Simulation time: 0 hr 7 min 14 sec)
Heartbeat CPU  0 instructions:  199000002 cycles:  351729320 heartbeat IPC: 0.35092 cumulative IPC: 0.56368 (Simulation time: 0 hr 7 min 17 sec)
Heartbeat CPU  0 instructions:  200000000 cycles:  354549726 heartbeat IPC: 0.35456 cumulative IPC: 0.56202 (Simulation time: 0 hr 7 min 20 sec)
Heartbeat CPU  0 instructions:  201000003 cycles:  356567477 heartbeat IPC: 0.49560 cumulative IPC: 0.56164 (Simulation time: 0 hr 7 min 22 sec)
Heartbeat CPU  0 instructions:  202000000 cycles:  357209932 heartbeat IPC: 1.55652 cumulative IPC: 0.56343 (Simulation time: 0 hr 7 min 23 sec)
Heartbeat CPU  0 instructions:  203000000 cycles:  357812851 heartbeat IPC: 1.65860 cumulative IPC: 0.56528 (Simulation time: 0 hr 7 min 24 sec)
Heartbeat CPU  0 instructions:  204000000 cycles:  358436100 heartbeat IPC: 1.60450 cumulative IPC: 0.56709 (Simulation time: 0 hr 7 min 25 sec)
Heartbeat CPU  0 instructions:  205000001 cycles:  359031961 heartbeat IPC: 1.67825 cumulative IPC: 0.56893 (Simulation time: 0 hr 7 min 27 sec)
Heartbeat CPU  0 instructions:  206000000 cycles:  359584854 heartbeat IPC: 1.80867 cumulative IPC: 0.57084 (Simulation time: 0 hr 7 min 29 sec)
Heartbeat CPU  0 instructions:  207000001 cycles:  360150220 heartbeat IPC: 1.76877 cumulative IPC: 0.57273 (Simulation time: 0 hr 7 min 30 sec)
Heartbeat CPU  0 instructions:  208000000 cycles:  360748426 heartbeat IPC: 1.67166 cumulative IPC: 0.57455 (Simulation time: 0 hr 7 min 32 sec)
Heartbeat CPU  0 instructions:  209000003 cycles:  361335102 heartbeat IPC: 1.70452 cumulative IPC: 0.57639 (Simulation time: 0 hr 7 min 33 sec)
Heartbeat CPU  0 instructions:  210000003 cycles:  361921526 heartbeat IPC: 1.70525 cumulative IPC: 0.57822 (Simulation time: 0 hr 7 min 35 sec)
Heartbeat CPU  0 instructions:  211000000 cycles:  362483815 heartbeat IPC: 1.77844 cumulative IPC: 0.58008 (Simulation time: 0 hr 7 min 37 sec)
Heartbeat CPU  0 instructions:  212000000 cycles:  363130626 heartbeat IPC: 1.54605 cumulative IPC: 0.58181 (Simulation time: 0 hr 7 min 38 sec)
Heartbeat CPU  0 instructions:  213000002 cycles:  363918595 heartbeat IPC: 1.26909 cumulative IPC: 0.58330 (Simulation time: 0 hr 7 min 40 sec)
Heartbeat CPU  0 instructions:  214000002 cycles:  364674937 heartbeat IPC: 1.32215 cumulative IPC: 0.58483 (Simulation time: 0 hr 7 min 43 sec)
Heartbeat CPU  0 instructions:  215000003 cycles:  365431200 heartbeat IPC: 1.32229 cumulative IPC: 0.58636 (Simulation time: 0 hr 7 min 45 sec)
Heartbeat CPU  0 instructions:  216000000 cycles:  366238999 heartbeat IPC: 1.23793 cumulative IPC: 0.58780 (Simulation time: 0 hr 7 min 47 sec)
Heartbeat CPU  0 instructions:  217000003 cycles:  366991531 heartbeat IPC: 1.32885 cumulative IPC: 0.58932 (Simulation time: 0 hr 7 min 49 sec)
Heartbeat CPU  0 instructions:  218000002 cycles:  367737378 heartbeat IPC: 1.34076 cumulative IPC: 0.59084 (Simulation time: 0 hr 7 min 51 sec)
Heartbeat CPU  0 instructions:  219000000 cycles:  368514996 heartbeat IPC: 1.28598 cumulative IPC: 0.59231 (Simulation time: 0 hr 7 min 53 sec)
Heartbeat CPU  0 instructions:  220000000 cycles:  369290298 heartbeat IPC: 1.28982 cumulative IPC: 0.59378 (Simulation time: 0 hr 7 min 55 sec)
Heartbeat CPU  0 instructions:  221000003 cycles:  370040914 heartbeat IPC: 1.33224 cumulative IPC: 0.59528 (Simulation time: 0 hr 7 min 57 sec)
Heartbeat CPU  0 instructions:  222000000 cycles:  370889162 heartbeat IPC: 1.17890 cumulative IPC: 0.59662 (Simulation time: 0 hr 7 min 59 sec)
Heartbeat CPU  0 instructions:  223000000 cycles:  371773842 heartbeat IPC: 1.13035 cumulative IPC: 0.59789 (Simulation time: 0 hr 8 min 1 sec)
Heartbeat CPU  0 instructions:  224000000 cycles:  372672268 heartbeat IPC: 1.11306 cumulative IPC: 0.59913 (Simulation time: 0 hr 8 min 3 sec)
Heartbeat CPU  0 instructions:  225000002 cycles:  373467240 heartbeat IPC: 1.25791 cumulative IPC: 0.60054 (Simulation time: 0 hr 8 min 6 sec)
Heartbeat CPU  0 instructions:  226000000 cycles:  374210431 heartbeat IPC: 1.34555 cumulative IPC: 0.60202 (Simulation time: 0 hr 8 min 8 sec)
Heartbeat CPU  0 instructions:  227000000 cycles:  374959315 heartbeat IPC: 1.33532 cumulative IPC: 0.60348 (Simulation time: 0 hr 8 min 10 sec)
Heartbeat CPU  0 instructions:  228000000 cycles:  375777555 heartbeat IPC: 1.22214 cumulative IPC: 0.60483 (Simulation time: 0 hr 8 min 12 sec)
Heartbeat CPU  0 instructions:  229000001 cycles:  376519805 heartbeat IPC: 1.34726 cumulative IPC: 0.60630 (Simulation time: 0 hr 8 min 14 sec)
Heartbeat CPU  0 instructions:  230000001 cycles:  377279831 heartbeat IPC: 1.31574 cumulative IPC: 0.60773 (Simulation time: 0 hr 8 min 16 sec)
Heartbeat CPU  0 instructions:  231000000 cycles:  378056340 heartbeat IPC: 1.28781 cumulative IPC: 0.60913 (Simulation time: 0 hr 8 min 18 sec)
Heartbeat CPU  0 instructions:  232000000 cycles:  378866616 heartbeat IPC: 1.23415 cumulative IPC: 0.61047 (Simulation time: 0 hr 8 min 20 sec)
Heartbeat CPU  0 instructions:  233000003 cycles:  379616464 heartbeat IPC: 1.33361 cumulative IPC: 0.61190 (Simulation time: 0 hr 8 min 22 sec)
Heartbeat CPU  0 instructions:  234000001 cycles:  380361009 heartbeat IPC: 1.34310 cumulative IPC: 0.61333 (Simulation time: 0 hr 8 min 25 sec)
Heartbeat CPU  0 instructions:  235000003 cycles:  381171318 heartbeat IPC: 1.23410 cumulative IPC: 0.61465 (Simulation time: 0 hr 8 min 27 sec)
Heartbeat CPU  0 instructions:  236000000 cycles:  381932004 heartbeat IPC: 1.31460 cumulative IPC: 0.61605 (Simulation time: 0 hr 8 min 29 sec)
Heartbeat CPU  0 instructions:  237000000 cycles:  382672518 heartbeat IPC: 1.35041 cumulative IPC: 0.61747 (Simulation time: 0 hr 8 min 31 sec)
Heartbeat CPU  0 instructions:  238000001 cycles:  383433590 heartbeat IPC: 1.31394 cumulative IPC: 0.61885 (Simulation time: 0 hr 8 min 33 sec)
Heartbeat CPU  0 instructions:  239000002 cycles:  384271298 heartbeat IPC: 1.19373 cumulative IPC: 0.62011 (Simulation time: 0 hr 8 min 35 sec)
Heartbeat CPU  0 instructions:  240000000 cycles:  385233350 heartbeat IPC: 1.03944 cumulative IPC: 0.62116 (Simulation time: 0 hr 8 min 37 sec)
Heartbeat CPU  0 instructions:  241000003 cycles:  385989282 heartbeat IPC: 1.32287 cumulative IPC: 0.62253 (Simulation time: 0 hr 8 min 39 sec)
Heartbeat CPU  0 instructions:  242000002 cycles:  386746194 heartbeat IPC: 1.32116 cumulative IPC: 0.62390 (Simulation time: 0 hr 8 min 41 sec)
Heartbeat CPU  0 instructions:  243000003 cycles:  387507841 heartbeat IPC: 1.31295 cumulative IPC: 0.62526 (Simulation time: 0 hr 8 min 44 sec)
Heartbeat CPU  0 instructions:  244000000 cycles:  388309088 heartbeat IPC: 1.24805 cumulative IPC: 0.62654 (Simulation time: 0 hr 8 min 46 sec)
Heartbeat CPU  0 instructions:  245000000 cycles:  389057805 heartbeat IPC: 1.33562 cumulative IPC: 0.62791 (Simulation time: 0 hr 8 min 48 sec)
Heartbeat CPU  0 instructions:  246000003 cycles:  389796249 heartbeat IPC: 1.35420 cumulative IPC: 0.62929 (Simulation time: 0 hr 8 min 50 sec)
Heartbeat CPU  0 instructions:  247000001 cycles:  390595679 heartbeat IPC: 1.25089 cumulative IPC: 0.63056 (Simulation time: 0 hr 8 min 52 sec)
Heartbeat CPU  0 instructions:  248000000 cycles:  391359919 heartbeat IPC: 1.30849 cumulative IPC: 0.63189 (Simulation time: 0 hr 8 min 54 sec)
Heartbeat CPU  0 instructions:  249000001 cycles:  392100276 heartbeat IPC: 1.35070 cumulative IPC: 0.63325 (Simulation time: 0 hr 8 min 56 sec)
Heartbeat CPU  0 instructions:  250000002 cycles:  392854312 heartbeat IPC: 1.32620 cumulative IPC: 0.63458 (Simulation time: 0 hr 8 min 58 sec)
Heartbeat CPU  0 instructions:  251000000 cycles:  393648794 heartbeat IPC: 1.25868 cumulative IPC: 0.63584 (Simulation time: 0 hr 9 min 0 sec)
Heartbeat CPU  0 instructions:  252000000 cycles:  394394044 heartbeat IPC: 1.34183 cumulative IPC: 0.63717 (Simulation time: 0 hr 9 min 3 sec)
Heartbeat CPU  0 instructions:  253000001 cycles:  395128677 heartbeat IPC: 1.36123 cumulative IPC: 0.63852 (Simulation time: 0 hr 9 min 5 sec)
Heartbeat CPU  0 instructions:  254000003 cycles:  395904950 heartbeat IPC: 1.28821 cumulative IPC: 0.63980 (Simulation time: 0 hr 9 min 7 sec)
Heartbeat CPU  0 instructions:  255000001 cycles:  396718666 heartbeat IPC: 1.22893 cumulative IPC: 0.64101 (Simulation time: 0 hr 9 min 9 sec)
Heartbeat CPU  0 instructions:  256000000 cycles:  397573732 heartbeat IPC: 1.16950 cumulative IPC: 0.64214 (Simulation time: 0 hr 9 min 11 sec)
Heartbeat CPU  0 instructions:  257000002 cycles:  398388957 heartbeat IPC: 1.22666 cumulative IPC: 0.64334 (Simulation time: 0 hr 9 min 13 sec)
Heartbeat CPU  0 instructions:  258000001 cycles:  399159226 heartbeat IPC: 1.29825 cumulative IPC: 0.64461 (Simulation time: 0 hr 9 min 15 sec)
Heartbeat CPU  0 instructions:  259000003 cycles:  399992917 heartbeat IPC: 1.19949 cumulative IPC: 0.64576 (Simulation time: 0 hr 9 min 18 sec)
Heartbeat CPU  0 instructions:  260000000 cycles:  400806926 heartbeat IPC: 1.22848 cumulative IPC: 0.64695 (Simulation time: 0 hr 9 min 20 sec)
Heartbeat CPU  0 instructions:  261000003 cycles:  401567178 heartbeat IPC: 1.31536 cumulative IPC: 0.64822 (Simulation time: 0 hr 9 min 22 sec)
Heartbeat CPU  0 instructions:  262000003 cycles:  402334336 heartbeat IPC: 1.30351 cumulative IPC: 0.64947 (Simulation time: 0 hr 9 min 24 sec)
Heartbeat CPU  0 instructions:  263000003 cycles:  403186789 heartbeat IPC: 1.17309 cumulative IPC: 0.65058 (Simulation time: 0 hr 9 min 26 sec)
Heartbeat CPU  0 instructions:  264000000 cycles:  403959503 heartbeat IPC: 1.29414 cumulative IPC: 0.65181 (Simulation time: 0 hr 9 min 28 sec)
Heartbeat CPU  0 instructions:  265000001 cycles:  404716286 heartbeat IPC: 1.32138 cumulative IPC: 0.65306 (Simulation time: 0 hr 9 min 30 sec)
Heartbeat CPU  0 instructions:  266000000 cycles:  405519280 heartbeat IPC: 1.24534 cumulative IPC: 0.65424 (Simulation time: 0 hr 9 min 32 sec)
Heartbeat CPU  0 instructions:  267000000 cycles:  406343500 heartbeat IPC: 1.21327 cumulative IPC: 0.65537 (Simulation time: 0 hr 9 min 34 sec)
Heartbeat CPU  0 instructions:  268000000 cycles:  407115083 heartbeat IPC: 1.29604 cumulative IPC: 0.65659 (Simulation time: 0 hr 9 min 37 sec)
Heartbeat CPU  0 instructions:  269000001 cycles:  407887446 heartbeat IPC: 1.29473 cumulative IPC: 0.65780 (Simulation time: 0 hr 9 min 39 sec)
Heartbeat CPU  0 instructions:  270000003 cycles:  408700394 heartbeat IPC: 1.23009 cumulative IPC: 0.65894 (Simulation time: 0 hr 9 min 41 sec)
Heartbeat CPU  0 instructions:  271000000 cycles:  409492747 heartbeat IPC: 1.26206 cumulative IPC: 0.66010 (Simulation time: 0 hr 9 min 43 sec)
Heartbeat CPU  0 instructions:  272000000 cycles:  410332198 heartbeat IPC: 1.19125 cumulative IPC: 0.66119 (Simulation time: 0 hr 9 min 45 sec)
Heartbeat CPU  0 instructions:  273000002 cycles:  411175822 heartbeat IPC: 1.18536 cumulative IPC: 0.66227 (Simulation time: 0 hr 9 min 47 sec)
Heartbeat CPU  0 instructions:  274000003 cycles:  411959355 heartbeat IPC: 1.27627 cumulative IPC: 0.66344 (Simulation time: 0 hr 9 min 49 sec)
Heartbeat CPU  0 instructions:  275000000 cycles:  412730102 heartbeat IPC: 1.29744 cumulative IPC: 0.66462 (Simulation time: 0 hr 9 min 51 sec)
Heartbeat CPU  0 instructions:  276000000 cycles:  413498429 heartbeat IPC: 1.30153 cumulative IPC: 0.66581 (Simulation time: 0 hr 9 min 53 sec)
Heartbeat CPU  0 instructions:  277000000 cycles:  414249780 heartbeat IPC: 1.33094 cumulative IPC: 0.66702 (Simulation time: 0 hr 9 min 56 sec)
Heartbeat CPU  0 instructions:  278000001 cycles:  415032360 heartbeat IPC: 1.27783 cumulative IPC: 0.66817 (Simulation time: 0 hr 9 min 58 sec)
Heartbeat CPU  0 instructions:  279000003 cycles:  415792737 heartbeat IPC: 1.31514 cumulative IPC: 0.66935 (Simulation time: 0 hr 10 min 0 sec)
Heartbeat CPU  0 instructions:  280000000 cycles:  416538152 heartbeat IPC: 1.34153 cumulative IPC: 0.67056 (Simulation time: 0 hr 10 min 2 sec)
Heartbeat CPU  0 instructions:  281000001 cycles:  417295046 heartbeat IPC: 1.32119 cumulative IPC: 0.67174 (Simulation time: 0 hr 10 min 4 sec)
Heartbeat CPU  0 instructions:  282000000 cycles:  418047735 heartbeat IPC: 1.32857 cumulative IPC: 0.67292 (Simulation time: 0 hr 10 min 6 sec)
Heartbeat CPU  0 instructions:  283000001 cycles:  418827569 heartbeat IPC: 1.28233 cumulative IPC: 0.67406 (Simulation time: 0 hr 10 min 8 sec)
Heartbeat CPU  0 instructions:  284000000 cycles:  419574394 heartbeat IPC: 1.33900 cumulative IPC: 0.67524 (Simulation time: 0 hr 10 min 10 sec)
Heartbeat CPU  0 instructions:  285000000 cycles:  420340742 heartbeat IPC: 1.30489 cumulative IPC: 0.67639 (Simulation time: 0 hr 10 min 12 sec)
Heartbeat CPU  0 instructions:  286000002 cycles:  421106727 heartbeat IPC: 1.30551 cumulative IPC: 0.67754 (Simulation time: 0 hr 10 min 14 sec)
Heartbeat CPU  0 instructions:  287000002 cycles:  421857842 heartbeat IPC: 1.33135 cumulative IPC: 0.67870 (Simulation time: 0 hr 10 min 17 sec)
Heartbeat CPU  0 instructions:  288000000 cycles:  422613855 heartbeat IPC: 1.32273 cumulative IPC: 0.67986 (Simulation time: 0 hr 10 min 19 sec)
Heartbeat CPU  0 instructions:  289000000 cycles:  423464786 heartbeat IPC: 1.17518 cumulative IPC: 0.68085 (Simulation time: 0 hr 10 min 21 sec)
Heartbeat CPU  0 instructions:  290000001 cycles:  424349306 heartbeat IPC: 1.13056 cumulative IPC: 0.68179 (Simulation time: 0 hr 10 min 23 sec)
Heartbeat CPU  0 instructions:  291000000 cycles:  425119212 heartbeat IPC: 1.29886 cumulative IPC: 0.68291 (Simulation time: 0 hr 10 min 25 sec)
Heartbeat CPU  0 instructions:  292000000 cycles:  425855968 heartbeat IPC: 1.35730 cumulative IPC: 0.68408 (Simulation time: 0 hr 10 min 27 sec)
Heartbeat CPU  0 instructions:  293000002 cycles:  426606690 heartbeat IPC: 1.33205 cumulative IPC: 0.68522 (Simulation time: 0 hr 10 min 29 sec)
Heartbeat CPU  0 instructions:  294000002 cycles:  427348381 heartbeat IPC: 1.34827 cumulative IPC: 0.68637 (Simulation time: 0 hr 10 min 31 sec)
Heartbeat CPU  0 instructions:  295000001 cycles:  428115994 heartbeat IPC: 1.30274 cumulative IPC: 0.68748 (Simulation time: 0 hr 10 min 33 sec)
Heartbeat CPU  0 instructions:  296000000 cycles:  428861852 heartbeat IPC: 1.34074 cumulative IPC: 0.68862 (Simulation time: 0 hr 10 min 36 sec)
Heartbeat CPU  0 instructions:  297000000 cycles:  429637885 heartbeat IPC: 1.28860 cumulative IPC: 0.68970 (Simulation time: 0 hr 10 min 37 sec)
Heartbeat CPU  0 instructions:  298000001 cycles:  430403972 heartbeat IPC: 1.30534 cumulative IPC: 0.69080 (Simulation time: 0 hr 10 min 39 sec)
Heartbeat CPU  0 instructions:  299000003 cycles:  431145849 heartbeat IPC: 1.34794 cumulative IPC: 0.69193 (Simulation time: 0 hr 10 min 42 sec)
Heartbeat CPU  0 instructions:  300000000 cycles:  431950750 heartbeat IPC: 1.24239 cumulative IPC: 0.69296 (Simulation time: 0 hr 10 min 44 sec)
Heartbeat CPU  0 instructions:  301000000 cycles:  432739222 heartbeat IPC: 1.26828 cumulative IPC: 0.69401 (Simulation time: 0 hr 10 min 46 sec)
Heartbeat CPU  0 instructions:  302000001 cycles:  433494975 heartbeat IPC: 1.32318 cumulative IPC: 0.69510 (Simulation time: 0 hr 10 min 48 sec)
Heartbeat CPU  0 instructions:  303000002 cycles:  434276245 heartbeat IPC: 1.27997 cumulative IPC: 0.69616 (Simulation time: 0 hr 10 min 50 sec)
Heartbeat CPU  0 instructions:  304000000 cycles:  435091158 heartbeat IPC: 1.22712 cumulative IPC: 0.69715 (Simulation time: 0 hr 10 min 51 sec)
Heartbeat CPU  0 instructions:  305000002 cycles:  435941483 heartbeat IPC: 1.17602 cumulative IPC: 0.69809 (Simulation time: 0 hr 10 min 54 sec)
Heartbeat CPU  0 instructions:  306000003 cycles:  436798779 heartbeat IPC: 1.16646 cumulative IPC: 0.69901 (Simulation time: 0 hr 10 min 56 sec)
Heartbeat CPU  0 instructions:  307000003 cycles:  437626722 heartbeat IPC: 1.20781 cumulative IPC: 0.69997 (Simulation time: 0 hr 10 min 58 sec)
Heartbeat CPU  0 instructions:  308000000 cycles:  438413262 heartbeat IPC: 1.27139 cumulative IPC: 0.70100 (Simulation time: 0 hr 11 min 0 sec)
Heartbeat CPU  0 instructions:  309000002 cycles:  439206641 heartbeat IPC: 1.26043 cumulative IPC: 0.70201 (Simulation time: 0 hr 11 min 2 sec)
Heartbeat CPU  0 instructions:  310000000 cycles:  440002456 heartbeat IPC: 1.25657 cumulative IPC: 0.70301 (Simulation time: 0 hr 11 min 4 sec)
Heartbeat CPU  0 instructions:  311000003 cycles:  440758350 heartbeat IPC: 1.32294 cumulative IPC: 0.70408 (Simulation time: 0 hr 11 min 6 sec)
Heartbeat CPU  0 instructions:  312000000 cycles:  441555995 heartbeat IPC: 1.25369 cumulative IPC: 0.70507 (Simulation time: 0 hr 11 min 8 sec)
Heartbeat CPU  0 instructions:  313000001 cycles:  442364126 heartbeat IPC: 1.23742 cumulative IPC: 0.70605 (Simulation time: 0 hr 11 min 10 sec)
Heartbeat CPU  0 instructions:  314000001 cycles:  443143192 heartbeat IPC: 1.28359 cumulative IPC: 0.70706 (Simulation time: 0 hr 11 min 12 sec)
Heartbeat CPU  0 instructions:  315000000 cycles:  443879458 heartbeat IPC: 1.35820 cumulative IPC: 0.70814 (Simulation time: 0 hr 11 min 14 sec)
Heartbeat CPU  0 instructions:  316000000 cycles:  444619090 heartbeat IPC: 1.35202 cumulative IPC: 0.70922 (Simulation time: 0 hr 11 min 16 sec)
Heartbeat CPU  0 instructions:  317000001 cycles:  445407487 heartbeat IPC: 1.26840 cumulative IPC: 0.71021 (Simulation time: 0 hr 11 min 18 sec)
Heartbeat CPU  0 instructions:  318000000 cycles:  446169407 heartbeat IPC: 1.31247 cumulative IPC: 0.71124 (Simulation time: 0 hr 11 min 20 sec)
Heartbeat CPU  0 instructions:  319000000 cycles:  446904500 heartbeat IPC: 1.36037 cumulative IPC: 0.71231 (Simulation time: 0 hr 11 min 22 sec)
Heartbeat CPU  0 instructions:  320000000 cycles:  447654838 heartbeat IPC: 1.33273 cumulative IPC: 0.71335 (Simulation time: 0 hr 11 min 24 sec)
Heartbeat CPU  0 instructions:  321000002 cycles:  448455308 heartbeat IPC: 1.24927 cumulative IPC: 0.71430 (Simulation time: 0 hr 11 min 26 sec)
Heartbeat CPU  0 instructions:  322000003 cycles:  449250210 heartbeat IPC: 1.25802 cumulative IPC: 0.71527 (Simulation time: 0 hr 11 min 28 sec)
Heartbeat CPU  0 instructions:  323000000 cycles:  450063695 heartbeat IPC: 1.22928 cumulative IPC: 0.71620 (Simulation time: 0 hr 11 min 30 sec)
Heartbeat CPU  0 instructions:  324000000 cycles:  450872296 heartbeat IPC: 1.23670 cumulative IPC: 0.71713 (Simulation time: 0 hr 11 min 32 sec)
Heartbeat CPU  0 instructions:  325000000 cycles:  451682896 heartbeat IPC: 1.23365 cumulative IPC: 0.71806 (Simulation time: 0 hr 11 min 35 sec)
Heartbeat CPU  0 instructions:  326000003 cycles:  452496937 heartbeat IPC: 1.22844 cumulative IPC: 0.71898 (Simulation time: 0 hr 11 min 37 sec)
Heartbeat CPU  0 instructions:  327000003 cycles:  453258299 heartbeat IPC: 1.31344 cumulative IPC: 0.71998 (Simulation time: 0 hr 11 min 39 sec)
Heartbeat CPU  0 instructions:  328000000 cycles:  454034333 heartbeat IPC: 1.28860 cumulative IPC: 0.72095 (Simulation time: 0 hr 11 min 41 sec)
Heartbeat CPU  0 instructions:  329000001 cycles:  454841382 heartbeat IPC: 1.23908 cumulative IPC: 0.72187 (Simulation time: 0 hr 11 min 43 sec)
Heartbeat CPU  0 instructions:  330000000 cycles:  455644129 heartbeat IPC: 1.24572 cumulative IPC: 0.72280 (Simulation time: 0 hr 11 min 45 sec)
Heartbeat CPU  0 instructions:  331000001 cycles:  456400774 heartbeat IPC: 1.32163 cumulative IPC: 0.72379 (Simulation time: 0 hr 11 min 47 sec)
Heartbeat CPU  0 instructions:  332000000 cycles:  457190508 heartbeat IPC: 1.26625 cumulative IPC: 0.72473 (Simulation time: 0 hr 11 min 49 sec)
Heartbeat CPU  0 instructions:  333000002 cycles:  458015373 heartbeat IPC: 1.21232 cumulative IPC: 0.72561 (Simulation time: 0 hr 11 min 52 sec)
Heartbeat CPU  0 instructions:  334000002 cycles:  458793918 heartbeat IPC: 1.28445 cumulative IPC: 0.72656 (Simulation time: 0 hr 11 min 54 sec)
Heartbeat CPU  0 instructions:  335000001 cycles:  459567544 heartbeat IPC: 1.29261 cumulative IPC: 0.72751 (Simulation time: 0 hr 11 min 56 sec)
Heartbeat CPU  0 instructions:  336000000 cycles:  460368131 heartbeat IPC: 1.24908 cumulative IPC: 0.72842 (Simulation time: 0 hr 11 min 58 sec)
Heartbeat CPU  0 instructions:  337000001 cycles:  461158547 heartbeat IPC: 1.26516 cumulative IPC: 0.72934 (Simulation time: 0 hr 12 min 0 sec)
Heartbeat CPU  0 instructions:  338000001 cycles:  461956773 heartbeat IPC: 1.25278 cumulative IPC: 0.73024 (Simulation time: 0 hr 12 min 2 sec)
Heartbeat CPU  0 instructions:  339000000 cycles:  462643403 heartbeat IPC: 1.45639 cumulative IPC: 0.73132 (Simulation time: 0 hr 12 min 4 sec)
Heartbeat CPU  0 instructions:  340000000 cycles:  463108818 heartbeat IPC: 2.14862 cumulative IPC: 0.73275 (Simulation time: 0 hr 12 min 5 sec)
Heartbeat CPU  0 instructions:  341000000 cycles:  463515076 heartbeat IPC: 2.46149 cumulative IPC: 0.73426 (Simulation time: 0 hr 12 min 6 sec)
Heartbeat CPU  0 instructions:  342000001 cycles:  464307244 heartbeat IPC: 1.26236 cumulative IPC: 0.73517 (Simulation time: 0 hr 12 min 7 sec)
Heartbeat CPU  0 instructions:  343000001 cycles:  465263831 heartbeat IPC: 1.04538 cumulative IPC: 0.73580 (Simulation time: 0 hr 12 min 8 sec)
Heartbeat CPU  0 instructions:  344000000 cycles:  466027819 heartbeat IPC: 1.30892 cumulative IPC: 0.73675 (Simulation time: 0 hr 12 min 10 sec)
Heartbeat CPU  0 instructions:  345000002 cycles:  466817214 heartbeat IPC: 1.26680 cumulative IPC: 0.73764 (Simulation time: 0 hr 12 min 11 sec)
Heartbeat CPU  0 instructions:  346000001 cycles:  467605472 heartbeat IPC: 1.26862 cumulative IPC: 0.73854 (Simulation time: 0 hr 12 min 13 sec)
Heartbeat CPU  0 instructions:  347000000 cycles:  468398496 heartbeat IPC: 1.26099 cumulative IPC: 0.73942 (Simulation time: 0 hr 12 min 14 sec)
Heartbeat CPU  0 instructions:  348000000 cycles:  469198163 heartbeat IPC: 1.25052 cumulative IPC: 0.74030 (Simulation time: 0 hr 12 min 16 sec)
Heartbeat CPU  0 instructions:  349000000 cycles:  470000118 heartbeat IPC: 1.24695 cumulative IPC: 0.74116 (Simulation time: 0 hr 12 min 17 sec)
Heartbeat CPU  0 instructions:  350000003 cycles:  470802520 heartbeat IPC: 1.24626 cumulative IPC: 0.74202 (Simulation time: 0 hr 12 min 19 sec)
Heartbeat CPU  0 instructions:  351000003 cycles:  471599359 heartbeat IPC: 1.25496 cumulative IPC: 0.74289 (Simulation time: 0 hr 12 min 20 sec)
Heartbeat CPU  0 instructions:  352000000 cycles:  472399780 heartbeat IPC: 1.24934 cumulative IPC: 0.74375 (Simulation time: 0 hr 12 min 22 sec)
Heartbeat CPU  0 instructions:  353000000 cycles:  473224723 heartbeat IPC: 1.21220 cumulative IPC: 0.74457 (Simulation time: 0 hr 12 min 23 sec)
Heartbeat CPU  0 instructions:  354000000 cycles:  474307984 heartbeat IPC: 0.92314 cumulative IPC: 0.74498 (Simulation time: 0 hr 12 min 25 sec)
Heartbeat CPU  0 instructions:  355000000 cycles:  475390789 heartbeat IPC: 0.92353 cumulative IPC: 0.74538 (Simulation time: 0 hr 12 min 27 sec)
Heartbeat CPU  0 instructions:  356000000 cycles:  476483657 heartbeat IPC: 0.91502 cumulative IPC: 0.74577 (Simulation time: 0 hr 12 min 29 sec)
Heartbeat CPU  0 instructions:  357000003 cycles:  477575441 heartbeat IPC: 0.91593 cumulative IPC: 0.74616 (Simulation time: 0 hr 12 min 31 sec)
Heartbeat CPU  0 instructions:  358000003 cycles:  478657958 heartbeat IPC: 0.92377 cumulative IPC: 0.74656 (Simulation time: 0 hr 12 min 33 sec)
Heartbeat CPU  0 instructions:  359000001 cycles:  479716329 heartbeat IPC: 0.94485 cumulative IPC: 0.74700 (Simulation time: 0 hr 12 min 35 sec)
Heartbeat CPU  0 instructions:  360000000 cycles:  480793289 heartbeat IPC: 0.92854 cumulative IPC: 0.74741 (Simulation time: 0 hr 12 min 37 sec)
Heartbeat CPU  0 instructions:  361000001 cycles:  481874592 heartbeat IPC: 0.92481 cumulative IPC: 0.74781 (Simulation time: 0 hr 12 min 39 sec)
Heartbeat CPU  0 instructions:  362000001 cycles:  482949271 heartbeat IPC: 0.93051 cumulative IPC: 0.74821 (Simulation time: 0 hr 12 min 41 sec)
Heartbeat CPU  0 instructions:  363000001 cycles:  484042575 heartbeat IPC: 0.91466 cumulative IPC: 0.74859 (Simulation time: 0 hr 12 min 42 sec)
Heartbeat CPU  0 instructions:  364000000 cycles:  485138005 heartbeat IPC: 0.91288 cumulative IPC: 0.74896 (Simulation time: 0 hr 12 min 44 sec)
Heartbeat CPU  0 instructions:  365000002 cycles:  486236774 heartbeat IPC: 0.91011 cumulative IPC: 0.74933 (Simulation time: 0 hr 12 min 46 sec)
Heartbeat CPU  0 instructions:  366000001 cycles:  487334293 heartbeat IPC: 0.91115 cumulative IPC: 0.74969 (Simulation time: 0 hr 12 min 48 sec)
Heartbeat CPU  0 instructions:  367000002 cycles:  488429331 heartbeat IPC: 0.91321 cumulative IPC: 0.75006 (Simulation time: 0 hr 12 min 50 sec)
Heartbeat CPU  0 instructions:  368000000 cycles:  489513212 heartbeat IPC: 0.92261 cumulative IPC: 0.75044 (Simulation time: 0 hr 12 min 52 sec)
Heartbeat CPU  0 instructions:  369000001 cycles:  490620477 heartbeat IPC: 0.90313 cumulative IPC: 0.75078 (Simulation time: 0 hr 12 min 54 sec)
Heartbeat CPU  0 instructions:  370000002 cycles:  491693961 heartbeat IPC: 0.93155 cumulative IPC: 0.75118 (Simulation time: 0 hr 12 min 55 sec)
Heartbeat CPU  0 instructions:  371000002 cycles:  492836415 heartbeat IPC: 0.87531 cumulative IPC: 0.75147 (Simulation time: 0 hr 12 min 57 sec)
Heartbeat CPU  0 instructions:  372000000 cycles:  493915861 heartbeat IPC: 0.92640 cumulative IPC: 0.75185 (Simulation time: 0 hr 12 min 59 sec)
Heartbeat CPU  0 instructions:  373000000 cycles:  494999775 heartbeat IPC: 0.92258 cumulative IPC: 0.75222 (Simulation time: 0 hr 13 min 1 sec)
Heartbeat CPU  0 instructions:  374000002 cycles:  496096455 heartbeat IPC: 0.91184 cumulative IPC: 0.75258 (Simulation time: 0 hr 13 min 3 sec)
Heartbeat CPU  0 instructions:  375000000 cycles:  497196026 heartbeat IPC: 0.90944 cumulative IPC: 0.75293 (Simulation time: 0 hr 13 min 5 sec)
Heartbeat CPU  0 instructions:  376000000 cycles:  498287592 heartbeat IPC: 0.91611 cumulative IPC: 0.75328 (Simulation time: 0 hr 13 min 7 sec)
Heartbeat CPU  0 instructions:  377000003 cycles:  499376795 heartbeat IPC: 0.91811 cumulative IPC: 0.75364 (Simulation time: 0 hr 13 min 9 sec)
Heartbeat CPU  0 instructions:  378000002 cycles:  500460870 heartbeat IPC: 0.92244 cumulative IPC: 0.75401 (Simulation time: 0 hr 13 min 11 sec)
Heartbeat CPU  0 instructions:  379000000 cycles:  501552986 heartbeat IPC: 0.91565 cumulative IPC: 0.75436 (Simulation time: 0 hr 13 min 12 sec)
Heartbeat CPU  0 instructions:  380000000 cycles:  502640027 heartbeat IPC: 0.91993 cumulative IPC: 0.75472 (Simulation time: 0 hr 13 min 14 sec)
Heartbeat CPU  0 instructions:  381000002 cycles:  503743382 heartbeat IPC: 0.90633 cumulative IPC: 0.75505 (Simulation time: 0 hr 13 min 16 sec)
Heartbeat CPU  0 instructions:  382000002 cycles:  504843651 heartbeat IPC: 0.90887 cumulative IPC: 0.75539 (Simulation time: 0 hr 13 min 18 sec)
Heartbeat CPU  0 instructions:  383000002 cycles:  505921263 heartbeat IPC: 0.92798 cumulative IPC: 0.75576 (Simulation time: 0 hr 13 min 20 sec)
Heartbeat CPU  0 instructions:  384000000 cycles:  507001019 heartbeat IPC: 0.92613 cumulative IPC: 0.75612 (Simulation time: 0 hr 13 min 22 sec)
Heartbeat CPU  0 instructions:  385000003 cycles:  508096476 heartbeat IPC: 0.91286 cumulative IPC: 0.75646 (Simulation time: 0 hr 13 min 24 sec)
Heartbeat CPU  0 instructions:  386000002 cycles:  509180207 heartbeat IPC: 0.92274 cumulative IPC: 0.75681 (Simulation time: 0 hr 13 min 26 sec)
Heartbeat CPU  0 instructions:  387000001 cycles:  510272657 heartbeat IPC: 0.91537 cumulative IPC: 0.75715 (Simulation time: 0 hr 13 min 28 sec)
Heartbeat CPU  0 instructions:  388000000 cycles:  511349205 heartbeat IPC: 0.92889 cumulative IPC: 0.75751 (Simulation time: 0 hr 13 min 30 sec)
Heartbeat CPU  0 instructions:  389000002 cycles:  512466477 heartbeat IPC: 0.89504 cumulative IPC: 0.75781 (Simulation time: 0 hr 13 min 32 sec)
Heartbeat CPU  0 instructions:  390000002 cycles:  513576339 heartbeat IPC: 0.90101 cumulative IPC: 0.75812 (Simulation time: 0 hr 13 min 33 sec)
Heartbeat CPU  0 instructions:  391000002 cycles:  514678334 heartbeat IPC: 0.90745 cumulative IPC: 0.75844 (Simulation time: 0 hr 13 min 35 sec)
Heartbeat CPU  0 instructions:  392000000 cycles:  515787007 heartbeat IPC: 0.90198 cumulative IPC: 0.75875 (Simulation time: 0 hr 13 min 37 sec)
Heartbeat CPU  0 instructions:  393000001 cycles:  516891081 heartbeat IPC: 0.90574 cumulative IPC: 0.75907 (Simulation time: 0 hr 13 min 39 sec)
Heartbeat CPU  0 instructions:  394000000 cycles:  518002861 heartbeat IPC: 0.89946 cumulative IPC: 0.75937 (Simulation time: 0 hr 13 min 41 sec)
Heartbeat CPU  0 instructions:  395000000 cycles:  519027256 heartbeat IPC: 0.97619 cumulative IPC: 0.75980 (Simulation time: 0 hr 13 min 43 sec)
Heartbeat CPU  0 instructions:  396000000 cycles:  519972523 heartbeat IPC: 1.05790 cumulative IPC: 0.76034 (Simulation time: 0 hr 13 min 45 sec)
Heartbeat CPU  0 instructions:  397000002 cycles:  520924791 heartbeat IPC: 1.05013 cumulative IPC: 0.76087 (Simulation time: 0 hr 13 min 47 sec)
Heartbeat CPU  0 instructions:  398000001 cycles:  521868346 heartbeat IPC: 1.05982 cumulative IPC: 0.76141 (Simulation time: 0 hr 13 min 48 sec)
Heartbeat CPU  0 instructions:  399000000 cycles:  522810735 heartbeat IPC: 1.06113 cumulative IPC: 0.76195 (Simulation time: 0 hr 13 min 50 sec)
Heartbeat CPU  0 instructions:  400000000 cycles:  523760299 heartbeat IPC: 1.05311 cumulative IPC: 0.76248 (Simulation time: 0 hr 13 min 52 sec)
Heartbeat CPU  0 instructions:  401000001 cycles:  524702555 heartbeat IPC: 1.06128 cumulative IPC: 0.76302 (Simulation time: 0 hr 13 min 54 sec)
Heartbeat CPU  0 instructions:  402000003 cycles:  525643506 heartbeat IPC: 1.06276 cumulative IPC: 0.76355 (Simulation time: 0 hr 13 min 56 sec)
Heartbeat CPU  0 instructions:  403000003 cycles:  526578203 heartbeat IPC: 1.06987 cumulative IPC: 0.76410 (Simulation time: 0 hr 13 min 58 sec)
Heartbeat CPU  0 instructions:  404000000 cycles:  527516417 heartbeat IPC: 1.06585 cumulative IPC: 0.76463 (Simulation time: 0 hr 14 min 0 sec)
Heartbeat CPU  0 instructions:  405000002 cycles:  528449563 heartbeat IPC: 1.07165 cumulative IPC: 0.76518 (Simulation time: 0 hr 14 min 2 sec)
Heartbeat CPU  0 instructions:  406000002 cycles:  529386659 heartbeat IPC: 1.06713 cumulative IPC: 0.76571 (Simulation time: 0 hr 14 min 4 sec)
Heartbeat CPU  0 instructions:  407000002 cycles:  530318906 heartbeat IPC: 1.07268 cumulative IPC: 0.76625 (Simulation time: 0 hr 14 min 5 sec)
Heartbeat CPU  0 instructions:  408000000 cycles:  531244864 heartbeat IPC: 1.07996 cumulative IPC: 0.76680 (Simulation time: 0 hr 14 min 7 sec)
Heartbeat CPU  0 instructions:  409000003 cycles:  532169564 heartbeat IPC: 1.08144 cumulative IPC: 0.76735 (Simulation time: 0 hr 14 min 9 sec)
Heartbeat CPU  0 instructions:  410000003 cycles:  533077662 heartbeat IPC: 1.10120 cumulative IPC: 0.76792 (Simulation time: 0 hr 14 min 11 sec)
Heartbeat CPU  0 instructions:  411000000 cycles:  534245033 heartbeat IPC: 0.85662 cumulative IPC: 0.76811 (Simulation time: 0 hr 14 min 13 sec)
Heartbeat CPU  0 instructions:  412000000 cycles:  535325895 heartbeat IPC: 0.92519 cumulative IPC: 0.76843 (Simulation time: 0 hr 14 min 15 sec)
Heartbeat CPU  0 instructions:  413000000 cycles:  536411801 heartbeat IPC: 0.92089 cumulative IPC: 0.76874 (Simulation time: 0 hr 14 min 16 sec)
Heartbeat CPU  0 instructions:  414000003 cycles:  537497335 heartbeat IPC: 0.92121 cumulative IPC: 0.76904 (Simulation time: 0 hr 14 min 18 sec)
Heartbeat CPU  0 instructions:  415000000 cycles:  538562783 heartbeat IPC: 0.93857 cumulative IPC: 0.76938 (Simulation time: 0 hr 14 min 20 sec)
Heartbeat CPU  0 instructions:  416000000 cycles:  539631758 heartbeat IPC: 0.93548 cumulative IPC: 0.76971 (Simulation time: 0 hr 14 min 22 sec)
Heartbeat CPU  0 instructions:  417000003 cycles:  540686922 heartbeat IPC: 0.94772 cumulative IPC: 0.77006 (Simulation time: 0 hr 14 min 24 sec)
Heartbeat CPU  0 instructions:  418000003 cycles:  541754602 heartbeat IPC: 0.93661 cumulative IPC: 0.77038 (Simulation time: 0 hr 14 min 26 sec)
Heartbeat CPU  0 instructions:  419000003 cycles:  542805662 heartbeat IPC: 0.95142 cumulative IPC: 0.77074 (Simulation time: 0 hr 14 min 28 sec)
Heartbeat CPU  0 instructions:  420000000 cycles:  543883535 heartbeat IPC: 0.92775 cumulative IPC: 0.77105 (Simulation time: 0 hr 14 min 29 sec)
Heartbeat CPU  0 instructions:  421000002 cycles:  544966009 heartbeat IPC: 0.92381 cumulative IPC: 0.77135 (Simulation time: 0 hr 14 min 31 sec)
Heartbeat CPU  0 instructions:  422000001 cycles:  546045455 heartbeat IPC: 0.92640 cumulative IPC: 0.77166 (Simulation time: 0 hr 14 min 33 sec)
Heartbeat CPU  0 instructions:  423000001 cycles:  547128884 heartbeat IPC: 0.92300 cumulative IPC: 0.77196 (Simulation time: 0 hr 14 min 35 sec)
Heartbeat CPU  0 instructions:  424000000 cycles:  548189071 heartbeat IPC: 0.94323 cumulative IPC: 0.77229 (Simulation time: 0 hr 14 min 37 sec)
Heartbeat CPU  0 instructions:  425000000 cycles:  549284816 heartbeat IPC: 0.91262 cumulative IPC: 0.77257 (Simulation time: 0 hr 14 min 39 sec)
Heartbeat CPU  0 instructions:  426000001 cycles:  550358133 heartbeat IPC: 0.93169 cumulative IPC: 0.77288 (Simulation time: 0 hr 14 min 41 sec)
Heartbeat CPU  0 instructions:  427000001 cycles:  551460385 heartbeat IPC: 0.90723 cumulative IPC: 0.77315 (Simulation time: 0 hr 14 min 43 sec)
Heartbeat CPU  0 instructions:  428000000 cycles:  552554735 heartbeat IPC: 0.91378 cumulative IPC: 0.77343 (Simulation time: 0 hr 14 min 44 sec)
Heartbeat CPU  0 instructions:  429000000 cycles:  553652495 heartbeat IPC: 0.91095 cumulative IPC: 0.77370 (Simulation time: 0 hr 14 min 46 sec)
Heartbeat CPU  0 instructions:  430000003 cycles:  554760303 heartbeat IPC: 0.90269 cumulative IPC: 0.77396 (Simulation time: 0 hr 14 min 48 sec)
Heartbeat CPU  0 instructions:  431000003 cycles:  555862374 heartbeat IPC: 0.90738 cumulative IPC: 0.77422 (Simulation time: 0 hr 14 min 50 sec)
Heartbeat CPU  0 instructions:  432000000 cycles:  556946810 heartbeat IPC: 0.92214 cumulative IPC: 0.77451 (Simulation time: 0 hr 14 min 52 sec)
Heartbeat CPU  0 instructions:  433000000 cycles:  558040078 heartbeat IPC: 0.91469 cumulative IPC: 0.77479 (Simulation time: 0 hr 14 min 54 sec)
Heartbeat CPU  0 instructions:  434000002 cycles:  559154868 heartbeat IPC: 0.89703 cumulative IPC: 0.77503 (Simulation time: 0 hr 14 min 56 sec)
Heartbeat CPU  0 instructions:  435000002 cycles:  560239829 heartbeat IPC: 0.92169 cumulative IPC: 0.77531 (Simulation time: 0 hr 14 min 57 sec)
Heartbeat CPU  0 instructions:  436000000 cycles:  561302643 heartbeat IPC: 0.94090 cumulative IPC: 0.77563 (Simulation time: 0 hr 14 min 59 sec)
Heartbeat CPU  0 instructions:  437000003 cycles:  562366516 heartbeat IPC: 0.93996 cumulative IPC: 0.77594 (Simulation time: 0 hr 15 min 1 sec)
Heartbeat CPU  0 instructions:  438000001 cycles:  563436822 heartbeat IPC: 0.93431 cumulative IPC: 0.77624 (Simulation time: 0 hr 15 min 3 sec)
Heartbeat CPU  0 instructions:  439000002 cycles:  564520059 heartbeat IPC: 0.92316 cumulative IPC: 0.77652 (Simulation time: 0 hr 15 min 5 sec)
Heartbeat CPU  0 instructions:  440000000 cycles:  565614696 heartbeat IPC: 0.91354 cumulative IPC: 0.77679 (Simulation time: 0 hr 15 min 7 sec)
Heartbeat CPU  0 instructions:  441000001 cycles:  566699370 heartbeat IPC: 0.92194 cumulative IPC: 0.77707 (Simulation time: 0 hr 15 min 9 sec)
Heartbeat CPU  0 instructions:  442000001 cycles:  567770706 heartbeat IPC: 0.93341 cumulative IPC: 0.77736 (Simulation time: 0 hr 15 min 11 sec)
Heartbeat CPU  0 instructions:  443000001 cycles:  568840462 heartbeat IPC: 0.93479 cumulative IPC: 0.77766 (Simulation time: 0 hr 15 min 13 sec)
Heartbeat CPU  0 instructions:  444000000 cycles:  569910293 heartbeat IPC: 0.93473 cumulative IPC: 0.77795 (Simulation time: 0 hr 15 min 14 sec)
Heartbeat CPU  0 instructions:  445000003 cycles:  571006028 heartbeat IPC: 0.91263 cumulative IPC: 0.77821 (Simulation time: 0 hr 15 min 16 sec)
Heartbeat CPU  0 instructions:  446000001 cycles:  572087022 heartbeat IPC: 0.92507 cumulative IPC: 0.77849 (Simulation time: 0 hr 15 min 18 sec)
Heartbeat CPU  0 instructions:  447000003 cycles:  573174243 heartbeat IPC: 0.91978 cumulative IPC: 0.77876 (Simulation time: 0 hr 15 min 20 sec)
Heartbeat CPU  0 instructions:  448000000 cycles:  574255098 heartbeat IPC: 0.92519 cumulative IPC: 0.77903 (Simulation time: 0 hr 15 min 22 sec)
Heartbeat CPU  0 instructions:  449000001 cycles:  575339904 heartbeat IPC: 0.92182 cumulative IPC: 0.77930 (Simulation time: 0 hr 15 min 24 sec)
Heartbeat CPU  0 instructions:  450000000 cycles:  576437424 heartbeat IPC: 0.91114 cumulative IPC: 0.77955 (Simulation time: 0 hr 15 min 26 sec)
Heartbeat CPU  0 instructions:  451000002 cycles:  577546508 heartbeat IPC: 0.90165 cumulative IPC: 0.77979 (Simulation time: 0 hr 15 min 28 sec)
Heartbeat CPU  0 instructions:  452000000 cycles:  578666016 heartbeat IPC: 0.89325 cumulative IPC: 0.78001 (Simulation time: 0 hr 15 min 30 sec)
Heartbeat CPU  0 instructions:  453000003 cycles:  579774502 heartbeat IPC: 0.90213 cumulative IPC: 0.78024 (Simulation time: 0 hr 15 min 32 sec)
Heartbeat CPU  0 instructions:  454000001 cycles:  580897244 heartbeat IPC: 0.89067 cumulative IPC: 0.78046 (Simulation time: 0 hr 15 min 33 sec)
Heartbeat CPU  0 instructions:  455000003 cycles:  582002358 heartbeat IPC: 0.90489 cumulative IPC: 0.78069 (Simulation time: 0 hr 15 min 35 sec)
Heartbeat CPU  0 instructions:  456000000 cycles:  583098465 heartbeat IPC: 0.91232 cumulative IPC: 0.78094 (Simulation time: 0 hr 15 min 37 sec)
Heartbeat CPU  0 instructions:  457000001 cycles:  584203165 heartbeat IPC: 0.90522 cumulative IPC: 0.78117 (Simulation time: 0 hr 15 min 39 sec)
Heartbeat CPU  0 instructions:  458000002 cycles:  585305997 heartbeat IPC: 0.90676 cumulative IPC: 0.78141 (Simulation time: 0 hr 15 min 41 sec)
Heartbeat CPU  0 instructions:  459000002 cycles:  586397744 heartbeat IPC: 0.91596 cumulative IPC: 0.78166 (Simulation time: 0 hr 15 min 43 sec)
Heartbeat CPU  0 instructions:  460000000 cycles:  587336398 heartbeat IPC: 1.06535 cumulative IPC: 0.78212 (Simulation time: 0 hr 15 min 45 sec)
Heartbeat CPU  0 instructions:  461000001 cycles:  588260322 heartbeat IPC: 1.08234 cumulative IPC: 0.78259 (Simulation time: 0 hr 15 min 46 sec)
Heartbeat CPU  0 instructions:  462000002 cycles:  589165408 heartbeat IPC: 1.10487 cumulative IPC: 0.78308 (Simulation time: 0 hr 15 min 48 sec)
Heartbeat CPU  0 instructions:  463000001 cycles:  590069186 heartbeat IPC: 1.10647 cumulative IPC: 0.78358 (Simulation time: 0 hr 15 min 50 sec)
Heartbeat CPU  0 instructions:  464000000 cycles:  590979127 heartbeat IPC: 1.09897 cumulative IPC: 0.78406 (Simulation time: 0 hr 15 min 52 sec)
Heartbeat CPU  0 instructions:  465000000 cycles:  591882158 heartbeat IPC: 1.10738 cumulative IPC: 0.78456 (Simulation time: 0 hr 15 min 54 sec)
Heartbeat CPU  0 instructions:  466000000 cycles:  592800757 heartbeat IPC: 1.08861 cumulative IPC: 0.78503 (Simulation time: 0 hr 15 min 56 sec)
Heartbeat CPU  0 instructions:  467000003 cycles:  593717455 heartbeat IPC: 1.09088 cumulative IPC: 0.78550 (Simulation time: 0 hr 15 min 58 sec)
Heartbeat CPU  0 instructions:  468000000 cycles:  594624246 heartbeat IPC: 1.10279 cumulative IPC: 0.78599 (Simulation time: 0 hr 16 min 0 sec)
Heartbeat CPU  0 instructions:  469000002 cycles:  595549907 heartbeat IPC: 1.08031 cumulative IPC: 0.78644 (Simulation time: 0 hr 16 min 2 sec)
Heartbeat CPU  0 instructions:  470000003 cycles:  596470256 heartbeat IPC: 1.08655 cumulative IPC: 0.78691 (Simulation time: 0 hr 16 min 4 sec)
Heartbeat CPU  0 instructions:  471000000 cycles:  597372620 heartbeat IPC: 1.10820 cumulative IPC: 0.78739 (Simulation time: 0 hr 16 min 6 sec)
Heartbeat CPU  0 instructions:  472000000 cycles:  598278390 heartbeat IPC: 1.10403 cumulative IPC: 0.78787 (Simulation time: 0 hr 16 min 7 sec)
Heartbeat CPU  0 instructions:  473000001 cycles:  599187910 heartbeat IPC: 1.09948 cumulative IPC: 0.78835 (Simulation time: 0 hr 16 min 9 sec)
Heartbeat CPU  0 instructions:  474000002 cycles:  600093491 heartbeat IPC: 1.10426 cumulative IPC: 0.78882 (Simulation time: 0 hr 16 min 11 sec)
Heartbeat CPU  0 instructions:  475000002 cycles:  600739659 heartbeat IPC: 1.54759 cumulative IPC: 0.78964 (Simulation time: 0 hr 16 min 12 sec)
Heartbeat CPU  0 instructions:  476000000 cycles:  606707442 heartbeat IPC: 0.16757 cumulative IPC: 0.78352 (Simulation time: 0 hr 16 min 17 sec)
Heartbeat CPU  0 instructions:  477000002 cycles:  614478686 heartbeat IPC: 0.12868 cumulative IPC: 0.77523 (Simulation time: 0 hr 16 min 22 sec)
Heartbeat CPU  0 instructions:  478000000 cycles:  622269692 heartbeat IPC: 0.12835 cumulative IPC: 0.76712 (Simulation time: 0 hr 16 min 27 sec)
Heartbeat CPU  0 instructions:  479000002 cycles:  630084345 heartbeat IPC: 0.12796 cumulative IPC: 0.75919 (Simulation time: 0 hr 16 min 32 sec)
Heartbeat CPU  0 instructions:  480000000 cycles:  637320610 heartbeat IPC: 0.13819 cumulative IPC: 0.75213 (Simulation time: 0 hr 16 min 37 sec)
Heartbeat CPU  0 instructions:  481000000 cycles:  640325297 heartbeat IPC: 0.33281 cumulative IPC: 0.75017 (Simulation time: 0 hr 16 min 40 sec)
Heartbeat CPU  0 instructions:  482000000 cycles:  643289192 heartbeat IPC: 0.33739 cumulative IPC: 0.74826 (Simulation time: 0 hr 16 min 43 sec)
Heartbeat CPU  0 instructions:  483000000 cycles:  646206398 heartbeat IPC: 0.34279 cumulative IPC: 0.74643 (Simulation time: 0 hr 16 min 45 sec)
Heartbeat CPU  0 instructions:  484000000 cycles:  649156996 heartbeat IPC: 0.33891 cumulative IPC: 0.74458 (Simulation time: 0 hr 16 min 48 sec)
Heartbeat CPU  0 instructions:  485000002 cycles:  652029096 heartbeat IPC: 0.34818 cumulative IPC: 0.74283 (Simulation time: 0 hr 16 min 51 sec)
Heartbeat CPU  0 instructions:  486000000 cycles:  654882137 heartbeat IPC: 0.35050 cumulative IPC: 0.74112 (Simulation time: 0 hr 16 min 53 sec)
Heartbeat CPU  0 instructions:  487000003 cycles:  657742953 heartbeat IPC: 0.34955 cumulative IPC: 0.73942 (Simulation time: 0 hr 16 min 56 sec)
Heartbeat CPU  0 instructions:  488000000 cycles:  660580765 heartbeat IPC: 0.35238 cumulative IPC: 0.73775 (Simulation time: 0 hr 16 min 58 sec)
Heartbeat CPU  0 instructions:  489000003 cycles:  663434622 heartbeat IPC: 0.35040 cumulative IPC: 0.73608 (Simulation time: 0 hr 17 min 1 sec)
Heartbeat CPU  0 instructions:  490000000 cycles:  666302853 heartbeat IPC: 0.34865 cumulative IPC: 0.73441 (Simulation time: 0 hr 17 min 4 sec)
Heartbeat CPU  0 instructions:  491000000 cycles:  669201056 heartbeat IPC: 0.34504 cumulative IPC: 0.73273 (Simulation time: 0 hr 17 min 6 sec)
Heartbeat CPU  0 instructions:  492000000 cycles:  672076896 heartbeat IPC: 0.34772 cumulative IPC: 0.73108 (Simulation time: 0 hr 17 min 9 sec)
Heartbeat CPU  0 instructions:  493000000 cycles:  674932035 heartbeat IPC: 0.35025 cumulative IPC: 0.72947 (Simulation time: 0 hr 17 min 12 sec)
Heartbeat CPU  0 instructions:  494000000 cycles:  677799379 heartbeat IPC: 0.34875 cumulative IPC: 0.72786 (Simulation time: 0 hr 17 min 15 sec)
Heartbeat CPU  0 instructions:  495000000 cycles:  680652094 heartbeat IPC: 0.35054 cumulative IPC: 0.72627 (Simulation time: 0 hr 17 min 17 sec)
Heartbeat CPU  0 instructions:  496000000 cycles:  683597727 heartbeat IPC: 0.33949 cumulative IPC: 0.72460 (Simulation time: 0 hr 17 min 20 sec)
Heartbeat CPU  0 instructions:  497000000 cycles:  686476993 heartbeat IPC: 0.34731 cumulative IPC: 0.72302 (Simulation time: 0 hr 17 min 23 sec)
Heartbeat CPU  0 instructions:  498000001 cycles:  689366481 heartbeat IPC: 0.34608 cumulative IPC: 0.72144 (Simulation time: 0 hr 17 min 25 sec)
Heartbeat CPU  0 instructions:  499000002 cycles:  692246995 heartbeat IPC: 0.34716 cumulative IPC: 0.71988 (Simulation time: 0 hr 17 min 28 sec)
Heartbeat CPU  0 instructions:  500000000 cycles:  695110650 heartbeat IPC: 0.34920 cumulative IPC: 0.71835 (Simulation time: 0 hr 17 min 31 sec)
Heartbeat CPU  0 instructions:  501000002 cycles:  697992144 heartbeat IPC: 0.34704 cumulative IPC: 0.71682 (Simulation time: 0 hr 17 min 33 sec)
Heartbeat CPU  0 instructions:  502000002 cycles:  700862703 heartbeat IPC: 0.34836 cumulative IPC: 0.71531 (Simulation time: 0 hr 17 min 36 sec)
Heartbeat CPU  0 instructions:  503000003 cycles:  703725003 heartbeat IPC: 0.34937 cumulative IPC: 0.71382 (Simulation time: 0 hr 17 min 39 sec)
Heartbeat CPU  0 instructions:  504000000 cycles:  706637166 heartbeat IPC: 0.34339 cumulative IPC: 0.71229 (Simulation time: 0 hr 17 min 41 sec)
Heartbeat CPU  0 instructions:  505000000 cycles:  709530222 heartbeat IPC: 0.34566 cumulative IPC: 0.71080 (Simulation time: 0 hr 17 min 44 sec)
Heartbeat CPU  0 instructions:  506000003 cycles:  712383448 heartbeat IPC: 0.35048 cumulative IPC: 0.70935 (Simulation time: 0 hr 17 min 47 sec)
Heartbeat CPU  0 instructions:  507000003 cycles:  715250262 heartbeat IPC: 0.34882 cumulative IPC: 0.70791 (Simulation time: 0 hr 17 min 49 sec)
Heartbeat CPU  0 instructions:  508000000 cycles:  718123731 heartbeat IPC: 0.34801 cumulative IPC: 0.70647 (Simulation time: 0 hr 17 min 52 sec)
Heartbeat CPU  0 instructions:  509000002 cycles:  721024815 heartbeat IPC: 0.34470 cumulative IPC: 0.70501 (Simulation time: 0 hr 17 min 55 sec)
Heartbeat CPU  0 instructions:  510000002 cycles:  723964989 heartbeat IPC: 0.34012 cumulative IPC: 0.70353 (Simulation time: 0 hr 17 min 57 sec)
Heartbeat CPU  0 instructions:  511000000 cycles:  726924775 heartbeat IPC: 0.33786 cumulative IPC: 0.70204 (Simulation time: 0 hr 18 min 0 sec)
Heartbeat CPU  0 instructions:  512000000 cycles:  729823189 heartbeat IPC: 0.34502 cumulative IPC: 0.70062 (Simulation time: 0 hr 18 min 3 sec)
Heartbeat CPU  0 instructions:  513000003 cycles:  732677744 heartbeat IPC: 0.35032 cumulative IPC: 0.69925 (Simulation time: 0 hr 18 min 5 sec)
Heartbeat CPU  0 instructions:  514000002 cycles:  735554555 heartbeat IPC: 0.34761 cumulative IPC: 0.69788 (Simulation time: 0 hr 18 min 8 sec)
Heartbeat CPU  0 instructions:  515000002 cycles:  738415088 heartbeat IPC: 0.34959 cumulative IPC: 0.69653 (Simulation time: 0 hr 18 min 11 sec)
Heartbeat CPU  0 instructions:  516000000 cycles:  741275944 heartbeat IPC: 0.34955 cumulative IPC: 0.69519 (Simulation time: 0 hr 18 min 13 sec)
Heartbeat CPU  0 instructions:  517000000 cycles:  744151566 heartbeat IPC: 0.34775 cumulative IPC: 0.69384 (Simulation time: 0 hr 18 min 16 sec)
Heartbeat CPU  0 instructions:  518000001 cycles:  747055576 heartbeat IPC: 0.34435 cumulative IPC: 0.69248 (Simulation time: 0 hr 18 min 19 sec)
Heartbeat CPU  0 instructions:  519000003 cycles:  749942113 heartbeat IPC: 0.34644 cumulative IPC: 0.69115 (Simulation time: 0 hr 18 min 21 sec)
Heartbeat CPU  0 instructions:  520000000 cycles:  752814415 heartbeat IPC: 0.34815 cumulative IPC: 0.68984 (Simulation time: 0 hr 18 min 24 sec)
Heartbeat CPU  0 instructions:  521000003 cycles:  755677985 heartbeat IPC: 0.34922 cumulative IPC: 0.68855 (Simulation time: 0 hr 18 min 27 sec)
Heartbeat CPU  0 instructions:  522000003 cycles:  758532004 heartbeat IPC: 0.35038 cumulative IPC: 0.68728 (Simulation time: 0 hr 18 min 29 sec)
Heartbeat CPU  0 instructions:  523000000 cycles:  761399030 heartbeat IPC: 0.34879 cumulative IPC: 0.68600 (Simulation time: 0 hr 18 min 32 sec)
Heartbeat CPU  0 instructions:  524000000 cycles:  764353516 heartbeat IPC: 0.33847 cumulative IPC: 0.68466 (Simulation time: 0 hr 18 min 35 sec)
Heartbeat CPU  0 instructions:  525000000 cycles:  767343427 heartbeat IPC: 0.33446 cumulative IPC: 0.68329 (Simulation time: 0 hr 18 min 37 sec)
Heartbeat CPU  0 instructions:  526000000 cycles:  770178697 heartbeat IPC: 0.35270 cumulative IPC: 0.68207 (Simulation time: 0 hr 18 min 40 sec)
Heartbeat CPU  0 instructions:  527000002 cycles:  773019712 heartbeat IPC: 0.35199 cumulative IPC: 0.68086 (Simulation time: 0 hr 18 min 43 sec)
Heartbeat CPU  0 instructions:  528000000 cycles:  775894675 heartbeat IPC: 0.34783 cumulative IPC: 0.67962 (Simulation time: 0 hr 18 min 45 sec)
Heartbeat CPU  0 instructions:  529000002 cycles:  778762100 heartbeat IPC: 0.34875 cumulative IPC: 0.67841 (Simulation time: 0 hr 18 min 48 sec)
Heartbeat CPU  0 instructions:  530000000 cycles:  781622859 heartbeat IPC: 0.34956 cumulative IPC: 0.67720 (Simulation time: 0 hr 18 min 51 sec)
Heartbeat CPU  0 instructions:  531000000 cycles:  784474502 heartbeat IPC: 0.35068 cumulative IPC: 0.67601 (Simulation time: 0 hr 18 min 53 sec)
Heartbeat CPU  0 instructions:  532000000 cycles:  787353196 heartbeat IPC: 0.34738 cumulative IPC: 0.67481 (Simulation time: 0 hr 18 min 56 sec)
Heartbeat CPU  0 instructions:  533000003 cycles:  790242640 heartbeat IPC: 0.34609 cumulative IPC: 0.67361 (Simulation time: 0 hr 18 min 59 sec)
Heartbeat CPU  0 instructions:  534000003 cycles:  793139576 heartbeat IPC: 0.34519 cumulative IPC: 0.67241 (Simulation time: 0 hr 19 min 1 sec)
Heartbeat CPU  0 instructions:  535000000 cycles:  796007943 heartbeat IPC: 0.34863 cumulative IPC: 0.67124 (Simulation time: 0 hr 19 min 4 sec)
[...]
Heartbeat CPU  0 instructions: 1887000003 cycles: 2615076667 heartbeat IPC: 0.32939 cumulative IPC: 0.72133 (Simulation time: 1 hr 7 min 18 sec)
Heartbeat CPU  0 instructions: 1888000000 cycles: 2617965997 heartbeat IPC: 0.34610 cumulative IPC: 0.72092 (Simulation time: 1 hr 7 min 20 sec)
Heartbeat CPU  0 instructions: 1889000002 cycles: 2620826035 heartbeat IPC: 0.34965 cumulative IPC: 0.72051 (Simulation time: 1 hr 7 min 23 sec)
Heartbeat CPU  0 instructions: 1890000001 cycles: 2623709579 heartbeat IPC: 0.34680 cumulative IPC: 0.72010 (Simulation time: 1 hr 7 min 26 sec)
Heartbeat CPU  0 instructions: 1891000003 cycles: 2626578183 heartbeat IPC: 0.34860 cumulative IPC: 0.71970 (Simulation time: 1 hr 7 min 28 sec)
Heartbeat CPU  0 instructions: 1892000000 cycles: 2629491706 heartbeat IPC: 0.34323 cumulative IPC: 0.71928 (Simulation time: 1 hr 7 min 31 sec)
Heartbeat CPU  0 instructions: 1893000000 cycles: 2632415611 heartbeat IPC: 0.34201 cumulative IPC: 0.71886 (Simulation time: 1 hr 7 min 34 sec)
Heartbeat CPU  0 instructions: 1894000001 cycles: 2635300956 heartbeat IPC: 0.34658 cumulative IPC: 0.71845 (Simulation time: 1 hr 7 min 37 sec)
Heartbeat CPU  0 instructions: 1895000000 cycles: 2638190236 heartbeat IPC: 0.34611 cumulative IPC: 0.71804 (Simulation time: 1 hr 7 min 39 sec)
Heartbeat CPU  0 instructions: 1896000000 cycles: 2641115949 heartbeat IPC: 0.34180 cumulative IPC: 0.71763 (Simulation time: 1 hr 7 min 42 sec)
Heartbeat CPU  0 instructions: 1897000000 cycles: 2644003551 heartbeat IPC: 0.34631 cumulative IPC: 0.71722 (Simulation time: 1 hr 7 min 45 sec)
Heartbeat CPU  0 instructions: 1898000003 cycles: 2646934077 heartbeat IPC: 0.34124 cumulative IPC: 0.71680 (Simulation time: 1 hr 7 min 47 sec)
Heartbeat CPU  0 instructions: 1899000003 cycles: 2649812666 heartbeat IPC: 0.34739 cumulative IPC: 0.71640 (Simulation time: 1 hr 7 min 50 sec)
Heartbeat CPU  0 instructions: 1900000000 cycles: 2652806692 heartbeat IPC: 0.33400 cumulative IPC: 0.71597 (Simulation time: 1 hr 7 min 53 sec)
Heartbeat CPU  0 instructions: 1901000001 cycles: 2655694203 heartbeat IPC: 0.34632 cumulative IPC: 0.71557 (Simulation time: 1 hr 7 min 56 sec)
Heartbeat CPU  0 instructions: 1902000003 cycles: 2658550685 heartbeat IPC: 0.35008 cumulative IPC: 0.71518 (Simulation time: 1 hr 7 min 58 sec)
Heartbeat CPU  0 instructions: 1903000000 cycles: 2661407882 heartbeat IPC: 0.34999 cumulative IPC: 0.71478 (Simulation time: 1 hr 8 min 1 sec)
Heartbeat CPU  0 instructions: 1904000000 cycles: 2664333566 heartbeat IPC: 0.34180 cumulative IPC: 0.71438 (Simulation time: 1 hr 8 min 4 sec)
Heartbeat CPU  0 instructions: 1905000003 cycles: 2667199406 heartbeat IPC: 0.34894 cumulative IPC: 0.71398 (Simulation time: 1 hr 8 min 6 sec)
Heartbeat CPU  0 instructions: 1906000000 cycles: 2670110408 heartbeat IPC: 0.34352 cumulative IPC: 0.71358 (Simulation time: 1 hr 8 min 9 sec)
Heartbeat CPU  0 instructions: 1907000001 cycles: 2673020432 heartbeat IPC: 0.34364 cumulative IPC: 0.71318 (Simulation time: 1 hr 8 min 12 sec)
Heartbeat CPU  0 instructions: 1908000000 cycles: 2675883331 heartbeat IPC: 0.34930 cumulative IPC: 0.71279 (Simulation time: 1 hr 8 min 14 sec)
Heartbeat CPU  0 instructions: 1909000001 cycles: 2678767844 heartbeat IPC: 0.34668 cumulative IPC: 0.71239 (Simulation time: 1 hr 8 min 17 sec)
Heartbeat CPU  0 instructions: 1910000000 cycles: 2681650520 heartbeat IPC: 0.34690 cumulative IPC: 0.71200 (Simulation time: 1 hr 8 min 20 sec)
Heartbeat CPU  0 instructions: 1911000001 cycles: 2684548836 heartbeat IPC: 0.34503 cumulative IPC: 0.71160 (Simulation time: 1 hr 8 min 22 sec)
Heartbeat CPU  0 instructions: 1912000000 cycles: 2686059640 heartbeat IPC: 0.66190 cumulative IPC: 0.71157 (Simulation time: 1 hr 8 min 24 sec)
Heartbeat CPU  0 instructions: 1913000003 cycles: 2686862140 heartbeat IPC: 1.24611 cumulative IPC: 0.71173 (Simulation time: 1 hr 8 min 26 sec)
Heartbeat CPU  0 instructions: 1914000001 cycles: 2687489620 heartbeat IPC: 1.59367 cumulative IPC: 0.71194 (Simulation time: 1 hr 8 min 27 sec)
Heartbeat CPU  0 instructions: 1915000001 cycles: 2688080638 heartbeat IPC: 1.69200 cumulative IPC: 0.71216 (Simulation time: 1 hr 8 min 29 sec)
Heartbeat CPU  0 instructions: 1916000000 cycles: 2688652173 heartbeat IPC: 1.74967 cumulative IPC: 0.71238 (Simulation time: 1 hr 8 min 30 sec)
Heartbeat CPU  0 instructions: 1917000000 cycles: 2689188395 heartbeat IPC: 1.86490 cumulative IPC: 0.71261 (Simulation time: 1 hr 8 min 32 sec)
Heartbeat CPU  0 instructions: 1918000002 cycles: 2689767075 heartbeat IPC: 1.72807 cumulative IPC: 0.71282 (Simulation time: 1 hr 8 min 33 sec)
Heartbeat CPU  0 instructions: 1919000003 cycles: 2690348189 heartbeat IPC: 1.72083 cumulative IPC: 0.71304 (Simulation time: 1 hr 8 min 35 sec)
Heartbeat CPU  0 instructions: 1920000000 cycles: 2690940302 heartbeat IPC: 1.68886 cumulative IPC: 0.71326 (Simulation time: 1 hr 8 min 37 sec)
Heartbeat CPU  0 instructions: 1921000002 cycles: 2691510832 heartbeat IPC: 1.75276 cumulative IPC: 0.71348 (Simulation time: 1 hr 8 min 38 sec)
Heartbeat CPU  0 instructions: 1922000003 cycles: 2692055552 heartbeat IPC: 1.83581 cumulative IPC: 0.71370 (Simulation time: 1 hr 8 min 40 sec)
Heartbeat CPU  0 instructions: 1923000003 cycles: 2692626876 heartbeat IPC: 1.75032 cumulative IPC: 0.71392 (Simulation time: 1 hr 8 min 41 sec)
Heartbeat CPU  0 instructions: 1924000000 cycles: 2693295081 heartbeat IPC: 1.49654 cumulative IPC: 0.71412 (Simulation time: 1 hr 8 min 43 sec)
Heartbeat CPU  0 instructions: 1925000000 cycles: 2694086052 heartbeat IPC: 1.26427 cumulative IPC: 0.71428 (Simulation time: 1 hr 8 min 45 sec)
Heartbeat CPU  0 instructions: 1926000000 cycles: 2694869840 heartbeat IPC: 1.27586 cumulative IPC: 0.71444 (Simulation time: 1 hr 8 min 47 sec)
Heartbeat CPU  0 instructions: 1927000002 cycles: 2695611542 heartbeat IPC: 1.34825 cumulative IPC: 0.71462 (Simulation time: 1 hr 8 min 50 sec)
Heartbeat CPU  0 instructions: 1928000000 cycles: 2696373383 heartbeat IPC: 1.31261 cumulative IPC: 0.71479 (Simulation time: 1 hr 8 min 52 sec)
Heartbeat CPU  0 instructions: 1929000000 cycles: 2697169755 heartbeat IPC: 1.25569 cumulative IPC: 0.71495 (Simulation time: 1 hr 8 min 54 sec)
Heartbeat CPU  0 instructions: 1930000000 cycles: 2697917958 heartbeat IPC: 1.33654 cumulative IPC: 0.71512 (Simulation time: 1 hr 8 min 56 sec)
Heartbeat CPU  0 instructions: 1931000000 cycles: 2698673376 heartbeat IPC: 1.32377 cumulative IPC: 0.71529 (Simulation time: 1 hr 8 min 58 sec)
Heartbeat CPU  0 instructions: 1932000000 cycles: 2699465275 heartbeat IPC: 1.26279 cumulative IPC: 0.71545 (Simulation time: 1 hr 9 min 0 sec)
Heartbeat CPU  0 instructions: 1933000000 cycles: 2700346087 heartbeat IPC: 1.13532 cumulative IPC: 0.71559 (Simulation time: 1 hr 9 min 2 sec)
Heartbeat CPU  0 instructions: 1934000003 cycles: 2701179953 heartbeat IPC: 1.19924 cumulative IPC: 0.71574 (Simulation time: 1 hr 9 min 5 sec)
Heartbeat CPU  0 instructions: 1935000001 cycles: 2701924231 heartbeat IPC: 1.34358 cumulative IPC: 0.71591 (Simulation time: 1 hr 9 min 7 sec)
Heartbeat CPU  0 instructions: 1936000000 cycles: 2702659002 heartbeat IPC: 1.36097 cumulative IPC: 0.71609 (Simulation time: 1 hr 9 min 9 sec)
Heartbeat CPU  0 instructions: 1937000002 cycles: 2703421480 heartbeat IPC: 1.31152 cumulative IPC: 0.71625 (Simulation time: 1 hr 9 min 11 sec)
Heartbeat CPU  0 instructions: 1938000002 cycles: 2704174729 heartbeat IPC: 1.32758 cumulative IPC: 0.71642 (Simulation time: 1 hr 9 min 13 sec)
Heartbeat CPU  0 instructions: 1939000003 cycles: 2704910186 heartbeat IPC: 1.35970 cumulative IPC: 0.71660 (Simulation time: 1 hr 9 min 15 sec)
Heartbeat CPU  0 instructions: 1940000000 cycles: 2705662907 heartbeat IPC: 1.32851 cumulative IPC: 0.71677 (Simulation time: 1 hr 9 min 17 sec)
Heartbeat CPU  0 instructions: 1941000002 cycles: 2706431072 heartbeat IPC: 1.30181 cumulative IPC: 0.71693 (Simulation time: 1 hr 9 min 19 sec)
Heartbeat CPU  0 instructions: 1942000001 cycles: 2707178500 heartbeat IPC: 1.33792 cumulative IPC: 0.71711 (Simulation time: 1 hr 9 min 21 sec)
Heartbeat CPU  0 instructions: 1943000000 cycles: 2707909236 heartbeat IPC: 1.36848 cumulative IPC: 0.71728 (Simulation time: 1 hr 9 min 23 sec)
Heartbeat CPU  0 instructions: 1944000000 cycles: 2708657922 heartbeat IPC: 1.33567 cumulative IPC: 0.71745 (Simulation time: 1 hr 9 min 26 sec)
Heartbeat CPU  0 instructions: 1945000002 cycles: 2709408770 heartbeat IPC: 1.33183 cumulative IPC: 0.71762 (Simulation time: 1 hr 9 min 28 sec)
Heartbeat CPU  0 instructions: 1946000003 cycles: 2710147226 heartbeat IPC: 1.35418 cumulative IPC: 0.71780 (Simulation time: 1 hr 9 min 30 sec)
Heartbeat CPU  0 instructions: 1947000000 cycles: 2710895935 heartbeat IPC: 1.33563 cumulative IPC: 0.71797 (Simulation time: 1 hr 9 min 32 sec)
Heartbeat CPU  0 instructions: 1948000000 cycles: 2711658590 heartbeat IPC: 1.31121 cumulative IPC: 0.71813 (Simulation time: 1 hr 9 min 34 sec)
Heartbeat CPU  0 instructions: 1949000003 cycles: 2712469377 heartbeat IPC: 1.23337 cumulative IPC: 0.71829 (Simulation time: 1 hr 9 min 36 sec)
Heartbeat CPU  0 instructions: 1950000002 cycles: 2713321787 heartbeat IPC: 1.17314 cumulative IPC: 0.71843 (Simulation time: 1 hr 9 min 39 sec)
Heartbeat CPU  0 instructions: 1951000002 cycles: 2714086139 heartbeat IPC: 1.30830 cumulative IPC: 0.71860 (Simulation time: 1 hr 9 min 41 sec)
Heartbeat CPU  0 instructions: 1952000000 cycles: 2714834795 heartbeat IPC: 1.33572 cumulative IPC: 0.71877 (Simulation time: 1 hr 9 min 43 sec)
Heartbeat CPU  0 instructions: 1953000000 cycles: 2715581860 heartbeat IPC: 1.33857 cumulative IPC: 0.71894 (Simulation time: 1 hr 9 min 46 sec)
Heartbeat CPU  0 instructions: 1954000001 cycles: 2716327949 heartbeat IPC: 1.34032 cumulative IPC: 0.71911 (Simulation time: 1 hr 9 min 48 sec)
Heartbeat CPU  0 instructions: 1955000002 cycles: 2717067263 heartbeat IPC: 1.35261 cumulative IPC: 0.71928 (Simulation time: 1 hr 9 min 50 sec)
Heartbeat CPU  0 instructions: 1956000000 cycles: 2717829843 heartbeat IPC: 1.31134 cumulative IPC: 0.71945 (Simulation time: 1 hr 9 min 53 sec)
Heartbeat CPU  0 instructions: 1957000003 cycles: 2718590392 heartbeat IPC: 1.31484 cumulative IPC: 0.71961 (Simulation time: 1 hr 9 min 55 sec)
Heartbeat CPU  0 instructions: 1958000003 cycles: 2719336502 heartbeat IPC: 1.34028 cumulative IPC: 0.71978 (Simulation time: 1 hr 9 min 57 sec)
Heartbeat CPU  0 instructions: 1959000000 cycles: 2720076269 heartbeat IPC: 1.35177 cumulative IPC: 0.71996 (Simulation time: 1 hr 9 min 59 sec)
Heartbeat CPU  0 instructions: 1960000000 cycles: 2720847675 heartbeat IPC: 1.29633 cumulative IPC: 0.72012 (Simulation time: 1 hr 10 min 1 sec)
Heartbeat CPU  0 instructions: 1961000000 cycles: 2721585830 heartbeat IPC: 1.35473 cumulative IPC: 0.72029 (Simulation time: 1 hr 10 min 4 sec)
Heartbeat CPU  0 instructions: 1962000002 cycles: 2722324280 heartbeat IPC: 1.35419 cumulative IPC: 0.72046 (Simulation time: 1 hr 10 min 6 sec)
Heartbeat CPU  0 instructions: 1963000000 cycles: 2723083498 heartbeat IPC: 1.31714 cumulative IPC: 0.72063 (Simulation time: 1 hr 10 min 8 sec)
Heartbeat CPU  0 instructions: 1964000000 cycles: 2723837737 heartbeat IPC: 1.32584 cumulative IPC: 0.72080 (Simulation time: 1 hr 10 min 10 sec)
Heartbeat CPU  0 instructions: 1965000002 cycles: 2724571373 heartbeat IPC: 1.36308 cumulative IPC: 0.72097 (Simulation time: 1 hr 10 min 12 sec)
Heartbeat CPU  0 instructions: 1966000000 cycles: 2725374562 heartbeat IPC: 1.24503 cumulative IPC: 0.72113 (Simulation time: 1 hr 10 min 14 sec)
Heartbeat CPU  0 instructions: 1967000003 cycles: 2726230210 heartbeat IPC: 1.16871 cumulative IPC: 0.72127 (Simulation time: 1 hr 10 min 16 sec)
Heartbeat CPU  0 instructions: 1968000000 cycles: 2727080556 heartbeat IPC: 1.17599 cumulative IPC: 0.72141 (Simulation time: 1 hr 10 min 19 sec)
Heartbeat CPU  0 instructions: 1969000003 cycles: 2727869177 heartbeat IPC: 1.26804 cumulative IPC: 0.72157 (Simulation time: 1 hr 10 min 21 sec)
Heartbeat CPU  0 instructions: 1970000001 cycles: 2728648335 heartbeat IPC: 1.28343 cumulative IPC: 0.72173 (Simulation time: 1 hr 10 min 23 sec)
Heartbeat CPU  0 instructions: 1971000000 cycles: 2729410774 heartbeat IPC: 1.31158 cumulative IPC: 0.72189 (Simulation time: 1 hr 10 min 25 sec)
Heartbeat CPU  0 instructions: 1972000000 cycles: 2730248492 heartbeat IPC: 1.19372 cumulative IPC: 0.72204 (Simulation time: 1 hr 10 min 27 sec)
Heartbeat CPU  0 instructions: 1973000002 cycles: 2731025310 heartbeat IPC: 1.28731 cumulative IPC: 0.72220 (Simulation time: 1 hr 10 min 29 sec)
Heartbeat CPU  0 instructions: 1974000000 cycles: 2731805893 heartbeat IPC: 1.28109 cumulative IPC: 0.72236 (Simulation time: 1 hr 10 min 31 sec)
Heartbeat CPU  0 instructions: 1975000003 cycles: 2732607314 heartbeat IPC: 1.24779 cumulative IPC: 0.72251 (Simulation time: 1 hr 10 min 34 sec)
Heartbeat CPU  0 instructions: 1976000000 cycles: 2733409636 heartbeat IPC: 1.24638 cumulative IPC: 0.72266 (Simulation time: 1 hr 10 min 36 sec)
Heartbeat CPU  0 instructions: 1977000000 cycles: 2734182922 heartbeat IPC: 1.29318 cumulative IPC: 0.72283 (Simulation time: 1 hr 10 min 38 sec)
Heartbeat CPU  0 instructions: 1978000003 cycles: 2734956175 heartbeat IPC: 1.29324 cumulative IPC: 0.72299 (Simulation time: 1 hr 10 min 40 sec)
Heartbeat CPU  0 instructions: 1979000000 cycles: 2735773249 heartbeat IPC: 1.22388 cumulative IPC: 0.72314 (Simulation time: 1 hr 10 min 42 sec)
Heartbeat CPU  0 instructions: 1980000000 cycles: 2736548779 heartbeat IPC: 1.28944 cumulative IPC: 0.72330 (Simulation time: 1 hr 10 min 44 sec)
Heartbeat CPU  0 instructions: 1981000002 cycles: 2737328727 heartbeat IPC: 1.28214 cumulative IPC: 0.72346 (Simulation time: 1 hr 10 min 46 sec)
Heartbeat CPU  0 instructions: 1982000001 cycles: 2738118440 heartbeat IPC: 1.26628 cumulative IPC: 0.72361 (Simulation time: 1 hr 10 min 48 sec)
Heartbeat CPU  0 instructions: 1983000002 cycles: 2738992530 heartbeat IPC: 1.14405 cumulative IPC: 0.72375 (Simulation time: 1 hr 10 min 50 sec)
Heartbeat CPU  0 instructions: 1984000000 cycles: 2739850840 heartbeat IPC: 1.16508 cumulative IPC: 0.72389 (Simulation time: 1 hr 10 min 53 sec)
Heartbeat CPU  0 instructions: 1985000000 cycles: 2740620686 heartbeat IPC: 1.29896 cumulative IPC: 0.72405 (Simulation time: 1 hr 10 min 55 sec)
Heartbeat CPU  0 instructions: 1986000002 cycles: 2741383188 heartbeat IPC: 1.31147 cumulative IPC: 0.72421 (Simulation time: 1 hr 10 min 57 sec)
Heartbeat CPU  0 instructions: 1987000000 cycles: 2742153981 heartbeat IPC: 1.29736 cumulative IPC: 0.72437 (Simulation time: 1 hr 10 min 59 sec)
Heartbeat CPU  0 instructions: 1988000000 cycles: 2742915185 heartbeat IPC: 1.31371 cumulative IPC: 0.72454 (Simulation time: 1 hr 11 min 1 sec)
Heartbeat CPU  0 instructions: 1989000003 cycles: 2743671050 heartbeat IPC: 1.32299 cumulative IPC: 0.72470 (Simulation time: 1 hr 11 min 3 sec)
Heartbeat CPU  0 instructions: 1990000001 cycles: 2744425106 heartbeat IPC: 1.32616 cumulative IPC: 0.72487 (Simulation time: 1 hr 11 min 6 sec)
Heartbeat CPU  0 instructions: 1991000003 cycles: 2745198536 heartbeat IPC: 1.29294 cumulative IPC: 0.72503 (Simulation time: 1 hr 11 min 8 sec)
Heartbeat CPU  0 instructions: 1992000000 cycles: 2745955156 heartbeat IPC: 1.32166 cumulative IPC: 0.72519 (Simulation time: 1 hr 11 min 10 sec)
Heartbeat CPU  0 instructions: 1993000001 cycles: 2746721208 heartbeat IPC: 1.30540 cumulative IPC: 0.72535 (Simulation time: 1 hr 11 min 12 sec)
Heartbeat CPU  0 instructions: 1994000000 cycles: 2747484462 heartbeat IPC: 1.31018 cumulative IPC: 0.72551 (Simulation time: 1 hr 11 min 14 sec)
Heartbeat CPU  0 instructions: 1995000001 cycles: 2748254322 heartbeat IPC: 1.29894 cumulative IPC: 0.72567 (Simulation time: 1 hr 11 min 16 sec)
Heartbeat CPU  0 instructions: 1996000000 cycles: 2749016200 heartbeat IPC: 1.31254 cumulative IPC: 0.72584 (Simulation time: 1 hr 11 min 19 sec)
Heartbeat CPU  0 instructions: 1997000003 cycles: 2749772364 heartbeat IPC: 1.32247 cumulative IPC: 0.72600 (Simulation time: 1 hr 11 min 21 sec)
Heartbeat CPU  0 instructions: 1998000003 cycles: 2750545919 heartbeat IPC: 1.29273 cumulative IPC: 0.72616 (Simulation time: 1 hr 11 min 23 sec)
Heartbeat CPU  0 instructions: 1999000000 cycles: 2751344350 heartbeat IPC: 1.25245 cumulative IPC: 0.72631 (Simulation time: 1 hr 11 min 25 sec)
Heartbeat CPU  0 instructions: 2000000000 cycles: 2752231536 heartbeat IPC: 1.12716 cumulative IPC: 0.72644 (Simulation time: 1 hr 11 min 27 sec)
Heartbeat CPU  0 instructions: 2001000003 cycles: 2753043202 heartbeat IPC: 1.23204 cumulative IPC: 0.72659 (Simulation time: 1 hr 11 min 30 sec)
Finished CPU 0 instructions: 2000000002 cycles: 2752576477 cumulative IPC: 0.72659 (Simulation time: 1 hr 11 min 30 sec)

ChampSim completed all CPUs

[ROI Statistics]
Core_0_instructions 2000000002
Core_0_cycles 2752576477
Core_0_IPC 0.72659

Core_0_branch_prediction_accuracy 98.17271
Core_0_branch_MPKI 0.51603
Core_0_average_ROB_occupancy_at_mispredict 207.84924

Core_0_L1D_total_access 522672678
Core_0_L1D_total_hit 413006591
Core_0_L1D_total_miss 109666087
Core_0_L1D_loads 484125161
Core_0_L1D_load_hit 381186150
Core_0_L1D_load_miss 102939011
Core_0_L1D_RFOs 38547517
Core_0_L1D_RFO_hit 31820441
Core_0_L1D_RFO_miss 6727076
Core_0_L1D_prefetches 0
Core_0_L1D_prefetch_hit 0
Core_0_L1D_prefetch_miss 0
Core_0_L1D_writebacks 0
Core_0_L1D_writeback_hit 0
Core_0_L1D_writeback_miss 0
Core_0_L1D_prefetch_requested 0
Core_0_L1D_prefetch_issued 0
Core_0_L1D_prefetch_useful 0
Core_0_L1D_prefetch_useless 0
Core_0_L1D_prefetch_late 0
Core_0_L1D_average_miss_latency 47.75973

Core_0_L1I_total_access 652773085
Core_0_L1I_total_hit 652726573
Core_0_L1I_total_miss 46512
Core_0_L1I_loads 652773085
Core_0_L1I_load_hit 652726573
Core_0_L1I_load_miss 46512
Core_0_L1I_RFOs 0
Core_0_L1I_RFO_hit 0
Core_0_L1I_RFO_miss 0
Core_0_L1I_prefetches 0
Core_0_L1I_prefetch_hit 0
Core_0_L1I_prefetch_miss 0
Core_0_L1I_writebacks 0
Core_0_L1I_writeback_hit 0
Core_0_L1I_writeback_miss 0
Core_0_L1I_prefetch_requested 0
Core_0_L1I_prefetch_issued 0
Core_0_L1I_prefetch_useful 0
Core_0_L1I_prefetch_useless 0
Core_0_L1I_prefetch_late 0
Core_0_L1I_average_miss_latency 200.49619

Core_0_L2C_total_access 216812370
Core_0_L2C_total_hit 181791065
Core_0_L2C_total_miss 35021305
Core_0_L2C_loads 102985122
Core_0_L2C_load_hit 92318559
Core_0_L2C_load_miss 10666563
Core_0_L2C_RFOs 6726992
Core_0_L2C_RFO_hit 3457997
Core_0_L2C_RFO_miss 3268995
Core_0_L2C_prefetches 95285834
Core_0_L2C_prefetch_hit 74201708
Core_0_L2C_prefetch_miss 21084126
Core_0_L2C_writebacks 11814422
Core_0_L2C_writeback_hit 11812801
Core_0_L2C_writeback_miss 1621
Core_0_L2C_prefetch_requested 103013251
Core_0_L2C_prefetch_issued 101250476
Core_0_L2C_prefetch_useful 17815858
Core_0_L2C_prefetch_useless 3276319
Core_0_L2C_prefetch_late 2972633
Core_0_L2C_average_miss_latency 187.99118

Core_0_LLC_total_access 45016768
Core_0_LLC_total_hit 24664766
Core_0_LLC_total_miss 20352002
Core_0_LLC_loads 7720562
Core_0_LLC_load_hit 1957392
Core_0_LLC_load_miss 5763170
Core_0_LLC_RFOs 3242421
Core_0_LLC_RFO_hit 22067
Core_0_LLC_RFO_miss 3220354
Core_0_LLC_prefetches 24056700
Core_0_LLC_prefetch_hit 12689321
Core_0_LLC_prefetch_miss 11367379
Core_0_LLC_writebacks 9997085
Core_0_LLC_writeback_hit 9995986
Core_0_LLC_writeback_miss 1099
Core_0_LLC_prefetch_requested 0
Core_0_LLC_prefetch_issued 0
Core_0_LLC_prefetch_useful 549751
Core_0_LLC_prefetch_useless 10803346
Core_0_LLC_prefetch_late 0
Core_0_LLC_average_miss_latency 286.14625

Core_0_major_page_fault 0
Core_0_minor_page_fault 21169

CPU 0 L2C next line prefetcher final stats
File was never opened for writing.
Channel_0_RQ_row_buffer_hit 5710881
Channel_0_RQ_row_buffer_miss 14639862
Channel_0_WQ_row_buffer_hit 2777991
Channel_0_WQ_row_buffer_miss 6967765
Channel_0_WQ_full 0
Channel_0_dbus_congested 10172644

avg_congested_cycle 10
