TRACE: [1622000000][GPT-Neo-2_7B]_[h32][s1024][d80] Warmup: 2000000 Sim: 1622000000
L1:next_line:L2:030-L2-MultiMarkovDelta_ip_stride_L1-nextLine-1-2-4_vTTT
CPU  0 inst: 1245000001 cyc: 1622557295 now IPC :1.32866: AVG IPC :0.76654: L2-Pf-HR :0.85904: L2-HR :0.83638: (Sim:1h55m55s) 
CPU  0 inst: 1246000001 cyc: 1623381865 now IPC :1.21275: AVG IPC :0.76676: L2-Pf-HR :0.85900: L2-HR :0.83637: (Sim:1h56m0s) 
CPU  0 inst: 1247000001 cyc: 1623920485 now IPC :1.85660: AVG IPC :0.76713: L2-Pf-HR :0.85903: L2-HR :0.83641: (Sim:1h56m4s) 
CPU  0 inst: 1248000000 cyc: 1624592215 now IPC :1.48869: AVG IPC :0.76742: L2-Pf-HR :0.85900: L2-HR :0.83640: (Sim:1h56m9s) 
CPU  0 inst: 1249000001 cyc: 1625223839 now IPC :1.58322: AVG IPC :0.76774: L2-Pf-HR :0.85901: L2-HR :0.83643: (Sim:1h56m14s) 
CPU  0 inst: 1250000003 cyc: 1625954984 now IPC :1.36772: AVG IPC :0.76801: L2-Pf-HR :0.85901: L2-HR :0.83646: (Sim:1h56m18s) 
CPU  0 inst: 1251000001 cyc: 1626469848 now IPC :1.94226: AVG IPC :0.76838: L2-Pf-HR :0.85904: L2-HR :0.83649: (Sim:1h56m22s) 
CPU  0 inst: 1252000000 cyc: 1627136723 now IPC :1.49953: AVG IPC :0.76868: L2-Pf-HR :0.85900: L2-HR :0.83649: (Sim:1h56m27s) 
CPU  0 inst: 1253000001 cyc: 1627743637 now IPC :1.64768: AVG IPC :0.76901: L2-Pf-HR :0.85901: L2-HR :0.83652: (Sim:1h56m32s) 
*************************************************
   ChampSim Multicore Out-of-Order Simulator
   Last compiled: Oct 20 2024 04:32:19
*************************************************

trace_0 ./777-comparisonScript_memoryTraces/memTraces[1622000000][GPT-Neo-2_7B]_[h32][s1024][d80].champsim.xz
CPU 0 L1D next line prefetcher
MK1: Size: 128 TMAX: 64 TMIN: 32 MKPTHRESH: 20
MK2: Size: 256 TMAX: 32 TMIN: 16 MKPTHRESH: 20
MK3: Size: 384 TMAX: 16 TMIN: 8 MKPTHRESH: 20
MK4: Size: 512 TMAX: 8 TMIN: 0 MKPTHRESH: 15
Stride Size: 512 Prefetch Degree: 12

CPU 0 L2C prefetcher
MAIN.cc ln 751 stats print skipped
CPU 0 L2C prefetcher initialized


Cache Size: 512
number of cache lines: 8192
CPU  0 inst: 1254000000 cyc: 1628468144 now IPC :1.38025: AVG IPC :0.76928: L2-Pf-HR :0.85903: L2-HR :0.83656: (Sim:1h56m36s) 
CPU  0 inst:    1000003 cyc:     502646 now IPC :1.98948: AVG IPC :1.98948: L2-Pf-HR :0.83892: L2-HR :0.80120: (Sim:0h0m5s) 
CPU  0 inst: 1255000002 cyc: 1628985204 now IPC :1.93402: AVG IPC :0.76965: L2-Pf-HR :0.85905: L2-HR :0.83659: (Sim:1h56m40s) 
CPU  0 inst:    2000000 cyc:     978549 now IPC :2.10126: AVG IPC :2.04384: L2-Pf-HR :0.86937: L2-HR :0.83398: (Sim:0h0m10s) 

Warmup complete CPU  0 instructions:    2000003 cycles:     978550 (Simulation time: 0 hr 0 min 10 sec) 

CPU  0 inst: 1256000000 cyc: 1629655755 now IPC :1.49131: AVG IPC :0.76995: L2-Pf-HR :0.85902: L2-HR :0.83659: (Sim:1h56m45s) 
CPU  0 inst:    3000003 cyc:    1549369 now IPC :1.75187: AVG IPC :1.75187: L2-Pf-HR :0.85509: L2-HR :0.83175: (Sim:0h0m14s) 
CPU  0 inst: 1257000003 cyc: 1630260863 now IPC :1.65260: AVG IPC :0.77028: L2-Pf-HR :0.85903: L2-HR :0.83662: (Sim:1h56m49s) 
CPU  0 inst:    4000000 cyc:    2105768 now IPC :1.79727: AVG IPC :1.77428: L2-Pf-HR :0.85475: L2-HR :0.83161: (Sim:0h0m19s) 
CPU  0 inst: 1258000001 cyc: 1630878726 now IPC :1.61848: AVG IPC :0.77060: L2-Pf-HR :0.85907: L2-HR :0.83668: (Sim:1h56m53s) 
CPU  0 inst:    5000001 cyc:    2657523 now IPC :1.81240: AVG IPC :1.78681: L2-Pf-HR :0.85771: L2-HR :0.83426: (Sim:0h0m23s) 
CPU  0 inst: 1259000000 cyc: 1631498463 now IPC :1.61359: AVG IPC :0.77092: L2-Pf-HR :0.85905: L2-HR :0.83667: (Sim:1h56m58s) 
CPU  0 inst:    6000002 cyc:    3219613 now IPC :1.77908: AVG IPC :1.78487: L2-Pf-HR :0.85941: L2-HR :0.83576: (Sim:0h0m27s) 
CPU  0 inst: 1260000000 cyc: 1632166548 now IPC :1.49682: AVG IPC :0.77122: L2-Pf-HR :0.85902: L2-HR :0.83666: (Sim:1h57m2s) 
CPU  0 inst:    7000000 cyc:    3780371 now IPC :1.78330: AVG IPC :1.78455: L2-Pf-HR :0.86263: L2-HR :0.83854: (Sim:0h0m32s) 
CPU  0 inst: 1261000003 cyc: 1632686575 now IPC :1.92298: AVG IPC :0.77158: L2-Pf-HR :0.85906: L2-HR :0.83672: (Sim:1h57m7s) 
CPU  0 inst:    8000000 cyc:    4533094 now IPC :1.32851: AVG IPC :1.68798: L2-Pf-HR :0.86795: L2-HR :0.84305: (Sim:0h0m37s) 
CPU  0 inst: 1262000000 cyc: 1633278670 now IPC :1.68891: AVG IPC :0.77192: L2-Pf-HR :0.85909: L2-HR :0.83677: (Sim:1h57m11s) 
CPU  0 inst:    9000000 cyc:    5118044 now IPC :1.70955: AVG IPC :1.69103: L2-Pf-HR :0.86735: L2-HR :0.84256: (Sim:0h0m42s) 
CPU  0 inst: 1263000000 cyc: 1633959019 now IPC :1.46983: AVG IPC :0.77221: L2-Pf-HR :0.85908: L2-HR :0.83678: (Sim:1h57m16s) 
CPU  0 inst:   10000002 cyc:    5683161 now IPC :1.76955: AVG IPC :1.70046: L2-Pf-HR :0.86719: L2-HR :0.84250: (Sim:0h0m46s) 
CPU  0 inst: 1264000000 cyc: 1634600041 now IPC :1.56001: AVG IPC :0.77252: L2-Pf-HR :0.85906: L2-HR :0.83679: (Sim:1h57m21s) 
CPU  0 inst:   11000001 cyc:    6249275 now IPC :1.76643: AVG IPC :1.70754: L2-Pf-HR :0.86764: L2-HR :0.84298: (Sim:0h0m51s) 
CPU  0 inst: 1265000003 cyc: 1635105300 now IPC :1.97919: AVG IPC :0.77289: L2-Pf-HR :0.85910: L2-HR :0.83684: (Sim:1h57m25s) 
CPU  0 inst:   12000000 cyc:    6817286 now IPC :1.76053: AVG IPC :1.71270: L2-Pf-HR :0.86807: L2-HR :0.84341: (Sim:0h0m55s) 
CPU  0 inst: 1266000000 cyc: 1635693310 now IPC :1.70065: AVG IPC :0.77322: L2-Pf-HR :0.85915: L2-HR :0.83690: (Sim:1h57m30s) 
CPU  0 inst:   13000000 cyc:    7376488 now IPC :1.78826: AVG IPC :1.71930: L2-Pf-HR :0.86838: L2-HR :0.84368: (Sim:0h1m0s) 
CPU  0 inst: 1267000000 cyc: 1636450141 now IPC :1.32130: AVG IPC :0.77348: L2-Pf-HR :0.85917: L2-HR :0.83693: (Sim:1h57m34s) 
CPU  0 inst:   14000001 cyc:    7940413 now IPC :1.77329: AVG IPC :1.72368: L2-Pf-HR :0.86879: L2-HR :0.84407: (Sim:0h1m4s) 
CPU  0 inst: 1268000000 cyc: 1637265039 now IPC :1.22715: AVG IPC :0.77370: L2-Pf-HR :0.85915: L2-HR :0.83693: (Sim:1h57m40s) 
CPU  0 inst:   15000003 cyc:    8496240 now IPC :1.79912: AVG IPC :1.72925: L2-Pf-HR :0.87129: L2-HR :0.84616: (Sim:0h1m9s) 
CPU  0 inst: 1269000003 cyc: 1637798192 now IPC :1.87564: AVG IPC :0.77406: L2-Pf-HR :0.85917: L2-HR :0.83697: (Sim:1h57m44s) 
CPU  0 inst:   16000000 cyc:    9174968 now IPC :1.47334: AVG IPC :1.70806: L2-Pf-HR :0.87255: L2-HR :0.84729: (Sim:0h1m13s) 
CPU  0 inst: 1270000000 cyc: 1638488737 now IPC :1.44813: AVG IPC :0.77435: L2-Pf-HR :0.85914: L2-HR :0.83696: (Sim:1h57m48s) 
CPU  0 inst:   17000001 cyc:    9735325 now IPC :1.78458: AVG IPC :1.71296: L2-Pf-HR :0.87309: L2-HR :0.84784: (Sim:0h1m18s) 
CPU  0 inst: 1271000003 cyc: 1639111236 now IPC :1.60643: AVG IPC :0.77466: L2-Pf-HR :0.85914: L2-HR :0.83698: (Sim:1h57m52s) 
CPU  0 inst:   18000000 cyc:   10296157 now IPC :1.78306: AVG IPC :1.71718: L2-Pf-HR :0.87399: L2-HR :0.84870: (Sim:0h1m23s) 
CPU  0 inst: 1272000000 cyc: 1639843632 now IPC :1.36538: AVG IPC :0.77493: L2-Pf-HR :0.85916: L2-HR :0.83701: (Sim:1h57m55s) 
CPU  0 inst: 1273000000 cyc: 1640363770 now IPC :1.92257: AVG IPC :0.77529: L2-Pf-HR :0.85917: L2-HR :0.83705: (Sim:1h57m58s) 
CPU  0 inst:   19000001 cyc:   10851818 now IPC :1.79966: AVG IPC :1.72182: L2-Pf-HR :0.87458: L2-HR :0.84922: (Sim:0h1m27s) 
CPU  0 inst: 1274000001 cyc: 1641032445 now IPC :1.49550: AVG IPC :0.77558: L2-Pf-HR :0.85913: L2-HR :0.83704: (Sim:1h58m2s) 
CPU  0 inst:   20000000 cyc:   11406429 now IPC :1.80306: AVG IPC :1.72614: L2-Pf-HR :0.87599: L2-HR :0.85046: (Sim:0h1m32s) 
CPU  0 inst: 1275000000 cyc: 1641632792 now IPC :1.66570: AVG IPC :0.77591: L2-Pf-HR :0.85914: L2-HR :0.83706: (Sim:1h58m5s) 
CPU  0 inst: 1276000000 cyc: 1642228882 now IPC :1.67760: AVG IPC :0.77624: L2-Pf-HR :0.85920: L2-HR :0.83714: (Sim:1h58m9s) 
CPU  0 inst:   21000000 cyc:   12205905 now IPC :1.25082: AVG IPC :1.69230: L2-Pf-HR :0.87524: L2-HR :0.84974: (Sim:0h1m37s) 
CPU  0 inst: 1277000001 cyc: 1642873549 now IPC :1.55119: AVG IPC :0.77654: L2-Pf-HR :0.85918: L2-HR :0.83713: (Sim:1h58m14s) 
CPU  0 inst:   22000001 cyc:   12784922 now IPC :1.72707: AVG IPC :1.69400: L2-Pf-HR :0.87502: L2-HR :0.84950: (Sim:0h1m42s) 
CPU  0 inst: 1278000001 cyc: 1643537406 now IPC :1.50635: AVG IPC :0.77684: L2-Pf-HR :0.85915: L2-HR :0.83713: (Sim:1h58m18s) 
CPU  0 inst:   23000002 cyc:   13362946 now IPC :1.73003: AVG IPC :1.69568: L2-Pf-HR :0.87476: L2-HR :0.84926: (Sim:0h1m46s) 
CPU  0 inst: 1279000002 cyc: 1644056608 now IPC :1.92603: AVG IPC :0.77720: L2-Pf-HR :0.85920: L2-HR :0.83719: (Sim:1h58m23s) 
CPU  0 inst:   24000000 cyc:   13939352 now IPC :1.73488: AVG IPC :1.69743: L2-Pf-HR :0.87462: L2-HR :0.84911: (Sim:0h1m51s) 
CPU  0 inst: 1280000000 cyc: 1644650143 now IPC :1.68482: AVG IPC :0.77753: L2-Pf-HR :0.85923: L2-HR :0.83724: (Sim:1h58m27s) 
CPU  0 inst:   25000000 cyc:   14519678 now IPC :1.72317: AVG IPC :1.69853: L2-Pf-HR :0.87438: L2-HR :0.84887: (Sim:0h1m56s) 
CPU  0 inst: 1281000002 cyc: 1645377756 now IPC :1.37436: AVG IPC :0.77779: L2-Pf-HR :0.85919: L2-HR :0.83722: (Sim:1h58m32s) 
CPU  0 inst:   26000003 cyc:   15096936 now IPC :1.73233: AVG IPC :1.69991: L2-Pf-HR :0.87430: L2-HR :0.84875: (Sim:0h2m1s) 
CPU  0 inst: 1282000000 cyc: 1646043087 now IPC :1.50301: AVG IPC :0.77808: L2-Pf-HR :0.85915: L2-HR :0.83721: (Sim:1h58m36s) 
CPU  0 inst:   27000001 cyc:   15678598 now IPC :1.71921: AVG IPC :1.70067: L2-Pf-HR :0.87424: L2-HR :0.84868: (Sim:0h2m5s) 
CPU  0 inst: 1283000001 cyc: 1646549147 now IPC :1.97605: AVG IPC :0.77845: L2-Pf-HR :0.85919: L2-HR :0.83726: (Sim:1h58m40s) 
CPU  0 inst:   28000000 cyc:   16431283 now IPC :1.32858: AVG IPC :1.68255: L2-Pf-HR :0.87527: L2-HR :0.84954: (Sim:0h2m10s) 
CPU  0 inst: 1284000000 cyc: 1647151208 now IPC :1.66096: AVG IPC :0.77878: L2-Pf-HR :0.85921: L2-HR :0.83730: (Sim:1h58m45s) 
CPU  0 inst:   29000002 cyc:   17015950 now IPC :1.71038: AVG IPC :1.68356: L2-Pf-HR :0.87516: L2-HR :0.84943: (Sim:0h2m14s) 
CPU  0 inst: 1285000003 cyc: 1647837954 now IPC :1.45615: AVG IPC :0.77906: L2-Pf-HR :0.85921: L2-HR :0.83732: (Sim:1h58m49s) 
CPU  0 inst:   30000001 cyc:   17584955 now IPC :1.75745: AVG IPC :1.68610: L2-Pf-HR :0.87508: L2-HR :0.84939: (Sim:0h2m19s) 
CPU  0 inst: 1286000003 cyc: 1648474239 now IPC :1.57162: AVG IPC :0.77936: L2-Pf-HR :0.85920: L2-HR :0.83733: (Sim:1h58m53s) 
CPU  0 inst:   31000002 cyc:   18150136 now IPC :1.76935: AVG IPC :1.68884: L2-Pf-HR :0.87502: L2-HR :0.84936: (Sim:0h2m24s) 
CPU  0 inst: 1287000002 cyc: 1648981279 now IPC :1.97223: AVG IPC :0.77973: L2-Pf-HR :0.85924: L2-HR :0.83738: (Sim:1h58m56s) 
CPU  0 inst:   32000000 cyc:   18718524 now IPC :1.75936: AVG IPC :1.69110: L2-Pf-HR :0.87498: L2-HR :0.84933: (Sim:0h2m28s) 
CPU  0 inst: 1288000000 cyc: 1649569469 now IPC :1.70013: AVG IPC :0.78006: L2-Pf-HR :0.85927: L2-HR :0.83743: (Sim:1h59m1s) 
CPU  0 inst:   33000001 cyc:   19284827 now IPC :1.76584: AVG IPC :1.69341: L2-Pf-HR :0.87498: L2-HR :0.84935: (Sim:0h2m33s) 
CPU  0 inst: 1289000002 cyc: 1650320439 now IPC :1.33161: AVG IPC :0.78031: L2-Pf-HR :0.85931: L2-HR :0.83747: (Sim:1h59m6s) 
CPU  0 inst:   34000002 cyc:   19849063 now IPC :1.77231: AVG IPC :1.69577: L2-Pf-HR :0.87497: L2-HR :0.84937: (Sim:0h2m37s) 
CPU  0 inst: 1290000001 cyc: 1651117160 now IPC :1.25514: AVG IPC :0.78054: L2-Pf-HR :0.85929: L2-HR :0.83748: (Sim:1h59m11s) 
CPU  0 inst:   35000001 cyc:   20406664 now IPC :1.79340: AVG IPC :1.69857: L2-Pf-HR :0.87575: L2-HR :0.85002: (Sim:0h2m41s) 
CPU  0 inst: 1291000001 cyc: 1651655953 now IPC :1.85600: AVG IPC :0.78089: L2-Pf-HR :0.85931: L2-HR :0.83750: (Sim:1h59m16s) 
CPU  0 inst:   36000000 cyc:   21080445 now IPC :1.48416: AVG IPC :1.69138: L2-Pf-HR :0.87606: L2-HR :0.85029: (Sim:0h2m46s) 
CPU  0 inst: 1292000000 cyc: 1652345253 now IPC :1.45075: AVG IPC :0.78117: L2-Pf-HR :0.85927: L2-HR :0.83750: (Sim:1h59m21s) 
CPU  0 inst:   37000002 cyc:   21643788 now IPC :1.77512: AVG IPC :1.69367: L2-Pf-HR :0.87627: L2-HR :0.85050: (Sim:0h2m50s) 
CPU  0 inst: 1293000000 cyc: 1652956558 now IPC :1.63584: AVG IPC :0.78149: L2-Pf-HR :0.85928: L2-HR :0.83752: (Sim:1h59m25s) 
CPU  0 inst:   38000001 cyc:   22210241 now IPC :1.76537: AVG IPC :1.69558: L2-Pf-HR :0.87657: L2-HR :0.85078: (Sim:0h2m55s) 
CPU  0 inst: 1294000000 cyc: 1653546555 now IPC :1.69492: AVG IPC :0.78181: L2-Pf-HR :0.85933: L2-HR :0.83759: (Sim:1h59m29s) 
CPU  0 inst:   39000002 cyc:   22774587 now IPC :1.77196: AVG IPC :1.69756: L2-Pf-HR :0.87685: L2-HR :0.85104: (Sim:0h3m0s) 
CPU  0 inst: 1295000002 cyc: 1654207446 now IPC :1.51311: AVG IPC :0.78211: L2-Pf-HR :0.85930: L2-HR :0.83758: (Sim:1h59m34s) 
CPU  0 inst:   40000000 cyc:   23329092 now IPC :1.80341: AVG IPC :1.70018: L2-Pf-HR :0.87740: L2-HR :0.85151: (Sim:0h3m4s) 
CPU  0 inst: 1296000000 cyc: 1654874677 now IPC :1.49873: AVG IPC :0.78239: L2-Pf-HR :0.85927: L2-HR :0.83757: (Sim:1h59m39s) 
CPU  0 inst:   41000000 cyc:   24111200 now IPC :1.27860: AVG IPC :1.68593: L2-Pf-HR :0.87702: L2-HR :0.85115: (Sim:0h3m9s) 
CPU  0 inst: 1297000001 cyc: 1655393091 now IPC :1.92896: AVG IPC :0.78275: L2-Pf-HR :0.85931: L2-HR :0.83762: (Sim:1h59m43s) 
CPU  0 inst:   42000000 cyc:   24695948 now IPC :1.71014: AVG IPC :1.68653: L2-Pf-HR :0.87694: L2-HR :0.85105: (Sim:0h3m13s) 
CPU  0 inst: 1298000003 cyc: 1655984156 now IPC :1.69186: AVG IPC :0.78308: L2-Pf-HR :0.85934: L2-HR :0.83767: (Sim:1h59m47s) 
CPU  0 inst:   43000000 cyc:   25269829 now IPC :1.74252: AVG IPC :1.68785: L2-Pf-HR :0.87674: L2-HR :0.85088: (Sim:0h3m18s) 
CPU  0 inst: 1299000000 cyc: 1656710618 now IPC :1.37653: AVG IPC :0.78334: L2-Pf-HR :0.85931: L2-HR :0.83766: (Sim:1h59m52s) 
CPU  0 inst:   44000000 cyc:   25841507 now IPC :1.74924: AVG IPC :1.68926: L2-Pf-HR :0.87665: L2-HR :0.85079: (Sim:0h3m22s) 
CPU  0 inst: 1300000000 cyc: 1657380723 now IPC :1.49230: AVG IPC :0.78363: L2-Pf-HR :0.85928: L2-HR :0.83765: (Sim:1h59m57s) 
CPU  0 inst:   45000002 cyc:   26423600 now IPC :1.71794: AVG IPC :1.68992: L2-Pf-HR :0.87653: L2-HR :0.85068: (Sim:0h3m27s) 
CPU  0 inst: 1301000002 cyc: 1657885837 now IPC :1.97976: AVG IPC :0.78399: L2-Pf-HR :0.85931: L2-HR :0.83770: (Sim:2h0m0s) 
CPU  0 inst:   46000000 cyc:   26997857 now IPC :1.74138: AVG IPC :1.69105: L2-Pf-HR :0.87632: L2-HR :0.85047: (Sim:0h3m32s) 
CPU  0 inst: 1302000000 cyc: 1658489495 now IPC :1.65656: AVG IPC :0.78431: L2-Pf-HR :0.85933: L2-HR :0.83774: (Sim:2h0m5s) 
CPU  0 inst:   47000000 cyc:   27580006 now IPC :1.71777: AVG IPC :1.69164: L2-Pf-HR :0.87633: L2-HR :0.85046: (Sim:0h3m37s) 
CPU  0 inst: 1303000002 cyc: 1659221715 now IPC :1.36571: AVG IPC :0.78457: L2-Pf-HR :0.85931: L2-HR :0.83773: (Sim:2h0m9s) 
CPU  0 inst: 1304000000 cyc: 1659889632 now IPC :1.49719: AVG IPC :0.78485: L2-Pf-HR :0.85927: L2-HR :0.83772: (Sim:2h0m13s) 
CPU  0 inst:   48000000 cyc:   28336786 now IPC :1.32139: AVG IPC :1.68139: L2-Pf-HR :0.87693: L2-HR :0.85098: (Sim:0h3m41s) 
CPU  0 inst: 1305000000 cyc: 1660398646 now IPC :1.96458: AVG IPC :0.78521: L2-Pf-HR :0.85930: L2-HR :0.83776: (Sim:2h0m18s) 
CPU  0 inst:   49000000 cyc:   28931652 now IPC :1.68105: AVG IPC :1.68139: L2-Pf-HR :0.87694: L2-HR :0.85098: (Sim:0h3m46s) 
CPU  0 inst: 1306000001 cyc: 1661005925 now IPC :1.64669: AVG IPC :0.78553: L2-Pf-HR :0.85932: L2-HR :0.83780: (Sim:2h0m22s) 
CPU  0 inst:   50000001 cyc:   29515218 now IPC :1.71360: AVG IPC :1.68205: L2-Pf-HR :0.87685: L2-HR :0.85090: (Sim:0h3m51s) 
CPU  0 inst: 1307000002 cyc: 1661683766 now IPC :1.47527: AVG IPC :0.78581: L2-Pf-HR :0.85932: L2-HR :0.83782: (Sim:2h0m27s) 
CPU  0 inst:   51000001 cyc:   30094722 now IPC :1.72561: AVG IPC :1.68291: L2-Pf-HR :0.87692: L2-HR :0.85098: (Sim:0h3m56s) 
CPU  0 inst: 1308000000 cyc: 1662252320 now IPC :1.75884: AVG IPC :0.78614: L2-Pf-HR :0.85934: L2-HR :0.83786: (Sim:2h0m32s) 
CPU  0 inst:   52000000 cyc:   30674031 now IPC :1.72619: AVG IPC :1.68376: L2-Pf-HR :0.87701: L2-HR :0.85106: (Sim:0h4m1s) 
CPU  0 inst: 1309000002 cyc: 1662829112 now IPC :1.73373: AVG IPC :0.78647: L2-Pf-HR :0.85934: L2-HR :0.83788: (Sim:2h0m37s) 
CPU  0 inst:   53000000 cyc:   31252034 now IPC :1.73009: AVG IPC :1.68464: L2-Pf-HR :0.87707: L2-HR :0.85111: (Sim:0h4m5s) 
CPU  0 inst: 1310000002 cyc: 1663417277 now IPC :1.70020: AVG IPC :0.78680: L2-Pf-HR :0.85936: L2-HR :0.83792: (Sim:2h0m41s) 
CPU  0 inst:   54000002 cyc:   31828688 now IPC :1.73415: AVG IPC :1.68557: L2-Pf-HR :0.87716: L2-HR :0.85119: (Sim:0h4m10s) 
CPU  0 inst: 1311000001 cyc: 1664057349 now IPC :1.56232: AVG IPC :0.78709: L2-Pf-HR :0.85943: L2-HR :0.83799: (Sim:2h0m45s) 
CPU  0 inst:   55000002 cyc:   32395899 now IPC :1.76301: AVG IPC :1.68697: L2-Pf-HR :0.87765: L2-HR :0.85158: (Sim:0h4m15s) 
CPU  0 inst: 1312000000 cyc: 1664784096 now IPC :1.37599: AVG IPC :0.78735: L2-Pf-HR :0.85948: L2-HR :0.83805: (Sim:2h0m50s) 
CPU  0 inst:   56000000 cyc:   33080255 now IPC :1.46122: AVG IPC :1.68215: L2-Pf-HR :0.87790: L2-HR :0.85181: (Sim:0h4m19s) 
CPU  0 inst: 1313000002 cyc: 1665505737 now IPC :1.38573: AVG IPC :0.78761: L2-Pf-HR :0.85942: L2-HR :0.83801: (Sim:2h0m54s) 
CPU  0 inst:   57000000 cyc:   33652028 now IPC :1.74895: AVG IPC :1.68332: L2-Pf-HR :0.87812: L2-HR :0.85200: (Sim:0h4m24s) 
CPU  0 inst: 1314000003 cyc: 1666196449 now IPC :1.44778: AVG IPC :0.78788: L2-Pf-HR :0.85939: L2-HR :0.83801: (Sim:2h0m59s) 
CPU  0 inst:   58000000 cyc:   34228742 now IPC :1.73396: AVG IPC :1.68420: L2-Pf-HR :0.87836: L2-HR :0.85221: (Sim:0h4m29s) 
CPU  0 inst: 1315000000 cyc: 1666725854 now IPC :1.88891: AVG IPC :0.78823: L2-Pf-HR :0.85944: L2-HR :0.83807: (Sim:2h1m4s) 
CPU  0 inst:   59000002 cyc:   34810660 now IPC :1.71846: AVG IPC :1.68479: L2-Pf-HR :0.87859: L2-HR :0.85241: (Sim:0h4m34s) 
CPU  0 inst: 1316000000 cyc: 1667341494 now IPC :1.62433: AVG IPC :0.78854: L2-Pf-HR :0.85946: L2-HR :0.83810: (Sim:2h1m8s) 
CPU  0 inst:   60000000 cyc:   35385423 now IPC :1.73984: AVG IPC :1.68571: L2-Pf-HR :0.87908: L2-HR :0.85284: (Sim:0h4m38s) 
CPU  0 inst: 1317000000 cyc: 1668069079 now IPC :1.37441: AVG IPC :0.78880: L2-Pf-HR :0.85944: L2-HR :0.83810: (Sim:2h1m13s) 
CPU  0 inst:   61000000 cyc:   36186617 now IPC :1.24814: AVG IPC :1.67575: L2-Pf-HR :0.87882: L2-HR :0.85257: (Sim:0h4m43s) 
CPU  0 inst: 1318000001 cyc: 1668742992 now IPC :1.48387: AVG IPC :0.78908: L2-Pf-HR :0.85941: L2-HR :0.83809: (Sim:2h1m18s) 
CPU  0 inst:   62000003 cyc:   36785420 now IPC :1.67000: AVG IPC :1.67566: L2-Pf-HR :0.87875: L2-HR :0.85249: (Sim:0h4m48s) 
CPU  0 inst: 1319000001 cyc: 1669249846 now IPC :1.97295: AVG IPC :0.78944: L2-Pf-HR :0.85945: L2-HR :0.83815: (Sim:2h1m22s) 
CPU  0 inst:   63000002 cyc:   37381577 now IPC :1.67741: AVG IPC :1.67568: L2-Pf-HR :0.87868: L2-HR :0.85243: (Sim:0h4m53s) 
CPU  0 inst: 1320000000 cyc: 1669855032 now IPC :1.65238: AVG IPC :0.78975: L2-Pf-HR :0.85949: L2-HR :0.83820: (Sim:2h1m27s) 
CPU  0 inst:   64000000 cyc:   37969915 now IPC :1.69970: AVG IPC :1.67607: L2-Pf-HR :0.87865: L2-HR :0.85239: (Sim:0h4m58s) 
CPU  0 inst: 1321000002 cyc: 1670579148 now IPC :1.38100: AVG IPC :0.79001: L2-Pf-HR :0.85947: L2-HR :0.83821: (Sim:2h1m31s) 
CPU  0 inst:   65000001 cyc:   38565945 now IPC :1.67777: AVG IPC :1.67609: L2-Pf-HR :0.87862: L2-HR :0.85234: (Sim:0h5m2s) 
CPU  0 inst: 1322000003 cyc: 1671246618 now IPC :1.49820: AVG IPC :0.79029: L2-Pf-HR :0.85946: L2-HR :0.83821: (Sim:2h1m36s) 
CPU  0 inst:   66000000 cyc:   39160913 now IPC :1.68076: AVG IPC :1.67617: L2-Pf-HR :0.87853: L2-HR :0.85226: (Sim:0h5m7s) 
CPU  0 inst: 1323000002 cyc: 1671757354 now IPC :1.95796: AVG IPC :0.79065: L2-Pf-HR :0.85949: L2-HR :0.83826: (Sim:2h1m40s) 
CPU  0 inst:   67000003 cyc:   39748225 now IPC :1.70268: AVG IPC :1.67657: L2-Pf-HR :0.87853: L2-HR :0.85224: (Sim:0h5m11s) 
CPU  0 inst: 1324000000 cyc: 1672363435 now IPC :1.64994: AVG IPC :0.79096: L2-Pf-HR :0.85952: L2-HR :0.83830: (Sim:2h1m45s) 
CPU  0 inst:   68000000 cyc:   40509020 now IPC :1.31441: AVG IPC :1.66960: L2-Pf-HR :0.87888: L2-HR :0.85254: (Sim:0h5m16s) 
CPU  0 inst: 1325000000 cyc: 1673089015 now IPC :1.37821: AVG IPC :0.79122: L2-Pf-HR :0.85950: L2-HR :0.83831: (Sim:2h1m50s) 
CPU  0 inst:   69000002 cyc:   41106270 now IPC :1.67434: AVG IPC :1.66967: L2-Pf-HR :0.87894: L2-HR :0.85259: (Sim:0h5m21s) 
CPU  0 inst: 1326000002 cyc: 1673661012 now IPC :1.74826: AVG IPC :0.79154: L2-Pf-HR :0.85951: L2-HR :0.83833: (Sim:2h1m54s) 
CPU  0 inst:   70000001 cyc:   41686991 now IPC :1.72200: AVG IPC :1.67042: L2-Pf-HR :0.87894: L2-HR :0.85259: (Sim:0h5m26s) 
CPU  0 inst: 1327000001 cyc: 1674270102 now IPC :1.64179: AVG IPC :0.79185: L2-Pf-HR :0.85949: L2-HR :0.83834: (Sim:2h1m59s) 
CPU  0 inst:   71000003 cyc:   42264077 now IPC :1.73285: AVG IPC :1.67129: L2-Pf-HR :0.87899: L2-HR :0.85264: (Sim:0h5m30s) 
CPU  0 inst: 1328000000 cyc: 1674875504 now IPC :1.65179: AVG IPC :0.79216: L2-Pf-HR :0.85951: L2-HR :0.83837: (Sim:2h2m3s) 
CPU  0 inst:   72000000 cyc:   42845686 now IPC :1.71936: AVG IPC :1.67196: L2-Pf-HR :0.87904: L2-HR :0.85269: (Sim:0h5m35s) 
CPU  0 inst: 1329000001 cyc: 1675553268 now IPC :1.47544: AVG IPC :0.79244: L2-Pf-HR :0.85953: L2-HR :0.83840: (Sim:2h2m8s) 
CPU  0 inst: 1330000003 cyc: 1676073287 now IPC :1.92301: AVG IPC :0.79279: L2-Pf-HR :0.85955: L2-HR :0.83844: (Sim:2h2m11s) 
CPU  0 inst:   73000001 cyc:   43423036 now IPC :1.73205: AVG IPC :1.67277: L2-Pf-HR :0.87908: L2-HR :0.85273: (Sim:0h5m40s) 
CPU  0 inst: 1331000002 cyc: 1676699953 now IPC :1.59574: AVG IPC :0.79309: L2-Pf-HR :0.85954: L2-HR :0.83845: (Sim:2h2m16s) 
CPU  0 inst:   74000000 cyc:   43998524 now IPC :1.73765: AVG IPC :1.67364: L2-Pf-HR :0.87912: L2-HR :0.85276: (Sim:0h5m44s) 
CPU  0 inst: 1332000000 cyc: 1677292179 now IPC :1.68854: AVG IPC :0.79341: L2-Pf-HR :0.85955: L2-HR :0.83848: (Sim:2h2m20s) 
CPU  0 inst:   75000000 cyc:   44566464 now IPC :1.76075: AVG IPC :1.67478: L2-Pf-HR :0.87949: L2-HR :0.85307: (Sim:0h5m49s) 
CPU  0 inst: 1333000001 cyc: 1677927541 now IPC :1.57391: AVG IPC :0.79370: L2-Pf-HR :0.85961: L2-HR :0.83854: (Sim:2h2m24s) 
CPU  0 inst:   76000000 cyc:   45238836 now IPC :1.48727: AVG IPC :1.67193: L2-Pf-HR :0.87960: L2-HR :0.85317: (Sim:0h5m53s) 
CPU  0 inst: 1334000002 cyc: 1678629080 now IPC :1.42544: AVG IPC :0.79397: L2-Pf-HR :0.85965: L2-HR :0.83860: (Sim:2h2m29s) 
CPU  0 inst:   77000000 cyc:   45813210 now IPC :1.74103: AVG IPC :1.67281: L2-Pf-HR :0.87970: L2-HR :0.85327: (Sim:0h5m58s) 
CPU  0 inst: 1335000003 cyc: 1679373020 now IPC :1.34420: AVG IPC :0.79421: L2-Pf-HR :0.85962: L2-HR :0.83858: (Sim:2h2m33s) 
CPU  0 inst:   78000000 cyc:   46399736 now IPC :1.70495: AVG IPC :1.67323: L2-Pf-HR :0.87986: L2-HR :0.85341: (Sim:0h6m2s) 
CPU  0 inst: 1336000000 cyc: 1680058562 now IPC :1.45870: AVG IPC :0.79448: L2-Pf-HR :0.85958: L2-HR :0.83857: (Sim:2h2m37s) 
CPU  0 inst:   79000001 cyc:   46976110 now IPC :1.73499: AVG IPC :1.67400: L2-Pf-HR :0.87997: L2-HR :0.85351: (Sim:0h6m7s) 
CPU  0 inst: 1337000002 cyc: 1680580673 now IPC :1.91531: AVG IPC :0.79483: L2-Pf-HR :0.85962: L2-HR :0.83862: (Sim:2h2m41s) 
CPU  0 inst:   80000000 cyc:   47548423 now IPC :1.74729: AVG IPC :1.67490: L2-Pf-HR :0.88025: L2-HR :0.85375: (Sim:0h6m11s) 
CPU  0 inst: 1338000003 cyc: 1681204499 now IPC :1.60301: AVG IPC :0.79513: L2-Pf-HR :0.85964: L2-HR :0.83866: (Sim:2h2m44s) 
CPU  0 inst:   81000000 cyc:   48354434 now IPC :1.24068: AVG IPC :1.66752: L2-Pf-HR :0.88005: L2-HR :0.85355: (Sim:0h6m16s) 
CPU  0 inst: 1339000001 cyc: 1681943519 now IPC :1.35314: AVG IPC :0.79538: L2-Pf-HR :0.85962: L2-HR :0.83865: (Sim:2h2m48s) 
CPU  0 inst:   82000000 cyc:   48939226 now IPC :1.71001: AVG IPC :1.66803: L2-Pf-HR :0.87998: L2-HR :0.85348: (Sim:0h6m20s) 
CPU  0 inst: 1340000000 cyc: 1682613702 now IPC :1.49213: AVG IPC :0.79565: L2-Pf-HR :0.85960: L2-HR :0.83865: (Sim:2h2m53s) 
CPU  0 inst:   83000001 cyc:   49531534 now IPC :1.68831: AVG IPC :1.66828: L2-Pf-HR :0.87996: L2-HR :0.85345: (Sim:0h6m25s) 
CPU  0 inst: 1341000002 cyc: 1683126332 now IPC :1.95073: AVG IPC :0.79601: L2-Pf-HR :0.85962: L2-HR :0.83869: (Sim:2h2m57s) 
CPU  0 inst:   84000000 cyc:   50120681 now IPC :1.69737: AVG IPC :1.66863: L2-Pf-HR :0.87991: L2-HR :0.85339: (Sim:0h6m30s) 
CPU  0 inst: 1342000000 cyc: 1683734133 now IPC :1.64527: AVG IPC :0.79631: L2-Pf-HR :0.85964: L2-HR :0.83873: (Sim:2h3m2s) 
CPU  0 inst:   85000003 cyc:   50707056 now IPC :1.70540: AVG IPC :1.66906: L2-Pf-HR :0.87992: L2-HR :0.85338: (Sim:0h6m35s) 
CPU  0 inst: 1343000000 cyc: 1684459733 now IPC :1.37817: AVG IPC :0.79656: L2-Pf-HR :0.85964: L2-HR :0.83874: (Sim:2h3m7s) 
CPU  0 inst:   86000000 cyc:   51301118 now IPC :1.68332: AVG IPC :1.66923: L2-Pf-HR :0.87989: L2-HR :0.85336: (Sim:0h6m39s) 
CPU  0 inst: 1344000000 cyc: 1685014867 now IPC :1.80137: AVG IPC :0.79689: L2-Pf-HR :0.85966: L2-HR :0.83878: (Sim:2h3m11s) 
CPU  0 inst: 1345000001 cyc: 1685627077 now IPC :1.63343: AVG IPC :0.79720: L2-Pf-HR :0.85965: L2-HR :0.83878: (Sim:2h3m16s) 
CPU  0 inst:   87000001 cyc:   51890523 now IPC :1.69663: AVG IPC :1.66955: L2-Pf-HR :0.87991: L2-HR :0.85336: (Sim:0h6m44s) 
CPU  0 inst: 1346000003 cyc: 1686230989 now IPC :1.65587: AVG IPC :0.79751: L2-Pf-HR :0.85966: L2-HR :0.83881: (Sim:2h3m20s) 
CPU  0 inst:   88000000 cyc:   52648565 now IPC :1.31919: AVG IPC :1.66441: L2-Pf-HR :0.88012: L2-HR :0.85353: (Sim:0h6m49s) 
CPU  0 inst: 1347000000 cyc: 1686953885 now IPC :1.38332: AVG IPC :0.79776: L2-Pf-HR :0.85966: L2-HR :0.83883: (Sim:2h3m25s) 
CPU  0 inst:   89000000 cyc:   53246953 now IPC :1.67116: AVG IPC :1.66449: L2-Pf-HR :0.88011: L2-HR :0.85352: (Sim:0h6m54s) 
CPU  0 inst: 1348000000 cyc: 1687474287 now IPC :1.92159: AVG IPC :0.79810: L2-Pf-HR :0.85968: L2-HR :0.83886: (Sim:2h3m30s) 
CPU  0 inst:   90000003 cyc:   53834733 now IPC :1.70132: AVG IPC :1.66490: L2-Pf-HR :0.88010: L2-HR :0.85352: (Sim:0h6m59s) 
CPU  0 inst: 1349000001 cyc: 1688135379 now IPC :1.51265: AVG IPC :0.79838: L2-Pf-HR :0.85965: L2-HR :0.83885: (Sim:2h3m35s) 
CPU  0 inst:   91000003 cyc:   54416217 now IPC :1.71974: AVG IPC :1.66549: L2-Pf-HR :0.88010: L2-HR :0.85352: (Sim:0h7m3s) 
CPU  0 inst: 1350000002 cyc: 1688743189 now IPC :1.64525: AVG IPC :0.79869: L2-Pf-HR :0.85965: L2-HR :0.83888: (Sim:2h3m40s) 
CPU  0 inst:   92000000 cyc:   54998017 now IPC :1.71880: AVG IPC :1.66607: L2-Pf-HR :0.88010: L2-HR :0.85353: (Sim:0h7m8s) 
CPU  0 inst: 1351000002 cyc: 1689420280 now IPC :1.47691: AVG IPC :0.79896: L2-Pf-HR :0.85968: L2-HR :0.83892: (Sim:2h3m44s) 
CPU  0 inst:   93000000 cyc:   55581897 now IPC :1.71268: AVG IPC :1.66656: L2-Pf-HR :0.88009: L2-HR :0.85353: (Sim:0h7m13s) 
CPU  0 inst: 1352000000 cyc: 1689931611 now IPC :1.95568: AVG IPC :0.79931: L2-Pf-HR :0.85970: L2-HR :0.83895: (Sim:2h3m48s) 
CPU  0 inst:   94000003 cyc:   56160646 now IPC :1.72787: AVG IPC :1.66721: L2-Pf-HR :0.88009: L2-HR :0.85353: (Sim:0h7m18s) 
CPU  0 inst: 1353000003 cyc: 1690566588 now IPC :1.57486: AVG IPC :0.79960: L2-Pf-HR :0.85969: L2-HR :0.83896: (Sim:2h3m52s) 
CPU  0 inst:   95000002 cyc:   56732799 now IPC :1.74778: AVG IPC :1.66803: L2-Pf-HR :0.88036: L2-HR :0.85375: (Sim:0h7m23s) 
CPU  0 inst: 1354000001 cyc: 1691156846 now IPC :1.69417: AVG IPC :0.79992: L2-Pf-HR :0.85970: L2-HR :0.83899: (Sim:2h3m57s) 
CPU  0 inst:   96000000 cyc:   57419079 now IPC :1.45713: AVG IPC :1.66547: L2-Pf-HR :0.88042: L2-HR :0.85382: (Sim:0h7m28s) 
CPU  0 inst: 1355000001 cyc: 1691790997 now IPC :1.57691: AVG IPC :0.80021: L2-Pf-HR :0.85975: L2-HR :0.83905: (Sim:2h4m2s) 
CPU  0 inst:   97000003 cyc:   57998837 now IPC :1.72486: AVG IPC :1.66607: L2-Pf-HR :0.88048: L2-HR :0.85388: (Sim:0h7m32s) 
CPU  0 inst: 1356000000 cyc: 1692485326 now IPC :1.44024: AVG IPC :0.80047: L2-Pf-HR :0.85979: L2-HR :0.83910: (Sim:2h4m7s) 
CPU  0 inst:   98000001 cyc:   58582413 now IPC :1.71357: AVG IPC :1.66655: L2-Pf-HR :0.88058: L2-HR :0.85398: (Sim:0h7m36s) 
CPU  0 inst: 1357000002 cyc: 1693229961 now IPC :1.34294: AVG IPC :0.80071: L2-Pf-HR :0.85976: L2-HR :0.83908: (Sim:2h4m11s) 
CPU  0 inst:   99000002 cyc:   59162747 now IPC :1.72315: AVG IPC :1.66712: L2-Pf-HR :0.88067: L2-HR :0.85406: (Sim:0h7m41s) 
CPU  0 inst: 1358000000 cyc: 1693907447 now IPC :1.47604: AVG IPC :0.80098: L2-Pf-HR :0.85973: L2-HR :0.83908: (Sim:2h4m15s) 
CPU  0 inst:  100000000 cyc:   59734454 now IPC :1.74914: AVG IPC :1.66792: L2-Pf-HR :0.88088: L2-HR :0.85424: (Sim:0h7m46s) 
CPU  0 inst: 1359000002 cyc: 1694436022 now IPC :1.89188: AVG IPC :0.80132: L2-Pf-HR :0.85976: L2-HR :0.83912: (Sim:2h4m20s) 
CPU  0 inst:  101000002 cyc:   60535520 now IPC :1.24834: AVG IPC :1.66227: L2-Pf-HR :0.88070: L2-HR :0.85407: (Sim:0h7m51s) 
CPU  0 inst: 1360000000 cyc: 1695063200 now IPC :1.59444: AVG IPC :0.80161: L2-Pf-HR :0.85977: L2-HR :0.83915: (Sim:2h4m24s) 
CPU  0 inst:  102000000 cyc:   61128725 now IPC :1.68575: AVG IPC :1.66251: L2-Pf-HR :0.88067: L2-HR :0.85404: (Sim:0h7m56s) 
CPU  0 inst: 1361000000 cyc: 1695798239 now IPC :1.36047: AVG IPC :0.80186: L2-Pf-HR :0.85976: L2-HR :0.83915: (Sim:2h4m29s) 
CPU  0 inst:  103000000 cyc:   61716561 now IPC :1.70115: AVG IPC :1.66288: L2-Pf-HR :0.88061: L2-HR :0.85398: (Sim:0h8m0s) 
CPU  0 inst: 1362000002 cyc: 1696342772 now IPC :1.83644: AVG IPC :0.80219: L2-Pf-HR :0.85978: L2-HR :0.83918: (Sim:2h4m33s) 
CPU  0 inst:  104000000 cyc:   62308968 now IPC :1.68803: AVG IPC :1.66312: L2-Pf-HR :0.88060: L2-HR :0.85396: (Sim:0h8m5s) 
CPU  0 inst: 1363000002 cyc: 1696971864 now IPC :1.58959: AVG IPC :0.80248: L2-Pf-HR :0.85975: L2-HR :0.83917: (Sim:2h4m37s) 
CPU  0 inst:  105000003 cyc:   62896786 now IPC :1.70121: AVG IPC :1.66348: L2-Pf-HR :0.88057: L2-HR :0.85393: (Sim:0h8m10s) 
CPU  0 inst: 1364000000 cyc: 1697587636 now IPC :1.62397: AVG IPC :0.80278: L2-Pf-HR :0.85975: L2-HR :0.83919: (Sim:2h4m42s) 
CPU  0 inst:  106000003 cyc:   63495541 now IPC :1.67013: AVG IPC :1.66355: L2-Pf-HR :0.88056: L2-HR :0.85391: (Sim:0h8m14s) 
CPU  0 inst: 1365000000 cyc: 1698314133 now IPC :1.37647: AVG IPC :0.80302: L2-Pf-HR :0.85975: L2-HR :0.83921: (Sim:2h4m47s) 
CPU  0 inst: 1366000002 cyc: 1698833166 now IPC :1.92666: AVG IPC :0.80337: L2-Pf-HR :0.85978: L2-HR :0.83925: (Sim:2h4m51s) 
CPU  0 inst:  107000002 cyc:   64088575 now IPC :1.68624: AVG IPC :1.66376: L2-Pf-HR :0.88055: L2-HR :0.85390: (Sim:0h8m19s) 
CPU  0 inst: 1367000001 cyc: 1699485397 now IPC :1.53320: AVG IPC :0.80365: L2-Pf-HR :0.85975: L2-HR :0.83925: (Sim:2h4m55s) 
CPU  0 inst:  108000000 cyc:   64847410 now IPC :1.31781: AVG IPC :1.65965: L2-Pf-HR :0.88074: L2-HR :0.85405: (Sim:0h8m24s) 
CPU  0 inst: 1368000000 cyc: 1700094575 now IPC :1.64155: AVG IPC :0.80395: L2-Pf-HR :0.85975: L2-HR :0.83926: (Sim:2h5m0s) 
CPU  0 inst:  109000000 cyc:   65438069 now IPC :1.69302: AVG IPC :1.65996: L2-Pf-HR :0.88072: L2-HR :0.85404: (Sim:0h8m29s) 
CPU  0 inst: 1369000002 cyc: 1700816894 now IPC :1.38443: AVG IPC :0.80419: L2-Pf-HR :0.85976: L2-HR :0.83929: (Sim:2h5m4s) 
CPU  0 inst:  110000002 cyc:   66023448 now IPC :1.70830: AVG IPC :1.66039: L2-Pf-HR :0.88072: L2-HR :0.85404: (Sim:0h8m33s) 
CPU  0 inst: 1370000002 cyc: 1701331365 now IPC :1.94374: AVG IPC :0.80454: L2-Pf-HR :0.85978: L2-HR :0.83932: (Sim:2h5m9s) 
CPU  0 inst:  111000001 cyc:   66609644 now IPC :1.70591: AVG IPC :1.66080: L2-Pf-HR :0.88072: L2-HR :0.85405: (Sim:0h8m38s) 
CPU  0 inst: 1371000003 cyc: 1701996134 now IPC :1.50428: AVG IPC :0.80481: L2-Pf-HR :0.85975: L2-HR :0.83931: (Sim:2h5m13s) 
CPU  0 inst:  112000000 cyc:   67192907 now IPC :1.71449: AVG IPC :1.66127: L2-Pf-HR :0.88073: L2-HR :0.85405: (Sim:0h8m43s) 
CPU  0 inst: 1372000000 cyc: 1702602547 now IPC :1.64904: AVG IPC :0.80511: L2-Pf-HR :0.85976: L2-HR :0.83934: (Sim:2h5m18s) 
CPU  0 inst:  113000002 cyc:   67772698 now IPC :1.72476: AVG IPC :1.66182: L2-Pf-HR :0.88074: L2-HR :0.85407: (Sim:0h8m47s) 
CPU  0 inst: 1373000003 cyc: 1703276169 now IPC :1.48452: AVG IPC :0.80538: L2-Pf-HR :0.85979: L2-HR :0.83939: (Sim:2h5m22s) 
CPU  0 inst:  114000001 cyc:   68352367 now IPC :1.72512: AVG IPC :1.66237: L2-Pf-HR :0.88078: L2-HR :0.85411: (Sim:0h8m52s) 
CPU  0 inst: 1374000000 cyc: 1703793194 now IPC :1.93414: AVG IPC :0.80572: L2-Pf-HR :0.85981: L2-HR :0.83942: (Sim:2h5m27s) 
CPU  0 inst:  115000000 cyc:   68918123 now IPC :1.76754: AVG IPC :1.66324: L2-Pf-HR :0.88100: L2-HR :0.85428: (Sim:0h8m57s) 
CPU  0 inst: 1375000000 cyc: 1704432684 now IPC :1.56375: AVG IPC :0.80601: L2-Pf-HR :0.85980: L2-HR :0.83943: (Sim:2h5m31s) 
CPU  0 inst:  116000000 cyc:   69599763 now IPC :1.46705: AVG IPC :1.66129: L2-Pf-HR :0.88107: L2-HR :0.85435: (Sim:0h9m2s) 
CPU  0 inst: 1376000000 cyc: 1704974486 now IPC :1.84569: AVG IPC :0.80634: L2-Pf-HR :0.85984: L2-HR :0.83948: (Sim:2h5m35s) 
CPU  0 inst:  117000001 cyc:   70178340 now IPC :1.72838: AVG IPC :1.66185: L2-Pf-HR :0.88117: L2-HR :0.85445: (Sim:0h9m7s) 
CPU  0 inst: 1377000003 cyc: 1705540596 now IPC :1.76645: AVG IPC :0.80666: L2-Pf-HR :0.85989: L2-HR :0.83954: (Sim:2h5m39s) 
CPU  0 inst:  118000002 cyc:   70760022 now IPC :1.71915: AVG IPC :1.66233: L2-Pf-HR :0.88124: L2-HR :0.85452: (Sim:0h9m11s) 
CPU  0 inst: 1378000001 cyc: 1706287073 now IPC :1.33962: AVG IPC :0.80689: L2-Pf-HR :0.85991: L2-HR :0.83957: (Sim:2h5m44s) 
CPU  0 inst:  119000001 cyc:   71340580 now IPC :1.72248: AVG IPC :1.66283: L2-Pf-HR :0.88134: L2-HR :0.85460: (Sim:0h9m16s) 
CPU  0 inst: 1379000002 cyc: 1707111882 now IPC :1.21240: AVG IPC :0.80709: L2-Pf-HR :0.85988: L2-HR :0.83955: (Sim:2h5m50s) 
CPU  0 inst:  120000000 cyc:   71913817 now IPC :1.74448: AVG IPC :1.66349: L2-Pf-HR :0.88154: L2-HR :0.85479: (Sim:0h9m20s) 
CPU  0 inst: 1380000000 cyc: 1707654201 now IPC :1.84393: AVG IPC :0.80742: L2-Pf-HR :0.85991: L2-HR :0.83960: (Sim:2h5m54s) 
CPU  0 inst:  121000000 cyc:   72715561 now IPC :1.24728: AVG IPC :1.65884: L2-Pf-HR :0.88138: L2-HR :0.85462: (Sim:0h9m25s) 
CPU  0 inst: 1381000003 cyc: 1708323689 now IPC :1.49368: AVG IPC :0.80769: L2-Pf-HR :0.85988: L2-HR :0.83958: (Sim:2h5m58s) 
CPU  0 inst: 1382000003 cyc: 1708957937 now IPC :1.57667: AVG IPC :0.80797: L2-Pf-HR :0.85989: L2-HR :0.83961: (Sim:2h6m2s) 
CPU  0 inst:  122000002 cyc:   73318885 now IPC :1.65749: AVG IPC :1.65883: L2-Pf-HR :0.88132: L2-HR :0.85457: (Sim:0h9m30s) 
CPU  0 inst: 1383000000 cyc: 1709684463 now IPC :1.37641: AVG IPC :0.80821: L2-Pf-HR :0.85989: L2-HR :0.83962: (Sim:2h6m6s) 
CPU  0 inst:  123000002 cyc:   73914740 now IPC :1.67826: AVG IPC :1.65898: L2-Pf-HR :0.88130: L2-HR :0.85455: (Sim:0h9m35s) 
CPU  0 inst: 1384000000 cyc: 1710204562 now IPC :1.92271: AVG IPC :0.80855: L2-Pf-HR :0.85992: L2-HR :0.83967: (Sim:2h6m10s) 
CPU  0 inst:  124000000 cyc:   74515178 now IPC :1.66545: AVG IPC :1.65904: L2-Pf-HR :0.88127: L2-HR :0.85452: (Sim:0h9m40s) 
CPU  0 inst: 1385000003 cyc: 1710870526 now IPC :1.50159: AVG IPC :0.80882: L2-Pf-HR :0.85990: L2-HR :0.83967: (Sim:2h6m14s) 
CPU  0 inst:  125000002 cyc:   75119904 now IPC :1.65364: AVG IPC :1.65899: L2-Pf-HR :0.88125: L2-HR :0.85449: (Sim:0h9m44s) 
CPU  0 inst: 1386000002 cyc: 1711476884 now IPC :1.64919: AVG IPC :0.80912: L2-Pf-HR :0.85990: L2-HR :0.83969: (Sim:2h6m19s) 
CPU  0 inst:  126000002 cyc:   75717984 now IPC :1.67202: AVG IPC :1.65910: L2-Pf-HR :0.88121: L2-HR :0.85445: (Sim:0h9m49s) 
CPU  0 inst: 1387000003 cyc: 1712194244 now IPC :1.39400: AVG IPC :0.80937: L2-Pf-HR :0.85992: L2-HR :0.83972: (Sim:2h6m23s) 
CPU  0 inst:  127000001 cyc:   76322001 now IPC :1.65558: AVG IPC :1.65907: L2-Pf-HR :0.88122: L2-HR :0.85445: (Sim:0h9m54s) 
CPU  0 inst: 1388000000 cyc: 1712710522 now IPC :1.93694: AVG IPC :0.80971: L2-Pf-HR :0.85994: L2-HR :0.83976: (Sim:2h6m27s) 
CPU  0 inst:  128000000 cyc:   77082777 now IPC :1.31445: AVG IPC :1.65562: L2-Pf-HR :0.88138: L2-HR :0.85458: (Sim:0h9m59s) 
CPU  0 inst: 1389000000 cyc: 1713380952 now IPC :1.49158: AVG IPC :0.80997: L2-Pf-HR :0.85991: L2-HR :0.83975: (Sim:2h6m32s) 
CPU  0 inst:  129000002 cyc:   77675033 now IPC :1.68846: AVG IPC :1.65588: L2-Pf-HR :0.88136: L2-HR :0.85456: (Sim:0h10m3s) 
CPU  0 inst: 1390000000 cyc: 1713986996 now IPC :1.65005: AVG IPC :0.81027: L2-Pf-HR :0.85992: L2-HR :0.83977: (Sim:2h6m36s) 
CPU  0 inst:  130000001 cyc:   78256959 now IPC :1.71843: AVG IPC :1.65635: L2-Pf-HR :0.88133: L2-HR :0.85454: (Sim:0h10m8s) 
CPU  0 inst: 1391000000 cyc: 1714678376 now IPC :1.44638: AVG IPC :0.81053: L2-Pf-HR :0.85994: L2-HR :0.83981: (Sim:2h6m41s) 
CPU  0 inst:  131000001 cyc:   78836208 now IPC :1.72637: AVG IPC :1.65687: L2-Pf-HR :0.88132: L2-HR :0.85454: (Sim:0h10m12s) 
CPU  0 inst: 1392000000 cyc: 1715221938 now IPC :1.83972: AVG IPC :0.81085: L2-Pf-HR :0.85995: L2-HR :0.83983: (Sim:2h6m45s) 
CPU  0 inst:  132000000 cyc:   79416435 now IPC :1.72346: AVG IPC :1.65736: L2-Pf-HR :0.88133: L2-HR :0.85455: (Sim:0h10m17s) 
CPU  0 inst: 1393000003 cyc: 1715894877 now IPC :1.48602: AVG IPC :0.81112: L2-Pf-HR :0.85992: L2-HR :0.83982: (Sim:2h6m49s) 
CPU  0 inst:  133000001 cyc:   79992752 now IPC :1.73516: AVG IPC :1.65793: L2-Pf-HR :0.88131: L2-HR :0.85454: (Sim:0h10m22s) 
CPU  0 inst: 1394000000 cyc: 1716424959 now IPC :1.88649: AVG IPC :0.81145: L2-Pf-HR :0.85996: L2-HR :0.83987: (Sim:2h6m54s) 
CPU  0 inst: 1395000002 cyc: 1717011855 now IPC :1.70388: AVG IPC :0.81176: L2-Pf-HR :0.86000: L2-HR :0.83992: (Sim:2h6m57s) 
CPU  0 inst:  134000003 cyc:   80570113 now IPC :1.73202: AVG IPC :1.65847: L2-Pf-HR :0.88132: L2-HR :0.85456: (Sim:0h10m26s) 
CPU  0 inst: 1396000000 cyc: 1717688129 now IPC :1.47869: AVG IPC :0.81202: L2-Pf-HR :0.85997: L2-HR :0.83992: (Sim:2h7m1s) 
CPU  0 inst:  135000000 cyc:   81140134 now IPC :1.75432: AVG IPC :1.65915: L2-Pf-HR :0.88152: L2-HR :0.85472: (Sim:0h10m31s) 
CPU  0 inst: 1397000001 cyc: 1718326240 now IPC :1.56713: AVG IPC :0.81230: L2-Pf-HR :0.85996: L2-HR :0.83992: (Sim:2h7m6s) 
CPU  0 inst:  136000000 cyc:   81817654 now IPC :1.47597: AVG IPC :1.65761: L2-Pf-HR :0.88158: L2-HR :0.85478: (Sim:0h10m36s) 
CPU  0 inst: 1398000000 cyc: 1718836048 now IPC :1.96152: AVG IPC :0.81264: L2-Pf-HR :0.86000: L2-HR :0.83997: (Sim:2h7m10s) 
CPU  0 inst:  137000000 cyc:   82397226 now IPC :1.72541: AVG IPC :1.65810: L2-Pf-HR :0.88166: L2-HR :0.85485: (Sim:0h10m40s) 
CPU  0 inst: 1399000001 cyc: 1719416749 now IPC :1.72206: AVG IPC :0.81295: L2-Pf-HR :0.86003: L2-HR :0.84002: (Sim:2h7m15s) 
CPU  0 inst:  138000002 cyc:   82977097 now IPC :1.72452: AVG IPC :1.65857: L2-Pf-HR :0.88173: L2-HR :0.85492: (Sim:0h10m45s) 
CPU  0 inst: 1400000000 cyc: 1720173872 now IPC :1.32079: AVG IPC :0.81317: L2-Pf-HR :0.86006: L2-HR :0.84005: (Sim:2h7m20s) 
CPU  0 inst:  139000002 cyc:   83552679 now IPC :1.73737: AVG IPC :1.65912: L2-Pf-HR :0.88181: L2-HR :0.85499: (Sim:0h10m49s) 
CPU  0 inst:  140000000 cyc:   84127310 now IPC :1.74024: AVG IPC :1.65968: L2-Pf-HR :0.88201: L2-HR :0.85517: (Sim:0h10m53s) 
CPU  0 inst: 1401000003 cyc: 1720980047 now IPC :1.24043: AVG IPC :0.81337: L2-Pf-HR :0.86003: L2-HR :0.84004: (Sim:2h7m25s) 
CPU  0 inst: 1402000003 cyc: 1721513370 now IPC :1.87504: AVG IPC :0.81370: L2-Pf-HR :0.86005: L2-HR :0.84007: (Sim:2h7m30s) 
CPU  0 inst:  141000002 cyc:   84926712 now IPC :1.25094: AVG IPC :1.65578: L2-Pf-HR :0.88187: L2-HR :0.85503: (Sim:0h10m58s) 
CPU  0 inst: 1403000003 cyc: 1722191669 now IPC :1.47428: AVG IPC :0.81396: L2-Pf-HR :0.86002: L2-HR :0.84006: (Sim:2h7m34s) 
CPU  0 inst:  142000002 cyc:   85524417 now IPC :1.67307: AVG IPC :1.65591: L2-Pf-HR :0.88181: L2-HR :0.85498: (Sim:0h11m3s) 
CPU  0 inst: 1404000000 cyc: 1722812065 now IPC :1.61187: AVG IPC :0.81425: L2-Pf-HR :0.86002: L2-HR :0.84008: (Sim:2h7m39s) 
CPU  0 inst:  143000001 cyc:   86112904 now IPC :1.69927: AVG IPC :1.65621: L2-Pf-HR :0.88176: L2-HR :0.85493: (Sim:0h11m8s) 
CPU  0 inst: 1405000001 cyc: 1723536689 now IPC :1.38003: AVG IPC :0.81449: L2-Pf-HR :0.86003: L2-HR :0.84010: (Sim:2h7m44s) 
CPU  0 inst:  144000000 cyc:   86694360 now IPC :1.71982: AVG IPC :1.65664: L2-Pf-HR :0.88172: L2-HR :0.85490: (Sim:0h11m13s) 
CPU  0 inst: 1406000001 cyc: 1724055225 now IPC :1.92851: AVG IPC :0.81482: L2-Pf-HR :0.86005: L2-HR :0.84013: (Sim:2h7m48s) 
CPU  0 inst:  145000000 cyc:   87287755 now IPC :1.68522: AVG IPC :1.65683: L2-Pf-HR :0.88168: L2-HR :0.85485: (Sim:0h11m17s) 
CPU  0 inst: 1407000001 cyc: 1724728391 now IPC :1.48552: AVG IPC :0.81508: L2-Pf-HR :0.86002: L2-HR :0.84012: (Sim:2h7m52s) 
CPU  0 inst:  146000000 cyc:   87878605 now IPC :1.69248: AVG IPC :1.65708: L2-Pf-HR :0.88165: L2-HR :0.85483: (Sim:0h11m22s) 
CPU  0 inst: 1408000000 cyc: 1725331828 now IPC :1.65717: AVG IPC :0.81538: L2-Pf-HR :0.86002: L2-HR :0.84015: (Sim:2h7m57s) 
CPU  0 inst:  147000000 cyc:   88468717 now IPC :1.69459: AVG IPC :1.65733: L2-Pf-HR :0.88166: L2-HR :0.85483: (Sim:0h11m26s) 
CPU  0 inst: 1409000000 cyc: 1726004258 now IPC :1.48714: AVG IPC :0.81564: L2-Pf-HR :0.86006: L2-HR :0.84020: (Sim:2h8m2s) 
CPU  0 inst:  148000000 cyc:   89234650 now IPC :1.30560: AVG IPC :1.65428: L2-Pf-HR :0.88179: L2-HR :0.85494: (Sim:0h11m31s) 
CPU  0 inst: 1410000003 cyc: 1726570147 now IPC :1.76714: AVG IPC :0.81595: L2-Pf-HR :0.86006: L2-HR :0.84021: (Sim:2h8m6s) 
CPU  0 inst:  149000000 cyc:   89831327 now IPC :1.67595: AVG IPC :1.65442: L2-Pf-HR :0.88179: L2-HR :0.85494: (Sim:0h11m35s) 
CPU  0 inst: 1411000003 cyc: 1727231190 now IPC :1.51276: AVG IPC :0.81622: L2-Pf-HR :0.86003: L2-HR :0.84020: (Sim:2h8m11s) 
CPU  0 inst:  150000001 cyc:   90413595 now IPC :1.71742: AVG IPC :1.65483: L2-Pf-HR :0.88177: L2-HR :0.85492: (Sim:0h11m40s) 
CPU  0 inst: 1412000000 cyc: 1727754425 now IPC :1.91118: AVG IPC :0.81655: L2-Pf-HR :0.86007: L2-HR :0.84026: (Sim:2h8m15s) 
CPU  0 inst:  151000003 cyc:   90994215 now IPC :1.72230: AVG IPC :1.65527: L2-Pf-HR :0.88177: L2-HR :0.85493: (Sim:0h11m45s) 
CPU  0 inst: 1413000001 cyc: 1728347302 now IPC :1.68669: AVG IPC :0.81685: L2-Pf-HR :0.86011: L2-HR :0.84031: (Sim:2h8m20s) 
CPU  0 inst:  152000000 cyc:   91576133 now IPC :1.71845: AVG IPC :1.65567: L2-Pf-HR :0.88177: L2-HR :0.85493: (Sim:0h11m49s) 
CPU  0 inst: 1414000000 cyc: 1729062746 now IPC :1.39773: AVG IPC :0.81709: L2-Pf-HR :0.86008: L2-HR :0.84029: (Sim:2h8m25s) 
CPU  0 inst:  153000000 cyc:   92153753 now IPC :1.73124: AVG IPC :1.65615: L2-Pf-HR :0.88176: L2-HR :0.85492: (Sim:0h11m54s) 
CPU  0 inst: 1415000003 cyc: 1729726786 now IPC :1.50594: AVG IPC :0.81735: L2-Pf-HR :0.86005: L2-HR :0.84028: (Sim:2h8m29s) 
CPU  0 inst:  154000002 cyc:   92730494 now IPC :1.73388: AVG IPC :1.65664: L2-Pf-HR :0.88177: L2-HR :0.85494: (Sim:0h11m59s) 
CPU  0 inst: 1416000000 cyc: 1730235838 now IPC :1.96443: AVG IPC :0.81769: L2-Pf-HR :0.86008: L2-HR :0.84032: (Sim:2h8m34s) 
CPU  0 inst:  155000003 cyc:   93298539 now IPC :1.76043: AVG IPC :1.65728: L2-Pf-HR :0.88194: L2-HR :0.85508: (Sim:0h12m3s) 
CPU  0 inst: 1417000003 cyc: 1730831171 now IPC :1.67974: AVG IPC :0.81799: L2-Pf-HR :0.86010: L2-HR :0.84037: (Sim:2h8m38s) 
CPU  0 inst:  156000000 cyc:   93965494 now IPC :1.49935: AVG IPC :1.65615: L2-Pf-HR :0.88197: L2-HR :0.85510: (Sim:0h12m8s) 
CPU  0 inst: 1418000001 cyc: 1731518836 now IPC :1.45419: AVG IPC :0.81824: L2-Pf-HR :0.86010: L2-HR :0.84037: (Sim:2h8m43s) 
CPU  0 inst:  157000001 cyc:   94543140 now IPC :1.73117: AVG IPC :1.65661: L2-Pf-HR :0.88202: L2-HR :0.85516: (Sim:0h12m13s) 
CPU  0 inst: 1419000000 cyc: 1732147565 now IPC :1.59051: AVG IPC :0.81852: L2-Pf-HR :0.86008: L2-HR :0.84038: (Sim:2h8m48s) 
CPU  0 inst:  158000003 cyc:   95127831 now IPC :1.71031: AVG IPC :1.65694: L2-Pf-HR :0.88208: L2-HR :0.85522: (Sim:0h12m18s) 
CPU  0 inst: 1420000000 cyc: 1732654291 now IPC :1.97345: AVG IPC :0.81886: L2-Pf-HR :0.86011: L2-HR :0.84042: (Sim:2h8m52s) 
CPU  0 inst:  159000002 cyc:   95707389 now IPC :1.72545: AVG IPC :1.65736: L2-Pf-HR :0.88213: L2-HR :0.85526: (Sim:0h12m22s) 
CPU  0 inst: 1421000001 cyc: 1733239618 now IPC :1.70845: AVG IPC :0.81916: L2-Pf-HR :0.86014: L2-HR :0.84046: (Sim:2h8m56s) 
CPU  0 inst:  160000000 cyc:   96283318 now IPC :1.73632: AVG IPC :1.65784: L2-Pf-HR :0.88227: L2-HR :0.85539: (Sim:0h12m26s) 
CPU  0 inst: 1422000000 cyc: 1733989983 now IPC :1.33268: AVG IPC :0.81938: L2-Pf-HR :0.86017: L2-HR :0.84050: (Sim:2h9m1s) 
CPU  0 inst:  161000001 cyc:   97088051 now IPC :1.24265: AVG IPC :1.65436: L2-Pf-HR :0.88214: L2-HR :0.85526: (Sim:0h12m30s) 
CPU  0 inst: 1423000003 cyc: 1734785180 now IPC :1.25755: AVG IPC :0.81958: L2-Pf-HR :0.86016: L2-HR :0.84050: (Sim:2h9m6s) 
CPU  0 inst:  162000002 cyc:   97684955 now IPC :1.67531: AVG IPC :1.65449: L2-Pf-HR :0.88212: L2-HR :0.85524: (Sim:0h12m35s) 
CPU  0 inst: 1424000000 cyc: 1735322342 now IPC :1.86163: AVG IPC :0.81991: L2-Pf-HR :0.86017: L2-HR :0.84052: (Sim:2h9m11s) 
CPU  0 inst:  163000000 cyc:   98283002 now IPC :1.67211: AVG IPC :1.65460: L2-Pf-HR :0.88212: L2-HR :0.85523: (Sim:0h12m40s) 
CPU  0 inst: 1425000002 cyc: 1736013697 now IPC :1.44644: AVG IPC :0.82016: L2-Pf-HR :0.86014: L2-HR :0.84051: (Sim:2h9m15s) 
CPU  0 inst:  164000000 cyc:   98883566 now IPC :1.66510: AVG IPC :1.65466: L2-Pf-HR :0.88210: L2-HR :0.85521: (Sim:0h12m44s) 
CPU  0 inst:  165000001 cyc:   99481363 now IPC :1.67281: AVG IPC :1.65478: L2-Pf-HR :0.88207: L2-HR :0.85518: (Sim:0h12m47s) 
CPU  0 inst: 1426000001 cyc: 1736638379 now IPC :1.60081: AVG IPC :0.82044: L2-Pf-HR :0.86014: L2-HR :0.84053: (Sim:2h9m20s) 
CPU  0 inst:  166000000 cyc:  100078886 now IPC :1.67357: AVG IPC :1.65489: L2-Pf-HR :0.88206: L2-HR :0.85518: (Sim:0h12m52s) 
CPU  0 inst: 1427000001 cyc: 1737295516 now IPC :1.52175: AVG IPC :0.82070: L2-Pf-HR :0.86017: L2-HR :0.84057: (Sim:2h9m24s) 
CPU  0 inst: 1428000000 cyc: 1737885945 now IPC :1.69368: AVG IPC :0.82100: L2-Pf-HR :0.86017: L2-HR :0.84058: (Sim:2h9m28s) 
CPU  0 inst:  167000003 cyc:  100682493 now IPC :1.65671: AVG IPC :1.65490: L2-Pf-HR :0.88207: L2-HR :0.85518: (Sim:0h12m57s) 
CPU  0 inst:  168000000 cyc:  101444530 now IPC :1.31227: AVG IPC :1.65230: L2-Pf-HR :0.88217: L2-HR :0.85526: (Sim:0h13m1s) 
CPU  0 inst: 1429000000 cyc: 1738563802 now IPC :1.47524: AVG IPC :0.82125: L2-Pf-HR :0.86013: L2-HR :0.84056: (Sim:2h9m33s) 
CPU  0 inst:  169000003 cyc:  102035552 now IPC :1.69199: AVG IPC :1.65253: L2-Pf-HR :0.88218: L2-HR :0.85526: (Sim:0h13m5s) 
CPU  0 inst: 1430000000 cyc: 1739085488 now IPC :1.91686: AVG IPC :0.82158: L2-Pf-HR :0.86017: L2-HR :0.84062: (Sim:2h9m38s) 
CPU  0 inst:  170000002 cyc:  102619384 now IPC :1.71282: AVG IPC :1.65288: L2-Pf-HR :0.88218: L2-HR :0.85527: (Sim:0h13m10s) 
CPU  0 inst: 1431000000 cyc: 1739682954 now IPC :1.67374: AVG IPC :0.82188: L2-Pf-HR :0.86020: L2-HR :0.84066: (Sim:2h9m43s) 
CPU  0 inst:  171000000 cyc:  103198863 now IPC :1.72568: AVG IPC :1.65329: L2-Pf-HR :0.88218: L2-HR :0.85527: (Sim:0h13m14s) 
CPU  0 inst: 1432000000 cyc: 1740404040 now IPC :1.38680: AVG IPC :0.82211: L2-Pf-HR :0.86016: L2-HR :0.84064: (Sim:2h9m47s) 
CPU  0 inst:  172000000 cyc:  103783209 now IPC :1.71131: AVG IPC :1.65362: L2-Pf-HR :0.88218: L2-HR :0.85527: (Sim:0h13m18s) 
CPU  0 inst: 1433000000 cyc: 1741066148 now IPC :1.51033: AVG IPC :0.82237: L2-Pf-HR :0.86012: L2-HR :0.84062: (Sim:2h9m51s) 
CPU  0 inst:  173000002 cyc:  104360295 now IPC :1.73285: AVG IPC :1.65406: L2-Pf-HR :0.88217: L2-HR :0.85527: (Sim:0h13m21s) 
CPU  0 inst: 1434000001 cyc: 1741574136 now IPC :1.96855: AVG IPC :0.82271: L2-Pf-HR :0.86015: L2-HR :0.84066: (Sim:2h9m56s) 
CPU  0 inst:  174000001 cyc:  104934160 now IPC :1.74257: AVG IPC :1.65455: L2-Pf-HR :0.88219: L2-HR :0.85529: (Sim:0h13m26s) 
CPU  0 inst: 1435000001 cyc: 1742177805 now IPC :1.65654: AVG IPC :0.82300: L2-Pf-HR :0.86018: L2-HR :0.84070: (Sim:2h10m0s) 
CPU  0 inst:  175000001 cyc:  105503755 now IPC :1.75563: AVG IPC :1.65510: L2-Pf-HR :0.88234: L2-HR :0.85541: (Sim:0h13m30s) 
CPU  0 inst: 1436000000 cyc: 1742899764 now IPC :1.38512: AVG IPC :0.82323: L2-Pf-HR :0.86016: L2-HR :0.84070: (Sim:2h10m5s) 
CPU  0 inst:  176000000 cyc:  106189326 now IPC :1.45864: AVG IPC :1.65382: L2-Pf-HR :0.88238: L2-HR :0.85545: (Sim:0h13m35s) 
CPU  0 inst: 1437000002 cyc: 1743566953 now IPC :1.49883: AVG IPC :0.82349: L2-Pf-HR :0.86012: L2-HR :0.84069: (Sim:2h10m10s) 
CPU  0 inst:  177000000 cyc:  106772634 now IPC :1.71436: AVG IPC :1.65416: L2-Pf-HR :0.88245: L2-HR :0.85552: (Sim:0h13m39s) 
CPU  0 inst: 1438000001 cyc: 1744073886 now IPC :1.97265: AVG IPC :0.82382: L2-Pf-HR :0.86015: L2-HR :0.84072: (Sim:2h10m15s) 
CPU  0 inst:  178000001 cyc:  107350597 now IPC :1.73022: AVG IPC :1.65457: L2-Pf-HR :0.88250: L2-HR :0.85557: (Sim:0h13m44s) 
CPU  0 inst: 1439000003 cyc: 1744682884 now IPC :1.64204: AVG IPC :0.82411: L2-Pf-HR :0.86017: L2-HR :0.84076: (Sim:2h10m19s) 
CPU  0 inst:  179000003 cyc:  107926488 now IPC :1.73644: AVG IPC :1.65501: L2-Pf-HR :0.88257: L2-HR :0.85563: (Sim:0h13m49s) 
CPU  0 inst: 1440000000 cyc: 1745361528 now IPC :1.47352: AVG IPC :0.82436: L2-Pf-HR :0.86017: L2-HR :0.84077: (Sim:2h10m24s) 
CPU  0 inst:  180000000 cyc:  108502292 now IPC :1.73670: AVG IPC :1.65545: L2-Pf-HR :0.88271: L2-HR :0.85575: (Sim:0h13m53s) 
CPU  0 inst: 1441000001 cyc: 1745966091 now IPC :1.65409: AVG IPC :0.82465: L2-Pf-HR :0.86016: L2-HR :0.84078: (Sim:2h10m29s) 
CPU  0 inst:  181000003 cyc:  109307582 now IPC :1.24179: AVG IPC :1.65237: L2-Pf-HR :0.88258: L2-HR :0.85563: (Sim:0h13m58s) 
CPU  0 inst: 1442000002 cyc: 1746506611 now IPC :1.85007: AVG IPC :0.82497: L2-Pf-HR :0.86018: L2-HR :0.84081: (Sim:2h10m33s) 
CPU  0 inst:  182000001 cyc:  109896948 now IPC :1.69674: AVG IPC :1.65261: L2-Pf-HR :0.88254: L2-HR :0.85559: (Sim:0h14m3s) 
CPU  0 inst: 1443000002 cyc: 1747099814 now IPC :1.68576: AVG IPC :0.82526: L2-Pf-HR :0.86020: L2-HR :0.84085: (Sim:2h10m36s) 
CPU  0 inst:  183000002 cyc:  110487423 now IPC :1.69355: AVG IPC :1.65283: L2-Pf-HR :0.88252: L2-HR :0.85557: (Sim:0h14m7s) 
CPU  0 inst: 1444000000 cyc: 1747744014 now IPC :1.55231: AVG IPC :0.82553: L2-Pf-HR :0.86026: L2-HR :0.84091: (Sim:2h10m40s) 
CPU  0 inst: 1445000001 cyc: 1748533803 now IPC :1.26616: AVG IPC :0.82572: L2-Pf-HR :0.86026: L2-HR :0.84093: (Sim:2h10m44s) 
CPU  0 inst:  184000000 cyc:  111083447 now IPC :1.67778: AVG IPC :1.65297: L2-Pf-HR :0.88248: L2-HR :0.85554: (Sim:0h14m12s) 
CPU  0 inst: 1446000002 cyc: 1749198856 now IPC :1.50364: AVG IPC :0.82598: L2-Pf-HR :0.86023: L2-HR :0.84091: (Sim:2h10m49s) 
CPU  0 inst:  185000000 cyc:  111671925 now IPC :1.69930: AVG IPC :1.65322: L2-Pf-HR :0.88246: L2-HR :0.85551: (Sim:0h14m17s) 
CPU  0 inst: 1447000002 cyc: 1749892988 now IPC :1.44065: AVG IPC :0.82623: L2-Pf-HR :0.86020: L2-HR :0.84089: (Sim:2h10m53s) 
CPU  0 inst:  186000001 cyc:  112264300 now IPC :1.68812: AVG IPC :1.65340: L2-Pf-HR :0.88244: L2-HR :0.85549: (Sim:0h14m21s) 
CPU  0 inst: 1448000000 cyc: 1750426622 now IPC :1.87394: AVG IPC :0.82655: L2-Pf-HR :0.86025: L2-HR :0.84095: (Sim:2h10m58s) 
CPU  0 inst:  187000001 cyc:  112858516 now IPC :1.68289: AVG IPC :1.65356: L2-Pf-HR :0.88243: L2-HR :0.85548: (Sim:0h14m26s) 
CPU  0 inst: 1449000000 cyc: 1751043772 now IPC :1.62035: AVG IPC :0.82683: L2-Pf-HR :0.86027: L2-HR :0.84098: (Sim:2h11m2s) 
CPU  0 inst:  188000000 cyc:  113619163 now IPC :1.31467: AVG IPC :1.65127: L2-Pf-HR :0.88253: L2-HR :0.85556: (Sim:0h14m31s) 
CPU  0 inst: 1450000003 cyc: 1751774357 now IPC :1.36877: AVG IPC :0.82705: L2-Pf-HR :0.86023: L2-HR :0.84097: (Sim:2h11m7s) 
CPU  0 inst:  189000003 cyc:  114210996 now IPC :1.68967: AVG IPC :1.65147: L2-Pf-HR :0.88251: L2-HR :0.85554: (Sim:0h14m36s) 
CPU  0 inst:  190000003 cyc:  114793724 now IPC :1.71607: AVG IPC :1.65180: L2-Pf-HR :0.88248: L2-HR :0.85552: (Sim:0h14m40s) 
CPU  0 inst: 1451000002 cyc: 1752444612 now IPC :1.49197: AVG IPC :0.82731: L2-Pf-HR :0.86020: L2-HR :0.84095: (Sim:2h11m12s) 
CPU  0 inst:  191000003 cyc:  115374843 now IPC :1.72082: AVG IPC :1.65215: L2-Pf-HR :0.88248: L2-HR :0.85553: (Sim:0h14m44s) 
CPU  0 inst: 1452000000 cyc: 1752953008 now IPC :1.96697: AVG IPC :0.82764: L2-Pf-HR :0.86022: L2-HR :0.84099: (Sim:2h11m16s) 
CPU  0 inst: 1453000003 cyc: 1753556196 now IPC :1.65786: AVG IPC :0.82792: L2-Pf-HR :0.86024: L2-HR :0.84102: (Sim:2h11m21s) 
CPU  0 inst:  192000000 cyc:  115959684 now IPC :1.70986: AVG IPC :1.65244: L2-Pf-HR :0.88247: L2-HR :0.85552: (Sim:0h14m49s) 
CPU  0 inst: 1454000003 cyc: 1754294906 now IPC :1.35371: AVG IPC :0.82814: L2-Pf-HR :0.86022: L2-HR :0.84101: (Sim:2h11m26s) 
CPU  0 inst:  193000000 cyc:  116543092 now IPC :1.71407: AVG IPC :1.65276: L2-Pf-HR :0.88246: L2-HR :0.85551: (Sim:0h14m54s) 
CPU  0 inst:  194000001 cyc:  117120965 now IPC :1.73049: AVG IPC :1.65314: L2-Pf-HR :0.88245: L2-HR :0.85551: (Sim:0h14m58s) 
CPU  0 inst: 1455000003 cyc: 1754959473 now IPC :1.50474: AVG IPC :0.82840: L2-Pf-HR :0.86019: L2-HR :0.84100: (Sim:2h11m30s) 
CPU  0 inst:  195000000 cyc:  117689675 now IPC :1.75836: AVG IPC :1.65366: L2-Pf-HR :0.88260: L2-HR :0.85563: (Sim:0h15m2s) 
CPU  0 inst: 1456000000 cyc: 1755468527 now IPC :1.96442: AVG IPC :0.82873: L2-Pf-HR :0.86021: L2-HR :0.84104: (Sim:2h11m35s) 
CPU  0 inst:  196000000 cyc:  118375551 now IPC :1.45799: AVG IPC :1.65251: L2-Pf-HR :0.88260: L2-HR :0.85564: (Sim:0h15m7s) 
CPU  0 inst: 1457000003 cyc: 1756076278 now IPC :1.64542: AVG IPC :0.82901: L2-Pf-HR :0.86023: L2-HR :0.84107: (Sim:2h11m39s) 
CPU  0 inst:  197000000 cyc:  118959230 now IPC :1.71327: AVG IPC :1.65281: L2-Pf-HR :0.88265: L2-HR :0.85569: (Sim:0h15m11s) 
CPU  0 inst: 1458000001 cyc: 1756805685 now IPC :1.37097: AVG IPC :0.82924: L2-Pf-HR :0.86021: L2-HR :0.84107: (Sim:2h11m44s) 
CPU  0 inst:  198000000 cyc:  119537924 now IPC :1.72803: AVG IPC :1.65318: L2-Pf-HR :0.88270: L2-HR :0.85573: (Sim:0h15m16s) 
CPU  0 inst: 1459000001 cyc: 1757417025 now IPC :1.63575: AVG IPC :0.82952: L2-Pf-HR :0.86020: L2-HR :0.84108: (Sim:2h11m49s) 
CPU  0 inst:  199000003 cyc:  120112484 now IPC :1.74047: AVG IPC :1.65360: L2-Pf-HR :0.88273: L2-HR :0.85576: (Sim:0h15m20s) 
CPU  0 inst: 1460000000 cyc: 1757975620 now IPC :1.79020: AVG IPC :0.82982: L2-Pf-HR :0.86021: L2-HR :0.84110: (Sim:2h11m53s) 
CPU  0 inst:  200000000 cyc:  120687836 now IPC :1.73806: AVG IPC :1.65401: L2-Pf-HR :0.88286: L2-HR :0.85587: (Sim:0h15m25s) 
CPU  0 inst: 1461000002 cyc: 1758584624 now IPC :1.64203: AVG IPC :0.83011: L2-Pf-HR :0.86022: L2-HR :0.84112: (Sim:2h11m58s) 
CPU  0 inst:  201000003 cyc:  121482497 now IPC :1.25840: AVG IPC :1.65140: L2-Pf-HR :0.88277: L2-HR :0.85578: (Sim:0h15m29s) 
CPU  0 inst: 1462000001 cyc: 1759270073 now IPC :1.45890: AVG IPC :0.83035: L2-Pf-HR :0.86023: L2-HR :0.84115: (Sim:2h12m2s) 
CPU  0 inst:  202000002 cyc:  122077183 now IPC :1.68156: AVG IPC :1.65155: L2-Pf-HR :0.88272: L2-HR :0.85574: (Sim:0h15m34s) 
CPU  0 inst: 1463000000 cyc: 1759795176 now IPC :1.90439: AVG IPC :0.83067: L2-Pf-HR :0.86025: L2-HR :0.84118: (Sim:2h12m6s) 
CPU  0 inst:  203000002 cyc:  122666914 now IPC :1.69569: AVG IPC :1.65176: L2-Pf-HR :0.88270: L2-HR :0.85572: (Sim:0h15m37s) 
CPU  0 inst: 1464000000 cyc: 1760421897 now IPC :1.59561: AVG IPC :0.83094: L2-Pf-HR :0.86024: L2-HR :0.84119: (Sim:2h12m11s) 
CPU  0 inst:  204000000 cyc:  123261674 now IPC :1.68135: AVG IPC :1.65190: L2-Pf-HR :0.88267: L2-HR :0.85569: (Sim:0h15m42s) 
CPU  0 inst: 1465000000 cyc: 1761016245 now IPC :1.68252: AVG IPC :0.83123: L2-Pf-HR :0.86025: L2-HR :0.84121: (Sim:2h12m16s) 
CPU  0 inst:  205000001 cyc:  123855825 now IPC :1.68308: AVG IPC :1.65205: L2-Pf-HR :0.88265: L2-HR :0.85567: (Sim:0h15m46s) 
CPU  0 inst: 1466000002 cyc: 1761655828 now IPC :1.56352: AVG IPC :0.83150: L2-Pf-HR :0.86030: L2-HR :0.84127: (Sim:2h12m21s) 
CPU  0 inst:  206000000 cyc:  124442882 now IPC :1.70341: AVG IPC :1.65230: L2-Pf-HR :0.88262: L2-HR :0.85564: (Sim:0h15m50s) 
CPU  0 inst: 1467000000 cyc: 1762353921 now IPC :1.43247: AVG IPC :0.83174: L2-Pf-HR :0.86034: L2-HR :0.84131: (Sim:2h12m25s) 
CPU  0 inst:  207000000 cyc:  125032939 now IPC :1.69475: AVG IPC :1.65250: L2-Pf-HR :0.88262: L2-HR :0.85564: (Sim:0h15m55s) 
CPU  0 inst: 1468000000 cyc: 1763114509 now IPC :1.31477: AVG IPC :0.83194: L2-Pf-HR :0.86030: L2-HR :0.84129: (Sim:2h12m29s) 
CPU  0 inst:  208000000 cyc:  125798012 now IPC :1.30706: AVG IPC :1.65038: L2-Pf-HR :0.88270: L2-HR :0.85571: (Sim:0h16m0s) 
CPU  0 inst: 1469000000 cyc: 1763810537 now IPC :1.43672: AVG IPC :0.83218: L2-Pf-HR :0.86026: L2-HR :0.84127: (Sim:2h12m33s) 
CPU  0 inst:  209000000 cyc:  126387804 now IPC :1.69551: AVG IPC :1.65060: L2-Pf-HR :0.88267: L2-HR :0.85568: (Sim:0h16m4s) 
CPU  0 inst: 1470000000 cyc: 1764332502 now IPC :1.91584: AVG IPC :0.83250: L2-Pf-HR :0.86029: L2-HR :0.84131: (Sim:2h12m38s) 
CPU  0 inst:  210000001 cyc:  126969593 now IPC :1.71884: AVG IPC :1.65091: L2-Pf-HR :0.88264: L2-HR :0.85566: (Sim:0h16m9s) 
CPU  0 inst: 1471000000 cyc: 1764961357 now IPC :1.59019: AVG IPC :0.83277: L2-Pf-HR :0.86031: L2-HR :0.84134: (Sim:2h12m43s) 
CPU  0 inst:  211000001 cyc:  127547653 now IPC :1.72992: AVG IPC :1.65127: L2-Pf-HR :0.88262: L2-HR :0.85564: (Sim:0h16m12s) 
CPU  0 inst: 1472000000 cyc: 1765695250 now IPC :1.36260: AVG IPC :0.83299: L2-Pf-HR :0.86029: L2-HR :0.84133: (Sim:2h12m48s) 
CPU  0 inst:  212000000 cyc:  128130160 now IPC :1.71672: AVG IPC :1.65157: L2-Pf-HR :0.88260: L2-HR :0.85563: (Sim:0h16m17s) 
CPU  0 inst: 1473000003 cyc: 1766362474 now IPC :1.49875: AVG IPC :0.83325: L2-Pf-HR :0.86026: L2-HR :0.84132: (Sim:2h12m53s) 
CPU  0 inst:  213000003 cyc:  128709367 now IPC :1.72650: AVG IPC :1.65191: L2-Pf-HR :0.88260: L2-HR :0.85563: (Sim:0h16m21s) 
CPU  0 inst: 1474000001 cyc: 1766871150 now IPC :1.96588: AVG IPC :0.83357: L2-Pf-HR :0.86029: L2-HR :0.84136: (Sim:2h12m57s) 
CPU  0 inst:  214000002 cyc:  129287320 now IPC :1.73024: AVG IPC :1.65226: L2-Pf-HR :0.88259: L2-HR :0.85563: (Sim:0h16m26s) 
CPU  0 inst: 1475000001 cyc: 1767477617 now IPC :1.64889: AVG IPC :0.83385: L2-Pf-HR :0.86030: L2-HR :0.84139: (Sim:2h13m2s) 
CPU  0 inst:  215000002 cyc:  129855594 now IPC :1.75971: AVG IPC :1.65274: L2-Pf-HR :0.88272: L2-HR :0.85573: (Sim:0h16m31s) 
CPU  0 inst: 1476000000 cyc: 1768214798 now IPC :1.35652: AVG IPC :0.83407: L2-Pf-HR :0.86029: L2-HR :0.84140: (Sim:2h13m7s) 
CPU  0 inst:  216000000 cyc:  130534045 now IPC :1.47394: AVG IPC :1.65180: L2-Pf-HR :0.88275: L2-HR :0.85576: (Sim:0h16m36s) 
CPU  0 inst: 1477000002 cyc: 1768813137 now IPC :1.67130: AVG IPC :0.83435: L2-Pf-HR :0.86029: L2-HR :0.84141: (Sim:2h13m12s) 
CPU  0 inst:  217000001 cyc:  131114885 now IPC :1.72165: AVG IPC :1.65211: L2-Pf-HR :0.88280: L2-HR :0.85581: (Sim:0h16m40s) 
CPU  0 inst: 1478000001 cyc: 1769392920 now IPC :1.72478: AVG IPC :0.83465: L2-Pf-HR :0.86029: L2-HR :0.84143: (Sim:2h13m16s) 
CPU  0 inst:  218000002 cyc:  131695992 now IPC :1.72086: AVG IPC :1.65242: L2-Pf-HR :0.88285: L2-HR :0.85586: (Sim:0h16m45s) 
CPU  0 inst: 1479000002 cyc: 1770003595 now IPC :1.63753: AVG IPC :0.83492: L2-Pf-HR :0.86031: L2-HR :0.84146: (Sim:2h13m21s) 
CPU  0 inst:  219000000 cyc:  132276484 now IPC :1.72267: AVG IPC :1.65273: L2-Pf-HR :0.88290: L2-HR :0.85590: (Sim:0h16m50s) 
CPU  0 inst: 1480000000 cyc: 1770734067 now IPC :1.36898: AVG IPC :0.83514: L2-Pf-HR :0.86031: L2-HR :0.84148: (Sim:2h13m26s) 
CPU  0 inst:  220000000 cyc:  132852605 now IPC :1.73575: AVG IPC :1.65309: L2-Pf-HR :0.88302: L2-HR :0.85601: (Sim:0h16m54s) 
CPU  0 inst: 1481000001 cyc: 1771256920 now IPC :1.91259: AVG IPC :0.83546: L2-Pf-HR :0.86034: L2-HR :0.84151: (Sim:2h13m30s) 
CPU  0 inst:  221000001 cyc:  133644019 now IPC :1.26356: AVG IPC :1.65077: L2-Pf-HR :0.88291: L2-HR :0.85590: (Sim:0h16m59s) 
CPU  0 inst: 1482000000 cyc: 1771912525 now IPC :1.52531: AVG IPC :0.83572: L2-Pf-HR :0.86031: L2-HR :0.84150: (Sim:2h13m35s) 
CPU  0 inst:  222000001 cyc:  134241143 now IPC :1.67469: AVG IPC :1.65088: L2-Pf-HR :0.88289: L2-HR :0.85587: (Sim:0h17m3s) 
CPU  0 inst:  223000001 cyc:  134826517 now IPC :1.70831: AVG IPC :1.65113: L2-Pf-HR :0.88288: L2-HR :0.85586: (Sim:0h17m7s) 
CPU  0 inst: 1483000001 cyc: 1772519516 now IPC :1.64747: AVG IPC :0.83600: L2-Pf-HR :0.86031: L2-HR :0.84152: (Sim:2h13m40s) 
CPU  0 inst:  224000000 cyc:  135413674 now IPC :1.70312: AVG IPC :1.65135: L2-Pf-HR :0.88285: L2-HR :0.85583: (Sim:0h17m12s) 
CPU  0 inst: 1484000000 cyc: 1773198487 now IPC :1.47282: AVG IPC :0.83624: L2-Pf-HR :0.86034: L2-HR :0.84156: (Sim:2h13m44s) 
CPU  0 inst: 1485000002 cyc: 1773710202 now IPC :1.95422: AVG IPC :0.83656: L2-Pf-HR :0.86035: L2-HR :0.84159: (Sim:2h13m48s) 
CPU  0 inst:  225000003 cyc:  136012642 now IPC :1.66954: AVG IPC :1.65143: L2-Pf-HR :0.88283: L2-HR :0.85581: (Sim:0h17m16s) 
CPU  0 inst: 1486000002 cyc: 1774351942 now IPC :1.55826: AVG IPC :0.83682: L2-Pf-HR :0.86034: L2-HR :0.84159: (Sim:2h13m53s) 
CPU  0 inst:  226000001 cyc:  136597967 now IPC :1.70845: AVG IPC :1.65168: L2-Pf-HR :0.88281: L2-HR :0.85579: (Sim:0h17m21s) 
CPU  0 inst: 1487000001 cyc: 1774942865 now IPC :1.69227: AVG IPC :0.83711: L2-Pf-HR :0.86035: L2-HR :0.84162: (Sim:2h13m57s) 
CPU  0 inst:  227000000 cyc:  137189685 now IPC :1.68999: AVG IPC :1.65185: L2-Pf-HR :0.88280: L2-HR :0.85578: (Sim:0h17m26s) 
CPU  0 inst: 1488000000 cyc: 1775571638 now IPC :1.59040: AVG IPC :0.83738: L2-Pf-HR :0.86040: L2-HR :0.84166: (Sim:2h14m2s) 
CPU  0 inst:  228000000 cyc:  137956611 now IPC :1.30391: AVG IPC :1.64990: L2-Pf-HR :0.88288: L2-HR :0.85584: (Sim:0h17m30s) 
CPU  0 inst:  229000000 cyc:  138547989 now IPC :1.69097: AVG IPC :1.65008: L2-Pf-HR :0.88288: L2-HR :0.85584: (Sim:0h17m35s) 
CPU  0 inst: 1489000001 cyc: 1776272465 now IPC :1.42689: AVG IPC :0.83761: L2-Pf-HR :0.86044: L2-HR :0.84171: (Sim:2h14m7s) 
CPU  0 inst:  230000003 cyc:  139121280 now IPC :1.74432: AVG IPC :1.65047: L2-Pf-HR :0.88287: L2-HR :0.85584: (Sim:0h17m40s) 
CPU  0 inst: 1490000002 cyc: 1777012714 now IPC :1.35090: AVG IPC :0.83782: L2-Pf-HR :0.86040: L2-HR :0.84169: (Sim:2h14m12s) 
CPU  0 inst: 1491000000 cyc: 1777696890 now IPC :1.46161: AVG IPC :0.83806: L2-Pf-HR :0.86038: L2-HR :0.84168: (Sim:2h14m16s) 
CPU  0 inst:  231000003 cyc:  139700259 now IPC :1.72718: AVG IPC :1.65079: L2-Pf-HR :0.88288: L2-HR :0.85584: (Sim:0h17m44s) 
CPU  0 inst: 1492000000 cyc: 1778228196 now IPC :1.88215: AVG IPC :0.83837: L2-Pf-HR :0.86040: L2-HR :0.84172: (Sim:2h14m20s) 
CPU  0 inst:  232000000 cyc:  140285121 now IPC :1.70980: AVG IPC :1.65103: L2-Pf-HR :0.88288: L2-HR :0.85585: (Sim:0h17m49s) 
CPU  0 inst:  233000003 cyc:  140863655 now IPC :1.72851: AVG IPC :1.65136: L2-Pf-HR :0.88288: L2-HR :0.85585: (Sim:0h17m52s) 
CPU  0 inst: 1493000003 cyc: 1778858293 now IPC :1.58706: AVG IPC :0.83864: L2-Pf-HR :0.86041: L2-HR :0.84174: (Sim:2h14m25s) 
CPU  0 inst:  234000001 cyc:  141436953 now IPC :1.74429: AVG IPC :1.65173: L2-Pf-HR :0.88288: L2-HR :0.85586: (Sim:0h17m57s) 
CPU  0 inst: 1494000000 cyc: 1779592882 now IPC :1.36130: AVG IPC :0.83886: L2-Pf-HR :0.86040: L2-HR :0.84174: (Sim:2h14m30s) 
CPU  0 inst:  235000000 cyc:  142008905 now IPC :1.74840: AVG IPC :1.65213: L2-Pf-HR :0.88300: L2-HR :0.85596: (Sim:0h18m1s) 
CPU  0 inst: 1495000002 cyc: 1780188216 now IPC :1.67973: AVG IPC :0.83914: L2-Pf-HR :0.86040: L2-HR :0.84176: (Sim:2h14m35s) 
CPU  0 inst:  236000000 cyc:  142687502 now IPC :1.47363: AVG IPC :1.65127: L2-Pf-HR :0.88301: L2-HR :0.85597: (Sim:0h18m5s) 
CPU  0 inst: 1496000000 cyc: 1780777581 now IPC :1.69674: AVG IPC :0.83942: L2-Pf-HR :0.86039: L2-HR :0.84177: (Sim:2h14m38s) 
CPU  0 inst:  237000000 cyc:  143271276 now IPC :1.71299: AVG IPC :1.65153: L2-Pf-HR :0.88306: L2-HR :0.85602: (Sim:0h18m10s) 
CPU  0 inst: 1497000003 cyc: 1781385159 now IPC :1.64588: AVG IPC :0.83970: L2-Pf-HR :0.86040: L2-HR :0.84179: (Sim:2h14m42s) 
CPU  0 inst:  238000003 cyc:  143851220 now IPC :1.72431: AVG IPC :1.65182: L2-Pf-HR :0.88310: L2-HR :0.85605: (Sim:0h18m14s) 
CPU  0 inst: 1498000003 cyc: 1782109617 now IPC :1.38034: AVG IPC :0.83992: L2-Pf-HR :0.86041: L2-HR :0.84181: (Sim:2h14m47s) 
CPU  0 inst:  239000002 cyc:  144431614 now IPC :1.72297: AVG IPC :1.65211: L2-Pf-HR :0.88314: L2-HR :0.85608: (Sim:0h18m19s) 
CPU  0 inst: 1499000000 cyc: 1782632895 now IPC :1.91102: AVG IPC :0.84023: L2-Pf-HR :0.86043: L2-HR :0.84184: (Sim:2h14m52s) 
CPU  0 inst:  240000000 cyc:  145008738 now IPC :1.73273: AVG IPC :1.65243: L2-Pf-HR :0.88323: L2-HR :0.85616: (Sim:0h18m24s) 
CPU  0 inst: 1500000000 cyc: 1783294077 now IPC :1.51244: AVG IPC :0.84048: L2-Pf-HR :0.86040: L2-HR :0.84183: (Sim:2h14m57s) 
CPU  0 inst:  241000003 cyc:  145812725 now IPC :1.24380: AVG IPC :1.65016: L2-Pf-HR :0.88313: L2-HR :0.85607: (Sim:0h18m29s) 
CPU  0 inst: 1501000003 cyc: 1783903679 now IPC :1.64042: AVG IPC :0.84075: L2-Pf-HR :0.86040: L2-HR :0.84185: (Sim:2h15m1s) 
CPU  0 inst:  242000000 cyc:  146408741 now IPC :1.67780: AVG IPC :1.65028: L2-Pf-HR :0.88310: L2-HR :0.85604: (Sim:0h18m33s) 
CPU  0 inst: 1502000000 cyc: 1784623085 now IPC :1.39003: AVG IPC :0.84097: L2-Pf-HR :0.86042: L2-HR :0.84188: (Sim:2h15m6s) 
CPU  0 inst:  243000003 cyc:  147000913 now IPC :1.68870: AVG IPC :1.65043: L2-Pf-HR :0.88309: L2-HR :0.85603: (Sim:0h18m38s) 
CPU  0 inst: 1503000003 cyc: 1785137260 now IPC :1.94487: AVG IPC :0.84129: L2-Pf-HR :0.86044: L2-HR :0.84191: (Sim:2h15m11s) 
CPU  0 inst:  244000000 cyc:  147588369 now IPC :1.70225: AVG IPC :1.65064: L2-Pf-HR :0.88307: L2-HR :0.85601: (Sim:0h18m43s) 
CPU  0 inst: 1504000000 cyc: 1785810572 now IPC :1.48519: AVG IPC :0.84154: L2-Pf-HR :0.86041: L2-HR :0.84190: (Sim:2h15m15s) 
CPU  0 inst:  245000002 cyc:  148186570 now IPC :1.67168: AVG IPC :1.65073: L2-Pf-HR :0.88306: L2-HR :0.85599: (Sim:0h18m48s) 
CPU  0 inst: 1505000000 cyc: 1786421869 now IPC :1.63587: AVG IPC :0.84181: L2-Pf-HR :0.86042: L2-HR :0.84192: (Sim:2h15m20s) 
CPU  0 inst:  246000001 cyc:  148774040 now IPC :1.70221: AVG IPC :1.65093: L2-Pf-HR :0.88303: L2-HR :0.85596: (Sim:0h18m52s) 
CPU  0 inst: 1506000001 cyc: 1787097708 now IPC :1.47964: AVG IPC :0.84205: L2-Pf-HR :0.86045: L2-HR :0.84196: (Sim:2h15m25s) 
CPU  0 inst:  247000001 cyc:  149364343 now IPC :1.69405: AVG IPC :1.65110: L2-Pf-HR :0.88303: L2-HR :0.85596: (Sim:0h18m57s) 
CPU  0 inst: 1507000001 cyc: 1787615692 now IPC :1.93056: AVG IPC :0.84236: L2-Pf-HR :0.86046: L2-HR :0.84199: (Sim:2h15m29s) 
CPU  0 inst:  248000000 cyc:  150126790 now IPC :1.31157: AVG IPC :1.64937: L2-Pf-HR :0.88309: L2-HR :0.85600: (Sim:0h19m2s) 
CPU  0 inst: 1508000000 cyc: 1788260339 now IPC :1.55123: AVG IPC :0.84262: L2-Pf-HR :0.86045: L2-HR :0.84199: (Sim:2h15m34s) 
CPU  0 inst:  249000001 cyc:  150718921 now IPC :1.68882: AVG IPC :1.64952: L2-Pf-HR :0.88308: L2-HR :0.85600: (Sim:0h19m7s) 
CPU  0 inst: 1509000003 cyc: 1788837912 now IPC :1.73139: AVG IPC :0.84291: L2-Pf-HR :0.86046: L2-HR :0.84202: (Sim:2h15m39s) 
CPU  0 inst:  250000001 cyc:  151301240 now IPC :1.71727: AVG IPC :1.64978: L2-Pf-HR :0.88307: L2-HR :0.85599: (Sim:0h19m11s) 
CPU  0 inst: 1510000001 cyc: 1789429599 now IPC :1.69008: AVG IPC :0.84319: L2-Pf-HR :0.86051: L2-HR :0.84207: (Sim:2h15m43s) 
CPU  0 inst:  251000002 cyc:  151879355 now IPC :1.72976: AVG IPC :1.65009: L2-Pf-HR :0.88307: L2-HR :0.85599: (Sim:0h19m15s) 
CPU  0 inst: 1511000001 cyc: 1790112552 now IPC :1.46423: AVG IPC :0.84342: L2-Pf-HR :0.86054: L2-HR :0.84211: (Sim:2h15m48s) 
CPU  0 inst:  252000000 cyc:  152462461 now IPC :1.71495: AVG IPC :1.65034: L2-Pf-HR :0.88306: L2-HR :0.85599: (Sim:0h19m19s) 
CPU  0 inst: 1512000000 cyc: 1790934364 now IPC :1.21682: AVG IPC :0.84360: L2-Pf-HR :0.86050: L2-HR :0.84208: (Sim:2h15m53s) 
CPU  0 inst:  253000002 cyc:  153045300 now IPC :1.71574: AVG IPC :1.65059: L2-Pf-HR :0.88305: L2-HR :0.85598: (Sim:0h19m24s) 
CPU  0 inst: 1513000003 cyc: 1791514591 now IPC :1.72347: AVG IPC :0.84388: L2-Pf-HR :0.86052: L2-HR :0.84211: (Sim:2h15m57s) 
CPU  0 inst:  254000003 cyc:  153623860 now IPC :1.72843: AVG IPC :1.65089: L2-Pf-HR :0.88305: L2-HR :0.85598: (Sim:0h19m28s) 
CPU  0 inst: 1514000003 cyc: 1792141209 now IPC :1.59587: AVG IPC :0.84414: L2-Pf-HR :0.86051: L2-HR :0.84212: (Sim:2h16m2s) 
CPU  0 inst:  255000000 cyc:  154192542 now IPC :1.75845: AVG IPC :1.65129: L2-Pf-HR :0.88316: L2-HR :0.85608: (Sim:0h19m33s) 
CPU  0 inst: 1515000002 cyc: 1792768742 now IPC :1.59354: AVG IPC :0.84441: L2-Pf-HR :0.86052: L2-HR :0.84214: (Sim:2h16m7s) 
CPU  0 inst:  256000000 cyc:  154871222 now IPC :1.47345: AVG IPC :1.65050: L2-Pf-HR :0.88317: L2-HR :0.85608: (Sim:0h19m37s) 
CPU  0 inst: 1516000000 cyc: 1793495886 now IPC :1.37524: AVG IPC :0.84462: L2-Pf-HR :0.86052: L2-HR :0.84215: (Sim:2h16m12s) 
CPU  0 inst:  257000002 cyc:  155454819 now IPC :1.71351: AVG IPC :1.65074: L2-Pf-HR :0.88321: L2-HR :0.85612: (Sim:0h19m42s) 
CPU  0 inst: 1517000002 cyc: 1794019686 now IPC :1.90913: AVG IPC :0.84493: L2-Pf-HR :0.86053: L2-HR :0.84218: (Sim:2h16m16s) 
CPU  0 inst:  258000000 cyc:  156033970 now IPC :1.72666: AVG IPC :1.65102: L2-Pf-HR :0.88325: L2-HR :0.85616: (Sim:0h19m47s) 
CPU  0 inst: 1518000000 cyc: 1794674679 now IPC :1.52673: AVG IPC :0.84518: L2-Pf-HR :0.86051: L2-HR :0.84217: (Sim:2h16m20s) 
CPU  0 inst: 1519000000 cyc: 1795282422 now IPC :1.64543: AVG IPC :0.84545: L2-Pf-HR :0.86052: L2-HR :0.84219: (Sim:2h16m24s) 
CPU  0 inst:  259000001 cyc:  156605770 now IPC :1.74887: AVG IPC :1.65138: L2-Pf-HR :0.88328: L2-HR :0.85619: (Sim:0h19m52s) 
CPU  0 inst: 1520000000 cyc: 1796002327 now IPC :1.38907: AVG IPC :0.84567: L2-Pf-HR :0.86053: L2-HR :0.84222: (Sim:2h16m28s) 
CPU  0 inst:  260000000 cyc:  157208832 now IPC :1.65820: AVG IPC :1.65141: L2-Pf-HR :0.88337: L2-HR :0.85627: (Sim:0h19m56s) 
CPU  0 inst: 1521000002 cyc: 1796515036 now IPC :1.95043: AVG IPC :0.84599: L2-Pf-HR :0.86054: L2-HR :0.84224: (Sim:2h16m31s) 
CPU  0 inst:  261000002 cyc:  157979784 now IPC :1.29710: AVG IPC :1.64967: L2-Pf-HR :0.88329: L2-HR :0.85620: (Sim:0h20m1s) 
CPU  0 inst: 1522000001 cyc: 1797184360 now IPC :1.49404: AVG IPC :0.84623: L2-Pf-HR :0.86051: L2-HR :0.84223: (Sim:2h16m36s) 
CPU  0 inst:  262000003 cyc:  158574808 now IPC :1.68061: AVG IPC :1.64979: L2-Pf-HR :0.88324: L2-HR :0.85615: (Sim:0h20m6s) 
CPU  0 inst: 1523000003 cyc: 1797788801 now IPC :1.65442: AVG IPC :0.84650: L2-Pf-HR :0.86052: L2-HR :0.84225: (Sim:2h16m41s) 
CPU  0 inst:  263000000 cyc:  159166152 now IPC :1.69106: AVG IPC :1.64994: L2-Pf-HR :0.88323: L2-HR :0.85614: (Sim:0h20m11s) 
CPU  0 inst: 1524000000 cyc: 1798506792 now IPC :1.39277: AVG IPC :0.84672: L2-Pf-HR :0.86054: L2-HR :0.84228: (Sim:2h16m46s) 
CPU  0 inst:  264000000 cyc:  159754953 now IPC :1.69837: AVG IPC :1.65012: L2-Pf-HR :0.88320: L2-HR :0.85611: (Sim:0h20m16s) 
CPU  0 inst: 1525000002 cyc: 1799022648 now IPC :1.93853: AVG IPC :0.84703: L2-Pf-HR :0.86055: L2-HR :0.84230: (Sim:2h16m50s) 
CPU  0 inst:  265000001 cyc:  160345361 now IPC :1.69375: AVG IPC :1.65028: L2-Pf-HR :0.88318: L2-HR :0.85609: (Sim:0h20m19s) 
CPU  0 inst: 1526000003 cyc: 1799690910 now IPC :1.49642: AVG IPC :0.84727: L2-Pf-HR :0.86053: L2-HR :0.84230: (Sim:2h16m55s) 
CPU  0 inst:  266000003 cyc:  160937715 now IPC :1.68818: AVG IPC :1.65042: L2-Pf-HR :0.88316: L2-HR :0.85607: (Sim:0h20m24s) 
CPU  0 inst: 1527000002 cyc: 1800266813 now IPC :1.73640: AVG IPC :0.84756: L2-Pf-HR :0.86055: L2-HR :0.84233: (Sim:2h16m59s) 
CPU  0 inst:  267000003 cyc:  161525771 now IPC :1.70052: AVG IPC :1.65060: L2-Pf-HR :0.88316: L2-HR :0.85607: (Sim:0h20m28s) 
CPU  0 inst: 1528000000 cyc: 1800823975 now IPC :1.79481: AVG IPC :0.84785: L2-Pf-HR :0.86060: L2-HR :0.84239: (Sim:2h17m4s) 
CPU  0 inst:  268000000 cyc:  162289267 now IPC :1.30976: AVG IPC :1.64899: L2-Pf-HR :0.88322: L2-HR :0.85613: (Sim:0h20m33s) 
CPU  0 inst: 1529000002 cyc: 1801484469 now IPC :1.51402: AVG IPC :0.84809: L2-Pf-HR :0.86058: L2-HR :0.84238: (Sim:2h17m8s) 
CPU  0 inst:  269000000 cyc:  162877846 now IPC :1.69901: AVG IPC :1.64917: L2-Pf-HR :0.88321: L2-HR :0.85612: (Sim:0h20m37s) 
CPU  0 inst: 1530000000 cyc: 1802122012 now IPC :1.56852: AVG IPC :0.84835: L2-Pf-HR :0.86056: L2-HR :0.84239: (Sim:2h17m13s) 
CPU  0 inst:  270000003 cyc:  163461300 now IPC :1.71394: AVG IPC :1.64941: L2-Pf-HR :0.88321: L2-HR :0.85611: (Sim:0h20m42s) 
CPU  0 inst: 1531000003 cyc: 1802635758 now IPC :1.94649: AVG IPC :0.84866: L2-Pf-HR :0.86061: L2-HR :0.84244: (Sim:2h17m17s) 
CPU  0 inst:  271000001 cyc:  164042148 now IPC :1.72162: AVG IPC :1.64966: L2-Pf-HR :0.88320: L2-HR :0.85611: (Sim:0h20m46s) 
CPU  0 inst: 1532000000 cyc: 1803213209 now IPC :1.73174: AVG IPC :0.84895: L2-Pf-HR :0.86064: L2-HR :0.84249: (Sim:2h17m21s) 
CPU  0 inst:  272000000 cyc:  164627190 now IPC :1.70928: AVG IPC :1.64988: L2-Pf-HR :0.88319: L2-HR :0.85610: (Sim:0h20m51s) 
CPU  0 inst: 1533000002 cyc: 1803973187 now IPC :1.31583: AVG IPC :0.84914: L2-Pf-HR :0.86066: L2-HR :0.84251: (Sim:2h17m27s) 
CPU  0 inst:  273000001 cyc:  165207362 now IPC :1.72363: AVG IPC :1.65014: L2-Pf-HR :0.88319: L2-HR :0.85610: (Sim:0h20m56s) 
CPU  0 inst: 1534000002 cyc: 1804791397 now IPC :1.22218: AVG IPC :0.84931: L2-Pf-HR :0.86064: L2-HR :0.84250: (Sim:2h17m31s) 
CPU  0 inst:  274000002 cyc:  165786674 now IPC :1.72619: AVG IPC :1.65040: L2-Pf-HR :0.88319: L2-HR :0.85611: (Sim:0h21m1s) 
CPU  0 inst: 1535000002 cyc: 1805328756 now IPC :1.86095: AVG IPC :0.84961: L2-Pf-HR :0.86066: L2-HR :0.84253: (Sim:2h17m35s) 
CPU  0 inst:  275000002 cyc:  166355912 now IPC :1.75673: AVG IPC :1.65077: L2-Pf-HR :0.88330: L2-HR :0.85619: (Sim:0h21m5s) 
CPU  0 inst: 1536000000 cyc: 1806008752 now IPC :1.47059: AVG IPC :0.84985: L2-Pf-HR :0.86063: L2-HR :0.84252: (Sim:2h17m40s) 
CPU  0 inst:  276000000 cyc:  167036138 now IPC :1.47010: AVG IPC :1.65003: L2-Pf-HR :0.88331: L2-HR :0.85621: (Sim:0h21m10s) 
CPU  0 inst: 1537000002 cyc: 1806641393 now IPC :1.58068: AVG IPC :0.85010: L2-Pf-HR :0.86064: L2-HR :0.84254: (Sim:2h17m44s) 
CPU  0 inst:  277000001 cyc:  167617842 now IPC :1.71909: AVG IPC :1.65027: L2-Pf-HR :0.88334: L2-HR :0.85624: (Sim:0h21m15s) 
CPU  0 inst: 1538000001 cyc: 1807367927 now IPC :1.37640: AVG IPC :0.85032: L2-Pf-HR :0.86065: L2-HR :0.84256: (Sim:2h17m49s) 
CPU  0 inst:  278000003 cyc:  168200076 now IPC :1.71753: AVG IPC :1.65051: L2-Pf-HR :0.88337: L2-HR :0.85627: (Sim:0h21m19s) 
CPU  0 inst: 1539000003 cyc: 1807882749 now IPC :1.94242: AVG IPC :0.85063: L2-Pf-HR :0.86067: L2-HR :0.84259: (Sim:2h17m53s) 
CPU  0 inst:  279000000 cyc:  168783154 now IPC :1.71503: AVG IPC :1.65073: L2-Pf-HR :0.88340: L2-HR :0.85630: (Sim:0h21m24s) 
CPU  0 inst: 1540000000 cyc: 1808546831 now IPC :1.50583: AVG IPC :0.85087: L2-Pf-HR :0.86064: L2-HR :0.84258: (Sim:2h17m58s) 
CPU  0 inst:  280000000 cyc:  169404600 now IPC :1.60915: AVG IPC :1.65058: L2-Pf-HR :0.88347: L2-HR :0.85636: (Sim:0h21m28s) 
CPU  0 inst: 1541000002 cyc: 1809155792 now IPC :1.64214: AVG IPC :0.85113: L2-Pf-HR :0.86065: L2-HR :0.84260: (Sim:2h18m3s) 
CPU  0 inst:  281000000 cyc:  170162486 now IPC :1.31946: AVG IPC :1.64909: L2-Pf-HR :0.88340: L2-HR :0.85629: (Sim:0h21m33s) 
CPU  0 inst: 1542000002 cyc: 1809868805 now IPC :1.40250: AVG IPC :0.85135: L2-Pf-HR :0.86067: L2-HR :0.84263: (Sim:2h18m8s) 
CPU  0 inst:  282000003 cyc:  170764658 now IPC :1.66066: AVG IPC :1.64913: L2-Pf-HR :0.88338: L2-HR :0.85627: (Sim:0h21m38s) 
CPU  0 inst: 1543000003 cyc: 1810390035 now IPC :1.91854: AVG IPC :0.85166: L2-Pf-HR :0.86067: L2-HR :0.84265: (Sim:2h18m12s) 
CPU  0 inst:  283000003 cyc:  171354606 now IPC :1.69506: AVG IPC :1.64929: L2-Pf-HR :0.88335: L2-HR :0.85624: (Sim:0h21m43s) 
CPU  0 inst: 1544000000 cyc: 1811057315 now IPC :1.49862: AVG IPC :0.85190: L2-Pf-HR :0.86065: L2-HR :0.84264: (Sim:2h18m16s) 
CPU  0 inst:  284000000 cyc:  171954872 now IPC :1.66592: AVG IPC :1.64935: L2-Pf-HR :0.88334: L2-HR :0.85623: (Sim:0h21m47s) 
CPU  0 inst: 1545000000 cyc: 1811624416 now IPC :1.76335: AVG IPC :0.85218: L2-Pf-HR :0.86068: L2-HR :0.84268: (Sim:2h18m21s) 
CPU  0 inst:  285000003 cyc:  172545191 now IPC :1.69400: AVG IPC :1.64950: L2-Pf-HR :0.88332: L2-HR :0.85621: (Sim:0h21m51s) 
CPU  0 inst: 1546000001 cyc: 1812181869 now IPC :1.79387: AVG IPC :0.85247: L2-Pf-HR :0.86072: L2-HR :0.84274: (Sim:2h18m25s) 
CPU  0 inst:  286000002 cyc:  173131790 now IPC :1.70474: AVG IPC :1.64969: L2-Pf-HR :0.88330: L2-HR :0.85619: (Sim:0h21m56s) 
CPU  0 inst: 1547000001 cyc: 1812895351 now IPC :1.40158: AVG IPC :0.85269: L2-Pf-HR :0.86069: L2-HR :0.84272: (Sim:2h18m29s) 
CPU  0 inst:  287000000 cyc:  173725460 now IPC :1.68443: AVG IPC :1.64981: L2-Pf-HR :0.88329: L2-HR :0.85618: (Sim:0h22m1s) 
CPU  0 inst: 1548000000 cyc: 1813564901 now IPC :1.49354: AVG IPC :0.85292: L2-Pf-HR :0.86067: L2-HR :0.84271: (Sim:2h18m34s) 
CPU  0 inst:  288000000 cyc:  174481356 now IPC :1.32293: AVG IPC :1.64839: L2-Pf-HR :0.88336: L2-HR :0.85623: (Sim:0h22m6s) 
CPU  0 inst: 1549000000 cyc: 1814079061 now IPC :1.94492: AVG IPC :0.85323: L2-Pf-HR :0.86070: L2-HR :0.84276: (Sim:2h18m39s) 
CPU  0 inst:  289000002 cyc:  175067046 now IPC :1.70739: AVG IPC :1.64859: L2-Pf-HR :0.88334: L2-HR :0.85622: (Sim:0h22m10s) 
CPU  0 inst: 1550000002 cyc: 1814674832 now IPC :1.67850: AVG IPC :0.85351: L2-Pf-HR :0.86073: L2-HR :0.84279: (Sim:2h18m43s) 
CPU  0 inst:  290000001 cyc:  175647796 now IPC :1.72191: AVG IPC :1.64883: L2-Pf-HR :0.88330: L2-HR :0.85619: (Sim:0h22m15s) 
CPU  0 inst: 1551000001 cyc: 1815355977 now IPC :1.46811: AVG IPC :0.85374: L2-Pf-HR :0.86072: L2-HR :0.84280: (Sim:2h18m48s) 
CPU  0 inst:  291000003 cyc:  176223053 now IPC :1.73836: AVG IPC :1.64912: L2-Pf-HR :0.88330: L2-HR :0.85619: (Sim:0h22m19s) 
CPU  0 inst: 1552000000 cyc: 1815988464 now IPC :1.58106: AVG IPC :0.85399: L2-Pf-HR :0.86071: L2-HR :0.84281: (Sim:2h18m52s) 
CPU  0 inst:  292000000 cyc:  176805103 now IPC :1.71806: AVG IPC :1.64935: L2-Pf-HR :0.88329: L2-HR :0.85619: (Sim:0h22m22s) 
CPU  0 inst: 1553000003 cyc: 1816493298 now IPC :1.98086: AVG IPC :0.85430: L2-Pf-HR :0.86075: L2-HR :0.84285: (Sim:2h18m56s) 
CPU  0 inst:  293000001 cyc:  177384016 now IPC :1.72738: AVG IPC :1.64961: L2-Pf-HR :0.88328: L2-HR :0.85618: (Sim:0h22m27s) 
CPU  0 inst: 1554000003 cyc: 1817085674 now IPC :1.68812: AVG IPC :0.85458: L2-Pf-HR :0.86078: L2-HR :0.84289: (Sim:2h19m0s) 
CPU  0 inst:  294000001 cyc:  177962176 now IPC :1.72962: AVG IPC :1.64987: L2-Pf-HR :0.88328: L2-HR :0.85618: (Sim:0h22m31s) 
CPU  0 inst: 1555000001 cyc: 1817846005 now IPC :1.31521: AVG IPC :0.85477: L2-Pf-HR :0.86080: L2-HR :0.84292: (Sim:2h19m4s) 
CPU  0 inst:  295000001 cyc:  178534881 now IPC :1.74610: AVG IPC :1.65018: L2-Pf-HR :0.88338: L2-HR :0.85626: (Sim:0h22m34s) 
CPU  0 inst: 1556000000 cyc: 1818656685 now IPC :1.23353: AVG IPC :0.85494: L2-Pf-HR :0.86079: L2-HR :0.84292: (Sim:2h19m9s) 
CPU  0 inst:  296000000 cyc:  179221112 now IPC :1.45723: AVG IPC :1.64944: L2-Pf-HR :0.88339: L2-HR :0.85628: (Sim:0h22m39s) 
CPU  0 inst: 1557000001 cyc: 1819190447 now IPC :1.87350: AVG IPC :0.85524: L2-Pf-HR :0.86080: L2-HR :0.84294: (Sim:2h19m13s) 
CPU  0 inst:  297000003 cyc:  179800874 now IPC :1.72485: AVG IPC :1.64968: L2-Pf-HR :0.88342: L2-HR :0.85630: (Sim:0h22m42s) 
CPU  0 inst: 1558000002 cyc: 1819874223 now IPC :1.46247: AVG IPC :0.85546: L2-Pf-HR :0.86077: L2-HR :0.84293: (Sim:2h19m18s) 
CPU  0 inst:  298000000 cyc:  180374467 now IPC :1.74339: AVG IPC :1.64998: L2-Pf-HR :0.88344: L2-HR :0.85632: (Sim:0h22m47s) 
CPU  0 inst: 1559000001 cyc: 1820499763 now IPC :1.59862: AVG IPC :0.85572: L2-Pf-HR :0.86079: L2-HR :0.84296: (Sim:2h19m22s) 
CPU  0 inst:  299000003 cyc:  180952299 now IPC :1.73061: AVG IPC :1.65024: L2-Pf-HR :0.88348: L2-HR :0.85636: (Sim:0h22m50s) 
CPU  0 inst:  300000000 cyc:  181581949 now IPC :1.58818: AVG IPC :1.65002: L2-Pf-HR :0.88354: L2-HR :0.85641: (Sim:0h22m55s) 
CPU  0 inst: 1560000000 cyc: 1821226301 now IPC :1.37639: AVG IPC :0.85593: L2-Pf-HR :0.86080: L2-HR :0.84298: (Sim:2h19m27s) 
CPU  0 inst: 1561000001 cyc: 1821749427 now IPC :1.91159: AVG IPC :0.85623: L2-Pf-HR :0.86081: L2-HR :0.84300: (Sim:2h19m31s) 
CPU  0 inst:  301000003 cyc:  182327491 now IPC :1.34131: AVG IPC :1.64876: L2-Pf-HR :0.88347: L2-HR :0.85635: (Sim:0h23m0s) 
CPU  0 inst:  302000000 cyc:  182930024 now IPC :1.65966: AVG IPC :1.64879: L2-Pf-HR :0.88344: L2-HR :0.85632: (Sim:0h23m4s) 
CPU  0 inst: 1562000002 cyc: 1822415950 now IPC :1.50032: AVG IPC :0.85647: L2-Pf-HR :0.86079: L2-HR :0.84299: (Sim:2h19m36s) 
CPU  0 inst:  303000001 cyc:  183519144 now IPC :1.69745: AVG IPC :1.64895: L2-Pf-HR :0.88344: L2-HR :0.85632: (Sim:0h23m9s) 
CPU  0 inst: 1563000002 cyc: 1822974645 now IPC :1.78989: AVG IPC :0.85675: L2-Pf-HR :0.86082: L2-HR :0.84304: (Sim:2h19m41s) 
CPU  0 inst:  304000000 cyc:  184105427 now IPC :1.70566: AVG IPC :1.64913: L2-Pf-HR :0.88341: L2-HR :0.85629: (Sim:0h23m13s) 
CPU  0 inst: 1564000000 cyc: 1823542095 now IPC :1.76227: AVG IPC :0.85703: L2-Pf-HR :0.86087: L2-HR :0.84309: (Sim:2h19m46s) 
CPU  0 inst:  305000002 cyc:  184700364 now IPC :1.68085: AVG IPC :1.64923: L2-Pf-HR :0.88339: L2-HR :0.85627: (Sim:0h23m17s) 
[...]
CPU  0 inst: 1502000000 cyc: 1784623085 now IPC :1.39003: AVG IPC :0.84097: L2-Pf-HR :0.86042: L2-HR :0.84188: (Sim:1h46m31s) 
CPU  0 inst: 1503000003 cyc: 1785137260 now IPC :1.94487: AVG IPC :0.84129: L2-Pf-HR :0.86044: L2-HR :0.84191: (Sim:1h46m34s) 
CPU  0 inst: 1504000000 cyc: 1785810572 now IPC :1.48519: AVG IPC :0.84154: L2-Pf-HR :0.86041: L2-HR :0.84190: (Sim:1h46m37s) 
CPU  0 inst: 1505000000 cyc: 1786421869 now IPC :1.63587: AVG IPC :0.84181: L2-Pf-HR :0.86042: L2-HR :0.84192: (Sim:1h46m39s) 
CPU  0 inst: 1506000001 cyc: 1787097708 now IPC :1.47964: AVG IPC :0.84205: L2-Pf-HR :0.86045: L2-HR :0.84196: (Sim:1h46m42s) 
CPU  0 inst: 1507000001 cyc: 1787615692 now IPC :1.93056: AVG IPC :0.84236: L2-Pf-HR :0.86046: L2-HR :0.84199: (Sim:1h46m45s) 
CPU  0 inst: 1508000000 cyc: 1788260339 now IPC :1.55123: AVG IPC :0.84262: L2-Pf-HR :0.86045: L2-HR :0.84199: (Sim:1h46m48s) 
CPU  0 inst: 1509000003 cyc: 1788837912 now IPC :1.73139: AVG IPC :0.84291: L2-Pf-HR :0.86046: L2-HR :0.84202: (Sim:1h46m50s) 
CPU  0 inst: 1510000001 cyc: 1789429599 now IPC :1.69008: AVG IPC :0.84319: L2-Pf-HR :0.86051: L2-HR :0.84207: (Sim:1h46m53s) 
CPU  0 inst: 1511000001 cyc: 1790112552 now IPC :1.46423: AVG IPC :0.84342: L2-Pf-HR :0.86054: L2-HR :0.84211: (Sim:1h46m56s) 
CPU  0 inst: 1512000000 cyc: 1790934364 now IPC :1.21682: AVG IPC :0.84360: L2-Pf-HR :0.86050: L2-HR :0.84208: (Sim:1h46m59s) 
CPU  0 inst: 1513000003 cyc: 1791514591 now IPC :1.72347: AVG IPC :0.84388: L2-Pf-HR :0.86052: L2-HR :0.84211: (Sim:1h47m1s) 
CPU  0 inst: 1514000003 cyc: 1792141209 now IPC :1.59587: AVG IPC :0.84414: L2-Pf-HR :0.86051: L2-HR :0.84212: (Sim:1h47m4s) 
CPU  0 inst: 1515000002 cyc: 1792768742 now IPC :1.59354: AVG IPC :0.84441: L2-Pf-HR :0.86052: L2-HR :0.84214: (Sim:1h47m7s) 
CPU  0 inst: 1516000000 cyc: 1793495886 now IPC :1.37524: AVG IPC :0.84462: L2-Pf-HR :0.86052: L2-HR :0.84215: (Sim:1h47m10s) 
CPU  0 inst: 1517000002 cyc: 1794019686 now IPC :1.90913: AVG IPC :0.84493: L2-Pf-HR :0.86053: L2-HR :0.84218: (Sim:1h47m12s) 
CPU  0 inst: 1518000000 cyc: 1794674679 now IPC :1.52673: AVG IPC :0.84518: L2-Pf-HR :0.86051: L2-HR :0.84217: (Sim:1h47m15s) 
CPU  0 inst: 1519000000 cyc: 1795282422 now IPC :1.64543: AVG IPC :0.84545: L2-Pf-HR :0.86052: L2-HR :0.84219: (Sim:1h47m18s) 
CPU  0 inst: 1520000000 cyc: 1796002327 now IPC :1.38907: AVG IPC :0.84567: L2-Pf-HR :0.86053: L2-HR :0.84222: (Sim:1h47m21s) 
CPU  0 inst: 1521000002 cyc: 1796515036 now IPC :1.95043: AVG IPC :0.84599: L2-Pf-HR :0.86054: L2-HR :0.84224: (Sim:1h47m23s) 
CPU  0 inst: 1522000001 cyc: 1797184360 now IPC :1.49404: AVG IPC :0.84623: L2-Pf-HR :0.86051: L2-HR :0.84223: (Sim:1h47m26s) 
CPU  0 inst: 1523000003 cyc: 1797788801 now IPC :1.65442: AVG IPC :0.84650: L2-Pf-HR :0.86052: L2-HR :0.84225: (Sim:1h47m29s) 
CPU  0 inst: 1524000000 cyc: 1798506792 now IPC :1.39277: AVG IPC :0.84672: L2-Pf-HR :0.86054: L2-HR :0.84228: (Sim:1h47m32s) 
CPU  0 inst: 1525000002 cyc: 1799022648 now IPC :1.93853: AVG IPC :0.84703: L2-Pf-HR :0.86055: L2-HR :0.84230: (Sim:1h47m34s) 
CPU  0 inst: 1526000003 cyc: 1799690910 now IPC :1.49642: AVG IPC :0.84727: L2-Pf-HR :0.86053: L2-HR :0.84230: (Sim:1h47m37s) 
CPU  0 inst: 1527000002 cyc: 1800266813 now IPC :1.73640: AVG IPC :0.84756: L2-Pf-HR :0.86055: L2-HR :0.84233: (Sim:1h47m40s) 
CPU  0 inst: 1528000000 cyc: 1800823975 now IPC :1.79481: AVG IPC :0.84785: L2-Pf-HR :0.86060: L2-HR :0.84239: (Sim:1h47m42s) 
CPU  0 inst: 1529000002 cyc: 1801484469 now IPC :1.51402: AVG IPC :0.84809: L2-Pf-HR :0.86058: L2-HR :0.84238: (Sim:1h47m45s) 
CPU  0 inst: 1530000000 cyc: 1802122012 now IPC :1.56852: AVG IPC :0.84835: L2-Pf-HR :0.86056: L2-HR :0.84239: (Sim:1h47m48s) 
CPU  0 inst: 1531000003 cyc: 1802635758 now IPC :1.94649: AVG IPC :0.84866: L2-Pf-HR :0.86061: L2-HR :0.84244: (Sim:1h47m50s) 
CPU  0 inst: 1532000000 cyc: 1803213209 now IPC :1.73174: AVG IPC :0.84895: L2-Pf-HR :0.86064: L2-HR :0.84249: (Sim:1h47m53s) 
CPU  0 inst: 1533000002 cyc: 1803973187 now IPC :1.31583: AVG IPC :0.84914: L2-Pf-HR :0.86066: L2-HR :0.84251: (Sim:1h47m56s) 
CPU  0 inst: 1534000002 cyc: 1804791397 now IPC :1.22218: AVG IPC :0.84931: L2-Pf-HR :0.86064: L2-HR :0.84250: (Sim:1h47m59s) 
CPU  0 inst: 1535000002 cyc: 1805328756 now IPC :1.86095: AVG IPC :0.84961: L2-Pf-HR :0.86066: L2-HR :0.84253: (Sim:1h48m1s) 
CPU  0 inst: 1536000000 cyc: 1806008752 now IPC :1.47059: AVG IPC :0.84985: L2-Pf-HR :0.86063: L2-HR :0.84252: (Sim:1h48m4s) 
CPU  0 inst: 1537000002 cyc: 1806641393 now IPC :1.58068: AVG IPC :0.85010: L2-Pf-HR :0.86064: L2-HR :0.84254: (Sim:1h48m7s) 
CPU  0 inst: 1538000001 cyc: 1807367927 now IPC :1.37640: AVG IPC :0.85032: L2-Pf-HR :0.86065: L2-HR :0.84256: (Sim:1h48m10s) 
CPU  0 inst: 1539000003 cyc: 1807882749 now IPC :1.94242: AVG IPC :0.85063: L2-Pf-HR :0.86067: L2-HR :0.84259: (Sim:1h48m12s) 
CPU  0 inst: 1540000000 cyc: 1808546831 now IPC :1.50583: AVG IPC :0.85087: L2-Pf-HR :0.86064: L2-HR :0.84258: (Sim:1h48m15s) 
CPU  0 inst: 1541000002 cyc: 1809155792 now IPC :1.64214: AVG IPC :0.85113: L2-Pf-HR :0.86065: L2-HR :0.84260: (Sim:1h48m18s) 
CPU  0 inst: 1542000002 cyc: 1809868805 now IPC :1.40250: AVG IPC :0.85135: L2-Pf-HR :0.86067: L2-HR :0.84263: (Sim:1h48m21s) 
CPU  0 inst: 1543000003 cyc: 1810390035 now IPC :1.91854: AVG IPC :0.85166: L2-Pf-HR :0.86067: L2-HR :0.84265: (Sim:1h48m23s) 
CPU  0 inst: 1544000000 cyc: 1811057315 now IPC :1.49862: AVG IPC :0.85190: L2-Pf-HR :0.86065: L2-HR :0.84264: (Sim:1h48m26s) 
CPU  0 inst: 1545000000 cyc: 1811624416 now IPC :1.76335: AVG IPC :0.85218: L2-Pf-HR :0.86068: L2-HR :0.84268: (Sim:1h48m29s) 
CPU  0 inst: 1546000001 cyc: 1812181869 now IPC :1.79387: AVG IPC :0.85247: L2-Pf-HR :0.86072: L2-HR :0.84274: (Sim:1h48m31s) 
CPU  0 inst: 1547000001 cyc: 1812895351 now IPC :1.40158: AVG IPC :0.85269: L2-Pf-HR :0.86069: L2-HR :0.84272: (Sim:1h48m34s) 
CPU  0 inst: 1548000000 cyc: 1813564901 now IPC :1.49354: AVG IPC :0.85292: L2-Pf-HR :0.86067: L2-HR :0.84271: (Sim:1h48m37s) 
CPU  0 inst: 1549000000 cyc: 1814079061 now IPC :1.94492: AVG IPC :0.85323: L2-Pf-HR :0.86070: L2-HR :0.84276: (Sim:1h48m40s) 
CPU  0 inst: 1550000002 cyc: 1814674832 now IPC :1.67850: AVG IPC :0.85351: L2-Pf-HR :0.86073: L2-HR :0.84279: (Sim:1h48m42s) 
CPU  0 inst: 1551000001 cyc: 1815355977 now IPC :1.46811: AVG IPC :0.85374: L2-Pf-HR :0.86072: L2-HR :0.84280: (Sim:1h48m45s) 
CPU  0 inst: 1552000000 cyc: 1815988464 now IPC :1.58106: AVG IPC :0.85399: L2-Pf-HR :0.86071: L2-HR :0.84281: (Sim:1h48m48s) 
CPU  0 inst: 1553000003 cyc: 1816493298 now IPC :1.98086: AVG IPC :0.85430: L2-Pf-HR :0.86075: L2-HR :0.84285: (Sim:1h48m50s) 
CPU  0 inst: 1554000003 cyc: 1817085674 now IPC :1.68812: AVG IPC :0.85458: L2-Pf-HR :0.86078: L2-HR :0.84289: (Sim:1h48m53s) 
CPU  0 inst: 1555000001 cyc: 1817846005 now IPC :1.31521: AVG IPC :0.85477: L2-Pf-HR :0.86080: L2-HR :0.84292: (Sim:1h48m56s) 
CPU  0 inst: 1556000000 cyc: 1818656685 now IPC :1.23353: AVG IPC :0.85494: L2-Pf-HR :0.86079: L2-HR :0.84292: (Sim:1h48m59s) 
CPU  0 inst: 1557000001 cyc: 1819190447 now IPC :1.87350: AVG IPC :0.85524: L2-Pf-HR :0.86080: L2-HR :0.84294: (Sim:1h49m2s) 
CPU  0 inst: 1558000002 cyc: 1819874223 now IPC :1.46247: AVG IPC :0.85546: L2-Pf-HR :0.86077: L2-HR :0.84293: (Sim:1h49m4s) 
CPU  0 inst: 1559000001 cyc: 1820499763 now IPC :1.59862: AVG IPC :0.85572: L2-Pf-HR :0.86079: L2-HR :0.84296: (Sim:1h49m7s) 
CPU  0 inst: 1560000000 cyc: 1821226301 now IPC :1.37639: AVG IPC :0.85593: L2-Pf-HR :0.86080: L2-HR :0.84298: (Sim:1h49m10s) 
CPU  0 inst: 1561000001 cyc: 1821749427 now IPC :1.91159: AVG IPC :0.85623: L2-Pf-HR :0.86081: L2-HR :0.84300: (Sim:1h49m12s) 
CPU  0 inst: 1562000002 cyc: 1822415950 now IPC :1.50032: AVG IPC :0.85647: L2-Pf-HR :0.86079: L2-HR :0.84299: (Sim:1h49m15s) 
CPU  0 inst: 1563000002 cyc: 1822974645 now IPC :1.78989: AVG IPC :0.85675: L2-Pf-HR :0.86082: L2-HR :0.84304: (Sim:1h49m18s) 
CPU  0 inst: 1564000000 cyc: 1823542095 now IPC :1.76227: AVG IPC :0.85703: L2-Pf-HR :0.86087: L2-HR :0.84309: (Sim:1h49m21s) 
CPU  0 inst: 1565000002 cyc: 1824266503 now IPC :1.38044: AVG IPC :0.85724: L2-Pf-HR :0.86083: L2-HR :0.84307: (Sim:1h49m23s) 
CPU  0 inst: 1566000002 cyc: 1824929126 now IPC :1.50915: AVG IPC :0.85748: L2-Pf-HR :0.86080: L2-HR :0.84306: (Sim:1h49m26s) 
CPU  0 inst: 1567000002 cyc: 1825442036 now IPC :1.94966: AVG IPC :0.85779: L2-Pf-HR :0.86084: L2-HR :0.84311: (Sim:1h49m29s) 
CPU  0 inst: 1568000000 cyc: 1826042587 now IPC :1.66513: AVG IPC :0.85805: L2-Pf-HR :0.86086: L2-HR :0.84314: (Sim:1h49m32s) 
CPU  0 inst: 1569000003 cyc: 1826771615 now IPC :1.37169: AVG IPC :0.85826: L2-Pf-HR :0.86085: L2-HR :0.84314: (Sim:1h49m34s) 
CPU  0 inst: 1570000001 cyc: 1827433382 now IPC :1.51110: AVG IPC :0.85849: L2-Pf-HR :0.86083: L2-HR :0.84313: (Sim:1h49m37s) 
CPU  0 inst: 1571000001 cyc: 1827939972 now IPC :1.97398: AVG IPC :0.85880: L2-Pf-HR :0.86086: L2-HR :0.84317: (Sim:1h49m40s) 
CPU  0 inst: 1572000000 cyc: 1828543661 now IPC :1.65648: AVG IPC :0.85907: L2-Pf-HR :0.86088: L2-HR :0.84321: (Sim:1h49m42s) 
CPU  0 inst: 1573000000 cyc: 1829230106 now IPC :1.45678: AVG IPC :0.85929: L2-Pf-HR :0.86088: L2-HR :0.84322: (Sim:1h49m45s) 
CPU  0 inst: 1574000002 cyc: 1829861559 now IPC :1.58365: AVG IPC :0.85954: L2-Pf-HR :0.86087: L2-HR :0.84323: (Sim:1h49m48s) 
CPU  0 inst: 1575000003 cyc: 1830373222 now IPC :1.95441: AVG IPC :0.85985: L2-Pf-HR :0.86090: L2-HR :0.84326: (Sim:1h49m51s) 
CPU  0 inst: 1576000000 cyc: 1830964554 now IPC :1.69109: AVG IPC :0.86012: L2-Pf-HR :0.86093: L2-HR :0.84330: (Sim:1h49m53s) 
CPU  0 inst: 1577000002 cyc: 1831642327 now IPC :1.47542: AVG IPC :0.86034: L2-Pf-HR :0.86098: L2-HR :0.84335: (Sim:1h49m56s) 
CPU  0 inst: 1578000002 cyc: 1832478527 now IPC :1.19589: AVG IPC :0.86050: L2-Pf-HR :0.86096: L2-HR :0.84335: (Sim:1h49m59s) 
CPU  0 inst: 1579000001 cyc: 1833069560 now IPC :1.69195: AVG IPC :0.86077: L2-Pf-HR :0.86096: L2-HR :0.84335: (Sim:1h50m2s) 
CPU  0 inst: 1580000000 cyc: 1833763918 now IPC :1.44018: AVG IPC :0.86098: L2-Pf-HR :0.86092: L2-HR :0.84334: (Sim:1h50m5s) 
CPU  0 inst: 1581000002 cyc: 1834311364 now IPC :1.82667: AVG IPC :0.86127: L2-Pf-HR :0.86097: L2-HR :0.84339: (Sim:1h50m7s) 
CPU  0 inst: 1582000003 cyc: 1834915306 now IPC :1.65579: AVG IPC :0.86153: L2-Pf-HR :0.86100: L2-HR :0.84343: (Sim:1h50m10s) 
CPU  0 inst: 1583000003 cyc: 1835646743 now IPC :1.36717: AVG IPC :0.86174: L2-Pf-HR :0.86096: L2-HR :0.84340: (Sim:1h50m13s) 
CPU  0 inst: 1584000000 cyc: 1836317788 now IPC :1.49021: AVG IPC :0.86197: L2-Pf-HR :0.86092: L2-HR :0.84339: (Sim:1h50m16s) 
CPU  0 inst: 1585000001 cyc: 1836830430 now IPC :1.95068: AVG IPC :0.86227: L2-Pf-HR :0.86097: L2-HR :0.84344: (Sim:1h50m18s) 
CPU  0 inst: 1586000000 cyc: 1837430828 now IPC :1.66556: AVG IPC :0.86253: L2-Pf-HR :0.86099: L2-HR :0.84347: (Sim:1h50m21s) 
CPU  0 inst: 1587000000 cyc: 1838175912 now IPC :1.34213: AVG IPC :0.86273: L2-Pf-HR :0.86097: L2-HR :0.84346: (Sim:1h50m24s) 
CPU  0 inst: 1588000000 cyc: 1838845364 now IPC :1.49376: AVG IPC :0.86296: L2-Pf-HR :0.86093: L2-HR :0.84345: (Sim:1h50m26s) 
CPU  0 inst: 1589000003 cyc: 1839351405 now IPC :1.97613: AVG IPC :0.86326: L2-Pf-HR :0.86097: L2-HR :0.84349: (Sim:1h50m29s) 
CPU  0 inst: 1590000000 cyc: 1839961807 now IPC :1.63826: AVG IPC :0.86352: L2-Pf-HR :0.86098: L2-HR :0.84352: (Sim:1h50m32s) 
CPU  0 inst: 1591000001 cyc: 1840695993 now IPC :1.36205: AVG IPC :0.86372: L2-Pf-HR :0.86097: L2-HR :0.84352: (Sim:1h50m35s) 
CPU  0 inst: 1592000000 cyc: 1841354482 now IPC :1.51863: AVG IPC :0.86395: L2-Pf-HR :0.86094: L2-HR :0.84351: (Sim:1h50m37s) 
CPU  0 inst: 1593000000 cyc: 1841865748 now IPC :1.95593: AVG IPC :0.86426: L2-Pf-HR :0.86096: L2-HR :0.84354: (Sim:1h50m40s) 
CPU  0 inst: 1594000002 cyc: 1842473818 now IPC :1.64455: AVG IPC :0.86451: L2-Pf-HR :0.86098: L2-HR :0.84357: (Sim:1h50m43s) 
CPU  0 inst: 1595000003 cyc: 1843166177 now IPC :1.44434: AVG IPC :0.86473: L2-Pf-HR :0.86099: L2-HR :0.84359: (Sim:1h50m45s) 
CPU  0 inst: 1596000000 cyc: 1843693868 now IPC :1.89504: AVG IPC :0.86503: L2-Pf-HR :0.86100: L2-HR :0.84361: (Sim:1h50m48s) 
CPU  0 inst: 1597000002 cyc: 1844313215 now IPC :1.61461: AVG IPC :0.86528: L2-Pf-HR :0.86100: L2-HR :0.84362: (Sim:1h50m51s) 
CPU  0 inst: 1598000001 cyc: 1844905325 now IPC :1.68887: AVG IPC :0.86554: L2-Pf-HR :0.86102: L2-HR :0.84365: (Sim:1h50m53s) 
CPU  0 inst: 1599000000 cyc: 1845544165 now IPC :1.56534: AVG IPC :0.86579: L2-Pf-HR :0.86107: L2-HR :0.84370: (Sim:1h50m56s) 
CPU  0 inst: 1600000000 cyc: 1846240131 now IPC :1.43685: AVG IPC :0.86600: L2-Pf-HR :0.86110: L2-HR :0.84374: (Sim:1h50m59s) 
CPU  0 inst: 1601000002 cyc: 1847002233 now IPC :1.31216: AVG IPC :0.86619: L2-Pf-HR :0.86106: L2-HR :0.84371: (Sim:1h51m2s) 
CPU  0 inst: 1602000002 cyc: 1847688296 now IPC :1.45759: AVG IPC :0.86641: L2-Pf-HR :0.86103: L2-HR :0.84370: (Sim:1h51m5s) 
CPU  0 inst: 1603000000 cyc: 1848211186 now IPC :1.91244: AVG IPC :0.86670: L2-Pf-HR :0.86107: L2-HR :0.84374: (Sim:1h51m7s) 
CPU  0 inst: 1604000000 cyc: 1848830030 now IPC :1.61592: AVG IPC :0.86695: L2-Pf-HR :0.86108: L2-HR :0.84377: (Sim:1h51m10s) 
CPU  0 inst: 1605000003 cyc: 1849563899 now IPC :1.36265: AVG IPC :0.86715: L2-Pf-HR :0.86106: L2-HR :0.84376: (Sim:1h51m13s) 
CPU  0 inst: 1606000002 cyc: 1850231113 now IPC :1.49877: AVG IPC :0.86738: L2-Pf-HR :0.86104: L2-HR :0.84376: (Sim:1h51m16s) 
CPU  0 inst: 1607000002 cyc: 1850739069 now IPC :1.96867: AVG IPC :0.86768: L2-Pf-HR :0.86106: L2-HR :0.84379: (Sim:1h51m18s) 
CPU  0 inst: 1608000000 cyc: 1851347387 now IPC :1.64387: AVG IPC :0.86794: L2-Pf-HR :0.86108: L2-HR :0.84382: (Sim:1h51m21s) 
CPU  0 inst: 1609000003 cyc: 1852082901 now IPC :1.35960: AVG IPC :0.86813: L2-Pf-HR :0.86106: L2-HR :0.84382: (Sim:1h51m24s) 
CPU  0 inst: 1610000003 cyc: 1852737398 now IPC :1.52789: AVG IPC :0.86836: L2-Pf-HR :0.86105: L2-HR :0.84381: (Sim:1h51m26s) 
CPU  0 inst: 1611000003 cyc: 1853256178 now IPC :1.92760: AVG IPC :0.86866: L2-Pf-HR :0.86106: L2-HR :0.84384: (Sim:1h51m29s) 
CPU  0 inst: 1612000000 cyc: 1853864436 now IPC :1.64403: AVG IPC :0.86891: L2-Pf-HR :0.86107: L2-HR :0.84386: (Sim:1h51m32s) 
CPU  0 inst: 1613000001 cyc: 1854593251 now IPC :1.37209: AVG IPC :0.86911: L2-Pf-HR :0.86107: L2-HR :0.84387: (Sim:1h51m35s) 
CPU  0 inst: 1614000003 cyc: 1855121092 now IPC :1.89451: AVG IPC :0.86940: L2-Pf-HR :0.86110: L2-HR :0.84391: (Sim:1h51m37s) 
CPU  0 inst: 1615000003 cyc: 1855763398 now IPC :1.55689: AVG IPC :0.86964: L2-Pf-HR :0.86108: L2-HR :0.84390: (Sim:1h51m40s) 
CPU  0 inst: 1616000000 cyc: 1856373628 now IPC :1.63872: AVG IPC :0.86990: L2-Pf-HR :0.86108: L2-HR :0.84392: (Sim:1h51m43s) 
CPU  0 inst: 1617000001 cyc: 1857056176 now IPC :1.46510: AVG IPC :0.87011: L2-Pf-HR :0.86110: L2-HR :0.84395: (Sim:1h51m45s) 
CPU  0 inst: 1618000000 cyc: 1857569931 now IPC :1.94645: AVG IPC :0.87041: L2-Pf-HR :0.86112: L2-HR :0.84398: (Sim:1h51m48s) 
CPU  0 inst: 1619000000 cyc: 1858203747 now IPC :1.57774: AVG IPC :0.87065: L2-Pf-HR :0.86111: L2-HR :0.84398: (Sim:1h51m51s) 
Finished CPU 0 instr: 1617000001 cyc: 1857225198 AVG IPC: 0.87065 (Sim time: 1h51m51s)

ChampSim completed all CPUs

[ROI Statistics]
Core_0_instructions 1617000001
Core_0_cycles 1857225198
Core_0_IPC 0.87065

Core_0_branch_prediction_accuracy 99.26547
Core_0_branch_MPKI 0.21633
Core_0_average_ROB_occupancy_at_mispredict 250.58612

Core_0_L1D_total_access 1024266273
Core_0_L1D_total_hit 985036201 L1D_total_Hit Ratio: 0.96170
Core_0_L1D_total_miss 39230072
Core_0_L1D_loads 376980275
Core_0_L1D_load_hit 360273256 L1D_load_Hit Ratio: 0.95568
Core_0_L1D_load_miss 16707019
Core_0_L1D_RFOs 43858995
Core_0_L1D_RFO_hit 41603235 L1D_RFO_Hit Ratio: 0.94857
Core_0_L1D_RFO_miss 2255760
Core_0_L1D_prefetches 603427003
Core_0_L1D_prefetch_hit 583159710 L1D_prefetch_Hit Ratio: 0.96641
Core_0_L1D_prefetch_miss 20267293
Core_0_L1D_writebacks 0
Core_0_L1D_writeback_hit 0 L1D_writeback_Hit Ratio: -nan
Core_0_L1D_writeback_miss 0
Core_0_L1D_prefetch_requested 1137694527
Core_0_L1D_prefetch_issued 712660367
Core_0_L1D_prefetch_useful 16098653 L1D_Useful Ratio: 0.02259
Core_0_L1D_prefetch_useless 4196466
Core_0_L1D_prefetch_late 3856908
Core_0_L1D_average_miss_latency 76329824.82960

Core_0_L1I_total_access 399906579
Core_0_L1I_total_hit 399901672 L1I_total_Hit Ratio: 0.99999
Core_0_L1I_total_miss 4907
Core_0_L1I_loads 399906579
Core_0_L1I_load_hit 399901672 L1I_load_Hit Ratio: 0.99999
Core_0_L1I_load_miss 4907
Core_0_L1I_RFOs 0
Core_0_L1I_RFO_hit 0 L1I_RFO_Hit Ratio: -nan
Core_0_L1I_RFO_miss 0
Core_0_L1I_prefetches 0
Core_0_L1I_prefetch_hit 0 L1I_prefetch_Hit Ratio: -nan
Core_0_L1I_prefetch_miss 0
Core_0_L1I_writebacks 0
Core_0_L1I_writeback_hit 0 L1I_writeback_Hit Ratio: -nan
Core_0_L1I_writeback_miss 0
Core_0_L1I_prefetch_requested 0
Core_0_L1I_prefetch_issued 0
Core_0_L1I_prefetch_useful 0 L1I_Useful Ratio: -nan
Core_0_L1I_prefetch_useless 0
Core_0_L1I_prefetch_late 0
Core_0_L1I_average_miss_latency 336.44324

Core_0_L2C_total_access 151866336
Core_0_L2C_total_hit 128172639 L2C_total_Hit Ratio: 0.84398
Core_0_L2C_total_miss 23693697
Core_0_L2C_loads 12855669
Core_0_L2C_load_hit 8717374 L2C_load_Hit Ratio: 0.67810
Core_0_L2C_load_miss 4138295
Core_0_L2C_RFOs 2255676
Core_0_L2C_RFO_hit 214645 L2C_RFO_Hit Ratio: 0.09516
Core_0_L2C_RFO_miss 2041031
Core_0_L2C_prefetches 125805463
Core_0_L2C_prefetch_hit 108332469 L2C_prefetch_Hit Ratio: 0.86111
Core_0_L2C_prefetch_miss 17472994
Core_0_L2C_writebacks 10949528
Core_0_L2C_writeback_hit 10908151 L2C_writeback_Hit Ratio: 0.99622
Core_0_L2C_writeback_miss 41377
Core_0_L2C_prefetch_requested 270348505
Core_0_L2C_prefetch_issued 191382740
Core_0_L2C_prefetch_useful 3199579 L2C_Useful Ratio: 0.01672
Core_0_L2C_prefetch_useless 14291820
Core_0_L2C_prefetch_late 155063
Core_0_L2C_average_miss_latency 194.28825

Core_0_LLC_total_access 33740978
Core_0_LLC_total_hit 20451804 LLC_total_Hit Ratio: 0.60614
Core_0_LLC_total_miss 13289174
Core_0_LLC_loads 3983195
Core_0_LLC_load_hit 2651078 LLC_load_Hit Ratio: 0.66557
Core_0_LLC_load_miss 1332117
Core_0_LLC_RFOs 2041018
Core_0_LLC_RFO_hit 32172 LLC_RFO_Hit Ratio: 0.01576
Core_0_LLC_RFO_miss 2008846
Core_0_LLC_prefetches 17987166
Core_0_LLC_prefetch_hit 8050503 LLC_prefetch_Hit Ratio: 0.44757
Core_0_LLC_prefetch_miss 9936663
Core_0_LLC_writebacks 9729599
Core_0_LLC_writeback_hit 9718051 LLC_writeback_Hit Ratio: 0.99881
Core_0_LLC_writeback_miss 11548
Core_0_LLC_prefetch_requested 0
Core_0_LLC_prefetch_issued 0
Core_0_LLC_prefetch_useful 1830915 LLC_Useful Ratio: inf
Core_0_LLC_prefetch_useless 8097362
Core_0_LLC_prefetch_late 51797
Core_0_LLC_average_miss_latency 304.92814

Core_0_major_page_fault 0
Core_0_minor_page_fault 76848

CPU 0 L1D next line prefetcher final stats
CPU 0 L2C PC-based stride prefetcher final stats
Stride Degree: 12
MK1  MARKOV_LRU_SIZE: 128
MK1  MARKOV_PREDICTION_PERCENTTHRESHOLD: 20.00000
MK1  OUTLIERS_THRESHOLD_Max: 64
MK1  OUTLIERS_THRESHOLD_Min: 32
MK2  MARKOV_LRU_SIZE: 512
MK2  MARKOV_PREDICTION_PERCENTTHRESHOLD: 15.00000
MK2  OUTLIERS_THRESHOLD_Max: 8
MK2  OUTLIERS_THRESHOLD_Min: 0
MK3  MARKOV_LRU_SIZE: 384
MK3  MARKOV_PREDICTION_PERCENTTHRESHOLD: 20.00000
MK3  OUTLIERS_THRESHOLD_Max: 16
MK3  OUTLIERS_THRESHOLD_Min: 8
MK4  MARKOV_LRU_SIZE: 512
MK4  MARKOV_PREDICTION_PERCENTTHRESHOLD: 15.00000
MK4  OUTLIERS_THRESHOLD_Max: 8
MK4  OUTLIERS_THRESHOLD_Min: 0
IPStride Degree/Access Ratio: 4.17209
MK1 IPDEltaMarkov  Degree/Access Ratio: 0.29750
MK2 IPDEltaMarkov  Degree/Access Ratio: 1.45037
MK3 IPDEltaMarkov  Degree/Access Ratio: 0.51112
MK4 IPDEltaMarkov  Degree/Access Ratio: 1.60923
Channel_0_RQ_row_buffer_hit 6771079
Channel_0_RQ_row_buffer_miss 6501087
Channel_0_WQ_row_buffer_hit 1547805
Channel_0_WQ_row_buffer_miss 5501229
Channel_0_WQ_full 65
Channel_0_dbus_congested 13117866

avg_congested_cycle 11

EzSearch AVG IPC :0.87065: L2-Pf-HR :0.86111 : L2-HR :0.84398 Uful:0.01672
Finished combination: TraceType=./777-comparisonScript Prefetcher=030-L2-MultiMarkovDelta_ip_stride_L1-nextLine-1-2-4_vTTT L1=next_line
