TRACE: [597000000][OPT-6_7B]_[h32][s512][d128] Warmup: 2000000 Sim: 597000000
L1:next_line:L2:030-L2-MultiMarkovDelta_ip_stride_L1-nextLine-1-2-4_vTTT
*************************************************
   ChampSim Multicore Out-of-Order Simulator
   Last compiled: Oct 20 2024 04:24:17
*************************************************

trace_0 ./777-comparisonScript_memoryTraces/memTraces[597000000][OPT-6_7B]_[h32][s512][d128].champsim.xz
CPU 0 L1D next line prefetcher
MK1: Size: 128 TMAX: 64 TMIN: 32 MKPTHRESH: 20
MK2: Size: 256 TMAX: 32 TMIN: 16 MKPTHRESH: 20
MK3: Size: 384 TMAX: 16 TMIN: 8 MKPTHRESH: 20
MK4: Size: 512 TMAX: 8 TMIN: 0 MKPTHRESH: 15
Stride Size: 512 Prefetch Degree: 12

CPU 0 L2C prefetcher
MAIN.cc ln 751 stats print skipped
CPU 0 L2C prefetcher initialized


Cache Size: 512
number of cache lines: 8192
CPU  0 inst:    1000000 cyc:     502395 now IPC :1.99047: AVG IPC :1.99047: L2-Pf-HR :0.80471: L2-HR :0.77926: (Sim:0h0m4s) 
CPU  0 inst:    2000000 cyc:     979083 now IPC :2.09781: AVG IPC :2.04273: L2-Pf-HR :0.83877: L2-HR :0.81289: (Sim:0h0m9s) 

Warmup complete CPU  0 instructions:    2000001 cycles:     979084 (Simulation time: 0 hr 0 min 9 sec) 

CPU  0 inst:    3000002 cyc:    1523701 now IPC :1.83615: AVG IPC :1.83615: L2-Pf-HR :0.85164: L2-HR :0.83434: (Sim:0h0m13s) 
CPU  0 inst:    4000000 cyc:    2061483 now IPC :1.85949: AVG IPC :1.84775: L2-Pf-HR :0.85208: L2-HR :0.83471: (Sim:0h0m17s) 
CPU  0 inst:    5000000 cyc:    2602062 now IPC :1.84987: AVG IPC :1.84845: L2-Pf-HR :0.85221: L2-HR :0.83480: (Sim:0h0m22s) 
CPU  0 inst:    6000001 cyc:    3152760 now IPC :1.81588: AVG IPC :1.84020: L2-Pf-HR :0.85411: L2-HR :0.83660: (Sim:0h0m27s) 
CPU  0 inst:    7000003 cyc:    3727615 now IPC :1.73957: AVG IPC :1.81915: L2-Pf-HR :0.86916: L2-HR :0.85464: (Sim:0h0m31s) 
CPU  0 inst:    8000000 cyc:    4242974 now IPC :1.94039: AVG IPC :1.83830: L2-Pf-HR :0.88547: L2-HR :0.87346: (Sim:0h0m36s) 
CPU  0 inst:    9000001 cyc:    4910338 now IPC :1.49843: AVG IPC :1.78060: L2-Pf-HR :0.88135: L2-HR :0.86909: (Sim:0h0m41s) 
CPU  0 inst:   10000002 cyc:    5454323 now IPC :1.83829: AVG IPC :1.78761: L2-Pf-HR :0.87965: L2-HR :0.86673: (Sim:0h0m45s) 
CPU  0 inst:   11000002 cyc:    6002297 now IPC :1.82490: AVG IPC :1.79168: L2-Pf-HR :0.87766: L2-HR :0.86427: (Sim:0h0m49s) 
CPU  0 inst:   12000000 cyc:    6547221 now IPC :1.83511: AVG IPC :1.79593: L2-Pf-HR :0.87671: L2-HR :0.86287: (Sim:0h0m53s) 
CPU  0 inst:   13000002 cyc:    7099261 now IPC :1.81147: AVG IPC :1.79733: L2-Pf-HR :0.87607: L2-HR :0.86188: (Sim:0h0m58s) 
CPU  0 inst:   14000000 cyc:    7645460 now IPC :1.83083: AVG IPC :1.80008: L2-Pf-HR :0.87627: L2-HR :0.86161: (Sim:0h1m1s) 
CPU  0 inst:   15000002 cyc:    8253148 now IPC :1.64558: AVG IPC :1.78717: L2-Pf-HR :0.87968: L2-HR :0.86587: (Sim:0h1m5s) 
CPU  0 inst:   16000000 cyc:    8772340 now IPC :1.92607: AVG IPC :1.79642: L2-Pf-HR :0.88540: L2-HR :0.87260: (Sim:0h1m9s) 
CPU  0 inst:   17000001 cyc:    9476124 now IPC :1.42089: AVG IPC :1.76532: L2-Pf-HR :0.88362: L2-HR :0.87078: (Sim:0h1m14s) 
CPU  0 inst:   18000003 cyc:   10018577 now IPC :1.84348: AVG IPC :1.77001: L2-Pf-HR :0.88306: L2-HR :0.86986: (Sim:0h1m19s) 
CPU  0 inst:   19000002 cyc:   10561367 now IPC :1.84233: AVG IPC :1.77411: L2-Pf-HR :0.88202: L2-HR :0.86855: (Sim:0h1m23s) 
CPU  0 inst:   20000000 cyc:   11112022 now IPC :1.81602: AVG IPC :1.77638: L2-Pf-HR :0.88122: L2-HR :0.86752: (Sim:0h1m28s) 
CPU  0 inst:   21000002 cyc:   11658565 now IPC :1.82969: AVG IPC :1.77911: L2-Pf-HR :0.88076: L2-HR :0.86680: (Sim:0h1m32s) 
CPU  0 inst:   22000002 cyc:   12202414 now IPC :1.83875: AVG IPC :1.78200: L2-Pf-HR :0.88074: L2-HR :0.86650: (Sim:0h1m37s) 
CPU  0 inst:   23000000 cyc:   12806230 now IPC :1.65613: AVG IPC :1.77558: L2-Pf-HR :0.88247: L2-HR :0.86871: (Sim:0h1m41s) 
CPU  0 inst:   24000000 cyc:   13327809 now IPC :1.91726: AVG IPC :1.78156: L2-Pf-HR :0.88580: L2-HR :0.87269: (Sim:0h1m45s) 
CPU  0 inst:   25000001 cyc:   14045998 now IPC :1.39239: AVG IPC :1.76017: L2-Pf-HR :0.88474: L2-HR :0.87164: (Sim:0h1m50s) 
CPU  0 inst:   26000001 cyc:   14589861 now IPC :1.83870: AVG IPC :1.76331: L2-Pf-HR :0.88433: L2-HR :0.87099: (Sim:0h1m54s) 
CPU  0 inst:   27000002 cyc:   15132257 now IPC :1.84367: AVG IPC :1.76639: L2-Pf-HR :0.88392: L2-HR :0.87037: (Sim:0h1m59s) 
CPU  0 inst:   28000000 cyc:   15677360 now IPC :1.83451: AVG IPC :1.76891: L2-Pf-HR :0.88347: L2-HR :0.86974: (Sim:0h2m4s) 
CPU  0 inst:   29000003 cyc:   16229216 now IPC :1.81207: AVG IPC :1.77048: L2-Pf-HR :0.88306: L2-HR :0.86915: (Sim:0h2m8s) 
CPU  0 inst:   30000002 cyc:   16774913 now IPC :1.83252: AVG IPC :1.77262: L2-Pf-HR :0.88304: L2-HR :0.86894: (Sim:0h2m13s) 
CPU  0 inst:   31000002 cyc:   17378403 now IPC :1.65703: AVG IPC :1.76837: L2-Pf-HR :0.88409: L2-HR :0.87031: (Sim:0h2m17s) 
CPU  0 inst:   32000000 cyc:   17900380 now IPC :1.91579: AVG IPC :1.77291: L2-Pf-HR :0.88650: L2-HR :0.87319: (Sim:0h2m22s) 
CPU  0 inst:   33000002 cyc:   18610775 now IPC :1.40767: AVG IPC :1.75820: L2-Pf-HR :0.88590: L2-HR :0.87259: (Sim:0h2m26s) 
CPU  0 inst:   34000000 cyc:   19153286 now IPC :1.84328: AVG IPC :1.76074: L2-Pf-HR :0.88546: L2-HR :0.87198: (Sim:0h2m30s) 
CPU  0 inst:   35000002 cyc:   19694684 now IPC :1.84707: AVG IPC :1.76323: L2-Pf-HR :0.88504: L2-HR :0.87142: (Sim:0h2m34s) 
CPU  0 inst:   36000000 cyc:   20246871 now IPC :1.81098: AVG IPC :1.76460: L2-Pf-HR :0.88464: L2-HR :0.87088: (Sim:0h2m38s) 
CPU  0 inst:   37000002 cyc:   20787982 now IPC :1.84805: AVG IPC :1.76688: L2-Pf-HR :0.88434: L2-HR :0.87046: (Sim:0h2m42s) 
CPU  0 inst:   38000001 cyc:   21340347 now IPC :1.81040: AVG IPC :1.76806: L2-Pf-HR :0.88428: L2-HR :0.87025: (Sim:0h2m47s) 
CPU  0 inst:   39000001 cyc:   21943833 now IPC :1.65704: AVG IPC :1.76487: L2-Pf-HR :0.88492: L2-HR :0.87112: (Sim:0h2m52s) 
CPU  0 inst:   40000000 cyc:   22463357 now IPC :1.92484: AVG IPC :1.76874: L2-Pf-HR :0.88676: L2-HR :0.87333: (Sim:0h2m56s) 
CPU  0 inst:   41000003 cyc:   23167482 now IPC :1.42021: AVG IPC :1.75768: L2-Pf-HR :0.88632: L2-HR :0.87291: (Sim:0h3m1s) 
CPU  0 inst:   42000000 cyc:   23705938 now IPC :1.85716: AVG IPC :1.76003: L2-Pf-HR :0.88600: L2-HR :0.87247: (Sim:0h3m5s) 
CPU  0 inst:   43000001 cyc:   24251947 now IPC :1.83147: AVG IPC :1.76171: L2-Pf-HR :0.88568: L2-HR :0.87202: (Sim:0h3m9s) 
CPU  0 inst:   44000000 cyc:   24796610 now IPC :1.83600: AVG IPC :1.76341: L2-Pf-HR :0.88532: L2-HR :0.87154: (Sim:0h3m13s) 
CPU  0 inst:   45000002 cyc:   25340638 now IPC :1.83814: AVG IPC :1.76508: L2-Pf-HR :0.88499: L2-HR :0.87111: (Sim:0h3m18s) 
CPU  0 inst:   46000001 cyc:   25893222 now IPC :1.80968: AVG IPC :1.76607: L2-Pf-HR :0.88491: L2-HR :0.87091: (Sim:0h3m22s) 
CPU  0 inst:   47000002 cyc:   26496473 now IPC :1.65769: AVG IPC :1.76350: L2-Pf-HR :0.88540: L2-HR :0.87157: (Sim:0h3m27s) 
CPU  0 inst:   48000000 cyc:   27015732 now IPC :1.92582: AVG IPC :1.76674: L2-Pf-HR :0.88687: L2-HR :0.87335: (Sim:0h3m31s) 
CPU  0 inst:   49000000 cyc:   27710410 now IPC :1.43952: AVG IPC :1.75824: L2-Pf-HR :0.88654: L2-HR :0.87308: (Sim:0h3m36s) 
CPU  0 inst:   50000000 cyc:   28251217 now IPC :1.84909: AVG IPC :1.76004: L2-Pf-HR :0.88626: L2-HR :0.87269: (Sim:0h3m40s) 
CPU  0 inst:   51000002 cyc:   28795020 now IPC :1.83890: AVG IPC :1.76158: L2-Pf-HR :0.88593: L2-HR :0.87225: (Sim:0h3m45s) 
CPU  0 inst:   52000000 cyc:   29342433 now IPC :1.82677: AVG IPC :1.76284: L2-Pf-HR :0.88558: L2-HR :0.87182: (Sim:0h3m50s) 
CPU  0 inst:   53000002 cyc:   29882808 now IPC :1.85057: AVG IPC :1.76448: L2-Pf-HR :0.88533: L2-HR :0.87148: (Sim:0h3m54s) 
CPU  0 inst:   54000001 cyc:   30435197 now IPC :1.81032: AVG IPC :1.76534: L2-Pf-HR :0.88526: L2-HR :0.87130: (Sim:0h3m58s) 
CPU  0 inst:   55000003 cyc:   31041549 now IPC :1.64921: AVG IPC :1.76300: L2-Pf-HR :0.88569: L2-HR :0.87186: (Sim:0h4m3s) 
CPU  0 inst:   56000000 cyc:   31561580 now IPC :1.92296: AVG IPC :1.76572: L2-Pf-HR :0.88696: L2-HR :0.87338: (Sim:0h4m7s) 
CPU  0 inst:   57000002 cyc:   32268125 now IPC :1.41534: AVG IPC :1.75780: L2-Pf-HR :0.88666: L2-HR :0.87313: (Sim:0h4m12s) 
CPU  0 inst:   58000002 cyc:   32807606 now IPC :1.85363: AVG IPC :1.75943: L2-Pf-HR :0.88647: L2-HR :0.87285: (Sim:0h4m16s) 
CPU  0 inst:   59000000 cyc:   33351968 now IPC :1.83701: AVG IPC :1.76073: L2-Pf-HR :0.88620: L2-HR :0.87248: (Sim:0h4m21s) 
CPU  0 inst:   60000000 cyc:   33890415 now IPC :1.85719: AVG IPC :1.76231: L2-Pf-HR :0.88590: L2-HR :0.87211: (Sim:0h4m25s) 
CPU  0 inst:   61000003 cyc:   34438085 now IPC :1.82592: AVG IPC :1.76335: L2-Pf-HR :0.88570: L2-HR :0.87183: (Sim:0h4m29s) 
CPU  0 inst:   62000001 cyc:   34984647 now IPC :1.82961: AVG IPC :1.76442: L2-Pf-HR :0.88559: L2-HR :0.87163: (Sim:0h4m34s) 
CPU  0 inst:   63000003 cyc:   35594758 now IPC :1.63905: AVG IPC :1.76221: L2-Pf-HR :0.88586: L2-HR :0.87200: (Sim:0h4m38s) 
CPU  0 inst:   64000000 cyc:   36113446 now IPC :1.92794: AVG IPC :1.76465: L2-Pf-HR :0.88693: L2-HR :0.87330: (Sim:0h4m43s) 
CPU  0 inst:   65000002 cyc:   36824768 now IPC :1.40584: AVG IPC :1.75753: L2-Pf-HR :0.88669: L2-HR :0.87313: (Sim:0h4m47s) 
CPU  0 inst:   66000000 cyc:   37373154 now IPC :1.82353: AVG IPC :1.75853: L2-Pf-HR :0.88657: L2-HR :0.87291: (Sim:0h4m52s) 
CPU  0 inst:   67000003 cyc:   37915524 now IPC :1.84377: AVG IPC :1.75978: L2-Pf-HR :0.88631: L2-HR :0.87259: (Sim:0h4m56s) 
CPU  0 inst:   68000000 cyc:   38455506 now IPC :1.85191: AVG IPC :1.76111: L2-Pf-HR :0.88611: L2-HR :0.87231: (Sim:0h5m0s) 
CPU  0 inst:   69000003 cyc:   39003709 now IPC :1.82415: AVG IPC :1.76202: L2-Pf-HR :0.88591: L2-HR :0.87205: (Sim:0h5m5s) 
CPU  0 inst:   70000001 cyc:   39546608 now IPC :1.84196: AVG IPC :1.76314: L2-Pf-HR :0.88580: L2-HR :0.87186: (Sim:0h5m10s) 
CPU  0 inst:   71000003 cyc:   40159876 now IPC :1.63061: AVG IPC :1.76107: L2-Pf-HR :0.88606: L2-HR :0.87220: (Sim:0h5m14s) 
CPU  0 inst:   72000000 cyc:   40679342 now IPC :1.92505: AVG IPC :1.76321: L2-Pf-HR :0.88698: L2-HR :0.87333: (Sim:0h5m18s) 
CPU  0 inst:   73000003 cyc:   41374464 now IPC :1.43860: AVG IPC :1.75763: L2-Pf-HR :0.88684: L2-HR :0.87325: (Sim:0h5m22s) 
CPU  0 inst:   74000001 cyc:   41915286 now IPC :1.84903: AVG IPC :1.75883: L2-Pf-HR :0.88665: L2-HR :0.87299: (Sim:0h5m27s) 
CPU  0 inst:   75000003 cyc:   42463993 now IPC :1.82247: AVG IPC :1.75968: L2-Pf-HR :0.88642: L2-HR :0.87269: (Sim:0h5m31s) 
CPU  0 inst:   76000000 cyc:   43001902 now IPC :1.85904: AVG IPC :1.76095: L2-Pf-HR :0.88622: L2-HR :0.87242: (Sim:0h5m35s) 
CPU  0 inst:   77000001 cyc:   43543414 now IPC :1.84668: AVG IPC :1.76204: L2-Pf-HR :0.88601: L2-HR :0.87215: (Sim:0h5m39s) 
CPU  0 inst:   78000001 cyc:   44087276 now IPC :1.83870: AVG IPC :1.76301: L2-Pf-HR :0.88594: L2-HR :0.87202: (Sim:0h5m43s) 
CPU  0 inst:   79000002 cyc:   44699229 now IPC :1.63411: AVG IPC :1.76120: L2-Pf-HR :0.88611: L2-HR :0.87224: (Sim:0h5m48s) 
CPU  0 inst:   80000000 cyc:   45219158 now IPC :1.92334: AVG IPC :1.76311: L2-Pf-HR :0.88693: L2-HR :0.87326: (Sim:0h5m52s) 
CPU  0 inst:   81000000 cyc:   45909715 now IPC :1.44811: AVG IPC :1.75827: L2-Pf-HR :0.88689: L2-HR :0.87327: (Sim:0h5m57s) 
CPU  0 inst:   82000001 cyc:   46456608 now IPC :1.82851: AVG IPC :1.75911: L2-Pf-HR :0.88673: L2-HR :0.87305: (Sim:0h6m1s) 
CPU  0 inst:   83000002 cyc:   46993254 now IPC :1.86343: AVG IPC :1.76033: L2-Pf-HR :0.88654: L2-HR :0.87279: (Sim:0h6m6s) 
CPU  0 inst:   84000000 cyc:   47536880 now IPC :1.83950: AVG IPC :1.76125: L2-Pf-HR :0.88635: L2-HR :0.87255: (Sim:0h6m11s) 
CPU  0 inst:   85000002 cyc:   48084720 now IPC :1.82535: AVG IPC :1.76200: L2-Pf-HR :0.88618: L2-HR :0.87232: (Sim:0h6m15s) 
CPU  0 inst:   86000001 cyc:   48624706 now IPC :1.85190: AVG IPC :1.76302: L2-Pf-HR :0.88615: L2-HR :0.87223: (Sim:0h6m19s) 
CPU  0 inst:   87000003 cyc:   49239586 now IPC :1.62634: AVG IPC :1.76127: L2-Pf-HR :0.88628: L2-HR :0.87239: (Sim:0h6m24s) 
CPU  0 inst:   88000000 cyc:   49759400 now IPC :1.92376: AVG IPC :1.76301: L2-Pf-HR :0.88703: L2-HR :0.87332: (Sim:0h6m28s) 
CPU  0 inst:   89000002 cyc:   50458654 now IPC :1.43010: AVG IPC :1.75830: L2-Pf-HR :0.88698: L2-HR :0.87334: (Sim:0h6m33s) 
CPU  0 inst:   90000003 cyc:   51005482 now IPC :1.82873: AVG IPC :1.75907: L2-Pf-HR :0.88685: L2-HR :0.87315: (Sim:0h6m38s) 
CPU  0 inst:   91000002 cyc:   51542953 now IPC :1.86056: AVG IPC :1.76015: L2-Pf-HR :0.88670: L2-HR :0.87294: (Sim:0h6m43s) 
CPU  0 inst:   92000000 cyc:   52084585 now IPC :1.84627: AVG IPC :1.76106: L2-Pf-HR :0.88654: L2-HR :0.87273: (Sim:0h6m47s) 
CPU  0 inst:   93000002 cyc:   52630019 now IPC :1.83341: AVG IPC :1.76183: L2-Pf-HR :0.88637: L2-HR :0.87251: (Sim:0h6m52s) 
CPU  0 inst:   94000003 cyc:   53172567 now IPC :1.84316: AVG IPC :1.76267: L2-Pf-HR :0.88631: L2-HR :0.87239: (Sim:0h6m56s) 
CPU  0 inst:   95000003 cyc:   53779132 now IPC :1.64863: AVG IPC :1.76136: L2-Pf-HR :0.88642: L2-HR :0.87253: (Sim:0h7m1s) 
CPU  0 inst:   96000000 cyc:   54296949 now IPC :1.93118: AVG IPC :1.76301: L2-Pf-HR :0.88709: L2-HR :0.87336: (Sim:0h7m5s) 
CPU  0 inst:   97000000 cyc:   54998318 now IPC :1.42578: AVG IPC :1.75863: L2-Pf-HR :0.88708: L2-HR :0.87342: (Sim:0h7m10s) 
CPU  0 inst:   98000001 cyc:   55548876 now IPC :1.81634: AVG IPC :1.75922: L2-Pf-HR :0.88695: L2-HR :0.87323: (Sim:0h7m15s) 
CPU  0 inst:   99000003 cyc:   56084739 now IPC :1.86615: AVG IPC :1.76025: L2-Pf-HR :0.88679: L2-HR :0.87303: (Sim:0h7m19s) 
CPU  0 inst:  100000000 cyc:   56631913 now IPC :1.82757: AVG IPC :1.76092: L2-Pf-HR :0.88667: L2-HR :0.87285: (Sim:0h7m23s) 
CPU  0 inst:  101000002 cyc:   57170836 now IPC :1.85556: AVG IPC :1.76182: L2-Pf-HR :0.88655: L2-HR :0.87268: (Sim:0h7m27s) 
CPU  0 inst:  102000002 cyc:   57721365 now IPC :1.81643: AVG IPC :1.76235: L2-Pf-HR :0.88649: L2-HR :0.87257: (Sim:0h7m32s) 
CPU  0 inst:  103000001 cyc:   58331987 now IPC :1.63767: AVG IPC :1.76103: L2-Pf-HR :0.88654: L2-HR :0.87264: (Sim:0h7m36s) 
CPU  0 inst:  104000000 cyc:   58849882 now IPC :1.93089: AVG IPC :1.76255: L2-Pf-HR :0.88714: L2-HR :0.87339: (Sim:0h7m41s) 
CPU  0 inst:  105000000 cyc:   59553594 now IPC :1.42104: AVG IPC :1.75844: L2-Pf-HR :0.88716: L2-HR :0.87349: (Sim:0h7m45s) 
CPU  0 inst:  106000002 cyc:   60096054 now IPC :1.84346: AVG IPC :1.75922: L2-Pf-HR :0.88704: L2-HR :0.87331: (Sim:0h7m48s) 
CPU  0 inst:  107000002 cyc:   60638694 now IPC :1.84284: AVG IPC :1.75998: L2-Pf-HR :0.88689: L2-HR :0.87312: (Sim:0h7m52s) 
CPU  0 inst:  108000000 cyc:   61188052 now IPC :1.82030: AVG IPC :1.76054: L2-Pf-HR :0.88678: L2-HR :0.87295: (Sim:0h7m57s) 
CPU  0 inst:  109000002 cyc:   61729631 now IPC :1.84646: AVG IPC :1.76130: L2-Pf-HR :0.88665: L2-HR :0.87278: (Sim:0h8m0s) 
CPU  0 inst:  110000002 cyc:   62272644 now IPC :1.84158: AVG IPC :1.76201: L2-Pf-HR :0.88661: L2-HR :0.87269: (Sim:0h8m4s) 
CPU  0 inst:  111000002 cyc:   62885265 now IPC :1.63233: AVG IPC :1.76073: L2-Pf-HR :0.88664: L2-HR :0.87274: (Sim:0h8m8s) 
CPU  0 inst:  112000000 cyc:   63405597 now IPC :1.92185: AVG IPC :1.76207: L2-Pf-HR :0.88721: L2-HR :0.87344: (Sim:0h8m11s) 
CPU  0 inst:  113000002 cyc:   64103517 now IPC :1.43283: AVG IPC :1.75843: L2-Pf-HR :0.88724: L2-HR :0.87355: (Sim:0h8m16s) 
CPU  0 inst:  114000003 cyc:   64643643 now IPC :1.85142: AVG IPC :1.75922: L2-Pf-HR :0.88714: L2-HR :0.87340: (Sim:0h8m20s) 
CPU  0 inst:  115000003 cyc:   65188980 now IPC :1.83373: AVG IPC :1.75985: L2-Pf-HR :0.88703: L2-HR :0.87324: (Sim:0h8m23s) 
CPU  0 inst:  116000000 cyc:   65732476 now IPC :1.83993: AVG IPC :1.76053: L2-Pf-HR :0.88687: L2-HR :0.87305: (Sim:0h8m28s) 
CPU  0 inst:  117000003 cyc:   66270351 now IPC :1.85917: AVG IPC :1.76134: L2-Pf-HR :0.88673: L2-HR :0.87287: (Sim:0h8m32s) 
CPU  0 inst:  118000000 cyc:   66821078 now IPC :1.81578: AVG IPC :1.76179: L2-Pf-HR :0.88668: L2-HR :0.87277: (Sim:0h8m36s) 
CPU  0 inst:  119000003 cyc:   67433865 now IPC :1.63189: AVG IPC :1.76060: L2-Pf-HR :0.88672: L2-HR :0.87282: (Sim:0h8m40s) 
CPU  0 inst:  120000000 cyc:   67954805 now IPC :1.91960: AVG IPC :1.76183: L2-Pf-HR :0.88726: L2-HR :0.87348: (Sim:0h8m44s) 
CPU  0 inst:  121000003 cyc:   68657233 now IPC :1.42364: AVG IPC :1.75832: L2-Pf-HR :0.88729: L2-HR :0.87359: (Sim:0h8m49s) 
CPU  0 inst:  122000001 cyc:   69200200 now IPC :1.84173: AVG IPC :1.75899: L2-Pf-HR :0.88721: L2-HR :0.87346: (Sim:0h8m53s) 
CPU  0 inst:  123000001 cyc:   69740985 now IPC :1.84916: AVG IPC :1.75970: L2-Pf-HR :0.88709: L2-HR :0.87329: (Sim:0h8m57s) 
CPU  0 inst:  124000000 cyc:   70277216 now IPC :1.86487: AVG IPC :1.76051: L2-Pf-HR :0.88696: L2-HR :0.87313: (Sim:0h9m2s) 
CPU  0 inst:  125000001 cyc:   70826943 now IPC :1.81909: AVG IPC :1.76097: L2-Pf-HR :0.88687: L2-HR :0.87299: (Sim:0h9m6s) 
CPU  0 inst:  126000003 cyc:   71376312 now IPC :1.82027: AVG IPC :1.76143: L2-Pf-HR :0.88679: L2-HR :0.87288: (Sim:0h9m11s) 
CPU  0 inst:  127000000 cyc:   71992620 now IPC :1.62256: AVG IPC :1.76023: L2-Pf-HR :0.88680: L2-HR :0.87288: (Sim:0h9m15s) 
CPU  0 inst:  128000000 cyc:   72510743 now IPC :1.93004: AVG IPC :1.76146: L2-Pf-HR :0.88727: L2-HR :0.87347: (Sim:0h9m20s) 
CPU  0 inst:  129000001 cyc:   73194017 now IPC :1.46354: AVG IPC :1.75864: L2-Pf-HR :0.88734: L2-HR :0.87363: (Sim:0h9m25s) 
CPU  0 inst:  130000001 cyc:   73742399 now IPC :1.82355: AVG IPC :1.75913: L2-Pf-HR :0.88730: L2-HR :0.87353: (Sim:0h9m29s) 
CPU  0 inst:  131000001 cyc:   74285677 now IPC :1.84068: AVG IPC :1.75973: L2-Pf-HR :0.88718: L2-HR :0.87337: (Sim:0h9m34s) 
CPU  0 inst:  132000000 cyc:   74825417 now IPC :1.85274: AVG IPC :1.76041: L2-Pf-HR :0.88708: L2-HR :0.87323: (Sim:0h9m38s) 
CPU  0 inst:  133000002 cyc:   75374124 now IPC :1.82247: AVG IPC :1.76087: L2-Pf-HR :0.88698: L2-HR :0.87309: (Sim:0h9m42s) 
CPU  0 inst:  134000002 cyc:   75922209 now IPC :1.82453: AVG IPC :1.76134: L2-Pf-HR :0.88691: L2-HR :0.87298: (Sim:0h9m47s) 
CPU  0 inst:  135000002 cyc:   76537272 now IPC :1.62585: AVG IPC :1.76023: L2-Pf-HR :0.88692: L2-HR :0.87299: (Sim:0h9m51s) 
CPU  0 inst:  136000000 cyc:   77057541 now IPC :1.92208: AVG IPC :1.76134: L2-Pf-HR :0.88736: L2-HR :0.87354: (Sim:0h9m56s) 
CPU  0 inst:  137000001 cyc:   77747442 now IPC :1.44948: AVG IPC :1.75854: L2-Pf-HR :0.88744: L2-HR :0.87370: (Sim:0h10m0s) 
CPU  0 inst:  138000000 cyc:   78306759 now IPC :1.78789: AVG IPC :1.75875: L2-Pf-HR :0.88737: L2-HR :0.87358: (Sim:0h10m5s) 
CPU  0 inst:  139000001 cyc:   78850052 now IPC :1.84063: AVG IPC :1.75932: L2-Pf-HR :0.88725: L2-HR :0.87343: (Sim:0h10m10s) 
CPU  0 inst:  140000000 cyc:   79392434 now IPC :1.84372: AVG IPC :1.75990: L2-Pf-HR :0.88715: L2-HR :0.87329: (Sim:0h10m14s) 
CPU  0 inst:  141000002 cyc:   79941239 now IPC :1.82214: AVG IPC :1.76034: L2-Pf-HR :0.88705: L2-HR :0.87316: (Sim:0h10m19s) 
CPU  0 inst:  142000001 cyc:   80482747 now IPC :1.84669: AVG IPC :1.76093: L2-Pf-HR :0.88698: L2-HR :0.87305: (Sim:0h10m23s) 
CPU  0 inst:  143000002 cyc:   81101365 now IPC :1.61651: AVG IPC :1.75981: L2-Pf-HR :0.88697: L2-HR :0.87303: (Sim:0h10m27s) 
CPU  0 inst:  144000000 cyc:   81620537 now IPC :1.92614: AVG IPC :1.76088: L2-Pf-HR :0.88739: L2-HR :0.87356: (Sim:0h10m32s) 
CPU  0 inst:  145000000 cyc:   82292249 now IPC :1.48873: AVG IPC :1.75863: L2-Pf-HR :0.88748: L2-HR :0.87374: (Sim:0h10m36s) 
CPU  0 inst:  146000003 cyc:   82852631 now IPC :1.78450: AVG IPC :1.75881: L2-Pf-HR :0.88742: L2-HR :0.87363: (Sim:0h10m40s) 
CPU  0 inst:  147000003 cyc:   83393326 now IPC :1.84947: AVG IPC :1.75940: L2-Pf-HR :0.88733: L2-HR :0.87351: (Sim:0h10m44s) 
CPU  0 inst:  148000000 cyc:   83939219 now IPC :1.83186: AVG IPC :1.75988: L2-Pf-HR :0.88725: L2-HR :0.87338: (Sim:0h10m48s) 
CPU  0 inst:  149000002 cyc:   84487412 now IPC :1.82418: AVG IPC :1.76030: L2-Pf-HR :0.88716: L2-HR :0.87326: (Sim:0h10m53s) 
CPU  0 inst:  150000000 cyc:   85028487 now IPC :1.84817: AVG IPC :1.76087: L2-Pf-HR :0.88712: L2-HR :0.87318: (Sim:0h10m57s) 
CPU  0 inst:  151000001 cyc:   85649454 now IPC :1.61039: AVG IPC :1.75977: L2-Pf-HR :0.88708: L2-HR :0.87314: (Sim:0h11m2s) 
CPU  0 inst:  152000000 cyc:   86169533 now IPC :1.92278: AVG IPC :1.76076: L2-Pf-HR :0.88749: L2-HR :0.87364: (Sim:0h11m5s) 
CPU  0 inst:  153000000 cyc:   86837833 now IPC :1.49633: AVG IPC :1.75870: L2-Pf-HR :0.88758: L2-HR :0.87382: (Sim:0h11m10s) 
CPU  0 inst:  154000003 cyc:   87409921 now IPC :1.74799: AVG IPC :1.75863: L2-Pf-HR :0.88751: L2-HR :0.87371: (Sim:0h11m14s) 
CPU  0 inst:  155000002 cyc:   87949211 now IPC :1.85429: AVG IPC :1.75922: L2-Pf-HR :0.88742: L2-HR :0.87358: (Sim:0h11m19s) 
CPU  0 inst:  156000000 cyc:   88495453 now IPC :1.83069: AVG IPC :1.75967: L2-Pf-HR :0.88730: L2-HR :0.87344: (Sim:0h11m23s) 
CPU  0 inst:  157000001 cyc:   89047172 now IPC :1.81252: AVG IPC :1.76000: L2-Pf-HR :0.88720: L2-HR :0.87330: (Sim:0h11m28s) 
CPU  0 inst:  158000003 cyc:   89590013 now IPC :1.84216: AVG IPC :1.76051: L2-Pf-HR :0.88716: L2-HR :0.87323: (Sim:0h11m32s) 
CPU  0 inst:  159000000 cyc:   90200078 now IPC :1.63916: AVG IPC :1.75968: L2-Pf-HR :0.88710: L2-HR :0.87315: (Sim:0h11m37s) 
CPU  0 inst:  160000000 cyc:   90723393 now IPC :1.91089: AVG IPC :1.76056: L2-Pf-HR :0.88746: L2-HR :0.87362: (Sim:0h11m41s) 
CPU  0 inst:  161000000 cyc:   91381568 now IPC :1.51935: AVG IPC :1.75880: L2-Pf-HR :0.88758: L2-HR :0.87382: (Sim:0h11m46s) 
CPU  0 inst:  162000003 cyc:   91957056 now IPC :1.73766: AVG IPC :1.75867: L2-Pf-HR :0.88752: L2-HR :0.87372: (Sim:0h11m50s) 
CPU  0 inst:  163000000 cyc:   92495619 now IPC :1.85679: AVG IPC :1.75924: L2-Pf-HR :0.88743: L2-HR :0.87360: (Sim:0h11m54s) 
CPU  0 inst:  164000000 cyc:   93042366 now IPC :1.82900: AVG IPC :1.75966: L2-Pf-HR :0.88735: L2-HR :0.87348: (Sim:0h11m57s) 
CPU  0 inst:  165000003 cyc:   93582535 now IPC :1.85128: AVG IPC :1.76019: L2-Pf-HR :0.88726: L2-HR :0.87336: (Sim:0h12m0s) 
CPU  0 inst:  166000000 cyc:   94134855 now IPC :1.81054: AVG IPC :1.76049: L2-Pf-HR :0.88720: L2-HR :0.87328: (Sim:0h12m4s) 
CPU  0 inst:  167000002 cyc:   94747055 now IPC :1.63346: AVG IPC :1.75966: L2-Pf-HR :0.88713: L2-HR :0.87319: (Sim:0h12m8s) 
CPU  0 inst:  168000000 cyc:   95269997 now IPC :1.91225: AVG IPC :1.76051: L2-Pf-HR :0.88748: L2-HR :0.87362: (Sim:0h12m11s) 
CPU  0 inst:  169000003 cyc:   95920124 now IPC :1.53817: AVG IPC :1.75899: L2-Pf-HR :0.88759: L2-HR :0.87382: (Sim:0h12m16s) 
CPU  0 inst:  170000000 cyc:   96498445 now IPC :1.72914: AVG IPC :1.75881: L2-Pf-HR :0.88753: L2-HR :0.87372: (Sim:0h12m20s) 
CPU  0 inst:  171000001 cyc:   97044192 now IPC :1.83235: AVG IPC :1.75922: L2-Pf-HR :0.88745: L2-HR :0.87361: (Sim:0h12m24s) 
CPU  0 inst:  172000000 cyc:   97589222 now IPC :1.83476: AVG IPC :1.75965: L2-Pf-HR :0.88735: L2-HR :0.87348: (Sim:0h12m28s) 
CPU  0 inst:  173000001 cyc:   98129668 now IPC :1.85033: AVG IPC :1.76015: L2-Pf-HR :0.88727: L2-HR :0.87337: (Sim:0h12m33s) 
CPU  0 inst:  174000001 cyc:   98678365 now IPC :1.82250: AVG IPC :1.76050: L2-Pf-HR :0.88722: L2-HR :0.87330: (Sim:0h12m37s) 
CPU  0 inst:  175000002 cyc:   99297759 now IPC :1.61448: AVG IPC :1.75958: L2-Pf-HR :0.88714: L2-HR :0.87319: (Sim:0h12m42s) 
CPU  0 inst:  176000000 cyc:   99822120 now IPC :1.90708: AVG IPC :1.76037: L2-Pf-HR :0.88748: L2-HR :0.87361: (Sim:0h12m46s) 
CPU  0 inst:  177000001 cyc:  100455226 now IPC :1.57952: AVG IPC :1.75922: L2-Pf-HR :0.88760: L2-HR :0.87383: (Sim:0h12m50s) 
CPU  0 inst:  178000001 cyc:  101044314 now IPC :1.69754: AVG IPC :1.75885: L2-Pf-HR :0.88755: L2-HR :0.87373: (Sim:0h12m55s) 
CPU  0 inst:  179000002 cyc:  101585706 now IPC :1.84709: AVG IPC :1.75933: L2-Pf-HR :0.88746: L2-HR :0.87362: (Sim:0h12m59s) 
CPU  0 inst:  180000000 cyc:  102127915 now IPC :1.84430: AVG IPC :1.75978: L2-Pf-HR :0.88734: L2-HR :0.87348: (Sim:0h13m4s) 
CPU  0 inst:  181000002 cyc:  102668092 now IPC :1.85125: AVG IPC :1.76027: L2-Pf-HR :0.88725: L2-HR :0.87336: (Sim:0h13m8s) 
CPU  0 inst:  182000002 cyc:  103213964 now IPC :1.83193: AVG IPC :1.76065: L2-Pf-HR :0.88719: L2-HR :0.87327: (Sim:0h13m12s) 
CPU  0 inst:  183000003 cyc:  103832276 now IPC :1.61731: AVG IPC :1.75979: L2-Pf-HR :0.88712: L2-HR :0.87317: (Sim:0h13m15s) 
CPU  0 inst:  184000000 cyc:  104357619 now IPC :1.90351: AVG IPC :1.76052: L2-Pf-HR :0.88744: L2-HR :0.87358: (Sim:0h13m20s) 
CPU  0 inst:  185000003 cyc:  104994493 now IPC :1.57017: AVG IPC :1.75935: L2-Pf-HR :0.88757: L2-HR :0.87379: (Sim:0h13m24s) 
CPU  0 inst:  186000000 cyc:  105590571 now IPC :1.67763: AVG IPC :1.75889: L2-Pf-HR :0.88751: L2-HR :0.87370: (Sim:0h13m29s) 
CPU  0 inst:  187000001 cyc:  106137502 now IPC :1.82839: AVG IPC :1.75925: L2-Pf-HR :0.88743: L2-HR :0.87359: (Sim:0h13m33s) 
CPU  0 inst:  188000000 cyc:  106678099 now IPC :1.84980: AVG IPC :1.75971: L2-Pf-HR :0.88733: L2-HR :0.87347: (Sim:0h13m37s) 
CPU  0 inst:  189000002 cyc:  107226869 now IPC :1.82226: AVG IPC :1.76004: L2-Pf-HR :0.88724: L2-HR :0.87335: (Sim:0h13m41s) 
CPU  0 inst:  190000000 cyc:  107775644 now IPC :1.82224: AVG IPC :1.76036: L2-Pf-HR :0.88716: L2-HR :0.87325: (Sim:0h13m46s) 
CPU  0 inst:  191000003 cyc:  108382196 now IPC :1.64867: AVG IPC :1.75973: L2-Pf-HR :0.88707: L2-HR :0.87314: (Sim:0h13m50s) 
CPU  0 inst:  192000000 cyc:  108915816 now IPC :1.87399: AVG IPC :1.76029: L2-Pf-HR :0.88736: L2-HR :0.87350: (Sim:0h13m54s) 
CPU  0 inst:  193000002 cyc:  109544786 now IPC :1.58990: AVG IPC :1.75930: L2-Pf-HR :0.88749: L2-HR :0.87372: (Sim:0h13m58s) 
CPU  0 inst:  194000003 cyc:  110147815 now IPC :1.65830: AVG IPC :1.75875: L2-Pf-HR :0.88744: L2-HR :0.87363: (Sim:0h14m2s) 
CPU  0 inst:  195000001 cyc:  110694541 now IPC :1.82907: AVG IPC :1.75910: L2-Pf-HR :0.88735: L2-HR :0.87351: (Sim:0h14m6s) 
CPU  0 inst:  196000000 cyc:  111232546 now IPC :1.85872: AVG IPC :1.75958: L2-Pf-HR :0.88725: L2-HR :0.87340: (Sim:0h14m10s) 
CPU  0 inst:  197000002 cyc:  111780343 now IPC :1.82550: AVG IPC :1.75991: L2-Pf-HR :0.88717: L2-HR :0.87329: (Sim:0h14m14s) 
CPU  0 inst:  198000000 cyc:  112327281 now IPC :1.82836: AVG IPC :1.76024: L2-Pf-HR :0.88709: L2-HR :0.87319: (Sim:0h14m18s) 
CPU  0 inst:  199000003 cyc:  112929877 now IPC :1.65949: AVG IPC :1.75970: L2-Pf-HR :0.88702: L2-HR :0.87310: (Sim:0h14m22s) 
CPU  0 inst:  200000000 cyc:  113466586 now IPC :1.86320: AVG IPC :1.76020: L2-Pf-HR :0.88730: L2-HR :0.87344: (Sim:0h14m26s) 
CPU  0 inst:  201000001 cyc:  114046861 now IPC :1.72332: AVG IPC :1.76001: L2-Pf-HR :0.88756: L2-HR :0.87378: (Sim:0h14m31s) 
CPU  0 inst:  202000002 cyc:  114689273 now IPC :1.55664: AVG IPC :1.75886: L2-Pf-HR :0.88740: L2-HR :0.87360: (Sim:0h14m35s) 
CPU  0 inst:  203000002 cyc:  115234926 now IPC :1.83267: AVG IPC :1.75921: L2-Pf-HR :0.88731: L2-HR :0.87349: (Sim:0h14m40s) 
CPU  0 inst:  204000000 cyc:  115772351 now IPC :1.86072: AVG IPC :1.75969: L2-Pf-HR :0.88722: L2-HR :0.87338: (Sim:0h14m44s) 
CPU  0 inst:  205000001 cyc:  116316009 now IPC :1.83939: AVG IPC :1.76006: L2-Pf-HR :0.88714: L2-HR :0.87328: (Sim:0h14m48s) 
CPU  0 inst:  206000001 cyc:  116855882 now IPC :1.85229: AVG IPC :1.76049: L2-Pf-HR :0.88706: L2-HR :0.87318: (Sim:0h14m52s) 
CPU  0 inst:  207000003 cyc:  117427622 now IPC :1.74905: AVG IPC :1.76043: L2-Pf-HR :0.88701: L2-HR :0.87310: (Sim:0h14m57s) 
CPU  0 inst:  208000000 cyc:  118001614 now IPC :1.74218: AVG IPC :1.76034: L2-Pf-HR :0.88724: L2-HR :0.87339: (Sim:0h15m1s) 
CPU  0 inst:  209000002 cyc:  118550249 now IPC :1.82271: AVG IPC :1.76064: L2-Pf-HR :0.88757: L2-HR :0.87380: (Sim:0h15m6s) 
CPU  0 inst:  210000000 cyc:  119235776 now IPC :1.45873: AVG IPC :1.75889: L2-Pf-HR :0.88734: L2-HR :0.87355: (Sim:0h15m11s) 
CPU  0 inst:  211000003 cyc:  119771738 now IPC :1.86581: AVG IPC :1.75937: L2-Pf-HR :0.88725: L2-HR :0.87344: (Sim:0h15m15s) 
CPU  0 inst:  212000000 cyc:  120315027 now IPC :1.84064: AVG IPC :1.75974: L2-Pf-HR :0.88717: L2-HR :0.87333: (Sim:0h15m20s) 
CPU  0 inst:  213000001 cyc:  120857569 now IPC :1.84318: AVG IPC :1.76012: L2-Pf-HR :0.88707: L2-HR :0.87322: (Sim:0h15m24s) 
CPU  0 inst:  214000000 cyc:  121396448 now IPC :1.85570: AVG IPC :1.76054: L2-Pf-HR :0.88700: L2-HR :0.87312: (Sim:0h15m28s) 
CPU  0 inst:  215000001 cyc:  121962813 now IPC :1.76565: AVG IPC :1.76057: L2-Pf-HR :0.88695: L2-HR :0.87305: (Sim:0h15m32s) 
CPU  0 inst:  216000000 cyc:  122544041 now IPC :1.72049: AVG IPC :1.76038: L2-Pf-HR :0.88716: L2-HR :0.87332: (Sim:0h15m37s) 
CPU  0 inst:  217000002 cyc:  123068669 now IPC :1.90612: AVG IPC :1.76100: L2-Pf-HR :0.88751: L2-HR :0.87373: (Sim:0h15m41s) 
CPU  0 inst:  218000000 cyc:  123772666 now IPC :1.42046: AVG IPC :1.75905: L2-Pf-HR :0.88728: L2-HR :0.87349: (Sim:0h15m46s) 
CPU  0 inst:  219000001 cyc:  124307995 now IPC :1.86801: AVG IPC :1.75952: L2-Pf-HR :0.88721: L2-HR :0.87340: (Sim:0h15m50s) 
CPU  0 inst:  220000000 cyc:  124852183 now IPC :1.83760: AVG IPC :1.75987: L2-Pf-HR :0.88712: L2-HR :0.87329: (Sim:0h15m54s) 
CPU  0 inst:  221000002 cyc:  125396794 now IPC :1.83618: AVG IPC :1.76020: L2-Pf-HR :0.88704: L2-HR :0.87319: (Sim:0h15m58s) 
CPU  0 inst:  222000001 cyc:  125938700 now IPC :1.84534: AVG IPC :1.76057: L2-Pf-HR :0.88698: L2-HR :0.87311: (Sim:0h16m3s) 
CPU  0 inst:  223000002 cyc:  126497065 now IPC :1.79094: AVG IPC :1.76070: L2-Pf-HR :0.88694: L2-HR :0.87304: (Sim:0h16m7s) 
CPU  0 inst:  224000000 cyc:  127086829 now IPC :1.69559: AVG IPC :1.76040: L2-Pf-HR :0.88711: L2-HR :0.87327: (Sim:0h16m11s) 
CPU  0 inst:  225000001 cyc:  127610055 now IPC :1.91122: AVG IPC :1.76102: L2-Pf-HR :0.88744: L2-HR :0.87366: (Sim:0h16m14s) 
CPU  0 inst:  226000001 cyc:  128317462 now IPC :1.41361: AVG IPC :1.75909: L2-Pf-HR :0.88724: L2-HR :0.87346: (Sim:0h16m19s) 
CPU  0 inst:  227000001 cyc:  128852358 now IPC :1.86952: AVG IPC :1.75955: L2-Pf-HR :0.88717: L2-HR :0.87337: (Sim:0h16m24s) 
CPU  0 inst:  228000000 cyc:  129396115 now IPC :1.83905: AVG IPC :1.75989: L2-Pf-HR :0.88709: L2-HR :0.87327: (Sim:0h16m29s) 
CPU  0 inst:  229000002 cyc:  129936964 now IPC :1.84895: AVG IPC :1.76026: L2-Pf-HR :0.88701: L2-HR :0.87317: (Sim:0h16m33s) 
CPU  0 inst:  230000002 cyc:  130486863 now IPC :1.81852: AVG IPC :1.76051: L2-Pf-HR :0.88695: L2-HR :0.87308: (Sim:0h16m37s) 
CPU  0 inst:  231000002 cyc:  131038460 now IPC :1.81292: AVG IPC :1.76073: L2-Pf-HR :0.88691: L2-HR :0.87302: (Sim:0h16m42s) 
CPU  0 inst:  232000000 cyc:  131629359 now IPC :1.69233: AVG IPC :1.76042: L2-Pf-HR :0.88707: L2-HR :0.87323: (Sim:0h16m46s) 
CPU  0 inst:  233000002 cyc:  132147176 now IPC :1.93119: AVG IPC :1.76110: L2-Pf-HR :0.88738: L2-HR :0.87361: (Sim:0h16m51s) 
CPU  0 inst:  234000003 cyc:  132850492 now IPC :1.42184: AVG IPC :1.75929: L2-Pf-HR :0.88719: L2-HR :0.87342: (Sim:0h16m55s) 
CPU  0 inst:  235000001 cyc:  133388045 now IPC :1.86028: AVG IPC :1.75970: L2-Pf-HR :0.88713: L2-HR :0.87333: (Sim:0h16m59s) 
CPU  0 inst:  236000000 cyc:  133929943 now IPC :1.84536: AVG IPC :1.76005: L2-Pf-HR :0.88705: L2-HR :0.87324: (Sim:0h17m2s) 
CPU  0 inst:  237000001 cyc:  134468174 now IPC :1.85794: AVG IPC :1.76044: L2-Pf-HR :0.88697: L2-HR :0.87314: (Sim:0h17m6s) 
CPU  0 inst:  238000000 cyc:  135017224 now IPC :1.82133: AVG IPC :1.76069: L2-Pf-HR :0.88690: L2-HR :0.87305: (Sim:0h17m11s) 
CPU  0 inst:  239000002 cyc:  135566937 now IPC :1.81913: AVG IPC :1.76093: L2-Pf-HR :0.88686: L2-HR :0.87299: (Sim:0h17m16s) 
CPU  0 inst:  240000000 cyc:  136164211 now IPC :1.67427: AVG IPC :1.76055: L2-Pf-HR :0.88700: L2-HR :0.87318: (Sim:0h17m20s) 
CPU  0 inst:  241000002 cyc:  136685348 now IPC :1.91889: AVG IPC :1.76116: L2-Pf-HR :0.88731: L2-HR :0.87354: (Sim:0h17m24s) 
CPU  0 inst:  242000003 cyc:  137382055 now IPC :1.43533: AVG IPC :1.75949: L2-Pf-HR :0.88715: L2-HR :0.87338: (Sim:0h17m29s) 
CPU  0 inst:  243000000 cyc:  137923600 now IPC :1.84656: AVG IPC :1.75984: L2-Pf-HR :0.88708: L2-HR :0.87329: (Sim:0h17m33s) 
CPU  0 inst:  244000000 cyc:  138468134 now IPC :1.83643: AVG IPC :1.76014: L2-Pf-HR :0.88700: L2-HR :0.87319: (Sim:0h17m37s) 
CPU  0 inst:  245000001 cyc:  139007127 now IPC :1.85531: AVG IPC :1.76051: L2-Pf-HR :0.88692: L2-HR :0.87309: (Sim:0h17m42s) 
CPU  0 inst:  246000000 cyc:  139558246 now IPC :1.81449: AVG IPC :1.76073: L2-Pf-HR :0.88686: L2-HR :0.87302: (Sim:0h17m46s) 
CPU  0 inst:  247000002 cyc:  140105549 now IPC :1.82715: AVG IPC :1.76099: L2-Pf-HR :0.88683: L2-HR :0.87296: (Sim:0h17m51s) 
CPU  0 inst:  248000000 cyc:  140705594 now IPC :1.66654: AVG IPC :1.76058: L2-Pf-HR :0.88696: L2-HR :0.87314: (Sim:0h17m55s) 
CPU  0 inst:  249000002 cyc:  141224063 now IPC :1.92876: AVG IPC :1.76120: L2-Pf-HR :0.88725: L2-HR :0.87348: (Sim:0h18m0s) 
CPU  0 inst:  250000002 cyc:  141929827 now IPC :1.41690: AVG IPC :1.75948: L2-Pf-HR :0.88711: L2-HR :0.87334: (Sim:0h18m4s) 
CPU  0 inst:  251000000 cyc:  142475018 now IPC :1.83422: AVG IPC :1.75977: L2-Pf-HR :0.88705: L2-HR :0.87327: (Sim:0h18m9s) 
CPU  0 inst:  252000000 cyc:  143008384 now IPC :1.87489: AVG IPC :1.76020: L2-Pf-HR :0.88697: L2-HR :0.87317: (Sim:0h18m13s) 
CPU  0 inst:  253000002 cyc:  143552433 now IPC :1.83807: AVG IPC :1.76050: L2-Pf-HR :0.88690: L2-HR :0.87308: (Sim:0h18m17s) 
CPU  0 inst:  254000000 cyc:  144100675 now IPC :1.82401: AVG IPC :1.76074: L2-Pf-HR :0.88684: L2-HR :0.87300: (Sim:0h18m22s) 
CPU  0 inst:  255000001 cyc:  144640546 now IPC :1.85230: AVG IPC :1.76108: L2-Pf-HR :0.88680: L2-HR :0.87294: (Sim:0h18m26s) 
CPU  0 inst:  256000000 cyc:  145238233 now IPC :1.67311: AVG IPC :1.76072: L2-Pf-HR :0.88692: L2-HR :0.87310: (Sim:0h18m30s) 
CPU  0 inst:  257000002 cyc:  145758317 now IPC :1.92277: AVG IPC :1.76130: L2-Pf-HR :0.88719: L2-HR :0.87343: (Sim:0h18m34s) 
CPU  0 inst:  258000001 cyc:  150768228 now IPC :0.19960: AVG IPC :1.70907: L2-Pf-HR :0.88356: L2-HR :0.87058: (Sim:0h18m47s) 
CPU  0 inst:  259000001 cyc:  157267778 now IPC :0.15386: AVG IPC :1.64439: L2-Pf-HR :0.87885: L2-HR :0.86702: (Sim:0h19m3s) 
CPU  0 inst:  260000000 cyc:  163776167 now IPC :0.15365: AVG IPC :1.58479: L2-Pf-HR :0.87417: L2-HR :0.86352: (Sim:0h19m17s) 
CPU  0 inst:  261000001 cyc:  170285842 now IPC :0.15362: AVG IPC :1.52977: L2-Pf-HR :0.86956: L2-HR :0.86008: (Sim:0h19m32s) 
CPU  0 inst:  262000001 cyc:  176682376 now IPC :0.15633: AVG IPC :1.47977: L2-Pf-HR :0.86515: L2-HR :0.85677: (Sim:0h19m48s) 
CPU  0 inst:  263000000 cyc:  180217972 now IPC :0.28284: AVG IPC :1.45616: L2-Pf-HR :0.86488: L2-HR :0.85641: (Sim:0h19m56s) 
CPU  0 inst:  264000000 cyc:  183743829 now IPC :0.28362: AVG IPC :1.43354: L2-Pf-HR :0.86462: L2-HR :0.85606: (Sim:0h20m5s) 
CPU  0 inst:  265000002 cyc:  187265001 now IPC :0.28400: AVG IPC :1.41181: L2-Pf-HR :0.86439: L2-HR :0.85574: (Sim:0h20m14s) 
CPU  0 inst:  266000002 cyc:  190785165 now IPC :0.28408: AVG IPC :1.39089: L2-Pf-HR :0.86417: L2-HR :0.85542: (Sim:0h20m23s) 
CPU  0 inst:  267000002 cyc:  194306133 now IPC :0.28401: AVG IPC :1.37073: L2-Pf-HR :0.86394: L2-HR :0.85511: (Sim:0h20m32s) 
CPU  0 inst:  268000000 cyc:  197828357 now IPC :0.28391: AVG IPC :1.35129: L2-Pf-HR :0.86372: L2-HR :0.85479: (Sim:0h20m40s) 
CPU  0 inst:  269000001 cyc:  201349687 now IPC :0.28398: AVG IPC :1.33253: L2-Pf-HR :0.86349: L2-HR :0.85448: (Sim:0h20m48s) 
CPU  0 inst:  270000000 cyc:  204870541 now IPC :0.28402: AVG IPC :1.31442: L2-Pf-HR :0.86328: L2-HR :0.85417: (Sim:0h20m57s) 
CPU  0 inst:  271000001 cyc:  208392148 now IPC :0.28396: AVG IPC :1.29693: L2-Pf-HR :0.86305: L2-HR :0.85386: (Sim:0h21m5s) 
CPU  0 inst:  272000000 cyc:  211911280 now IPC :0.28416: AVG IPC :1.28003: L2-Pf-HR :0.86283: L2-HR :0.85355: (Sim:0h21m14s) 
CPU  0 inst:  273000002 cyc:  215432380 now IPC :0.28400: AVG IPC :1.26368: L2-Pf-HR :0.86261: L2-HR :0.85325: (Sim:0h21m22s) 
CPU  0 inst:  274000002 cyc:  218952971 now IPC :0.28404: AVG IPC :1.24786: L2-Pf-HR :0.86240: L2-HR :0.85294: (Sim:0h21m32s) 
CPU  0 inst:  275000002 cyc:  222474363 now IPC :0.28398: AVG IPC :1.23253: L2-Pf-HR :0.86218: L2-HR :0.85264: (Sim:0h21m40s) 
CPU  0 inst:  276000000 cyc:  225996261 now IPC :0.28394: AVG IPC :1.21768: L2-Pf-HR :0.86197: L2-HR :0.85234: (Sim:0h21m49s) 
CPU  0 inst:  277000001 cyc:  229517547 now IPC :0.28399: AVG IPC :1.20330: L2-Pf-HR :0.86176: L2-HR :0.85205: (Sim:0h21m58s) 
CPU  0 inst:  278000000 cyc:  233038301 now IPC :0.28403: AVG IPC :1.18935: L2-Pf-HR :0.86155: L2-HR :0.85175: (Sim:0h22m8s) 
CPU  0 inst:  279000000 cyc:  236558957 now IPC :0.28404: AVG IPC :1.17582: L2-Pf-HR :0.86134: L2-HR :0.85146: (Sim:0h22m15s) 
CPU  0 inst:  280000000 cyc:  240082202 now IPC :0.28383: AVG IPC :1.16268: L2-Pf-HR :0.86113: L2-HR :0.85116: (Sim:0h22m24s) 
CPU  0 inst:  281000001 cyc:  243602601 now IPC :0.28406: AVG IPC :1.14993: L2-Pf-HR :0.86092: L2-HR :0.85087: (Sim:0h22m33s) 
CPU  0 inst:  282000001 cyc:  247124002 now IPC :0.28398: AVG IPC :1.13754: L2-Pf-HR :0.86071: L2-HR :0.85058: (Sim:0h22m43s) 
CPU  0 inst:  283000002 cyc:  250643660 now IPC :0.28412: AVG IPC :1.12551: L2-Pf-HR :0.86050: L2-HR :0.85029: (Sim:0h22m52s) 
CPU  0 inst:  284000000 cyc:  254165840 now IPC :0.28391: AVG IPC :1.11380: L2-Pf-HR :0.86029: L2-HR :0.84999: (Sim:0h23m0s) 
CPU  0 inst:  285000001 cyc:  257686607 now IPC :0.28403: AVG IPC :1.10242: L2-Pf-HR :0.86008: L2-HR :0.84971: (Sim:0h23m7s) 
CPU  0 inst:  286000000 cyc:  261209208 now IPC :0.28388: AVG IPC :1.09134: L2-Pf-HR :0.85987: L2-HR :0.84942: (Sim:0h23m15s) 
CPU  0 inst:  287000000 cyc:  264728188 now IPC :0.28417: AVG IPC :1.08057: L2-Pf-HR :0.85967: L2-HR :0.84914: (Sim:0h23m23s) 
CPU  0 inst:  288000000 cyc:  268251000 now IPC :0.28386: AVG IPC :1.07007: L2-Pf-HR :0.85945: L2-HR :0.84884: (Sim:0h23m31s) 
CPU  0 inst:  289000001 cyc:  271771445 now IPC :0.28406: AVG IPC :1.05985: L2-Pf-HR :0.85926: L2-HR :0.84857: (Sim:0h23m40s) 
CPU  0 inst:  290000003 cyc:  275292592 now IPC :0.28400: AVG IPC :1.04989: L2-Pf-HR :0.85906: L2-HR :0.84829: (Sim:0h23m48s) 
CPU  0 inst:  291000001 cyc:  278813711 now IPC :0.28400: AVG IPC :1.04019: L2-Pf-HR :0.85886: L2-HR :0.84801: (Sim:0h23m57s) 
CPU  0 inst:  292000000 cyc:  282334367 now IPC :0.28404: AVG IPC :1.03073: L2-Pf-HR :0.85867: L2-HR :0.84774: (Sim:0h24m6s) 
CPU  0 inst:  293000001 cyc:  285854847 now IPC :0.28405: AVG IPC :1.02150: L2-Pf-HR :0.85847: L2-HR :0.84747: (Sim:0h24m15s) 
CPU  0 inst:  294000000 cyc:  289376672 now IPC :0.28394: AVG IPC :1.01249: L2-Pf-HR :0.85827: L2-HR :0.84719: (Sim:0h24m24s) 
CPU  0 inst:  295000000 cyc:  292897111 now IPC :0.28406: AVG IPC :1.00371: L2-Pf-HR :0.85807: L2-HR :0.84692: (Sim:0h24m34s) 
CPU  0 inst:  296000000 cyc:  296419519 now IPC :0.28390: AVG IPC :0.99512: L2-Pf-HR :0.85787: L2-HR :0.84664: (Sim:0h24m42s) 
CPU  0 inst:  297000001 cyc:  299942315 now IPC :0.28387: AVG IPC :0.98674: L2-Pf-HR :0.85767: L2-HR :0.84637: (Sim:0h24m51s) 
CPU  0 inst:  298000002 cyc:  303464033 now IPC :0.28395: AVG IPC :0.97856: L2-Pf-HR :0.85748: L2-HR :0.84610: (Sim:0h25m0s) 
CPU  0 inst:  299000002 cyc:  306983963 now IPC :0.28410: AVG IPC :0.97057: L2-Pf-HR :0.85728: L2-HR :0.84583: (Sim:0h25m9s) 
CPU  0 inst:  300000000 cyc:  310505479 now IPC :0.28397: AVG IPC :0.96276: L2-Pf-HR :0.85709: L2-HR :0.84556: (Sim:0h25m18s) 
CPU  0 inst:  301000001 cyc:  314024976 now IPC :0.28413: AVG IPC :0.95513: L2-Pf-HR :0.85690: L2-HR :0.84530: (Sim:0h25m27s) 
CPU  0 inst:  302000000 cyc:  317546375 now IPC :0.28398: AVG IPC :0.94767: L2-Pf-HR :0.85670: L2-HR :0.84504: (Sim:0h25m36s) 
CPU  0 inst:  303000000 cyc:  321067849 now IPC :0.28397: AVG IPC :0.94036: L2-Pf-HR :0.85651: L2-HR :0.84477: (Sim:0h25m44s) 
CPU  0 inst:  304000000 cyc:  324588336 now IPC :0.28405: AVG IPC :0.93322: L2-Pf-HR :0.85633: L2-HR :0.84451: (Sim:0h25m52s) 
CPU  0 inst:  305000001 cyc:  328108615 now IPC :0.28407: AVG IPC :0.92624: L2-Pf-HR :0.85614: L2-HR :0.84425: (Sim:0h26m1s) 
CPU  0 inst:  306000002 cyc:  331629148 now IPC :0.28405: AVG IPC :0.91940: L2-Pf-HR :0.85594: L2-HR :0.84399: (Sim:0h26m9s) 
CPU  0 inst:  307000002 cyc:  335149900 now IPC :0.28403: AVG IPC :0.91271: L2-Pf-HR :0.85576: L2-HR :0.84374: (Sim:0h26m18s) 
CPU  0 inst:  308000000 cyc:  338671100 now IPC :0.28399: AVG IPC :0.90615: L2-Pf-HR :0.85557: L2-HR :0.84348: (Sim:0h26m27s) 
CPU  0 inst:  309000000 cyc:  342194283 now IPC :0.28383: AVG IPC :0.89973: L2-Pf-HR :0.85538: L2-HR :0.84322: (Sim:0h26m35s) 
CPU  0 inst:  310000003 cyc:  345715778 now IPC :0.28397: AVG IPC :0.89344: L2-Pf-HR :0.85519: L2-HR :0.84296: (Sim:0h26m42s) 
CPU  0 inst:  311000002 cyc:  349236686 now IPC :0.28402: AVG IPC :0.88727: L2-Pf-HR :0.85500: L2-HR :0.84270: (Sim:0h26m50s) 
CPU  0 inst:  312000000 cyc:  352758515 now IPC :0.28394: AVG IPC :0.88123: L2-Pf-HR :0.85481: L2-HR :0.84245: (Sim:0h26m59s) 
CPU  0 inst:  313000001 cyc:  356279458 now IPC :0.28402: AVG IPC :0.87532: L2-Pf-HR :0.85463: L2-HR :0.84219: (Sim:0h27m8s) 
CPU  0 inst:  314000002 cyc:  359800568 now IPC :0.28400: AVG IPC :0.86951: L2-Pf-HR :0.85445: L2-HR :0.84194: (Sim:0h27m15s) 
CPU  0 inst:  315000002 cyc:  363323354 now IPC :0.28387: AVG IPC :0.86382: L2-Pf-HR :0.85426: L2-HR :0.84169: (Sim:0h27m25s) 
CPU  0 inst:  316000000 cyc:  366844962 now IPC :0.28396: AVG IPC :0.85824: L2-Pf-HR :0.85408: L2-HR :0.84144: (Sim:0h27m32s) 
CPU  0 inst:  317000000 cyc:  370364986 now IPC :0.28409: AVG IPC :0.85277: L2-Pf-HR :0.85390: L2-HR :0.84120: (Sim:0h27m42s) 
CPU  0 inst:  318000001 cyc:  373885574 now IPC :0.28404: AVG IPC :0.84740: L2-Pf-HR :0.85373: L2-HR :0.84096: (Sim:0h27m50s) 
CPU  0 inst:  319000000 cyc:  377407628 now IPC :0.28392: AVG IPC :0.84213: L2-Pf-HR :0.85354: L2-HR :0.84071: (Sim:0h27m59s) 
CPU  0 inst:  320000000 cyc:  380928749 now IPC :0.28400: AVG IPC :0.83695: L2-Pf-HR :0.85336: L2-HR :0.84046: (Sim:0h28m8s) 
CPU  0 inst:  321000000 cyc:  384447371 now IPC :0.28420: AVG IPC :0.83188: L2-Pf-HR :0.85319: L2-HR :0.84022: (Sim:0h28m16s) 
CPU  0 inst:  322000002 cyc:  387967490 now IPC :0.28408: AVG IPC :0.82690: L2-Pf-HR :0.85301: L2-HR :0.83998: (Sim:0h28m24s) 
CPU  0 inst:  323000002 cyc:  391488510 now IPC :0.28401: AVG IPC :0.82200: L2-Pf-HR :0.85284: L2-HR :0.83974: (Sim:0h28m33s) 
CPU  0 inst:  324000000 cyc:  395010484 now IPC :0.28393: AVG IPC :0.81719: L2-Pf-HR :0.85266: L2-HR :0.83950: (Sim:0h28m42s) 
CPU  0 inst:  325000000 cyc:  398532567 now IPC :0.28392: AVG IPC :0.81247: L2-Pf-HR :0.85248: L2-HR :0.83926: (Sim:0h28m51s) 
CPU  0 inst:  326000001 cyc:  402054227 now IPC :0.28396: AVG IPC :0.80783: L2-Pf-HR :0.85231: L2-HR :0.83903: (Sim:0h29m0s) 
CPU  0 inst:  327000001 cyc:  404049398 now IPC :0.50121: AVG IPC :0.80631: L2-Pf-HR :0.85181: L2-HR :0.83853: (Sim:0h29m7s) 
CPU  0 inst:  328000000 cyc:  404600310 now IPC :1.81517: AVG IPC :0.80769: L2-Pf-HR :0.85191: L2-HR :0.83864: (Sim:0h29m12s) 
CPU  0 inst:  329000003 cyc:  405255974 now IPC :1.52518: AVG IPC :0.80885: L2-Pf-HR :0.85198: L2-HR :0.83874: (Sim:0h29m16s) 
CPU  0 inst:  330000002 cyc:  405860223 now IPC :1.65495: AVG IPC :0.81011: L2-Pf-HR :0.85182: L2-HR :0.83863: (Sim:0h29m21s) 
CPU  0 inst:  331000001 cyc:  406371572 now IPC :1.95561: AVG IPC :0.81156: L2-Pf-HR :0.85182: L2-HR :0.83866: (Sim:0h29m26s) 
CPU  0 inst:  332000000 cyc:  406920865 now IPC :1.82052: AVG IPC :0.81292: L2-Pf-HR :0.85181: L2-HR :0.83869: (Sim:0h29m30s) 
CPU  0 inst:  333000003 cyc:  407483014 now IPC :1.77889: AVG IPC :0.81426: L2-Pf-HR :0.85180: L2-HR :0.83870: (Sim:0h29m35s) 
CPU  0 inst:  334000001 cyc:  407994994 now IPC :1.95320: AVG IPC :0.81569: L2-Pf-HR :0.85203: L2-HR :0.83895: (Sim:0h29m39s) 
CPU  0 inst:  335000001 cyc:  408731694 now IPC :1.35740: AVG IPC :0.81667: L2-Pf-HR :0.85189: L2-HR :0.83886: (Sim:0h29m44s) 
CPU  0 inst:  336000000 cyc:  409280875 now IPC :1.82089: AVG IPC :0.81802: L2-Pf-HR :0.85194: L2-HR :0.83893: (Sim:0h29m48s) 
CPU  0 inst:  337000001 cyc:  409821754 now IPC :1.84884: AVG IPC :0.81939: L2-Pf-HR :0.85203: L2-HR :0.83903: (Sim:0h29m52s) 
CPU  0 inst:  338000003 cyc:  410498177 now IPC :1.47837: AVG IPC :0.82047: L2-Pf-HR :0.85195: L2-HR :0.83900: (Sim:0h29m57s) 
CPU  0 inst:  339000000 cyc:  411014183 now IPC :1.93796: AVG IPC :0.82188: L2-Pf-HR :0.85192: L2-HR :0.83901: (Sim:0h30m2s) 
CPU  0 inst:  340000000 cyc:  411522097 now IPC :1.96884: AVG IPC :0.82330: L2-Pf-HR :0.85196: L2-HR :0.83907: (Sim:0h30m6s) 
CPU  0 inst:  341000000 cyc:  412081956 now IPC :1.78616: AVG IPC :0.82461: L2-Pf-HR :0.85215: L2-HR :0.83928: (Sim:0h30m10s) 
CPU  0 inst:  342000001 cyc:  412653000 now IPC :1.75118: AVG IPC :0.82590: L2-Pf-HR :0.85207: L2-HR :0.83922: (Sim:0h30m14s) 
CPU  0 inst:  343000002 cyc:  413189472 now IPC :1.86403: AVG IPC :0.82725: L2-Pf-HR :0.85227: L2-HR :0.83945: (Sim:0h30m19s) 
CPU  0 inst:  344000000 cyc:  413926641 now IPC :1.35654: AVG IPC :0.82819: L2-Pf-HR :0.85206: L2-HR :0.83928: (Sim:0h30m24s) 
CPU  0 inst:  345000003 cyc:  414457901 now IPC :1.88232: AVG IPC :0.82955: L2-Pf-HR :0.85213: L2-HR :0.83936: (Sim:0h30m28s) 
CPU  0 inst:  346000000 cyc:  415076563 now IPC :1.61639: AVG IPC :0.83072: L2-Pf-HR :0.85221: L2-HR :0.83947: (Sim:0h30m33s) 
CPU  0 inst:  347000000 cyc:  415679465 now IPC :1.65864: AVG IPC :0.83193: L2-Pf-HR :0.85207: L2-HR :0.83937: (Sim:0h30m38s) 
CPU  0 inst:  348000000 cyc:  416187331 now IPC :1.96902: AVG IPC :0.83332: L2-Pf-HR :0.85209: L2-HR :0.83942: (Sim:0h30m42s) 
CPU  0 inst:  349000003 cyc:  416751098 now IPC :1.77379: AVG IPC :0.83459: L2-Pf-HR :0.85211: L2-HR :0.83948: (Sim:0h30m47s) 
CPU  0 inst:  350000000 cyc:  417319616 now IPC :1.75895: AVG IPC :0.83585: L2-Pf-HR :0.85211: L2-HR :0.83949: (Sim:0h30m52s) 
CPU  0 inst:  351000001 cyc:  417835975 now IPC :1.93664: AVG IPC :0.83722: L2-Pf-HR :0.85232: L2-HR :0.83971: (Sim:0h30m56s) 
CPU  0 inst:  352000000 cyc:  418573087 now IPC :1.35664: AVG IPC :0.83813: L2-Pf-HR :0.85219: L2-HR :0.83963: (Sim:0h31m1s) 
CPU  0 inst:  353000000 cyc:  419117283 now IPC :1.83757: AVG IPC :0.83944: L2-Pf-HR :0.85222: L2-HR :0.83967: (Sim:0h31m6s) 
CPU  0 inst:  354000003 cyc:  419665038 now IPC :1.82564: AVG IPC :0.84073: L2-Pf-HR :0.85230: L2-HR :0.83976: (Sim:0h31m10s) 
CPU  0 inst:  355000003 cyc:  420337742 now IPC :1.48654: AVG IPC :0.84176: L2-Pf-HR :0.85221: L2-HR :0.83973: (Sim:0h31m15s) 
CPU  0 inst:  356000000 cyc:  420855027 now IPC :1.93316: AVG IPC :0.84311: L2-Pf-HR :0.85216: L2-HR :0.83970: (Sim:0h31m19s) 
CPU  0 inst:  357000002 cyc:  421367522 now IPC :1.95124: AVG IPC :0.84446: L2-Pf-HR :0.85218: L2-HR :0.83974: (Sim:0h31m24s) 
CPU  0 inst:  358000000 cyc:  421936093 now IPC :1.75879: AVG IPC :0.84569: L2-Pf-HR :0.85231: L2-HR :0.83991: (Sim:0h31m28s) 
CPU  0 inst:  359000000 cyc:  422490531 now IPC :1.80363: AVG IPC :0.84695: L2-Pf-HR :0.85230: L2-HR :0.83991: (Sim:0h31m32s) 
CPU  0 inst:  360000000 cyc:  423027562 now IPC :1.86209: AVG IPC :0.84824: L2-Pf-HR :0.85250: L2-HR :0.84013: (Sim:0h31m37s) 
CPU  0 inst:  361000003 cyc:  423778991 now IPC :1.33080: AVG IPC :0.84910: L2-Pf-HR :0.85228: L2-HR :0.83995: (Sim:0h31m41s) 
CPU  0 inst:  362000002 cyc:  424308716 now IPC :1.88777: AVG IPC :0.85040: L2-Pf-HR :0.85237: L2-HR :0.84004: (Sim:0h31m46s) 
CPU  0 inst:  363000001 cyc:  424922739 now IPC :1.62860: AVG IPC :0.85153: L2-Pf-HR :0.85248: L2-HR :0.84018: (Sim:0h31m50s) 
CPU  0 inst:  364000000 cyc:  425522786 now IPC :1.66653: AVG IPC :0.85268: L2-Pf-HR :0.85232: L2-HR :0.84005: (Sim:0h31m55s) 
CPU  0 inst:  365000000 cyc:  426033797 now IPC :1.95691: AVG IPC :0.85401: L2-Pf-HR :0.85233: L2-HR :0.84009: (Sim:0h31m59s) 
CPU  0 inst:  366000001 cyc:  426594437 now IPC :1.78368: AVG IPC :0.85523: L2-Pf-HR :0.85237: L2-HR :0.84016: (Sim:0h32m4s) 
CPU  0 inst:  367000001 cyc:  427164617 now IPC :1.75383: AVG IPC :0.85643: L2-Pf-HR :0.85236: L2-HR :0.84017: (Sim:0h32m8s) 
CPU  0 inst:  368000000 cyc:  427688702 now IPC :1.90809: AVG IPC :0.85773: L2-Pf-HR :0.85263: L2-HR :0.84045: (Sim:0h32m13s) 
CPU  0 inst:  369000000 cyc:  428429643 now IPC :1.34964: AVG IPC :0.85858: L2-Pf-HR :0.85248: L2-HR :0.84034: (Sim:0h32m18s) 
CPU  0 inst:  370000003 cyc:  428969737 now IPC :1.85154: AVG IPC :0.85983: L2-Pf-HR :0.85255: L2-HR :0.84042: (Sim:0h32m22s) 
CPU  0 inst:  371000002 cyc:  429581447 now IPC :1.63476: AVG IPC :0.86094: L2-Pf-HR :0.85257: L2-HR :0.84047: (Sim:0h32m27s) 
CPU  0 inst:  372000000 cyc:  430194209 now IPC :1.63195: AVG IPC :0.86204: L2-Pf-HR :0.85255: L2-HR :0.84048: (Sim:0h32m32s) 
CPU  0 inst:  373000002 cyc:  430711782 now IPC :1.93210: AVG IPC :0.86333: L2-Pf-HR :0.85254: L2-HR :0.84049: (Sim:0h32m36s) 
CPU  0 inst:  374000000 cyc:  431234259 now IPC :1.91396: AVG IPC :0.86460: L2-Pf-HR :0.85260: L2-HR :0.84057: (Sim:0h32m39s) 
CPU  0 inst:  375000002 cyc:  431839913 now IPC :1.65111: AVG IPC :0.86571: L2-Pf-HR :0.85260: L2-HR :0.84060: (Sim:0h32m43s) 
CPU  0 inst:  376000000 cyc:  432352855 now IPC :1.94953: AVG IPC :0.86700: L2-Pf-HR :0.85276: L2-HR :0.84077: (Sim:0h32m48s) 
CPU  0 inst:  377000001 cyc:  432887951 now IPC :1.86883: AVG IPC :0.86824: L2-Pf-HR :0.85302: L2-HR :0.84104: (Sim:0h32m52s) 
CPU  0 inst:  378000001 cyc:  433632454 now IPC :1.34318: AVG IPC :0.86906: L2-Pf-HR :0.85280: L2-HR :0.84085: (Sim:0h32m57s) 
CPU  0 inst:  379000001 cyc:  434160871 now IPC :1.89244: AVG IPC :0.87030: L2-Pf-HR :0.85288: L2-HR :0.84094: (Sim:0h33m2s) 
CPU  0 inst:  380000000 cyc:  434773520 now IPC :1.63225: AVG IPC :0.87138: L2-Pf-HR :0.85300: L2-HR :0.84108: (Sim:0h33m7s) 
CPU  0 inst:  381000001 cyc:  435371344 now IPC :1.67273: AVG IPC :0.87248: L2-Pf-HR :0.85282: L2-HR :0.84094: (Sim:0h33m11s) 
CPU  0 inst:  382000000 cyc:  435886688 now IPC :1.94045: AVG IPC :0.87375: L2-Pf-HR :0.85282: L2-HR :0.84096: (Sim:0h33m16s) 
CPU  0 inst:  383000000 cyc:  436445317 now IPC :1.79010: AVG IPC :0.87492: L2-Pf-HR :0.85288: L2-HR :0.84105: (Sim:0h33m21s) 
CPU  0 inst:  384000000 cyc:  437018468 now IPC :1.74474: AVG IPC :0.87607: L2-Pf-HR :0.85286: L2-HR :0.84104: (Sim:0h33m25s) 
CPU  0 inst:  385000003 cyc:  437555739 now IPC :1.86126: AVG IPC :0.87728: L2-Pf-HR :0.85306: L2-HR :0.84126: (Sim:0h33m30s) 
CPU  0 inst:  386000000 cyc:  438278501 now IPC :1.38358: AVG IPC :0.87812: L2-Pf-HR :0.85294: L2-HR :0.84117: (Sim:0h33m34s) 
CPU  0 inst:  387000001 cyc:  438815457 now IPC :1.86235: AVG IPC :0.87932: L2-Pf-HR :0.85300: L2-HR :0.84124: (Sim:0h33m38s) 
CPU  0 inst:  388000000 cyc:  439435140 now IPC :1.61373: AVG IPC :0.88036: L2-Pf-HR :0.85304: L2-HR :0.84130: (Sim:0h33m42s) 
CPU  0 inst:  389000003 cyc:  440040511 now IPC :1.65188: AVG IPC :0.88143: L2-Pf-HR :0.85298: L2-HR :0.84127: (Sim:0h33m47s) 
CPU  0 inst:  390000001 cyc:  440557789 now IPC :1.93319: AVG IPC :0.88266: L2-Pf-HR :0.85298: L2-HR :0.84130: (Sim:0h33m51s) 
CPU  0 inst:  391000002 cyc:  441089403 now IPC :1.88107: AVG IPC :0.88387: L2-Pf-HR :0.85302: L2-HR :0.84135: (Sim:0h33m56s) 
CPU  0 inst:  392000000 cyc:  441685495 now IPC :1.67759: AVG IPC :0.88494: L2-Pf-HR :0.85299: L2-HR :0.84135: (Sim:0h34m1s) 
CPU  0 inst:  393000002 cyc:  442200063 now IPC :1.94338: AVG IPC :0.88618: L2-Pf-HR :0.85314: L2-HR :0.84150: (Sim:0h34m5s) 
CPU  0 inst:  394000000 cyc:  442797388 now IPC :1.67413: AVG IPC :0.88724: L2-Pf-HR :0.85334: L2-HR :0.84172: (Sim:0h34m10s) 
CPU  0 inst:  395000000 cyc:  443498197 now IPC :1.42692: AVG IPC :0.88810: L2-Pf-HR :0.85317: L2-HR :0.84158: (Sim:0h34m14s) 
CPU  0 inst:  396000000 cyc:  444028049 now IPC :1.88732: AVG IPC :0.88929: L2-Pf-HR :0.85324: L2-HR :0.84165: (Sim:0h34m19s) 
CPU  0 inst:  397000002 cyc:  444639019 now IPC :1.63674: AVG IPC :0.89032: L2-Pf-HR :0.85338: L2-HR :0.84181: (Sim:0h34m23s) 
CPU  0 inst:  398000003 cyc:  445245510 now IPC :1.64883: AVG IPC :0.89136: L2-Pf-HR :0.85320: L2-HR :0.84168: (Sim:0h34m28s) 
CPU  0 inst:  399000002 cyc:  445758461 now IPC :1.94950: AVG IPC :0.89258: L2-Pf-HR :0.85325: L2-HR :0.84173: (Sim:0h34m32s) 
CPU  0 inst:  400000000 cyc:  446317333 now IPC :1.78931: AVG IPC :0.89370: L2-Pf-HR :0.85333: L2-HR :0.84184: (Sim:0h34m37s) 
CPU  0 inst:  401000003 cyc:  446888789 now IPC :1.74992: AVG IPC :0.89480: L2-Pf-HR :0.85333: L2-HR :0.84185: (Sim:0h34m41s) 
CPU  0 inst:  402000003 cyc:  447426562 now IPC :1.85952: AVG IPC :0.89596: L2-Pf-HR :0.85350: L2-HR :0.84203: (Sim:0h34m44s) 
CPU  0 inst:  403000002 cyc:  448171955 now IPC :1.34157: AVG IPC :0.89670: L2-Pf-HR :0.85339: L2-HR :0.84195: (Sim:0h34m49s) 
CPU  0 inst:  404000000 cyc:  448698326 now IPC :1.89980: AVG IPC :0.89788: L2-Pf-HR :0.85344: L2-HR :0.84201: (Sim:0h34m53s) 
CPU  0 inst:  405000000 cyc:  449321072 now IPC :1.60579: AVG IPC :0.89887: L2-Pf-HR :0.85347: L2-HR :0.84207: (Sim:0h34m57s) 
CPU  0 inst:  406000002 cyc:  449918645 now IPC :1.67344: AVG IPC :0.89990: L2-Pf-HR :0.85340: L2-HR :0.84203: (Sim:0h35m2s) 
CPU  0 inst:  407000002 cyc:  450436903 now IPC :1.92954: AVG IPC :0.90109: L2-Pf-HR :0.85340: L2-HR :0.84205: (Sim:0h35m6s) 
CPU  0 inst:  408000000 cyc:  450995273 now IPC :1.79092: AVG IPC :0.90219: L2-Pf-HR :0.85338: L2-HR :0.84205: (Sim:0h35m10s) 
CPU  0 inst:  409000002 cyc:  451566820 now IPC :1.74964: AVG IPC :0.90326: L2-Pf-HR :0.85338: L2-HR :0.84207: (Sim:0h35m14s) 
CPU  0 inst:  410000002 cyc:  452085570 now IPC :1.92771: AVG IPC :0.90444: L2-Pf-HR :0.85355: L2-HR :0.84225: (Sim:0h35m17s) 
CPU  0 inst:  411000000 cyc:  452773430 now IPC :1.45378: AVG IPC :0.90528: L2-Pf-HR :0.85356: L2-HR :0.84229: (Sim:0h35m21s) 
CPU  0 inst:  412000000 cyc:  453374476 now IPC :1.66377: AVG IPC :0.90629: L2-Pf-HR :0.85355: L2-HR :0.84228: (Sim:0h35m25s) 
CPU  0 inst:  413000003 cyc:  453906008 now IPC :1.88136: AVG IPC :0.90743: L2-Pf-HR :0.85360: L2-HR :0.84235: (Sim:0h35m30s) 
CPU  0 inst:  414000000 cyc:  454523144 now IPC :1.62038: AVG IPC :0.90840: L2-Pf-HR :0.85376: L2-HR :0.84253: (Sim:0h35m35s) 
CPU  0 inst:  415000000 cyc:  455126812 now IPC :1.65654: AVG IPC :0.90940: L2-Pf-HR :0.85354: L2-HR :0.84234: (Sim:0h35m40s) 
CPU  0 inst:  416000000 cyc:  455635127 now IPC :1.96728: AVG IPC :0.91058: L2-Pf-HR :0.85356: L2-HR :0.84237: (Sim:0h35m44s) 
CPU  0 inst:  417000002 cyc:  456193709 now IPC :1.79025: AVG IPC :0.91166: L2-Pf-HR :0.85365: L2-HR :0.84248: (Sim:0h35m49s) 
CPU  0 inst:  418000002 cyc:  456767616 now IPC :1.74244: AVG IPC :0.91270: L2-Pf-HR :0.85363: L2-HR :0.84248: (Sim:0h35m53s) 
CPU  0 inst:  419000000 cyc:  457305908 now IPC :1.85772: AVG IPC :0.91382: L2-Pf-HR :0.85383: L2-HR :0.84268: (Sim:0h35m58s) 
CPU  0 inst:  420000000 cyc:  458034273 now IPC :1.37294: AVG IPC :0.91455: L2-Pf-HR :0.85372: L2-HR :0.84260: (Sim:0h36m2s) 
CPU  0 inst:  421000001 cyc:  458563794 now IPC :1.88850: AVG IPC :0.91568: L2-Pf-HR :0.85377: L2-HR :0.84267: (Sim:0h36m6s) 
CPU  0 inst:  422000002 cyc:  459185496 now IPC :1.60849: AVG IPC :0.91662: L2-Pf-HR :0.85383: L2-HR :0.84274: (Sim:0h36m11s) 
CPU  0 inst:  423000001 cyc:  459780984 now IPC :1.67929: AVG IPC :0.91761: L2-Pf-HR :0.85376: L2-HR :0.84270: (Sim:0h36m15s) 
CPU  0 inst:  424000000 cyc:  460299937 now IPC :1.92695: AVG IPC :0.91875: L2-Pf-HR :0.85379: L2-HR :0.84273: (Sim:0h36m19s) 
CPU  0 inst:  425000002 cyc:  460861850 now IPC :1.77964: AVG IPC :0.91980: L2-Pf-HR :0.85377: L2-HR :0.84274: (Sim:0h36m23s) 
CPU  0 inst:  426000001 cyc:  461431672 now IPC :1.75493: AVG IPC :0.92083: L2-Pf-HR :0.85380: L2-HR :0.84278: (Sim:0h36m28s) 
CPU  0 inst:  427000001 cyc:  461948108 now IPC :1.93635: AVG IPC :0.92197: L2-Pf-HR :0.85401: L2-HR :0.84299: (Sim:0h36m32s) 
CPU  0 inst:  428000000 cyc:  462674047 now IPC :1.37752: AVG IPC :0.92269: L2-Pf-HR :0.85398: L2-HR :0.84298: (Sim:0h36m37s) 
CPU  0 inst:  429000003 cyc:  463231760 now IPC :1.79304: AVG IPC :0.92374: L2-Pf-HR :0.85399: L2-HR :0.84302: (Sim:0h36m41s) 
CPU  0 inst:  430000002 cyc:  463766006 now IPC :1.87180: AVG IPC :0.92483: L2-Pf-HR :0.85405: L2-HR :0.84308: (Sim:0h36m46s) 
CPU  0 inst:  431000003 cyc:  464383023 now IPC :1.62070: AVG IPC :0.92576: L2-Pf-HR :0.85418: L2-HR :0.84323: (Sim:0h36m50s) 
CPU  0 inst:  432000000 cyc:  464974933 now IPC :1.68944: AVG IPC :0.92673: L2-Pf-HR :0.85397: L2-HR :0.84305: (Sim:0h36m55s) 
CPU  0 inst:  433000003 cyc:  465483300 now IPC :1.96709: AVG IPC :0.92787: L2-Pf-HR :0.85396: L2-HR :0.84306: (Sim:0h36m59s) 
CPU  0 inst:  434000000 cyc:  466041050 now IPC :1.79291: AVG IPC :0.92891: L2-Pf-HR :0.85407: L2-HR :0.84318: (Sim:0h37m4s) 
CPU  0 inst:  435000002 cyc:  466619210 now IPC :1.72963: AVG IPC :0.92990: L2-Pf-HR :0.85404: L2-HR :0.84317: (Sim:0h37m9s) 
CPU  0 inst:  436000000 cyc:  467157213 now IPC :1.85872: AVG IPC :0.93097: L2-Pf-HR :0.85422: L2-HR :0.84336: (Sim:0h37m13s) 
CPU  0 inst:  437000001 cyc:  467897154 now IPC :1.35146: AVG IPC :0.93164: L2-Pf-HR :0.85410: L2-HR :0.84326: (Sim:0h37m18s) 
CPU  0 inst:  438000000 cyc:  468423810 now IPC :1.89877: AVG IPC :0.93273: L2-Pf-HR :0.85416: L2-HR :0.84333: (Sim:0h37m23s) 
CPU  0 inst:  439000000 cyc:  469045757 now IPC :1.60785: AVG IPC :0.93363: L2-Pf-HR :0.85422: L2-HR :0.84340: (Sim:0h37m27s) 
CPU  0 inst:  440000000 cyc:  469647065 now IPC :1.66304: AVG IPC :0.93456: L2-Pf-HR :0.85414: L2-HR :0.84335: (Sim:0h37m32s) 
CPU  0 inst:  441000003 cyc:  470159982 now IPC :1.94964: AVG IPC :0.93567: L2-Pf-HR :0.85420: L2-HR :0.84342: (Sim:0h37m36s) 
CPU  0 inst:  442000000 cyc:  470722484 now IPC :1.77777: AVG IPC :0.93668: L2-Pf-HR :0.85421: L2-HR :0.84345: (Sim:0h37m41s) 
CPU  0 inst:  443000000 cyc:  471293726 now IPC :1.75057: AVG IPC :0.93767: L2-Pf-HR :0.85425: L2-HR :0.84349: (Sim:0h37m45s) 
CPU  0 inst:  444000000 cyc:  471804882 now IPC :1.95635: AVG IPC :0.93878: L2-Pf-HR :0.85447: L2-HR :0.84372: (Sim:0h37m50s) 
CPU  0 inst:  445000003 cyc:  472542849 now IPC :1.35508: AVG IPC :0.93943: L2-Pf-HR :0.85443: L2-HR :0.84370: (Sim:0h37m55s) 
CPU  0 inst:  446000002 cyc:  473099097 now IPC :1.79776: AVG IPC :0.94044: L2-Pf-HR :0.85446: L2-HR :0.84373: (Sim:0h37m59s) 
CPU  0 inst:  447000003 cyc:  473639827 now IPC :1.84935: AVG IPC :0.94148: L2-Pf-HR :0.85453: L2-HR :0.84380: (Sim:0h38m3s) 
CPU  0 inst:  448000000 cyc:  474282050 now IPC :1.55709: AVG IPC :0.94231: L2-Pf-HR :0.85453: L2-HR :0.84385: (Sim:0h38m8s) 
CPU  0 inst:  449000000 cyc:  474842700 now IPC :1.78364: AVG IPC :0.94331: L2-Pf-HR :0.85445: L2-HR :0.84378: (Sim:0h38m13s) 
CPU  0 inst:  450000001 cyc:  475352895 now IPC :1.96004: AVG IPC :0.94440: L2-Pf-HR :0.85445: L2-HR :0.84379: (Sim:0h38m17s) 
CPU  0 inst:  451000002 cyc:  475909398 now IPC :1.79694: AVG IPC :0.94540: L2-Pf-HR :0.85457: L2-HR :0.84393: (Sim:0h38m22s) 
CPU  0 inst:  452000000 cyc:  476492157 now IPC :1.71597: AVG IPC :0.94635: L2-Pf-HR :0.85451: L2-HR :0.84388: (Sim:0h38m26s) 
CPU  0 inst:  453000000 cyc:  477027221 now IPC :1.86894: AVG IPC :0.94738: L2-Pf-HR :0.85467: L2-HR :0.84404: (Sim:0h38m31s) 
CPU  0 inst:  454000001 cyc:  477770561 now IPC :1.34528: AVG IPC :0.94800: L2-Pf-HR :0.85451: L2-HR :0.84392: (Sim:0h38m35s) 
CPU  0 inst:  455000001 cyc:  478301828 now IPC :1.88229: AVG IPC :0.94904: L2-Pf-HR :0.85456: L2-HR :0.84397: (Sim:0h38m40s) 
CPU  0 inst:  456000000 cyc:  478918370 now IPC :1.62195: AVG IPC :0.94991: L2-Pf-HR :0.85463: L2-HR :0.84406: (Sim:0h38m45s) 
CPU  0 inst:  457000002 cyc:  479523672 now IPC :1.65207: AVG IPC :0.95080: L2-Pf-HR :0.85452: L2-HR :0.84397: (Sim:0h38m49s) 
CPU  0 inst:  458000002 cyc:  480036131 now IPC :1.95138: AVG IPC :0.95187: L2-Pf-HR :0.85451: L2-HR :0.84398: (Sim:0h38m54s) 
CPU  0 inst:  459000001 cyc:  480600213 now IPC :1.77279: AVG IPC :0.95284: L2-Pf-HR :0.85450: L2-HR :0.84399: (Sim:0h38m58s) 
CPU  0 inst:  460000000 cyc:  481171087 now IPC :1.75170: AVG IPC :0.95379: L2-Pf-HR :0.85450: L2-HR :0.84400: (Sim:0h39m3s) 
CPU  0 inst:  461000001 cyc:  481682776 now IPC :1.95431: AVG IPC :0.95485: L2-Pf-HR :0.85465: L2-HR :0.84416: (Sim:0h39m7s) 
CPU  0 inst:  462000002 cyc:  482422136 now IPC :1.35252: AVG IPC :0.95546: L2-Pf-HR :0.85459: L2-HR :0.84411: (Sim:0h39m12s) 
CPU  0 inst:  463000000 cyc:  482972538 now IPC :1.81685: AVG IPC :0.95644: L2-Pf-HR :0.85461: L2-HR :0.84415: (Sim:0h39m16s) 
CPU  0 inst:  464000000 cyc:  483517148 now IPC :1.83618: AVG IPC :0.95744: L2-Pf-HR :0.85467: L2-HR :0.84421: (Sim:0h39m21s) 
CPU  0 inst:  465000002 cyc:  484197314 now IPC :1.47023: AVG IPC :0.95816: L2-Pf-HR :0.85461: L2-HR :0.84418: (Sim:0h39m25s) 
CPU  0 inst:  466000001 cyc:  484718214 now IPC :1.91975: AVG IPC :0.95919: L2-Pf-HR :0.85461: L2-HR :0.84419: (Sim:0h39m29s) 
CPU  0 inst:  467000001 cyc:  485229096 now IPC :1.95740: AVG IPC :0.96025: L2-Pf-HR :0.85463: L2-HR :0.84423: (Sim:0h39m34s) 
CPU  0 inst:  468000000 cyc:  485792543 now IPC :1.77479: AVG IPC :0.96119: L2-Pf-HR :0.85478: L2-HR :0.84439: (Sim:0h39m37s) 
CPU  0 inst:  469000000 cyc:  486359082 now IPC :1.76510: AVG IPC :0.96213: L2-Pf-HR :0.85472: L2-HR :0.84435: (Sim:0h39m42s) 
CPU  0 inst:  470000002 cyc:  486894413 now IPC :1.86801: AVG IPC :0.96313: L2-Pf-HR :0.85490: L2-HR :0.84452: (Sim:0h39m46s) 
CPU  0 inst:  471000002 cyc:  487633229 now IPC :1.35352: AVG IPC :0.96372: L2-Pf-HR :0.85475: L2-HR :0.84440: (Sim:0h39m51s) 
CPU  0 inst:  472000000 cyc:  488166024 now IPC :1.87689: AVG IPC :0.96472: L2-Pf-HR :0.85479: L2-HR :0.84445: (Sim:0h39m55s) 
CPU  0 inst:  473000000 cyc:  488781930 now IPC :1.62362: AVG IPC :0.96555: L2-Pf-HR :0.85486: L2-HR :0.84453: (Sim:0h40m0s) 
CPU  0 inst:  474000003 cyc:  489387923 now IPC :1.65019: AVG IPC :0.96640: L2-Pf-HR :0.85475: L2-HR :0.84445: (Sim:0h40m5s) 
CPU  0 inst:  475000003 cyc:  489899055 now IPC :1.95644: AVG IPC :0.96744: L2-Pf-HR :0.85476: L2-HR :0.84447: (Sim:0h40m9s) 
CPU  0 inst:  476000000 cyc:  490462131 now IPC :1.77595: AVG IPC :0.96837: L2-Pf-HR :0.85478: L2-HR :0.84450: (Sim:0h40m13s) 
CPU  0 inst:  477000001 cyc:  491034064 now IPC :1.74846: AVG IPC :0.96928: L2-Pf-HR :0.85479: L2-HR :0.84453: (Sim:0h40m16s) 
CPU  0 inst:  478000002 cyc:  491554553 now IPC :1.92127: AVG IPC :0.97029: L2-Pf-HR :0.85498: L2-HR :0.84471: (Sim:0h40m20s) 
CPU  0 inst:  479000003 cyc:  492291216 now IPC :1.35747: AVG IPC :0.97087: L2-Pf-HR :0.85488: L2-HR :0.84464: (Sim:0h40m25s) 
CPU  0 inst:  480000000 cyc:  492836100 now IPC :1.83525: AVG IPC :0.97183: L2-Pf-HR :0.85492: L2-HR :0.84468: (Sim:0h40m30s) 
CPU  0 inst:  481000002 cyc:  493412680 now IPC :1.73437: AVG IPC :0.97272: L2-Pf-HR :0.85495: L2-HR :0.84473: (Sim:0h40m35s) 
CPU  0 inst:  482000002 cyc:  494057873 now IPC :1.54992: AVG IPC :0.97348: L2-Pf-HR :0.85490: L2-HR :0.84470: (Sim:0h40m39s) 
CPU  0 inst:  483000003 cyc:  494575514 now IPC :1.93184: AVG IPC :0.97448: L2-Pf-HR :0.85487: L2-HR :0.84469: (Sim:0h40m43s) 
CPU  0 inst:  484000000 cyc:  495092558 now IPC :1.93407: AVG IPC :0.97548: L2-Pf-HR :0.85489: L2-HR :0.84472: (Sim:0h40m47s) 
CPU  0 inst:  485000000 cyc:  495683242 now IPC :1.69295: AVG IPC :0.97634: L2-Pf-HR :0.85492: L2-HR :0.84477: (Sim:0h40m52s) 
CPU  0 inst:  486000002 cyc:  496227925 now IPC :1.83593: AVG IPC :0.97729: L2-Pf-HR :0.85497: L2-HR :0.84481: (Sim:0h40m56s) 
CPU  0 inst:  487000001 cyc:  496765449 now IPC :1.86038: AVG IPC :0.97824: L2-Pf-HR :0.85512: L2-HR :0.84497: (Sim:0h41m1s) 
CPU  0 inst:  488000000 cyc:  497513621 now IPC :1.33659: AVG IPC :0.97878: L2-Pf-HR :0.85496: L2-HR :0.84483: (Sim:0h41m5s) 
CPU  0 inst:  489000002 cyc:  498049335 now IPC :1.86667: AVG IPC :0.97974: L2-Pf-HR :0.85500: L2-HR :0.84487: (Sim:0h41m10s) 
CPU  0 inst:  490000001 cyc:  498664548 now IPC :1.62545: AVG IPC :0.98054: L2-Pf-HR :0.85507: L2-HR :0.84496: (Sim:0h41m15s) 
CPU  0 inst:  491000000 cyc:  499271095 now IPC :1.64868: AVG IPC :0.98135: L2-Pf-HR :0.85495: L2-HR :0.84486: (Sim:0h41m20s) 
CPU  0 inst:  492000000 cyc:  499786572 now IPC :1.93995: AVG IPC :0.98234: L2-Pf-HR :0.85496: L2-HR :0.84488: (Sim:0h41m24s) 
CPU  0 inst:  493000002 cyc:  500345374 now IPC :1.78955: AVG IPC :0.98325: L2-Pf-HR :0.85500: L2-HR :0.84494: (Sim:0h41m29s) 
CPU  0 inst:  494000001 cyc:  500917079 now IPC :1.74915: AVG IPC :0.98412: L2-Pf-HR :0.85500: L2-HR :0.84495: (Sim:0h41m33s) 
CPU  0 inst:  495000000 cyc:  501447516 now IPC :1.88524: AVG IPC :0.98508: L2-Pf-HR :0.85519: L2-HR :0.84514: (Sim:0h41m38s) 
CPU  0 inst:  496000000 cyc:  502190258 now IPC :1.34636: AVG IPC :0.98561: L2-Pf-HR :0.85507: L2-HR :0.84504: (Sim:0h41m42s) 
CPU  0 inst:  497000000 cyc:  502731494 now IPC :1.84762: AVG IPC :0.98654: L2-Pf-HR :0.85511: L2-HR :0.84509: (Sim:0h41m47s) 
CPU  0 inst:  498000000 cyc:  503341766 now IPC :1.63861: AVG IPC :0.98733: L2-Pf-HR :0.85511: L2-HR :0.84510: (Sim:0h41m51s) 
CPU  0 inst:  499000000 cyc:  503949896 now IPC :1.64439: AVG IPC :0.98813: L2-Pf-HR :0.85508: L2-HR :0.84509: (Sim:0h41m56s) 
CPU  0 inst:  500000000 cyc:  504467910 now IPC :1.93045: AVG IPC :0.98910: L2-Pf-HR :0.85509: L2-HR :0.84511: (Sim:0h42m0s) 
CPU  0 inst:  501000001 cyc:  504995800 now IPC :1.89434: AVG IPC :0.99005: L2-Pf-HR :0.85512: L2-HR :0.84515: (Sim:0h42m5s) 
CPU  0 inst:  502000000 cyc:  505598174 now IPC :1.66010: AVG IPC :0.99085: L2-Pf-HR :0.85512: L2-HR :0.84517: (Sim:0h42m10s) 
CPU  0 inst:  503000003 cyc:  506116475 now IPC :1.92939: AVG IPC :0.99181: L2-Pf-HR :0.85524: L2-HR :0.84529: (Sim:0h42m14s) 
CPU  0 inst:  504000000 cyc:  506660592 now IPC :1.83783: AVG IPC :0.99272: L2-Pf-HR :0.85543: L2-HR :0.84548: (Sim:0h42m18s) 
CPU  0 inst:  505000003 cyc:  507395586 now IPC :1.36056: AVG IPC :0.99325: L2-Pf-HR :0.85523: L2-HR :0.84531: (Sim:0h42m23s) 
CPU  0 inst:  506000000 cyc:  507925987 now IPC :1.88536: AVG IPC :0.99419: L2-Pf-HR :0.85527: L2-HR :0.84535: (Sim:0h42m27s) 
CPU  0 inst:  507000001 cyc:  508537577 now IPC :1.63508: AVG IPC :0.99496: L2-Pf-HR :0.85535: L2-HR :0.84545: (Sim:0h42m31s) 
CPU  0 inst:  508000000 cyc:  509138425 now IPC :1.66431: AVG IPC :0.99575: L2-Pf-HR :0.85520: L2-HR :0.84532: (Sim:0h42m36s) 
CPU  0 inst:  509000002 cyc:  509651945 now IPC :1.94735: AVG IPC :0.99671: L2-Pf-HR :0.85522: L2-HR :0.84535: (Sim:0h42m40s) 
CPU  0 inst:  510000001 cyc:  510211549 now IPC :1.78698: AVG IPC :0.99758: L2-Pf-HR :0.85526: L2-HR :0.84541: (Sim:0h42m44s) 
CPU  0 inst:  511000000 cyc:  510782671 now IPC :1.75094: AVG IPC :0.99842: L2-Pf-HR :0.85525: L2-HR :0.84540: (Sim:0h42m48s) 
CPU  0 inst:  512000000 cyc:  511321471 now IPC :1.85598: AVG IPC :0.99933: L2-Pf-HR :0.85537: L2-HR :0.84553: (Sim:0h42m52s) 
CPU  0 inst:  513000002 cyc:  512052052 now IPC :1.36878: AVG IPC :0.99986: L2-Pf-HR :0.85528: L2-HR :0.84546: (Sim:0h42m57s) 
CPU  0 inst:  514000003 cyc:  512578522 now IPC :1.89945: AVG IPC :1.00078: L2-Pf-HR :0.85533: L2-HR :0.84552: (Sim:0h43m1s) 
CPU  0 inst:  515000002 cyc:  513195030 now IPC :1.62204: AVG IPC :1.00153: L2-Pf-HR :0.85536: L2-HR :0.84556: (Sim:0h43m4s) 
CPU  0 inst:  516000000 cyc:  513798680 now IPC :1.65659: AVG IPC :1.00230: L2-Pf-HR :0.85530: L2-HR :0.84552: (Sim:0h43m9s) 
CPU  0 inst:  517000002 cyc:  514318199 now IPC :1.92486: AVG IPC :1.00324: L2-Pf-HR :0.85531: L2-HR :0.84554: (Sim:0h43m14s) 
CPU  0 inst:  518000003 cyc:  514851420 now IPC :1.87540: AVG IPC :1.00414: L2-Pf-HR :0.85535: L2-HR :0.84558: (Sim:0h43m18s) 
CPU  0 inst:  519000002 cyc:  515441406 now IPC :1.69495: AVG IPC :1.00493: L2-Pf-HR :0.85535: L2-HR :0.84560: (Sim:0h43m22s) 
CPU  0 inst:  520000000 cyc:  515961406 now IPC :1.92307: AVG IPC :1.00586: L2-Pf-HR :0.85549: L2-HR :0.84573: (Sim:0h43m27s) 
CPU  0 inst:  521000001 cyc:  516597887 now IPC :1.57114: AVG IPC :1.00656: L2-Pf-HR :0.85557: L2-HR :0.84583: (Sim:0h43m31s) 
CPU  0 inst:  522000001 cyc:  517240514 now IPC :1.55611: AVG IPC :1.00724: L2-Pf-HR :0.85549: L2-HR :0.84576: (Sim:0h43m36s) 
CPU  0 inst:  523000000 cyc:  517770459 now IPC :1.88699: AVG IPC :1.00814: L2-Pf-HR :0.85551: L2-HR :0.84579: (Sim:0h43m39s) 
CPU  0 inst:  524000000 cyc:  518382613 now IPC :1.63358: AVG IPC :1.00888: L2-Pf-HR :0.85561: L2-HR :0.84590: (Sim:0h43m44s) 
CPU  0 inst:  525000001 cyc:  518974878 now IPC :1.68844: AVG IPC :1.00966: L2-Pf-HR :0.85547: L2-HR :0.84578: (Sim:0h43m49s) 
CPU  0 inst:  526000003 cyc:  519490130 now IPC :1.94080: AVG IPC :1.01059: L2-Pf-HR :0.85548: L2-HR :0.84580: (Sim:0h43m53s) 
CPU  0 inst:  527000003 cyc:  520049581 now IPC :1.78747: AVG IPC :1.01142: L2-Pf-HR :0.85555: L2-HR :0.84588: (Sim:0h43m57s) 
CPU  0 inst:  528000000 cyc:  520624388 now IPC :1.73971: AVG IPC :1.01223: L2-Pf-HR :0.85555: L2-HR :0.84588: (Sim:0h44m2s) 
CPU  0 inst:  529000000 cyc:  521162003 now IPC :1.86007: AVG IPC :1.01311: L2-Pf-HR :0.85568: L2-HR :0.84602: (Sim:0h44m5s) 
CPU  0 inst:  530000000 cyc:  521900173 now IPC :1.35470: AVG IPC :1.01359: L2-Pf-HR :0.85559: L2-HR :0.84594: (Sim:0h44m9s) 
CPU  0 inst:  531000001 cyc:  522428675 now IPC :1.89214: AVG IPC :1.01448: L2-Pf-HR :0.85563: L2-HR :0.84599: (Sim:0h44m13s) 
CPU  0 inst:  532000000 cyc:  523051821 now IPC :1.60476: AVG IPC :1.01518: L2-Pf-HR :0.85567: L2-HR :0.84604: (Sim:0h44m18s) 
CPU  0 inst:  533000000 cyc:  523651056 now IPC :1.66879: AVG IPC :1.01593: L2-Pf-HR :0.85561: L2-HR :0.84600: (Sim:0h44m23s) 
CPU  0 inst:  534000001 cyc:  524173766 now IPC :1.91311: AVG IPC :1.01683: L2-Pf-HR :0.85562: L2-HR :0.84602: (Sim:0h44m27s) 
CPU  0 inst:  535000002 cyc:  524737404 now IPC :1.77419: AVG IPC :1.01764: L2-Pf-HR :0.85560: L2-HR :0.84601: (Sim:0h44m32s) 
CPU  0 inst:  536000000 cyc:  525297121 now IPC :1.78661: AVG IPC :1.01847: L2-Pf-HR :0.85563: L2-HR :0.84605: (Sim:0h44m36s) 
CPU  0 inst:  537000003 cyc:  525814087 now IPC :1.93437: AVG IPC :1.01937: L2-Pf-HR :0.85578: L2-HR :0.84619: (Sim:0h44m40s) 
CPU  0 inst:  538000002 cyc:  526541765 now IPC :1.37423: AVG IPC :1.01986: L2-Pf-HR :0.85575: L2-HR :0.84618: (Sim:0h44m43s) 
CPU  0 inst:  539000003 cyc:  527101468 now IPC :1.78666: AVG IPC :1.02068: L2-Pf-HR :0.85576: L2-HR :0.84620: (Sim:0h44m48s) 
CPU  0 inst:  540000000 cyc:  527632950 now IPC :1.88153: AVG IPC :1.02154: L2-Pf-HR :0.85580: L2-HR :0.84625: (Sim:0h44m52s) 
CPU  0 inst:  541000001 cyc:  528244149 now IPC :1.63613: AVG IPC :1.02226: L2-Pf-HR :0.85592: L2-HR :0.84637: (Sim:0h44m57s) 
CPU  0 inst:  542000001 cyc:  528848783 now IPC :1.65389: AVG IPC :1.02298: L2-Pf-HR :0.85575: L2-HR :0.84622: (Sim:0h45m2s) 
CPU  0 inst:  543000000 cyc:  529357537 now IPC :1.96558: AVG IPC :1.02389: L2-Pf-HR :0.85575: L2-HR :0.84624: (Sim:0h45m7s) 
CPU  0 inst:  544000000 cyc:  529919299 now IPC :1.78011: AVG IPC :1.02469: L2-Pf-HR :0.85583: L2-HR :0.84633: (Sim:0h45m11s) 
CPU  0 inst:  545000002 cyc:  530496029 now IPC :1.73392: AVG IPC :1.02546: L2-Pf-HR :0.85582: L2-HR :0.84632: (Sim:0h45m15s) 
CPU  0 inst:  546000001 cyc:  531036648 now IPC :1.84973: AVG IPC :1.02630: L2-Pf-HR :0.85595: L2-HR :0.84645: (Sim:0h45m20s) 
CPU  0 inst:  547000003 cyc:  531783900 now IPC :1.33824: AVG IPC :1.02674: L2-Pf-HR :0.85585: L2-HR :0.84637: (Sim:0h45m25s) 
CPU  0 inst:  548000000 cyc:  532310615 now IPC :1.89855: AVG IPC :1.02761: L2-Pf-HR :0.85588: L2-HR :0.84641: (Sim:0h45m29s) 
CPU  0 inst:  549000000 cyc:  532930629 now IPC :1.61287: AVG IPC :1.02829: L2-Pf-HR :0.85590: L2-HR :0.84644: (Sim:0h45m33s) 
CPU  0 inst:  550000002 cyc:  533528695 now IPC :1.67206: AVG IPC :1.02901: L2-Pf-HR :0.85582: L2-HR :0.84638: (Sim:0h45m38s) 
CPU  0 inst:  551000000 cyc:  534046606 now IPC :1.93083: AVG IPC :1.02989: L2-Pf-HR :0.85584: L2-HR :0.84640: (Sim:0h45m42s) 
CPU  0 inst:  552000000 cyc:  534612291 now IPC :1.76777: AVG IPC :1.03067: L2-Pf-HR :0.85582: L2-HR :0.84639: (Sim:0h45m46s) 
CPU  0 inst:  553000000 cyc:  535177941 now IPC :1.76788: AVG IPC :1.03145: L2-Pf-HR :0.85584: L2-HR :0.84642: (Sim:0h45m51s) 
CPU  0 inst:  554000002 cyc:  535695848 now IPC :1.93085: AVG IPC :1.03232: L2-Pf-HR :0.85598: L2-HR :0.84657: (Sim:0h45m56s) 
CPU  0 inst:  555000002 cyc:  536428010 now IPC :1.36582: AVG IPC :1.03278: L2-Pf-HR :0.85593: L2-HR :0.84654: (Sim:0h46m1s) 
CPU  0 inst:  556000000 cyc:  536979074 now IPC :1.81467: AVG IPC :1.03358: L2-Pf-HR :0.85594: L2-HR :0.84655: (Sim:0h46m5s) 
CPU  0 inst:  557000000 cyc:  537515777 now IPC :1.86323: AVG IPC :1.03441: L2-Pf-HR :0.85598: L2-HR :0.84659: (Sim:0h46m10s) 
CPU  0 inst:  558000001 cyc:  538139164 now IPC :1.60414: AVG IPC :1.03507: L2-Pf-HR :0.85603: L2-HR :0.84666: (Sim:0h46m15s) 
CPU  0 inst:  559000002 cyc:  538722530 now IPC :1.71419: AVG IPC :1.03581: L2-Pf-HR :0.85591: L2-HR :0.84656: (Sim:0h46m19s) 
CPU  0 inst:  560000000 cyc:  539232555 now IPC :1.96068: AVG IPC :1.03669: L2-Pf-HR :0.85592: L2-HR :0.84657: (Sim:0h46m23s) 
CPU  0 inst:  561000002 cyc:  539791642 now IPC :1.78863: AVG IPC :1.03747: L2-Pf-HR :0.85601: L2-HR :0.84668: (Sim:0h46m28s) 
CPU  0 inst:  562000000 cyc:  540368219 now IPC :1.73437: AVG IPC :1.03821: L2-Pf-HR :0.85599: L2-HR :0.84666: (Sim:0h46m33s) 
CPU  0 inst:  563000001 cyc:  540907083 now IPC :1.85576: AVG IPC :1.03903: L2-Pf-HR :0.85612: L2-HR :0.84680: (Sim:0h46m37s) 
CPU  0 inst:  564000000 cyc:  541646730 now IPC :1.35199: AVG IPC :1.03946: L2-Pf-HR :0.85601: L2-HR :0.84670: (Sim:0h46m43s) 
CPU  0 inst:  565000000 cyc:  542172051 now IPC :1.90360: AVG IPC :1.04029: L2-Pf-HR :0.85605: L2-HR :0.84674: (Sim:0h46m47s) 
CPU  0 inst:  566000000 cyc:  542794370 now IPC :1.60689: AVG IPC :1.04095: L2-Pf-HR :0.85610: L2-HR :0.84680: (Sim:0h46m52s) 
CPU  0 inst:  567000003 cyc:  543399299 now IPC :1.65309: AVG IPC :1.04163: L2-Pf-HR :0.85602: L2-HR :0.84674: (Sim:0h46m57s) 
CPU  0 inst:  568000000 cyc:  543909005 now IPC :1.96191: AVG IPC :1.04249: L2-Pf-HR :0.85603: L2-HR :0.84676: (Sim:0h47m1s) 
CPU  0 inst:  569000001 cyc:  544470761 now IPC :1.78013: AVG IPC :1.04325: L2-Pf-HR :0.85603: L2-HR :0.84677: (Sim:0h47m6s) 
CPU  0 inst:  570000003 cyc:  545038196 now IPC :1.76232: AVG IPC :1.04400: L2-Pf-HR :0.85605: L2-HR :0.84680: (Sim:0h47m11s) 
CPU  0 inst:  571000001 cyc:  545549364 now IPC :1.95630: AVG IPC :1.04486: L2-Pf-HR :0.85619: L2-HR :0.84694: (Sim:0h47m15s) 
CPU  0 inst:  572000000 cyc:  546297709 now IPC :1.33628: AVG IPC :1.04526: L2-Pf-HR :0.85613: L2-HR :0.84689: (Sim:0h47m20s) 
CPU  0 inst:  573000002 cyc:  546849006 now IPC :1.81391: AVG IPC :1.04604: L2-Pf-HR :0.85615: L2-HR :0.84692: (Sim:0h47m25s) 
CPU  0 inst:  574000000 cyc:  547392250 now IPC :1.84079: AVG IPC :1.04683: L2-Pf-HR :0.85619: L2-HR :0.84696: (Sim:0h47m29s) 
CPU  0 inst:  575000003 cyc:  548070289 now IPC :1.47485: AVG IPC :1.04736: L2-Pf-HR :0.85615: L2-HR :0.84694: (Sim:0h47m34s) 
CPU  0 inst:  576000000 cyc:  548588265 now IPC :1.93059: AVG IPC :1.04819: L2-Pf-HR :0.85615: L2-HR :0.84695: (Sim:0h47m38s) 
CPU  0 inst:  577000003 cyc:  549097255 now IPC :1.96468: AVG IPC :1.04904: L2-Pf-HR :0.85616: L2-HR :0.84697: (Sim:0h47m42s) 
CPU  0 inst:  578000000 cyc:  549658383 now IPC :1.78212: AVG IPC :1.04979: L2-Pf-HR :0.85628: L2-HR :0.84710: (Sim:0h47m46s) 
CPU  0 inst:  579000001 cyc:  550236533 now IPC :1.72966: AVG IPC :1.05051: L2-Pf-HR :0.85625: L2-HR :0.84708: (Sim:0h47m51s) 
CPU  0 inst:  580000000 cyc:  550772600 now IPC :1.86544: AVG IPC :1.05130: L2-Pf-HR :0.85639: L2-HR :0.84722: (Sim:0h47m55s) 
CPU  0 inst:  581000002 cyc:  551515848 now IPC :1.34545: AVG IPC :1.05170: L2-Pf-HR :0.85626: L2-HR :0.84710: (Sim:0h48m0s) 
CPU  0 inst:  582000001 cyc:  552046661 now IPC :1.88390: AVG IPC :1.05250: L2-Pf-HR :0.85629: L2-HR :0.84714: (Sim:0h48m5s) 
CPU  0 inst:  583000003 cyc:  552665731 now IPC :1.61533: AVG IPC :1.05313: L2-Pf-HR :0.85634: L2-HR :0.84719: (Sim:0h48m9s) 
CPU  0 inst:  584000000 cyc:  553266413 now IPC :1.66477: AVG IPC :1.05380: L2-Pf-HR :0.85625: L2-HR :0.84712: (Sim:0h48m14s) 
CPU  0 inst:  585000003 cyc:  553777393 now IPC :1.95703: AVG IPC :1.05463: L2-Pf-HR :0.85625: L2-HR :0.84714: (Sim:0h48m18s) 
CPU  0 inst:  586000002 cyc:  554342831 now IPC :1.76854: AVG IPC :1.05536: L2-Pf-HR :0.85628: L2-HR :0.84717: (Sim:0h48m23s) 
CPU  0 inst:  587000002 cyc:  554916709 now IPC :1.74253: AVG IPC :1.05608: L2-Pf-HR :0.85630: L2-HR :0.84720: (Sim:0h48m27s) 
CPU  0 inst:  588000000 cyc:  555434328 now IPC :1.93192: AVG IPC :1.05689: L2-Pf-HR :0.85646: L2-HR :0.84735: (Sim:0h48m32s) 
CPU  0 inst:  589000000 cyc:  556170094 now IPC :1.35913: AVG IPC :1.05729: L2-Pf-HR :0.85639: L2-HR :0.84730: (Sim:0h48m37s) 
CPU  0 inst:  590000002 cyc:  556720150 now IPC :1.81800: AVG IPC :1.05805: L2-Pf-HR :0.85642: L2-HR :0.84733: (Sim:0h48m41s) 
CPU  0 inst:  591000003 cyc:  557268559 now IPC :1.82346: AVG IPC :1.05880: L2-Pf-HR :0.85645: L2-HR :0.84737: (Sim:0h48m46s) 
CPU  0 inst:  592000000 cyc:  557933128 now IPC :1.50473: AVG IPC :1.05933: L2-Pf-HR :0.85640: L2-HR :0.84734: (Sim:0h48m50s) 
CPU  0 inst:  593000001 cyc:  558451541 now IPC :1.92897: AVG IPC :1.06014: L2-Pf-HR :0.85639: L2-HR :0.84734: (Sim:0h48m55s) 
CPU  0 inst:  594000002 cyc:  558966072 now IPC :1.94352: AVG IPC :1.06096: L2-Pf-HR :0.85639: L2-HR :0.84735: (Sim:0h48m59s) 
Finished CPU 0 instr: 592000001 cyc: 557986988 AVG IPC: 1.06096 (Sim time: 0h48m59s)

ChampSim completed all CPUs

[ROI Statistics]
Core_0_instructions 592000001
Core_0_cycles 557986988
Core_0_IPC 1.06096

Core_0_branch_prediction_accuracy 98.24511
Core_0_branch_MPKI 0.42508
Core_0_average_ROB_occupancy_at_mispredict 249.31309

Core_0_L1D_total_access 351104705
Core_0_L1D_total_hit 337992308 L1D_total_Hit Ratio: 0.96265
Core_0_L1D_total_miss 13112397
Core_0_L1D_loads 135038789
Core_0_L1D_load_hit 129611827 L1D_load_Hit Ratio: 0.95981
Core_0_L1D_load_miss 5426962
Core_0_L1D_RFOs 11981153
Core_0_L1D_RFO_hit 11386271 L1D_RFO_Hit Ratio: 0.95035
Core_0_L1D_RFO_miss 594882
Core_0_L1D_prefetches 204084763
Core_0_L1D_prefetch_hit 196994210 L1D_prefetch_Hit Ratio: 0.96526
Core_0_L1D_prefetch_miss 7090553
Core_0_L1D_writebacks 0
Core_0_L1D_writeback_hit 0 L1D_writeback_Hit Ratio: -nan
Core_0_L1D_writeback_miss 0
Core_0_L1D_prefetch_requested 408221355
Core_0_L1D_prefetch_issued 245709431
Core_0_L1D_prefetch_useful 5674312 L1D_Useful Ratio: 0.02309
Core_0_L1D_prefetch_useless 1444176
Core_0_L1D_prefetch_late 1046918
Core_0_L1D_average_miss_latency 20221367.76455

Core_0_L1I_total_access 134334637
Core_0_L1I_total_hit 134329757 L1I_total_Hit Ratio: 0.99996
Core_0_L1I_total_miss 4880
Core_0_L1I_loads 134334637
Core_0_L1I_load_hit 134329757 L1I_load_Hit Ratio: 0.99996
Core_0_L1I_load_miss 4880
Core_0_L1I_RFOs 0
Core_0_L1I_RFO_hit 0 L1I_RFO_Hit Ratio: -nan
Core_0_L1I_RFO_miss 0
Core_0_L1I_prefetches 0
Core_0_L1I_prefetch_hit 0 L1I_prefetch_Hit Ratio: -nan
Core_0_L1I_prefetch_miss 0
Core_0_L1I_writebacks 0
Core_0_L1I_writeback_hit 0 L1I_writeback_Hit Ratio: -nan
Core_0_L1I_writeback_miss 0
Core_0_L1I_prefetch_requested 0
Core_0_L1I_prefetch_issued 0
Core_0_L1I_prefetch_useful 0 L1I_Useful Ratio: -nan
Core_0_L1I_prefetch_useless 0
Core_0_L1I_prefetch_late 0
Core_0_L1I_average_miss_latency 305.31516

Core_0_L2C_total_access 51581491
Core_0_L2C_total_hit 43707471 L2C_total_Hit Ratio: 0.84735
Core_0_L2C_total_miss 7874020
Core_0_L2C_loads 4385360
Core_0_L2C_load_hit 3163066 L2C_load_Hit Ratio: 0.72128
Core_0_L2C_load_miss 1222294
Core_0_L2C_RFOs 594740
Core_0_L2C_RFO_hit 214653 L2C_RFO_Hit Ratio: 0.36092
Core_0_L2C_RFO_miss 380087
Core_0_L2C_prefetches 43396201
Core_0_L2C_prefetch_hit 37164269 L2C_prefetch_Hit Ratio: 0.85639
Core_0_L2C_prefetch_miss 6231932
Core_0_L2C_writebacks 3205190
Core_0_L2C_writeback_hit 3165483 L2C_writeback_Hit Ratio: 0.98761
Core_0_L2C_writeback_miss 39707
Core_0_L2C_prefetch_requested 95659643
Core_0_L2C_prefetch_issued 67192575
Core_0_L2C_prefetch_useful 1572219 L2C_Useful Ratio: 0.02340
Core_0_L2C_prefetch_useless 4681216
Core_0_L2C_prefetch_late 61872
Core_0_L2C_average_miss_latency 154.61852

Core_0_LLC_total_access 10928118
Core_0_LLC_total_hit 7705692 LLC_total_Hit Ratio: 0.70513
Core_0_LLC_total_miss 3222426
Core_0_LLC_loads 1160424
Core_0_LLC_load_hit 881935 LLC_load_Hit Ratio: 0.76001
Core_0_LLC_load_miss 278489
Core_0_LLC_RFOs 380087
Core_0_LLC_RFO_hit 27354 LLC_RFO_Hit Ratio: 0.07197
Core_0_LLC_RFO_miss 352733
Core_0_LLC_prefetches 6521017
Core_0_LLC_prefetch_hit 3935549 LLC_prefetch_Hit Ratio: 0.60352
Core_0_LLC_prefetch_miss 2585468
Core_0_LLC_writebacks 2866590
Core_0_LLC_writeback_hit 2860854 LLC_writeback_Hit Ratio: 0.99800
Core_0_LLC_writeback_miss 5736
Core_0_LLC_prefetch_requested 0
Core_0_LLC_prefetch_issued 0
Core_0_LLC_prefetch_useful 536551 LLC_Useful Ratio: inf
Core_0_LLC_prefetch_useless 2046318
Core_0_LLC_prefetch_late 34717
Core_0_LLC_average_miss_latency 324.56822

Core_0_major_page_fault 0
Core_0_minor_page_fault 25625

CPU 0 L1D next line prefetcher final stats
CPU 0 L2C PC-based stride prefetcher final stats
Stride Degree: 12
MK1  MARKOV_LRU_SIZE: 128
MK1  MARKOV_PREDICTION_PERCENTTHRESHOLD: 20.00000
MK1  OUTLIERS_THRESHOLD_Max: 64
MK1  OUTLIERS_THRESHOLD_Min: 32
MK2  MARKOV_LRU_SIZE: 512
MK2  MARKOV_PREDICTION_PERCENTTHRESHOLD: 15.00000
MK2  OUTLIERS_THRESHOLD_Max: 8
MK2  OUTLIERS_THRESHOLD_Min: 0
MK3  MARKOV_LRU_SIZE: 384
MK3  MARKOV_PREDICTION_PERCENTTHRESHOLD: 20.00000
MK3  OUTLIERS_THRESHOLD_Max: 16
MK3  OUTLIERS_THRESHOLD_Min: 8
MK4  MARKOV_LRU_SIZE: 512
MK4  MARKOV_PREDICTION_PERCENTTHRESHOLD: 15.00000
MK4  OUTLIERS_THRESHOLD_Max: 8
MK4  OUTLIERS_THRESHOLD_Min: 0
IPStride Degree/Access Ratio: 4.29840
MK1 IPDEltaMarkov  Degree/Access Ratio: 0.28287
MK2 IPDEltaMarkov  Degree/Access Ratio: 1.55094
MK3 IPDEltaMarkov  Degree/Access Ratio: 0.53894
MK4 IPDEltaMarkov  Degree/Access Ratio: 1.56207
Channel_0_RQ_row_buffer_hit 1623517
Channel_0_RQ_row_buffer_miss 1592630
Channel_0_WQ_row_buffer_hit 487484
Channel_0_WQ_row_buffer_miss 1249998
Channel_0_WQ_full 0
Channel_0_dbus_congested 3312824

avg_congested_cycle 10

EzSearch AVG IPC :1.06096: L2-Pf-HR :0.85639 : L2-HR :0.84735 Uful:0.02340
Finished combination: TraceType=./777-comparisonScript Prefetcher=030-L2-MultiMarkovDelta_ip_stride_L1-nextLine-1-2-4_vTTT L1=next_line
