TRACE: [298000000][GPT-Neo_1_3B]_[h16][s512][d128] Warmup: 2000000 Sim: 298000000
L1:next_line:L2:030-L2-MultiMarkovDelta_ip_stride_L1-nextLine-1-2-4_vTTT
*************************************************
   ChampSim Multicore Out-of-Order Simulator
   Last compiled: Oct 20 2024 04:25:36
*************************************************

trace_0 ./777-comparisonScript_memoryTraces/memTraces[298000000][GPT-Neo_1_3B]_[h16][s512][d128].champsim.xz
CPU 0 L1D next line prefetcher
MK1: Size: 128 TMAX: 64 TMIN: 32 MKPTHRESH: 20
MK2: Size: 256 TMAX: 32 TMIN: 16 MKPTHRESH: 20
MK3: Size: 384 TMAX: 16 TMIN: 8 MKPTHRESH: 20
MK4: Size: 512 TMAX: 8 TMIN: 0 MKPTHRESH: 15
Stride Size: 512 Prefetch Degree: 12

CPU 0 L2C prefetcher
MAIN.cc ln 751 stats print skipped
CPU 0 L2C prefetcher initialized


Cache Size: 512
number of cache lines: 8192
CPU  0 inst:    1000003 cyc:     502048 now IPC :1.99185: AVG IPC :1.99185: L2-Pf-HR :0.78395: L2-HR :0.76286: (Sim:0h0m5s) 
CPU  0 inst:    2000001 cyc:     978707 now IPC :2.09793: AVG IPC :2.04351: L2-Pf-HR :0.81325: L2-HR :0.79147: (Sim:0h0m10s) 

Warmup complete CPU  0 instructions:    2000001 cycles:     978707 (Simulation time: 0 hr 0 min 10 sec) 

CPU  0 inst:    3000003 cyc:    1515134 now IPC :1.86419: AVG IPC :1.86419: L2-Pf-HR :0.82801: L2-HR :0.81356: (Sim:0h0m14s) 
CPU  0 inst:    4000000 cyc:    2047338 now IPC :1.87897: AVG IPC :1.87155: L2-Pf-HR :0.83155: L2-HR :0.81672: (Sim:0h0m19s) 
CPU  0 inst:    5000003 cyc:    2585244 now IPC :1.85907: AVG IPC :1.86737: L2-Pf-HR :0.83827: L2-HR :0.82296: (Sim:0h0m23s) 
CPU  0 inst:    6000003 cyc:    3133273 now IPC :1.82472: AVG IPC :1.85652: L2-Pf-HR :0.84537: L2-HR :0.82931: (Sim:0h0m28s) 
CPU  0 inst:    7000000 cyc:    3706590 now IPC :1.74423: AVG IPC :1.83292: L2-Pf-HR :0.86033: L2-HR :0.84717: (Sim:0h0m33s) 
CPU  0 inst:    8000000 cyc:    4221218 now IPC :1.94315: AVG IPC :1.85042: L2-Pf-HR :0.87771: L2-HR :0.86682: (Sim:0h0m37s) 
CPU  0 inst:    9000003 cyc:    4908396 now IPC :1.45523: AVG IPC :1.78131: L2-Pf-HR :0.87133: L2-HR :0.86022: (Sim:0h0m42s) 
CPU  0 inst:   10000001 cyc:    5449218 now IPC :1.84903: AVG IPC :1.78950: L2-Pf-HR :0.86958: L2-HR :0.85769: (Sim:0h0m46s) 
CPU  0 inst:   11000003 cyc:    5993720 now IPC :1.83654: AVG IPC :1.79461: L2-Pf-HR :0.86801: L2-HR :0.85555: (Sim:0h0m50s) 
CPU  0 inst:   12000000 cyc:    6533463 now IPC :1.85273: AVG IPC :1.80026: L2-Pf-HR :0.86642: L2-HR :0.85362: (Sim:0h0m54s) 
CPU  0 inst:   13000003 cyc:    7086110 now IPC :1.80948: AVG IPC :1.80109: L2-Pf-HR :0.86581: L2-HR :0.85268: (Sim:0h0m59s) 
CPU  0 inst:   14000000 cyc:    7633119 now IPC :1.82812: AVG IPC :1.80331: L2-Pf-HR :0.86651: L2-HR :0.85284: (Sim:0h1m4s) 
CPU  0 inst:   15000000 cyc:    8235280 now IPC :1.66069: AVG IPC :1.79148: L2-Pf-HR :0.87032: L2-HR :0.85747: (Sim:0h1m8s) 
CPU  0 inst:   16000000 cyc:    8755273 now IPC :1.92310: AVG IPC :1.80028: L2-Pf-HR :0.87664: L2-HR :0.86472: (Sim:0h1m13s) 
CPU  0 inst:   17000002 cyc:    9474786 now IPC :1.38983: AVG IPC :1.76552: L2-Pf-HR :0.87402: L2-HR :0.86219: (Sim:0h1m18s) 
CPU  0 inst:   18000001 cyc:   10018003 now IPC :1.84088: AVG IPC :1.77005: L2-Pf-HR :0.87319: L2-HR :0.86103: (Sim:0h1m22s) 
CPU  0 inst:   19000000 cyc:   10561288 now IPC :1.84065: AVG IPC :1.77405: L2-Pf-HR :0.87188: L2-HR :0.85947: (Sim:0h1m27s) 
CPU  0 inst:   20000000 cyc:   11109118 now IPC :1.82538: AVG IPC :1.77683: L2-Pf-HR :0.87056: L2-HR :0.85796: (Sim:0h1m31s) 
CPU  0 inst:   21000003 cyc:   11658014 now IPC :1.82184: AVG IPC :1.77914: L2-Pf-HR :0.87003: L2-HR :0.85722: (Sim:0h1m35s) 
CPU  0 inst:   22000000 cyc:   12202703 now IPC :1.83590: AVG IPC :1.78190: L2-Pf-HR :0.86996: L2-HR :0.85686: (Sim:0h1m39s) 
CPU  0 inst:   23000001 cyc:   12803044 now IPC :1.66572: AVG IPC :1.77600: L2-Pf-HR :0.87189: L2-HR :0.85923: (Sim:0h1m43s) 
CPU  0 inst:   24000000 cyc:   13326383 now IPC :1.91081: AVG IPC :1.78171: L2-Pf-HR :0.87569: L2-HR :0.86361: (Sim:0h1m48s) 
CPU  0 inst:   25000002 cyc:   14046439 now IPC :1.38878: AVG IPC :1.76006: L2-Pf-HR :0.87407: L2-HR :0.86206: (Sim:0h1m52s) 
CPU  0 inst:   26000001 cyc:   14593478 now IPC :1.82802: AVG IPC :1.76279: L2-Pf-HR :0.87368: L2-HR :0.86144: (Sim:0h1m56s) 
CPU  0 inst:   27000003 cyc:   15136386 now IPC :1.84194: AVG IPC :1.76583: L2-Pf-HR :0.87296: L2-HR :0.86053: (Sim:0h1m59s) 
CPU  0 inst:   28000000 cyc:   15684588 now IPC :1.82414: AVG IPC :1.76800: L2-Pf-HR :0.87234: L2-HR :0.85971: (Sim:0h2m4s) 
CPU  0 inst:   29000003 cyc:   16238077 now IPC :1.80673: AVG IPC :1.76940: L2-Pf-HR :0.87193: L2-HR :0.85912: (Sim:0h2m9s) 
CPU  0 inst:   30000002 cyc:   16782860 now IPC :1.83559: AVG IPC :1.77169: L2-Pf-HR :0.87179: L2-HR :0.85881: (Sim:0h2m13s) 
CPU  0 inst:   31000002 cyc:   17387486 now IPC :1.65391: AVG IPC :1.76735: L2-Pf-HR :0.87300: L2-HR :0.86030: (Sim:0h2m18s) 
CPU  0 inst:   32000000 cyc:   17906804 now IPC :1.92560: AVG IPC :1.77220: L2-Pf-HR :0.87568: L2-HR :0.86343: (Sim:0h2m23s) 
CPU  0 inst:   33000003 cyc:   18629393 now IPC :1.38392: AVG IPC :1.75631: L2-Pf-HR :0.87483: L2-HR :0.86263: (Sim:0h2m28s) 
CPU  0 inst:   34000001 cyc:   19175753 now IPC :1.83029: AVG IPC :1.75853: L2-Pf-HR :0.87441: L2-HR :0.86204: (Sim:0h2m33s) 
CPU  0 inst:   35000000 cyc:   19716137 now IPC :1.85053: AVG IPC :1.76118: L2-Pf-HR :0.87393: L2-HR :0.86144: (Sim:0h2m37s) 
CPU  0 inst:   36000000 cyc:   20264875 now IPC :1.82236: AVG IPC :1.76292: L2-Pf-HR :0.87353: L2-HR :0.86089: (Sim:0h2m42s) 
CPU  0 inst:   37000003 cyc:   20806148 now IPC :1.84750: AVG IPC :1.76523: L2-Pf-HR :0.87310: L2-HR :0.86035: (Sim:0h2m47s) 
CPU  0 inst:   38000000 cyc:   21357803 now IPC :1.81272: AVG IPC :1.76652: L2-Pf-HR :0.87290: L2-HR :0.85999: (Sim:0h2m52s) 
CPU  0 inst:   39000000 cyc:   21964426 now IPC :1.64847: AVG IPC :1.76310: L2-Pf-HR :0.87391: L2-HR :0.86121: (Sim:0h2m56s) 
CPU  0 inst:   40000000 cyc:   22484966 now IPC :1.92108: AVG IPC :1.76693: L2-Pf-HR :0.87603: L2-HR :0.86367: (Sim:0h3m0s) 
CPU  0 inst:   41000003 cyc:   23203965 now IPC :1.39083: AVG IPC :1.75476: L2-Pf-HR :0.87522: L2-HR :0.86294: (Sim:0h3m5s) 
CPU  0 inst:   42000000 cyc:   23743493 now IPC :1.85347: AVG IPC :1.75710: L2-Pf-HR :0.87487: L2-HR :0.86247: (Sim:0h3m9s) 
CPU  0 inst:   43000002 cyc:   24289706 now IPC :1.83079: AVG IPC :1.75883: L2-Pf-HR :0.87448: L2-HR :0.86197: (Sim:0h3m13s) 
CPU  0 inst:   44000000 cyc:   24840012 now IPC :1.81717: AVG IPC :1.76017: L2-Pf-HR :0.87407: L2-HR :0.86143: (Sim:0h3m18s) 
CPU  0 inst:   45000001 cyc:   25382997 now IPC :1.84167: AVG IPC :1.76199: L2-Pf-HR :0.87380: L2-HR :0.86106: (Sim:0h3m22s) 
CPU  0 inst:   46000003 cyc:   25937650 now IPC :1.80293: AVG IPC :1.76290: L2-Pf-HR :0.87371: L2-HR :0.86084: (Sim:0h3m27s) 
CPU  0 inst:   47000003 cyc:   26540660 now IPC :1.65835: AVG IPC :1.76043: L2-Pf-HR :0.87423: L2-HR :0.86153: (Sim:0h3m32s) 
CPU  0 inst:   48000000 cyc:   27062418 now IPC :1.91659: AVG IPC :1.76355: L2-Pf-HR :0.87598: L2-HR :0.86355: (Sim:0h3m35s) 
CPU  0 inst:   49000003 cyc:   27769804 now IPC :1.41366: AVG IPC :1.75431: L2-Pf-HR :0.87548: L2-HR :0.86313: (Sim:0h3m39s) 
CPU  0 inst:   50000001 cyc:   28311972 now IPC :1.84444: AVG IPC :1.75610: L2-Pf-HR :0.87524: L2-HR :0.86277: (Sim:0h3m44s) 
CPU  0 inst:   51000002 cyc:   28857968 now IPC :1.83152: AVG IPC :1.75758: L2-Pf-HR :0.87489: L2-HR :0.86233: (Sim:0h3m48s) 
CPU  0 inst:   52000000 cyc:   29408215 now IPC :1.81736: AVG IPC :1.75874: L2-Pf-HR :0.87452: L2-HR :0.86188: (Sim:0h3m53s) 
CPU  0 inst:   53000003 cyc:   29949417 now IPC :1.84774: AVG IPC :1.76040: L2-Pf-HR :0.87425: L2-HR :0.86153: (Sim:0h3m57s) 
CPU  0 inst:   54000001 cyc:   30499655 now IPC :1.81739: AVG IPC :1.76146: L2-Pf-HR :0.87421: L2-HR :0.86137: (Sim:0h4m2s) 
CPU  0 inst:   55000000 cyc:   31108692 now IPC :1.64193: AVG IPC :1.75905: L2-Pf-HR :0.87473: L2-HR :0.86200: (Sim:0h4m7s) 
CPU  0 inst:   56000000 cyc:   31628785 now IPC :1.92273: AVG IPC :1.76182: L2-Pf-HR :0.87618: L2-HR :0.86369: (Sim:0h4m11s) 
CPU  0 inst:   57000001 cyc:   32350354 now IPC :1.38587: AVG IPC :1.75318: L2-Pf-HR :0.87565: L2-HR :0.86327: (Sim:0h4m16s) 
CPU  0 inst:   58000001 cyc:   32884632 now IPC :1.87168: AVG IPC :1.75516: L2-Pf-HR :0.87547: L2-HR :0.86300: (Sim:0h4m20s) 
CPU  0 inst:   59000000 cyc:   33433431 now IPC :1.82216: AVG IPC :1.75629: L2-Pf-HR :0.87523: L2-HR :0.86267: (Sim:0h4m24s) 
CPU  0 inst:   60000000 cyc:   33976587 now IPC :1.84109: AVG IPC :1.75769: L2-Pf-HR :0.87490: L2-HR :0.86226: (Sim:0h4m29s) 
CPU  0 inst:   61000003 cyc:   34524191 now IPC :1.82614: AVG IPC :1.75881: L2-Pf-HR :0.87467: L2-HR :0.86196: (Sim:0h4m34s) 
CPU  0 inst:   62000001 cyc:   35074690 now IPC :1.81653: AVG IPC :1.75974: L2-Pf-HR :0.87455: L2-HR :0.86174: (Sim:0h4m38s) 
CPU  0 inst:   63000000 cyc:   35683405 now IPC :1.64280: AVG IPC :1.75769: L2-Pf-HR :0.87490: L2-HR :0.86218: (Sim:0h4m42s) 
CPU  0 inst:   64000000 cyc:   36201808 now IPC :1.92900: AVG IPC :1.76021: L2-Pf-HR :0.87612: L2-HR :0.86361: (Sim:0h4m47s) 
CPU  0 inst:   65000002 cyc:   36920638 now IPC :1.39115: AVG IPC :1.75283: L2-Pf-HR :0.87574: L2-HR :0.86333: (Sim:0h4m52s) 
CPU  0 inst:   66000001 cyc:   37470955 now IPC :1.81713: AVG IPC :1.75380: L2-Pf-HR :0.87548: L2-HR :0.86296: (Sim:0h4m56s) 
CPU  0 inst:   67000003 cyc:   38014433 now IPC :1.84000: AVG IPC :1.75506: L2-Pf-HR :0.87525: L2-HR :0.86266: (Sim:0h5m1s) 
CPU  0 inst:   68000000 cyc:   38557489 now IPC :1.84143: AVG IPC :1.75631: L2-Pf-HR :0.87497: L2-HR :0.86231: (Sim:0h5m5s) 
CPU  0 inst:   69000003 cyc:   39105602 now IPC :1.82445: AVG IPC :1.75729: L2-Pf-HR :0.87482: L2-HR :0.86208: (Sim:0h5m9s) 
CPU  0 inst:   70000002 cyc:   39652291 now IPC :1.82919: AVG IPC :1.75831: L2-Pf-HR :0.87477: L2-HR :0.86196: (Sim:0h5m14s) 
CPU  0 inst:   71000000 cyc:   40256158 now IPC :1.65599: AVG IPC :1.75673: L2-Pf-HR :0.87496: L2-HR :0.86222: (Sim:0h5m19s) 
CPU  0 inst:   72000000 cyc:   40776765 now IPC :1.92083: AVG IPC :1.75888: L2-Pf-HR :0.87604: L2-HR :0.86348: (Sim:0h5m23s) 
CPU  0 inst:   73000003 cyc:   41485366 now IPC :1.41124: AVG IPC :1.75280: L2-Pf-HR :0.87577: L2-HR :0.86331: (Sim:0h5m28s) 
CPU  0 inst:   74000002 cyc:   42031378 now IPC :1.83146: AVG IPC :1.75384: L2-Pf-HR :0.87563: L2-HR :0.86310: (Sim:0h5m32s) 
CPU  0 inst:   75000002 cyc:   42580689 now IPC :1.82046: AVG IPC :1.75472: L2-Pf-HR :0.87543: L2-HR :0.86283: (Sim:0h5m37s) 
CPU  0 inst:   76000000 cyc:   43123025 now IPC :1.84387: AVG IPC :1.75587: L2-Pf-HR :0.87527: L2-HR :0.86259: (Sim:0h5m41s) 
CPU  0 inst:   77000003 cyc:   43671764 now IPC :1.82237: AVG IPC :1.75673: L2-Pf-HR :0.87511: L2-HR :0.86237: (Sim:0h5m46s) 
CPU  0 inst:   78000002 cyc:   44218664 now IPC :1.82849: AVG IPC :1.75763: L2-Pf-HR :0.87505: L2-HR :0.86223: (Sim:0h5m50s) 
CPU  0 inst:   79000001 cyc:   44830502 now IPC :1.63442: AVG IPC :1.75591: L2-Pf-HR :0.87524: L2-HR :0.86248: (Sim:0h5m55s) 
CPU  0 inst:   80000000 cyc:   45351242 now IPC :1.92034: AVG IPC :1.75784: L2-Pf-HR :0.87622: L2-HR :0.86362: (Sim:0h6m0s) 
CPU  0 inst:   81000003 cyc:   46070971 now IPC :1.38942: AVG IPC :1.75196: L2-Pf-HR :0.87600: L2-HR :0.86350: (Sim:0h6m5s) 
CPU  0 inst:   82000002 cyc:   46617685 now IPC :1.82911: AVG IPC :1.75289: L2-Pf-HR :0.87585: L2-HR :0.86329: (Sim:0h6m9s) 
CPU  0 inst:   83000003 cyc:   47156300 now IPC :1.85662: AVG IPC :1.75410: L2-Pf-HR :0.87568: L2-HR :0.86306: (Sim:0h6m14s) 
CPU  0 inst:   84000000 cyc:   47701284 now IPC :1.83491: AVG IPC :1.75504: L2-Pf-HR :0.87545: L2-HR :0.86279: (Sim:0h6m19s) 
CPU  0 inst:   85000000 cyc:   48251879 now IPC :1.81622: AVG IPC :1.75575: L2-Pf-HR :0.87525: L2-HR :0.86253: (Sim:0h6m23s) 
CPU  0 inst:   86000000 cyc:   48796115 now IPC :1.83744: AVG IPC :1.75668: L2-Pf-HR :0.87520: L2-HR :0.86242: (Sim:0h6m28s) 
CPU  0 inst:   87000001 cyc:   49408151 now IPC :1.63389: AVG IPC :1.75513: L2-Pf-HR :0.87539: L2-HR :0.86264: (Sim:0h6m32s) 
CPU  0 inst:   88000000 cyc:   49926025 now IPC :1.93097: AVG IPC :1.75699: L2-Pf-HR :0.87628: L2-HR :0.86368: (Sim:0h6m37s) 
CPU  0 inst:   89000003 cyc:   50631912 now IPC :1.41666: AVG IPC :1.75215: L2-Pf-HR :0.87616: L2-HR :0.86365: (Sim:0h6m42s) 
CPU  0 inst:   90000000 cyc:   51183456 now IPC :1.81309: AVG IPC :1.75282: L2-Pf-HR :0.87603: L2-HR :0.86346: (Sim:0h6m46s) 
CPU  0 inst:   91000000 cyc:   51722326 now IPC :1.85574: AVG IPC :1.75392: L2-Pf-HR :0.87581: L2-HR :0.86318: (Sim:0h6m50s) 
CPU  0 inst:   92000000 cyc:   52268684 now IPC :1.83030: AVG IPC :1.75473: L2-Pf-HR :0.87554: L2-HR :0.86288: (Sim:0h6m55s) 
CPU  0 inst:   93000000 cyc:   52811880 now IPC :1.84096: AVG IPC :1.75563: L2-Pf-HR :0.87536: L2-HR :0.86264: (Sim:0h7m0s) 
CPU  0 inst:   94000002 cyc:   53353625 now IPC :1.84589: AVG IPC :1.75657: L2-Pf-HR :0.87530: L2-HR :0.86252: (Sim:0h7m4s) 
CPU  0 inst:   95000001 cyc:   53972257 now IPC :1.61647: AVG IPC :1.75493: L2-Pf-HR :0.87544: L2-HR :0.86268: (Sim:0h7m9s) 
CPU  0 inst:   96000000 cyc:   54492068 now IPC :1.92377: AVG IPC :1.75657: L2-Pf-HR :0.87622: L2-HR :0.86360: (Sim:0h7m13s) 
CPU  0 inst:   97000003 cyc:   55212232 now IPC :1.38858: AVG IPC :1.75168: L2-Pf-HR :0.87615: L2-HR :0.86362: (Sim:0h7m18s) 
CPU  0 inst:   98000001 cyc:   55761436 now IPC :1.82081: AVG IPC :1.75238: L2-Pf-HR :0.87603: L2-HR :0.86342: (Sim:0h7m23s) 
CPU  0 inst:   99000003 cyc:   56299528 now IPC :1.85842: AVG IPC :1.75341: L2-Pf-HR :0.87587: L2-HR :0.86322: (Sim:0h7m28s) 
CPU  0 inst:  100000000 cyc:   56845942 now IPC :1.83011: AVG IPC :1.75416: L2-Pf-HR :0.87565: L2-HR :0.86295: (Sim:0h7m32s) 
CPU  0 inst:  101000001 cyc:   57388815 now IPC :1.84205: AVG IPC :1.75500: L2-Pf-HR :0.87546: L2-HR :0.86272: (Sim:0h7m36s) 
CPU  0 inst:  102000002 cyc:   57938412 now IPC :1.81952: AVG IPC :1.75563: L2-Pf-HR :0.87541: L2-HR :0.86262: (Sim:0h7m39s) 
CPU  0 inst:  103000003 cyc:   58549483 now IPC :1.63647: AVG IPC :1.75436: L2-Pf-HR :0.87551: L2-HR :0.86272: (Sim:0h7m44s) 
CPU  0 inst:  104000000 cyc:   59070709 now IPC :1.91855: AVG IPC :1.75584: L2-Pf-HR :0.87623: L2-HR :0.86358: (Sim:0h7m49s) 
CPU  0 inst:  105000001 cyc:   59788859 now IPC :1.39247: AVG IPC :1.75140: L2-Pf-HR :0.87622: L2-HR :0.86365: (Sim:0h7m54s) 
CPU  0 inst:  106000001 cyc:   60333735 now IPC :1.83528: AVG IPC :1.75217: L2-Pf-HR :0.87609: L2-HR :0.86347: (Sim:0h7m58s) 
CPU  0 inst:  107000003 cyc:   60878977 now IPC :1.83405: AVG IPC :1.75291: L2-Pf-HR :0.87594: L2-HR :0.86327: (Sim:0h8m3s) 
CPU  0 inst:  108000000 cyc:   61421845 now IPC :1.84206: AVG IPC :1.75371: L2-Pf-HR :0.87578: L2-HR :0.86306: (Sim:0h8m6s) 
CPU  0 inst:  109000000 cyc:   61962445 now IPC :1.84980: AVG IPC :1.75457: L2-Pf-HR :0.87561: L2-HR :0.86285: (Sim:0h8m11s) 
CPU  0 inst:  110000001 cyc:   62512387 now IPC :1.81838: AVG IPC :1.75514: L2-Pf-HR :0.87556: L2-HR :0.86275: (Sim:0h8m15s) 
CPU  0 inst:  111000000 cyc:   63131126 now IPC :1.61619: AVG IPC :1.75375: L2-Pf-HR :0.87563: L2-HR :0.86282: (Sim:0h8m20s) 
CPU  0 inst:  112000000 cyc:   63653869 now IPC :1.91299: AVG IPC :1.75508: L2-Pf-HR :0.87629: L2-HR :0.86361: (Sim:0h8m24s) 
CPU  0 inst:  113000001 cyc:   64368603 now IPC :1.39912: AVG IPC :1.75107: L2-Pf-HR :0.87628: L2-HR :0.86368: (Sim:0h8m29s) 
CPU  0 inst:  114000001 cyc:   64909098 now IPC :1.85016: AVG IPC :1.75191: L2-Pf-HR :0.87617: L2-HR :0.86353: (Sim:0h8m34s) 
CPU  0 inst:  115000000 cyc:   65457752 now IPC :1.82264: AVG IPC :1.75251: L2-Pf-HR :0.87603: L2-HR :0.86335: (Sim:0h8m38s) 
CPU  0 inst:  116000000 cyc:   66003369 now IPC :1.83279: AVG IPC :1.75318: L2-Pf-HR :0.87586: L2-HR :0.86314: (Sim:0h8m43s) 
CPU  0 inst:  117000001 cyc:   66541382 now IPC :1.85869: AVG IPC :1.75405: L2-Pf-HR :0.87571: L2-HR :0.86295: (Sim:0h8m48s) 
CPU  0 inst:  118000000 cyc:   67092939 now IPC :1.81305: AVG IPC :1.75454: L2-Pf-HR :0.87568: L2-HR :0.86288: (Sim:0h8m52s) 
CPU  0 inst:  119000001 cyc:   67706737 now IPC :1.62920: AVG IPC :1.75339: L2-Pf-HR :0.87571: L2-HR :0.86290: (Sim:0h8m57s) 
CPU  0 inst:  120000000 cyc:   68226776 now IPC :1.92293: AVG IPC :1.75470: L2-Pf-HR :0.87633: L2-HR :0.86364: (Sim:0h9m2s) 
CPU  0 inst:  121000001 cyc:   68933886 now IPC :1.41421: AVG IPC :1.75115: L2-Pf-HR :0.87628: L2-HR :0.86368: (Sim:0h9m7s) 
CPU  0 inst:  122000003 cyc:   69478696 now IPC :1.83551: AVG IPC :1.75183: L2-Pf-HR :0.87619: L2-HR :0.86354: (Sim:0h9m11s) 
CPU  0 inst:  123000002 cyc:   70027923 now IPC :1.82074: AVG IPC :1.75237: L2-Pf-HR :0.87609: L2-HR :0.86339: (Sim:0h9m16s) 
CPU  0 inst:  124000000 cyc:   70567810 now IPC :1.85224: AVG IPC :1.75315: L2-Pf-HR :0.87589: L2-HR :0.86316: (Sim:0h9m21s) 
CPU  0 inst:  125000002 cyc:   71114585 now IPC :1.82891: AVG IPC :1.75374: L2-Pf-HR :0.87580: L2-HR :0.86303: (Sim:0h9m25s) 
CPU  0 inst:  126000002 cyc:   71662840 now IPC :1.82397: AVG IPC :1.75428: L2-Pf-HR :0.87575: L2-HR :0.86295: (Sim:0h9m29s) 
CPU  0 inst:  127000003 cyc:   72272384 now IPC :1.64057: AVG IPC :1.75331: L2-Pf-HR :0.87576: L2-HR :0.86295: (Sim:0h9m34s) 
CPU  0 inst:  128000000 cyc:   72792309 now IPC :1.92335: AVG IPC :1.75454: L2-Pf-HR :0.87632: L2-HR :0.86362: (Sim:0h9m38s) 
CPU  0 inst:  129000003 cyc:   75090855 now IPC :0.43506: AVG IPC :1.71362: L2-Pf-HR :0.87371: L2-HR :0.86160: (Sim:0h9m46s) 
CPU  0 inst:  130000001 cyc:   81589947 now IPC :0.15387: AVG IPC :1.58787: L2-Pf-HR :0.86457: L2-HR :0.85460: (Sim:0h10m2s) 
CPU  0 inst:  131000000 cyc:   88105336 now IPC :0.15348: AVG IPC :1.48060: L2-Pf-HR :0.85568: L2-HR :0.84791: (Sim:0h10m18s) 
CPU  0 inst:  132000000 cyc:   91795944 now IPC :0.27096: AVG IPC :1.43145: L2-Pf-HR :0.85469: L2-HR :0.84681: (Sim:0h10m28s) 
CPU  0 inst:  133000000 cyc:   95321171 now IPC :0.28367: AVG IPC :1.38856: L2-Pf-HR :0.85420: L2-HR :0.84615: (Sim:0h10m37s) 
CPU  0 inst:  134000000 cyc:   98839409 now IPC :0.28423: AVG IPC :1.34886: L2-Pf-HR :0.85377: L2-HR :0.84554: (Sim:0h10m47s) 
CPU  0 inst:  135000002 cyc:  102358094 now IPC :0.28420: AVG IPC :1.31190: L2-Pf-HR :0.85334: L2-HR :0.84493: (Sim:0h10m56s) 
CPU  0 inst:  136000000 cyc:  105876066 now IPC :0.28425: AVG IPC :1.27744: L2-Pf-HR :0.85292: L2-HR :0.84434: (Sim:0h11m6s) 
CPU  0 inst:  137000000 cyc:  109394832 now IPC :0.28419: AVG IPC :1.24520: L2-Pf-HR :0.85250: L2-HR :0.84375: (Sim:0h11m13s) 
CPU  0 inst:  138000000 cyc:  112914011 now IPC :0.28416: AVG IPC :1.21499: L2-Pf-HR :0.85209: L2-HR :0.84317: (Sim:0h11m23s) 
CPU  0 inst:  139000000 cyc:  116433442 now IPC :0.28414: AVG IPC :1.18661: L2-Pf-HR :0.85167: L2-HR :0.84259: (Sim:0h11m32s) 
CPU  0 inst:  140000000 cyc:  119951333 now IPC :0.28426: AVG IPC :1.15993: L2-Pf-HR :0.85128: L2-HR :0.84202: (Sim:0h11m41s) 
CPU  0 inst:  141000002 cyc:  123469932 now IPC :0.28420: AVG IPC :1.13478: L2-Pf-HR :0.85088: L2-HR :0.84147: (Sim:0h11m49s) 
CPU  0 inst:  142000002 cyc:  126988309 now IPC :0.28422: AVG IPC :1.11103: L2-Pf-HR :0.85047: L2-HR :0.84090: (Sim:0h11m59s) 
CPU  0 inst:  143000001 cyc:  130505681 now IPC :0.28430: AVG IPC :1.08858: L2-Pf-HR :0.85007: L2-HR :0.84034: (Sim:0h12m8s) 
CPU  0 inst:  144000000 cyc:  134023242 now IPC :0.28429: AVG IPC :1.06731: L2-Pf-HR :0.84968: L2-HR :0.83979: (Sim:0h12m17s) 
CPU  0 inst:  145000000 cyc:  137542034 now IPC :0.28419: AVG IPC :1.04713: L2-Pf-HR :0.84929: L2-HR :0.83925: (Sim:0h12m25s) 
CPU  0 inst:  146000000 cyc:  141060522 now IPC :0.28421: AVG IPC :1.02797: L2-Pf-HR :0.84890: L2-HR :0.83870: (Sim:0h12m35s) 
CPU  0 inst:  147000000 cyc:  144580314 now IPC :0.28411: AVG IPC :1.00974: L2-Pf-HR :0.84851: L2-HR :0.83817: (Sim:0h12m44s) 
CPU  0 inst:  148000000 cyc:  148100117 now IPC :0.28411: AVG IPC :0.99238: L2-Pf-HR :0.84812: L2-HR :0.83763: (Sim:0h12m53s) 
CPU  0 inst:  149000000 cyc:  151618813 now IPC :0.28420: AVG IPC :0.97584: L2-Pf-HR :0.84774: L2-HR :0.83710: (Sim:0h13m3s) 
CPU  0 inst:  150000000 cyc:  155137898 now IPC :0.28416: AVG IPC :0.96005: L2-Pf-HR :0.84737: L2-HR :0.83659: (Sim:0h13m13s) 
CPU  0 inst:  151000002 cyc:  158656613 now IPC :0.28420: AVG IPC :0.94496: L2-Pf-HR :0.84700: L2-HR :0.83608: (Sim:0h13m22s) 
CPU  0 inst:  152000000 cyc:  162175823 now IPC :0.28415: AVG IPC :0.93054: L2-Pf-HR :0.84663: L2-HR :0.83557: (Sim:0h13m32s) 
CPU  0 inst:  153000002 cyc:  165694562 now IPC :0.28419: AVG IPC :0.91673: L2-Pf-HR :0.84627: L2-HR :0.83506: (Sim:0h13m42s) 
CPU  0 inst:  154000000 cyc:  169214028 now IPC :0.28413: AVG IPC :0.90350: L2-Pf-HR :0.84590: L2-HR :0.83456: (Sim:0h13m52s) 
CPU  0 inst:  155000000 cyc:  172732835 now IPC :0.28419: AVG IPC :0.89081: L2-Pf-HR :0.84554: L2-HR :0.83407: (Sim:0h14m2s) 
CPU  0 inst:  156000000 cyc:  176251485 now IPC :0.28420: AVG IPC :0.87863: L2-Pf-HR :0.84519: L2-HR :0.83358: (Sim:0h14m11s) 
CPU  0 inst:  157000000 cyc:  179771005 now IPC :0.28413: AVG IPC :0.86693: L2-Pf-HR :0.84484: L2-HR :0.83309: (Sim:0h14m21s) 
CPU  0 inst:  158000000 cyc:  183290517 now IPC :0.28413: AVG IPC :0.85568: L2-Pf-HR :0.84448: L2-HR :0.83260: (Sim:0h14m30s) 
CPU  0 inst:  159000000 cyc:  186809843 now IPC :0.28415: AVG IPC :0.84485: L2-Pf-HR :0.84413: L2-HR :0.83212: (Sim:0h14m40s) 
CPU  0 inst:  160000000 cyc:  190327751 now IPC :0.28426: AVG IPC :0.83444: L2-Pf-HR :0.84379: L2-HR :0.83166: (Sim:0h14m49s) 
CPU  0 inst:  161000002 cyc:  193846879 now IPC :0.28416: AVG IPC :0.82440: L2-Pf-HR :0.84344: L2-HR :0.83119: (Sim:0h14m58s) 
CPU  0 inst:  162000001 cyc:  197363870 now IPC :0.28433: AVG IPC :0.81473: L2-Pf-HR :0.84310: L2-HR :0.83072: (Sim:0h15m6s) 
CPU  0 inst:  163000000 cyc:  200880505 now IPC :0.28436: AVG IPC :0.80540: L2-Pf-HR :0.84277: L2-HR :0.83027: (Sim:0h15m16s) 
CPU  0 inst:  164000000 cyc:  202835396 now IPC :0.51154: AVG IPC :0.80255: L2-Pf-HR :0.84169: L2-HR :0.82919: (Sim:0h15m22s) 
CPU  0 inst:  165000002 cyc:  203388027 now IPC :1.80953: AVG IPC :0.80530: L2-Pf-HR :0.84167: L2-HR :0.82924: (Sim:0h15m26s) 
CPU  0 inst:  166000000 cyc:  204032611 now IPC :1.55139: AVG IPC :0.80767: L2-Pf-HR :0.84158: L2-HR :0.82924: (Sim:0h15m31s) 
CPU  0 inst:  167000003 cyc:  204673298 now IPC :1.56083: AVG IPC :0.81004: L2-Pf-HR :0.84121: L2-HR :0.82898: (Sim:0h15m36s) 
CPU  0 inst:  168000000 cyc:  205187105 now IPC :1.94625: AVG IPC :0.81290: L2-Pf-HR :0.84103: L2-HR :0.82890: (Sim:0h15m41s) 
CPU  0 inst:  169000001 cyc:  205747661 now IPC :1.78394: AVG IPC :0.81555: L2-Pf-HR :0.84078: L2-HR :0.82875: (Sim:0h15m46s) 
CPU  0 inst:  170000002 cyc:  206326395 now IPC :1.72791: AVG IPC :0.81812: L2-Pf-HR :0.84071: L2-HR :0.82872: (Sim:0h15m50s) 
CPU  0 inst:  171000002 cyc:  206840622 now IPC :1.94467: AVG IPC :0.82094: L2-Pf-HR :0.84064: L2-HR :0.82872: (Sim:0h15m55s) 
CPU  0 inst:  172000000 cyc:  207583685 now IPC :1.34578: AVG IPC :0.82283: L2-Pf-HR :0.84025: L2-HR :0.82844: (Sim:0h16m0s) 
CPU  0 inst:  173000003 cyc:  208133490 now IPC :1.81883: AVG IPC :0.82547: L2-Pf-HR :0.84012: L2-HR :0.82838: (Sim:0h16m5s) 
CPU  0 inst:  174000000 cyc:  208678438 now IPC :1.83503: AVG IPC :0.82812: L2-Pf-HR :0.83996: L2-HR :0.82830: (Sim:0h16m9s) 
CPU  0 inst:  175000000 cyc:  209345763 now IPC :1.49852: AVG IPC :0.83027: L2-Pf-HR :0.83982: L2-HR :0.82826: (Sim:0h16m14s) 
CPU  0 inst:  176000000 cyc:  209863309 now IPC :1.93220: AVG IPC :0.83300: L2-Pf-HR :0.83959: L2-HR :0.82812: (Sim:0h16m19s) 
CPU  0 inst:  177000001 cyc:  210372417 now IPC :1.96422: AVG IPC :0.83575: L2-Pf-HR :0.83953: L2-HR :0.82814: (Sim:0h16m23s) 
CPU  0 inst:  178000003 cyc:  210933466 now IPC :1.78238: AVG IPC :0.83828: L2-Pf-HR :0.83976: L2-HR :0.82842: (Sim:0h16m27s) 
CPU  0 inst:  179000003 cyc:  211512642 now IPC :1.72659: AVG IPC :0.84072: L2-Pf-HR :0.83925: L2-HR :0.82799: (Sim:0h16m32s) 
CPU  0 inst:  180000000 cyc:  212051664 now IPC :1.85521: AVG IPC :0.84331: L2-Pf-HR :0.83928: L2-HR :0.82809: (Sim:0h16m37s) 
CPU  0 inst:  181000003 cyc:  212806629 now IPC :1.32457: AVG IPC :0.84503: L2-Pf-HR :0.83875: L2-HR :0.82766: (Sim:0h16m42s) 
CPU  0 inst:  182000001 cyc:  213339299 now IPC :1.87733: AVG IPC :0.84761: L2-Pf-HR :0.83865: L2-HR :0.82761: (Sim:0h16m46s) 
CPU  0 inst:  183000003 cyc:  213953520 now IPC :1.62808: AVG IPC :0.84987: L2-Pf-HR :0.83863: L2-HR :0.82766: (Sim:0h16m50s) 
CPU  0 inst:  184000000 cyc:  214557401 now IPC :1.65595: AVG IPC :0.85214: L2-Pf-HR :0.83832: L2-HR :0.82744: (Sim:0h16m54s) 
CPU  0 inst:  185000003 cyc:  215068199 now IPC :1.95773: AVG IPC :0.85478: L2-Pf-HR :0.83821: L2-HR :0.82741: (Sim:0h16m58s) 
CPU  0 inst:  186000002 cyc:  215632357 now IPC :1.77255: AVG IPC :0.85719: L2-Pf-HR :0.83803: L2-HR :0.82731: (Sim:0h17m2s) 
CPU  0 inst:  187000000 cyc:  216203891 now IPC :1.74967: AVG IPC :0.85956: L2-Pf-HR :0.83794: L2-HR :0.82727: (Sim:0h17m7s) 
CPU  0 inst:  188000000 cyc:  216725846 now IPC :1.91587: AVG IPC :0.86212: L2-Pf-HR :0.83785: L2-HR :0.82723: (Sim:0h17m11s) 
CPU  0 inst:  189000000 cyc:  217475549 now IPC :1.33386: AVG IPC :0.86375: L2-Pf-HR :0.83751: L2-HR :0.82698: (Sim:0h17m15s) 
CPU  0 inst:  190000002 cyc:  218024726 now IPC :1.82091: AVG IPC :0.86618: L2-Pf-HR :0.83742: L2-HR :0.82693: (Sim:0h17m20s) 
CPU  0 inst:  191000001 cyc:  218586199 now IPC :1.78103: AVG IPC :0.86854: L2-Pf-HR :0.83727: L2-HR :0.82686: (Sim:0h17m25s) 
CPU  0 inst:  192000000 cyc:  219248443 now IPC :1.51002: AVG IPC :0.87048: L2-Pf-HR :0.83719: L2-HR :0.82685: (Sim:0h17m30s) 
CPU  0 inst:  193000002 cyc:  219768573 now IPC :1.92260: AVG IPC :0.87298: L2-Pf-HR :0.83697: L2-HR :0.82672: (Sim:0h17m34s) 
CPU  0 inst:  194000002 cyc:  220285685 now IPC :1.93382: AVG IPC :0.87549: L2-Pf-HR :0.83688: L2-HR :0.82668: (Sim:0h17m39s) 
CPU  0 inst:  195000002 cyc:  220869475 now IPC :1.71294: AVG IPC :0.87771: L2-Pf-HR :0.83698: L2-HR :0.82685: (Sim:0h17m44s) 
CPU  0 inst:  196000000 cyc:  221424132 now IPC :1.80291: AVG IPC :0.88004: L2-Pf-HR :0.83666: L2-HR :0.82657: (Sim:0h17m48s) 
CPU  0 inst:  197000003 cyc:  221963648 now IPC :1.85352: AVG IPC :0.88241: L2-Pf-HR :0.83678: L2-HR :0.82673: (Sim:0h17m53s) 
CPU  0 inst:  198000001 cyc:  222714898 now IPC :1.33111: AVG IPC :0.88393: L2-Pf-HR :0.83627: L2-HR :0.82632: (Sim:0h17m58s) 
CPU  0 inst:  199000003 cyc:  223250732 now IPC :1.86625: AVG IPC :0.88630: L2-Pf-HR :0.83616: L2-HR :0.82625: (Sim:0h18m3s) 
CPU  0 inst:  200000000 cyc:  223862575 now IPC :1.63440: AVG IPC :0.88836: L2-Pf-HR :0.83623: L2-HR :0.82637: (Sim:0h18m8s) 
CPU  0 inst:  201000000 cyc:  224474565 now IPC :1.63401: AVG IPC :0.89040: L2-Pf-HR :0.83593: L2-HR :0.82615: (Sim:0h18m13s) 
CPU  0 inst:  202000000 cyc:  224988865 now IPC :1.94439: AVG IPC :0.89282: L2-Pf-HR :0.83592: L2-HR :0.82619: (Sim:0h18m17s) 
CPU  0 inst:  203000000 cyc:  225553904 now IPC :1.76979: AVG IPC :0.89502: L2-Pf-HR :0.83583: L2-HR :0.82616: (Sim:0h18m22s) 
CPU  0 inst:  204000000 cyc:  226125025 now IPC :1.75094: AVG IPC :0.89719: L2-Pf-HR :0.83581: L2-HR :0.82617: (Sim:0h18m27s) 
CPU  0 inst:  205000002 cyc:  226656727 now IPC :1.88076: AVG IPC :0.89951: L2-Pf-HR :0.83588: L2-HR :0.82626: (Sim:0h18m31s) 
CPU  0 inst:  206000002 cyc:  227409696 now IPC :1.32808: AVG IPC :0.90094: L2-Pf-HR :0.83562: L2-HR :0.82606: (Sim:0h18m36s) 
CPU  0 inst:  207000003 cyc:  227951442 now IPC :1.84589: AVG IPC :0.90319: L2-Pf-HR :0.83554: L2-HR :0.82603: (Sim:0h18m41s) 
CPU  0 inst:  208000000 cyc:  228556377 now IPC :1.65307: AVG IPC :0.90519: L2-Pf-HR :0.83532: L2-HR :0.82589: (Sim:0h18m44s) 
CPU  0 inst:  209000002 cyc:  229163433 now IPC :1.64730: AVG IPC :0.90716: L2-Pf-HR :0.83535: L2-HR :0.82596: (Sim:0h18m49s) 
CPU  0 inst:  210000003 cyc:  229681790 now IPC :1.92917: AVG IPC :0.90948: L2-Pf-HR :0.83526: L2-HR :0.82593: (Sim:0h18m54s) 
CPU  0 inst:  211000003 cyc:  230207488 now IPC :1.90223: AVG IPC :0.91175: L2-Pf-HR :0.83519: L2-HR :0.82592: (Sim:0h18m58s) 
CPU  0 inst:  212000000 cyc:  230811655 now IPC :1.65517: AVG IPC :0.91371: L2-Pf-HR :0.83517: L2-HR :0.82595: (Sim:0h19m3s) 
CPU  0 inst:  213000001 cyc:  231331340 now IPC :1.92424: AVG IPC :0.91599: L2-Pf-HR :0.83516: L2-HR :0.82597: (Sim:0h19m8s) 
CPU  0 inst:  214000000 cyc:  231874187 now IPC :1.84214: AVG IPC :0.91816: L2-Pf-HR :0.83542: L2-HR :0.82624: (Sim:0h19m13s) 
CPU  0 inst:  215000000 cyc:  232635003 now IPC :1.31438: AVG IPC :0.91947: L2-Pf-HR :0.83486: L2-HR :0.82577: (Sim:0h19m18s) 
CPU  0 inst:  216000000 cyc:  233165610 now IPC :1.88463: AVG IPC :0.92167: L2-Pf-HR :0.83478: L2-HR :0.82574: (Sim:0h19m22s) 
CPU  0 inst:  217000000 cyc:  233776359 now IPC :1.63733: AVG IPC :0.92355: L2-Pf-HR :0.83489: L2-HR :0.82589: (Sim:0h19m27s) 
CPU  0 inst:  218000001 cyc:  234382287 now IPC :1.65036: AVG IPC :0.92544: L2-Pf-HR :0.83459: L2-HR :0.82566: (Sim:0h19m32s) 
CPU  0 inst:  219000000 cyc:  234897309 now IPC :1.94166: AVG IPC :0.92767: L2-Pf-HR :0.83460: L2-HR :0.82571: (Sim:0h19m37s) 
CPU  0 inst:  220000000 cyc:  235455116 now IPC :1.79273: AVG IPC :0.92973: L2-Pf-HR :0.83463: L2-HR :0.82579: (Sim:0h19m41s) 
CPU  0 inst:  221000003 cyc:  236035849 now IPC :1.72197: AVG IPC :0.93169: L2-Pf-HR :0.83458: L2-HR :0.82576: (Sim:0h19m46s) 
CPU  0 inst:  222000002 cyc:  236578483 now IPC :1.84286: AVG IPC :0.93379: L2-Pf-HR :0.83453: L2-HR :0.82575: (Sim:0h19m51s) 
CPU  0 inst:  223000000 cyc:  237308074 now IPC :1.37063: AVG IPC :0.93514: L2-Pf-HR :0.83443: L2-HR :0.82569: (Sim:0h19m56s) 
CPU  0 inst:  224000000 cyc:  237845228 now IPC :1.86166: AVG IPC :0.93724: L2-Pf-HR :0.83432: L2-HR :0.82563: (Sim:0h20m0s) 
CPU  0 inst:  225000003 cyc:  238461149 now IPC :1.62359: AVG IPC :0.93902: L2-Pf-HR :0.83416: L2-HR :0.82552: (Sim:0h20m5s) 
CPU  0 inst:  226000003 cyc:  239074098 now IPC :1.63146: AVG IPC :0.94080: L2-Pf-HR :0.83414: L2-HR :0.82555: (Sim:0h20m10s) 
CPU  0 inst:  227000000 cyc:  239600767 now IPC :1.89872: AVG IPC :0.94291: L2-Pf-HR :0.83406: L2-HR :0.82551: (Sim:0h20m15s) 
CPU  0 inst:  228000000 cyc:  240134754 now IPC :1.87270: AVG IPC :0.94499: L2-Pf-HR :0.83397: L2-HR :0.82547: (Sim:0h20m19s) 
CPU  0 inst:  229000000 cyc:  240739823 now IPC :1.65270: AVG IPC :0.94678: L2-Pf-HR :0.83400: L2-HR :0.82553: (Sim:0h20m24s) 
CPU  0 inst:  230000001 cyc:  241259017 now IPC :1.92606: AVG IPC :0.94889: L2-Pf-HR :0.83404: L2-HR :0.82558: (Sim:0h20m29s) 
CPU  0 inst:  231000003 cyc:  241882254 now IPC :1.60453: AVG IPC :0.95059: L2-Pf-HR :0.83416: L2-HR :0.82574: (Sim:0h20m33s) 
CPU  0 inst:  232000000 cyc:  242556229 now IPC :1.48373: AVG IPC :0.95208: L2-Pf-HR :0.83382: L2-HR :0.82545: (Sim:0h20m38s) 
CPU  0 inst:  233000003 cyc:  243089802 now IPC :1.87416: AVG IPC :0.95411: L2-Pf-HR :0.83376: L2-HR :0.82543: (Sim:0h20m42s) 
CPU  0 inst:  234000003 cyc:  243697571 now IPC :1.64536: AVG IPC :0.95584: L2-Pf-HR :0.83391: L2-HR :0.82561: (Sim:0h20m47s) 
CPU  0 inst:  235000002 cyc:  244308251 now IPC :1.63752: AVG IPC :0.95755: L2-Pf-HR :0.83358: L2-HR :0.82535: (Sim:0h20m52s) 
CPU  0 inst:  236000000 cyc:  244822204 now IPC :1.94570: AVG IPC :0.95963: L2-Pf-HR :0.83354: L2-HR :0.82535: (Sim:0h20m57s) 
CPU  0 inst:  237000002 cyc:  245387612 now IPC :1.76864: AVG IPC :0.96150: L2-Pf-HR :0.83360: L2-HR :0.82545: (Sim:0h21m1s) 
CPU  0 inst:  238000001 cyc:  245976229 now IPC :1.69890: AVG IPC :0.96328: L2-Pf-HR :0.83350: L2-HR :0.82537: (Sim:0h21m6s) 
CPU  0 inst:  239000000 cyc:  246516689 now IPC :1.85027: AVG IPC :0.96523: L2-Pf-HR :0.83347: L2-HR :0.82537: (Sim:0h21m11s) 
CPU  0 inst:  240000000 cyc:  247260405 now IPC :1.34460: AVG IPC :0.96637: L2-Pf-HR :0.83332: L2-HR :0.82526: (Sim:0h21m16s) 
CPU  0 inst:  241000000 cyc:  247791274 now IPC :1.88370: AVG IPC :0.96835: L2-Pf-HR :0.83330: L2-HR :0.82527: (Sim:0h21m20s) 
CPU  0 inst:  242000003 cyc:  248407490 now IPC :1.62281: AVG IPC :0.96998: L2-Pf-HR :0.83322: L2-HR :0.82524: (Sim:0h21m25s) 
CPU  0 inst:  243000000 cyc:  249028234 now IPC :1.61097: AVG IPC :0.97158: L2-Pf-HR :0.83316: L2-HR :0.82522: (Sim:0h21m30s) 
CPU  0 inst:  244000000 cyc:  249549147 now IPC :1.91971: AVG IPC :0.97357: L2-Pf-HR :0.83313: L2-HR :0.82522: (Sim:0h21m35s) 
CPU  0 inst:  245000000 cyc:  250110826 now IPC :1.78038: AVG IPC :0.97539: L2-Pf-HR :0.83299: L2-HR :0.82513: (Sim:0h21m40s) 
CPU  0 inst:  246000000 cyc:  250683003 now IPC :1.74771: AVG IPC :0.97716: L2-Pf-HR :0.83313: L2-HR :0.82528: (Sim:0h21m45s) 
CPU  0 inst:  247000002 cyc:  251203516 now IPC :1.92119: AVG IPC :0.97912: L2-Pf-HR :0.83321: L2-HR :0.82536: (Sim:0h21m49s) 
CPU  0 inst:  248000000 cyc:  251946726 now IPC :1.34551: AVG IPC :0.98020: L2-Pf-HR :0.83303: L2-HR :0.82524: (Sim:0h21m54s) 
CPU  0 inst:  249000003 cyc:  252512824 now IPC :1.76648: AVG IPC :0.98197: L2-Pf-HR :0.83295: L2-HR :0.82518: (Sim:0h21m59s) 
CPU  0 inst:  250000003 cyc:  253043429 now IPC :1.88464: AVG IPC :0.98387: L2-Pf-HR :0.83292: L2-HR :0.82519: (Sim:0h22m4s) 
CPU  0 inst:  251000001 cyc:  253657484 now IPC :1.62852: AVG IPC :0.98544: L2-Pf-HR :0.83312: L2-HR :0.82541: (Sim:0h22m9s) 
CPU  0 inst:  252000000 cyc:  254265055 now IPC :1.64590: AVG IPC :0.98703: L2-Pf-HR :0.83276: L2-HR :0.82512: (Sim:0h22m13s) 
CPU  0 inst:  253000002 cyc:  254775026 now IPC :1.96090: AVG IPC :0.98898: L2-Pf-HR :0.83273: L2-HR :0.82513: (Sim:0h22m17s) 
CPU  0 inst:  254000001 cyc:  255329931 now IPC :1.80211: AVG IPC :0.99076: L2-Pf-HR :0.83287: L2-HR :0.82529: (Sim:0h22m22s) 
CPU  0 inst:  255000000 cyc:  255907693 now IPC :1.73081: AVG IPC :0.99243: L2-Pf-HR :0.83276: L2-HR :0.82520: (Sim:0h22m27s) 
CPU  0 inst:  256000000 cyc:  256448796 now IPC :1.84808: AVG IPC :0.99425: L2-Pf-HR :0.83279: L2-HR :0.82524: (Sim:0h22m31s) 
CPU  0 inst:  257000002 cyc:  257190538 now IPC :1.34818: AVG IPC :0.99527: L2-Pf-HR :0.83262: L2-HR :0.82511: (Sim:0h22m36s) 
CPU  0 inst:  258000001 cyc:  257720916 now IPC :1.88545: AVG IPC :0.99711: L2-Pf-HR :0.83258: L2-HR :0.82511: (Sim:0h22m41s) 
CPU  0 inst:  259000003 cyc:  258339080 now IPC :1.61770: AVG IPC :0.99860: L2-Pf-HR :0.83255: L2-HR :0.82511: (Sim:0h22m46s) 
CPU  0 inst:  260000000 cyc:  258946992 now IPC :1.64497: AVG IPC :1.00012: L2-Pf-HR :0.83247: L2-HR :0.82507: (Sim:0h22m50s) 
CPU  0 inst:  261000002 cyc:  259466224 now IPC :1.92593: AVG IPC :1.00198: L2-Pf-HR :0.83243: L2-HR :0.82507: (Sim:0h22m55s) 
CPU  0 inst:  262000003 cyc:  260029581 now IPC :1.77508: AVG IPC :1.00366: L2-Pf-HR :0.83230: L2-HR :0.82499: (Sim:0h22m59s) 
CPU  0 inst:  263000002 cyc:  260596776 now IPC :1.76306: AVG IPC :1.00532: L2-Pf-HR :0.83242: L2-HR :0.82511: (Sim:0h23m4s) 
CPU  0 inst:  264000000 cyc:  261113095 now IPC :1.93678: AVG IPC :1.00717: L2-Pf-HR :0.83248: L2-HR :0.82518: (Sim:0h23m9s) 
CPU  0 inst:  265000001 cyc:  261869269 now IPC :1.32245: AVG IPC :1.00809: L2-Pf-HR :0.83233: L2-HR :0.82507: (Sim:0h23m14s) 
CPU  0 inst:  266000002 cyc:  262428578 now IPC :1.78792: AVG IPC :1.00975: L2-Pf-HR :0.83226: L2-HR :0.82503: (Sim:0h23m18s) 
CPU  0 inst:  267000001 cyc:  262961221 now IPC :1.87743: AVG IPC :1.01152: L2-Pf-HR :0.83225: L2-HR :0.82504: (Sim:0h23m23s) 
CPU  0 inst:  268000000 cyc:  263590325 now IPC :1.58956: AVG IPC :1.01290: L2-Pf-HR :0.83241: L2-HR :0.82523: (Sim:0h23m27s) 
CPU  0 inst:  269000002 cyc:  264180067 now IPC :1.69566: AVG IPC :1.01443: L2-Pf-HR :0.83206: L2-HR :0.82492: (Sim:0h23m32s) 
CPU  0 inst:  270000003 cyc:  264688966 now IPC :1.96503: AVG IPC :1.01627: L2-Pf-HR :0.83200: L2-HR :0.82490: (Sim:0h23m36s) 
CPU  0 inst:  271000002 cyc:  265254233 now IPC :1.76907: AVG IPC :1.01788: L2-Pf-HR :0.83216: L2-HR :0.82508: (Sim:0h23m41s) 
CPU  0 inst:  272000000 cyc:  265837157 now IPC :1.71549: AVG IPC :1.01941: L2-Pf-HR :0.83196: L2-HR :0.82491: (Sim:0h23m46s) 
CPU  0 inst:  273000002 cyc:  266382076 now IPC :1.83514: AVG IPC :1.02109: L2-Pf-HR :0.83198: L2-HR :0.82495: (Sim:0h23m50s) 
CPU  0 inst:  274000001 cyc:  267130997 now IPC :1.33525: AVG IPC :1.02197: L2-Pf-HR :0.83175: L2-HR :0.82476: (Sim:0h23m55s) 
CPU  0 inst:  275000002 cyc:  267659141 now IPC :1.89342: AVG IPC :1.02370: L2-Pf-HR :0.83174: L2-HR :0.82478: (Sim:0h24m0s) 
CPU  0 inst:  276000000 cyc:  268276208 now IPC :1.62057: AVG IPC :1.02508: L2-Pf-HR :0.83173: L2-HR :0.82480: (Sim:0h24m4s) 
CPU  0 inst:  277000003 cyc:  268890603 now IPC :1.62762: AVG IPC :1.02646: L2-Pf-HR :0.83163: L2-HR :0.82473: (Sim:0h24m9s) 
CPU  0 inst:  278000003 cyc:  269402095 now IPC :1.95506: AVG IPC :1.02823: L2-Pf-HR :0.83161: L2-HR :0.82475: (Sim:0h24m13s) 
CPU  0 inst:  279000001 cyc:  269967619 now IPC :1.76827: AVG IPC :1.02978: L2-Pf-HR :0.83153: L2-HR :0.82470: (Sim:0h24m18s) 
CPU  0 inst:  280000000 cyc:  270538329 now IPC :1.75220: AVG IPC :1.03131: L2-Pf-HR :0.83162: L2-HR :0.82479: (Sim:0h24m23s) 
CPU  0 inst:  281000002 cyc:  271051683 now IPC :1.94798: AVG IPC :1.03305: L2-Pf-HR :0.83170: L2-HR :0.82489: (Sim:0h24m28s) 
CPU  0 inst:  282000000 cyc:  271788167 now IPC :1.35780: AVG IPC :1.03394: L2-Pf-HR :0.83158: L2-HR :0.82480: (Sim:0h24m33s) 
CPU  0 inst:  283000001 cyc:  272340765 now IPC :1.80964: AVG IPC :1.03552: L2-Pf-HR :0.83156: L2-HR :0.82480: (Sim:0h24m37s) 
CPU  0 inst:  284000000 cyc:  272883928 now IPC :1.84107: AVG IPC :1.03713: L2-Pf-HR :0.83157: L2-HR :0.82483: (Sim:0h24m40s) 
CPU  0 inst:  285000001 cyc:  273541623 now IPC :1.52046: AVG IPC :1.03829: L2-Pf-HR :0.83157: L2-HR :0.82488: (Sim:0h24m44s) 
CPU  0 inst:  286000001 cyc:  274092252 now IPC :1.81610: AVG IPC :1.03986: L2-Pf-HR :0.83149: L2-HR :0.82482: (Sim:0h24m48s) 
CPU  0 inst:  287000000 cyc:  274602959 now IPC :1.95807: AVG IPC :1.04157: L2-Pf-HR :0.83152: L2-HR :0.82487: (Sim:0h24m52s) 
CPU  0 inst:  288000000 cyc:  275166277 now IPC :1.77520: AVG IPC :1.04308: L2-Pf-HR :0.83174: L2-HR :0.82510: (Sim:0h24m56s) 
CPU  0 inst:  289000003 cyc:  275754450 now IPC :1.70019: AVG IPC :1.04449: L2-Pf-HR :0.83156: L2-HR :0.82494: (Sim:0h25m1s) 
CPU  0 inst:  290000003 cyc:  276295492 now IPC :1.84829: AVG IPC :1.04607: L2-Pf-HR :0.83165: L2-HR :0.82504: (Sim:0h25m6s) 
CPU  0 inst:  291000000 cyc:  277041224 now IPC :1.34096: AVG IPC :1.04686: L2-Pf-HR :0.83139: L2-HR :0.82483: (Sim:0h25m11s) 
CPU  0 inst:  292000000 cyc:  277572294 now IPC :1.88299: AVG IPC :1.04847: L2-Pf-HR :0.83141: L2-HR :0.82485: (Sim:0h25m15s) 
CPU  0 inst:  293000002 cyc:  278186990 now IPC :1.62682: AVG IPC :1.04975: L2-Pf-HR :0.83144: L2-HR :0.82491: (Sim:0h25m20s) 
CPU  0 inst:  294000001 cyc:  278807305 now IPC :1.61208: AVG IPC :1.05101: L2-Pf-HR :0.83130: L2-HR :0.82480: (Sim:0h25m25s) 
CPU  0 inst:  295000001 cyc:  279320241 now IPC :1.94956: AVG IPC :1.05266: L2-Pf-HR :0.83124: L2-HR :0.82479: (Sim:0h25m29s) 
Finished CPU 0 instr: 293000000 cyc: 278341534 AVG IPC: 1.05266 (Sim time: 0h25m29s)

ChampSim completed all CPUs

[ROI Statistics]
Core_0_instructions 293000000
Core_0_cycles 278341534
Core_0_IPC 1.05266

Core_0_branch_prediction_accuracy 98.23789
Core_0_branch_MPKI 0.42863
Core_0_average_ROB_occupancy_at_mispredict 247.87325

Core_0_L1D_total_access 174034447
Core_0_L1D_total_hit 167553078 L1D_total_Hit Ratio: 0.96276
Core_0_L1D_total_miss 6481369
Core_0_L1D_loads 66864428
Core_0_L1D_load_hit 64180002 L1D_load_Hit Ratio: 0.95985
Core_0_L1D_load_miss 2684426
Core_0_L1D_RFOs 5959991
Core_0_L1D_RFO_hit 5663075 L1D_RFO_Hit Ratio: 0.95018
Core_0_L1D_RFO_miss 296916
Core_0_L1D_prefetches 101210028
Core_0_L1D_prefetch_hit 97710001 L1D_prefetch_Hit Ratio: 0.96542
Core_0_L1D_prefetch_miss 3500027
Core_0_L1D_writebacks 0
Core_0_L1D_writeback_hit 0 L1D_writeback_Hit Ratio: -nan
Core_0_L1D_writeback_miss 0
Core_0_L1D_prefetch_requested 203154753
Core_0_L1D_prefetch_issued 122215676
Core_0_L1D_prefetch_useful 2818556 L1D_Useful Ratio: 0.02306
Core_0_L1D_prefetch_useless 709419
Core_0_L1D_prefetch_late 520918
Core_0_L1D_average_miss_latency 10273855.24363

Core_0_L1I_total_access 66557669
Core_0_L1I_total_hit 66552823 L1I_total_Hit Ratio: 0.99993
Core_0_L1I_total_miss 4846
Core_0_L1I_loads 66557669
Core_0_L1I_load_hit 66552823 L1I_load_Hit Ratio: 0.99993
Core_0_L1I_load_miss 4846
Core_0_L1I_RFOs 0
Core_0_L1I_RFO_hit 0 L1I_RFO_Hit Ratio: -nan
Core_0_L1I_RFO_miss 0
Core_0_L1I_prefetches 0
Core_0_L1I_prefetch_hit 0 L1I_prefetch_Hit Ratio: -nan
Core_0_L1I_prefetch_miss 0
Core_0_L1I_writebacks 0
Core_0_L1I_writeback_hit 0 L1I_writeback_Hit Ratio: -nan
Core_0_L1I_writeback_miss 0
Core_0_L1I_prefetch_requested 0
Core_0_L1I_prefetch_issued 0
Core_0_L1I_prefetch_useful 0 L1I_Useful Ratio: -nan
Core_0_L1I_prefetch_useless 0
Core_0_L1I_prefetch_late 0
Core_0_L1I_average_miss_latency 318.66343

Core_0_L2C_total_access 25295354
Core_0_L2C_total_hit 20863241 L2C_total_Hit Ratio: 0.82479
Core_0_L2C_total_miss 4432113
Core_0_L2C_loads 2168819
Core_0_L2C_load_hit 1544548 L2C_load_Hit Ratio: 0.71216
Core_0_L2C_load_miss 624271
Core_0_L2C_RFOs 296805
Core_0_L2C_RFO_hit 105245 L2C_RFO_Hit Ratio: 0.35459
Core_0_L2C_RFO_miss 191560
Core_0_L2C_prefetches 21240364
Core_0_L2C_prefetch_hit 17655906 L2C_prefetch_Hit Ratio: 0.83124
Core_0_L2C_prefetch_miss 3584458
Core_0_L2C_writebacks 1589366
Core_0_L2C_writeback_hit 1557542 L2C_writeback_Hit Ratio: 0.97998
Core_0_L2C_writeback_miss 31824
Core_0_L2C_prefetch_requested 47348214
Core_0_L2C_prefetch_issued 33249399
Core_0_L2C_prefetch_useful 948426 L2C_Useful Ratio: 0.02852
Core_0_L2C_prefetch_useless 2661150
Core_0_L2C_prefetch_late 35122
Core_0_L2C_average_miss_latency 143.77214

Core_0_LLC_total_access 5946485
Core_0_LLC_total_hit 4311066 LLC_total_Hit Ratio: 0.72498
Core_0_LLC_total_miss 1635419
Core_0_LLC_loads 589183
Core_0_LLC_load_hit 439311 LLC_load_Hit Ratio: 0.74563
Core_0_LLC_load_miss 149872
Core_0_LLC_RFOs 191526
Core_0_LLC_RFO_hit 14840 LLC_RFO_Hit Ratio: 0.07748
Core_0_LLC_RFO_miss 176686
Core_0_LLC_prefetches 3734832
Core_0_LLC_prefetch_hit 2426191 LLC_prefetch_Hit Ratio: 0.64961
Core_0_LLC_prefetch_miss 1308641
Core_0_LLC_writebacks 1430944
Core_0_LLC_writeback_hit 1430724 LLC_writeback_Hit Ratio: 0.99985
Core_0_LLC_writeback_miss 220
Core_0_LLC_prefetch_requested 0
Core_0_LLC_prefetch_issued 0
Core_0_LLC_prefetch_useful 262960 LLC_Useful Ratio: inf
Core_0_LLC_prefetch_useless 1042549
Core_0_LLC_prefetch_late 16542
Core_0_LLC_average_miss_latency 329.09506

Core_0_major_page_fault 0
Core_0_minor_page_fault 13331

CPU 0 L1D next line prefetcher final stats
CPU 0 L2C PC-based stride prefetcher final stats
Stride Degree: 12
MK1  MARKOV_LRU_SIZE: 128
MK1  MARKOV_PREDICTION_PERCENTTHRESHOLD: 20.00000
MK1  OUTLIERS_THRESHOLD_Max: 64
MK1  OUTLIERS_THRESHOLD_Min: 32
MK2  MARKOV_LRU_SIZE: 512
MK2  MARKOV_PREDICTION_PERCENTTHRESHOLD: 15.00000
MK2  OUTLIERS_THRESHOLD_Max: 8
MK2  OUTLIERS_THRESHOLD_Min: 0
MK3  MARKOV_LRU_SIZE: 384
MK3  MARKOV_PREDICTION_PERCENTTHRESHOLD: 20.00000
MK3  OUTLIERS_THRESHOLD_Max: 16
MK3  OUTLIERS_THRESHOLD_Min: 8
MK4  MARKOV_LRU_SIZE: 512
MK4  MARKOV_PREDICTION_PERCENTTHRESHOLD: 15.00000
MK4  OUTLIERS_THRESHOLD_Max: 8
MK4  OUTLIERS_THRESHOLD_Min: 0
IPStride Degree/Access Ratio: 4.24198
MK1 IPDEltaMarkov  Degree/Access Ratio: 0.29239
MK2 IPDEltaMarkov  Degree/Access Ratio: 1.55728
MK3 IPDEltaMarkov  Degree/Access Ratio: 0.55659
MK4 IPDEltaMarkov  Degree/Access Ratio: 1.57761
Channel_0_RQ_row_buffer_hit 821653
Channel_0_RQ_row_buffer_miss 813339
Channel_0_WQ_row_buffer_hit 237114
Channel_0_WQ_row_buffer_miss 638708
Channel_0_WQ_full 0
Channel_0_dbus_congested 1673405

avg_congested_cycle 10

EzSearch AVG IPC :1.05266: L2-Pf-HR :0.83124 : L2-HR :0.82479 Uful:0.02852
Finished combination: TraceType=./777-comparisonScript Prefetcher=030-L2-MultiMarkovDelta_ip_stride_L1-nextLine-1-2-4_vTTT L1=next_line
