TRACE: [496000000][OPT-125M]_[h12][s1024][d64] Warmup: 2000000 NumTraces: 496000000
L1:ipcp:L2:ipcp
*************************************************
   ChampSim Multicore Out-of-Order Simulator
   Last compiled: Oct 31 2024 09:02:56
*************************************************

trace_0 770-tot_memTraces_v5/130-subBillion_s1024_LLM_Arch/memTraces[496000000][OPT-125M]_[h12][s1024][d64].champsim.9.xz
MAIN.cc ln 751 stats print skipped
CPU  0 inst:    1000002 cyc:     507540 now IPC :1.97029: AVG IPC :1.97029: L2-Pf-HR :0.87987: L2-HR :0.80954: (Sim:0h0m15s) 
CPU  0 inst:    2000000 cyc:     997735 now IPC :2.04000: AVG IPC :2.00454: L2-Pf-HR :0.92295: L2-HR :0.84578: (Sim:0h0m30s) 

Warmup complete CPU  0 instructions:    2000002 cycles:     997736 (Simulation time: 0 hr 0 min 30 sec) 

CPU  0 inst:    3000001 cyc:    1663179 now IPC :1.50276: AVG IPC :1.50276: L2-Pf-HR :0.95432: L2-HR :0.85346: (Sim:0h0m43s) 
CPU  0 inst:    4000002 cyc:    2329078 now IPC :1.50173: AVG IPC :1.50224: L2-Pf-HR :0.95503: L2-HR :0.85517: (Sim:0h0m57s) 
CPU  0 inst:    5000000 cyc:    2993648 now IPC :1.50473: AVG IPC :1.50307: L2-Pf-HR :0.95547: L2-HR :0.85635: (Sim:0h1m10s) 
CPU  0 inst:    6000003 cyc:    3661675 now IPC :1.49695: AVG IPC :1.50154: L2-Pf-HR :0.95626: L2-HR :0.85721: (Sim:0h1m23s) 
CPU  0 inst:    7000005 cyc:    4392013 now IPC :1.36923: AVG IPC :1.47307: L2-Pf-HR :0.95252: L2-HR :0.85557: (Sim:0h1m37s) 
CPU  0 inst:    8000000 cyc:    5065514 now IPC :1.48477: AVG IPC :1.47501: L2-Pf-HR :0.95441: L2-HR :0.85719: (Sim:0h1m50s) 
CPU  0 inst:    9000005 cyc:    5736773 now IPC :1.48975: AVG IPC :1.47709: L2-Pf-HR :0.95589: L2-HR :0.85841: (Sim:0h2m3s) 
CPU  0 inst:   10000000 cyc:    6409520 now IPC :1.48644: AVG IPC :1.47826: L2-Pf-HR :0.95686: L2-HR :0.85924: (Sim:0h2m11s) 
CPU  0 inst:   11000003 cyc:    7078354 now IPC :1.49514: AVG IPC :1.48011: L2-Pf-HR :0.95758: L2-HR :0.86005: (Sim:0h2m18s) 
CPU  0 inst:   12000000 cyc:    7747055 now IPC :1.49543: AVG IPC :1.48163: L2-Pf-HR :0.95827: L2-HR :0.86054: (Sim:0h2m24s) 
CPU  0 inst:   13000005 cyc:    8485532 now IPC :1.35415: AVG IPC :1.46906: L2-Pf-HR :0.95706: L2-HR :0.86205: (Sim:0h2m32s) 
CPU  0 inst:   14000002 cyc:    9172325 now IPC :1.45604: AVG IPC :1.46796: L2-Pf-HR :0.95739: L2-HR :0.86437: (Sim:0h2m39s) 
CPU  0 inst:   15000003 cyc:    9857548 now IPC :1.45938: AVG IPC :1.46730: L2-Pf-HR :0.95772: L2-HR :0.86654: (Sim:0h2m48s) 
CPU  0 inst:   16000000 cyc:   10544875 now IPC :1.45491: AVG IPC :1.46641: L2-Pf-HR :0.95807: L2-HR :0.86842: (Sim:0h2m55s) 
CPU  0 inst:   17000002 cyc:   11343057 now IPC :1.25285: AVG IPC :1.44993: L2-Pf-HR :0.95539: L2-HR :0.86606: (Sim:0h3m3s) 
CPU  0 inst:   18000000 cyc:   12048826 now IPC :1.41689: AVG IPC :1.44782: L2-Pf-HR :0.95539: L2-HR :0.86559: (Sim:0h3m10s) 
CPU  0 inst:   19000000 cyc:   12759197 now IPC :1.40772: AVG IPC :1.44540: L2-Pf-HR :0.95555: L2-HR :0.86516: (Sim:0h3m19s) 
CPU  0 inst:   20000005 cyc:   13463845 now IPC :1.41916: AVG IPC :1.44392: L2-Pf-HR :0.95558: L2-HR :0.86475: (Sim:0h3m34s) 
CPU  0 inst:   21000002 cyc:   14172589 now IPC :1.41094: AVG IPC :1.44214: L2-Pf-HR :0.95566: L2-HR :0.86447: (Sim:0h3m48s) 
CPU  0 inst:   22000001 cyc:   14875794 now IPC :1.42206: AVG IPC :1.44112: L2-Pf-HR :0.95575: L2-HR :0.86424: (Sim:0h4m0s) 
CPU  0 inst:   23000002 cyc:   15663155 now IPC :1.27007: AVG IPC :1.43194: L2-Pf-HR :0.95486: L2-HR :0.86355: (Sim:0h4m7s) 
CPU  0 inst:   24000000 cyc:   16367049 now IPC :1.42067: AVG IPC :1.43142: L2-Pf-HR :0.95529: L2-HR :0.86357: (Sim:0h4m14s) 
CPU  0 inst:   25000003 cyc:   17070888 now IPC :1.42078: AVG IPC :1.43096: L2-Pf-HR :0.95565: L2-HR :0.86363: (Sim:0h4m21s) 
CPU  0 inst:   26000004 cyc:   17772214 now IPC :1.42587: AVG IPC :1.43075: L2-Pf-HR :0.95594: L2-HR :0.86365: (Sim:0h4m28s) 
CPU  0 inst:   27000002 cyc:   18477151 now IPC :1.41856: AVG IPC :1.43025: L2-Pf-HR :0.95630: L2-HR :0.86375: (Sim:0h4m37s) 
CPU  0 inst:   28000000 cyc:   19178156 now IPC :1.42652: AVG IPC :1.43011: L2-Pf-HR :0.95661: L2-HR :0.86385: (Sim:0h4m44s) 
CPU  0 inst:   29000002 cyc:   19941954 now IPC :1.30925: AVG IPC :1.42524: L2-Pf-HR :0.95628: L2-HR :0.86415: (Sim:0h4m52s) 
CPU  0 inst:   30000004 cyc:   20643608 now IPC :1.42521: AVG IPC :1.42524: L2-Pf-HR :0.95647: L2-HR :0.86519: (Sim:0h4m59s) 
CPU  0 inst:   31000001 cyc:   21345963 now IPC :1.42378: AVG IPC :1.42519: L2-Pf-HR :0.95662: L2-HR :0.86616: (Sim:0h5m6s) 
CPU  0 inst:   32000000 cyc:   22049273 now IPC :1.42185: AVG IPC :1.42507: L2-Pf-HR :0.95689: L2-HR :0.86702: (Sim:0h5m13s) 
CPU  0 inst:   33000000 cyc:   22841692 now IPC :1.26196: AVG IPC :1.41916: L2-Pf-HR :0.95561: L2-HR :0.86610: (Sim:0h5m25s) 
CPU  0 inst:   34000000 cyc:   23561841 now IPC :1.38860: AVG IPC :1.41818: L2-Pf-HR :0.95555: L2-HR :0.86587: (Sim:0h5m36s) 
CPU  0 inst:   35000005 cyc:   24280150 now IPC :1.39217: AVG IPC :1.41738: L2-Pf-HR :0.95554: L2-HR :0.86563: (Sim:0h5m43s) 
CPU  0 inst:   36000001 cyc:   24998766 now IPC :1.39156: AVG IPC :1.41661: L2-Pf-HR :0.95551: L2-HR :0.86536: (Sim:0h5m51s) 
CPU  0 inst:   37000004 cyc:   25715845 now IPC :1.39455: AVG IPC :1.41597: L2-Pf-HR :0.95556: L2-HR :0.86519: (Sim:0h5m58s) 
CPU  0 inst:   38000005 cyc:   26437628 now IPC :1.38546: AVG IPC :1.41510: L2-Pf-HR :0.95559: L2-HR :0.86498: (Sim:0h6m5s) 
CPU  0 inst:   39000003 cyc:   27228621 now IPC :1.26423: AVG IPC :1.41055: L2-Pf-HR :0.95519: L2-HR :0.86463: (Sim:0h6m12s) 
CPU  0 inst:   40000000 cyc:   27917360 now IPC :1.45192: AVG IPC :1.41161: L2-Pf-HR :0.95544: L2-HR :0.86464: (Sim:0h6m19s) 
CPU  0 inst:   41000001 cyc:   28605984 now IPC :1.45217: AVG IPC :1.41262: L2-Pf-HR :0.95567: L2-HR :0.86465: (Sim:0h6m26s) 
CPU  0 inst:   42000000 cyc:   29296341 now IPC :1.44852: AVG IPC :1.41350: L2-Pf-HR :0.95588: L2-HR :0.86466: (Sim:0h6m33s) 
CPU  0 inst:   43000002 cyc:   29984343 now IPC :1.45349: AVG IPC :1.41445: L2-Pf-HR :0.95610: L2-HR :0.86471: (Sim:0h6m47s) 
CPU  0 inst:   44000000 cyc:   30674326 now IPC :1.44931: AVG IPC :1.41526: L2-Pf-HR :0.95632: L2-HR :0.86473: (Sim:0h7m2s) 
CPU  0 inst:   45000000 cyc:   31428812 now IPC :1.32541: AVG IPC :1.41303: L2-Pf-HR :0.95604: L2-HR :0.86478: (Sim:0h7m13s) 
CPU  0 inst:   46000000 cyc:   32118516 now IPC :1.44990: AVG IPC :1.41385: L2-Pf-HR :0.95613: L2-HR :0.86540: (Sim:0h7m27s) 
CPU  0 inst:   47000001 cyc:   32810155 now IPC :1.44584: AVG IPC :1.41454: L2-Pf-HR :0.95625: L2-HR :0.86596: (Sim:0h7m39s) 
CPU  0 inst:   48000000 cyc:   33499041 now IPC :1.45162: AVG IPC :1.41533: L2-Pf-HR :0.95642: L2-HR :0.86656: (Sim:0h7m46s) 
CPU  0 inst:   49000000 cyc:   34287586 now IPC :1.26816: AVG IPC :1.41184: L2-Pf-HR :0.95566: L2-HR :0.86613: (Sim:0h7m54s) 
CPU  0 inst:   50000000 cyc:   35001107 now IPC :1.40150: AVG IPC :1.41162: L2-Pf-HR :0.95562: L2-HR :0.86595: (Sim:0h8m1s) 
CPU  0 inst:   51000001 cyc:   35719873 now IPC :1.39127: AVG IPC :1.41120: L2-Pf-HR :0.95563: L2-HR :0.86579: (Sim:0h8m8s) 
CPU  0 inst:   52000000 cyc:   36440385 now IPC :1.38790: AVG IPC :1.41073: L2-Pf-HR :0.95564: L2-HR :0.86563: (Sim:0h8m23s) 
CPU  0 inst:   53000005 cyc:   37161951 now IPC :1.38588: AVG IPC :1.41023: L2-Pf-HR :0.95567: L2-HR :0.86549: (Sim:0h8m37s) 
CPU  0 inst:   54000005 cyc:   37882405 now IPC :1.38801: AVG IPC :1.40980: L2-Pf-HR :0.95566: L2-HR :0.86535: (Sim:0h8m51s) 
CPU  0 inst:   55000005 cyc:   38665984 now IPC :1.27620: AVG IPC :1.40702: L2-Pf-HR :0.95521: L2-HR :0.86503: (Sim:0h8m59s) 
CPU  0 inst:   56000000 cyc:   39371871 now IPC :1.41665: AVG IPC :1.40720: L2-Pf-HR :0.95538: L2-HR :0.86504: (Sim:0h9m6s) 
CPU  0 inst:   57000000 cyc:   40077846 now IPC :1.41648: AVG IPC :1.40737: L2-Pf-HR :0.95554: L2-HR :0.86506: (Sim:0h9m17s) 
CPU  0 inst:   58000001 cyc:   40782059 now IPC :1.42003: AVG IPC :1.40759: L2-Pf-HR :0.95565: L2-HR :0.86503: (Sim:0h9m31s) 
CPU  0 inst:   59000003 cyc:   41486676 now IPC :1.41921: AVG IPC :1.40779: L2-Pf-HR :0.95581: L2-HR :0.86505: (Sim:0h9m44s) 
CPU  0 inst:   60000002 cyc:   42189788 now IPC :1.42225: AVG IPC :1.40804: L2-Pf-HR :0.95595: L2-HR :0.86506: (Sim:0h9m58s) 
CPU  0 inst:   61000002 cyc:   42958685 now IPC :1.30056: AVG IPC :1.40607: L2-Pf-HR :0.95579: L2-HR :0.86506: (Sim:0h10m11s) 
CPU  0 inst:   62000004 cyc:   43665151 now IPC :1.41550: AVG IPC :1.40623: L2-Pf-HR :0.95590: L2-HR :0.86550: (Sim:0h10m25s) 
CPU  0 inst:   63000005 cyc:   44370635 now IPC :1.41747: AVG IPC :1.40641: L2-Pf-HR :0.95601: L2-HR :0.86594: (Sim:0h10m38s) 
CPU  0 inst:   64000000 cyc:   45074643 now IPC :1.42043: AVG IPC :1.40663: L2-Pf-HR :0.95609: L2-HR :0.86639: (Sim:0h10m52s) 
CPU  0 inst:   65000000 cyc:   45867708 now IPC :1.26093: AVG IPC :1.40406: L2-Pf-HR :0.95561: L2-HR :0.86612: (Sim:0h11m6s) 
CPU  0 inst:   66000001 cyc:   46583717 now IPC :1.39663: AVG IPC :1.40394: L2-Pf-HR :0.95561: L2-HR :0.86600: (Sim:0h11m17s) 
CPU  0 inst:   67000000 cyc:   47303090 now IPC :1.39010: AVG IPC :1.40373: L2-Pf-HR :0.95562: L2-HR :0.86586: (Sim:0h11m24s) 
CPU  0 inst:   68000003 cyc:   48024903 now IPC :1.38540: AVG IPC :1.40344: L2-Pf-HR :0.95565: L2-HR :0.86575: (Sim:0h11m32s) 
CPU  0 inst:   69000003 cyc:   48744472 now IPC :1.38972: AVG IPC :1.40324: L2-Pf-HR :0.95565: L2-HR :0.86562: (Sim:0h11m39s) 
CPU  0 inst:   70000001 cyc:   49463648 now IPC :1.39048: AVG IPC :1.40305: L2-Pf-HR :0.95566: L2-HR :0.86550: (Sim:0h11m46s) 
CPU  0 inst:   71000003 cyc:   50258612 now IPC :1.25792: AVG IPC :1.40071: L2-Pf-HR :0.95533: L2-HR :0.86524: (Sim:0h11m54s) 
CPU  0 inst:   72000000 cyc:   50955130 now IPC :1.43571: AVG IPC :1.40119: L2-Pf-HR :0.95546: L2-HR :0.86523: (Sim:0h12m5s) 
CPU  0 inst:   73000000 cyc:   51649502 now IPC :1.44015: AVG IPC :1.40173: L2-Pf-HR :0.95556: L2-HR :0.86521: (Sim:0h12m18s) 
CPU  0 inst:   74000005 cyc:   52344649 now IPC :1.43855: AVG IPC :1.40223: L2-Pf-HR :0.95566: L2-HR :0.86520: (Sim:0h12m32s) 
CPU  0 inst:   75000005 cyc:   53035913 now IPC :1.44663: AVG IPC :1.40282: L2-Pf-HR :0.95578: L2-HR :0.86521: (Sim:0h12m45s) 
CPU  0 inst:   76000001 cyc:   53730526 now IPC :1.43964: AVG IPC :1.40330: L2-Pf-HR :0.95590: L2-HR :0.86521: (Sim:0h12m58s) 
CPU  0 inst:   77000001 cyc:   54486507 now IPC :1.32278: AVG IPC :1.40216: L2-Pf-HR :0.95579: L2-HR :0.86518: (Sim:0h13m5s) 
CPU  0 inst:   78000004 cyc:   55189643 now IPC :1.42220: AVG IPC :1.40242: L2-Pf-HR :0.95584: L2-HR :0.86546: (Sim:0h13m12s) 
CPU  0 inst:   79000001 cyc:   55889314 now IPC :1.42924: AVG IPC :1.40277: L2-Pf-HR :0.95593: L2-HR :0.86585: (Sim:0h13m23s) 
CPU  0 inst:   80000000 cyc:   56590199 now IPC :1.42677: AVG IPC :1.40307: L2-Pf-HR :0.95601: L2-HR :0.86620: (Sim:0h13m37s) 
CPU  0 inst:   81000003 cyc:   57373209 now IPC :1.27713: AVG IPC :1.40132: L2-Pf-HR :0.95558: L2-HR :0.86604: (Sim:0h13m51s) 
CPU  0 inst:   82000001 cyc:   58085844 now IPC :1.40324: AVG IPC :1.40134: L2-Pf-HR :0.95559: L2-HR :0.86593: (Sim:0h14m5s) 
CPU  0 inst:   83000004 cyc:   58802750 now IPC :1.39489: AVG IPC :1.40126: L2-Pf-HR :0.95554: L2-HR :0.86580: (Sim:0h14m19s) 
CPU  0 inst:   84000000 cyc:   59520954 now IPC :1.39236: AVG IPC :1.40115: L2-Pf-HR :0.95556: L2-HR :0.86572: (Sim:0h14m33s) 
CPU  0 inst:   85000001 cyc:   60244184 now IPC :1.38269: AVG IPC :1.40093: L2-Pf-HR :0.95557: L2-HR :0.86563: (Sim:0h14m47s) 
CPU  0 inst:   86000005 cyc:   60964739 now IPC :1.38782: AVG IPC :1.40077: L2-Pf-HR :0.95558: L2-HR :0.86553: (Sim:0h15m1s) 
CPU  0 inst:   87000001 cyc:   61753595 now IPC :1.26765: AVG IPC :1.39904: L2-Pf-HR :0.95537: L2-HR :0.86533: (Sim:0h15m15s) 
CPU  0 inst:   88000000 cyc:   62477682 now IPC :1.38105: AVG IPC :1.39883: L2-Pf-HR :0.95546: L2-HR :0.86532: (Sim:0h15m28s) 
CPU  0 inst:   89000004 cyc:   63187004 now IPC :1.40980: AVG IPC :1.39896: L2-Pf-HR :0.95554: L2-HR :0.86531: (Sim:0h15m37s) 
CPU  0 inst:   90000002 cyc:   63892487 now IPC :1.41747: AVG IPC :1.39916: L2-Pf-HR :0.95563: L2-HR :0.86531: (Sim:0h15m51s) 
CPU  0 inst:   91000000 cyc:   64600240 now IPC :1.41292: AVG IPC :1.39932: L2-Pf-HR :0.95574: L2-HR :0.86532: (Sim:0h16m0s) 
CPU  0 inst:   92000001 cyc:   65306490 now IPC :1.41593: AVG IPC :1.39950: L2-Pf-HR :0.95585: L2-HR :0.86533: (Sim:0h16m8s) 
CPU  0 inst:   93000001 cyc:   66071019 now IPC :1.30799: AVG IPC :1.39842: L2-Pf-HR :0.95577: L2-HR :0.86524: (Sim:0h16m16s) 
CPU  0 inst:   94000002 cyc:   66777526 now IPC :1.41542: AVG IPC :1.39861: L2-Pf-HR :0.95581: L2-HR :0.86554: (Sim:0h16m27s) 
CPU  0 inst:   95000002 cyc:   67477995 now IPC :1.42761: AVG IPC :1.39891: L2-Pf-HR :0.95586: L2-HR :0.86581: (Sim:0h16m40s) 
CPU  0 inst:   96000000 cyc:   68178671 now IPC :1.42719: AVG IPC :1.39921: L2-Pf-HR :0.95591: L2-HR :0.86607: (Sim:0h16m53s) 
CPU  0 inst:   97000001 cyc:   68936925 now IPC :1.31882: AVG IPC :1.39831: L2-Pf-HR :0.95561: L2-HR :0.86606: (Sim:0h17m7s) 
CPU  0 inst:   98000003 cyc:   69674011 now IPC :1.35670: AVG IPC :1.39786: L2-Pf-HR :0.95557: L2-HR :0.86594: (Sim:0h17m21s) 
CPU  0 inst:   99000001 cyc:   70391831 now IPC :1.39310: AVG IPC :1.39781: L2-Pf-HR :0.95556: L2-HR :0.86584: (Sim:0h17m35s) 
CPU  0 inst:  100000003 cyc:   71106315 now IPC :1.39961: AVG IPC :1.39783: L2-Pf-HR :0.95554: L2-HR :0.86574: (Sim:0h17m46s) 
CPU  0 inst:  101000000 cyc:   71820281 now IPC :1.40062: AVG IPC :1.39786: L2-Pf-HR :0.95554: L2-HR :0.86566: (Sim:0h17m57s) 
CPU  0 inst:  102000005 cyc:   72537699 now IPC :1.39389: AVG IPC :1.39782: L2-Pf-HR :0.95553: L2-HR :0.86557: (Sim:0h18m7s) 
CPU  0 inst:  103000005 cyc:   73262881 now IPC :1.37896: AVG IPC :1.39763: L2-Pf-HR :0.95555: L2-HR :0.86553: (Sim:0h18m20s) 
CPU  0 inst:  104000000 cyc:   74029417 now IPC :1.30456: AVG IPC :1.39665: L2-Pf-HR :0.95541: L2-HR :0.86537: (Sim:0h18m34s) 
CPU  0 inst:  105000000 cyc:   74715001 now IPC :1.45861: AVG IPC :1.39723: L2-Pf-HR :0.95548: L2-HR :0.86535: (Sim:0h18m47s) 
CPU  0 inst:  106000002 cyc:   75402731 now IPC :1.45406: AVG IPC :1.39776: L2-Pf-HR :0.95557: L2-HR :0.86535: (Sim:0h19m1s) 
CPU  0 inst:  107000005 cyc:   76088668 now IPC :1.45786: AVG IPC :1.39830: L2-Pf-HR :0.95566: L2-HR :0.86536: (Sim:0h19m15s) 
CPU  0 inst:  108000003 cyc:   76774770 now IPC :1.45751: AVG IPC :1.39884: L2-Pf-HR :0.95574: L2-HR :0.86537: (Sim:0h19m28s) 
CPU  0 inst:  109000001 cyc:   77469083 now IPC :1.44027: AVG IPC :1.39922: L2-Pf-HR :0.95584: L2-HR :0.86540: (Sim:0h19m42s) 
CPU  0 inst:  110000003 cyc:   78223236 now IPC :1.32599: AVG IPC :1.39850: L2-Pf-HR :0.95570: L2-HR :0.86550: (Sim:0h19m56s) 
CPU  0 inst:  111000000 cyc:   78926153 now IPC :1.42264: AVG IPC :1.39872: L2-Pf-HR :0.95575: L2-HR :0.86573: (Sim:0h20m10s) 
CPU  0 inst:  112000000 cyc:   79627948 now IPC :1.42492: AVG IPC :1.39895: L2-Pf-HR :0.95581: L2-HR :0.86599: (Sim:0h20m24s) 
CPU  0 inst:  113000003 cyc:   80332294 now IPC :1.41976: AVG IPC :1.39914: L2-Pf-HR :0.95587: L2-HR :0.86623: (Sim:0h20m38s) 
CPU  0 inst:  114000001 cyc:   81129127 now IPC :1.25497: AVG IPC :1.39770: L2-Pf-HR :0.95554: L2-HR :0.86590: (Sim:0h20m51s) 
CPU  0 inst:  115000002 cyc:   81856134 now IPC :1.37550: AVG IPC :1.39750: L2-Pf-HR :0.95554: L2-HR :0.86585: (Sim:0h21m0s) 
CPU  0 inst:  116000001 cyc:   82579170 now IPC :1.38306: AVG IPC :1.39738: L2-Pf-HR :0.95553: L2-HR :0.86578: (Sim:0h21m13s) 
CPU  0 inst:  117000001 cyc:   83300120 now IPC :1.38706: AVG IPC :1.39729: L2-Pf-HR :0.95552: L2-HR :0.86572: (Sim:0h21m28s) 
CPU  0 inst:  118000001 cyc:   84022939 now IPC :1.38347: AVG IPC :1.39717: L2-Pf-HR :0.95553: L2-HR :0.86566: (Sim:0h21m42s) 
CPU  0 inst:  119000003 cyc:   84745406 now IPC :1.38415: AVG IPC :1.39705: L2-Pf-HR :0.95554: L2-HR :0.86560: (Sim:0h21m56s) 
CPU  0 inst:  120000000 cyc:   85532057 now IPC :1.27121: AVG IPC :1.39588: L2-Pf-HR :0.95540: L2-HR :0.86548: (Sim:0h22m10s) 
CPU  0 inst:  121000000 cyc:   86230804 now IPC :1.43113: AVG IPC :1.39617: L2-Pf-HR :0.95546: L2-HR :0.86547: (Sim:0h22m24s) 
CPU  0 inst:  122000002 cyc:   86924802 now IPC :1.44093: AVG IPC :1.39653: L2-Pf-HR :0.95553: L2-HR :0.86547: (Sim:0h22m38s) 
CPU  0 inst:  123000001 cyc:   87620997 now IPC :1.43638: AVG IPC :1.39685: L2-Pf-HR :0.95561: L2-HR :0.86548: (Sim:0h22m52s) 
CPU  0 inst:  124000003 cyc:   88317374 now IPC :1.43601: AVG IPC :1.39717: L2-Pf-HR :0.95569: L2-HR :0.86548: (Sim:0h23m6s) 
CPU  0 inst:  125000001 cyc:   89011487 now IPC :1.44068: AVG IPC :1.39751: L2-Pf-HR :0.95576: L2-HR :0.86548: (Sim:0h23m20s) 
CPU  0 inst:  126000003 cyc:   89773150 now IPC :1.31292: AVG IPC :1.39678: L2-Pf-HR :0.95567: L2-HR :0.86555: (Sim:0h23m34s) 
CPU  0 inst:  127000002 cyc:   90471976 now IPC :1.43097: AVG IPC :1.39705: L2-Pf-HR :0.95572: L2-HR :0.86576: (Sim:0h23m47s) 
CPU  0 inst:  128000000 cyc:   91173065 now IPC :1.42635: AVG IPC :1.39728: L2-Pf-HR :0.95576: L2-HR :0.86598: (Sim:0h24m1s) 
CPU  0 inst:  129000003 cyc:   91875239 now IPC :1.42415: AVG IPC :1.39749: L2-Pf-HR :0.95580: L2-HR :0.86616: (Sim:0h24m15s) 
CPU  0 inst:  130000004 cyc:   92665393 now IPC :1.26558: AVG IPC :1.39635: L2-Pf-HR :0.95552: L2-HR :0.86591: (Sim:0h24m29s) 
CPU  0 inst:  131000002 cyc:   93383436 now IPC :1.39267: AVG IPC :1.39632: L2-Pf-HR :0.95551: L2-HR :0.86585: (Sim:0h24m43s) 
CPU  0 inst:  132000003 cyc:   94100366 now IPC :1.39484: AVG IPC :1.39631: L2-Pf-HR :0.95548: L2-HR :0.86578: (Sim:0h24m57s) 
CPU  0 inst:  133000004 cyc:   94818110 now IPC :1.39326: AVG IPC :1.39629: L2-Pf-HR :0.95548: L2-HR :0.86573: (Sim:0h25m11s) 
CPU  0 inst:  134000002 cyc:   95538987 now IPC :1.38720: AVG IPC :1.39622: L2-Pf-HR :0.95548: L2-HR :0.86566: (Sim:0h25m26s) 
CPU  0 inst:  135000001 cyc:   96259412 now IPC :1.38807: AVG IPC :1.39615: L2-Pf-HR :0.95547: L2-HR :0.86559: (Sim:0h25m40s) 
CPU  0 inst:  136000000 cyc:   97035118 now IPC :1.28915: AVG IPC :1.39529: L2-Pf-HR :0.95533: L2-HR :0.86547: (Sim:0h25m54s) 
CPU  0 inst:  137000005 cyc:   97730980 now IPC :1.43707: AVG IPC :1.39559: L2-Pf-HR :0.95539: L2-HR :0.86547: (Sim:0h26m8s) 
CPU  0 inst:  138000002 cyc:   98429311 now IPC :1.43198: AVG IPC :1.39585: L2-Pf-HR :0.95545: L2-HR :0.86547: (Sim:0h26m22s) 
CPU  0 inst:  139000003 cyc:   99124883 now IPC :1.43767: AVG IPC :1.39615: L2-Pf-HR :0.95552: L2-HR :0.86547: (Sim:0h26m36s) 
CPU  0 inst:  140000001 cyc:   99821701 now IPC :1.43509: AVG IPC :1.39642: L2-Pf-HR :0.95560: L2-HR :0.86548: (Sim:0h26m50s) 
CPU  0 inst:  141000001 cyc:  100517943 now IPC :1.43628: AVG IPC :1.39670: L2-Pf-HR :0.95567: L2-HR :0.86549: (Sim:0h27m3s) 
CPU  0 inst:  142000001 cyc:  101275996 now IPC :1.31917: AVG IPC :1.39612: L2-Pf-HR :0.95558: L2-HR :0.86554: (Sim:0h27m17s) 
CPU  0 inst:  143000004 cyc:  101973535 now IPC :1.43362: AVG IPC :1.39637: L2-Pf-HR :0.95561: L2-HR :0.86573: (Sim:0h27m31s) 
CPU  0 inst:  144000000 cyc:  102672073 now IPC :1.43156: AVG IPC :1.39662: L2-Pf-HR :0.95565: L2-HR :0.86590: (Sim:0h27m45s) 
CPU  0 inst:  145000000 cyc:  103371434 now IPC :1.42988: AVG IPC :1.39684: L2-Pf-HR :0.95570: L2-HR :0.86609: (Sim:0h27m58s) 
CPU  0 inst:  146000004 cyc:  104167968 now IPC :1.25544: AVG IPC :1.39575: L2-Pf-HR :0.95548: L2-HR :0.86591: (Sim:0h28m12s) 
CPU  0 inst:  147000001 cyc:  104880524 now IPC :1.40339: AVG IPC :1.39580: L2-Pf-HR :0.95547: L2-HR :0.86586: (Sim:0h28m26s) 
CPU  0 inst:  148000000 cyc:  105599416 now IPC :1.39103: AVG IPC :1.39577: L2-Pf-HR :0.95548: L2-HR :0.86581: (Sim:0h28m40s) 
CPU  0 inst:  149000004 cyc:  106317632 now IPC :1.39234: AVG IPC :1.39575: L2-Pf-HR :0.95549: L2-HR :0.86575: (Sim:0h28m54s) 
CPU  0 inst:  150000002 cyc:  107034807 now IPC :1.39436: AVG IPC :1.39574: L2-Pf-HR :0.95548: L2-HR :0.86569: (Sim:0h29m7s) 
CPU  0 inst:  151000003 cyc:  107747586 now IPC :1.40296: AVG IPC :1.39579: L2-Pf-HR :0.95548: L2-HR :0.86563: (Sim:0h29m21s) 
CPU  0 inst:  152000000 cyc:  108541537 now IPC :1.25952: AVG IPC :1.39478: L2-Pf-HR :0.95535: L2-HR :0.86551: (Sim:0h29m36s) 
CPU  0 inst:  153000001 cyc:  109248683 now IPC :1.41414: AVG IPC :1.39491: L2-Pf-HR :0.95540: L2-HR :0.86551: (Sim:0h29m49s) 
CPU  0 inst:  154000000 cyc:  109951740 now IPC :1.42236: AVG IPC :1.39508: L2-Pf-HR :0.95545: L2-HR :0.86550: (Sim:0h30m2s) 
CPU  0 inst:  155000003 cyc:  110656560 now IPC :1.41881: AVG IPC :1.39524: L2-Pf-HR :0.95552: L2-HR :0.86550: (Sim:0h30m16s) 
CPU  0 inst:  156000003 cyc:  111359892 now IPC :1.42180: AVG IPC :1.39541: L2-Pf-HR :0.95557: L2-HR :0.86551: (Sim:0h30m30s) 
CPU  0 inst:  157000003 cyc:  112063382 now IPC :1.42148: AVG IPC :1.39557: L2-Pf-HR :0.95563: L2-HR :0.86551: (Sim:0h30m44s) 
CPU  0 inst:  158000004 cyc:  112827386 now IPC :1.30889: AVG IPC :1.39498: L2-Pf-HR :0.95556: L2-HR :0.86553: (Sim:0h30m58s) 
CPU  0 inst:  159000002 cyc:  113529472 now IPC :1.42432: AVG IPC :1.39516: L2-Pf-HR :0.95559: L2-HR :0.86569: (Sim:0h31m12s) 
CPU  0 inst:  160000000 cyc:  114229426 now IPC :1.42866: AVG IPC :1.39537: L2-Pf-HR :0.95563: L2-HR :0.86586: (Sim:0h31m26s) 
CPU  0 inst:  161000003 cyc:  114933502 now IPC :1.42031: AVG IPC :1.39552: L2-Pf-HR :0.95568: L2-HR :0.86604: (Sim:0h31m40s) 
CPU  0 inst:  162000001 cyc:  115717655 now IPC :1.27526: AVG IPC :1.39470: L2-Pf-HR :0.95547: L2-HR :0.86589: (Sim:0h31m55s) 
CPU  0 inst:  163000005 cyc:  116430119 now IPC :1.40359: AVG IPC :1.39476: L2-Pf-HR :0.95547: L2-HR :0.86584: (Sim:0h32m9s) 
CPU  0 inst:  164000002 cyc:  117141436 now IPC :1.40584: AVG IPC :1.39482: L2-Pf-HR :0.95547: L2-HR :0.86578: (Sim:0h32m23s) 
CPU  0 inst:  165000003 cyc:  117855878 now IPC :1.39970: AVG IPC :1.39485: L2-Pf-HR :0.95547: L2-HR :0.86574: (Sim:0h32m36s) 
CPU  0 inst:  166000001 cyc:  118571429 now IPC :1.39752: AVG IPC :1.39487: L2-Pf-HR :0.95547: L2-HR :0.86569: (Sim:0h32m50s) 
CPU  0 inst:  167000000 cyc:  119290025 now IPC :1.39160: AVG IPC :1.39485: L2-Pf-HR :0.95548: L2-HR :0.86565: (Sim:0h33m4s) 
CPU  0 inst:  168000000 cyc:  120079114 now IPC :1.26728: AVG IPC :1.39400: L2-Pf-HR :0.95536: L2-HR :0.86555: (Sim:0h33m18s) 
CPU  0 inst:  169000000 cyc:  120778202 now IPC :1.43044: AVG IPC :1.39422: L2-Pf-HR :0.95541: L2-HR :0.86554: (Sim:0h33m32s) 
CPU  0 inst:  170000000 cyc:  121477126 now IPC :1.43077: AVG IPC :1.39443: L2-Pf-HR :0.95545: L2-HR :0.86553: (Sim:0h33m46s) 
CPU  0 inst:  171000000 cyc:  122174341 now IPC :1.43428: AVG IPC :1.39466: L2-Pf-HR :0.95551: L2-HR :0.86553: (Sim:0h34m0s) 
CPU  0 inst:  172000001 cyc:  122871924 now IPC :1.43352: AVG IPC :1.39488: L2-Pf-HR :0.95557: L2-HR :0.86553: (Sim:0h34m14s) 
CPU  0 inst:  173000001 cyc:  123568814 now IPC :1.43495: AVG IPC :1.39511: L2-Pf-HR :0.95563: L2-HR :0.86554: (Sim:0h34m28s) 
CPU  0 inst:  174000001 cyc:  124326087 now IPC :1.32053: AVG IPC :1.39465: L2-Pf-HR :0.95552: L2-HR :0.86552: (Sim:0h34m42s) 
CPU  0 inst:  175000002 cyc:  125031746 now IPC :1.41712: AVG IPC :1.39478: L2-Pf-HR :0.95555: L2-HR :0.86565: (Sim:0h34m56s) 
CPU  0 inst:  176000000 cyc:  125733221 now IPC :1.42556: AVG IPC :1.39495: L2-Pf-HR :0.95558: L2-HR :0.86581: (Sim:0h35m9s) 
CPU  0 inst:  177000001 cyc:  126439442 now IPC :1.41599: AVG IPC :1.39507: L2-Pf-HR :0.95563: L2-HR :0.86597: (Sim:0h35m22s) 
CPU  0 inst:  178000003 cyc:  127235741 now IPC :1.25581: AVG IPC :1.39419: L2-Pf-HR :0.95545: L2-HR :0.86588: (Sim:0h35m35s) 
CPU  0 inst:  179000001 cyc:  127944126 now IPC :1.41166: AVG IPC :1.39429: L2-Pf-HR :0.95544: L2-HR :0.86584: (Sim:0h35m49s) 
CPU  0 inst:  180000000 cyc:  128658283 now IPC :1.40025: AVG IPC :1.39432: L2-Pf-HR :0.95546: L2-HR :0.86581: (Sim:0h36m3s) 
CPU  0 inst:  181000004 cyc:  129371444 now IPC :1.40221: AVG IPC :1.39437: L2-Pf-HR :0.95545: L2-HR :0.86576: (Sim:0h36m16s) 
CPU  0 inst:  182000002 cyc:  130087442 now IPC :1.39665: AVG IPC :1.39438: L2-Pf-HR :0.95544: L2-HR :0.86572: (Sim:0h36m30s) 
CPU  0 inst:  183000002 cyc:  130804783 now IPC :1.39404: AVG IPC :1.39438: L2-Pf-HR :0.95544: L2-HR :0.86567: (Sim:0h36m44s) 
CPU  0 inst:  184000000 cyc:  131597558 now IPC :1.26139: AVG IPC :1.39357: L2-Pf-HR :0.95533: L2-HR :0.86557: (Sim:0h36m59s) 
CPU  0 inst:  185000001 cyc:  132288990 now IPC :1.44628: AVG IPC :1.39385: L2-Pf-HR :0.95538: L2-HR :0.86558: (Sim:0h37m12s) 
CPU  0 inst:  186000004 cyc:  132977458 now IPC :1.45250: AVG IPC :1.39415: L2-Pf-HR :0.95543: L2-HR :0.86558: (Sim:0h37m26s) 
CPU  0 inst:  187000003 cyc:  133666815 now IPC :1.45063: AVG IPC :1.39445: L2-Pf-HR :0.95548: L2-HR :0.86558: (Sim:0h37m40s) 
CPU  0 inst:  188000005 cyc:  134354964 now IPC :1.45318: AVG IPC :1.39475: L2-Pf-HR :0.95553: L2-HR :0.86558: (Sim:0h37m53s) 
CPU  0 inst:  189000002 cyc:  135041929 now IPC :1.45567: AVG IPC :1.39506: L2-Pf-HR :0.95558: L2-HR :0.86558: (Sim:0h38m7s) 
CPU  0 inst:  190000005 cyc:  135793235 now IPC :1.33102: AVG IPC :1.39471: L2-Pf-HR :0.95553: L2-HR :0.86556: (Sim:0h38m22s) 
CPU  0 inst:  191000005 cyc:  136490614 now IPC :1.43394: AVG IPC :1.39491: L2-Pf-HR :0.95556: L2-HR :0.86570: (Sim:0h38m35s) 
CPU  0 inst:  192000000 cyc:  137188502 now IPC :1.43289: AVG IPC :1.39510: L2-Pf-HR :0.95559: L2-HR :0.86584: (Sim:0h38m49s) 
CPU  0 inst:  193000005 cyc:  137883954 now IPC :1.43792: AVG IPC :1.39532: L2-Pf-HR :0.95562: L2-HR :0.86597: (Sim:0h39m3s) 
CPU  0 inst:  194000001 cyc:  139740761 now IPC :0.53856: AVG IPC :1.38385: L2-Pf-HR :0.95408: L2-HR :0.86385: (Sim:0h39m22s) 
CPU  0 inst:  195000000 cyc:  144559310 now IPC :0.20753: AVG IPC :1.34437: L2-Pf-HR :0.94830: L2-HR :0.85556: (Sim:0h39m57s) 
CPU  0 inst:  196000005 cyc:  149487734 now IPC :0.20291: AVG IPC :1.30649: L2-Pf-HR :0.94258: L2-HR :0.84765: (Sim:0h40m33s) 
CPU  0 inst:  197000004 cyc:  154413388 now IPC :0.20302: AVG IPC :1.27106: L2-Pf-HR :0.93695: L2-HR :0.84008: (Sim:0h41m10s) 
CPU  0 inst:  198000003 cyc:  159341501 now IPC :0.20292: AVG IPC :1.23781: L2-Pf-HR :0.93141: L2-HR :0.83283: (Sim:0h41m46s) 
CPU  0 inst:  199000005 cyc:  164269867 now IPC :0.20291: AVG IPC :1.20657: L2-Pf-HR :0.92595: L2-HR :0.82589: (Sim:0h42m22s) 
CPU  0 inst:  200000000 cyc:  169199509 now IPC :0.20285: AVG IPC :1.17716: L2-Pf-HR :0.92052: L2-HR :0.81923: (Sim:0h42m58s) 
CPU  0 inst:  201000000 cyc:  173922412 now IPC :0.21173: AVG IPC :1.15079: L2-Pf-HR :0.91573: L2-HR :0.81354: (Sim:0h43m30s) 
CPU  0 inst:  202000000 cyc:  177695430 now IPC :0.26504: AVG IPC :1.13188: L2-Pf-HR :0.91443: L2-HR :0.81251: (Sim:0h43m57s) 
CPU  0 inst:  203000002 cyc:  181468486 now IPC :0.26504: AVG IPC :1.11375: L2-Pf-HR :0.91313: L2-HR :0.81148: (Sim:0h44m21s) 
CPU  0 inst:  204000005 cyc:  185232178 now IPC :0.26570: AVG IPC :1.09643: L2-Pf-HR :0.91184: L2-HR :0.81045: (Sim:0h44m47s) 
CPU  0 inst:  205000000 cyc:  188982467 now IPC :0.26664: AVG IPC :1.07987: L2-Pf-HR :0.91055: L2-HR :0.80943: (Sim:0h45m14s) 
CPU  0 inst:  206000000 cyc:  192731310 now IPC :0.26675: AVG IPC :1.06398: L2-Pf-HR :0.90926: L2-HR :0.80841: (Sim:0h45m41s) 
CPU  0 inst:  207000000 cyc:  196479438 now IPC :0.26680: AVG IPC :1.04869: L2-Pf-HR :0.90797: L2-HR :0.80739: (Sim:0h46m8s) 
CPU  0 inst:  208000000 cyc:  200222819 now IPC :0.26714: AVG IPC :1.03401: L2-Pf-HR :0.90668: L2-HR :0.80638: (Sim:0h46m35s) 
CPU  0 inst:  209000000 cyc:  203970356 now IPC :0.26684: AVG IPC :1.01984: L2-Pf-HR :0.90541: L2-HR :0.80538: (Sim:0h47m3s) 
CPU  0 inst:  210000001 cyc:  207723256 now IPC :0.26646: AVG IPC :1.00617: L2-Pf-HR :0.90413: L2-HR :0.80438: (Sim:0h47m30s) 
CPU  0 inst:  211000001 cyc:  211472838 now IPC :0.26670: AVG IPC :0.99299: L2-Pf-HR :0.90287: L2-HR :0.80338: (Sim:0h47m56s) 
CPU  0 inst:  212000004 cyc:  215226308 now IPC :0.26642: AVG IPC :0.98026: L2-Pf-HR :0.90160: L2-HR :0.80239: (Sim:0h48m23s) 
CPU  0 inst:  213000000 cyc:  218974890 now IPC :0.26677: AVG IPC :0.96799: L2-Pf-HR :0.90034: L2-HR :0.80141: (Sim:0h48m49s) 
CPU  0 inst:  214000000 cyc:  222720451 now IPC :0.26698: AVG IPC :0.95615: L2-Pf-HR :0.89908: L2-HR :0.80042: (Sim:0h49m13s) 
CPU  0 inst:  215000000 cyc:  226466025 now IPC :0.26698: AVG IPC :0.94470: L2-Pf-HR :0.89783: L2-HR :0.79945: (Sim:0h49m35s) 
CPU  0 inst:  216000000 cyc:  230216297 now IPC :0.26665: AVG IPC :0.93361: L2-Pf-HR :0.89658: L2-HR :0.79847: (Sim:0h50m0s) 
CPU  0 inst:  217000000 cyc:  233965326 now IPC :0.26674: AVG IPC :0.92288: L2-Pf-HR :0.89534: L2-HR :0.79751: (Sim:0h50m20s) 
CPU  0 inst:  218000001 cyc:  237713751 now IPC :0.26678: AVG IPC :0.91249: L2-Pf-HR :0.89410: L2-HR :0.79654: (Sim:0h50m46s) 
CPU  0 inst:  219000003 cyc:  241465452 now IPC :0.26655: AVG IPC :0.90241: L2-Pf-HR :0.89287: L2-HR :0.79558: (Sim:0h51m10s) 
CPU  0 inst:  220000000 cyc:  245218317 now IPC :0.26646: AVG IPC :0.89264: L2-Pf-HR :0.89163: L2-HR :0.79463: (Sim:0h51m29s) 
CPU  0 inst:  221000000 cyc:  248962865 now IPC :0.26705: AVG IPC :0.88319: L2-Pf-HR :0.89041: L2-HR :0.79368: (Sim:0h51m52s) 
CPU  0 inst:  222000000 cyc:  252715948 now IPC :0.26645: AVG IPC :0.87399: L2-Pf-HR :0.88918: L2-HR :0.79273: (Sim:0h52m17s) 
CPU  0 inst:  223000000 cyc:  256465477 now IPC :0.26670: AVG IPC :0.86508: L2-Pf-HR :0.88796: L2-HR :0.79179: (Sim:0h52m44s) 
CPU  0 inst:  224000000 cyc:  260209576 now IPC :0.26709: AVG IPC :0.85644: L2-Pf-HR :0.88674: L2-HR :0.79085: (Sim:0h53m10s) 
CPU  0 inst:  225000001 cyc:  263961738 now IPC :0.26651: AVG IPC :0.84802: L2-Pf-HR :0.88553: L2-HR :0.78992: (Sim:0h53m35s) 
CPU  0 inst:  226000001 cyc:  267710687 now IPC :0.26674: AVG IPC :0.83985: L2-Pf-HR :0.88433: L2-HR :0.78900: (Sim:0h54m1s) 
CPU  0 inst:  227000000 cyc:  271458063 now IPC :0.26685: AVG IPC :0.83191: L2-Pf-HR :0.88313: L2-HR :0.78807: (Sim:0h54m28s) 
CPU  0 inst:  228000000 cyc:  275205886 now IPC :0.26682: AVG IPC :0.82419: L2-Pf-HR :0.88192: L2-HR :0.78715: (Sim:0h54m48s) 
CPU  0 inst:  229000004 cyc:  278955506 now IPC :0.26669: AVG IPC :0.81667: L2-Pf-HR :0.88072: L2-HR :0.78623: (Sim:0h55m15s) 
CPU  0 inst:  230000000 cyc:  282707600 now IPC :0.26652: AVG IPC :0.80934: L2-Pf-HR :0.87953: L2-HR :0.78532: (Sim:0h55m41s) 
CPU  0 inst:  231000000 cyc:  286451197 now IPC :0.26712: AVG IPC :0.80223: L2-Pf-HR :0.87834: L2-HR :0.78441: (Sim:0h56m8s) 
CPU  0 inst:  232000000 cyc:  290199789 now IPC :0.26677: AVG IPC :0.79529: L2-Pf-HR :0.87715: L2-HR :0.78351: (Sim:0h56m35s) 
CPU  0 inst:  233000000 cyc:  293948278 now IPC :0.26677: AVG IPC :0.78853: L2-Pf-HR :0.87597: L2-HR :0.78261: (Sim:0h57m1s) 
CPU  0 inst:  234000003 cyc:  297696516 now IPC :0.26679: AVG IPC :0.78194: L2-Pf-HR :0.87479: L2-HR :0.78171: (Sim:0h57m28s) 
CPU  0 inst:  235000000 cyc:  301448075 now IPC :0.26656: AVG IPC :0.77550: L2-Pf-HR :0.87363: L2-HR :0.78082: (Sim:0h57m55s) 
CPU  0 inst:  236000000 cyc:  305200196 now IPC :0.26652: AVG IPC :0.76922: L2-Pf-HR :0.87246: L2-HR :0.77993: (Sim:0h58m21s) 
CPU  0 inst:  237000000 cyc:  308948171 now IPC :0.26681: AVG IPC :0.76311: L2-Pf-HR :0.87129: L2-HR :0.77905: (Sim:0h58m48s) 
CPU  0 inst:  238000000 cyc:  312695193 now IPC :0.26688: AVG IPC :0.75714: L2-Pf-HR :0.87012: L2-HR :0.77817: (Sim:0h59m15s) 
CPU  0 inst:  239000000 cyc:  316442313 now IPC :0.26687: AVG IPC :0.75132: L2-Pf-HR :0.86896: L2-HR :0.77729: (Sim:0h59m41s) 
CPU  0 inst:  240000000 cyc:  320189797 now IPC :0.26685: AVG IPC :0.74563: L2-Pf-HR :0.86781: L2-HR :0.77642: (Sim:1h0m8s) 
CPU  0 inst:  241000001 cyc:  323943736 now IPC :0.26639: AVG IPC :0.74006: L2-Pf-HR :0.86666: L2-HR :0.77555: (Sim:1h0m35s) 
CPU  0 inst:  242000000 cyc:  327692041 now IPC :0.26679: AVG IPC :0.73463: L2-Pf-HR :0.86551: L2-HR :0.77469: (Sim:1h0m58s) 
CPU  0 inst:  243000000 cyc:  331438663 now IPC :0.26691: AVG IPC :0.72933: L2-Pf-HR :0.86436: L2-HR :0.77383: (Sim:1h1m23s) 
CPU  0 inst:  244000000 cyc:  335181825 now IPC :0.26715: AVG IPC :0.72415: L2-Pf-HR :0.86322: L2-HR :0.77297: (Sim:1h1m49s) 
CPU  0 inst:  245000000 cyc:  338928231 now IPC :0.26692: AVG IPC :0.71908: L2-Pf-HR :0.86208: L2-HR :0.77212: (Sim:1h2m16s) 
CPU  0 inst:  246000004 cyc:  342679114 now IPC :0.26660: AVG IPC :0.71412: L2-Pf-HR :0.86095: L2-HR :0.77127: (Sim:1h2m42s) 
CPU  0 inst:  247000000 cyc:  346430499 now IPC :0.26657: AVG IPC :0.70926: L2-Pf-HR :0.85982: L2-HR :0.77042: (Sim:1h3m7s) 
CPU  0 inst:  248000000 cyc:  350175376 now IPC :0.26703: AVG IPC :0.70451: L2-Pf-HR :0.85869: L2-HR :0.76958: (Sim:1h3m34s) 
CPU  0 inst:  249000003 cyc:  353926763 now IPC :0.26657: AVG IPC :0.69986: L2-Pf-HR :0.85757: L2-HR :0.76874: (Sim:1h4m0s) 
CPU  0 inst:  250000004 cyc:  357674848 now IPC :0.26680: AVG IPC :0.69531: L2-Pf-HR :0.85646: L2-HR :0.76790: (Sim:1h4m27s) 
CPU  0 inst:  251000000 cyc:  361420264 now IPC :0.26699: AVG IPC :0.69086: L2-Pf-HR :0.85534: L2-HR :0.76707: (Sim:1h4m54s) 
CPU  0 inst:  252000000 cyc:  365172029 now IPC :0.26654: AVG IPC :0.68648: L2-Pf-HR :0.85422: L2-HR :0.76624: (Sim:1h5m21s) 
CPU  0 inst:  253000000 cyc:  368915542 now IPC :0.26713: AVG IPC :0.68222: L2-Pf-HR :0.85311: L2-HR :0.76542: (Sim:1h5m47s) 
CPU  0 inst:  254000000 cyc:  372668153 now IPC :0.26648: AVG IPC :0.67802: L2-Pf-HR :0.85200: L2-HR :0.76460: (Sim:1h6m14s) 
CPU  0 inst:  255000002 cyc:  376409869 now IPC :0.26726: AVG IPC :0.67393: L2-Pf-HR :0.85090: L2-HR :0.76378: (Sim:1h6m41s) 
CPU  0 inst:  256000000 cyc:  380161560 now IPC :0.26655: AVG IPC :0.66990: L2-Pf-HR :0.84980: L2-HR :0.76297: (Sim:1h7m7s) 
CPU  0 inst:  257000000 cyc:  383915506 now IPC :0.26639: AVG IPC :0.66594: L2-Pf-HR :0.84870: L2-HR :0.76216: (Sim:1h7m34s) 
CPU  0 inst:  258000000 cyc:  387662209 now IPC :0.26690: AVG IPC :0.66207: L2-Pf-HR :0.84761: L2-HR :0.76135: (Sim:1h8m1s) 
CPU  0 inst:  259000000 cyc:  391408151 now IPC :0.26696: AVG IPC :0.65828: L2-Pf-HR :0.84652: L2-HR :0.76055: (Sim:1h8m26s) 
CPU  0 inst:  260000000 cyc:  395158533 now IPC :0.26664: AVG IPC :0.65456: L2-Pf-HR :0.84543: L2-HR :0.75974: (Sim:1h8m51s) 
CPU  0 inst:  261000000 cyc:  398908002 now IPC :0.26670: AVG IPC :0.65090: L2-Pf-HR :0.84434: L2-HR :0.75895: (Sim:1h9m18s) 
CPU  0 inst:  262000000 cyc:  402652811 now IPC :0.26704: AVG IPC :0.64732: L2-Pf-HR :0.84326: L2-HR :0.75815: (Sim:1h9m44s) 
CPU  0 inst:  263000001 cyc:  406405674 now IPC :0.26646: AVG IPC :0.64380: L2-Pf-HR :0.84219: L2-HR :0.75737: (Sim:1h10m11s) 
CPU  0 inst:  264000000 cyc:  410156782 now IPC :0.26659: AVG IPC :0.64034: L2-Pf-HR :0.84112: L2-HR :0.75658: (Sim:1h10m38s) 
CPU  0 inst:  265000000 cyc:  413907374 now IPC :0.26662: AVG IPC :0.63694: L2-Pf-HR :0.84004: L2-HR :0.75580: (Sim:1h11m4s) 
CPU  0 inst:  266000000 cyc:  417649700 now IPC :0.26721: AVG IPC :0.63362: L2-Pf-HR :0.83897: L2-HR :0.75502: (Sim:1h11m31s) 
CPU  0 inst:  267000004 cyc:  421398350 now IPC :0.26676: AVG IPC :0.63035: L2-Pf-HR :0.83791: L2-HR :0.75424: (Sim:1h11m56s) 
CPU  0 inst:  268000000 cyc:  425145523 now IPC :0.26687: AVG IPC :0.62714: L2-Pf-HR :0.83685: L2-HR :0.75346: (Sim:1h12m21s) 
CPU  0 inst:  269000000 cyc:  428899862 now IPC :0.26636: AVG IPC :0.62397: L2-Pf-HR :0.83579: L2-HR :0.75269: (Sim:1h12m48s) 
CPU  0 inst:  270000001 cyc:  432647761 now IPC :0.26682: AVG IPC :0.62087: L2-Pf-HR :0.83474: L2-HR :0.75193: (Sim:1h13m14s) 
CPU  0 inst:  271000001 cyc:  436396066 now IPC :0.26679: AVG IPC :0.61783: L2-Pf-HR :0.83369: L2-HR :0.75116: (Sim:1h13m41s) 
CPU  0 inst:  272000000 cyc:  440149919 now IPC :0.26639: AVG IPC :0.61482: L2-Pf-HR :0.83264: L2-HR :0.75040: (Sim:1h14m4s) 
CPU  0 inst:  273000000 cyc:  443897672 now IPC :0.26683: AVG IPC :0.61188: L2-Pf-HR :0.83160: L2-HR :0.74964: (Sim:1h14m25s) 
CPU  0 inst:  274000000 cyc:  447639889 now IPC :0.26722: AVG IPC :0.60899: L2-Pf-HR :0.83056: L2-HR :0.74889: (Sim:1h14m52s) 
CPU  0 inst:  275000000 cyc:  451391326 now IPC :0.26656: AVG IPC :0.60614: L2-Pf-HR :0.82952: L2-HR :0.74814: (Sim:1h15m18s) 
CPU  0 inst:  276000000 cyc:  455138100 now IPC :0.26690: AVG IPC :0.60334: L2-Pf-HR :0.82848: L2-HR :0.74739: (Sim:1h15m45s) 
CPU  0 inst:  277000000 cyc:  458885502 now IPC :0.26685: AVG IPC :0.60058: L2-Pf-HR :0.82745: L2-HR :0.74664: (Sim:1h16m11s) 
CPU  0 inst:  278000001 cyc:  462632739 now IPC :0.26686: AVG IPC :0.59787: L2-Pf-HR :0.82643: L2-HR :0.74590: (Sim:1h16m37s) 
CPU  0 inst:  279000003 cyc:  466386298 now IPC :0.26641: AVG IPC :0.59520: L2-Pf-HR :0.82540: L2-HR :0.74516: (Sim:1h17m3s) 
CPU  0 inst:  280000000 cyc:  470133336 now IPC :0.26688: AVG IPC :0.59258: L2-Pf-HR :0.82437: L2-HR :0.74442: (Sim:1h17m29s) 
CPU  0 inst:  281000000 cyc:  473873897 now IPC :0.26734: AVG IPC :0.59001: L2-Pf-HR :0.82335: L2-HR :0.74369: (Sim:1h17m56s) 
CPU  0 inst:  282000000 cyc:  477624040 now IPC :0.26666: AVG IPC :0.58746: L2-Pf-HR :0.82233: L2-HR :0.74296: (Sim:1h18m23s) 
CPU  0 inst:  283000000 cyc:  481372440 now IPC :0.26678: AVG IPC :0.58496: L2-Pf-HR :0.82131: L2-HR :0.74223: (Sim:1h18m50s) 
CPU  0 inst:  284000004 cyc:  485121851 now IPC :0.26671: AVG IPC :0.58250: L2-Pf-HR :0.82030: L2-HR :0.74151: (Sim:1h19m18s) 
CPU  0 inst:  285000000 cyc:  488870343 now IPC :0.26677: AVG IPC :0.58007: L2-Pf-HR :0.81929: L2-HR :0.74078: (Sim:1h19m45s) 
CPU  0 inst:  286000003 cyc:  492620799 now IPC :0.26664: AVG IPC :0.57768: L2-Pf-HR :0.81829: L2-HR :0.74007: (Sim:1h20m12s) 
CPU  0 inst:  287000000 cyc:  496367593 now IPC :0.26689: AVG IPC :0.57533: L2-Pf-HR :0.81729: L2-HR :0.73935: (Sim:1h20m39s) 
CPU  0 inst:  288000000 cyc:  500109553 now IPC :0.26724: AVG IPC :0.57302: L2-Pf-HR :0.81629: L2-HR :0.73863: (Sim:1h21m6s) 
CPU  0 inst:  289000000 cyc:  503856457 now IPC :0.26689: AVG IPC :0.57074: L2-Pf-HR :0.81529: L2-HR :0.73792: (Sim:1h21m34s) 
CPU  0 inst:  290000000 cyc:  507606643 now IPC :0.26665: AVG IPC :0.56849: L2-Pf-HR :0.81430: L2-HR :0.73722: (Sim:1h22m1s) 
CPU  0 inst:  291000000 cyc:  511353163 now IPC :0.26691: AVG IPC :0.56627: L2-Pf-HR :0.81331: L2-HR :0.73651: (Sim:1h22m28s) 
CPU  0 inst:  292000000 cyc:  515102874 now IPC :0.26669: AVG IPC :0.56409: L2-Pf-HR :0.81232: L2-HR :0.73581: (Sim:1h22m55s) 
CPU  0 inst:  293000001 cyc:  518850034 now IPC :0.26687: AVG IPC :0.56194: L2-Pf-HR :0.81134: L2-HR :0.73511: (Sim:1h23m21s) 
CPU  0 inst:  294000001 cyc:  522600838 now IPC :0.26661: AVG IPC :0.55981: L2-Pf-HR :0.81036: L2-HR :0.73441: (Sim:1h23m48s) 
CPU  0 inst:  295000000 cyc:  526345170 now IPC :0.26707: AVG IPC :0.55773: L2-Pf-HR :0.80938: L2-HR :0.73372: (Sim:1h24m14s) 
CPU  0 inst:  296000000 cyc:  530094436 now IPC :0.26672: AVG IPC :0.55566: L2-Pf-HR :0.80840: L2-HR :0.73303: (Sim:1h24m35s) 
CPU  0 inst:  297000005 cyc:  531660941 now IPC :0.63837: AVG IPC :0.55591: L2-Pf-HR :0.80895: L2-HR :0.73400: (Sim:1h24m47s) 
CPU  0 inst:  298000001 cyc:  532271864 now IPC :1.63686: AVG IPC :0.55715: L2-Pf-HR :0.81040: L2-HR :0.73585: (Sim:1h25m3s) 
CPU  0 inst:  299000005 cyc:  532880731 now IPC :1.64240: AVG IPC :0.55839: L2-Pf-HR :0.81182: L2-HR :0.73766: (Sim:1h25m19s) 
CPU  0 inst:  300000000 cyc:  533479120 now IPC :1.67115: AVG IPC :0.55964: L2-Pf-HR :0.81316: L2-HR :0.73942: (Sim:1h25m35s) 
CPU  0 inst:  301000005 cyc:  534089239 now IPC :1.63903: AVG IPC :0.56088: L2-Pf-HR :0.81449: L2-HR :0.74116: (Sim:1h25m50s) 
CPU  0 inst:  302000005 cyc:  534661865 now IPC :1.74634: AVG IPC :0.56215: L2-Pf-HR :0.81589: L2-HR :0.74293: (Sim:1h26m7s) 
CPU  0 inst:  303000003 cyc:  535227095 now IPC :1.76919: AVG IPC :0.56343: L2-Pf-HR :0.81719: L2-HR :0.74464: (Sim:1h26m24s) 
CPU  0 inst:  304000000 cyc:  535788987 now IPC :1.77970: AVG IPC :0.56471: L2-Pf-HR :0.81848: L2-HR :0.74633: (Sim:1h26m40s) 
CPU  0 inst:  305000000 cyc:  536370613 now IPC :1.71932: AVG IPC :0.56596: L2-Pf-HR :0.81982: L2-HR :0.74805: (Sim:1h26m56s) 
CPU  0 inst:  306000005 cyc:  536935369 now IPC :1.77069: AVG IPC :0.56723: L2-Pf-HR :0.82110: L2-HR :0.74972: (Sim:1h27m12s) 
CPU  0 inst:  307000005 cyc:  537494580 now IPC :1.78823: AVG IPC :0.56850: L2-Pf-HR :0.82233: L2-HR :0.75136: (Sim:1h27m28s) 
CPU  0 inst:  308000004 cyc:  538046440 now IPC :1.81205: AVG IPC :0.56978: L2-Pf-HR :0.82355: L2-HR :0.75298: (Sim:1h27m44s) 
CPU  0 inst:  309000003 cyc:  538612625 now IPC :1.76621: AVG IPC :0.57104: L2-Pf-HR :0.82473: L2-HR :0.75455: (Sim:1h28m0s) 
CPU  0 inst:  310000004 cyc:  539183037 now IPC :1.75312: AVG IPC :0.57229: L2-Pf-HR :0.82570: L2-HR :0.75595: (Sim:1h28m17s) 
CPU  0 inst:  311000004 cyc:  539750144 now IPC :1.76334: AVG IPC :0.57355: L2-Pf-HR :0.82664: L2-HR :0.75731: (Sim:1h28m32s) 
CPU  0 inst:  312000000 cyc:  540316976 now IPC :1.76418: AVG IPC :0.57480: L2-Pf-HR :0.82760: L2-HR :0.75869: (Sim:1h28m47s) 
CPU  0 inst:  313000003 cyc:  540903349 now IPC :1.70540: AVG IPC :0.57603: L2-Pf-HR :0.82855: L2-HR :0.76004: (Sim:1h29m2s) 
CPU  0 inst:  314000004 cyc:  541500493 now IPC :1.67464: AVG IPC :0.57724: L2-Pf-HR :0.82948: L2-HR :0.76140: (Sim:1h29m18s) 
CPU  0 inst:  315000001 cyc:  542089933 now IPC :1.69652: AVG IPC :0.57846: L2-Pf-HR :0.83051: L2-HR :0.76281: (Sim:1h29m34s) 
CPU  0 inst:  316000003 cyc:  542681939 now IPC :1.68918: AVG IPC :0.57967: L2-Pf-HR :0.83150: L2-HR :0.76420: (Sim:1h29m49s) 
CPU  0 inst:  317000001 cyc:  543275016 now IPC :1.68612: AVG IPC :0.58088: L2-Pf-HR :0.83245: L2-HR :0.76554: (Sim:1h30m5s) 
CPU  0 inst:  318000000 cyc:  543849063 now IPC :1.74202: AVG IPC :0.58211: L2-Pf-HR :0.83341: L2-HR :0.76688: (Sim:1h30m20s) 
CPU  0 inst:  319000004 cyc:  544404038 now IPC :1.80189: AVG IPC :0.58336: L2-Pf-HR :0.83444: L2-HR :0.76826: (Sim:1h30m36s) 
CPU  0 inst:  320000000 cyc:  544965989 now IPC :1.77951: AVG IPC :0.58459: L2-Pf-HR :0.83541: L2-HR :0.76960: (Sim:1h30m51s) 
CPU  0 inst:  321000005 cyc:  545522949 now IPC :1.79547: AVG IPC :0.58583: L2-Pf-HR :0.83638: L2-HR :0.77093: (Sim:1h31m7s) 
CPU  0 inst:  322000002 cyc:  546092558 now IPC :1.75558: AVG IPC :0.58705: L2-Pf-HR :0.83725: L2-HR :0.77219: (Sim:1h31m22s) 
CPU  0 inst:  323000000 cyc:  546643626 now IPC :1.81465: AVG IPC :0.58829: L2-Pf-HR :0.83819: L2-HR :0.77349: (Sim:1h31m36s) 
CPU  0 inst:  324000003 cyc:  547193868 now IPC :1.81739: AVG IPC :0.58953: L2-Pf-HR :0.83911: L2-HR :0.77477: (Sim:1h31m52s) 
CPU  0 inst:  325000003 cyc:  547745300 now IPC :1.81346: AVG IPC :0.59077: L2-Pf-HR :0.84004: L2-HR :0.77605: (Sim:1h32m8s) 
CPU  0 inst:  326000003 cyc:  548319196 now IPC :1.74248: AVG IPC :0.59197: L2-Pf-HR :0.84077: L2-HR :0.77719: (Sim:1h32m24s) 
CPU  0 inst:  327000002 cyc:  548881707 now IPC :1.77774: AVG IPC :0.59319: L2-Pf-HR :0.84150: L2-HR :0.77829: (Sim:1h32m39s) 
CPU  0 inst:  328000000 cyc:  549445326 now IPC :1.77424: AVG IPC :0.59440: L2-Pf-HR :0.84222: L2-HR :0.77938: (Sim:1h32m55s) 
CPU  0 inst:  329000002 cyc:  550015227 now IPC :1.75469: AVG IPC :0.59561: L2-Pf-HR :0.84292: L2-HR :0.78045: (Sim:1h33m11s) 
CPU  0 inst:  330000000 cyc:  550614646 now IPC :1.66828: AVG IPC :0.59678: L2-Pf-HR :0.84353: L2-HR :0.78145: (Sim:1h33m27s) 
CPU  0 inst:  331000004 cyc:  551203082 now IPC :1.69943: AVG IPC :0.59796: L2-Pf-HR :0.84430: L2-HR :0.78257: (Sim:1h33m41s) 
CPU  0 inst:  332000001 cyc:  551791472 now IPC :1.69955: AVG IPC :0.59914: L2-Pf-HR :0.84506: L2-HR :0.78368: (Sim:1h33m57s) 
CPU  0 inst:  333000000 cyc:  552383578 now IPC :1.68889: AVG IPC :0.60031: L2-Pf-HR :0.84579: L2-HR :0.78476: (Sim:1h34m13s) 
CPU  0 inst:  334000001 cyc:  552986979 now IPC :1.65727: AVG IPC :0.60146: L2-Pf-HR :0.84643: L2-HR :0.78577: (Sim:1h34m29s) 
CPU  0 inst:  335000002 cyc:  553549343 now IPC :1.77821: AVG IPC :0.60266: L2-Pf-HR :0.84722: L2-HR :0.78688: (Sim:1h34m43s) 
CPU  0 inst:  336000000 cyc:  554103683 now IPC :1.80394: AVG IPC :0.60386: L2-Pf-HR :0.84796: L2-HR :0.78795: (Sim:1h34m55s) 
CPU  0 inst:  337000002 cyc:  554668662 now IPC :1.76998: AVG IPC :0.60505: L2-Pf-HR :0.84865: L2-HR :0.78898: (Sim:1h35m11s) 
CPU  0 inst:  338000000 cyc:  555226609 now IPC :1.79228: AVG IPC :0.60625: L2-Pf-HR :0.84936: L2-HR :0.79002: (Sim:1h35m27s) 
CPU  0 inst:  339000005 cyc:  555789797 now IPC :1.77561: AVG IPC :0.60743: L2-Pf-HR :0.85007: L2-HR :0.79107: (Sim:1h35m43s) 
CPU  0 inst:  340000005 cyc:  556340819 now IPC :1.81481: AVG IPC :0.60863: L2-Pf-HR :0.85075: L2-HR :0.79208: (Sim:1h35m58s) 
CPU  0 inst:  341000002 cyc:  556894186 now IPC :1.80711: AVG IPC :0.60983: L2-Pf-HR :0.85140: L2-HR :0.79307: (Sim:1h36m14s) 
CPU  0 inst:  342000002 cyc:  557444530 now IPC :1.81705: AVG IPC :0.61102: L2-Pf-HR :0.85207: L2-HR :0.79406: (Sim:1h36m31s) 
CPU  0 inst:  343000004 cyc:  558017605 now IPC :1.74498: AVG IPC :0.61219: L2-Pf-HR :0.85266: L2-HR :0.79498: (Sim:1h36m46s) 
CPU  0 inst:  344000000 cyc:  558581734 now IPC :1.77264: AVG IPC :0.61336: L2-Pf-HR :0.85317: L2-HR :0.79584: (Sim:1h37m0s) 
CPU  0 inst:  345000001 cyc:  559147056 now IPC :1.76891: AVG IPC :0.61453: L2-Pf-HR :0.85368: L2-HR :0.79668: (Sim:1h37m15s) 
CPU  0 inst:  346000002 cyc:  559717751 now IPC :1.75225: AVG IPC :0.61569: L2-Pf-HR :0.85422: L2-HR :0.79754: (Sim:1h37m26s) 
CPU  0 inst:  347000001 cyc:  560320595 now IPC :1.65880: AVG IPC :0.61682: L2-Pf-HR :0.85472: L2-HR :0.79838: (Sim:1h37m36s) 
CPU  0 inst:  348000003 cyc:  560913798 now IPC :1.68577: AVG IPC :0.61795: L2-Pf-HR :0.85527: L2-HR :0.79925: (Sim:1h37m45s) 
CPU  0 inst:  349000000 cyc:  561503334 now IPC :1.69624: AVG IPC :0.61908: L2-Pf-HR :0.85585: L2-HR :0.80013: (Sim:1h38m0s) 
CPU  0 inst:  350000002 cyc:  562093221 now IPC :1.69524: AVG IPC :0.62022: L2-Pf-HR :0.85642: L2-HR :0.80101: (Sim:1h38m16s) 
CPU  0 inst:  351000005 cyc:  562682012 now IPC :1.69840: AVG IPC :0.62135: L2-Pf-HR :0.85691: L2-HR :0.80182: (Sim:1h38m31s) 
CPU  0 inst:  352000000 cyc:  563240930 now IPC :1.78916: AVG IPC :0.62251: L2-Pf-HR :0.85751: L2-HR :0.80271: (Sim:1h38m47s) 
CPU  0 inst:  353000003 cyc:  563797224 now IPC :1.79762: AVG IPC :0.62367: L2-Pf-HR :0.85810: L2-HR :0.80359: (Sim:1h39m3s) 
CPU  0 inst:  354000002 cyc:  564355173 now IPC :1.79228: AVG IPC :0.62483: L2-Pf-HR :0.85867: L2-HR :0.80445: (Sim:1h39m16s) 
CPU  0 inst:  355000000 cyc:  564926412 now IPC :1.75058: AVG IPC :0.62597: L2-Pf-HR :0.85916: L2-HR :0.80525: (Sim:1h39m31s) 
CPU  0 inst:  356000005 cyc:  565478956 now IPC :1.80982: AVG IPC :0.62712: L2-Pf-HR :0.85973: L2-HR :0.80611: (Sim:1h39m45s) 
CPU  0 inst:  357000002 cyc:  566027957 now IPC :1.82148: AVG IPC :0.62828: L2-Pf-HR :0.86031: L2-HR :0.80697: (Sim:1h40m1s) 
CPU  0 inst:  358000003 cyc:  566578308 now IPC :1.81702: AVG IPC :0.62944: L2-Pf-HR :0.86085: L2-HR :0.80780: (Sim:1h40m17s) 
CPU  0 inst:  359000002 cyc:  567143606 now IPC :1.76898: AVG IPC :0.63058: L2-Pf-HR :0.86131: L2-HR :0.80857: (Sim:1h40m33s) 
CPU  0 inst:  360000000 cyc:  567710098 now IPC :1.76525: AVG IPC :0.63171: L2-Pf-HR :0.86175: L2-HR :0.80930: (Sim:1h40m49s) 
CPU  0 inst:  361000002 cyc:  568273155 now IPC :1.77602: AVG IPC :0.63285: L2-Pf-HR :0.86218: L2-HR :0.81002: (Sim:1h41m5s) 
CPU  0 inst:  362000003 cyc:  568838544 now IPC :1.76870: AVG IPC :0.63398: L2-Pf-HR :0.86260: L2-HR :0.81072: (Sim:1h41m21s) 
CPU  0 inst:  363000003 cyc:  569412840 now IPC :1.74126: AVG IPC :0.63510: L2-Pf-HR :0.86300: L2-HR :0.81141: (Sim:1h41m37s) 
CPU  0 inst:  364000002 cyc:  570017518 now IPC :1.65377: AVG IPC :0.63618: L2-Pf-HR :0.86340: L2-HR :0.81210: (Sim:1h41m54s) 
CPU  0 inst:  365000000 cyc:  570607568 now IPC :1.69477: AVG IPC :0.63728: L2-Pf-HR :0.86387: L2-HR :0.81284: (Sim:1h42m10s) 
CPU  0 inst:  366000004 cyc:  571196236 now IPC :1.69876: AVG IPC :0.63837: L2-Pf-HR :0.86432: L2-HR :0.81356: (Sim:1h42m25s) 
CPU  0 inst:  367000001 cyc:  571787931 now IPC :1.69005: AVG IPC :0.63946: L2-Pf-HR :0.86476: L2-HR :0.81427: (Sim:1h42m36s) 
CPU  0 inst:  368000000 cyc:  572369110 now IPC :1.72064: AVG IPC :0.64056: L2-Pf-HR :0.86517: L2-HR :0.81496: (Sim:1h42m45s) 
CPU  0 inst:  369000001 cyc:  572924727 now IPC :1.79980: AVG IPC :0.64169: L2-Pf-HR :0.86565: L2-HR :0.81570: (Sim:1h42m55s) 
CPU  0 inst:  370000003 cyc:  573483240 now IPC :1.79047: AVG IPC :0.64281: L2-Pf-HR :0.86611: L2-HR :0.81641: (Sim:1h43m4s) 
CPU  0 inst:  371000001 cyc:  574042059 now IPC :1.78948: AVG IPC :0.64393: L2-Pf-HR :0.86655: L2-HR :0.81711: (Sim:1h43m17s) 
CPU  0 inst:  372000004 cyc:  574611395 now IPC :1.75644: AVG IPC :0.64503: L2-Pf-HR :0.86698: L2-HR :0.81781: (Sim:1h43m33s) 
CPU  0 inst:  373000005 cyc:  575161452 now IPC :1.81800: AVG IPC :0.64616: L2-Pf-HR :0.86744: L2-HR :0.81852: (Sim:1h43m49s) 
CPU  0 inst:  374000004 cyc:  575711500 now IPC :1.81802: AVG IPC :0.64728: L2-Pf-HR :0.86787: L2-HR :0.81921: (Sim:1h44m4s) 
CPU  0 inst:  375000002 cyc:  576261995 now IPC :1.81654: AVG IPC :0.64840: L2-Pf-HR :0.86827: L2-HR :0.81987: (Sim:1h44m20s) 
CPU  0 inst:  376000000 cyc:  576827952 now IPC :1.76692: AVG IPC :0.64950: L2-Pf-HR :0.86867: L2-HR :0.82052: (Sim:1h44m36s) 
CPU  0 inst:  377000003 cyc:  577394681 now IPC :1.76452: AVG IPC :0.65059: L2-Pf-HR :0.86901: L2-HR :0.82112: (Sim:1h44m51s) 
CPU  0 inst:  378000002 cyc:  577960040 now IPC :1.76879: AVG IPC :0.65169: L2-Pf-HR :0.86932: L2-HR :0.82169: (Sim:1h45m7s) 
CPU  0 inst:  379000004 cyc:  578532174 now IPC :1.74785: AVG IPC :0.65277: L2-Pf-HR :0.86965: L2-HR :0.82227: (Sim:1h45m22s) 
CPU  0 inst:  380000005 cyc:  579122813 now IPC :1.69308: AVG IPC :0.65384: L2-Pf-HR :0.86997: L2-HR :0.82284: (Sim:1h45m37s) 
CPU  0 inst:  381000002 cyc:  579716777 now IPC :1.68360: AVG IPC :0.65489: L2-Pf-HR :0.87031: L2-HR :0.82343: (Sim:1h45m53s) 
CPU  0 inst:  382000003 cyc:  580309153 now IPC :1.68812: AVG IPC :0.65595: L2-Pf-HR :0.87066: L2-HR :0.82403: (Sim:1h46m9s) 
CPU  0 inst:  383000001 cyc:  580902038 now IPC :1.68666: AVG IPC :0.65700: L2-Pf-HR :0.87102: L2-HR :0.82463: (Sim:1h46m25s) 
CPU  0 inst:  384000000 cyc:  581499532 now IPC :1.67366: AVG IPC :0.65805: L2-Pf-HR :0.87135: L2-HR :0.82520: (Sim:1h46m41s) 
CPU  0 inst:  385000002 cyc:  582063957 now IPC :1.77172: AVG IPC :0.65913: L2-Pf-HR :0.87172: L2-HR :0.82580: (Sim:1h46m56s) 
CPU  0 inst:  386000004 cyc:  582618763 now IPC :1.80244: AVG IPC :0.66022: L2-Pf-HR :0.87210: L2-HR :0.82641: (Sim:1h47m12s) 
CPU  0 inst:  387000003 cyc:  583179993 now IPC :1.78180: AVG IPC :0.66130: L2-Pf-HR :0.87247: L2-HR :0.82701: (Sim:1h47m27s) 
CPU  0 inst:  388000004 cyc:  583736982 now IPC :1.79537: AVG IPC :0.66239: L2-Pf-HR :0.87283: L2-HR :0.82760: (Sim:1h47m43s) 
CPU  0 inst:  389000004 cyc:  584302386 now IPC :1.76865: AVG IPC :0.66346: L2-Pf-HR :0.87319: L2-HR :0.82819: (Sim:1h47m59s) 
CPU  0 inst:  390000002 cyc:  584853245 now IPC :1.81534: AVG IPC :0.66455: L2-Pf-HR :0.87357: L2-HR :0.82879: (Sim:1h48m15s) 
CPU  0 inst:  391000004 cyc:  585403360 now IPC :1.81781: AVG IPC :0.66563: L2-Pf-HR :0.87393: L2-HR :0.82938: (Sim:1h48m30s) 
CPU  0 inst:  392000000 cyc:  585952019 now IPC :1.82262: AVG IPC :0.66672: L2-Pf-HR :0.87431: L2-HR :0.82998: (Sim:1h48m46s) 
CPU  0 inst:  393000001 cyc:  586529839 now IPC :1.73064: AVG IPC :0.66777: L2-Pf-HR :0.87456: L2-HR :0.83047: (Sim:1h49m1s) 
CPU  0 inst:  394000002 cyc:  587091875 now IPC :1.77925: AVG IPC :0.66883: L2-Pf-HR :0.87484: L2-HR :0.83098: (Sim:1h49m17s) 
CPU  0 inst:  395000002 cyc:  587655231 now IPC :1.77508: AVG IPC :0.66990: L2-Pf-HR :0.87513: L2-HR :0.83148: (Sim:1h49m32s) 
CPU  0 inst:  396000000 cyc:  588225548 now IPC :1.75341: AVG IPC :0.67095: L2-Pf-HR :0.87541: L2-HR :0.83198: (Sim:1h49m48s) 
CPU  0 inst:  397000003 cyc:  588828754 now IPC :1.65781: AVG IPC :0.67196: L2-Pf-HR :0.87564: L2-HR :0.83244: (Sim:1h50m4s) 
CPU  0 inst:  398000000 cyc:  589416563 now IPC :1.70123: AVG IPC :0.67299: L2-Pf-HR :0.87595: L2-HR :0.83296: (Sim:1h50m19s) 
CPU  0 inst:  399000004 cyc:  590005043 now IPC :1.69930: AVG IPC :0.67402: L2-Pf-HR :0.87625: L2-HR :0.83348: (Sim:1h50m35s) 
CPU  0 inst:  400000000 cyc:  590596035 now IPC :1.69206: AVG IPC :0.67504: L2-Pf-HR :0.87656: L2-HR :0.83400: (Sim:1h50m49s) 
CPU  0 inst:  401000003 cyc:  591195039 now IPC :1.66944: AVG IPC :0.67605: L2-Pf-HR :0.87680: L2-HR :0.83446: (Sim:1h50m58s) 
CPU  0 inst:  402000002 cyc:  591753673 now IPC :1.79008: AVG IPC :0.67710: L2-Pf-HR :0.87714: L2-HR :0.83499: (Sim:1h51m7s) 
CPU  0 inst:  403000001 cyc:  592310293 now IPC :1.79656: AVG IPC :0.67815: L2-Pf-HR :0.87746: L2-HR :0.83552: (Sim:1h51m17s) 
CPU  0 inst:  404000003 cyc:  592871429 now IPC :1.78210: AVG IPC :0.67920: L2-Pf-HR :0.87777: L2-HR :0.83603: (Sim:1h51m32s) 
CPU  0 inst:  405000001 cyc:  593442064 now IPC :1.75243: AVG IPC :0.68023: L2-Pf-HR :0.87803: L2-HR :0.83651: (Sim:1h51m48s) 
CPU  0 inst:  406000001 cyc:  593995742 now IPC :1.80610: AVG IPC :0.68128: L2-Pf-HR :0.87836: L2-HR :0.83703: (Sim:1h52m2s) 
CPU  0 inst:  407000003 cyc:  594544731 now IPC :1.82153: AVG IPC :0.68234: L2-Pf-HR :0.87868: L2-HR :0.83754: (Sim:1h52m17s) 
CPU  0 inst:  408000000 cyc:  595097514 now IPC :1.80902: AVG IPC :0.68339: L2-Pf-HR :0.87896: L2-HR :0.83803: (Sim:1h52m33s) 
CPU  0 inst:  409000004 cyc:  595650062 now IPC :1.80980: AVG IPC :0.68443: L2-Pf-HR :0.87927: L2-HR :0.83854: (Sim:1h52m49s) 
CPU  0 inst:  410000002 cyc:  596225451 now IPC :1.73795: AVG IPC :0.68545: L2-Pf-HR :0.87949: L2-HR :0.83896: (Sim:1h53m4s) 
CPU  0 inst:  411000004 cyc:  596789825 now IPC :1.77188: AVG IPC :0.68648: L2-Pf-HR :0.87971: L2-HR :0.83938: (Sim:1h53m20s) 
CPU  0 inst:  412000000 cyc:  597356918 now IPC :1.76337: AVG IPC :0.68751: L2-Pf-HR :0.87992: L2-HR :0.83979: (Sim:1h53m35s) 
CPU  0 inst:  413000002 cyc:  597926876 now IPC :1.75452: AVG IPC :0.68852: L2-Pf-HR :0.88014: L2-HR :0.84021: (Sim:1h53m51s) 
CPU  0 inst:  414000003 cyc:  598526305 now IPC :1.66826: AVG IPC :0.68951: L2-Pf-HR :0.88038: L2-HR :0.84064: (Sim:1h54m7s) 
CPU  0 inst:  415000001 cyc:  599118796 now IPC :1.68779: AVG IPC :0.69050: L2-Pf-HR :0.88061: L2-HR :0.84106: (Sim:1h54m22s) 
CPU  0 inst:  416000000 cyc:  599713017 now IPC :1.68287: AVG IPC :0.69148: L2-Pf-HR :0.88085: L2-HR :0.84150: (Sim:1h54m38s) 
CPU  0 inst:  417000003 cyc:  600302049 now IPC :1.69771: AVG IPC :0.69247: L2-Pf-HR :0.88111: L2-HR :0.84194: (Sim:1h54m54s) 
CPU  0 inst:  418000002 cyc:  600885749 now IPC :1.71321: AVG IPC :0.69346: L2-Pf-HR :0.88133: L2-HR :0.84235: (Sim:1h55m9s) 
CPU  0 inst:  419000001 cyc:  601443206 now IPC :1.79386: AVG IPC :0.69448: L2-Pf-HR :0.88160: L2-HR :0.84280: (Sim:1h55m25s) 
CPU  0 inst:  420000001 cyc:  602002948 now IPC :1.78654: AVG IPC :0.69550: L2-Pf-HR :0.88187: L2-HR :0.84324: (Sim:1h55m41s) 
CPU  0 inst:  421000002 cyc:  602558503 now IPC :1.80000: AVG IPC :0.69652: L2-Pf-HR :0.88214: L2-HR :0.84369: (Sim:1h55m56s) 
CPU  0 inst:  422000003 cyc:  603129884 now IPC :1.75015: AVG IPC :0.69752: L2-Pf-HR :0.88236: L2-HR :0.84411: (Sim:1h56m12s) 
CPU  0 inst:  423000000 cyc:  603682869 now IPC :1.80836: AVG IPC :0.69854: L2-Pf-HR :0.88264: L2-HR :0.84456: (Sim:1h56m27s) 
CPU  0 inst:  424000000 cyc:  604232076 now IPC :1.82081: AVG IPC :0.69956: L2-Pf-HR :0.88290: L2-HR :0.84500: (Sim:1h56m43s) 
CPU  0 inst:  425000005 cyc:  604782163 now IPC :1.81790: AVG IPC :0.70058: L2-Pf-HR :0.88317: L2-HR :0.84544: (Sim:1h56m58s) 
CPU  0 inst:  426000005 cyc:  605356117 now IPC :1.74230: AVG IPC :0.70157: L2-Pf-HR :0.88337: L2-HR :0.84584: (Sim:1h57m14s) 
CPU  0 inst:  427000000 cyc:  605919908 now IPC :1.77370: AVG IPC :0.70257: L2-Pf-HR :0.88358: L2-HR :0.84622: (Sim:1h57m29s) 
CPU  0 inst:  428000002 cyc:  606481572 now IPC :1.78043: AVG IPC :0.70357: L2-Pf-HR :0.88378: L2-HR :0.84659: (Sim:1h57m45s) 
CPU  0 inst:  429000001 cyc:  607050313 now IPC :1.75827: AVG IPC :0.70456: L2-Pf-HR :0.88398: L2-HR :0.84696: (Sim:1h58m0s) 
CPU  0 inst:  430000001 cyc:  607642188 now IPC :1.68955: AVG IPC :0.70552: L2-Pf-HR :0.88414: L2-HR :0.84730: (Sim:1h58m10s) 
CPU  0 inst:  431000002 cyc:  608232737 now IPC :1.69334: AVG IPC :0.70648: L2-Pf-HR :0.88435: L2-HR :0.84768: (Sim:1h58m21s) 
CPU  0 inst:  432000000 cyc:  608820723 now IPC :1.70072: AVG IPC :0.70744: L2-Pf-HR :0.88457: L2-HR :0.84807: (Sim:1h58m37s) 
CPU  0 inst:  433000002 cyc:  609412829 now IPC :1.68889: AVG IPC :0.70840: L2-Pf-HR :0.88479: L2-HR :0.84846: (Sim:1h58m47s) 
CPU  0 inst:  434000002 cyc:  610006437 now IPC :1.68461: AVG IPC :0.70935: L2-Pf-HR :0.88498: L2-HR :0.84882: (Sim:1h59m0s) 
CPU  0 inst:  435000005 cyc:  610579417 now IPC :1.74527: AVG IPC :0.71032: L2-Pf-HR :0.88520: L2-HR :0.84920: (Sim:1h59m16s) 
CPU  0 inst:  436000003 cyc:  611133985 now IPC :1.80320: AVG IPC :0.71132: L2-Pf-HR :0.88544: L2-HR :0.84960: (Sim:1h59m32s) 
CPU  0 inst:  437000003 cyc:  611693616 now IPC :1.78689: AVG IPC :0.71230: L2-Pf-HR :0.88567: L2-HR :0.84998: (Sim:1h59m47s) 
CPU  0 inst:  438000002 cyc:  612250546 now IPC :1.79556: AVG IPC :0.71329: L2-Pf-HR :0.88590: L2-HR :0.85037: (Sim:2h0m3s) 
CPU  0 inst:  439000002 cyc:  612820336 now IPC :1.75503: AVG IPC :0.71426: L2-Pf-HR :0.88610: L2-HR :0.85074: (Sim:2h0m16s) 
CPU  0 inst:  440000000 cyc:  613369206 now IPC :1.82192: AVG IPC :0.71525: L2-Pf-HR :0.88634: L2-HR :0.85114: (Sim:2h0m28s) 
CPU  0 inst:  441000005 cyc:  613919428 now IPC :1.81746: AVG IPC :0.71624: L2-Pf-HR :0.88657: L2-HR :0.85153: (Sim:2h0m42s) 
CPU  0 inst:  442000004 cyc:  614473429 now IPC :1.80505: AVG IPC :0.71722: L2-Pf-HR :0.88679: L2-HR :0.85190: (Sim:2h0m55s) 
CPU  0 inst:  443000003 cyc:  615044574 now IPC :1.75087: AVG IPC :0.71819: L2-Pf-HR :0.88697: L2-HR :0.85224: (Sim:2h1m11s) 
CPU  0 inst:  444000002 cyc:  615607211 now IPC :1.77734: AVG IPC :0.71916: L2-Pf-HR :0.88714: L2-HR :0.85258: (Sim:2h1m27s) 
CPU  0 inst:  445000001 cyc:  616171959 now IPC :1.77070: AVG IPC :0.72012: L2-Pf-HR :0.88731: L2-HR :0.85290: (Sim:2h1m42s) 
CPU  0 inst:  446000005 cyc:  616745255 now IPC :1.74431: AVG IPC :0.72107: L2-Pf-HR :0.88746: L2-HR :0.85321: (Sim:2h1m57s) 
CPU  0 inst:  447000000 cyc:  617338422 now IPC :1.68586: AVG IPC :0.72200: L2-Pf-HR :0.88762: L2-HR :0.85353: (Sim:2h2m13s) 
CPU  0 inst:  448000000 cyc:  617932340 now IPC :1.68373: AVG IPC :0.72293: L2-Pf-HR :0.88780: L2-HR :0.85386: (Sim:2h2m28s) 
CPU  0 inst:  449000005 cyc:  618527908 now IPC :1.67908: AVG IPC :0.72385: L2-Pf-HR :0.88797: L2-HR :0.85418: (Sim:2h2m45s) 
CPU  0 inst:  450000000 cyc:  619118767 now IPC :1.69244: AVG IPC :0.72478: L2-Pf-HR :0.88814: L2-HR :0.85451: (Sim:2h3m0s) 
CPU  0 inst:  451000002 cyc:  619713795 now IPC :1.68060: AVG IPC :0.72570: L2-Pf-HR :0.88831: L2-HR :0.85483: (Sim:2h3m16s) 
CPU  0 inst:  452000001 cyc:  620275195 now IPC :1.78126: AVG IPC :0.72665: L2-Pf-HR :0.88851: L2-HR :0.85517: (Sim:2h3m32s) 
CPU  0 inst:  453000000 cyc:  620831359 now IPC :1.79803: AVG IPC :0.72761: L2-Pf-HR :0.88871: L2-HR :0.85551: (Sim:2h3m48s) 
CPU  0 inst:  454000004 cyc:  621391523 now IPC :1.78520: AVG IPC :0.72857: L2-Pf-HR :0.88891: L2-HR :0.85586: (Sim:2h4m3s) 
CPU  0 inst:  455000003 cyc:  621956891 now IPC :1.76876: AVG IPC :0.72952: L2-Pf-HR :0.88910: L2-HR :0.85619: (Sim:2h4m19s) 
CPU  0 inst:  456000000 cyc:  622514511 now IPC :1.79333: AVG IPC :0.73047: L2-Pf-HR :0.88929: L2-HR :0.85652: (Sim:2h4m35s) 
CPU  0 inst:  457000004 cyc:  623064452 now IPC :1.81838: AVG IPC :0.73143: L2-Pf-HR :0.88950: L2-HR :0.85687: (Sim:2h4m50s) 
CPU  0 inst:  458000001 cyc:  623615354 now IPC :1.81520: AVG IPC :0.73239: L2-Pf-HR :0.88970: L2-HR :0.85722: (Sim:2h5m6s) 
CPU  0 inst:  459000002 cyc:  624165042 now IPC :1.81922: AVG IPC :0.73335: L2-Pf-HR :0.88989: L2-HR :0.85755: (Sim:2h5m22s) 
CPU  0 inst:  460000002 cyc:  624741535 now IPC :1.73463: AVG IPC :0.73428: L2-Pf-HR :0.89003: L2-HR :0.85784: (Sim:2h5m38s) 
CPU  0 inst:  461000000 cyc:  625304361 now IPC :1.77674: AVG IPC :0.73522: L2-Pf-HR :0.89018: L2-HR :0.85813: (Sim:2h5m50s) 
CPU  0 inst:  462000001 cyc:  625869431 now IPC :1.76969: AVG IPC :0.73615: L2-Pf-HR :0.89033: L2-HR :0.85842: (Sim:2h6m6s) 
CPU  0 inst:  463000005 cyc:  626438105 now IPC :1.75848: AVG IPC :0.73708: L2-Pf-HR :0.89049: L2-HR :0.85871: (Sim:2h6m21s) 
CPU  0 inst:  464000000 cyc:  627042481 now IPC :1.65459: AVG IPC :0.73797: L2-Pf-HR :0.89060: L2-HR :0.85897: (Sim:2h6m37s) 
CPU  0 inst:  465000002 cyc:  627630424 now IPC :1.70085: AVG IPC :0.73887: L2-Pf-HR :0.89077: L2-HR :0.85927: (Sim:2h6m47s) 
CPU  0 inst:  466000002 cyc:  628220257 now IPC :1.69540: AVG IPC :0.73977: L2-Pf-HR :0.89094: L2-HR :0.85957: (Sim:2h7m3s) 
CPU  0 inst:  467000005 cyc:  628809067 now IPC :1.69835: AVG IPC :0.74067: L2-Pf-HR :0.89110: L2-HR :0.85987: (Sim:2h7m19s) 
CPU  0 inst:  468000002 cyc:  629400912 now IPC :1.68963: AVG IPC :0.74156: L2-Pf-HR :0.89123: L2-HR :0.86014: (Sim:2h7m33s) 
CPU  0 inst:  469000005 cyc:  629957035 now IPC :1.79817: AVG IPC :0.74250: L2-Pf-HR :0.89142: L2-HR :0.86045: (Sim:2h7m48s) 
CPU  0 inst:  470000001 cyc:  630511848 now IPC :1.80240: AVG IPC :0.74343: L2-Pf-HR :0.89159: L2-HR :0.86075: (Sim:2h8m4s) 
CPU  0 inst:  471000000 cyc:  631070174 now IPC :1.79107: AVG IPC :0.74436: L2-Pf-HR :0.89177: L2-HR :0.86106: (Sim:2h8m20s) 
CPU  0 inst:  472000000 cyc:  631642390 now IPC :1.74759: AVG IPC :0.74527: L2-Pf-HR :0.89190: L2-HR :0.86133: (Sim:2h8m36s) 
CPU  0 inst:  473000001 cyc:  632194281 now IPC :1.81195: AVG IPC :0.74620: L2-Pf-HR :0.89209: L2-HR :0.86165: (Sim:2h8m51s) 
CPU  0 inst:  474000000 cyc:  632742369 now IPC :1.82452: AVG IPC :0.74714: L2-Pf-HR :0.89227: L2-HR :0.86196: (Sim:2h9m7s) 
CPU  0 inst:  475000001 cyc:  633293885 now IPC :1.81319: AVG IPC :0.74807: L2-Pf-HR :0.89245: L2-HR :0.86226: (Sim:2h9m23s) 
CPU  0 inst:  476000001 cyc:  633862803 now IPC :1.75772: AVG IPC :0.74897: L2-Pf-HR :0.89258: L2-HR :0.86253: (Sim:2h9m38s) 
CPU  0 inst:  477000001 cyc:  634427126 now IPC :1.77203: AVG IPC :0.74989: L2-Pf-HR :0.89272: L2-HR :0.86280: (Sim:2h9m54s) 
CPU  0 inst:  478000004 cyc:  634988695 now IPC :1.78073: AVG IPC :0.75080: L2-Pf-HR :0.89285: L2-HR :0.86305: (Sim:2h10m6s) 
CPU  0 inst:  479000002 cyc:  635557596 now IPC :1.75777: AVG IPC :0.75170: L2-Pf-HR :0.89297: L2-HR :0.86330: (Sim:2h10m22s) 
CPU  0 inst:  480000000 cyc:  636131165 now IPC :1.74347: AVG IPC :0.75260: L2-Pf-HR :0.89310: L2-HR :0.86356: (Sim:2h10m37s) 
CPU  0 inst:  481000004 cyc:  636736248 now IPC :1.65267: AVG IPC :0.75345: L2-Pf-HR :0.89322: L2-HR :0.86380: (Sim:2h10m53s) 
CPU  0 inst:  482000005 cyc:  637329959 now IPC :1.68432: AVG IPC :0.75432: L2-Pf-HR :0.89335: L2-HR :0.86406: (Sim:2h11m9s) 
CPU  0 inst:  483000003 cyc:  637925957 now IPC :1.67785: AVG IPC :0.75519: L2-Pf-HR :0.89348: L2-HR :0.86431: (Sim:2h11m25s) 
CPU  0 inst:  484000004 cyc:  638523550 now IPC :1.67338: AVG IPC :0.75605: L2-Pf-HR :0.89360: L2-HR :0.86455: (Sim:2h11m40s) 
CPU  0 inst:  485000000 cyc:  639096323 now IPC :1.74589: AVG IPC :0.75694: L2-Pf-HR :0.89376: L2-HR :0.86483: (Sim:2h11m54s) 
CPU  0 inst:  486000005 cyc:  639653971 now IPC :1.79325: AVG IPC :0.75784: L2-Pf-HR :0.89390: L2-HR :0.86509: (Sim:2h12m6s) 
CPU  0 inst:  487000005 cyc:  640213410 now IPC :1.78751: AVG IPC :0.75874: L2-Pf-HR :0.89405: L2-HR :0.86536: (Sim:2h12m19s) 
CPU  0 inst:  488000000 cyc:  640766256 now IPC :1.80881: AVG IPC :0.75965: L2-Pf-HR :0.89421: L2-HR :0.86564: (Sim:2h12m33s) 
CPU  0 inst:  489000001 cyc:  641337424 now IPC :1.75080: AVG IPC :0.76053: L2-Pf-HR :0.89435: L2-HR :0.86590: (Sim:2h12m45s) 
CPU  0 inst:  490000001 cyc:  641888856 now IPC :1.81346: AVG IPC :0.76144: L2-Pf-HR :0.89451: L2-HR :0.86616: (Sim:2h12m58s) 
CPU  0 inst:  491000003 cyc:  642439334 now IPC :1.81661: AVG IPC :0.76235: L2-Pf-HR :0.89467: L2-HR :0.86644: (Sim:2h13m12s) 
CPU  0 inst:  492000001 cyc:  642987340 now IPC :1.82479: AVG IPC :0.76325: L2-Pf-HR :0.89483: L2-HR :0.86672: (Sim:2h13m28s) 
CPU  0 inst:  493000004 cyc:  643563977 now IPC :1.73420: AVG IPC :0.76412: L2-Pf-HR :0.89493: L2-HR :0.86695: (Sim:2h13m44s) 
Finished CPU 0 instr: 491000002 cyc: 642566241 AVG IPC: 0.76412 (Sim time: 2h13m44s)

ChampSim completed all CPUs

[ROI Statistics]
Core_0_instructions 491000002
Core_0_cycles 642566241
Core_0_IPC 0.76412

Core_0_branch_prediction_accuracy 99.58586
Core_0_branch_MPKI 0.12051
Core_0_average_ROB_occupancy_at_mispredict 471.26886

Core_0_L1D_total_access 224366798
Core_0_L1D_total_hit 204135667 L1D_total_Hit Ratio: 0.90983
Core_0_L1D_total_miss 20231131
Core_0_L1D_loads 123854011
Core_0_L1D_load_hit 113250652 L1D_load_Hit Ratio: 0.91439
Core_0_L1D_load_miss 10603359
Core_0_L1D_RFOs 12927014
Core_0_L1D_RFO_hit 12159443 L1D_RFO_Hit Ratio: 0.94062
Core_0_L1D_RFO_miss 767571
Core_0_L1D_prefetches 87585773
Core_0_L1D_prefetch_hit 78725572 L1D_prefetch_Hit Ratio: 0.89884
Core_0_L1D_prefetch_miss 8860201
Core_0_L1D_writebacks 0
Core_0_L1D_writeback_hit 0 L1D_writeback_Hit Ratio: -nan
Core_0_L1D_writeback_miss 0
Core_0_L1D_prefetch_requested 226511772
Core_0_L1D_prefetch_issued 122906446
Core_0_L1D_prefetch_useful 7850719 L1D_Useful Ratio: 0.06388
Core_0_L1D_prefetch_useless 1026417
Core_0_L1D_prefetch_late 1987521
Core_0_L1D_average_miss_latency 47852561.29647

Core_0_L1I_total_access 73416337
Core_0_L1I_total_hit 73411362 L1I_total_Hit Ratio: 0.99993
Core_0_L1I_total_miss 4975
Core_0_L1I_loads 73416337
Core_0_L1I_load_hit 73411362 L1I_load_Hit Ratio: 0.99993
Core_0_L1I_load_miss 4975
Core_0_L1I_RFOs 0
Core_0_L1I_RFO_hit 0 L1I_RFO_Hit Ratio: -nan
Core_0_L1I_RFO_miss 0
Core_0_L1I_prefetches 0
Core_0_L1I_prefetch_hit 0 L1I_prefetch_Hit Ratio: -nan
Core_0_L1I_prefetch_miss 0
Core_0_L1I_writebacks 0
Core_0_L1I_writeback_hit 0 L1I_writeback_Hit Ratio: -nan
Core_0_L1I_writeback_miss 0
Core_0_L1I_prefetch_requested 0
Core_0_L1I_prefetch_issued 0
Core_0_L1I_prefetch_useful 0 L1I_Useful Ratio: -nan
Core_0_L1I_prefetch_useless 0
Core_0_L1I_prefetch_late 0
Core_0_L1I_average_miss_latency 279.51678

Core_0_L2C_total_access 37675476
Core_0_L2C_total_hit 32662632 L2C_total_Hit Ratio: 0.86695
Core_0_L2C_total_miss 5012844
Core_0_L2C_loads 8620893
Core_0_L2C_load_hit 6940582 L2C_load_Hit Ratio: 0.80509
Core_0_L2C_load_miss 1680311
Core_0_L2C_RFOs 767563
Core_0_L2C_RFO_hit 102446 L2C_RFO_Hit Ratio: 0.13347
Core_0_L2C_RFO_miss 665117
Core_0_L2C_prefetches 25373185
Core_0_L2C_prefetch_hit 22707314 L2C_prefetch_Hit Ratio: 0.89493
Core_0_L2C_prefetch_miss 2665871
Core_0_L2C_writebacks 2913835
Core_0_L2C_writeback_hit 2912290 L2C_writeback_Hit Ratio: 0.99947
Core_0_L2C_writeback_miss 1545
Core_0_L2C_prefetch_requested 30170200
Core_0_L2C_prefetch_issued 29198584
Core_0_L2C_prefetch_useful 377150 L2C_Useful Ratio: 0.01292
Core_0_L2C_prefetch_useless 2282199
Core_0_L2C_prefetch_late 495868
Core_0_L2C_average_miss_latency 301.98272

Core_0_LLC_total_access 7759264
Core_0_LLC_total_hit 3195259 LLC_total_Hit Ratio: 0.41180
Core_0_LLC_total_miss 4564005
Core_0_LLC_loads 1184566
Core_0_LLC_load_hit 221139 LLC_load_Hit Ratio: 0.18668
Core_0_LLC_load_miss 963427
Core_0_LLC_RFOs 665115
Core_0_LLC_RFO_hit 169 LLC_RFO_Hit Ratio: 0.00025
Core_0_LLC_RFO_miss 664946
Core_0_LLC_prefetches 3161615
Core_0_LLC_prefetch_hit 235838 LLC_prefetch_Hit Ratio: 0.07459
Core_0_LLC_prefetch_miss 2925777
Core_0_LLC_writebacks 2747968
Core_0_LLC_writeback_hit 2738113 LLC_writeback_Hit Ratio: 0.99641
Core_0_LLC_writeback_miss 9855
Core_0_LLC_prefetch_requested 0
Core_0_LLC_prefetch_issued 0
Core_0_LLC_prefetch_useful 15518 LLC_Useful Ratio: inf
Core_0_LLC_prefetch_useless 2873978
Core_0_LLC_prefetch_late 0
Core_0_LLC_average_miss_latency 292.65730

Core_0_major_page_fault 0
Core_0_minor_page_fault 28665


Channel_0_RQ_row_buffer_hit 2479760
Channel_0_RQ_row_buffer_miss 2074249
Channel_0_WQ_row_buffer_hit 780321
Channel_0_WQ_row_buffer_miss 1681484
Channel_0_WQ_full 485
Channel_0_dbus_congested 3374219

avg_congested_cycle 8

EzSearch AVG IPC :0.76412: L2-Pf-HR :0.89493 : L2-HR :0.86695 Uful:0.01292
     > Finished combination: TraceType=770-tot Sim:491000000 Prefetcher=L2ipcp L1=ipcp
