TRACE: [167000000][OPT-350M]_[h16][s512][d64] Warmup: 2000000 NumTraces: 167000000
L1:berti_concurso:L2:berti_concurso
*************************************************
   ChampSim Multicore Out-of-Order Simulator
   Last compiled: Oct 31 2024 10:17:14
*************************************************

trace_0 770-tot_memTraces_v5/140-subBillion_s512_LLM_Arch/memTraces[167000000][OPT-350M]_[h16][s512][d64].champsim.9.xz
CPU 0 L1D Berti prefetcher
CPU 0 L2C Berti prefetcher
MAIN.cc ln 751 stats print skipped
CPU  0 inst:    1000000 cyc:     505761 now IPC :1.97722: AVG IPC :1.97722: L2-Pf-HR :0.78344: L2-HR :0.74317: (Sim:0h0m15s) 
CPU  0 inst:    2000002 cyc:     993529 now IPC :2.05016: AVG IPC :2.01303: L2-Pf-HR :0.84186: L2-HR :0.79881: (Sim:0h0m31s) 

Warmup complete CPU  0 instructions:    2000002 cycles:     993529 (Simulation time: 0 hr 0 min 31 sec) 

CPU  0 inst:    3000002 cyc:    1634008 now IPC :1.56133: AVG IPC :1.56133: L2-Pf-HR :0.93492: L2-HR :0.86226: (Sim:0h0m44s) 
CPU  0 inst:    4000001 cyc:    2264004 now IPC :1.58731: AVG IPC :1.57421: L2-Pf-HR :0.91595: L2-HR :0.84301: (Sim:0h0m57s) 
CPU  0 inst:    5000004 cyc:    2932775 now IPC :1.49528: AVG IPC :1.54699: L2-Pf-HR :0.91854: L2-HR :0.83944: (Sim:0h1m12s) 
CPU  0 inst:    6000000 cyc:    3565234 now IPC :1.58112: AVG IPC :1.55539: L2-Pf-HR :0.93233: L2-HR :0.84892: (Sim:0h1m26s) 
CPU  0 inst:    7000004 cyc:    4198210 now IPC :1.57985: AVG IPC :1.56022: L2-Pf-HR :0.93924: L2-HR :0.85351: (Sim:0h1m40s) 
CPU  0 inst:    8000000 cyc:    4827182 now IPC :1.58989: AVG IPC :1.56509: L2-Pf-HR :0.93176: L2-HR :0.84956: (Sim:0h1m54s) 
CPU  0 inst:    9000000 cyc:    5517341 now IPC :1.44894: AVG IPC :1.54737: L2-Pf-HR :0.92910: L2-HR :0.84613: (Sim:0h2m9s) 
CPU  0 inst:   10000001 cyc:    6183944 now IPC :1.50014: AVG IPC :1.54130: L2-Pf-HR :0.93452: L2-HR :0.85023: (Sim:0h2m23s) 
CPU  0 inst:   11000003 cyc:    6851462 now IPC :1.49809: AVG IPC :1.53638: L2-Pf-HR :0.93755: L2-HR :0.85233: (Sim:0h2m37s) 
CPU  0 inst:   12000001 cyc:    7535526 now IPC :1.46185: AVG IPC :1.52859: L2-Pf-HR :0.93407: L2-HR :0.85066: (Sim:0h2m51s) 
CPU  0 inst:   13000004 cyc:    8273412 now IPC :1.35523: AVG IPC :1.51101: L2-Pf-HR :0.93222: L2-HR :0.84796: (Sim:0h3m5s) 
CPU  0 inst:   14000002 cyc:    8961039 now IPC :1.45427: AVG IPC :1.50612: L2-Pf-HR :0.93555: L2-HR :0.85016: (Sim:0h3m19s) 
CPU  0 inst:   15000000 cyc:    9644741 now IPC :1.46262: AVG IPC :1.50268: L2-Pf-HR :0.93774: L2-HR :0.85209: (Sim:0h3m33s) 
CPU  0 inst:   16000000 cyc:   10342194 now IPC :1.43379: AVG IPC :1.49754: L2-Pf-HR :0.93617: L2-HR :0.85115: (Sim:0h3m46s) 
CPU  0 inst:   17000002 cyc:   11088360 now IPC :1.34019: AVG IPC :1.48591: L2-Pf-HR :0.93392: L2-HR :0.84810: (Sim:0h3m59s) 
CPU  0 inst:   18000005 cyc:   11779883 now IPC :1.44609: AVG IPC :1.48336: L2-Pf-HR :0.93622: L2-HR :0.85008: (Sim:0h4m9s) 
CPU  0 inst:   19000002 cyc:   12466861 now IPC :1.45565: AVG IPC :1.48170: L2-Pf-HR :0.93832: L2-HR :0.85126: (Sim:0h4m23s) 
CPU  0 inst:   20000000 cyc:   13158814 now IPC :1.44518: AVG IPC :1.47962: L2-Pf-HR :0.93732: L2-HR :0.85129: (Sim:0h4m38s) 
CPU  0 inst:   21000000 cyc:   13895906 now IPC :1.35668: AVG IPC :1.47260: L2-Pf-HR :0.93481: L2-HR :0.84874: (Sim:0h4m52s) 
CPU  0 inst:   22000003 cyc:   14583559 now IPC :1.45423: AVG IPC :1.47167: L2-Pf-HR :0.93668: L2-HR :0.85001: (Sim:0h5m3s) 
CPU  0 inst:   23000003 cyc:   15271835 now IPC :1.45291: AVG IPC :1.47076: L2-Pf-HR :0.93806: L2-HR :0.85122: (Sim:0h5m16s) 
CPU  0 inst:   24000000 cyc:   15967631 now IPC :1.43720: AVG IPC :1.46920: L2-Pf-HR :0.93763: L2-HR :0.85149: (Sim:0h5m28s) 
CPU  0 inst:   25000000 cyc:   16706878 now IPC :1.35273: AVG IPC :1.46372: L2-Pf-HR :0.93526: L2-HR :0.84887: (Sim:0h5m42s) 
CPU  0 inst:   26000003 cyc:   17402405 now IPC :1.43776: AVG IPC :1.46262: L2-Pf-HR :0.93675: L2-HR :0.85005: (Sim:0h5m56s) 
CPU  0 inst:   27000005 cyc:   18095251 now IPC :1.44333: AVG IPC :1.46184: L2-Pf-HR :0.93786: L2-HR :0.85088: (Sim:0h6m10s) 
CPU  0 inst:   28000003 cyc:   18793269 now IPC :1.43262: AVG IPC :1.46070: L2-Pf-HR :0.93782: L2-HR :0.85130: (Sim:0h6m23s) 
CPU  0 inst:   29000000 cyc:   19516905 now IPC :1.38191: AVG IPC :1.45762: L2-Pf-HR :0.93534: L2-HR :0.84880: (Sim:0h6m36s) 
CPU  0 inst:   30000001 cyc:   20219044 now IPC :1.42422: AVG IPC :1.45640: L2-Pf-HR :0.93671: L2-HR :0.84989: (Sim:0h6m46s) 
CPU  0 inst:   31000000 cyc:   20914354 now IPC :1.43821: AVG IPC :1.45576: L2-Pf-HR :0.93776: L2-HR :0.85059: (Sim:0h6m57s) 
CPU  0 inst:   32000000 cyc:   21613308 now IPC :1.43071: AVG IPC :1.45491: L2-Pf-HR :0.93817: L2-HR :0.85142: (Sim:0h7m7s) 
CPU  0 inst:   33000002 cyc:   22312887 now IPC :1.42943: AVG IPC :1.45408: L2-Pf-HR :0.93618: L2-HR :0.84952: (Sim:0h7m18s) 
CPU  0 inst:   34000002 cyc:   23046208 now IPC :1.36366: AVG IPC :1.45107: L2-Pf-HR :0.93683: L2-HR :0.84984: (Sim:0h7m29s) 
CPU  0 inst:   35000002 cyc:   23740875 now IPC :1.43954: AVG IPC :1.45072: L2-Pf-HR :0.93775: L2-HR :0.85076: (Sim:0h7m42s) 
CPU  0 inst:   36000005 cyc:   24432726 now IPC :1.44540: AVG IPC :1.45056: L2-Pf-HR :0.93822: L2-HR :0.85117: (Sim:0h7m56s) 
CPU  0 inst:   37000001 cyc:   25118261 now IPC :1.45871: AVG IPC :1.45079: L2-Pf-HR :0.93719: L2-HR :0.85049: (Sim:0h8m9s) 
CPU  0 inst:   38000003 cyc:   25869675 now IPC :1.33083: AVG IPC :1.44717: L2-Pf-HR :0.93720: L2-HR :0.85024: (Sim:0h8m24s) 
CPU  0 inst:   39000002 cyc:   26562510 now IPC :1.44334: AVG IPC :1.44707: L2-Pf-HR :0.93807: L2-HR :0.85079: (Sim:0h8m38s) 
CPU  0 inst:   40000000 cyc:   27256646 now IPC :1.44064: AVG IPC :1.44690: L2-Pf-HR :0.93865: L2-HR :0.85136: (Sim:0h8m51s) 
CPU  0 inst:   41000001 cyc:   27938225 now IPC :1.46718: AVG IPC :1.44741: L2-Pf-HR :0.93752: L2-HR :0.85066: (Sim:0h9m5s) 
CPU  0 inst:   42000000 cyc:   28686861 now IPC :1.33576: AVG IPC :1.44439: L2-Pf-HR :0.93731: L2-HR :0.85026: (Sim:0h9m19s) 
CPU  0 inst:   43000002 cyc:   29381198 now IPC :1.44023: AVG IPC :1.44429: L2-Pf-HR :0.93819: L2-HR :0.85088: (Sim:0h9m33s) 
CPU  0 inst:   44000000 cyc:   30072710 now IPC :1.44610: AVG IPC :1.44433: L2-Pf-HR :0.93881: L2-HR :0.85136: (Sim:0h9m48s) 
CPU  0 inst:   45000003 cyc:   30767438 now IPC :1.43942: AVG IPC :1.44422: L2-Pf-HR :0.93786: L2-HR :0.85085: (Sim:0h10m2s) 
CPU  0 inst:   46000004 cyc:   31514857 now IPC :1.33794: AVG IPC :1.44161: L2-Pf-HR :0.93744: L2-HR :0.85026: (Sim:0h10m17s) 
CPU  0 inst:   47000003 cyc:   32201935 now IPC :1.45544: AVG IPC :1.44192: L2-Pf-HR :0.93816: L2-HR :0.85090: (Sim:0h10m31s) 
CPU  0 inst:   48000000 cyc:   32889680 now IPC :1.45402: AVG IPC :1.44218: L2-Pf-HR :0.93880: L2-HR :0.85134: (Sim:0h10m45s) 
CPU  0 inst:   49000004 cyc:   33583255 now IPC :1.44181: AVG IPC :1.44217: L2-Pf-HR :0.93804: L2-HR :0.85093: (Sim:0h10m59s) 
CPU  0 inst:   50000002 cyc:   34315572 now IPC :1.36553: AVG IPC :1.44049: L2-Pf-HR :0.93763: L2-HR :0.85034: (Sim:0h11m12s) 
CPU  0 inst:   51000005 cyc:   35007902 now IPC :1.44440: AVG IPC :1.44057: L2-Pf-HR :0.93826: L2-HR :0.85074: (Sim:0h11m26s) 
CPU  0 inst:   52000002 cyc:   35699417 now IPC :1.44610: AVG IPC :1.44068: L2-Pf-HR :0.93881: L2-HR :0.85126: (Sim:0h11m40s) 
CPU  0 inst:   53000004 cyc:   36395094 now IPC :1.43745: AVG IPC :1.44061: L2-Pf-HR :0.93828: L2-HR :0.85098: (Sim:0h11m54s) 
CPU  0 inst:   54000005 cyc:   37133509 now IPC :1.35425: AVG IPC :1.43885: L2-Pf-HR :0.93765: L2-HR :0.85016: (Sim:0h12m8s) 
CPU  0 inst:   55000001 cyc:   37827341 now IPC :1.44127: AVG IPC :1.43890: L2-Pf-HR :0.93827: L2-HR :0.85073: (Sim:0h12m19s) 
CPU  0 inst:   56000000 cyc:   38522592 now IPC :1.43833: AVG IPC :1.43888: L2-Pf-HR :0.93883: L2-HR :0.85108: (Sim:0h12m31s) 
CPU  0 inst:   57000004 cyc:   39215294 now IPC :1.44363: AVG IPC :1.43897: L2-Pf-HR :0.93848: L2-HR :0.85111: (Sim:0h12m44s) 
CPU  0 inst:   58000000 cyc:   39960347 now IPC :1.34218: AVG IPC :1.43712: L2-Pf-HR :0.93771: L2-HR :0.85024: (Sim:0h12m54s) 
CPU  0 inst:   59000004 cyc:   40658624 now IPC :1.43210: AVG IPC :1.43703: L2-Pf-HR :0.93828: L2-HR :0.85065: (Sim:0h13m5s) 
CPU  0 inst:   60000005 cyc:   41355210 now IPC :1.43557: AVG IPC :1.43701: L2-Pf-HR :0.93874: L2-HR :0.85104: (Sim:0h13m19s) 
CPU  0 inst:   61000004 cyc:   42050060 now IPC :1.43916: AVG IPC :1.43704: L2-Pf-HR :0.93860: L2-HR :0.85113: (Sim:0h13m34s) 
CPU  0 inst:   62000004 cyc:   42782649 now IPC :1.36502: AVG IPC :1.43578: L2-Pf-HR :0.93775: L2-HR :0.85017: (Sim:0h13m46s) 
CPU  0 inst:   63000003 cyc:   43481858 now IPC :1.43019: AVG IPC :1.43569: L2-Pf-HR :0.93821: L2-HR :0.85054: (Sim:0h14m0s) 
CPU  0 inst:   64000000 cyc:   44178896 now IPC :1.43464: AVG IPC :1.43567: L2-Pf-HR :0.93867: L2-HR :0.85092: (Sim:0h14m14s) 
CPU  0 inst:   65000000 cyc:   44879699 now IPC :1.42693: AVG IPC :1.43553: L2-Pf-HR :0.93868: L2-HR :0.85115: (Sim:0h14m29s) 
CPU  0 inst:   66000001 cyc:   46146048 now IPC :0.78967: AVG IPC :1.41742: L2-Pf-HR :0.93504: L2-HR :0.84631: (Sim:0h14m45s) 
CPU  0 inst:   67000003 cyc:   50807603 now IPC :0.21452: AVG IPC :1.30485: L2-Pf-HR :0.90350: L2-HR :0.81627: (Sim:0h15m24s) 
CPU  0 inst:   68000002 cyc:   55658818 now IPC :0.20613: AVG IPC :1.20735: L2-Pf-HR :0.87447: L2-HR :0.79154: (Sim:0h16m5s) 
CPU  0 inst:   69000000 cyc:   59605938 now IPC :0.25335: AVG IPC :1.14310: L2-Pf-HR :0.86308: L2-HR :0.78268: (Sim:0h16m34s) 
CPU  0 inst:   70000000 cyc:   63241639 now IPC :0.27505: AVG IPC :1.09240: L2-Pf-HR :0.85817: L2-HR :0.77906: (Sim:0h16m59s) 
CPU  0 inst:   71000002 cyc:   66878464 now IPC :0.27497: AVG IPC :1.04728: L2-Pf-HR :0.85344: L2-HR :0.77552: (Sim:0h17m24s) 
CPU  0 inst:   72000000 cyc:   70518381 now IPC :0.27473: AVG IPC :1.00683: L2-Pf-HR :0.84893: L2-HR :0.77210: (Sim:0h17m45s) 
CPU  0 inst:   73000003 cyc:   74150467 now IPC :0.27532: AVG IPC :0.97052: L2-Pf-HR :0.84459: L2-HR :0.76874: (Sim:0h18m11s) 
CPU  0 inst:   74000000 cyc:   77780809 now IPC :0.27546: AVG IPC :0.93766: L2-Pf-HR :0.84033: L2-HR :0.76543: (Sim:0h18m35s) 
CPU  0 inst:   75000005 cyc:   81411844 now IPC :0.27540: AVG IPC :0.90775: L2-Pf-HR :0.83627: L2-HR :0.76220: (Sim:0h18m58s) 
CPU  0 inst:   76000000 cyc:   85042740 now IPC :0.27541: AVG IPC :0.88044: L2-Pf-HR :0.83232: L2-HR :0.75905: (Sim:0h19m22s) 
CPU  0 inst:   77000000 cyc:   88673497 now IPC :0.27542: AVG IPC :0.85538: L2-Pf-HR :0.82843: L2-HR :0.75597: (Sim:0h19m45s) 
CPU  0 inst:   78000000 cyc:   92303745 now IPC :0.27546: AVG IPC :0.83233: L2-Pf-HR :0.82460: L2-HR :0.75293: (Sim:0h20m10s) 
CPU  0 inst:   79000002 cyc:   95934794 now IPC :0.27540: AVG IPC :0.81103: L2-Pf-HR :0.82082: L2-HR :0.74996: (Sim:0h20m30s) 
CPU  0 inst:   80000000 cyc:   99563343 now IPC :0.27559: AVG IPC :0.79132: L2-Pf-HR :0.81711: L2-HR :0.74703: (Sim:0h20m55s) 
CPU  0 inst:   81000004 cyc:  103192247 now IPC :0.27557: AVG IPC :0.77300: L2-Pf-HR :0.81353: L2-HR :0.74416: (Sim:0h21m21s) 
CPU  0 inst:   82000000 cyc:  106821825 now IPC :0.27551: AVG IPC :0.75594: L2-Pf-HR :0.81006: L2-HR :0.74135: (Sim:0h21m47s) 
CPU  0 inst:   83000005 cyc:  110452922 now IPC :0.27540: AVG IPC :0.74000: L2-Pf-HR :0.80662: L2-HR :0.73858: (Sim:0h22m13s) 
CPU  0 inst:   84000001 cyc:  114080244 now IPC :0.27568: AVG IPC :0.72511: L2-Pf-HR :0.80325: L2-HR :0.73588: (Sim:0h22m37s) 
CPU  0 inst:   85000005 cyc:  117709357 now IPC :0.27555: AVG IPC :0.71113: L2-Pf-HR :0.79990: L2-HR :0.73320: (Sim:0h23m2s) 
CPU  0 inst:   86000000 cyc:  121337398 now IPC :0.27563: AVG IPC :0.69800: L2-Pf-HR :0.79661: L2-HR :0.73058: (Sim:0h23m28s) 
CPU  0 inst:   87000002 cyc:  124967175 now IPC :0.27550: AVG IPC :0.68563: L2-Pf-HR :0.79339: L2-HR :0.72802: (Sim:0h23m50s) 
CPU  0 inst:   88000000 cyc:  128597513 now IPC :0.27546: AVG IPC :0.67396: L2-Pf-HR :0.79018: L2-HR :0.72547: (Sim:0h24m14s) 
CPU  0 inst:   89000004 cyc:  132226291 now IPC :0.27558: AVG IPC :0.66294: L2-Pf-HR :0.78703: L2-HR :0.72299: (Sim:0h24m39s) 
CPU  0 inst:   90000000 cyc:  135855058 now IPC :0.27557: AVG IPC :0.65252: L2-Pf-HR :0.78393: L2-HR :0.72054: (Sim:0h25m5s) 
CPU  0 inst:   91000003 cyc:  139487032 now IPC :0.27533: AVG IPC :0.64263: L2-Pf-HR :0.78086: L2-HR :0.71813: (Sim:0h25m30s) 
CPU  0 inst:   92000002 cyc:  143117996 now IPC :0.27541: AVG IPC :0.63325: L2-Pf-HR :0.77785: L2-HR :0.71577: (Sim:0h25m56s) 
CPU  0 inst:   93000003 cyc:  146746550 now IPC :0.27559: AVG IPC :0.62434: L2-Pf-HR :0.77487: L2-HR :0.71344: (Sim:0h26m21s) 
CPU  0 inst:   94000002 cyc:  150377183 now IPC :0.27543: AVG IPC :0.61586: L2-Pf-HR :0.77193: L2-HR :0.71116: (Sim:0h26m46s) 
CPU  0 inst:   95000003 cyc:  154005254 now IPC :0.27563: AVG IPC :0.60780: L2-Pf-HR :0.76902: L2-HR :0.70890: (Sim:0h27m12s) 
CPU  0 inst:   96000000 cyc:  157636106 now IPC :0.27542: AVG IPC :0.60009: L2-Pf-HR :0.76618: L2-HR :0.70670: (Sim:0h27m37s) 
CPU  0 inst:   97000004 cyc:  161267319 now IPC :0.27539: AVG IPC :0.59274: L2-Pf-HR :0.76330: L2-HR :0.70448: (Sim:0h28m3s) 
CPU  0 inst:   98000000 cyc:  164897528 now IPC :0.27547: AVG IPC :0.58571: L2-Pf-HR :0.76049: L2-HR :0.70232: (Sim:0h28m28s) 
CPU  0 inst:   99000003 cyc:  168527673 now IPC :0.27547: AVG IPC :0.57899: L2-Pf-HR :0.75775: L2-HR :0.70021: (Sim:0h28m53s) 
CPU  0 inst:  100000002 cyc:  172156852 now IPC :0.27554: AVG IPC :0.57255: L2-Pf-HR :0.75502: L2-HR :0.69812: (Sim:0h29m19s) 
CPU  0 inst:  101000003 cyc:  174209671 now IPC :0.48714: AVG IPC :0.57154: L2-Pf-HR :0.75458: L2-HR :0.69909: (Sim:0h29m39s) 
CPU  0 inst:  102000000 cyc:  174799683 now IPC :1.69488: AVG IPC :0.57535: L2-Pf-HR :0.75701: L2-HR :0.70345: (Sim:0h29m56s) 
CPU  0 inst:  103000001 cyc:  175415006 now IPC :1.62516: AVG IPC :0.57906: L2-Pf-HR :0.75945: L2-HR :0.70770: (Sim:0h30m12s) 
CPU  0 inst:  104000000 cyc:  175959622 now IPC :1.83615: AVG IPC :0.58297: L2-Pf-HR :0.76259: L2-HR :0.71229: (Sim:0h30m28s) 
CPU  0 inst:  105000003 cyc:  176552163 now IPC :1.68765: AVG IPC :0.58670: L2-Pf-HR :0.76475: L2-HR :0.71628: (Sim:0h30m41s) 
CPU  0 inst:  106000001 cyc:  177142827 now IPC :1.69301: AVG IPC :0.59041: L2-Pf-HR :0.76691: L2-HR :0.72002: (Sim:0h30m51s) 
CPU  0 inst:  107000003 cyc:  177759036 now IPC :1.62283: AVG IPC :0.59401: L2-Pf-HR :0.76890: L2-HR :0.72363: (Sim:0h31m5s) 
CPU  0 inst:  108000002 cyc:  178303311 now IPC :1.83730: AVG IPC :0.59782: L2-Pf-HR :0.77161: L2-HR :0.72760: (Sim:0h31m14s) 
CPU  0 inst:  109000003 cyc:  178887812 now IPC :1.71086: AVG IPC :0.60148: L2-Pf-HR :0.77367: L2-HR :0.73115: (Sim:0h31m23s) 
CPU  0 inst:  110000001 cyc:  179470847 now IPC :1.71516: AVG IPC :0.60512: L2-Pf-HR :0.77542: L2-HR :0.73434: (Sim:0h31m32s) 
CPU  0 inst:  111000003 cyc:  180062255 now IPC :1.69088: AVG IPC :0.60870: L2-Pf-HR :0.77699: L2-HR :0.73742: (Sim:0h31m44s) 
CPU  0 inst:  112000000 cyc:  180600831 now IPC :1.85674: AVG IPC :0.61245: L2-Pf-HR :0.77934: L2-HR :0.74089: (Sim:0h31m56s) 
CPU  0 inst:  113000001 cyc:  181152747 now IPC :1.81187: AVG IPC :0.61612: L2-Pf-HR :0.78121: L2-HR :0.74407: (Sim:0h32m8s) 
CPU  0 inst:  114000001 cyc:  181726866 now IPC :1.74180: AVG IPC :0.61970: L2-Pf-HR :0.78260: L2-HR :0.74684: (Sim:0h32m22s) 
CPU  0 inst:  115000000 cyc:  182289964 now IPC :1.77589: AVG IPC :0.62329: L2-Pf-HR :0.78429: L2-HR :0.74971: (Sim:0h32m38s) 
CPU  0 inst:  116000003 cyc:  182846718 now IPC :1.79613: AVG IPC :0.62688: L2-Pf-HR :0.78604: L2-HR :0.75261: (Sim:0h32m53s) 
CPU  0 inst:  117000002 cyc:  183385543 now IPC :1.85589: AVG IPC :0.63051: L2-Pf-HR :0.78800: L2-HR :0.75560: (Sim:0h33m9s) 
CPU  0 inst:  118000001 cyc:  183972333 now IPC :1.70419: AVG IPC :0.63395: L2-Pf-HR :0.78908: L2-HR :0.75793: (Sim:0h33m25s) 
CPU  0 inst:  119000001 cyc:  184539685 now IPC :1.76257: AVG IPC :0.63744: L2-Pf-HR :0.79043: L2-HR :0.76039: (Sim:0h33m40s) 
CPU  0 inst:  120000000 cyc:  185096997 now IPC :1.79433: AVG IPC :0.64094: L2-Pf-HR :0.79189: L2-HR :0.76294: (Sim:0h33m51s) 
CPU  0 inst:  121000003 cyc:  185632039 now IPC :1.86902: AVG IPC :0.64450: L2-Pf-HR :0.79373: L2-HR :0.76563: (Sim:0h34m1s) 
CPU  0 inst:  122000000 cyc:  186223363 now IPC :1.69112: AVG IPC :0.64784: L2-Pf-HR :0.79476: L2-HR :0.76772: (Sim:0h34m10s) 
CPU  0 inst:  123000002 cyc:  186789840 now IPC :1.76530: AVG IPC :0.65125: L2-Pf-HR :0.79600: L2-HR :0.76991: (Sim:0h34m18s) 
CPU  0 inst:  124000005 cyc:  187354274 now IPC :1.77169: AVG IPC :0.65464: L2-Pf-HR :0.79729: L2-HR :0.77216: (Sim:0h34m27s) 
CPU  0 inst:  125000005 cyc:  187889756 now IPC :1.86748: AVG IPC :0.65812: L2-Pf-HR :0.79889: L2-HR :0.77455: (Sim:0h34m36s) 
CPU  0 inst:  126000003 cyc:  188467152 now IPC :1.73191: AVG IPC :0.66143: L2-Pf-HR :0.79996: L2-HR :0.77656: (Sim:0h34m49s) 
CPU  0 inst:  127000001 cyc:  189036136 now IPC :1.75752: AVG IPC :0.66474: L2-Pf-HR :0.80099: L2-HR :0.77850: (Sim:0h35m5s) 
CPU  0 inst:  128000000 cyc:  189603851 now IPC :1.76145: AVG IPC :0.66804: L2-Pf-HR :0.80196: L2-HR :0.78040: (Sim:0h35m21s) 
CPU  0 inst:  129000002 cyc:  190139545 now IPC :1.86674: AVG IPC :0.67144: L2-Pf-HR :0.80339: L2-HR :0.78254: (Sim:0h35m37s) 
CPU  0 inst:  130000002 cyc:  190712603 now IPC :1.74502: AVG IPC :0.67468: L2-Pf-HR :0.80440: L2-HR :0.78436: (Sim:0h35m49s) 
CPU  0 inst:  131000000 cyc:  191281734 now IPC :1.75706: AVG IPC :0.67792: L2-Pf-HR :0.80538: L2-HR :0.78614: (Sim:0h36m5s) 
CPU  0 inst:  132000005 cyc:  191870319 now IPC :1.69900: AVG IPC :0.68107: L2-Pf-HR :0.80619: L2-HR :0.78777: (Sim:0h36m22s) 
CPU  0 inst:  133000005 cyc:  192408288 now IPC :1.85884: AVG IPC :0.68438: L2-Pf-HR :0.80754: L2-HR :0.78974: (Sim:0h36m37s) 
CPU  0 inst:  134000005 cyc:  192965556 now IPC :1.79447: AVG IPC :0.68760: L2-Pf-HR :0.80861: L2-HR :0.79151: (Sim:0h36m48s) 
CPU  0 inst:  135000002 cyc:  193540387 now IPC :1.73964: AVG IPC :0.69074: L2-Pf-HR :0.80946: L2-HR :0.79308: (Sim:0h37m4s) 
CPU  0 inst:  136000000 cyc:  194117974 now IPC :1.73134: AVG IPC :0.69385: L2-Pf-HR :0.81011: L2-HR :0.79450: (Sim:0h37m20s) 
CPU  0 inst:  137000001 cyc:  194653832 now IPC :1.86617: AVG IPC :0.69710: L2-Pf-HR :0.81136: L2-HR :0.79635: (Sim:0h37m36s) 
CPU  0 inst:  138000001 cyc:  195186340 now IPC :1.87791: AVG IPC :0.70033: L2-Pf-HR :0.81267: L2-HR :0.79820: (Sim:0h37m52s) 
CPU  0 inst:  139000004 cyc:  195784232 now IPC :1.67255: AVG IPC :0.70332: L2-Pf-HR :0.81326: L2-HR :0.79948: (Sim:0h38m8s) 
CPU  0 inst:  140000002 cyc:  196357685 now IPC :1.74382: AVG IPC :0.70637: L2-Pf-HR :0.81390: L2-HR :0.80082: (Sim:0h38m23s) 
CPU  0 inst:  141000003 cyc:  196913831 now IPC :1.79809: AVG IPC :0.70947: L2-Pf-HR :0.81484: L2-HR :0.80236: (Sim:0h38m40s) 
CPU  0 inst:  142000005 cyc:  197445656 now IPC :1.88032: AVG IPC :0.71264: L2-Pf-HR :0.81602: L2-HR :0.80403: (Sim:0h38m56s) 
CPU  0 inst:  143000002 cyc:  198028798 now IPC :1.71484: AVG IPC :0.71561: L2-Pf-HR :0.81661: L2-HR :0.80529: (Sim:0h39m12s) 
CPU  0 inst:  144000000 cyc:  198603782 now IPC :1.73918: AVG IPC :0.71859: L2-Pf-HR :0.81723: L2-HR :0.80654: (Sim:0h39m29s) 
CPU  0 inst:  145000002 cyc:  199162270 now IPC :1.79055: AVG IPC :0.72161: L2-Pf-HR :0.81795: L2-HR :0.80789: (Sim:0h39m45s) 
CPU  0 inst:  146000005 cyc:  199695303 now IPC :1.87606: AVG IPC :0.72470: L2-Pf-HR :0.81905: L2-HR :0.80944: (Sim:0h40m1s) 
CPU  0 inst:  147000004 cyc:  200267984 now IPC :1.74617: AVG IPC :0.72764: L2-Pf-HR :0.81963: L2-HR :0.81062: (Sim:0h40m17s) 
CPU  0 inst:  148000002 cyc:  200843871 now IPC :1.73645: AVG IPC :0.73055: L2-Pf-HR :0.82019: L2-HR :0.81175: (Sim:0h40m33s) 
CPU  0 inst:  149000001 cyc:  201414479 now IPC :1.75251: AVG IPC :0.73346: L2-Pf-HR :0.82088: L2-HR :0.81297: (Sim:0h40m43s) 
CPU  0 inst:  150000005 cyc:  201950486 now IPC :1.86565: AVG IPC :0.73648: L2-Pf-HR :0.82185: L2-HR :0.81434: (Sim:0h40m55s) 
CPU  0 inst:  151000003 cyc:  202525739 now IPC :1.73836: AVG IPC :0.73934: L2-Pf-HR :0.82238: L2-HR :0.81543: (Sim:0h41m4s) 
CPU  0 inst:  152000000 cyc:  203097146 now IPC :1.75006: AVG IPC :0.74219: L2-Pf-HR :0.82293: L2-HR :0.81647: (Sim:0h41m13s) 
CPU  0 inst:  153000000 cyc:  203661038 now IPC :1.77339: AVG IPC :0.74506: L2-Pf-HR :0.82351: L2-HR :0.81756: (Sim:0h41m23s) 
CPU  0 inst:  154000000 cyc:  204198751 now IPC :1.85973: AVG IPC :0.74801: L2-Pf-HR :0.82443: L2-HR :0.81885: (Sim:0h41m35s) 
CPU  0 inst:  155000004 cyc:  204770263 now IPC :1.74975: AVG IPC :0.75082: L2-Pf-HR :0.82494: L2-HR :0.81987: (Sim:0h41m51s) 
CPU  0 inst:  156000001 cyc:  205341714 now IPC :1.74993: AVG IPC :0.75362: L2-Pf-HR :0.82551: L2-HR :0.82087: (Sim:0h42m7s) 
CPU  0 inst:  157000005 cyc:  205924512 now IPC :1.71587: AVG IPC :0.75635: L2-Pf-HR :0.82600: L2-HR :0.82183: (Sim:0h42m23s) 
CPU  0 inst:  158000000 cyc:  206459727 now IPC :1.86840: AVG IPC :0.75925: L2-Pf-HR :0.82687: L2-HR :0.82303: (Sim:0h42m39s) 
CPU  0 inst:  159000002 cyc:  207022782 now IPC :1.77603: AVG IPC :0.76203: L2-Pf-HR :0.82744: L2-HR :0.82403: (Sim:0h42m55s) 
CPU  0 inst:  160000000 cyc:  207598772 now IPC :1.73614: AVG IPC :0.76474: L2-Pf-HR :0.82792: L2-HR :0.82494: (Sim:0h43m11s) 
CPU  0 inst:  161000002 cyc:  208172067 now IPC :1.74431: AVG IPC :0.76745: L2-Pf-HR :0.82846: L2-HR :0.82590: (Sim:0h43m27s) 
CPU  0 inst:  162000004 cyc:  208730204 now IPC :1.79168: AVG IPC :0.77021: L2-Pf-HR :0.82911: L2-HR :0.82693: (Sim:0h43m43s) 
CPU  0 inst:  163000004 cyc:  209263807 now IPC :1.87405: AVG IPC :0.77303: L2-Pf-HR :0.82987: L2-HR :0.82804: (Sim:0h43m59s) 
CPU  0 inst:  164000003 cyc:  209847982 now IPC :1.71181: AVG IPC :0.77566: L2-Pf-HR :0.83012: L2-HR :0.82877: (Sim:0h44m14s) 
Finished CPU 0 instr: 162000001 cyc: 208854453 AVG IPC: 0.77566 (Sim time: 0h44m14s)

ChampSim completed all CPUs

[ROI Statistics]
Core_0_instructions 162000001
Core_0_cycles 208854453
Core_0_IPC 0.77566

Core_0_branch_prediction_accuracy 99.21038
Core_0_branch_MPKI 0.23475
Core_0_average_ROB_occupancy_at_mispredict 399.54395

Core_0_L1D_total_access 48892638
Core_0_L1D_total_hit 42628473 L1D_total_Hit Ratio: 0.87188
Core_0_L1D_total_miss 6264165
Core_0_L1D_loads 40788007
Core_0_L1D_load_hit 37506340 L1D_load_Hit Ratio: 0.91954
Core_0_L1D_load_miss 3281667
Core_0_L1D_RFOs 4368864
Core_0_L1D_RFO_hit 4115138 L1D_RFO_Hit Ratio: 0.94192
Core_0_L1D_RFO_miss 253726
Core_0_L1D_prefetches 3735767
Core_0_L1D_prefetch_hit 1006995 L1D_prefetch_Hit Ratio: 0.26956
Core_0_L1D_prefetch_miss 2728772
Core_0_L1D_writebacks 0
Core_0_L1D_writeback_hit 0 L1D_writeback_Hit Ratio: -nan
Core_0_L1D_writeback_miss 0
Core_0_L1D_prefetch_requested 6538272
Core_0_L1D_prefetch_issued 5858524
Core_0_L1D_prefetch_useful 2683061 L1D_Useful Ratio: 0.45798
Core_0_L1D_prefetch_useless 72471
Core_0_L1D_prefetch_late 530761
Core_0_L1D_average_miss_latency 12751152.55235

Core_0_L1I_total_access 23335102
Core_0_L1I_total_hit 23330088 L1I_total_Hit Ratio: 0.99979
Core_0_L1I_total_miss 5014
Core_0_L1I_loads 23335102
Core_0_L1I_load_hit 23330088 L1I_load_Hit Ratio: 0.99979
Core_0_L1I_load_miss 5014
Core_0_L1I_RFOs 0
Core_0_L1I_RFO_hit 0 L1I_RFO_Hit Ratio: -nan
Core_0_L1I_RFO_miss 0
Core_0_L1I_prefetches 0
Core_0_L1I_prefetch_hit 0 L1I_prefetch_Hit Ratio: -nan
Core_0_L1I_prefetch_miss 0
Core_0_L1I_writebacks 0
Core_0_L1I_writeback_hit 0 L1I_writeback_Hit Ratio: -nan
Core_0_L1I_writeback_miss 0
Core_0_L1I_prefetch_requested 0
Core_0_L1I_prefetch_issued 0
Core_0_L1I_prefetch_useful 0 L1I_Useful Ratio: -nan
Core_0_L1I_prefetch_useless 0
Core_0_L1I_prefetch_late 0
Core_0_L1I_average_miss_latency 283.91803

Core_0_L2C_total_access 8455366
Core_0_L2C_total_hit 7007519 L2C_total_Hit Ratio: 0.82877
Core_0_L2C_total_miss 1447847
Core_0_L2C_loads 2757259
Core_0_L2C_load_hit 2312477 L2C_load_Hit Ratio: 0.83869
Core_0_L2C_load_miss 444782
Core_0_L2C_RFOs 253724
Core_0_L2C_RFO_hit 5527 L2C_RFO_Hit Ratio: 0.02178
Core_0_L2C_RFO_miss 248197
Core_0_L2C_prefetches 4443524
Core_0_L2C_prefetch_hit 3688661 L2C_prefetch_Hit Ratio: 0.83012
Core_0_L2C_prefetch_miss 754863
Core_0_L2C_writebacks 1000859
Core_0_L2C_writeback_hit 1000854 L2C_writeback_Hit Ratio: 1.00000
Core_0_L2C_writeback_miss 5
Core_0_L2C_prefetch_requested 2184875
Core_0_L2C_prefetch_issued 1684845
Core_0_L2C_prefetch_useful 188109 L2C_Useful Ratio: 0.11165
Core_0_L2C_prefetch_useless 566716
Core_0_L2C_prefetch_late 101833
Core_0_L2C_average_miss_latency 331.70213

Core_0_LLC_total_access 2276851
Core_0_LLC_total_hit 846705 LLC_total_Hit Ratio: 0.37188
Core_0_LLC_total_miss 1430146
Core_0_LLC_loads 343120
Core_0_LLC_load_hit 5883 LLC_load_Hit Ratio: 0.01715
Core_0_LLC_load_miss 337237
Core_0_LLC_RFOs 248191
Core_0_LLC_RFO_hit 275 LLC_RFO_Hit Ratio: 0.00111
Core_0_LLC_RFO_miss 247916
Core_0_LLC_prefetches 856523
Core_0_LLC_prefetch_hit 15806 LLC_prefetch_Hit Ratio: 0.01845
Core_0_LLC_prefetch_miss 840717
Core_0_LLC_writebacks 829017
Core_0_LLC_writeback_hit 824741 LLC_writeback_Hit Ratio: 0.99484
Core_0_LLC_writeback_miss 4276
Core_0_LLC_prefetch_requested 0
Core_0_LLC_prefetch_issued 0
Core_0_LLC_prefetch_useful 3219 LLC_Useful Ratio: inf
Core_0_LLC_prefetch_useless 804552
Core_0_LLC_prefetch_late 0
Core_0_LLC_average_miss_latency 307.06892

Core_0_major_page_fault 0
Core_0_minor_page_fault 11197

CPU 0 L1D berti prefetcher final stats
CPU 0 L2C berti prefetcher final stats
Channel_0_RQ_row_buffer_hit 833565
Channel_0_RQ_row_buffer_miss 592305
Channel_0_WQ_row_buffer_hit 347849
Channel_0_WQ_row_buffer_miss 470764
Channel_0_WQ_full 3659
Channel_0_dbus_congested 924052

avg_congested_cycle 8

EzSearch AVG IPC :0.77566: L2-Pf-HR :0.83012 : L2-HR :0.82877 Uful:0.11165
     > Finished combination: TraceType=770-tot Sim:162000000 Prefetcher=L2berti_concurso L1=berti_concurso
