TRACE: [1319000000]_FE_[Pythia-70M]_[h8]_[s2048]_[d64] Warmup: 2000000 NumTraces: 1319000000
L1:no:L2:spp_berti_src
Initialize SIGNATURE TABLE
ST_SET: 1
ST_WAY: 256
ST_TAG_BIT: 16
ST_TAG_MASK: ffff

Initialize PATTERN TABLE
PT_SET: 512
PT_WAY: 4
SIG_DELTA_BIT: 7
C_SIG_BIT: 4
C_DELTA_BIT: 4

Initialize PREFETCH FILTER
FILTER_SET: 1024
*************************************************
   ChampSim Multicore Out-of-Order Simulator
   Last compiled: Oct 31 2024 08:33:58
*************************************************

trace_0 770-tot_memTraces_v5/120-subBillion_s2048_LLM_Arch/memTraces[1319000000]_FE_[Pythia-70M]_[h8]_[s2048]_[d64].champsim.9SSize.xz
ST_WAYS: 256
PT_SETS: 512
MAIN.cc ln 751 stats print skipped
CPU  0 inst:    1000002 cyc:     507327 now IPC :1.97112: AVG IPC :1.97112: L2-Pf-HR :0.96435: L2-HR :0.84621: (Sim:0h0m6s) 
CPU  0 inst:    2000000 cyc:     997330 now IPC :2.04080: AVG IPC :2.00535: L2-Pf-HR :0.97557: L2-HR :0.88825: (Sim:0h0m12s) 

Warmup complete CPU  0 instructions:    2000005 cycles:     997331 (Simulation time: 0 hr 0 min 12 sec) 

CPU  0 inst:    3000001 cyc:    1523366 now IPC :1.90101: AVG IPC :1.90101: L2-Pf-HR :0.94412: L2-HR :0.86053: (Sim:0h0m17s) 
CPU  0 inst:    4000002 cyc:    2022007 now IPC :2.00545: AVG IPC :1.95183: L2-Pf-HR :0.94804: L2-HR :0.86620: (Sim:0h0m22s) 
CPU  0 inst:    5000000 cyc:    2518804 now IPC :2.01289: AVG IPC :1.97177: L2-Pf-HR :0.94734: L2-HR :0.86532: (Sim:0h0m27s) 
CPU  0 inst:    6000001 cyc:    3042606 now IPC :1.90912: AVG IPC :1.95573: L2-Pf-HR :0.95160: L2-HR :0.87034: (Sim:0h0m32s) 
CPU  0 inst:    7000002 cyc:    3632675 now IPC :1.69472: AVG IPC :1.89728: L2-Pf-HR :0.95332: L2-HR :0.87311: (Sim:0h0m38s) 
CPU  0 inst:    8000000 cyc:    4148179 now IPC :1.93985: AVG IPC :1.90425: L2-Pf-HR :0.95173: L2-HR :0.87142: (Sim:0h0m43s) 
CPU  0 inst:    9000003 cyc:    4662013 now IPC :1.94616: AVG IPC :1.91012: L2-Pf-HR :0.95320: L2-HR :0.87275: (Sim:0h0m48s) 
CPU  0 inst:   10000002 cyc:    5184334 now IPC :1.91453: AVG IPC :1.91067: L2-Pf-HR :0.95574: L2-HR :0.87568: (Sim:0h0m53s) 
CPU  0 inst:   11000003 cyc:    5705282 now IPC :1.91958: AVG IPC :1.91166: L2-Pf-HR :0.95415: L2-HR :0.87396: (Sim:0h0m59s) 
CPU  0 inst:   12000001 cyc:    6226264 now IPC :1.91945: AVG IPC :1.91244: L2-Pf-HR :0.95492: L2-HR :0.87474: (Sim:0h1m4s) 
CPU  0 inst:   13000002 cyc:    6903929 now IPC :1.47566: AVG IPC :1.86232: L2-Pf-HR :0.95678: L2-HR :0.87655: (Sim:0h1m10s) 
CPU  0 inst:   14000003 cyc:    7427979 now IPC :1.90822: AVG IPC :1.86606: L2-Pf-HR :0.95728: L2-HR :0.87766: (Sim:0h1m15s) 
CPU  0 inst:   15000002 cyc:    7921982 now IPC :2.02428: AVG IPC :1.87735: L2-Pf-HR :0.95674: L2-HR :0.87772: (Sim:0h1m20s) 
CPU  0 inst:   16000000 cyc:    8420521 now IPC :2.00586: AVG IPC :1.88598: L2-Pf-HR :0.95726: L2-HR :0.87876: (Sim:0h1m25s) 
CPU  0 inst:   17000000 cyc:    8918269 now IPC :2.00905: AVG IPC :1.89371: L2-Pf-HR :0.95583: L2-HR :0.87761: (Sim:0h1m31s) 
CPU  0 inst:   18000000 cyc:    9417012 now IPC :2.00504: AVG IPC :1.90031: L2-Pf-HR :0.95538: L2-HR :0.87745: (Sim:0h1m36s) 
CPU  0 inst:   19000000 cyc:    9989392 now IPC :1.74709: AVG IPC :1.89056: L2-Pf-HR :0.95540: L2-HR :0.87802: (Sim:0h1m41s) 
CPU  0 inst:   20000001 cyc:   10481445 now IPC :2.03230: AVG IPC :1.89791: L2-Pf-HR :0.95504: L2-HR :0.87786: (Sim:0h1m47s) 
CPU  0 inst:   21000002 cyc:   10970596 now IPC :2.04436: AVG IPC :1.90509: L2-Pf-HR :0.95468: L2-HR :0.87763: (Sim:0h1m52s) 
CPU  0 inst:   22000004 cyc:   11457693 now IPC :2.05298: AVG IPC :1.91198: L2-Pf-HR :0.95635: L2-HR :0.87980: (Sim:0h1m57s) 
CPU  0 inst:   23000004 cyc:   11960877 now IPC :1.98734: AVG IPC :1.91544: L2-Pf-HR :0.95673: L2-HR :0.88053: (Sim:0h2m3s) 
CPU  0 inst:   24000000 cyc:   12450360 now IPC :2.04296: AVG IPC :1.92089: L2-Pf-HR :0.95579: L2-HR :0.87970: (Sim:0h2m8s) 
CPU  0 inst:   25000001 cyc:   13098496 now IPC :1.54289: AVG IPC :1.90064: L2-Pf-HR :0.95518: L2-HR :0.87879: (Sim:0h2m14s) 
CPU  0 inst:   26000003 cyc:   13587508 now IPC :2.04494: AVG IPC :1.90625: L2-Pf-HR :0.95498: L2-HR :0.87871: (Sim:0h2m19s) 
CPU  0 inst:   27000001 cyc:   14085326 now IPC :2.00876: AVG IPC :1.91015: L2-Pf-HR :0.95457: L2-HR :0.87837: (Sim:0h2m25s) 
CPU  0 inst:   28000005 cyc:   14579654 now IPC :2.02296: AVG IPC :1.91425: L2-Pf-HR :0.95377: L2-HR :0.87764: (Sim:0h2m30s) 
CPU  0 inst:   29000005 cyc:   15079924 now IPC :1.99892: AVG IPC :1.91726: L2-Pf-HR :0.95478: L2-HR :0.87891: (Sim:0h2m35s) 
CPU  0 inst:   30000005 cyc:   15573305 now IPC :2.02683: AVG IPC :1.92097: L2-Pf-HR :0.95457: L2-HR :0.87881: (Sim:0h2m41s) 
CPU  0 inst:   31000005 cyc:   16148818 now IPC :1.73758: AVG IPC :1.91400: L2-Pf-HR :0.95455: L2-HR :0.87892: (Sim:0h2m46s) 
CPU  0 inst:   32000000 cyc:   16644416 now IPC :2.01775: AVG IPC :1.91729: L2-Pf-HR :0.95384: L2-HR :0.87819: (Sim:0h2m52s) 
CPU  0 inst:   33000004 cyc:   17137745 now IPC :2.02705: AVG IPC :1.92064: L2-Pf-HR :0.95323: L2-HR :0.87763: (Sim:0h2m57s) 
CPU  0 inst:   34000002 cyc:   17633728 now IPC :2.01619: AVG IPC :1.92349: L2-Pf-HR :0.95311: L2-HR :0.87759: (Sim:0h3m2s) 
CPU  0 inst:   35000003 cyc:   18144663 now IPC :1.95720: AVG IPC :1.92450: L2-Pf-HR :0.95319: L2-HR :0.87775: (Sim:0h3m8s) 
CPU  0 inst:   36000003 cyc:   18651648 now IPC :1.97244: AVG IPC :1.92587: L2-Pf-HR :0.95315: L2-HR :0.87786: (Sim:0h3m13s) 
CPU  0 inst:   37000005 cyc:   19321936 now IPC :1.49190: AVG IPC :1.91000: L2-Pf-HR :0.95335: L2-HR :0.87786: (Sim:0h3m19s) 
CPU  0 inst:   38000002 cyc:   19817654 now IPC :2.01727: AVG IPC :1.91283: L2-Pf-HR :0.95366: L2-HR :0.87830: (Sim:0h3m25s) 
CPU  0 inst:   39000001 cyc:   20309396 now IPC :2.03358: AVG IPC :1.91590: L2-Pf-HR :0.95313: L2-HR :0.87780: (Sim:0h3m30s) 
CPU  0 inst:   40000000 cyc:   20798021 now IPC :2.04656: AVG IPC :1.91912: L2-Pf-HR :0.95302: L2-HR :0.87775: (Sim:0h3m35s) 
CPU  0 inst:   41000001 cyc:   21294572 now IPC :2.01389: AVG IPC :1.92144: L2-Pf-HR :0.95291: L2-HR :0.87768: (Sim:0h3m41s) 
CPU  0 inst:   42000001 cyc:   21784028 now IPC :2.04308: AVG IPC :1.92431: L2-Pf-HR :0.95243: L2-HR :0.87721: (Sim:0h3m47s) 
CPU  0 inst:   43000001 cyc:   22359406 now IPC :1.73799: AVG IPC :1.91929: L2-Pf-HR :0.95249: L2-HR :0.87739: (Sim:0h3m52s) 
CPU  0 inst:   44000005 cyc:   22854891 now IPC :2.01823: AVG IPC :1.92153: L2-Pf-HR :0.95244: L2-HR :0.87738: (Sim:0h3m58s) 
CPU  0 inst:   45000005 cyc:   23352583 now IPC :2.00927: AVG IPC :1.92349: L2-Pf-HR :0.95226: L2-HR :0.87718: (Sim:0h4m3s) 
CPU  0 inst:   46000005 cyc:   23846427 now IPC :2.02493: AVG IPC :1.92568: L2-Pf-HR :0.95186: L2-HR :0.87681: (Sim:0h4m9s) 
CPU  0 inst:   47000005 cyc:   24341274 now IPC :2.02083: AVG IPC :1.92769: L2-Pf-HR :0.95147: L2-HR :0.87644: (Sim:0h4m14s) 
CPU  0 inst:   48000000 cyc:   24833191 now IPC :2.03285: AVG IPC :1.92987: L2-Pf-HR :0.95114: L2-HR :0.87610: (Sim:0h4m20s) 
CPU  0 inst:   49000003 cyc:   25500856 now IPC :1.49776: AVG IPC :1.91809: L2-Pf-HR :0.95174: L2-HR :0.87657: (Sim:0h4m26s) 
CPU  0 inst:   50000000 cyc:   25992023 now IPC :2.03596: AVG IPC :1.92041: L2-Pf-HR :0.95194: L2-HR :0.87686: (Sim:0h4m32s) 
CPU  0 inst:   51000000 cyc:   26484435 now IPC :2.03082: AVG IPC :1.92254: L2-Pf-HR :0.95189: L2-HR :0.87686: (Sim:0h4m37s) 
CPU  0 inst:   52000000 cyc:   26974867 now IPC :2.03902: AVG IPC :1.92474: L2-Pf-HR :0.95152: L2-HR :0.87651: (Sim:0h4m42s) 
CPU  0 inst:   53000000 cyc:   27476268 now IPC :1.99441: AVG IPC :1.92606: L2-Pf-HR :0.95144: L2-HR :0.87648: (Sim:0h4m48s) 
CPU  0 inst:   54000002 cyc:   27966657 now IPC :2.03920: AVG IPC :1.92812: L2-Pf-HR :0.95139: L2-HR :0.87645: (Sim:0h4m53s) 
CPU  0 inst:   55000000 cyc:   28543777 now IPC :1.73274: AVG IPC :1.92402: L2-Pf-HR :0.95188: L2-HR :0.87703: (Sim:0h4m59s) 
CPU  0 inst:   56000000 cyc:   29036629 now IPC :2.02901: AVG IPC :1.92587: L2-Pf-HR :0.95185: L2-HR :0.87704: (Sim:0h5m4s) 
CPU  0 inst:   57000004 cyc:   29528784 now IPC :2.03189: AVG IPC :1.92770: L2-Pf-HR :0.95181: L2-HR :0.87702: (Sim:0h5m10s) 
CPU  0 inst:   58000004 cyc:   30023861 now IPC :2.01989: AVG IPC :1.92927: L2-Pf-HR :0.95241: L2-HR :0.87776: (Sim:0h5m15s) 
CPU  0 inst:   59000004 cyc:   30541257 now IPC :1.93276: AVG IPC :1.92933: L2-Pf-HR :0.95218: L2-HR :0.87753: (Sim:0h5m21s) 
CPU  0 inst:   60000005 cyc:   31027706 now IPC :2.05572: AVG IPC :1.93138: L2-Pf-HR :0.95199: L2-HR :0.87739: (Sim:0h5m26s) 
CPU  0 inst:   61000005 cyc:   31610652 now IPC :1.71542: AVG IPC :1.92727: L2-Pf-HR :0.95142: L2-HR :0.87670: (Sim:0h5m32s) 
CPU  0 inst:   62000005 cyc:   32094338 now IPC :2.06746: AVG IPC :1.92945: L2-Pf-HR :0.95067: L2-HR :0.87589: (Sim:0h5m38s) 
CPU  0 inst:   63000000 cyc:   32595786 now IPC :1.99421: AVG IPC :1.93047: L2-Pf-HR :0.94995: L2-HR :0.87507: (Sim:0h5m44s) 
CPU  0 inst:   64000000 cyc:   33061714 now IPC :2.14625: AVG IPC :1.93361: L2-Pf-HR :0.94921: L2-HR :0.87428: (Sim:0h5m49s) 
CPU  0 inst:   65000005 cyc:   33736666 now IPC :1.48159: AVG IPC :1.92429: L2-Pf-HR :0.94908: L2-HR :0.87362: (Sim:0h5m55s) 
CPU  0 inst:   66000005 cyc:   34258512 now IPC :1.91627: AVG IPC :1.92417: L2-Pf-HR :0.94887: L2-HR :0.87332: (Sim:0h6m1s) 
CPU  0 inst:   67000000 cyc:   34809762 now IPC :1.81405: AVG IPC :1.92237: L2-Pf-HR :0.94901: L2-HR :0.87337: (Sim:0h6m7s) 
CPU  0 inst:   68000002 cyc:   35339666 now IPC :1.88714: AVG IPC :1.92183: L2-Pf-HR :0.94938: L2-HR :0.87370: (Sim:0h6m13s) 
CPU  0 inst:   69000000 cyc:   35856888 now IPC :1.93340: AVG IPC :1.92200: L2-Pf-HR :0.94940: L2-HR :0.87366: (Sim:0h6m19s) 
CPU  0 inst:   70000001 cyc:   36395699 now IPC :1.85594: AVG IPC :1.92099: L2-Pf-HR :0.94983: L2-HR :0.87406: (Sim:0h6m24s) 
CPU  0 inst:   71000005 cyc:   36998990 now IPC :1.65758: AVG IPC :1.91658: L2-Pf-HR :0.95037: L2-HR :0.87465: (Sim:0h6m30s) 
CPU  0 inst:   72000000 cyc:   37531917 now IPC :1.87642: AVG IPC :1.91599: L2-Pf-HR :0.95054: L2-HR :0.87476: (Sim:0h6m36s) 
CPU  0 inst:   73000001 cyc:   38068420 now IPC :1.86392: AVG IPC :1.91524: L2-Pf-HR :0.95040: L2-HR :0.87451: (Sim:0h6m42s) 
CPU  0 inst:   74000001 cyc:   38603939 now IPC :1.86735: AVG IPC :1.91456: L2-Pf-HR :0.95108: L2-HR :0.87519: (Sim:0h6m48s) 
CPU  0 inst:   75000004 cyc:   39119159 now IPC :1.94092: AVG IPC :1.91491: L2-Pf-HR :0.95193: L2-HR :0.87612: (Sim:0h6m54s) 
CPU  0 inst:   76000001 cyc:   39654402 now IPC :1.86830: AVG IPC :1.91427: L2-Pf-HR :0.95198: L2-HR :0.87607: (Sim:0h7m0s) 
CPU  0 inst:   77000005 cyc:   40331483 now IPC :1.47693: AVG IPC :1.90674: L2-Pf-HR :0.95218: L2-HR :0.87615: (Sim:0h7m7s) 
CPU  0 inst:   78000001 cyc:   40823840 now IPC :2.03104: AVG IPC :1.90828: L2-Pf-HR :0.95233: L2-HR :0.87635: (Sim:0h7m13s) 
CPU  0 inst:   79000001 cyc:   41322584 now IPC :2.00504: AVG IPC :1.90947: L2-Pf-HR :0.95227: L2-HR :0.87633: (Sim:0h7m18s) 
CPU  0 inst:   80000000 cyc:   41823370 now IPC :1.99686: AVG IPC :1.91055: L2-Pf-HR :0.95206: L2-HR :0.87619: (Sim:0h7m24s) 
CPU  0 inst:   81000001 cyc:   42328261 now IPC :1.98063: AVG IPC :1.91140: L2-Pf-HR :0.95203: L2-HR :0.87619: (Sim:0h7m30s) 
CPU  0 inst:   82000005 cyc:   42828932 now IPC :1.99733: AVG IPC :1.91243: L2-Pf-HR :0.95178: L2-HR :0.87595: (Sim:0h7m36s) 
CPU  0 inst:   83000000 cyc:   43400925 now IPC :1.74826: AVG IPC :1.91022: L2-Pf-HR :0.95191: L2-HR :0.87614: (Sim:0h7m42s) 
CPU  0 inst:   84000005 cyc:   43896633 now IPC :2.01733: AVG IPC :1.91145: L2-Pf-HR :0.95174: L2-HR :0.87599: (Sim:0h7m48s) 
CPU  0 inst:   85000005 cyc:   44390817 now IPC :2.02354: AVG IPC :1.91273: L2-Pf-HR :0.95181: L2-HR :0.87608: (Sim:0h7m54s) 
CPU  0 inst:   86000005 cyc:   44875744 now IPC :2.06217: AVG IPC :1.91438: L2-Pf-HR :0.95285: L2-HR :0.87729: (Sim:0h8m0s) 
CPU  0 inst:   87000005 cyc:   45357907 now IPC :2.07399: AVG IPC :1.91612: L2-Pf-HR :0.95388: L2-HR :0.87852: (Sim:0h8m6s) 
CPU  0 inst:   88000000 cyc:   45849186 now IPC :2.03549: AVG IPC :1.91742: L2-Pf-HR :0.95434: L2-HR :0.87912: (Sim:0h8m12s) 
CPU  0 inst:   89000003 cyc:   46510190 now IPC :1.51285: AVG IPC :1.91155: L2-Pf-HR :0.95440: L2-HR :0.87908: (Sim:0h8m18s) 
CPU  0 inst:   90000000 cyc:   47009808 now IPC :2.00152: AVG IPC :1.91252: L2-Pf-HR :0.95456: L2-HR :0.87927: (Sim:0h8m24s) 
CPU  0 inst:   91000000 cyc:   47501300 now IPC :2.03462: AVG IPC :1.91382: L2-Pf-HR :0.95434: L2-HR :0.87906: (Sim:0h8m30s) 
CPU  0 inst:   92000000 cyc:   47993548 now IPC :2.03150: AVG IPC :1.91505: L2-Pf-HR :0.95428: L2-HR :0.87903: (Sim:0h8m36s) 
CPU  0 inst:   93000001 cyc:   48494663 now IPC :1.99555: AVG IPC :1.91590: L2-Pf-HR :0.95392: L2-HR :0.87869: (Sim:0h8m42s) 
CPU  0 inst:   94000004 cyc:   48989948 now IPC :2.01905: AVG IPC :1.91696: L2-Pf-HR :0.95370: L2-HR :0.87848: (Sim:0h8m48s) 
CPU  0 inst:   95000004 cyc:   49567748 now IPC :1.73070: AVG IPC :1.91475: L2-Pf-HR :0.95381: L2-HR :0.87863: (Sim:0h8m54s) 
CPU  0 inst:   96000000 cyc:   50060934 now IPC :2.02762: AVG IPC :1.91588: L2-Pf-HR :0.95366: L2-HR :0.87849: (Sim:0h9m0s) 
CPU  0 inst:   97000004 cyc:   50555374 now IPC :2.02250: AVG IPC :1.91694: L2-Pf-HR :0.95363: L2-HR :0.87847: (Sim:0h9m6s) 
CPU  0 inst:   98000004 cyc:   51044265 now IPC :2.04545: AVG IPC :1.91820: L2-Pf-HR :0.95445: L2-HR :0.87943: (Sim:0h9m12s) 
CPU  0 inst:   99000002 cyc:   51535727 now IPC :2.03474: AVG IPC :1.91933: L2-Pf-HR :0.95451: L2-HR :0.87954: (Sim:0h9m18s) 
CPU  0 inst:  100000001 cyc:   52027832 now IPC :2.03208: AVG IPC :1.92042: L2-Pf-HR :0.95446: L2-HR :0.87951: (Sim:0h9m24s) 
CPU  0 inst:  101000002 cyc:   52689852 now IPC :1.51053: AVG IPC :1.91517: L2-Pf-HR :0.95456: L2-HR :0.87955: (Sim:0h9m30s) 
CPU  0 inst:  102000002 cyc:   53187804 now IPC :2.00823: AVG IPC :1.91606: L2-Pf-HR :0.95468: L2-HR :0.87972: (Sim:0h9m36s) 
CPU  0 inst:  103000002 cyc:   53678588 now IPC :2.03756: AVG IPC :1.91719: L2-Pf-HR :0.95448: L2-HR :0.87953: (Sim:0h9m42s) 
CPU  0 inst:  104000000 cyc:   54181529 now IPC :1.98830: AVG IPC :1.91786: L2-Pf-HR :0.95479: L2-HR :0.87987: (Sim:0h9m48s) 
CPU  0 inst:  105000002 cyc:   54682384 now IPC :1.99659: AVG IPC :1.91860: L2-Pf-HR :0.95492: L2-HR :0.88004: (Sim:0h9m54s) 
CPU  0 inst:  106000002 cyc:   55173558 now IPC :2.03594: AVG IPC :1.91966: L2-Pf-HR :0.95489: L2-HR :0.88005: (Sim:0h10m0s) 
CPU  0 inst:  107000000 cyc:   55748527 now IPC :1.73922: AVG IPC :1.91777: L2-Pf-HR :0.95494: L2-HR :0.88015: (Sim:0h10m6s) 
CPU  0 inst:  108000000 cyc:   56239739 now IPC :2.03578: AVG IPC :1.91882: L2-Pf-HR :0.95474: L2-HR :0.87996: (Sim:0h10m12s) 
CPU  0 inst:  109000000 cyc:   56736522 now IPC :2.01295: AVG IPC :1.91965: L2-Pf-HR :0.95460: L2-HR :0.87980: (Sim:0h10m18s) 
CPU  0 inst:  110000004 cyc:   57241484 now IPC :1.98035: AVG IPC :1.92020: L2-Pf-HR :0.95507: L2-HR :0.88035: (Sim:0h10m24s) 
CPU  0 inst:  111000001 cyc:   57735823 now IPC :2.02290: AVG IPC :1.92109: L2-Pf-HR :0.95501: L2-HR :0.88032: (Sim:0h10m30s) 
CPU  0 inst:  112000000 cyc:   58224749 now IPC :2.04530: AVG IPC :1.92216: L2-Pf-HR :0.95483: L2-HR :0.88013: (Sim:0h10m36s) 
CPU  0 inst:  113000003 cyc:   58879118 now IPC :1.52819: AVG IPC :1.91770: L2-Pf-HR :0.95490: L2-HR :0.88014: (Sim:0h10m42s) 
CPU  0 inst:  114000001 cyc:   59367539 now IPC :2.04741: AVG IPC :1.91879: L2-Pf-HR :0.95480: L2-HR :0.88006: (Sim:0h10m48s) 
CPU  0 inst:  115000001 cyc:   59857155 now IPC :2.04242: AVG IPC :1.91982: L2-Pf-HR :0.95475: L2-HR :0.88002: (Sim:0h10m54s) 
CPU  0 inst:  116000002 cyc:   60351897 now IPC :2.02126: AVG IPC :1.92066: L2-Pf-HR :0.95493: L2-HR :0.88024: (Sim:0h11m0s) 
CPU  0 inst:  117000004 cyc:   60839611 now IPC :2.05039: AVG IPC :1.92172: L2-Pf-HR :0.95511: L2-HR :0.88049: (Sim:0h11m6s) 
CPU  0 inst:  118000005 cyc:   61340076 now IPC :1.99814: AVG IPC :1.92235: L2-Pf-HR :0.95525: L2-HR :0.88063: (Sim:0h11m12s) 
CPU  0 inst:  119000005 cyc:   61915195 now IPC :1.73877: AVG IPC :1.92062: L2-Pf-HR :0.95535: L2-HR :0.88079: (Sim:0h11m18s) 
CPU  0 inst:  120000000 cyc:   62417514 now IPC :1.99076: AVG IPC :1.92119: L2-Pf-HR :0.95531: L2-HR :0.88077: (Sim:0h11m24s) 
CPU  0 inst:  121000000 cyc:   62912833 now IPC :2.01890: AVG IPC :1.92197: L2-Pf-HR :0.95526: L2-HR :0.88073: (Sim:0h11m30s) 
CPU  0 inst:  122000002 cyc:   63405800 now IPC :2.02854: AVG IPC :1.92282: L2-Pf-HR :0.95509: L2-HR :0.88056: (Sim:0h11m36s) 
CPU  0 inst:  123000002 cyc:   63906212 now IPC :1.99835: AVG IPC :1.92342: L2-Pf-HR :0.95511: L2-HR :0.88057: (Sim:0h11m43s) 
CPU  0 inst:  124000003 cyc:   64398399 now IPC :2.03175: AVG IPC :1.92426: L2-Pf-HR :0.95496: L2-HR :0.88043: (Sim:0h11m49s) 
CPU  0 inst:  125000002 cyc:   64966822 now IPC :1.75925: AVG IPC :1.92279: L2-Pf-HR :0.95471: L2-HR :0.88012: (Sim:0h11m55s) 
CPU  0 inst:  126000003 cyc:   65445808 now IPC :2.08775: AVG IPC :1.92402: L2-Pf-HR :0.95437: L2-HR :0.87971: (Sim:0h12m1s) 
CPU  0 inst:  127000002 cyc:   65944667 now IPC :2.00457: AVG IPC :1.92464: L2-Pf-HR :0.95403: L2-HR :0.87931: (Sim:0h12m7s) 
CPU  0 inst:  128000000 cyc:   66412461 now IPC :2.13769: AVG IPC :1.92616: L2-Pf-HR :0.95368: L2-HR :0.87892: (Sim:0h12m13s) 
CPU  0 inst:  129000005 cyc:   67069356 now IPC :1.52232: AVG IPC :1.92214: L2-Pf-HR :0.95358: L2-HR :0.87857: (Sim:0h12m20s) 
CPU  0 inst:  130000001 cyc:   67632219 now IPC :1.77662: AVG IPC :1.92092: L2-Pf-HR :0.95353: L2-HR :0.87848: (Sim:0h12m26s) 
CPU  0 inst:  131000004 cyc:   68169163 now IPC :1.86240: AVG IPC :1.92045: L2-Pf-HR :0.95347: L2-HR :0.87836: (Sim:0h12m32s) 
CPU  0 inst:  132000001 cyc:   68706802 now IPC :1.85998: AVG IPC :1.91997: L2-Pf-HR :0.95345: L2-HR :0.87831: (Sim:0h12m39s) 
CPU  0 inst:  133000000 cyc:   69275456 now IPC :1.75854: AVG IPC :1.91862: L2-Pf-HR :0.95339: L2-HR :0.87818: (Sim:0h12m45s) 
CPU  0 inst:  134000001 cyc:   69820393 now IPC :1.83508: AVG IPC :1.91796: L2-Pf-HR :0.95345: L2-HR :0.87819: (Sim:0h12m52s) 
CPU  0 inst:  135000005 cyc:   70419420 now IPC :1.66938: AVG IPC :1.91582: L2-Pf-HR :0.95346: L2-HR :0.87817: (Sim:0h12m58s) 
CPU  0 inst:  136000000 cyc:   70953005 now IPC :1.87411: AVG IPC :1.91550: L2-Pf-HR :0.95335: L2-HR :0.87802: (Sim:0h13m4s) 
CPU  0 inst:  137000004 cyc:   71483188 now IPC :1.88615: AVG IPC :1.91528: L2-Pf-HR :0.95330: L2-HR :0.87792: (Sim:0h13m11s) 
CPU  0 inst:  138000004 cyc:   72019379 now IPC :1.86501: AVG IPC :1.91490: L2-Pf-HR :0.95373: L2-HR :0.87835: (Sim:0h13m17s) 
CPU  0 inst:  139000001 cyc:   72583572 now IPC :1.77244: AVG IPC :1.91378: L2-Pf-HR :0.95386: L2-HR :0.87849: (Sim:0h13m24s) 
CPU  0 inst:  140000001 cyc:   73134473 now IPC :1.81521: AVG IPC :1.91302: L2-Pf-HR :0.95382: L2-HR :0.87840: (Sim:0h13m30s) 
CPU  0 inst:  141000002 cyc:   73813245 now IPC :1.47325: AVG IPC :1.90892: L2-Pf-HR :0.95386: L2-HR :0.87838: (Sim:0h13m36s) 
CPU  0 inst:  142000002 cyc:   74329975 now IPC :1.93525: AVG IPC :1.90911: L2-Pf-HR :0.95384: L2-HR :0.87837: (Sim:0h13m43s) 
CPU  0 inst:  143000002 cyc:   74835554 now IPC :1.97793: AVG IPC :1.90958: L2-Pf-HR :0.95379: L2-HR :0.87834: (Sim:0h13m49s) 
CPU  0 inst:  144000000 cyc:   75338283 now IPC :1.98914: AVG IPC :1.91012: L2-Pf-HR :0.95413: L2-HR :0.87872: (Sim:0h13m55s) 
CPU  0 inst:  145000002 cyc:   75830495 now IPC :2.03165: AVG IPC :1.91092: L2-Pf-HR :0.95472: L2-HR :0.87942: (Sim:0h14m2s) 
CPU  0 inst:  146000002 cyc:   76320736 now IPC :2.03981: AVG IPC :1.91176: L2-Pf-HR :0.95496: L2-HR :0.87974: (Sim:0h14m8s) 
CPU  0 inst:  147000000 cyc:   76892687 now IPC :1.74840: AVG IPC :1.91053: L2-Pf-HR :0.95503: L2-HR :0.87988: (Sim:0h14m14s) 
CPU  0 inst:  148000000 cyc:   77388797 now IPC :2.01568: AVG IPC :1.91121: L2-Pf-HR :0.95499: L2-HR :0.87987: (Sim:0h14m21s) 
CPU  0 inst:  149000003 cyc:   77879998 now IPC :2.03583: AVG IPC :1.91200: L2-Pf-HR :0.95496: L2-HR :0.87984: (Sim:0h14m27s) 
CPU  0 inst:  150000004 cyc:   78374578 now IPC :2.02192: AVG IPC :1.91271: L2-Pf-HR :0.95520: L2-HR :0.88013: (Sim:0h14m33s) 
CPU  0 inst:  151000000 cyc:   78861648 now IPC :2.05308: AVG IPC :1.91359: L2-Pf-HR :0.95524: L2-HR :0.88023: (Sim:0h14m40s) 
CPU  0 inst:  152000000 cyc:   79353218 now IPC :2.03430: AVG IPC :1.91434: L2-Pf-HR :0.95531: L2-HR :0.88033: (Sim:0h14m46s) 
CPU  0 inst:  153000003 cyc:   80019348 now IPC :1.50121: AVG IPC :1.91086: L2-Pf-HR :0.95538: L2-HR :0.88035: (Sim:0h14m53s) 
CPU  0 inst:  154000001 cyc:   80517382 now IPC :2.00789: AVG IPC :1.91147: L2-Pf-HR :0.95528: L2-HR :0.88027: (Sim:0h14m59s) 
CPU  0 inst:  155000005 cyc:   81017682 now IPC :1.99881: AVG IPC :1.91201: L2-Pf-HR :0.95524: L2-HR :0.88024: (Sim:0h15m6s) 
CPU  0 inst:  156000004 cyc:   81515754 now IPC :2.00774: AVG IPC :1.91261: L2-Pf-HR :0.95526: L2-HR :0.88028: (Sim:0h15m12s) 
CPU  0 inst:  157000004 cyc:   82001533 now IPC :2.05855: AVG IPC :1.91348: L2-Pf-HR :0.95579: L2-HR :0.88091: (Sim:0h15m18s) 
CPU  0 inst:  158000005 cyc:   82487436 now IPC :2.05803: AVG IPC :1.91434: L2-Pf-HR :0.95629: L2-HR :0.88152: (Sim:0h15m25s) 
CPU  0 inst:  159000005 cyc:   83063950 now IPC :1.73456: AVG IPC :1.91308: L2-Pf-HR :0.95637: L2-HR :0.88166: (Sim:0h15m31s) 
CPU  0 inst:  160000000 cyc:   83569002 now IPC :1.97998: AVG IPC :1.91349: L2-Pf-HR :0.95627: L2-HR :0.88154: (Sim:0h15m38s) 
CPU  0 inst:  161000002 cyc:   84066718 now IPC :2.00918: AVG IPC :1.91406: L2-Pf-HR :0.95616: L2-HR :0.88144: (Sim:0h15m44s) 
CPU  0 inst:  162000002 cyc:   84566757 now IPC :1.99984: AVG IPC :1.91458: L2-Pf-HR :0.95642: L2-HR :0.88175: (Sim:0h15m51s) 
CPU  0 inst:  163000002 cyc:   85066107 now IPC :2.00260: AVG IPC :1.91510: L2-Pf-HR :0.95630: L2-HR :0.88164: (Sim:0h15m57s) 
CPU  0 inst:  164000003 cyc:   85565615 now IPC :2.00197: AVG IPC :1.91561: L2-Pf-HR :0.95621: L2-HR :0.88156: (Sim:0h16m3s) 
CPU  0 inst:  165000003 cyc:   86220767 now IPC :1.52636: AVG IPC :1.91262: L2-Pf-HR :0.95637: L2-HR :0.88169: (Sim:0h16m10s) 
CPU  0 inst:  166000002 cyc:   86758084 now IPC :1.86110: AVG IPC :1.91230: L2-Pf-HR :0.95677: L2-HR :0.88217: (Sim:0h16m16s) 
CPU  0 inst:  167000005 cyc:   87453433 now IPC :1.43813: AVG IPC :1.90848: L2-Pf-HR :0.95725: L2-HR :0.88275: (Sim:0h16m23s) 
CPU  0 inst:  168000000 cyc:   88148529 now IPC :1.43864: AVG IPC :1.90474: L2-Pf-HR :0.95771: L2-HR :0.88332: (Sim:0h16m30s) 
CPU  0 inst:  169000001 cyc:   88655376 now IPC :1.97298: AVG IPC :1.90513: L2-Pf-HR :0.95815: L2-HR :0.88386: (Sim:0h16m36s) 
CPU  0 inst:  170000001 cyc:   89162496 now IPC :1.97192: AVG IPC :1.90551: L2-Pf-HR :0.95840: L2-HR :0.88419: (Sim:0h16m43s) 
CPU  0 inst:  171000001 cyc:   89735292 now IPC :1.74582: AVG IPC :1.90448: L2-Pf-HR :0.95836: L2-HR :0.88418: (Sim:0h16m49s) 
CPU  0 inst:  172000002 cyc:   90237028 now IPC :1.99308: AVG IPC :1.90498: L2-Pf-HR :0.95831: L2-HR :0.88413: (Sim:0h16m55s) 
CPU  0 inst:  173000001 cyc:   90731323 now IPC :2.02308: AVG IPC :1.90563: L2-Pf-HR :0.95818: L2-HR :0.88399: (Sim:0h17m1s) 
CPU  0 inst:  174000001 cyc:   91231802 now IPC :1.99809: AVG IPC :1.90615: L2-Pf-HR :0.95837: L2-HR :0.88422: (Sim:0h17m8s) 
CPU  0 inst:  175000001 cyc:   91727619 now IPC :2.01687: AVG IPC :1.90675: L2-Pf-HR :0.95820: L2-HR :0.88406: (Sim:0h17m14s) 
CPU  0 inst:  176000000 cyc:   92219868 now IPC :2.03149: AVG IPC :1.90742: L2-Pf-HR :0.95811: L2-HR :0.88398: (Sim:0h17m20s) 
CPU  0 inst:  177000003 cyc:   92889835 now IPC :1.49262: AVG IPC :1.90440: L2-Pf-HR :0.95808: L2-HR :0.88391: (Sim:0h17m27s) 
CPU  0 inst:  178000005 cyc:   93376047 now IPC :2.05672: AVG IPC :1.90520: L2-Pf-HR :0.95807: L2-HR :0.88391: (Sim:0h17m33s) 
CPU  0 inst:  179000005 cyc:   93876581 now IPC :1.99787: AVG IPC :1.90570: L2-Pf-HR :0.95798: L2-HR :0.88380: (Sim:0h17m40s) 
CPU  0 inst:  180000005 cyc:   94378043 now IPC :1.99417: AVG IPC :1.90618: L2-Pf-HR :0.95794: L2-HR :0.88376: (Sim:0h17m46s) 
CPU  0 inst:  181000003 cyc:   94869753 now IPC :2.03372: AVG IPC :1.90684: L2-Pf-HR :0.95785: L2-HR :0.88370: (Sim:0h17m53s) 
CPU  0 inst:  182000003 cyc:   95368962 now IPC :2.00317: AVG IPC :1.90735: L2-Pf-HR :0.95785: L2-HR :0.88369: (Sim:0h17m59s) 
CPU  0 inst:  183000005 cyc:   95939285 now IPC :1.75340: AVG IPC :1.90643: L2-Pf-HR :0.95783: L2-HR :0.88369: (Sim:0h18m5s) 
CPU  0 inst:  184000000 cyc:   96436111 now IPC :2.01277: AVG IPC :1.90698: L2-Pf-HR :0.95779: L2-HR :0.88365: (Sim:0h18m12s) 
CPU  0 inst:  185000003 cyc:   96934827 now IPC :2.00516: AVG IPC :1.90749: L2-Pf-HR :0.95774: L2-HR :0.88360: (Sim:0h18m18s) 
CPU  0 inst:  186000003 cyc:   97427058 now IPC :2.03157: AVG IPC :1.90813: L2-Pf-HR :0.95770: L2-HR :0.88356: (Sim:0h18m24s) 
CPU  0 inst:  187000001 cyc:   97919128 now IPC :2.03223: AVG IPC :1.90876: L2-Pf-HR :0.95758: L2-HR :0.88344: (Sim:0h18m31s) 
CPU  0 inst:  188000004 cyc:   98417691 now IPC :2.00577: AVG IPC :1.90925: L2-Pf-HR :0.95762: L2-HR :0.88349: (Sim:0h18m37s) 
CPU  0 inst:  189000001 cyc:   98981918 now IPC :1.77233: AVG IPC :1.90846: L2-Pf-HR :0.95746: L2-HR :0.88329: (Sim:0h18m44s) 
CPU  0 inst:  190000002 cyc:   99480768 now IPC :2.00461: AVG IPC :1.90895: L2-Pf-HR :0.95723: L2-HR :0.88303: (Sim:0h18m50s) 
CPU  0 inst:  191000005 cyc:   99983123 now IPC :1.99063: AVG IPC :1.90936: L2-Pf-HR :0.95701: L2-HR :0.88277: (Sim:0h18m56s) 
CPU  0 inst:  192000000 cyc:  100462782 now IPC :2.08480: AVG IPC :1.91021: L2-Pf-HR :0.95678: L2-HR :0.88251: (Sim:0h19m2s) 
CPU  0 inst:  193000005 cyc:  101109085 now IPC :1.54727: AVG IPC :1.90787: L2-Pf-HR :0.95662: L2-HR :0.88218: (Sim:0h19m9s) 
CPU  0 inst:  194000004 cyc:  101630227 now IPC :1.91886: AVG IPC :1.90792: L2-Pf-HR :0.95657: L2-HR :0.88209: (Sim:0h19m15s) 
CPU  0 inst:  195000004 cyc:  102167074 now IPC :1.86273: AVG IPC :1.90768: L2-Pf-HR :0.95649: L2-HR :0.88196: (Sim:0h19m22s) 
CPU  0 inst:  196000003 cyc:  102693462 now IPC :1.89974: AVG IPC :1.90764: L2-Pf-HR :0.95652: L2-HR :0.88197: (Sim:0h19m28s) 
CPU  0 inst:  197000000 cyc:  103255462 now IPC :1.77935: AVG IPC :1.90694: L2-Pf-HR :0.95661: L2-HR :0.88204: (Sim:0h19m35s) 
CPU  0 inst:  198000002 cyc:  103791360 now IPC :1.86603: AVG IPC :1.90673: L2-Pf-HR :0.95671: L2-HR :0.88213: (Sim:0h19m41s) 
CPU  0 inst:  199000005 cyc:  104392119 now IPC :1.66457: AVG IPC :1.90532: L2-Pf-HR :0.95670: L2-HR :0.88211: (Sim:0h19m48s) 
CPU  0 inst:  200000000 cyc:  104974226 now IPC :1.71789: AVG IPC :1.90427: L2-Pf-HR :0.95702: L2-HR :0.88246: (Sim:0h19m54s) 
CPU  0 inst:  201000001 cyc:  105551476 now IPC :1.73235: AVG IPC :1.90332: L2-Pf-HR :0.95738: L2-HR :0.88286: (Sim:0h20m1s) 
CPU  0 inst:  202000002 cyc:  106168424 now IPC :1.62088: AVG IPC :1.90166: L2-Pf-HR :0.95773: L2-HR :0.88325: (Sim:0h20m8s) 
CPU  0 inst:  203000002 cyc:  106778281 now IPC :1.63973: AVG IPC :1.90015: L2-Pf-HR :0.95808: L2-HR :0.88361: (Sim:0h20m14s) 
CPU  0 inst:  204000001 cyc:  107390962 now IPC :1.63217: AVG IPC :1.89861: L2-Pf-HR :0.95842: L2-HR :0.88400: (Sim:0h20m21s) 
CPU  0 inst:  205000000 cyc:  108086111 now IPC :1.43854: AVG IPC :1.89562: L2-Pf-HR :0.95859: L2-HR :0.88416: (Sim:0h20m28s) 
CPU  0 inst:  206000001 cyc:  108615171 now IPC :1.89015: AVG IPC :1.89560: L2-Pf-HR :0.95885: L2-HR :0.88447: (Sim:0h20m34s) 
CPU  0 inst:  207000003 cyc:  109185898 now IPC :1.75215: AVG IPC :1.89484: L2-Pf-HR :0.95919: L2-HR :0.88491: (Sim:0h20m41s) 
CPU  0 inst:  208000000 cyc:  109763515 now IPC :1.73125: AVG IPC :1.89397: L2-Pf-HR :0.95953: L2-HR :0.88532: (Sim:0h20m47s) 
CPU  0 inst:  209000003 cyc:  110335975 now IPC :1.74685: AVG IPC :1.89320: L2-Pf-HR :0.95986: L2-HR :0.88573: (Sim:0h20m54s) 
CPU  0 inst:  210000001 cyc:  110876537 now IPC :1.84992: AVG IPC :1.89299: L2-Pf-HR :0.95999: L2-HR :0.88591: (Sim:0h21m0s) 
CPU  0 inst:  211000005 cyc:  111455320 now IPC :1.72777: AVG IPC :1.89212: L2-Pf-HR :0.96007: L2-HR :0.88601: (Sim:0h21m7s) 
CPU  0 inst:  212000001 cyc:  111944812 now IPC :2.04293: AVG IPC :1.89279: L2-Pf-HR :0.96004: L2-HR :0.88599: (Sim:0h21m13s) 
CPU  0 inst:  213000001 cyc:  112436561 now IPC :2.03356: AVG IPC :1.89341: L2-Pf-HR :0.95996: L2-HR :0.88591: (Sim:0h21m20s) 
CPU  0 inst:  214000001 cyc:  112934458 now IPC :2.00845: AVG IPC :1.89392: L2-Pf-HR :0.96000: L2-HR :0.88596: (Sim:0h21m26s) 
CPU  0 inst:  215000001 cyc:  113473395 now IPC :1.85550: AVG IPC :1.89374: L2-Pf-HR :0.96006: L2-HR :0.88606: (Sim:0h21m33s) 
CPU  0 inst:  216000000 cyc:  113973969 now IPC :1.99770: AVG IPC :1.89420: L2-Pf-HR :0.96003: L2-HR :0.88603: (Sim:0h21m39s) 
CPU  0 inst:  217000005 cyc:  114635972 now IPC :1.51057: AVG IPC :1.89196: L2-Pf-HR :0.95997: L2-HR :0.88593: (Sim:0h21m46s) 
CPU  0 inst:  218000005 cyc:  115134773 now IPC :2.00481: AVG IPC :1.89246: L2-Pf-HR :0.95991: L2-HR :0.88588: (Sim:0h21m52s) 
CPU  0 inst:  219000005 cyc:  115624819 now IPC :2.04062: AVG IPC :1.89309: L2-Pf-HR :0.95985: L2-HR :0.88581: (Sim:0h21m59s) 
CPU  0 inst:  220000005 cyc:  116124574 now IPC :2.00098: AVG IPC :1.89356: L2-Pf-HR :0.95975: L2-HR :0.88569: (Sim:0h22m6s) 
CPU  0 inst:  221000003 cyc:  116624151 now IPC :2.00169: AVG IPC :1.89402: L2-Pf-HR :0.95964: L2-HR :0.88558: (Sim:0h22m12s) 
CPU  0 inst:  222000003 cyc:  117126052 now IPC :1.99242: AVG IPC :1.89445: L2-Pf-HR :0.95967: L2-HR :0.88561: (Sim:0h22m19s) 
CPU  0 inst:  223000004 cyc:  117710298 now IPC :1.71161: AVG IPC :1.89353: L2-Pf-HR :0.95973: L2-HR :0.88569: (Sim:0h22m26s) 
CPU  0 inst:  224000000 cyc:  118197908 now IPC :2.05081: AVG IPC :1.89419: L2-Pf-HR :0.95967: L2-HR :0.88563: (Sim:0h22m33s) 
CPU  0 inst:  225000003 cyc:  118697367 now IPC :2.00217: AVG IPC :1.89465: L2-Pf-HR :0.95962: L2-HR :0.88558: (Sim:0h22m39s) 
CPU  0 inst:  226000004 cyc:  119190432 now IPC :2.02813: AVG IPC :1.89520: L2-Pf-HR :0.95967: L2-HR :0.88562: (Sim:0h22m46s) 
CPU  0 inst:  227000001 cyc:  119705077 now IPC :1.94308: AVG IPC :1.89541: L2-Pf-HR :0.95997: L2-HR :0.88598: (Sim:0h22m53s) 
CPU  0 inst:  228000002 cyc:  120230423 now IPC :1.90351: AVG IPC :1.89545: L2-Pf-HR :0.95989: L2-HR :0.88592: (Sim:0h22m59s) 
CPU  0 inst:  229000004 cyc:  120897432 now IPC :1.49923: AVG IPC :1.89324: L2-Pf-HR :0.96006: L2-HR :0.88609: (Sim:0h23m6s) 
CPU  0 inst:  230000004 cyc:  121396929 now IPC :2.00201: AVG IPC :1.89369: L2-Pf-HR :0.96006: L2-HR :0.88611: (Sim:0h23m13s) 
CPU  0 inst:  231000004 cyc:  121892504 now IPC :2.01786: AVG IPC :1.89420: L2-Pf-HR :0.96005: L2-HR :0.88609: (Sim:0h23m19s) 
CPU  0 inst:  232000000 cyc:  122403805 now IPC :1.95579: AVG IPC :1.89446: L2-Pf-HR :0.96034: L2-HR :0.88644: (Sim:0h23m26s) 
CPU  0 inst:  233000001 cyc:  123088260 now IPC :1.46102: AVG IPC :1.89203: L2-Pf-HR :0.96064: L2-HR :0.88683: (Sim:0h23m33s) 
CPU  0 inst:  234000004 cyc:  123672879 now IPC :1.71052: AVG IPC :1.89117: L2-Pf-HR :0.96093: L2-HR :0.88720: (Sim:0h23m39s) 
CPU  0 inst:  235000001 cyc:  124261297 now IPC :1.69947: AVG IPC :1.89025: L2-Pf-HR :0.96109: L2-HR :0.88742: (Sim:0h23m46s) 
CPU  0 inst:  236000002 cyc:  124776126 now IPC :1.94239: AVG IPC :1.89047: L2-Pf-HR :0.96121: L2-HR :0.88757: (Sim:0h23m52s) 
CPU  0 inst:  237000002 cyc:  125273345 now IPC :2.01119: AVG IPC :1.89095: L2-Pf-HR :0.96116: L2-HR :0.88752: (Sim:0h23m59s) 
CPU  0 inst:  238000002 cyc:  125766233 now IPC :2.02886: AVG IPC :1.89150: L2-Pf-HR :0.96116: L2-HR :0.88753: (Sim:0h24m5s) 
CPU  0 inst:  239000004 cyc:  126270790 now IPC :1.98194: AVG IPC :1.89186: L2-Pf-HR :0.96121: L2-HR :0.88761: (Sim:0h24m12s) 
CPU  0 inst:  240000000 cyc:  126770013 now IPC :2.00310: AVG IPC :1.89230: L2-Pf-HR :0.96116: L2-HR :0.88756: (Sim:0h24m18s) 
CPU  0 inst:  241000000 cyc:  127433985 now IPC :1.50609: AVG IPC :1.89027: L2-Pf-HR :0.96120: L2-HR :0.88756: (Sim:0h24m25s) 
CPU  0 inst:  242000000 cyc:  127966972 now IPC :1.87622: AVG IPC :1.89022: L2-Pf-HR :0.96140: L2-HR :0.88780: (Sim:0h24m32s) 
CPU  0 inst:  243000000 cyc:  128560444 now IPC :1.68500: AVG IPC :1.88926: L2-Pf-HR :0.96165: L2-HR :0.88812: (Sim:0h24m38s) 
CPU  0 inst:  244000001 cyc:  129162494 now IPC :1.66099: AVG IPC :1.88819: L2-Pf-HR :0.96189: L2-HR :0.88840: (Sim:0h24m45s) 
CPU  0 inst:  245000002 cyc:  129727473 now IPC :1.76998: AVG IPC :1.88767: L2-Pf-HR :0.96207: L2-HR :0.88860: (Sim:0h24m52s) 
CPU  0 inst:  246000004 cyc:  130327207 now IPC :1.66741: AVG IPC :1.88665: L2-Pf-HR :0.96232: L2-HR :0.88891: (Sim:0h24m58s) 
CPU  0 inst:  247000004 cyc:  130927742 now IPC :1.66518: AVG IPC :1.88562: L2-Pf-HR :0.96247: L2-HR :0.88911: (Sim:0h25m5s) 
CPU  0 inst:  248000000 cyc:  131467667 now IPC :1.85210: AVG IPC :1.88549: L2-Pf-HR :0.96267: L2-HR :0.88936: (Sim:0h25m11s) 
CPU  0 inst:  249000001 cyc:  131992943 now IPC :1.90376: AVG IPC :1.88556: L2-Pf-HR :0.96291: L2-HR :0.88965: (Sim:0h25m18s) 
CPU  0 inst:  250000000 cyc:  132496570 now IPC :1.98559: AVG IPC :1.88594: L2-Pf-HR :0.96315: L2-HR :0.88996: (Sim:0h25m25s) 
CPU  0 inst:  251000004 cyc:  133007545 now IPC :1.95705: AVG IPC :1.88622: L2-Pf-HR :0.96317: L2-HR :0.88999: (Sim:0h25m31s) 
CPU  0 inst:  252000002 cyc:  133528902 now IPC :1.91807: AVG IPC :1.88634: L2-Pf-HR :0.96313: L2-HR :0.88995: (Sim:0h25m38s) 
CPU  0 inst:  253000005 cyc:  134148023 now IPC :1.61520: AVG IPC :1.88508: L2-Pf-HR :0.96319: L2-HR :0.89003: (Sim:0h25m44s) 
CPU  0 inst:  254000005 cyc:  134645782 now IPC :2.00900: AVG IPC :1.88554: L2-Pf-HR :0.96303: L2-HR :0.88984: (Sim:0h25m51s) 
CPU  0 inst:  255000001 cyc:  135138203 now IPC :2.03077: AVG IPC :1.88608: L2-Pf-HR :0.96286: L2-HR :0.88964: (Sim:0h25m57s) 
CPU  0 inst:  256000000 cyc:  135608811 now IPC :2.12491: AVG IPC :1.88691: L2-Pf-HR :0.96270: L2-HR :0.88945: (Sim:0h26m3s) 
CPU  0 inst:  257000005 cyc:  136255276 now IPC :1.54688: AVG IPC :1.88529: L2-Pf-HR :0.96258: L2-HR :0.88921: (Sim:0h26m10s) 
CPU  0 inst:  258000003 cyc:  136781815 now IPC :1.89919: AVG IPC :1.88534: L2-Pf-HR :0.96256: L2-HR :0.88915: (Sim:0h26m17s) 
CPU  0 inst:  259000001 cyc:  137325862 now IPC :1.83807: AVG IPC :1.88515: L2-Pf-HR :0.96248: L2-HR :0.88904: (Sim:0h26m24s) 
CPU  0 inst:  260000000 cyc:  137853891 now IPC :1.89383: AVG IPC :1.88519: L2-Pf-HR :0.96248: L2-HR :0.88901: (Sim:0h26m30s) 
CPU  0 inst:  261000003 cyc:  138394285 now IPC :1.85051: AVG IPC :1.88505: L2-Pf-HR :0.96250: L2-HR :0.88902: (Sim:0h26m37s) 
CPU  0 inst:  262000005 cyc:  138906987 now IPC :1.95045: AVG IPC :1.88529: L2-Pf-HR :0.96254: L2-HR :0.88904: (Sim:0h26m43s) 
CPU  0 inst:  263000005 cyc:  139505900 now IPC :1.66969: AVG IPC :1.88436: L2-Pf-HR :0.96250: L2-HR :0.88898: (Sim:0h26m50s) 
CPU  0 inst:  264000000 cyc:  140040575 now IPC :1.87029: AVG IPC :1.88431: L2-Pf-HR :0.96245: L2-HR :0.88890: (Sim:0h26m56s) 
CPU  0 inst:  265000003 cyc:  140571791 now IPC :1.88248: AVG IPC :1.88430: L2-Pf-HR :0.96240: L2-HR :0.88882: (Sim:0h27m3s) 
CPU  0 inst:  266000001 cyc:  141104706 now IPC :1.87647: AVG IPC :1.88427: L2-Pf-HR :0.96245: L2-HR :0.88885: (Sim:0h27m9s) 
CPU  0 inst:  267000002 cyc:  141646290 now IPC :1.84644: AVG IPC :1.88412: L2-Pf-HR :0.96253: L2-HR :0.88895: (Sim:0h27m16s) 
CPU  0 inst:  268000000 cyc:  142181199 now IPC :1.86947: AVG IPC :1.88407: L2-Pf-HR :0.96253: L2-HR :0.88891: (Sim:0h27m22s) 
CPU  0 inst:  269000004 cyc:  142863094 now IPC :1.46651: AVG IPC :1.88206: L2-Pf-HR :0.96252: L2-HR :0.88887: (Sim:0h27m29s) 
CPU  0 inst:  270000004 cyc:  143363724 now IPC :1.99748: AVG IPC :1.88247: L2-Pf-HR :0.96252: L2-HR :0.88888: (Sim:0h27m35s) 
CPU  0 inst:  271000004 cyc:  143877439 now IPC :1.94660: AVG IPC :1.88270: L2-Pf-HR :0.96257: L2-HR :0.88895: (Sim:0h27m42s) 
CPU  0 inst:  272000000 cyc:  144381289 now IPC :1.98471: AVG IPC :1.88306: L2-Pf-HR :0.96262: L2-HR :0.88901: (Sim:0h27m49s) 
CPU  0 inst:  273000004 cyc:  144892517 now IPC :1.95608: AVG IPC :1.88332: L2-Pf-HR :0.96271: L2-HR :0.88914: (Sim:0h27m55s) 
CPU  0 inst:  274000004 cyc:  145410200 now IPC :1.93168: AVG IPC :1.88349: L2-Pf-HR :0.96271: L2-HR :0.88915: (Sim:0h28m2s) 
CPU  0 inst:  275000001 cyc:  145984458 now IPC :1.74137: AVG IPC :1.88293: L2-Pf-HR :0.96274: L2-HR :0.88919: (Sim:0h28m9s) 
CPU  0 inst:  276000002 cyc:  146479571 now IPC :2.01974: AVG IPC :1.88339: L2-Pf-HR :0.96272: L2-HR :0.88918: (Sim:0h28m22s) 
CPU  0 inst:  277000002 cyc:  146970818 now IPC :2.03564: AVG IPC :1.88390: L2-Pf-HR :0.96263: L2-HR :0.88908: (Sim:0h28m35s) 
CPU  0 inst:  278000003 cyc:  147464920 now IPC :2.02388: AVG IPC :1.88438: L2-Pf-HR :0.96258: L2-HR :0.88903: (Sim:0h28m48s) 
CPU  0 inst:  279000004 cyc:  147966896 now IPC :1.99213: AVG IPC :1.88474: L2-Pf-HR :0.96254: L2-HR :0.88899: (Sim:0h29m0s) 
CPU  0 inst:  280000000 cyc:  148461647 now IPC :2.02121: AVG IPC :1.88520: L2-Pf-HR :0.96250: L2-HR :0.88894: (Sim:0h29m13s) 
CPU  0 inst:  281000000 cyc:  149126246 now IPC :1.50467: AVG IPC :1.88349: L2-Pf-HR :0.96247: L2-HR :0.88888: (Sim:0h29m27s) 
CPU  0 inst:  282000000 cyc:  149627905 now IPC :1.99339: AVG IPC :1.88387: L2-Pf-HR :0.96244: L2-HR :0.88885: (Sim:0h29m39s) 
CPU  0 inst:  283000000 cyc:  150121731 now IPC :2.02500: AVG IPC :1.88433: L2-Pf-HR :0.96238: L2-HR :0.88878: (Sim:0h29m52s) 
CPU  0 inst:  284000005 cyc:  150629839 now IPC :1.96810: AVG IPC :1.88462: L2-Pf-HR :0.96246: L2-HR :0.88888: (Sim:0h30m5s) 
CPU  0 inst:  285000004 cyc:  151139548 now IPC :1.96190: AVG IPC :1.88488: L2-Pf-HR :0.96266: L2-HR :0.88914: (Sim:0h30m17s) 
CPU  0 inst:  286000004 cyc:  151642259 now IPC :1.98921: AVG IPC :1.88523: L2-Pf-HR :0.96273: L2-HR :0.88924: (Sim:0h30m30s) 
CPU  0 inst:  287000004 cyc:  152230280 now IPC :1.70062: AVG IPC :1.88451: L2-Pf-HR :0.96282: L2-HR :0.88937: (Sim:0h30m43s) 
CPU  0 inst:  288000000 cyc:  152727575 now IPC :2.01087: AVG IPC :1.88492: L2-Pf-HR :0.96276: L2-HR :0.88932: (Sim:0h30m56s) 
CPU  0 inst:  289000005 cyc:  153224738 now IPC :2.01142: AVG IPC :1.88534: L2-Pf-HR :0.96272: L2-HR :0.88927: (Sim:0h31m8s) 
CPU  0 inst:  290000005 cyc:  153727388 now IPC :1.98946: AVG IPC :1.88568: L2-Pf-HR :0.96281: L2-HR :0.88939: (Sim:0h31m21s) 
CPU  0 inst:  291000004 cyc:  154239534 now IPC :1.95257: AVG IPC :1.88590: L2-Pf-HR :0.96302: L2-HR :0.88966: (Sim:0h31m34s) 
CPU  0 inst:  292000002 cyc:  154738739 now IPC :2.00318: AVG IPC :1.88628: L2-Pf-HR :0.96296: L2-HR :0.88960: (Sim:0h31m46s) 
CPU  0 inst:  293000002 cyc:  155394280 now IPC :1.52546: AVG IPC :1.88475: L2-Pf-HR :0.96292: L2-HR :0.88953: (Sim:0h32m0s) 
CPU  0 inst:  294000002 cyc:  155899381 now IPC :1.97980: AVG IPC :1.88506: L2-Pf-HR :0.96288: L2-HR :0.88949: (Sim:0h32m13s) 
CPU  0 inst:  295000001 cyc:  156393852 now IPC :2.02236: AVG IPC :1.88550: L2-Pf-HR :0.96284: L2-HR :0.88945: (Sim:0h32m25s) 
CPU  0 inst:  296000000 cyc:  156889981 now IPC :2.01560: AVG IPC :1.88591: L2-Pf-HR :0.96284: L2-HR :0.88944: (Sim:0h32m38s) 
CPU  0 inst:  297000000 cyc:  157396056 now IPC :1.97599: AVG IPC :1.88620: L2-Pf-HR :0.96294: L2-HR :0.88958: (Sim:0h32m51s) 
CPU  0 inst:  298000000 cyc:  157896850 now IPC :1.99683: AVG IPC :1.88656: L2-Pf-HR :0.96293: L2-HR :0.88958: (Sim:0h33m2s) 
CPU  0 inst:  299000000 cyc:  158474405 now IPC :1.73144: AVG IPC :1.88599: L2-Pf-HR :0.96293: L2-HR :0.88958: (Sim:0h33m9s) 
xz: 770-tot_memTraces_v5/120-subBillion_s2048_LLM_Arch/memTraces[1319000000]_FE_[Pythia-70M]_[h8]_[s2048]_[d64].champsim.9SSize.xz: Unexpected end of input
*** Reached end of trace for Core: 0 Repeating trace: 770-tot_memTraces_v5/120-subBillion_s2048_LLM_Arch/memTraces[1319000000]_FE_[Pythia-70M]_[h8]_[s2048]_[d64].champsim.9SSize.xz
CPU  0 inst:  300000001 cyc:  159423324 now IPC :1.05383: AVG IPC :1.88100: L2-Pf-HR :0.96296: L2-HR :0.88946: (Sim:0h33m16s) 
CPU  0 inst:  301000000 cyc:  159944629 now IPC :1.91826: AVG IPC :1.88113: L2-Pf-HR :0.96314: L2-HR :0.88967: (Sim:0h33m23s) 
CPU  0 inst:  302000000 cyc:  160475355 now IPC :1.88421: AVG IPC :1.88114: L2-Pf-HR :0.96318: L2-HR :0.88971: (Sim:0h33m29s) 
CPU  0 inst:  303000000 cyc:  160997852 now IPC :1.91389: AVG IPC :1.88124: L2-Pf-HR :0.96313: L2-HR :0.88963: (Sim:0h33m36s) 
CPU  0 inst:  304000000 cyc:  161534620 now IPC :1.86300: AVG IPC :1.88118: L2-Pf-HR :0.96310: L2-HR :0.88959: (Sim:0h33m43s) 
CPU  0 inst:  305000000 cyc:  162042334 now IPC :1.96961: AVG IPC :1.88146: L2-Pf-HR :0.96309: L2-HR :0.88956: (Sim:0h33m49s) 
CPU  0 inst:  306000004 cyc:  162642443 now IPC :1.66637: AVG IPC :1.88066: L2-Pf-HR :0.96316: L2-HR :0.88964: (Sim:0h33m56s) 
CPU  0 inst:  307000002 cyc:  163179140 now IPC :1.86325: AVG IPC :1.88061: L2-Pf-HR :0.96330: L2-HR :0.88981: (Sim:0h34m3s) 
CPU  0 inst:  308000000 cyc:  163715745 now IPC :1.86356: AVG IPC :1.88055: L2-Pf-HR :0.96326: L2-HR :0.88972: (Sim:0h34m10s) 
CPU  0 inst:  309000000 cyc:  164253221 now IPC :1.86055: AVG IPC :1.88048: L2-Pf-HR :0.96330: L2-HR :0.88975: (Sim:0h34m17s) 
CPU  0 inst:  310000004 cyc:  164788505 now IPC :1.86817: AVG IPC :1.88044: L2-Pf-HR :0.96323: L2-HR :0.88966: (Sim:0h34m24s) 
CPU  0 inst:  311000002 cyc:  165303680 now IPC :1.94108: AVG IPC :1.88063: L2-Pf-HR :0.96325: L2-HR :0.88966: (Sim:0h34m32s) 
CPU  0 inst:  312000000 cyc:  165989335 now IPC :1.45846: AVG IPC :1.87888: L2-Pf-HR :0.96325: L2-HR :0.88963: (Sim:0h34m46s) 
CPU  0 inst:  313000004 cyc:  166507116 now IPC :1.93133: AVG IPC :1.87904: L2-Pf-HR :0.96324: L2-HR :0.88962: (Sim:0h34m59s) 
CPU  0 inst:  314000005 cyc:  166998606 now IPC :2.03463: AVG IPC :1.87950: L2-Pf-HR :0.96316: L2-HR :0.88953: (Sim:0h35m11s) 
CPU  0 inst:  315000002 cyc:  167498803 now IPC :1.99921: AVG IPC :1.87986: L2-Pf-HR :0.96324: L2-HR :0.88964: (Sim:0h35m24s) 
CPU  0 inst:  316000004 cyc:  167998253 now IPC :2.00221: AVG IPC :1.88023: L2-Pf-HR :0.96327: L2-HR :0.88969: (Sim:0h35m37s) 
CPU  0 inst:  317000002 cyc:  168500968 now IPC :1.98919: AVG IPC :1.88056: L2-Pf-HR :0.96327: L2-HR :0.88970: (Sim:0h35m45s) 
CPU  0 inst:  318000002 cyc:  169075691 now IPC :1.73997: AVG IPC :1.88008: L2-Pf-HR :0.96329: L2-HR :0.88974: (Sim:0h35m58s) 
CPU  0 inst:  319000002 cyc:  169569828 now IPC :2.02373: AVG IPC :1.88050: L2-Pf-HR :0.96323: L2-HR :0.88968: (Sim:0h36m4s) 
CPU  0 inst:  320000000 cyc:  170064559 now IPC :2.02130: AVG IPC :1.88091: L2-Pf-HR :0.96321: L2-HR :0.88966: (Sim:0h36m15s) 
CPU  0 inst:  321000005 cyc:  170564577 now IPC :1.99994: AVG IPC :1.88126: L2-Pf-HR :0.96339: L2-HR :0.88989: (Sim:0h36m22s) 
CPU  0 inst:  322000005 cyc:  171066815 now IPC :1.99109: AVG IPC :1.88158: L2-Pf-HR :0.96341: L2-HR :0.88992: (Sim:0h36m29s) 
CPU  0 inst:  323000000 cyc:  171592865 now IPC :1.90095: AVG IPC :1.88164: L2-Pf-HR :0.96337: L2-HR :0.88989: (Sim:0h36m36s) 
CPU  0 inst:  324000000 cyc:  172258291 now IPC :1.50280: AVG IPC :1.88017: L2-Pf-HR :0.96339: L2-HR :0.88990: (Sim:0h36m48s) 
CPU  0 inst:  325000000 cyc:  172749309 now IPC :2.03659: AVG IPC :1.88062: L2-Pf-HR :0.96328: L2-HR :0.88978: (Sim:0h36m54s) 
CPU  0 inst:  326000004 cyc:  173247604 now IPC :2.00685: AVG IPC :1.88098: L2-Pf-HR :0.96324: L2-HR :0.88974: (Sim:0h37m1s) 
CPU  0 inst:  327000005 cyc:  173748637 now IPC :1.99588: AVG IPC :1.88132: L2-Pf-HR :0.96331: L2-HR :0.88981: (Sim:0h37m8s) 
CPU  0 inst:  328000000 cyc:  174247202 now IPC :2.00575: AVG IPC :1.88168: L2-Pf-HR :0.96349: L2-HR :0.89005: (Sim:0h37m15s) 
CPU  0 inst:  329000004 cyc:  174758598 now IPC :1.95544: AVG IPC :1.88189: L2-Pf-HR :0.96354: L2-HR :0.89013: (Sim:0h37m22s) 
CPU  0 inst:  330000000 cyc:  175330011 now IPC :1.75004: AVG IPC :1.88146: L2-Pf-HR :0.96352: L2-HR :0.89012: (Sim:0h37m28s) 
CPU  0 inst:  331000004 cyc:  175821492 now IPC :2.03467: AVG IPC :1.88189: L2-Pf-HR :0.96345: L2-HR :0.89005: (Sim:0h37m38s) 
CPU  0 inst:  332000000 cyc:  176318339 now IPC :2.01268: AVG IPC :1.88226: L2-Pf-HR :0.96342: L2-HR :0.89001: (Sim:0h37m51s) 
CPU  0 inst:  333000004 cyc:  176808639 now IPC :2.03958: AVG IPC :1.88270: L2-Pf-HR :0.96331: L2-HR :0.88989: (Sim:0h38m3s) 
CPU  0 inst:  334000002 cyc:  177306548 now IPC :2.00840: AVG IPC :1.88306: L2-Pf-HR :0.96327: L2-HR :0.88985: (Sim:0h38m14s) 
CPU  0 inst:  335000002 cyc:  177802520 now IPC :2.01624: AVG IPC :1.88343: L2-Pf-HR :0.96323: L2-HR :0.88981: (Sim:0h38m21s) 
CPU  0 inst:  336000000 cyc:  178468471 now IPC :1.50161: AVG IPC :1.88200: L2-Pf-HR :0.96323: L2-HR :0.88979: (Sim:0h38m28s) 
CPU  0 inst:  337000001 cyc:  178959526 now IPC :2.03643: AVG IPC :1.88242: L2-Pf-HR :0.96319: L2-HR :0.88975: (Sim:0h38m35s) 
CPU  0 inst:  338000002 cyc:  179458987 now IPC :2.00216: AVG IPC :1.88276: L2-Pf-HR :0.96315: L2-HR :0.88971: (Sim:0h38m41s) 
CPU  0 inst:  339000003 cyc:  179956675 now IPC :2.00929: AVG IPC :1.88311: L2-Pf-HR :0.96312: L2-HR :0.88967: (Sim:0h38m51s) 
CPU  0 inst:  340000003 cyc:  180448436 now IPC :2.03351: AVG IPC :1.88352: L2-Pf-HR :0.96307: L2-HR :0.88963: (Sim:0h38m57s) 
CPU  0 inst:  341000003 cyc:  180954307 now IPC :1.97679: AVG IPC :1.88378: L2-Pf-HR :0.96306: L2-HR :0.88962: (Sim:0h39m4s) 
CPU  0 inst:  342000003 cyc:  181537278 now IPC :1.71535: AVG IPC :1.88324: L2-Pf-HR :0.96309: L2-HR :0.88967: (Sim:0h39m17s) 
CPU  0 inst:  343000002 cyc:  182038578 now IPC :1.99481: AVG IPC :1.88355: L2-Pf-HR :0.96303: L2-HR :0.88961: (Sim:0h39m30s) 
CPU  0 inst:  344000000 cyc:  182538439 now IPC :2.00055: AVG IPC :1.88387: L2-Pf-HR :0.96302: L2-HR :0.88959: (Sim:0h39m43s) 
CPU  0 inst:  345000001 cyc:  183051929 now IPC :1.94746: AVG IPC :1.88405: L2-Pf-HR :0.96311: L2-HR :0.88970: (Sim:0h39m56s) 
CPU  0 inst:  346000001 cyc:  183559119 now IPC :1.97165: AVG IPC :1.88429: L2-Pf-HR :0.96304: L2-HR :0.88963: (Sim:0h40m8s) 
CPU  0 inst:  347000001 cyc:  184052488 now IPC :2.02688: AVG IPC :1.88468: L2-Pf-HR :0.96298: L2-HR :0.88957: (Sim:0h40m21s) 
CPU  0 inst:  348000002 cyc:  184713572 now IPC :1.51267: AVG IPC :1.88334: L2-Pf-HR :0.96296: L2-HR :0.88952: (Sim:0h40m34s) 
CPU  0 inst:  349000005 cyc:  185212159 now IPC :2.00567: AVG IPC :1.88367: L2-Pf-HR :0.96292: L2-HR :0.88948: (Sim:0h40m47s) 
CPU  0 inst:  350000005 cyc:  185712016 now IPC :2.00057: AVG IPC :1.88399: L2-Pf-HR :0.96289: L2-HR :0.88945: (Sim:0h41m0s) 
CPU  0 inst:  351000005 cyc:  186222650 now IPC :1.95835: AVG IPC :1.88419: L2-Pf-HR :0.96296: L2-HR :0.88954: (Sim:0h41m13s) 
CPU  0 inst:  352000000 cyc:  186733430 now IPC :1.95778: AVG IPC :1.88439: L2-Pf-HR :0.96291: L2-HR :0.88949: (Sim:0h41m25s) 
CPU  0 inst:  353000005 cyc:  187237212 now IPC :1.98500: AVG IPC :1.88467: L2-Pf-HR :0.96294: L2-HR :0.88953: (Sim:0h41m38s) 
CPU  0 inst:  354000003 cyc:  187822714 now IPC :1.70793: AVG IPC :1.88411: L2-Pf-HR :0.96296: L2-HR :0.88956: (Sim:0h41m51s) 
CPU  0 inst:  355000005 cyc:  188314781 now IPC :2.03225: AVG IPC :1.88450: L2-Pf-HR :0.96295: L2-HR :0.88956: (Sim:0h42m4s) 
CPU  0 inst:  356000005 cyc:  188832549 now IPC :1.93137: AVG IPC :1.88463: L2-Pf-HR :0.96289: L2-HR :0.88948: (Sim:0h42m16s) 
CPU  0 inst:  357000003 cyc:  189325673 now IPC :2.02788: AVG IPC :1.88501: L2-Pf-HR :0.96285: L2-HR :0.88944: (Sim:0h42m29s) 
CPU  0 inst:  358000003 cyc:  189820267 now IPC :2.02186: AVG IPC :1.88536: L2-Pf-HR :0.96279: L2-HR :0.88938: (Sim:0h42m42s) 
CPU  0 inst:  359000003 cyc:  190311726 now IPC :2.03476: AVG IPC :1.88575: L2-Pf-HR :0.96273: L2-HR :0.88931: (Sim:0h42m55s) 
CPU  0 inst:  360000000 cyc:  190875525 now IPC :1.77368: AVG IPC :1.88542: L2-Pf-HR :0.96272: L2-HR :0.88930: (Sim:0h43m8s) 
CPU  0 inst:  361000003 cyc:  191360785 now IPC :2.06076: AVG IPC :1.88587: L2-Pf-HR :0.96261: L2-HR :0.88916: (Sim:0h43m20s) 
CPU  0 inst:  362000005 cyc:  191863263 now IPC :1.99014: AVG IPC :1.88614: L2-Pf-HR :0.96250: L2-HR :0.88902: (Sim:0h43m33s) 
CPU  0 inst:  363000001 cyc:  192331151 now IPC :2.13725: AVG IPC :1.88675: L2-Pf-HR :0.96238: L2-HR :0.88889: (Sim:0h43m46s) 
CPU  0 inst:  364000001 cyc:  192984033 now IPC :1.53167: AVG IPC :1.88555: L2-Pf-HR :0.96231: L2-HR :0.88873: (Sim:0h43m58s) 
CPU  0 inst:  365000005 cyc:  193506149 now IPC :1.91529: AVG IPC :1.88563: L2-Pf-HR :0.96226: L2-HR :0.88865: (Sim:0h44m7s) 
CPU  0 inst:  366000000 cyc:  194047487 now IPC :1.84727: AVG IPC :1.88552: L2-Pf-HR :0.96234: L2-HR :0.88874: (Sim:0h44m17s) 
CPU  0 inst:  367000003 cyc:  194569098 now IPC :1.91714: AVG IPC :1.88561: L2-Pf-HR :0.96233: L2-HR :0.88870: (Sim:0h44m25s) 
CPU  0 inst:  368000000 cyc:  195133965 now IPC :1.77032: AVG IPC :1.88527: L2-Pf-HR :0.96230: L2-HR :0.88866: (Sim:0h44m36s) 
CPU  0 inst:  369000000 cyc:  195645935 now IPC :1.95324: AVG IPC :1.88545: L2-Pf-HR :0.96232: L2-HR :0.88865: (Sim:0h44m49s) 
CPU  0 inst:  370000000 cyc:  196244124 now IPC :1.67171: AVG IPC :1.88479: L2-Pf-HR :0.96241: L2-HR :0.88875: (Sim:0h45m0s) 
CPU  0 inst:  371000001 cyc:  196787021 now IPC :1.84197: AVG IPC :1.88468: L2-Pf-HR :0.96237: L2-HR :0.88869: (Sim:0h45m10s) 
CPU  0 inst:  372000002 cyc:  197322128 now IPC :1.86879: AVG IPC :1.88463: L2-Pf-HR :0.96231: L2-HR :0.88861: (Sim:0h45m24s) 
CPU  0 inst:  373000000 cyc:  197858282 now IPC :1.86513: AVG IPC :1.88458: L2-Pf-HR :0.96231: L2-HR :0.88859: (Sim:0h45m37s) 
CPU  0 inst:  374000004 cyc:  198397159 now IPC :1.85572: AVG IPC :1.88450: L2-Pf-HR :0.96231: L2-HR :0.88857: (Sim:0h45m51s) 
CPU  0 inst:  375000002 cyc:  198938400 now IPC :1.84760: AVG IPC :1.88440: L2-Pf-HR :0.96231: L2-HR :0.88856: (Sim:0h46m4s) 
CPU  0 inst:  376000000 cyc:  199624227 now IPC :1.45809: AVG IPC :1.88293: L2-Pf-HR :0.96229: L2-HR :0.88851: (Sim:0h46m17s) 
CPU  0 inst:  377000002 cyc:  200120416 now IPC :2.01537: AVG IPC :1.88326: L2-Pf-HR :0.96228: L2-HR :0.88849: (Sim:0h46m30s) 
CPU  0 inst:  378000002 cyc:  200623073 now IPC :1.98943: AVG IPC :1.88352: L2-Pf-HR :0.96226: L2-HR :0.88848: (Sim:0h46m43s) 
CPU  0 inst:  379000003 cyc:  201118627 now IPC :2.01795: AVG IPC :1.88386: L2-Pf-HR :0.96222: L2-HR :0.88844: (Sim:0h46m56s) 
CPU  0 inst:  380000003 cyc:  201669528 now IPC :1.81521: AVG IPC :1.88367: L2-Pf-HR :0.96216: L2-HR :0.88837: (Sim:0h47m9s) 
CPU  0 inst:  381000003 cyc:  202170895 now IPC :1.99455: AVG IPC :1.88395: L2-Pf-HR :0.96211: L2-HR :0.88832: (Sim:0h47m22s) 
CPU  0 inst:  382000000 cyc:  202757085 now IPC :1.70593: AVG IPC :1.88343: L2-Pf-HR :0.96214: L2-HR :0.88837: (Sim:0h47m35s) 
CPU  0 inst:  383000001 cyc:  203248885 now IPC :2.03335: AVG IPC :1.88379: L2-Pf-HR :0.96208: L2-HR :0.88831: (Sim:0h47m48s) 
CPU  0 inst:  384000000 cyc:  203741284 now IPC :2.03087: AVG IPC :1.88415: L2-Pf-HR :0.96203: L2-HR :0.88826: (Sim:0h48m1s) 
CPU  0 inst:  385000000 cyc:  204232788 now IPC :2.03457: AVG IPC :1.88451: L2-Pf-HR :0.96210: L2-HR :0.88834: (Sim:0h48m14s) 
CPU  0 inst:  386000000 cyc:  204723208 now IPC :2.03907: AVG IPC :1.88489: L2-Pf-HR :0.96206: L2-HR :0.88831: (Sim:0h48m27s) 
CPU  0 inst:  387000001 cyc:  205216997 now IPC :2.02516: AVG IPC :1.88522: L2-Pf-HR :0.96203: L2-HR :0.88828: (Sim:0h48m40s) 
CPU  0 inst:  388000002 cyc:  205871077 now IPC :1.52887: AVG IPC :1.88409: L2-Pf-HR :0.96198: L2-HR :0.88821: (Sim:0h48m50s) 
CPU  0 inst:  389000001 cyc:  206371933 now IPC :1.99658: AVG IPC :1.88436: L2-Pf-HR :0.96192: L2-HR :0.88814: (Sim:0h49m2s) 
CPU  0 inst:  390000001 cyc:  206889557 now IPC :1.93190: AVG IPC :1.88448: L2-Pf-HR :0.96188: L2-HR :0.88809: (Sim:0h49m14s) 
CPU  0 inst:  391000005 cyc:  207384125 now IPC :2.02197: AVG IPC :1.88481: L2-Pf-HR :0.96183: L2-HR :0.88805: (Sim:0h49m27s) 
CPU  0 inst:  392000000 cyc:  207884195 now IPC :1.99971: AVG IPC :1.88509: L2-Pf-HR :0.96178: L2-HR :0.88799: (Sim:0h49m40s) 
CPU  0 inst:  393000000 cyc:  208372092 now IPC :2.04961: AVG IPC :1.88548: L2-Pf-HR :0.96172: L2-HR :0.88795: (Sim:0h49m53s) 
CPU  0 inst:  394000005 cyc:  208955573 now IPC :1.71386: AVG IPC :1.88499: L2-Pf-HR :0.96174: L2-HR :0.88798: (Sim:0h50m6s) 
CPU  0 inst:  395000005 cyc:  209448715 now IPC :2.02781: AVG IPC :1.88533: L2-Pf-HR :0.96170: L2-HR :0.88792: (Sim:0h50m18s) 
CPU  0 inst:  396000005 cyc:  209950445 now IPC :1.99310: AVG IPC :1.88559: L2-Pf-HR :0.96168: L2-HR :0.88790: (Sim:0h50m31s) 
CPU  0 inst:  397000003 cyc:  210449958 now IPC :2.00195: AVG IPC :1.88587: L2-Pf-HR :0.96165: L2-HR :0.88788: (Sim:0h50m45s) 
CPU  0 inst:  398000003 cyc:  210948897 now IPC :2.00425: AVG IPC :1.88615: L2-Pf-HR :0.96162: L2-HR :0.88785: (Sim:0h50m58s) 
CPU  0 inst:  399000001 cyc:  211442643 now IPC :2.02533: AVG IPC :1.88648: L2-Pf-HR :0.96156: L2-HR :0.88778: (Sim:0h51m11s) 
CPU  0 inst:  400000000 cyc:  212103802 now IPC :1.51249: AVG IPC :1.88530: L2-Pf-HR :0.96156: L2-HR :0.88776: (Sim:0h51m24s) 
CPU  0 inst:  401000003 cyc:  212599490 now IPC :2.01740: AVG IPC :1.88561: L2-Pf-HR :0.96154: L2-HR :0.88774: (Sim:0h51m37s) 
CPU  0 inst:  402000001 cyc:  213095434 now IPC :2.01635: AVG IPC :1.88592: L2-Pf-HR :0.96148: L2-HR :0.88767: (Sim:0h51m50s) 
CPU  0 inst:  403000001 cyc:  213592464 now IPC :2.01195: AVG IPC :1.88621: L2-Pf-HR :0.96145: L2-HR :0.88765: (Sim:0h52m4s) 
CPU  0 inst:  404000001 cyc:  214090101 now IPC :2.00950: AVG IPC :1.88650: L2-Pf-HR :0.96139: L2-HR :0.88758: (Sim:0h52m17s) 
CPU  0 inst:  405000005 cyc:  214584913 now IPC :2.02098: AVG IPC :1.88681: L2-Pf-HR :0.96136: L2-HR :0.88756: (Sim:0h52m30s) 
CPU  0 inst:  406000001 cyc:  215164831 now IPC :1.72437: AVG IPC :1.88637: L2-Pf-HR :0.96138: L2-HR :0.88758: (Sim:0h52m43s) 
CPU  0 inst:  407000001 cyc:  215658646 now IPC :2.02505: AVG IPC :1.88669: L2-Pf-HR :0.96137: L2-HR :0.88758: (Sim:0h52m56s) 
CPU  0 inst:  408000000 cyc:  216155070 now IPC :2.01441: AVG IPC :1.88699: L2-Pf-HR :0.96135: L2-HR :0.88755: (Sim:0h53m9s) 
CPU  0 inst:  409000005 cyc:  216651501 now IPC :2.01439: AVG IPC :1.88728: L2-Pf-HR :0.96129: L2-HR :0.88749: (Sim:0h53m22s) 
CPU  0 inst:  410000003 cyc:  217165918 now IPC :1.94394: AVG IPC :1.88742: L2-Pf-HR :0.96130: L2-HR :0.88751: (Sim:0h53m35s) 
CPU  0 inst:  411000001 cyc:  217663112 now IPC :2.01128: AVG IPC :1.88770: L2-Pf-HR :0.96128: L2-HR :0.88749: (Sim:0h53m49s) 
CPU  0 inst:  412000002 cyc:  218329328 now IPC :1.50102: AVG IPC :1.88651: L2-Pf-HR :0.96126: L2-HR :0.88745: (Sim:0h54m2s) 
CPU  0 inst:  413000000 cyc:  218820504 now IPC :2.03593: AVG IPC :1.88685: L2-Pf-HR :0.96119: L2-HR :0.88737: (Sim:0h54m15s) 
CPU  0 inst:  414000000 cyc:  219319857 now IPC :2.00259: AVG IPC :1.88712: L2-Pf-HR :0.96116: L2-HR :0.88735: (Sim:0h54m29s) 
CPU  0 inst:  415000000 cyc:  219817693 now IPC :2.00869: AVG IPC :1.88739: L2-Pf-HR :0.96117: L2-HR :0.88735: (Sim:0h54m42s) 
CPU  0 inst:  416000000 cyc:  220310401 now IPC :2.02960: AVG IPC :1.88771: L2-Pf-HR :0.96132: L2-HR :0.88755: (Sim:0h54m54s) 
CPU  0 inst:  417000001 cyc:  220821386 now IPC :1.95701: AVG IPC :1.88787: L2-Pf-HR :0.96146: L2-HR :0.88774: (Sim:0h55m7s) 
CPU  0 inst:  418000003 cyc:  221398306 now IPC :1.73335: AVG IPC :1.88747: L2-Pf-HR :0.96144: L2-HR :0.88772: (Sim:0h55m19s) 
CPU  0 inst:  419000000 cyc:  221894706 now IPC :2.01450: AVG IPC :1.88775: L2-Pf-HR :0.96138: L2-HR :0.88765: (Sim:0h55m29s) 
CPU  0 inst:  420000004 cyc:  222397228 now IPC :1.98997: AVG IPC :1.88799: L2-Pf-HR :0.96138: L2-HR :0.88764: (Sim:0h55m42s) 
CPU  0 inst:  421000005 cyc:  222894651 now IPC :2.01036: AVG IPC :1.88826: L2-Pf-HR :0.96133: L2-HR :0.88759: (Sim:0h55m55s) 
CPU  0 inst:  422000003 cyc:  223422902 now IPC :1.89304: AVG IPC :1.88827: L2-Pf-HR :0.96140: L2-HR :0.88769: (Sim:0h56m7s) 
CPU  0 inst:  423000004 cyc:  223920857 now IPC :2.00822: AVG IPC :1.88854: L2-Pf-HR :0.96138: L2-HR :0.88767: (Sim:0h56m16s) 
CPU  0 inst:  424000000 cyc:  224482265 now IPC :1.78123: AVG IPC :1.88827: L2-Pf-HR :0.96131: L2-HR :0.88758: (Sim:0h56m28s) 
CPU  0 inst:  425000001 cyc:  224975836 now IPC :2.02605: AVG IPC :1.88857: L2-Pf-HR :0.96121: L2-HR :0.88746: (Sim:0h56m40s) 
CPU  0 inst:  426000000 cyc:  225471670 now IPC :2.01680: AVG IPC :1.88886: L2-Pf-HR :0.96112: L2-HR :0.88735: (Sim:0h56m52s) 
CPU  0 inst:  427000000 cyc:  225942917 now IPC :2.12203: AVG IPC :1.88935: L2-Pf-HR :0.96102: L2-HR :0.88723: (Sim:0h57m4s) 
CPU  0 inst:  428000004 cyc:  226582914 now IPC :1.56251: AVG IPC :1.88842: L2-Pf-HR :0.96095: L2-HR :0.88708: (Sim:0h57m18s) 
CPU  0 inst:  429000002 cyc:  227108282 now IPC :1.90342: AVG IPC :1.88845: L2-Pf-HR :0.96092: L2-HR :0.88703: (Sim:0h57m31s) 
CPU  0 inst:  430000001 cyc:  227646683 now IPC :1.85735: AVG IPC :1.88838: L2-Pf-HR :0.96089: L2-HR :0.88698: (Sim:0h57m44s) 
CPU  0 inst:  431000000 cyc:  228177589 now IPC :1.88357: AVG IPC :1.88837: L2-Pf-HR :0.96085: L2-HR :0.88692: (Sim:0h57m57s) 
CPU  0 inst:  432000000 cyc:  228760803 now IPC :1.71464: AVG IPC :1.88792: L2-Pf-HR :0.96086: L2-HR :0.88691: (Sim:0h58m11s) 
CPU  0 inst:  433000002 cyc:  229272944 now IPC :1.95259: AVG IPC :1.88807: L2-Pf-HR :0.96086: L2-HR :0.88689: (Sim:0h58m24s) 
CPU  0 inst:  434000003 cyc:  229875467 now IPC :1.65969: AVG IPC :1.88747: L2-Pf-HR :0.96091: L2-HR :0.88695: (Sim:0h58m37s) 
CPU  0 inst:  435000004 cyc:  230414073 now IPC :1.85665: AVG IPC :1.88739: L2-Pf-HR :0.96087: L2-HR :0.88689: (Sim:0h58m50s) 
CPU  0 inst:  436000002 cyc:  230945470 now IPC :1.88183: AVG IPC :1.88738: L2-Pf-HR :0.96087: L2-HR :0.88688: (Sim:0h59m3s) 
CPU  0 inst:  437000000 cyc:  231483741 now IPC :1.85780: AVG IPC :1.88731: L2-Pf-HR :0.96092: L2-HR :0.88692: (Sim:0h59m17s) 
CPU  0 inst:  438000004 cyc:  232020981 now IPC :1.86137: AVG IPC :1.88725: L2-Pf-HR :0.96087: L2-HR :0.88685: (Sim:0h59m30s) 
CPU  0 inst:  439000005 cyc:  232556483 now IPC :1.86741: AVG IPC :1.88721: L2-Pf-HR :0.96085: L2-HR :0.88681: (Sim:0h59m41s) 
CPU  0 inst:  440000000 cyc:  233245806 now IPC :1.45069: AVG IPC :1.88591: L2-Pf-HR :0.96083: L2-HR :0.88676: (Sim:0h59m55s) 
CPU  0 inst:  441000003 cyc:  233752114 now IPC :1.97509: AVG IPC :1.88611: L2-Pf-HR :0.96081: L2-HR :0.88675: (Sim:1h0m8s) 
CPU  0 inst:  442000001 cyc:  234254120 now IPC :1.99200: AVG IPC :1.88633: L2-Pf-HR :0.96076: L2-HR :0.88669: (Sim:1h0m19s) 
CPU  0 inst:  443000001 cyc:  234762969 now IPC :1.96522: AVG IPC :1.88650: L2-Pf-HR :0.96080: L2-HR :0.88674: (Sim:1h0m30s) 
CPU  0 inst:  444000002 cyc:  235276668 now IPC :1.94667: AVG IPC :1.88664: L2-Pf-HR :0.96088: L2-HR :0.88685: (Sim:1h0m43s) 
CPU  0 inst:  445000001 cyc:  235790879 now IPC :1.94473: AVG IPC :1.88676: L2-Pf-HR :0.96085: L2-HR :0.88683: (Sim:1h0m54s) 
CPU  0 inst:  446000001 cyc:  236370971 now IPC :1.72386: AVG IPC :1.88636: L2-Pf-HR :0.96083: L2-HR :0.88681: (Sim:1h1m6s) 
CPU  0 inst:  447000001 cyc:  236868087 now IPC :2.01160: AVG IPC :1.88663: L2-Pf-HR :0.96083: L2-HR :0.88681: (Sim:1h1m19s) 
CPU  0 inst:  448000000 cyc:  237363252 now IPC :2.01953: AVG IPC :1.88690: L2-Pf-HR :0.96077: L2-HR :0.88676: (Sim:1h1m31s) 
CPU  0 inst:  449000005 cyc:  237855619 now IPC :2.03102: AVG IPC :1.88720: L2-Pf-HR :0.96075: L2-HR :0.88673: (Sim:1h1m39s) 
CPU  0 inst:  450000001 cyc:  238351699 now IPC :2.01580: AVG IPC :1.88747: L2-Pf-HR :0.96080: L2-HR :0.88681: (Sim:1h1m52s) 
CPU  0 inst:  451000005 cyc:  238849529 now IPC :2.00873: AVG IPC :1.88773: L2-Pf-HR :0.96075: L2-HR :0.88676: (Sim:1h2m5s) 
CPU  0 inst:  452000002 cyc:  239493852 now IPC :1.55201: AVG IPC :1.88682: L2-Pf-HR :0.96075: L2-HR :0.88674: (Sim:1h2m18s) 
CPU  0 inst:  453000002 cyc:  239997454 now IPC :1.98570: AVG IPC :1.88703: L2-Pf-HR :0.96073: L2-HR :0.88672: (Sim:1h2m31s) 
CPU  0 inst:  454000000 cyc:  240490745 now IPC :2.02720: AVG IPC :1.88732: L2-Pf-HR :0.96067: L2-HR :0.88666: (Sim:1h2m44s) 
CPU  0 inst:  455000004 cyc:  240989760 now IPC :2.00396: AVG IPC :1.88756: L2-Pf-HR :0.96068: L2-HR :0.88667: (Sim:1h2m57s) 
CPU  0 inst:  456000000 cyc:  241521289 now IPC :1.88136: AVG IPC :1.88755: L2-Pf-HR :0.96083: L2-HR :0.88686: (Sim:1h3m10s) 
CPU  0 inst:  457000001 cyc:  242034899 now IPC :1.94700: AVG IPC :1.88767: L2-Pf-HR :0.96081: L2-HR :0.88684: (Sim:1h3m22s) 
CPU  0 inst:  458000003 cyc:  242620140 now IPC :1.70870: AVG IPC :1.88724: L2-Pf-HR :0.96083: L2-HR :0.88688: (Sim:1h3m34s) 
CPU  0 inst:  459000003 cyc:  243118676 now IPC :2.00587: AVG IPC :1.88748: L2-Pf-HR :0.96081: L2-HR :0.88685: (Sim:1h3m47s) 
CPU  0 inst:  460000004 cyc:  243626740 now IPC :1.96826: AVG IPC :1.88765: L2-Pf-HR :0.96079: L2-HR :0.88683: (Sim:1h4m0s) 
CPU  0 inst:  461000005 cyc:  244123887 now IPC :2.01148: AVG IPC :1.88791: L2-Pf-HR :0.96075: L2-HR :0.88679: (Sim:1h4m13s) 
CPU  0 inst:  462000004 cyc:  244625164 now IPC :1.99490: AVG IPC :1.88813: L2-Pf-HR :0.96075: L2-HR :0.88680: (Sim:1h4m26s) 
CPU  0 inst:  463000004 cyc:  245125897 now IPC :1.99707: AVG IPC :1.88835: L2-Pf-HR :0.96073: L2-HR :0.88678: (Sim:1h4m39s) 
CPU  0 inst:  464000000 cyc:  245775902 now IPC :1.53844: AVG IPC :1.88742: L2-Pf-HR :0.96070: L2-HR :0.88673: (Sim:1h4m52s) 
CPU  0 inst:  465000002 cyc:  246278520 now IPC :1.98959: AVG IPC :1.88763: L2-Pf-HR :0.96080: L2-HR :0.88685: (Sim:1h5m4s) 
CPU  0 inst:  466000001 cyc:  246963477 now IPC :1.45994: AVG IPC :1.88644: L2-Pf-HR :0.96095: L2-HR :0.88704: (Sim:1h5m18s) 
CPU  0 inst:  467000004 cyc:  247685093 now IPC :1.38578: AVG IPC :1.88497: L2-Pf-HR :0.96109: L2-HR :0.88722: (Sim:1h5m31s) 
CPU  0 inst:  468000002 cyc:  248309706 now IPC :1.60099: AVG IPC :1.88426: L2-Pf-HR :0.96124: L2-HR :0.88741: (Sim:1h5m45s) 
CPU  0 inst:  469000002 cyc:  248850078 now IPC :1.85058: AVG IPC :1.88418: L2-Pf-HR :0.96138: L2-HR :0.88759: (Sim:1h5m58s) 
CPU  0 inst:  470000002 cyc:  249437922 now IPC :1.70113: AVG IPC :1.88375: L2-Pf-HR :0.96146: L2-HR :0.88770: (Sim:1h6m8s) 
CPU  0 inst:  471000005 cyc:  249939877 now IPC :1.99222: AVG IPC :1.88397: L2-Pf-HR :0.96155: L2-HR :0.88781: (Sim:1h6m19s) 
CPU  0 inst:  472000000 cyc:  250448363 now IPC :1.96661: AVG IPC :1.88414: L2-Pf-HR :0.96159: L2-HR :0.88788: (Sim:1h6m33s) 
CPU  0 inst:  473000000 cyc:  250946570 now IPC :2.00720: AVG IPC :1.88438: L2-Pf-HR :0.96155: L2-HR :0.88783: (Sim:1h6m47s) 
CPU  0 inst:  474000003 cyc:  251451326 now IPC :1.98116: AVG IPC :1.88458: L2-Pf-HR :0.96156: L2-HR :0.88785: (Sim:1h7m0s) 
CPU  0 inst:  475000000 cyc:  251969709 now IPC :1.92907: AVG IPC :1.88467: L2-Pf-HR :0.96165: L2-HR :0.88796: (Sim:1h7m12s) 
CPU  0 inst:  476000000 cyc:  252632971 now IPC :1.50770: AVG IPC :1.88368: L2-Pf-HR :0.96161: L2-HR :0.88790: (Sim:1h7m25s) 
CPU  0 inst:  477000002 cyc:  253134853 now IPC :1.99250: AVG IPC :1.88389: L2-Pf-HR :0.96156: L2-HR :0.88785: (Sim:1h7m37s) 
CPU  0 inst:  478000005 cyc:  253631296 now IPC :2.01434: AVG IPC :1.88415: L2-Pf-HR :0.96154: L2-HR :0.88782: (Sim:1h7m46s) 
CPU  0 inst:  479000004 cyc:  254137958 now IPC :1.97370: AVG IPC :1.88433: L2-Pf-HR :0.96157: L2-HR :0.88786: (Sim:1h8m0s) 
CPU  0 inst:  480000000 cyc:  254644608 now IPC :1.97374: AVG IPC :1.88451: L2-Pf-HR :0.96171: L2-HR :0.88803: (Sim:1h8m13s) 
CPU  0 inst:  481000004 cyc:  255151023 now IPC :1.97467: AVG IPC :1.88469: L2-Pf-HR :0.96171: L2-HR :0.88804: (Sim:1h8m26s) 
CPU  0 inst:  482000004 cyc:  255736173 now IPC :1.70896: AVG IPC :1.88428: L2-Pf-HR :0.96173: L2-HR :0.88807: (Sim:1h8m37s) 
CPU  0 inst:  483000003 cyc:  256227106 now IPC :2.03694: AVG IPC :1.88458: L2-Pf-HR :0.96171: L2-HR :0.88804: (Sim:1h8m50s) 
CPU  0 inst:  484000002 cyc:  256729883 now IPC :1.98895: AVG IPC :1.88478: L2-Pf-HR :0.96168: L2-HR :0.88802: (Sim:1h9m3s) 
CPU  0 inst:  485000002 cyc:  257223159 now IPC :2.02726: AVG IPC :1.88506: L2-Pf-HR :0.96167: L2-HR :0.88801: (Sim:1h9m15s) 
CPU  0 inst:  486000002 cyc:  257736677 now IPC :1.94735: AVG IPC :1.88518: L2-Pf-HR :0.96180: L2-HR :0.88818: (Sim:1h9m27s) 
CPU  0 inst:  487000002 cyc:  258237587 now IPC :1.99637: AVG IPC :1.88540: L2-Pf-HR :0.96174: L2-HR :0.88812: (Sim:1h9m40s) 
CPU  0 inst:  488000000 cyc:  258814945 now IPC :1.73202: AVG IPC :1.88505: L2-Pf-HR :0.96174: L2-HR :0.88810: (Sim:1h9m54s) 
CPU  0 inst:  489000000 cyc:  259307567 now IPC :2.02995: AVG IPC :1.88533: L2-Pf-HR :0.96165: L2-HR :0.88800: (Sim:1h10m6s) 
CPU  0 inst:  490000003 cyc:  259815647 now IPC :1.96820: AVG IPC :1.88549: L2-Pf-HR :0.96157: L2-HR :0.88790: (Sim:1h10m19s) 
CPU  0 inst:  491000001 cyc:  260294609 now IPC :2.08784: AVG IPC :1.88587: L2-Pf-HR :0.96148: L2-HR :0.88780: (Sim:1h10m32s) 
CPU  0 inst:  492000000 cyc:  260937905 now IPC :1.55449: AVG IPC :1.88505: L2-Pf-HR :0.96141: L2-HR :0.88766: (Sim:1h10m46s) 
CPU  0 inst:  493000001 cyc:  261453430 now IPC :1.93977: AVG IPC :1.88515: L2-Pf-HR :0.96142: L2-HR :0.88766: (Sim:1h10m57s) 
CPU  0 inst:  494000005 cyc:  261987082 now IPC :1.87389: AVG IPC :1.88513: L2-Pf-HR :0.96140: L2-HR :0.88761: (Sim:1h11m8s) 
CPU  0 inst:  495000000 cyc:  262525095 now IPC :1.85868: AVG IPC :1.88508: L2-Pf-HR :0.96135: L2-HR :0.88755: (Sim:1h11m21s) 
CPU  0 inst:  496000000 cyc:  263064004 now IPC :1.85560: AVG IPC :1.88502: L2-Pf-HR :0.96138: L2-HR :0.88756: (Sim:1h11m35s) 
CPU  0 inst:  497000004 cyc:  263575939 now IPC :1.95338: AVG IPC :1.88515: L2-Pf-HR :0.96137: L2-HR :0.88754: (Sim:1h11m48s) 
CPU  0 inst:  498000005 cyc:  264173358 now IPC :1.67387: AVG IPC :1.88467: L2-Pf-HR :0.96137: L2-HR :0.88754: (Sim:1h12m1s) 
CPU  0 inst:  499000000 cyc:  264732319 now IPC :1.78902: AVG IPC :1.88447: L2-Pf-HR :0.96144: L2-HR :0.88761: (Sim:1h12m14s) 
CPU  0 inst:  500000002 cyc:  265326250 now IPC :1.68370: AVG IPC :1.88402: L2-Pf-HR :0.96157: L2-HR :0.88775: (Sim:1h12m27s) 
CPU  0 inst:  501000000 cyc:  265930307 now IPC :1.65547: AVG IPC :1.88350: L2-Pf-HR :0.96169: L2-HR :0.88789: (Sim:1h12m40s) 
CPU  0 inst:  502000004 cyc:  266527742 now IPC :1.67383: AVG IPC :1.88302: L2-Pf-HR :0.96180: L2-HR :0.88801: (Sim:1h12m54s) 
CPU  0 inst:  503000005 cyc:  267142440 now IPC :1.62682: AVG IPC :1.88243: L2-Pf-HR :0.96192: L2-HR :0.88814: (Sim:1h13m7s) 
CPU  0 inst:  504000000 cyc:  267840315 now IPC :1.43291: AVG IPC :1.88126: L2-Pf-HR :0.96200: L2-HR :0.88822: (Sim:1h13m19s) 
CPU  0 inst:  505000003 cyc:  268372162 now IPC :1.88025: AVG IPC :1.88125: L2-Pf-HR :0.96205: L2-HR :0.88828: (Sim:1h13m28s) 
CPU  0 inst:  506000002 cyc:  268958298 now IPC :1.70609: AVG IPC :1.88087: L2-Pf-HR :0.96217: L2-HR :0.88844: (Sim:1h13m40s) 
CPU  0 inst:  507000002 cyc:  269548331 now IPC :1.69482: AVG IPC :1.88046: L2-Pf-HR :0.96230: L2-HR :0.88860: (Sim:1h13m52s) 
CPU  0 inst:  508000002 cyc:  270136392 now IPC :1.70050: AVG IPC :1.88007: L2-Pf-HR :0.96239: L2-HR :0.88872: (Sim:1h14m5s) 
CPU  0 inst:  509000002 cyc:  270651265 now IPC :1.94223: AVG IPC :1.88019: L2-Pf-HR :0.96237: L2-HR :0.88870: (Sim:1h14m16s) 
CPU  0 inst:  510000002 cyc:  271253618 now IPC :1.66016: AVG IPC :1.87970: L2-Pf-HR :0.96237: L2-HR :0.88870: (Sim:1h14m26s) 
CPU  0 inst:  511000000 cyc:  271749819 now IPC :2.01531: AVG IPC :1.87995: L2-Pf-HR :0.96234: L2-HR :0.88867: (Sim:1h14m34s) 
CPU  0 inst:  512000000 cyc:  272294345 now IPC :1.83646: AVG IPC :1.87986: L2-Pf-HR :0.96238: L2-HR :0.88872: (Sim:1h14m44s) 
CPU  0 inst:  513000000 cyc:  272812547 now IPC :1.92975: AVG IPC :1.87995: L2-Pf-HR :0.96237: L2-HR :0.88873: (Sim:1h14m57s) 
CPU  0 inst:  514000003 cyc:  273382576 now IPC :1.75430: AVG IPC :1.87969: L2-Pf-HR :0.96249: L2-HR :0.88888: (Sim:1h15m11s) 
CPU  0 inst:  515000000 cyc:  273893291 now IPC :1.95803: AVG IPC :1.87984: L2-Pf-HR :0.96245: L2-HR :0.88884: (Sim:1h15m24s) 
CPU  0 inst:  516000003 cyc:  274543033 now IPC :1.53908: AVG IPC :1.87903: L2-Pf-HR :0.96247: L2-HR :0.88884: (Sim:1h15m37s) 
CPU  0 inst:  517000002 cyc:  275048762 now IPC :1.97734: AVG IPC :1.87921: L2-Pf-HR :0.96246: L2-HR :0.88884: (Sim:1h15m50s) 
CPU  0 inst:  518000004 cyc:  275558456 now IPC :1.96197: AVG IPC :1.87936: L2-Pf-HR :0.96244: L2-HR :0.88882: (Sim:1h16m3s) 
CPU  0 inst:  519000004 cyc:  276075674 now IPC :1.93342: AVG IPC :1.87946: L2-Pf-HR :0.96243: L2-HR :0.88881: (Sim:1h16m15s) 
CPU  0 inst:  520000000 cyc:  276620891 now IPC :1.83412: AVG IPC :1.87937: L2-Pf-HR :0.96251: L2-HR :0.88891: (Sim:1h16m27s) 
CPU  0 inst:  521000004 cyc:  277132089 now IPC :1.95620: AVG IPC :1.87952: L2-Pf-HR :0.96249: L2-HR :0.88890: (Sim:1h16m40s) 
CPU  0 inst:  522000003 cyc:  277712050 now IPC :1.72425: AVG IPC :1.87919: L2-Pf-HR :0.96248: L2-HR :0.88889: (Sim:1h16m53s) 
CPU  0 inst:  523000002 cyc:  278219416 now IPC :1.97096: AVG IPC :1.87936: L2-Pf-HR :0.96247: L2-HR :0.88888: (Sim:1h17m6s) 
CPU  0 inst:  524000005 cyc:  278739641 now IPC :1.92225: AVG IPC :1.87944: L2-Pf-HR :0.96247: L2-HR :0.88888: (Sim:1h17m19s) 
CPU  0 inst:  525000002 cyc:  279261940 now IPC :1.91461: AVG IPC :1.87951: L2-Pf-HR :0.96247: L2-HR :0.88888: (Sim:1h17m32s) 
CPU  0 inst:  526000002 cyc:  279782649 now IPC :1.92046: AVG IPC :1.87958: L2-Pf-HR :0.96247: L2-HR :0.88890: (Sim:1h17m44s) 
CPU  0 inst:  527000002 cyc:  280296412 now IPC :1.94642: AVG IPC :1.87971: L2-Pf-HR :0.96245: L2-HR :0.88888: (Sim:1h17m57s) 
CPU  0 inst:  528000000 cyc:  280974765 now IPC :1.47416: AVG IPC :1.87872: L2-Pf-HR :0.96253: L2-HR :0.88896: (Sim:1h18m11s) 
CPU  0 inst:  529000003 cyc:  281482826 now IPC :1.96827: AVG IPC :1.87889: L2-Pf-HR :0.96258: L2-HR :0.88903: (Sim:1h18m24s) 
CPU  0 inst:  530000003 cyc:  281985196 now IPC :1.99056: AVG IPC :1.87908: L2-Pf-HR :0.96255: L2-HR :0.88899: (Sim:1h18m37s) 
CPU  0 inst:  531000002 cyc:  282501341 now IPC :1.93744: AVG IPC :1.87919: L2-Pf-HR :0.96261: L2-HR :0.88908: (Sim:1h18m50s) 
CPU  0 inst:  532000003 cyc:  283118373 now IPC :1.62066: AVG IPC :1.87863: L2-Pf-HR :0.96274: L2-HR :0.88924: (Sim:1h19m3s) 
CPU  0 inst:  533000002 cyc:  283740855 now IPC :1.60647: AVG IPC :1.87803: L2-Pf-HR :0.96286: L2-HR :0.88940: (Sim:1h19m16s) 
CPU  0 inst:  534000002 cyc:  284357916 now IPC :1.62059: AVG IPC :1.87747: L2-Pf-HR :0.96295: L2-HR :0.88952: (Sim:1h19m30s) 
CPU  0 inst:  535000001 cyc:  284870785 now IPC :1.94981: AVG IPC :1.87760: L2-Pf-HR :0.96301: L2-HR :0.88960: (Sim:1h19m42s) 
CPU  0 inst:  536000000 cyc:  285436563 now IPC :1.76748: AVG IPC :1.87738: L2-Pf-HR :0.96312: L2-HR :0.88974: (Sim:1h19m55s) 
CPU  0 inst:  537000004 cyc:  285949342 now IPC :1.95017: AVG IPC :1.87751: L2-Pf-HR :0.96307: L2-HR :0.88970: (Sim:1h20m8s) 
CPU  0 inst:  538000004 cyc:  286501891 now IPC :1.80979: AVG IPC :1.87738: L2-Pf-HR :0.96316: L2-HR :0.88980: (Sim:1h20m21s) 
CPU  0 inst:  539000005 cyc:  287006555 now IPC :1.98152: AVG IPC :1.87756: L2-Pf-HR :0.96309: L2-HR :0.88974: (Sim:1h20m34s) 
CPU  0 inst:  540000005 cyc:  287685970 now IPC :1.47185: AVG IPC :1.87660: L2-Pf-HR :0.96310: L2-HR :0.88972: (Sim:1h20m48s) 
CPU  0 inst:  541000005 cyc:  288211250 now IPC :1.90375: AVG IPC :1.87665: L2-Pf-HR :0.96316: L2-HR :0.88980: (Sim:1h21m1s) 
CPU  0 inst:  542000005 cyc:  288812997 now IPC :1.66183: AVG IPC :1.87620: L2-Pf-HR :0.96326: L2-HR :0.88994: (Sim:1h21m14s) 
CPU  0 inst:  543000005 cyc:  289427764 now IPC :1.62663: AVG IPC :1.87567: L2-Pf-HR :0.96337: L2-HR :0.89007: (Sim:1h21m26s) 
CPU  0 inst:  544000000 cyc:  290040839 now IPC :1.63111: AVG IPC :1.87515: L2-Pf-HR :0.96348: L2-HR :0.89021: (Sim:1h21m38s) 
CPU  0 inst:  545000005 cyc:  290654135 now IPC :1.63054: AVG IPC :1.87463: L2-Pf-HR :0.96359: L2-HR :0.89035: (Sim:1h21m51s) 
CPU  0 inst:  546000003 cyc:  291287863 now IPC :1.57796: AVG IPC :1.87398: L2-Pf-HR :0.96366: L2-HR :0.89045: (Sim:1h22m4s) 
CPU  0 inst:  547000003 cyc:  291818841 now IPC :1.88332: AVG IPC :1.87400: L2-Pf-HR :0.96373: L2-HR :0.89054: (Sim:1h22m13s) 
CPU  0 inst:  548000003 cyc:  292393138 now IPC :1.74126: AVG IPC :1.87374: L2-Pf-HR :0.96384: L2-HR :0.89067: (Sim:1h22m24s) 
CPU  0 inst:  549000003 cyc:  292968401 now IPC :1.73834: AVG IPC :1.87347: L2-Pf-HR :0.96394: L2-HR :0.89081: (Sim:1h22m38s) 
CPU  0 inst:  550000002 cyc:  293524182 now IPC :1.79927: AVG IPC :1.87333: L2-Pf-HR :0.96405: L2-HR :0.89094: (Sim:1h22m51s) 
CPU  0 inst:  551000004 cyc:  294060215 now IPC :1.86556: AVG IPC :1.87332: L2-Pf-HR :0.96407: L2-HR :0.89098: (Sim:1h23m4s) 
CPU  0 inst:  552000000 cyc:  294687833 now IPC :1.59332: AVG IPC :1.87272: L2-Pf-HR :0.96413: L2-HR :0.89105: (Sim:1h23m18s) 
CPU  0 inst:  553000003 cyc:  295188767 now IPC :1.99628: AVG IPC :1.87293: L2-Pf-HR :0.96406: L2-HR :0.89097: (Sim:1h23m31s) 
CPU  0 inst:  554000002 cyc:  295701189 now IPC :1.95151: AVG IPC :1.87307: L2-Pf-HR :0.96399: L2-HR :0.89088: (Sim:1h23m44s) 
CPU  0 inst:  555000003 cyc:  296179036 now IPC :2.09272: AVG IPC :1.87342: L2-Pf-HR :0.96392: L2-HR :0.89079: (Sim:1h23m55s) 
CPU  0 inst:  556000000 cyc:  296821120 now IPC :1.55742: AVG IPC :1.87274: L2-Pf-HR :0.96386: L2-HR :0.89067: (Sim:1h24m9s) 
CPU  0 inst:  557000001 cyc:  297343188 now IPC :1.91546: AVG IPC :1.87281: L2-Pf-HR :0.96384: L2-HR :0.89064: (Sim:1h24m22s) 
CPU  0 inst:  558000005 cyc:  297882527 now IPC :1.85413: AVG IPC :1.87278: L2-Pf-HR :0.96382: L2-HR :0.89060: (Sim:1h24m35s) 
CPU  0 inst:  559000000 cyc:  298416409 now IPC :1.87306: AVG IPC :1.87278: L2-Pf-HR :0.96378: L2-HR :0.89055: (Sim:1h24m48s) 
CPU  0 inst:  560000000 cyc:  298978789 now IPC :1.77816: AVG IPC :1.87260: L2-Pf-HR :0.96376: L2-HR :0.89051: (Sim:1h25m2s) 
CPU  0 inst:  561000002 cyc:  299508002 now IPC :1.88960: AVG IPC :1.87263: L2-Pf-HR :0.96376: L2-HR :0.89050: (Sim:1h25m15s) 
CPU  0 inst:  562000001 cyc:  300106574 now IPC :1.67064: AVG IPC :1.87223: L2-Pf-HR :0.96375: L2-HR :0.89048: (Sim:1h25m28s) 
CPU  0 inst:  563000001 cyc:  300639018 now IPC :1.87813: AVG IPC :1.87224: L2-Pf-HR :0.96371: L2-HR :0.89043: (Sim:1h25m42s) 
CPU  0 inst:  564000001 cyc:  301182572 now IPC :1.83974: AVG IPC :1.87218: L2-Pf-HR :0.96369: L2-HR :0.89040: (Sim:1h25m55s) 
CPU  0 inst:  565000000 cyc:  301722089 now IPC :1.85351: AVG IPC :1.87214: L2-Pf-HR :0.96366: L2-HR :0.89035: (Sim:1h26m8s) 
CPU  0 inst:  566000005 cyc:  302292516 now IPC :1.75308: AVG IPC :1.87192: L2-Pf-HR :0.96363: L2-HR :0.89030: (Sim:1h26m22s) 
CPU  0 inst:  567000005 cyc:  302852214 now IPC :1.78668: AVG IPC :1.87176: L2-Pf-HR :0.96362: L2-HR :0.89028: (Sim:1h26m35s) 
CPU  0 inst:  568000000 cyc:  303486098 now IPC :1.57757: AVG IPC :1.87114: L2-Pf-HR :0.96361: L2-HR :0.89024: (Sim:1h26m49s) 
CPU  0 inst:  569000003 cyc:  304083591 now IPC :1.67366: AVG IPC :1.87075: L2-Pf-HR :0.96358: L2-HR :0.89021: (Sim:1h27m3s) 
CPU  0 inst:  570000003 cyc:  304591372 now IPC :1.96935: AVG IPC :1.87092: L2-Pf-HR :0.96354: L2-HR :0.89017: (Sim:1h27m16s) 
CPU  0 inst:  571000003 cyc:  305108870 now IPC :1.93237: AVG IPC :1.87102: L2-Pf-HR :0.96352: L2-HR :0.89015: (Sim:1h27m29s) 
CPU  0 inst:  572000003 cyc:  305631193 now IPC :1.91452: AVG IPC :1.87110: L2-Pf-HR :0.96353: L2-HR :0.89016: (Sim:1h27m43s) 
CPU  0 inst:  573000004 cyc:  306149424 now IPC :1.92964: AVG IPC :1.87120: L2-Pf-HR :0.96351: L2-HR :0.89014: (Sim:1h27m56s) 
CPU  0 inst:  574000003 cyc:  306728550 now IPC :1.72674: AVG IPC :1.87092: L2-Pf-HR :0.96349: L2-HR :0.89012: (Sim:1h28m9s) 
CPU  0 inst:  575000001 cyc:  307241222 now IPC :1.95056: AVG IPC :1.87106: L2-Pf-HR :0.96346: L2-HR :0.89009: (Sim:1h28m22s) 
CPU  0 inst:  576000000 cyc:  307767379 now IPC :1.90057: AVG IPC :1.87111: L2-Pf-HR :0.96344: L2-HR :0.89008: (Sim:1h28m34s) 
CPU  0 inst:  577000001 cyc:  308287359 now IPC :1.92315: AVG IPC :1.87120: L2-Pf-HR :0.96345: L2-HR :0.89008: (Sim:1h28m47s) 
CPU  0 inst:  578000002 cyc:  308855337 now IPC :1.76063: AVG IPC :1.87099: L2-Pf-HR :0.96355: L2-HR :0.89022: (Sim:1h29m0s) 
CPU  0 inst:  579000001 cyc:  309380791 now IPC :1.90311: AVG IPC :1.87105: L2-Pf-HR :0.96357: L2-HR :0.89024: (Sim:1h29m13s) 
CPU  0 inst:  580000005 cyc:  309978802 now IPC :1.67222: AVG IPC :1.87066: L2-Pf-HR :0.96352: L2-HR :0.89018: (Sim:1h29m26s) 
CPU  0 inst:  581000005 cyc:  310550817 now IPC :1.74821: AVG IPC :1.87044: L2-Pf-HR :0.96353: L2-HR :0.89019: (Sim:1h29m39s) 
CPU  0 inst:  582000005 cyc:  311060293 now IPC :1.96280: AVG IPC :1.87059: L2-Pf-HR :0.96351: L2-HR :0.89017: (Sim:1h29m52s) 
CPU  0 inst:  583000005 cyc:  311565656 now IPC :1.97878: AVG IPC :1.87076: L2-Pf-HR :0.96350: L2-HR :0.89015: (Sim:1h30m5s) 
CPU  0 inst:  584000000 cyc:  312118305 now IPC :1.80946: AVG IPC :1.87065: L2-Pf-HR :0.96355: L2-HR :0.89023: (Sim:1h30m18s) 
CPU  0 inst:  585000005 cyc:  312625014 now IPC :1.97353: AVG IPC :1.87082: L2-Pf-HR :0.96351: L2-HR :0.89019: (Sim:1h30m31s) 
CPU  0 inst:  586000003 cyc:  313211227 now IPC :1.70586: AVG IPC :1.87051: L2-Pf-HR :0.96352: L2-HR :0.89019: (Sim:1h30m44s) 
CPU  0 inst:  587000003 cyc:  313717259 now IPC :1.97616: AVG IPC :1.87068: L2-Pf-HR :0.96348: L2-HR :0.89016: (Sim:1h30m57s) 
CPU  0 inst:  588000003 cyc:  314240919 now IPC :1.90964: AVG IPC :1.87075: L2-Pf-HR :0.96346: L2-HR :0.89014: (Sim:1h31m9s) 
CPU  0 inst:  589000000 cyc:  314756491 now IPC :1.93959: AVG IPC :1.87086: L2-Pf-HR :0.96345: L2-HR :0.89013: (Sim:1h31m22s) 
CPU  0 inst:  590000005 cyc:  315270221 now IPC :1.94656: AVG IPC :1.87099: L2-Pf-HR :0.96352: L2-HR :0.89022: (Sim:1h31m35s) 
CPU  0 inst:  591000003 cyc:  315781241 now IPC :1.95687: AVG IPC :1.87112: L2-Pf-HR :0.96350: L2-HR :0.89021: (Sim:1h31m47s) 
CPU  0 inst:  592000000 cyc:  316386582 now IPC :1.65196: AVG IPC :1.87070: L2-Pf-HR :0.96351: L2-HR :0.89021: (Sim:1h32m0s) 
CPU  0 inst:  593000004 cyc:  316956518 now IPC :1.75459: AVG IPC :1.87049: L2-Pf-HR :0.96347: L2-HR :0.89016: (Sim:1h32m12s) 
CPU  0 inst:  594000001 cyc:  317465856 now IPC :1.96333: AVG IPC :1.87064: L2-Pf-HR :0.96347: L2-HR :0.89016: (Sim:1h32m24s) 
CPU  0 inst:  595000003 cyc:  317990381 now IPC :1.90649: AVG IPC :1.87070: L2-Pf-HR :0.96347: L2-HR :0.89017: (Sim:1h32m36s) 
CPU  0 inst:  596000001 cyc:  318505857 now IPC :1.93995: AVG IPC :1.87082: L2-Pf-HR :0.96345: L2-HR :0.89015: (Sim:1h32m49s) 
CPU  0 inst:  597000001 cyc:  319008481 now IPC :1.98956: AVG IPC :1.87100: L2-Pf-HR :0.96341: L2-HR :0.89011: (Sim:1h33m1s) 
CPU  0 inst:  598000002 cyc:  319606676 now IPC :1.67170: AVG IPC :1.87063: L2-Pf-HR :0.96340: L2-HR :0.89010: (Sim:1h33m13s) 
xz: 770-tot_memTraces_v5/120-subBillion_s2048_LLM_Arch/memTraces[1319000000]_FE_[Pythia-70M]_[h8]_[s2048]_[d64].champsim.9SSize.xz: Unexpected end of input
*** Reached end of trace for Core: 0 Repeating trace: 770-tot_memTraces_v5/120-subBillion_s2048_LLM_Arch/memTraces[1319000000]_FE_[Pythia-70M]_[h8]_[s2048]_[d64].champsim.9SSize.xz
CPU  0 inst:  599000005 cyc:  320551989 now IPC :1.05785: AVG IPC :1.86822: L2-Pf-HR :0.96340: L2-HR :0.89002: (Sim:1h33m24s) 
CPU  0 inst:  600000000 cyc:  321078878 now IPC :1.89792: AVG IPC :1.86827: L2-Pf-HR :0.96348: L2-HR :0.89011: (Sim:1h33m35s) 
CPU  0 inst:  601000004 cyc:  321632822 now IPC :1.80524: AVG IPC :1.86817: L2-Pf-HR :0.96351: L2-HR :0.89014: (Sim:1h33m48s) 
CPU  0 inst:  602000005 cyc:  322177034 now IPC :1.83752: AVG IPC :1.86811: L2-Pf-HR :0.96352: L2-HR :0.89016: (Sim:1h34m2s) 
CPU  0 inst:  603000002 cyc:  322740739 now IPC :1.77397: AVG IPC :1.86795: L2-Pf-HR :0.96353: L2-HR :0.89016: (Sim:1h34m14s) 
CPU  0 inst:  604000004 cyc:  323260498 now IPC :1.92397: AVG IPC :1.86804: L2-Pf-HR :0.96353: L2-HR :0.89015: (Sim:1h34m27s) 
CPU  0 inst:  605000000 cyc:  323860045 now IPC :1.66792: AVG IPC :1.86767: L2-Pf-HR :0.96357: L2-HR :0.89019: (Sim:1h34m37s) 
CPU  0 inst:  606000000 cyc:  324400553 now IPC :1.85011: AVG IPC :1.86764: L2-Pf-HR :0.96354: L2-HR :0.89016: (Sim:1h34m50s) 
CPU  0 inst:  607000005 cyc:  324933468 now IPC :1.87648: AVG IPC :1.86765: L2-Pf-HR :0.96353: L2-HR :0.89012: (Sim:1h35m3s) 
CPU  0 inst:  608000000 cyc:  325503479 now IPC :1.75434: AVG IPC :1.86745: L2-Pf-HR :0.96351: L2-HR :0.89010: (Sim:1h35m17s) 
CPU  0 inst:  609000003 cyc:  326080096 now IPC :1.73426: AVG IPC :1.86722: L2-Pf-HR :0.96349: L2-HR :0.89007: (Sim:1h35m31s) 
CPU  0 inst:  610000001 cyc:  326644798 now IPC :1.77084: AVG IPC :1.86705: L2-Pf-HR :0.96351: L2-HR :0.89009: (Sim:1h35m44s) 
CPU  0 inst:  611000005 cyc:  327338710 now IPC :1.44111: AVG IPC :1.86614: L2-Pf-HR :0.96350: L2-HR :0.89005: (Sim:1h35m58s) 
CPU  0 inst:  612000003 cyc:  327844276 now IPC :1.97798: AVG IPC :1.86632: L2-Pf-HR :0.96349: L2-HR :0.89004: (Sim:1h36m11s) 
CPU  0 inst:  613000003 cyc:  328354619 now IPC :1.95947: AVG IPC :1.86646: L2-Pf-HR :0.96346: L2-HR :0.89001: (Sim:1h36m25s) 
CPU  0 inst:  614000003 cyc:  328876994 now IPC :1.91433: AVG IPC :1.86654: L2-Pf-HR :0.96348: L2-HR :0.89003: (Sim:1h36m38s) 
CPU  0 inst:  615000001 cyc:  329394250 now IPC :1.93327: AVG IPC :1.86664: L2-Pf-HR :0.96347: L2-HR :0.89003: (Sim:1h36m51s) 
CPU  0 inst:  616000000 cyc:  329901979 now IPC :1.96955: AVG IPC :1.86680: L2-Pf-HR :0.96343: L2-HR :0.88999: (Sim:1h37m4s) 
CPU  0 inst:  617000003 cyc:  330488536 now IPC :1.70487: AVG IPC :1.86651: L2-Pf-HR :0.96341: L2-HR :0.88997: (Sim:1h37m16s) 
CPU  0 inst:  618000004 cyc:  330998145 now IPC :1.96229: AVG IPC :1.86666: L2-Pf-HR :0.96340: L2-HR :0.88997: (Sim:1h37m29s) 
CPU  0 inst:  619000001 cyc:  331516498 now IPC :1.92918: AVG IPC :1.86676: L2-Pf-HR :0.96338: L2-HR :0.88995: (Sim:1h37m42s) 
CPU  0 inst:  620000001 cyc:  332032777 now IPC :1.93694: AVG IPC :1.86687: L2-Pf-HR :0.96339: L2-HR :0.88996: (Sim:1h37m54s) 
[...]
CPU  0 inst: 1208000000 cyc:  650130651 now IPC :1.79875: AVG IPC :1.85786: L2-Pf-HR :0.96346: L2-HR :0.89008: (Sim:3h29m21s) 
CPU  0 inst: 1209000002 cyc:  650706269 now IPC :1.73727: AVG IPC :1.85775: L2-Pf-HR :0.96348: L2-HR :0.89011: (Sim:3h29m28s) 
CPU  0 inst: 1210000003 cyc:  651364624 now IPC :1.51894: AVG IPC :1.85741: L2-Pf-HR :0.96347: L2-HR :0.89008: (Sim:3h29m38s) 
CPU  0 inst: 1211000003 cyc:  651868798 now IPC :1.98344: AVG IPC :1.85751: L2-Pf-HR :0.96345: L2-HR :0.89006: (Sim:3h29m44s) 
CPU  0 inst: 1212000003 cyc:  652378338 now IPC :1.96255: AVG IPC :1.85759: L2-Pf-HR :0.96344: L2-HR :0.89006: (Sim:3h29m51s) 
CPU  0 inst: 1213000003 cyc:  652913863 now IPC :1.86733: AVG IPC :1.85760: L2-Pf-HR :0.96342: L2-HR :0.89004: (Sim:3h29m57s) 
CPU  0 inst: 1214000003 cyc:  653424452 now IPC :1.95852: AVG IPC :1.85768: L2-Pf-HR :0.96340: L2-HR :0.89002: (Sim:3h30m4s) 
CPU  0 inst: 1215000001 cyc:  653942651 now IPC :1.92976: AVG IPC :1.85774: L2-Pf-HR :0.96340: L2-HR :0.89002: (Sim:3h30m10s) 
CPU  0 inst: 1216000000 cyc:  654522548 now IPC :1.72444: AVG IPC :1.85762: L2-Pf-HR :0.96340: L2-HR :0.89002: (Sim:3h30m17s) 
CPU  0 inst: 1217000001 cyc:  655036205 now IPC :1.94683: AVG IPC :1.85769: L2-Pf-HR :0.96339: L2-HR :0.89001: (Sim:3h30m23s) 
CPU  0 inst: 1218000001 cyc:  655554361 now IPC :1.92992: AVG IPC :1.85774: L2-Pf-HR :0.96338: L2-HR :0.89000: (Sim:3h30m30s) 
CPU  0 inst: 1219000001 cyc:  656085419 now IPC :1.88303: AVG IPC :1.85777: L2-Pf-HR :0.96343: L2-HR :0.89006: (Sim:3h30m36s) 
CPU  0 inst: 1220000001 cyc:  656588165 now IPC :1.98908: AVG IPC :1.85787: L2-Pf-HR :0.96341: L2-HR :0.89005: (Sim:3h30m42s) 
CPU  0 inst: 1221000001 cyc:  657124692 now IPC :1.86384: AVG IPC :1.85787: L2-Pf-HR :0.96342: L2-HR :0.89005: (Sim:3h30m49s) 
CPU  0 inst: 1222000002 cyc:  657762520 now IPC :1.56782: AVG IPC :1.85759: L2-Pf-HR :0.96343: L2-HR :0.89006: (Sim:3h30m56s) 
CPU  0 inst: 1223000002 cyc:  658269033 now IPC :1.97428: AVG IPC :1.85768: L2-Pf-HR :0.96341: L2-HR :0.89004: (Sim:3h31m2s) 
CPU  0 inst: 1224000000 cyc:  658785562 now IPC :1.93600: AVG IPC :1.85774: L2-Pf-HR :0.96342: L2-HR :0.89005: (Sim:3h31m9s) 
CPU  0 inst: 1225000002 cyc:  659328363 now IPC :1.84230: AVG IPC :1.85773: L2-Pf-HR :0.96346: L2-HR :0.89012: (Sim:3h31m15s) 
CPU  0 inst: 1226000004 cyc:  659882340 now IPC :1.80513: AVG IPC :1.85768: L2-Pf-HR :0.96351: L2-HR :0.89018: (Sim:3h31m22s) 
CPU  0 inst: 1227000001 cyc:  660410075 now IPC :1.89488: AVG IPC :1.85771: L2-Pf-HR :0.96351: L2-HR :0.89018: (Sim:3h31m28s) 
CPU  0 inst: 1228000002 cyc:  660992177 now IPC :1.71791: AVG IPC :1.85759: L2-Pf-HR :0.96350: L2-HR :0.89017: (Sim:3h31m34s) 
CPU  0 inst: 1229000000 cyc:  661519145 now IPC :1.89764: AVG IPC :1.85762: L2-Pf-HR :0.96350: L2-HR :0.89017: (Sim:3h31m41s) 
CPU  0 inst: 1230000000 cyc:  662035883 now IPC :1.93522: AVG IPC :1.85768: L2-Pf-HR :0.96349: L2-HR :0.89017: (Sim:3h31m47s) 
CPU  0 inst: 1231000000 cyc:  662542029 now IPC :1.97571: AVG IPC :1.85777: L2-Pf-HR :0.96348: L2-HR :0.89016: (Sim:3h31m54s) 
CPU  0 inst: 1232000000 cyc:  663057502 now IPC :1.93997: AVG IPC :1.85784: L2-Pf-HR :0.96347: L2-HR :0.89015: (Sim:3h32m0s) 
CPU  0 inst: 1233000003 cyc:  663576904 now IPC :1.92530: AVG IPC :1.85789: L2-Pf-HR :0.96346: L2-HR :0.89013: (Sim:3h32m6s) 
CPU  0 inst: 1234000000 cyc:  664220391 now IPC :1.55403: AVG IPC :1.85760: L2-Pf-HR :0.96347: L2-HR :0.89013: (Sim:3h32m13s) 
CPU  0 inst: 1235000004 cyc:  664732280 now IPC :1.95356: AVG IPC :1.85767: L2-Pf-HR :0.96346: L2-HR :0.89013: (Sim:3h32m20s) 
CPU  0 inst: 1236000004 cyc:  665247462 now IPC :1.94106: AVG IPC :1.85773: L2-Pf-HR :0.96345: L2-HR :0.89012: (Sim:3h32m26s) 
CPU  0 inst: 1237000001 cyc:  665752172 now IPC :1.98133: AVG IPC :1.85783: L2-Pf-HR :0.96343: L2-HR :0.89010: (Sim:3h32m33s) 
CPU  0 inst: 1238000002 cyc:  666262370 now IPC :1.96003: AVG IPC :1.85791: L2-Pf-HR :0.96342: L2-HR :0.89008: (Sim:3h32m39s) 
CPU  0 inst: 1239000002 cyc:  666776959 now IPC :1.94330: AVG IPC :1.85797: L2-Pf-HR :0.96342: L2-HR :0.89008: (Sim:3h32m46s) 
CPU  0 inst: 1240000000 cyc:  667355826 now IPC :1.72751: AVG IPC :1.85786: L2-Pf-HR :0.96340: L2-HR :0.89007: (Sim:3h32m52s) 
CPU  0 inst: 1241000002 cyc:  667877649 now IPC :1.91636: AVG IPC :1.85790: L2-Pf-HR :0.96340: L2-HR :0.89006: (Sim:3h32m59s) 
CPU  0 inst: 1242000004 cyc:  668392006 now IPC :1.94418: AVG IPC :1.85797: L2-Pf-HR :0.96339: L2-HR :0.89005: (Sim:3h33m5s) 
CPU  0 inst: 1243000001 cyc:  668943990 now IPC :1.81164: AVG IPC :1.85793: L2-Pf-HR :0.96344: L2-HR :0.89012: (Sim:3h33m12s) 
CPU  0 inst: 1244000005 cyc:  669508691 now IPC :1.77086: AVG IPC :1.85786: L2-Pf-HR :0.96348: L2-HR :0.89018: (Sim:3h33m18s) 
CPU  0 inst: 1245000003 cyc:  670045426 now IPC :1.86311: AVG IPC :1.85786: L2-Pf-HR :0.96346: L2-HR :0.89016: (Sim:3h33m25s) 
CPU  0 inst: 1246000000 cyc:  670680314 now IPC :1.57508: AVG IPC :1.85760: L2-Pf-HR :0.96347: L2-HR :0.89016: (Sim:3h33m32s) 
CPU  0 inst: 1247000003 cyc:  671181736 now IPC :1.99433: AVG IPC :1.85770: L2-Pf-HR :0.96346: L2-HR :0.89015: (Sim:3h33m38s) 
CPU  0 inst: 1248000000 cyc:  671696269 now IPC :1.94350: AVG IPC :1.85776: L2-Pf-HR :0.96345: L2-HR :0.89014: (Sim:3h33m45s) 
CPU  0 inst: 1249000000 cyc:  672233340 now IPC :1.86195: AVG IPC :1.85777: L2-Pf-HR :0.96349: L2-HR :0.89019: (Sim:3h33m51s) 
CPU  0 inst: 1250000001 cyc:  672767470 now IPC :1.87221: AVG IPC :1.85778: L2-Pf-HR :0.96351: L2-HR :0.89022: (Sim:3h33m57s) 
CPU  0 inst: 1251000001 cyc:  673279921 now IPC :1.95141: AVG IPC :1.85785: L2-Pf-HR :0.96350: L2-HR :0.89021: (Sim:3h34m4s) 
CPU  0 inst: 1252000001 cyc:  673849847 now IPC :1.75461: AVG IPC :1.85776: L2-Pf-HR :0.96348: L2-HR :0.89020: (Sim:3h34m10s) 
CPU  0 inst: 1253000001 cyc:  674380988 now IPC :1.88274: AVG IPC :1.85778: L2-Pf-HR :0.96348: L2-HR :0.89019: (Sim:3h34m16s) 
CPU  0 inst: 1254000004 cyc:  674893076 now IPC :1.95280: AVG IPC :1.85785: L2-Pf-HR :0.96348: L2-HR :0.89020: (Sim:3h34m23s) 
CPU  0 inst: 1255000000 cyc:  675453634 now IPC :1.78393: AVG IPC :1.85779: L2-Pf-HR :0.96353: L2-HR :0.89026: (Sim:3h34m29s) 
CPU  0 inst: 1256000000 cyc:  676012196 now IPC :1.79031: AVG IPC :1.85774: L2-Pf-HR :0.96356: L2-HR :0.89030: (Sim:3h34m36s) 
CPU  0 inst: 1257000001 cyc:  676545670 now IPC :1.87451: AVG IPC :1.85775: L2-Pf-HR :0.96356: L2-HR :0.89030: (Sim:3h34m42s) 
CPU  0 inst: 1258000000 cyc:  677098912 now IPC :1.80753: AVG IPC :1.85771: L2-Pf-HR :0.96353: L2-HR :0.89026: (Sim:3h34m49s) 
CPU  0 inst: 1259000005 cyc:  677589970 now IPC :2.03643: AVG IPC :1.85784: L2-Pf-HR :0.96349: L2-HR :0.89022: (Sim:3h34m55s) 
CPU  0 inst: 1260000001 cyc:  678101176 now IPC :1.95615: AVG IPC :1.85791: L2-Pf-HR :0.96346: L2-HR :0.89018: (Sim:3h35m1s) 
CPU  0 inst: 1261000005 cyc:  678577765 now IPC :2.09825: AVG IPC :1.85808: L2-Pf-HR :0.96343: L2-HR :0.89014: (Sim:3h35m7s) 
CPU  0 inst: 1262000003 cyc:  679274257 now IPC :1.43576: AVG IPC :1.85765: L2-Pf-HR :0.96343: L2-HR :0.89012: (Sim:3h35m14s) 
CPU  0 inst: 1263000002 cyc:  679820956 now IPC :1.82916: AVG IPC :1.85763: L2-Pf-HR :0.96342: L2-HR :0.89010: (Sim:3h35m21s) 
CPU  0 inst: 1264000000 cyc:  680353438 now IPC :1.87799: AVG IPC :1.85764: L2-Pf-HR :0.96341: L2-HR :0.89008: (Sim:3h35m27s) 
CPU  0 inst: 1265000003 cyc:  680939038 now IPC :1.70766: AVG IPC :1.85751: L2-Pf-HR :0.96341: L2-HR :0.89008: (Sim:3h35m34s) 
CPU  0 inst: 1266000003 cyc:  681472398 now IPC :1.87491: AVG IPC :1.85753: L2-Pf-HR :0.96341: L2-HR :0.89007: (Sim:3h35m40s) 
CPU  0 inst: 1267000001 cyc:  681993533 now IPC :1.91888: AVG IPC :1.85757: L2-Pf-HR :0.96341: L2-HR :0.89007: (Sim:3h35m47s) 
CPU  0 inst: 1268000000 cyc:  682599706 now IPC :1.64969: AVG IPC :1.85739: L2-Pf-HR :0.96340: L2-HR :0.89006: (Sim:3h35m53s) 
CPU  0 inst: 1269000004 cyc:  683175669 now IPC :1.73623: AVG IPC :1.85729: L2-Pf-HR :0.96339: L2-HR :0.89004: (Sim:3h36m0s) 
CPU  0 inst: 1270000002 cyc:  683764773 now IPC :1.69749: AVG IPC :1.85715: L2-Pf-HR :0.96338: L2-HR :0.89002: (Sim:3h36m7s) 
CPU  0 inst: 1271000003 cyc:  684316509 now IPC :1.81246: AVG IPC :1.85711: L2-Pf-HR :0.96338: L2-HR :0.89001: (Sim:3h36m13s) 
CPU  0 inst: 1272000000 cyc:  684895284 now IPC :1.72778: AVG IPC :1.85700: L2-Pf-HR :0.96337: L2-HR :0.89000: (Sim:3h36m20s) 
CPU  0 inst: 1273000002 cyc:  685456095 now IPC :1.78314: AVG IPC :1.85694: L2-Pf-HR :0.96336: L2-HR :0.88999: (Sim:3h36m26s) 
CPU  0 inst: 1274000000 cyc:  686147314 now IPC :1.44672: AVG IPC :1.85653: L2-Pf-HR :0.96338: L2-HR :0.89000: (Sim:3h36m33s) 
CPU  0 inst: 1275000004 cyc:  686647097 now IPC :2.00088: AVG IPC :1.85663: L2-Pf-HR :0.96336: L2-HR :0.88998: (Sim:3h36m39s) 
CPU  0 inst: 1276000004 cyc:  687170408 now IPC :1.91091: AVG IPC :1.85667: L2-Pf-HR :0.96334: L2-HR :0.88996: (Sim:3h36m45s) 
CPU  0 inst: 1277000000 cyc:  687726739 now IPC :1.79748: AVG IPC :1.85663: L2-Pf-HR :0.96338: L2-HR :0.89001: (Sim:3h36m52s) 
CPU  0 inst: 1278000004 cyc:  688257159 now IPC :1.88531: AVG IPC :1.85665: L2-Pf-HR :0.96338: L2-HR :0.89001: (Sim:3h36m58s) 
CPU  0 inst: 1279000002 cyc:  688785187 now IPC :1.89384: AVG IPC :1.85668: L2-Pf-HR :0.96339: L2-HR :0.89002: (Sim:3h37m4s) 
CPU  0 inst: 1280000000 cyc:  689358358 now IPC :1.74468: AVG IPC :1.85658: L2-Pf-HR :0.96339: L2-HR :0.89003: (Sim:3h37m11s) 
CPU  0 inst: 1281000002 cyc:  689865927 now IPC :1.97018: AVG IPC :1.85667: L2-Pf-HR :0.96338: L2-HR :0.89001: (Sim:3h37m17s) 
CPU  0 inst: 1282000002 cyc:  690377061 now IPC :1.95643: AVG IPC :1.85674: L2-Pf-HR :0.96337: L2-HR :0.89000: (Sim:3h37m23s) 
CPU  0 inst: 1283000002 cyc:  690882072 now IPC :1.98015: AVG IPC :1.85683: L2-Pf-HR :0.96335: L2-HR :0.88999: (Sim:3h37m29s) 
CPU  0 inst: 1284000002 cyc:  691405446 now IPC :1.91068: AVG IPC :1.85687: L2-Pf-HR :0.96336: L2-HR :0.88999: (Sim:3h37m36s) 
CPU  0 inst: 1285000002 cyc:  691903524 now IPC :2.00772: AVG IPC :1.85698: L2-Pf-HR :0.96335: L2-HR :0.88998: (Sim:3h37m42s) 
CPU  0 inst: 1286000003 cyc:  692578590 now IPC :1.48134: AVG IPC :1.85661: L2-Pf-HR :0.96335: L2-HR :0.88998: (Sim:3h37m48s) 
CPU  0 inst: 1287000003 cyc:  693087875 now IPC :1.96354: AVG IPC :1.85669: L2-Pf-HR :0.96334: L2-HR :0.88997: (Sim:3h37m55s) 
CPU  0 inst: 1288000000 cyc:  693593666 now IPC :1.97710: AVG IPC :1.85678: L2-Pf-HR :0.96333: L2-HR :0.88996: (Sim:3h38m1s) 
CPU  0 inst: 1289000000 cyc:  694150191 now IPC :1.79686: AVG IPC :1.85673: L2-Pf-HR :0.96337: L2-HR :0.89002: (Sim:3h38m7s) 
CPU  0 inst: 1290000000 cyc:  694704924 now IPC :1.80267: AVG IPC :1.85669: L2-Pf-HR :0.96340: L2-HR :0.89006: (Sim:3h38m14s) 
CPU  0 inst: 1291000001 cyc:  695206309 now IPC :1.99448: AVG IPC :1.85679: L2-Pf-HR :0.96339: L2-HR :0.89004: (Sim:3h38m20s) 
CPU  0 inst: 1292000001 cyc:  695788301 now IPC :1.71824: AVG IPC :1.85667: L2-Pf-HR :0.96338: L2-HR :0.89004: (Sim:3h38m26s) 
CPU  0 inst: 1293000001 cyc:  696313908 now IPC :1.90256: AVG IPC :1.85671: L2-Pf-HR :0.96337: L2-HR :0.89003: (Sim:3h38m33s) 
CPU  0 inst: 1294000002 cyc:  696835303 now IPC :1.91793: AVG IPC :1.85675: L2-Pf-HR :0.96337: L2-HR :0.89003: (Sim:3h38m39s) 
CPU  0 inst: 1295000004 cyc:  697349668 now IPC :1.94415: AVG IPC :1.85682: L2-Pf-HR :0.96336: L2-HR :0.89002: (Sim:3h38m45s) 
CPU  0 inst: 1296000000 cyc:  697864523 now IPC :1.94229: AVG IPC :1.85688: L2-Pf-HR :0.96335: L2-HR :0.89001: (Sim:3h38m52s) 
CPU  0 inst: 1297000002 cyc:  698373486 now IPC :1.96478: AVG IPC :1.85696: L2-Pf-HR :0.96334: L2-HR :0.89000: (Sim:3h38m58s) 
CPU  0 inst: 1298000005 cyc:  699035587 now IPC :1.51035: AVG IPC :1.85663: L2-Pf-HR :0.96335: L2-HR :0.89001: (Sim:3h39m5s) 
CPU  0 inst: 1299000003 cyc:  699541352 now IPC :1.97720: AVG IPC :1.85672: L2-Pf-HR :0.96335: L2-HR :0.89001: (Sim:3h39m11s) 
CPU  0 inst: 1300000005 cyc:  700055793 now IPC :1.94386: AVG IPC :1.85678: L2-Pf-HR :0.96334: L2-HR :0.88999: (Sim:3h39m17s) 
CPU  0 inst: 1301000005 cyc:  700573041 now IPC :1.93331: AVG IPC :1.85684: L2-Pf-HR :0.96333: L2-HR :0.88999: (Sim:3h39m24s) 
CPU  0 inst: 1302000003 cyc:  701081641 now IPC :1.96618: AVG IPC :1.85692: L2-Pf-HR :0.96331: L2-HR :0.88997: (Sim:3h39m30s) 
CPU  0 inst: 1303000003 cyc:  701593005 now IPC :1.95555: AVG IPC :1.85699: L2-Pf-HR :0.96330: L2-HR :0.88996: (Sim:3h39m36s) 
CPU  0 inst: 1304000000 cyc:  702170991 now IPC :1.73014: AVG IPC :1.85689: L2-Pf-HR :0.96330: L2-HR :0.88996: (Sim:3h39m42s) 
CPU  0 inst: 1305000003 cyc:  702678485 now IPC :1.97047: AVG IPC :1.85697: L2-Pf-HR :0.96329: L2-HR :0.88995: (Sim:3h39m49s) 
CPU  0 inst: 1306000002 cyc:  703194487 now IPC :1.93798: AVG IPC :1.85703: L2-Pf-HR :0.96328: L2-HR :0.88993: (Sim:3h39m55s) 
CPU  0 inst: 1307000003 cyc:  703750673 now IPC :1.79796: AVG IPC :1.85698: L2-Pf-HR :0.96332: L2-HR :0.88999: (Sim:3h40m1s) 
CPU  0 inst: 1308000005 cyc:  704317953 now IPC :1.76280: AVG IPC :1.85691: L2-Pf-HR :0.96337: L2-HR :0.89005: (Sim:3h40m8s) 
CPU  0 inst: 1309000001 cyc:  704846793 now IPC :1.89092: AVG IPC :1.85693: L2-Pf-HR :0.96335: L2-HR :0.89004: (Sim:3h40m14s) 
CPU  0 inst: 1310000001 cyc:  705499278 now IPC :1.53260: AVG IPC :1.85663: L2-Pf-HR :0.96336: L2-HR :0.89004: (Sim:3h40m20s) 
CPU  0 inst: 1311000002 cyc:  705998794 now IPC :2.00194: AVG IPC :1.85673: L2-Pf-HR :0.96334: L2-HR :0.89002: (Sim:3h40m27s) 
CPU  0 inst: 1312000000 cyc:  706513098 now IPC :1.94437: AVG IPC :1.85680: L2-Pf-HR :0.96334: L2-HR :0.89002: (Sim:3h40m33s) 
CPU  0 inst: 1313000001 cyc:  707044647 now IPC :1.88130: AVG IPC :1.85682: L2-Pf-HR :0.96335: L2-HR :0.89003: (Sim:3h40m39s) 
CPU  0 inst: 1314000005 cyc:  707556277 now IPC :1.95455: AVG IPC :1.85689: L2-Pf-HR :0.96334: L2-HR :0.89002: (Sim:3h40m45s) 
CPU  0 inst: 1315000005 cyc:  708059857 now IPC :1.98578: AVG IPC :1.85698: L2-Pf-HR :0.96332: L2-HR :0.89000: (Sim:3h40m52s) 
CPU  0 inst: 1316000001 cyc:  708639342 now IPC :1.72566: AVG IPC :1.85687: L2-Pf-HR :0.96332: L2-HR :0.89001: (Sim:3h40m58s) 
Finished CPU 0 instr: 1314000002 cyc: 707642012 AVG IPC: 1.85687 (Sim time: 3h40m58s)

ChampSim completed all CPUs

[ROI Statistics]
Core_0_instructions 1314000002
Core_0_cycles 707642012
Core_0_IPC 1.85687

Core_0_branch_prediction_accuracy 99.93053
Core_0_branch_MPKI 0.00971
Core_0_average_ROB_occupancy_at_mispredict 446.88421

Core_0_L1D_total_access 271783431
Core_0_L1D_total_hit 245931201 L1D_total_Hit Ratio: 0.90488
Core_0_L1D_total_miss 25852230
Core_0_L1D_loads 260281448
Core_0_L1D_load_hit 235183313 L1D_load_Hit Ratio: 0.90357
Core_0_L1D_load_miss 25098135
Core_0_L1D_RFOs 11501983
Core_0_L1D_RFO_hit 10747888 L1D_RFO_Hit Ratio: 0.93444
Core_0_L1D_RFO_miss 754095
Core_0_L1D_prefetches 0
Core_0_L1D_prefetch_hit 0 L1D_prefetch_Hit Ratio: -nan
Core_0_L1D_prefetch_miss 0
Core_0_L1D_writebacks 0
Core_0_L1D_writeback_hit 0 L1D_writeback_Hit Ratio: -nan
Core_0_L1D_writeback_miss 0
Core_0_L1D_prefetch_requested 0
Core_0_L1D_prefetch_issued 0
Core_0_L1D_prefetch_useful 0 L1D_Useful Ratio: -nan
Core_0_L1D_prefetch_useless 0
Core_0_L1D_prefetch_late 0
Core_0_L1D_average_miss_latency 41.23124

Core_0_L1I_total_access 140439054
Core_0_L1I_total_hit 140424400 L1I_total_Hit Ratio: 0.99990
Core_0_L1I_total_miss 14654
Core_0_L1I_loads 140439054
Core_0_L1I_load_hit 140424400 L1I_load_Hit Ratio: 0.99990
Core_0_L1I_load_miss 14654
Core_0_L1I_RFOs 0
Core_0_L1I_RFO_hit 0 L1I_RFO_Hit Ratio: -nan
Core_0_L1I_RFO_miss 0
Core_0_L1I_prefetches 0
Core_0_L1I_prefetch_hit 0 L1I_prefetch_Hit Ratio: -nan
Core_0_L1I_prefetch_miss 0
Core_0_L1I_writebacks 0
Core_0_L1I_writeback_hit 0 L1I_writeback_Hit Ratio: -nan
Core_0_L1I_writeback_miss 0
Core_0_L1I_prefetch_requested 0
Core_0_L1I_prefetch_issued 0
Core_0_L1I_prefetch_useful 0 L1I_Useful Ratio: -nan
Core_0_L1I_prefetch_useless 0
Core_0_L1I_prefetch_late 0
Core_0_L1I_average_miss_latency 290.47509

Core_0_L2C_total_access 97588149
Core_0_L2C_total_hit 86854807 L2C_total_Hit Ratio: 0.89001
Core_0_L2C_total_miss 10733342
Core_0_L2C_loads 25112760
Core_0_L2C_load_hit 16741902 L2C_load_Hit Ratio: 0.66667
Core_0_L2C_load_miss 8370858
Core_0_L2C_RFOs 754095
Core_0_L2C_RFO_hit 752402 L2C_RFO_Hit Ratio: 0.99775
Core_0_L2C_RFO_miss 1693
Core_0_L2C_prefetches 64177423
Core_0_L2C_prefetch_hit 61823671 L2C_prefetch_Hit Ratio: 0.96332
Core_0_L2C_prefetch_miss 2353752
Core_0_L2C_writebacks 7543871
Core_0_L2C_writeback_hit 7536832 L2C_writeback_Hit Ratio: 0.99907
Core_0_L2C_writeback_miss 7039
Core_0_L2C_prefetch_requested 98131867
Core_0_L2C_prefetch_issued 93319708
Core_0_L2C_prefetch_useful 549073 L2C_Useful Ratio: 0.00588
Core_0_L2C_prefetch_useless 1807509
Core_0_L2C_prefetch_late 256440
Core_0_L2C_average_miss_latency 102.37045

Core_0_LLC_total_access 28004695
Core_0_LLC_total_hit 20780738 LLC_total_Hit Ratio: 0.74204
Core_0_LLC_total_miss 7223957
Core_0_LLC_loads 8114440
Core_0_LLC_load_hit 7243669 LLC_load_Hit Ratio: 0.89269
Core_0_LLC_load_miss 870771
Core_0_LLC_RFOs 1693
Core_0_LLC_RFO_hit 808 LLC_RFO_Hit Ratio: 0.47726
Core_0_LLC_RFO_miss 885
Core_0_LLC_prefetches 12477970
Core_0_LLC_prefetch_hit 6580754 LLC_prefetch_Hit Ratio: 0.52739
Core_0_LLC_prefetch_miss 5897216
Core_0_LLC_writebacks 7410592
Core_0_LLC_writeback_hit 6955507 LLC_writeback_Hit Ratio: 0.93859
Core_0_LLC_writeback_miss 455085
Core_0_LLC_prefetch_requested 0
Core_0_LLC_prefetch_issued 0
Core_0_LLC_prefetch_useful 5310077 LLC_Useful Ratio: inf
Core_0_LLC_prefetch_useless 597291
Core_0_LLC_prefetch_late 127672
Core_0_LLC_average_miss_latency 340.20377

Core_0_major_page_fault 0
Core_0_minor_page_fault 21513

 All Calls: 25156837
 Critical Calls: 25156837
------------------
Depth Distribution
------------------
depth 0: 0
depth 1: 23423125
depth 2: 21623221
depth 3: 17225235
depth 4: 9582474
depth 5: 6270970
depth 6: 4307223
depth 7: 3362722
depth 8: 2626115
depth 9: 1985105
depth 10: 1400687
depth 11: 875365
depth 12: 467994
depth 13: 167469
depth 14: 1034
depth 15: 969
depth 16: 0
depth 17: 0
depth 18: 0
depth 19: 0
depth 20: 0
depth 21: 0
depth 22: 0
depth 23: 0
depth 24: 0
depth 25: 0
depth 26: 0
depth 27: 0
depth 28: 0
depth 29: 0
Total: 93319708
-----------------------------
-----------------------------
	Captured at Filter
-----------------------------
depth 0: 0
depth 1: 1427824
depth 2: 1353154
depth 3: 1277203
depth 4: 840007
depth 5: 630637
depth 6: 484009
depth 7: 397975
depth 8: 318437
depth 9: 246438
depth 10: 177486
depth 11: 109530
depth 12: 57009
depth 13: 17950
depth 14: 84
depth 15: 104
depth 16: 0
depth 17: 0
depth 18: 0
depth 19: 0
depth 20: 0
depth 21: 0
depth 22: 0
depth 23: 0
depth 24: 0
depth 25: 0
depth 26: 0
depth 27: 0
depth 28: 0
depth 29: 0
-----------------------------
-----------------------------
		Lost at Page
-----------------------------
depth 0: 0
depth 1: 524144
depth 2: 1410356
depth 3: 939009
depth 4: 714765
depth 5: 618705
depth 6: 528828
depth 7: 497008
depth 8: 459891
depth 9: 406106
depth 10: 328883
depth 11: 231411
depth 12: 138237
depth 13: 53719
depth 14: 331
depth 15: 348
depth 16: 0
depth 17: 0
depth 18: 0
depth 19: 0
depth 20: 0
depth 21: 0
depth 22: 0
depth 23: 0
depth 24: 0
depth 25: 0
depth 26: 0
depth 27: 0
depth 28: 0
depth 29: 0
-----------------------------
-----------------------------
	Lost due to PQ Size
-----------------------------
4812159
-----------------------------
ST read accesses: 21384477
ST write accesses: 3728283
PT read accesses: 668623208
PT write accesses: 27549494
FILTER read accesses: 141112090
FILTER write accesses: 37101123
GHR read accesses: 65455275
GHR write accesses: 6838135
GHR counter read accesses: 589701736
GHR counter write accesses: 52541671
ST tag read accesses: 11567632991
ST tag write accesses: 1021034151
Channel_0_RQ_row_buffer_hit 3460526
Channel_0_RQ_row_buffer_miss 3307819
Channel_0_WQ_row_buffer_hit 1560926
Channel_0_WQ_row_buffer_miss 4177215
Channel_0_WQ_full 0
Channel_0_dbus_congested 4188576

avg_congested_cycle 8

EzSearch AVG IPC :1.85687: L2-Pf-HR :0.96332 : L2-HR :0.89001 Uful:0.00588
     > Finished combination: TraceType=770-tot Sim:1314000000 Prefetcher=L2spp_berti_src L1=no
