TRACE: [125000000][OPT-125M]_[h12][s512][d64] Warmup: 2000000 NumTraces: 125000000
L1:berti_concurso:L2:berti_concurso
*************************************************
   ChampSim Multicore Out-of-Order Simulator
   Last compiled: Oct 31 2024 09:23:13
*************************************************

trace_0 770-tot_memTraces_v5/140-subBillion_s512_LLM_Arch/memTraces[125000000][OPT-125M]_[h12][s512][d64].champsim.9.xz
CPU 0 L1D Berti prefetcher
CPU 0 L2C Berti prefetcher
MAIN.cc ln 751 stats print skipped
CPU  0 inst:    1000001 cyc:     505841 now IPC :1.97691: AVG IPC :1.97691: L2-Pf-HR :0.78026: L2-HR :0.74269: (Sim:0h0m14s) 
CPU  0 inst:    2000002 cyc:     993627 now IPC :2.05008: AVG IPC :2.01283: L2-Pf-HR :0.83915: L2-HR :0.79847: (Sim:0h0m29s) 

Warmup complete CPU  0 instructions:    2000002 cycles:     993627 (Simulation time: 0 hr 0 min 29 sec) 

CPU  0 inst:    3000004 cyc:    1639568 now IPC :1.54813: AVG IPC :1.54813: L2-Pf-HR :0.94016: L2-HR :0.86279: (Sim:0h0m42s) 
CPU  0 inst:    4000001 cyc:    2270046 now IPC :1.58609: AVG IPC :1.56688: L2-Pf-HR :0.91850: L2-HR :0.84248: (Sim:0h0m54s) 
CPU  0 inst:    5000002 cyc:    2940579 now IPC :1.49135: AVG IPC :1.54087: L2-Pf-HR :0.92036: L2-HR :0.83872: (Sim:0h1m6s) 
CPU  0 inst:    6000004 cyc:    3573275 now IPC :1.58054: AVG IPC :1.55060: L2-Pf-HR :0.93360: L2-HR :0.84852: (Sim:0h1m19s) 
CPU  0 inst:    7000005 cyc:    4207056 now IPC :1.57783: AVG IPC :1.55597: L2-Pf-HR :0.94062: L2-HR :0.85320: (Sim:0h1m31s) 
CPU  0 inst:    8000000 cyc:    4835884 now IPC :1.59025: AVG IPC :1.56158: L2-Pf-HR :0.93272: L2-HR :0.84848: (Sim:0h1m43s) 
CPU  0 inst:    9000004 cyc:    5527594 now IPC :1.44570: AVG IPC :1.54390: L2-Pf-HR :0.93071: L2-HR :0.84535: (Sim:0h1m55s) 
CPU  0 inst:   10000001 cyc:    6194112 now IPC :1.50033: AVG IPC :1.53832: L2-Pf-HR :0.93637: L2-HR :0.84931: (Sim:0h2m8s) 
CPU  0 inst:   11000005 cyc:    6859374 now IPC :1.50317: AVG IPC :1.53433: L2-Pf-HR :0.93992: L2-HR :0.85164: (Sim:0h2m22s) 
CPU  0 inst:   12000005 cyc:    7541445 now IPC :1.46612: AVG IPC :1.52723: L2-Pf-HR :0.93642: L2-HR :0.84983: (Sim:0h2m35s) 
CPU  0 inst:   13000002 cyc:    8276898 now IPC :1.35970: AVG IPC :1.51031: L2-Pf-HR :0.93428: L2-HR :0.84731: (Sim:0h2m51s) 
CPU  0 inst:   14000002 cyc:    8966342 now IPC :1.45044: AVG IPC :1.50513: L2-Pf-HR :0.93722: L2-HR :0.84923: (Sim:0h3m5s) 
CPU  0 inst:   15000001 cyc:    9647872 now IPC :1.46729: AVG IPC :1.50215: L2-Pf-HR :0.93973: L2-HR :0.85143: (Sim:0h3m19s) 
CPU  0 inst:   16000000 cyc:   10340238 now IPC :1.44432: AVG IPC :1.49787: L2-Pf-HR :0.93787: L2-HR :0.85049: (Sim:0h3m34s) 
CPU  0 inst:   17000001 cyc:   11083977 now IPC :1.34456: AVG IPC :1.48657: L2-Pf-HR :0.93557: L2-HR :0.84752: (Sim:0h3m48s) 
CPU  0 inst:   18000000 cyc:   11774596 now IPC :1.44797: AVG IPC :1.48410: L2-Pf-HR :0.93779: L2-HR :0.84944: (Sim:0h3m59s) 
CPU  0 inst:   19000002 cyc:   12464168 now IPC :1.45018: AVG IPC :1.48206: L2-Pf-HR :0.93970: L2-HR :0.85067: (Sim:0h4m10s) 
CPU  0 inst:   20000002 cyc:   13156667 now IPC :1.44405: AVG IPC :1.47989: L2-Pf-HR :0.93870: L2-HR :0.85074: (Sim:0h4m24s) 
CPU  0 inst:   21000003 cyc:   13890392 now IPC :1.36291: AVG IPC :1.47324: L2-Pf-HR :0.93600: L2-HR :0.84819: (Sim:0h4m37s) 
CPU  0 inst:   22000003 cyc:   14576394 now IPC :1.45772: AVG IPC :1.47245: L2-Pf-HR :0.93795: L2-HR :0.84949: (Sim:0h4m51s) 
CPU  0 inst:   23000002 cyc:   15260866 now IPC :1.46098: AVG IPC :1.47190: L2-Pf-HR :0.93932: L2-HR :0.85069: (Sim:0h5m2s) 
CPU  0 inst:   24000000 cyc:   15953148 now IPC :1.44450: AVG IPC :1.47064: L2-Pf-HR :0.93899: L2-HR :0.85094: (Sim:0h5m14s) 
CPU  0 inst:   25000001 cyc:   16691869 now IPC :1.35369: AVG IPC :1.46513: L2-Pf-HR :0.93651: L2-HR :0.84841: (Sim:0h5m26s) 
CPU  0 inst:   26000004 cyc:   17386440 now IPC :1.43974: AVG IPC :1.46406: L2-Pf-HR :0.93795: L2-HR :0.84958: (Sim:0h5m39s) 
CPU  0 inst:   27000003 cyc:   18078197 now IPC :1.44559: AVG IPC :1.46331: L2-Pf-HR :0.93910: L2-HR :0.85048: (Sim:0h5m52s) 
CPU  0 inst:   28000002 cyc:   18774769 now IPC :1.43560: AVG IPC :1.46222: L2-Pf-HR :0.93902: L2-HR :0.85104: (Sim:0h6m6s) 
CPU  0 inst:   29000002 cyc:   19498724 now IPC :1.38130: AVG IPC :1.45906: L2-Pf-HR :0.93667: L2-HR :0.84867: (Sim:0h6m20s) 
CPU  0 inst:   30000000 cyc:   20203704 now IPC :1.41848: AVG IPC :1.45757: L2-Pf-HR :0.93795: L2-HR :0.84969: (Sim:0h6m32s) 
CPU  0 inst:   31000003 cyc:   20900164 now IPC :1.43584: AVG IPC :1.45681: L2-Pf-HR :0.93903: L2-HR :0.85042: (Sim:0h6m45s) 
CPU  0 inst:   32000000 cyc:   21595035 now IPC :1.43911: AVG IPC :1.45621: L2-Pf-HR :0.93946: L2-HR :0.85133: (Sim:0h6m58s) 
CPU  0 inst:   33000002 cyc:   22296623 now IPC :1.42534: AVG IPC :1.45519: L2-Pf-HR :0.93744: L2-HR :0.84931: (Sim:0h7m10s) 
CPU  0 inst:   34000004 cyc:   23024419 now IPC :1.37401: AVG IPC :1.45251: L2-Pf-HR :0.93824: L2-HR :0.84973: (Sim:0h7m23s) 
CPU  0 inst:   35000000 cyc:   23717648 now IPC :1.44252: AVG IPC :1.45221: L2-Pf-HR :0.93916: L2-HR :0.85058: (Sim:0h7m37s) 
CPU  0 inst:   36000002 cyc:   24407118 now IPC :1.45039: AVG IPC :1.45215: L2-Pf-HR :0.93966: L2-HR :0.85101: (Sim:0h7m51s) 
CPU  0 inst:   37000004 cyc:   25094567 now IPC :1.45466: AVG IPC :1.45223: L2-Pf-HR :0.93837: L2-HR :0.85008: (Sim:0h8m3s) 
CPU  0 inst:   38000001 cyc:   25843033 now IPC :1.33606: AVG IPC :1.44873: L2-Pf-HR :0.93834: L2-HR :0.84980: (Sim:0h8m14s) 
CPU  0 inst:   39000001 cyc:   26534177 now IPC :1.44688: AVG IPC :1.44868: L2-Pf-HR :0.93919: L2-HR :0.85038: (Sim:0h8m24s) 
CPU  0 inst:   40000000 cyc:   27226495 now IPC :1.44442: AVG IPC :1.44856: L2-Pf-HR :0.93982: L2-HR :0.85099: (Sim:0h8m38s) 
CPU  0 inst:   41000003 cyc:   27910483 now IPC :1.46202: AVG IPC :1.44891: L2-Pf-HR :0.93869: L2-HR :0.85022: (Sim:0h8m52s) 
CPU  0 inst:   42000005 cyc:   28656506 now IPC :1.34044: AVG IPC :1.44598: L2-Pf-HR :0.93844: L2-HR :0.84979: (Sim:0h9m6s) 
CPU  0 inst:   43000000 cyc:   29353239 now IPC :1.43526: AVG IPC :1.44572: L2-Pf-HR :0.93925: L2-HR :0.85042: (Sim:0h9m19s) 
CPU  0 inst:   44000004 cyc:   30047114 now IPC :1.44119: AVG IPC :1.44561: L2-Pf-HR :0.93993: L2-HR :0.85092: (Sim:0h9m30s) 
CPU  0 inst:   45000001 cyc:   30739166 now IPC :1.44497: AVG IPC :1.44559: L2-Pf-HR :0.93900: L2-HR :0.85031: (Sim:0h9m44s) 
CPU  0 inst:   46000003 cyc:   31483178 now IPC :1.34407: AVG IPC :1.44312: L2-Pf-HR :0.93854: L2-HR :0.84974: (Sim:0h9m58s) 
CPU  0 inst:   47000003 cyc:   32171063 now IPC :1.45373: AVG IPC :1.44335: L2-Pf-HR :0.93924: L2-HR :0.85030: (Sim:0h10m12s) 
CPU  0 inst:   48000000 cyc:   32857849 now IPC :1.45605: AVG IPC :1.44363: L2-Pf-HR :0.93987: L2-HR :0.85077: (Sim:0h10m26s) 
CPU  0 inst:   49000001 cyc:   33545646 now IPC :1.45392: AVG IPC :1.44384: L2-Pf-HR :0.93910: L2-HR :0.85042: (Sim:0h10m40s) 
CPU  0 inst:   50000001 cyc:   36472383 now IPC :0.34168: AVG IPC :1.35292: L2-Pf-HR :0.91535: L2-HR :0.82598: (Sim:0h11m6s) 
CPU  0 inst:   51000000 cyc:   41318756 now IPC :0.20634: AVG IPC :1.21512: L2-Pf-HR :0.87547: L2-HR :0.79140: (Sim:0h11m44s) 
CPU  0 inst:   52000000 cyc:   45223248 now IPC :0.25612: AVG IPC :1.13046: L2-Pf-HR :0.86119: L2-HR :0.78028: (Sim:0h12m11s) 
CPU  0 inst:   53000000 cyc:   48856929 now IPC :0.27520: AVG IPC :1.06553: L2-Pf-HR :0.85457: L2-HR :0.77548: (Sim:0h12m34s) 
CPU  0 inst:   54000003 cyc:   52496186 now IPC :0.27478: AVG IPC :1.00966: L2-Pf-HR :0.84818: L2-HR :0.77084: (Sim:0h12m57s) 
CPU  0 inst:   55000001 cyc:   56129217 now IPC :0.27525: AVG IPC :0.96127: L2-Pf-HR :0.84213: L2-HR :0.76635: (Sim:0h13m19s) 
CPU  0 inst:   56000000 cyc:   59761930 now IPC :0.27528: AVG IPC :0.91886: L2-Pf-HR :0.83670: L2-HR :0.76200: (Sim:0h13m42s) 
CPU  0 inst:   57000000 cyc:   63396927 now IPC :0.27510: AVG IPC :0.88136: L2-Pf-HR :0.83146: L2-HR :0.75770: (Sim:0h14m5s) 
CPU  0 inst:   58000000 cyc:   67028149 now IPC :0.27539: AVG IPC :0.84804: L2-Pf-HR :0.82638: L2-HR :0.75355: (Sim:0h14m29s) 
CPU  0 inst:   59000000 cyc:   70657646 now IPC :0.27552: AVG IPC :0.81821: L2-Pf-HR :0.82137: L2-HR :0.74948: (Sim:0h14m50s) 
CPU  0 inst:   60000000 cyc:   74288625 now IPC :0.27541: AVG IPC :0.79132: L2-Pf-HR :0.81651: L2-HR :0.74555: (Sim:0h15m14s) 
CPU  0 inst:   61000004 cyc:   77919267 now IPC :0.27543: AVG IPC :0.76697: L2-Pf-HR :0.81171: L2-HR :0.74168: (Sim:0h15m39s) 
CPU  0 inst:   62000000 cyc:   81551192 now IPC :0.27533: AVG IPC :0.74481: L2-Pf-HR :0.80700: L2-HR :0.73791: (Sim:0h16m4s) 
CPU  0 inst:   63000000 cyc:   85184832 now IPC :0.27521: AVG IPC :0.72454: L2-Pf-HR :0.80241: L2-HR :0.73424: (Sim:0h16m30s) 
CPU  0 inst:   64000000 cyc:   88815424 now IPC :0.27544: AVG IPC :0.70598: L2-Pf-HR :0.79787: L2-HR :0.73064: (Sim:0h16m55s) 
CPU  0 inst:   65000002 cyc:   92444934 now IPC :0.27552: AVG IPC :0.68889: L2-Pf-HR :0.79338: L2-HR :0.72710: (Sim:0h17m21s) 
CPU  0 inst:   66000000 cyc:   96072295 now IPC :0.27568: AVG IPC :0.67313: L2-Pf-HR :0.78903: L2-HR :0.72368: (Sim:0h17m46s) 
CPU  0 inst:   67000000 cyc:   99707089 now IPC :0.27512: AVG IPC :0.65847: L2-Pf-HR :0.78481: L2-HR :0.72037: (Sim:0h18m11s) 
CPU  0 inst:   68000000 cyc:  103344038 now IPC :0.27496: AVG IPC :0.64484: L2-Pf-HR :0.78066: L2-HR :0.71712: (Sim:0h18m36s) 
CPU  0 inst:   69000004 cyc:  106973525 now IPC :0.27552: AVG IPC :0.63220: L2-Pf-HR :0.77657: L2-HR :0.71394: (Sim:0h18m59s) 
CPU  0 inst:   70000000 cyc:  110614156 now IPC :0.27468: AVG IPC :0.62032: L2-Pf-HR :0.77258: L2-HR :0.71084: (Sim:0h19m24s) 
CPU  0 inst:   71000000 cyc:  114250657 now IPC :0.27499: AVG IPC :0.60923: L2-Pf-HR :0.76863: L2-HR :0.70779: (Sim:0h19m45s) 
CPU  0 inst:   72000000 cyc:  117882664 now IPC :0.27533: AVG IPC :0.59886: L2-Pf-HR :0.76471: L2-HR :0.70479: (Sim:0h20m11s) 
CPU  0 inst:   73000000 cyc:  121513498 now IPC :0.27542: AVG IPC :0.58911: L2-Pf-HR :0.76088: L2-HR :0.70185: (Sim:0h20m36s) 
CPU  0 inst:   74000001 cyc:  125140016 now IPC :0.27575: AVG IPC :0.57996: L2-Pf-HR :0.75714: L2-HR :0.69899: (Sim:0h21m1s) 
CPU  0 inst:   75000002 cyc:  128767879 now IPC :0.27564: AVG IPC :0.57132: L2-Pf-HR :0.75347: L2-HR :0.69620: (Sim:0h21m24s) 
CPU  0 inst:   76000004 cyc:  130665388 now IPC :0.52701: AVG IPC :0.57067: L2-Pf-HR :0.75322: L2-HR :0.69794: (Sim:0h21m41s) 
CPU  0 inst:   77000005 cyc:  131263396 now IPC :1.67222: AVG IPC :0.57573: L2-Pf-HR :0.75657: L2-HR :0.70373: (Sim:0h21m57s) 
CPU  0 inst:   78000000 cyc:  131866926 now IPC :1.65691: AVG IPC :0.58071: L2-Pf-HR :0.76015: L2-HR :0.70953: (Sim:0h22m10s) 
CPU  0 inst:   79000001 cyc:  132409316 now IPC :1.84369: AVG IPC :0.58593: L2-Pf-HR :0.76414: L2-HR :0.71542: (Sim:0h22m24s) 
CPU  0 inst:   80000000 cyc:  133018717 now IPC :1.64095: AVG IPC :0.59080: L2-Pf-HR :0.76674: L2-HR :0.72031: (Sim:0h22m41s) 
CPU  0 inst:   81000001 cyc:  133609421 now IPC :1.69290: AVG IPC :0.59571: L2-Pf-HR :0.76949: L2-HR :0.72511: (Sim:0h22m57s) 
CPU  0 inst:   82000004 cyc:  134200986 now IPC :1.69044: AVG IPC :0.60057: L2-Pf-HR :0.77209: L2-HR :0.72974: (Sim:0h23m14s) 
CPU  0 inst:   83000002 cyc:  134747649 now IPC :1.82928: AVG IPC :0.60559: L2-Pf-HR :0.77531: L2-HR :0.73464: (Sim:0h23m30s) 
CPU  0 inst:   84000005 cyc:  135338503 now IPC :1.69247: AVG IPC :0.61037: L2-Pf-HR :0.77755: L2-HR :0.73878: (Sim:0h23m46s) 
CPU  0 inst:   85000001 cyc:  135908795 now IPC :1.75348: AVG IPC :0.61520: L2-Pf-HR :0.77988: L2-HR :0.74284: (Sim:0h24m2s) 
CPU  0 inst:   86000004 cyc:  136484377 now IPC :1.73738: AVG IPC :0.61997: L2-Pf-HR :0.78196: L2-HR :0.74662: (Sim:0h24m19s) 
CPU  0 inst:   87000005 cyc:  137024999 now IPC :1.84972: AVG IPC :0.62486: L2-Pf-HR :0.78472: L2-HR :0.75078: (Sim:0h24m35s) 
CPU  0 inst:   88000000 cyc:  137583834 now IPC :1.78943: AVG IPC :0.62962: L2-Pf-HR :0.78682: L2-HR :0.75444: (Sim:0h24m51s) 
CPU  0 inst:   89000001 cyc:  138157638 now IPC :1.74276: AVG IPC :0.63428: L2-Pf-HR :0.78868: L2-HR :0.75779: (Sim:0h25m8s) 
CPU  0 inst:   90000001 cyc:  138726518 now IPC :1.75784: AVG IPC :0.63892: L2-Pf-HR :0.79068: L2-HR :0.76116: (Sim:0h25m24s) 
CPU  0 inst:   91000002 cyc:  139274075 now IPC :1.82630: AVG IPC :0.64362: L2-Pf-HR :0.79276: L2-HR :0.76456: (Sim:0h25m40s) 
CPU  0 inst:   92000004 cyc:  139809829 now IPC :1.86653: AVG IPC :0.64834: L2-Pf-HR :0.79510: L2-HR :0.76807: (Sim:0h25m56s) 
CPU  0 inst:   93000000 cyc:  140397101 now IPC :1.70278: AVG IPC :0.65278: L2-Pf-HR :0.79624: L2-HR :0.77071: (Sim:0h26m10s) 
CPU  0 inst:   94000003 cyc:  140965489 now IPC :1.75937: AVG IPC :0.65727: L2-Pf-HR :0.79781: L2-HR :0.77353: (Sim:0h26m27s) 
CPU  0 inst:   95000000 cyc:  141534267 now IPC :1.75815: AVG IPC :0.66173: L2-Pf-HR :0.79952: L2-HR :0.77638: (Sim:0h26m43s) 
CPU  0 inst:   96000000 cyc:  142068743 now IPC :1.87099: AVG IPC :0.66631: L2-Pf-HR :0.80166: L2-HR :0.77942: (Sim:0h26m59s) 
CPU  0 inst:   97000000 cyc:  142656706 now IPC :1.70079: AVG IPC :0.67061: L2-Pf-HR :0.80287: L2-HR :0.78181: (Sim:0h27m14s) 
CPU  0 inst:   98000003 cyc:  143225561 now IPC :1.75792: AVG IPC :0.67495: L2-Pf-HR :0.80416: L2-HR :0.78424: (Sim:0h27m30s) 
CPU  0 inst:   99000000 cyc:  143786973 now IPC :1.78122: AVG IPC :0.67930: L2-Pf-HR :0.80542: L2-HR :0.78662: (Sim:0h27m46s) 
CPU  0 inst:  100000004 cyc:  144321395 now IPC :1.87119: AVG IPC :0.68375: L2-Pf-HR :0.80733: L2-HR :0.78936: (Sim:0h28m2s) 
CPU  0 inst:  101000003 cyc:  144891656 now IPC :1.75358: AVG IPC :0.68799: L2-Pf-HR :0.80851: L2-HR :0.79154: (Sim:0h28m15s) 
CPU  0 inst:  102000003 cyc:  145460425 now IPC :1.75818: AVG IPC :0.69220: L2-Pf-HR :0.80961: L2-HR :0.79363: (Sim:0h28m27s) 
CPU  0 inst:  103000000 cyc:  146034607 now IPC :1.74160: AVG IPC :0.69635: L2-Pf-HR :0.81069: L2-HR :0.79566: (Sim:0h28m41s) 
CPU  0 inst:  104000000 cyc:  146568136 now IPC :1.87431: AVG IPC :0.70067: L2-Pf-HR :0.81235: L2-HR :0.79804: (Sim:0h28m57s) 
CPU  0 inst:  105000004 cyc:  147133796 now IPC :1.76785: AVG IPC :0.70480: L2-Pf-HR :0.81350: L2-HR :0.80004: (Sim:0h29m12s) 
CPU  0 inst:  106000001 cyc:  147708791 now IPC :1.73914: AVG IPC :0.70886: L2-Pf-HR :0.81448: L2-HR :0.80188: (Sim:0h29m27s) 
CPU  0 inst:  107000002 cyc:  148280158 now IPC :1.75019: AVG IPC :0.71290: L2-Pf-HR :0.81527: L2-HR :0.80361: (Sim:0h29m43s) 
CPU  0 inst:  108000005 cyc:  148817719 now IPC :1.86026: AVG IPC :0.71707: L2-Pf-HR :0.81682: L2-HR :0.80578: (Sim:0h29m59s) 
CPU  0 inst:  109000003 cyc:  149376746 now IPC :1.78882: AVG IPC :0.72111: L2-Pf-HR :0.81792: L2-HR :0.80764: (Sim:0h30m14s) 
CPU  0 inst:  110000001 cyc:  149951414 now IPC :1.74013: AVG IPC :0.72504: L2-Pf-HR :0.81866: L2-HR :0.80920: (Sim:0h30m29s) 
CPU  0 inst:  111000002 cyc:  150535803 now IPC :1.71119: AVG IPC :0.72889: L2-Pf-HR :0.81942: L2-HR :0.81075: (Sim:0h30m46s) 
CPU  0 inst:  112000000 cyc:  151078544 now IPC :1.84250: AVG IPC :0.73292: L2-Pf-HR :0.82081: L2-HR :0.81266: (Sim:0h31m2s) 
CPU  0 inst:  113000004 cyc:  151629666 now IPC :1.81449: AVG IPC :0.73688: L2-Pf-HR :0.82185: L2-HR :0.81433: (Sim:0h31m15s) 
CPU  0 inst:  114000005 cyc:  152210738 now IPC :1.72096: AVG IPC :0.74066: L2-Pf-HR :0.82250: L2-HR :0.81570: (Sim:0h31m30s) 
CPU  0 inst:  115000001 cyc:  152782912 now IPC :1.74771: AVG IPC :0.74445: L2-Pf-HR :0.82332: L2-HR :0.81718: (Sim:0h31m46s) 
CPU  0 inst:  116000005 cyc:  153345822 now IPC :1.77649: AVG IPC :0.74827: L2-Pf-HR :0.82431: L2-HR :0.81875: (Sim:0h32m2s) 
CPU  0 inst:  117000003 cyc:  153880924 now IPC :1.86880: AVG IPC :0.75219: L2-Pf-HR :0.82551: L2-HR :0.82044: (Sim:0h32m19s) 
CPU  0 inst:  118000001 cyc:  154470708 now IPC :1.69553: AVG IPC :0.75581: L2-Pf-HR :0.82591: L2-HR :0.82156: (Sim:0h32m32s) 
CPU  0 inst:  119000003 cyc:  155040057 now IPC :1.75640: AVG IPC :0.75951: L2-Pf-HR :0.82663: L2-HR :0.82287: (Sim:0h32m45s) 
CPU  0 inst:  120000000 cyc:  155595160 now IPC :1.80146: AVG IPC :0.76325: L2-Pf-HR :0.82744: L2-HR :0.82428: (Sim:0h33m0s) 
CPU  0 inst:  121000003 cyc:  156126920 now IPC :1.88055: AVG IPC :0.76708: L2-Pf-HR :0.82856: L2-HR :0.82586: (Sim:0h33m16s) 
CPU  0 inst:  122000002 cyc:  156709245 now IPC :1.71725: AVG IPC :0.77064: L2-Pf-HR :0.82898: L2-HR :0.82693: (Sim:0h33m28s) 
Finished CPU 0 instr: 120000000 cyc: 155715618 AVG IPC: 0.77064 (Sim time: 0h33m28s)

ChampSim completed all CPUs

[ROI Statistics]
Core_0_instructions 120000000
Core_0_cycles 155715618
Core_0_IPC 0.77064

Core_0_branch_prediction_accuracy 99.19469
Core_0_branch_MPKI 0.24154
Core_0_average_ROB_occupancy_at_mispredict 396.04485

Core_0_L1D_total_access 36233645
Core_0_L1D_total_hit 31616132 L1D_total_Hit Ratio: 0.87256
Core_0_L1D_total_miss 4617513
Core_0_L1D_loads 30207720
Core_0_L1D_load_hit 27793085 L1D_load_Hit Ratio: 0.92007
Core_0_L1D_load_miss 2414635
Core_0_L1D_RFOs 3265750
Core_0_L1D_RFO_hit 3075447 L1D_RFO_Hit Ratio: 0.94173
Core_0_L1D_RFO_miss 190303
Core_0_L1D_prefetches 2760175
Core_0_L1D_prefetch_hit 747600 L1D_prefetch_Hit Ratio: 0.27085
Core_0_L1D_prefetch_miss 2012575
Core_0_L1D_writebacks 0
Core_0_L1D_writeback_hit 0 L1D_writeback_Hit Ratio: -nan
Core_0_L1D_writeback_miss 0
Core_0_L1D_prefetch_requested 4839664
Core_0_L1D_prefetch_issued 4334579
Core_0_L1D_prefetch_useful 1985594 L1D_Useful Ratio: 0.45808
Core_0_L1D_prefetch_useless 53728
Core_0_L1D_prefetch_late 394165
Core_0_L1D_average_miss_latency 9531182.58092

Core_0_L1I_total_access 17359776
Core_0_L1I_total_hit 17354841 L1I_total_Hit Ratio: 0.99972
Core_0_L1I_total_miss 4935
Core_0_L1I_loads 17359776
Core_0_L1I_load_hit 17354841 L1I_load_Hit Ratio: 0.99972
Core_0_L1I_load_miss 4935
Core_0_L1I_RFOs 0
Core_0_L1I_RFO_hit 0 L1I_RFO_Hit Ratio: -nan
Core_0_L1I_RFO_miss 0
Core_0_L1I_prefetches 0
Core_0_L1I_prefetch_hit 0 L1I_prefetch_Hit Ratio: -nan
Core_0_L1I_prefetch_miss 0
Core_0_L1I_writebacks 0
Core_0_L1I_writeback_hit 0 L1I_writeback_Hit Ratio: -nan
Core_0_L1I_writeback_miss 0
Core_0_L1I_prefetch_requested 0
Core_0_L1I_prefetch_issued 0
Core_0_L1I_prefetch_useful 0 L1I_Useful Ratio: -nan
Core_0_L1I_prefetch_useless 0
Core_0_L1I_prefetch_late 0
Core_0_L1I_average_miss_latency 286.24438

Core_0_L2C_total_access 6240860
Core_0_L2C_total_hit 5160730 L2C_total_Hit Ratio: 0.82693
Core_0_L2C_total_miss 1080130
Core_0_L2C_loads 2026777
Core_0_L2C_load_hit 1693673 L2C_load_Hit Ratio: 0.83565
Core_0_L2C_load_miss 333104
Core_0_L2C_RFOs 190298
Core_0_L2C_RFO_hit 3762 L2C_RFO_Hit Ratio: 0.01977
Core_0_L2C_RFO_miss 186536
Core_0_L2C_prefetches 3277396
Core_0_L2C_prefetch_hit 2716911 L2C_prefetch_Hit Ratio: 0.82898
Core_0_L2C_prefetch_miss 560485
Core_0_L2C_writebacks 746389
Core_0_L2C_writeback_hit 746384 L2C_writeback_Hit Ratio: 0.99999
Core_0_L2C_writeback_miss 5
Core_0_L2C_prefetch_requested 1629865
Core_0_L2C_prefetch_issued 1253473
Core_0_L2C_prefetch_useful 139336 L2C_Useful Ratio: 0.11116
Core_0_L2C_prefetch_useless 421154
Core_0_L2C_prefetch_late 75433
Core_0_L2C_average_miss_latency 331.00359

Core_0_LLC_total_access 1702011
Core_0_LLC_total_hit 634455 LLC_total_Hit Ratio: 0.37277
Core_0_LLC_total_miss 1067556
Core_0_LLC_loads 257844
Core_0_LLC_load_hit 4150 LLC_load_Hit Ratio: 0.01610
Core_0_LLC_load_miss 253694
Core_0_LLC_RFOs 186535
Core_0_LLC_RFO_hit 202 LLC_RFO_Hit Ratio: 0.00108
Core_0_LLC_RFO_miss 186333
Core_0_LLC_prefetches 635746
Core_0_LLC_prefetch_hit 11859 LLC_prefetch_Hit Ratio: 0.01865
Core_0_LLC_prefetch_miss 623887
Core_0_LLC_writebacks 621886
Core_0_LLC_writeback_hit 618244 LLC_writeback_Hit Ratio: 0.99414
Core_0_LLC_writeback_miss 3642
Core_0_LLC_prefetch_requested 0
Core_0_LLC_prefetch_issued 0
Core_0_LLC_prefetch_useful 2205 LLC_Useful Ratio: inf
Core_0_LLC_prefetch_useless 588725
Core_0_LLC_prefetch_late 0
Core_0_LLC_average_miss_latency 305.61093

Core_0_major_page_fault 0
Core_0_minor_page_fault 8629

CPU 0 L1D berti prefetcher final stats
CPU 0 L2C berti prefetcher final stats
Channel_0_RQ_row_buffer_hit 616177
Channel_0_RQ_row_buffer_miss 447737
Channel_0_WQ_row_buffer_hit 257582
Channel_0_WQ_row_buffer_miss 355174
Channel_0_WQ_full 1847
Channel_0_dbus_congested 688143

avg_congested_cycle 8

EzSearch AVG IPC :0.77064: L2-Pf-HR :0.82898 : L2-HR :0.82693 Uful:0.11116
     > Finished combination: TraceType=770-tot Sim:120000000 Prefetcher=L2berti_concurso L1=berti_concurso
