TRACE: [496000000][OPT-125M]_[h12][s1024][d64] Warmup: 2000000 NumTraces: 496000000
L1:no:L2:no
*************************************************
   ChampSim Multicore Out-of-Order Simulator
   Last compiled: Oct 31 2024 09:08:47
*************************************************

trace_0 770-tot_memTraces_v5/130-subBillion_s1024_LLM_Arch/memTraces[496000000][OPT-125M]_[h12][s1024][d64].champsim.9.xz
MAIN.cc ln 751 stats print skipped
CPU  0 inst:    1000002 cyc:     507343 now IPC :1.97106: AVG IPC :1.97106: L2-Pf-HR :-nan: L2-HR :0.63267: (Sim:0h0m14s) 
CPU  0 inst:    2000000 cyc:     997597 now IPC :2.03975: AVG IPC :2.00482: L2-Pf-HR :-nan: L2-HR :0.68940: (Sim:0h0m28s) 

Warmup complete CPU  0 instructions:    2000002 cycles:     997598 (Simulation time: 0 hr 0 min 28 sec) 

CPU  0 inst:    3000001 cyc:    1688592 now IPC :1.44719: AVG IPC :1.44719: L2-Pf-HR :-nan: L2-HR :0.73305: (Sim:0h0m39s) 
CPU  0 inst:    4000000 cyc:    2378462 now IPC :1.44955: AVG IPC :1.44837: L2-Pf-HR :-nan: L2-HR :0.73238: (Sim:0h0m46s) 
CPU  0 inst:    5000000 cyc:    3066928 now IPC :1.45250: AVG IPC :1.44974: L2-Pf-HR :-nan: L2-HR :0.73220: (Sim:0h0m53s) 
CPU  0 inst:    6000005 cyc:    3757858 now IPC :1.44733: AVG IPC :1.44914: L2-Pf-HR :-nan: L2-HR :0.73222: (Sim:0h0m59s) 
CPU  0 inst:    7000002 cyc:    4507062 now IPC :1.33475: AVG IPC :1.42472: L2-Pf-HR :-nan: L2-HR :0.73154: (Sim:0h1m6s) 
CPU  0 inst:    8000000 cyc:    5193674 now IPC :1.45642: AVG IPC :1.42991: L2-Pf-HR :-nan: L2-HR :0.73349: (Sim:0h1m17s) 
CPU  0 inst:    9000005 cyc:    5878260 now IPC :1.46074: AVG IPC :1.43423: L2-Pf-HR :-nan: L2-HR :0.73492: (Sim:0h1m29s) 
CPU  0 inst:   10000000 cyc:    6562283 now IPC :1.46193: AVG IPC :1.43764: L2-Pf-HR :-nan: L2-HR :0.73576: (Sim:0h1m36s) 
CPU  0 inst:   11000003 cyc:    7244766 now IPC :1.46524: AVG IPC :1.44065: L2-Pf-HR :-nan: L2-HR :0.73646: (Sim:0h1m43s) 
CPU  0 inst:   12000003 cyc:    7928151 now IPC :1.46330: AVG IPC :1.44289: L2-Pf-HR :-nan: L2-HR :0.73712: (Sim:0h1m49s) 
CPU  0 inst:   13000005 cyc:    8681242 now IPC :1.32786: AVG IPC :1.43161: L2-Pf-HR :-nan: L2-HR :0.74053: (Sim:0h1m56s) 
CPU  0 inst:   14000002 cyc:    9380656 now IPC :1.42976: AVG IPC :1.43146: L2-Pf-HR :-nan: L2-HR :0.74492: (Sim:0h2m3s) 
CPU  0 inst:   15000003 cyc:   10077149 now IPC :1.43577: AVG IPC :1.43179: L2-Pf-HR :-nan: L2-HR :0.74913: (Sim:0h2m16s) 
CPU  0 inst:   16000000 cyc:   10776094 now IPC :1.43072: AVG IPC :1.43171: L2-Pf-HR :-nan: L2-HR :0.75261: (Sim:0h2m29s) 
CPU  0 inst:   17000000 cyc:   11594983 now IPC :1.22117: AVG IPC :1.41544: L2-Pf-HR :-nan: L2-HR :0.74907: (Sim:0h2m43s) 
CPU  0 inst:   18000001 cyc:   12322768 now IPC :1.37403: AVG IPC :1.41278: L2-Pf-HR :-nan: L2-HR :0.74799: (Sim:0h2m52s) 
CPU  0 inst:   19000005 cyc:   13054146 now IPC :1.36729: AVG IPC :1.41002: L2-Pf-HR :-nan: L2-HR :0.74706: (Sim:0h2m59s) 
CPU  0 inst:   20000003 cyc:   13782159 now IPC :1.37360: AVG IPC :1.40795: L2-Pf-HR :-nan: L2-HR :0.74624: (Sim:0h3m9s) 
CPU  0 inst:   21000001 cyc:   14513372 now IPC :1.36759: AVG IPC :1.40576: L2-Pf-HR :-nan: L2-HR :0.74544: (Sim:0h3m16s) 
CPU  0 inst:   22000001 cyc:   15240705 now IPC :1.37489: AVG IPC :1.40419: L2-Pf-HR :-nan: L2-HR :0.74475: (Sim:0h3m23s) 
CPU  0 inst:   23000002 cyc:   16052325 now IPC :1.23210: AVG IPC :1.39491: L2-Pf-HR :-nan: L2-HR :0.74384: (Sim:0h3m36s) 
CPU  0 inst:   24000000 cyc:   16776897 now IPC :1.38012: AVG IPC :1.39423: L2-Pf-HR :-nan: L2-HR :0.74381: (Sim:0h3m44s) 
CPU  0 inst:   25000003 cyc:   17498514 now IPC :1.38578: AVG IPC :1.39386: L2-Pf-HR :-nan: L2-HR :0.74378: (Sim:0h3m51s) 
CPU  0 inst:   26000004 cyc:   18217738 now IPC :1.39039: AVG IPC :1.39372: L2-Pf-HR :-nan: L2-HR :0.74370: (Sim:0h3m58s) 
CPU  0 inst:   27000002 cyc:   18939409 now IPC :1.38567: AVG IPC :1.39339: L2-Pf-HR :-nan: L2-HR :0.74366: (Sim:0h4m11s) 
CPU  0 inst:   28000000 cyc:   19659381 now IPC :1.38894: AVG IPC :1.39322: L2-Pf-HR :-nan: L2-HR :0.74362: (Sim:0h4m25s) 
CPU  0 inst:   29000005 cyc:   20437064 now IPC :1.28588: AVG IPC :1.38893: L2-Pf-HR :-nan: L2-HR :0.74436: (Sim:0h4m35s) 
CPU  0 inst:   30000000 cyc:   21153870 now IPC :1.39507: AVG IPC :1.38915: L2-Pf-HR :-nan: L2-HR :0.74631: (Sim:0h4m43s) 
CPU  0 inst:   31000001 cyc:   21869042 now IPC :1.39827: AVG IPC :1.38946: L2-Pf-HR :-nan: L2-HR :0.74815: (Sim:0h4m51s) 
CPU  0 inst:   32000000 cyc:   22583614 now IPC :1.39944: AVG IPC :1.38979: L2-Pf-HR :-nan: L2-HR :0.74967: (Sim:0h5m0s) 
CPU  0 inst:   33000003 cyc:   23402158 now IPC :1.22169: AVG IPC :1.38365: L2-Pf-HR :-nan: L2-HR :0.74848: (Sim:0h5m13s) 
CPU  0 inst:   34000000 cyc:   24146610 now IPC :1.34327: AVG IPC :1.38235: L2-Pf-HR :-nan: L2-HR :0.74796: (Sim:0h5m26s) 
CPU  0 inst:   35000005 cyc:   24889868 now IPC :1.34543: AVG IPC :1.38120: L2-Pf-HR :-nan: L2-HR :0.74749: (Sim:0h5m34s) 
CPU  0 inst:   36000000 cyc:   25629240 now IPC :1.35249: AVG IPC :1.38034: L2-Pf-HR :-nan: L2-HR :0.74703: (Sim:0h5m45s) 
CPU  0 inst:   37000004 cyc:   26374423 now IPC :1.34196: AVG IPC :1.37921: L2-Pf-HR :-nan: L2-HR :0.74657: (Sim:0h5m58s) 
CPU  0 inst:   38000005 cyc:   27116652 now IPC :1.34729: AVG IPC :1.37830: L2-Pf-HR :-nan: L2-HR :0.74612: (Sim:0h6m11s) 
CPU  0 inst:   39000003 cyc:   27926571 now IPC :1.23469: AVG IPC :1.37398: L2-Pf-HR :-nan: L2-HR :0.74553: (Sim:0h6m25s) 
CPU  0 inst:   40000000 cyc:   28632422 now IPC :1.41673: AVG IPC :1.37508: L2-Pf-HR :-nan: L2-HR :0.74550: (Sim:0h6m38s) 
CPU  0 inst:   41000001 cyc:   29335644 now IPC :1.42203: AVG IPC :1.37624: L2-Pf-HR :-nan: L2-HR :0.74545: (Sim:0h6m52s) 
CPU  0 inst:   42000000 cyc:   30040088 now IPC :1.41956: AVG IPC :1.37729: L2-Pf-HR :-nan: L2-HR :0.74538: (Sim:0h7m5s) 
CPU  0 inst:   43000005 cyc:   30745774 now IPC :1.41707: AVG IPC :1.37824: L2-Pf-HR :-nan: L2-HR :0.74533: (Sim:0h7m18s) 
CPU  0 inst:   44000000 cyc:   31451039 now IPC :1.41790: AVG IPC :1.37915: L2-Pf-HR :-nan: L2-HR :0.74528: (Sim:0h7m31s) 
CPU  0 inst:   45000003 cyc:   32219210 now IPC :1.30180: AVG IPC :1.37725: L2-Pf-HR :-nan: L2-HR :0.74552: (Sim:0h7m45s) 
CPU  0 inst:   46000000 cyc:   32921151 now IPC :1.42462: AVG IPC :1.37829: L2-Pf-HR :-nan: L2-HR :0.74675: (Sim:0h7m58s) 
CPU  0 inst:   47000001 cyc:   33626064 now IPC :1.41862: AVG IPC :1.37916: L2-Pf-HR :-nan: L2-HR :0.74784: (Sim:0h8m11s) 
CPU  0 inst:   48000000 cyc:   34327699 now IPC :1.42524: AVG IPC :1.38013: L2-Pf-HR :-nan: L2-HR :0.74892: (Sim:0h8m25s) 
CPU  0 inst:   49000000 cyc:   35135984 now IPC :1.23719: AVG IPC :1.37675: L2-Pf-HR :-nan: L2-HR :0.74829: (Sim:0h8m38s) 
CPU  0 inst:   50000004 cyc:   35872435 now IPC :1.35787: AVG IPC :1.37635: L2-Pf-HR :-nan: L2-HR :0.74793: (Sim:0h8m50s) 
CPU  0 inst:   51000001 cyc:   36613179 now IPC :1.34999: AVG IPC :1.37580: L2-Pf-HR :-nan: L2-HR :0.74760: (Sim:0h9m3s) 
CPU  0 inst:   52000003 cyc:   37353712 now IPC :1.35038: AVG IPC :1.37528: L2-Pf-HR :-nan: L2-HR :0.74728: (Sim:0h9m15s) 
CPU  0 inst:   53000000 cyc:   38097937 now IPC :1.34368: AVG IPC :1.37465: L2-Pf-HR :-nan: L2-HR :0.74694: (Sim:0h9m28s) 
CPU  0 inst:   54000005 cyc:   38839276 now IPC :1.34892: AVG IPC :1.37415: L2-Pf-HR :-nan: L2-HR :0.74663: (Sim:0h9m37s) 
CPU  0 inst:   55000005 cyc:   39648908 now IPC :1.23513: AVG IPC :1.37123: L2-Pf-HR :-nan: L2-HR :0.74617: (Sim:0h9m48s) 
CPU  0 inst:   56000000 cyc:   40371841 now IPC :1.38325: AVG IPC :1.37145: L2-Pf-HR :-nan: L2-HR :0.74613: (Sim:0h10m2s) 
CPU  0 inst:   57000000 cyc:   41092731 now IPC :1.38717: AVG IPC :1.37174: L2-Pf-HR :-nan: L2-HR :0.74606: (Sim:0h10m15s) 
CPU  0 inst:   58000001 cyc:   41813731 now IPC :1.38696: AVG IPC :1.37201: L2-Pf-HR :-nan: L2-HR :0.74600: (Sim:0h10m28s) 
CPU  0 inst:   59000003 cyc:   42536380 now IPC :1.38380: AVG IPC :1.37221: L2-Pf-HR :-nan: L2-HR :0.74596: (Sim:0h10m42s) 
CPU  0 inst:   60000003 cyc:   43255665 now IPC :1.39027: AVG IPC :1.37252: L2-Pf-HR :-nan: L2-HR :0.74591: (Sim:0h10m56s) 
CPU  0 inst:   61000002 cyc:   44039481 now IPC :1.27581: AVG IPC :1.37076: L2-Pf-HR :-nan: L2-HR :0.74601: (Sim:0h11m9s) 
CPU  0 inst:   62000004 cyc:   44757868 now IPC :1.39201: AVG IPC :1.37111: L2-Pf-HR :-nan: L2-HR :0.74686: (Sim:0h11m20s) 
CPU  0 inst:   63000005 cyc:   45478314 now IPC :1.38803: AVG IPC :1.37138: L2-Pf-HR :-nan: L2-HR :0.74768: (Sim:0h11m30s) 
CPU  0 inst:   64000000 cyc:   46198307 now IPC :1.38890: AVG IPC :1.37166: L2-Pf-HR :-nan: L2-HR :0.74852: (Sim:0h11m44s) 
CPU  0 inst:   65000000 cyc:   47010225 now IPC :1.23165: AVG IPC :1.36919: L2-Pf-HR :-nan: L2-HR :0.74820: (Sim:0h11m56s) 
CPU  0 inst:   66000001 cyc:   47751252 now IPC :1.34948: AVG IPC :1.36888: L2-Pf-HR :-nan: L2-HR :0.74798: (Sim:0h12m6s) 
CPU  0 inst:   67000000 cyc:   48493112 now IPC :1.34796: AVG IPC :1.36855: L2-Pf-HR :-nan: L2-HR :0.74773: (Sim:0h12m19s) 
CPU  0 inst:   68000003 cyc:   49235780 now IPC :1.34650: AVG IPC :1.36821: L2-Pf-HR :-nan: L2-HR :0.74749: (Sim:0h12m33s) 
CPU  0 inst:   69000004 cyc:   49979991 now IPC :1.34371: AVG IPC :1.36784: L2-Pf-HR :-nan: L2-HR :0.74725: (Sim:0h12m46s) 
CPU  0 inst:   70000001 cyc:   50723074 now IPC :1.34574: AVG IPC :1.36751: L2-Pf-HR :-nan: L2-HR :0.74700: (Sim:0h13m0s) 
CPU  0 inst:   71000003 cyc:   51542958 now IPC :1.21969: AVG IPC :1.36511: L2-Pf-HR :-nan: L2-HR :0.74662: (Sim:0h13m14s) 
CPU  0 inst:   72000000 cyc:   52256094 now IPC :1.40225: AVG IPC :1.36563: L2-Pf-HR :-nan: L2-HR :0.74659: (Sim:0h13m26s) 
CPU  0 inst:   73000000 cyc:   52967117 now IPC :1.40642: AVG IPC :1.36619: L2-Pf-HR :-nan: L2-HR :0.74653: (Sim:0h13m36s) 
CPU  0 inst:   74000005 cyc:   53679410 now IPC :1.40392: AVG IPC :1.36670: L2-Pf-HR :-nan: L2-HR :0.74649: (Sim:0h13m47s) 
CPU  0 inst:   75000005 cyc:   54389346 now IPC :1.40858: AVG IPC :1.36725: L2-Pf-HR :-nan: L2-HR :0.74645: (Sim:0h14m1s) 
CPU  0 inst:   76000001 cyc:   55099122 now IPC :1.40889: AVG IPC :1.36780: L2-Pf-HR :-nan: L2-HR :0.74640: (Sim:0h14m15s) 
CPU  0 inst:   77000002 cyc:   55871305 now IPC :1.29503: AVG IPC :1.36677: L2-Pf-HR :-nan: L2-HR :0.74637: (Sim:0h14m30s) 
CPU  0 inst:   78000004 cyc:   56587809 now IPC :1.39567: AVG IPC :1.36715: L2-Pf-HR :-nan: L2-HR :0.74697: (Sim:0h14m44s) 
CPU  0 inst:   79000001 cyc:   57302221 now IPC :1.39975: AVG IPC :1.36756: L2-Pf-HR :-nan: L2-HR :0.74769: (Sim:0h14m57s) 
CPU  0 inst:   80000000 cyc:   58020804 now IPC :1.39163: AVG IPC :1.36786: L2-Pf-HR :-nan: L2-HR :0.74831: (Sim:0h15m10s) 
CPU  0 inst:   81000003 cyc:   58821495 now IPC :1.24892: AVG IPC :1.36622: L2-Pf-HR :-nan: L2-HR :0.74817: (Sim:0h15m21s) 
CPU  0 inst:   82000004 cyc:   59558874 now IPC :1.35616: AVG IPC :1.36609: L2-Pf-HR :-nan: L2-HR :0.74797: (Sim:0h15m34s) 
CPU  0 inst:   83000004 cyc:   60298077 now IPC :1.35281: AVG IPC :1.36592: L2-Pf-HR :-nan: L2-HR :0.74777: (Sim:0h15m48s) 
CPU  0 inst:   84000000 cyc:   61040589 now IPC :1.34677: AVG IPC :1.36569: L2-Pf-HR :-nan: L2-HR :0.74758: (Sim:0h16m2s) 
CPU  0 inst:   85000001 cyc:   61783769 now IPC :1.34557: AVG IPC :1.36544: L2-Pf-HR :-nan: L2-HR :0.74738: (Sim:0h16m15s) 
CPU  0 inst:   86000005 cyc:   62525768 now IPC :1.34772: AVG IPC :1.36523: L2-Pf-HR :-nan: L2-HR :0.74718: (Sim:0h16m28s) 
CPU  0 inst:   87000001 cyc:   63338008 now IPC :1.23116: AVG IPC :1.36348: L2-Pf-HR :-nan: L2-HR :0.74686: (Sim:0h16m40s) 
CPU  0 inst:   88000000 cyc:   64078841 now IPC :1.34983: AVG IPC :1.36332: L2-Pf-HR :-nan: L2-HR :0.74680: (Sim:0h16m53s) 
CPU  0 inst:   89000004 cyc:   64803513 now IPC :1.37994: AVG IPC :1.36351: L2-Pf-HR :-nan: L2-HR :0.74676: (Sim:0h17m5s) 
CPU  0 inst:   90000002 cyc:   65527500 now IPC :1.38124: AVG IPC :1.36371: L2-Pf-HR :-nan: L2-HR :0.74672: (Sim:0h17m18s) 
CPU  0 inst:   91000001 cyc:   66251237 now IPC :1.38172: AVG IPC :1.36391: L2-Pf-HR :-nan: L2-HR :0.74669: (Sim:0h17m32s) 
CPU  0 inst:   92000001 cyc:   66972972 now IPC :1.38555: AVG IPC :1.36415: L2-Pf-HR :-nan: L2-HR :0.74666: (Sim:0h17m41s) 
CPU  0 inst:   93000001 cyc:   67754192 now IPC :1.28005: AVG IPC :1.36316: L2-Pf-HR :-nan: L2-HR :0.74651: (Sim:0h17m52s) 
CPU  0 inst:   94000002 cyc:   68475032 now IPC :1.38727: AVG IPC :1.36342: L2-Pf-HR :-nan: L2-HR :0.74709: (Sim:0h18m5s) 
CPU  0 inst:   95000002 cyc:   69190674 now IPC :1.39735: AVG IPC :1.36377: L2-Pf-HR :-nan: L2-HR :0.74764: (Sim:0h18m19s) 
CPU  0 inst:   96000000 cyc:   69907630 now IPC :1.39478: AVG IPC :1.36410: L2-Pf-HR :-nan: L2-HR :0.74811: (Sim:0h18m33s) 
CPU  0 inst:   97000001 cyc:   70684397 now IPC :1.28739: AVG IPC :1.36324: L2-Pf-HR :-nan: L2-HR :0.74818: (Sim:0h18m46s) 
CPU  0 inst:   98000001 cyc:   71446780 now IPC :1.31168: AVG IPC :1.36268: L2-Pf-HR :-nan: L2-HR :0.74797: (Sim:0h19m0s) 
CPU  0 inst:   99000001 cyc:   72185776 now IPC :1.35319: AVG IPC :1.36259: L2-Pf-HR :-nan: L2-HR :0.74779: (Sim:0h19m14s) 
CPU  0 inst:  100000003 cyc:   72927446 now IPC :1.34831: AVG IPC :1.36244: L2-Pf-HR :-nan: L2-HR :0.74763: (Sim:0h19m28s) 
CPU  0 inst:  101000000 cyc:   73666167 now IPC :1.35369: AVG IPC :1.36235: L2-Pf-HR :-nan: L2-HR :0.74745: (Sim:0h19m41s) 
CPU  0 inst:  102000002 cyc:   74404653 now IPC :1.35412: AVG IPC :1.36227: L2-Pf-HR :-nan: L2-HR :0.74727: (Sim:0h19m53s) 
CPU  0 inst:  103000001 cyc:   75154813 now IPC :1.33305: AVG IPC :1.36197: L2-Pf-HR :-nan: L2-HR :0.74718: (Sim:0h20m4s) 
CPU  0 inst:  104000000 cyc:   75937560 now IPC :1.27755: AVG IPC :1.36109: L2-Pf-HR :-nan: L2-HR :0.74693: (Sim:0h20m17s) 
CPU  0 inst:  105000000 cyc:   76639064 now IPC :1.42551: AVG IPC :1.36169: L2-Pf-HR :-nan: L2-HR :0.74689: (Sim:0h20m31s) 
CPU  0 inst:  106000002 cyc:   77342577 now IPC :1.42144: AVG IPC :1.36224: L2-Pf-HR :-nan: L2-HR :0.74686: (Sim:0h20m44s) 
CPU  0 inst:  107000005 cyc:   78043291 now IPC :1.42712: AVG IPC :1.36283: L2-Pf-HR :-nan: L2-HR :0.74683: (Sim:0h20m58s) 
CPU  0 inst:  108000003 cyc:   78743839 now IPC :1.42745: AVG IPC :1.36341: L2-Pf-HR :-nan: L2-HR :0.74680: (Sim:0h21m11s) 
CPU  0 inst:  109000001 cyc:   79454854 now IPC :1.40644: AVG IPC :1.36380: L2-Pf-HR :-nan: L2-HR :0.74682: (Sim:0h21m24s) 
CPU  0 inst:  110000003 cyc:   80220838 now IPC :1.30551: AVG IPC :1.36324: L2-Pf-HR :-nan: L2-HR :0.74710: (Sim:0h21m38s) 
CPU  0 inst:  111000000 cyc:   80937453 now IPC :1.39545: AVG IPC :1.36353: L2-Pf-HR :-nan: L2-HR :0.74753: (Sim:0h21m52s) 
CPU  0 inst:  112000000 cyc:   81651280 now IPC :1.40090: AVG IPC :1.36386: L2-Pf-HR :-nan: L2-HR :0.74800: (Sim:0h22m5s) 
CPU  0 inst:  113000000 cyc:   82370093 now IPC :1.39118: AVG IPC :1.36410: L2-Pf-HR :-nan: L2-HR :0.74846: (Sim:0h22m19s) 
CPU  0 inst:  114000001 cyc:   83194909 now IPC :1.21239: AVG IPC :1.36257: L2-Pf-HR :-nan: L2-HR :0.74795: (Sim:0h22m34s) 
CPU  0 inst:  115000002 cyc:   83943080 now IPC :1.33659: AVG IPC :1.36234: L2-Pf-HR :-nan: L2-HR :0.74781: (Sim:0h22m48s) 
CPU  0 inst:  116000001 cyc:   84691335 now IPC :1.33644: AVG IPC :1.36211: L2-Pf-HR :-nan: L2-HR :0.74767: (Sim:0h23m2s) 
CPU  0 inst:  117000001 cyc:   85435444 now IPC :1.34389: AVG IPC :1.36195: L2-Pf-HR :-nan: L2-HR :0.74753: (Sim:0h23m16s) 
CPU  0 inst:  118000001 cyc:   86180768 now IPC :1.34170: AVG IPC :1.36177: L2-Pf-HR :-nan: L2-HR :0.74739: (Sim:0h23m30s) 
CPU  0 inst:  119000003 cyc:   86926892 now IPC :1.34026: AVG IPC :1.36158: L2-Pf-HR :-nan: L2-HR :0.74725: (Sim:0h23m43s) 
CPU  0 inst:  120000000 cyc:   87732563 now IPC :1.24120: AVG IPC :1.36047: L2-Pf-HR :-nan: L2-HR :0.74707: (Sim:0h23m57s) 
CPU  0 inst:  121000000 cyc:   88448575 now IPC :1.39662: AVG IPC :1.36076: L2-Pf-HR :-nan: L2-HR :0.74704: (Sim:0h24m10s) 
CPU  0 inst:  122000001 cyc:   89161984 now IPC :1.40172: AVG IPC :1.36109: L2-Pf-HR :-nan: L2-HR :0.74702: (Sim:0h24m23s) 
CPU  0 inst:  123000001 cyc:   89874279 now IPC :1.40391: AVG IPC :1.36144: L2-Pf-HR :-nan: L2-HR :0.74699: (Sim:0h24m36s) 
CPU  0 inst:  124000003 cyc:   90587038 now IPC :1.40300: AVG IPC :1.36177: L2-Pf-HR :-nan: L2-HR :0.74696: (Sim:0h24m47s) 
CPU  0 inst:  125000004 cyc:   91300852 now IPC :1.40093: AVG IPC :1.36208: L2-Pf-HR :-nan: L2-HR :0.74693: (Sim:0h24m57s) 
CPU  0 inst:  126000003 cyc:   92074474 now IPC :1.29262: AVG IPC :1.36149: L2-Pf-HR :-nan: L2-HR :0.74714: (Sim:0h25m10s) 
CPU  0 inst:  127000004 cyc:   92789054 now IPC :1.39942: AVG IPC :1.36178: L2-Pf-HR :-nan: L2-HR :0.74755: (Sim:0h25m23s) 
CPU  0 inst:  128000000 cyc:   93504171 now IPC :1.39837: AVG IPC :1.36207: L2-Pf-HR :-nan: L2-HR :0.74796: (Sim:0h25m37s) 
CPU  0 inst:  129000003 cyc:   94219461 now IPC :1.39804: AVG IPC :1.36234: L2-Pf-HR :-nan: L2-HR :0.74830: (Sim:0h25m50s) 
CPU  0 inst:  130000004 cyc:   95037573 now IPC :1.22233: AVG IPC :1.36112: L2-Pf-HR :-nan: L2-HR :0.74795: (Sim:0h26m4s) 
CPU  0 inst:  131000005 cyc:   95780764 now IPC :1.34555: AVG IPC :1.36100: L2-Pf-HR :-nan: L2-HR :0.74783: (Sim:0h26m14s) 
CPU  0 inst:  132000003 cyc:   96528886 now IPC :1.33668: AVG IPC :1.36081: L2-Pf-HR :-nan: L2-HR :0.74770: (Sim:0h26m28s) 
CPU  0 inst:  133000001 cyc:   97271606 now IPC :1.34640: AVG IPC :1.36070: L2-Pf-HR :-nan: L2-HR :0.74758: (Sim:0h26m41s) 
CPU  0 inst:  134000002 cyc:   98017829 now IPC :1.34008: AVG IPC :1.36054: L2-Pf-HR :-nan: L2-HR :0.74745: (Sim:0h26m54s) 
CPU  0 inst:  135000001 cyc:   98765043 now IPC :1.33830: AVG IPC :1.36037: L2-Pf-HR :-nan: L2-HR :0.74732: (Sim:0h27m8s) 
CPU  0 inst:  136000000 cyc:   99564371 now IPC :1.25105: AVG IPC :1.35948: L2-Pf-HR :-nan: L2-HR :0.74716: (Sim:0h27m22s) 
CPU  0 inst:  137000004 cyc:  100280017 now IPC :1.39734: AVG IPC :1.35976: L2-Pf-HR :-nan: L2-HR :0.74712: (Sim:0h27m35s) 
CPU  0 inst:  138000002 cyc:  100994369 now IPC :1.39987: AVG IPC :1.36004: L2-Pf-HR :-nan: L2-HR :0.74711: (Sim:0h27m48s) 
CPU  0 inst:  139000000 cyc:  101705359 now IPC :1.40649: AVG IPC :1.36037: L2-Pf-HR :-nan: L2-HR :0.74708: (Sim:0h28m1s) 
CPU  0 inst:  140000005 cyc:  102418667 now IPC :1.40193: AVG IPC :1.36066: L2-Pf-HR :-nan: L2-HR :0.74706: (Sim:0h28m14s) 
CPU  0 inst:  141000001 cyc:  103131060 now IPC :1.40371: AVG IPC :1.36096: L2-Pf-HR :-nan: L2-HR :0.74704: (Sim:0h28m28s) 
CPU  0 inst:  142000001 cyc:  103904104 now IPC :1.29359: AVG IPC :1.36046: L2-Pf-HR :-nan: L2-HR :0.74716: (Sim:0h28m41s) 
CPU  0 inst:  143000004 cyc:  104613286 now IPC :1.41008: AVG IPC :1.36080: L2-Pf-HR :-nan: L2-HR :0.74754: (Sim:0h28m55s) 
CPU  0 inst:  144000000 cyc:  105325433 now IPC :1.40420: AVG IPC :1.36109: L2-Pf-HR :-nan: L2-HR :0.74787: (Sim:0h29m8s) 
CPU  0 inst:  145000000 cyc:  106036619 now IPC :1.40610: AVG IPC :1.36140: L2-Pf-HR :-nan: L2-HR :0.74822: (Sim:0h29m20s) 
CPU  0 inst:  146000004 cyc:  106853769 now IPC :1.22377: AVG IPC :1.36034: L2-Pf-HR :-nan: L2-HR :0.74797: (Sim:0h29m32s) 
CPU  0 inst:  147000001 cyc:  107592071 now IPC :1.35446: AVG IPC :1.36030: L2-Pf-HR :-nan: L2-HR :0.74785: (Sim:0h29m44s) 
CPU  0 inst:  148000000 cyc:  108330950 now IPC :1.35340: AVG IPC :1.36025: L2-Pf-HR :-nan: L2-HR :0.74775: (Sim:0h29m58s) 
CPU  0 inst:  149000004 cyc:  109068512 now IPC :1.35582: AVG IPC :1.36022: L2-Pf-HR :-nan: L2-HR :0.74763: (Sim:0h30m10s) 
CPU  0 inst:  150000005 cyc:  109807089 now IPC :1.35396: AVG IPC :1.36018: L2-Pf-HR :-nan: L2-HR :0.74752: (Sim:0h30m24s) 
CPU  0 inst:  151000003 cyc:  110547139 now IPC :1.35126: AVG IPC :1.36012: L2-Pf-HR :-nan: L2-HR :0.74740: (Sim:0h30m36s) 
CPU  0 inst:  152000000 cyc:  111361547 now IPC :1.22788: AVG IPC :1.35914: L2-Pf-HR :-nan: L2-HR :0.74724: (Sim:0h30m49s) 
CPU  0 inst:  153000002 cyc:  112084910 now IPC :1.38243: AVG IPC :1.35929: L2-Pf-HR :-nan: L2-HR :0.74721: (Sim:0h31m1s) 
CPU  0 inst:  154000000 cyc:  112804063 now IPC :1.39052: AVG IPC :1.35949: L2-Pf-HR :-nan: L2-HR :0.74719: (Sim:0h31m14s) 
CPU  0 inst:  155000003 cyc:  113524686 now IPC :1.38769: AVG IPC :1.35967: L2-Pf-HR :-nan: L2-HR :0.74717: (Sim:0h31m28s) 
CPU  0 inst:  156000003 cyc:  114244827 now IPC :1.38862: AVG IPC :1.35986: L2-Pf-HR :-nan: L2-HR :0.74715: (Sim:0h31m41s) 
CPU  0 inst:  157000003 cyc:  114963816 now IPC :1.39084: AVG IPC :1.36005: L2-Pf-HR :-nan: L2-HR :0.74713: (Sim:0h31m53s) 
CPU  0 inst:  158000001 cyc:  115743864 now IPC :1.28197: AVG IPC :1.35952: L2-Pf-HR :-nan: L2-HR :0.74721: (Sim:0h32m7s) 
CPU  0 inst:  159000002 cyc:  116459475 now IPC :1.39741: AVG IPC :1.35976: L2-Pf-HR :-nan: L2-HR :0.74752: (Sim:0h32m19s) 
CPU  0 inst:  160000000 cyc:  117173963 now IPC :1.39960: AVG IPC :1.36000: L2-Pf-HR :-nan: L2-HR :0.74782: (Sim:0h32m32s) 
CPU  0 inst:  161000003 cyc:  117890163 now IPC :1.39626: AVG IPC :1.36022: L2-Pf-HR :-nan: L2-HR :0.74815: (Sim:0h32m46s) 
CPU  0 inst:  162000004 cyc:  118696459 now IPC :1.24024: AVG IPC :1.35940: L2-Pf-HR :-nan: L2-HR :0.74796: (Sim:0h32m58s) 
CPU  0 inst:  163000002 cyc:  119433015 now IPC :1.35767: AVG IPC :1.35939: L2-Pf-HR :-nan: L2-HR :0.74785: (Sim:0h33m11s) 
CPU  0 inst:  164000002 cyc:  120164392 now IPC :1.36728: AVG IPC :1.35944: L2-Pf-HR :-nan: L2-HR :0.74775: (Sim:0h33m23s) 
CPU  0 inst:  165000001 cyc:  120900485 now IPC :1.35852: AVG IPC :1.35943: L2-Pf-HR :-nan: L2-HR :0.74765: (Sim:0h33m37s) 
CPU  0 inst:  166000001 cyc:  121639759 now IPC :1.35268: AVG IPC :1.35939: L2-Pf-HR :-nan: L2-HR :0.74754: (Sim:0h33m50s) 
CPU  0 inst:  167000000 cyc:  122377408 now IPC :1.35566: AVG IPC :1.35937: L2-Pf-HR :-nan: L2-HR :0.74744: (Sim:0h34m4s) 
CPU  0 inst:  168000000 cyc:  123188302 now IPC :1.23321: AVG IPC :1.35853: L2-Pf-HR :-nan: L2-HR :0.74728: (Sim:0h34m18s) 
CPU  0 inst:  169000004 cyc:  123905368 now IPC :1.39458: AVG IPC :1.35874: L2-Pf-HR :-nan: L2-HR :0.74726: (Sim:0h34m31s) 
CPU  0 inst:  170000004 cyc:  124620514 now IPC :1.39832: AVG IPC :1.35897: L2-Pf-HR :-nan: L2-HR :0.74724: (Sim:0h34m44s) 
CPU  0 inst:  171000004 cyc:  125334232 now IPC :1.40111: AVG IPC :1.35921: L2-Pf-HR :-nan: L2-HR :0.74723: (Sim:0h34m56s) 
CPU  0 inst:  172000004 cyc:  126049473 now IPC :1.39813: AVG IPC :1.35944: L2-Pf-HR :-nan: L2-HR :0.74720: (Sim:0h35m10s) 
CPU  0 inst:  173000004 cyc:  126762851 now IPC :1.40178: AVG IPC :1.35968: L2-Pf-HR :-nan: L2-HR :0.74718: (Sim:0h35m21s) 
CPU  0 inst:  174000001 cyc:  127536475 now IPC :1.29261: AVG IPC :1.35927: L2-Pf-HR :-nan: L2-HR :0.74721: (Sim:0h35m33s) 
CPU  0 inst:  175000002 cyc:  128254954 now IPC :1.39183: AVG IPC :1.35945: L2-Pf-HR :-nan: L2-HR :0.74747: (Sim:0h35m46s) 
CPU  0 inst:  176000000 cyc:  128970947 now IPC :1.39666: AVG IPC :1.35966: L2-Pf-HR :-nan: L2-HR :0.74779: (Sim:0h35m59s) 
CPU  0 inst:  177000001 cyc:  129690525 now IPC :1.38970: AVG IPC :1.35983: L2-Pf-HR :-nan: L2-HR :0.74807: (Sim:0h36m13s) 
CPU  0 inst:  178000003 cyc:  130506856 now IPC :1.22500: AVG IPC :1.35898: L2-Pf-HR :-nan: L2-HR :0.74797: (Sim:0h36m27s) 
CPU  0 inst:  179000005 cyc:  131242043 now IPC :1.36020: AVG IPC :1.35898: L2-Pf-HR :-nan: L2-HR :0.74789: (Sim:0h36m40s) 
CPU  0 inst:  180000000 cyc:  131978070 now IPC :1.35864: AVG IPC :1.35898: L2-Pf-HR :-nan: L2-HR :0.74781: (Sim:0h36m54s) 
CPU  0 inst:  181000004 cyc:  132714049 now IPC :1.35874: AVG IPC :1.35898: L2-Pf-HR :-nan: L2-HR :0.74772: (Sim:0h37m8s) 
CPU  0 inst:  182000002 cyc:  133452885 now IPC :1.35348: AVG IPC :1.35895: L2-Pf-HR :-nan: L2-HR :0.74762: (Sim:0h37m21s) 
CPU  0 inst:  183000002 cyc:  134193155 now IPC :1.35086: AVG IPC :1.35890: L2-Pf-HR :-nan: L2-HR :0.74752: (Sim:0h37m34s) 
CPU  0 inst:  184000000 cyc:  135010684 now IPC :1.22320: AVG IPC :1.35808: L2-Pf-HR :-nan: L2-HR :0.74737: (Sim:0h37m48s) 
CPU  0 inst:  185000001 cyc:  135716996 now IPC :1.41581: AVG IPC :1.35838: L2-Pf-HR :-nan: L2-HR :0.74735: (Sim:0h38m1s) 
CPU  0 inst:  186000004 cyc:  136420294 now IPC :1.42188: AVG IPC :1.35871: L2-Pf-HR :-nan: L2-HR :0.74733: (Sim:0h38m15s) 
CPU  0 inst:  187000003 cyc:  137125504 now IPC :1.41802: AVG IPC :1.35902: L2-Pf-HR :-nan: L2-HR :0.74732: (Sim:0h38m28s) 
CPU  0 inst:  188000002 cyc:  137829933 now IPC :1.41959: AVG IPC :1.35933: L2-Pf-HR :-nan: L2-HR :0.74730: (Sim:0h38m42s) 
CPU  0 inst:  189000002 cyc:  138531065 now IPC :1.42627: AVG IPC :1.35967: L2-Pf-HR :-nan: L2-HR :0.74728: (Sim:0h38m54s) 
CPU  0 inst:  190000005 cyc:  139300478 now IPC :1.29970: AVG IPC :1.35934: L2-Pf-HR :-nan: L2-HR :0.74725: (Sim:0h39m8s) 
CPU  0 inst:  191000005 cyc:  140008834 now IPC :1.41172: AVG IPC :1.35960: L2-Pf-HR :-nan: L2-HR :0.74753: (Sim:0h39m20s) 
CPU  0 inst:  192000000 cyc:  140718497 now IPC :1.40911: AVG IPC :1.35985: L2-Pf-HR :-nan: L2-HR :0.74780: (Sim:0h39m32s) 
CPU  0 inst:  193000005 cyc:  141426293 now IPC :1.41284: AVG IPC :1.36012: L2-Pf-HR :-nan: L2-HR :0.74804: (Sim:0h39m43s) 
CPU  0 inst:  194000001 cyc:  143334654 now IPC :0.52401: AVG IPC :1.34891: L2-Pf-HR :-nan: L2-HR :0.74541: (Sim:0h39m58s) 
CPU  0 inst:  195000000 cyc:  148279563 now IPC :0.20223: AVG IPC :1.31041: L2-Pf-HR :-nan: L2-HR :0.73504: (Sim:0h40m33s) 
CPU  0 inst:  196000005 cyc:  153297167 now IPC :0.19930: AVG IPC :1.27381: L2-Pf-HR :-nan: L2-HR :0.72551: (Sim:0h41m8s) 
CPU  0 inst:  197000004 cyc:  158317622 now IPC :0.19918: AVG IPC :1.23951: L2-Pf-HR :-nan: L2-HR :0.71672: (Sim:0h41m38s) 
CPU  0 inst:  198000002 cyc:  163334151 now IPC :0.19934: AVG IPC :1.20737: L2-Pf-HR :-nan: L2-HR :0.70859: (Sim:0h42m15s) 
CPU  0 inst:  199000005 cyc:  168354964 now IPC :0.19917: AVG IPC :1.17712: L2-Pf-HR :-nan: L2-HR :0.70105: (Sim:0h42m52s) 
CPU  0 inst:  200000000 cyc:  173373432 now IPC :0.19926: AVG IPC :1.14865: L2-Pf-HR :-nan: L2-HR :0.69404: (Sim:0h43m30s) 
CPU  0 inst:  201000000 cyc:  178399569 now IPC :0.19896: AVG IPC :1.12175: L2-Pf-HR :-nan: L2-HR :0.68820: (Sim:0h44m0s) 
CPU  0 inst:  202000000 cyc:  184142815 now IPC :0.17412: AVG IPC :1.09203: L2-Pf-HR :-nan: L2-HR :0.68687: (Sim:0h44m27s) 
CPU  0 inst:  203000002 cyc:  189876854 now IPC :0.17440: AVG IPC :1.06417: L2-Pf-HR :-nan: L2-HR :0.68555: (Sim:0h44m59s) 
CPU  0 inst:  204000005 cyc:  195488662 now IPC :0.17820: AVG IPC :1.03861: L2-Pf-HR :-nan: L2-HR :0.68423: (Sim:0h45m28s) 
CPU  0 inst:  205000000 cyc:  200927356 now IPC :0.18387: AVG IPC :1.01536: L2-Pf-HR :-nan: L2-HR :0.68293: (Sim:0h45m58s) 
CPU  0 inst:  206000000 cyc:  206321211 now IPC :0.18540: AVG IPC :0.99355: L2-Pf-HR :-nan: L2-HR :0.68164: (Sim:0h46m30s) 
CPU  0 inst:  207000000 cyc:  211645093 now IPC :0.18783: AVG IPC :0.97319: L2-Pf-HR :-nan: L2-HR :0.68035: (Sim:0h47m1s) 
CPU  0 inst:  208000000 cyc:  216995834 now IPC :0.18689: AVG IPC :0.95371: L2-Pf-HR :-nan: L2-HR :0.67908: (Sim:0h47m32s) 
CPU  0 inst:  209000000 cyc:  222297944 now IPC :0.18860: AVG IPC :0.93538: L2-Pf-HR :-nan: L2-HR :0.67781: (Sim:0h48m3s) 
CPU  0 inst:  210000001 cyc:  227858675 now IPC :0.17983: AVG IPC :0.91686: L2-Pf-HR :-nan: L2-HR :0.67655: (Sim:0h48m34s) 
CPU  0 inst:  211000001 cyc:  233223424 now IPC :0.18640: AVG IPC :0.89999: L2-Pf-HR :-nan: L2-HR :0.67531: (Sim:0h49m4s) 
CPU  0 inst:  212000004 cyc:  238587418 now IPC :0.18643: AVG IPC :0.88388: L2-Pf-HR :-nan: L2-HR :0.67407: (Sim:0h49m35s) 
CPU  0 inst:  213000000 cyc:  243920928 now IPC :0.18749: AVG IPC :0.86859: L2-Pf-HR :-nan: L2-HR :0.67284: (Sim:0h50m2s) 
CPU  0 inst:  214000000 cyc:  249419893 now IPC :0.18185: AVG IPC :0.85339: L2-Pf-HR :-nan: L2-HR :0.67162: (Sim:0h50m32s) 
CPU  0 inst:  215000000 cyc:  254708734 now IPC :0.18908: AVG IPC :0.83954: L2-Pf-HR :-nan: L2-HR :0.67041: (Sim:0h51m4s) 
CPU  0 inst:  216000000 cyc:  260158896 now IPC :0.18348: AVG IPC :0.82574: L2-Pf-HR :-nan: L2-HR :0.66921: (Sim:0h51m35s) 
CPU  0 inst:  217000000 cyc:  265530722 now IPC :0.18616: AVG IPC :0.81275: L2-Pf-HR :-nan: L2-HR :0.66801: (Sim:0h52m4s) 
CPU  0 inst:  218000001 cyc:  270931595 now IPC :0.18516: AVG IPC :0.80020: L2-Pf-HR :-nan: L2-HR :0.66683: (Sim:0h52m35s) 
CPU  0 inst:  219000003 cyc:  276373727 now IPC :0.18375: AVG IPC :0.78801: L2-Pf-HR :-nan: L2-HR :0.66565: (Sim:0h53m2s) 
CPU  0 inst:  220000000 cyc:  281756669 now IPC :0.18577: AVG IPC :0.77647: L2-Pf-HR :-nan: L2-HR :0.66448: (Sim:0h53m33s) 
CPU  0 inst:  221000000 cyc:  287039129 now IPC :0.18931: AVG IPC :0.76562: L2-Pf-HR :-nan: L2-HR :0.66332: (Sim:0h54m4s) 
CPU  0 inst:  222000000 cyc:  292416279 now IPC :0.18597: AVG IPC :0.75493: L2-Pf-HR :-nan: L2-HR :0.66217: (Sim:0h54m34s) 
CPU  0 inst:  223000000 cyc:  297855105 now IPC :0.18386: AVG IPC :0.74446: L2-Pf-HR :-nan: L2-HR :0.66102: (Sim:0h55m1s) 
CPU  0 inst:  224000000 cyc:  303107143 now IPC :0.19040: AVG IPC :0.73483: L2-Pf-HR :-nan: L2-HR :0.65988: (Sim:0h55m27s) 
CPU  0 inst:  225000001 cyc:  308481072 now IPC :0.18608: AVG IPC :0.72524: L2-Pf-HR :-nan: L2-HR :0.65875: (Sim:0h55m56s) 
CPU  0 inst:  226000001 cyc:  313767667 now IPC :0.18916: AVG IPC :0.71618: L2-Pf-HR :-nan: L2-HR :0.65764: (Sim:0h56m26s) 
CPU  0 inst:  227000000 cyc:  318958437 now IPC :0.19265: AVG IPC :0.70763: L2-Pf-HR :-nan: L2-HR :0.65652: (Sim:0h56m56s) 
CPU  0 inst:  228000000 cyc:  324411804 now IPC :0.18337: AVG IPC :0.69879: L2-Pf-HR :-nan: L2-HR :0.65541: (Sim:0h57m27s) 
CPU  0 inst:  229000004 cyc:  329971512 now IPC :0.17987: AVG IPC :0.69002: L2-Pf-HR :-nan: L2-HR :0.65432: (Sim:0h57m59s) 
CPU  0 inst:  230000000 cyc:  335504336 now IPC :0.18074: AVG IPC :0.68160: L2-Pf-HR :-nan: L2-HR :0.65322: (Sim:0h58m29s) 
CPU  0 inst:  231000000 cyc:  340882212 now IPC :0.18595: AVG IPC :0.67376: L2-Pf-HR :-nan: L2-HR :0.65214: (Sim:0h58m59s) 
CPU  0 inst:  232000000 cyc:  346210393 now IPC :0.18768: AVG IPC :0.66626: L2-Pf-HR :-nan: L2-HR :0.65106: (Sim:0h59m29s) 
CPU  0 inst:  233000000 cyc:  351671476 now IPC :0.18311: AVG IPC :0.65873: L2-Pf-HR :-nan: L2-HR :0.65000: (Sim:0h59m58s) 
CPU  0 inst:  234000003 cyc:  357009342 now IPC :0.18734: AVG IPC :0.65166: L2-Pf-HR :-nan: L2-HR :0.64894: (Sim:1h0m25s) 
CPU  0 inst:  235000000 cyc:  362486651 now IPC :0.18257: AVG IPC :0.64456: L2-Pf-HR :-nan: L2-HR :0.64788: (Sim:1h0m53s) 
CPU  0 inst:  236000000 cyc:  367936658 now IPC :0.18349: AVG IPC :0.63771: L2-Pf-HR :-nan: L2-HR :0.64683: (Sim:1h1m22s) 
CPU  0 inst:  237000000 cyc:  373441395 now IPC :0.18166: AVG IPC :0.63097: L2-Pf-HR :-nan: L2-HR :0.64579: (Sim:1h1m49s) 
CPU  0 inst:  238000000 cyc:  378841725 now IPC :0.18517: AVG IPC :0.62460: L2-Pf-HR :-nan: L2-HR :0.64476: (Sim:1h2m12s) 
CPU  0 inst:  239000000 cyc:  384159909 now IPC :0.18803: AVG IPC :0.61854: L2-Pf-HR :-nan: L2-HR :0.64373: (Sim:1h2m41s) 
CPU  0 inst:  240000000 cyc:  389475754 now IPC :0.18812: AVG IPC :0.61265: L2-Pf-HR :-nan: L2-HR :0.64271: (Sim:1h3m10s) 
CPU  0 inst:  241000001 cyc:  394779285 now IPC :0.18855: AVG IPC :0.60694: L2-Pf-HR :-nan: L2-HR :0.64170: (Sim:1h3m38s) 
CPU  0 inst:  242000000 cyc:  400013702 now IPC :0.19104: AVG IPC :0.60148: L2-Pf-HR :-nan: L2-HR :0.64069: (Sim:1h4m7s) 
CPU  0 inst:  243000000 cyc:  405241535 now IPC :0.19128: AVG IPC :0.59617: L2-Pf-HR :-nan: L2-HR :0.63969: (Sim:1h4m37s) 
CPU  0 inst:  244000000 cyc:  410420569 now IPC :0.19309: AVG IPC :0.59108: L2-Pf-HR :-nan: L2-HR :0.63870: (Sim:1h5m6s) 
CPU  0 inst:  245000000 cyc:  415716114 now IPC :0.18884: AVG IPC :0.58594: L2-Pf-HR :-nan: L2-HR :0.63771: (Sim:1h5m35s) 
CPU  0 inst:  246000004 cyc:  421122241 now IPC :0.18498: AVG IPC :0.58078: L2-Pf-HR :-nan: L2-HR :0.63673: (Sim:1h6m6s) 
CPU  0 inst:  247000000 cyc:  426422413 now IPC :0.18867: AVG IPC :0.57589: L2-Pf-HR :-nan: L2-HR :0.63575: (Sim:1h6m37s) 
CPU  0 inst:  248000000 cyc:  431773335 now IPC :0.18688: AVG IPC :0.57106: L2-Pf-HR :-nan: L2-HR :0.63479: (Sim:1h7m7s) 
CPU  0 inst:  249000003 cyc:  437206808 now IPC :0.18404: AVG IPC :0.56624: L2-Pf-HR :-nan: L2-HR :0.63382: (Sim:1h7m37s) 
CPU  0 inst:  250000004 cyc:  442556528 now IPC :0.18693: AVG IPC :0.56165: L2-Pf-HR :-nan: L2-HR :0.63287: (Sim:1h8m9s) 
CPU  0 inst:  251000000 cyc:  447884981 now IPC :0.18767: AVG IPC :0.55719: L2-Pf-HR :-nan: L2-HR :0.63192: (Sim:1h8m40s) 
CPU  0 inst:  252000000 cyc:  453285033 now IPC :0.18518: AVG IPC :0.55275: L2-Pf-HR :-nan: L2-HR :0.63097: (Sim:1h9m12s) 
CPU  0 inst:  253000000 cyc:  458596036 now IPC :0.18829: AVG IPC :0.54852: L2-Pf-HR :-nan: L2-HR :0.63003: (Sim:1h9m43s) 
CPU  0 inst:  254000000 cyc:  463958475 now IPC :0.18648: AVG IPC :0.54432: L2-Pf-HR :-nan: L2-HR :0.62910: (Sim:1h10m12s) 
CPU  0 inst:  255000002 cyc:  469218737 now IPC :0.19010: AVG IPC :0.54034: L2-Pf-HR :-nan: L2-HR :0.62817: (Sim:1h10m43s) 
CPU  0 inst:  256000000 cyc:  474738248 now IPC :0.18118: AVG IPC :0.53616: L2-Pf-HR :-nan: L2-HR :0.62725: (Sim:1h11m15s) 
CPU  0 inst:  257000000 cyc:  480243743 now IPC :0.18164: AVG IPC :0.53209: L2-Pf-HR :-nan: L2-HR :0.62634: (Sim:1h11m45s) 
CPU  0 inst:  258000000 cyc:  485593329 now IPC :0.18693: AVG IPC :0.52828: L2-Pf-HR :-nan: L2-HR :0.62543: (Sim:1h12m15s) 
CPU  0 inst:  259000000 cyc:  490921957 now IPC :0.18767: AVG IPC :0.52457: L2-Pf-HR :-nan: L2-HR :0.62453: (Sim:1h12m42s) 
CPU  0 inst:  260000000 cyc:  496367547 now IPC :0.18363: AVG IPC :0.52082: L2-Pf-HR :-nan: L2-HR :0.62363: (Sim:1h13m13s) 
CPU  0 inst:  261000000 cyc:  501762756 now IPC :0.18535: AVG IPC :0.51721: L2-Pf-HR :-nan: L2-HR :0.62273: (Sim:1h13m43s) 
CPU  0 inst:  262000000 cyc:  507018968 now IPC :0.19025: AVG IPC :0.51381: L2-Pf-HR :-nan: L2-HR :0.62185: (Sim:1h14m14s) 
CPU  0 inst:  263000001 cyc:  512318186 now IPC :0.18871: AVG IPC :0.51044: L2-Pf-HR :-nan: L2-HR :0.62097: (Sim:1h14m45s) 
CPU  0 inst:  264000000 cyc:  517504150 now IPC :0.19283: AVG IPC :0.50725: L2-Pf-HR :-nan: L2-HR :0.62009: (Sim:1h15m16s) 
CPU  0 inst:  265000000 cyc:  523020996 now IPC :0.18126: AVG IPC :0.50381: L2-Pf-HR :-nan: L2-HR :0.61922: (Sim:1h15m48s) 
CPU  0 inst:  266000000 cyc:  528333488 now IPC :0.18824: AVG IPC :0.50063: L2-Pf-HR :-nan: L2-HR :0.61835: (Sim:1h16m17s) 
CPU  0 inst:  267000004 cyc:  533646702 now IPC :0.18821: AVG IPC :0.49751: L2-Pf-HR :-nan: L2-HR :0.61749: (Sim:1h16m46s) 
CPU  0 inst:  268000000 cyc:  539030410 now IPC :0.18574: AVG IPC :0.49439: L2-Pf-HR :-nan: L2-HR :0.61664: (Sim:1h17m14s) 
CPU  0 inst:  269000000 cyc:  544480838 now IPC :0.18347: AVG IPC :0.49128: L2-Pf-HR :-nan: L2-HR :0.61579: (Sim:1h17m40s) 
CPU  0 inst:  270000001 cyc:  549959285 now IPC :0.18253: AVG IPC :0.48819: L2-Pf-HR :-nan: L2-HR :0.61494: (Sim:1h18m11s) 
CPU  0 inst:  271000001 cyc:  555366560 now IPC :0.18494: AVG IPC :0.48524: L2-Pf-HR :-nan: L2-HR :0.61410: (Sim:1h18m42s) 
CPU  0 inst:  272000000 cyc:  560893659 now IPC :0.18093: AVG IPC :0.48223: L2-Pf-HR :-nan: L2-HR :0.61327: (Sim:1h19m13s) 
CPU  0 inst:  273000000 cyc:  566327299 now IPC :0.18404: AVG IPC :0.47937: L2-Pf-HR :-nan: L2-HR :0.61244: (Sim:1h19m42s) 
CPU  0 inst:  274000000 cyc:  571584017 now IPC :0.19023: AVG IPC :0.47670: L2-Pf-HR :-nan: L2-HR :0.61161: (Sim:1h20m13s) 
CPU  0 inst:  275000000 cyc:  577044042 now IPC :0.18315: AVG IPC :0.47392: L2-Pf-HR :-nan: L2-HR :0.61079: (Sim:1h20m44s) 
CPU  0 inst:  276000000 cyc:  582474147 now IPC :0.18416: AVG IPC :0.47121: L2-Pf-HR :-nan: L2-HR :0.60998: (Sim:1h21m13s) 
CPU  0 inst:  277000003 cyc:  587864060 now IPC :0.18553: AVG IPC :0.46859: L2-Pf-HR :-nan: L2-HR :0.60916: (Sim:1h21m43s) 
CPU  0 inst:  278000001 cyc:  593221123 now IPC :0.18667: AVG IPC :0.46604: L2-Pf-HR :-nan: L2-HR :0.60836: (Sim:1h22m13s) 
CPU  0 inst:  279000003 cyc:  598607073 now IPC :0.18567: AVG IPC :0.46351: L2-Pf-HR :-nan: L2-HR :0.60756: (Sim:1h22m42s) 
CPU  0 inst:  280000000 cyc:  603913076 now IPC :0.18847: AVG IPC :0.46109: L2-Pf-HR :-nan: L2-HR :0.60676: (Sim:1h23m8s) 
CPU  0 inst:  281000000 cyc:  609136404 now IPC :0.19145: AVG IPC :0.45878: L2-Pf-HR :-nan: L2-HR :0.60597: (Sim:1h23m33s) 
CPU  0 inst:  282000000 cyc:  614518756 now IPC :0.18579: AVG IPC :0.45638: L2-Pf-HR :-nan: L2-HR :0.60518: (Sim:1h24m4s) 
CPU  0 inst:  283000000 cyc:  619825917 now IPC :0.18842: AVG IPC :0.45408: L2-Pf-HR :-nan: L2-HR :0.60440: (Sim:1h24m35s) 
CPU  0 inst:  284000004 cyc:  625132209 now IPC :0.18846: AVG IPC :0.45183: L2-Pf-HR :-nan: L2-HR :0.60362: (Sim:1h25m1s) 
CPU  0 inst:  285000000 cyc:  630502095 now IPC :0.18622: AVG IPC :0.44956: L2-Pf-HR :-nan: L2-HR :0.60285: (Sim:1h25m30s) 
CPU  0 inst:  286000003 cyc:  635783479 now IPC :0.18934: AVG IPC :0.44739: L2-Pf-HR :-nan: L2-HR :0.60208: (Sim:1h25m58s) 
CPU  0 inst:  287000000 cyc:  640973755 now IPC :0.19267: AVG IPC :0.44533: L2-Pf-HR :-nan: L2-HR :0.60131: (Sim:1h26m26s) 
CPU  0 inst:  288000000 cyc:  646230434 now IPC :0.19023: AVG IPC :0.44325: L2-Pf-HR :-nan: L2-HR :0.60055: (Sim:1h26m55s) 
CPU  0 inst:  289000000 cyc:  651663528 now IPC :0.18406: AVG IPC :0.44109: L2-Pf-HR :-nan: L2-HR :0.59979: (Sim:1h27m25s) 
CPU  0 inst:  290000000 cyc:  657024415 now IPC :0.18654: AVG IPC :0.43901: L2-Pf-HR :-nan: L2-HR :0.59904: (Sim:1h27m53s) 
CPU  0 inst:  291000000 cyc:  662340929 now IPC :0.18809: AVG IPC :0.43699: L2-Pf-HR :-nan: L2-HR :0.59829: (Sim:1h28m23s) 
CPU  0 inst:  292000005 cyc:  667758105 now IPC :0.18460: AVG IPC :0.43494: L2-Pf-HR :-nan: L2-HR :0.59755: (Sim:1h28m53s) 
CPU  0 inst:  293000001 cyc:  673055117 now IPC :0.18878: AVG IPC :0.43300: L2-Pf-HR :-nan: L2-HR :0.59681: (Sim:1h29m20s) 
CPU  0 inst:  294000001 cyc:  678383781 now IPC :0.18766: AVG IPC :0.43107: L2-Pf-HR :-nan: L2-HR :0.59608: (Sim:1h29m51s) 
CPU  0 inst:  295000000 cyc:  683689632 now IPC :0.18847: AVG IPC :0.42918: L2-Pf-HR :-nan: L2-HR :0.59534: (Sim:1h30m21s) 
CPU  0 inst:  296000000 cyc:  689028671 now IPC :0.18730: AVG IPC :0.42731: L2-Pf-HR :-nan: L2-HR :0.59462: (Sim:1h30m51s) 
CPU  0 inst:  297000005 cyc:  691126984 now IPC :0.47658: AVG IPC :0.42746: L2-Pf-HR :-nan: L2-HR :0.59604: (Sim:1h31m8s) 
CPU  0 inst:  298000001 cyc:  691915295 now IPC :1.26853: AVG IPC :0.42842: L2-Pf-HR :-nan: L2-HR :0.59850: (Sim:1h31m22s) 
CPU  0 inst:  299000005 cyc:  692705099 now IPC :1.26614: AVG IPC :0.42937: L2-Pf-HR :-nan: L2-HR :0.60092: (Sim:1h31m37s) 
CPU  0 inst:  300000000 cyc:  693492683 now IPC :1.26970: AVG IPC :0.43033: L2-Pf-HR :-nan: L2-HR :0.60326: (Sim:1h31m53s) 
CPU  0 inst:  301000002 cyc:  694292434 now IPC :1.25039: AVG IPC :0.43127: L2-Pf-HR :-nan: L2-HR :0.60556: (Sim:1h32m9s) 
CPU  0 inst:  302000002 cyc:  695035685 now IPC :1.34544: AVG IPC :0.43225: L2-Pf-HR :-nan: L2-HR :0.60792: (Sim:1h32m25s) 
CPU  0 inst:  303000005 cyc:  695790179 now IPC :1.32540: AVG IPC :0.43322: L2-Pf-HR :-nan: L2-HR :0.61021: (Sim:1h32m40s) 
CPU  0 inst:  304000000 cyc:  696526056 now IPC :1.35892: AVG IPC :0.43420: L2-Pf-HR :-nan: L2-HR :0.61246: (Sim:1h32m56s) 
CPU  0 inst:  305000000 cyc:  697277349 now IPC :1.33104: AVG IPC :0.43517: L2-Pf-HR :-nan: L2-HR :0.61469: (Sim:1h33m12s) 
CPU  0 inst:  306000005 cyc:  698034597 now IPC :1.32058: AVG IPC :0.43613: L2-Pf-HR :-nan: L2-HR :0.61690: (Sim:1h33m28s) 
CPU  0 inst:  307000005 cyc:  698789121 now IPC :1.32534: AVG IPC :0.43709: L2-Pf-HR :-nan: L2-HR :0.61906: (Sim:1h33m45s) 
CPU  0 inst:  308000001 cyc:  699518285 now IPC :1.37143: AVG IPC :0.43807: L2-Pf-HR :-nan: L2-HR :0.62121: (Sim:1h34m1s) 
CPU  0 inst:  309000001 cyc:  700258271 now IPC :1.35138: AVG IPC :0.43904: L2-Pf-HR :-nan: L2-HR :0.62331: (Sim:1h34m17s) 
CPU  0 inst:  310000000 cyc:  701018779 now IPC :1.31491: AVG IPC :0.43999: L2-Pf-HR :-nan: L2-HR :0.62539: (Sim:1h34m33s) 
CPU  0 inst:  311000000 cyc:  701768275 now IPC :1.33423: AVG IPC :0.44094: L2-Pf-HR :-nan: L2-HR :0.62744: (Sim:1h34m50s) 
CPU  0 inst:  312000000 cyc:  702488979 now IPC :1.38753: AVG IPC :0.44192: L2-Pf-HR :-nan: L2-HR :0.62949: (Sim:1h35m6s) 
CPU  0 inst:  313000001 cyc:  703218829 now IPC :1.37015: AVG IPC :0.44288: L2-Pf-HR :-nan: L2-HR :0.63150: (Sim:1h35m22s) 
CPU  0 inst:  314000004 cyc:  704002959 now IPC :1.27530: AVG IPC :0.44381: L2-Pf-HR :-nan: L2-HR :0.63337: (Sim:1h35m39s) 
CPU  0 inst:  315000001 cyc:  704758983 now IPC :1.32271: AVG IPC :0.44475: L2-Pf-HR :-nan: L2-HR :0.63531: (Sim:1h35m55s) 
CPU  0 inst:  316000003 cyc:  705519503 now IPC :1.31489: AVG IPC :0.44569: L2-Pf-HR :-nan: L2-HR :0.63721: (Sim:1h36m11s) 
CPU  0 inst:  317000004 cyc:  706290598 now IPC :1.29686: AVG IPC :0.44662: L2-Pf-HR :-nan: L2-HR :0.63906: (Sim:1h36m27s) 
CPU  0 inst:  318000000 cyc:  707035392 now IPC :1.34265: AVG IPC :0.44757: L2-Pf-HR :-nan: L2-HR :0.64089: (Sim:1h36m43s) 
CPU  0 inst:  319000002 cyc:  707745728 now IPC :1.40779: AVG IPC :0.44853: L2-Pf-HR :-nan: L2-HR :0.64276: (Sim:1h36m59s) 
CPU  0 inst:  320000000 cyc:  708465388 now IPC :1.38954: AVG IPC :0.44949: L2-Pf-HR :-nan: L2-HR :0.64460: (Sim:1h37m15s) 
CPU  0 inst:  321000005 cyc:  709183025 now IPC :1.39347: AVG IPC :0.45045: L2-Pf-HR :-nan: L2-HR :0.64644: (Sim:1h37m31s) 
CPU  0 inst:  322000002 cyc:  709946327 now IPC :1.31009: AVG IPC :0.45137: L2-Pf-HR :-nan: L2-HR :0.64815: (Sim:1h37m47s) 
CPU  0 inst:  323000000 cyc:  710658946 now IPC :1.40327: AVG IPC :0.45233: L2-Pf-HR :-nan: L2-HR :0.64993: (Sim:1h38m2s) 
CPU  0 inst:  324000003 cyc:  711378301 now IPC :1.39014: AVG IPC :0.45328: L2-Pf-HR :-nan: L2-HR :0.65169: (Sim:1h38m17s) 
CPU  0 inst:  325000003 cyc:  712094253 now IPC :1.39674: AVG IPC :0.45423: L2-Pf-HR :-nan: L2-HR :0.65343: (Sim:1h38m33s) 
CPU  0 inst:  326000003 cyc:  712854122 now IPC :1.31602: AVG IPC :0.45515: L2-Pf-HR :-nan: L2-HR :0.65506: (Sim:1h38m48s) 
CPU  0 inst:  327000000 cyc:  713568895 now IPC :1.39904: AVG IPC :0.45609: L2-Pf-HR :-nan: L2-HR :0.65676: (Sim:1h39m4s) 
CPU  0 inst:  328000000 cyc:  714280001 now IPC :1.40626: AVG IPC :0.45704: L2-Pf-HR :-nan: L2-HR :0.65843: (Sim:1h39m20s) 
CPU  0 inst:  329000002 cyc:  714994291 now IPC :1.39999: AVG IPC :0.45799: L2-Pf-HR :-nan: L2-HR :0.66008: (Sim:1h39m35s) 
CPU  0 inst:  330000000 cyc:  715774150 now IPC :1.28228: AVG IPC :0.45888: L2-Pf-HR :-nan: L2-HR :0.66161: (Sim:1h39m51s) 
CPU  0 inst:  331000004 cyc:  716522290 now IPC :1.33665: AVG IPC :0.45980: L2-Pf-HR :-nan: L2-HR :0.66319: (Sim:1h40m5s) 
CPU  0 inst:  332000005 cyc:  717274376 now IPC :1.32964: AVG IPC :0.46072: L2-Pf-HR :-nan: L2-HR :0.66475: (Sim:1h40m16s) 
CPU  0 inst:  333000000 cyc:  718041167 now IPC :1.30413: AVG IPC :0.46162: L2-Pf-HR :-nan: L2-HR :0.66628: (Sim:1h40m26s) 
CPU  0 inst:  334000001 cyc:  718832510 now IPC :1.26368: AVG IPC :0.46250: L2-Pf-HR :-nan: L2-HR :0.66771: (Sim:1h40m38s) 
CPU  0 inst:  335000002 cyc:  719545323 now IPC :1.40289: AVG IPC :0.46343: L2-Pf-HR :-nan: L2-HR :0.66927: (Sim:1h40m53s) 
CPU  0 inst:  336000000 cyc:  720251630 now IPC :1.41581: AVG IPC :0.46437: L2-Pf-HR :-nan: L2-HR :0.67079: (Sim:1h41m8s) 
CPU  0 inst:  337000004 cyc:  720984609 now IPC :1.36430: AVG IPC :0.46529: L2-Pf-HR :-nan: L2-HR :0.67226: (Sim:1h41m23s) 
CPU  0 inst:  338000000 cyc:  721703359 now IPC :1.39130: AVG IPC :0.46621: L2-Pf-HR :-nan: L2-HR :0.67376: (Sim:1h41m38s) 
CPU  0 inst:  339000005 cyc:  722442649 now IPC :1.35266: AVG IPC :0.46712: L2-Pf-HR :-nan: L2-HR :0.67518: (Sim:1h41m54s) 
CPU  0 inst:  340000005 cyc:  723163678 now IPC :1.38691: AVG IPC :0.46804: L2-Pf-HR :-nan: L2-HR :0.67661: (Sim:1h42m10s) 
CPU  0 inst:  341000000 cyc:  723897002 now IPC :1.36365: AVG IPC :0.46894: L2-Pf-HR :-nan: L2-HR :0.67802: (Sim:1h42m25s) 
CPU  0 inst:  342000003 cyc:  724624372 now IPC :1.37482: AVG IPC :0.46986: L2-Pf-HR :-nan: L2-HR :0.67942: (Sim:1h42m41s) 
CPU  0 inst:  343000000 cyc:  725351515 now IPC :1.37524: AVG IPC :0.47076: L2-Pf-HR :-nan: L2-HR :0.68082: (Sim:1h42m57s) 
CPU  0 inst:  344000000 cyc:  726074169 now IPC :1.38379: AVG IPC :0.47167: L2-Pf-HR :-nan: L2-HR :0.68218: (Sim:1h43m13s) 
CPU  0 inst:  345000001 cyc:  726795860 now IPC :1.38564: AVG IPC :0.47258: L2-Pf-HR :-nan: L2-HR :0.68353: (Sim:1h43m28s) 
CPU  0 inst:  346000002 cyc:  727508658 now IPC :1.40292: AVG IPC :0.47350: L2-Pf-HR :-nan: L2-HR :0.68490: (Sim:1h43m44s) 
CPU  0 inst:  347000001 cyc:  728287501 now IPC :1.28395: AVG IPC :0.47436: L2-Pf-HR :-nan: L2-HR :0.68616: (Sim:1h44m0s) 
CPU  0 inst:  348000003 cyc:  729054227 now IPC :1.30425: AVG IPC :0.47524: L2-Pf-HR :-nan: L2-HR :0.68743: (Sim:1h44m15s) 
CPU  0 inst:  349000000 cyc:  729808016 now IPC :1.32663: AVG IPC :0.47612: L2-Pf-HR :-nan: L2-HR :0.68872: (Sim:1h44m31s) 
CPU  0 inst:  350000002 cyc:  730569485 now IPC :1.31325: AVG IPC :0.47699: L2-Pf-HR :-nan: L2-HR :0.68999: (Sim:1h44m47s) 
CPU  0 inst:  351000005 cyc:  731349978 now IPC :1.28125: AVG IPC :0.47785: L2-Pf-HR :-nan: L2-HR :0.69117: (Sim:1h45m3s) 
CPU  0 inst:  352000000 cyc:  732056911 now IPC :1.41455: AVG IPC :0.47876: L2-Pf-HR :-nan: L2-HR :0.69246: (Sim:1h45m19s) 
CPU  0 inst:  353000004 cyc:  732764959 now IPC :1.41234: AVG IPC :0.47966: L2-Pf-HR :-nan: L2-HR :0.69372: (Sim:1h45m34s) 
CPU  0 inst:  354000002 cyc:  733490664 now IPC :1.37797: AVG IPC :0.48055: L2-Pf-HR :-nan: L2-HR :0.69497: (Sim:1h45m50s) 
CPU  0 inst:  355000000 cyc:  734249193 now IPC :1.31834: AVG IPC :0.48142: L2-Pf-HR :-nan: L2-HR :0.69613: (Sim:1h46m6s) 
CPU  0 inst:  356000001 cyc:  734966758 now IPC :1.39360: AVG IPC :0.48231: L2-Pf-HR :-nan: L2-HR :0.69737: (Sim:1h46m22s) 
CPU  0 inst:  357000005 cyc:  735671136 now IPC :1.41970: AVG IPC :0.48321: L2-Pf-HR :-nan: L2-HR :0.69858: (Sim:1h46m37s) 
CPU  0 inst:  358000003 cyc:  736395508 now IPC :1.38050: AVG IPC :0.48409: L2-Pf-HR :-nan: L2-HR :0.69978: (Sim:1h46m53s) 
CPU  0 inst:  359000000 cyc:  737143888 now IPC :1.33622: AVG IPC :0.48496: L2-Pf-HR :-nan: L2-HR :0.70090: (Sim:1h47m9s) 
CPU  0 inst:  360000000 cyc:  737870810 now IPC :1.37566: AVG IPC :0.48584: L2-Pf-HR :-nan: L2-HR :0.70208: (Sim:1h47m25s) 
CPU  0 inst:  361000003 cyc:  738576061 now IPC :1.41794: AVG IPC :0.48673: L2-Pf-HR :-nan: L2-HR :0.70324: (Sim:1h47m41s) 
CPU  0 inst:  362000003 cyc:  739292934 now IPC :1.39495: AVG IPC :0.48761: L2-Pf-HR :-nan: L2-HR :0.70439: (Sim:1h47m56s) 
CPU  0 inst:  363000003 cyc:  740023831 now IPC :1.36818: AVG IPC :0.48848: L2-Pf-HR :-nan: L2-HR :0.70552: (Sim:1h48m12s) 
CPU  0 inst:  364000002 cyc:  740807696 now IPC :1.27573: AVG IPC :0.48931: L2-Pf-HR :-nan: L2-HR :0.70655: (Sim:1h48m28s) 
CPU  0 inst:  365000000 cyc:  741565544 now IPC :1.31952: AVG IPC :0.49016: L2-Pf-HR :-nan: L2-HR :0.70764: (Sim:1h48m44s) 
CPU  0 inst:  366000004 cyc:  742331531 now IPC :1.30551: AVG IPC :0.49101: L2-Pf-HR :-nan: L2-HR :0.70872: (Sim:1h48m59s) 
CPU  0 inst:  367000001 cyc:  743092015 now IPC :1.31495: AVG IPC :0.49185: L2-Pf-HR :-nan: L2-HR :0.70978: (Sim:1h49m15s) 
CPU  0 inst:  368000000 cyc:  743852137 now IPC :1.31558: AVG IPC :0.49269: L2-Pf-HR :-nan: L2-HR :0.71079: (Sim:1h49m31s) 
CPU  0 inst:  369000001 cyc:  744567901 now IPC :1.39711: AVG IPC :0.49356: L2-Pf-HR :-nan: L2-HR :0.71186: (Sim:1h49m47s) 
CPU  0 inst:  370000003 cyc:  745289881 now IPC :1.38508: AVG IPC :0.49443: L2-Pf-HR :-nan: L2-HR :0.71293: (Sim:1h50m2s) 
CPU  0 inst:  371000001 cyc:  746026534 now IPC :1.35749: AVG IPC :0.49528: L2-Pf-HR :-nan: L2-HR :0.71396: (Sim:1h50m14s) 
CPU  0 inst:  372000004 cyc:  746764959 now IPC :1.35424: AVG IPC :0.49613: L2-Pf-HR :-nan: L2-HR :0.71496: (Sim:1h50m22s) 
CPU  0 inst:  373000005 cyc:  747482361 now IPC :1.39392: AVG IPC :0.49700: L2-Pf-HR :-nan: L2-HR :0.71600: (Sim:1h50m31s) 
CPU  0 inst:  374000000 cyc:  748211424 now IPC :1.37162: AVG IPC :0.49785: L2-Pf-HR :-nan: L2-HR :0.71701: (Sim:1h50m40s) 
CPU  0 inst:  375000005 cyc:  748951095 now IPC :1.35196: AVG IPC :0.49869: L2-Pf-HR :-nan: L2-HR :0.71800: (Sim:1h50m53s) 
CPU  0 inst:  376000000 cyc:  749678177 now IPC :1.37535: AVG IPC :0.49955: L2-Pf-HR :-nan: L2-HR :0.71898: (Sim:1h51m8s) 
CPU  0 inst:  377000003 cyc:  750407444 now IPC :1.37124: AVG IPC :0.50039: L2-Pf-HR :-nan: L2-HR :0.71997: (Sim:1h51m23s) 
CPU  0 inst:  378000002 cyc:  751133749 now IPC :1.37683: AVG IPC :0.50124: L2-Pf-HR :-nan: L2-HR :0.72094: (Sim:1h51m37s) 
CPU  0 inst:  379000004 cyc:  751865592 now IPC :1.36642: AVG IPC :0.50209: L2-Pf-HR :-nan: L2-HR :0.72190: (Sim:1h51m52s) 
CPU  0 inst:  380000003 cyc:  752603159 now IPC :1.35581: AVG IPC :0.50292: L2-Pf-HR :-nan: L2-HR :0.72284: (Sim:1h52m7s) 
CPU  0 inst:  381000001 cyc:  753377785 now IPC :1.29094: AVG IPC :0.50373: L2-Pf-HR :-nan: L2-HR :0.72374: (Sim:1h52m21s) 
CPU  0 inst:  382000003 cyc:  754143839 now IPC :1.30539: AVG IPC :0.50455: L2-Pf-HR :-nan: L2-HR :0.72465: (Sim:1h52m36s) 
CPU  0 inst:  383000001 cyc:  754911724 now IPC :1.30228: AVG IPC :0.50536: L2-Pf-HR :-nan: L2-HR :0.72556: (Sim:1h52m50s) 
CPU  0 inst:  384000000 cyc:  755682787 now IPC :1.29691: AVG IPC :0.50617: L2-Pf-HR :-nan: L2-HR :0.72643: (Sim:1h53m6s) 
CPU  0 inst:  385000002 cyc:  756419666 now IPC :1.35708: AVG IPC :0.50700: L2-Pf-HR :-nan: L2-HR :0.72733: (Sim:1h53m22s) 
CPU  0 inst:  386000004 cyc:  757129045 now IPC :1.40969: AVG IPC :0.50785: L2-Pf-HR :-nan: L2-HR :0.72825: (Sim:1h53m35s) 
CPU  0 inst:  387000003 cyc:  757859698 now IPC :1.36864: AVG IPC :0.50868: L2-Pf-HR :-nan: L2-HR :0.72916: (Sim:1h53m51s) 
CPU  0 inst:  388000000 cyc:  758585788 now IPC :1.37724: AVG IPC :0.50951: L2-Pf-HR :-nan: L2-HR :0.73005: (Sim:1h54m6s) 
CPU  0 inst:  389000000 cyc:  759331599 now IPC :1.34082: AVG IPC :0.51033: L2-Pf-HR :-nan: L2-HR :0.73090: (Sim:1h54m16s) 
CPU  0 inst:  390000002 cyc:  760041886 now IPC :1.40788: AVG IPC :0.51117: L2-Pf-HR :-nan: L2-HR :0.73179: (Sim:1h54m25s) 
CPU  0 inst:  391000004 cyc:  760769968 now IPC :1.37347: AVG IPC :0.51200: L2-Pf-HR :-nan: L2-HR :0.73267: (Sim:1h54m37s) 
CPU  0 inst:  392000000 cyc:  761481770 now IPC :1.40488: AVG IPC :0.51283: L2-Pf-HR :-nan: L2-HR :0.73355: (Sim:1h54m53s) 
CPU  0 inst:  393000001 cyc:  762241753 now IPC :1.31582: AVG IPC :0.51363: L2-Pf-HR :-nan: L2-HR :0.73434: (Sim:1h55m8s) 
CPU  0 inst:  394000002 cyc:  762952042 now IPC :1.40788: AVG IPC :0.51447: L2-Pf-HR :-nan: L2-HR :0.73520: (Sim:1h55m23s) 
CPU  0 inst:  395000002 cyc:  763665164 now IPC :1.40228: AVG IPC :0.51530: L2-Pf-HR :-nan: L2-HR :0.73605: (Sim:1h55m37s) 
CPU  0 inst:  396000003 cyc:  764385965 now IPC :1.38735: AVG IPC :0.51612: L2-Pf-HR :-nan: L2-HR :0.73690: (Sim:1h55m53s) 
CPU  0 inst:  397000003 cyc:  765172828 now IPC :1.27087: AVG IPC :0.51690: L2-Pf-HR :-nan: L2-HR :0.73765: (Sim:1h56m9s) 
CPU  0 inst:  398000000 cyc:  765926750 now IPC :1.32639: AVG IPC :0.51770: L2-Pf-HR :-nan: L2-HR :0.73845: (Sim:1h56m25s) 
CPU  0 inst:  399000004 cyc:  766690495 now IPC :1.30934: AVG IPC :0.51848: L2-Pf-HR :-nan: L2-HR :0.73924: (Sim:1h56m41s) 
CPU  0 inst:  400000000 cyc:  767455769 now IPC :1.30672: AVG IPC :0.51927: L2-Pf-HR :-nan: L2-HR :0.74003: (Sim:1h56m57s) 
CPU  0 inst:  401000003 cyc:  768245617 now IPC :1.26607: AVG IPC :0.52004: L2-Pf-HR :-nan: L2-HR :0.74075: (Sim:1h57m13s) 
CPU  0 inst:  402000003 cyc:  768963300 now IPC :1.39337: AVG IPC :0.52086: L2-Pf-HR :-nan: L2-HR :0.74156: (Sim:1h57m28s) 
CPU  0 inst:  403000001 cyc:  769675493 now IPC :1.40411: AVG IPC :0.52167: L2-Pf-HR :-nan: L2-HR :0.74235: (Sim:1h57m44s) 
CPU  0 inst:  404000003 cyc:  770404754 now IPC :1.37125: AVG IPC :0.52248: L2-Pf-HR :-nan: L2-HR :0.74314: (Sim:1h58m0s) 
CPU  0 inst:  405000001 cyc:  771161459 now IPC :1.32152: AVG IPC :0.52327: L2-Pf-HR :-nan: L2-HR :0.74386: (Sim:1h58m16s) 
CPU  0 inst:  406000003 cyc:  771884797 now IPC :1.38248: AVG IPC :0.52407: L2-Pf-HR :-nan: L2-HR :0.74464: (Sim:1h58m32s) 
CPU  0 inst:  407000003 cyc:  772595968 now IPC :1.40613: AVG IPC :0.52488: L2-Pf-HR :-nan: L2-HR :0.74541: (Sim:1h58m47s) 
CPU  0 inst:  408000000 cyc:  773338484 now IPC :1.34677: AVG IPC :0.52567: L2-Pf-HR :-nan: L2-HR :0.74616: (Sim:1h59m3s) 
CPU  0 inst:  409000004 cyc:  774060547 now IPC :1.38493: AVG IPC :0.52648: L2-Pf-HR :-nan: L2-HR :0.74691: (Sim:1h59m19s) 
CPU  0 inst:  410000002 cyc:  774808924 now IPC :1.33622: AVG IPC :0.52726: L2-Pf-HR :-nan: L2-HR :0.74763: (Sim:1h59m35s) 
CPU  0 inst:  411000004 cyc:  775530016 now IPC :1.38679: AVG IPC :0.52806: L2-Pf-HR :-nan: L2-HR :0.74836: (Sim:1h59m51s) 
CPU  0 inst:  412000001 cyc:  776259889 now IPC :1.37010: AVG IPC :0.52885: L2-Pf-HR :-nan: L2-HR :0.74908: (Sim:2h0m7s) 
CPU  0 inst:  413000002 cyc:  776991851 now IPC :1.36619: AVG IPC :0.52964: L2-Pf-HR :-nan: L2-HR :0.74980: (Sim:2h0m22s) 
CPU  0 inst:  414000003 cyc:  777753974 now IPC :1.31213: AVG IPC :0.53041: L2-Pf-HR :-nan: L2-HR :0.75048: (Sim:2h0m38s) 
CPU  0 inst:  415000001 cyc:  778518042 now IPC :1.30878: AVG IPC :0.53118: L2-Pf-HR :-nan: L2-HR :0.75115: (Sim:2h0m53s) 
CPU  0 inst:  416000000 cyc:  779290658 now IPC :1.29430: AVG IPC :0.53193: L2-Pf-HR :-nan: L2-HR :0.75183: (Sim:2h1m9s) 
CPU  0 inst:  417000003 cyc:  780046853 now IPC :1.32241: AVG IPC :0.53270: L2-Pf-HR :-nan: L2-HR :0.75251: (Sim:2h1m24s) 
CPU  0 inst:  418000002 cyc:  780812032 now IPC :1.30688: AVG IPC :0.53346: L2-Pf-HR :-nan: L2-HR :0.75315: (Sim:2h1m40s) 
CPU  0 inst:  419000001 cyc:  781524414 now IPC :1.40374: AVG IPC :0.53425: L2-Pf-HR :-nan: L2-HR :0.75384: (Sim:2h1m55s) 
CPU  0 inst:  420000003 cyc:  782240974 now IPC :1.39556: AVG IPC :0.53504: L2-Pf-HR :-nan: L2-HR :0.75454: (Sim:2h2m10s) 
CPU  0 inst:  421000002 cyc:  782958024 now IPC :1.39460: AVG IPC :0.53583: L2-Pf-HR :-nan: L2-HR :0.75523: (Sim:2h2m25s) 
CPU  0 inst:  422000003 cyc:  783719174 now IPC :1.31380: AVG IPC :0.53659: L2-Pf-HR :-nan: L2-HR :0.75586: (Sim:2h2m36s) 
CPU  0 inst:  423000000 cyc:  784428665 now IPC :1.40946: AVG IPC :0.53738: L2-Pf-HR :-nan: L2-HR :0.75654: (Sim:2h2m46s) 
CPU  0 inst:  424000000 cyc:  785139704 now IPC :1.40639: AVG IPC :0.53817: L2-Pf-HR :-nan: L2-HR :0.75721: (Sim:2h3m1s) 
CPU  0 inst:  425000005 cyc:  785860394 now IPC :1.38757: AVG IPC :0.53895: L2-Pf-HR :-nan: L2-HR :0.75788: (Sim:2h3m17s) 
CPU  0 inst:  426000005 cyc:  786617556 now IPC :1.32072: AVG IPC :0.53970: L2-Pf-HR :-nan: L2-HR :0.75849: (Sim:2h3m33s) 
CPU  0 inst:  427000000 cyc:  787332140 now IPC :1.39941: AVG IPC :0.54048: L2-Pf-HR :-nan: L2-HR :0.75915: (Sim:2h3m49s) 
CPU  0 inst:  428000002 cyc:  788033809 now IPC :1.42518: AVG IPC :0.54127: L2-Pf-HR :-nan: L2-HR :0.75980: (Sim:2h4m5s) 
CPU  0 inst:  429000005 cyc:  788752528 now IPC :1.39137: AVG IPC :0.54205: L2-Pf-HR :-nan: L2-HR :0.76045: (Sim:2h4m21s) 
CPU  0 inst:  430000003 cyc:  789510270 now IPC :1.31971: AVG IPC :0.54279: L2-Pf-HR :-nan: L2-HR :0.76105: (Sim:2h4m33s) 
CPU  0 inst:  431000002 cyc:  790261964 now IPC :1.33033: AVG IPC :0.54354: L2-Pf-HR :-nan: L2-HR :0.76165: (Sim:2h4m47s) 
CPU  0 inst:  432000000 cyc:  791008480 now IPC :1.33955: AVG IPC :0.54430: L2-Pf-HR :-nan: L2-HR :0.76226: (Sim:2h5m2s) 
CPU  0 inst:  433000002 cyc:  791778366 now IPC :1.29890: AVG IPC :0.54503: L2-Pf-HR :-nan: L2-HR :0.76286: (Sim:2h5m16s) 
CPU  0 inst:  434000002 cyc:  792555809 now IPC :1.28627: AVG IPC :0.54576: L2-Pf-HR :-nan: L2-HR :0.76344: (Sim:2h5m32s) 
CPU  0 inst:  435000002 cyc:  793287447 now IPC :1.36680: AVG IPC :0.54652: L2-Pf-HR :-nan: L2-HR :0.76403: (Sim:2h5m48s) 
CPU  0 inst:  436000003 cyc:  793988933 now IPC :1.42555: AVG IPC :0.54729: L2-Pf-HR :-nan: L2-HR :0.76464: (Sim:2h6m4s) 
CPU  0 inst:  437000000 cyc:  794715112 now IPC :1.37707: AVG IPC :0.54805: L2-Pf-HR :-nan: L2-HR :0.76525: (Sim:2h6m20s) 
CPU  0 inst:  438000002 cyc:  795439024 now IPC :1.38139: AVG IPC :0.54881: L2-Pf-HR :-nan: L2-HR :0.76586: (Sim:2h6m35s) 
CPU  0 inst:  439000002 cyc:  796191069 now IPC :1.32971: AVG IPC :0.54955: L2-Pf-HR :-nan: L2-HR :0.76641: (Sim:2h6m51s) 
CPU  0 inst:  440000000 cyc:  796894009 now IPC :1.42259: AVG IPC :0.55032: L2-Pf-HR :-nan: L2-HR :0.76701: (Sim:2h7m7s) 
CPU  0 inst:  441000005 cyc:  797615199 now IPC :1.38660: AVG IPC :0.55108: L2-Pf-HR :-nan: L2-HR :0.76761: (Sim:2h7m22s) 
CPU  0 inst:  442000004 cyc:  798354429 now IPC :1.35276: AVG IPC :0.55182: L2-Pf-HR :-nan: L2-HR :0.76819: (Sim:2h7m38s) 
CPU  0 inst:  443000003 cyc:  799091976 now IPC :1.35584: AVG IPC :0.55257: L2-Pf-HR :-nan: L2-HR :0.76873: (Sim:2h7m52s) 
CPU  0 inst:  444000002 cyc:  799801358 now IPC :1.40968: AVG IPC :0.55333: L2-Pf-HR :-nan: L2-HR :0.76932: (Sim:2h8m8s) 
CPU  0 inst:  445000005 cyc:  800523211 now IPC :1.38533: AVG IPC :0.55408: L2-Pf-HR :-nan: L2-HR :0.76988: (Sim:2h8m24s) 
CPU  0 inst:  446000000 cyc:  801263146 now IPC :1.35146: AVG IPC :0.55482: L2-Pf-HR :-nan: L2-HR :0.77044: (Sim:2h8m40s) 
CPU  0 inst:  447000002 cyc:  802014284 now IPC :1.33132: AVG IPC :0.55554: L2-Pf-HR :-nan: L2-HR :0.77097: (Sim:2h8m56s) 
CPU  0 inst:  448000000 cyc:  802789778 now IPC :1.28950: AVG IPC :0.55625: L2-Pf-HR :-nan: L2-HR :0.77150: (Sim:2h9m12s) 
CPU  0 inst:  449000000 cyc:  803572327 now IPC :1.27788: AVG IPC :0.55696: L2-Pf-HR :-nan: L2-HR :0.77202: (Sim:2h9m28s) 
CPU  0 inst:  450000000 cyc:  804344764 now IPC :1.29460: AVG IPC :0.55767: L2-Pf-HR :-nan: L2-HR :0.77255: (Sim:2h9m44s) 
CPU  0 inst:  451000002 cyc:  805111750 now IPC :1.30381: AVG IPC :0.55838: L2-Pf-HR :-nan: L2-HR :0.77305: (Sim:2h10m0s) 
CPU  0 inst:  452000004 cyc:  805851189 now IPC :1.35238: AVG IPC :0.55911: L2-Pf-HR :-nan: L2-HR :0.77359: (Sim:2h10m16s) 
CPU  0 inst:  453000000 cyc:  806572927 now IPC :1.38554: AVG IPC :0.55985: L2-Pf-HR :-nan: L2-HR :0.77413: (Sim:2h10m32s) 
CPU  0 inst:  454000004 cyc:  807302520 now IPC :1.37063: AVG IPC :0.56058: L2-Pf-HR :-nan: L2-HR :0.77467: (Sim:2h10m48s) 
CPU  0 inst:  455000004 cyc:  808037972 now IPC :1.35971: AVG IPC :0.56131: L2-Pf-HR :-nan: L2-HR :0.77519: (Sim:2h11m4s) 
CPU  0 inst:  456000000 cyc:  808782251 now IPC :1.34358: AVG IPC :0.56203: L2-Pf-HR :-nan: L2-HR :0.77570: (Sim:2h11m20s) 
CPU  0 inst:  457000004 cyc:  809499933 now IPC :1.39338: AVG IPC :0.56277: L2-Pf-HR :-nan: L2-HR :0.77623: (Sim:2h11m35s) 
CPU  0 inst:  458000001 cyc:  810231895 now IPC :1.36619: AVG IPC :0.56350: L2-Pf-HR :-nan: L2-HR :0.77676: (Sim:2h11m43s) 
CPU  0 inst:  459000001 cyc:  810960430 now IPC :1.37262: AVG IPC :0.56422: L2-Pf-HR :-nan: L2-HR :0.77728: (Sim:2h11m52s) 
CPU  0 inst:  460000004 cyc:  811715667 now IPC :1.32409: AVG IPC :0.56493: L2-Pf-HR :-nan: L2-HR :0.77776: (Sim:2h12m0s) 
CPU  0 inst:  461000000 cyc:  812433280 now IPC :1.39350: AVG IPC :0.56566: L2-Pf-HR :-nan: L2-HR :0.77828: (Sim:2h12m9s) 
CPU  0 inst:  462000001 cyc:  813155625 now IPC :1.38438: AVG IPC :0.56639: L2-Pf-HR :-nan: L2-HR :0.77880: (Sim:2h12m18s) 
CPU  0 inst:  463000005 cyc:  813870637 now IPC :1.39858: AVG IPC :0.56712: L2-Pf-HR :-nan: L2-HR :0.77931: (Sim:2h12m27s) 
CPU  0 inst:  464000000 cyc:  814660957 now IPC :1.26530: AVG IPC :0.56780: L2-Pf-HR :-nan: L2-HR :0.77975: (Sim:2h12m43s) 
CPU  0 inst:  465000002 cyc:  815412185 now IPC :1.33116: AVG IPC :0.56851: L2-Pf-HR :-nan: L2-HR :0.78023: (Sim:2h12m59s) 
CPU  0 inst:  466000002 cyc:  816166878 now IPC :1.32504: AVG IPC :0.56921: L2-Pf-HR :-nan: L2-HR :0.78071: (Sim:2h13m15s) 
CPU  0 inst:  467000001 cyc:  816927737 now IPC :1.31430: AVG IPC :0.56990: L2-Pf-HR :-nan: L2-HR :0.78119: (Sim:2h13m30s) 
CPU  0 inst:  468000002 cyc:  817711417 now IPC :1.27603: AVG IPC :0.57058: L2-Pf-HR :-nan: L2-HR :0.78162: (Sim:2h13m40s) 
CPU  0 inst:  469000001 cyc:  818419599 now IPC :1.41207: AVG IPC :0.57131: L2-Pf-HR :-nan: L2-HR :0.78211: (Sim:2h13m49s) 
CPU  0 inst:  470000003 cyc:  819125664 now IPC :1.41630: AVG IPC :0.57204: L2-Pf-HR :-nan: L2-HR :0.78260: (Sim:2h14m3s) 
CPU  0 inst:  471000000 cyc:  819848406 now IPC :1.38362: AVG IPC :0.57275: L2-Pf-HR :-nan: L2-HR :0.78309: (Sim:2h14m18s) 
CPU  0 inst:  472000000 cyc:  820616318 now IPC :1.30223: AVG IPC :0.57344: L2-Pf-HR :-nan: L2-HR :0.78352: (Sim:2h14m32s) 
CPU  0 inst:  473000001 cyc:  821329491 now IPC :1.40219: AVG IPC :0.57416: L2-Pf-HR :-nan: L2-HR :0.78401: (Sim:2h14m47s) 
CPU  0 inst:  474000001 cyc:  822031642 now IPC :1.42420: AVG IPC :0.57488: L2-Pf-HR :-nan: L2-HR :0.78449: (Sim:2h15m1s) 
CPU  0 inst:  475000004 cyc:  822753683 now IPC :1.38497: AVG IPC :0.57560: L2-Pf-HR :-nan: L2-HR :0.78496: (Sim:2h15m16s) 
CPU  0 inst:  476000001 cyc:  823517228 now IPC :1.30968: AVG IPC :0.57628: L2-Pf-HR :-nan: L2-HR :0.78538: (Sim:2h15m28s) 
CPU  0 inst:  477000001 cyc:  824237656 now IPC :1.38806: AVG IPC :0.57699: L2-Pf-HR :-nan: L2-HR :0.78586: (Sim:2h15m37s) 
CPU  0 inst:  478000004 cyc:  824940814 now IPC :1.42216: AVG IPC :0.57771: L2-Pf-HR :-nan: L2-HR :0.78632: (Sim:2h15m45s) 
CPU  0 inst:  479000004 cyc:  825667758 now IPC :1.37562: AVG IPC :0.57841: L2-Pf-HR :-nan: L2-HR :0.78677: (Sim:2h15m58s) 
CPU  0 inst:  480000000 cyc:  826399624 now IPC :1.36636: AVG IPC :0.57911: L2-Pf-HR :-nan: L2-HR :0.78723: (Sim:2h16m6s) 
CPU  0 inst:  481000004 cyc:  827183646 now IPC :1.27548: AVG IPC :0.57977: L2-Pf-HR :-nan: L2-HR :0.78763: (Sim:2h16m14s) 
CPU  0 inst:  482000005 cyc:  827953372 now IPC :1.29916: AVG IPC :0.58044: L2-Pf-HR :-nan: L2-HR :0.78805: (Sim:2h16m23s) 
CPU  0 inst:  483000003 cyc:  828743375 now IPC :1.26582: AVG IPC :0.58110: L2-Pf-HR :-nan: L2-HR :0.78846: (Sim:2h16m31s) 
CPU  0 inst:  484000000 cyc:  829513572 now IPC :1.29837: AVG IPC :0.58176: L2-Pf-HR :-nan: L2-HR :0.78886: (Sim:2h16m42s) 
CPU  0 inst:  485000001 cyc:  830245462 now IPC :1.36633: AVG IPC :0.58246: L2-Pf-HR :-nan: L2-HR :0.78929: (Sim:2h16m54s) 
CPU  0 inst:  486000002 cyc:  830971677 now IPC :1.37700: AVG IPC :0.58315: L2-Pf-HR :-nan: L2-HR :0.78972: (Sim:2h17m9s) 
CPU  0 inst:  487000005 cyc:  831702452 now IPC :1.36841: AVG IPC :0.58384: L2-Pf-HR :-nan: L2-HR :0.79015: (Sim:2h17m24s) 
CPU  0 inst:  488000000 cyc:  832419098 now IPC :1.39538: AVG IPC :0.58454: L2-Pf-HR :-nan: L2-HR :0.79059: (Sim:2h17m34s) 
CPU  0 inst:  489000005 cyc:  833173606 now IPC :1.32537: AVG IPC :0.58521: L2-Pf-HR :-nan: L2-HR :0.79099: (Sim:2h17m43s) 
CPU  0 inst:  490000001 cyc:  833900936 now IPC :1.37489: AVG IPC :0.58590: L2-Pf-HR :-nan: L2-HR :0.79142: (Sim:2h17m51s) 
CPU  0 inst:  491000003 cyc:  834619763 now IPC :1.39116: AVG IPC :0.58660: L2-Pf-HR :-nan: L2-HR :0.79185: (Sim:2h18m0s) 
CPU  0 inst:  492000001 cyc:  835341435 now IPC :1.38567: AVG IPC :0.58729: L2-Pf-HR :-nan: L2-HR :0.79227: (Sim:2h18m8s) 
CPU  0 inst:  493000004 cyc:  836101594 now IPC :1.31552: AVG IPC :0.58795: L2-Pf-HR :-nan: L2-HR :0.79265: (Sim:2h18m16s) 
Finished CPU 0 instr: 491000002 cyc: 835103996 AVG IPC: 0.58795 (Sim time: 2h18m16s)

ChampSim completed all CPUs

[ROI Statistics]
Core_0_instructions 491000002
Core_0_cycles 835103996
Core_0_IPC 0.58795

Core_0_branch_prediction_accuracy 99.58586
Core_0_branch_MPKI 0.12051
Core_0_average_ROB_occupancy_at_mispredict 472.23769

Core_0_L1D_total_access 134399018
Core_0_L1D_total_hit 115144062 L1D_total_Hit Ratio: 0.85673
Core_0_L1D_total_miss 19254956
Core_0_L1D_loads 121545123
Core_0_L1D_load_hit 103130327 L1D_load_Hit Ratio: 0.84849
Core_0_L1D_load_miss 18414796
Core_0_L1D_RFOs 12853895
Core_0_L1D_RFO_hit 12013735 L1D_RFO_Hit Ratio: 0.93464
Core_0_L1D_RFO_miss 840160
Core_0_L1D_prefetches 0
Core_0_L1D_prefetch_hit 0 L1D_prefetch_Hit Ratio: -nan
Core_0_L1D_prefetch_miss 0
Core_0_L1D_writebacks 0
Core_0_L1D_writeback_hit 0 L1D_writeback_Hit Ratio: -nan
Core_0_L1D_writeback_miss 0
Core_0_L1D_prefetch_requested 0
Core_0_L1D_prefetch_issued 0
Core_0_L1D_prefetch_useful 0 L1D_Useful Ratio: -nan
Core_0_L1D_prefetch_useless 0
Core_0_L1D_prefetch_late 0
Core_0_L1D_average_miss_latency 86.05076

Core_0_L1I_total_access 73827902
Core_0_L1I_total_hit 73822929 L1I_total_Hit Ratio: 0.99993
Core_0_L1I_total_miss 4973
Core_0_L1I_loads 73827902
Core_0_L1I_load_hit 73822929 L1I_load_Hit Ratio: 0.99993
Core_0_L1I_load_miss 4973
Core_0_L1I_RFOs 0
Core_0_L1I_RFO_hit 0 L1I_RFO_Hit Ratio: -nan
Core_0_L1I_RFO_miss 0
Core_0_L1I_prefetches 0
Core_0_L1I_prefetch_hit 0 L1I_prefetch_Hit Ratio: -nan
Core_0_L1I_prefetch_miss 0
Core_0_L1I_writebacks 0
Core_0_L1I_writeback_hit 0 L1I_writeback_Hit Ratio: -nan
Core_0_L1I_writeback_miss 0
Core_0_L1I_prefetch_requested 0
Core_0_L1I_prefetch_issued 0
Core_0_L1I_prefetch_useful 0 L1I_Useful Ratio: -nan
Core_0_L1I_prefetch_useless 0
Core_0_L1I_prefetch_late 0
Core_0_L1I_average_miss_latency 273.10999

Core_0_L2C_total_access 22173754
Core_0_L2C_total_hit 17576070 L2C_total_Hit Ratio: 0.79265
Core_0_L2C_total_miss 4597684
Core_0_L2C_loads 18419770
Core_0_L2C_load_hit 14610889 L2C_load_Hit Ratio: 0.79322
Core_0_L2C_load_miss 3808881
Core_0_L2C_RFOs 840160
Core_0_L2C_RFO_hit 52931 L2C_RFO_Hit Ratio: 0.06300
Core_0_L2C_RFO_miss 787229
Core_0_L2C_prefetches 0
Core_0_L2C_prefetch_hit 0 L2C_prefetch_Hit Ratio: -nan
Core_0_L2C_prefetch_miss 0
Core_0_L2C_writebacks 2913824
Core_0_L2C_writeback_hit 2912250 L2C_writeback_Hit Ratio: 0.99946
Core_0_L2C_writeback_miss 1574
Core_0_L2C_prefetch_requested 0
Core_0_L2C_prefetch_issued 0
Core_0_L2C_prefetch_useful 0 L2C_Useful Ratio: -nan
Core_0_L2C_prefetch_useless 0
Core_0_L2C_prefetch_late 0
Core_0_L2C_average_miss_latency 296.84920

Core_0_LLC_total_access 7326083
Core_0_LLC_total_hit 3128379 LLC_total_Hit Ratio: 0.42702
Core_0_LLC_total_miss 4197704
Core_0_LLC_loads 3808879
Core_0_LLC_load_hit 407454 LLC_load_Hit Ratio: 0.10697
Core_0_LLC_load_miss 3401425
Core_0_LLC_RFOs 787229
Core_0_LLC_RFO_hit 248 LLC_RFO_Hit Ratio: 0.00032
Core_0_LLC_RFO_miss 786981
Core_0_LLC_prefetches 0
Core_0_LLC_prefetch_hit 0 LLC_prefetch_Hit Ratio: -nan
Core_0_LLC_prefetch_miss 0
Core_0_LLC_writebacks 2729975
Core_0_LLC_writeback_hit 2720677 LLC_writeback_Hit Ratio: 0.99659
Core_0_LLC_writeback_miss 9298
Core_0_LLC_prefetch_requested 0
Core_0_LLC_prefetch_issued 0
Core_0_LLC_prefetch_useful 0 LLC_Useful Ratio: -nan
Core_0_LLC_prefetch_useless 0
Core_0_LLC_prefetch_late 0
Core_0_LLC_average_miss_latency 270.29370

Core_0_major_page_fault 0
Core_0_minor_page_fault 28665

Channel_0_RQ_row_buffer_hit 2343450
Channel_0_RQ_row_buffer_miss 1844947
Channel_0_WQ_row_buffer_hit 936653
Channel_0_WQ_row_buffer_miss 1508128
Channel_0_WQ_full 142
Channel_0_dbus_congested 1741528

avg_congested_cycle 8

EzSearch AVG IPC :0.58795: L2-Pf-HR :-nan : L2-HR :0.79265 Uful:-nan
     > Finished combination: TraceType=770-tot Sim:491000000 Prefetcher=L2no L1=no
