TRACE: [1979000000]_FE_[GPT-Neo-125M]_[h12]_[s2048]_[d64] Warmup: 2000000 NumTraces: 1979000000
L1:isb_ideal:L2:isb_ideal
*************************************************
   ChampSim Multicore Out-of-Order Simulator
   Last compiled: Oct 31 2024 08:39:22
*************************************************

trace_0 770-tot_memTraces_v5/120-subBillion_s2048_LLM_Arch/memTraces[1979000000]_FE_[GPT-Neo-125M]_[h12]_[s2048]_[d64].champsim.9.xz
L1D: Ideal ISB Prefetching
Ideal ISB Prefetching
MAIN.cc ln 751 stats print skipped
CPU  0 inst:    1000001 cyc:     506982 now IPC :1.97246: AVG IPC :1.97246: L2-Pf-HR :0.99665: L2-HR :0.87229: (Sim:0h0m7s) 
CPU  0 inst:    2000000 cyc:     997268 now IPC :2.03962: AVG IPC :2.00548: L2-Pf-HR :0.99657: L2-HR :0.90281: (Sim:0h0m14s) 

Warmup complete CPU  0 instructions:    2000002 cycles:     997269 (Simulation time: 0 hr 0 min 14 sec) 

CPU  0 inst:    3000002 cyc:    1684207 now IPC :1.45574: AVG IPC :1.45574: L2-Pf-HR :0.99685: L2-HR :0.93303: (Sim:0h0m21s) 
CPU  0 inst:    4000005 cyc:    2371909 now IPC :1.45412: AVG IPC :1.45493: L2-Pf-HR :0.99684: L2-HR :0.93301: (Sim:0h0m27s) 
CPU  0 inst:    5000003 cyc:    3057107 now IPC :1.45943: AVG IPC :1.45643: L2-Pf-HR :0.99687: L2-HR :0.93303: (Sim:0h0m34s) 
CPU  0 inst:    6000004 cyc:    3744936 now IPC :1.45385: AVG IPC :1.45578: L2-Pf-HR :0.99689: L2-HR :0.93308: (Sim:0h0m40s) 
CPU  0 inst:    7000002 cyc:    4492852 now IPC :1.33705: AVG IPC :1.43038: L2-Pf-HR :0.99704: L2-HR :0.93306: (Sim:0h0m47s) 
CPU  0 inst:    8000000 cyc:    5213296 now IPC :1.38803: AVG IPC :1.42314: L2-Pf-HR :0.99704: L2-HR :0.93304: (Sim:0h0m53s) 
CPU  0 inst:    9000001 cyc:    5934754 now IPC :1.38608: AVG IPC :1.41773: L2-Pf-HR :0.99701: L2-HR :0.93303: (Sim:0h1m0s) 
CPU  0 inst:   10000004 cyc:    6657606 now IPC :1.38341: AVG IPC :1.41334: L2-Pf-HR :0.99699: L2-HR :0.93303: (Sim:0h1m7s) 
CPU  0 inst:   11000002 cyc:    7383662 now IPC :1.37730: AVG IPC :1.40925: L2-Pf-HR :0.99697: L2-HR :0.93302: (Sim:0h1m14s) 
CPU  0 inst:   12000003 cyc:    8114795 now IPC :1.36774: AVG IPC :1.40498: L2-Pf-HR :0.99696: L2-HR :0.93302: (Sim:0h1m20s) 
CPU  0 inst:   13000001 cyc:    8927198 now IPC :1.23091: AVG IPC :1.38715: L2-Pf-HR :0.99637: L2-HR :0.93249: (Sim:0h1m28s) 
CPU  0 inst:   14000000 cyc:    9653452 now IPC :1.37693: AVG IPC :1.38629: L2-Pf-HR :0.99580: L2-HR :0.93307: (Sim:0h1m35s) 
CPU  0 inst:   15000000 cyc:   10382042 now IPC :1.37251: AVG IPC :1.38522: L2-Pf-HR :0.99534: L2-HR :0.93358: (Sim:0h1m42s) 
CPU  0 inst:   16000000 cyc:   11108945 now IPC :1.37570: AVG IPC :1.38454: L2-Pf-HR :0.99494: L2-HR :0.93401: (Sim:0h1m49s) 
CPU  0 inst:   17000001 cyc:   11836690 now IPC :1.37411: AVG IPC :1.38384: L2-Pf-HR :0.99458: L2-HR :0.93436: (Sim:0h1m56s) 
CPU  0 inst:   18000005 cyc:   12565899 now IPC :1.37135: AVG IPC :1.38305: L2-Pf-HR :0.99428: L2-HR :0.93467: (Sim:0h2m3s) 
CPU  0 inst:   19000003 cyc:   13328808 now IPC :1.31077: AVG IPC :1.37858: L2-Pf-HR :0.99402: L2-HR :0.93493: (Sim:0h2m9s) 
CPU  0 inst:   20000004 cyc:   14054818 now IPC :1.37739: AVG IPC :1.37851: L2-Pf-HR :0.99376: L2-HR :0.93516: (Sim:0h2m16s) 
CPU  0 inst:   21000004 cyc:   14778098 now IPC :1.38259: AVG IPC :1.37873: L2-Pf-HR :0.99355: L2-HR :0.93539: (Sim:0h2m23s) 
CPU  0 inst:   22000004 cyc:   15503837 now IPC :1.37791: AVG IPC :1.37869: L2-Pf-HR :0.99336: L2-HR :0.93559: (Sim:0h2m30s) 
CPU  0 inst:   23000004 cyc:   16228843 now IPC :1.37930: AVG IPC :1.37872: L2-Pf-HR :0.99319: L2-HR :0.93578: (Sim:0h2m37s) 
CPU  0 inst:   24000000 cyc:   16955448 now IPC :1.37626: AVG IPC :1.37860: L2-Pf-HR :0.99303: L2-HR :0.93594: (Sim:0h2m44s) 
CPU  0 inst:   25000002 cyc:   17753533 now IPC :1.25300: AVG IPC :1.37262: L2-Pf-HR :0.99282: L2-HR :0.93561: (Sim:0h2m51s) 
CPU  0 inst:   26000002 cyc:   18472274 now IPC :1.39132: AVG IPC :1.37339: L2-Pf-HR :0.99270: L2-HR :0.93577: (Sim:0h2m58s) 
CPU  0 inst:   27000002 cyc:   19193065 now IPC :1.38736: AVG IPC :1.37394: L2-Pf-HR :0.99259: L2-HR :0.93591: (Sim:0h3m4s) 
CPU  0 inst:   28000002 cyc:   19913644 now IPC :1.38777: AVG IPC :1.37447: L2-Pf-HR :0.99248: L2-HR :0.93605: (Sim:0h3m11s) 
CPU  0 inst:   29000001 cyc:   20635209 now IPC :1.38588: AVG IPC :1.37489: L2-Pf-HR :0.99237: L2-HR :0.93617: (Sim:0h3m18s) 
CPU  0 inst:   30000004 cyc:   21357941 now IPC :1.38364: AVG IPC :1.37520: L2-Pf-HR :0.99226: L2-HR :0.93627: (Sim:0h3m25s) 
CPU  0 inst:   31000002 cyc:   22107511 now IPC :1.33410: AVG IPC :1.37374: L2-Pf-HR :0.99219: L2-HR :0.93637: (Sim:0h3m32s) 
CPU  0 inst:   32000000 cyc:   22817936 now IPC :1.40761: AVG IPC :1.37484: L2-Pf-HR :0.99210: L2-HR :0.93647: (Sim:0h3m39s) 
CPU  0 inst:   33000000 cyc:   23526064 now IPC :1.41217: AVG IPC :1.37602: L2-Pf-HR :0.99203: L2-HR :0.93657: (Sim:0h3m46s) 
CPU  0 inst:   34000002 cyc:   24236365 now IPC :1.40786: AVG IPC :1.37699: L2-Pf-HR :0.99195: L2-HR :0.93666: (Sim:0h3m52s) 
CPU  0 inst:   35000002 cyc:   24945604 now IPC :1.40996: AVG IPC :1.37797: L2-Pf-HR :0.99189: L2-HR :0.93674: (Sim:0h3m59s) 
CPU  0 inst:   36000000 cyc:   25654338 now IPC :1.41096: AVG IPC :1.37891: L2-Pf-HR :0.99181: L2-HR :0.93680: (Sim:0h4m6s) 
CPU  0 inst:   37000004 cyc:   26458910 now IPC :1.24290: AVG IPC :1.37462: L2-Pf-HR :0.99172: L2-HR :0.93656: (Sim:0h4m14s) 
CPU  0 inst:   38000004 cyc:   27183010 now IPC :1.38102: AVG IPC :1.37479: L2-Pf-HR :0.99166: L2-HR :0.93664: (Sim:0h4m20s) 
CPU  0 inst:   39000004 cyc:   27908159 now IPC :1.37903: AVG IPC :1.37491: L2-Pf-HR :0.99161: L2-HR :0.93671: (Sim:0h4m27s) 
CPU  0 inst:   40000000 cyc:   28634428 now IPC :1.37689: AVG IPC :1.37496: L2-Pf-HR :0.99157: L2-HR :0.93679: (Sim:0h4m34s) 
CPU  0 inst:   41000004 cyc:   29360169 now IPC :1.37791: AVG IPC :1.37504: L2-Pf-HR :0.99151: L2-HR :0.93684: (Sim:0h4m41s) 
CPU  0 inst:   42000004 cyc:   30087362 now IPC :1.37515: AVG IPC :1.37504: L2-Pf-HR :0.99146: L2-HR :0.93690: (Sim:0h4m48s) 
CPU  0 inst:   43000002 cyc:   30850181 now IPC :1.31092: AVG IPC :1.37340: L2-Pf-HR :0.99143: L2-HR :0.93696: (Sim:0h4m55s) 
CPU  0 inst:   44000002 cyc:   31577060 now IPC :1.37574: AVG IPC :1.37346: L2-Pf-HR :0.99138: L2-HR :0.93701: (Sim:0h5m2s) 
CPU  0 inst:   45000002 cyc:   32303117 now IPC :1.37730: AVG IPC :1.37355: L2-Pf-HR :0.99135: L2-HR :0.93707: (Sim:0h5m9s) 
CPU  0 inst:   46000004 cyc:   33030097 now IPC :1.37556: AVG IPC :1.37359: L2-Pf-HR :0.99131: L2-HR :0.93712: (Sim:0h5m16s) 
CPU  0 inst:   47000000 cyc:   33756413 now IPC :1.37681: AVG IPC :1.37366: L2-Pf-HR :0.99127: L2-HR :0.93717: (Sim:0h5m23s) 
CPU  0 inst:   48000000 cyc:   34480196 now IPC :1.38163: AVG IPC :1.37383: L2-Pf-HR :0.99123: L2-HR :0.93721: (Sim:0h5m30s) 
CPU  0 inst:   49000003 cyc:   35284411 now IPC :1.24345: AVG IPC :1.37078: L2-Pf-HR :0.99118: L2-HR :0.93702: (Sim:0h5m37s) 
CPU  0 inst:   50000003 cyc:   36011105 now IPC :1.37610: AVG IPC :1.37089: L2-Pf-HR :0.99115: L2-HR :0.93707: (Sim:0h5m44s) 
CPU  0 inst:   51000002 cyc:   36740479 now IPC :1.37104: AVG IPC :1.37089: L2-Pf-HR :0.99112: L2-HR :0.93712: (Sim:0h5m51s) 
CPU  0 inst:   52000002 cyc:   37469959 now IPC :1.37084: AVG IPC :1.37089: L2-Pf-HR :0.99109: L2-HR :0.93717: (Sim:0h5m58s) 
CPU  0 inst:   53000003 cyc:   38197491 now IPC :1.37451: AVG IPC :1.37096: L2-Pf-HR :0.99105: L2-HR :0.93720: (Sim:0h6m5s) 
CPU  0 inst:   54000005 cyc:   38926764 now IPC :1.37123: AVG IPC :1.37096: L2-Pf-HR :0.99102: L2-HR :0.93723: (Sim:0h6m12s) 
CPU  0 inst:   55000001 cyc:   39688717 now IPC :1.31241: AVG IPC :1.36981: L2-Pf-HR :0.99101: L2-HR :0.93728: (Sim:0h6m19s) 
CPU  0 inst:   56000000 cyc:   40413134 now IPC :1.38042: AVG IPC :1.37001: L2-Pf-HR :0.99099: L2-HR :0.93731: (Sim:0h6m27s) 
CPU  0 inst:   57000003 cyc:   41137914 now IPC :1.37973: AVG IPC :1.37018: L2-Pf-HR :0.99097: L2-HR :0.93735: (Sim:0h6m34s) 
CPU  0 inst:   58000004 cyc:   41862927 now IPC :1.37929: AVG IPC :1.37034: L2-Pf-HR :0.99094: L2-HR :0.93739: (Sim:0h6m41s) 
CPU  0 inst:   59000001 cyc:   42587786 now IPC :1.37957: AVG IPC :1.37050: L2-Pf-HR :0.99092: L2-HR :0.93742: (Sim:0h6m48s) 
CPU  0 inst:   60000001 cyc:   43310798 now IPC :1.38310: AVG IPC :1.37072: L2-Pf-HR :0.99089: L2-HR :0.93744: (Sim:0h6m55s) 
CPU  0 inst:   61000004 cyc:   44063456 now IPC :1.32863: AVG IPC :1.36998: L2-Pf-HR :0.99063: L2-HR :0.93688: (Sim:0h7m1s) 
CPU  0 inst:   62000003 cyc:   44785228 now IPC :1.38548: AVG IPC :1.37024: L2-Pf-HR :0.99028: L2-HR :0.93616: (Sim:0h7m8s) 
CPU  0 inst:   63000003 cyc:   45514889 now IPC :1.37050: AVG IPC :1.37024: L2-Pf-HR :0.98993: L2-HR :0.93543: (Sim:0h7m15s) 
CPU  0 inst:   64000000 cyc:   46231775 now IPC :1.39492: AVG IPC :1.37064: L2-Pf-HR :0.98959: L2-HR :0.93471: (Sim:0h7m21s) 
CPU  0 inst:   65000001 cyc:   47070316 now IPC :1.19255: AVG IPC :1.36739: L2-Pf-HR :0.98939: L2-HR :0.93413: (Sim:0h7m29s) 
CPU  0 inst:   66000000 cyc:   47807350 now IPC :1.35679: AVG IPC :1.36723: L2-Pf-HR :0.98939: L2-HR :0.93409: (Sim:0h7m36s) 
CPU  0 inst:   67000001 cyc:   48546364 now IPC :1.35316: AVG IPC :1.36701: L2-Pf-HR :0.98940: L2-HR :0.93404: (Sim:0h7m43s) 
CPU  0 inst:   68000005 cyc:   49285127 now IPC :1.35362: AVG IPC :1.36680: L2-Pf-HR :0.98939: L2-HR :0.93400: (Sim:0h7m50s) 
CPU  0 inst:   69000003 cyc:   50023689 now IPC :1.35398: AVG IPC :1.36661: L2-Pf-HR :0.98939: L2-HR :0.93396: (Sim:0h7m57s) 
CPU  0 inst:   70000004 cyc:   50761805 now IPC :1.35480: AVG IPC :1.36643: L2-Pf-HR :0.98940: L2-HR :0.93392: (Sim:0h8m5s) 
CPU  0 inst:   71000002 cyc:   51538947 now IPC :1.28676: AVG IPC :1.36521: L2-Pf-HR :0.98940: L2-HR :0.93388: (Sim:0h8m12s) 
CPU  0 inst:   72000000 cyc:   52283451 now IPC :1.34317: AVG IPC :1.36489: L2-Pf-HR :0.98941: L2-HR :0.93384: (Sim:0h8m19s) 
CPU  0 inst:   73000001 cyc:   53028263 now IPC :1.34262: AVG IPC :1.36457: L2-Pf-HR :0.98940: L2-HR :0.93380: (Sim:0h8m26s) 
CPU  0 inst:   74000000 cyc:   53771328 now IPC :1.34578: AVG IPC :1.36431: L2-Pf-HR :0.98940: L2-HR :0.93376: (Sim:0h8m33s) 
CPU  0 inst:   75000000 cyc:   54516145 now IPC :1.34261: AVG IPC :1.36400: L2-Pf-HR :0.98940: L2-HR :0.93373: (Sim:0h8m41s) 
CPU  0 inst:   76000000 cyc:   55262613 now IPC :1.33964: AVG IPC :1.36367: L2-Pf-HR :0.98940: L2-HR :0.93369: (Sim:0h8m48s) 
CPU  0 inst:   77000004 cyc:   56075555 now IPC :1.23010: AVG IPC :1.36170: L2-Pf-HR :0.98938: L2-HR :0.93357: (Sim:0h8m55s) 
CPU  0 inst:   78000004 cyc:   56803194 now IPC :1.37431: AVG IPC :1.36186: L2-Pf-HR :0.98938: L2-HR :0.93361: (Sim:0h9m3s) 
CPU  0 inst:   79000001 cyc:   57529340 now IPC :1.37713: AVG IPC :1.36206: L2-Pf-HR :0.98939: L2-HR :0.93366: (Sim:0h9m10s) 
CPU  0 inst:   80000000 cyc:   58256323 now IPC :1.37555: AVG IPC :1.36223: L2-Pf-HR :0.98939: L2-HR :0.93370: (Sim:0h9m17s) 
CPU  0 inst:   81000004 cyc:   58982696 now IPC :1.37671: AVG IPC :1.36241: L2-Pf-HR :0.98939: L2-HR :0.93375: (Sim:0h9m24s) 
CPU  0 inst:   82000004 cyc:   59708292 now IPC :1.37818: AVG IPC :1.36261: L2-Pf-HR :0.98938: L2-HR :0.93378: (Sim:0h9m31s) 
CPU  0 inst:   83000002 cyc:   60464912 now IPC :1.32166: AVG IPC :1.36209: L2-Pf-HR :0.98939: L2-HR :0.93383: (Sim:0h9m38s) 
CPU  0 inst:   84000002 cyc:   61177197 now IPC :1.40393: AVG IPC :1.36258: L2-Pf-HR :0.98939: L2-HR :0.93387: (Sim:0h9m45s) 
CPU  0 inst:   85000001 cyc:   61890987 now IPC :1.40097: AVG IPC :1.36303: L2-Pf-HR :0.98939: L2-HR :0.93391: (Sim:0h9m52s) 
CPU  0 inst:   86000004 cyc:   62603410 now IPC :1.40366: AVG IPC :1.36350: L2-Pf-HR :0.98939: L2-HR :0.93394: (Sim:0h10m0s) 
CPU  0 inst:   87000002 cyc:   63315843 now IPC :1.40364: AVG IPC :1.36396: L2-Pf-HR :0.98939: L2-HR :0.93398: (Sim:0h10m7s) 
CPU  0 inst:   88000000 cyc:   64030036 now IPC :1.40018: AVG IPC :1.36437: L2-Pf-HR :0.98938: L2-HR :0.93402: (Sim:0h10m14s) 
CPU  0 inst:   89000003 cyc:   64827327 now IPC :1.25425: AVG IPC :1.36299: L2-Pf-HR :0.98938: L2-HR :0.93393: (Sim:0h10m22s) 
CPU  0 inst:   90000003 cyc:   65550060 now IPC :1.38364: AVG IPC :1.36323: L2-Pf-HR :0.98938: L2-HR :0.93396: (Sim:0h10m30s) 
CPU  0 inst:   91000005 cyc:   66272220 now IPC :1.38474: AVG IPC :1.36346: L2-Pf-HR :0.98938: L2-HR :0.93399: (Sim:0h10m37s) 
CPU  0 inst:   92000005 cyc:   66994789 now IPC :1.38395: AVG IPC :1.36369: L2-Pf-HR :0.98938: L2-HR :0.93403: (Sim:0h10m45s) 
CPU  0 inst:   93000003 cyc:   67717380 now IPC :1.38391: AVG IPC :1.36391: L2-Pf-HR :0.98938: L2-HR :0.93406: (Sim:0h10m52s) 
CPU  0 inst:   94000003 cyc:   68438501 now IPC :1.38673: AVG IPC :1.36415: L2-Pf-HR :0.98938: L2-HR :0.93409: (Sim:0h11m0s) 
CPU  0 inst:   95000001 cyc:   69202443 now IPC :1.30900: AVG IPC :1.36353: L2-Pf-HR :0.98939: L2-HR :0.93413: (Sim:0h11m7s) 
CPU  0 inst:   96000000 cyc:   69926384 now IPC :1.38133: AVG IPC :1.36372: L2-Pf-HR :0.98939: L2-HR :0.93416: (Sim:0h11m14s) 
CPU  0 inst:   97000003 cyc:   70651420 now IPC :1.37925: AVG IPC :1.36388: L2-Pf-HR :0.98939: L2-HR :0.93419: (Sim:0h11m21s) 
CPU  0 inst:   98000004 cyc:   71376407 now IPC :1.37934: AVG IPC :1.36404: L2-Pf-HR :0.98939: L2-HR :0.93422: (Sim:0h11m28s) 
CPU  0 inst:   99000001 cyc:   72100635 now IPC :1.38078: AVG IPC :1.36421: L2-Pf-HR :0.98939: L2-HR :0.93425: (Sim:0h11m36s) 
CPU  0 inst:  100000001 cyc:   72825022 now IPC :1.38048: AVG IPC :1.36438: L2-Pf-HR :0.98938: L2-HR :0.93427: (Sim:0h11m43s) 
CPU  0 inst:  101000005 cyc:   73627916 now IPC :1.24550: AVG IPC :1.36306: L2-Pf-HR :0.98938: L2-HR :0.93419: (Sim:0h11m51s) 
CPU  0 inst:  102000001 cyc:   74354637 now IPC :1.37604: AVG IPC :1.36319: L2-Pf-HR :0.98938: L2-HR :0.93422: (Sim:0h11m58s) 
CPU  0 inst:  103000004 cyc:   75080629 now IPC :1.37743: AVG IPC :1.36333: L2-Pf-HR :0.98938: L2-HR :0.93425: (Sim:0h12m5s) 
CPU  0 inst:  104000000 cyc:   75807258 now IPC :1.37621: AVG IPC :1.36345: L2-Pf-HR :0.98938: L2-HR :0.93428: (Sim:0h12m12s) 
CPU  0 inst:  105000005 cyc:   76533326 now IPC :1.37729: AVG IPC :1.36359: L2-Pf-HR :0.98938: L2-HR :0.93431: (Sim:0h12m19s) 
CPU  0 inst:  106000003 cyc:   77259183 now IPC :1.37768: AVG IPC :1.36372: L2-Pf-HR :0.98938: L2-HR :0.93434: (Sim:0h12m27s) 
CPU  0 inst:  107000003 cyc:   78024031 now IPC :1.30745: AVG IPC :1.36316: L2-Pf-HR :0.98938: L2-HR :0.93436: (Sim:0h12m34s) 
CPU  0 inst:  108000002 cyc:   78747849 now IPC :1.38156: AVG IPC :1.36333: L2-Pf-HR :0.98938: L2-HR :0.93439: (Sim:0h12m41s) 
CPU  0 inst:  109000003 cyc:   79473600 now IPC :1.37788: AVG IPC :1.36347: L2-Pf-HR :0.98938: L2-HR :0.93441: (Sim:0h12m48s) 
CPU  0 inst:  110000003 cyc:   80199256 now IPC :1.37806: AVG IPC :1.36360: L2-Pf-HR :0.98939: L2-HR :0.93444: (Sim:0h12m56s) 
CPU  0 inst:  111000003 cyc:   80922376 now IPC :1.38290: AVG IPC :1.36378: L2-Pf-HR :0.98938: L2-HR :0.93446: (Sim:0h13m3s) 
CPU  0 inst:  112000000 cyc:   81647096 now IPC :1.37984: AVG IPC :1.36392: L2-Pf-HR :0.98938: L2-HR :0.93448: (Sim:0h13m10s) 
CPU  0 inst:  113000001 cyc:   82441023 now IPC :1.25956: AVG IPC :1.36290: L2-Pf-HR :0.98938: L2-HR :0.93441: (Sim:0h13m18s) 
CPU  0 inst:  114000001 cyc:   83154827 now IPC :1.40094: AVG IPC :1.36323: L2-Pf-HR :0.98938: L2-HR :0.93443: (Sim:0h13m26s) 
CPU  0 inst:  115000001 cyc:   83867682 now IPC :1.40281: AVG IPC :1.36357: L2-Pf-HR :0.98938: L2-HR :0.93446: (Sim:0h13m35s) 
CPU  0 inst:  116000001 cyc:   84580334 now IPC :1.40321: AVG IPC :1.36391: L2-Pf-HR :0.98938: L2-HR :0.93448: (Sim:0h13m43s) 
CPU  0 inst:  117000001 cyc:   85294769 now IPC :1.39971: AVG IPC :1.36422: L2-Pf-HR :0.98938: L2-HR :0.93450: (Sim:0h13m51s) 
CPU  0 inst:  118000002 cyc:   86007447 now IPC :1.40316: AVG IPC :1.36454: L2-Pf-HR :0.98938: L2-HR :0.93453: (Sim:0h14m1s) 
CPU  0 inst:  119000004 cyc:   86764501 now IPC :1.32091: AVG IPC :1.36416: L2-Pf-HR :0.98939: L2-HR :0.93455: (Sim:0h14m9s) 
CPU  0 inst:  120000000 cyc:   87484887 now IPC :1.38814: AVG IPC :1.36436: L2-Pf-HR :0.98939: L2-HR :0.93457: (Sim:0h14m17s) 
CPU  0 inst:  121000005 cyc:   88207617 now IPC :1.38365: AVG IPC :1.36452: L2-Pf-HR :0.98939: L2-HR :0.93459: (Sim:0h14m24s) 
CPU  0 inst:  122000005 cyc:   88931634 now IPC :1.38118: AVG IPC :1.36465: L2-Pf-HR :0.98939: L2-HR :0.93461: (Sim:0h14m31s) 
CPU  0 inst:  123000005 cyc:   89653967 now IPC :1.38440: AVG IPC :1.36482: L2-Pf-HR :0.98939: L2-HR :0.93463: (Sim:0h14m38s) 
CPU  0 inst:  124000002 cyc:   90376176 now IPC :1.38464: AVG IPC :1.36498: L2-Pf-HR :0.98939: L2-HR :0.93465: (Sim:0h14m46s) 
CPU  0 inst:  125000005 cyc:   91123277 now IPC :1.33851: AVG IPC :1.36476: L2-Pf-HR :0.98929: L2-HR :0.93443: (Sim:0h14m53s) 
CPU  0 inst:  126000002 cyc:   91847716 now IPC :1.38037: AVG IPC :1.36488: L2-Pf-HR :0.98912: L2-HR :0.93406: (Sim:0h15m0s) 
CPU  0 inst:  127000001 cyc:   92575309 now IPC :1.37439: AVG IPC :1.36496: L2-Pf-HR :0.98894: L2-HR :0.93370: (Sim:0h15m7s) 
CPU  0 inst:  128000000 cyc:   93285125 now IPC :1.40881: AVG IPC :1.36529: L2-Pf-HR :0.98878: L2-HR :0.93334: (Sim:0h15m13s) 
CPU  0 inst:  129000005 cyc:   94109284 now IPC :1.21336: AVG IPC :1.36395: L2-Pf-HR :0.98866: L2-HR :0.93300: (Sim:0h15m21s) 
CPU  0 inst:  130000000 cyc:   94848380 now IPC :1.35300: AVG IPC :1.36386: L2-Pf-HR :0.98866: L2-HR :0.93297: (Sim:0h15m28s) 
CPU  0 inst:  131000003 cyc:   95586411 now IPC :1.35496: AVG IPC :1.36379: L2-Pf-HR :0.98867: L2-HR :0.93294: (Sim:0h15m36s) 
CPU  0 inst:  132000005 cyc:   96322767 now IPC :1.35804: AVG IPC :1.36375: L2-Pf-HR :0.98868: L2-HR :0.93291: (Sim:0h15m43s) 
CPU  0 inst:  133000002 cyc:   97061667 now IPC :1.35336: AVG IPC :1.36367: L2-Pf-HR :0.98868: L2-HR :0.93288: (Sim:0h15m50s) 
CPU  0 inst:  134000004 cyc:   97802828 now IPC :1.34924: AVG IPC :1.36356: L2-Pf-HR :0.98868: L2-HR :0.93285: (Sim:0h15m58s) 
CPU  0 inst:  135000001 cyc:   98585572 now IPC :1.27755: AVG IPC :1.36287: L2-Pf-HR :0.98869: L2-HR :0.93282: (Sim:0h16m5s) 
CPU  0 inst:  136000000 cyc:   99329371 now IPC :1.34445: AVG IPC :1.36273: L2-Pf-HR :0.98869: L2-HR :0.93279: (Sim:0h16m13s) 
CPU  0 inst:  137000001 cyc:  100073095 now IPC :1.34459: AVG IPC :1.36259: L2-Pf-HR :0.98869: L2-HR :0.93276: (Sim:0h16m21s) 
CPU  0 inst:  138000000 cyc:  100819068 now IPC :1.34053: AVG IPC :1.36243: L2-Pf-HR :0.98870: L2-HR :0.93273: (Sim:0h16m29s) 
CPU  0 inst:  139000000 cyc:  101568335 now IPC :1.33464: AVG IPC :1.36222: L2-Pf-HR :0.98870: L2-HR :0.93270: (Sim:0h16m36s) 
CPU  0 inst:  140000003 cyc:  102312921 now IPC :1.34303: AVG IPC :1.36208: L2-Pf-HR :0.98870: L2-HR :0.93267: (Sim:0h16m44s) 
CPU  0 inst:  141000004 cyc:  103122515 now IPC :1.23519: AVG IPC :1.36107: L2-Pf-HR :0.98870: L2-HR :0.93259: (Sim:0h16m53s) 
CPU  0 inst:  142000001 cyc:  103844259 now IPC :1.38553: AVG IPC :1.36125: L2-Pf-HR :0.98871: L2-HR :0.93261: (Sim:0h17m0s) 
CPU  0 inst:  143000005 cyc:  104565311 now IPC :1.38687: AVG IPC :1.36142: L2-Pf-HR :0.98871: L2-HR :0.93263: (Sim:0h17m7s) 
CPU  0 inst:  144000000 cyc:  105286004 now IPC :1.38755: AVG IPC :1.36160: L2-Pf-HR :0.98872: L2-HR :0.93265: (Sim:0h17m15s) 
CPU  0 inst:  145000002 cyc:  106006088 now IPC :1.38873: AVG IPC :1.36179: L2-Pf-HR :0.98872: L2-HR :0.93266: (Sim:0h17m22s) 
CPU  0 inst:  146000001 cyc:  106727948 now IPC :1.38531: AVG IPC :1.36195: L2-Pf-HR :0.98872: L2-HR :0.93267: (Sim:0h17m29s) 
CPU  0 inst:  147000005 cyc:  107487175 now IPC :1.31713: AVG IPC :1.36163: L2-Pf-HR :0.98873: L2-HR :0.93269: (Sim:0h17m36s) 
CPU  0 inst:  148000003 cyc:  108208752 now IPC :1.38585: AVG IPC :1.36179: L2-Pf-HR :0.98873: L2-HR :0.93270: (Sim:0h17m44s) 
CPU  0 inst:  149000003 cyc:  108929172 now IPC :1.38808: AVG IPC :1.36197: L2-Pf-HR :0.98874: L2-HR :0.93271: (Sim:0h17m51s) 
CPU  0 inst:  150000003 cyc:  109650349 now IPC :1.38662: AVG IPC :1.36213: L2-Pf-HR :0.98874: L2-HR :0.93273: (Sim:0h17m58s) 
CPU  0 inst:  151000003 cyc:  110372434 now IPC :1.38488: AVG IPC :1.36228: L2-Pf-HR :0.98874: L2-HR :0.93274: (Sim:0h18m5s) 
CPU  0 inst:  152000000 cyc:  111089757 now IPC :1.39407: AVG IPC :1.36249: L2-Pf-HR :0.98874: L2-HR :0.93275: (Sim:0h18m13s) 
CPU  0 inst:  153000001 cyc:  111891979 now IPC :1.24654: AVG IPC :1.36165: L2-Pf-HR :0.98874: L2-HR :0.93269: (Sim:0h18m20s) 
CPU  0 inst:  154000001 cyc:  112618536 now IPC :1.37635: AVG IPC :1.36175: L2-Pf-HR :0.98875: L2-HR :0.93270: (Sim:0h18m28s) 
CPU  0 inst:  155000001 cyc:  113346994 now IPC :1.37276: AVG IPC :1.36182: L2-Pf-HR :0.98875: L2-HR :0.93272: (Sim:0h18m35s) 
CPU  0 inst:  156000001 cyc:  114076389 now IPC :1.37100: AVG IPC :1.36188: L2-Pf-HR :0.98875: L2-HR :0.93273: (Sim:0h18m42s) 
CPU  0 inst:  157000001 cyc:  114805003 now IPC :1.37247: AVG IPC :1.36195: L2-Pf-HR :0.98875: L2-HR :0.93274: (Sim:0h18m50s) 
CPU  0 inst:  158000001 cyc:  115536128 now IPC :1.36776: AVG IPC :1.36198: L2-Pf-HR :0.98875: L2-HR :0.93275: (Sim:0h18m58s) 
CPU  0 inst:  159000004 cyc:  116301635 now IPC :1.30633: AVG IPC :1.36161: L2-Pf-HR :0.98876: L2-HR :0.93277: (Sim:0h19m7s) 
CPU  0 inst:  160000000 cyc:  117029746 now IPC :1.37341: AVG IPC :1.36169: L2-Pf-HR :0.98876: L2-HR :0.93278: (Sim:0h19m14s) 
CPU  0 inst:  161000005 cyc:  117756232 now IPC :1.37650: AVG IPC :1.36178: L2-Pf-HR :0.98877: L2-HR :0.93279: (Sim:0h19m21s) 
CPU  0 inst:  162000005 cyc:  118484625 now IPC :1.37289: AVG IPC :1.36185: L2-Pf-HR :0.98877: L2-HR :0.93280: (Sim:0h19m29s) 
CPU  0 inst:  163000005 cyc:  119213440 now IPC :1.37209: AVG IPC :1.36191: L2-Pf-HR :0.98878: L2-HR :0.93281: (Sim:0h19m36s) 
CPU  0 inst:  164000002 cyc:  119937801 now IPC :1.38052: AVG IPC :1.36203: L2-Pf-HR :0.98877: L2-HR :0.93282: (Sim:0h19m44s) 
CPU  0 inst:  165000000 cyc:  120736193 now IPC :1.25252: AVG IPC :1.36129: L2-Pf-HR :0.98878: L2-HR :0.93276: (Sim:0h19m52s) 
CPU  0 inst:  166000000 cyc:  121461348 now IPC :1.37902: AVG IPC :1.36140: L2-Pf-HR :0.98878: L2-HR :0.93277: (Sim:0h19m59s) 
CPU  0 inst:  167000000 cyc:  122186302 now IPC :1.37940: AVG IPC :1.36151: L2-Pf-HR :0.98878: L2-HR :0.93278: (Sim:0h20m6s) 
CPU  0 inst:  168000000 cyc:  122913461 now IPC :1.37522: AVG IPC :1.36159: L2-Pf-HR :0.98878: L2-HR :0.93279: (Sim:0h20m14s) 
CPU  0 inst:  169000003 cyc:  123640328 now IPC :1.37577: AVG IPC :1.36168: L2-Pf-HR :0.98878: L2-HR :0.93280: (Sim:0h20m21s) 
CPU  0 inst:  170000004 cyc:  124366763 now IPC :1.37659: AVG IPC :1.36176: L2-Pf-HR :0.98878: L2-HR :0.93281: (Sim:0h20m28s) 
CPU  0 inst:  171000004 cyc:  125132486 now IPC :1.30596: AVG IPC :1.36142: L2-Pf-HR :0.98879: L2-HR :0.93283: (Sim:0h20m36s) 
CPU  0 inst:  172000004 cyc:  125860741 now IPC :1.37315: AVG IPC :1.36149: L2-Pf-HR :0.98879: L2-HR :0.93283: (Sim:0h20m43s) 
CPU  0 inst:  173000004 cyc:  126589582 now IPC :1.37204: AVG IPC :1.36155: L2-Pf-HR :0.98880: L2-HR :0.93285: (Sim:0h20m54s) 
CPU  0 inst:  174000004 cyc:  127318834 now IPC :1.37127: AVG IPC :1.36160: L2-Pf-HR :0.98880: L2-HR :0.93285: (Sim:0h21m8s) 
CPU  0 inst:  175000000 cyc:  128044669 now IPC :1.37772: AVG IPC :1.36170: L2-Pf-HR :0.98880: L2-HR :0.93286: (Sim:0h21m23s) 
CPU  0 inst:  176000000 cyc:  128773327 now IPC :1.37239: AVG IPC :1.36176: L2-Pf-HR :0.98880: L2-HR :0.93287: (Sim:0h21m38s) 
CPU  0 inst:  177000002 cyc:  129577833 now IPC :1.24300: AVG IPC :1.36101: L2-Pf-HR :0.98880: L2-HR :0.93282: (Sim:0h21m54s) 
CPU  0 inst:  178000002 cyc:  130304426 now IPC :1.37629: AVG IPC :1.36110: L2-Pf-HR :0.98881: L2-HR :0.93283: (Sim:0h22m8s) 
CPU  0 inst:  179000002 cyc:  131031722 now IPC :1.37496: AVG IPC :1.36118: L2-Pf-HR :0.98881: L2-HR :0.93284: (Sim:0h22m23s) 
CPU  0 inst:  180000001 cyc:  131760556 now IPC :1.37205: AVG IPC :1.36124: L2-Pf-HR :0.98881: L2-HR :0.93285: (Sim:0h22m38s) 
CPU  0 inst:  181000002 cyc:  132486252 now IPC :1.37799: AVG IPC :1.36133: L2-Pf-HR :0.98881: L2-HR :0.93286: (Sim:0h22m53s) 
CPU  0 inst:  182000000 cyc:  133213832 now IPC :1.37442: AVG IPC :1.36140: L2-Pf-HR :0.98881: L2-HR :0.93287: (Sim:0h23m8s) 
CPU  0 inst:  183000000 cyc:  133977945 now IPC :1.30871: AVG IPC :1.36110: L2-Pf-HR :0.98882: L2-HR :0.93288: (Sim:0h23m22s) 
CPU  0 inst:  184000000 cyc:  134704535 now IPC :1.37629: AVG IPC :1.36118: L2-Pf-HR :0.98882: L2-HR :0.93289: (Sim:0h23m37s) 
CPU  0 inst:  185000000 cyc:  135432525 now IPC :1.37365: AVG IPC :1.36125: L2-Pf-HR :0.98882: L2-HR :0.93289: (Sim:0h23m52s) 
CPU  0 inst:  186000002 cyc:  136159780 now IPC :1.37504: AVG IPC :1.36132: L2-Pf-HR :0.98882: L2-HR :0.93290: (Sim:0h24m7s) 
CPU  0 inst:  187000004 cyc:  136886153 now IPC :1.37671: AVG IPC :1.36141: L2-Pf-HR :0.98883: L2-HR :0.93291: (Sim:0h24m21s) 
CPU  0 inst:  188000004 cyc:  137611926 now IPC :1.37784: AVG IPC :1.36149: L2-Pf-HR :0.98883: L2-HR :0.93292: (Sim:0h24m36s) 
CPU  0 inst:  189000000 cyc:  138370476 now IPC :1.31830: AVG IPC :1.36126: L2-Pf-HR :0.98878: L2-HR :0.93280: (Sim:0h24m51s) 
CPU  0 inst:  190000005 cyc:  139098540 now IPC :1.37351: AVG IPC :1.36132: L2-Pf-HR :0.98867: L2-HR :0.93255: (Sim:0h25m5s) 
CPU  0 inst:  191000002 cyc:  139827291 now IPC :1.37221: AVG IPC :1.36138: L2-Pf-HR :0.98856: L2-HR :0.93232: (Sim:0h25m19s) 
CPU  0 inst:  192000000 cyc:  140542256 now IPC :1.39867: AVG IPC :1.36157: L2-Pf-HR :0.98845: L2-HR :0.93208: (Sim:0h25m33s) 
CPU  0 inst:  193000002 cyc:  141357327 now IPC :1.22689: AVG IPC :1.36079: L2-Pf-HR :0.98836: L2-HR :0.93182: (Sim:0h25m48s) 
CPU  0 inst:  194000005 cyc:  142080003 now IPC :1.38375: AVG IPC :1.36090: L2-Pf-HR :0.98837: L2-HR :0.93179: (Sim:0h26m3s) 
CPU  0 inst:  195000000 cyc:  142804109 now IPC :1.38101: AVG IPC :1.36101: L2-Pf-HR :0.98837: L2-HR :0.93176: (Sim:0h26m18s) 
CPU  0 inst:  196000005 cyc:  143528310 now IPC :1.38084: AVG IPC :1.36111: L2-Pf-HR :0.98838: L2-HR :0.93173: (Sim:0h26m33s) 
CPU  0 inst:  197000005 cyc:  144251262 now IPC :1.38322: AVG IPC :1.36122: L2-Pf-HR :0.98838: L2-HR :0.93170: (Sim:0h26m47s) 
CPU  0 inst:  198000004 cyc:  144979748 now IPC :1.37271: AVG IPC :1.36128: L2-Pf-HR :0.98838: L2-HR :0.93167: (Sim:0h27m2s) 
CPU  0 inst:  199000004 cyc:  145754711 now IPC :1.29038: AVG IPC :1.36090: L2-Pf-HR :0.98839: L2-HR :0.93164: (Sim:0h27m17s) 
CPU  0 inst:  200000000 cyc:  146499427 now IPC :1.34279: AVG IPC :1.36080: L2-Pf-HR :0.98839: L2-HR :0.93161: (Sim:0h27m32s) 
CPU  0 inst:  201000001 cyc:  147243457 now IPC :1.34403: AVG IPC :1.36072: L2-Pf-HR :0.98839: L2-HR :0.93158: (Sim:0h27m43s) 
CPU  0 inst:  202000000 cyc:  147991819 now IPC :1.33625: AVG IPC :1.36059: L2-Pf-HR :0.98839: L2-HR :0.93155: (Sim:0h27m55s) 
CPU  0 inst:  203000000 cyc:  148743895 now IPC :1.32965: AVG IPC :1.36044: L2-Pf-HR :0.98839: L2-HR :0.93152: (Sim:0h28m6s) 
CPU  0 inst:  204000003 cyc:  149496101 now IPC :1.32943: AVG IPC :1.36028: L2-Pf-HR :0.98839: L2-HR :0.93149: (Sim:0h28m21s) 
CPU  0 inst:  205000000 cyc:  150311857 now IPC :1.22585: AVG IPC :1.35955: L2-Pf-HR :0.98839: L2-HR :0.93142: (Sim:0h28m37s) 
CPU  0 inst:  206000000 cyc:  151041362 now IPC :1.37079: AVG IPC :1.35960: L2-Pf-HR :0.98840: L2-HR :0.93142: (Sim:0h28m51s) 
CPU  0 inst:  207000000 cyc:  151768868 now IPC :1.37456: AVG IPC :1.35967: L2-Pf-HR :0.98840: L2-HR :0.93143: (Sim:0h29m3s) 
CPU  0 inst:  208000000 cyc:  152497612 now IPC :1.37222: AVG IPC :1.35973: L2-Pf-HR :0.98840: L2-HR :0.93143: (Sim:0h29m16s) 
CPU  0 inst:  209000000 cyc:  153227066 now IPC :1.37089: AVG IPC :1.35979: L2-Pf-HR :0.98840: L2-HR :0.93143: (Sim:0h29m31s) 
CPU  0 inst:  210000000 cyc:  153953174 now IPC :1.37721: AVG IPC :1.35987: L2-Pf-HR :0.98840: L2-HR :0.93144: (Sim:0h29m41s) 
CPU  0 inst:  211000003 cyc:  154713486 now IPC :1.31525: AVG IPC :1.35965: L2-Pf-HR :0.98841: L2-HR :0.93144: (Sim:0h29m48s) 
CPU  0 inst:  212000004 cyc:  155424985 now IPC :1.40548: AVG IPC :1.35986: L2-Pf-HR :0.98841: L2-HR :0.93145: (Sim:0h29m56s) 
CPU  0 inst:  213000004 cyc:  156137016 now IPC :1.40443: AVG IPC :1.36006: L2-Pf-HR :0.98841: L2-HR :0.93145: (Sim:0h30m4s) 
CPU  0 inst:  214000003 cyc:  156850512 now IPC :1.40155: AVG IPC :1.36025: L2-Pf-HR :0.98841: L2-HR :0.93145: (Sim:0h30m13s) 
CPU  0 inst:  215000000 cyc:  157562427 now IPC :1.40466: AVG IPC :1.36046: L2-Pf-HR :0.98842: L2-HR :0.93145: (Sim:0h30m27s) 
CPU  0 inst:  216000000 cyc:  158275035 now IPC :1.40330: AVG IPC :1.36065: L2-Pf-HR :0.98842: L2-HR :0.93145: (Sim:0h30m42s) 
CPU  0 inst:  217000002 cyc:  159066371 now IPC :1.26369: AVG IPC :1.36016: L2-Pf-HR :0.98842: L2-HR :0.93140: (Sim:0h30m58s) 
CPU  0 inst:  218000002 cyc:  159778505 now IPC :1.40423: AVG IPC :1.36036: L2-Pf-HR :0.98842: L2-HR :0.93140: (Sim:0h31m12s) 
CPU  0 inst:  219000000 cyc:  160492906 now IPC :1.39977: AVG IPC :1.36054: L2-Pf-HR :0.98842: L2-HR :0.93141: (Sim:0h31m27s) 
CPU  0 inst:  220000001 cyc:  161208735 now IPC :1.39698: AVG IPC :1.36070: L2-Pf-HR :0.98842: L2-HR :0.93141: (Sim:0h31m41s) 
CPU  0 inst:  221000000 cyc:  161924794 now IPC :1.39653: AVG IPC :1.36086: L2-Pf-HR :0.98842: L2-HR :0.93141: (Sim:0h31m56s) 
CPU  0 inst:  222000000 cyc:  162637926 now IPC :1.40226: AVG IPC :1.36104: L2-Pf-HR :0.98843: L2-HR :0.93141: (Sim:0h32m10s) 
CPU  0 inst:  223000000 cyc:  163396825 now IPC :1.31770: AVG IPC :1.36084: L2-Pf-HR :0.98843: L2-HR :0.93141: (Sim:0h32m25s) 
CPU  0 inst:  224000000 cyc:  164122102 now IPC :1.37878: AVG IPC :1.36092: L2-Pf-HR :0.98844: L2-HR :0.93141: (Sim:0h32m40s) 
CPU  0 inst:  225000005 cyc:  164847406 now IPC :1.37874: AVG IPC :1.36100: L2-Pf-HR :0.98844: L2-HR :0.93141: (Sim:0h32m55s) 
CPU  0 inst:  226000000 cyc:  165573997 now IPC :1.37628: AVG IPC :1.36107: L2-Pf-HR :0.98844: L2-HR :0.93142: (Sim:0h33m10s) 
CPU  0 inst:  227000004 cyc:  166299311 now IPC :1.37872: AVG IPC :1.36114: L2-Pf-HR :0.98844: L2-HR :0.93142: (Sim:0h33m25s) 
CPU  0 inst:  228000004 cyc:  167026913 now IPC :1.37438: AVG IPC :1.36120: L2-Pf-HR :0.98845: L2-HR :0.93142: (Sim:0h33m40s) 
CPU  0 inst:  229000001 cyc:  167823707 now IPC :1.25503: AVG IPC :1.36070: L2-Pf-HR :0.98845: L2-HR :0.93137: (Sim:0h33m54s) 
CPU  0 inst:  230000001 cyc:  168541432 now IPC :1.39329: AVG IPC :1.36084: L2-Pf-HR :0.98845: L2-HR :0.93137: (Sim:0h34m2s) 
CPU  0 inst:  231000003 cyc:  169259726 now IPC :1.39219: AVG IPC :1.36097: L2-Pf-HR :0.98845: L2-HR :0.93137: (Sim:0h34m14s) 
CPU  0 inst:  232000000 cyc:  169976035 now IPC :1.39604: AVG IPC :1.36112: L2-Pf-HR :0.98845: L2-HR :0.93137: (Sim:0h34m29s) 
CPU  0 inst:  233000005 cyc:  170695069 now IPC :1.39076: AVG IPC :1.36124: L2-Pf-HR :0.98845: L2-HR :0.93137: (Sim:0h34m44s) 
CPU  0 inst:  234000005 cyc:  171411421 now IPC :1.39596: AVG IPC :1.36139: L2-Pf-HR :0.98845: L2-HR :0.93138: (Sim:0h34m59s) 
CPU  0 inst:  235000005 cyc:  172171630 now IPC :1.31543: AVG IPC :1.36119: L2-Pf-HR :0.98846: L2-HR :0.93138: (Sim:0h35m14s) 
CPU  0 inst:  236000001 cyc:  172892867 now IPC :1.38650: AVG IPC :1.36129: L2-Pf-HR :0.98846: L2-HR :0.93138: (Sim:0h35m29s) 
CPU  0 inst:  237000004 cyc:  173614767 now IPC :1.38524: AVG IPC :1.36139: L2-Pf-HR :0.98846: L2-HR :0.93138: (Sim:0h35m44s) 
CPU  0 inst:  238000002 cyc:  174339778 now IPC :1.37929: AVG IPC :1.36147: L2-Pf-HR :0.98846: L2-HR :0.93138: (Sim:0h35m59s) 
CPU  0 inst:  239000003 cyc:  175061241 now IPC :1.38607: AVG IPC :1.36157: L2-Pf-HR :0.98847: L2-HR :0.93138: (Sim:0h36m14s) 
CPU  0 inst:  240000000 cyc:  175784570 now IPC :1.38249: AVG IPC :1.36165: L2-Pf-HR :0.98847: L2-HR :0.93138: (Sim:0h36m29s) 
CPU  0 inst:  241000003 cyc:  176584309 now IPC :1.25041: AVG IPC :1.36115: L2-Pf-HR :0.98847: L2-HR :0.93133: (Sim:0h36m45s) 
CPU  0 inst:  242000000 cyc:  177306819 now IPC :1.38406: AVG IPC :1.36124: L2-Pf-HR :0.98847: L2-HR :0.93133: (Sim:0h37m0s) 
CPU  0 inst:  243000003 cyc:  178028484 now IPC :1.38569: AVG IPC :1.36134: L2-Pf-HR :0.98847: L2-HR :0.93133: (Sim:0h37m15s) 
CPU  0 inst:  244000001 cyc:  178747435 now IPC :1.39091: AVG IPC :1.36146: L2-Pf-HR :0.98848: L2-HR :0.93134: (Sim:0h37m30s) 
CPU  0 inst:  245000001 cyc:  179468005 now IPC :1.38779: AVG IPC :1.36157: L2-Pf-HR :0.98848: L2-HR :0.93134: (Sim:0h37m45s) 
CPU  0 inst:  246000001 cyc:  180187200 now IPC :1.39044: AVG IPC :1.36168: L2-Pf-HR :0.98848: L2-HR :0.93134: (Sim:0h38m0s) 
CPU  0 inst:  247000004 cyc:  180949071 now IPC :1.31256: AVG IPC :1.36148: L2-Pf-HR :0.98849: L2-HR :0.93134: (Sim:0h38m15s) 
xz: 770-tot_memTraces_v5/120-subBillion_s2048_LLM_Arch/memTraces[1979000000]_FE_[GPT-Neo-125M]_[h12]_[s2048]_[d64].champsim.9.xz: Unexpected end of input
*** Reached end of trace for Core: 0 Repeating trace: 770-tot_memTraces_v5/120-subBillion_s2048_LLM_Arch/memTraces[1979000000]_FE_[GPT-Neo-125M]_[h12]_[s2048]_[d64].champsim.9.xz
CPU  0 inst:  248000000 cyc:  182015899 now IPC :0.93735: AVG IPC :1.35898: L2-Pf-HR :0.98844: L2-HR :0.93117: (Sim:0h38m31s) 
CPU  0 inst:  249000003 cyc:  182756000 now IPC :1.35117: AVG IPC :1.35894: L2-Pf-HR :0.98844: L2-HR :0.93114: (Sim:0h38m46s) 
CPU  0 inst:  250000001 cyc:  183495816 now IPC :1.35168: AVG IPC :1.35891: L2-Pf-HR :0.98843: L2-HR :0.93112: (Sim:0h39m1s) 
CPU  0 inst:  251000005 cyc:  184235074 now IPC :1.35271: AVG IPC :1.35889: L2-Pf-HR :0.98843: L2-HR :0.93110: (Sim:0h39m16s) 
CPU  0 inst:  252000000 cyc:  184976623 now IPC :1.34852: AVG IPC :1.35885: L2-Pf-HR :0.98842: L2-HR :0.93108: (Sim:0h39m31s) 
CPU  0 inst:  253000004 cyc:  185715723 now IPC :1.35300: AVG IPC :1.35882: L2-Pf-HR :0.98842: L2-HR :0.93106: (Sim:0h39m46s) 
CPU  0 inst:  254000004 cyc:  186494223 now IPC :1.28452: AVG IPC :1.35851: L2-Pf-HR :0.98841: L2-HR :0.93104: (Sim:0h40m1s) 
CPU  0 inst:  255000003 cyc:  187226913 now IPC :1.36483: AVG IPC :1.35854: L2-Pf-HR :0.98841: L2-HR :0.93102: (Sim:0h40m14s) 
CPU  0 inst:  256000000 cyc:  187967424 now IPC :1.35041: AVG IPC :1.35851: L2-Pf-HR :0.98840: L2-HR :0.93100: (Sim:0h40m23s) 
CPU  0 inst:  257000002 cyc:  188707343 now IPC :1.35150: AVG IPC :1.35848: L2-Pf-HR :0.98839: L2-HR :0.93097: (Sim:0h40m31s) 
CPU  0 inst:  258000003 cyc:  189446485 now IPC :1.35292: AVG IPC :1.35846: L2-Pf-HR :0.98839: L2-HR :0.93095: (Sim:0h40m40s) 
CPU  0 inst:  259000004 cyc:  190183834 now IPC :1.35621: AVG IPC :1.35845: L2-Pf-HR :0.98838: L2-HR :0.93093: (Sim:0h40m48s) 
CPU  0 inst:  260000005 cyc:  190931341 now IPC :1.33778: AVG IPC :1.35837: L2-Pf-HR :0.98837: L2-HR :0.93091: (Sim:0h40m58s) 
CPU  0 inst:  261000001 cyc:  191730293 now IPC :1.25163: AVG IPC :1.35792: L2-Pf-HR :0.98835: L2-HR :0.93087: (Sim:0h41m13s) 
CPU  0 inst:  262000005 cyc:  192455670 now IPC :1.37860: AVG IPC :1.35800: L2-Pf-HR :0.98835: L2-HR :0.93088: (Sim:0h41m28s) 
CPU  0 inst:  263000005 cyc:  193184838 now IPC :1.37143: AVG IPC :1.35805: L2-Pf-HR :0.98836: L2-HR :0.93088: (Sim:0h41m43s) 
CPU  0 inst:  264000000 cyc:  193911684 now IPC :1.37580: AVG IPC :1.35812: L2-Pf-HR :0.98836: L2-HR :0.93088: (Sim:0h41m53s) 
CPU  0 inst:  265000005 cyc:  194640423 now IPC :1.37224: AVG IPC :1.35817: L2-Pf-HR :0.98836: L2-HR :0.93089: (Sim:0h42m6s) 
CPU  0 inst:  266000005 cyc:  195397399 now IPC :1.32105: AVG IPC :1.35802: L2-Pf-HR :0.98837: L2-HR :0.93089: (Sim:0h42m18s) 
CPU  0 inst:  267000001 cyc:  196131705 now IPC :1.36182: AVG IPC :1.35804: L2-Pf-HR :0.98837: L2-HR :0.93089: (Sim:0h42m33s) 
CPU  0 inst:  268000003 cyc:  196858230 now IPC :1.37642: AVG IPC :1.35811: L2-Pf-HR :0.98837: L2-HR :0.93089: (Sim:0h42m43s) 
CPU  0 inst:  269000003 cyc:  197583164 now IPC :1.37944: AVG IPC :1.35818: L2-Pf-HR :0.98837: L2-HR :0.93090: (Sim:0h42m56s) 
CPU  0 inst:  270000000 cyc:  198309043 now IPC :1.37764: AVG IPC :1.35826: L2-Pf-HR :0.98838: L2-HR :0.93090: (Sim:0h43m11s) 
CPU  0 inst:  271000002 cyc:  199034114 now IPC :1.37918: AVG IPC :1.35833: L2-Pf-HR :0.98838: L2-HR :0.93090: (Sim:0h43m26s) 
CPU  0 inst:  272000000 cyc:  199773763 now IPC :1.35199: AVG IPC :1.35831: L2-Pf-HR :0.98837: L2-HR :0.93088: (Sim:0h43m43s) 
CPU  0 inst:  273000004 cyc:  200553143 now IPC :1.28308: AVG IPC :1.35802: L2-Pf-HR :0.98836: L2-HR :0.93086: (Sim:0h43m52s) 
CPU  0 inst:  274000004 cyc:  201271973 now IPC :1.39115: AVG IPC :1.35813: L2-Pf-HR :0.98836: L2-HR :0.93087: (Sim:0h44m3s) 
CPU  0 inst:  275000004 cyc:  201993715 now IPC :1.38554: AVG IPC :1.35823: L2-Pf-HR :0.98837: L2-HR :0.93087: (Sim:0h44m18s) 
CPU  0 inst:  276000003 cyc:  202714233 now IPC :1.38789: AVG IPC :1.35834: L2-Pf-HR :0.98837: L2-HR :0.93087: (Sim:0h44m31s) 
CPU  0 inst:  277000001 cyc:  203435063 now IPC :1.38729: AVG IPC :1.35844: L2-Pf-HR :0.98837: L2-HR :0.93087: (Sim:0h44m46s) 
CPU  0 inst:  278000001 cyc:  204187437 now IPC :1.32913: AVG IPC :1.35833: L2-Pf-HR :0.98838: L2-HR :0.93087: (Sim:0h45m2s) 
CPU  0 inst:  279000002 cyc:  204903951 now IPC :1.39565: AVG IPC :1.35846: L2-Pf-HR :0.98838: L2-HR :0.93088: (Sim:0h45m17s) 
CPU  0 inst:  280000000 cyc:  205613864 now IPC :1.40862: AVG IPC :1.35864: L2-Pf-HR :0.98838: L2-HR :0.93088: (Sim:0h45m32s) 
CPU  0 inst:  281000002 cyc:  206323607 now IPC :1.40896: AVG IPC :1.35881: L2-Pf-HR :0.98838: L2-HR :0.93088: (Sim:0h45m48s) 
CPU  0 inst:  282000005 cyc:  207034079 now IPC :1.40752: AVG IPC :1.35898: L2-Pf-HR :0.98839: L2-HR :0.93089: (Sim:0h46m1s) 
CPU  0 inst:  283000005 cyc:  207742753 now IPC :1.41109: AVG IPC :1.35916: L2-Pf-HR :0.98839: L2-HR :0.93089: (Sim:0h46m13s) 
CPU  0 inst:  284000001 cyc:  208486985 now IPC :1.34366: AVG IPC :1.35910: L2-Pf-HR :0.98837: L2-HR :0.93085: (Sim:0h46m28s) 
CPU  0 inst:  285000000 cyc:  209260017 now IPC :1.29361: AVG IPC :1.35886: L2-Pf-HR :0.98837: L2-HR :0.93085: (Sim:0h46m43s) 
CPU  0 inst:  286000000 cyc:  209985069 now IPC :1.37921: AVG IPC :1.35893: L2-Pf-HR :0.98837: L2-HR :0.93085: (Sim:0h46m59s) 
CPU  0 inst:  287000005 cyc:  210712828 now IPC :1.37409: AVG IPC :1.35898: L2-Pf-HR :0.98838: L2-HR :0.93085: (Sim:0h47m14s) 
CPU  0 inst:  288000000 cyc:  211437715 now IPC :1.37952: AVG IPC :1.35905: L2-Pf-HR :0.98838: L2-HR :0.93085: (Sim:0h47m29s) 
CPU  0 inst:  289000000 cyc:  212163356 now IPC :1.37809: AVG IPC :1.35912: L2-Pf-HR :0.98838: L2-HR :0.93085: (Sim:0h47m45s) 
CPU  0 inst:  290000000 cyc:  212926912 now IPC :1.30966: AVG IPC :1.35894: L2-Pf-HR :0.98838: L2-HR :0.93085: (Sim:0h48m0s) 
CPU  0 inst:  291000004 cyc:  213654201 now IPC :1.37497: AVG IPC :1.35900: L2-Pf-HR :0.98838: L2-HR :0.93086: (Sim:0h48m15s) 
CPU  0 inst:  292000004 cyc:  214380665 now IPC :1.37653: AVG IPC :1.35906: L2-Pf-HR :0.98838: L2-HR :0.93086: (Sim:0h48m31s) 
CPU  0 inst:  293000000 cyc:  215105422 now IPC :1.37977: AVG IPC :1.35913: L2-Pf-HR :0.98839: L2-HR :0.93086: (Sim:0h48m44s) 
CPU  0 inst:  294000004 cyc:  215832284 now IPC :1.37578: AVG IPC :1.35918: L2-Pf-HR :0.98839: L2-HR :0.93086: (Sim:0h48m58s) 
CPU  0 inst:  295000004 cyc:  216558581 now IPC :1.37685: AVG IPC :1.35924: L2-Pf-HR :0.98840: L2-HR :0.93087: (Sim:0h49m13s) 
CPU  0 inst:  296000000 cyc:  217317179 now IPC :1.31822: AVG IPC :1.35910: L2-Pf-HR :0.98838: L2-HR :0.93083: (Sim:0h49m30s) 
CPU  0 inst:  297000001 cyc:  218084543 now IPC :1.30316: AVG IPC :1.35890: L2-Pf-HR :0.98838: L2-HR :0.93083: (Sim:0h49m45s) 
CPU  0 inst:  298000001 cyc:  218812178 now IPC :1.37432: AVG IPC :1.35895: L2-Pf-HR :0.98838: L2-HR :0.93084: (Sim:0h49m59s) 
CPU  0 inst:  299000003 cyc:  219540828 now IPC :1.37240: AVG IPC :1.35900: L2-Pf-HR :0.98839: L2-HR :0.93084: (Sim:0h50m14s) 
CPU  0 inst:  300000002 cyc:  220268846 now IPC :1.37359: AVG IPC :1.35905: L2-Pf-HR :0.98839: L2-HR :0.93084: (Sim:0h50m29s) 
CPU  0 inst:  301000002 cyc:  220996824 now IPC :1.37367: AVG IPC :1.35909: L2-Pf-HR :0.98839: L2-HR :0.93084: (Sim:0h50m45s) 
CPU  0 inst:  302000003 cyc:  221763977 now IPC :1.30352: AVG IPC :1.35890: L2-Pf-HR :0.98839: L2-HR :0.93084: (Sim:0h51m0s) 
CPU  0 inst:  303000003 cyc:  222487185 now IPC :1.38273: AVG IPC :1.35898: L2-Pf-HR :0.98840: L2-HR :0.93085: (Sim:0h51m14s) 
CPU  0 inst:  304000000 cyc:  223212400 now IPC :1.37890: AVG IPC :1.35904: L2-Pf-HR :0.98840: L2-HR :0.93085: (Sim:0h51m30s) 
CPU  0 inst:  305000000 cyc:  223937442 now IPC :1.37923: AVG IPC :1.35911: L2-Pf-HR :0.98840: L2-HR :0.93086: (Sim:0h51m45s) 
CPU  0 inst:  306000000 cyc:  224664969 now IPC :1.37452: AVG IPC :1.35916: L2-Pf-HR :0.98841: L2-HR :0.93086: (Sim:0h52m1s) 
CPU  0 inst:  307000000 cyc:  225390217 now IPC :1.37884: AVG IPC :1.35922: L2-Pf-HR :0.98841: L2-HR :0.93086: (Sim:0h52m16s) 
CPU  0 inst:  308000004 cyc:  226139058 now IPC :1.33540: AVG IPC :1.35914: L2-Pf-HR :0.98840: L2-HR :0.93085: (Sim:0h52m32s) 
CPU  0 inst:  309000004 cyc:  226868253 now IPC :1.37138: AVG IPC :1.35918: L2-Pf-HR :0.98834: L2-HR :0.93070: (Sim:0h52m47s) 
CPU  0 inst:  310000004 cyc:  227598449 now IPC :1.36950: AVG IPC :1.35922: L2-Pf-HR :0.98827: L2-HR :0.93055: (Sim:0h53m2s) 
CPU  0 inst:  311000002 cyc:  228316489 now IPC :1.39268: AVG IPC :1.35932: L2-Pf-HR :0.98821: L2-HR :0.93040: (Sim:0h53m16s) 
CPU  0 inst:  312000000 cyc:  229098592 now IPC :1.27860: AVG IPC :1.35905: L2-Pf-HR :0.98812: L2-HR :0.93018: (Sim:0h53m31s) 
CPU  0 inst:  313000003 cyc:  229865408 now IPC :1.30410: AVG IPC :1.35886: L2-Pf-HR :0.98811: L2-HR :0.93015: (Sim:0h53m47s) 
CPU  0 inst:  314000003 cyc:  230599133 now IPC :1.36291: AVG IPC :1.35887: L2-Pf-HR :0.98810: L2-HR :0.93012: (Sim:0h54m2s) 
CPU  0 inst:  315000001 cyc:  231337068 now IPC :1.35513: AVG IPC :1.35886: L2-Pf-HR :0.98810: L2-HR :0.93010: (Sim:0h54m17s) 
CPU  0 inst:  316000000 cyc:  232073671 now IPC :1.35758: AVG IPC :1.35886: L2-Pf-HR :0.98809: L2-HR :0.93007: (Sim:0h54m33s) 
CPU  0 inst:  317000004 cyc:  232810207 now IPC :1.35771: AVG IPC :1.35885: L2-Pf-HR :0.98809: L2-HR :0.93005: (Sim:0h54m49s) 
CPU  0 inst:  318000002 cyc:  233566080 now IPC :1.32297: AVG IPC :1.35874: L2-Pf-HR :0.98808: L2-HR :0.93003: (Sim:0h55m5s) 
CPU  0 inst:  319000003 cyc:  234323695 now IPC :1.31993: AVG IPC :1.35861: L2-Pf-HR :0.98808: L2-HR :0.93000: (Sim:0h55m21s) 
CPU  0 inst:  320000000 cyc:  235065806 now IPC :1.34750: AVG IPC :1.35858: L2-Pf-HR :0.98807: L2-HR :0.92998: (Sim:0h55m37s) 
CPU  0 inst:  321000002 cyc:  235807356 now IPC :1.34853: AVG IPC :1.35854: L2-Pf-HR :0.98806: L2-HR :0.92995: (Sim:0h55m52s) 
CPU  0 inst:  322000000 cyc:  236547563 now IPC :1.35097: AVG IPC :1.35852: L2-Pf-HR :0.98806: L2-HR :0.92993: (Sim:0h56m8s) 
CPU  0 inst:  323000004 cyc:  237290404 now IPC :1.34619: AVG IPC :1.35848: L2-Pf-HR :0.98805: L2-HR :0.92990: (Sim:0h56m23s) 
CPU  0 inst:  324000005 cyc:  238038561 now IPC :1.33662: AVG IPC :1.35841: L2-Pf-HR :0.98805: L2-HR :0.92988: (Sim:0h56m39s) 
CPU  0 inst:  325000000 cyc:  238837722 now IPC :1.25131: AVG IPC :1.35805: L2-Pf-HR :0.98803: L2-HR :0.92984: (Sim:0h56m55s) 
CPU  0 inst:  326000003 cyc:  239565456 now IPC :1.37413: AVG IPC :1.35810: L2-Pf-HR :0.98803: L2-HR :0.92983: (Sim:0h57m11s) 
CPU  0 inst:  327000005 cyc:  240292923 now IPC :1.37464: AVG IPC :1.35815: L2-Pf-HR :0.98804: L2-HR :0.92983: (Sim:0h57m26s) 
CPU  0 inst:  328000000 cyc:  241020473 now IPC :1.37447: AVG IPC :1.35820: L2-Pf-HR :0.98804: L2-HR :0.92982: (Sim:0h57m41s) 
CPU  0 inst:  329000000 cyc:  241747370 now IPC :1.37571: AVG IPC :1.35825: L2-Pf-HR :0.98804: L2-HR :0.92981: (Sim:0h57m56s) 
CPU  0 inst:  330000000 cyc:  242474544 now IPC :1.37519: AVG IPC :1.35831: L2-Pf-HR :0.98804: L2-HR :0.92981: (Sim:0h58m12s) 
CPU  0 inst:  331000004 cyc:  243227861 now IPC :1.32747: AVG IPC :1.35821: L2-Pf-HR :0.98804: L2-HR :0.92980: (Sim:0h58m27s) 
CPU  0 inst:  332000003 cyc:  243940462 now IPC :1.40331: AVG IPC :1.35834: L2-Pf-HR :0.98804: L2-HR :0.92980: (Sim:0h58m42s) 
CPU  0 inst:  333000000 cyc:  244654922 now IPC :1.39965: AVG IPC :1.35846: L2-Pf-HR :0.98805: L2-HR :0.92979: (Sim:0h58m58s) 
CPU  0 inst:  334000004 cyc:  245367263 now IPC :1.40383: AVG IPC :1.35860: L2-Pf-HR :0.98805: L2-HR :0.92979: (Sim:0h59m14s) 
CPU  0 inst:  335000004 cyc:  246080878 now IPC :1.40132: AVG IPC :1.35872: L2-Pf-HR :0.98805: L2-HR :0.92978: (Sim:0h59m27s) 
CPU  0 inst:  336000000 cyc:  246797063 now IPC :1.39628: AVG IPC :1.35883: L2-Pf-HR :0.98805: L2-HR :0.92978: (Sim:0h59m43s) 
CPU  0 inst:  337000002 cyc:  247590764 now IPC :1.25992: AVG IPC :1.35851: L2-Pf-HR :0.98803: L2-HR :0.92974: (Sim:0h59m59s) 
CPU  0 inst:  338000002 cyc:  248315075 now IPC :1.38062: AVG IPC :1.35858: L2-Pf-HR :0.98804: L2-HR :0.92973: (Sim:1h0m15s) 
CPU  0 inst:  339000003 cyc:  249036376 now IPC :1.38639: AVG IPC :1.35866: L2-Pf-HR :0.98804: L2-HR :0.92973: (Sim:1h0m31s) 
CPU  0 inst:  340000002 cyc:  249759097 now IPC :1.38366: AVG IPC :1.35873: L2-Pf-HR :0.98804: L2-HR :0.92972: (Sim:1h0m46s) 
CPU  0 inst:  341000002 cyc:  250481472 now IPC :1.38432: AVG IPC :1.35880: L2-Pf-HR :0.98804: L2-HR :0.92971: (Sim:1h1m2s) 
CPU  0 inst:  342000002 cyc:  251203235 now IPC :1.38550: AVG IPC :1.35888: L2-Pf-HR :0.98805: L2-HR :0.92971: (Sim:1h1m18s) 
CPU  0 inst:  343000005 cyc:  251967779 now IPC :1.30797: AVG IPC :1.35873: L2-Pf-HR :0.98805: L2-HR :0.92970: (Sim:1h1m33s) 
CPU  0 inst:  344000000 cyc:  252691197 now IPC :1.38232: AVG IPC :1.35879: L2-Pf-HR :0.98805: L2-HR :0.92970: (Sim:1h1m48s) 
CPU  0 inst:  345000000 cyc:  253418773 now IPC :1.37443: AVG IPC :1.35884: L2-Pf-HR :0.98806: L2-HR :0.92969: (Sim:1h2m4s) 
CPU  0 inst:  346000000 cyc:  254143934 now IPC :1.37900: AVG IPC :1.35890: L2-Pf-HR :0.98806: L2-HR :0.92969: (Sim:1h2m19s) 
CPU  0 inst:  347000000 cyc:  254869337 now IPC :1.37854: AVG IPC :1.35895: L2-Pf-HR :0.98806: L2-HR :0.92968: (Sim:1h2m35s) 
CPU  0 inst:  348000000 cyc:  255597256 now IPC :1.37378: AVG IPC :1.35899: L2-Pf-HR :0.98806: L2-HR :0.92967: (Sim:1h2m50s) 
CPU  0 inst:  349000003 cyc:  256390415 now IPC :1.26078: AVG IPC :1.35869: L2-Pf-HR :0.98805: L2-HR :0.92963: (Sim:1h3m6s) 
CPU  0 inst:  350000001 cyc:  257118359 now IPC :1.37373: AVG IPC :1.35873: L2-Pf-HR :0.98805: L2-HR :0.92963: (Sim:1h3m22s) 
CPU  0 inst:  351000001 cyc:  257845929 now IPC :1.37444: AVG IPC :1.35878: L2-Pf-HR :0.98805: L2-HR :0.92963: (Sim:1h3m37s) 
CPU  0 inst:  352000000 cyc:  258572409 now IPC :1.37650: AVG IPC :1.35883: L2-Pf-HR :0.98805: L2-HR :0.92962: (Sim:1h3m53s) 
CPU  0 inst:  353000001 cyc:  259301184 now IPC :1.37217: AVG IPC :1.35886: L2-Pf-HR :0.98805: L2-HR :0.92961: (Sim:1h4m8s) 
CPU  0 inst:  354000000 cyc:  260031766 now IPC :1.36877: AVG IPC :1.35889: L2-Pf-HR :0.98806: L2-HR :0.92961: (Sim:1h4m24s) 
CPU  0 inst:  355000003 cyc:  260792333 now IPC :1.31481: AVG IPC :1.35876: L2-Pf-HR :0.98806: L2-HR :0.92961: (Sim:1h4m39s) 
CPU  0 inst:  356000005 cyc:  261515999 now IPC :1.38186: AVG IPC :1.35883: L2-Pf-HR :0.98806: L2-HR :0.92960: (Sim:1h4m54s) 
CPU  0 inst:  357000005 cyc:  262243457 now IPC :1.37465: AVG IPC :1.35887: L2-Pf-HR :0.98807: L2-HR :0.92960: (Sim:1h5m10s) 
CPU  0 inst:  358000005 cyc:  262969099 now IPC :1.37809: AVG IPC :1.35892: L2-Pf-HR :0.98807: L2-HR :0.92959: (Sim:1h5m25s) 
CPU  0 inst:  359000005 cyc:  263690972 now IPC :1.38529: AVG IPC :1.35900: L2-Pf-HR :0.98807: L2-HR :0.92959: (Sim:1h5m41s) 
CPU  0 inst:  360000000 cyc:  264419732 now IPC :1.37219: AVG IPC :1.35903: L2-Pf-HR :0.98807: L2-HR :0.92958: (Sim:1h5m56s) 
CPU  0 inst:  361000003 cyc:  265207223 now IPC :1.26986: AVG IPC :1.35877: L2-Pf-HR :0.98805: L2-HR :0.92955: (Sim:1h6m9s) 
CPU  0 inst:  362000003 cyc:  265920871 now IPC :1.40125: AVG IPC :1.35888: L2-Pf-HR :0.98806: L2-HR :0.92954: (Sim:1h6m24s) 
CPU  0 inst:  363000003 cyc:  266634431 now IPC :1.40142: AVG IPC :1.35900: L2-Pf-HR :0.98806: L2-HR :0.92954: (Sim:1h6m40s) 
CPU  0 inst:  364000003 cyc:  267348672 now IPC :1.40009: AVG IPC :1.35911: L2-Pf-HR :0.98806: L2-HR :0.92953: (Sim:1h6m55s) 
CPU  0 inst:  365000004 cyc:  268063792 now IPC :1.39837: AVG IPC :1.35921: L2-Pf-HR :0.98806: L2-HR :0.92953: (Sim:1h7m11s) 
CPU  0 inst:  366000000 cyc:  268783738 now IPC :1.38899: AVG IPC :1.35929: L2-Pf-HR :0.98807: L2-HR :0.92953: (Sim:1h7m26s) 
CPU  0 inst:  367000001 cyc:  269537576 now IPC :1.32655: AVG IPC :1.35920: L2-Pf-HR :0.98807: L2-HR :0.92953: (Sim:1h7m41s) 
CPU  0 inst:  368000000 cyc:  270259036 now IPC :1.38608: AVG IPC :1.35927: L2-Pf-HR :0.98807: L2-HR :0.92953: (Sim:1h7m57s) 
CPU  0 inst:  369000001 cyc:  270984169 now IPC :1.37906: AVG IPC :1.35933: L2-Pf-HR :0.98808: L2-HR :0.92952: (Sim:1h8m12s) 
CPU  0 inst:  370000001 cyc:  271707935 now IPC :1.38166: AVG IPC :1.35938: L2-Pf-HR :0.98808: L2-HR :0.92952: (Sim:1h8m27s) 
CPU  0 inst:  371000000 cyc:  272429280 now IPC :1.38630: AVG IPC :1.35946: L2-Pf-HR :0.98808: L2-HR :0.92952: (Sim:1h8m42s) 
CPU  0 inst:  372000000 cyc:  273149929 now IPC :1.38764: AVG IPC :1.35953: L2-Pf-HR :0.98809: L2-HR :0.92952: (Sim:1h8m57s) 
CPU  0 inst:  373000000 cyc:  273900780 now IPC :1.33182: AVG IPC :1.35945: L2-Pf-HR :0.98804: L2-HR :0.92940: (Sim:1h9m12s) 
CPU  0 inst:  374000005 cyc:  274621571 now IPC :1.38737: AVG IPC :1.35953: L2-Pf-HR :0.98798: L2-HR :0.92927: (Sim:1h9m26s) 
CPU  0 inst:  375000004 cyc:  275347329 now IPC :1.37787: AVG IPC :1.35958: L2-Pf-HR :0.98793: L2-HR :0.92914: (Sim:1h9m41s) 
CPU  0 inst:  376000000 cyc:  276056747 now IPC :1.40960: AVG IPC :1.35971: L2-Pf-HR :0.98788: L2-HR :0.92902: (Sim:1h9m55s) 
CPU  0 inst:  377000003 cyc:  276884230 now IPC :1.20849: AVG IPC :1.35925: L2-Pf-HR :0.98784: L2-HR :0.92892: (Sim:1h10m11s) 
CPU  0 inst:  378000001 cyc:  277621043 now IPC :1.35719: AVG IPC :1.35925: L2-Pf-HR :0.98784: L2-HR :0.92890: (Sim:1h10m27s) 
CPU  0 inst:  379000005 cyc:  278356306 now IPC :1.36006: AVG IPC :1.35925: L2-Pf-HR :0.98784: L2-HR :0.92887: (Sim:1h10m42s) 
CPU  0 inst:  380000000 cyc:  279089243 now IPC :1.36437: AVG IPC :1.35926: L2-Pf-HR :0.98783: L2-HR :0.92885: (Sim:1h10m58s) 
CPU  0 inst:  381000004 cyc:  279825483 now IPC :1.35826: AVG IPC :1.35926: L2-Pf-HR :0.98783: L2-HR :0.92883: (Sim:1h11m13s) 
CPU  0 inst:  382000002 cyc:  280564177 now IPC :1.35374: AVG IPC :1.35925: L2-Pf-HR :0.98782: L2-HR :0.92881: (Sim:1h11m28s) 
CPU  0 inst:  383000003 cyc:  281343996 now IPC :1.28235: AVG IPC :1.35903: L2-Pf-HR :0.98782: L2-HR :0.92878: (Sim:1h11m44s) 
CPU  0 inst:  384000000 cyc:  282085227 now IPC :1.34910: AVG IPC :1.35901: L2-Pf-HR :0.98781: L2-HR :0.92876: (Sim:1h11m59s) 
CPU  0 inst:  385000002 cyc:  282828789 now IPC :1.34488: AVG IPC :1.35897: L2-Pf-HR :0.98781: L2-HR :0.92874: (Sim:1h12m15s) 
CPU  0 inst:  386000000 cyc:  283574197 now IPC :1.34154: AVG IPC :1.35892: L2-Pf-HR :0.98781: L2-HR :0.92871: (Sim:1h12m30s) 
CPU  0 inst:  387000000 cyc:  284320834 now IPC :1.33934: AVG IPC :1.35887: L2-Pf-HR :0.98780: L2-HR :0.92869: (Sim:1h12m46s) 
CPU  0 inst:  388000005 cyc:  285064542 now IPC :1.34462: AVG IPC :1.35883: L2-Pf-HR :0.98780: L2-HR :0.92867: (Sim:1h13m1s) 
CPU  0 inst:  389000001 cyc:  285861302 now IPC :1.25508: AVG IPC :1.35854: L2-Pf-HR :0.98778: L2-HR :0.92863: (Sim:1h13m17s) 
CPU  0 inst:  390000001 cyc:  286583520 now IPC :1.38462: AVG IPC :1.35861: L2-Pf-HR :0.98778: L2-HR :0.92863: (Sim:1h13m32s) 
CPU  0 inst:  391000001 cyc:  287307666 now IPC :1.38094: AVG IPC :1.35867: L2-Pf-HR :0.98779: L2-HR :0.92862: (Sim:1h13m48s) 
CPU  0 inst:  392000000 cyc:  288028447 now IPC :1.38738: AVG IPC :1.35874: L2-Pf-HR :0.98779: L2-HR :0.92862: (Sim:1h14m3s) 
CPU  0 inst:  393000001 cyc:  288750986 now IPC :1.38401: AVG IPC :1.35880: L2-Pf-HR :0.98779: L2-HR :0.92861: (Sim:1h14m18s) 
CPU  0 inst:  394000005 cyc:  289474138 now IPC :1.38284: AVG IPC :1.35886: L2-Pf-HR :0.98780: L2-HR :0.92861: (Sim:1h14m33s) 
CPU  0 inst:  395000005 cyc:  290232958 now IPC :1.31784: AVG IPC :1.35875: L2-Pf-HR :0.98780: L2-HR :0.92860: (Sim:1h14m48s) 
CPU  0 inst:  396000005 cyc:  290956211 now IPC :1.38264: AVG IPC :1.35881: L2-Pf-HR :0.98780: L2-HR :0.92860: (Sim:1h15m3s) 
CPU  0 inst:  397000005 cyc:  291678203 now IPC :1.38506: AVG IPC :1.35888: L2-Pf-HR :0.98781: L2-HR :0.92859: (Sim:1h15m18s) 
CPU  0 inst:  398000005 cyc:  292399038 now IPC :1.38728: AVG IPC :1.35895: L2-Pf-HR :0.98781: L2-HR :0.92859: (Sim:1h15m32s) 
CPU  0 inst:  399000001 cyc:  293121128 now IPC :1.38486: AVG IPC :1.35901: L2-Pf-HR :0.98781: L2-HR :0.92858: (Sim:1h15m47s) 
CPU  0 inst:  400000000 cyc:  293839413 now IPC :1.39220: AVG IPC :1.35909: L2-Pf-HR :0.98781: L2-HR :0.92857: (Sim:1h16m3s) 
CPU  0 inst:  401000003 cyc:  294641932 now IPC :1.24608: AVG IPC :1.35879: L2-Pf-HR :0.98780: L2-HR :0.92854: (Sim:1h16m19s) 
CPU  0 inst:  402000003 cyc:  295367359 now IPC :1.37850: AVG IPC :1.35883: L2-Pf-HR :0.98780: L2-HR :0.92853: (Sim:1h16m32s) 
CPU  0 inst:  403000003 cyc:  296096941 now IPC :1.37065: AVG IPC :1.35886: L2-Pf-HR :0.98781: L2-HR :0.92853: (Sim:1h16m48s) 
CPU  0 inst:  404000003 cyc:  296827453 now IPC :1.36890: AVG IPC :1.35889: L2-Pf-HR :0.98781: L2-HR :0.92852: (Sim:1h17m3s) 
CPU  0 inst:  405000005 cyc:  297556027 now IPC :1.37255: AVG IPC :1.35892: L2-Pf-HR :0.98781: L2-HR :0.92852: (Sim:1h17m19s) 
CPU  0 inst:  406000000 cyc:  298285846 now IPC :1.37020: AVG IPC :1.35895: L2-Pf-HR :0.98781: L2-HR :0.92851: (Sim:1h17m34s) 
CPU  0 inst:  407000001 cyc:  299051668 now IPC :1.30579: AVG IPC :1.35881: L2-Pf-HR :0.98782: L2-HR :0.92851: (Sim:1h17m50s) 
CPU  0 inst:  408000000 cyc:  299781273 now IPC :1.37060: AVG IPC :1.35884: L2-Pf-HR :0.98782: L2-HR :0.92851: (Sim:1h18m5s) 
CPU  0 inst:  409000001 cyc:  300508623 now IPC :1.37486: AVG IPC :1.35888: L2-Pf-HR :0.98783: L2-HR :0.92850: (Sim:1h18m20s) 
CPU  0 inst:  410000002 cyc:  301238933 now IPC :1.36928: AVG IPC :1.35891: L2-Pf-HR :0.98783: L2-HR :0.92850: (Sim:1h18m36s) 
CPU  0 inst:  411000004 cyc:  301968189 now IPC :1.37126: AVG IPC :1.35894: L2-Pf-HR :0.98783: L2-HR :0.92849: (Sim:1h18m48s) 
CPU  0 inst:  412000005 cyc:  302692226 now IPC :1.38115: AVG IPC :1.35899: L2-Pf-HR :0.98783: L2-HR :0.92849: (Sim:1h19m3s) 
CPU  0 inst:  413000002 cyc:  303485404 now IPC :1.26075: AVG IPC :1.35873: L2-Pf-HR :0.98782: L2-HR :0.92846: (Sim:1h19m19s) 
CPU  0 inst:  414000002 cyc:  304210858 now IPC :1.37845: AVG IPC :1.35878: L2-Pf-HR :0.98782: L2-HR :0.92845: (Sim:1h19m34s) 
CPU  0 inst:  415000002 cyc:  304940696 now IPC :1.37017: AVG IPC :1.35881: L2-Pf-HR :0.98782: L2-HR :0.92845: (Sim:1h19m49s) 
CPU  0 inst:  416000000 cyc:  305668538 now IPC :1.37392: AVG IPC :1.35884: L2-Pf-HR :0.98783: L2-HR :0.92844: (Sim:1h20m3s) 
CPU  0 inst:  417000000 cyc:  306394021 now IPC :1.37839: AVG IPC :1.35889: L2-Pf-HR :0.98783: L2-HR :0.92843: (Sim:1h20m15s) 
CPU  0 inst:  418000005 cyc:  307122100 now IPC :1.37348: AVG IPC :1.35892: L2-Pf-HR :0.98783: L2-HR :0.92843: (Sim:1h20m28s) 
CPU  0 inst:  419000000 cyc:  307889964 now IPC :1.30231: AVG IPC :1.35878: L2-Pf-HR :0.98784: L2-HR :0.92843: (Sim:1h20m44s) 
CPU  0 inst:  420000002 cyc:  308618300 now IPC :1.37300: AVG IPC :1.35881: L2-Pf-HR :0.98784: L2-HR :0.92842: (Sim:1h20m59s) 
CPU  0 inst:  421000003 cyc:  309347460 now IPC :1.37144: AVG IPC :1.35884: L2-Pf-HR :0.98784: L2-HR :0.92842: (Sim:1h21m14s) 
CPU  0 inst:  422000002 cyc:  310076988 now IPC :1.37075: AVG IPC :1.35887: L2-Pf-HR :0.98785: L2-HR :0.92842: (Sim:1h21m29s) 
CPU  0 inst:  423000003 cyc:  310805218 now IPC :1.37319: AVG IPC :1.35891: L2-Pf-HR :0.98785: L2-HR :0.92841: (Sim:1h21m44s) 
CPU  0 inst:  424000000 cyc:  311534364 now IPC :1.37146: AVG IPC :1.35894: L2-Pf-HR :0.98785: L2-HR :0.92841: (Sim:1h22m0s) 
CPU  0 inst:  425000004 cyc:  312337270 now IPC :1.24548: AVG IPC :1.35864: L2-Pf-HR :0.98784: L2-HR :0.92838: (Sim:1h22m15s) 
CPU  0 inst:  426000000 cyc:  313064639 now IPC :1.37481: AVG IPC :1.35868: L2-Pf-HR :0.98784: L2-HR :0.92838: (Sim:1h22m30s) 
CPU  0 inst:  427000003 cyc:  313793530 now IPC :1.37195: AVG IPC :1.35871: L2-Pf-HR :0.98785: L2-HR :0.92838: (Sim:1h22m45s) 
CPU  0 inst:  428000005 cyc:  314522705 now IPC :1.37142: AVG IPC :1.35874: L2-Pf-HR :0.98785: L2-HR :0.92838: (Sim:1h23m0s) 
CPU  0 inst:  429000002 cyc:  315249724 now IPC :1.37548: AVG IPC :1.35878: L2-Pf-HR :0.98785: L2-HR :0.92838: (Sim:1h23m15s) 
CPU  0 inst:  430000002 cyc:  315978180 now IPC :1.37277: AVG IPC :1.35881: L2-Pf-HR :0.98785: L2-HR :0.92838: (Sim:1h23m31s) 
CPU  0 inst:  431000002 cyc:  316742819 now IPC :1.30781: AVG IPC :1.35869: L2-Pf-HR :0.98786: L2-HR :0.92838: (Sim:1h23m46s) 
CPU  0 inst:  432000000 cyc:  317470224 now IPC :1.37475: AVG IPC :1.35873: L2-Pf-HR :0.98786: L2-HR :0.92838: (Sim:1h24m1s) 
CPU  0 inst:  433000001 cyc:  318198565 now IPC :1.37298: AVG IPC :1.35876: L2-Pf-HR :0.98787: L2-HR :0.92837: (Sim:1h24m17s) 
CPU  0 inst:  434000001 cyc:  318927912 now IPC :1.37109: AVG IPC :1.35879: L2-Pf-HR :0.98787: L2-HR :0.92837: (Sim:1h24m32s) 
CPU  0 inst:  435000002 cyc:  319655536 now IPC :1.37434: AVG IPC :1.35882: L2-Pf-HR :0.98787: L2-HR :0.92837: (Sim:1h24m47s) 
CPU  0 inst:  436000000 cyc:  320382289 now IPC :1.37598: AVG IPC :1.35886: L2-Pf-HR :0.98788: L2-HR :0.92837: (Sim:1h25m2s) 
CPU  0 inst:  437000003 cyc:  321142057 now IPC :1.31620: AVG IPC :1.35876: L2-Pf-HR :0.98784: L2-HR :0.92828: (Sim:1h25m18s) 
CPU  0 inst:  438000001 cyc:  321867248 now IPC :1.37894: AVG IPC :1.35881: L2-Pf-HR :0.98780: L2-HR :0.92817: (Sim:1h25m32s) 
CPU  0 inst:  439000002 cyc:  322595729 now IPC :1.37272: AVG IPC :1.35884: L2-Pf-HR :0.98775: L2-HR :0.92806: (Sim:1h25m46s) 
CPU  0 inst:  440000000 cyc:  323308820 now IPC :1.40234: AVG IPC :1.35893: L2-Pf-HR :0.98771: L2-HR :0.92795: (Sim:1h26m1s) 
CPU  0 inst:  441000003 cyc:  324121965 now IPC :1.22980: AVG IPC :1.35861: L2-Pf-HR :0.98768: L2-HR :0.92786: (Sim:1h26m17s) 
CPU  0 inst:  442000001 cyc:  324842862 now IPC :1.38716: AVG IPC :1.35867: L2-Pf-HR :0.98767: L2-HR :0.92784: (Sim:1h26m32s) 
CPU  0 inst:  443000002 cyc:  325566104 now IPC :1.38266: AVG IPC :1.35873: L2-Pf-HR :0.98767: L2-HR :0.92782: (Sim:1h26m47s) 
CPU  0 inst:  444000000 cyc:  326288061 now IPC :1.38512: AVG IPC :1.35878: L2-Pf-HR :0.98767: L2-HR :0.92780: (Sim:1h27m1s) 
CPU  0 inst:  445000004 cyc:  327008087 now IPC :1.38884: AVG IPC :1.35885: L2-Pf-HR :0.98766: L2-HR :0.92778: (Sim:1h27m15s) 
CPU  0 inst:  446000002 cyc:  327735650 now IPC :1.37445: AVG IPC :1.35889: L2-Pf-HR :0.98766: L2-HR :0.92776: (Sim:1h27m31s) 
CPU  0 inst:  447000003 cyc:  328512062 now IPC :1.28798: AVG IPC :1.35872: L2-Pf-HR :0.98766: L2-HR :0.92774: (Sim:1h27m45s) 
CPU  0 inst:  448000000 cyc:  329255214 now IPC :1.34562: AVG IPC :1.35869: L2-Pf-HR :0.98766: L2-HR :0.92772: (Sim:1h28m0s) 
CPU  0 inst:  449000002 cyc:  329997468 now IPC :1.34725: AVG IPC :1.35866: L2-Pf-HR :0.98765: L2-HR :0.92771: (Sim:1h28m14s) 
CPU  0 inst:  450000005 cyc:  330744186 now IPC :1.33920: AVG IPC :1.35862: L2-Pf-HR :0.98765: L2-HR :0.92769: (Sim:1h28m29s) 
CPU  0 inst:  451000002 cyc:  331492646 now IPC :1.33607: AVG IPC :1.35857: L2-Pf-HR :0.98764: L2-HR :0.92767: (Sim:1h28m45s) 
CPU  0 inst:  452000004 cyc:  332242659 now IPC :1.33331: AVG IPC :1.35851: L2-Pf-HR :0.98764: L2-HR :0.92765: (Sim:1h29m0s) 
CPU  0 inst:  453000002 cyc:  333048898 now IPC :1.24032: AVG IPC :1.35822: L2-Pf-HR :0.98763: L2-HR :0.92762: (Sim:1h29m17s) 
CPU  0 inst:  454000002 cyc:  333779075 now IPC :1.36953: AVG IPC :1.35825: L2-Pf-HR :0.98763: L2-HR :0.92762: (Sim:1h29m32s) 
CPU  0 inst:  455000003 cyc:  334509126 now IPC :1.36977: AVG IPC :1.35827: L2-Pf-HR :0.98763: L2-HR :0.92761: (Sim:1h29m47s) 
CPU  0 inst:  456000000 cyc:  335236574 now IPC :1.37466: AVG IPC :1.35831: L2-Pf-HR :0.98764: L2-HR :0.92761: (Sim:1h30m3s) 
CPU  0 inst:  457000000 cyc:  335965910 now IPC :1.37111: AVG IPC :1.35834: L2-Pf-HR :0.98764: L2-HR :0.92760: (Sim:1h30m18s) 
CPU  0 inst:  458000005 cyc:  336693927 now IPC :1.37360: AVG IPC :1.35837: L2-Pf-HR :0.98764: L2-HR :0.92760: (Sim:1h30m33s) 
CPU  0 inst:  459000000 cyc:  337449904 now IPC :1.32278: AVG IPC :1.35829: L2-Pf-HR :0.98765: L2-HR :0.92760: (Sim:1h30m49s) 
CPU  0 inst:  460000000 cyc:  338162640 now IPC :1.40304: AVG IPC :1.35838: L2-Pf-HR :0.98765: L2-HR :0.92760: (Sim:1h31m4s) 
CPU  0 inst:  461000005 cyc:  338874717 now IPC :1.40435: AVG IPC :1.35848: L2-Pf-HR :0.98765: L2-HR :0.92759: (Sim:1h31m19s) 
CPU  0 inst:  462000002 cyc:  339588661 now IPC :1.40067: AVG IPC :1.35857: L2-Pf-HR :0.98766: L2-HR :0.92759: (Sim:1h31m35s) 
CPU  0 inst:  463000003 cyc:  340302016 now IPC :1.40183: AVG IPC :1.35866: L2-Pf-HR :0.98766: L2-HR :0.92758: (Sim:1h31m50s) 
CPU  0 inst:  464000000 cyc:  341016254 now IPC :1.40009: AVG IPC :1.35875: L2-Pf-HR :0.98766: L2-HR :0.92758: (Sim:1h32m5s) 
CPU  0 inst:  465000004 cyc:  341802432 now IPC :1.27198: AVG IPC :1.35855: L2-Pf-HR :0.98765: L2-HR :0.92756: (Sim:1h32m21s) 
CPU  0 inst:  466000000 cyc:  342515740 now IPC :1.40191: AVG IPC :1.35864: L2-Pf-HR :0.98765: L2-HR :0.92755: (Sim:1h32m37s) 
CPU  0 inst:  467000000 cyc:  343231597 now IPC :1.39693: AVG IPC :1.35872: L2-Pf-HR :0.98766: L2-HR :0.92755: (Sim:1h32m52s) 
CPU  0 inst:  468000004 cyc:  343946290 now IPC :1.39921: AVG IPC :1.35880: L2-Pf-HR :0.98766: L2-HR :0.92754: (Sim:1h33m8s) 
CPU  0 inst:  469000002 cyc:  344662563 now IPC :1.39611: AVG IPC :1.35888: L2-Pf-HR :0.98766: L2-HR :0.92754: (Sim:1h33m23s) 
CPU  0 inst:  470000002 cyc:  345376931 now IPC :1.39984: AVG IPC :1.35897: L2-Pf-HR :0.98767: L2-HR :0.92754: (Sim:1h33m39s) 
CPU  0 inst:  471000002 cyc:  346141462 now IPC :1.30799: AVG IPC :1.35885: L2-Pf-HR :0.98767: L2-HR :0.92754: (Sim:1h33m55s) 
CPU  0 inst:  472000000 cyc:  346868003 now IPC :1.37638: AVG IPC :1.35889: L2-Pf-HR :0.98768: L2-HR :0.92753: (Sim:1h34m10s) 
CPU  0 inst:  473000001 cyc:  347596283 now IPC :1.37310: AVG IPC :1.35892: L2-Pf-HR :0.98768: L2-HR :0.92753: (Sim:1h34m26s) 
CPU  0 inst:  474000001 cyc:  348324644 now IPC :1.37295: AVG IPC :1.35895: L2-Pf-HR :0.98768: L2-HR :0.92752: (Sim:1h34m41s) 
CPU  0 inst:  475000002 cyc:  349051617 now IPC :1.37557: AVG IPC :1.35898: L2-Pf-HR :0.98769: L2-HR :0.92752: (Sim:1h34m57s) 
CPU  0 inst:  476000000 cyc:  349779674 now IPC :1.37352: AVG IPC :1.35901: L2-Pf-HR :0.98769: L2-HR :0.92752: (Sim:1h35m13s) 
CPU  0 inst:  477000000 cyc:  350573556 now IPC :1.25963: AVG IPC :1.35879: L2-Pf-HR :0.98768: L2-HR :0.92749: (Sim:1h35m29s) 
CPU  0 inst:  478000005 cyc:  351292459 now IPC :1.39102: AVG IPC :1.35885: L2-Pf-HR :0.98768: L2-HR :0.92748: (Sim:1h35m44s) 
CPU  0 inst:  479000000 cyc:  352011449 now IPC :1.39083: AVG IPC :1.35892: L2-Pf-HR :0.98768: L2-HR :0.92748: (Sim:1h36m0s) 
CPU  0 inst:  480000000 cyc:  352729421 now IPC :1.39281: AVG IPC :1.35899: L2-Pf-HR :0.98768: L2-HR :0.92748: (Sim:1h36m15s) 
CPU  0 inst:  481000001 cyc:  353449187 now IPC :1.38934: AVG IPC :1.35905: L2-Pf-HR :0.98769: L2-HR :0.92747: (Sim:1h36m31s) 
CPU  0 inst:  482000001 cyc:  354166189 now IPC :1.39470: AVG IPC :1.35912: L2-Pf-HR :0.98769: L2-HR :0.92747: (Sim:1h36m46s) 
CPU  0 inst:  483000003 cyc:  354927929 now IPC :1.31279: AVG IPC :1.35902: L2-Pf-HR :0.98770: L2-HR :0.92747: (Sim:1h37m2s) 
CPU  0 inst:  484000004 cyc:  355651073 now IPC :1.38285: AVG IPC :1.35907: L2-Pf-HR :0.98770: L2-HR :0.92747: (Sim:1h37m17s) 
CPU  0 inst:  485000004 cyc:  356374420 now IPC :1.38246: AVG IPC :1.35912: L2-Pf-HR :0.98770: L2-HR :0.92747: (Sim:1h37m33s) 
CPU  0 inst:  486000004 cyc:  357100377 now IPC :1.37749: AVG IPC :1.35916: L2-Pf-HR :0.98771: L2-HR :0.92746: (Sim:1h37m48s) 
CPU  0 inst:  487000002 cyc:  357821007 now IPC :1.38767: AVG IPC :1.35921: L2-Pf-HR :0.98771: L2-HR :0.92746: (Sim:1h38m4s) 
CPU  0 inst:  488000000 cyc:  358546106 now IPC :1.37912: AVG IPC :1.35925: L2-Pf-HR :0.98771: L2-HR :0.92746: (Sim:1h38m20s) 
CPU  0 inst:  489000005 cyc:  359345425 now IPC :1.25107: AVG IPC :1.35901: L2-Pf-HR :0.98770: L2-HR :0.92744: (Sim:1h38m36s) 
CPU  0 inst:  490000005 cyc:  360069547 now IPC :1.38098: AVG IPC :1.35906: L2-Pf-HR :0.98771: L2-HR :0.92743: (Sim:1h38m52s) 
CPU  0 inst:  491000005 cyc:  360792185 now IPC :1.38382: AVG IPC :1.35911: L2-Pf-HR :0.98771: L2-HR :0.92743: (Sim:1h39m7s) 
CPU  0 inst:  492000003 cyc:  361513452 now IPC :1.38645: AVG IPC :1.35916: L2-Pf-HR :0.98771: L2-HR :0.92743: (Sim:1h39m23s) 
CPU  0 inst:  493000003 cyc:  362235081 now IPC :1.38575: AVG IPC :1.35922: L2-Pf-HR :0.98771: L2-HR :0.92743: (Sim:1h39m38s) 
CPU  0 inst:  494000004 cyc:  362956150 now IPC :1.38683: AVG IPC :1.35927: L2-Pf-HR :0.98772: L2-HR :0.92743: (Sim:1h39m54s) 
CPU  0 inst:  495000002 cyc:  363719951 now IPC :1.30924: AVG IPC :1.35917: L2-Pf-HR :0.98772: L2-HR :0.92743: (Sim:1h40m9s) 
xz: 770-tot_memTraces_v5/120-subBillion_s2048_LLM_Arch/memTraces[1979000000]_FE_[GPT-Neo-125M]_[h12]_[s2048]_[d64].champsim.9.xz: Unexpected end of input
*** Reached end of trace for Core: 0 Repeating trace: 770-tot_memTraces_v5/120-subBillion_s2048_LLM_Arch/memTraces[1979000000]_FE_[GPT-Neo-125M]_[h12]_[s2048]_[d64].champsim.9.xz
CPU  0 inst:  496000000 cyc:  364769150 now IPC :0.95311: AVG IPC :1.35799: L2-Pf-HR :0.98770: L2-HR :0.92733: (Sim:1h40m25s) 
CPU  0 inst:  497000001 cyc:  365508030 now IPC :1.35340: AVG IPC :1.35798: L2-Pf-HR :0.98770: L2-HR :0.92731: (Sim:1h40m41s) 
CPU  0 inst:  498000000 cyc:  366249526 now IPC :1.34862: AVG IPC :1.35797: L2-Pf-HR :0.98770: L2-HR :0.92730: (Sim:1h40m57s) 
CPU  0 inst:  499000002 cyc:  366989549 now IPC :1.35131: AVG IPC :1.35795: L2-Pf-HR :0.98770: L2-HR :0.92729: (Sim:1h41m11s) 
CPU  0 inst:  500000003 cyc:  367731271 now IPC :1.34822: AVG IPC :1.35793: L2-Pf-HR :0.98770: L2-HR :0.92728: (Sim:1h41m27s) 
CPU  0 inst:  501000005 cyc:  368471544 now IPC :1.35086: AVG IPC :1.35792: L2-Pf-HR :0.98769: L2-HR :0.92727: (Sim:1h41m42s) 
CPU  0 inst:  502000002 cyc:  369247407 now IPC :1.28888: AVG IPC :1.35777: L2-Pf-HR :0.98770: L2-HR :0.92725: (Sim:1h41m54s) 
CPU  0 inst:  503000001 cyc:  369982179 now IPC :1.36097: AVG IPC :1.35778: L2-Pf-HR :0.98769: L2-HR :0.92724: (Sim:1h42m4s) 
CPU  0 inst:  504000000 cyc:  370724351 now IPC :1.34740: AVG IPC :1.35776: L2-Pf-HR :0.98769: L2-HR :0.92723: (Sim:1h42m15s) 
CPU  0 inst:  505000000 cyc:  371465111 now IPC :1.34996: AVG IPC :1.35774: L2-Pf-HR :0.98769: L2-HR :0.92722: (Sim:1h42m24s) 
CPU  0 inst:  506000001 cyc:  372204761 now IPC :1.35199: AVG IPC :1.35773: L2-Pf-HR :0.98769: L2-HR :0.92720: (Sim:1h42m36s) 
CPU  0 inst:  507000005 cyc:  372943276 now IPC :1.35407: AVG IPC :1.35772: L2-Pf-HR :0.98769: L2-HR :0.92719: (Sim:1h42m48s) 
CPU  0 inst:  508000003 cyc:  373756434 now IPC :1.22977: AVG IPC :1.35744: L2-Pf-HR :0.98767: L2-HR :0.92716: (Sim:1h43m4s) 
CPU  0 inst:  509000003 cyc:  374486741 now IPC :1.36929: AVG IPC :1.35747: L2-Pf-HR :0.98768: L2-HR :0.92716: (Sim:1h43m19s) 
CPU  0 inst:  510000001 cyc:  375213147 now IPC :1.37664: AVG IPC :1.35751: L2-Pf-HR :0.98768: L2-HR :0.92716: (Sim:1h43m34s) 
CPU  0 inst:  511000001 cyc:  375942567 now IPC :1.37095: AVG IPC :1.35753: L2-Pf-HR :0.98769: L2-HR :0.92717: (Sim:1h43m50s) 
CPU  0 inst:  512000000 cyc:  376670522 now IPC :1.37371: AVG IPC :1.35756: L2-Pf-HR :0.98769: L2-HR :0.92717: (Sim:1h44m5s) 
CPU  0 inst:  513000001 cyc:  377399484 now IPC :1.37181: AVG IPC :1.35759: L2-Pf-HR :0.98769: L2-HR :0.92717: (Sim:1h44m20s) 
CPU  0 inst:  514000000 cyc:  378166446 now IPC :1.30384: AVG IPC :1.35748: L2-Pf-HR :0.98770: L2-HR :0.92717: (Sim:1h44m35s) 
CPU  0 inst:  515000001 cyc:  378891651 now IPC :1.37892: AVG IPC :1.35752: L2-Pf-HR :0.98770: L2-HR :0.92717: (Sim:1h44m50s) 
CPU  0 inst:  516000005 cyc:  379619047 now IPC :1.37477: AVG IPC :1.35756: L2-Pf-HR :0.98771: L2-HR :0.92717: (Sim:1h45m4s) 
CPU  0 inst:  517000000 cyc:  380344598 now IPC :1.37826: AVG IPC :1.35759: L2-Pf-HR :0.98771: L2-HR :0.92717: (Sim:1h45m20s) 
CPU  0 inst:  518000004 cyc:  381071738 now IPC :1.37526: AVG IPC :1.35763: L2-Pf-HR :0.98772: L2-HR :0.92718: (Sim:1h45m35s) 
CPU  0 inst:  519000005 cyc:  381797703 now IPC :1.37748: AVG IPC :1.35767: L2-Pf-HR :0.98772: L2-HR :0.92718: (Sim:1h45m51s) 
CPU  0 inst:  520000000 cyc:  382592108 now IPC :1.25880: AVG IPC :1.35746: L2-Pf-HR :0.98771: L2-HR :0.92716: (Sim:1h46m7s) 
CPU  0 inst:  521000000 cyc:  383315026 now IPC :1.38328: AVG IPC :1.35751: L2-Pf-HR :0.98772: L2-HR :0.92716: (Sim:1h46m22s) 
CPU  0 inst:  522000000 cyc:  384035151 now IPC :1.38865: AVG IPC :1.35757: L2-Pf-HR :0.98772: L2-HR :0.92716: (Sim:1h46m38s) 
CPU  0 inst:  523000005 cyc:  384759315 now IPC :1.38091: AVG IPC :1.35761: L2-Pf-HR :0.98773: L2-HR :0.92716: (Sim:1h46m53s) 
CPU  0 inst:  524000003 cyc:  385480756 now IPC :1.38611: AVG IPC :1.35767: L2-Pf-HR :0.98773: L2-HR :0.92716: (Sim:1h47m9s) 
CPU  0 inst:  525000003 cyc:  386202507 now IPC :1.38552: AVG IPC :1.35772: L2-Pf-HR :0.98773: L2-HR :0.92717: (Sim:1h47m22s) 
CPU  0 inst:  526000003 cyc:  386959644 now IPC :1.32076: AVG IPC :1.35765: L2-Pf-HR :0.98774: L2-HR :0.92717: (Sim:1h47m35s) 
CPU  0 inst:  527000001 cyc:  387671260 now IPC :1.40525: AVG IPC :1.35773: L2-Pf-HR :0.98774: L2-HR :0.92717: (Sim:1h47m51s) 
CPU  0 inst:  528000000 cyc:  388382984 now IPC :1.40504: AVG IPC :1.35782: L2-Pf-HR :0.98775: L2-HR :0.92717: (Sim:1h48m6s) 
CPU  0 inst:  529000001 cyc:  389093236 now IPC :1.40795: AVG IPC :1.35791: L2-Pf-HR :0.98775: L2-HR :0.92717: (Sim:1h48m21s) 
CPU  0 inst:  530000001 cyc:  389804988 now IPC :1.40498: AVG IPC :1.35800: L2-Pf-HR :0.98776: L2-HR :0.92718: (Sim:1h48m36s) 
CPU  0 inst:  531000001 cyc:  390514952 now IPC :1.40852: AVG IPC :1.35809: L2-Pf-HR :0.98776: L2-HR :0.92718: (Sim:1h48m51s) 
CPU  0 inst:  532000002 cyc:  391309316 now IPC :1.25887: AVG IPC :1.35789: L2-Pf-HR :0.98775: L2-HR :0.92716: (Sim:1h49m8s) 
CPU  0 inst:  533000002 cyc:  392037321 now IPC :1.37362: AVG IPC :1.35792: L2-Pf-HR :0.98776: L2-HR :0.92716: (Sim:1h49m21s) 
CPU  0 inst:  534000001 cyc:  392762434 now IPC :1.37909: AVG IPC :1.35796: L2-Pf-HR :0.98776: L2-HR :0.92716: (Sim:1h49m36s) 
CPU  0 inst:  535000004 cyc:  393489964 now IPC :1.37452: AVG IPC :1.35799: L2-Pf-HR :0.98776: L2-HR :0.92717: (Sim:1h49m50s) 
CPU  0 inst:  536000000 cyc:  394216651 now IPC :1.37610: AVG IPC :1.35802: L2-Pf-HR :0.98777: L2-HR :0.92717: (Sim:1h50m5s) 
CPU  0 inst:  537000001 cyc:  394944803 now IPC :1.37334: AVG IPC :1.35805: L2-Pf-HR :0.98777: L2-HR :0.92717: (Sim:1h50m21s) 
CPU  0 inst:  538000002 cyc:  395711875 now IPC :1.30366: AVG IPC :1.35794: L2-Pf-HR :0.98778: L2-HR :0.92717: (Sim:1h50m36s) 
CPU  0 inst:  539000000 cyc:  396437175 now IPC :1.37874: AVG IPC :1.35798: L2-Pf-HR :0.98778: L2-HR :0.92717: (Sim:1h50m51s) 
CPU  0 inst:  540000002 cyc:  397166338 now IPC :1.37144: AVG IPC :1.35801: L2-Pf-HR :0.98778: L2-HR :0.92718: (Sim:1h51m7s) 
CPU  0 inst:  541000000 cyc:  397892879 now IPC :1.37638: AVG IPC :1.35804: L2-Pf-HR :0.98779: L2-HR :0.92718: (Sim:1h51m22s) 
CPU  0 inst:  542000000 cyc:  398620245 now IPC :1.37482: AVG IPC :1.35807: L2-Pf-HR :0.98779: L2-HR :0.92718: (Sim:1h51m37s) 
CPU  0 inst:  543000000 cyc:  399345191 now IPC :1.37941: AVG IPC :1.35811: L2-Pf-HR :0.98780: L2-HR :0.92718: (Sim:1h51m53s) 
CPU  0 inst:  544000000 cyc:  400143917 now IPC :1.25199: AVG IPC :1.35790: L2-Pf-HR :0.98779: L2-HR :0.92716: (Sim:1h52m9s) 
CPU  0 inst:  545000003 cyc:  400873980 now IPC :1.36975: AVG IPC :1.35792: L2-Pf-HR :0.98779: L2-HR :0.92717: (Sim:1h52m25s) 
CPU  0 inst:  546000000 cyc:  401601391 now IPC :1.37473: AVG IPC :1.35795: L2-Pf-HR :0.98780: L2-HR :0.92717: (Sim:1h52m41s) 
CPU  0 inst:  547000004 cyc:  402331526 now IPC :1.36962: AVG IPC :1.35797: L2-Pf-HR :0.98780: L2-HR :0.92717: (Sim:1h52m56s) 
CPU  0 inst:  548000004 cyc:  403060038 now IPC :1.37266: AVG IPC :1.35800: L2-Pf-HR :0.98780: L2-HR :0.92718: (Sim:1h53m9s) 
CPU  0 inst:  549000004 cyc:  403788919 now IPC :1.37197: AVG IPC :1.35802: L2-Pf-HR :0.98781: L2-HR :0.92718: (Sim:1h53m24s) 
CPU  0 inst:  550000002 cyc:  404556623 now IPC :1.30258: AVG IPC :1.35792: L2-Pf-HR :0.98781: L2-HR :0.92718: (Sim:1h53m40s) 
CPU  0 inst:  551000004 cyc:  405280685 now IPC :1.38110: AVG IPC :1.35796: L2-Pf-HR :0.98782: L2-HR :0.92718: (Sim:1h53m55s) 
CPU  0 inst:  552000000 cyc:  406008185 now IPC :1.37457: AVG IPC :1.35799: L2-Pf-HR :0.98782: L2-HR :0.92719: (Sim:1h54m10s) 
CPU  0 inst:  553000002 cyc:  406735018 now IPC :1.37583: AVG IPC :1.35802: L2-Pf-HR :0.98782: L2-HR :0.92719: (Sim:1h54m26s) 
CPU  0 inst:  554000004 cyc:  407461907 now IPC :1.37573: AVG IPC :1.35805: L2-Pf-HR :0.98783: L2-HR :0.92719: (Sim:1h54m41s) 
CPU  0 inst:  555000004 cyc:  408188092 now IPC :1.37706: AVG IPC :1.35809: L2-Pf-HR :0.98783: L2-HR :0.92719: (Sim:1h54m56s) 
CPU  0 inst:  556000001 cyc:  408937395 now IPC :1.33457: AVG IPC :1.35804: L2-Pf-HR :0.98782: L2-HR :0.92716: (Sim:1h55m12s) 
CPU  0 inst:  557000001 cyc:  409663704 now IPC :1.37682: AVG IPC :1.35808: L2-Pf-HR :0.98779: L2-HR :0.92708: (Sim:1h55m23s) 
CPU  0 inst:  558000001 cyc:  410394054 now IPC :1.36921: AVG IPC :1.35810: L2-Pf-HR :0.98776: L2-HR :0.92699: (Sim:1h55m37s) 
CPU  0 inst:  559000005 cyc:  411111350 now IPC :1.39413: AVG IPC :1.35816: L2-Pf-HR :0.98773: L2-HR :0.92690: (Sim:1h55m51s) 
CPU  0 inst:  560000000 cyc:  411930594 now IPC :1.22063: AVG IPC :1.35788: L2-Pf-HR :0.98768: L2-HR :0.92680: (Sim:1h56m7s) 
CPU  0 inst:  561000001 cyc:  412666706 now IPC :1.35849: AVG IPC :1.35789: L2-Pf-HR :0.98768: L2-HR :0.92678: (Sim:1h56m23s) 
CPU  0 inst:  562000002 cyc:  413401029 now IPC :1.36180: AVG IPC :1.35789: L2-Pf-HR :0.98768: L2-HR :0.92677: (Sim:1h56m38s) 
CPU  0 inst:  563000000 cyc:  414140625 now IPC :1.35209: AVG IPC :1.35788: L2-Pf-HR :0.98768: L2-HR :0.92676: (Sim:1h56m54s) 
CPU  0 inst:  564000000 cyc:  414877242 now IPC :1.35756: AVG IPC :1.35788: L2-Pf-HR :0.98768: L2-HR :0.92674: (Sim:1h57m9s) 
CPU  0 inst:  565000005 cyc:  415614425 now IPC :1.35652: AVG IPC :1.35788: L2-Pf-HR :0.98768: L2-HR :0.92673: (Sim:1h57m25s) 
CPU  0 inst:  566000005 cyc:  416388810 now IPC :1.29135: AVG IPC :1.35776: L2-Pf-HR :0.98768: L2-HR :0.92672: (Sim:1h57m41s) 
CPU  0 inst:  567000001 cyc:  417128637 now IPC :1.35166: AVG IPC :1.35774: L2-Pf-HR :0.98767: L2-HR :0.92671: (Sim:1h57m56s) 
CPU  0 inst:  568000000 cyc:  417870631 now IPC :1.34772: AVG IPC :1.35773: L2-Pf-HR :0.98767: L2-HR :0.92670: (Sim:1h58m12s) 
CPU  0 inst:  569000000 cyc:  418613416 now IPC :1.34628: AVG IPC :1.35771: L2-Pf-HR :0.98767: L2-HR :0.92668: (Sim:1h58m27s) 
CPU  0 inst:  570000001 cyc:  419355432 now IPC :1.34768: AVG IPC :1.35769: L2-Pf-HR :0.98767: L2-HR :0.92667: (Sim:1h58m43s) 
CPU  0 inst:  571000005 cyc:  420102794 now IPC :1.33805: AVG IPC :1.35765: L2-Pf-HR :0.98767: L2-HR :0.92666: (Sim:1h58m59s) 
CPU  0 inst:  572000004 cyc:  420921366 now IPC :1.22164: AVG IPC :1.35739: L2-Pf-HR :0.98765: L2-HR :0.92662: (Sim:1h59m15s) 
CPU  0 inst:  573000003 cyc:  421648755 now IPC :1.37478: AVG IPC :1.35742: L2-Pf-HR :0.98766: L2-HR :0.92662: (Sim:1h59m30s) 
CPU  0 inst:  574000001 cyc:  422377065 now IPC :1.37304: AVG IPC :1.35745: L2-Pf-HR :0.98766: L2-HR :0.92662: (Sim:1h59m46s) 
CPU  0 inst:  575000002 cyc:  423104546 now IPC :1.37461: AVG IPC :1.35747: L2-Pf-HR :0.98767: L2-HR :0.92662: (Sim:2h0m1s) 
CPU  0 inst:  576000000 cyc:  423831354 now IPC :1.37588: AVG IPC :1.35751: L2-Pf-HR :0.98767: L2-HR :0.92662: (Sim:2h0m17s) 
CPU  0 inst:  577000002 cyc:  424559082 now IPC :1.37414: AVG IPC :1.35754: L2-Pf-HR :0.98767: L2-HR :0.92662: (Sim:2h0m33s) 
CPU  0 inst:  578000002 cyc:  425321444 now IPC :1.31171: AVG IPC :1.35745: L2-Pf-HR :0.98767: L2-HR :0.92662: (Sim:2h0m48s) 
CPU  0 inst:  579000005 cyc:  426038160 now IPC :1.39526: AVG IPC :1.35752: L2-Pf-HR :0.98768: L2-HR :0.92661: (Sim:2h1m4s) 
CPU  0 inst:  580000002 cyc:  426752157 now IPC :1.40056: AVG IPC :1.35759: L2-Pf-HR :0.98768: L2-HR :0.92661: (Sim:2h1m19s) 
CPU  0 inst:  581000000 cyc:  427467604 now IPC :1.39772: AVG IPC :1.35766: L2-Pf-HR :0.98769: L2-HR :0.92661: (Sim:2h1m35s) 
CPU  0 inst:  582000000 cyc:  428181427 now IPC :1.40091: AVG IPC :1.35773: L2-Pf-HR :0.98769: L2-HR :0.92661: (Sim:2h1m50s) 
CPU  0 inst:  583000000 cyc:  428895790 now IPC :1.39985: AVG IPC :1.35780: L2-Pf-HR :0.98769: L2-HR :0.92661: (Sim:2h2m6s) 
CPU  0 inst:  584000000 cyc:  429689966 now IPC :1.25917: AVG IPC :1.35762: L2-Pf-HR :0.98768: L2-HR :0.92659: (Sim:2h2m22s) 
CPU  0 inst:  585000004 cyc:  430411957 now IPC :1.38506: AVG IPC :1.35766: L2-Pf-HR :0.98769: L2-HR :0.92659: (Sim:2h2m37s) 
CPU  0 inst:  586000000 cyc:  431134706 now IPC :1.38360: AVG IPC :1.35771: L2-Pf-HR :0.98769: L2-HR :0.92658: (Sim:2h2m52s) 
CPU  0 inst:  587000004 cyc:  431857524 now IPC :1.38348: AVG IPC :1.35775: L2-Pf-HR :0.98770: L2-HR :0.92658: (Sim:2h3m7s) 
CPU  0 inst:  588000004 cyc:  432582008 now IPC :1.38029: AVG IPC :1.35779: L2-Pf-HR :0.98770: L2-HR :0.92658: (Sim:2h3m22s) 
CPU  0 inst:  589000004 cyc:  433305937 now IPC :1.38135: AVG IPC :1.35783: L2-Pf-HR :0.98770: L2-HR :0.92658: (Sim:2h3m37s) 
CPU  0 inst:  590000001 cyc:  434068818 now IPC :1.31082: AVG IPC :1.35774: L2-Pf-HR :0.98771: L2-HR :0.92658: (Sim:2h3m52s) 
CPU  0 inst:  591000004 cyc:  434795931 now IPC :1.37531: AVG IPC :1.35777: L2-Pf-HR :0.98771: L2-HR :0.92657: (Sim:2h4m8s) 
CPU  0 inst:  592000000 cyc:  435521463 now IPC :1.37829: AVG IPC :1.35781: L2-Pf-HR :0.98771: L2-HR :0.92657: (Sim:2h4m23s) 
CPU  0 inst:  593000002 cyc:  436247554 now IPC :1.37724: AVG IPC :1.35784: L2-Pf-HR :0.98772: L2-HR :0.92657: (Sim:2h4m38s) 
CPU  0 inst:  594000001 cyc:  436972514 now IPC :1.37939: AVG IPC :1.35788: L2-Pf-HR :0.98772: L2-HR :0.92657: (Sim:2h4m53s) 
CPU  0 inst:  595000002 cyc:  437698575 now IPC :1.37730: AVG IPC :1.35791: L2-Pf-HR :0.98772: L2-HR :0.92657: (Sim:2h5m8s) 
CPU  0 inst:  596000005 cyc:  438498885 now IPC :1.24952: AVG IPC :1.35771: L2-Pf-HR :0.98772: L2-HR :0.92655: (Sim:2h5m24s) 
CPU  0 inst:  597000003 cyc:  439226031 now IPC :1.37524: AVG IPC :1.35774: L2-Pf-HR :0.98772: L2-HR :0.92655: (Sim:2h5m40s) 
CPU  0 inst:  598000003 cyc:  439953222 now IPC :1.37515: AVG IPC :1.35777: L2-Pf-HR :0.98772: L2-HR :0.92654: (Sim:2h5m55s) 
CPU  0 inst:  599000003 cyc:  440680966 now IPC :1.37411: AVG IPC :1.35779: L2-Pf-HR :0.98773: L2-HR :0.92654: (Sim:2h6m10s) 
CPU  0 inst:  600000000 cyc:  441408375 now IPC :1.37474: AVG IPC :1.35782: L2-Pf-HR :0.98773: L2-HR :0.92654: (Sim:2h6m25s) 
CPU  0 inst:  601000005 cyc:  442137159 now IPC :1.37216: AVG IPC :1.35785: L2-Pf-HR :0.98773: L2-HR :0.92654: (Sim:2h6m40s) 
CPU  0 inst:  602000001 cyc:  442901509 now IPC :1.30830: AVG IPC :1.35776: L2-Pf-HR :0.98774: L2-HR :0.92654: (Sim:2h6m55s) 
CPU  0 inst:  603000001 cyc:  443628404 now IPC :1.37571: AVG IPC :1.35779: L2-Pf-HR :0.98774: L2-HR :0.92654: (Sim:2h7m10s) 
CPU  0 inst:  604000001 cyc:  444353946 now IPC :1.37828: AVG IPC :1.35782: L2-Pf-HR :0.98774: L2-HR :0.92654: (Sim:2h7m25s) 
CPU  0 inst:  605000001 cyc:  445080591 now IPC :1.37619: AVG IPC :1.35785: L2-Pf-HR :0.98775: L2-HR :0.92654: (Sim:2h7m41s) 
CPU  0 inst:  606000001 cyc:  445806788 now IPC :1.37704: AVG IPC :1.35788: L2-Pf-HR :0.98775: L2-HR :0.92654: (Sim:2h7m56s) 
CPU  0 inst:  607000000 cyc:  446532363 now IPC :1.37822: AVG IPC :1.35792: L2-Pf-HR :0.98775: L2-HR :0.92654: (Sim:2h8m11s) 
CPU  0 inst:  608000000 cyc:  447332044 now IPC :1.25050: AVG IPC :1.35773: L2-Pf-HR :0.98775: L2-HR :0.92652: (Sim:2h8m28s) 
CPU  0 inst:  609000005 cyc:  448046223 now IPC :1.40022: AVG IPC :1.35779: L2-Pf-HR :0.98775: L2-HR :0.92652: (Sim:2h8m42s) 
CPU  0 inst:  610000001 cyc:  448761072 now IPC :1.39889: AVG IPC :1.35786: L2-Pf-HR :0.98775: L2-HR :0.92653: (Sim:2h8m57s) 
CPU  0 inst:  611000005 cyc:  449476864 now IPC :1.39706: AVG IPC :1.35792: L2-Pf-HR :0.98776: L2-HR :0.92653: (Sim:2h9m12s) 
CPU  0 inst:  612000003 cyc:  450192347 now IPC :1.39765: AVG IPC :1.35798: L2-Pf-HR :0.98776: L2-HR :0.92653: (Sim:2h9m26s) 
CPU  0 inst:  613000002 cyc:  450907682 now IPC :1.39795: AVG IPC :1.35805: L2-Pf-HR :0.98777: L2-HR :0.92653: (Sim:2h9m40s) 
CPU  0 inst:  614000003 cyc:  451662020 now IPC :1.32567: AVG IPC :1.35799: L2-Pf-HR :0.98777: L2-HR :0.92654: (Sim:2h9m55s) 
CPU  0 inst:  615000003 cyc:  452384745 now IPC :1.38365: AVG IPC :1.35803: L2-Pf-HR :0.98778: L2-HR :0.92654: (Sim:2h10m9s) 
CPU  0 inst:  616000000 cyc:  453106785 now IPC :1.38496: AVG IPC :1.35808: L2-Pf-HR :0.98778: L2-HR :0.92654: (Sim:2h10m23s) 
CPU  0 inst:  617000003 cyc:  453830926 now IPC :1.38095: AVG IPC :1.35811: L2-Pf-HR :0.98778: L2-HR :0.92654: (Sim:2h10m33s) 
CPU  0 inst:  618000002 cyc:  454556156 now IPC :1.37887: AVG IPC :1.35815: L2-Pf-HR :0.98779: L2-HR :0.92654: (Sim:2h10m48s) 
CPU  0 inst:  619000003 cyc:  455277728 now IPC :1.38586: AVG IPC :1.35819: L2-Pf-HR :0.98779: L2-HR :0.92655: (Sim:2h11m2s) 
CPU  0 inst:  620000000 cyc:  456024304 now IPC :1.33944: AVG IPC :1.35816: L2-Pf-HR :0.98779: L2-HR :0.92653: (Sim:2h11m15s) 
CPU  0 inst:  621000003 cyc:  456752351 now IPC :1.37354: AVG IPC :1.35819: L2-Pf-HR :0.98776: L2-HR :0.92645: (Sim:2h11m30s) 
[...]
CPU  0 inst: 1854000001 cyc: 1366447366 now IPC :1.38421: AVG IPC :1.35633: L2-Pf-HR :0.98818: L2-HR :0.92331: (Sim:5h11m54s) 
CPU  0 inst: 1855000001 cyc: 1367170174 now IPC :1.38349: AVG IPC :1.35634: L2-Pf-HR :0.98818: L2-HR :0.92331: (Sim:5h12m0s) 
CPU  0 inst: 1856000000 cyc: 1367895589 now IPC :1.37852: AVG IPC :1.35636: L2-Pf-HR :0.98819: L2-HR :0.92331: (Sim:5h12m7s) 
CPU  0 inst: 1857000001 cyc: 1368618971 now IPC :1.38240: AVG IPC :1.35637: L2-Pf-HR :0.98819: L2-HR :0.92332: (Sim:5h12m13s) 
CPU  0 inst: 1858000004 cyc: 1369342136 now IPC :1.38281: AVG IPC :1.35638: L2-Pf-HR :0.98819: L2-HR :0.92332: (Sim:5h12m20s) 
CPU  0 inst: 1859000001 cyc: 1370088068 now IPC :1.34060: AVG IPC :1.35637: L2-Pf-HR :0.98818: L2-HR :0.92330: (Sim:5h12m27s) 
CPU  0 inst: 1860000004 cyc: 1370817779 now IPC :1.37041: AVG IPC :1.35638: L2-Pf-HR :0.98817: L2-HR :0.92328: (Sim:5h12m33s) 
CPU  0 inst: 1861000003 cyc: 1371546467 now IPC :1.37233: AVG IPC :1.35639: L2-Pf-HR :0.98816: L2-HR :0.92325: (Sim:5h12m39s) 
CPU  0 inst: 1862000001 cyc: 1372257480 now IPC :1.40644: AVG IPC :1.35642: L2-Pf-HR :0.98815: L2-HR :0.92322: (Sim:5h12m45s) 
CPU  0 inst: 1863000001 cyc: 1373076780 now IPC :1.22055: AVG IPC :1.35634: L2-Pf-HR :0.98815: L2-HR :0.92319: (Sim:5h12m52s) 
CPU  0 inst: 1864000000 cyc: 1373812614 now IPC :1.35900: AVG IPC :1.35634: L2-Pf-HR :0.98815: L2-HR :0.92319: (Sim:5h12m59s) 
CPU  0 inst: 1865000003 cyc: 1374546710 now IPC :1.36222: AVG IPC :1.35634: L2-Pf-HR :0.98814: L2-HR :0.92319: (Sim:5h13m5s) 
CPU  0 inst: 1866000004 cyc: 1375279639 now IPC :1.36439: AVG IPC :1.35634: L2-Pf-HR :0.98814: L2-HR :0.92319: (Sim:5h13m12s) 
CPU  0 inst: 1867000002 cyc: 1376015416 now IPC :1.35910: AVG IPC :1.35635: L2-Pf-HR :0.98814: L2-HR :0.92319: (Sim:5h13m19s) 
CPU  0 inst: 1868000000 cyc: 1376752758 now IPC :1.35622: AVG IPC :1.35635: L2-Pf-HR :0.98814: L2-HR :0.92319: (Sim:5h13m25s) 
CPU  0 inst: 1869000004 cyc: 1377532425 now IPC :1.28260: AVG IPC :1.35630: L2-Pf-HR :0.98814: L2-HR :0.92318: (Sim:5h13m32s) 
CPU  0 inst: 1870000005 cyc: 1378275192 now IPC :1.34632: AVG IPC :1.35630: L2-Pf-HR :0.98814: L2-HR :0.92318: (Sim:5h13m38s) 
CPU  0 inst: 1871000003 cyc: 1379015383 now IPC :1.35100: AVG IPC :1.35630: L2-Pf-HR :0.98814: L2-HR :0.92318: (Sim:5h13m45s) 
CPU  0 inst: 1872000000 cyc: 1379759001 now IPC :1.34477: AVG IPC :1.35629: L2-Pf-HR :0.98814: L2-HR :0.92318: (Sim:5h13m52s) 
CPU  0 inst: 1873000002 cyc: 1380505251 now IPC :1.34004: AVG IPC :1.35628: L2-Pf-HR :0.98814: L2-HR :0.92318: (Sim:5h13m58s) 
CPU  0 inst: 1874000005 cyc: 1381248500 now IPC :1.34545: AVG IPC :1.35627: L2-Pf-HR :0.98814: L2-HR :0.92317: (Sim:5h14m5s) 
CPU  0 inst: 1875000000 cyc: 1382054237 now IPC :1.24109: AVG IPC :1.35621: L2-Pf-HR :0.98814: L2-HR :0.92317: (Sim:5h14m12s) 
CPU  0 inst: 1876000001 cyc: 1382778146 now IPC :1.38139: AVG IPC :1.35622: L2-Pf-HR :0.98814: L2-HR :0.92317: (Sim:5h14m19s) 
CPU  0 inst: 1877000001 cyc: 1383500652 now IPC :1.38407: AVG IPC :1.35624: L2-Pf-HR :0.98814: L2-HR :0.92317: (Sim:5h14m26s) 
CPU  0 inst: 1878000001 cyc: 1384222657 now IPC :1.38503: AVG IPC :1.35625: L2-Pf-HR :0.98814: L2-HR :0.92317: (Sim:5h14m32s) 
CPU  0 inst: 1879000001 cyc: 1384945002 now IPC :1.38438: AVG IPC :1.35627: L2-Pf-HR :0.98814: L2-HR :0.92318: (Sim:5h14m39s) 
CPU  0 inst: 1880000000 cyc: 1385668870 now IPC :1.38147: AVG IPC :1.35628: L2-Pf-HR :0.98815: L2-HR :0.92318: (Sim:5h14m45s) 
CPU  0 inst: 1881000005 cyc: 1386430723 now IPC :1.31260: AVG IPC :1.35625: L2-Pf-HR :0.98815: L2-HR :0.92318: (Sim:5h14m52s) 
CPU  0 inst: 1882000005 cyc: 1387154712 now IPC :1.38124: AVG IPC :1.35627: L2-Pf-HR :0.98815: L2-HR :0.92318: (Sim:5h14m59s) 
CPU  0 inst: 1883000005 cyc: 1387875508 now IPC :1.38736: AVG IPC :1.35628: L2-Pf-HR :0.98815: L2-HR :0.92318: (Sim:5h15m5s) 
CPU  0 inst: 1884000005 cyc: 1388597842 now IPC :1.38440: AVG IPC :1.35630: L2-Pf-HR :0.98815: L2-HR :0.92318: (Sim:5h15m12s) 
CPU  0 inst: 1885000005 cyc: 1389320509 now IPC :1.38376: AVG IPC :1.35631: L2-Pf-HR :0.98815: L2-HR :0.92318: (Sim:5h15m19s) 
CPU  0 inst: 1886000000 cyc: 1390039236 now IPC :1.39134: AVG IPC :1.35633: L2-Pf-HR :0.98815: L2-HR :0.92319: (Sim:5h15m25s) 
CPU  0 inst: 1887000005 cyc: 1390839022 now IPC :1.25034: AVG IPC :1.35627: L2-Pf-HR :0.98815: L2-HR :0.92318: (Sim:5h15m32s) 
CPU  0 inst: 1888000000 cyc: 1391566353 now IPC :1.37488: AVG IPC :1.35628: L2-Pf-HR :0.98815: L2-HR :0.92318: (Sim:5h15m39s) 
CPU  0 inst: 1889000003 cyc: 1392296670 now IPC :1.36927: AVG IPC :1.35629: L2-Pf-HR :0.98816: L2-HR :0.92319: (Sim:5h15m46s) 
CPU  0 inst: 1890000003 cyc: 1393027352 now IPC :1.36858: AVG IPC :1.35629: L2-Pf-HR :0.98816: L2-HR :0.92319: (Sim:5h15m52s) 
CPU  0 inst: 1891000003 cyc: 1393758955 now IPC :1.36686: AVG IPC :1.35630: L2-Pf-HR :0.98816: L2-HR :0.92319: (Sim:5h15m59s) 
CPU  0 inst: 1892000003 cyc: 1394492253 now IPC :1.36370: AVG IPC :1.35630: L2-Pf-HR :0.98816: L2-HR :0.92319: (Sim:5h16m5s) 
CPU  0 inst: 1893000001 cyc: 1395259296 now IPC :1.30371: AVG IPC :1.35627: L2-Pf-HR :0.98816: L2-HR :0.92319: (Sim:5h16m12s) 
CPU  0 inst: 1894000001 cyc: 1395990964 now IPC :1.36674: AVG IPC :1.35628: L2-Pf-HR :0.98816: L2-HR :0.92319: (Sim:5h16m18s) 
CPU  0 inst: 1895000001 cyc: 1396718338 now IPC :1.37481: AVG IPC :1.35629: L2-Pf-HR :0.98816: L2-HR :0.92319: (Sim:5h16m25s) 
CPU  0 inst: 1896000000 cyc: 1397448989 now IPC :1.36864: AVG IPC :1.35629: L2-Pf-HR :0.98816: L2-HR :0.92320: (Sim:5h16m31s) 
CPU  0 inst: 1897000001 cyc: 1398179833 now IPC :1.36828: AVG IPC :1.35630: L2-Pf-HR :0.98817: L2-HR :0.92320: (Sim:5h16m38s) 
CPU  0 inst: 1898000003 cyc: 1398904360 now IPC :1.38021: AVG IPC :1.35631: L2-Pf-HR :0.98817: L2-HR :0.92320: (Sim:5h16m45s) 
CPU  0 inst: 1899000002 cyc: 1399701998 now IPC :1.25370: AVG IPC :1.35625: L2-Pf-HR :0.98817: L2-HR :0.92319: (Sim:5h16m52s) 
CPU  0 inst: 1900000002 cyc: 1400428509 now IPC :1.37644: AVG IPC :1.35627: L2-Pf-HR :0.98817: L2-HR :0.92320: (Sim:5h16m58s) 
CPU  0 inst: 1901000002 cyc: 1401154860 now IPC :1.37674: AVG IPC :1.35628: L2-Pf-HR :0.98817: L2-HR :0.92320: (Sim:5h17m5s) 
CPU  0 inst: 1902000002 cyc: 1401883275 now IPC :1.37284: AVG IPC :1.35628: L2-Pf-HR :0.98817: L2-HR :0.92320: (Sim:5h17m11s) 
CPU  0 inst: 1903000001 cyc: 1402611256 now IPC :1.37366: AVG IPC :1.35629: L2-Pf-HR :0.98817: L2-HR :0.92320: (Sim:5h17m18s) 
CPU  0 inst: 1904000000 cyc: 1403341025 now IPC :1.37030: AVG IPC :1.35630: L2-Pf-HR :0.98817: L2-HR :0.92320: (Sim:5h17m25s) 
CPU  0 inst: 1905000000 cyc: 1404107583 now IPC :1.30453: AVG IPC :1.35627: L2-Pf-HR :0.98817: L2-HR :0.92320: (Sim:5h17m31s) 
CPU  0 inst: 1906000000 cyc: 1404837156 now IPC :1.37066: AVG IPC :1.35628: L2-Pf-HR :0.98817: L2-HR :0.92321: (Sim:5h17m38s) 
CPU  0 inst: 1907000000 cyc: 1405567774 now IPC :1.36870: AVG IPC :1.35629: L2-Pf-HR :0.98818: L2-HR :0.92321: (Sim:5h17m44s) 
CPU  0 inst: 1908000000 cyc: 1406298819 now IPC :1.36790: AVG IPC :1.35629: L2-Pf-HR :0.98818: L2-HR :0.92321: (Sim:5h17m51s) 
CPU  0 inst: 1909000002 cyc: 1407027468 now IPC :1.37241: AVG IPC :1.35630: L2-Pf-HR :0.98818: L2-HR :0.92321: (Sim:5h17m57s) 
CPU  0 inst: 1910000004 cyc: 1407758413 now IPC :1.36809: AVG IPC :1.35631: L2-Pf-HR :0.98818: L2-HR :0.92321: (Sim:5h18m4s) 
CPU  0 inst: 1911000004 cyc: 1408561553 now IPC :1.24511: AVG IPC :1.35624: L2-Pf-HR :0.98818: L2-HR :0.92321: (Sim:5h18m11s) 
CPU  0 inst: 1912000000 cyc: 1409290067 now IPC :1.37265: AVG IPC :1.35625: L2-Pf-HR :0.98818: L2-HR :0.92321: (Sim:5h18m18s) 
CPU  0 inst: 1913000004 cyc: 1410018941 now IPC :1.37198: AVG IPC :1.35626: L2-Pf-HR :0.98818: L2-HR :0.92321: (Sim:5h18m24s) 
CPU  0 inst: 1914000003 cyc: 1410750310 now IPC :1.36730: AVG IPC :1.35627: L2-Pf-HR :0.98818: L2-HR :0.92322: (Sim:5h18m31s) 
CPU  0 inst: 1915000002 cyc: 1411478434 now IPC :1.37339: AVG IPC :1.35627: L2-Pf-HR :0.98818: L2-HR :0.92322: (Sim:5h18m37s) 
CPU  0 inst: 1916000002 cyc: 1412207703 now IPC :1.37124: AVG IPC :1.35628: L2-Pf-HR :0.98818: L2-HR :0.92322: (Sim:5h18m44s) 
CPU  0 inst: 1917000002 cyc: 1412972848 now IPC :1.30694: AVG IPC :1.35626: L2-Pf-HR :0.98819: L2-HR :0.92322: (Sim:5h18m50s) 
CPU  0 inst: 1918000002 cyc: 1413701558 now IPC :1.37229: AVG IPC :1.35626: L2-Pf-HR :0.98819: L2-HR :0.92322: (Sim:5h18m57s) 
CPU  0 inst: 1919000002 cyc: 1414429706 now IPC :1.37335: AVG IPC :1.35627: L2-Pf-HR :0.98819: L2-HR :0.92323: (Sim:5h19m4s) 
CPU  0 inst: 1920000000 cyc: 1415159005 now IPC :1.37118: AVG IPC :1.35628: L2-Pf-HR :0.98819: L2-HR :0.92323: (Sim:5h19m10s) 
CPU  0 inst: 1921000002 cyc: 1415887359 now IPC :1.37296: AVG IPC :1.35629: L2-Pf-HR :0.98819: L2-HR :0.92323: (Sim:5h19m17s) 
CPU  0 inst: 1922000000 cyc: 1416614921 now IPC :1.37445: AVG IPC :1.35630: L2-Pf-HR :0.98819: L2-HR :0.92323: (Sim:5h19m23s) 
CPU  0 inst: 1923000000 cyc: 1417374483 now IPC :1.31655: AVG IPC :1.35628: L2-Pf-HR :0.98819: L2-HR :0.92322: (Sim:5h19m30s) 
CPU  0 inst: 1924000001 cyc: 1418105677 now IPC :1.36763: AVG IPC :1.35628: L2-Pf-HR :0.98818: L2-HR :0.92320: (Sim:5h19m36s) 
CPU  0 inst: 1925000004 cyc: 1418834226 now IPC :1.37260: AVG IPC :1.35629: L2-Pf-HR :0.98817: L2-HR :0.92317: (Sim:5h19m42s) 
CPU  0 inst: 1926000003 cyc: 1419552048 now IPC :1.39310: AVG IPC :1.35631: L2-Pf-HR :0.98816: L2-HR :0.92314: (Sim:5h19m49s) 
CPU  0 inst: 1927000004 cyc: 1420363083 now IPC :1.23299: AVG IPC :1.35624: L2-Pf-HR :0.98815: L2-HR :0.92311: (Sim:5h19m56s) 
CPU  0 inst: 1928000000 cyc: 1421081686 now IPC :1.39158: AVG IPC :1.35626: L2-Pf-HR :0.98815: L2-HR :0.92311: (Sim:5h20m3s) 
CPU  0 inst: 1929000002 cyc: 1421802380 now IPC :1.38755: AVG IPC :1.35627: L2-Pf-HR :0.98815: L2-HR :0.92311: (Sim:5h20m9s) 
CPU  0 inst: 1930000001 cyc: 1422522174 now IPC :1.38928: AVG IPC :1.35629: L2-Pf-HR :0.98815: L2-HR :0.92311: (Sim:5h20m16s) 
CPU  0 inst: 1931000001 cyc: 1423243046 now IPC :1.38721: AVG IPC :1.35631: L2-Pf-HR :0.98815: L2-HR :0.92311: (Sim:5h20m23s) 
CPU  0 inst: 1932000000 cyc: 1423969301 now IPC :1.37693: AVG IPC :1.35632: L2-Pf-HR :0.98815: L2-HR :0.92311: (Sim:5h20m29s) 
CPU  0 inst: 1933000004 cyc: 1424742349 now IPC :1.29359: AVG IPC :1.35628: L2-Pf-HR :0.98815: L2-HR :0.92310: (Sim:5h20m36s) 
CPU  0 inst: 1934000005 cyc: 1425484266 now IPC :1.34786: AVG IPC :1.35628: L2-Pf-HR :0.98815: L2-HR :0.92310: (Sim:5h20m43s) 
CPU  0 inst: 1935000003 cyc: 1426224372 now IPC :1.35116: AVG IPC :1.35628: L2-Pf-HR :0.98815: L2-HR :0.92310: (Sim:5h20m49s) 
CPU  0 inst: 1936000000 cyc: 1426968661 now IPC :1.34356: AVG IPC :1.35627: L2-Pf-HR :0.98815: L2-HR :0.92310: (Sim:5h20m56s) 
CPU  0 inst: 1937000002 cyc: 1427714919 now IPC :1.34002: AVG IPC :1.35626: L2-Pf-HR :0.98815: L2-HR :0.92310: (Sim:5h21m3s) 
CPU  0 inst: 1938000001 cyc: 1428464743 now IPC :1.33364: AVG IPC :1.35625: L2-Pf-HR :0.98815: L2-HR :0.92309: (Sim:5h21m10s) 
CPU  0 inst: 1939000002 cyc: 1429281563 now IPC :1.22426: AVG IPC :1.35617: L2-Pf-HR :0.98814: L2-HR :0.92309: (Sim:5h21m17s) 
CPU  0 inst: 1940000002 cyc: 1430013385 now IPC :1.36645: AVG IPC :1.35618: L2-Pf-HR :0.98814: L2-HR :0.92309: (Sim:5h21m23s) 
CPU  0 inst: 1941000002 cyc: 1430742110 now IPC :1.37226: AVG IPC :1.35619: L2-Pf-HR :0.98815: L2-HR :0.92309: (Sim:5h21m30s) 
CPU  0 inst: 1942000001 cyc: 1431473066 now IPC :1.36807: AVG IPC :1.35619: L2-Pf-HR :0.98815: L2-HR :0.92309: (Sim:5h21m37s) 
CPU  0 inst: 1943000001 cyc: 1432203839 now IPC :1.36841: AVG IPC :1.35620: L2-Pf-HR :0.98815: L2-HR :0.92309: (Sim:5h21m43s) 
CPU  0 inst: 1944000000 cyc: 1432932837 now IPC :1.37174: AVG IPC :1.35621: L2-Pf-HR :0.98815: L2-HR :0.92309: (Sim:5h21m50s) 
CPU  0 inst: 1945000000 cyc: 1433694902 now IPC :1.31222: AVG IPC :1.35618: L2-Pf-HR :0.98815: L2-HR :0.92310: (Sim:5h21m56s) 
CPU  0 inst: 1946000000 cyc: 1434408752 now IPC :1.40085: AVG IPC :1.35621: L2-Pf-HR :0.98815: L2-HR :0.92310: (Sim:5h22m3s) 
CPU  0 inst: 1947000000 cyc: 1435122426 now IPC :1.40120: AVG IPC :1.35623: L2-Pf-HR :0.98815: L2-HR :0.92310: (Sim:5h22m9s) 
CPU  0 inst: 1948000005 cyc: 1435835816 now IPC :1.40176: AVG IPC :1.35625: L2-Pf-HR :0.98815: L2-HR :0.92310: (Sim:5h22m16s) 
CPU  0 inst: 1949000000 cyc: 1436550014 now IPC :1.40016: AVG IPC :1.35627: L2-Pf-HR :0.98816: L2-HR :0.92310: (Sim:5h22m22s) 
CPU  0 inst: 1950000002 cyc: 1437265770 now IPC :1.39713: AVG IPC :1.35629: L2-Pf-HR :0.98816: L2-HR :0.92310: (Sim:5h22m29s) 
CPU  0 inst: 1951000004 cyc: 1438058203 now IPC :1.26194: AVG IPC :1.35624: L2-Pf-HR :0.98816: L2-HR :0.92310: (Sim:5h22m36s) 
CPU  0 inst: 1952000000 cyc: 1438771752 now IPC :1.40144: AVG IPC :1.35626: L2-Pf-HR :0.98816: L2-HR :0.92310: (Sim:5h22m43s) 
CPU  0 inst: 1953000002 cyc: 1439486778 now IPC :1.39855: AVG IPC :1.35628: L2-Pf-HR :0.98816: L2-HR :0.92311: (Sim:5h22m49s) 
CPU  0 inst: 1954000004 cyc: 1440204079 now IPC :1.39412: AVG IPC :1.35630: L2-Pf-HR :0.98816: L2-HR :0.92311: (Sim:5h22m56s) 
CPU  0 inst: 1955000004 cyc: 1440922701 now IPC :1.39155: AVG IPC :1.35632: L2-Pf-HR :0.98816: L2-HR :0.92311: (Sim:5h23m2s) 
CPU  0 inst: 1956000002 cyc: 1441636428 now IPC :1.40109: AVG IPC :1.35634: L2-Pf-HR :0.98816: L2-HR :0.92311: (Sim:5h23m9s) 
CPU  0 inst: 1957000002 cyc: 1442397273 now IPC :1.31433: AVG IPC :1.35632: L2-Pf-HR :0.98816: L2-HR :0.92311: (Sim:5h23m16s) 
CPU  0 inst: 1958000002 cyc: 1443124628 now IPC :1.37484: AVG IPC :1.35633: L2-Pf-HR :0.98816: L2-HR :0.92312: (Sim:5h23m22s) 
CPU  0 inst: 1959000001 cyc: 1443851129 now IPC :1.37646: AVG IPC :1.35634: L2-Pf-HR :0.98817: L2-HR :0.92312: (Sim:5h23m29s) 
CPU  0 inst: 1960000000 cyc: 1444580522 now IPC :1.37100: AVG IPC :1.35635: L2-Pf-HR :0.98817: L2-HR :0.92312: (Sim:5h23m35s) 
CPU  0 inst: 1961000002 cyc: 1445308207 now IPC :1.37422: AVG IPC :1.35636: L2-Pf-HR :0.98817: L2-HR :0.92312: (Sim:5h23m42s) 
CPU  0 inst: 1962000000 cyc: 1446036280 now IPC :1.37349: AVG IPC :1.35636: L2-Pf-HR :0.98817: L2-HR :0.92312: (Sim:5h23m49s) 
CPU  0 inst: 1963000001 cyc: 1446832177 now IPC :1.25645: AVG IPC :1.35631: L2-Pf-HR :0.98817: L2-HR :0.92312: (Sim:5h23m56s) 
CPU  0 inst: 1964000003 cyc: 1447552101 now IPC :1.38904: AVG IPC :1.35633: L2-Pf-HR :0.98817: L2-HR :0.92312: (Sim:5h24m2s) 
CPU  0 inst: 1965000005 cyc: 1448270868 now IPC :1.39127: AVG IPC :1.35634: L2-Pf-HR :0.98817: L2-HR :0.92312: (Sim:5h24m9s) 
CPU  0 inst: 1966000000 cyc: 1448989360 now IPC :1.39180: AVG IPC :1.35636: L2-Pf-HR :0.98817: L2-HR :0.92312: (Sim:5h24m15s) 
CPU  0 inst: 1967000001 cyc: 1449710441 now IPC :1.38681: AVG IPC :1.35638: L2-Pf-HR :0.98817: L2-HR :0.92313: (Sim:5h24m22s) 
CPU  0 inst: 1968000000 cyc: 1450426812 now IPC :1.39592: AVG IPC :1.35640: L2-Pf-HR :0.98817: L2-HR :0.92313: (Sim:5h24m29s) 
CPU  0 inst: 1969000001 cyc: 1451187814 now IPC :1.31406: AVG IPC :1.35637: L2-Pf-HR :0.98817: L2-HR :0.92313: (Sim:5h24m35s) 
CPU  0 inst: 1970000003 cyc: 1451912752 now IPC :1.37943: AVG IPC :1.35638: L2-Pf-HR :0.98818: L2-HR :0.92313: (Sim:5h24m42s) 
CPU  0 inst: 1971000004 cyc: 1452636374 now IPC :1.38194: AVG IPC :1.35640: L2-Pf-HR :0.98818: L2-HR :0.92314: (Sim:5h24m48s) 
CPU  0 inst: 1972000004 cyc: 1453363022 now IPC :1.37618: AVG IPC :1.35641: L2-Pf-HR :0.98818: L2-HR :0.92314: (Sim:5h24m55s) 
CPU  0 inst: 1973000005 cyc: 1454086721 now IPC :1.38179: AVG IPC :1.35642: L2-Pf-HR :0.98818: L2-HR :0.92314: (Sim:5h25m2s) 
CPU  0 inst: 1974000005 cyc: 1454812464 now IPC :1.37790: AVG IPC :1.35643: L2-Pf-HR :0.98818: L2-HR :0.92314: (Sim:5h25m8s) 
CPU  0 inst: 1975000005 cyc: 1455612890 now IPC :1.24933: AVG IPC :1.35637: L2-Pf-HR :0.98818: L2-HR :0.92314: (Sim:5h25m15s) 
CPU  0 inst: 1976000000 cyc: 1456336055 now IPC :1.38280: AVG IPC :1.35639: L2-Pf-HR :0.98818: L2-HR :0.92314: (Sim:5h25m22s) 
Finished CPU 0 instr: 1974000000 cyc: 1455338794 AVG IPC: 1.35639 (Sim time: 5h25m22s)

ChampSim completed all CPUs

[ROI Statistics]
Core_0_instructions 1974000000
Core_0_cycles 1455338794
Core_0_IPC 1.35639

Core_0_branch_prediction_accuracy 99.93238
Core_0_branch_MPKI 0.00946
Core_0_average_ROB_occupancy_at_mispredict 455.44411

Core_0_L1D_total_access 410432119
Core_0_L1D_total_hit 372290412 L1D_total_Hit Ratio: 0.90707
Core_0_L1D_total_miss 38141707
Core_0_L1D_loads 391705643
Core_0_L1D_load_hit 353956118 L1D_load_Hit Ratio: 0.90363
Core_0_L1D_load_miss 37749525
Core_0_L1D_RFOs 17830191
Core_0_L1D_RFO_hit 17438009 L1D_RFO_Hit Ratio: 0.97800
Core_0_L1D_RFO_miss 392182
Core_0_L1D_prefetches 896285
Core_0_L1D_prefetch_hit 896285 L1D_prefetch_Hit Ratio: 1.00000
Core_0_L1D_prefetch_miss 0
Core_0_L1D_writebacks 0
Core_0_L1D_writeback_hit 0 L1D_writeback_Hit Ratio: -nan
Core_0_L1D_writeback_miss 0
Core_0_L1D_prefetch_requested 234821811
Core_0_L1D_prefetch_issued 129201371
Core_0_L1D_prefetch_useful 0 L1D_Useful Ratio: 0.00000
Core_0_L1D_prefetch_useless 0
Core_0_L1D_prefetch_late 0
Core_0_L1D_average_miss_latency 95.08679

Core_0_L1I_total_access 214725325
Core_0_L1I_total_hit 214699575 L1I_total_Hit Ratio: 0.99988
Core_0_L1I_total_miss 25750
Core_0_L1I_loads 214725325
Core_0_L1I_load_hit 214699575 L1I_load_Hit Ratio: 0.99988
Core_0_L1I_load_miss 25750
Core_0_L1I_RFOs 0
Core_0_L1I_RFO_hit 0 L1I_RFO_Hit Ratio: -nan
Core_0_L1I_RFO_miss 0
Core_0_L1I_prefetches 0
Core_0_L1I_prefetch_hit 0 L1I_prefetch_Hit Ratio: -nan
Core_0_L1I_prefetch_miss 0
Core_0_L1I_writebacks 0
Core_0_L1I_writeback_hit 0 L1I_writeback_Hit Ratio: -nan
Core_0_L1I_writeback_miss 0
Core_0_L1I_prefetch_requested 0
Core_0_L1I_prefetch_issued 0
Core_0_L1I_prefetch_useful 0 L1I_Useful Ratio: -nan
Core_0_L1I_prefetch_useless 0
Core_0_L1I_prefetch_late 0
Core_0_L1I_average_miss_latency 249.68217

Core_0_L2C_total_access 171934469
Core_0_L2C_total_hit 158719732 L2C_total_Hit Ratio: 0.92314
Core_0_L2C_total_miss 13214737
Core_0_L2C_loads 37775267
Core_0_L2C_load_hit 26018699 L2C_load_Hit Ratio: 0.68878
Core_0_L2C_load_miss 11756568
Core_0_L2C_RFOs 392182
Core_0_L2C_RFO_hit 389564 L2C_RFO_Hit Ratio: 0.99332
Core_0_L2C_RFO_miss 2618
Core_0_L2C_prefetches 122441249
Core_0_L2C_prefetch_hit 120994069 L2C_prefetch_Hit Ratio: 0.98818
Core_0_L2C_prefetch_miss 1447180
Core_0_L2C_writebacks 11325771
Core_0_L2C_writeback_hit 11317400 L2C_writeback_Hit Ratio: 0.99926
Core_0_L2C_writeback_miss 8371
Core_0_L2C_prefetch_requested 79893222
Core_0_L2C_prefetch_issued 1325037
Core_0_L2C_prefetch_useful 1447016 L2C_Useful Ratio: 1.09206
Core_0_L2C_prefetch_useless 633
Core_0_L2C_prefetch_late 74354
Core_0_L2C_average_miss_latency 248.69383

Core_0_LLC_total_access 25051146
Core_0_LLC_total_hit 15128185 LLC_total_Hit Ratio: 0.60389
Core_0_LLC_total_miss 9922961
Core_0_LLC_loads 11682214
Core_0_LLC_load_hit 2992107 LLC_load_Hit Ratio: 0.25612
Core_0_LLC_load_miss 8690107
Core_0_LLC_RFOs 2618
Core_0_LLC_RFO_hit 558 LLC_RFO_Hit Ratio: 0.21314
Core_0_LLC_RFO_miss 2060
Core_0_LLC_prefetches 2249162
Core_0_LLC_prefetch_hit 1104691 LLC_prefetch_Hit Ratio: 0.49116
Core_0_LLC_prefetch_miss 1144471
Core_0_LLC_writebacks 11117152
Core_0_LLC_writeback_hit 11030829 LLC_writeback_Hit Ratio: 0.99224
Core_0_LLC_writeback_miss 86323
Core_0_LLC_prefetch_requested 0
Core_0_LLC_prefetch_issued 0
Core_0_LLC_prefetch_useful 294093 LLC_Useful Ratio: inf
Core_0_LLC_prefetch_useless 846190
Core_0_LLC_prefetch_late 16931
Core_0_LLC_average_miss_latency 280.69016

Core_0_major_page_fault 0
Core_0_minor_page_fault 17949

CPU 0 L1D next line prefetcher final stats
Prefetcher final stats
Training Unit Size: 2876
Addr table size: 1079769 1079769


Triggers: 11775473
No Prediction: 1180457 10.02471
Stream end: 814619
No translation: 749204556 6362.41581
Predictions: 1325037 11.25252


Stream divergence: 219608 1.86496
Stream divergence -- new stream: 0
Channel_0_RQ_row_buffer_hit 6188724
Channel_0_RQ_row_buffer_miss 3647883
Channel_0_WQ_row_buffer_hit 2059246
Channel_0_WQ_row_buffer_miss 6328656
Channel_0_WQ_full 0
Channel_0_dbus_congested 3665499

avg_congested_cycle 8

EzSearch AVG IPC :1.35639: L2-Pf-HR :0.98818 : L2-HR :0.92314 Uful:1.09206
     > Finished combination: TraceType=770-tot Sim:1974000000 Prefetcher=L2isb_ideal L1=isb_ideal
