TRACE: [496000000][OPT-125M]_[h12][s1024][d64] Warmup: 2000000 NumTraces: 496000000
L1:next_line:L2:029-SecTOP-L2-MultiMarkovDelta_ip_stride_v4-IPStrS256
*************************************************
   ChampSim Multicore Out-of-Order Simulator
   Last compiled: Oct 31 2024 09:05:20
*************************************************

trace_0 770-tot_memTraces_v5/130-subBillion_s1024_LLM_Arch/memTraces[496000000][OPT-125M]_[h12][s1024][d64].champsim.9.xz
CPU 0 L1D next line prefetcher
MK1: Size: 128 TMAX: 64 TMIN: 32 MKPTHRESH: 40
MK2: Size: 256 TMAX: 32 TMIN: 16 MK2PTHRESH: 30
MK3: Size: 384 TMAX: 16 TMIN: 8 MK3PTHRESH: 25
MK4: Size: 512 TMAX: 8 TMIN: 0 MK4PTHRESH: 20
Stride Size: 256 Prefetch Degree: 15

CPU 0 L2C prefetcher
MAIN.cc ln 751 stats print skipped
CPU 0 L2C prefetcher initialized


Cache Size: 1280
number of cache lines: 20480
CPU  0 inst:    1000002 cyc:     507096 now IPC :1.97202: AVG IPC :1.97202: L2-Pf-HR :0.88472: L2-HR :0.85467: (Sim:0h0m15s) 
CPU  0 inst:    2000000 cyc:     997050 now IPC :2.04100: AVG IPC :2.00592: L2-Pf-HR :0.91062: L2-HR :0.88575: (Sim:0h0m30s) 

Warmup complete CPU  0 instructions:    2000002 cycles:     997051 (Simulation time: 0 hr 0 min 30 sec) 

CPU  0 inst:    3000005 cyc:    1523951 now IPC :1.89790: AVG IPC :1.89790: L2-Pf-HR :0.89206: L2-HR :0.86074: (Sim:0h0m43s) 
CPU  0 inst:    4000002 cyc:    2040195 now IPC :1.93706: AVG IPC :1.91728: L2-Pf-HR :0.88930: L2-HR :0.85855: (Sim:0h0m56s) 
CPU  0 inst:    5000005 cyc:    2557498 now IPC :1.93311: AVG IPC :1.92253: L2-Pf-HR :0.88886: L2-HR :0.85836: (Sim:0h1m9s) 
CPU  0 inst:    6000002 cyc:    3077398 now IPC :1.92344: AVG IPC :1.92276: L2-Pf-HR :0.89361: L2-HR :0.86210: (Sim:0h1m21s) 
CPU  0 inst:    7000005 cyc:    3697783 now IPC :1.61191: AVG IPC :1.85135: L2-Pf-HR :0.88698: L2-HR :0.85688: (Sim:0h1m35s) 
CPU  0 inst:    8000000 cyc:    4192597 now IPC :2.02095: AVG IPC :1.87761: L2-Pf-HR :0.88647: L2-HR :0.85697: (Sim:0h1m47s) 
CPU  0 inst:    9000005 cyc:    4688262 now IPC :2.01750: AVG IPC :1.89640: L2-Pf-HR :0.88603: L2-HR :0.85681: (Sim:0h2m0s) 
CPU  0 inst:   10000000 cyc:    5182642 now IPC :2.02273: AVG IPC :1.91132: L2-Pf-HR :0.88629: L2-HR :0.85741: (Sim:0h2m11s) 
CPU  0 inst:   11000003 cyc:    5676372 now IPC :2.02540: AVG IPC :1.92336: L2-Pf-HR :0.88708: L2-HR :0.85828: (Sim:0h2m24s) 
CPU  0 inst:   12000000 cyc:    6174229 now IPC :2.00860: AVG IPC :1.93155: L2-Pf-HR :0.89022: L2-HR :0.86110: (Sim:0h2m36s) 
CPU  0 inst:   13000005 cyc:    6758077 now IPC :1.71278: AVG IPC :1.90938: L2-Pf-HR :0.89105: L2-HR :0.86459: (Sim:0h2m50s) 
CPU  0 inst:   14000005 cyc:    7234008 now IPC :2.10115: AVG IPC :1.92402: L2-Pf-HR :0.89557: L2-HR :0.87214: (Sim:0h2m57s) 
CPU  0 inst:   15000003 cyc:    7717092 now IPC :2.07003: AVG IPC :1.93451: L2-Pf-HR :0.89940: L2-HR :0.87852: (Sim:0h3m4s) 
CPU  0 inst:   16000000 cyc:    8195807 now IPC :2.08892: AVG IPC :1.94478: L2-Pf-HR :0.90459: L2-HR :0.88548: (Sim:0h3m11s) 
CPU  0 inst:   17000000 cyc:    8877163 now IPC :1.46766: AVG IPC :1.90353: L2-Pf-HR :0.90323: L2-HR :0.88380: (Sim:0h3m18s) 
CPU  0 inst:   18000000 cyc:    9408823 now IPC :1.88090: AVG IPC :1.90210: L2-Pf-HR :0.90268: L2-HR :0.88256: (Sim:0h3m25s) 
CPU  0 inst:   19000000 cyc:    9937408 now IPC :1.89184: AVG IPC :1.90149: L2-Pf-HR :0.90205: L2-HR :0.88134: (Sim:0h3m36s) 
CPU  0 inst:   20000005 cyc:   10462070 now IPC :1.90600: AVG IPC :1.90174: L2-Pf-HR :0.90144: L2-HR :0.88025: (Sim:0h3m49s) 
CPU  0 inst:   21000002 cyc:   10990146 now IPC :1.89366: AVG IPC :1.90131: L2-Pf-HR :0.90113: L2-HR :0.87947: (Sim:0h4m3s) 
CPU  0 inst:   22000002 cyc:   11513785 now IPC :1.90971: AVG IPC :1.90173: L2-Pf-HR :0.90164: L2-HR :0.87943: (Sim:0h4m13s) 
CPU  0 inst:   23000002 cyc:   12166163 now IPC :1.53285: AVG IPC :1.88019: L2-Pf-HR :0.90003: L2-HR :0.87769: (Sim:0h4m20s) 
CPU  0 inst:   24000000 cyc:   12667970 now IPC :1.99279: AVG IPC :1.88503: L2-Pf-HR :0.89936: L2-HR :0.87683: (Sim:0h4m32s) 
CPU  0 inst:   25000003 cyc:   13168227 now IPC :1.99898: AVG IPC :1.88971: L2-Pf-HR :0.89868: L2-HR :0.87605: (Sim:0h4m43s) 
CPU  0 inst:   26000004 cyc:   13662475 now IPC :2.02328: AVG IPC :1.89492: L2-Pf-HR :0.89815: L2-HR :0.87536: (Sim:0h4m56s) 
CPU  0 inst:   27000002 cyc:   14161026 now IPC :2.00581: AVG IPC :1.89912: L2-Pf-HR :0.89772: L2-HR :0.87485: (Sim:0h5m9s) 
CPU  0 inst:   28000000 cyc:   14655887 now IPC :2.02077: AVG IPC :1.90353: L2-Pf-HR :0.89802: L2-HR :0.87489: (Sim:0h5m22s) 
CPU  0 inst:   29000002 cyc:   15244681 now IPC :1.69839: AVG IPC :1.89505: L2-Pf-HR :0.89812: L2-HR :0.87559: (Sim:0h5m35s) 
CPU  0 inst:   30000004 cyc:   15725483 now IPC :2.07986: AVG IPC :1.90109: L2-Pf-HR :0.89967: L2-HR :0.87827: (Sim:0h5m42s) 
CPU  0 inst:   31000001 cyc:   16199654 now IPC :2.10894: AVG IPC :1.90757: L2-Pf-HR :0.90118: L2-HR :0.88086: (Sim:0h5m55s) 
CPU  0 inst:   32000000 cyc:   16674807 now IPC :2.10458: AVG IPC :1.91354: L2-Pf-HR :0.90330: L2-HR :0.88382: (Sim:0h6m8s) 
CPU  0 inst:   33000003 cyc:   17332221 now IPC :1.52112: AVG IPC :1.89775: L2-Pf-HR :0.90309: L2-HR :0.88360: (Sim:0h6m22s) 
CPU  0 inst:   34000000 cyc:   17866604 now IPC :1.87131: AVG IPC :1.89691: L2-Pf-HR :0.90273: L2-HR :0.88293: (Sim:0h6m35s) 
CPU  0 inst:   35000005 cyc:   18394441 now IPC :1.89453: AVG IPC :1.89684: L2-Pf-HR :0.90239: L2-HR :0.88232: (Sim:0h6m48s) 
CPU  0 inst:   36000000 cyc:   18920629 now IPC :1.90045: AVG IPC :1.89694: L2-Pf-HR :0.90214: L2-HR :0.88180: (Sim:0h7m1s) 
CPU  0 inst:   37000004 cyc:   19449079 now IPC :1.89233: AVG IPC :1.89681: L2-Pf-HR :0.90193: L2-HR :0.88133: (Sim:0h7m14s) 
CPU  0 inst:   38000002 cyc:   19976614 now IPC :1.89561: AVG IPC :1.89678: L2-Pf-HR :0.90206: L2-HR :0.88114: (Sim:0h7m27s) 
CPU  0 inst:   39000001 cyc:   20632054 now IPC :1.52569: AVG IPC :1.88439: L2-Pf-HR :0.90135: L2-HR :0.88024: (Sim:0h7m40s) 
CPU  0 inst:   40000000 cyc:   21138228 now IPC :1.97560: AVG IPC :1.88668: L2-Pf-HR :0.90106: L2-HR :0.87977: (Sim:0h7m51s) 
CPU  0 inst:   41000001 cyc:   21638151 now IPC :2.00031: AVG IPC :1.88943: L2-Pf-HR :0.90071: L2-HR :0.87926: (Sim:0h8m0s) 
CPU  0 inst:   42000000 cyc:   22138015 now IPC :2.00054: AVG IPC :1.89206: L2-Pf-HR :0.90041: L2-HR :0.87884: (Sim:0h8m8s) 
CPU  0 inst:   43000005 cyc:   22634850 now IPC :2.01275: AVG IPC :1.89483: L2-Pf-HR :0.90019: L2-HR :0.87846: (Sim:0h8m17s) 
CPU  0 inst:   44000000 cyc:   23131729 now IPC :2.01255: AVG IPC :1.89748: L2-Pf-HR :0.90030: L2-HR :0.87837: (Sim:0h8m25s) 
CPU  0 inst:   45000000 cyc:   23727106 now IPC :1.67961: AVG IPC :1.89177: L2-Pf-HR :0.90029: L2-HR :0.87853: (Sim:0h8m35s) 
CPU  0 inst:   46000000 cyc:   24214999 now IPC :2.04963: AVG IPC :1.89509: L2-Pf-HR :0.90110: L2-HR :0.88004: (Sim:0h8m48s) 
CPU  0 inst:   47000001 cyc:   24691269 now IPC :2.09965: AVG IPC :1.89920: L2-Pf-HR :0.90208: L2-HR :0.88170: (Sim:0h9m1s) 
CPU  0 inst:   48000000 cyc:   25168831 now IPC :2.09397: AVG IPC :1.90305: L2-Pf-HR :0.90335: L2-HR :0.88353: (Sim:0h9m13s) 
CPU  0 inst:   49000000 cyc:   25817888 now IPC :1.54070: AVG IPC :1.89357: L2-Pf-HR :0.90346: L2-HR :0.88374: (Sim:0h9m27s) 
CPU  0 inst:   50000000 cyc:   26349810 now IPC :1.87997: AVG IPC :1.89329: L2-Pf-HR :0.90325: L2-HR :0.88332: (Sim:0h9m40s) 
CPU  0 inst:   51000000 cyc:   26880363 now IPC :1.88483: AVG IPC :1.89311: L2-Pf-HR :0.90303: L2-HR :0.88288: (Sim:0h9m54s) 
CPU  0 inst:   52000000 cyc:   27408820 now IPC :1.89230: AVG IPC :1.89310: L2-Pf-HR :0.90285: L2-HR :0.88251: (Sim:0h10m1s) 
CPU  0 inst:   53000005 cyc:   27941353 now IPC :1.87783: AVG IPC :1.89279: L2-Pf-HR :0.90264: L2-HR :0.88211: (Sim:0h10m10s) 
CPU  0 inst:   54000005 cyc:   28465115 now IPC :1.90926: AVG IPC :1.89311: L2-Pf-HR :0.90264: L2-HR :0.88189: (Sim:0h10m23s) 
CPU  0 inst:   55000005 cyc:   29112750 now IPC :1.54408: AVG IPC :1.88507: L2-Pf-HR :0.90220: L2-HR :0.88127: (Sim:0h10m36s) 
CPU  0 inst:   56000000 cyc:   29621637 now IPC :1.96506: AVG IPC :1.88649: L2-Pf-HR :0.90187: L2-HR :0.88083: (Sim:0h10m49s) 
CPU  0 inst:   57000000 cyc:   30119595 now IPC :2.00820: AVG IPC :1.88857: L2-Pf-HR :0.90159: L2-HR :0.88046: (Sim:0h11m2s) 
CPU  0 inst:   58000001 cyc:   30614389 now IPC :2.02105: AVG IPC :1.89078: L2-Pf-HR :0.90135: L2-HR :0.88011: (Sim:0h11m15s) 
CPU  0 inst:   59000003 cyc:   31111372 now IPC :2.01215: AVG IPC :1.89279: L2-Pf-HR :0.90110: L2-HR :0.87979: (Sim:0h11m28s) 
CPU  0 inst:   60000003 cyc:   31607208 now IPC :2.01680: AVG IPC :1.89480: L2-Pf-HR :0.90104: L2-HR :0.87961: (Sim:0h11m41s) 
CPU  0 inst:   61000005 cyc:   32200967 now IPC :1.68419: AVG IPC :1.89079: L2-Pf-HR :0.90105: L2-HR :0.87963: (Sim:0h11m54s) 
CPU  0 inst:   62000001 cyc:   32691203 now IPC :2.03983: AVG IPC :1.89309: L2-Pf-HR :0.90162: L2-HR :0.88071: (Sim:0h12m7s) 
CPU  0 inst:   63000005 cyc:   33170249 now IPC :2.08749: AVG IPC :1.89599: L2-Pf-HR :0.90229: L2-HR :0.88187: (Sim:0h12m20s) 
CPU  0 inst:   64000000 cyc:   33650349 now IPC :2.08289: AVG IPC :1.89874: L2-Pf-HR :0.90315: L2-HR :0.88316: (Sim:0h12m33s) 
CPU  0 inst:   65000000 cyc:   34292982 now IPC :1.55610: AVG IPC :1.89212: L2-Pf-HR :0.90346: L2-HR :0.88360: (Sim:0h12m46s) 
CPU  0 inst:   66000001 cyc:   34833930 now IPC :1.84861: AVG IPC :1.89143: L2-Pf-HR :0.90322: L2-HR :0.88322: (Sim:0h12m59s) 
CPU  0 inst:   67000000 cyc:   35358727 now IPC :1.90550: AVG IPC :1.89164: L2-Pf-HR :0.90303: L2-HR :0.88290: (Sim:0h13m13s) 
CPU  0 inst:   68000003 cyc:   35886274 now IPC :1.89557: AVG IPC :1.89170: L2-Pf-HR :0.90292: L2-HR :0.88265: (Sim:0h13m26s) 
CPU  0 inst:   69000003 cyc:   36408807 now IPC :1.91375: AVG IPC :1.89203: L2-Pf-HR :0.90274: L2-HR :0.88234: (Sim:0h13m39s) 
CPU  0 inst:   70000001 cyc:   36937279 now IPC :1.89224: AVG IPC :1.89203: L2-Pf-HR :0.90270: L2-HR :0.88215: (Sim:0h13m52s) 
CPU  0 inst:   71000003 cyc:   37579568 now IPC :1.55693: AVG IPC :1.88615: L2-Pf-HR :0.90249: L2-HR :0.88179: (Sim:0h14m5s) 
CPU  0 inst:   72000000 cyc:   38103269 now IPC :1.90948: AVG IPC :1.88648: L2-Pf-HR :0.90227: L2-HR :0.88150: (Sim:0h14m18s) 
CPU  0 inst:   73000000 cyc:   38603629 now IPC :1.99856: AVG IPC :1.88797: L2-Pf-HR :0.90207: L2-HR :0.88121: (Sim:0h14m31s) 
CPU  0 inst:   74000005 cyc:   39102581 now IPC :2.00421: AVG IPC :1.88949: L2-Pf-HR :0.90188: L2-HR :0.88096: (Sim:0h14m44s) 
CPU  0 inst:   75000000 cyc:   39597384 now IPC :2.02100: AVG IPC :1.89118: L2-Pf-HR :0.90176: L2-HR :0.88077: (Sim:0h14m57s) 
CPU  0 inst:   76000001 cyc:   40094704 now IPC :2.01078: AVG IPC :1.89270: L2-Pf-HR :0.90168: L2-HR :0.88060: (Sim:0h15m10s) 
CPU  0 inst:   77000000 cyc:   40677364 now IPC :1.71627: AVG IPC :1.89011: L2-Pf-HR :0.90166: L2-HR :0.88051: (Sim:0h15m23s) 
CPU  0 inst:   78000005 cyc:   41170773 now IPC :2.02673: AVG IPC :1.89178: L2-Pf-HR :0.90203: L2-HR :0.88129: (Sim:0h15m36s) 
CPU  0 inst:   79000002 cyc:   41651494 now IPC :2.08020: AVG IPC :1.89401: L2-Pf-HR :0.90258: L2-HR :0.88222: (Sim:0h15m49s) 
CPU  0 inst:   80000000 cyc:   42130933 now IPC :2.08577: AVG IPC :1.89625: L2-Pf-HR :0.90320: L2-HR :0.88319: (Sim:0h16m2s) 
CPU  0 inst:   81000003 cyc:   42745849 now IPC :1.62624: AVG IPC :1.89227: L2-Pf-HR :0.90359: L2-HR :0.88375: (Sim:0h16m15s) 
CPU  0 inst:   82000001 cyc:   43290234 now IPC :1.83693: AVG IPC :1.89156: L2-Pf-HR :0.90340: L2-HR :0.88345: (Sim:0h16m29s) 
CPU  0 inst:   83000004 cyc:   43820494 now IPC :1.88587: AVG IPC :1.89149: L2-Pf-HR :0.90326: L2-HR :0.88319: (Sim:0h16m42s) 
CPU  0 inst:   84000000 cyc:   44346957 now IPC :1.89946: AVG IPC :1.89158: L2-Pf-HR :0.90316: L2-HR :0.88297: (Sim:0h16m55s) 
CPU  0 inst:   85000001 cyc:   44872615 now IPC :1.90238: AVG IPC :1.89171: L2-Pf-HR :0.90303: L2-HR :0.88272: (Sim:0h17m8s) 
CPU  0 inst:   86000005 cyc:   45399168 now IPC :1.89915: AVG IPC :1.89180: L2-Pf-HR :0.90297: L2-HR :0.88253: (Sim:0h17m22s) 
CPU  0 inst:   87000001 cyc:   46013074 now IPC :1.62891: AVG IPC :1.88822: L2-Pf-HR :0.90294: L2-HR :0.88234: (Sim:0h17m35s) 
CPU  0 inst:   88000000 cyc:   46574535 now IPC :1.78107: AVG IPC :1.88690: L2-Pf-HR :0.90267: L2-HR :0.88201: (Sim:0h17m49s) 
CPU  0 inst:   89000004 cyc:   47073790 now IPC :2.00299: AVG IPC :1.88815: L2-Pf-HR :0.90248: L2-HR :0.88177: (Sim:0h18m1s) 
CPU  0 inst:   90000002 cyc:   47570375 now IPC :2.01375: AVG IPC :1.88949: L2-Pf-HR :0.90234: L2-HR :0.88155: (Sim:0h18m14s) 
CPU  0 inst:   91000001 cyc:   48066763 now IPC :2.01455: AVG IPC :1.89081: L2-Pf-HR :0.90221: L2-HR :0.88136: (Sim:0h18m24s) 
CPU  0 inst:   92000001 cyc:   48562504 now IPC :2.01718: AVG IPC :1.89213: L2-Pf-HR :0.90212: L2-HR :0.88120: (Sim:0h18m36s) 
CPU  0 inst:   93000001 cyc:   49133424 now IPC :1.75156: AVG IPC :1.89046: L2-Pf-HR :0.90214: L2-HR :0.88111: (Sim:0h18m49s) 
CPU  0 inst:   94000002 cyc:   49649171 now IPC :1.93894: AVG IPC :1.89098: L2-Pf-HR :0.90239: L2-HR :0.88168: (Sim:0h19m3s) 
CPU  0 inst:   95000002 cyc:   50128292 now IPC :2.08716: AVG IPC :1.89289: L2-Pf-HR :0.90283: L2-HR :0.88245: (Sim:0h19m16s) 
CPU  0 inst:   96000000 cyc:   50612425 now IPC :2.06554: AVG IPC :1.89457: L2-Pf-HR :0.90330: L2-HR :0.88321: (Sim:0h19m29s) 
CPU  0 inst:   97000001 cyc:   51173862 now IPC :1.78115: AVG IPC :1.89330: L2-Pf-HR :0.90383: L2-HR :0.88392: (Sim:0h19m42s) 
CPU  0 inst:   98000001 cyc:   51773439 now IPC :1.66784: AVG IPC :1.89064: L2-Pf-HR :0.90360: L2-HR :0.88361: (Sim:0h19m56s) 
CPU  0 inst:   99000000 cyc:   52304620 now IPC :1.88260: AVG IPC :1.89056: L2-Pf-HR :0.90350: L2-HR :0.88342: (Sim:0h20m9s) 
CPU  0 inst:  100000003 cyc:   52833072 now IPC :1.89233: AVG IPC :1.89058: L2-Pf-HR :0.90341: L2-HR :0.88322: (Sim:0h20m23s) 
CPU  0 inst:  101000000 cyc:   53359766 now IPC :1.89863: AVG IPC :1.89066: L2-Pf-HR :0.90331: L2-HR :0.88304: (Sim:0h20m36s) 
CPU  0 inst:  102000002 cyc:   53888363 now IPC :1.89180: AVG IPC :1.89067: L2-Pf-HR :0.90323: L2-HR :0.88286: (Sim:0h20m49s) 
CPU  0 inst:  103000001 cyc:   54412847 now IPC :1.90663: AVG IPC :1.89083: L2-Pf-HR :0.90334: L2-HR :0.88284: (Sim:0h21m2s) 
CPU  0 inst:  104000000 cyc:   55055824 now IPC :1.55526: AVG IPC :1.88684: L2-Pf-HR :0.90299: L2-HR :0.88243: (Sim:0h21m16s) 
CPU  0 inst:  105000000 cyc:   55554006 now IPC :2.00730: AVG IPC :1.88794: L2-Pf-HR :0.90283: L2-HR :0.88221: (Sim:0h21m29s) 
CPU  0 inst:  106000002 cyc:   56055999 now IPC :1.99206: AVG IPC :1.88888: L2-Pf-HR :0.90270: L2-HR :0.88202: (Sim:0h21m42s) 
CPU  0 inst:  107000003 cyc:   56552163 now IPC :2.01546: AVG IPC :1.89002: L2-Pf-HR :0.90257: L2-HR :0.88183: (Sim:0h21m55s) 
CPU  0 inst:  108000003 cyc:   57049714 now IPC :2.00984: AVG IPC :1.89108: L2-Pf-HR :0.90247: L2-HR :0.88167: (Sim:0h22m8s) 
CPU  0 inst:  109000001 cyc:   57546894 now IPC :2.01134: AVG IPC :1.89214: L2-Pf-HR :0.90258: L2-HR :0.88166: (Sim:0h22m21s) 
CPU  0 inst:  110000003 cyc:   58142000 now IPC :1.68038: AVG IPC :1.88993: L2-Pf-HR :0.90263: L2-HR :0.88195: (Sim:0h22m35s) 
CPU  0 inst:  111000000 cyc:   58628600 now IPC :2.05507: AVG IPC :1.89133: L2-Pf-HR :0.90301: L2-HR :0.88260: (Sim:0h22m48s) 
CPU  0 inst:  112000000 cyc:   59104323 now IPC :2.10206: AVG IPC :1.89305: L2-Pf-HR :0.90338: L2-HR :0.88323: (Sim:0h23m1s) 
CPU  0 inst:  113000001 cyc:   59580026 now IPC :2.10215: AVG IPC :1.89475: L2-Pf-HR :0.90403: L2-HR :0.88408: (Sim:0h23m13s) 
CPU  0 inst:  114000001 cyc:   60259032 now IPC :1.47274: AVG IPC :1.88991: L2-Pf-HR :0.90372: L2-HR :0.88370: (Sim:0h23m27s) 
CPU  0 inst:  115000003 cyc:   60793797 now IPC :1.86998: AVG IPC :1.88973: L2-Pf-HR :0.90366: L2-HR :0.88353: (Sim:0h23m40s) 
CPU  0 inst:  116000001 cyc:   61325134 now IPC :1.88204: AVG IPC :1.88967: L2-Pf-HR :0.90356: L2-HR :0.88336: (Sim:0h23m53s) 
CPU  0 inst:  117000001 cyc:   61854247 now IPC :1.88996: AVG IPC :1.88967: L2-Pf-HR :0.90349: L2-HR :0.88319: (Sim:0h24m6s) 
CPU  0 inst:  118000001 cyc:   62379741 now IPC :1.90297: AVG IPC :1.88978: L2-Pf-HR :0.90342: L2-HR :0.88305: (Sim:0h24m19s) 
CPU  0 inst:  119000003 cyc:   62901912 now IPC :1.91509: AVG IPC :1.89000: L2-Pf-HR :0.90356: L2-HR :0.88305: (Sim:0h24m32s) 
CPU  0 inst:  120000000 cyc:   63551753 now IPC :1.53883: AVG IPC :1.88635: L2-Pf-HR :0.90323: L2-HR :0.88269: (Sim:0h24m46s) 
CPU  0 inst:  121000000 cyc:   64051723 now IPC :2.00012: AVG IPC :1.88725: L2-Pf-HR :0.90308: L2-HR :0.88250: (Sim:0h24m59s) 
CPU  0 inst:  122000005 cyc:   64547563 now IPC :2.01679: AVG IPC :1.88826: L2-Pf-HR :0.90296: L2-HR :0.88233: (Sim:0h25m12s) 
CPU  0 inst:  123000001 cyc:   65043364 now IPC :2.01693: AVG IPC :1.88926: L2-Pf-HR :0.90286: L2-HR :0.88219: (Sim:0h25m26s) 
CPU  0 inst:  124000002 cyc:   65538991 now IPC :2.01765: AVG IPC :1.89024: L2-Pf-HR :0.90277: L2-HR :0.88206: (Sim:0h25m39s) 
CPU  0 inst:  125000001 cyc:   66033962 now IPC :2.02032: AVG IPC :1.89123: L2-Pf-HR :0.90288: L2-HR :0.88206: (Sim:0h25m52s) 
CPU  0 inst:  126000000 cyc:   66628455 now IPC :1.68210: AVG IPC :1.88934: L2-Pf-HR :0.90287: L2-HR :0.88223: (Sim:0h26m6s) 
CPU  0 inst:  127000002 cyc:   67114913 now IPC :2.05568: AVG IPC :1.89056: L2-Pf-HR :0.90318: L2-HR :0.88278: (Sim:0h26m19s) 
CPU  0 inst:  128000000 cyc:   67592805 now IPC :2.09252: AVG IPC :1.89201: L2-Pf-HR :0.90351: L2-HR :0.88334: (Sim:0h26m32s) 
CPU  0 inst:  129000003 cyc:   68068886 now IPC :2.10049: AVG IPC :1.89349: L2-Pf-HR :0.90404: L2-HR :0.88405: (Sim:0h26m44s) 
CPU  0 inst:  130000004 cyc:   68745992 now IPC :1.47688: AVG IPC :1.88933: L2-Pf-HR :0.90386: L2-HR :0.88383: (Sim:0h26m59s) 
CPU  0 inst:  131000005 cyc:   69275345 now IPC :1.88910: AVG IPC :1.88933: L2-Pf-HR :0.90376: L2-HR :0.88367: (Sim:0h27m12s) 
CPU  0 inst:  132000000 cyc:   69799315 now IPC :1.90850: AVG IPC :1.88947: L2-Pf-HR :0.90366: L2-HR :0.88350: (Sim:0h27m24s) 
CPU  0 inst:  133000004 cyc:   70328116 now IPC :1.89108: AVG IPC :1.88948: L2-Pf-HR :0.90360: L2-HR :0.88337: (Sim:0h27m38s) 
CPU  0 inst:  134000005 cyc:   70854840 now IPC :1.89853: AVG IPC :1.88955: L2-Pf-HR :0.90350: L2-HR :0.88320: (Sim:0h27m51s) 
CPU  0 inst:  135000003 cyc:   71384528 now IPC :1.88790: AVG IPC :1.88954: L2-Pf-HR :0.90356: L2-HR :0.88317: (Sim:0h28m4s) 
CPU  0 inst:  136000000 cyc:   72031167 now IPC :1.54645: AVG IPC :1.88642: L2-Pf-HR :0.90329: L2-HR :0.88286: (Sim:0h28m18s) 
CPU  0 inst:  137000004 cyc:   72530492 now IPC :2.00271: AVG IPC :1.88723: L2-Pf-HR :0.90317: L2-HR :0.88269: (Sim:0h28m31s) 
CPU  0 inst:  138000002 cyc:   73029731 now IPC :2.00304: AVG IPC :1.88803: L2-Pf-HR :0.90308: L2-HR :0.88255: (Sim:0h28m45s) 
CPU  0 inst:  139000003 cyc:   73526706 now IPC :2.01218: AVG IPC :1.88888: L2-Pf-HR :0.90300: L2-HR :0.88242: (Sim:0h28m59s) 
CPU  0 inst:  140000001 cyc:   74025069 now IPC :2.00657: AVG IPC :1.88969: L2-Pf-HR :0.90292: L2-HR :0.88229: (Sim:0h29m12s) 
CPU  0 inst:  141000000 cyc:   74519737 now IPC :2.02156: AVG IPC :1.89057: L2-Pf-HR :0.90298: L2-HR :0.88227: (Sim:0h29m25s) 
CPU  0 inst:  142000001 cyc:   75112311 now IPC :1.68755: AVG IPC :1.88895: L2-Pf-HR :0.90296: L2-HR :0.88236: (Sim:0h29m39s) 
CPU  0 inst:  143000004 cyc:   75588324 now IPC :2.10079: AVG IPC :1.89030: L2-Pf-HR :0.90322: L2-HR :0.88283: (Sim:0h29m53s) 
CPU  0 inst:  144000000 cyc:   76067610 now IPC :2.08643: AVG IPC :1.89155: L2-Pf-HR :0.90351: L2-HR :0.88333: (Sim:0h30m6s) 
CPU  0 inst:  145000000 cyc:   76545211 now IPC :2.09380: AVG IPC :1.89283: L2-Pf-HR :0.90394: L2-HR :0.88393: (Sim:0h30m19s) 
CPU  0 inst:  146000004 cyc:   77209407 now IPC :1.50559: AVG IPC :1.88946: L2-Pf-HR :0.90386: L2-HR :0.88384: (Sim:0h30m33s) 
CPU  0 inst:  147000001 cyc:   77741862 now IPC :1.87809: AVG IPC :1.88938: L2-Pf-HR :0.90377: L2-HR :0.88369: (Sim:0h30m42s) 
CPU  0 inst:  148000000 cyc:   78274224 now IPC :1.87842: AVG IPC :1.88930: L2-Pf-HR :0.90371: L2-HR :0.88357: (Sim:0h30m55s) 
CPU  0 inst:  149000004 cyc:   78803908 now IPC :1.88793: AVG IPC :1.88929: L2-Pf-HR :0.90363: L2-HR :0.88342: (Sim:0h31m8s) 
CPU  0 inst:  150000005 cyc:   79333713 now IPC :1.88749: AVG IPC :1.88928: L2-Pf-HR :0.90355: L2-HR :0.88329: (Sim:0h31m21s) 
CPU  0 inst:  151000003 cyc:   79857356 now IPC :1.90969: AVG IPC :1.88942: L2-Pf-HR :0.90357: L2-HR :0.88322: (Sim:0h31m34s) 
CPU  0 inst:  152000000 cyc:   80507490 now IPC :1.53814: AVG IPC :1.88654: L2-Pf-HR :0.90337: L2-HR :0.88297: (Sim:0h31m47s) 
CPU  0 inst:  153000002 cyc:   81008873 now IPC :1.99449: AVG IPC :1.88722: L2-Pf-HR :0.90326: L2-HR :0.88282: (Sim:0h32m0s) 
CPU  0 inst:  154000000 cyc:   81504987 now IPC :2.01566: AVG IPC :1.88801: L2-Pf-HR :0.90317: L2-HR :0.88269: (Sim:0h32m13s) 
CPU  0 inst:  155000003 cyc:   82002502 now IPC :2.01000: AVG IPC :1.88876: L2-Pf-HR :0.90310: L2-HR :0.88258: (Sim:0h32m25s) 
CPU  0 inst:  156000003 cyc:   82498517 now IPC :2.01607: AVG IPC :1.88954: L2-Pf-HR :0.90301: L2-HR :0.88246: (Sim:0h32m38s) 
CPU  0 inst:  157000003 cyc:   82992566 now IPC :2.02409: AVG IPC :1.89035: L2-Pf-HR :0.90304: L2-HR :0.88242: (Sim:0h32m51s) 
CPU  0 inst:  158000004 cyc:   83583411 now IPC :1.69249: AVG IPC :1.88893: L2-Pf-HR :0.90303: L2-HR :0.88246: (Sim:0h33m3s) 
CPU  0 inst:  159000002 cyc:   84062643 now IPC :2.08667: AVG IPC :1.89007: L2-Pf-HR :0.90325: L2-HR :0.88288: (Sim:0h33m15s) 
CPU  0 inst:  160000000 cyc:   84536815 now IPC :2.10894: AVG IPC :1.89131: L2-Pf-HR :0.90352: L2-HR :0.88333: (Sim:0h33m28s) 
CPU  0 inst:  161000003 cyc:   85010679 now IPC :2.11032: AVG IPC :1.89255: L2-Pf-HR :0.90387: L2-HR :0.88385: (Sim:0h33m41s) 
CPU  0 inst:  162000004 cyc:   85658677 now IPC :1.54322: AVG IPC :1.88988: L2-Pf-HR :0.90388: L2-HR :0.88387: (Sim:0h33m55s) 
CPU  0 inst:  163000002 cyc:   86192466 now IPC :1.87340: AVG IPC :1.88977: L2-Pf-HR :0.90380: L2-HR :0.88374: (Sim:0h34m9s) 
CPU  0 inst:  164000001 cyc:   86717673 now IPC :1.90401: AVG IPC :1.88986: L2-Pf-HR :0.90375: L2-HR :0.88363: (Sim:0h34m22s) 
CPU  0 inst:  165000001 cyc:   87244589 now IPC :1.89784: AVG IPC :1.88991: L2-Pf-HR :0.90368: L2-HR :0.88351: (Sim:0h34m36s) 
CPU  0 inst:  166000000 cyc:   87771334 now IPC :1.89845: AVG IPC :1.88996: L2-Pf-HR :0.90363: L2-HR :0.88339: (Sim:0h34m49s) 
CPU  0 inst:  167000000 cyc:   88294822 now IPC :1.91026: AVG IPC :1.89008: L2-Pf-HR :0.90364: L2-HR :0.88334: (Sim:0h35m2s) 
CPU  0 inst:  168000000 cyc:   88943797 now IPC :1.54089: AVG IPC :1.88751: L2-Pf-HR :0.90350: L2-HR :0.88315: (Sim:0h35m16s) 
CPU  0 inst:  169000000 cyc:   89450765 now IPC :1.97251: AVG IPC :1.88799: L2-Pf-HR :0.90339: L2-HR :0.88300: (Sim:0h35m30s) 
CPU  0 inst:  170000004 cyc:   89951253 now IPC :1.99806: AVG IPC :1.88861: L2-Pf-HR :0.90329: L2-HR :0.88287: (Sim:0h35m43s) 
CPU  0 inst:  171000000 cyc:   90445803 now IPC :2.02203: AVG IPC :1.88935: L2-Pf-HR :0.90320: L2-HR :0.88274: (Sim:0h35m54s) 
CPU  0 inst:  172000001 cyc:   90945817 now IPC :1.99995: AVG IPC :1.88996: L2-Pf-HR :0.90311: L2-HR :0.88262: (Sim:0h36m7s) 
CPU  0 inst:  173000004 cyc:   91441374 now IPC :2.01794: AVG IPC :1.89067: L2-Pf-HR :0.90309: L2-HR :0.88256: (Sim:0h36m17s) 
CPU  0 inst:  174000000 cyc:   92030233 now IPC :1.69819: AVG IPC :1.88942: L2-Pf-HR :0.90307: L2-HR :0.88254: (Sim:0h36m30s) 
CPU  0 inst:  175000000 cyc:   92516297 now IPC :2.05734: AVG IPC :1.89031: L2-Pf-HR :0.90327: L2-HR :0.88291: (Sim:0h36m42s) 
CPU  0 inst:  176000000 cyc:   92992704 now IPC :2.09905: AVG IPC :1.89139: L2-Pf-HR :0.90350: L2-HR :0.88331: (Sim:0h36m54s) 
CPU  0 inst:  177000001 cyc:   93471884 now IPC :2.08690: AVG IPC :1.89241: L2-Pf-HR :0.90379: L2-HR :0.88375: (Sim:0h37m7s) 
CPU  0 inst:  178000003 cyc:   94117861 now IPC :1.54805: AVG IPC :1.89002: L2-Pf-HR :0.90388: L2-HR :0.88389: (Sim:0h37m16s) 
CPU  0 inst:  179000005 cyc:   94652873 now IPC :1.86912: AVG IPC :1.88990: L2-Pf-HR :0.90382: L2-HR :0.88377: (Sim:0h37m28s) 
CPU  0 inst:  180000000 cyc:   95180972 now IPC :1.89357: AVG IPC :1.88992: L2-Pf-HR :0.90377: L2-HR :0.88367: (Sim:0h37m42s) 
CPU  0 inst:  181000004 cyc:   95706000 now IPC :1.90467: AVG IPC :1.89000: L2-Pf-HR :0.90371: L2-HR :0.88355: (Sim:0h37m55s) 
CPU  0 inst:  182000002 cyc:   96234630 now IPC :1.89168: AVG IPC :1.89001: L2-Pf-HR :0.90367: L2-HR :0.88345: (Sim:0h38m8s) 
CPU  0 inst:  183000000 cyc:   96765638 now IPC :1.88321: AVG IPC :1.88997: L2-Pf-HR :0.90366: L2-HR :0.88338: (Sim:0h38m20s) 
CPU  0 inst:  184000000 cyc:   97414873 now IPC :1.54027: AVG IPC :1.88762: L2-Pf-HR :0.90358: L2-HR :0.88324: (Sim:0h38m30s) 
CPU  0 inst:  185000001 cyc:   97931299 now IPC :1.93639: AVG IPC :1.88788: L2-Pf-HR :0.90348: L2-HR :0.88311: (Sim:0h38m39s) 
CPU  0 inst:  186000003 cyc:   98428138 now IPC :2.01273: AVG IPC :1.88851: L2-Pf-HR :0.90338: L2-HR :0.88298: (Sim:0h38m50s) 
CPU  0 inst:  187000003 cyc:   98920826 now IPC :2.02968: AVG IPC :1.88922: L2-Pf-HR :0.90332: L2-HR :0.88287: (Sim:0h39m1s) 
CPU  0 inst:  188000002 cyc:   99420701 now IPC :2.00050: AVG IPC :1.88979: L2-Pf-HR :0.90324: L2-HR :0.88276: (Sim:0h39m11s) 
CPU  0 inst:  189000002 cyc:   99916148 now IPC :2.01838: AVG IPC :1.89043: L2-Pf-HR :0.90320: L2-HR :0.88267: (Sim:0h39m24s) 
CPU  0 inst:  190000005 cyc:  100505041 now IPC :1.69811: AVG IPC :1.88930: L2-Pf-HR :0.90317: L2-HR :0.88263: (Sim:0h39m35s) 
CPU  0 inst:  191000002 cyc:  100997719 now IPC :2.02972: AVG IPC :1.88999: L2-Pf-HR :0.90333: L2-HR :0.88295: (Sim:0h39m48s) 
CPU  0 inst:  192000000 cyc:  101473524 now IPC :2.10170: AVG IPC :1.89099: L2-Pf-HR :0.90354: L2-HR :0.88331: (Sim:0h40m0s) 
CPU  0 inst:  193000005 cyc:  101950626 now IPC :2.09600: AVG IPC :1.89196: L2-Pf-HR :0.90379: L2-HR :0.88370: (Sim:0h40m13s) 
CPU  0 inst:  194000004 cyc:  103699297 now IPC :0.57186: AVG IPC :1.86948: L2-Pf-HR :0.90335: L2-HR :0.88289: (Sim:0h40m31s) 
CPU  0 inst:  195000000 cyc:  108362691 now IPC :0.21444: AVG IPC :1.79760: L2-Pf-HR :0.90070: L2-HR :0.87869: (Sim:0h41m5s) 
CPU  0 inst:  196000005 cyc:  113147650 now IPC :0.20899: AVG IPC :1.72982: L2-Pf-HR :0.89806: L2-HR :0.87460: (Sim:0h41m38s) 
CPU  0 inst:  197000001 cyc:  117941780 now IPC :0.20859: AVG IPC :1.66745: L2-Pf-HR :0.89546: L2-HR :0.87060: (Sim:0h42m13s) 
CPU  0 inst:  198000000 cyc:  122732034 now IPC :0.20876: AVG IPC :1.61005: L2-Pf-HR :0.89287: L2-HR :0.86669: (Sim:0h42m47s) 
CPU  0 inst:  199000002 cyc:  127535951 now IPC :0.20816: AVG IPC :1.55683: L2-Pf-HR :0.89029: L2-HR :0.86288: (Sim:0h43m15s) 
CPU  0 inst:  200000000 cyc:  132326939 now IPC :0.20872: AVG IPC :1.50765: L2-Pf-HR :0.88774: L2-HR :0.85914: (Sim:0h43m47s) 
CPU  0 inst:  201000000 cyc:  136940839 now IPC :0.21674: AVG IPC :1.46384: L2-Pf-HR :0.88551: L2-HR :0.85592: (Sim:0h44m21s) 
CPU  0 inst:  202000000 cyc:  140655320 now IPC :0.26922: AVG IPC :1.43207: L2-Pf-HR :0.88536: L2-HR :0.85562: (Sim:0h44m49s) 
CPU  0 inst:  203000002 cyc:  144370154 now IPC :0.26919: AVG IPC :1.40194: L2-Pf-HR :0.88522: L2-HR :0.85532: (Sim:0h45m17s) 
CPU  0 inst:  204000005 cyc:  148086549 now IPC :0.26908: AVG IPC :1.37331: L2-Pf-HR :0.88510: L2-HR :0.85504: (Sim:0h45m46s) 
CPU  0 inst:  205000000 cyc:  151798599 now IPC :0.26939: AVG IPC :1.34614: L2-Pf-HR :0.88501: L2-HR :0.85480: (Sim:0h46m11s) 
CPU  0 inst:  206000000 cyc:  155509791 now IPC :0.26946: AVG IPC :1.32028: L2-Pf-HR :0.88493: L2-HR :0.85456: (Sim:0h46m38s) 
CPU  0 inst:  207000000 cyc:  159220622 now IPC :0.26948: AVG IPC :1.29563: L2-Pf-HR :0.88486: L2-HR :0.85434: (Sim:0h47m4s) 
CPU  0 inst:  208000000 cyc:  162932088 now IPC :0.26944: AVG IPC :1.27212: L2-Pf-HR :0.88478: L2-HR :0.85411: (Sim:0h47m30s) 
CPU  0 inst:  209000000 cyc:  166643190 now IPC :0.26946: AVG IPC :1.24965: L2-Pf-HR :0.88471: L2-HR :0.85390: (Sim:0h47m53s) 
CPU  0 inst:  210000000 cyc:  170356089 now IPC :0.26933: AVG IPC :1.22816: L2-Pf-HR :0.88461: L2-HR :0.85364: (Sim:0h48m15s) 
CPU  0 inst:  211000001 cyc:  174069792 now IPC :0.26927: AVG IPC :1.20758: L2-Pf-HR :0.88453: L2-HR :0.85342: (Sim:0h48m42s) 
CPU  0 inst:  212000004 cyc:  177783765 now IPC :0.26925: AVG IPC :1.18787: L2-Pf-HR :0.88446: L2-HR :0.85320: (Sim:0h49m9s) 
CPU  0 inst:  213000000 cyc:  181494670 now IPC :0.26947: AVG IPC :1.16899: L2-Pf-HR :0.88439: L2-HR :0.85298: (Sim:0h49m36s) 
CPU  0 inst:  214000000 cyc:  185206286 now IPC :0.26942: AVG IPC :1.15087: L2-Pf-HR :0.88429: L2-HR :0.85274: (Sim:0h49m58s) 
CPU  0 inst:  215000000 cyc:  188916936 now IPC :0.26949: AVG IPC :1.13346: L2-Pf-HR :0.88423: L2-HR :0.85253: (Sim:0h50m25s) 
CPU  0 inst:  216000000 cyc:  192629529 now IPC :0.26935: AVG IPC :1.11672: L2-Pf-HR :0.88415: L2-HR :0.85230: (Sim:0h50m51s) 
CPU  0 inst:  217000000 cyc:  196341242 now IPC :0.26942: AVG IPC :1.10062: L2-Pf-HR :0.88407: L2-HR :0.85209: (Sim:0h51m17s) 
CPU  0 inst:  218000001 cyc:  200053926 now IPC :0.26935: AVG IPC :1.08512: L2-Pf-HR :0.88399: L2-HR :0.85187: (Sim:0h51m42s) 
CPU  0 inst:  219000003 cyc:  203769164 now IPC :0.26916: AVG IPC :1.07017: L2-Pf-HR :0.88391: L2-HR :0.85164: (Sim:0h52m9s) 
CPU  0 inst:  220000000 cyc:  207481053 now IPC :0.26940: AVG IPC :1.05577: L2-Pf-HR :0.88384: L2-HR :0.85143: (Sim:0h52m35s) 
CPU  0 inst:  221000000 cyc:  211191039 now IPC :0.26954: AVG IPC :1.04189: L2-Pf-HR :0.88378: L2-HR :0.85123: (Sim:0h53m1s) 
CPU  0 inst:  222000000 cyc:  214902283 now IPC :0.26945: AVG IPC :1.02849: L2-Pf-HR :0.88370: L2-HR :0.85102: (Sim:0h53m28s) 
CPU  0 inst:  223000000 cyc:  218614196 now IPC :0.26940: AVG IPC :1.01555: L2-Pf-HR :0.88362: L2-HR :0.85080: (Sim:0h53m55s) 
CPU  0 inst:  224000000 cyc:  222325033 now IPC :0.26948: AVG IPC :1.00304: L2-Pf-HR :0.88357: L2-HR :0.85062: (Sim:0h54m21s) 
CPU  0 inst:  225000001 cyc:  226037173 now IPC :0.26939: AVG IPC :0.99093: L2-Pf-HR :0.88350: L2-HR :0.85041: (Sim:0h54m47s) 
CPU  0 inst:  226000001 cyc:  229749983 now IPC :0.26934: AVG IPC :0.97922: L2-Pf-HR :0.88345: L2-HR :0.85022: (Sim:0h55m14s) 
CPU  0 inst:  227000000 cyc:  233461861 now IPC :0.26941: AVG IPC :0.96789: L2-Pf-HR :0.88340: L2-HR :0.85004: (Sim:0h55m42s) 
CPU  0 inst:  228000000 cyc:  237173316 now IPC :0.26944: AVG IPC :0.95691: L2-Pf-HR :0.88332: L2-HR :0.84983: (Sim:0h56m10s) 
CPU  0 inst:  229000004 cyc:  240885166 now IPC :0.26941: AVG IPC :0.94627: L2-Pf-HR :0.88322: L2-HR :0.84960: (Sim:0h56m33s) 
CPU  0 inst:  230000000 cyc:  244597629 now IPC :0.26936: AVG IPC :0.93596: L2-Pf-HR :0.88313: L2-HR :0.84938: (Sim:0h56m58s) 
CPU  0 inst:  231000000 cyc:  248309681 now IPC :0.26939: AVG IPC :0.92595: L2-Pf-HR :0.88306: L2-HR :0.84918: (Sim:0h57m22s) 
CPU  0 inst:  232000000 cyc:  252021501 now IPC :0.26941: AVG IPC :0.91625: L2-Pf-HR :0.88300: L2-HR :0.84899: (Sim:0h57m43s) 
CPU  0 inst:  233000000 cyc:  255734190 now IPC :0.26935: AVG IPC :0.90682: L2-Pf-HR :0.88292: L2-HR :0.84878: (Sim:0h58m10s) 
CPU  0 inst:  234000003 cyc:  259448423 now IPC :0.26924: AVG IPC :0.89765: L2-Pf-HR :0.88286: L2-HR :0.84860: (Sim:0h58m34s) 
CPU  0 inst:  235000000 cyc:  263161075 now IPC :0.26935: AVG IPC :0.88876: L2-Pf-HR :0.88279: L2-HR :0.84839: (Sim:0h59m0s) 
CPU  0 inst:  236000000 cyc:  266872886 now IPC :0.26941: AVG IPC :0.88011: L2-Pf-HR :0.88271: L2-HR :0.84819: (Sim:0h59m25s) 
CPU  0 inst:  237000000 cyc:  270584837 now IPC :0.26940: AVG IPC :0.87170: L2-Pf-HR :0.88263: L2-HR :0.84799: (Sim:0h59m51s) 
CPU  0 inst:  238000000 cyc:  274296688 now IPC :0.26941: AVG IPC :0.86352: L2-Pf-HR :0.88256: L2-HR :0.84780: (Sim:1h0m14s) 
CPU  0 inst:  239000000 cyc:  278008263 now IPC :0.26943: AVG IPC :0.85556: L2-Pf-HR :0.88251: L2-HR :0.84762: (Sim:1h0m38s) 
CPU  0 inst:  240000000 cyc:  281719468 now IPC :0.26945: AVG IPC :0.84781: L2-Pf-HR :0.88245: L2-HR :0.84744: (Sim:1h1m5s) 
CPU  0 inst:  241000001 cyc:  285432921 now IPC :0.26929: AVG IPC :0.84026: L2-Pf-HR :0.88240: L2-HR :0.84726: (Sim:1h1m28s) 
CPU  0 inst:  242000000 cyc:  289144529 now IPC :0.26942: AVG IPC :0.83291: L2-Pf-HR :0.88235: L2-HR :0.84710: (Sim:1h1m54s) 
CPU  0 inst:  243000000 cyc:  292854243 now IPC :0.26956: AVG IPC :0.82575: L2-Pf-HR :0.88231: L2-HR :0.84694: (Sim:1h2m20s) 
CPU  0 inst:  244000000 cyc:  296563569 now IPC :0.26959: AVG IPC :0.81877: L2-Pf-HR :0.88228: L2-HR :0.84678: (Sim:1h2m46s) 
CPU  0 inst:  245000000 cyc:  300274739 now IPC :0.26946: AVG IPC :0.81195: L2-Pf-HR :0.88223: L2-HR :0.84661: (Sim:1h3m10s) 
CPU  0 inst:  246000004 cyc:  303986744 now IPC :0.26940: AVG IPC :0.80531: L2-Pf-HR :0.88216: L2-HR :0.84643: (Sim:1h3m38s) 
CPU  0 inst:  247000000 cyc:  307697994 now IPC :0.26945: AVG IPC :0.79882: L2-Pf-HR :0.88211: L2-HR :0.84627: (Sim:1h4m4s) 
CPU  0 inst:  248000000 cyc:  311409848 now IPC :0.26941: AVG IPC :0.79249: L2-Pf-HR :0.88206: L2-HR :0.84609: (Sim:1h4m27s) 
CPU  0 inst:  249000003 cyc:  315124138 now IPC :0.26923: AVG IPC :0.78631: L2-Pf-HR :0.88199: L2-HR :0.84591: (Sim:1h4m54s) 
CPU  0 inst:  250000004 cyc:  318835533 now IPC :0.26944: AVG IPC :0.78027: L2-Pf-HR :0.88193: L2-HR :0.84574: (Sim:1h5m21s) 
CPU  0 inst:  251000000 cyc:  322546286 now IPC :0.26949: AVG IPC :0.77438: L2-Pf-HR :0.88188: L2-HR :0.84557: (Sim:1h5m48s) 
CPU  0 inst:  252000000 cyc:  326257634 now IPC :0.26944: AVG IPC :0.76861: L2-Pf-HR :0.88182: L2-HR :0.84539: (Sim:1h6m11s) 
CPU  0 inst:  253000000 cyc:  329969114 now IPC :0.26943: AVG IPC :0.76298: L2-Pf-HR :0.88177: L2-HR :0.84523: (Sim:1h6m37s) 
CPU  0 inst:  254000000 cyc:  333680589 now IPC :0.26943: AVG IPC :0.75748: L2-Pf-HR :0.88171: L2-HR :0.84507: (Sim:1h7m4s) 
CPU  0 inst:  255000002 cyc:  337391671 now IPC :0.26946: AVG IPC :0.75209: L2-Pf-HR :0.88167: L2-HR :0.84491: (Sim:1h7m31s) 
CPU  0 inst:  256000000 cyc:  341106946 now IPC :0.26916: AVG IPC :0.74682: L2-Pf-HR :0.88159: L2-HR :0.84472: (Sim:1h7m58s) 
CPU  0 inst:  257000000 cyc:  344820857 now IPC :0.26926: AVG IPC :0.74166: L2-Pf-HR :0.88152: L2-HR :0.84454: (Sim:1h8m26s) 
CPU  0 inst:  258000000 cyc:  348531279 now IPC :0.26951: AVG IPC :0.73662: L2-Pf-HR :0.88147: L2-HR :0.84438: (Sim:1h8m53s) 
CPU  0 inst:  259000000 cyc:  352242128 now IPC :0.26948: AVG IPC :0.73168: L2-Pf-HR :0.88142: L2-HR :0.84422: (Sim:1h9m17s) 
CPU  0 inst:  260000000 cyc:  355954348 now IPC :0.26938: AVG IPC :0.72685: L2-Pf-HR :0.88135: L2-HR :0.84404: (Sim:1h9m45s) 
CPU  0 inst:  261000000 cyc:  359665980 now IPC :0.26942: AVG IPC :0.72211: L2-Pf-HR :0.88129: L2-HR :0.84388: (Sim:1h10m11s) 
CPU  0 inst:  262000000 cyc:  363376826 now IPC :0.26948: AVG IPC :0.71748: L2-Pf-HR :0.88125: L2-HR :0.84373: (Sim:1h10m37s) 
CPU  0 inst:  263000001 cyc:  367088852 now IPC :0.26939: AVG IPC :0.71294: L2-Pf-HR :0.88121: L2-HR :0.84358: (Sim:1h11m4s) 
CPU  0 inst:  264000000 cyc:  370801512 now IPC :0.26935: AVG IPC :0.70848: L2-Pf-HR :0.88118: L2-HR :0.84345: (Sim:1h11m27s) 
CPU  0 inst:  265000000 cyc:  374514059 now IPC :0.26936: AVG IPC :0.70412: L2-Pf-HR :0.88111: L2-HR :0.84327: (Sim:1h11m54s) 
CPU  0 inst:  266000000 cyc:  378224323 now IPC :0.26952: AVG IPC :0.69984: L2-Pf-HR :0.88106: L2-HR :0.84312: (Sim:1h12m22s) 
CPU  0 inst:  267000004 cyc:  381935188 now IPC :0.26948: AVG IPC :0.69565: L2-Pf-HR :0.88102: L2-HR :0.84297: (Sim:1h12m45s) 
CPU  0 inst:  268000000 cyc:  385646791 now IPC :0.26942: AVG IPC :0.69154: L2-Pf-HR :0.88096: L2-HR :0.84281: (Sim:1h13m12s) 
CPU  0 inst:  269000000 cyc:  389359001 now IPC :0.26938: AVG IPC :0.68750: L2-Pf-HR :0.88090: L2-HR :0.84265: (Sim:1h13m39s) 
CPU  0 inst:  270000001 cyc:  393071748 now IPC :0.26934: AVG IPC :0.68354: L2-Pf-HR :0.88084: L2-HR :0.84248: (Sim:1h14m0s) 
CPU  0 inst:  271000001 cyc:  396786165 now IPC :0.26922: AVG IPC :0.67965: L2-Pf-HR :0.88078: L2-HR :0.84232: (Sim:1h14m23s) 
CPU  0 inst:  272000000 cyc:  400499585 now IPC :0.26929: AVG IPC :0.67584: L2-Pf-HR :0.88071: L2-HR :0.84215: (Sim:1h14m45s) 
CPU  0 inst:  273000000 cyc:  404211205 now IPC :0.26942: AVG IPC :0.67210: L2-Pf-HR :0.88065: L2-HR :0.84199: (Sim:1h15m11s) 
CPU  0 inst:  274000000 cyc:  407921643 now IPC :0.26951: AVG IPC :0.66843: L2-Pf-HR :0.88061: L2-HR :0.84186: (Sim:1h15m38s) 
CPU  0 inst:  275000000 cyc:  411634268 now IPC :0.26935: AVG IPC :0.66482: L2-Pf-HR :0.88055: L2-HR :0.84170: (Sim:1h16m6s) 
CPU  0 inst:  276000000 cyc:  415346525 now IPC :0.26938: AVG IPC :0.66128: L2-Pf-HR :0.88050: L2-HR :0.84154: (Sim:1h16m32s) 
CPU  0 inst:  277000000 cyc:  419058506 now IPC :0.26940: AVG IPC :0.65780: L2-Pf-HR :0.88045: L2-HR :0.84139: (Sim:1h16m57s) 
CPU  0 inst:  278000001 cyc:  422770947 now IPC :0.26936: AVG IPC :0.65438: L2-Pf-HR :0.88040: L2-HR :0.84124: (Sim:1h17m24s) 
CPU  0 inst:  279000003 cyc:  426484970 now IPC :0.26925: AVG IPC :0.65102: L2-Pf-HR :0.88035: L2-HR :0.84110: (Sim:1h17m50s) 
CPU  0 inst:  280000000 cyc:  430195686 now IPC :0.26949: AVG IPC :0.64772: L2-Pf-HR :0.88031: L2-HR :0.84096: (Sim:1h18m17s) 
CPU  0 inst:  281000000 cyc:  433905813 now IPC :0.26953: AVG IPC :0.64448: L2-Pf-HR :0.88028: L2-HR :0.84084: (Sim:1h18m40s) 
CPU  0 inst:  282000000 cyc:  437616985 now IPC :0.26946: AVG IPC :0.64129: L2-Pf-HR :0.88023: L2-HR :0.84070: (Sim:1h19m1s) 
CPU  0 inst:  283000000 cyc:  441328475 now IPC :0.26943: AVG IPC :0.63816: L2-Pf-HR :0.88019: L2-HR :0.84056: (Sim:1h19m27s) 
CPU  0 inst:  284000004 cyc:  445039255 now IPC :0.26949: AVG IPC :0.63507: L2-Pf-HR :0.88015: L2-HR :0.84043: (Sim:1h19m53s) 
CPU  0 inst:  285000000 cyc:  448750977 now IPC :0.26942: AVG IPC :0.63204: L2-Pf-HR :0.88010: L2-HR :0.84028: (Sim:1h20m20s) 
CPU  0 inst:  286000003 cyc:  452464434 now IPC :0.26929: AVG IPC :0.62906: L2-Pf-HR :0.88007: L2-HR :0.84016: (Sim:1h20m43s) 
CPU  0 inst:  287000000 cyc:  456175183 now IPC :0.26949: AVG IPC :0.62613: L2-Pf-HR :0.88004: L2-HR :0.84004: (Sim:1h21m7s) 
CPU  0 inst:  288000000 cyc:  459885561 now IPC :0.26951: AVG IPC :0.62325: L2-Pf-HR :0.88001: L2-HR :0.83992: (Sim:1h21m34s) 
CPU  0 inst:  289000000 cyc:  463597548 now IPC :0.26940: AVG IPC :0.62041: L2-Pf-HR :0.87996: L2-HR :0.83977: (Sim:1h22m0s) 
CPU  0 inst:  290000000 cyc:  467309217 now IPC :0.26942: AVG IPC :0.61761: L2-Pf-HR :0.87991: L2-HR :0.83963: (Sim:1h22m27s) 
CPU  0 inst:  291000000 cyc:  471020201 now IPC :0.26947: AVG IPC :0.61486: L2-Pf-HR :0.87987: L2-HR :0.83950: (Sim:1h22m54s) 
CPU  0 inst:  292000000 cyc:  474732025 now IPC :0.26941: AVG IPC :0.61216: L2-Pf-HR :0.87982: L2-HR :0.83936: (Sim:1h23m18s) 
CPU  0 inst:  293000001 cyc:  478444813 now IPC :0.26934: AVG IPC :0.60949: L2-Pf-HR :0.87978: L2-HR :0.83924: (Sim:1h23m44s) 
CPU  0 inst:  294000001 cyc:  482158098 now IPC :0.26930: AVG IPC :0.60687: L2-Pf-HR :0.87974: L2-HR :0.83911: (Sim:1h24m9s) 
CPU  0 inst:  295000000 cyc:  485868892 now IPC :0.26948: AVG IPC :0.60428: L2-Pf-HR :0.87971: L2-HR :0.83898: (Sim:1h24m36s) 
CPU  0 inst:  296000000 cyc:  489579906 now IPC :0.26947: AVG IPC :0.60174: L2-Pf-HR :0.87967: L2-HR :0.83885: (Sim:1h25m3s) 
CPU  0 inst:  297000000 cyc:  491187483 now IPC :0.62205: AVG IPC :0.60181: L2-Pf-HR :0.87989: L2-HR :0.83929: (Sim:1h25m22s) 
CPU  0 inst:  298000001 cyc:  491830153 now IPC :1.55601: AVG IPC :0.60306: L2-Pf-HR :0.88037: L2-HR :0.84011: (Sim:1h25m40s) 
CPU  0 inst:  299000005 cyc:  492470206 now IPC :1.56238: AVG IPC :0.60431: L2-Pf-HR :0.88084: L2-HR :0.84092: (Sim:1h25m57s) 
CPU  0 inst:  300000003 cyc:  493089106 now IPC :1.61577: AVG IPC :0.60558: L2-Pf-HR :0.88128: L2-HR :0.84170: (Sim:1h26m12s) 
CPU  0 inst:  301000002 cyc:  493704886 now IPC :1.62396: AVG IPC :0.60685: L2-Pf-HR :0.88173: L2-HR :0.84247: (Sim:1h26m26s) 
CPU  0 inst:  302000002 cyc:  494281583 now IPC :1.73401: AVG IPC :0.60817: L2-Pf-HR :0.88220: L2-HR :0.84327: (Sim:1h26m38s) 
CPU  0 inst:  303000001 cyc:  494857580 now IPC :1.73612: AVG IPC :0.60948: L2-Pf-HR :0.88264: L2-HR :0.84404: (Sim:1h26m53s) 
CPU  0 inst:  304000000 cyc:  495434815 now IPC :1.73239: AVG IPC :0.61079: L2-Pf-HR :0.88310: L2-HR :0.84481: (Sim:1h27m10s) 
CPU  0 inst:  305000000 cyc:  496022201 now IPC :1.70246: AVG IPC :0.61209: L2-Pf-HR :0.88357: L2-HR :0.84560: (Sim:1h27m27s) 
CPU  0 inst:  306000005 cyc:  496597262 now IPC :1.73895: AVG IPC :0.61340: L2-Pf-HR :0.88406: L2-HR :0.84638: (Sim:1h27m42s) 
CPU  0 inst:  307000005 cyc:  497170691 now IPC :1.74390: AVG IPC :0.61470: L2-Pf-HR :0.88453: L2-HR :0.84715: (Sim:1h27m57s) 
CPU  0 inst:  308000001 cyc:  497741569 now IPC :1.75168: AVG IPC :0.61601: L2-Pf-HR :0.88501: L2-HR :0.84792: (Sim:1h28m9s) 
CPU  0 inst:  309000003 cyc:  498326415 now IPC :1.70986: AVG IPC :0.61730: L2-Pf-HR :0.88549: L2-HR :0.84870: (Sim:1h28m22s) 
CPU  0 inst:  310000004 cyc:  498917875 now IPC :1.69073: AVG IPC :0.61857: L2-Pf-HR :0.88597: L2-HR :0.84944: (Sim:1h28m35s) 
CPU  0 inst:  311000000 cyc:  499501574 now IPC :1.71320: AVG IPC :0.61985: L2-Pf-HR :0.88644: L2-HR :0.85018: (Sim:1h28m47s) 
CPU  0 inst:  312000000 cyc:  500084744 now IPC :1.71477: AVG IPC :0.62113: L2-Pf-HR :0.88691: L2-HR :0.85092: (Sim:1h29m1s) 
CPU  0 inst:  313000003 cyc:  500691138 now IPC :1.64910: AVG IPC :0.62238: L2-Pf-HR :0.88737: L2-HR :0.85164: (Sim:1h29m16s) 
CPU  0 inst:  314000004 cyc:  501307635 now IPC :1.62207: AVG IPC :0.62361: L2-Pf-HR :0.88771: L2-HR :0.85226: (Sim:1h29m32s) 
CPU  0 inst:  315000001 cyc:  501916045 now IPC :1.64362: AVG IPC :0.62485: L2-Pf-HR :0.88807: L2-HR :0.85290: (Sim:1h29m49s) 
CPU  0 inst:  316000003 cyc:  502528770 now IPC :1.63206: AVG IPC :0.62608: L2-Pf-HR :0.88843: L2-HR :0.85353: (Sim:1h30m6s) 
CPU  0 inst:  317000004 cyc:  503144716 now IPC :1.62352: AVG IPC :0.62731: L2-Pf-HR :0.88878: L2-HR :0.85415: (Sim:1h30m23s) 
CPU  0 inst:  318000000 cyc:  503728752 now IPC :1.71222: AVG IPC :0.62857: L2-Pf-HR :0.88914: L2-HR :0.85477: (Sim:1h30m40s) 
CPU  0 inst:  319000002 cyc:  504298179 now IPC :1.75615: AVG IPC :0.62984: L2-Pf-HR :0.88952: L2-HR :0.85541: (Sim:1h30m56s) 
CPU  0 inst:  320000000 cyc:  504870165 now IPC :1.74829: AVG IPC :0.63111: L2-Pf-HR :0.88990: L2-HR :0.85605: (Sim:1h31m13s) 
CPU  0 inst:  321000005 cyc:  505439475 now IPC :1.75652: AVG IPC :0.63238: L2-Pf-HR :0.89027: L2-HR :0.85667: (Sim:1h31m27s) 
CPU  0 inst:  322000002 cyc:  506023915 now IPC :1.71103: AVG IPC :0.63363: L2-Pf-HR :0.89063: L2-HR :0.85729: (Sim:1h31m44s) 
CPU  0 inst:  323000005 cyc:  506592030 now IPC :1.76021: AVG IPC :0.63490: L2-Pf-HR :0.89103: L2-HR :0.85793: (Sim:1h32m1s) 
CPU  0 inst:  324000003 cyc:  507159704 now IPC :1.76157: AVG IPC :0.63616: L2-Pf-HR :0.89142: L2-HR :0.85856: (Sim:1h32m18s) 
CPU  0 inst:  325000003 cyc:  507730178 now IPC :1.75293: AVG IPC :0.63742: L2-Pf-HR :0.89182: L2-HR :0.85919: (Sim:1h32m34s) 
CPU  0 inst:  326000003 cyc:  508324604 now IPC :1.68230: AVG IPC :0.63864: L2-Pf-HR :0.89218: L2-HR :0.85979: (Sim:1h32m51s) 
CPU  0 inst:  327000000 cyc:  508907933 now IPC :1.71429: AVG IPC :0.63988: L2-Pf-HR :0.89259: L2-HR :0.86041: (Sim:1h33m7s) 
CPU  0 inst:  328000000 cyc:  509491650 now IPC :1.71316: AVG IPC :0.64111: L2-Pf-HR :0.89299: L2-HR :0.86102: (Sim:1h33m21s) 
CPU  0 inst:  329000002 cyc:  510079818 now IPC :1.70020: AVG IPC :0.64233: L2-Pf-HR :0.89337: L2-HR :0.86162: (Sim:1h33m34s) 
CPU  0 inst:  330000000 cyc:  510696085 now IPC :1.62267: AVG IPC :0.64352: L2-Pf-HR :0.89369: L2-HR :0.86216: (Sim:1h33m50s) 
CPU  0 inst:  331000004 cyc:  511301552 now IPC :1.65162: AVG IPC :0.64471: L2-Pf-HR :0.89399: L2-HR :0.86269: (Sim:1h34m7s) 
CPU  0 inst:  332000001 cyc:  511907929 now IPC :1.64913: AVG IPC :0.64591: L2-Pf-HR :0.89429: L2-HR :0.86321: (Sim:1h34m24s) 
CPU  0 inst:  333000004 cyc:  512517169 now IPC :1.64139: AVG IPC :0.64709: L2-Pf-HR :0.89458: L2-HR :0.86372: (Sim:1h34m42s) 
CPU  0 inst:  334000001 cyc:  513138849 now IPC :1.60854: AVG IPC :0.64826: L2-Pf-HR :0.89484: L2-HR :0.86421: (Sim:1h34m59s) 
CPU  0 inst:  335000002 cyc:  513709735 now IPC :1.75166: AVG IPC :0.64949: L2-Pf-HR :0.89516: L2-HR :0.86474: (Sim:1h35m16s) 
CPU  0 inst:  336000000 cyc:  514280010 now IPC :1.75354: AVG IPC :0.65071: L2-Pf-HR :0.89546: L2-HR :0.86526: (Sim:1h35m33s) 
CPU  0 inst:  337000002 cyc:  514854799 now IPC :1.73977: AVG IPC :0.65193: L2-Pf-HR :0.89574: L2-HR :0.86576: (Sim:1h35m50s) 
CPU  0 inst:  338000000 cyc:  515433244 now IPC :1.72877: AVG IPC :0.65314: L2-Pf-HR :0.89604: L2-HR :0.86626: (Sim:1h36m6s) 
CPU  0 inst:  339000005 cyc:  516010109 now IPC :1.73352: AVG IPC :0.65435: L2-Pf-HR :0.89636: L2-HR :0.86679: (Sim:1h36m20s) 
CPU  0 inst:  340000005 cyc:  516579847 now IPC :1.75519: AVG IPC :0.65557: L2-Pf-HR :0.89669: L2-HR :0.86731: (Sim:1h36m32s) 
CPU  0 inst:  341000002 cyc:  517152634 now IPC :1.74584: AVG IPC :0.65678: L2-Pf-HR :0.89700: L2-HR :0.86782: (Sim:1h36m47s) 
CPU  0 inst:  342000003 cyc:  517730080 now IPC :1.73177: AVG IPC :0.65798: L2-Pf-HR :0.89731: L2-HR :0.86833: (Sim:1h37m4s) 
CPU  0 inst:  343000004 cyc:  518319268 now IPC :1.69725: AVG IPC :0.65916: L2-Pf-HR :0.89764: L2-HR :0.86885: (Sim:1h37m20s) 
CPU  0 inst:  344000000 cyc:  518904524 now IPC :1.70865: AVG IPC :0.66035: L2-Pf-HR :0.89797: L2-HR :0.86935: (Sim:1h37m37s) 
CPU  0 inst:  345000001 cyc:  519488619 now IPC :1.71205: AVG IPC :0.66153: L2-Pf-HR :0.89828: L2-HR :0.86984: (Sim:1h37m54s) 
CPU  0 inst:  346000002 cyc:  520074196 now IPC :1.70772: AVG IPC :0.66271: L2-Pf-HR :0.89861: L2-HR :0.87034: (Sim:1h38m6s) 
CPU  0 inst:  347000001 cyc:  520694557 now IPC :1.61196: AVG IPC :0.66385: L2-Pf-HR :0.89886: L2-HR :0.87078: (Sim:1h38m16s) 
CPU  0 inst:  348000003 cyc:  521305810 now IPC :1.63599: AVG IPC :0.66499: L2-Pf-HR :0.89909: L2-HR :0.87120: (Sim:1h38m29s) 
CPU  0 inst:  349000000 cyc:  521915893 now IPC :1.63912: AVG IPC :0.66613: L2-Pf-HR :0.89934: L2-HR :0.87164: (Sim:1h38m45s) 
CPU  0 inst:  350000002 cyc:  522522107 now IPC :1.64959: AVG IPC :0.66727: L2-Pf-HR :0.89958: L2-HR :0.87207: (Sim:1h39m0s) 
CPU  0 inst:  351000005 cyc:  523127619 now IPC :1.65150: AVG IPC :0.66842: L2-Pf-HR :0.89980: L2-HR :0.87247: (Sim:1h39m16s) 
CPU  0 inst:  352000000 cyc:  523694985 now IPC :1.76252: AVG IPC :0.66960: L2-Pf-HR :0.90006: L2-HR :0.87291: (Sim:1h39m29s) 
CPU  0 inst:  353000004 cyc:  524264144 now IPC :1.75699: AVG IPC :0.67079: L2-Pf-HR :0.90031: L2-HR :0.87334: (Sim:1h39m45s) 
CPU  0 inst:  354000002 cyc:  524833069 now IPC :1.75770: AVG IPC :0.67197: L2-Pf-HR :0.90056: L2-HR :0.87377: (Sim:1h40m2s) 
CPU  0 inst:  355000000 cyc:  525421909 now IPC :1.69825: AVG IPC :0.67312: L2-Pf-HR :0.90079: L2-HR :0.87418: (Sim:1h40m19s) 
CPU  0 inst:  356000001 cyc:  525991374 now IPC :1.75604: AVG IPC :0.67429: L2-Pf-HR :0.90107: L2-HR :0.87463: (Sim:1h40m33s) 
CPU  0 inst:  357000004 cyc:  526558833 now IPC :1.76225: AVG IPC :0.67547: L2-Pf-HR :0.90136: L2-HR :0.87508: (Sim:1h40m42s) 
CPU  0 inst:  358000003 cyc:  527125588 now IPC :1.76443: AVG IPC :0.67664: L2-Pf-HR :0.90164: L2-HR :0.87552: (Sim:1h40m53s) 
CPU  0 inst:  359000002 cyc:  527714681 now IPC :1.69752: AVG IPC :0.67778: L2-Pf-HR :0.90190: L2-HR :0.87594: (Sim:1h41m10s) 
CPU  0 inst:  360000000 cyc:  528299193 now IPC :1.71083: AVG IPC :0.67893: L2-Pf-HR :0.90219: L2-HR :0.87639: (Sim:1h41m27s) 
CPU  0 inst:  361000003 cyc:  528881775 now IPC :1.71650: AVG IPC :0.68007: L2-Pf-HR :0.90247: L2-HR :0.87682: (Sim:1h41m37s) 
CPU  0 inst:  362000003 cyc:  529467934 now IPC :1.70602: AVG IPC :0.68121: L2-Pf-HR :0.90276: L2-HR :0.87725: (Sim:1h41m53s) 
CPU  0 inst:  363000002 cyc:  530058568 now IPC :1.69309: AVG IPC :0.68234: L2-Pf-HR :0.90302: L2-HR :0.87767: (Sim:1h42m11s) 
CPU  0 inst:  364000002 cyc:  530680459 now IPC :1.60800: AVG IPC :0.68343: L2-Pf-HR :0.90321: L2-HR :0.87802: (Sim:1h42m27s) 
CPU  0 inst:  365000000 cyc:  531290410 now IPC :1.63947: AVG IPC :0.68453: L2-Pf-HR :0.90341: L2-HR :0.87838: (Sim:1h42m44s) 
CPU  0 inst:  366000004 cyc:  531898240 now IPC :1.64520: AVG IPC :0.68563: L2-Pf-HR :0.90361: L2-HR :0.87874: (Sim:1h43m1s) 
CPU  0 inst:  367000001 cyc:  532509065 now IPC :1.63713: AVG IPC :0.68672: L2-Pf-HR :0.90381: L2-HR :0.87909: (Sim:1h43m17s) 
CPU  0 inst:  368000000 cyc:  533105379 now IPC :1.67697: AVG IPC :0.68783: L2-Pf-HR :0.90400: L2-HR :0.87944: (Sim:1h43m30s) 
CPU  0 inst:  369000001 cyc:  533675579 now IPC :1.75377: AVG IPC :0.68897: L2-Pf-HR :0.90421: L2-HR :0.87980: (Sim:1h43m39s) 
CPU  0 inst:  370000003 cyc:  534246408 now IPC :1.75184: AVG IPC :0.69011: L2-Pf-HR :0.90442: L2-HR :0.88017: (Sim:1h43m52s) 
CPU  0 inst:  371000001 cyc:  534819738 now IPC :1.74419: AVG IPC :0.69124: L2-Pf-HR :0.90462: L2-HR :0.88052: (Sim:1h44m9s) 
CPU  0 inst:  372000004 cyc:  535402225 now IPC :1.71678: AVG IPC :0.69236: L2-Pf-HR :0.90484: L2-HR :0.88089: (Sim:1h44m26s) 
CPU  0 inst:  373000005 cyc:  535971859 now IPC :1.75551: AVG IPC :0.69349: L2-Pf-HR :0.90508: L2-HR :0.88127: (Sim:1h44m43s) 
CPU  0 inst:  374000004 cyc:  536543687 now IPC :1.74878: AVG IPC :0.69462: L2-Pf-HR :0.90531: L2-HR :0.88164: (Sim:1h45m0s) 
CPU  0 inst:  375000002 cyc:  537115572 now IPC :1.74860: AVG IPC :0.69574: L2-Pf-HR :0.90553: L2-HR :0.88200: (Sim:1h45m17s) 
CPU  0 inst:  376000000 cyc:  537700961 now IPC :1.70826: AVG IPC :0.69685: L2-Pf-HR :0.90576: L2-HR :0.88237: (Sim:1h45m35s) 
CPU  0 inst:  377000003 cyc:  538285441 now IPC :1.71093: AVG IPC :0.69795: L2-Pf-HR :0.90600: L2-HR :0.88274: (Sim:1h45m52s) 
CPU  0 inst:  378000002 cyc:  538872858 now IPC :1.70237: AVG IPC :0.69905: L2-Pf-HR :0.90623: L2-HR :0.88309: (Sim:1h46m8s) 
CPU  0 inst:  379000004 cyc:  539460012 now IPC :1.70313: AVG IPC :0.70014: L2-Pf-HR :0.90646: L2-HR :0.88345: (Sim:1h46m25s) 
CPU  0 inst:  380000005 cyc:  540064098 now IPC :1.65540: AVG IPC :0.70121: L2-Pf-HR :0.90669: L2-HR :0.88380: (Sim:1h46m42s) 
CPU  0 inst:  381000001 cyc:  540678697 now IPC :1.62707: AVG IPC :0.70227: L2-Pf-HR :0.90685: L2-HR :0.88411: (Sim:1h46m59s) 
CPU  0 inst:  382000003 cyc:  541292705 now IPC :1.62865: AVG IPC :0.70332: L2-Pf-HR :0.90702: L2-HR :0.88441: (Sim:1h47m16s) 
CPU  0 inst:  383000001 cyc:  541902756 now IPC :1.63920: AVG IPC :0.70437: L2-Pf-HR :0.90719: L2-HR :0.88472: (Sim:1h47m33s) 
CPU  0 inst:  384000000 cyc:  542518328 now IPC :1.62450: AVG IPC :0.70542: L2-Pf-HR :0.90734: L2-HR :0.88501: (Sim:1h47m48s) 
CPU  0 inst:  385000002 cyc:  543092540 now IPC :1.74152: AVG IPC :0.70652: L2-Pf-HR :0.90753: L2-HR :0.88533: (Sim:1h48m1s) 
CPU  0 inst:  386000002 cyc:  543662660 now IPC :1.75402: AVG IPC :0.70762: L2-Pf-HR :0.90771: L2-HR :0.88564: (Sim:1h48m18s) 
CPU  0 inst:  387000003 cyc:  544234995 now IPC :1.74723: AVG IPC :0.70871: L2-Pf-HR :0.90790: L2-HR :0.88596: (Sim:1h48m35s) 
CPU  0 inst:  388000004 cyc:  544813253 now IPC :1.72933: AVG IPC :0.70980: L2-Pf-HR :0.90807: L2-HR :0.88626: (Sim:1h48m52s) 
CPU  0 inst:  389000000 cyc:  545393216 now IPC :1.72424: AVG IPC :0.71088: L2-Pf-HR :0.90827: L2-HR :0.88658: (Sim:1h49m9s) 
CPU  0 inst:  390000002 cyc:  545959567 now IPC :1.76569: AVG IPC :0.71198: L2-Pf-HR :0.90848: L2-HR :0.88692: (Sim:1h49m25s) 
CPU  0 inst:  391000004 cyc:  546530974 now IPC :1.75007: AVG IPC :0.71306: L2-Pf-HR :0.90869: L2-HR :0.88725: (Sim:1h49m42s) 
CPU  0 inst:  392000000 cyc:  547098741 now IPC :1.76128: AVG IPC :0.71415: L2-Pf-HR :0.90891: L2-HR :0.88759: (Sim:1h49m59s) 
CPU  0 inst:  393000001 cyc:  547692951 now IPC :1.68291: AVG IPC :0.71521: L2-Pf-HR :0.90910: L2-HR :0.88790: (Sim:1h50m16s) 
CPU  0 inst:  394000002 cyc:  548277055 now IPC :1.71203: AVG IPC :0.71627: L2-Pf-HR :0.90932: L2-HR :0.88822: (Sim:1h50m33s) 
CPU  0 inst:  395000002 cyc:  548860264 now IPC :1.71465: AVG IPC :0.71733: L2-Pf-HR :0.90954: L2-HR :0.88855: (Sim:1h50m48s) 
CPU  0 inst:  396000003 cyc:  549448043 now IPC :1.70132: AVG IPC :0.71839: L2-Pf-HR :0.90975: L2-HR :0.88887: (Sim:1h51m4s) 
CPU  0 inst:  397000003 cyc:  550070489 now IPC :1.60657: AVG IPC :0.71939: L2-Pf-HR :0.90990: L2-HR :0.88914: (Sim:1h51m21s) 
CPU  0 inst:  398000000 cyc:  550678618 now IPC :1.64438: AVG IPC :0.72042: L2-Pf-HR :0.91005: L2-HR :0.88940: (Sim:1h51m38s) 
CPU  0 inst:  399000004 cyc:  551288611 now IPC :1.63937: AVG IPC :0.72144: L2-Pf-HR :0.91020: L2-HR :0.88967: (Sim:1h51m55s) 
CPU  0 inst:  400000000 cyc:  551901220 now IPC :1.63236: AVG IPC :0.72245: L2-Pf-HR :0.91036: L2-HR :0.88994: (Sim:1h52m12s) 
CPU  0 inst:  401000003 cyc:  552519516 now IPC :1.61735: AVG IPC :0.72345: L2-Pf-HR :0.91048: L2-HR :0.89019: (Sim:1h52m28s) 
CPU  0 inst:  402000003 cyc:  553089523 now IPC :1.75436: AVG IPC :0.72452: L2-Pf-HR :0.91064: L2-HR :0.89046: (Sim:1h52m45s) 
CPU  0 inst:  403000001 cyc:  553657826 now IPC :1.75962: AVG IPC :0.72558: L2-Pf-HR :0.91080: L2-HR :0.89074: (Sim:1h53m2s) 
CPU  0 inst:  404000002 cyc:  554229748 now IPC :1.74849: AVG IPC :0.72664: L2-Pf-HR :0.91096: L2-HR :0.89101: (Sim:1h53m19s) 
CPU  0 inst:  405000001 cyc:  554815190 now IPC :1.70811: AVG IPC :0.72768: L2-Pf-HR :0.91110: L2-HR :0.89126: (Sim:1h53m36s) 
CPU  0 inst:  406000003 cyc:  555384868 now IPC :1.75538: AVG IPC :0.72873: L2-Pf-HR :0.91129: L2-HR :0.89156: (Sim:1h53m53s) 
CPU  0 inst:  407000003 cyc:  555951591 now IPC :1.76453: AVG IPC :0.72979: L2-Pf-HR :0.91147: L2-HR :0.89185: (Sim:1h54m10s) 
CPU  0 inst:  408000000 cyc:  556525223 now IPC :1.74327: AVG IPC :0.73084: L2-Pf-HR :0.91165: L2-HR :0.89213: (Sim:1h54m28s) 
CPU  0 inst:  409000004 cyc:  557100390 now IPC :1.73863: AVG IPC :0.73188: L2-Pf-HR :0.91183: L2-HR :0.89242: (Sim:1h54m45s) 
CPU  0 inst:  410000001 cyc:  557692126 now IPC :1.68994: AVG IPC :0.73290: L2-Pf-HR :0.91202: L2-HR :0.89270: (Sim:1h55m3s) 
CPU  0 inst:  411000000 cyc:  558276933 now IPC :1.70996: AVG IPC :0.73392: L2-Pf-HR :0.91220: L2-HR :0.89298: (Sim:1h55m20s) 
CPU  0 inst:  412000003 cyc:  558864194 now IPC :1.70283: AVG IPC :0.73494: L2-Pf-HR :0.91238: L2-HR :0.89325: (Sim:1h55m37s) 
CPU  0 inst:  413000004 cyc:  559454631 now IPC :1.69366: AVG IPC :0.73596: L2-Pf-HR :0.91256: L2-HR :0.89353: (Sim:1h55m54s) 
CPU  0 inst:  414000003 cyc:  560069814 now IPC :1.62553: AVG IPC :0.73693: L2-Pf-HR :0.91270: L2-HR :0.89377: (Sim:1h56m11s) 
CPU  0 inst:  415000001 cyc:  560684652 now IPC :1.62644: AVG IPC :0.73791: L2-Pf-HR :0.91282: L2-HR :0.89399: (Sim:1h56m28s) 
CPU  0 inst:  416000000 cyc:  561295273 now IPC :1.63768: AVG IPC :0.73889: L2-Pf-HR :0.91295: L2-HR :0.89422: (Sim:1h56m45s) 
CPU  0 inst:  417000003 cyc:  561902561 now IPC :1.64667: AVG IPC :0.73988: L2-Pf-HR :0.91308: L2-HR :0.89446: (Sim:1h57m2s) 
CPU  0 inst:  418000001 cyc:  562501567 now IPC :1.66943: AVG IPC :0.74087: L2-Pf-HR :0.91320: L2-HR :0.89468: (Sim:1h57m17s) 
CPU  0 inst:  419000001 cyc:  563073210 now IPC :1.74934: AVG IPC :0.74189: L2-Pf-HR :0.91333: L2-HR :0.89491: (Sim:1h57m27s) 
CPU  0 inst:  420000003 cyc:  563643010 now IPC :1.75501: AVG IPC :0.74292: L2-Pf-HR :0.91347: L2-HR :0.89515: (Sim:1h57m40s) 
CPU  0 inst:  421000002 cyc:  564211902 now IPC :1.75780: AVG IPC :0.74394: L2-Pf-HR :0.91360: L2-HR :0.89539: (Sim:1h57m57s) 
CPU  0 inst:  422000003 cyc:  564799600 now IPC :1.70156: AVG IPC :0.74494: L2-Pf-HR :0.91373: L2-HR :0.89561: (Sim:1h58m13s) 
CPU  0 inst:  423000000 cyc:  565367220 now IPC :1.76174: AVG IPC :0.74596: L2-Pf-HR :0.91389: L2-HR :0.89587: (Sim:1h58m30s) 
CPU  0 inst:  424000000 cyc:  565934957 now IPC :1.76138: AVG IPC :0.74698: L2-Pf-HR :0.91405: L2-HR :0.89612: (Sim:1h58m47s) 
CPU  0 inst:  425000005 cyc:  566504789 now IPC :1.75491: AVG IPC :0.74800: L2-Pf-HR :0.91421: L2-HR :0.89637: (Sim:1h59m5s) 
CPU  0 inst:  426000004 cyc:  567099590 now IPC :1.68123: AVG IPC :0.74898: L2-Pf-HR :0.91435: L2-HR :0.89660: (Sim:1h59m22s) 
CPU  0 inst:  427000000 cyc:  567682092 now IPC :1.71673: AVG IPC :0.74998: L2-Pf-HR :0.91452: L2-HR :0.89686: (Sim:1h59m40s) 
CPU  0 inst:  428000002 cyc:  568263478 now IPC :1.72003: AVG IPC :0.75097: L2-Pf-HR :0.91469: L2-HR :0.89711: (Sim:1h59m57s) 
CPU  0 inst:  429000005 cyc:  568848244 now IPC :1.71009: AVG IPC :0.75196: L2-Pf-HR :0.91486: L2-HR :0.89736: (Sim:2h0m14s) 
CPU  0 inst:  430000000 cyc:  569458034 now IPC :1.63990: AVG IPC :0.75291: L2-Pf-HR :0.91500: L2-HR :0.89758: (Sim:2h0m31s) 
CPU  0 inst:  431000002 cyc:  570063662 now IPC :1.65118: AVG IPC :0.75387: L2-Pf-HR :0.91511: L2-HR :0.89779: (Sim:2h0m48s) 
CPU  0 inst:  432000000 cyc:  570670743 now IPC :1.64722: AVG IPC :0.75482: L2-Pf-HR :0.91522: L2-HR :0.89799: (Sim:2h1m5s) 
CPU  0 inst:  433000002 cyc:  571282602 now IPC :1.63437: AVG IPC :0.75576: L2-Pf-HR :0.91533: L2-HR :0.89820: (Sim:2h1m23s) 
CPU  0 inst:  434000002 cyc:  571898799 now IPC :1.62286: AVG IPC :0.75670: L2-Pf-HR :0.91544: L2-HR :0.89839: (Sim:2h1m40s) 
CPU  0 inst:  435000002 cyc:  572480660 now IPC :1.71862: AVG IPC :0.75768: L2-Pf-HR :0.91555: L2-HR :0.89859: (Sim:2h1m57s) 
CPU  0 inst:  436000003 cyc:  573048599 now IPC :1.76075: AVG IPC :0.75867: L2-Pf-HR :0.91567: L2-HR :0.89880: (Sim:2h2m14s) 
CPU  0 inst:  437000000 cyc:  573618706 now IPC :1.75405: AVG IPC :0.75966: L2-Pf-HR :0.91579: L2-HR :0.89901: (Sim:2h2m31s) 
CPU  0 inst:  438000002 cyc:  574189743 now IPC :1.75120: AVG IPC :0.76065: L2-Pf-HR :0.91591: L2-HR :0.89922: (Sim:2h2m48s) 
CPU  0 inst:  439000002 cyc:  574770916 now IPC :1.72066: AVG IPC :0.76162: L2-Pf-HR :0.91603: L2-HR :0.89943: (Sim:2h3m4s) 
CPU  0 inst:  440000000 cyc:  575336800 now IPC :1.76714: AVG IPC :0.76261: L2-Pf-HR :0.91617: L2-HR :0.89966: (Sim:2h3m21s) 
CPU  0 inst:  441000005 cyc:  575904041 now IPC :1.76293: AVG IPC :0.76360: L2-Pf-HR :0.91632: L2-HR :0.89988: (Sim:2h3m37s) 
CPU  0 inst:  442000004 cyc:  576480085 now IPC :1.73598: AVG IPC :0.76458: L2-Pf-HR :0.91645: L2-HR :0.90010: (Sim:2h3m54s) 
CPU  0 inst:  443000003 cyc:  577067042 now IPC :1.70370: AVG IPC :0.76553: L2-Pf-HR :0.91659: L2-HR :0.90031: (Sim:2h4m11s) 
CPU  0 inst:  444000001 cyc:  577650041 now IPC :1.71527: AVG IPC :0.76649: L2-Pf-HR :0.91674: L2-HR :0.90053: (Sim:2h4m28s) 
CPU  0 inst:  445000005 cyc:  578235117 now IPC :1.70919: AVG IPC :0.76745: L2-Pf-HR :0.91688: L2-HR :0.90075: (Sim:2h4m45s) 
CPU  0 inst:  446000005 cyc:  578826330 now IPC :1.69144: AVG IPC :0.76839: L2-Pf-HR :0.91702: L2-HR :0.90096: (Sim:2h5m2s) 
CPU  0 inst:  447000002 cyc:  579435887 now IPC :1.64053: AVG IPC :0.76931: L2-Pf-HR :0.91714: L2-HR :0.90116: (Sim:2h5m19s) 
CPU  0 inst:  448000000 cyc:  580054066 now IPC :1.61765: AVG IPC :0.77022: L2-Pf-HR :0.91724: L2-HR :0.90134: (Sim:2h5m36s) 
CPU  0 inst:  449000005 cyc:  580667863 now IPC :1.62921: AVG IPC :0.77113: L2-Pf-HR :0.91732: L2-HR :0.90151: (Sim:2h5m54s) 
CPU  0 inst:  450000000 cyc:  581275437 now IPC :1.64588: AVG IPC :0.77204: L2-Pf-HR :0.91742: L2-HR :0.90169: (Sim:2h6m11s) 
CPU  0 inst:  451000002 cyc:  581890574 now IPC :1.62566: AVG IPC :0.77295: L2-Pf-HR :0.91752: L2-HR :0.90186: (Sim:2h6m28s) 
CPU  0 inst:  452000003 cyc:  582467083 now IPC :1.73458: AVG IPC :0.77390: L2-Pf-HR :0.91763: L2-HR :0.90205: (Sim:2h6m45s) 
CPU  0 inst:  453000000 cyc:  583039553 now IPC :1.74681: AVG IPC :0.77486: L2-Pf-HR :0.91774: L2-HR :0.90224: (Sim:2h7m2s) 
CPU  0 inst:  454000004 cyc:  583607655 now IPC :1.76025: AVG IPC :0.77582: L2-Pf-HR :0.91784: L2-HR :0.90243: (Sim:2h7m18s) 
CPU  0 inst:  455000003 cyc:  584191267 now IPC :1.71347: AVG IPC :0.77676: L2-Pf-HR :0.91794: L2-HR :0.90260: (Sim:2h7m35s) 
CPU  0 inst:  456000000 cyc:  584761071 now IPC :1.75498: AVG IPC :0.77771: L2-Pf-HR :0.91806: L2-HR :0.90280: (Sim:2h7m52s) 
CPU  0 inst:  457000004 cyc:  585329281 now IPC :1.75992: AVG IPC :0.77867: L2-Pf-HR :0.91819: L2-HR :0.90300: (Sim:2h8m9s) 
CPU  0 inst:  458000001 cyc:  585897866 now IPC :1.75875: AVG IPC :0.77962: L2-Pf-HR :0.91832: L2-HR :0.90321: (Sim:2h8m26s) 
CPU  0 inst:  459000004 cyc:  586471953 now IPC :1.74190: AVG IPC :0.78056: L2-Pf-HR :0.91845: L2-HR :0.90340: (Sim:2h8m41s) 
CPU  0 inst:  460000004 cyc:  587065373 now IPC :1.68515: AVG IPC :0.78148: L2-Pf-HR :0.91858: L2-HR :0.90360: (Sim:2h8m54s) 
CPU  0 inst:  461000000 cyc:  587647739 now IPC :1.71713: AVG IPC :0.78241: L2-Pf-HR :0.91872: L2-HR :0.90380: (Sim:2h9m11s) 
CPU  0 inst:  462000001 cyc:  588230496 now IPC :1.71598: AVG IPC :0.78333: L2-Pf-HR :0.91885: L2-HR :0.90401: (Sim:2h9m28s) 
CPU  0 inst:  463000005 cyc:  588812448 now IPC :1.71836: AVG IPC :0.78426: L2-Pf-HR :0.91899: L2-HR :0.90421: (Sim:2h9m45s) 
CPU  0 inst:  464000000 cyc:  589436884 now IPC :1.60144: AVG IPC :0.78513: L2-Pf-HR :0.91907: L2-HR :0.90436: (Sim:2h10m2s) 
CPU  0 inst:  465000002 cyc:  590046664 now IPC :1.63994: AVG IPC :0.78601: L2-Pf-HR :0.91916: L2-HR :0.90452: (Sim:2h10m19s) 
CPU  0 inst:  466000002 cyc:  590654656 now IPC :1.64476: AVG IPC :0.78690: L2-Pf-HR :0.91925: L2-HR :0.90469: (Sim:2h10m36s) 
CPU  0 inst:  467000001 cyc:  591262646 now IPC :1.64476: AVG IPC :0.78778: L2-Pf-HR :0.91934: L2-HR :0.90485: (Sim:2h10m54s) 
CPU  0 inst:  468000002 cyc:  591869491 now IPC :1.64787: AVG IPC :0.78866: L2-Pf-HR :0.91942: L2-HR :0.90500: (Sim:2h11m11s) 
CPU  0 inst:  469000001 cyc:  592438162 now IPC :1.75848: AVG IPC :0.78960: L2-Pf-HR :0.91952: L2-HR :0.90517: (Sim:2h11m26s) 
CPU  0 inst:  470000002 cyc:  593008410 now IPC :1.75362: AVG IPC :0.79053: L2-Pf-HR :0.91962: L2-HR :0.90534: (Sim:2h11m36s) 
CPU  0 inst:  471000000 cyc:  593579599 now IPC :1.75073: AVG IPC :0.79145: L2-Pf-HR :0.91971: L2-HR :0.90551: (Sim:2h11m54s) 
CPU  0 inst:  472000000 cyc:  594166959 now IPC :1.70253: AVG IPC :0.79235: L2-Pf-HR :0.91980: L2-HR :0.90567: (Sim:2h12m10s) 
CPU  0 inst:  473000001 cyc:  594736398 now IPC :1.75612: AVG IPC :0.79328: L2-Pf-HR :0.91992: L2-HR :0.90585: (Sim:2h12m27s) 
CPU  0 inst:  474000001 cyc:  595301676 now IPC :1.76904: AVG IPC :0.79421: L2-Pf-HR :0.92004: L2-HR :0.90603: (Sim:2h12m44s) 
CPU  0 inst:  475000004 cyc:  595870525 now IPC :1.75794: AVG IPC :0.79513: L2-Pf-HR :0.92016: L2-HR :0.90622: (Sim:2h13m1s) 
CPU  0 inst:  476000001 cyc:  596460345 now IPC :1.69543: AVG IPC :0.79602: L2-Pf-HR :0.92025: L2-HR :0.90638: (Sim:2h13m17s) 
CPU  0 inst:  477000001 cyc:  597045095 now IPC :1.71013: AVG IPC :0.79692: L2-Pf-HR :0.92038: L2-HR :0.90657: (Sim:2h13m34s) 
CPU  0 inst:  478000005 cyc:  597625644 now IPC :1.72251: AVG IPC :0.79782: L2-Pf-HR :0.92051: L2-HR :0.90675: (Sim:2h13m51s) 
CPU  0 inst:  479000000 cyc:  598213169 now IPC :1.70205: AVG IPC :0.79871: L2-Pf-HR :0.92063: L2-HR :0.90693: (Sim:2h14m7s) 
CPU  0 inst:  480000000 cyc:  598805958 now IPC :1.68694: AVG IPC :0.79959: L2-Pf-HR :0.92075: L2-HR :0.90711: (Sim:2h14m19s) 
CPU  0 inst:  481000004 cyc:  599430203 now IPC :1.60194: AVG IPC :0.80042: L2-Pf-HR :0.92081: L2-HR :0.90724: (Sim:2h14m28s) 
CPU  0 inst:  482000005 cyc:  600043087 now IPC :1.63163: AVG IPC :0.80127: L2-Pf-HR :0.92088: L2-HR :0.90738: (Sim:2h14m37s) 
CPU  0 inst:  483000003 cyc:  600658591 now IPC :1.62468: AVG IPC :0.80212: L2-Pf-HR :0.92095: L2-HR :0.90751: (Sim:2h14m47s) 
CPU  0 inst:  484000004 cyc:  601277457 now IPC :1.61586: AVG IPC :0.80296: L2-Pf-HR :0.92101: L2-HR :0.90764: (Sim:2h14m56s) 
CPU  0 inst:  485000001 cyc:  601856840 now IPC :1.72597: AVG IPC :0.80385: L2-Pf-HR :0.92110: L2-HR :0.90780: (Sim:2h15m9s) 
CPU  0 inst:  486000005 cyc:  602431186 now IPC :1.74112: AVG IPC :0.80474: L2-Pf-HR :0.92119: L2-HR :0.90794: (Sim:2h15m26s) 
CPU  0 inst:  487000005 cyc:  603002493 now IPC :1.75037: AVG IPC :0.80564: L2-Pf-HR :0.92127: L2-HR :0.90810: (Sim:2h15m43s) 
CPU  0 inst:  488000000 cyc:  603570647 now IPC :1.76008: AVG IPC :0.80654: L2-Pf-HR :0.92136: L2-HR :0.90825: (Sim:2h16m0s) 
CPU  0 inst:  489000001 cyc:  604156616 now IPC :1.70658: AVG IPC :0.80741: L2-Pf-HR :0.92145: L2-HR :0.90840: (Sim:2h16m17s) 
CPU  0 inst:  490000001 cyc:  604726004 now IPC :1.75627: AVG IPC :0.80831: L2-Pf-HR :0.92155: L2-HR :0.90856: (Sim:2h16m34s) 
CPU  0 inst:  491000003 cyc:  605294366 now IPC :1.75945: AVG IPC :0.80920: L2-Pf-HR :0.92166: L2-HR :0.90873: (Sim:2h16m51s) 
CPU  0 inst:  492000001 cyc:  605862562 now IPC :1.75995: AVG IPC :0.81010: L2-Pf-HR :0.92177: L2-HR :0.90889: (Sim:2h17m8s) 
CPU  0 inst:  493000004 cyc:  606459240 now IPC :1.67595: AVG IPC :0.81095: L2-Pf-HR :0.92187: L2-HR :0.90905: (Sim:2h17m25s) 
Finished CPU 0 instr: 491000002 cyc: 605462189 AVG IPC: 0.81095 (Sim time: 2h17m25s)

ChampSim completed all CPUs

[ROI Statistics]
Core_0_instructions 491000002
Core_0_cycles 605462189
Core_0_IPC 0.81095

Core_0_branch_prediction_accuracy 99.58586
Core_0_branch_MPKI 0.12051
Core_0_average_ROB_occupancy_at_mispredict 471.33308

Core_0_L1D_total_access 303892548
Core_0_L1D_total_hit 278826917 L1D_total_Hit Ratio: 0.91752
Core_0_L1D_total_miss 25065631
Core_0_L1D_loads 122835393
Core_0_L1D_load_hit 110161258 L1D_load_Hit Ratio: 0.89682
Core_0_L1D_load_miss 12674135
Core_0_L1D_RFOs 12803451
Core_0_L1D_RFO_hit 11883159 L1D_RFO_Hit Ratio: 0.92812
Core_0_L1D_RFO_miss 920292
Core_0_L1D_prefetches 168253704
Core_0_L1D_prefetch_hit 156782500 L1D_prefetch_Hit Ratio: 0.93182
Core_0_L1D_prefetch_miss 11471204
Core_0_L1D_writebacks 0
Core_0_L1D_writeback_hit 0 L1D_writeback_Hit Ratio: -nan
Core_0_L1D_writeback_miss 0
Core_0_L1D_prefetch_requested 378706209
Core_0_L1D_prefetch_issued 193421324
Core_0_L1D_prefetch_useful 5786899 L1D_Useful Ratio: 0.02992
Core_0_L1D_prefetch_useless 5704258
Core_0_L1D_prefetch_late 589195
Core_0_L1D_average_miss_latency 4045678.81510

Core_0_L1I_total_access 73118995
Core_0_L1I_total_hit 73114022 L1I_total_Hit Ratio: 0.99993
Core_0_L1I_total_miss 4973
Core_0_L1I_loads 73118995
Core_0_L1I_load_hit 73114022 L1I_load_Hit Ratio: 0.99993
Core_0_L1I_load_miss 4973
Core_0_L1I_RFOs 0
Core_0_L1I_RFO_hit 0 L1I_RFO_Hit Ratio: -nan
Core_0_L1I_RFO_miss 0
Core_0_L1I_prefetches 0
Core_0_L1I_prefetch_hit 0 L1I_prefetch_Hit Ratio: -nan
Core_0_L1I_prefetch_miss 0
Core_0_L1I_writebacks 0
Core_0_L1I_writeback_hit 0 L1I_writeback_Hit Ratio: -nan
Core_0_L1I_writeback_miss 0
Core_0_L1I_prefetch_requested 0
Core_0_L1I_prefetch_issued 0
Core_0_L1I_prefetch_useful 0 L1I_Useful Ratio: -nan
Core_0_L1I_prefetch_useless 0
Core_0_L1I_prefetch_late 0
Core_0_L1I_average_miss_latency 317.90288

Core_0_L2C_total_access 69591691
Core_0_L2C_total_hit 63262267 L2C_total_Hit Ratio: 0.90905
Core_0_L2C_total_miss 6329424
Core_0_L2C_loads 12091177
Core_0_L2C_load_hit 10707380 L2C_load_Hit Ratio: 0.88555
Core_0_L2C_load_miss 1383797
Core_0_L2C_RFOs 920257
Core_0_L2C_RFO_hit 170495 L2C_RFO_Hit Ratio: 0.18527
Core_0_L2C_RFO_miss 749762
Core_0_L2C_prefetches 53666421
Core_0_L2C_prefetch_hit 49473363 L2C_prefetch_Hit Ratio: 0.92187
Core_0_L2C_prefetch_miss 4193058
Core_0_L2C_writebacks 2913836
Core_0_L2C_writeback_hit 2911029 L2C_writeback_Hit Ratio: 0.99904
Core_0_L2C_writeback_miss 2807
Core_0_L2C_prefetch_requested 166266578
Core_0_L2C_prefetch_issued 61664905
Core_0_L2C_prefetch_useful 631348 L2C_Useful Ratio: 0.01024
Core_0_L2C_prefetch_useless 3572143
Core_0_L2C_prefetch_late 402334
Core_0_L2C_average_miss_latency 247.51517

Core_0_LLC_total_access 9160718
Core_0_LLC_total_hit 4332773 LLC_total_Hit Ratio: 0.47297
Core_0_LLC_total_miss 4827945
Core_0_LLC_loads 981468
Core_0_LLC_load_hit 647448 LLC_load_Hit Ratio: 0.65967
Core_0_LLC_load_miss 334020
Core_0_LLC_RFOs 749760
Core_0_LLC_RFO_hit 18 LLC_RFO_Hit Ratio: 0.00002
Core_0_LLC_RFO_miss 749742
Core_0_LLC_prefetches 4655757
Core_0_LLC_prefetch_hit 928581 LLC_prefetch_Hit Ratio: 0.19945
Core_0_LLC_prefetch_miss 3727176
Core_0_LLC_writebacks 2773733
Core_0_LLC_writeback_hit 2756726 LLC_writeback_Hit Ratio: 0.99387
Core_0_LLC_writeback_miss 17007
Core_0_LLC_prefetch_requested 0
Core_0_LLC_prefetch_issued 0
Core_0_LLC_prefetch_useful 497211 LLC_Useful Ratio: inf
Core_0_LLC_prefetch_useless 3204247
Core_0_LLC_prefetch_late 1812
Core_0_LLC_average_miss_latency 290.11842

Core_0_major_page_fault 0
Core_0_minor_page_fault 28665

CPU 0 L1D next line prefetcher final stats
CPU 0 L2C PC-based stride prefetcher final stats
Stride Degree: 15
MK1  MARKOV_LRU_SIZE: 128
MK1  MARKOV_PREDICTION_PERCENTTHRESHOLD: 40.00000
MK1  OUTLIERS_THRESHOLD_Max: 64
MK1  OUTLIERS_THRESHOLD_Min: 32
MK2  MARKOV_LRU_SIZE: 256
MK2  MARKOV_PREDICTION_PERCENTTHRESHOLD: 30.00000
MK2  OUTLIERS_THRESHOLD_Max: 32
MK2  OUTLIERS_THRESHOLD_Min: 16
MK3  MARKOV_LRU_SIZE: 384
MK3  MARKOV_PREDICTION_PERCENTTHRESHOLD: 25.00000
MK3  OUTLIERS_THRESHOLD_Max: 16
MK3  OUTLIERS_THRESHOLD_Min: 8
MK4  MARKOV_LRU_SIZE: 512
MK4  MARKOV_PREDICTION_PERCENTTHRESHOLD: 20.00000
MK4  OUTLIERS_THRESHOLD_Max: 8
MK4  OUTLIERS_THRESHOLD_Min: 0
IPStride Degree/Access Ratio: 3.75293
MK1 IPDEltaMarkov  Degree/Access Ratio: 0.54721
MK2 IPDEltaMarkov  Degree/Access Ratio: 0.66311
MK3 IPDEltaMarkov  Degree/Access Ratio: 0.71954
MK4 IPDEltaMarkov  Degree/Access Ratio: 1.39206
Channel_0_RQ_row_buffer_hit 2590265
Channel_0_RQ_row_buffer_miss 2220585
Channel_0_WQ_row_buffer_hit 704913
Channel_0_WQ_row_buffer_miss 1781824
Channel_0_WQ_full 243
Channel_0_dbus_congested 3907343

avg_congested_cycle 8

EzSearch AVG IPC :0.81095: L2-Pf-HR :0.92187 : L2-HR :0.90905 Uful:0.01024
     > Finished combination: TraceType=770-tot Sim:491000000 Prefetcher=L2029-SecTOP-L2-MultiMarkovDelta_ip_stride_v4-IPStrS256 L1=next_line
