TRACE: [125000000][OPT-125M]_[h12][s512][d64] Warmup: 2000000 NumTraces: 125000000
L1:bingo_dpc3:L2:bingo_dpc3
*************************************************
   ChampSim Multicore Out-of-Order Simulator
   Last compiled: Oct 31 2024 09:25:09
*************************************************

trace_0 770-tot_memTraces_v5/140-subBillion_s512_LLM_Arch/memTraces[125000000][OPT-125M]_[h12][s512][d64].champsim.9.xz
Bingo PHT WAYS: 16 and PHT_SIZE: 16384
Bingo2 PHT WAYS: 16 and PHT_SIZE: 16384
MAIN.cc ln 751 stats print skipped
CPU  0 inst:    1000001 cyc:     505583 now IPC :1.97792: AVG IPC :1.97792: L2-Pf-HR :0.74145: L2-HR :0.66347: (Sim:0h0m14s) 
CPU  0 inst:    2000002 cyc:     993293 now IPC :2.05040: AVG IPC :2.01351: L2-Pf-HR :0.79023: L2-HR :0.72625: (Sim:0h0m29s) 

Warmup complete CPU  0 instructions:    2000002 cycles:     993293 (Simulation time: 0 hr 0 min 29 sec) 

CPU  0 inst:    3000001 cyc:    1639873 now IPC :1.54660: AVG IPC :1.54660: L2-Pf-HR :0.91065: L2-HR :0.81177: (Sim:0h0m42s) 
CPU  0 inst:    4000001 cyc:    2269216 now IPC :1.58896: AVG IPC :1.56749: L2-Pf-HR :0.87461: L2-HR :0.80086: (Sim:0h0m55s) 
CPU  0 inst:    5000002 cyc:    2901497 now IPC :1.58158: AVG IPC :1.57216: L2-Pf-HR :0.84730: L2-HR :0.80129: (Sim:0h1m9s) 
CPU  0 inst:    6000004 cyc:    3472210 now IPC :1.75220: AVG IPC :1.61361: L2-Pf-HR :0.86282: L2-HR :0.81994: (Sim:0h1m22s) 
CPU  0 inst:    7000005 cyc:    4053986 now IPC :1.71888: AVG IPC :1.63362: L2-Pf-HR :0.86989: L2-HR :0.82753: (Sim:0h1m33s) 
CPU  0 inst:    8000000 cyc:    4674030 now IPC :1.61278: AVG IPC :1.63011: L2-Pf-HR :0.86631: L2-HR :0.82501: (Sim:0h1m45s) 
CPU  0 inst:    9000004 cyc:    5342089 now IPC :1.49688: AVG IPC :1.60964: L2-Pf-HR :0.85663: L2-HR :0.81980: (Sim:0h1m58s) 
CPU  0 inst:   10000001 cyc:    5976350 now IPC :1.57663: AVG IPC :1.60544: L2-Pf-HR :0.86471: L2-HR :0.82462: (Sim:0h2m12s) 
CPU  0 inst:   11000003 cyc:    6601406 now IPC :1.59986: AVG IPC :1.60482: L2-Pf-HR :0.86960: L2-HR :0.82876: (Sim:0h2m25s) 
CPU  0 inst:   12000005 cyc:    7275981 now IPC :1.48242: AVG IPC :1.59168: L2-Pf-HR :0.86878: L2-HR :0.82745: (Sim:0h2m38s) 
CPU  0 inst:   13000002 cyc:    7992733 now IPC :1.39518: AVG IPC :1.57155: L2-Pf-HR :0.86178: L2-HR :0.82355: (Sim:0h2m52s) 
CPU  0 inst:   14000002 cyc:    8618878 now IPC :1.59707: AVG IPC :1.57365: L2-Pf-HR :0.86629: L2-HR :0.82737: (Sim:0h3m6s) 
CPU  0 inst:   15000001 cyc:    9275919 now IPC :1.52197: AVG IPC :1.56955: L2-Pf-HR :0.86842: L2-HR :0.82877: (Sim:0h3m20s) 
CPU  0 inst:   16000000 cyc:    9935570 now IPC :1.51595: AVG IPC :1.56560: L2-Pf-HR :0.86907: L2-HR :0.82938: (Sim:0h3m33s) 
CPU  0 inst:   17000001 cyc:   10670740 now IPC :1.36023: AVG IPC :1.55000: L2-Pf-HR :0.86367: L2-HR :0.82553: (Sim:0h3m47s) 
CPU  0 inst:   18000000 cyc:   11320431 now IPC :1.53919: AVG IPC :1.54932: L2-Pf-HR :0.86796: L2-HR :0.82836: (Sim:0h3m59s) 
CPU  0 inst:   19000002 cyc:   11987221 now IPC :1.49973: AVG IPC :1.54631: L2-Pf-HR :0.87146: L2-HR :0.82955: (Sim:0h4m9s) 
CPU  0 inst:   20000002 cyc:   12676360 now IPC :1.45109: AVG IPC :1.54069: L2-Pf-HR :0.87230: L2-HR :0.82929: (Sim:0h4m20s) 
CPU  0 inst:   21000003 cyc:   13407021 now IPC :1.36863: AVG IPC :1.53056: L2-Pf-HR :0.86760: L2-HR :0.82614: (Sim:0h4m33s) 
CPU  0 inst:   22000003 cyc:   14059278 now IPC :1.53314: AVG IPC :1.53069: L2-Pf-HR :0.87068: L2-HR :0.82787: (Sim:0h4m45s) 
CPU  0 inst:   23000002 cyc:   14710780 now IPC :1.53491: AVG IPC :1.53089: L2-Pf-HR :0.87138: L2-HR :0.82861: (Sim:0h4m58s) 
CPU  0 inst:   24000000 cyc:   15380861 now IPC :1.49235: AVG IPC :1.52910: L2-Pf-HR :0.87241: L2-HR :0.82934: (Sim:0h5m12s) 
CPU  0 inst:   25000001 cyc:   16116156 now IPC :1.36000: AVG IPC :1.52088: L2-Pf-HR :0.86742: L2-HR :0.82608: (Sim:0h5m25s) 
CPU  0 inst:   26000004 cyc:   16778049 now IPC :1.51082: AVG IPC :1.52045: L2-Pf-HR :0.87073: L2-HR :0.82807: (Sim:0h5m39s) 
CPU  0 inst:   27000003 cyc:   17451721 now IPC :1.48440: AVG IPC :1.51898: L2-Pf-HR :0.87118: L2-HR :0.82799: (Sim:0h5m53s) 
CPU  0 inst:   28000002 cyc:   18108787 now IPC :1.52192: AVG IPC :1.51909: L2-Pf-HR :0.87240: L2-HR :0.82906: (Sim:0h6m6s) 
CPU  0 inst:   29000002 cyc:   18835318 now IPC :1.37640: AVG IPC :1.51328: L2-Pf-HR :0.86781: L2-HR :0.82600: (Sim:0h6m20s) 
CPU  0 inst:   30000000 cyc:   19503154 now IPC :1.49737: AVG IPC :1.51271: L2-Pf-HR :0.87021: L2-HR :0.82731: (Sim:0h6m34s) 
CPU  0 inst:   31000003 cyc:   20148031 now IPC :1.55069: AVG IPC :1.51399: L2-Pf-HR :0.87098: L2-HR :0.82826: (Sim:0h6m47s) 
CPU  0 inst:   32000000 cyc:   20820932 now IPC :1.48610: AVG IPC :1.51304: L2-Pf-HR :0.87265: L2-HR :0.82941: (Sim:0h7m1s) 
CPU  0 inst:   33000003 cyc:   21523414 now IPC :1.42353: AVG IPC :1.50998: L2-Pf-HR :0.87023: L2-HR :0.82761: (Sim:0h7m14s) 
CPU  0 inst:   34000001 cyc:   22200438 now IPC :1.47705: AVG IPC :1.50893: L2-Pf-HR :0.86968: L2-HR :0.82764: (Sim:0h7m27s) 
CPU  0 inst:   35000000 cyc:   22855041 now IPC :1.52764: AVG IPC :1.50949: L2-Pf-HR :0.87121: L2-HR :0.82876: (Sim:0h7m41s) 
CPU  0 inst:   36000002 cyc:   23511452 now IPC :1.52344: AVG IPC :1.50989: L2-Pf-HR :0.87258: L2-HR :0.82951: (Sim:0h7m54s) 
CPU  0 inst:   37000004 cyc:   24198371 now IPC :1.45578: AVG IPC :1.50829: L2-Pf-HR :0.87144: L2-HR :0.82863: (Sim:0h8m7s) 
CPU  0 inst:   38000001 cyc:   24914848 now IPC :1.39571: AVG IPC :1.50492: L2-Pf-HR :0.87008: L2-HR :0.82801: (Sim:0h8m21s) 
CPU  0 inst:   39000001 cyc:   25577057 now IPC :1.51010: AVG IPC :1.50506: L2-Pf-HR :0.87148: L2-HR :0.82870: (Sim:0h8m35s) 
CPU  0 inst:   40000000 cyc:   26213164 now IPC :1.57206: AVG IPC :1.50675: L2-Pf-HR :0.87231: L2-HR :0.82965: (Sim:0h8m49s) 
CPU  0 inst:   41000003 cyc:   26887982 now IPC :1.48189: AVG IPC :1.50610: L2-Pf-HR :0.87156: L2-HR :0.82902: (Sim:0h9m2s) 
CPU  0 inst:   42000005 cyc:   27611231 now IPC :1.38265: AVG IPC :1.50275: L2-Pf-HR :0.87019: L2-HR :0.82820: (Sim:0h9m16s) 
CPU  0 inst:   43000000 cyc:   28274216 now IPC :1.50832: AVG IPC :1.50288: L2-Pf-HR :0.87192: L2-HR :0.82925: (Sim:0h9m29s) 
CPU  0 inst:   44000004 cyc:   28920988 now IPC :1.54615: AVG IPC :1.50388: L2-Pf-HR :0.87231: L2-HR :0.82956: (Sim:0h9m43s) 
CPU  0 inst:   45000001 cyc:   29605536 now IPC :1.46081: AVG IPC :1.50285: L2-Pf-HR :0.87174: L2-HR :0.82911: (Sim:0h9m56s) 
CPU  0 inst:   46000003 cyc:   30341325 now IPC :1.35909: AVG IPC :1.49925: L2-Pf-HR :0.87099: L2-HR :0.82841: (Sim:0h10m10s) 
CPU  0 inst:   47000003 cyc:   31000448 now IPC :1.51717: AVG IPC :1.49964: L2-Pf-HR :0.87151: L2-HR :0.82879: (Sim:0h10m23s) 
CPU  0 inst:   48000000 cyc:   31663123 now IPC :1.50903: AVG IPC :1.49985: L2-Pf-HR :0.87325: L2-HR :0.82954: (Sim:0h10m36s) 
CPU  0 inst:   49000000 cyc:   32338212 now IPC :1.48129: AVG IPC :1.49945: L2-Pf-HR :0.87276: L2-HR :0.82920: (Sim:0h10m50s) 
CPU  0 inst:   50000001 cyc:   35260292 now IPC :0.34222: AVG IPC :1.40076: L2-Pf-HR :0.85173: L2-HR :0.80388: (Sim:0h11m14s) 
CPU  0 inst:   51000000 cyc:   40171127 now IPC :0.20363: AVG IPC :1.25071: L2-Pf-HR :0.81595: L2-HR :0.76906: (Sim:0h11m50s) 
CPU  0 inst:   52000000 cyc:   44160719 now IPC :0.25065: AVG IPC :1.15828: L2-Pf-HR :0.80090: L2-HR :0.75775: (Sim:0h12m18s) 
CPU  0 inst:   53000000 cyc:   47795521 now IPC :0.27512: AVG IPC :1.08969: L2-Pf-HR :0.79072: L2-HR :0.75231: (Sim:0h12m43s) 
CPU  0 inst:   54000003 cyc:   51429628 now IPC :0.27517: AVG IPC :1.03100: L2-Pf-HR :0.78080: L2-HR :0.74701: (Sim:0h13m8s) 
CPU  0 inst:   55000001 cyc:   55063481 now IPC :0.27519: AVG IPC :0.98021: L2-Pf-HR :0.77110: L2-HR :0.74185: (Sim:0h13m34s) 
CPU  0 inst:   56000000 cyc:   58698045 now IPC :0.27514: AVG IPC :0.93580: L2-Pf-HR :0.76164: L2-HR :0.73680: (Sim:0h13m59s) 
CPU  0 inst:   57000000 cyc:   62333246 now IPC :0.27509: AVG IPC :0.89664: L2-Pf-HR :0.75243: L2-HR :0.73189: (Sim:0h14m24s) 
CPU  0 inst:   58000000 cyc:   65968192 now IPC :0.27511: AVG IPC :0.86187: L2-Pf-HR :0.74343: L2-HR :0.72710: (Sim:0h14m48s) 
CPU  0 inst:   59000000 cyc:   69603047 now IPC :0.27511: AVG IPC :0.83079: L2-Pf-HR :0.73465: L2-HR :0.72242: (Sim:0h15m13s) 
CPU  0 inst:   60000000 cyc:   73238289 now IPC :0.27508: AVG IPC :0.80282: L2-Pf-HR :0.72608: L2-HR :0.71784: (Sim:0h15m38s) 
CPU  0 inst:   61000004 cyc:   76873201 now IPC :0.27511: AVG IPC :0.77754: L2-Pf-HR :0.71770: L2-HR :0.71338: (Sim:0h16m1s) 
CPU  0 inst:   62000000 cyc:   80508058 now IPC :0.27511: AVG IPC :0.75458: L2-Pf-HR :0.70950: L2-HR :0.70901: (Sim:0h16m23s) 
CPU  0 inst:   63000000 cyc:   84142982 now IPC :0.27511: AVG IPC :0.73362: L2-Pf-HR :0.70149: L2-HR :0.70474: (Sim:0h16m48s) 
CPU  0 inst:   64000000 cyc:   87776360 now IPC :0.27523: AVG IPC :0.71443: L2-Pf-HR :0.69366: L2-HR :0.70058: (Sim:0h17m13s) 
CPU  0 inst:   65000002 cyc:   91410690 now IPC :0.27515: AVG IPC :0.69677: L2-Pf-HR :0.68600: L2-HR :0.69650: (Sim:0h17m38s) 
CPU  0 inst:   66000000 cyc:   95045301 now IPC :0.27513: AVG IPC :0.68047: L2-Pf-HR :0.67851: L2-HR :0.69251: (Sim:0h18m2s) 
CPU  0 inst:   67000000 cyc:   98680626 now IPC :0.27508: AVG IPC :0.66539: L2-Pf-HR :0.67118: L2-HR :0.68861: (Sim:0h18m27s) 
CPU  0 inst:   68000000 cyc:  102315399 now IPC :0.27512: AVG IPC :0.65139: L2-Pf-HR :0.66402: L2-HR :0.68480: (Sim:0h18m52s) 
CPU  0 inst:   69000004 cyc:  105950321 now IPC :0.27511: AVG IPC :0.63836: L2-Pf-HR :0.65700: L2-HR :0.68106: (Sim:0h19m16s) 
CPU  0 inst:   70000000 cyc:  109585757 now IPC :0.27507: AVG IPC :0.62619: L2-Pf-HR :0.65013: L2-HR :0.67740: (Sim:0h19m40s) 
CPU  0 inst:   71000000 cyc:  113220327 now IPC :0.27514: AVG IPC :0.61483: L2-Pf-HR :0.64340: L2-HR :0.67382: (Sim:0h20m5s) 
CPU  0 inst:   72000000 cyc:  116855276 now IPC :0.27511: AVG IPC :0.60417: L2-Pf-HR :0.63681: L2-HR :0.67032: (Sim:0h20m30s) 
CPU  0 inst:   73000000 cyc:  120490233 now IPC :0.27511: AVG IPC :0.59416: L2-Pf-HR :0.63035: L2-HR :0.66688: (Sim:0h20m55s) 
CPU  0 inst:   74000001 cyc:  124123503 now IPC :0.27523: AVG IPC :0.58475: L2-Pf-HR :0.62402: L2-HR :0.66351: (Sim:0h21m20s) 
CPU  0 inst:   75000002 cyc:  127757934 now IPC :0.27515: AVG IPC :0.57587: L2-Pf-HR :0.61782: L2-HR :0.66021: (Sim:0h21m44s) 
CPU  0 inst:   76000002 cyc:  129653826 now IPC :0.52746: AVG IPC :0.57516: L2-Pf-HR :0.61922: L2-HR :0.66276: (Sim:0h22m3s) 
CPU  0 inst:   77000005 cyc:  130259202 now IPC :1.65187: AVG IPC :0.58020: L2-Pf-HR :0.62640: L2-HR :0.67014: (Sim:0h22m18s) 
CPU  0 inst:   78000000 cyc:  130888845 now IPC :1.58819: AVG IPC :0.58509: L2-Pf-HR :0.63339: L2-HR :0.67716: (Sim:0h22m34s) 
CPU  0 inst:   79000002 cyc:  131444873 now IPC :1.79847: AVG IPC :0.59026: L2-Pf-HR :0.64077: L2-HR :0.68431: (Sim:0h22m49s) 
CPU  0 inst:   80000000 cyc:  132058907 now IPC :1.62857: AVG IPC :0.59512: L2-Pf-HR :0.64648: L2-HR :0.69044: (Sim:0h23m5s) 
CPU  0 inst:   81000001 cyc:  132650649 now IPC :1.68993: AVG IPC :0.60004: L2-Pf-HR :0.65243: L2-HR :0.69646: (Sim:0h23m20s) 
CPU  0 inst:   82000005 cyc:  133253946 now IPC :1.65756: AVG IPC :0.60487: L2-Pf-HR :0.65804: L2-HR :0.70220: (Sim:0h23m36s) 
CPU  0 inst:   83000003 cyc:  133808377 now IPC :1.80365: AVG IPC :0.60987: L2-Pf-HR :0.66416: L2-HR :0.70806: (Sim:0h23m51s) 
CPU  0 inst:   84000001 cyc:  134404703 now IPC :1.67693: AVG IPC :0.61464: L2-Pf-HR :0.66900: L2-HR :0.71319: (Sim:0h24m7s) 
CPU  0 inst:   85000005 cyc:  134991925 now IPC :1.70294: AVG IPC :0.61941: L2-Pf-HR :0.67382: L2-HR :0.71810: (Sim:0h24m22s) 
CPU  0 inst:   86000001 cyc:  135578124 now IPC :1.70590: AVG IPC :0.62414: L2-Pf-HR :0.67831: L2-HR :0.72278: (Sim:0h24m38s) 
CPU  0 inst:   87000000 cyc:  136130362 now IPC :1.81081: AVG IPC :0.62899: L2-Pf-HR :0.68334: L2-HR :0.72767: (Sim:0h24m53s) 
CPU  0 inst:   88000000 cyc:  136699020 now IPC :1.75853: AVG IPC :0.63372: L2-Pf-HR :0.68759: L2-HR :0.73202: (Sim:0h25m6s) 
CPU  0 inst:   89000001 cyc:  137281087 now IPC :1.71802: AVG IPC :0.63836: L2-Pf-HR :0.69159: L2-HR :0.73615: (Sim:0h25m22s) 
CPU  0 inst:   90000001 cyc:  137858898 now IPC :1.73067: AVG IPC :0.64297: L2-Pf-HR :0.69550: L2-HR :0.74021: (Sim:0h25m37s) 
CPU  0 inst:   91000002 cyc:  138422034 now IPC :1.77577: AVG IPC :0.64761: L2-Pf-HR :0.69936: L2-HR :0.74412: (Sim:0h25m52s) 
CPU  0 inst:   92000004 cyc:  138967868 now IPC :1.83206: AVG IPC :0.65229: L2-Pf-HR :0.70352: L2-HR :0.74815: (Sim:0h26m7s) 
CPU  0 inst:   93000000 cyc:  139562289 now IPC :1.68230: AVG IPC :0.65671: L2-Pf-HR :0.70660: L2-HR :0.75145: (Sim:0h26m23s) 
CPU  0 inst:   94000005 cyc:  140141997 now IPC :1.72502: AVG IPC :0.66116: L2-Pf-HR :0.70990: L2-HR :0.75487: (Sim:0h26m38s) 
CPU  0 inst:   95000000 cyc:  140712544 now IPC :1.75270: AVG IPC :0.66562: L2-Pf-HR :0.71297: L2-HR :0.75808: (Sim:0h26m53s) 
CPU  0 inst:   96000000 cyc:  141259899 now IPC :1.82697: AVG IPC :0.67015: L2-Pf-HR :0.71661: L2-HR :0.76155: (Sim:0h27m8s) 
CPU  0 inst:   97000000 cyc:  141846058 now IPC :1.70602: AVG IPC :0.67446: L2-Pf-HR :0.71937: L2-HR :0.76449: (Sim:0h27m23s) 
CPU  0 inst:   98000003 cyc:  142427499 now IPC :1.71987: AVG IPC :0.67876: L2-Pf-HR :0.72220: L2-HR :0.76740: (Sim:0h27m34s) 
CPU  0 inst:   99000000 cyc:  143003786 now IPC :1.73524: AVG IPC :0.68305: L2-Pf-HR :0.72479: L2-HR :0.77017: (Sim:0h27m49s) 
CPU  0 inst:  100000004 cyc:  143550162 now IPC :1.83025: AVG IPC :0.68744: L2-Pf-HR :0.72794: L2-HR :0.77321: (Sim:0h28m5s) 
CPU  0 inst:  101000005 cyc:  144125348 now IPC :1.73857: AVG IPC :0.69167: L2-Pf-HR :0.73044: L2-HR :0.77584: (Sim:0h28m21s) 
CPU  0 inst:  102000003 cyc:  144708277 now IPC :1.71547: AVG IPC :0.69582: L2-Pf-HR :0.73290: L2-HR :0.77836: (Sim:0h28m37s) 
CPU  0 inst:  103000000 cyc:  145288428 now IPC :1.72368: AVG IPC :0.69995: L2-Pf-HR :0.73502: L2-HR :0.78069: (Sim:0h28m53s) 
CPU  0 inst:  104000000 cyc:  145835535 now IPC :1.82780: AVG IPC :0.70421: L2-Pf-HR :0.73780: L2-HR :0.78333: (Sim:0h29m9s) 
CPU  0 inst:  105000004 cyc:  146405469 now IPC :1.75460: AVG IPC :0.70833: L2-Pf-HR :0.74011: L2-HR :0.78570: (Sim:0h29m24s) 
CPU  0 inst:  106000003 cyc:  146992975 now IPC :1.70211: AVG IPC :0.71233: L2-Pf-HR :0.74219: L2-HR :0.78787: (Sim:0h29m40s) 
CPU  0 inst:  107000002 cyc:  147578080 now IPC :1.70909: AVG IPC :0.71631: L2-Pf-HR :0.74400: L2-HR :0.78990: (Sim:0h29m56s) 
CPU  0 inst:  108000001 cyc:  148128499 now IPC :1.81680: AVG IPC :0.72043: L2-Pf-HR :0.74648: L2-HR :0.79227: (Sim:0h30m10s) 
CPU  0 inst:  109000003 cyc:  148692496 now IPC :1.77306: AVG IPC :0.72445: L2-Pf-HR :0.74859: L2-HR :0.79440: (Sim:0h30m26s) 
CPU  0 inst:  110000004 cyc:  149278733 now IPC :1.70580: AVG IPC :0.72833: L2-Pf-HR :0.75032: L2-HR :0.79628: (Sim:0h30m40s) 
CPU  0 inst:  111000005 cyc:  149865288 now IPC :1.70487: AVG IPC :0.73217: L2-Pf-HR :0.75194: L2-HR :0.79807: (Sim:0h30m56s) 
CPU  0 inst:  112000000 cyc:  150414863 now IPC :1.81958: AVG IPC :0.73617: L2-Pf-HR :0.75411: L2-HR :0.80017: (Sim:0h31m11s) 
CPU  0 inst:  113000004 cyc:  150975491 now IPC :1.78372: AVG IPC :0.74009: L2-Pf-HR :0.75597: L2-HR :0.80205: (Sim:0h31m27s) 
CPU  0 inst:  114000000 cyc:  151565873 now IPC :1.69381: AVG IPC :0.74383: L2-Pf-HR :0.75748: L2-HR :0.80372: (Sim:0h31m43s) 
CPU  0 inst:  115000005 cyc:  152148256 now IPC :1.71709: AVG IPC :0.74758: L2-Pf-HR :0.75920: L2-HR :0.80547: (Sim:0h31m58s) 
CPU  0 inst:  116000004 cyc:  152706708 now IPC :1.79066: AVG IPC :0.75142: L2-Pf-HR :0.76090: L2-HR :0.80720: (Sim:0h32m13s) 
CPU  0 inst:  117000003 cyc:  153254041 now IPC :1.82704: AVG IPC :0.75528: L2-Pf-HR :0.76284: L2-HR :0.80906: (Sim:0h32m28s) 
CPU  0 inst:  118000001 cyc:  153849898 now IPC :1.67825: AVG IPC :0.75888: L2-Pf-HR :0.76394: L2-HR :0.81041: (Sim:0h32m42s) 
CPU  0 inst:  119000000 cyc:  154431537 now IPC :1.71928: AVG IPC :0.76252: L2-Pf-HR :0.76546: L2-HR :0.81196: (Sim:0h32m57s) 
CPU  0 inst:  120000000 cyc:  154998634 now IPC :1.76337: AVG IPC :0.76621: L2-Pf-HR :0.76697: L2-HR :0.81352: (Sim:0h33m11s) 
CPU  0 inst:  121000003 cyc:  155544241 now IPC :1.83283: AVG IPC :0.76997: L2-Pf-HR :0.76873: L2-HR :0.81521: (Sim:0h33m26s) 
CPU  0 inst:  122000002 cyc:  156133800 now IPC :1.69618: AVG IPC :0.77349: L2-Pf-HR :0.76980: L2-HR :0.81647: (Sim:0h33m42s) 
Finished CPU 0 instr: 120000000 cyc: 155140507 AVG IPC: 0.77349 (Sim time: 0h33m42s)

ChampSim completed all CPUs

[ROI Statistics]
Core_0_instructions 120000000
Core_0_cycles 155140507
Core_0_IPC 0.77349

Core_0_branch_prediction_accuracy 99.19469
Core_0_branch_MPKI 0.24154
Core_0_average_ROB_occupancy_at_mispredict 395.98327

Core_0_L1D_total_access 36030368
Core_0_L1D_total_hit 31452935 L1D_total_Hit Ratio: 0.87296
Core_0_L1D_total_miss 4577433
Core_0_L1D_loads 30155598
Core_0_L1D_load_hit 27726740 L1D_load_Hit Ratio: 0.91946
Core_0_L1D_load_miss 2428858
Core_0_L1D_RFOs 3311340
Core_0_L1D_RFO_hit 3201672 L1D_RFO_Hit Ratio: 0.96688
Core_0_L1D_RFO_miss 109668
Core_0_L1D_prefetches 2563430
Core_0_L1D_prefetch_hit 524523 L1D_prefetch_Hit Ratio: 0.20462
Core_0_L1D_prefetch_miss 2038907
Core_0_L1D_writebacks 0
Core_0_L1D_writeback_hit 0 L1D_writeback_Hit Ratio: -nan
Core_0_L1D_writeback_miss 0
Core_0_L1D_prefetch_requested 3957640
Core_0_L1D_prefetch_issued 3957640
Core_0_L1D_prefetch_useful 2026133 L1D_Useful Ratio: 0.51195
Core_0_L1D_prefetch_useless 39997
Core_0_L1D_prefetch_late 284680
Core_0_L1D_average_miss_latency 6122149.25531

Core_0_L1I_total_access 17336915
Core_0_L1I_total_hit 17331978 L1I_total_Hit Ratio: 0.99972
Core_0_L1I_total_miss 4937
Core_0_L1I_loads 17336915
Core_0_L1I_load_hit 17331978 L1I_load_Hit Ratio: 0.99972
Core_0_L1I_load_miss 4937
Core_0_L1I_RFOs 0
Core_0_L1I_RFO_hit 0 L1I_RFO_Hit Ratio: -nan
Core_0_L1I_RFO_miss 0
Core_0_L1I_prefetches 0
Core_0_L1I_prefetch_hit 0 L1I_prefetch_Hit Ratio: -nan
Core_0_L1I_prefetch_miss 0
Core_0_L1I_writebacks 0
Core_0_L1I_writeback_hit 0 L1I_writeback_Hit Ratio: -nan
Core_0_L1I_writeback_miss 0
Core_0_L1I_prefetch_requested 0
Core_0_L1I_prefetch_issued 0
Core_0_L1I_prefetch_useful 0 L1I_Useful Ratio: -nan
Core_0_L1I_prefetch_useless 0
Core_0_L1I_prefetch_late 0
Core_0_L1I_average_miss_latency 234.34798

Core_0_L2C_total_access 5856034
Core_0_L2C_total_hit 4781264 L2C_total_Hit Ratio: 0.81647
Core_0_L2C_total_miss 1074770
Core_0_L2C_loads 2150211
Core_0_L2C_load_hit 1836774 L2C_load_Hit Ratio: 0.85423
Core_0_L2C_load_miss 313437
Core_0_L2C_RFOs 109666
Core_0_L2C_RFO_hit 4363 L2C_RFO_Hit Ratio: 0.03978
Core_0_L2C_RFO_miss 105303
Core_0_L2C_prefetches 2849766
Core_0_L2C_prefetch_hit 2193741 L2C_prefetch_Hit Ratio: 0.76980
Core_0_L2C_prefetch_miss 656025
Core_0_L2C_writebacks 746391
Core_0_L2C_writeback_hit 746386 L2C_writeback_Hit Ratio: 0.99999
Core_0_L2C_writeback_miss 5
Core_0_L2C_prefetch_requested 828071
Core_0_L2C_prefetch_issued 828071
Core_0_L2C_prefetch_useful 177723 L2C_Useful Ratio: 0.21462
Core_0_L2C_prefetch_useless 476714
Core_0_L2C_prefetch_late 111609
Core_0_L2C_average_miss_latency 371.72737

Core_0_LLC_total_access 1696059
Core_0_LLC_total_hit 630555 LLC_total_Hit Ratio: 0.37178
Core_0_LLC_total_miss 1065504
Core_0_LLC_loads 201880
Core_0_LLC_load_hit 2650 LLC_load_Hit Ratio: 0.01313
Core_0_LLC_load_miss 199230
Core_0_LLC_RFOs 105303
Core_0_LLC_RFO_hit 98 LLC_RFO_Hit Ratio: 0.00093
Core_0_LLC_RFO_miss 105205
Core_0_LLC_prefetches 767582
Core_0_LLC_prefetch_hit 10137 LLC_prefetch_Hit Ratio: 0.01321
Core_0_LLC_prefetch_miss 757445
Core_0_LLC_writebacks 621294
Core_0_LLC_writeback_hit 617670 LLC_writeback_Hit Ratio: 0.99417
Core_0_LLC_writeback_miss 3624
Core_0_LLC_prefetch_requested 0
Core_0_LLC_prefetch_issued 0
Core_0_LLC_prefetch_useful 1137 LLC_Useful Ratio: inf
Core_0_LLC_prefetch_useless 720118
Core_0_LLC_prefetch_late 0
Core_0_LLC_average_miss_latency 361.35512

Core_0_major_page_fault 0
Core_0_minor_page_fault 8629

[Bingo] PHT Access: 612021
[Bingo] PHT Hit PC+Addr: 295215
[Bingo] PHT Hit PC+Offs: 298661
[Bingo] PHT Miss: 18145
[Bingo] Prefetch PC+Addr: 0
[Bingo] Prefetch PC+Offs: 0
[Bingo] Useful PC+Addr: 0
[Bingo] Useful PC+Offs: 0
[Bingo] Useless PC+Addr: 0
[Bingo] Useless PC+Offs: 0
[Bingo] L1 Prefetch per Region: 8.19761
[Bingo] L2 Prefetch per Region: 0.26738
[Bingo] L3 Prefetch per Region: 0.00000
[Bingo] No Prefetch per Region: 23.53501
[Bingo] Number of Voters Mean: 13.56978
[Bingo] Number of Voters SD: 4.81407
PHT read accesses: 7567669
PHT write accesses: 583484
AT read accesses: 28382157
AT write accesses: 28382154
FT read accesses: 6135598
FT write accesses: 612021
PS read accesses: 2942657
PS write accesses: 593876
PHT tag read accesses: 21698902
PHT tag write accesses: 878699
AT tag read accesses: 582825256
AT tag write accesses: 28965638
FT tag read accesses: 147180134
FT tag write accesses: 3985763
PS tag read accesses: 509965531
PS tag write accesses: 3524743
[Bingo2] PHT Access: 147230
[Bingo2] PHT Hit PC+Addr: 6675
[Bingo2] PHT Hit PC+Offs: 133271
[Bingo2] PHT Miss: 7284
[Bingo2] Prefetch PC+Addr: 0
[Bingo2] Prefetch PC+Offs: 0
[Bingo2] Useful PC+Addr: 0
[Bingo2] Useful PC+Offs: 0
[Bingo2] Useless PC+Addr: 0
[Bingo2] Useless PC+Offs: 0
[Bingo2] L1 Prefetch per Region: 0.00000
[Bingo2] L2 Prefetch per Region: 8.56242
[Bingo2] L3 Prefetch per Region: 0.00000
[Bingo2] No Prefetch per Region: 23.43758
[Bingo2] Number of Voters Mean: 15.62615
[Bingo2] Number of Voters SD: 1.75337
PHT read accesses: 2175090
PHT write accesses: 108238
AT read accesses: 2000036
AT write accesses: 2107971
FT read accesses: 331473
FT write accesses: 147230
PS read accesses: 357244
PS write accesses: 139946
PHT tag read accesses: 5702705
PHT tag write accesses: 114913
AT tag read accesses: 56719902
AT tag write accesses: 2108274
FT tag read accesses: 26765531
FT tag write accesses: 367217
PS tag read accesses: 39126623
PS tag write accesses: 487444
Channel_0_RQ_row_buffer_hit 580850
Channel_0_RQ_row_buffer_miss 481030
Channel_0_WQ_row_buffer_hit 247451
Channel_0_WQ_row_buffer_miss 365272
Channel_0_WQ_full 2832
Channel_0_dbus_congested 1089416

avg_congested_cycle 8

EzSearch AVG IPC :0.77349: L2-Pf-HR :0.76980 : L2-HR :0.81647 Uful:0.21462
     > Finished combination: TraceType=770-tot Sim:120000000 Prefetcher=L2bingo_dpc3 L1=bingo_dpc3
