TRACE: [1319000000]_FE_[Pythia-70M]_[h8]_[s2048]_[d64] Warmup: 2000000 NumTraces: 1319000000
L1:berti_concurso:L2:berti_concurso
*************************************************
   ChampSim Multicore Out-of-Order Simulator
   Last compiled: Oct 31 2024 08:29:41
*************************************************

trace_0 770-tot_memTraces_v5/120-subBillion_s2048_LLM_Arch/memTraces[1319000000]_FE_[Pythia-70M]_[h8]_[s2048]_[d64].champsim.9SSize.xz
CPU 0 L1D Berti prefetcher
CPU 0 L2C Berti prefetcher
MAIN.cc ln 751 stats print skipped
CPU  0 inst:    1000002 cyc:     507236 now IPC :1.97147: AVG IPC :1.97147: L2-Pf-HR :0.76026: L2-HR :0.72208: (Sim:0h0m5s) 
CPU  0 inst:    2000000 cyc:     996690 now IPC :2.04309: AVG IPC :2.00664: L2-Pf-HR :0.81581: L2-HR :0.77094: (Sim:0h0m10s) 

Warmup complete CPU  0 instructions:    2000005 cycles:     996691 (Simulation time: 0 hr 0 min 10 sec) 

CPU  0 inst:    3000000 cyc:    1655451 now IPC :1.51800: AVG IPC :1.51800: L2-Pf-HR :0.94263: L2-HR :0.81668: (Sim:0h0m15s) 
CPU  0 inst:    4000004 cyc:    2312809 now IPC :1.52125: AVG IPC :1.51962: L2-Pf-HR :0.94274: L2-HR :0.81578: (Sim:0h0m20s) 
CPU  0 inst:    5000000 cyc:    2970214 now IPC :1.52113: AVG IPC :1.52012: L2-Pf-HR :0.94235: L2-HR :0.81381: (Sim:0h0m24s) 
CPU  0 inst:    6000000 cyc:    3630776 now IPC :1.51386: AVG IPC :1.51855: L2-Pf-HR :0.94220: L2-HR :0.81337: (Sim:0h0m29s) 
CPU  0 inst:    7000002 cyc:    4353401 now IPC :1.38385: AVG IPC :1.48955: L2-Pf-HR :0.94242: L2-HR :0.81298: (Sim:0h0m34s) 
CPU  0 inst:    8000000 cyc:    5046924 now IPC :1.44191: AVG IPC :1.48140: L2-Pf-HR :0.94191: L2-HR :0.81231: (Sim:0h0m38s) 
CPU  0 inst:    9000000 cyc:    5740182 now IPC :1.44246: AVG IPC :1.47571: L2-Pf-HR :0.94246: L2-HR :0.81307: (Sim:0h0m43s) 
CPU  0 inst:   10000002 cyc:    6438066 now IPC :1.43291: AVG IPC :1.47022: L2-Pf-HR :0.94255: L2-HR :0.81293: (Sim:0h0m48s) 
CPU  0 inst:   11000004 cyc:    7141253 now IPC :1.42210: AVG IPC :1.46471: L2-Pf-HR :0.94244: L2-HR :0.81277: (Sim:0h0m53s) 
CPU  0 inst:   12000001 cyc:    7847649 now IPC :1.41563: AVG IPC :1.45965: L2-Pf-HR :0.94257: L2-HR :0.81304: (Sim:0h0m57s) 
CPU  0 inst:   13000005 cyc:    8642811 now IPC :1.25761: AVG IPC :1.43864: L2-Pf-HR :0.94099: L2-HR :0.81230: (Sim:0h1m3s) 
CPU  0 inst:   14000003 cyc:    9351362 now IPC :1.41133: AVG IPC :1.43632: L2-Pf-HR :0.94188: L2-HR :0.81314: (Sim:0h1m7s) 
CPU  0 inst:   15000002 cyc:   10060891 now IPC :1.40938: AVG IPC :1.43421: L2-Pf-HR :0.94248: L2-HR :0.81358: (Sim:0h1m12s) 
CPU  0 inst:   16000000 cyc:   10768706 now IPC :1.41280: AVG IPC :1.43266: L2-Pf-HR :0.94326: L2-HR :0.81414: (Sim:0h1m17s) 
CPU  0 inst:   17000000 cyc:   11476291 now IPC :1.41326: AVG IPC :1.43135: L2-Pf-HR :0.94399: L2-HR :0.81488: (Sim:0h1m22s) 
CPU  0 inst:   18000000 cyc:   12183052 now IPC :1.41491: AVG IPC :1.43031: L2-Pf-HR :0.94451: L2-HR :0.81519: (Sim:0h1m27s) 
CPU  0 inst:   19000002 cyc:   12927198 now IPC :1.34382: AVG IPC :1.42492: L2-Pf-HR :0.94475: L2-HR :0.81520: (Sim:0h1m31s) 
CPU  0 inst:   20000003 cyc:   13632741 now IPC :1.41735: AVG IPC :1.42450: L2-Pf-HR :0.94513: L2-HR :0.81558: (Sim:0h1m36s) 
CPU  0 inst:   21000003 cyc:   14337411 now IPC :1.41910: AVG IPC :1.42421: L2-Pf-HR :0.94554: L2-HR :0.81584: (Sim:0h1m41s) 
CPU  0 inst:   22000001 cyc:   15041793 now IPC :1.41968: AVG IPC :1.42398: L2-Pf-HR :0.94590: L2-HR :0.81611: (Sim:0h1m46s) 
CPU  0 inst:   23000001 cyc:   15745525 now IPC :1.42100: AVG IPC :1.42384: L2-Pf-HR :0.94634: L2-HR :0.81634: (Sim:0h1m51s) 
CPU  0 inst:   24000000 cyc:   16450047 now IPC :1.41940: AVG IPC :1.42364: L2-Pf-HR :0.94659: L2-HR :0.81649: (Sim:0h1m55s) 
CPU  0 inst:   25000005 cyc:   17229527 now IPC :1.28291: AVG IPC :1.41688: L2-Pf-HR :0.94573: L2-HR :0.81600: (Sim:0h2m1s) 
CPU  0 inst:   26000004 cyc:   17929654 now IPC :1.42831: AVG IPC :1.41735: L2-Pf-HR :0.94606: L2-HR :0.81616: (Sim:0h2m6s) 
CPU  0 inst:   27000001 cyc:   18628709 now IPC :1.43050: AVG IPC :1.41787: L2-Pf-HR :0.94629: L2-HR :0.81625: (Sim:0h2m11s) 
CPU  0 inst:   28000001 cyc:   19328182 now IPC :1.42965: AVG IPC :1.41832: L2-Pf-HR :0.94667: L2-HR :0.81653: (Sim:0h2m16s) 
CPU  0 inst:   29000005 cyc:   20028037 now IPC :1.42887: AVG IPC :1.41871: L2-Pf-HR :0.94695: L2-HR :0.81676: (Sim:0h2m21s) 
CPU  0 inst:   30000005 cyc:   20728237 now IPC :1.42816: AVG IPC :1.41905: L2-Pf-HR :0.94709: L2-HR :0.81672: (Sim:0h2m27s) 
CPU  0 inst:   31000005 cyc:   21459328 now IPC :1.36782: AVG IPC :1.41722: L2-Pf-HR :0.94715: L2-HR :0.81670: (Sim:0h2m32s) 
CPU  0 inst:   32000000 cyc:   22152876 now IPC :1.44185: AVG IPC :1.41802: L2-Pf-HR :0.94727: L2-HR :0.81685: (Sim:0h2m37s) 
CPU  0 inst:   33000002 cyc:   22843112 now IPC :1.44878: AVG IPC :1.41900: L2-Pf-HR :0.94740: L2-HR :0.81690: (Sim:0h2m42s) 
CPU  0 inst:   34000002 cyc:   23533253 now IPC :1.44898: AVG IPC :1.41991: L2-Pf-HR :0.94755: L2-HR :0.81701: (Sim:0h2m47s) 
CPU  0 inst:   35000003 cyc:   24222541 now IPC :1.45077: AVG IPC :1.42083: L2-Pf-HR :0.94780: L2-HR :0.81727: (Sim:0h2m52s) 
CPU  0 inst:   36000002 cyc:   24912250 now IPC :1.44989: AVG IPC :1.42167: L2-Pf-HR :0.94788: L2-HR :0.81723: (Sim:0h2m56s) 
CPU  0 inst:   37000000 cyc:   25698855 now IPC :1.27128: AVG IPC :1.41688: L2-Pf-HR :0.94719: L2-HR :0.81676: (Sim:0h3m2s) 
CPU  0 inst:   38000003 cyc:   26404844 now IPC :1.41646: AVG IPC :1.41687: L2-Pf-HR :0.94731: L2-HR :0.81682: (Sim:0h3m7s) 
CPU  0 inst:   39000003 cyc:   27111425 now IPC :1.41527: AVG IPC :1.41682: L2-Pf-HR :0.94743: L2-HR :0.81693: (Sim:0h3m13s) 
CPU  0 inst:   40000000 cyc:   27815827 now IPC :1.41964: AVG IPC :1.41690: L2-Pf-HR :0.94764: L2-HR :0.81711: (Sim:0h3m18s) 
CPU  0 inst:   41000001 cyc:   28521430 now IPC :1.41723: AVG IPC :1.41691: L2-Pf-HR :0.94770: L2-HR :0.81707: (Sim:0h3m24s) 
CPU  0 inst:   42000001 cyc:   29227134 now IPC :1.41702: AVG IPC :1.41691: L2-Pf-HR :0.94781: L2-HR :0.81715: (Sim:0h3m29s) 
CPU  0 inst:   43000001 cyc:   29971583 now IPC :1.34328: AVG IPC :1.41502: L2-Pf-HR :0.94795: L2-HR :0.81725: (Sim:0h3m35s) 
CPU  0 inst:   44000000 cyc:   30678624 now IPC :1.41434: AVG IPC :1.41500: L2-Pf-HR :0.94802: L2-HR :0.81730: (Sim:0h3m41s) 
CPU  0 inst:   45000001 cyc:   31384474 now IPC :1.41673: AVG IPC :1.41504: L2-Pf-HR :0.94814: L2-HR :0.81736: (Sim:0h3m46s) 
CPU  0 inst:   46000001 cyc:   32089448 now IPC :1.41849: AVG IPC :1.41512: L2-Pf-HR :0.94824: L2-HR :0.81747: (Sim:0h3m52s) 
CPU  0 inst:   47000002 cyc:   32794648 now IPC :1.41804: AVG IPC :1.41519: L2-Pf-HR :0.94838: L2-HR :0.81753: (Sim:0h3m58s) 
CPU  0 inst:   48000000 cyc:   33498582 now IPC :1.42058: AVG IPC :1.41530: L2-Pf-HR :0.94839: L2-HR :0.81750: (Sim:0h4m4s) 
CPU  0 inst:   49000003 cyc:   34286160 now IPC :1.26972: AVG IPC :1.41186: L2-Pf-HR :0.94791: L2-HR :0.81721: (Sim:0h4m10s) 
CPU  0 inst:   50000000 cyc:   34993049 now IPC :1.41464: AVG IPC :1.41192: L2-Pf-HR :0.94800: L2-HR :0.81725: (Sim:0h4m15s) 
CPU  0 inst:   51000004 cyc:   35702479 now IPC :1.40959: AVG IPC :1.41187: L2-Pf-HR :0.94808: L2-HR :0.81733: (Sim:0h4m21s) 
CPU  0 inst:   52000000 cyc:   36410715 now IPC :1.41195: AVG IPC :1.41187: L2-Pf-HR :0.94820: L2-HR :0.81740: (Sim:0h4m27s) 
CPU  0 inst:   53000000 cyc:   37119726 now IPC :1.41042: AVG IPC :1.41184: L2-Pf-HR :0.94823: L2-HR :0.81741: (Sim:0h4m32s) 
CPU  0 inst:   54000003 cyc:   37829772 now IPC :1.40836: AVG IPC :1.41177: L2-Pf-HR :0.94829: L2-HR :0.81745: (Sim:0h4m38s) 
CPU  0 inst:   55000000 cyc:   38573043 now IPC :1.34540: AVG IPC :1.41046: L2-Pf-HR :0.94838: L2-HR :0.81749: (Sim:0h4m44s) 
CPU  0 inst:   56000000 cyc:   39279549 now IPC :1.41542: AVG IPC :1.41055: L2-Pf-HR :0.94840: L2-HR :0.81747: (Sim:0h4m50s) 
CPU  0 inst:   57000004 cyc:   39985835 now IPC :1.41586: AVG IPC :1.41065: L2-Pf-HR :0.94848: L2-HR :0.81754: (Sim:0h4m56s) 
CPU  0 inst:   58000004 cyc:   40691664 now IPC :1.41677: AVG IPC :1.41076: L2-Pf-HR :0.94856: L2-HR :0.81762: (Sim:0h5m2s) 
CPU  0 inst:   59000001 cyc:   41395203 now IPC :1.42138: AVG IPC :1.41094: L2-Pf-HR :0.94861: L2-HR :0.81765: (Sim:0h5m7s) 
CPU  0 inst:   60000000 cyc:   42099184 now IPC :1.42049: AVG IPC :1.41111: L2-Pf-HR :0.94866: L2-HR :0.81763: (Sim:0h5m13s) 
CPU  0 inst:   61000003 cyc:   42840324 now IPC :1.34928: AVG IPC :1.41001: L2-Pf-HR :0.94766: L2-HR :0.81660: (Sim:0h5m19s) 
CPU  0 inst:   62000000 cyc:   43550741 now IPC :1.40762: AVG IPC :1.40997: L2-Pf-HR :0.94638: L2-HR :0.81535: (Sim:0h5m25s) 
CPU  0 inst:   63000005 cyc:   44270955 now IPC :1.38848: AVG IPC :1.40961: L2-Pf-HR :0.94508: L2-HR :0.81403: (Sim:0h5m31s) 
CPU  0 inst:   64000000 cyc:   44976193 now IPC :1.41795: AVG IPC :1.40975: L2-Pf-HR :0.94389: L2-HR :0.81284: (Sim:0h5m37s) 
CPU  0 inst:   65000001 cyc:   45796312 now IPC :1.21934: AVG IPC :1.40626: L2-Pf-HR :0.94265: L2-HR :0.81169: (Sim:0h5m43s) 
CPU  0 inst:   66000005 cyc:   46511974 now IPC :1.39731: AVG IPC :1.40612: L2-Pf-HR :0.94267: L2-HR :0.81170: (Sim:0h5m49s) 
CPU  0 inst:   67000000 cyc:   47227343 now IPC :1.39787: AVG IPC :1.40599: L2-Pf-HR :0.94267: L2-HR :0.81174: (Sim:0h5m55s) 
CPU  0 inst:   68000005 cyc:   47942713 now IPC :1.39788: AVG IPC :1.40587: L2-Pf-HR :0.94271: L2-HR :0.81178: (Sim:0h6m1s) 
CPU  0 inst:   69000000 cyc:   48657372 now IPC :1.39926: AVG IPC :1.40577: L2-Pf-HR :0.94269: L2-HR :0.81176: (Sim:0h6m7s) 
CPU  0 inst:   70000000 cyc:   49371386 now IPC :1.40053: AVG IPC :1.40569: L2-Pf-HR :0.94270: L2-HR :0.81177: (Sim:0h6m13s) 
CPU  0 inst:   71000004 cyc:   50122341 now IPC :1.33164: AVG IPC :1.40456: L2-Pf-HR :0.94261: L2-HR :0.81171: (Sim:0h6m19s) 
CPU  0 inst:   72000000 cyc:   50844146 now IPC :1.38541: AVG IPC :1.40428: L2-Pf-HR :0.94260: L2-HR :0.81171: (Sim:0h6m26s) 
CPU  0 inst:   73000001 cyc:   51565141 now IPC :1.38697: AVG IPC :1.40404: L2-Pf-HR :0.94260: L2-HR :0.81174: (Sim:0h6m32s) 
CPU  0 inst:   74000000 cyc:   52284587 now IPC :1.38996: AVG IPC :1.40384: L2-Pf-HR :0.94263: L2-HR :0.81178: (Sim:0h6m38s) 
CPU  0 inst:   75000005 cyc:   53007294 now IPC :1.38369: AVG IPC :1.40356: L2-Pf-HR :0.94261: L2-HR :0.81174: (Sim:0h6m44s) 
CPU  0 inst:   76000001 cyc:   53730739 now IPC :1.38227: AVG IPC :1.40327: L2-Pf-HR :0.94259: L2-HR :0.81174: (Sim:0h6m50s) 
CPU  0 inst:   77000000 cyc:   54521555 now IPC :1.26452: AVG IPC :1.40122: L2-Pf-HR :0.94225: L2-HR :0.81163: (Sim:0h6m56s) 
CPU  0 inst:   78000001 cyc:   55229966 now IPC :1.41161: AVG IPC :1.40135: L2-Pf-HR :0.94236: L2-HR :0.81174: (Sim:0h7m2s) 
CPU  0 inst:   79000003 cyc:   55935686 now IPC :1.41700: AVG IPC :1.40155: L2-Pf-HR :0.94249: L2-HR :0.81184: (Sim:0h7m8s) 
CPU  0 inst:   80000000 cyc:   56642531 now IPC :1.41473: AVG IPC :1.40172: L2-Pf-HR :0.94260: L2-HR :0.81193: (Sim:0h7m14s) 
CPU  0 inst:   81000001 cyc:   57347599 now IPC :1.41830: AVG IPC :1.40193: L2-Pf-HR :0.94273: L2-HR :0.81204: (Sim:0h7m20s) 
CPU  0 inst:   82000000 cyc:   58053559 now IPC :1.41651: AVG IPC :1.40211: L2-Pf-HR :0.94285: L2-HR :0.81214: (Sim:0h7m26s) 
CPU  0 inst:   83000000 cyc:   58791480 now IPC :1.35516: AVG IPC :1.40151: L2-Pf-HR :0.94294: L2-HR :0.81219: (Sim:0h7m32s) 
CPU  0 inst:   84000000 cyc:   59483999 now IPC :1.44400: AVG IPC :1.40201: L2-Pf-HR :0.94306: L2-HR :0.81229: (Sim:0h7m38s) 
CPU  0 inst:   85000001 cyc:   60178873 now IPC :1.43911: AVG IPC :1.40245: L2-Pf-HR :0.94315: L2-HR :0.81236: (Sim:0h7m44s) 
CPU  0 inst:   86000001 cyc:   60869578 now IPC :1.44780: AVG IPC :1.40297: L2-Pf-HR :0.94330: L2-HR :0.81247: (Sim:0h7m50s) 
CPU  0 inst:   87000002 cyc:   61561902 now IPC :1.44441: AVG IPC :1.40345: L2-Pf-HR :0.94340: L2-HR :0.81254: (Sim:0h7m56s) 
CPU  0 inst:   88000000 cyc:   62255316 now IPC :1.44214: AVG IPC :1.40388: L2-Pf-HR :0.94351: L2-HR :0.81261: (Sim:0h8m2s) 
CPU  0 inst:   89000003 cyc:   63034417 now IPC :1.28353: AVG IPC :1.40237: L2-Pf-HR :0.94326: L2-HR :0.81250: (Sim:0h8m9s) 
CPU  0 inst:   90000000 cyc:   63736400 now IPC :1.42453: AVG IPC :1.40262: L2-Pf-HR :0.94334: L2-HR :0.81257: (Sim:0h8m15s) 
CPU  0 inst:   91000004 cyc:   64437708 now IPC :1.42591: AVG IPC :1.40288: L2-Pf-HR :0.94345: L2-HR :0.81265: (Sim:0h8m21s) 
CPU  0 inst:   92000002 cyc:   65139546 now IPC :1.42483: AVG IPC :1.40312: L2-Pf-HR :0.94355: L2-HR :0.81275: (Sim:0h8m27s) 
CPU  0 inst:   93000002 cyc:   65842020 now IPC :1.42354: AVG IPC :1.40334: L2-Pf-HR :0.94365: L2-HR :0.81283: (Sim:0h8m34s) 
CPU  0 inst:   94000005 cyc:   66543062 now IPC :1.42645: AVG IPC :1.40359: L2-Pf-HR :0.94373: L2-HR :0.81288: (Sim:0h8m40s) 
CPU  0 inst:   95000004 cyc:   67288345 now IPC :1.34177: AVG IPC :1.40289: L2-Pf-HR :0.94382: L2-HR :0.81295: (Sim:0h8m46s) 
CPU  0 inst:   96000000 cyc:   67993309 now IPC :1.41851: AVG IPC :1.40306: L2-Pf-HR :0.94393: L2-HR :0.81305: (Sim:0h8m52s) 
CPU  0 inst:   97000004 cyc:   68699825 now IPC :1.41540: AVG IPC :1.40318: L2-Pf-HR :0.94400: L2-HR :0.81312: (Sim:0h8m58s) 
CPU  0 inst:   98000004 cyc:   69405017 now IPC :1.41805: AVG IPC :1.40334: L2-Pf-HR :0.94412: L2-HR :0.81322: (Sim:0h9m5s) 
CPU  0 inst:   99000003 cyc:   70110455 now IPC :1.41756: AVG IPC :1.40348: L2-Pf-HR :0.94420: L2-HR :0.81331: (Sim:0h9m11s) 
CPU  0 inst:  100000004 cyc:   70815307 now IPC :1.41874: AVG IPC :1.40364: L2-Pf-HR :0.94427: L2-HR :0.81334: (Sim:0h9m17s) 
CPU  0 inst:  101000001 cyc:   71600738 now IPC :1.27318: AVG IPC :1.40219: L2-Pf-HR :0.94410: L2-HR :0.81325: (Sim:0h9m23s) 
CPU  0 inst:  102000001 cyc:   72308938 now IPC :1.41203: AVG IPC :1.40228: L2-Pf-HR :0.94418: L2-HR :0.81333: (Sim:0h9m30s) 
CPU  0 inst:  103000001 cyc:   73015159 now IPC :1.41599: AVG IPC :1.40242: L2-Pf-HR :0.94428: L2-HR :0.81343: (Sim:0h9m36s) 
CPU  0 inst:  104000000 cyc:   73721838 now IPC :1.41507: AVG IPC :1.40254: L2-Pf-HR :0.94436: L2-HR :0.81349: (Sim:0h9m42s) 
CPU  0 inst:  105000002 cyc:   74429660 now IPC :1.41279: AVG IPC :1.40264: L2-Pf-HR :0.94446: L2-HR :0.81356: (Sim:0h9m49s) 
CPU  0 inst:  106000002 cyc:   75137148 now IPC :1.41345: AVG IPC :1.40274: L2-Pf-HR :0.94452: L2-HR :0.81360: (Sim:0h9m55s) 
CPU  0 inst:  107000001 cyc:   75883449 now IPC :1.33994: AVG IPC :1.40212: L2-Pf-HR :0.94460: L2-HR :0.81366: (Sim:0h10m1s) 
CPU  0 inst:  108000003 cyc:   76588419 now IPC :1.41850: AVG IPC :1.40227: L2-Pf-HR :0.94467: L2-HR :0.81371: (Sim:0h10m8s) 
CPU  0 inst:  109000000 cyc:   77294770 now IPC :1.41572: AVG IPC :1.40239: L2-Pf-HR :0.94474: L2-HR :0.81379: (Sim:0h10m14s) 
CPU  0 inst:  110000005 cyc:   78000334 now IPC :1.41731: AVG IPC :1.40253: L2-Pf-HR :0.94483: L2-HR :0.81386: (Sim:0h10m21s) 
CPU  0 inst:  111000001 cyc:   78704559 now IPC :1.42000: AVG IPC :1.40269: L2-Pf-HR :0.94489: L2-HR :0.81392: (Sim:0h10m27s) 
CPU  0 inst:  112000000 cyc:   79410278 now IPC :1.41699: AVG IPC :1.40282: L2-Pf-HR :0.94494: L2-HR :0.81396: (Sim:0h10m34s) 
CPU  0 inst:  113000003 cyc:   80185225 now IPC :1.29041: AVG IPC :1.40172: L2-Pf-HR :0.94477: L2-HR :0.81388: (Sim:0h10m40s) 
CPU  0 inst:  114000002 cyc:   80880201 now IPC :1.43890: AVG IPC :1.40204: L2-Pf-HR :0.94481: L2-HR :0.81392: (Sim:0h10m47s) 
CPU  0 inst:  115000001 cyc:   81574078 now IPC :1.44118: AVG IPC :1.40238: L2-Pf-HR :0.94489: L2-HR :0.81397: (Sim:0h10m53s) 
CPU  0 inst:  116000003 cyc:   82268206 now IPC :1.44066: AVG IPC :1.40271: L2-Pf-HR :0.94494: L2-HR :0.81402: (Sim:0h10m59s) 
CPU  0 inst:  117000001 cyc:   82962586 now IPC :1.44013: AVG IPC :1.40302: L2-Pf-HR :0.94500: L2-HR :0.81407: (Sim:0h11m6s) 
CPU  0 inst:  118000005 cyc:   83654968 now IPC :1.44430: AVG IPC :1.40337: L2-Pf-HR :0.94509: L2-HR :0.81414: (Sim:0h11m12s) 
CPU  0 inst:  119000005 cyc:   84393876 now IPC :1.35335: AVG IPC :1.40293: L2-Pf-HR :0.94515: L2-HR :0.81420: (Sim:0h11m19s) 
CPU  0 inst:  120000000 cyc:   85096546 now IPC :1.42314: AVG IPC :1.40309: L2-Pf-HR :0.94522: L2-HR :0.81427: (Sim:0h11m26s) 
CPU  0 inst:  121000001 cyc:   85800636 now IPC :1.42027: AVG IPC :1.40324: L2-Pf-HR :0.94527: L2-HR :0.81432: (Sim:0h11m32s) 
CPU  0 inst:  122000005 cyc:   86503979 now IPC :1.42179: AVG IPC :1.40339: L2-Pf-HR :0.94534: L2-HR :0.81439: (Sim:0h11m39s) 
CPU  0 inst:  123000002 cyc:   87206423 now IPC :1.42360: AVG IPC :1.40355: L2-Pf-HR :0.94541: L2-HR :0.81444: (Sim:0h11m45s) 
CPU  0 inst:  124000003 cyc:   87907640 now IPC :1.42609: AVG IPC :1.40374: L2-Pf-HR :0.94545: L2-HR :0.81447: (Sim:0h11m52s) 
CPU  0 inst:  125000002 cyc:   88644352 now IPC :1.35738: AVG IPC :1.40335: L2-Pf-HR :0.94507: L2-HR :0.81409: (Sim:0h11m58s) 
CPU  0 inst:  126000003 cyc:   89358449 now IPC :1.40037: AVG IPC :1.40332: L2-Pf-HR :0.94445: L2-HR :0.81346: (Sim:0h12m5s) 
CPU  0 inst:  127000002 cyc:   90074534 now IPC :1.39648: AVG IPC :1.40327: L2-Pf-HR :0.94382: L2-HR :0.81283: (Sim:0h12m11s) 
CPU  0 inst:  128000000 cyc:   90773794 now IPC :1.43008: AVG IPC :1.40348: L2-Pf-HR :0.94321: L2-HR :0.81224: (Sim:0h12m18s) 
CPU  0 inst:  129000001 cyc:   91583342 now IPC :1.23526: AVG IPC :1.40197: L2-Pf-HR :0.94251: L2-HR :0.81160: (Sim:0h12m24s) 
CPU  0 inst:  130000002 cyc:   92299701 now IPC :1.39595: AVG IPC :1.40193: L2-Pf-HR :0.94253: L2-HR :0.81161: (Sim:0h12m31s) 
CPU  0 inst:  131000001 cyc:   93012860 now IPC :1.40221: AVG IPC :1.40193: L2-Pf-HR :0.94254: L2-HR :0.81162: (Sim:0h12m38s) 
CPU  0 inst:  132000001 cyc:   93727052 now IPC :1.40018: AVG IPC :1.40191: L2-Pf-HR :0.94254: L2-HR :0.81161: (Sim:0h12m44s) 
CPU  0 inst:  133000001 cyc:   94442572 now IPC :1.39758: AVG IPC :1.40188: L2-Pf-HR :0.94252: L2-HR :0.81161: (Sim:0h12m51s) 
CPU  0 inst:  134000004 cyc:   95160510 now IPC :1.39288: AVG IPC :1.40181: L2-Pf-HR :0.94253: L2-HR :0.81160: (Sim:0h12m58s) 
CPU  0 inst:  135000004 cyc:   95916111 now IPC :1.32345: AVG IPC :1.40119: L2-Pf-HR :0.94253: L2-HR :0.81159: (Sim:0h13m4s) 
CPU  0 inst:  136000000 cyc:   96640421 now IPC :1.38062: AVG IPC :1.40103: L2-Pf-HR :0.94252: L2-HR :0.81160: (Sim:0h13m11s) 
CPU  0 inst:  137000002 cyc:   97360974 now IPC :1.38783: AVG IPC :1.40093: L2-Pf-HR :0.94253: L2-HR :0.81163: (Sim:0h13m17s) 
CPU  0 inst:  138000004 cyc:   98083536 now IPC :1.38397: AVG IPC :1.40081: L2-Pf-HR :0.94256: L2-HR :0.81165: (Sim:0h13m24s) 
CPU  0 inst:  139000002 cyc:   98811160 now IPC :1.37433: AVG IPC :1.40061: L2-Pf-HR :0.94256: L2-HR :0.81166: (Sim:0h13m31s) 
CPU  0 inst:  140000003 cyc:   99532301 now IPC :1.38669: AVG IPC :1.40051: L2-Pf-HR :0.94254: L2-HR :0.81164: (Sim:0h13m37s) 
CPU  0 inst:  141000001 cyc:  100321768 now IPC :1.26667: AVG IPC :1.39945: L2-Pf-HR :0.94238: L2-HR :0.81155: (Sim:0h13m44s) 
CPU  0 inst:  142000001 cyc:  101023786 now IPC :1.42446: AVG IPC :1.39962: L2-Pf-HR :0.94246: L2-HR :0.81163: (Sim:0h13m50s) 
CPU  0 inst:  143000005 cyc:  101724526 now IPC :1.42707: AVG IPC :1.39981: L2-Pf-HR :0.94252: L2-HR :0.81169: (Sim:0h13m57s) 
CPU  0 inst:  144000000 cyc:  102424857 now IPC :1.42789: AVG IPC :1.40001: L2-Pf-HR :0.94260: L2-HR :0.81176: (Sim:0h14m4s) 
CPU  0 inst:  145000002 cyc:  103125712 now IPC :1.42683: AVG IPC :1.40019: L2-Pf-HR :0.94265: L2-HR :0.81180: (Sim:0h14m10s) 
CPU  0 inst:  146000002 cyc:  103827349 now IPC :1.42524: AVG IPC :1.40036: L2-Pf-HR :0.94273: L2-HR :0.81186: (Sim:0h14m17s) 
CPU  0 inst:  147000001 cyc:  104565718 now IPC :1.35434: AVG IPC :1.40003: L2-Pf-HR :0.94282: L2-HR :0.81193: (Sim:0h14m23s) 
CPU  0 inst:  148000000 cyc:  105267983 now IPC :1.42396: AVG IPC :1.40019: L2-Pf-HR :0.94287: L2-HR :0.81195: (Sim:0h14m30s) 
CPU  0 inst:  149000002 cyc:  105967754 now IPC :1.42904: AVG IPC :1.40039: L2-Pf-HR :0.94295: L2-HR :0.81202: (Sim:0h14m36s) 
CPU  0 inst:  150000005 cyc:  106668806 now IPC :1.42643: AVG IPC :1.40056: L2-Pf-HR :0.94301: L2-HR :0.81207: (Sim:0h14m43s) 
CPU  0 inst:  151000005 cyc:  107370298 now IPC :1.42553: AVG IPC :1.40072: L2-Pf-HR :0.94309: L2-HR :0.81213: (Sim:0h14m50s) 
CPU  0 inst:  152000000 cyc:  108069358 now IPC :1.43049: AVG IPC :1.40092: L2-Pf-HR :0.94314: L2-HR :0.81216: (Sim:0h14m57s) 
CPU  0 inst:  153000003 cyc:  108854334 now IPC :1.27393: AVG IPC :1.39999: L2-Pf-HR :0.94303: L2-HR :0.81212: (Sim:0h15m4s) 
CPU  0 inst:  154000002 cyc:  109560355 now IPC :1.41639: AVG IPC :1.40010: L2-Pf-HR :0.94309: L2-HR :0.81216: (Sim:0h15m10s) 
CPU  0 inst:  155000000 cyc:  110269230 now IPC :1.41068: AVG IPC :1.40017: L2-Pf-HR :0.94314: L2-HR :0.81221: (Sim:0h15m17s) 
CPU  0 inst:  156000001 cyc:  110977646 now IPC :1.41160: AVG IPC :1.40024: L2-Pf-HR :0.94320: L2-HR :0.81227: (Sim:0h15m23s) 
CPU  0 inst:  157000001 cyc:  111684778 now IPC :1.41416: AVG IPC :1.40033: L2-Pf-HR :0.94326: L2-HR :0.81231: (Sim:0h15m30s) 
CPU  0 inst:  158000005 cyc:  112393461 now IPC :1.41107: AVG IPC :1.40040: L2-Pf-HR :0.94331: L2-HR :0.81235: (Sim:0h15m37s) 
CPU  0 inst:  159000005 cyc:  113140288 now IPC :1.33900: AVG IPC :1.39999: L2-Pf-HR :0.94337: L2-HR :0.81240: (Sim:0h15m43s) 
CPU  0 inst:  160000000 cyc:  113848917 now IPC :1.41117: AVG IPC :1.40006: L2-Pf-HR :0.94341: L2-HR :0.81245: (Sim:0h15m50s) 
CPU  0 inst:  161000001 cyc:  114556039 now IPC :1.41418: AVG IPC :1.40015: L2-Pf-HR :0.94348: L2-HR :0.81251: (Sim:0h15m57s) 
CPU  0 inst:  162000005 cyc:  115264613 now IPC :1.41129: AVG IPC :1.40022: L2-Pf-HR :0.94353: L2-HR :0.81256: (Sim:0h16m3s) 
CPU  0 inst:  163000002 cyc:  115972593 now IPC :1.41247: AVG IPC :1.40029: L2-Pf-HR :0.94359: L2-HR :0.81261: (Sim:0h16m10s) 
CPU  0 inst:  164000003 cyc:  116675360 now IPC :1.42295: AVG IPC :1.40043: L2-Pf-HR :0.94364: L2-HR :0.81265: (Sim:0h16m17s) 
CPU  0 inst:  165000003 cyc:  117453750 now IPC :1.28470: AVG IPC :1.39966: L2-Pf-HR :0.94352: L2-HR :0.81260: (Sim:0h16m24s) 
CPU  0 inst:  166000002 cyc:  118159437 now IPC :1.41706: AVG IPC :1.39976: L2-Pf-HR :0.94357: L2-HR :0.81265: (Sim:0h16m31s) 
CPU  0 inst:  167000005 cyc:  118866060 now IPC :1.41519: AVG IPC :1.39985: L2-Pf-HR :0.94361: L2-HR :0.81267: (Sim:0h16m38s) 
CPU  0 inst:  168000000 cyc:  119572822 now IPC :1.41490: AVG IPC :1.39994: L2-Pf-HR :0.94367: L2-HR :0.81273: (Sim:0h16m44s) 
CPU  0 inst:  169000001 cyc:  120278331 now IPC :1.41742: AVG IPC :1.40005: L2-Pf-HR :0.94372: L2-HR :0.81278: (Sim:0h16m51s) 
CPU  0 inst:  170000000 cyc:  120984555 now IPC :1.41598: AVG IPC :1.40014: L2-Pf-HR :0.94377: L2-HR :0.81282: (Sim:0h16m58s) 
CPU  0 inst:  171000000 cyc:  121730516 now IPC :1.34055: AVG IPC :1.39977: L2-Pf-HR :0.94384: L2-HR :0.81287: (Sim:0h17m5s) 
CPU  0 inst:  172000003 cyc:  122439938 now IPC :1.40960: AVG IPC :1.39983: L2-Pf-HR :0.94388: L2-HR :0.81291: (Sim:0h17m12s) 
CPU  0 inst:  173000001 cyc:  123148608 now IPC :1.41109: AVG IPC :1.39990: L2-Pf-HR :0.94394: L2-HR :0.81297: (Sim:0h17m18s) 
CPU  0 inst:  174000001 cyc:  123857627 now IPC :1.41040: AVG IPC :1.39996: L2-Pf-HR :0.94398: L2-HR :0.81301: (Sim:0h17m25s) 
CPU  0 inst:  175000001 cyc:  124565250 now IPC :1.41318: AVG IPC :1.40003: L2-Pf-HR :0.94403: L2-HR :0.81306: (Sim:0h17m32s) 
CPU  0 inst:  176000000 cyc:  125272129 now IPC :1.41467: AVG IPC :1.40012: L2-Pf-HR :0.94408: L2-HR :0.81310: (Sim:0h17m38s) 
CPU  0 inst:  177000004 cyc:  126063140 now IPC :1.26421: AVG IPC :1.39926: L2-Pf-HR :0.94395: L2-HR :0.81304: (Sim:0h17m45s) 
CPU  0 inst:  178000002 cyc:  126771222 now IPC :1.41226: AVG IPC :1.39933: L2-Pf-HR :0.94400: L2-HR :0.81309: (Sim:0h17m52s) 
CPU  0 inst:  179000000 cyc:  127480246 now IPC :1.41039: AVG IPC :1.39939: L2-Pf-HR :0.94403: L2-HR :0.81312: (Sim:0h17m59s) 
CPU  0 inst:  180000000 cyc:  128188317 now IPC :1.41229: AVG IPC :1.39946: L2-Pf-HR :0.94406: L2-HR :0.81315: (Sim:0h18m6s) 
CPU  0 inst:  181000000 cyc:  128894346 now IPC :1.41637: AVG IPC :1.39956: L2-Pf-HR :0.94411: L2-HR :0.81320: (Sim:0h18m13s) 
CPU  0 inst:  182000003 cyc:  129601338 now IPC :1.41445: AVG IPC :1.39964: L2-Pf-HR :0.94415: L2-HR :0.81323: (Sim:0h18m20s) 
CPU  0 inst:  183000005 cyc:  130346188 now IPC :1.34255: AVG IPC :1.39931: L2-Pf-HR :0.94420: L2-HR :0.81326: (Sim:0h18m27s) 
CPU  0 inst:  184000000 cyc:  131053203 now IPC :1.41439: AVG IPC :1.39939: L2-Pf-HR :0.94423: L2-HR :0.81329: (Sim:0h18m34s) 
CPU  0 inst:  185000000 cyc:  131760370 now IPC :1.41409: AVG IPC :1.39947: L2-Pf-HR :0.94427: L2-HR :0.81331: (Sim:0h18m41s) 
CPU  0 inst:  186000002 cyc:  132466767 now IPC :1.41564: AVG IPC :1.39956: L2-Pf-HR :0.94431: L2-HR :0.81335: (Sim:0h18m48s) 
CPU  0 inst:  187000003 cyc:  133173129 now IPC :1.41571: AVG IPC :1.39964: L2-Pf-HR :0.94436: L2-HR :0.81339: (Sim:0h18m55s) 
CPU  0 inst:  188000001 cyc:  133878632 now IPC :1.41743: AVG IPC :1.39974: L2-Pf-HR :0.94442: L2-HR :0.81342: (Sim:0h19m2s) 
CPU  0 inst:  189000002 cyc:  134622364 now IPC :1.34457: AVG IPC :1.39943: L2-Pf-HR :0.94422: L2-HR :0.81321: (Sim:0h19m9s) 
CPU  0 inst:  190000001 cyc:  135341292 now IPC :1.39096: AVG IPC :1.39939: L2-Pf-HR :0.94381: L2-HR :0.81282: (Sim:0h19m16s) 
CPU  0 inst:  191000005 cyc:  136059712 now IPC :1.39195: AVG IPC :1.39935: L2-Pf-HR :0.94339: L2-HR :0.81241: (Sim:0h19m23s) 
CPU  0 inst:  192000000 cyc:  136765505 now IPC :1.41684: AVG IPC :1.39944: L2-Pf-HR :0.94298: L2-HR :0.81202: (Sim:0h19m29s) 
CPU  0 inst:  193000005 cyc:  137570290 now IPC :1.24257: AVG IPC :1.39851: L2-Pf-HR :0.94248: L2-HR :0.81154: (Sim:0h19m36s) 
CPU  0 inst:  194000005 cyc:  138270456 now IPC :1.42823: AVG IPC :1.39866: L2-Pf-HR :0.94249: L2-HR :0.81157: (Sim:0h19m43s) 
CPU  0 inst:  195000005 cyc:  138971222 now IPC :1.42701: AVG IPC :1.39881: L2-Pf-HR :0.94250: L2-HR :0.81158: (Sim:0h19m50s) 
CPU  0 inst:  196000003 cyc:  139672179 now IPC :1.42662: AVG IPC :1.39895: L2-Pf-HR :0.94251: L2-HR :0.81159: (Sim:0h19m57s) 
CPU  0 inst:  197000000 cyc:  140370757 now IPC :1.43148: AVG IPC :1.39911: L2-Pf-HR :0.94251: L2-HR :0.81159: (Sim:0h20m4s) 
CPU  0 inst:  198000003 cyc:  141076339 now IPC :1.41727: AVG IPC :1.39920: L2-Pf-HR :0.94251: L2-HR :0.81158: (Sim:0h20m11s) 
CPU  0 inst:  199000005 cyc:  141828701 now IPC :1.32915: AVG IPC :1.39883: L2-Pf-HR :0.94249: L2-HR :0.81158: (Sim:0h20m18s) 
CPU  0 inst:  200000000 cyc:  142552407 now IPC :1.38177: AVG IPC :1.39874: L2-Pf-HR :0.94249: L2-HR :0.81158: (Sim:0h20m25s) 
CPU  0 inst:  201000000 cyc:  143274185 now IPC :1.38547: AVG IPC :1.39868: L2-Pf-HR :0.94249: L2-HR :0.81157: (Sim:0h20m32s) 
CPU  0 inst:  202000002 cyc:  144001066 now IPC :1.37574: AVG IPC :1.39856: L2-Pf-HR :0.94251: L2-HR :0.81159: (Sim:0h20m39s) 
CPU  0 inst:  203000003 cyc:  144730414 now IPC :1.37109: AVG IPC :1.39842: L2-Pf-HR :0.94251: L2-HR :0.81158: (Sim:0h20m45s) 
CPU  0 inst:  204000001 cyc:  145456990 now IPC :1.37632: AVG IPC :1.39831: L2-Pf-HR :0.94250: L2-HR :0.81158: (Sim:0h20m52s) 
CPU  0 inst:  205000004 cyc:  146257150 now IPC :1.24975: AVG IPC :1.39749: L2-Pf-HR :0.94239: L2-HR :0.81152: (Sim:0h20m59s) 
CPU  0 inst:  206000002 cyc:  146965491 now IPC :1.41175: AVG IPC :1.39756: L2-Pf-HR :0.94244: L2-HR :0.81156: (Sim:0h21m6s) 
CPU  0 inst:  207000003 cyc:  147672358 now IPC :1.41469: AVG IPC :1.39764: L2-Pf-HR :0.94249: L2-HR :0.81161: (Sim:0h21m13s) 
CPU  0 inst:  208000000 cyc:  148381100 now IPC :1.41095: AVG IPC :1.39771: L2-Pf-HR :0.94253: L2-HR :0.81166: (Sim:0h21m19s) 
CPU  0 inst:  209000003 cyc:  149090005 now IPC :1.41063: AVG IPC :1.39777: L2-Pf-HR :0.94257: L2-HR :0.81169: (Sim:0h21m26s) 
CPU  0 inst:  210000000 cyc:  149795891 now IPC :1.41666: AVG IPC :1.39786: L2-Pf-HR :0.94262: L2-HR :0.81174: (Sim:0h21m33s) 
CPU  0 inst:  211000000 cyc:  150535289 now IPC :1.35245: AVG IPC :1.39763: L2-Pf-HR :0.94267: L2-HR :0.81177: (Sim:0h21m40s) 
CPU  0 inst:  212000001 cyc:  151228746 now IPC :1.44205: AVG IPC :1.39784: L2-Pf-HR :0.94272: L2-HR :0.81181: (Sim:0h21m47s) 
CPU  0 inst:  213000001 cyc:  151923109 now IPC :1.44017: AVG IPC :1.39803: L2-Pf-HR :0.94276: L2-HR :0.81184: (Sim:0h21m53s) 
CPU  0 inst:  214000001 cyc:  152617098 now IPC :1.44095: AVG IPC :1.39823: L2-Pf-HR :0.94280: L2-HR :0.81188: (Sim:0h22m0s) 
CPU  0 inst:  215000001 cyc:  153308540 now IPC :1.44625: AVG IPC :1.39845: L2-Pf-HR :0.94285: L2-HR :0.81192: (Sim:0h22m7s) 
CPU  0 inst:  216000000 cyc:  154001161 now IPC :1.44379: AVG IPC :1.39865: L2-Pf-HR :0.94289: L2-HR :0.81195: (Sim:0h22m14s) 
CPU  0 inst:  217000002 cyc:  154778569 now IPC :1.28633: AVG IPC :1.39808: L2-Pf-HR :0.94276: L2-HR :0.81191: (Sim:0h22m21s) 
CPU  0 inst:  218000001 cyc:  155471241 now IPC :1.44368: AVG IPC :1.39829: L2-Pf-HR :0.94281: L2-HR :0.81195: (Sim:0h22m28s) 
CPU  0 inst:  219000000 cyc:  156164575 now IPC :1.44230: AVG IPC :1.39849: L2-Pf-HR :0.94285: L2-HR :0.81199: (Sim:0h22m35s) 
CPU  0 inst:  220000000 cyc:  156859261 now IPC :1.43950: AVG IPC :1.39867: L2-Pf-HR :0.94289: L2-HR :0.81202: (Sim:0h22m42s) 
CPU  0 inst:  221000000 cyc:  157554412 now IPC :1.43854: AVG IPC :1.39885: L2-Pf-HR :0.94294: L2-HR :0.81207: (Sim:0h22m48s) 
CPU  0 inst:  222000002 cyc:  158246811 now IPC :1.44426: AVG IPC :1.39904: L2-Pf-HR :0.94299: L2-HR :0.81211: (Sim:0h22m55s) 
CPU  0 inst:  223000005 cyc:  158986094 now IPC :1.35267: AVG IPC :1.39883: L2-Pf-HR :0.94303: L2-HR :0.81214: (Sim:0h23m2s) 
CPU  0 inst:  224000000 cyc:  159690319 now IPC :1.41999: AVG IPC :1.39892: L2-Pf-HR :0.94308: L2-HR :0.81218: (Sim:0h23m9s) 
CPU  0 inst:  225000000 cyc:  160395787 now IPC :1.41750: AVG IPC :1.39900: L2-Pf-HR :0.94310: L2-HR :0.81221: (Sim:0h23m16s) 
CPU  0 inst:  226000004 cyc:  161103069 now IPC :1.41387: AVG IPC :1.39907: L2-Pf-HR :0.94315: L2-HR :0.81225: (Sim:0h23m22s) 
CPU  0 inst:  227000003 cyc:  161806873 now IPC :1.42085: AVG IPC :1.39917: L2-Pf-HR :0.94319: L2-HR :0.81228: (Sim:0h23m29s) 
CPU  0 inst:  228000003 cyc:  162513386 now IPC :1.41540: AVG IPC :1.39924: L2-Pf-HR :0.94322: L2-HR :0.81230: (Sim:0h23m36s) 
CPU  0 inst:  229000004 cyc:  163289809 now IPC :1.28796: AVG IPC :1.39870: L2-Pf-HR :0.94313: L2-HR :0.81227: (Sim:0h23m43s) 
CPU  0 inst:  230000004 cyc:  163987497 now IPC :1.43331: AVG IPC :1.39885: L2-Pf-HR :0.94317: L2-HR :0.81230: (Sim:0h23m50s) 
CPU  0 inst:  231000004 cyc:  164685082 now IPC :1.43352: AVG IPC :1.39900: L2-Pf-HR :0.94320: L2-HR :0.81232: (Sim:0h23m57s) 
CPU  0 inst:  232000000 cyc:  165381475 now IPC :1.43597: AVG IPC :1.39916: L2-Pf-HR :0.94324: L2-HR :0.81237: (Sim:0h24m4s) 
CPU  0 inst:  233000001 cyc:  166078886 now IPC :1.43388: AVG IPC :1.39930: L2-Pf-HR :0.94328: L2-HR :0.81240: (Sim:0h24m11s) 
CPU  0 inst:  234000004 cyc:  166774710 now IPC :1.43715: AVG IPC :1.39946: L2-Pf-HR :0.94333: L2-HR :0.81242: (Sim:0h24m17s) 
CPU  0 inst:  235000002 cyc:  167514622 now IPC :1.35151: AVG IPC :1.39925: L2-Pf-HR :0.94337: L2-HR :0.81246: (Sim:0h24m24s) 
CPU  0 inst:  236000002 cyc:  168217985 now IPC :1.42174: AVG IPC :1.39934: L2-Pf-HR :0.94342: L2-HR :0.81250: (Sim:0h24m31s) 
CPU  0 inst:  237000003 cyc:  168921133 now IPC :1.42218: AVG IPC :1.39944: L2-Pf-HR :0.94343: L2-HR :0.81251: (Sim:0h24m38s) 
CPU  0 inst:  238000002 cyc:  169625429 now IPC :1.41986: AVG IPC :1.39952: L2-Pf-HR :0.94346: L2-HR :0.81254: (Sim:0h24m44s) 
CPU  0 inst:  239000005 cyc:  170325625 now IPC :1.42818: AVG IPC :1.39964: L2-Pf-HR :0.94351: L2-HR :0.81259: (Sim:0h24m51s) 
CPU  0 inst:  240000000 cyc:  171028459 now IPC :1.42280: AVG IPC :1.39974: L2-Pf-HR :0.94354: L2-HR :0.81262: (Sim:0h24m58s) 
CPU  0 inst:  241000002 cyc:  171810335 now IPC :1.27898: AVG IPC :1.39919: L2-Pf-HR :0.94349: L2-HR :0.81259: (Sim:0h25m5s) 
CPU  0 inst:  242000001 cyc:  172512120 now IPC :1.42494: AVG IPC :1.39929: L2-Pf-HR :0.94352: L2-HR :0.81261: (Sim:0h25m12s) 
CPU  0 inst:  243000003 cyc:  173214429 now IPC :1.42388: AVG IPC :1.39939: L2-Pf-HR :0.94354: L2-HR :0.81264: (Sim:0h25m18s) 
CPU  0 inst:  244000001 cyc:  173914188 now IPC :1.42906: AVG IPC :1.39951: L2-Pf-HR :0.94358: L2-HR :0.81268: (Sim:0h25m25s) 
CPU  0 inst:  245000003 cyc:  174615808 now IPC :1.42528: AVG IPC :1.39962: L2-Pf-HR :0.94361: L2-HR :0.81271: (Sim:0h25m32s) 
CPU  0 inst:  246000003 cyc:  175314759 now IPC :1.43072: AVG IPC :1.39974: L2-Pf-HR :0.94365: L2-HR :0.81274: (Sim:0h25m39s) 
CPU  0 inst:  247000003 cyc:  176056561 now IPC :1.34807: AVG IPC :1.39952: L2-Pf-HR :0.94369: L2-HR :0.81276: (Sim:0h25m45s) 
CPU  0 inst:  248000000 cyc:  176761875 now IPC :1.41780: AVG IPC :1.39959: L2-Pf-HR :0.94371: L2-HR :0.81279: (Sim:0h25m52s) 
CPU  0 inst:  249000004 cyc:  177465925 now IPC :1.42036: AVG IPC :1.39968: L2-Pf-HR :0.94374: L2-HR :0.81280: (Sim:0h26m0s) 
CPU  0 inst:  250000001 cyc:  178172227 now IPC :1.41582: AVG IPC :1.39974: L2-Pf-HR :0.94377: L2-HR :0.81283: (Sim:0h26m7s) 
CPU  0 inst:  251000004 cyc:  178873760 now IPC :1.42545: AVG IPC :1.39984: L2-Pf-HR :0.94381: L2-HR :0.81286: (Sim:0h26m13s) 
CPU  0 inst:  252000001 cyc:  179577781 now IPC :1.42041: AVG IPC :1.39992: L2-Pf-HR :0.94384: L2-HR :0.81288: (Sim:0h26m20s) 
CPU  0 inst:  253000005 cyc:  180318767 now IPC :1.34956: AVG IPC :1.39972: L2-Pf-HR :0.94372: L2-HR :0.81277: (Sim:0h26m27s) 
CPU  0 inst:  254000005 cyc:  181039283 now IPC :1.38789: AVG IPC :1.39967: L2-Pf-HR :0.94341: L2-HR :0.81247: (Sim:0h26m34s) 
CPU  0 inst:  255000001 cyc:  181751205 now IPC :1.40464: AVG IPC :1.39969: L2-Pf-HR :0.94310: L2-HR :0.81216: (Sim:0h26m41s) 
CPU  0 inst:  256000000 cyc:  182432728 now IPC :1.46730: AVG IPC :1.39994: L2-Pf-HR :0.94281: L2-HR :0.81187: (Sim:0h26m48s) 
CPU  0 inst:  257000005 cyc:  183226720 now IPC :1.25946: AVG IPC :1.39933: L2-Pf-HR :0.94240: L2-HR :0.81148: (Sim:0h26m55s) 
CPU  0 inst:  258000003 cyc:  183942139 now IPC :1.39778: AVG IPC :1.39932: L2-Pf-HR :0.94240: L2-HR :0.81148: (Sim:0h27m2s) 
CPU  0 inst:  259000005 cyc:  184659902 now IPC :1.39322: AVG IPC :1.39930: L2-Pf-HR :0.94240: L2-HR :0.81150: (Sim:0h27m9s) 
CPU  0 inst:  260000001 cyc:  185376496 now IPC :1.39548: AVG IPC :1.39929: L2-Pf-HR :0.94242: L2-HR :0.81152: (Sim:0h27m16s) 
CPU  0 inst:  261000000 cyc:  186094380 now IPC :1.39298: AVG IPC :1.39926: L2-Pf-HR :0.94242: L2-HR :0.81153: (Sim:0h27m23s) 
CPU  0 inst:  262000000 cyc:  186814324 now IPC :1.38900: AVG IPC :1.39922: L2-Pf-HR :0.94242: L2-HR :0.81152: (Sim:0h27m30s) 
CPU  0 inst:  263000005 cyc:  187573600 now IPC :1.31705: AVG IPC :1.39889: L2-Pf-HR :0.94241: L2-HR :0.81152: (Sim:0h27m36s) 
CPU  0 inst:  264000000 cyc:  188293480 now IPC :1.38911: AVG IPC :1.39885: L2-Pf-HR :0.94242: L2-HR :0.81153: (Sim:0h27m43s) 
CPU  0 inst:  265000003 cyc:  189014989 now IPC :1.38599: AVG IPC :1.39880: L2-Pf-HR :0.94242: L2-HR :0.81153: (Sim:0h27m50s) 
CPU  0 inst:  266000001 cyc:  189732942 now IPC :1.39285: AVG IPC :1.39878: L2-Pf-HR :0.94243: L2-HR :0.81155: (Sim:0h27m57s) 
CPU  0 inst:  267000003 cyc:  190455376 now IPC :1.38421: AVG IPC :1.39872: L2-Pf-HR :0.94244: L2-HR :0.81156: (Sim:0h28m4s) 
CPU  0 inst:  268000005 cyc:  191177144 now IPC :1.38549: AVG IPC :1.39867: L2-Pf-HR :0.94244: L2-HR :0.81155: (Sim:0h28m11s) 
CPU  0 inst:  269000004 cyc:  191976446 now IPC :1.25109: AVG IPC :1.39805: L2-Pf-HR :0.94236: L2-HR :0.81152: (Sim:0h28m18s) 
CPU  0 inst:  270000004 cyc:  192687817 now IPC :1.40574: AVG IPC :1.39808: L2-Pf-HR :0.94240: L2-HR :0.81155: (Sim:0h28m24s) 
CPU  0 inst:  271000004 cyc:  193398875 now IPC :1.40636: AVG IPC :1.39811: L2-Pf-HR :0.94242: L2-HR :0.81158: (Sim:0h28m31s) 
CPU  0 inst:  272000000 cyc:  194110289 now IPC :1.40565: AVG IPC :1.39814: L2-Pf-HR :0.94245: L2-HR :0.81161: (Sim:0h28m40s) 
CPU  0 inst:  273000004 cyc:  194820400 now IPC :1.40824: AVG IPC :1.39818: L2-Pf-HR :0.94249: L2-HR :0.81164: (Sim:0h28m48s) 
CPU  0 inst:  274000004 cyc:  195531409 now IPC :1.40645: AVG IPC :1.39821: L2-Pf-HR :0.94252: L2-HR :0.81167: (Sim:0h28m56s) 
CPU  0 inst:  275000002 cyc:  196273559 now IPC :1.34743: AVG IPC :1.39802: L2-Pf-HR :0.94257: L2-HR :0.81170: (Sim:0h29m8s) 
CPU  0 inst:  276000002 cyc:  196965644 now IPC :1.44491: AVG IPC :1.39818: L2-Pf-HR :0.94260: L2-HR :0.81172: (Sim:0h29m22s) 
CPU  0 inst:  277000002 cyc:  197658138 now IPC :1.44406: AVG IPC :1.39834: L2-Pf-HR :0.94262: L2-HR :0.81175: (Sim:0h29m36s) 
CPU  0 inst:  278000004 cyc:  198350880 now IPC :1.44354: AVG IPC :1.39850: L2-Pf-HR :0.94265: L2-HR :0.81178: (Sim:0h29m50s) 
CPU  0 inst:  279000005 cyc:  199043624 now IPC :1.44354: AVG IPC :1.39866: L2-Pf-HR :0.94269: L2-HR :0.81182: (Sim:0h30m3s) 
CPU  0 inst:  280000000 cyc:  199733492 now IPC :1.44955: AVG IPC :1.39884: L2-Pf-HR :0.94273: L2-HR :0.81185: (Sim:0h30m17s) 
CPU  0 inst:  281000002 cyc:  200510515 now IPC :1.28697: AVG IPC :1.39840: L2-Pf-HR :0.94267: L2-HR :0.81183: (Sim:0h30m31s) 
CPU  0 inst:  282000002 cyc:  201219738 now IPC :1.40999: AVG IPC :1.39844: L2-Pf-HR :0.94270: L2-HR :0.81186: (Sim:0h30m45s) 
CPU  0 inst:  283000005 cyc:  201925756 now IPC :1.41640: AVG IPC :1.39850: L2-Pf-HR :0.94273: L2-HR :0.81188: (Sim:0h30m59s) 
CPU  0 inst:  284000000 cyc:  202634670 now IPC :1.41060: AVG IPC :1.39855: L2-Pf-HR :0.94276: L2-HR :0.81191: (Sim:0h31m12s) 
CPU  0 inst:  285000003 cyc:  203340670 now IPC :1.41643: AVG IPC :1.39861: L2-Pf-HR :0.94280: L2-HR :0.81195: (Sim:0h31m26s) 
CPU  0 inst:  286000003 cyc:  204046966 now IPC :1.41584: AVG IPC :1.39867: L2-Pf-HR :0.94284: L2-HR :0.81197: (Sim:0h31m40s) 
CPU  0 inst:  287000003 cyc:  204792166 now IPC :1.34192: AVG IPC :1.39846: L2-Pf-HR :0.94288: L2-HR :0.81200: (Sim:0h31m54s) 
CPU  0 inst:  288000000 cyc:  205499792 now IPC :1.41317: AVG IPC :1.39851: L2-Pf-HR :0.94290: L2-HR :0.81202: (Sim:0h32m7s) 
CPU  0 inst:  289000005 cyc:  206208881 now IPC :1.41027: AVG IPC :1.39855: L2-Pf-HR :0.94293: L2-HR :0.81204: (Sim:0h32m21s) 
CPU  0 inst:  290000005 cyc:  206915912 now IPC :1.41437: AVG IPC :1.39861: L2-Pf-HR :0.94296: L2-HR :0.81208: (Sim:0h32m31s) 
CPU  0 inst:  291000004 cyc:  207622830 now IPC :1.41459: AVG IPC :1.39866: L2-Pf-HR :0.94300: L2-HR :0.81212: (Sim:0h32m38s) 
CPU  0 inst:  292000001 cyc:  208328141 now IPC :1.41781: AVG IPC :1.39873: L2-Pf-HR :0.94304: L2-HR :0.81214: (Sim:0h32m45s) 
CPU  0 inst:  293000002 cyc:  209108520 now IPC :1.28143: AVG IPC :1.39829: L2-Pf-HR :0.94299: L2-HR :0.81211: (Sim:0h32m53s) 
CPU  0 inst:  294000005 cyc:  209809822 now IPC :1.42592: AVG IPC :1.39838: L2-Pf-HR :0.94301: L2-HR :0.81213: (Sim:0h33m0s) 
CPU  0 inst:  295000002 cyc:  210509587 now IPC :1.42905: AVG IPC :1.39848: L2-Pf-HR :0.94304: L2-HR :0.81216: (Sim:0h33m7s) 
CPU  0 inst:  296000000 cyc:  211209741 now IPC :1.42825: AVG IPC :1.39858: L2-Pf-HR :0.94307: L2-HR :0.81219: (Sim:0h33m14s) 
CPU  0 inst:  297000000 cyc:  211907872 now IPC :1.43240: AVG IPC :1.39869: L2-Pf-HR :0.94311: L2-HR :0.81222: (Sim:0h33m21s) 
CPU  0 inst:  298000002 cyc:  212606162 now IPC :1.43207: AVG IPC :1.39880: L2-Pf-HR :0.94314: L2-HR :0.81224: (Sim:0h33m28s) 
CPU  0 inst:  299000003 cyc:  213346345 now IPC :1.35102: AVG IPC :1.39864: L2-Pf-HR :0.94318: L2-HR :0.81226: (Sim:0h33m35s) 
xz: 770-tot_memTraces_v5/120-subBillion_s2048_LLM_Arch/memTraces[1319000000]_FE_[Pythia-70M]_[h8]_[s2048]_[d64].champsim.9SSize.xz: Unexpected end of input
*** Reached end of trace for Core: 0 Repeating trace: 770-tot_memTraces_v5/120-subBillion_s2048_LLM_Arch/memTraces[1319000000]_FE_[Pythia-70M]_[h8]_[s2048]_[d64].champsim.9SSize.xz
CPU  0 inst:  300000003 cyc:  214414851 now IPC :0.93589: AVG IPC :1.39632: L2-Pf-HR :0.94291: L2-HR :0.81192: (Sim:0h33m42s) 
CPU  0 inst:  301000001 cyc:  215131779 now IPC :1.39484: AVG IPC :1.39631: L2-Pf-HR :0.94291: L2-HR :0.81192: (Sim:0h33m49s) 
CPU  0 inst:  302000005 cyc:  215851453 now IPC :1.38952: AVG IPC :1.39629: L2-Pf-HR :0.94292: L2-HR :0.81193: (Sim:0h33m56s) 
CPU  0 inst:  303000000 cyc:  216570151 now IPC :1.39140: AVG IPC :1.39628: L2-Pf-HR :0.94294: L2-HR :0.81195: (Sim:0h34m4s) 
CPU  0 inst:  304000000 cyc:  217288511 now IPC :1.39206: AVG IPC :1.39626: L2-Pf-HR :0.94293: L2-HR :0.81194: (Sim:0h34m11s) 
CPU  0 inst:  305000000 cyc:  218005455 now IPC :1.39481: AVG IPC :1.39626: L2-Pf-HR :0.94294: L2-HR :0.81194: (Sim:0h34m18s) 
CPU  0 inst:  306000001 cyc:  218755379 now IPC :1.33347: AVG IPC :1.39604: L2-Pf-HR :0.94294: L2-HR :0.81194: (Sim:0h34m25s) 
CPU  0 inst:  307000000 cyc:  219474981 now IPC :1.38966: AVG IPC :1.39602: L2-Pf-HR :0.94295: L2-HR :0.81194: (Sim:0h34m32s) 
CPU  0 inst:  308000000 cyc:  220197036 now IPC :1.38494: AVG IPC :1.39598: L2-Pf-HR :0.94294: L2-HR :0.81193: (Sim:0h34m39s) 
CPU  0 inst:  309000003 cyc:  220917194 now IPC :1.38859: AVG IPC :1.39596: L2-Pf-HR :0.94295: L2-HR :0.81194: (Sim:0h34m46s) 
CPU  0 inst:  310000003 cyc:  221634342 now IPC :1.39441: AVG IPC :1.39595: L2-Pf-HR :0.94295: L2-HR :0.81194: (Sim:0h34m53s) 
CPU  0 inst:  311000004 cyc:  222350154 now IPC :1.39702: AVG IPC :1.39596: L2-Pf-HR :0.94295: L2-HR :0.81193: (Sim:0h35m1s) 
CPU  0 inst:  312000000 cyc:  223142853 now IPC :1.26151: AVG IPC :1.39548: L2-Pf-HR :0.94287: L2-HR :0.81189: (Sim:0h35m8s) 
CPU  0 inst:  313000004 cyc:  223850574 now IPC :1.41299: AVG IPC :1.39553: L2-Pf-HR :0.94291: L2-HR :0.81193: (Sim:0h35m15s) 
CPU  0 inst:  314000004 cyc:  224557521 now IPC :1.41453: AVG IPC :1.39559: L2-Pf-HR :0.94293: L2-HR :0.81195: (Sim:0h35m22s) 
CPU  0 inst:  315000003 cyc:  225266224 now IPC :1.41103: AVG IPC :1.39564: L2-Pf-HR :0.94296: L2-HR :0.81198: (Sim:0h35m29s) 
CPU  0 inst:  316000004 cyc:  225973153 now IPC :1.41457: AVG IPC :1.39570: L2-Pf-HR :0.94299: L2-HR :0.81201: (Sim:0h35m36s) 
CPU  0 inst:  317000002 cyc:  226681320 now IPC :1.41209: AVG IPC :1.39575: L2-Pf-HR :0.94302: L2-HR :0.81203: (Sim:0h35m43s) 
CPU  0 inst:  318000002 cyc:  227425010 now IPC :1.34465: AVG IPC :1.39559: L2-Pf-HR :0.94306: L2-HR :0.81206: (Sim:0h35m50s) 
CPU  0 inst:  319000002 cyc:  228130503 now IPC :1.41745: AVG IPC :1.39565: L2-Pf-HR :0.94308: L2-HR :0.81209: (Sim:0h35m58s) 
CPU  0 inst:  320000000 cyc:  228836303 now IPC :1.41683: AVG IPC :1.39572: L2-Pf-HR :0.94311: L2-HR :0.81212: (Sim:0h36m5s) 
CPU  0 inst:  321000000 cyc:  229541712 now IPC :1.41762: AVG IPC :1.39579: L2-Pf-HR :0.94314: L2-HR :0.81215: (Sim:0h36m12s) 
CPU  0 inst:  322000000 cyc:  230247357 now IPC :1.41714: AVG IPC :1.39585: L2-Pf-HR :0.94317: L2-HR :0.81217: (Sim:0h36m19s) 
CPU  0 inst:  323000000 cyc:  230950535 now IPC :1.42211: AVG IPC :1.39593: L2-Pf-HR :0.94320: L2-HR :0.81219: (Sim:0h36m26s) 
CPU  0 inst:  324000005 cyc:  231727622 now IPC :1.28686: AVG IPC :1.39556: L2-Pf-HR :0.94315: L2-HR :0.81216: (Sim:0h36m33s) 
CPU  0 inst:  325000005 cyc:  232428015 now IPC :1.42777: AVG IPC :1.39566: L2-Pf-HR :0.94318: L2-HR :0.81220: (Sim:0h36m40s) 
CPU  0 inst:  326000005 cyc:  233128069 now IPC :1.42846: AVG IPC :1.39576: L2-Pf-HR :0.94320: L2-HR :0.81222: (Sim:0h36m48s) 
CPU  0 inst:  327000000 cyc:  233828989 now IPC :1.42669: AVG IPC :1.39585: L2-Pf-HR :0.94323: L2-HR :0.81224: (Sim:0h36m55s) 
CPU  0 inst:  328000000 cyc:  234526651 now IPC :1.43336: AVG IPC :1.39597: L2-Pf-HR :0.94326: L2-HR :0.81226: (Sim:0h37m2s) 
CPU  0 inst:  329000000 cyc:  235227392 now IPC :1.42706: AVG IPC :1.39606: L2-Pf-HR :0.94330: L2-HR :0.81229: (Sim:0h37m9s) 
CPU  0 inst:  330000000 cyc:  235959490 now IPC :1.36594: AVG IPC :1.39597: L2-Pf-HR :0.94332: L2-HR :0.81231: (Sim:0h37m16s) 
CPU  0 inst:  331000000 cyc:  236652062 now IPC :1.44389: AVG IPC :1.39611: L2-Pf-HR :0.94335: L2-HR :0.81233: (Sim:0h37m24s) 
CPU  0 inst:  332000000 cyc:  237343684 now IPC :1.44588: AVG IPC :1.39625: L2-Pf-HR :0.94337: L2-HR :0.81235: (Sim:0h37m37s) 
CPU  0 inst:  333000004 cyc:  238034401 now IPC :1.44778: AVG IPC :1.39640: L2-Pf-HR :0.94339: L2-HR :0.81237: (Sim:0h37m51s) 
CPU  0 inst:  334000001 cyc:  238725340 now IPC :1.44730: AVG IPC :1.39655: L2-Pf-HR :0.94342: L2-HR :0.81239: (Sim:0h38m5s) 
CPU  0 inst:  335000001 cyc:  239414328 now IPC :1.45140: AVG IPC :1.39671: L2-Pf-HR :0.94345: L2-HR :0.81242: (Sim:0h38m18s) 
CPU  0 inst:  336000000 cyc:  240194981 now IPC :1.28098: AVG IPC :1.39633: L2-Pf-HR :0.94340: L2-HR :0.81239: (Sim:0h38m33s) 
CPU  0 inst:  337000001 cyc:  240902236 now IPC :1.41392: AVG IPC :1.39638: L2-Pf-HR :0.94342: L2-HR :0.81241: (Sim:0h38m47s) 
CPU  0 inst:  338000005 cyc:  241608718 now IPC :1.41547: AVG IPC :1.39644: L2-Pf-HR :0.94344: L2-HR :0.81242: (Sim:0h38m56s) 
CPU  0 inst:  339000003 cyc:  242315695 now IPC :1.41447: AVG IPC :1.39649: L2-Pf-HR :0.94347: L2-HR :0.81246: (Sim:0h39m4s) 
CPU  0 inst:  340000003 cyc:  243019596 now IPC :1.42065: AVG IPC :1.39656: L2-Pf-HR :0.94350: L2-HR :0.81248: (Sim:0h39m12s) 
CPU  0 inst:  341000003 cyc:  243725717 now IPC :1.41619: AVG IPC :1.39662: L2-Pf-HR :0.94353: L2-HR :0.81251: (Sim:0h39m19s) 
CPU  0 inst:  342000003 cyc:  244469457 now IPC :1.34456: AVG IPC :1.39646: L2-Pf-HR :0.94356: L2-HR :0.81253: (Sim:0h39m27s) 
CPU  0 inst:  343000002 cyc:  245176354 now IPC :1.41463: AVG IPC :1.39651: L2-Pf-HR :0.94358: L2-HR :0.81255: (Sim:0h39m35s) 
CPU  0 inst:  344000000 cyc:  245883350 now IPC :1.41443: AVG IPC :1.39656: L2-Pf-HR :0.94360: L2-HR :0.81257: (Sim:0h39m43s) 
CPU  0 inst:  345000001 cyc:  246588389 now IPC :1.41836: AVG IPC :1.39663: L2-Pf-HR :0.94363: L2-HR :0.81260: (Sim:0h39m51s) 
CPU  0 inst:  346000001 cyc:  247294106 now IPC :1.41700: AVG IPC :1.39669: L2-Pf-HR :0.94365: L2-HR :0.81262: (Sim:0h39m59s) 
CPU  0 inst:  347000001 cyc:  247995747 now IPC :1.42523: AVG IPC :1.39677: L2-Pf-HR :0.94369: L2-HR :0.81264: (Sim:0h40m6s) 
CPU  0 inst:  348000002 cyc:  248780394 now IPC :1.27446: AVG IPC :1.39638: L2-Pf-HR :0.94363: L2-HR :0.81261: (Sim:0h40m14s) 
CPU  0 inst:  349000000 cyc:  249490148 now IPC :1.40894: AVG IPC :1.39641: L2-Pf-HR :0.94365: L2-HR :0.81264: (Sim:0h40m25s) 
CPU  0 inst:  350000004 cyc:  250198742 now IPC :1.41125: AVG IPC :1.39646: L2-Pf-HR :0.94367: L2-HR :0.81266: (Sim:0h40m40s) 
CPU  0 inst:  351000005 cyc:  250908276 now IPC :1.40938: AVG IPC :1.39649: L2-Pf-HR :0.94370: L2-HR :0.81269: (Sim:0h40m54s) 
CPU  0 inst:  352000000 cyc:  251615034 now IPC :1.41490: AVG IPC :1.39655: L2-Pf-HR :0.94373: L2-HR :0.81271: (Sim:0h41m5s) 
CPU  0 inst:  353000005 cyc:  252323108 now IPC :1.41229: AVG IPC :1.39659: L2-Pf-HR :0.94376: L2-HR :0.81273: (Sim:0h41m12s) 
CPU  0 inst:  354000004 cyc:  253067844 now IPC :1.34276: AVG IPC :1.39643: L2-Pf-HR :0.94379: L2-HR :0.81275: (Sim:0h41m20s) 
CPU  0 inst:  355000004 cyc:  253774063 now IPC :1.41599: AVG IPC :1.39649: L2-Pf-HR :0.94381: L2-HR :0.81277: (Sim:0h41m27s) 
CPU  0 inst:  356000005 cyc:  254481845 now IPC :1.41287: AVG IPC :1.39653: L2-Pf-HR :0.94382: L2-HR :0.81280: (Sim:0h41m35s) 
CPU  0 inst:  357000003 cyc:  255186474 now IPC :1.41918: AVG IPC :1.39659: L2-Pf-HR :0.94386: L2-HR :0.81283: (Sim:0h41m42s) 
CPU  0 inst:  358000002 cyc:  255891312 now IPC :1.41876: AVG IPC :1.39666: L2-Pf-HR :0.94388: L2-HR :0.81285: (Sim:0h41m50s) 
CPU  0 inst:  359000002 cyc:  256593336 now IPC :1.42445: AVG IPC :1.39673: L2-Pf-HR :0.94391: L2-HR :0.81287: (Sim:0h41m58s) 
CPU  0 inst:  360000000 cyc:  257333534 now IPC :1.35099: AVG IPC :1.39660: L2-Pf-HR :0.94379: L2-HR :0.81276: (Sim:0h42m6s) 
CPU  0 inst:  361000005 cyc:  258045363 now IPC :1.40484: AVG IPC :1.39662: L2-Pf-HR :0.94357: L2-HR :0.81255: (Sim:0h42m14s) 
CPU  0 inst:  362000005 cyc:  258765092 now IPC :1.38941: AVG IPC :1.39660: L2-Pf-HR :0.94336: L2-HR :0.81233: (Sim:0h42m23s) 
CPU  0 inst:  363000001 cyc:  259472077 now IPC :1.41445: AVG IPC :1.39665: L2-Pf-HR :0.94315: L2-HR :0.81213: (Sim:0h42m31s) 
CPU  0 inst:  364000001 cyc:  260282625 now IPC :1.23373: AVG IPC :1.39614: L2-Pf-HR :0.94290: L2-HR :0.81189: (Sim:0h42m39s) 
CPU  0 inst:  365000005 cyc:  260997783 now IPC :1.39830: AVG IPC :1.39615: L2-Pf-HR :0.94290: L2-HR :0.81190: (Sim:0h42m52s) 
CPU  0 inst:  366000000 cyc:  261712553 now IPC :1.39904: AVG IPC :1.39616: L2-Pf-HR :0.94290: L2-HR :0.81189: (Sim:0h43m0s) 
CPU  0 inst:  367000003 cyc:  262429413 now IPC :1.39498: AVG IPC :1.39615: L2-Pf-HR :0.94290: L2-HR :0.81190: (Sim:0h43m9s) 
CPU  0 inst:  368000000 cyc:  263143304 now IPC :1.40077: AVG IPC :1.39617: L2-Pf-HR :0.94291: L2-HR :0.81190: (Sim:0h43m17s) 
CPU  0 inst:  369000000 cyc:  263861094 now IPC :1.39317: AVG IPC :1.39616: L2-Pf-HR :0.94290: L2-HR :0.81189: (Sim:0h43m25s) 
CPU  0 inst:  370000000 cyc:  264613537 now IPC :1.32900: AVG IPC :1.39597: L2-Pf-HR :0.94290: L2-HR :0.81188: (Sim:0h43m33s) 
CPU  0 inst:  371000001 cyc:  265335806 now IPC :1.38453: AVG IPC :1.39593: L2-Pf-HR :0.94290: L2-HR :0.81189: (Sim:0h43m45s) 
CPU  0 inst:  372000005 cyc:  266055842 now IPC :1.38883: AVG IPC :1.39591: L2-Pf-HR :0.94290: L2-HR :0.81189: (Sim:0h43m57s) 
CPU  0 inst:  373000002 cyc:  266776076 now IPC :1.38843: AVG IPC :1.39589: L2-Pf-HR :0.94290: L2-HR :0.81190: (Sim:0h44m9s) 
CPU  0 inst:  374000004 cyc:  267497109 now IPC :1.38690: AVG IPC :1.39587: L2-Pf-HR :0.94289: L2-HR :0.81189: (Sim:0h44m17s) 
CPU  0 inst:  375000002 cyc:  268220534 now IPC :1.38231: AVG IPC :1.39583: L2-Pf-HR :0.94289: L2-HR :0.81189: (Sim:0h44m26s) 
CPU  0 inst:  376000000 cyc:  269014825 now IPC :1.25898: AVG IPC :1.39543: L2-Pf-HR :0.94284: L2-HR :0.81186: (Sim:0h44m37s) 
CPU  0 inst:  377000001 cyc:  269722918 now IPC :1.41225: AVG IPC :1.39547: L2-Pf-HR :0.94286: L2-HR :0.81188: (Sim:0h44m48s) 
CPU  0 inst:  378000004 cyc:  270430222 now IPC :1.41382: AVG IPC :1.39552: L2-Pf-HR :0.94288: L2-HR :0.81190: (Sim:0h44m57s) 
CPU  0 inst:  379000003 cyc:  271137173 now IPC :1.41452: AVG IPC :1.39557: L2-Pf-HR :0.94291: L2-HR :0.81193: (Sim:0h45m5s) 
CPU  0 inst:  380000000 cyc:  271844164 now IPC :1.41444: AVG IPC :1.39562: L2-Pf-HR :0.94293: L2-HR :0.81195: (Sim:0h45m14s) 
CPU  0 inst:  381000003 cyc:  272549262 now IPC :1.41825: AVG IPC :1.39568: L2-Pf-HR :0.94297: L2-HR :0.81198: (Sim:0h45m24s) 
CPU  0 inst:  382000005 cyc:  273289795 now IPC :1.35038: AVG IPC :1.39556: L2-Pf-HR :0.94299: L2-HR :0.81199: (Sim:0h45m36s) 
CPU  0 inst:  383000002 cyc:  273982086 now IPC :1.44447: AVG IPC :1.39568: L2-Pf-HR :0.94302: L2-HR :0.81202: (Sim:0h45m45s) 
CPU  0 inst:  384000000 cyc:  274675999 now IPC :1.44110: AVG IPC :1.39579: L2-Pf-HR :0.94303: L2-HR :0.81203: (Sim:0h45m54s) 
CPU  0 inst:  385000000 cyc:  275369873 now IPC :1.44118: AVG IPC :1.39591: L2-Pf-HR :0.94305: L2-HR :0.81206: (Sim:0h46m2s) 
CPU  0 inst:  386000001 cyc:  276060425 now IPC :1.44812: AVG IPC :1.39604: L2-Pf-HR :0.94309: L2-HR :0.81208: (Sim:0h46m10s) 
CPU  0 inst:  387000001 cyc:  276753429 now IPC :1.44299: AVG IPC :1.39616: L2-Pf-HR :0.94311: L2-HR :0.81209: (Sim:0h46m19s) 
CPU  0 inst:  388000003 cyc:  277531315 now IPC :1.28554: AVG IPC :1.39585: L2-Pf-HR :0.94307: L2-HR :0.81207: (Sim:0h46m28s) 
CPU  0 inst:  389000001 cyc:  278234081 now IPC :1.42295: AVG IPC :1.39592: L2-Pf-HR :0.94308: L2-HR :0.81209: (Sim:0h46m36s) 
CPU  0 inst:  390000001 cyc:  278937809 now IPC :1.42100: AVG IPC :1.39598: L2-Pf-HR :0.94310: L2-HR :0.81210: (Sim:0h46m45s) 
CPU  0 inst:  391000005 cyc:  279637779 now IPC :1.42864: AVG IPC :1.39606: L2-Pf-HR :0.94313: L2-HR :0.81213: (Sim:0h46m53s) 
CPU  0 inst:  392000000 cyc:  280338902 now IPC :1.42628: AVG IPC :1.39614: L2-Pf-HR :0.94315: L2-HR :0.81215: (Sim:0h47m2s) 
CPU  0 inst:  393000000 cyc:  281038946 now IPC :1.42848: AVG IPC :1.39622: L2-Pf-HR :0.94319: L2-HR :0.81217: (Sim:0h47m10s) 
CPU  0 inst:  394000005 cyc:  281781763 now IPC :1.34623: AVG IPC :1.39609: L2-Pf-HR :0.94321: L2-HR :0.81219: (Sim:0h47m19s) 
CPU  0 inst:  395000005 cyc:  282489028 now IPC :1.41390: AVG IPC :1.39613: L2-Pf-HR :0.94323: L2-HR :0.81221: (Sim:0h47m28s) 
CPU  0 inst:  396000005 cyc:  283194109 now IPC :1.41828: AVG IPC :1.39619: L2-Pf-HR :0.94325: L2-HR :0.81223: (Sim:0h47m38s) 
CPU  0 inst:  397000003 cyc:  283901758 now IPC :1.41313: AVG IPC :1.39623: L2-Pf-HR :0.94327: L2-HR :0.81226: (Sim:0h47m48s) 
CPU  0 inst:  398000002 cyc:  284607911 now IPC :1.41612: AVG IPC :1.39628: L2-Pf-HR :0.94330: L2-HR :0.81228: (Sim:0h47m57s) 
CPU  0 inst:  399000002 cyc:  285314304 now IPC :1.41564: AVG IPC :1.39633: L2-Pf-HR :0.94333: L2-HR :0.81230: (Sim:0h48m5s) 
CPU  0 inst:  400000000 cyc:  286098158 now IPC :1.27575: AVG IPC :1.39599: L2-Pf-HR :0.94329: L2-HR :0.81228: (Sim:0h48m15s) 
CPU  0 inst:  401000000 cyc:  286806402 now IPC :1.41194: AVG IPC :1.39603: L2-Pf-HR :0.94331: L2-HR :0.81230: (Sim:0h48m27s) 
CPU  0 inst:  402000001 cyc:  287514826 now IPC :1.41159: AVG IPC :1.39607: L2-Pf-HR :0.94333: L2-HR :0.81232: (Sim:0h48m36s) 
CPU  0 inst:  403000003 cyc:  288221662 now IPC :1.41476: AVG IPC :1.39612: L2-Pf-HR :0.94336: L2-HR :0.81235: (Sim:0h48m48s) 
CPU  0 inst:  404000001 cyc:  288928652 now IPC :1.41444: AVG IPC :1.39616: L2-Pf-HR :0.94338: L2-HR :0.81237: (Sim:0h49m2s) 
CPU  0 inst:  405000000 cyc:  289634703 now IPC :1.41633: AVG IPC :1.39621: L2-Pf-HR :0.94342: L2-HR :0.81239: (Sim:0h49m16s) 
CPU  0 inst:  406000000 cyc:  290380423 now IPC :1.34099: AVG IPC :1.39607: L2-Pf-HR :0.94344: L2-HR :0.81241: (Sim:0h49m30s) 
CPU  0 inst:  407000000 cyc:  291086650 now IPC :1.41598: AVG IPC :1.39612: L2-Pf-HR :0.94346: L2-HR :0.81243: (Sim:0h49m43s) 
CPU  0 inst:  408000000 cyc:  291791874 now IPC :1.41799: AVG IPC :1.39617: L2-Pf-HR :0.94347: L2-HR :0.81245: (Sim:0h49m56s) 
CPU  0 inst:  409000002 cyc:  292498891 now IPC :1.41440: AVG IPC :1.39622: L2-Pf-HR :0.94349: L2-HR :0.81246: (Sim:0h50m10s) 
CPU  0 inst:  410000004 cyc:  293201445 now IPC :1.42338: AVG IPC :1.39628: L2-Pf-HR :0.94352: L2-HR :0.81249: (Sim:0h50m23s) 
CPU  0 inst:  411000000 cyc:  293904701 now IPC :1.42195: AVG IPC :1.39634: L2-Pf-HR :0.94354: L2-HR :0.81250: (Sim:0h50m37s) 
CPU  0 inst:  412000002 cyc:  294683841 now IPC :1.28347: AVG IPC :1.39604: L2-Pf-HR :0.94350: L2-HR :0.81248: (Sim:0h50m46s) 
CPU  0 inst:  413000005 cyc:  295377580 now IPC :1.44147: AVG IPC :1.39615: L2-Pf-HR :0.94352: L2-HR :0.81250: (Sim:0h50m56s) 
CPU  0 inst:  414000005 cyc:  296072313 now IPC :1.43940: AVG IPC :1.39625: L2-Pf-HR :0.94354: L2-HR :0.81251: (Sim:0h51m8s) 
CPU  0 inst:  415000000 cyc:  296764662 now IPC :1.44435: AVG IPC :1.39636: L2-Pf-HR :0.94357: L2-HR :0.81254: (Sim:0h51m19s) 
CPU  0 inst:  416000000 cyc:  297458575 now IPC :1.44110: AVG IPC :1.39647: L2-Pf-HR :0.94359: L2-HR :0.81256: (Sim:0h51m33s) 
CPU  0 inst:  417000001 cyc:  298151205 now IPC :1.44377: AVG IPC :1.39658: L2-Pf-HR :0.94362: L2-HR :0.81258: (Sim:0h51m46s) 
CPU  0 inst:  418000003 cyc:  298887361 now IPC :1.35841: AVG IPC :1.39649: L2-Pf-HR :0.94364: L2-HR :0.81260: (Sim:0h52m0s) 
CPU  0 inst:  419000000 cyc:  299593729 now IPC :1.41569: AVG IPC :1.39653: L2-Pf-HR :0.94365: L2-HR :0.81261: (Sim:0h52m12s) 
CPU  0 inst:  420000003 cyc:  300296907 now IPC :1.42212: AVG IPC :1.39659: L2-Pf-HR :0.94367: L2-HR :0.81263: (Sim:0h52m22s) 
CPU  0 inst:  421000000 cyc:  301001202 now IPC :1.41986: AVG IPC :1.39665: L2-Pf-HR :0.94369: L2-HR :0.81265: (Sim:0h52m35s) 
CPU  0 inst:  422000003 cyc:  301702742 now IPC :1.42544: AVG IPC :1.39671: L2-Pf-HR :0.94372: L2-HR :0.81267: (Sim:0h52m49s) 
CPU  0 inst:  423000004 cyc:  302403176 now IPC :1.42769: AVG IPC :1.39678: L2-Pf-HR :0.94374: L2-HR :0.81268: (Sim:0h53m0s) 
CPU  0 inst:  424000000 cyc:  303139692 now IPC :1.35774: AVG IPC :1.39669: L2-Pf-HR :0.94366: L2-HR :0.81261: (Sim:0h53m11s) 
CPU  0 inst:  425000001 cyc:  303855242 now IPC :1.39753: AVG IPC :1.39669: L2-Pf-HR :0.94347: L2-HR :0.81242: (Sim:0h53m21s) 
CPU  0 inst:  426000000 cyc:  304570130 now IPC :1.39882: AVG IPC :1.39670: L2-Pf-HR :0.94329: L2-HR :0.81224: (Sim:0h53m31s) 
CPU  0 inst:  427000000 cyc:  305270749 now IPC :1.42731: AVG IPC :1.39677: L2-Pf-HR :0.94311: L2-HR :0.81207: (Sim:0h53m45s) 
CPU  0 inst:  428000001 cyc:  306075923 now IPC :1.24197: AVG IPC :1.39636: L2-Pf-HR :0.94287: L2-HR :0.81184: (Sim:0h53m59s) 
CPU  0 inst:  429000001 cyc:  306789220 now IPC :1.40194: AVG IPC :1.39637: L2-Pf-HR :0.94287: L2-HR :0.81185: (Sim:0h54m12s) 
CPU  0 inst:  430000001 cyc:  307507116 now IPC :1.39296: AVG IPC :1.39636: L2-Pf-HR :0.94287: L2-HR :0.81184: (Sim:0h54m23s) 
CPU  0 inst:  431000003 cyc:  308221437 now IPC :1.39993: AVG IPC :1.39637: L2-Pf-HR :0.94288: L2-HR :0.81185: (Sim:0h54m37s) 
CPU  0 inst:  432000000 cyc:  308937246 now IPC :1.39702: AVG IPC :1.39637: L2-Pf-HR :0.94288: L2-HR :0.81185: (Sim:0h54m51s) 
CPU  0 inst:  433000002 cyc:  309654467 now IPC :1.39427: AVG IPC :1.39637: L2-Pf-HR :0.94288: L2-HR :0.81185: (Sim:0h55m6s) 
CPU  0 inst:  434000000 cyc:  310410846 now IPC :1.32209: AVG IPC :1.39619: L2-Pf-HR :0.94288: L2-HR :0.81185: (Sim:0h55m19s) 
CPU  0 inst:  435000004 cyc:  311133656 now IPC :1.38349: AVG IPC :1.39616: L2-Pf-HR :0.94287: L2-HR :0.81184: (Sim:0h55m33s) 
CPU  0 inst:  436000005 cyc:  311852803 now IPC :1.39054: AVG IPC :1.39614: L2-Pf-HR :0.94287: L2-HR :0.81184: (Sim:0h55m48s) 
CPU  0 inst:  437000003 cyc:  312574781 now IPC :1.38508: AVG IPC :1.39612: L2-Pf-HR :0.94287: L2-HR :0.81185: (Sim:0h56m2s) 
CPU  0 inst:  438000004 cyc:  313300131 now IPC :1.37865: AVG IPC :1.39608: L2-Pf-HR :0.94288: L2-HR :0.81186: (Sim:0h56m16s) 
CPU  0 inst:  439000002 cyc:  314021201 now IPC :1.38683: AVG IPC :1.39606: L2-Pf-HR :0.94287: L2-HR :0.81186: (Sim:0h56m30s) 
CPU  0 inst:  440000000 cyc:  314811442 now IPC :1.26543: AVG IPC :1.39573: L2-Pf-HR :0.94282: L2-HR :0.81183: (Sim:0h56m40s) 
CPU  0 inst:  441000000 cyc:  315515350 now IPC :1.42064: AVG IPC :1.39578: L2-Pf-HR :0.94284: L2-HR :0.81185: (Sim:0h56m52s) 
CPU  0 inst:  442000003 cyc:  316216711 now IPC :1.42580: AVG IPC :1.39585: L2-Pf-HR :0.94286: L2-HR :0.81187: (Sim:0h57m6s) 
CPU  0 inst:  443000003 cyc:  316918794 now IPC :1.42433: AVG IPC :1.39591: L2-Pf-HR :0.94288: L2-HR :0.81190: (Sim:0h57m21s) 
CPU  0 inst:  444000003 cyc:  317618417 now IPC :1.42934: AVG IPC :1.39599: L2-Pf-HR :0.94291: L2-HR :0.81192: (Sim:0h57m35s) 
CPU  0 inst:  445000000 cyc:  318318883 now IPC :1.42762: AVG IPC :1.39606: L2-Pf-HR :0.94293: L2-HR :0.81193: (Sim:0h57m47s) 
CPU  0 inst:  446000005 cyc:  319057589 now IPC :1.35373: AVG IPC :1.39596: L2-Pf-HR :0.94296: L2-HR :0.81195: (Sim:0h58m1s) 
CPU  0 inst:  447000000 cyc:  319758502 now IPC :1.42670: AVG IPC :1.39603: L2-Pf-HR :0.94297: L2-HR :0.81197: (Sim:0h58m15s) 
CPU  0 inst:  448000000 cyc:  320461418 now IPC :1.42265: AVG IPC :1.39609: L2-Pf-HR :0.94299: L2-HR :0.81198: (Sim:0h58m29s) 
CPU  0 inst:  449000005 cyc:  321161016 now IPC :1.42940: AVG IPC :1.39616: L2-Pf-HR :0.94302: L2-HR :0.81200: (Sim:0h58m42s) 
CPU  0 inst:  450000001 cyc:  321862604 now IPC :1.42533: AVG IPC :1.39622: L2-Pf-HR :0.94304: L2-HR :0.81202: (Sim:0h58m55s) 
CPU  0 inst:  451000000 cyc:  322559491 now IPC :1.43495: AVG IPC :1.39631: L2-Pf-HR :0.94306: L2-HR :0.81204: (Sim:0h59m9s) 
CPU  0 inst:  452000002 cyc:  323341858 now IPC :1.27818: AVG IPC :1.39602: L2-Pf-HR :0.94303: L2-HR :0.81202: (Sim:0h59m24s) 
CPU  0 inst:  453000003 cyc:  324049710 now IPC :1.41273: AVG IPC :1.39606: L2-Pf-HR :0.94304: L2-HR :0.81203: (Sim:0h59m38s) 
CPU  0 inst:  454000000 cyc:  324757247 now IPC :1.41335: AVG IPC :1.39609: L2-Pf-HR :0.94306: L2-HR :0.81205: (Sim:0h59m52s) 
CPU  0 inst:  455000005 cyc:  325465092 now IPC :1.41275: AVG IPC :1.39613: L2-Pf-HR :0.94308: L2-HR :0.81206: (Sim:1h0m2s) 
CPU  0 inst:  456000000 cyc:  326171278 now IPC :1.41605: AVG IPC :1.39617: L2-Pf-HR :0.94311: L2-HR :0.81208: (Sim:1h0m13s) 
CPU  0 inst:  457000001 cyc:  326878639 now IPC :1.41371: AVG IPC :1.39621: L2-Pf-HR :0.94312: L2-HR :0.81209: (Sim:1h0m28s) 
CPU  0 inst:  458000003 cyc:  327626017 now IPC :1.33801: AVG IPC :1.39608: L2-Pf-HR :0.94314: L2-HR :0.81211: (Sim:1h0m42s) 
CPU  0 inst:  459000001 cyc:  328334753 now IPC :1.41096: AVG IPC :1.39611: L2-Pf-HR :0.94316: L2-HR :0.81213: (Sim:1h0m57s) 
CPU  0 inst:  460000003 cyc:  329043965 now IPC :1.41002: AVG IPC :1.39614: L2-Pf-HR :0.94318: L2-HR :0.81214: (Sim:1h1m11s) 
CPU  0 inst:  461000000 cyc:  329751617 now IPC :1.41312: AVG IPC :1.39618: L2-Pf-HR :0.94320: L2-HR :0.81216: (Sim:1h1m25s) 
CPU  0 inst:  462000004 cyc:  330459890 now IPC :1.41189: AVG IPC :1.39621: L2-Pf-HR :0.94322: L2-HR :0.81218: (Sim:1h1m36s) 
CPU  0 inst:  463000004 cyc:  331162852 now IPC :1.42255: AVG IPC :1.39627: L2-Pf-HR :0.94324: L2-HR :0.81220: (Sim:1h1m49s) 
CPU  0 inst:  464000000 cyc:  331943998 now IPC :1.28017: AVG IPC :1.39599: L2-Pf-HR :0.94320: L2-HR :0.81217: (Sim:1h2m4s) 
CPU  0 inst:  465000002 cyc:  332651462 now IPC :1.41350: AVG IPC :1.39603: L2-Pf-HR :0.94321: L2-HR :0.81219: (Sim:1h2m18s) 
CPU  0 inst:  466000001 cyc:  333358261 now IPC :1.41483: AVG IPC :1.39607: L2-Pf-HR :0.94323: L2-HR :0.81221: (Sim:1h2m31s) 
CPU  0 inst:  467000004 cyc:  334065057 now IPC :1.41484: AVG IPC :1.39611: L2-Pf-HR :0.94325: L2-HR :0.81223: (Sim:1h2m45s) 
CPU  0 inst:  468000002 cyc:  334770137 now IPC :1.41828: AVG IPC :1.39616: L2-Pf-HR :0.94327: L2-HR :0.81225: (Sim:1h2m58s) 
CPU  0 inst:  469000002 cyc:  335476098 now IPC :1.41651: AVG IPC :1.39620: L2-Pf-HR :0.94329: L2-HR :0.81226: (Sim:1h3m12s) 
CPU  0 inst:  470000002 cyc:  336223229 now IPC :1.33845: AVG IPC :1.39607: L2-Pf-HR :0.94331: L2-HR :0.81227: (Sim:1h3m25s) 
CPU  0 inst:  471000005 cyc:  336931997 now IPC :1.41090: AVG IPC :1.39610: L2-Pf-HR :0.94333: L2-HR :0.81229: (Sim:1h3m35s) 
CPU  0 inst:  472000000 cyc:  337642441 now IPC :1.40756: AVG IPC :1.39613: L2-Pf-HR :0.94334: L2-HR :0.81231: (Sim:1h3m47s) 
CPU  0 inst:  473000000 cyc:  338351062 now IPC :1.41119: AVG IPC :1.39616: L2-Pf-HR :0.94337: L2-HR :0.81233: (Sim:1h4m2s) 
CPU  0 inst:  474000003 cyc:  339058435 now IPC :1.41369: AVG IPC :1.39619: L2-Pf-HR :0.94339: L2-HR :0.81234: (Sim:1h4m15s) 
CPU  0 inst:  475000002 cyc:  339764781 now IPC :1.41574: AVG IPC :1.39624: L2-Pf-HR :0.94341: L2-HR :0.81236: (Sim:1h4m27s) 
CPU  0 inst:  476000003 cyc:  340553623 now IPC :1.26768: AVG IPC :1.39594: L2-Pf-HR :0.94337: L2-HR :0.81234: (Sim:1h4m42s) 
CPU  0 inst:  477000003 cyc:  341262156 now IPC :1.41137: AVG IPC :1.39597: L2-Pf-HR :0.94339: L2-HR :0.81235: (Sim:1h4m56s) 
CPU  0 inst:  478000000 cyc:  341968803 now IPC :1.41513: AVG IPC :1.39601: L2-Pf-HR :0.94341: L2-HR :0.81238: (Sim:1h5m10s) 
CPU  0 inst:  479000001 cyc:  342676173 now IPC :1.41369: AVG IPC :1.39605: L2-Pf-HR :0.94343: L2-HR :0.81239: (Sim:1h5m24s) 
CPU  0 inst:  480000000 cyc:  343382224 now IPC :1.41633: AVG IPC :1.39609: L2-Pf-HR :0.94345: L2-HR :0.81241: (Sim:1h5m38s) 
CPU  0 inst:  481000001 cyc:  344089145 now IPC :1.41459: AVG IPC :1.39613: L2-Pf-HR :0.94347: L2-HR :0.81242: (Sim:1h5m52s) 
CPU  0 inst:  482000001 cyc:  344836788 now IPC :1.33754: AVG IPC :1.39600: L2-Pf-HR :0.94348: L2-HR :0.81243: (Sim:1h6m3s) 
CPU  0 inst:  483000004 cyc:  345542403 now IPC :1.41721: AVG IPC :1.39604: L2-Pf-HR :0.94350: L2-HR :0.81244: (Sim:1h6m18s) 
CPU  0 inst:  484000002 cyc:  346250363 now IPC :1.41251: AVG IPC :1.39607: L2-Pf-HR :0.94352: L2-HR :0.81245: (Sim:1h6m32s) 
CPU  0 inst:  485000005 cyc:  346956442 now IPC :1.41628: AVG IPC :1.39612: L2-Pf-HR :0.94354: L2-HR :0.81247: (Sim:1h6m46s) 
CPU  0 inst:  486000005 cyc:  347661809 now IPC :1.41770: AVG IPC :1.39616: L2-Pf-HR :0.94356: L2-HR :0.81249: (Sim:1h7m1s) 
CPU  0 inst:  487000005 cyc:  348368282 now IPC :1.41548: AVG IPC :1.39620: L2-Pf-HR :0.94358: L2-HR :0.81251: (Sim:1h7m15s) 
CPU  0 inst:  488000000 cyc:  349107157 now IPC :1.35340: AVG IPC :1.39611: L2-Pf-HR :0.94354: L2-HR :0.81247: (Sim:1h7m29s) 
CPU  0 inst:  489000001 cyc:  349828300 now IPC :1.38669: AVG IPC :1.39609: L2-Pf-HR :0.94338: L2-HR :0.81231: (Sim:1h7m43s) 
CPU  0 inst:  490000003 cyc:  350548581 now IPC :1.38835: AVG IPC :1.39607: L2-Pf-HR :0.94322: L2-HR :0.81216: (Sim:1h7m56s) 
CPU  0 inst:  491000001 cyc:  351254846 now IPC :1.41590: AVG IPC :1.39611: L2-Pf-HR :0.94306: L2-HR :0.81200: (Sim:1h8m10s) 
CPU  0 inst:  492000002 cyc:  352062504 now IPC :1.23815: AVG IPC :1.39575: L2-Pf-HR :0.94283: L2-HR :0.81178: (Sim:1h8m24s) 
CPU  0 inst:  493000004 cyc:  352762010 now IPC :1.42958: AVG IPC :1.39582: L2-Pf-HR :0.94283: L2-HR :0.81178: (Sim:1h8m39s) 
CPU  0 inst:  494000005 cyc:  353461066 now IPC :1.43050: AVG IPC :1.39589: L2-Pf-HR :0.94283: L2-HR :0.81178: (Sim:1h8m53s) 
CPU  0 inst:  495000003 cyc:  354162334 now IPC :1.42599: AVG IPC :1.39595: L2-Pf-HR :0.94283: L2-HR :0.81178: (Sim:1h9m7s) 
CPU  0 inst:  496000000 cyc:  354862250 now IPC :1.42874: AVG IPC :1.39601: L2-Pf-HR :0.94283: L2-HR :0.81178: (Sim:1h9m22s) 
CPU  0 inst:  497000004 cyc:  355565443 now IPC :1.42209: AVG IPC :1.39606: L2-Pf-HR :0.94284: L2-HR :0.81178: (Sim:1h9m34s) 
CPU  0 inst:  498000000 cyc:  356314581 now IPC :1.33486: AVG IPC :1.39593: L2-Pf-HR :0.94284: L2-HR :0.81178: (Sim:1h9m48s) 
CPU  0 inst:  499000000 cyc:  357036050 now IPC :1.38606: AVG IPC :1.39591: L2-Pf-HR :0.94283: L2-HR :0.81178: (Sim:1h10m2s) 
CPU  0 inst:  500000005 cyc:  357755882 now IPC :1.38922: AVG IPC :1.39590: L2-Pf-HR :0.94283: L2-HR :0.81179: (Sim:1h10m17s) 
CPU  0 inst:  501000002 cyc:  358478741 now IPC :1.38339: AVG IPC :1.39587: L2-Pf-HR :0.94283: L2-HR :0.81179: (Sim:1h10m30s) 
CPU  0 inst:  502000004 cyc:  359204253 now IPC :1.37834: AVG IPC :1.39584: L2-Pf-HR :0.94283: L2-HR :0.81180: (Sim:1h10m43s) 
CPU  0 inst:  503000002 cyc:  359930074 now IPC :1.37775: AVG IPC :1.39580: L2-Pf-HR :0.94283: L2-HR :0.81179: (Sim:1h10m55s) 
CPU  0 inst:  504000000 cyc:  360727278 now IPC :1.25438: AVG IPC :1.39549: L2-Pf-HR :0.94278: L2-HR :0.81177: (Sim:1h11m9s) 
CPU  0 inst:  505000000 cyc:  361441601 now IPC :1.39993: AVG IPC :1.39550: L2-Pf-HR :0.94279: L2-HR :0.81178: (Sim:1h11m22s) 
CPU  0 inst:  506000005 cyc:  362152197 now IPC :1.40728: AVG IPC :1.39552: L2-Pf-HR :0.94281: L2-HR :0.81180: (Sim:1h11m36s) 
CPU  0 inst:  507000002 cyc:  362860205 now IPC :1.41241: AVG IPC :1.39555: L2-Pf-HR :0.94283: L2-HR :0.81182: (Sim:1h11m49s) 
CPU  0 inst:  508000001 cyc:  363568213 now IPC :1.41241: AVG IPC :1.39559: L2-Pf-HR :0.94285: L2-HR :0.81184: (Sim:1h12m0s) 
CPU  0 inst:  509000002 cyc:  364273764 now IPC :1.41733: AVG IPC :1.39563: L2-Pf-HR :0.94287: L2-HR :0.81185: (Sim:1h12m12s) 
CPU  0 inst:  510000001 cyc:  365015437 now IPC :1.34830: AVG IPC :1.39553: L2-Pf-HR :0.94289: L2-HR :0.81186: (Sim:1h12m25s) 
CPU  0 inst:  511000000 cyc:  365710639 now IPC :1.43843: AVG IPC :1.39561: L2-Pf-HR :0.94290: L2-HR :0.81187: (Sim:1h12m37s) 
CPU  0 inst:  512000000 cyc:  366403215 now IPC :1.44388: AVG IPC :1.39571: L2-Pf-HR :0.94292: L2-HR :0.81189: (Sim:1h12m51s) 
CPU  0 inst:  513000000 cyc:  367096929 now IPC :1.44152: AVG IPC :1.39579: L2-Pf-HR :0.94294: L2-HR :0.81191: (Sim:1h13m5s) 
CPU  0 inst:  514000003 cyc:  367788408 now IPC :1.44618: AVG IPC :1.39589: L2-Pf-HR :0.94296: L2-HR :0.81192: (Sim:1h13m19s) 
CPU  0 inst:  515000005 cyc:  368480124 now IPC :1.44568: AVG IPC :1.39598: L2-Pf-HR :0.94298: L2-HR :0.81193: (Sim:1h13m33s) 
CPU  0 inst:  516000001 cyc:  369254728 now IPC :1.29098: AVG IPC :1.39576: L2-Pf-HR :0.94294: L2-HR :0.81191: (Sim:1h13m48s) 
CPU  0 inst:  517000003 cyc:  369948648 now IPC :1.44109: AVG IPC :1.39585: L2-Pf-HR :0.94296: L2-HR :0.81193: (Sim:1h14m2s) 
CPU  0 inst:  518000001 cyc:  370641684 now IPC :1.44292: AVG IPC :1.39593: L2-Pf-HR :0.94298: L2-HR :0.81195: (Sim:1h14m16s) 
CPU  0 inst:  519000001 cyc:  371334761 now IPC :1.44284: AVG IPC :1.39602: L2-Pf-HR :0.94300: L2-HR :0.81197: (Sim:1h14m30s) 
CPU  0 inst:  520000000 cyc:  372029149 now IPC :1.44012: AVG IPC :1.39610: L2-Pf-HR :0.94302: L2-HR :0.81199: (Sim:1h14m43s) 
CPU  0 inst:  521000004 cyc:  372722441 now IPC :1.44240: AVG IPC :1.39619: L2-Pf-HR :0.94304: L2-HR :0.81200: (Sim:1h14m56s) 
CPU  0 inst:  522000003 cyc:  373459465 now IPC :1.35681: AVG IPC :1.39611: L2-Pf-HR :0.94306: L2-HR :0.81201: (Sim:1h15m11s) 
CPU  0 inst:  523000002 cyc:  374165612 now IPC :1.41613: AVG IPC :1.39615: L2-Pf-HR :0.94307: L2-HR :0.81203: (Sim:1h15m25s) 
CPU  0 inst:  524000005 cyc:  374871028 now IPC :1.41761: AVG IPC :1.39619: L2-Pf-HR :0.94309: L2-HR :0.81205: (Sim:1h15m39s) 
CPU  0 inst:  525000005 cyc:  375578197 now IPC :1.41409: AVG IPC :1.39622: L2-Pf-HR :0.94311: L2-HR :0.81207: (Sim:1h15m52s) 
CPU  0 inst:  526000005 cyc:  376281198 now IPC :1.42247: AVG IPC :1.39627: L2-Pf-HR :0.94313: L2-HR :0.81208: (Sim:1h16m6s) 
CPU  0 inst:  527000005 cyc:  376987153 now IPC :1.41652: AVG IPC :1.39631: L2-Pf-HR :0.94315: L2-HR :0.81209: (Sim:1h16m18s) 
CPU  0 inst:  528000000 cyc:  377770815 now IPC :1.27605: AVG IPC :1.39606: L2-Pf-HR :0.94311: L2-HR :0.81207: (Sim:1h16m33s) 
CPU  0 inst:  529000003 cyc:  378468193 now IPC :1.43395: AVG IPC :1.39613: L2-Pf-HR :0.94312: L2-HR :0.81208: (Sim:1h16m46s) 
CPU  0 inst:  530000000 cyc:  379166653 now IPC :1.43172: AVG IPC :1.39620: L2-Pf-HR :0.94314: L2-HR :0.81210: (Sim:1h17m0s) 
CPU  0 inst:  531000000 cyc:  379862538 now IPC :1.43702: AVG IPC :1.39627: L2-Pf-HR :0.94316: L2-HR :0.81212: (Sim:1h17m13s) 
CPU  0 inst:  532000003 cyc:  380558884 now IPC :1.43607: AVG IPC :1.39635: L2-Pf-HR :0.94318: L2-HR :0.81213: (Sim:1h17m26s) 
CPU  0 inst:  533000004 cyc:  381256432 now IPC :1.43359: AVG IPC :1.39641: L2-Pf-HR :0.94319: L2-HR :0.81214: (Sim:1h17m40s) 
CPU  0 inst:  534000002 cyc:  381992814 now IPC :1.35799: AVG IPC :1.39634: L2-Pf-HR :0.94321: L2-HR :0.81215: (Sim:1h17m54s) 
CPU  0 inst:  535000001 cyc:  382696977 now IPC :1.42012: AVG IPC :1.39638: L2-Pf-HR :0.94322: L2-HR :0.81216: (Sim:1h18m8s) 
CPU  0 inst:  536000000 cyc:  383398958 now IPC :1.42454: AVG IPC :1.39644: L2-Pf-HR :0.94324: L2-HR :0.81218: (Sim:1h18m22s) 
CPU  0 inst:  537000003 cyc:  384102248 now IPC :1.42189: AVG IPC :1.39648: L2-Pf-HR :0.94326: L2-HR :0.81220: (Sim:1h18m35s) 
CPU  0 inst:  538000001 cyc:  384803684 now IPC :1.42564: AVG IPC :1.39654: L2-Pf-HR :0.94328: L2-HR :0.81221: (Sim:1h18m48s) 
CPU  0 inst:  539000000 cyc:  385506356 now IPC :1.42314: AVG IPC :1.39658: L2-Pf-HR :0.94330: L2-HR :0.81222: (Sim:1h19m2s) 
CPU  0 inst:  540000002 cyc:  386292908 now IPC :1.27137: AVG IPC :1.39633: L2-Pf-HR :0.94326: L2-HR :0.81221: (Sim:1h19m16s) 
CPU  0 inst:  541000002 cyc:  386993072 now IPC :1.42824: AVG IPC :1.39639: L2-Pf-HR :0.94328: L2-HR :0.81222: (Sim:1h19m29s) 
CPU  0 inst:  542000002 cyc:  387693659 now IPC :1.42737: AVG IPC :1.39644: L2-Pf-HR :0.94329: L2-HR :0.81224: (Sim:1h19m41s) 
CPU  0 inst:  543000002 cyc:  388394462 now IPC :1.42693: AVG IPC :1.39650: L2-Pf-HR :0.94331: L2-HR :0.81225: (Sim:1h19m55s) 
CPU  0 inst:  544000000 cyc:  389094914 now IPC :1.42765: AVG IPC :1.39655: L2-Pf-HR :0.94333: L2-HR :0.81226: (Sim:1h20m8s) 
CPU  0 inst:  545000001 cyc:  389797385 now IPC :1.42355: AVG IPC :1.39660: L2-Pf-HR :0.94334: L2-HR :0.81227: (Sim:1h20m22s) 
CPU  0 inst:  546000000 cyc:  390537162 now IPC :1.35176: AVG IPC :1.39652: L2-Pf-HR :0.94336: L2-HR :0.81228: (Sim:1h20m34s) 
CPU  0 inst:  547000000 cyc:  391242608 now IPC :1.41754: AVG IPC :1.39656: L2-Pf-HR :0.94337: L2-HR :0.81229: (Sim:1h20m48s) 
CPU  0 inst:  548000000 cyc:  391945761 now IPC :1.42217: AVG IPC :1.39660: L2-Pf-HR :0.94338: L2-HR :0.81230: (Sim:1h21m2s) 
CPU  0 inst:  549000000 cyc:  392651029 now IPC :1.41790: AVG IPC :1.39664: L2-Pf-HR :0.94340: L2-HR :0.81232: (Sim:1h21m16s) 
CPU  0 inst:  550000002 cyc:  393354173 now IPC :1.42219: AVG IPC :1.39669: L2-Pf-HR :0.94342: L2-HR :0.81233: (Sim:1h21m30s) 
CPU  0 inst:  551000005 cyc:  394056857 now IPC :1.42312: AVG IPC :1.39673: L2-Pf-HR :0.94343: L2-HR :0.81234: (Sim:1h21m44s) 
CPU  0 inst:  552000000 cyc:  394792383 now IPC :1.35956: AVG IPC :1.39666: L2-Pf-HR :0.94342: L2-HR :0.81233: (Sim:1h21m59s) 
CPU  0 inst:  553000003 cyc:  395517404 now IPC :1.37927: AVG IPC :1.39663: L2-Pf-HR :0.94328: L2-HR :0.81219: (Sim:1h22m13s) 
CPU  0 inst:  554000002 cyc:  396235226 now IPC :1.39310: AVG IPC :1.39662: L2-Pf-HR :0.94314: L2-HR :0.81205: (Sim:1h22m24s) 
CPU  0 inst:  555000003 cyc:  396917964 now IPC :1.46469: AVG IPC :1.39674: L2-Pf-HR :0.94300: L2-HR :0.81192: (Sim:1h22m36s) 
CPU  0 inst:  556000000 cyc:  397704431 now IPC :1.27151: AVG IPC :1.39649: L2-Pf-HR :0.94277: L2-HR :0.81171: (Sim:1h22m49s) 
CPU  0 inst:  557000001 cyc:  398420001 now IPC :1.39749: AVG IPC :1.39650: L2-Pf-HR :0.94277: L2-HR :0.81171: (Sim:1h23m3s) 
CPU  0 inst:  558000005 cyc:  399138064 now IPC :1.39264: AVG IPC :1.39649: L2-Pf-HR :0.94277: L2-HR :0.81172: (Sim:1h23m18s) 
CPU  0 inst:  559000002 cyc:  399855843 now IPC :1.39318: AVG IPC :1.39648: L2-Pf-HR :0.94277: L2-HR :0.81172: (Sim:1h23m32s) 
CPU  0 inst:  560000000 cyc:  400573317 now IPC :1.39378: AVG IPC :1.39648: L2-Pf-HR :0.94277: L2-HR :0.81172: (Sim:1h23m45s) 
CPU  0 inst:  561000002 cyc:  401292439 now IPC :1.39059: AVG IPC :1.39647: L2-Pf-HR :0.94277: L2-HR :0.81172: (Sim:1h23m55s) 
CPU  0 inst:  562000002 cyc:  402049920 now IPC :1.32017: AVG IPC :1.39632: L2-Pf-HR :0.94277: L2-HR :0.81172: (Sim:1h24m5s) 
CPU  0 inst:  563000001 cyc:  402767313 now IPC :1.39393: AVG IPC :1.39632: L2-Pf-HR :0.94277: L2-HR :0.81172: (Sim:1h24m15s) 
CPU  0 inst:  564000001 cyc:  403487171 now IPC :1.38916: AVG IPC :1.39631: L2-Pf-HR :0.94277: L2-HR :0.81173: (Sim:1h24m29s) 
CPU  0 inst:  565000003 cyc:  404207344 now IPC :1.38856: AVG IPC :1.39629: L2-Pf-HR :0.94277: L2-HR :0.81173: (Sim:1h24m41s) 
CPU  0 inst:  566000000 cyc:  404924801 now IPC :1.39381: AVG IPC :1.39629: L2-Pf-HR :0.94277: L2-HR :0.81173: (Sim:1h24m54s) 
CPU  0 inst:  567000002 cyc:  405650009 now IPC :1.37892: AVG IPC :1.39626: L2-Pf-HR :0.94276: L2-HR :0.81172: (Sim:1h25m8s) 
CPU  0 inst:  568000000 cyc:  406405231 now IPC :1.32411: AVG IPC :1.39612: L2-Pf-HR :0.94273: L2-HR :0.81171: (Sim:1h25m23s) 
CPU  0 inst:  569000003 cyc:  407165581 now IPC :1.31519: AVG IPC :1.39597: L2-Pf-HR :0.94273: L2-HR :0.81171: (Sim:1h25m37s) 
CPU  0 inst:  570000000 cyc:  407875716 now IPC :1.40818: AVG IPC :1.39599: L2-Pf-HR :0.94275: L2-HR :0.81173: (Sim:1h25m49s) 
CPU  0 inst:  571000003 cyc:  408587101 now IPC :1.40571: AVG IPC :1.39601: L2-Pf-HR :0.94276: L2-HR :0.81175: (Sim:1h26m2s) 
CPU  0 inst:  572000002 cyc:  409297384 now IPC :1.40789: AVG IPC :1.39603: L2-Pf-HR :0.94278: L2-HR :0.81177: (Sim:1h26m16s) 
CPU  0 inst:  573000005 cyc:  410008601 now IPC :1.40604: AVG IPC :1.39605: L2-Pf-HR :0.94280: L2-HR :0.81178: (Sim:1h26m29s) 
CPU  0 inst:  574000003 cyc:  410754634 now IPC :1.34042: AVG IPC :1.39595: L2-Pf-HR :0.94281: L2-HR :0.81179: (Sim:1h26m43s) 
CPU  0 inst:  575000000 cyc:  411447912 now IPC :1.44242: AVG IPC :1.39602: L2-Pf-HR :0.94283: L2-HR :0.81181: (Sim:1h26m57s) 
CPU  0 inst:  576000000 cyc:  412140606 now IPC :1.44364: AVG IPC :1.39610: L2-Pf-HR :0.94284: L2-HR :0.81182: (Sim:1h27m11s) 
CPU  0 inst:  577000003 cyc:  412831944 now IPC :1.44647: AVG IPC :1.39619: L2-Pf-HR :0.94286: L2-HR :0.81184: (Sim:1h27m25s) 
CPU  0 inst:  578000000 cyc:  413523432 now IPC :1.44615: AVG IPC :1.39627: L2-Pf-HR :0.94287: L2-HR :0.81185: (Sim:1h27m40s) 
CPU  0 inst:  579000001 cyc:  414214634 now IPC :1.44676: AVG IPC :1.39636: L2-Pf-HR :0.94289: L2-HR :0.81187: (Sim:1h27m53s) 
CPU  0 inst:  580000002 cyc:  414950158 now IPC :1.35958: AVG IPC :1.39629: L2-Pf-HR :0.94287: L2-HR :0.81186: (Sim:1h28m8s) 
CPU  0 inst:  581000002 cyc:  415696506 now IPC :1.33986: AVG IPC :1.39619: L2-Pf-HR :0.94287: L2-HR :0.81186: (Sim:1h28m22s) 
CPU  0 inst:  582000002 cyc:  416402250 now IPC :1.41694: AVG IPC :1.39623: L2-Pf-HR :0.94289: L2-HR :0.81187: (Sim:1h28m36s) 
CPU  0 inst:  583000002 cyc:  417109413 now IPC :1.41410: AVG IPC :1.39626: L2-Pf-HR :0.94290: L2-HR :0.81189: (Sim:1h28m50s) 
CPU  0 inst:  584000000 cyc:  417815919 now IPC :1.41541: AVG IPC :1.39629: L2-Pf-HR :0.94292: L2-HR :0.81190: (Sim:1h29m4s) 
CPU  0 inst:  585000001 cyc:  418523025 now IPC :1.41422: AVG IPC :1.39632: L2-Pf-HR :0.94293: L2-HR :0.81191: (Sim:1h29m18s) 
CPU  0 inst:  586000000 cyc:  419270122 now IPC :1.33851: AVG IPC :1.39622: L2-Pf-HR :0.94295: L2-HR :0.81193: (Sim:1h29m32s) 
CPU  0 inst:  587000000 cyc:  419977500 now IPC :1.41367: AVG IPC :1.39625: L2-Pf-HR :0.94297: L2-HR :0.81194: (Sim:1h29m45s) 
CPU  0 inst:  588000000 cyc:  420684461 now IPC :1.41451: AVG IPC :1.39628: L2-Pf-HR :0.94298: L2-HR :0.81196: (Sim:1h29m57s) 
CPU  0 inst:  589000000 cyc:  421392210 now IPC :1.41293: AVG IPC :1.39630: L2-Pf-HR :0.94300: L2-HR :0.81198: (Sim:1h30m7s) 
CPU  0 inst:  590000002 cyc:  422098533 now IPC :1.41579: AVG IPC :1.39634: L2-Pf-HR :0.94302: L2-HR :0.81199: (Sim:1h30m18s) 
CPU  0 inst:  591000000 cyc:  422806304 now IPC :1.41288: AVG IPC :1.39636: L2-Pf-HR :0.94303: L2-HR :0.81200: (Sim:1h30m32s) 
CPU  0 inst:  592000000 cyc:  423556350 now IPC :1.33325: AVG IPC :1.39625: L2-Pf-HR :0.94301: L2-HR :0.81199: (Sim:1h30m46s) 
CPU  0 inst:  593000004 cyc:  424289749 now IPC :1.36352: AVG IPC :1.39620: L2-Pf-HR :0.94302: L2-HR :0.81200: (Sim:1h31m0s) 
CPU  0 inst:  594000005 cyc:  424989048 now IPC :1.43000: AVG IPC :1.39625: L2-Pf-HR :0.94303: L2-HR :0.81201: (Sim:1h31m14s) 
CPU  0 inst:  595000003 cyc:  425688874 now IPC :1.42892: AVG IPC :1.39631: L2-Pf-HR :0.94304: L2-HR :0.81202: (Sim:1h31m27s) 
CPU  0 inst:  596000004 cyc:  426388482 now IPC :1.42937: AVG IPC :1.39636: L2-Pf-HR :0.94306: L2-HR :0.81204: (Sim:1h31m41s) 
CPU  0 inst:  597000004 cyc:  427086200 now IPC :1.43324: AVG IPC :1.39642: L2-Pf-HR :0.94307: L2-HR :0.81205: (Sim:1h31m55s) 
CPU  0 inst:  598000002 cyc:  427825420 now IPC :1.35277: AVG IPC :1.39634: L2-Pf-HR :0.94309: L2-HR :0.81206: (Sim:1h32m9s) 
xz: 770-tot_memTraces_v5/120-subBillion_s2048_LLM_Arch/memTraces[1319000000]_FE_[Pythia-70M]_[h8]_[s2048]_[d64].champsim.9SSize.xz: Unexpected end of input
*** Reached end of trace for Core: 0 Repeating trace: 770-tot_memTraces_v5/120-subBillion_s2048_LLM_Arch/memTraces[1319000000]_FE_[Pythia-70M]_[h8]_[s2048]_[d64].champsim.9SSize.xz
CPU  0 inst:  599000002 cyc:  428865250 now IPC :0.96170: AVG IPC :1.39529: L2-Pf-HR :0.94297: L2-HR :0.81189: (Sim:1h32m23s) 
CPU  0 inst:  600000000 cyc:  429581226 now IPC :1.39669: AVG IPC :1.39529: L2-Pf-HR :0.94297: L2-HR :0.81190: (Sim:1h32m38s) 
CPU  0 inst:  601000001 cyc:  430299895 now IPC :1.39146: AVG IPC :1.39528: L2-Pf-HR :0.94297: L2-HR :0.81190: (Sim:1h32m52s) 
CPU  0 inst:  602000005 cyc:  431019278 now IPC :1.39009: AVG IPC :1.39528: L2-Pf-HR :0.94298: L2-HR :0.81191: (Sim:1h33m6s) 
CPU  0 inst:  603000002 cyc:  431737076 now IPC :1.39315: AVG IPC :1.39527: L2-Pf-HR :0.94298: L2-HR :0.81192: (Sim:1h33m20s) 
CPU  0 inst:  604000002 cyc:  432455055 now IPC :1.39280: AVG IPC :1.39527: L2-Pf-HR :0.94298: L2-HR :0.81192: (Sim:1h33m35s) 
CPU  0 inst:  605000001 cyc:  433206454 now IPC :1.33085: AVG IPC :1.39516: L2-Pf-HR :0.94298: L2-HR :0.81192: (Sim:1h33m49s) 
CPU  0 inst:  606000003 cyc:  433922308 now IPC :1.39694: AVG IPC :1.39516: L2-Pf-HR :0.94297: L2-HR :0.81191: (Sim:1h34m3s) 
CPU  0 inst:  607000000 cyc:  434644662 now IPC :1.38436: AVG IPC :1.39514: L2-Pf-HR :0.94297: L2-HR :0.81191: (Sim:1h34m17s) 
CPU  0 inst:  608000000 cyc:  435364568 now IPC :1.38907: AVG IPC :1.39513: L2-Pf-HR :0.94298: L2-HR :0.81192: (Sim:1h34m32s) 
CPU  0 inst:  609000005 cyc:  436079814 now IPC :1.39813: AVG IPC :1.39514: L2-Pf-HR :0.94298: L2-HR :0.81192: (Sim:1h34m46s) 
CPU  0 inst:  610000000 cyc:  436797952 now IPC :1.39248: AVG IPC :1.39513: L2-Pf-HR :0.94298: L2-HR :0.81192: (Sim:1h35m0s) 
CPU  0 inst:  611000005 cyc:  437592870 now IPC :1.25800: AVG IPC :1.39488: L2-Pf-HR :0.94292: L2-HR :0.81189: (Sim:1h35m15s) 
CPU  0 inst:  612000005 cyc:  438303074 now IPC :1.40805: AVG IPC :1.39490: L2-Pf-HR :0.94293: L2-HR :0.81190: (Sim:1h35m29s) 
CPU  0 inst:  613000003 cyc:  439009898 now IPC :1.41478: AVG IPC :1.39494: L2-Pf-HR :0.94295: L2-HR :0.81192: (Sim:1h35m43s) 
CPU  0 inst:  614000003 cyc:  439718073 now IPC :1.41208: AVG IPC :1.39496: L2-Pf-HR :0.94296: L2-HR :0.81193: (Sim:1h35m57s) 
CPU  0 inst:  615000002 cyc:  440424589 now IPC :1.41539: AVG IPC :1.39500: L2-Pf-HR :0.94298: L2-HR :0.81195: (Sim:1h36m10s) 
CPU  0 inst:  616000000 cyc:  441131579 now IPC :1.41444: AVG IPC :1.39503: L2-Pf-HR :0.94300: L2-HR :0.81196: (Sim:1h36m24s) 
CPU  0 inst:  617000003 cyc:  441877480 now IPC :1.34066: AVG IPC :1.39493: L2-Pf-HR :0.94301: L2-HR :0.81197: (Sim:1h36m37s) 
CPU  0 inst:  618000004 cyc:  442581637 now IPC :1.42014: AVG IPC :1.39498: L2-Pf-HR :0.94303: L2-HR :0.81199: (Sim:1h36m51s) 
CPU  0 inst:  619000003 cyc:  443288011 now IPC :1.41568: AVG IPC :1.39501: L2-Pf-HR :0.94304: L2-HR :0.81200: (Sim:1h37m5s) 
CPU  0 inst:  620000001 cyc:  443992684 now IPC :1.41910: AVG IPC :1.39505: L2-Pf-HR :0.94306: L2-HR :0.81202: (Sim:1h37m18s) 
CPU  0 inst:  621000003 cyc:  444699183 now IPC :1.41543: AVG IPC :1.39508: L2-Pf-HR :0.94308: L2-HR :0.81203: (Sim:1h37m32s) 
[...]
CPU  0 inst: 1195000003 cyc:  855990766 now IPC :1.42622: AVG IPC :1.39533: L2-Pf-HR :0.94305: L2-HR :0.81197: (Sim:3h30m48s) 
CPU  0 inst: 1196000001 cyc:  856688019 now IPC :1.43420: AVG IPC :1.39536: L2-Pf-HR :0.94306: L2-HR :0.81197: (Sim:3h30m55s) 
xz: 770-tot_memTraces_v5/120-subBillion_s2048_LLM_Arch/memTraces[1319000000]_FE_[Pythia-70M]_[h8]_[s2048]_[d64].champsim.9SSize.xz: Unexpected end of input
*** Reached end of trace for Core: 0 Repeating trace: 770-tot_memTraces_v5/120-subBillion_s2048_LLM_Arch/memTraces[1319000000]_FE_[Pythia-70M]_[h8]_[s2048]_[d64].champsim.9SSize.xz
CPU  0 inst: 1197000002 cyc:  857708989 now IPC :0.97946: AVG IPC :1.39487: L2-Pf-HR :0.94301: L2-HR :0.81189: (Sim:3h31m2s) 
CPU  0 inst: 1198000003 cyc:  858457400 now IPC :1.33617: AVG IPC :1.39482: L2-Pf-HR :0.94300: L2-HR :0.81189: (Sim:3h31m9s) 
CPU  0 inst: 1199000000 cyc:  859174832 now IPC :1.39386: AVG IPC :1.39482: L2-Pf-HR :0.94301: L2-HR :0.81189: (Sim:3h31m16s) 
CPU  0 inst: 1200000000 cyc:  859893683 now IPC :1.39111: AVG IPC :1.39481: L2-Pf-HR :0.94301: L2-HR :0.81189: (Sim:3h31m23s) 
CPU  0 inst: 1201000000 cyc:  860611066 now IPC :1.39396: AVG IPC :1.39481: L2-Pf-HR :0.94301: L2-HR :0.81190: (Sim:3h31m30s) 
CPU  0 inst: 1202000002 cyc:  861330149 now IPC :1.39066: AVG IPC :1.39481: L2-Pf-HR :0.94301: L2-HR :0.81190: (Sim:3h31m37s) 
CPU  0 inst: 1203000003 cyc:  862065900 now IPC :1.35916: AVG IPC :1.39478: L2-Pf-HR :0.94301: L2-HR :0.81190: (Sim:3h31m45s) 
CPU  0 inst: 1204000003 cyc:  862800213 now IPC :1.36182: AVG IPC :1.39475: L2-Pf-HR :0.94301: L2-HR :0.81190: (Sim:3h31m52s) 
CPU  0 inst: 1205000004 cyc:  863518663 now IPC :1.39189: AVG IPC :1.39475: L2-Pf-HR :0.94301: L2-HR :0.81190: (Sim:3h31m59s) 
CPU  0 inst: 1206000002 cyc:  864240062 now IPC :1.38619: AVG IPC :1.39474: L2-Pf-HR :0.94301: L2-HR :0.81190: (Sim:3h32m6s) 
CPU  0 inst: 1207000000 cyc:  864956035 now IPC :1.39670: AVG IPC :1.39474: L2-Pf-HR :0.94301: L2-HR :0.81190: (Sim:3h32m13s) 
CPU  0 inst: 1208000000 cyc:  865671904 now IPC :1.39690: AVG IPC :1.39474: L2-Pf-HR :0.94301: L2-HR :0.81190: (Sim:3h32m20s) 
CPU  0 inst: 1209000005 cyc:  866392692 now IPC :1.38738: AVG IPC :1.39474: L2-Pf-HR :0.94301: L2-HR :0.81189: (Sim:3h32m27s) 
CPU  0 inst: 1210000000 cyc:  867179844 now IPC :1.27040: AVG IPC :1.39462: L2-Pf-HR :0.94300: L2-HR :0.81189: (Sim:3h32m34s) 
CPU  0 inst: 1211000004 cyc:  867889009 now IPC :1.41011: AVG IPC :1.39464: L2-Pf-HR :0.94300: L2-HR :0.81189: (Sim:3h32m41s) 
CPU  0 inst: 1212000004 cyc:  868595803 now IPC :1.41484: AVG IPC :1.39465: L2-Pf-HR :0.94301: L2-HR :0.81190: (Sim:3h32m48s) 
CPU  0 inst: 1213000002 cyc:  869303515 now IPC :1.41300: AVG IPC :1.39467: L2-Pf-HR :0.94302: L2-HR :0.81191: (Sim:3h32m55s) 
CPU  0 inst: 1214000002 cyc:  870011262 now IPC :1.41293: AVG IPC :1.39468: L2-Pf-HR :0.94303: L2-HR :0.81191: (Sim:3h33m2s) 
CPU  0 inst: 1215000002 cyc:  870718020 now IPC :1.41491: AVG IPC :1.39470: L2-Pf-HR :0.94303: L2-HR :0.81192: (Sim:3h33m9s) 
CPU  0 inst: 1216000000 cyc:  871463343 now IPC :1.34170: AVG IPC :1.39465: L2-Pf-HR :0.94304: L2-HR :0.81192: (Sim:3h33m16s) 
CPU  0 inst: 1217000003 cyc:  872168264 now IPC :1.41860: AVG IPC :1.39467: L2-Pf-HR :0.94305: L2-HR :0.81193: (Sim:3h33m23s) 
CPU  0 inst: 1218000004 cyc:  872875234 now IPC :1.41449: AVG IPC :1.39469: L2-Pf-HR :0.94306: L2-HR :0.81194: (Sim:3h33m30s) 
CPU  0 inst: 1219000002 cyc:  873577776 now IPC :1.42340: AVG IPC :1.39471: L2-Pf-HR :0.94307: L2-HR :0.81195: (Sim:3h33m37s) 
CPU  0 inst: 1220000000 cyc:  874281878 now IPC :1.42025: AVG IPC :1.39473: L2-Pf-HR :0.94307: L2-HR :0.81196: (Sim:3h33m44s) 
CPU  0 inst: 1221000003 cyc:  874987773 now IPC :1.41665: AVG IPC :1.39475: L2-Pf-HR :0.94308: L2-HR :0.81196: (Sim:3h33m51s) 
CPU  0 inst: 1222000002 cyc:  875760738 now IPC :1.29372: AVG IPC :1.39466: L2-Pf-HR :0.94306: L2-HR :0.81195: (Sim:3h33m59s) 
CPU  0 inst: 1223000002 cyc:  876462260 now IPC :1.42547: AVG IPC :1.39469: L2-Pf-HR :0.94307: L2-HR :0.81196: (Sim:3h34m6s) 
CPU  0 inst: 1224000000 cyc:  877160418 now IPC :1.43234: AVG IPC :1.39472: L2-Pf-HR :0.94308: L2-HR :0.81197: (Sim:3h34m13s) 
CPU  0 inst: 1225000002 cyc:  877859734 now IPC :1.42997: AVG IPC :1.39474: L2-Pf-HR :0.94309: L2-HR :0.81198: (Sim:3h34m20s) 
CPU  0 inst: 1226000004 cyc:  878559740 now IPC :1.42856: AVG IPC :1.39477: L2-Pf-HR :0.94310: L2-HR :0.81199: (Sim:3h34m28s) 
CPU  0 inst: 1227000001 cyc:  879258907 now IPC :1.43027: AVG IPC :1.39480: L2-Pf-HR :0.94311: L2-HR :0.81199: (Sim:3h34m35s) 
CPU  0 inst: 1228000002 cyc:  879989984 now IPC :1.36785: AVG IPC :1.39478: L2-Pf-HR :0.94311: L2-HR :0.81200: (Sim:3h34m42s) 
CPU  0 inst: 1229000000 cyc:  880680983 now IPC :1.44718: AVG IPC :1.39482: L2-Pf-HR :0.94312: L2-HR :0.81200: (Sim:3h34m49s) 
CPU  0 inst: 1230000000 cyc:  881372517 now IPC :1.44606: AVG IPC :1.39486: L2-Pf-HR :0.94313: L2-HR :0.81201: (Sim:3h34m56s) 
CPU  0 inst: 1231000000 cyc:  882062151 now IPC :1.45004: AVG IPC :1.39490: L2-Pf-HR :0.94314: L2-HR :0.81201: (Sim:3h35m3s) 
CPU  0 inst: 1232000000 cyc:  882752333 now IPC :1.44889: AVG IPC :1.39494: L2-Pf-HR :0.94314: L2-HR :0.81202: (Sim:3h35m11s) 
CPU  0 inst: 1233000002 cyc:  883447273 now IPC :1.43898: AVG IPC :1.39498: L2-Pf-HR :0.94315: L2-HR :0.81202: (Sim:3h35m18s) 
CPU  0 inst: 1234000000 cyc:  884230862 now IPC :1.27618: AVG IPC :1.39487: L2-Pf-HR :0.94314: L2-HR :0.81202: (Sim:3h35m25s) 
CPU  0 inst: 1235000005 cyc:  884937048 now IPC :1.41606: AVG IPC :1.39489: L2-Pf-HR :0.94314: L2-HR :0.81202: (Sim:3h35m32s) 
CPU  0 inst: 1236000002 cyc:  885643062 now IPC :1.41640: AVG IPC :1.39491: L2-Pf-HR :0.94315: L2-HR :0.81203: (Sim:3h35m40s) 
CPU  0 inst: 1237000001 cyc:  886349373 now IPC :1.41581: AVG IPC :1.39492: L2-Pf-HR :0.94316: L2-HR :0.81204: (Sim:3h35m47s) 
CPU  0 inst: 1238000003 cyc:  887056549 now IPC :1.41408: AVG IPC :1.39494: L2-Pf-HR :0.94317: L2-HR :0.81204: (Sim:3h35m54s) 
CPU  0 inst: 1239000001 cyc:  887764907 now IPC :1.41171: AVG IPC :1.39495: L2-Pf-HR :0.94317: L2-HR :0.81205: (Sim:3h36m1s) 
CPU  0 inst: 1240000000 cyc:  888507522 now IPC :1.34659: AVG IPC :1.39491: L2-Pf-HR :0.94318: L2-HR :0.81205: (Sim:3h36m8s) 
CPU  0 inst: 1241000004 cyc:  889212983 now IPC :1.41752: AVG IPC :1.39493: L2-Pf-HR :0.94319: L2-HR :0.81206: (Sim:3h36m16s) 
CPU  0 inst: 1242000004 cyc:  889918915 now IPC :1.41657: AVG IPC :1.39495: L2-Pf-HR :0.94319: L2-HR :0.81207: (Sim:3h36m23s) 
CPU  0 inst: 1243000001 cyc:  890623521 now IPC :1.41923: AVG IPC :1.39497: L2-Pf-HR :0.94320: L2-HR :0.81208: (Sim:3h36m30s) 
CPU  0 inst: 1244000002 cyc:  891328315 now IPC :1.41886: AVG IPC :1.39499: L2-Pf-HR :0.94321: L2-HR :0.81208: (Sim:3h36m37s) 
CPU  0 inst: 1245000002 cyc:  892036287 now IPC :1.41249: AVG IPC :1.39500: L2-Pf-HR :0.94322: L2-HR :0.81209: (Sim:3h36m44s) 
CPU  0 inst: 1246000003 cyc:  892816145 now IPC :1.28229: AVG IPC :1.39490: L2-Pf-HR :0.94320: L2-HR :0.81208: (Sim:3h36m52s) 
CPU  0 inst: 1247000003 cyc:  893523855 now IPC :1.41301: AVG IPC :1.39492: L2-Pf-HR :0.94321: L2-HR :0.81208: (Sim:3h36m59s) 
CPU  0 inst: 1248000000 cyc:  894232339 now IPC :1.41146: AVG IPC :1.39493: L2-Pf-HR :0.94321: L2-HR :0.81209: (Sim:3h37m6s) 
CPU  0 inst: 1249000000 cyc:  894941047 now IPC :1.41102: AVG IPC :1.39494: L2-Pf-HR :0.94322: L2-HR :0.81210: (Sim:3h37m14s) 
CPU  0 inst: 1250000001 cyc:  895650606 now IPC :1.40933: AVG IPC :1.39495: L2-Pf-HR :0.94323: L2-HR :0.81210: (Sim:3h37m21s) 
CPU  0 inst: 1251000001 cyc:  896364450 now IPC :1.40087: AVG IPC :1.39496: L2-Pf-HR :0.94324: L2-HR :0.81211: (Sim:3h37m28s) 
CPU  0 inst: 1252000001 cyc:  897102018 now IPC :1.35581: AVG IPC :1.39493: L2-Pf-HR :0.94324: L2-HR :0.81211: (Sim:3h37m36s) 
CPU  0 inst: 1253000001 cyc:  897807050 now IPC :1.41838: AVG IPC :1.39494: L2-Pf-HR :0.94325: L2-HR :0.81212: (Sim:3h37m43s) 
CPU  0 inst: 1254000003 cyc:  898513553 now IPC :1.41542: AVG IPC :1.39496: L2-Pf-HR :0.94326: L2-HR :0.81212: (Sim:3h37m50s) 
CPU  0 inst: 1255000000 cyc:  899219790 now IPC :1.41595: AVG IPC :1.39498: L2-Pf-HR :0.94326: L2-HR :0.81213: (Sim:3h37m57s) 
CPU  0 inst: 1256000000 cyc:  899922118 now IPC :1.42384: AVG IPC :1.39500: L2-Pf-HR :0.94327: L2-HR :0.81214: (Sim:3h38m5s) 
CPU  0 inst: 1257000000 cyc:  900627050 now IPC :1.41858: AVG IPC :1.39502: L2-Pf-HR :0.94328: L2-HR :0.81214: (Sim:3h38m12s) 
CPU  0 inst: 1258000000 cyc:  901369039 now IPC :1.34773: AVG IPC :1.39498: L2-Pf-HR :0.94322: L2-HR :0.81209: (Sim:3h38m19s) 
CPU  0 inst: 1259000005 cyc:  902078191 now IPC :1.41014: AVG IPC :1.39499: L2-Pf-HR :0.94316: L2-HR :0.81203: (Sim:3h38m26s) 
CPU  0 inst: 1260000001 cyc:  902799521 now IPC :1.38632: AVG IPC :1.39498: L2-Pf-HR :0.94310: L2-HR :0.81197: (Sim:3h38m33s) 
CPU  0 inst: 1261000005 cyc:  903505064 now IPC :1.41735: AVG IPC :1.39500: L2-Pf-HR :0.94304: L2-HR :0.81191: (Sim:3h38m41s) 
CPU  0 inst: 1262000003 cyc:  904318846 now IPC :1.22883: AVG IPC :1.39485: L2-Pf-HR :0.94299: L2-HR :0.81186: (Sim:3h38m48s) 
CPU  0 inst: 1263000003 cyc:  905032326 now IPC :1.40158: AVG IPC :1.39486: L2-Pf-HR :0.94298: L2-HR :0.81186: (Sim:3h38m55s) 
CPU  0 inst: 1264000000 cyc:  905746867 now IPC :1.39950: AVG IPC :1.39486: L2-Pf-HR :0.94299: L2-HR :0.81186: (Sim:3h39m3s) 
CPU  0 inst: 1265000002 cyc:  906462456 now IPC :1.39745: AVG IPC :1.39486: L2-Pf-HR :0.94299: L2-HR :0.81186: (Sim:3h39m10s) 
CPU  0 inst: 1266000003 cyc:  907177914 now IPC :1.39771: AVG IPC :1.39486: L2-Pf-HR :0.94299: L2-HR :0.81186: (Sim:3h39m17s) 
CPU  0 inst: 1267000000 cyc:  907893018 now IPC :1.39839: AVG IPC :1.39487: L2-Pf-HR :0.94298: L2-HR :0.81186: (Sim:3h39m24s) 
CPU  0 inst: 1268000003 cyc:  908645452 now IPC :1.32902: AVG IPC :1.39481: L2-Pf-HR :0.94298: L2-HR :0.81186: (Sim:3h39m31s) 
CPU  0 inst: 1269000000 cyc:  909367664 now IPC :1.38463: AVG IPC :1.39480: L2-Pf-HR :0.94298: L2-HR :0.81186: (Sim:3h39m39s) 
CPU  0 inst: 1270000002 cyc:  910089444 now IPC :1.38547: AVG IPC :1.39480: L2-Pf-HR :0.94298: L2-HR :0.81186: (Sim:3h39m46s) 
CPU  0 inst: 1271000002 cyc:  910808611 now IPC :1.39050: AVG IPC :1.39479: L2-Pf-HR :0.94299: L2-HR :0.81186: (Sim:3h39m53s) 
CPU  0 inst: 1272000000 cyc:  911531770 now IPC :1.38282: AVG IPC :1.39478: L2-Pf-HR :0.94298: L2-HR :0.81186: (Sim:3h40m0s) 
CPU  0 inst: 1273000002 cyc:  912255461 now IPC :1.38181: AVG IPC :1.39477: L2-Pf-HR :0.94298: L2-HR :0.81185: (Sim:3h40m7s) 
CPU  0 inst: 1274000000 cyc:  913047723 now IPC :1.26221: AVG IPC :1.39466: L2-Pf-HR :0.94296: L2-HR :0.81185: (Sim:3h40m14s) 
CPU  0 inst: 1275000005 cyc:  913753112 now IPC :1.41766: AVG IPC :1.39468: L2-Pf-HR :0.94297: L2-HR :0.81186: (Sim:3h40m21s) 
CPU  0 inst: 1276000000 cyc:  914459516 now IPC :1.41561: AVG IPC :1.39469: L2-Pf-HR :0.94298: L2-HR :0.81186: (Sim:3h40m28s) 
CPU  0 inst: 1277000000 cyc:  915165573 now IPC :1.41632: AVG IPC :1.39471: L2-Pf-HR :0.94299: L2-HR :0.81187: (Sim:3h40m34s) 
CPU  0 inst: 1278000003 cyc:  915871989 now IPC :1.41560: AVG IPC :1.39473: L2-Pf-HR :0.94300: L2-HR :0.81188: (Sim:3h40m41s) 
CPU  0 inst: 1279000001 cyc:  916579760 now IPC :1.41288: AVG IPC :1.39474: L2-Pf-HR :0.94300: L2-HR :0.81188: (Sim:3h40m48s) 
CPU  0 inst: 1280000000 cyc:  917313204 now IPC :1.36343: AVG IPC :1.39471: L2-Pf-HR :0.94301: L2-HR :0.81189: (Sim:3h40m55s) 
CPU  0 inst: 1281000004 cyc:  918007685 now IPC :1.43993: AVG IPC :1.39475: L2-Pf-HR :0.94302: L2-HR :0.81189: (Sim:3h41m1s) 
CPU  0 inst: 1282000002 cyc:  918701502 now IPC :1.44130: AVG IPC :1.39478: L2-Pf-HR :0.94302: L2-HR :0.81190: (Sim:3h41m8s) 
CPU  0 inst: 1283000002 cyc:  919394521 now IPC :1.44296: AVG IPC :1.39482: L2-Pf-HR :0.94303: L2-HR :0.81191: (Sim:3h41m14s) 
CPU  0 inst: 1284000005 cyc:  920086719 now IPC :1.44468: AVG IPC :1.39486: L2-Pf-HR :0.94304: L2-HR :0.81191: (Sim:3h41m21s) 
CPU  0 inst: 1285000001 cyc:  920779058 now IPC :1.44437: AVG IPC :1.39490: L2-Pf-HR :0.94305: L2-HR :0.81192: (Sim:3h41m28s) 
CPU  0 inst: 1286000003 cyc:  921560359 now IPC :1.27992: AVG IPC :1.39480: L2-Pf-HR :0.94303: L2-HR :0.81191: (Sim:3h41m35s) 
CPU  0 inst: 1287000003 cyc:  922261588 now IPC :1.42607: AVG IPC :1.39482: L2-Pf-HR :0.94304: L2-HR :0.81192: (Sim:3h41m41s) 
CPU  0 inst: 1288000000 cyc:  922964222 now IPC :1.42321: AVG IPC :1.39484: L2-Pf-HR :0.94305: L2-HR :0.81192: (Sim:3h41m48s) 
CPU  0 inst: 1289000000 cyc:  923665576 now IPC :1.42581: AVG IPC :1.39487: L2-Pf-HR :0.94305: L2-HR :0.81193: (Sim:3h41m55s) 
CPU  0 inst: 1290000003 cyc:  924365894 now IPC :1.42793: AVG IPC :1.39489: L2-Pf-HR :0.94306: L2-HR :0.81194: (Sim:3h42m1s) 
CPU  0 inst: 1291000001 cyc:  925068035 now IPC :1.42421: AVG IPC :1.39491: L2-Pf-HR :0.94307: L2-HR :0.81195: (Sim:3h42m8s) 
CPU  0 inst: 1292000001 cyc:  925812017 now IPC :1.34412: AVG IPC :1.39487: L2-Pf-HR :0.94308: L2-HR :0.81195: (Sim:3h42m14s) 
CPU  0 inst: 1293000001 cyc:  926518006 now IPC :1.41645: AVG IPC :1.39489: L2-Pf-HR :0.94308: L2-HR :0.81196: (Sim:3h42m21s) 
CPU  0 inst: 1294000003 cyc:  927224196 now IPC :1.41605: AVG IPC :1.39491: L2-Pf-HR :0.94309: L2-HR :0.81197: (Sim:3h42m28s) 
CPU  0 inst: 1295000001 cyc:  927930598 now IPC :1.41562: AVG IPC :1.39492: L2-Pf-HR :0.94310: L2-HR :0.81197: (Sim:3h42m34s) 
CPU  0 inst: 1296000000 cyc:  928636755 now IPC :1.41611: AVG IPC :1.39494: L2-Pf-HR :0.94311: L2-HR :0.81198: (Sim:3h42m41s) 
CPU  0 inst: 1297000005 cyc:  929342087 now IPC :1.41778: AVG IPC :1.39495: L2-Pf-HR :0.94311: L2-HR :0.81199: (Sim:3h42m48s) 
CPU  0 inst: 1298000002 cyc:  930127331 now IPC :1.27349: AVG IPC :1.39485: L2-Pf-HR :0.94310: L2-HR :0.81198: (Sim:3h42m55s) 
CPU  0 inst: 1299000004 cyc:  930834405 now IPC :1.41428: AVG IPC :1.39487: L2-Pf-HR :0.94311: L2-HR :0.81199: (Sim:3h43m1s) 
CPU  0 inst: 1300000005 cyc:  931541676 now IPC :1.41389: AVG IPC :1.39488: L2-Pf-HR :0.94312: L2-HR :0.81199: (Sim:3h43m8s) 
CPU  0 inst: 1301000005 cyc:  932250078 now IPC :1.41163: AVG IPC :1.39489: L2-Pf-HR :0.94313: L2-HR :0.81200: (Sim:3h43m14s) 
CPU  0 inst: 1302000002 cyc:  932957279 now IPC :1.41402: AVG IPC :1.39491: L2-Pf-HR :0.94314: L2-HR :0.81201: (Sim:3h43m21s) 
CPU  0 inst: 1303000003 cyc:  933665280 now IPC :1.41243: AVG IPC :1.39492: L2-Pf-HR :0.94314: L2-HR :0.81202: (Sim:3h43m28s) 
CPU  0 inst: 1304000000 cyc:  934409339 now IPC :1.34398: AVG IPC :1.39488: L2-Pf-HR :0.94315: L2-HR :0.81202: (Sim:3h43m34s) 
CPU  0 inst: 1305000003 cyc:  935115240 now IPC :1.41663: AVG IPC :1.39490: L2-Pf-HR :0.94316: L2-HR :0.81203: (Sim:3h43m41s) 
CPU  0 inst: 1306000003 cyc:  935820648 now IPC :1.41762: AVG IPC :1.39491: L2-Pf-HR :0.94317: L2-HR :0.81203: (Sim:3h43m47s) 
CPU  0 inst: 1307000001 cyc:  936525551 now IPC :1.41863: AVG IPC :1.39493: L2-Pf-HR :0.94317: L2-HR :0.81204: (Sim:3h43m54s) 
CPU  0 inst: 1308000005 cyc:  937230777 now IPC :1.41799: AVG IPC :1.39495: L2-Pf-HR :0.94318: L2-HR :0.81204: (Sim:3h44m1s) 
CPU  0 inst: 1309000003 cyc:  937934557 now IPC :1.42090: AVG IPC :1.39497: L2-Pf-HR :0.94319: L2-HR :0.81205: (Sim:3h44m7s) 
CPU  0 inst: 1310000000 cyc:  938707123 now IPC :1.29438: AVG IPC :1.39489: L2-Pf-HR :0.94317: L2-HR :0.81204: (Sim:3h44m14s) 
CPU  0 inst: 1311000003 cyc:  939399936 now IPC :1.44340: AVG IPC :1.39492: L2-Pf-HR :0.94318: L2-HR :0.81205: (Sim:3h44m21s) 
CPU  0 inst: 1312000000 cyc:  940093648 now IPC :1.44152: AVG IPC :1.39496: L2-Pf-HR :0.94318: L2-HR :0.81206: (Sim:3h44m27s) 
CPU  0 inst: 1313000005 cyc:  940787626 now IPC :1.44098: AVG IPC :1.39499: L2-Pf-HR :0.94319: L2-HR :0.81206: (Sim:3h44m34s) 
CPU  0 inst: 1314000002 cyc:  941479740 now IPC :1.44484: AVG IPC :1.39503: L2-Pf-HR :0.94320: L2-HR :0.81207: (Sim:3h44m40s) 
CPU  0 inst: 1315000001 cyc:  942173466 now IPC :1.44149: AVG IPC :1.39506: L2-Pf-HR :0.94320: L2-HR :0.81208: (Sim:3h44m47s) 
CPU  0 inst: 1316000001 cyc:  942911824 now IPC :1.35436: AVG IPC :1.39503: L2-Pf-HR :0.94321: L2-HR :0.81208: (Sim:3h44m54s) 
Finished CPU 0 instr: 1314000002 cyc: 941915134 AVG IPC: 1.39503 (Sim time: 3h44m54s)

ChampSim completed all CPUs

[ROI Statistics]
Core_0_instructions 1314000002
Core_0_cycles 941915134
Core_0_IPC 1.39503

Core_0_branch_prediction_accuracy 99.93053
Core_0_branch_MPKI 0.00971
Core_0_average_ROB_occupancy_at_mispredict 448.07991

Core_0_L1D_total_access 296230668
Core_0_L1D_total_hit 270838456 L1D_total_Hit Ratio: 0.91428
Core_0_L1D_total_miss 25392212
Core_0_L1D_loads 261589804
Core_0_L1D_load_hit 252251996 L1D_load_Hit Ratio: 0.96430
Core_0_L1D_load_miss 9337808
Core_0_L1D_RFOs 11880909
Core_0_L1D_RFO_hit 11664264 L1D_RFO_Hit Ratio: 0.98177
Core_0_L1D_RFO_miss 216645
Core_0_L1D_prefetches 22759955
Core_0_L1D_prefetch_hit 6922196 L1D_prefetch_Hit Ratio: 0.30414
Core_0_L1D_prefetch_miss 15837759
Core_0_L1D_writebacks 0
Core_0_L1D_writeback_hit 0 L1D_writeback_Hit Ratio: -nan
Core_0_L1D_writeback_miss 0
Core_0_L1D_prefetch_requested 28522581
Core_0_L1D_prefetch_issued 26818066
Core_0_L1D_prefetch_useful 15787766 L1D_Useful Ratio: 0.58870
Core_0_L1D_prefetch_useless 76535
Core_0_L1D_prefetch_late 711627
Core_0_L1D_average_miss_latency 13178090.75373

Core_0_L1I_total_access 140413620
Core_0_L1I_total_hit 140398964 L1I_total_Hit Ratio: 0.99990
Core_0_L1I_total_miss 14656
Core_0_L1I_loads 140413620
Core_0_L1I_load_hit 140398964 L1I_load_Hit Ratio: 0.99990
Core_0_L1I_load_miss 14656
Core_0_L1I_RFOs 0
Core_0_L1I_RFO_hit 0 L1I_RFO_Hit Ratio: -nan
Core_0_L1I_RFO_miss 0
Core_0_L1I_prefetches 0
Core_0_L1I_prefetch_hit 0 L1I_prefetch_Hit Ratio: -nan
Core_0_L1I_prefetch_miss 0
Core_0_L1I_writebacks 0
Core_0_L1I_writeback_hit 0 L1I_writeback_Hit Ratio: -nan
Core_0_L1I_writeback_miss 0
Core_0_L1I_prefetch_requested 0
Core_0_L1I_prefetch_issued 0
Core_0_L1I_prefetch_useful 0 L1I_Useful Ratio: -nan
Core_0_L1I_prefetch_useless 0
Core_0_L1I_prefetch_late 0
Core_0_L1I_average_miss_latency 256.62677

Core_0_L2C_total_access 46939352
Core_0_L2C_total_hit 38118659 L2C_total_Hit Ratio: 0.81208
Core_0_L2C_total_miss 8820693
Core_0_L2C_loads 8642647
Core_0_L2C_load_hit 1562942 L2C_load_Hit Ratio: 0.18084
Core_0_L2C_load_miss 7079705
Core_0_L2C_RFOs 216553
Core_0_L2C_RFO_hit 215511 L2C_RFO_Hit Ratio: 0.99519
Core_0_L2C_RFO_miss 1042
Core_0_L2C_prefetches 30536280
Core_0_L2C_prefetch_hit 28802228 L2C_prefetch_Hit Ratio: 0.94321
Core_0_L2C_prefetch_miss 1734052
Core_0_L2C_writebacks 7543872
Core_0_L2C_writeback_hit 7537978 L2C_writeback_Hit Ratio: 0.99922
Core_0_L2C_writeback_miss 5894
Core_0_L2C_prefetch_requested 21021528
Core_0_L2C_prefetch_issued 18117789
Core_0_L2C_prefetch_useful 698129 L2C_Useful Ratio: 0.03853
Core_0_L2C_prefetch_useless 1043416
Core_0_L2C_prefetch_late 31361
Core_0_L2C_average_miss_latency 259.17496

Core_0_LLC_total_access 16211749
Core_0_LLC_total_hit 9597643 LLC_total_Hit Ratio: 0.59202
Core_0_LLC_total_miss 6614106
Core_0_LLC_loads 7048477
Core_0_LLC_load_hit 1737596 LLC_load_Hit Ratio: 0.24652
Core_0_LLC_load_miss 5310881
Core_0_LLC_RFOs 1041
Core_0_LLC_RFO_hit 287 LLC_RFO_Hit Ratio: 0.27570
Core_0_LLC_RFO_miss 754
Core_0_LLC_prefetches 1765278
Core_0_LLC_prefetch_hit 520463 LLC_prefetch_Hit Ratio: 0.29483
Core_0_LLC_prefetch_miss 1244815
Core_0_LLC_writebacks 7396953
Core_0_LLC_writeback_hit 7339297 LLC_writeback_Hit Ratio: 0.99221
Core_0_LLC_writeback_miss 57656
Core_0_LLC_prefetch_requested 0
Core_0_LLC_prefetch_issued 0
Core_0_LLC_prefetch_useful 147104 LLC_Useful Ratio: inf
Core_0_LLC_prefetch_useless 1099106
Core_0_LLC_prefetch_late 0
Core_0_LLC_average_miss_latency 279.38598

Core_0_major_page_fault 0
Core_0_minor_page_fault 21513

CPU 0 L1D berti prefetcher final stats
CPU 0 L2C berti prefetcher final stats
Channel_0_RQ_row_buffer_hit 4119703
Channel_0_RQ_row_buffer_miss 2436707
Channel_0_WQ_row_buffer_hit 1245395
Channel_0_WQ_row_buffer_miss 4333753
Channel_0_WQ_full 0
Channel_0_dbus_congested 2673377

avg_congested_cycle 8

EzSearch AVG IPC :1.39503: L2-Pf-HR :0.94321 : L2-HR :0.81208 Uful:0.03853
     > Finished combination: TraceType=770-tot Sim:1314000000 Prefetcher=L2berti_concurso L1=berti_concurso
