TRACE: [42000000]_FE_[OPT-350M]_[h16]_[s256]_[d64] Warmup: 2000000 NumTraces: 42000000
L1:bingo_dpc3:L2:bingo_dpc3
*************************************************
   ChampSim Multicore Out-of-Order Simulator
   Last compiled: Oct 31 2024 11:45:31
*************************************************

trace_0 770-tot_memTraces_v5/150-subBillion_s256_LLM_Arch/memTraces[42000000]_FE_[OPT-350M]_[h16]_[s256]_[d64].champsim.9.xz
Bingo PHT WAYS: 16 and PHT_SIZE: 16384
Bingo2 PHT WAYS: 16 and PHT_SIZE: 16384
MAIN.cc ln 751 stats print skipped
CPU  0 inst:    1000002 cyc:     506660 now IPC :1.97371: AVG IPC :1.97371: L2-Pf-HR :0.80521: L2-HR :0.67235: (Sim:0h0m14s) 
CPU  0 inst:    2000000 cyc:     999281 now IPC :2.02995: AVG IPC :2.00144: L2-Pf-HR :0.80202: L2-HR :0.74729: (Sim:0h0m29s) 

Warmup complete CPU  0 instructions:    2000002 cycles:     999282 (Simulation time: 0 hr 0 min 29 sec) 

CPU  0 inst:    3000005 cyc:    1586905 now IPC :1.70178: AVG IPC :1.70178: L2-Pf-HR :0.80521: L2-HR :0.81633: (Sim:0h0m41s) 
CPU  0 inst:    4000005 cyc:    2152732 now IPC :1.76732: AVG IPC :1.73393: L2-Pf-HR :0.79647: L2-HR :0.81695: (Sim:0h0m54s) 
CPU  0 inst:    5000005 cyc:    2725551 now IPC :1.74575: AVG IPC :1.73785: L2-Pf-HR :0.80049: L2-HR :0.82099: (Sim:0h1m7s) 
CPU  0 inst:    6000000 cyc:    3295049 now IPC :1.75592: AVG IPC :1.74234: L2-Pf-HR :0.79652: L2-HR :0.81923: (Sim:0h1m19s) 
CPU  0 inst:    7000002 cyc:    3846204 now IPC :1.81438: AVG IPC :1.75628: L2-Pf-HR :0.79733: L2-HR :0.82099: (Sim:0h1m32s) 
CPU  0 inst:    8000000 cyc:    4404978 now IPC :1.78963: AVG IPC :1.76175: L2-Pf-HR :0.79575: L2-HR :0.82057: (Sim:0h1m45s) 
CPU  0 inst:    9000000 cyc:    5025205 now IPC :1.61231: AVG IPC :1.73873: L2-Pf-HR :0.79661: L2-HR :0.81998: (Sim:0h1m52s) 
CPU  0 inst:   10000005 cyc:    5655438 now IPC :1.58672: AVG IPC :1.71816: L2-Pf-HR :0.79953: L2-HR :0.82068: (Sim:0h1m59s) 
CPU  0 inst:   11000000 cyc:    6274045 now IPC :1.61653: AVG IPC :1.70624: L2-Pf-HR :0.79909: L2-HR :0.82113: (Sim:0h2m6s) 
CPU  0 inst:   12000004 cyc:    6886797 now IPC :1.63199: AVG IPC :1.69851: L2-Pf-HR :0.79534: L2-HR :0.81903: (Sim:0h2m12s) 
CPU  0 inst:   13000005 cyc:    7497523 now IPC :1.63740: AVG IPC :1.69277: L2-Pf-HR :0.79730: L2-HR :0.82089: (Sim:0h2m21s) 
CPU  0 inst:   14000001 cyc:    8115002 now IPC :1.61948: AVG IPC :1.68641: L2-Pf-HR :0.79696: L2-HR :0.82113: (Sim:0h2m34s) 
CPU  0 inst:   15000002 cyc:    8729000 now IPC :1.62867: AVG IPC :1.68182: L2-Pf-HR :0.79646: L2-HR :0.82082: (Sim:0h2m47s) 
CPU  0 inst:   16000000 cyc:    9343158 now IPC :1.62824: AVG IPC :1.67788: L2-Pf-HR :0.79860: L2-HR :0.82270: (Sim:0h3m0s) 
CPU  0 inst:   17000002 cyc:   10018109 now IPC :1.48159: AVG IPC :1.66319: L2-Pf-HR :0.79938: L2-HR :0.82169: (Sim:0h3m12s) 
CPU  0 inst:   18000000 cyc:   13977527 now IPC :0.25256: AVG IPC :1.23283: L2-Pf-HR :0.73587: L2-HR :0.75093: (Sim:0h3m37s) 
CPU  0 inst:   19000000 cyc:   17401966 now IPC :0.29202: AVG IPC :1.03642: L2-Pf-HR :0.70454: L2-HR :0.73603: (Sim:0h3m49s) 
CPU  0 inst:   20000000 cyc:   20826753 now IPC :0.29199: AVG IPC :0.90783: L2-Pf-HR :0.67575: L2-HR :0.72214: (Sim:0h4m1s) 
CPU  0 inst:   21000000 cyc:   24251603 now IPC :0.29198: AVG IPC :0.81712: L2-Pf-HR :0.64922: L2-HR :0.70918: (Sim:0h4m13s) 
CPU  0 inst:   22000000 cyc:   27676756 now IPC :0.29196: AVG IPC :0.74970: L2-Pf-HR :0.62470: L2-HR :0.69706: (Sim:0h4m25s) 
CPU  0 inst:   23000000 cyc:   31102354 now IPC :0.29192: AVG IPC :0.69760: L2-Pf-HR :0.60196: L2-HR :0.68570: (Sim:0h4m42s) 
CPU  0 inst:   24000000 cyc:   34529811 now IPC :0.29176: AVG IPC :0.65612: L2-Pf-HR :0.58081: L2-HR :0.67502: (Sim:0h5m4s) 
CPU  0 inst:   25000000 cyc:   37959650 now IPC :0.29156: AVG IPC :0.62229: L2-Pf-HR :0.56111: L2-HR :0.66497: (Sim:0h5m27s) 
CPU  0 inst:   26000001 cyc:   41124896 now IPC :0.31593: AVG IPC :0.59812: L2-Pf-HR :0.54631: L2-HR :0.65734: (Sim:0h5m48s) 
CPU  0 inst:   27000000 cyc:   41765637 now IPC :1.56069: AVG IPC :0.61325: L2-Pf-HR :0.56515: L2-HR :0.67639: (Sim:0h6m4s) 
CPU  0 inst:   28000000 cyc:   42383615 now IPC :1.61818: AVG IPC :0.62826: L2-Pf-HR :0.58246: L2-HR :0.69331: (Sim:0h6m19s) 
CPU  0 inst:   29000005 cyc:   42975399 now IPC :1.68981: AVG IPC :0.64322: L2-Pf-HR :0.59951: L2-HR :0.70898: (Sim:0h6m35s) 
CPU  0 inst:   30000000 cyc:   43557748 now IPC :1.71717: AVG IPC :0.65792: L2-Pf-HR :0.61389: L2-HR :0.72247: (Sim:0h6m50s) 
CPU  0 inst:   31000001 cyc:   44162063 now IPC :1.65477: AVG IPC :0.67188: L2-Pf-HR :0.62605: L2-HR :0.73383: (Sim:0h7m5s) 
CPU  0 inst:   32000000 cyc:   44757289 now IPC :1.68003: AVG IPC :0.68559: L2-Pf-HR :0.63724: L2-HR :0.74402: (Sim:0h7m21s) 
CPU  0 inst:   33000002 cyc:   45354405 now IPC :1.67472: AVG IPC :0.69890: L2-Pf-HR :0.64715: L2-HR :0.75309: (Sim:0h7m36s) 
CPU  0 inst:   34000004 cyc:   45943773 now IPC :1.69674: AVG IPC :0.71199: L2-Pf-HR :0.65646: L2-HR :0.76138: (Sim:0h7m51s) 
CPU  0 inst:   35000002 cyc:   46517434 now IPC :1.74319: AVG IPC :0.72499: L2-Pf-HR :0.66571: L2-HR :0.76929: (Sim:0h8m3s) 
CPU  0 inst:   36000001 cyc:   47097857 now IPC :1.72288: AVG IPC :0.73755: L2-Pf-HR :0.67364: L2-HR :0.77615: (Sim:0h8m19s) 
CPU  0 inst:   37000004 cyc:   47674538 now IPC :1.73407: AVG IPC :0.74986: L2-Pf-HR :0.68049: L2-HR :0.78224: (Sim:0h8m34s) 
CPU  0 inst:   38000003 cyc:   48258689 now IPC :1.71188: AVG IPC :0.76175: L2-Pf-HR :0.68682: L2-HR :0.78782: (Sim:0h8m49s) 
CPU  0 inst:   39000002 cyc:   48832432 now IPC :1.74294: AVG IPC :0.77352: L2-Pf-HR :0.69291: L2-HR :0.79305: (Sim:0h9m4s) 
Finished CPU 0 instr: 37000000 cyc: 47833150 AVG IPC: 0.77352 (Sim time: 0h9m4s)

ChampSim completed all CPUs

[ROI Statistics]
Core_0_instructions 37000000
Core_0_cycles 47833150
Core_0_IPC 0.77352

Core_0_branch_prediction_accuracy 98.43855
Core_0_branch_MPKI 0.50535
Core_0_average_ROB_occupancy_at_mispredict 305.59648

Core_0_L1D_total_access 11201514
Core_0_L1D_total_hit 9848162 L1D_total_Hit Ratio: 0.87918
Core_0_L1D_total_miss 1353352
Core_0_L1D_loads 9273077
Core_0_L1D_load_hit 8545542 L1D_load_Hit Ratio: 0.92154
Core_0_L1D_load_miss 727535
Core_0_L1D_RFOs 1162693
Core_0_L1D_RFO_hit 1156319 L1D_RFO_Hit Ratio: 0.99452
Core_0_L1D_RFO_miss 6374
Core_0_L1D_prefetches 765744
Core_0_L1D_prefetch_hit 146301 L1D_prefetch_Hit Ratio: 0.19106
Core_0_L1D_prefetch_miss 619443
Core_0_L1D_writebacks 0
Core_0_L1D_writeback_hit 0 L1D_writeback_Hit Ratio: -nan
Core_0_L1D_writeback_miss 0
Core_0_L1D_prefetch_requested 1233604
Core_0_L1D_prefetch_issued 1233604
Core_0_L1D_prefetch_useful 634957 L1D_Useful Ratio: 0.51472
Core_0_L1D_prefetch_useless 11901
Core_0_L1D_prefetch_late 112705
Core_0_L1D_average_miss_latency 2347560.17105

Core_0_L1I_total_access 5189256
Core_0_L1I_total_hit 5184540 L1I_total_Hit Ratio: 0.99909
Core_0_L1I_total_miss 4716
Core_0_L1I_loads 5189256
Core_0_L1I_load_hit 5184540 L1I_load_Hit Ratio: 0.99909
Core_0_L1I_load_miss 4716
Core_0_L1I_RFOs 0
Core_0_L1I_RFO_hit 0 L1I_RFO_Hit Ratio: -nan
Core_0_L1I_RFO_miss 0
Core_0_L1I_prefetches 0
Core_0_L1I_prefetch_hit 0 L1I_prefetch_Hit Ratio: -nan
Core_0_L1I_prefetch_miss 0
Core_0_L1I_writebacks 0
Core_0_L1I_writeback_hit 0 L1I_writeback_Hit Ratio: -nan
Core_0_L1I_writeback_miss 0
Core_0_L1I_prefetch_requested 0
Core_0_L1I_prefetch_issued 0
Core_0_L1I_prefetch_useful 0 L1I_Useful Ratio: -nan
Core_0_L1I_prefetch_useless 0
Core_0_L1I_prefetch_late 0
Core_0_L1I_average_miss_latency 227.19105

Core_0_L2C_total_access 1774305
Core_0_L2C_total_hit 1407116 L2C_total_Hit Ratio: 0.79305
Core_0_L2C_total_miss 367189
Core_0_L2C_loads 620588
Core_0_L2C_load_hit 536834 L2C_load_Hit Ratio: 0.86504
Core_0_L2C_load_miss 83754
Core_0_L2C_RFOs 6251
Core_0_L2C_RFO_hit 1617 L2C_RFO_Hit Ratio: 0.25868
Core_0_L2C_RFO_miss 4634
Core_0_L2C_prefetches 907859
Core_0_L2C_prefetch_hit 629063 L2C_prefetch_Hit Ratio: 0.69291
Core_0_L2C_prefetch_miss 278796
Core_0_L2C_writebacks 239607
Core_0_L2C_writeback_hit 239602 L2C_writeback_Hit Ratio: 0.99998
Core_0_L2C_writeback_miss 5
Core_0_L2C_prefetch_requested 255488
Core_0_L2C_prefetch_issued 255488
Core_0_L2C_prefetch_useful 81872 L2C_Useful Ratio: 0.32045
Core_0_L2C_prefetch_useless 196728
Core_0_L2C_prefetch_late 37837
Core_0_L2C_average_miss_latency 352.07090

Core_0_LLC_total_access 575243
Core_0_LLC_total_hit 206928 LLC_total_Hit Ratio: 0.35972
Core_0_LLC_total_miss 368315
Core_0_LLC_loads 45943
Core_0_LLC_load_hit 13 LLC_load_Hit Ratio: 0.00028
Core_0_LLC_load_miss 45930
Core_0_LLC_RFOs 4634
Core_0_LLC_RFO_hit 1 LLC_RFO_Hit Ratio: 0.00022
Core_0_LLC_RFO_miss 4633
Core_0_LLC_prefetches 316608
Core_0_LLC_prefetch_hit 38 LLC_prefetch_Hit Ratio: 0.00012
Core_0_LLC_prefetch_miss 316570
Core_0_LLC_writebacks 208058
Core_0_LLC_writeback_hit 206876 LLC_writeback_Hit Ratio: 0.99432
Core_0_LLC_writeback_miss 1182
Core_0_LLC_prefetch_requested 0
Core_0_LLC_prefetch_issued 0
Core_0_LLC_prefetch_useful 6 LLC_Useful Ratio: inf
Core_0_LLC_prefetch_useless 279245
Core_0_LLC_prefetch_late 0
Core_0_LLC_average_miss_latency 333.70086

Core_0_major_page_fault 0
Core_0_minor_page_fault 3913

[Bingo] PHT Access: 148592
[Bingo] PHT Hit PC+Addr: 76033
[Bingo] PHT Hit PC+Offs: 68997
[Bingo] PHT Miss: 3562
[Bingo] Prefetch PC+Addr: 0
[Bingo] Prefetch PC+Offs: 0
[Bingo] Useful PC+Addr: 0
[Bingo] Useful PC+Offs: 0
[Bingo] Useless PC+Addr: 0
[Bingo] Useless PC+Offs: 0
[Bingo] L1 Prefetch per Region: 9.93727
[Bingo] L2 Prefetch per Region: 0.56761
[Bingo] L3 Prefetch per Region: 0.00000
[Bingo] No Prefetch per Region: 21.49513
[Bingo] Number of Voters Mean: 13.75184
[Bingo] Number of Voters SD: 5.33075
PHT read accesses: 1726045
PHT write accesses: 142037
AT read accesses: 8715648
AT write accesses: 8715641
FT read accesses: 1799569
FT write accesses: 148592
PS read accesses: 827459
PS write accesses: 145030
PHT tag read accesses: 5121745
PHT tag write accesses: 218070
AT tag read accesses: 177042554
AT tag write accesses: 8857678
FT tag read accesses: 42091908
FT tag write accesses: 1122607
PS tag read accesses: 155229553
PS tag write accesses: 967057
[Bingo2] PHT Access: 25481
[Bingo2] PHT Hit PC+Addr: 2123
[Bingo2] PHT Hit PC+Offs: 21241
[Bingo2] PHT Miss: 2117
[Bingo2] Prefetch PC+Addr: 0
[Bingo2] Prefetch PC+Offs: 0
[Bingo2] Useful PC+Addr: 0
[Bingo2] Useful PC+Offs: 0
[Bingo2] Useless PC+Addr: 0
[Bingo2] Useless PC+Offs: 0
[Bingo2] L1 Prefetch per Region: 0.00000
[Bingo2] L2 Prefetch per Region: 13.48493
[Bingo2] L3 Prefetch per Region: 0.00000
[Bingo2] No Prefetch per Region: 18.51507
[Bingo2] Number of Voters Mean: 15.39452
[Bingo2] Number of Voters SD: 4.00207
PHT read accesses: 341536
PHT write accesses: 21796
AT read accesses: 589848
AT write accesses: 611511
FT read accesses: 76292
FT write accesses: 25481
PS read accesses: 68164
PS write accesses: 23364
PHT tag read accesses: 1048541
PHT tag write accesses: 23919
AT tag read accesses: 16779212
AT tag write accesses: 611644
FT tag read accesses: 7612347
FT tag write accesses: 74585
PS tag read accesses: 10728549
PS tag write accesses: 90250
Channel_0_RQ_row_buffer_hit 226223
Channel_0_RQ_row_buffer_miss 140914
Channel_0_WQ_row_buffer_hit 87542
Channel_0_WQ_row_buffer_miss 115442
Channel_0_WQ_full 71
Channel_0_dbus_congested 435537

avg_congested_cycle 8

EzSearch AVG IPC :0.77352: L2-Pf-HR :0.69291 : L2-HR :0.79305 Uful:0.32045
     > Finished combination: TraceType=770-tot Sim:37000000 Prefetcher=L2bingo_dpc3 L1=bingo_dpc3
