TRACE: [331000000][Pythia-70M]_[h8][s1024][d64] Warmup: 2000000 NumTraces: 331000000
L1:ipcp:L2:ipcp
*************************************************
   ChampSim Multicore Out-of-Order Simulator
   Last compiled: Oct 31 2024 08:51:16
*************************************************

trace_0 770-tot_memTraces_v5/130-subBillion_s1024_LLM_Arch/memTraces[331000000][Pythia-70M]_[h8][s1024][d64].champsim.9.xz
MAIN.cc ln 751 stats print skipped
CPU  0 inst:    1000000 cyc:     507371 now IPC :1.97094: AVG IPC :1.97094: L2-Pf-HR :0.87940: L2-HR :0.80869: (Sim:0h0m7s) 
CPU  0 inst:    2000001 cyc:     997460 now IPC :2.04045: AVG IPC :2.00509: L2-Pf-HR :0.92242: L2-HR :0.84569: (Sim:0h0m14s) 

Warmup complete CPU  0 instructions:    2000001 cycles:     997460 (Simulation time: 0 hr 0 min 14 sec) 

CPU  0 inst:    3000005 cyc:    1661932 now IPC :1.50496: AVG IPC :1.50496: L2-Pf-HR :0.95446: L2-HR :0.85423: (Sim:0h0m21s) 
CPU  0 inst:    4000001 cyc:    2330627 now IPC :1.49544: AVG IPC :1.50019: L2-Pf-HR :0.95580: L2-HR :0.85595: (Sim:0h0m28s) 
CPU  0 inst:    5000000 cyc:    2995147 now IPC :1.50484: AVG IPC :1.50174: L2-Pf-HR :0.95566: L2-HR :0.85661: (Sim:0h0m34s) 
CPU  0 inst:    6000000 cyc:    3661909 now IPC :1.49979: AVG IPC :1.50125: L2-Pf-HR :0.95612: L2-HR :0.85720: (Sim:0h0m41s) 
CPU  0 inst:    7000004 cyc:    4390283 now IPC :1.37293: AVG IPC :1.47370: L2-Pf-HR :0.95264: L2-HR :0.85647: (Sim:0h0m48s) 
CPU  0 inst:    8000000 cyc:    5066356 now IPC :1.47912: AVG IPC :1.47460: L2-Pf-HR :0.95474: L2-HR :0.85799: (Sim:0h0m54s) 
CPU  0 inst:    9000001 cyc:    5739519 now IPC :1.48553: AVG IPC :1.47615: L2-Pf-HR :0.95604: L2-HR :0.85905: (Sim:0h1m1s) 
CPU  0 inst:   10000001 cyc:    6415360 now IPC :1.47964: AVG IPC :1.47659: L2-Pf-HR :0.95695: L2-HR :0.85967: (Sim:0h1m8s) 
CPU  0 inst:   11000005 cyc:    7086563 now IPC :1.48987: AVG IPC :1.47805: L2-Pf-HR :0.95771: L2-HR :0.86035: (Sim:0h1m14s) 
CPU  0 inst:   12000000 cyc:    7757507 now IPC :1.49043: AVG IPC :1.47928: L2-Pf-HR :0.95853: L2-HR :0.86090: (Sim:0h1m21s) 
CPU  0 inst:   13000000 cyc:    8496220 now IPC :1.35371: AVG IPC :1.46691: L2-Pf-HR :0.95708: L2-HR :0.86235: (Sim:0h1m28s) 
CPU  0 inst:   14000003 cyc:    9182731 now IPC :1.45665: AVG IPC :1.46605: L2-Pf-HR :0.95751: L2-HR :0.86465: (Sim:0h1m34s) 
CPU  0 inst:   15000002 cyc:    9867981 now IPC :1.45932: AVG IPC :1.46553: L2-Pf-HR :0.95786: L2-HR :0.86698: (Sim:0h1m41s) 
CPU  0 inst:   16000000 cyc:   10552423 now IPC :1.46104: AVG IPC :1.46521: L2-Pf-HR :0.95811: L2-HR :0.86877: (Sim:0h1m48s) 
CPU  0 inst:   17000003 cyc:   11350990 now IPC :1.25225: AVG IPC :1.44878: L2-Pf-HR :0.95534: L2-HR :0.86640: (Sim:0h1m55s) 
CPU  0 inst:   18000000 cyc:   12059661 now IPC :1.41109: AVG IPC :1.44637: L2-Pf-HR :0.95542: L2-HR :0.86588: (Sim:0h2m2s) 
CPU  0 inst:   19000004 cyc:   12770362 now IPC :1.40707: AVG IPC :1.44399: L2-Pf-HR :0.95558: L2-HR :0.86541: (Sim:0h2m8s) 
CPU  0 inst:   20000005 cyc:   13476795 now IPC :1.41556: AVG IPC :1.44238: L2-Pf-HR :0.95560: L2-HR :0.86493: (Sim:0h2m15s) 
CPU  0 inst:   21000003 cyc:   14181580 now IPC :1.41887: AVG IPC :1.44113: L2-Pf-HR :0.95561: L2-HR :0.86461: (Sim:0h2m22s) 
CPU  0 inst:   22000004 cyc:   14881486 now IPC :1.42876: AVG IPC :1.44050: L2-Pf-HR :0.95557: L2-HR :0.86426: (Sim:0h2m29s) 
CPU  0 inst:   23000005 cyc:   15675338 now IPC :1.25968: AVG IPC :1.43072: L2-Pf-HR :0.95463: L2-HR :0.86358: (Sim:0h2m36s) 
CPU  0 inst:   24000000 cyc:   16381462 now IPC :1.41617: AVG IPC :1.43006: L2-Pf-HR :0.95504: L2-HR :0.86365: (Sim:0h2m42s) 
CPU  0 inst:   25000001 cyc:   17086830 now IPC :1.41770: AVG IPC :1.42952: L2-Pf-HR :0.95542: L2-HR :0.86368: (Sim:0h2m49s) 
CPU  0 inst:   26000002 cyc:   17788966 now IPC :1.42423: AVG IPC :1.42929: L2-Pf-HR :0.95566: L2-HR :0.86367: (Sim:0h2m56s) 
CPU  0 inst:   27000002 cyc:   18493093 now IPC :1.42020: AVG IPC :1.42893: L2-Pf-HR :0.95600: L2-HR :0.86376: (Sim:0h3m3s) 
CPU  0 inst:   28000003 cyc:   19194415 now IPC :1.42588: AVG IPC :1.42881: L2-Pf-HR :0.95634: L2-HR :0.86385: (Sim:0h3m9s) 
CPU  0 inst:   29000004 cyc:   19957802 now IPC :1.30995: AVG IPC :1.42403: L2-Pf-HR :0.95591: L2-HR :0.86415: (Sim:0h3m16s) 
CPU  0 inst:   30000003 cyc:   20657495 now IPC :1.42920: AVG IPC :1.42421: L2-Pf-HR :0.95617: L2-HR :0.86517: (Sim:0h3m23s) 
CPU  0 inst:   31000005 cyc:   21358844 now IPC :1.42583: AVG IPC :1.42426: L2-Pf-HR :0.95635: L2-HR :0.86616: (Sim:0h3m30s) 
CPU  0 inst:   32000000 cyc:   22062252 now IPC :1.42164: AVG IPC :1.42418: L2-Pf-HR :0.95653: L2-HR :0.86696: (Sim:0h3m36s) 
CPU  0 inst:   33000002 cyc:   22852140 now IPC :1.26600: AVG IPC :1.41846: L2-Pf-HR :0.95535: L2-HR :0.86613: (Sim:0h3m43s) 
CPU  0 inst:   34000000 cyc:   23570389 now IPC :1.39227: AVG IPC :1.41763: L2-Pf-HR :0.95529: L2-HR :0.86587: (Sim:0h3m50s) 
CPU  0 inst:   35000000 cyc:   24291959 now IPC :1.38587: AVG IPC :1.41664: L2-Pf-HR :0.95534: L2-HR :0.86567: (Sim:0h3m57s) 
CPU  0 inst:   36000003 cyc:   25011770 now IPC :1.38926: AVG IPC :1.41582: L2-Pf-HR :0.95534: L2-HR :0.86541: (Sim:0h4m4s) 
CPU  0 inst:   37000000 cyc:   25730360 now IPC :1.39161: AVG IPC :1.41512: L2-Pf-HR :0.95538: L2-HR :0.86522: (Sim:0h4m11s) 
CPU  0 inst:   38000001 cyc:   26447005 now IPC :1.39539: AVG IPC :1.41456: L2-Pf-HR :0.95536: L2-HR :0.86499: (Sim:0h4m18s) 
CPU  0 inst:   39000002 cyc:   27231858 now IPC :1.27413: AVG IPC :1.41036: L2-Pf-HR :0.95483: L2-HR :0.86456: (Sim:0h4m25s) 
CPU  0 inst:   40000000 cyc:   27922982 now IPC :1.44692: AVG IPC :1.41130: L2-Pf-HR :0.95509: L2-HR :0.86458: (Sim:0h4m32s) 
CPU  0 inst:   41000003 cyc:   28613193 now IPC :1.44884: AVG IPC :1.41224: L2-Pf-HR :0.95531: L2-HR :0.86459: (Sim:0h4m38s) 
CPU  0 inst:   42000000 cyc:   29303449 now IPC :1.44873: AVG IPC :1.41313: L2-Pf-HR :0.95551: L2-HR :0.86459: (Sim:0h4m45s) 
CPU  0 inst:   43000001 cyc:   29990488 now IPC :1.45552: AVG IPC :1.41413: L2-Pf-HR :0.95574: L2-HR :0.86465: (Sim:0h4m52s) 
CPU  0 inst:   44000001 cyc:   30681115 now IPC :1.44796: AVG IPC :1.41492: L2-Pf-HR :0.95595: L2-HR :0.86468: (Sim:0h4m59s) 
CPU  0 inst:   45000005 cyc:   31434773 now IPC :1.32687: AVG IPC :1.41274: L2-Pf-HR :0.95568: L2-HR :0.86470: (Sim:0h5m6s) 
CPU  0 inst:   46000002 cyc:   32125087 now IPC :1.44861: AVG IPC :1.41354: L2-Pf-HR :0.95580: L2-HR :0.86533: (Sim:0h5m12s) 
CPU  0 inst:   47000002 cyc:   32815422 now IPC :1.44857: AVG IPC :1.41430: L2-Pf-HR :0.95596: L2-HR :0.86593: (Sim:0h5m19s) 
CPU  0 inst:   48000000 cyc:   33507469 now IPC :1.44499: AVG IPC :1.41495: L2-Pf-HR :0.95609: L2-HR :0.86649: (Sim:0h5m26s) 
CPU  0 inst:   49000002 cyc:   34296681 now IPC :1.26709: AVG IPC :1.41144: L2-Pf-HR :0.95540: L2-HR :0.86603: (Sim:0h5m33s) 
CPU  0 inst:   50000000 cyc:   35011358 now IPC :1.39923: AVG IPC :1.41119: L2-Pf-HR :0.95534: L2-HR :0.86583: (Sim:0h5m40s) 
CPU  0 inst:   51000004 cyc:   35729546 now IPC :1.39240: AVG IPC :1.41080: L2-Pf-HR :0.95532: L2-HR :0.86567: (Sim:0h5m47s) 
CPU  0 inst:   52000001 cyc:   36449073 now IPC :1.38980: AVG IPC :1.41037: L2-Pf-HR :0.95533: L2-HR :0.86553: (Sim:0h5m54s) 
CPU  0 inst:   53000003 cyc:   37170763 now IPC :1.38564: AVG IPC :1.40988: L2-Pf-HR :0.95536: L2-HR :0.86540: (Sim:0h6m0s) 
CPU  0 inst:   54000000 cyc:   37887728 now IPC :1.39476: AVG IPC :1.40959: L2-Pf-HR :0.95533: L2-HR :0.86523: (Sim:0h6m7s) 
CPU  0 inst:   55000001 cyc:   38682115 now IPC :1.25883: AVG IPC :1.40641: L2-Pf-HR :0.95499: L2-HR :0.86493: (Sim:0h6m14s) 
CPU  0 inst:   56000000 cyc:   39385604 now IPC :1.42148: AVG IPC :1.40668: L2-Pf-HR :0.95515: L2-HR :0.86494: (Sim:0h6m21s) 
CPU  0 inst:   57000001 cyc:   40092350 now IPC :1.41494: AVG IPC :1.40683: L2-Pf-HR :0.95531: L2-HR :0.86494: (Sim:0h6m28s) 
CPU  0 inst:   58000005 cyc:   40794727 now IPC :1.42374: AVG IPC :1.40713: L2-Pf-HR :0.95546: L2-HR :0.86494: (Sim:0h6m35s) 
CPU  0 inst:   59000001 cyc:   41499908 now IPC :1.41807: AVG IPC :1.40732: L2-Pf-HR :0.95562: L2-HR :0.86497: (Sim:0h6m42s) 
CPU  0 inst:   60000005 cyc:   42201679 now IPC :1.42497: AVG IPC :1.40762: L2-Pf-HR :0.95576: L2-HR :0.86498: (Sim:0h6m48s) 
CPU  0 inst:   61000005 cyc:   42965742 now IPC :1.30879: AVG IPC :1.40582: L2-Pf-HR :0.95552: L2-HR :0.86496: (Sim:0h6m55s) 
CPU  0 inst:   62000000 cyc:   43673261 now IPC :1.41338: AVG IPC :1.40595: L2-Pf-HR :0.95560: L2-HR :0.86538: (Sim:0h7m2s) 
CPU  0 inst:   63000000 cyc:   44375555 now IPC :1.42391: AVG IPC :1.40624: L2-Pf-HR :0.95569: L2-HR :0.86580: (Sim:0h7m9s) 
CPU  0 inst:   64000000 cyc:   45079499 now IPC :1.42057: AVG IPC :1.40647: L2-Pf-HR :0.95580: L2-HR :0.86627: (Sim:0h7m16s) 
CPU  0 inst:   65000002 cyc:   45869913 now IPC :1.26516: AVG IPC :1.40398: L2-Pf-HR :0.95524: L2-HR :0.86598: (Sim:0h7m23s) 
CPU  0 inst:   66000000 cyc:   46588308 now IPC :1.39199: AVG IPC :1.40379: L2-Pf-HR :0.95522: L2-HR :0.86584: (Sim:0h7m29s) 
CPU  0 inst:   67000001 cyc:   47306732 now IPC :1.39194: AVG IPC :1.40361: L2-Pf-HR :0.95523: L2-HR :0.86574: (Sim:0h7m36s) 
CPU  0 inst:   68000002 cyc:   48021279 now IPC :1.39949: AVG IPC :1.40354: L2-Pf-HR :0.95517: L2-HR :0.86558: (Sim:0h7m43s) 
CPU  0 inst:   69000003 cyc:   48738278 now IPC :1.39470: AVG IPC :1.40341: L2-Pf-HR :0.95517: L2-HR :0.86548: (Sim:0h7m50s) 
CPU  0 inst:   70000004 cyc:   49457439 now IPC :1.39051: AVG IPC :1.40322: L2-Pf-HR :0.95516: L2-HR :0.86535: (Sim:0h7m57s) 
CPU  0 inst:   71000005 cyc:   50251926 now IPC :1.25868: AVG IPC :1.40089: L2-Pf-HR :0.95481: L2-HR :0.86507: (Sim:0h8m4s) 
CPU  0 inst:   72000000 cyc:   50943593 now IPC :1.44578: AVG IPC :1.40151: L2-Pf-HR :0.95495: L2-HR :0.86507: (Sim:0h8m11s) 
CPU  0 inst:   73000001 cyc:   51639370 now IPC :1.43724: AVG IPC :1.40200: L2-Pf-HR :0.95505: L2-HR :0.86505: (Sim:0h8m17s) 
CPU  0 inst:   74000001 cyc:   52334406 now IPC :1.43877: AVG IPC :1.40250: L2-Pf-HR :0.95516: L2-HR :0.86503: (Sim:0h8m24s) 
CPU  0 inst:   75000002 cyc:   53027171 now IPC :1.44349: AVG IPC :1.40304: L2-Pf-HR :0.95530: L2-HR :0.86506: (Sim:0h8m31s) 
CPU  0 inst:   76000005 cyc:   53723334 now IPC :1.43645: AVG IPC :1.40349: L2-Pf-HR :0.95543: L2-HR :0.86506: (Sim:0h8m38s) 
CPU  0 inst:   77000003 cyc:   54481054 now IPC :1.31975: AVG IPC :1.40230: L2-Pf-HR :0.95528: L2-HR :0.86498: (Sim:0h8m44s) 
CPU  0 inst:   78000002 cyc:   55184565 now IPC :1.42144: AVG IPC :1.40255: L2-Pf-HR :0.95533: L2-HR :0.86531: (Sim:0h8m51s) 
CPU  0 inst:   79000001 cyc:   55888320 now IPC :1.42095: AVG IPC :1.40278: L2-Pf-HR :0.95541: L2-HR :0.86568: (Sim:0h8m58s) 
CPU  0 inst:   80000000 cyc:   56587515 now IPC :1.43021: AVG IPC :1.40313: L2-Pf-HR :0.95553: L2-HR :0.86604: (Sim:0h9m5s) 
CPU  0 inst:   81000001 cyc:   57365670 now IPC :1.28509: AVG IPC :1.40150: L2-Pf-HR :0.95511: L2-HR :0.86588: (Sim:0h9m12s) 
CPU  0 inst:   82000000 cyc:   58080210 now IPC :1.39950: AVG IPC :1.40147: L2-Pf-HR :0.95511: L2-HR :0.86579: (Sim:0h9m19s) 
CPU  0 inst:   83000001 cyc:   58797044 now IPC :1.39502: AVG IPC :1.40139: L2-Pf-HR :0.95509: L2-HR :0.86568: (Sim:0h9m26s) 
CPU  0 inst:   84000004 cyc:   59515784 now IPC :1.39133: AVG IPC :1.40127: L2-Pf-HR :0.95509: L2-HR :0.86559: (Sim:0h9m33s) 
CPU  0 inst:   85000002 cyc:   60236488 now IPC :1.38753: AVG IPC :1.40110: L2-Pf-HR :0.95510: L2-HR :0.86548: (Sim:0h9m44s) 
CPU  0 inst:   86000001 cyc:   60958327 now IPC :1.38535: AVG IPC :1.40091: L2-Pf-HR :0.95511: L2-HR :0.86538: (Sim:0h9m53s) 
CPU  0 inst:   87000002 cyc:   61746377 now IPC :1.26896: AVG IPC :1.39920: L2-Pf-HR :0.95487: L2-HR :0.86518: (Sim:0h10m7s) 
CPU  0 inst:   88000000 cyc:   62465137 now IPC :1.39128: AVG IPC :1.39911: L2-Pf-HR :0.95497: L2-HR :0.86518: (Sim:0h10m21s) 
CPU  0 inst:   89000000 cyc:   63173511 now IPC :1.41168: AVG IPC :1.39925: L2-Pf-HR :0.95504: L2-HR :0.86517: (Sim:0h10m34s) 
CPU  0 inst:   90000000 cyc:   63880089 now IPC :1.41527: AVG IPC :1.39943: L2-Pf-HR :0.95513: L2-HR :0.86516: (Sim:0h10m47s) 
CPU  0 inst:   91000000 cyc:   64588015 now IPC :1.41258: AVG IPC :1.39958: L2-Pf-HR :0.95522: L2-HR :0.86516: (Sim:0h11m1s) 
CPU  0 inst:   92000001 cyc:   65291379 now IPC :1.42174: AVG IPC :1.39982: L2-Pf-HR :0.95533: L2-HR :0.86517: (Sim:0h11m14s) 
CPU  0 inst:   93000003 cyc:   66055076 now IPC :1.30942: AVG IPC :1.39876: L2-Pf-HR :0.95526: L2-HR :0.86508: (Sim:0h11m27s) 
CPU  0 inst:   94000004 cyc:   66761103 now IPC :1.41638: AVG IPC :1.39895: L2-Pf-HR :0.95532: L2-HR :0.86537: (Sim:0h11m40s) 
CPU  0 inst:   95000005 cyc:   67464644 now IPC :1.42138: AVG IPC :1.39919: L2-Pf-HR :0.95538: L2-HR :0.86566: (Sim:0h11m54s) 
CPU  0 inst:   96000000 cyc:   68166534 now IPC :1.42472: AVG IPC :1.39945: L2-Pf-HR :0.95545: L2-HR :0.86593: (Sim:0h12m7s) 
CPU  0 inst:   97000002 cyc:   68924674 now IPC :1.31902: AVG IPC :1.39856: L2-Pf-HR :0.95515: L2-HR :0.86589: (Sim:0h12m20s) 
CPU  0 inst:   98000002 cyc:   69661219 now IPC :1.35769: AVG IPC :1.39812: L2-Pf-HR :0.95513: L2-HR :0.86578: (Sim:0h12m34s) 
CPU  0 inst:   99000001 cyc:   70376419 now IPC :1.39821: AVG IPC :1.39812: L2-Pf-HR :0.95514: L2-HR :0.86571: (Sim:0h12m47s) 
CPU  0 inst:  100000001 cyc:   71093203 now IPC :1.39512: AVG IPC :1.39809: L2-Pf-HR :0.95515: L2-HR :0.86562: (Sim:0h13m0s) 
CPU  0 inst:  101000000 cyc:   71808245 now IPC :1.39852: AVG IPC :1.39809: L2-Pf-HR :0.95517: L2-HR :0.86556: (Sim:0h13m14s) 
CPU  0 inst:  102000000 cyc:   72526147 now IPC :1.39295: AVG IPC :1.39804: L2-Pf-HR :0.95519: L2-HR :0.86548: (Sim:0h13m27s) 
CPU  0 inst:  103000001 cyc:   73250125 now IPC :1.38126: AVG IPC :1.39787: L2-Pf-HR :0.95525: L2-HR :0.86545: (Sim:0h13m41s) 
CPU  0 inst:  104000000 cyc:   74020240 now IPC :1.29851: AVG IPC :1.39682: L2-Pf-HR :0.95508: L2-HR :0.86528: (Sim:0h13m54s) 
CPU  0 inst:  105000004 cyc:   74706564 now IPC :1.45704: AVG IPC :1.39739: L2-Pf-HR :0.95516: L2-HR :0.86527: (Sim:0h14m8s) 
CPU  0 inst:  106000005 cyc:   75394185 now IPC :1.45429: AVG IPC :1.39791: L2-Pf-HR :0.95525: L2-HR :0.86528: (Sim:0h14m21s) 
CPU  0 inst:  107000005 cyc:   76077825 now IPC :1.46276: AVG IPC :1.39850: L2-Pf-HR :0.95533: L2-HR :0.86528: (Sim:0h14m34s) 
CPU  0 inst:  108000005 cyc:   76763599 now IPC :1.45821: AVG IPC :1.39904: L2-Pf-HR :0.95542: L2-HR :0.86528: (Sim:0h14m47s) 
CPU  0 inst:  109000003 cyc:   77457169 now IPC :1.44181: AVG IPC :1.39943: L2-Pf-HR :0.95552: L2-HR :0.86531: (Sim:0h15m0s) 
CPU  0 inst:  110000004 cyc:   78212571 now IPC :1.32380: AVG IPC :1.39869: L2-Pf-HR :0.95536: L2-HR :0.86541: (Sim:0h15m14s) 
CPU  0 inst:  111000002 cyc:   78916364 now IPC :1.42087: AVG IPC :1.39889: L2-Pf-HR :0.95543: L2-HR :0.86564: (Sim:0h15m27s) 
CPU  0 inst:  112000000 cyc:   79619528 now IPC :1.42214: AVG IPC :1.39910: L2-Pf-HR :0.95550: L2-HR :0.86591: (Sim:0h15m40s) 
CPU  0 inst:  113000003 cyc:   80323829 now IPC :1.41985: AVG IPC :1.39928: L2-Pf-HR :0.95555: L2-HR :0.86615: (Sim:0h15m52s) 
CPU  0 inst:  114000000 cyc:   81122391 now IPC :1.25225: AVG IPC :1.39782: L2-Pf-HR :0.95520: L2-HR :0.86581: (Sim:0h16m5s) 
CPU  0 inst:  115000000 cyc:   81850091 now IPC :1.37419: AVG IPC :1.39760: L2-Pf-HR :0.95520: L2-HR :0.86574: (Sim:0h16m18s) 
CPU  0 inst:  116000003 cyc:   82573588 now IPC :1.38218: AVG IPC :1.39747: L2-Pf-HR :0.95520: L2-HR :0.86567: (Sim:0h16m31s) 
CPU  0 inst:  117000002 cyc:   83295958 now IPC :1.38433: AVG IPC :1.39735: L2-Pf-HR :0.95520: L2-HR :0.86561: (Sim:0h16m44s) 
CPU  0 inst:  118000000 cyc:   84022190 now IPC :1.37697: AVG IPC :1.39717: L2-Pf-HR :0.95520: L2-HR :0.86555: (Sim:0h16m51s) 
CPU  0 inst:  119000001 cyc:   84744756 now IPC :1.38396: AVG IPC :1.39706: L2-Pf-HR :0.95521: L2-HR :0.86548: (Sim:0h16m58s) 
CPU  0 inst:  120000000 cyc:   85529880 now IPC :1.27368: AVG IPC :1.39591: L2-Pf-HR :0.95503: L2-HR :0.86535: (Sim:0h17m6s) 
CPU  0 inst:  121000001 cyc:   86228567 now IPC :1.43126: AVG IPC :1.39620: L2-Pf-HR :0.95510: L2-HR :0.86533: (Sim:0h17m14s) 
CPU  0 inst:  122000005 cyc:   86923774 now IPC :1.43843: AVG IPC :1.39655: L2-Pf-HR :0.95517: L2-HR :0.86533: (Sim:0h17m28s) 
CPU  0 inst:  123000003 cyc:   87620824 now IPC :1.43461: AVG IPC :1.39685: L2-Pf-HR :0.95524: L2-HR :0.86533: (Sim:0h17m35s) 
CPU  0 inst:  124000005 cyc:   88314984 now IPC :1.44059: AVG IPC :1.39720: L2-Pf-HR :0.95531: L2-HR :0.86532: (Sim:0h17m49s) 
CPU  0 inst:  125000005 cyc:   89010167 now IPC :1.43847: AVG IPC :1.39753: L2-Pf-HR :0.95540: L2-HR :0.86533: (Sim:0h18m2s) 
CPU  0 inst:  126000001 cyc:   89771909 now IPC :1.31278: AVG IPC :1.39680: L2-Pf-HR :0.95529: L2-HR :0.86540: (Sim:0h18m10s) 
CPU  0 inst:  127000002 cyc:   90471385 now IPC :1.42964: AVG IPC :1.39706: L2-Pf-HR :0.95535: L2-HR :0.86562: (Sim:0h18m18s) 
CPU  0 inst:  128000000 cyc:   91171682 now IPC :1.42796: AVG IPC :1.39730: L2-Pf-HR :0.95540: L2-HR :0.86585: (Sim:0h18m32s) 
CPU  0 inst:  129000004 cyc:   91871829 now IPC :1.42828: AVG IPC :1.39753: L2-Pf-HR :0.95543: L2-HR :0.86603: (Sim:0h18m45s) 
CPU  0 inst:  130000005 cyc:   95924664 now IPC :0.24674: AVG IPC :1.34840: L2-Pf-HR :0.94820: L2-HR :0.85599: (Sim:0h19m7s) 
CPU  0 inst:  131000001 cyc:  100853331 now IPC :0.20289: AVG IPC :1.29186: L2-Pf-HR :0.93936: L2-HR :0.84417: (Sim:0h19m27s) 
CPU  0 inst:  132000002 cyc:  105781761 now IPC :0.20290: AVG IPC :1.24064: L2-Pf-HR :0.93068: L2-HR :0.83312: (Sim:0h19m45s) 
CPU  0 inst:  133000005 cyc:  110712929 now IPC :0.20279: AVG IPC :1.19400: L2-Pf-HR :0.92219: L2-HR :0.82275: (Sim:0h20m3s) 
CPU  0 inst:  134000000 cyc:  115552335 now IPC :0.20664: AVG IPC :1.15229: L2-Pf-HR :0.91407: L2-HR :0.81330: (Sim:0h20m22s) 
CPU  0 inst:  135000000 cyc:  119327747 now IPC :0.26487: AVG IPC :1.12397: L2-Pf-HR :0.91212: L2-HR :0.81174: (Sim:0h20m37s) 
CPU  0 inst:  136000000 cyc:  123102024 now IPC :0.26495: AVG IPC :1.09742: L2-Pf-HR :0.91018: L2-HR :0.81019: (Sim:0h20m52s) 
CPU  0 inst:  137000000 cyc:  126868767 now IPC :0.26548: AVG IPC :1.07252: L2-Pf-HR :0.90824: L2-HR :0.80866: (Sim:0h21m7s) 
CPU  0 inst:  138000000 cyc:  130620175 now IPC :0.26657: AVG IPC :1.04920: L2-Pf-HR :0.90632: L2-HR :0.80713: (Sim:0h21m23s) 
CPU  0 inst:  139000000 cyc:  134370136 now IPC :0.26667: AVG IPC :1.02720: L2-Pf-HR :0.90440: L2-HR :0.80562: (Sim:0h21m39s) 
CPU  0 inst:  140000002 cyc:  138117425 now IPC :0.26686: AVG IPC :1.00642: L2-Pf-HR :0.90249: L2-HR :0.80411: (Sim:0h21m57s) 
CPU  0 inst:  141000004 cyc:  141864129 now IPC :0.26690: AVG IPC :0.98675: L2-Pf-HR :0.90058: L2-HR :0.80261: (Sim:0h22m23s) 
CPU  0 inst:  142000004 cyc:  145611983 now IPC :0.26682: AVG IPC :0.96809: L2-Pf-HR :0.89869: L2-HR :0.80113: (Sim:0h22m49s) 
CPU  0 inst:  143000000 cyc:  149360223 now IPC :0.26679: AVG IPC :0.95037: L2-Pf-HR :0.89681: L2-HR :0.79965: (Sim:0h23m15s) 
CPU  0 inst:  144000000 cyc:  153111248 now IPC :0.26659: AVG IPC :0.93351: L2-Pf-HR :0.89493: L2-HR :0.79818: (Sim:0h23m33s) 
CPU  0 inst:  145000002 cyc:  156862295 now IPC :0.26659: AVG IPC :0.91746: L2-Pf-HR :0.89308: L2-HR :0.79673: (Sim:0h23m55s) 
CPU  0 inst:  146000000 cyc:  160616184 now IPC :0.26639: AVG IPC :0.90215: L2-Pf-HR :0.89123: L2-HR :0.79529: (Sim:0h24m22s) 
CPU  0 inst:  147000000 cyc:  164361576 now IPC :0.26699: AVG IPC :0.88759: L2-Pf-HR :0.88938: L2-HR :0.79385: (Sim:0h24m49s) 
CPU  0 inst:  148000003 cyc:  168112789 now IPC :0.26658: AVG IPC :0.87365: L2-Pf-HR :0.88754: L2-HR :0.79243: (Sim:0h25m15s) 
CPU  0 inst:  149000002 cyc:  171865525 now IPC :0.26647: AVG IPC :0.86031: L2-Pf-HR :0.88571: L2-HR :0.79102: (Sim:0h25m42s) 
CPU  0 inst:  150000000 cyc:  175617079 now IPC :0.26656: AVG IPC :0.84756: L2-Pf-HR :0.88389: L2-HR :0.78961: (Sim:0h26m8s) 
CPU  0 inst:  151000000 cyc:  179363946 now IPC :0.26689: AVG IPC :0.83536: L2-Pf-HR :0.88207: L2-HR :0.78822: (Sim:0h26m35s) 
CPU  0 inst:  152000000 cyc:  183113068 now IPC :0.26673: AVG IPC :0.82365: L2-Pf-HR :0.88027: L2-HR :0.78683: (Sim:0h27m2s) 
CPU  0 inst:  153000000 cyc:  186866197 now IPC :0.26644: AVG IPC :0.81240: L2-Pf-HR :0.87849: L2-HR :0.78546: (Sim:0h27m28s) 
CPU  0 inst:  154000000 cyc:  190619237 now IPC :0.26645: AVG IPC :0.80160: L2-Pf-HR :0.87671: L2-HR :0.78409: (Sim:0h27m53s) 
CPU  0 inst:  155000000 cyc:  194370675 now IPC :0.26656: AVG IPC :0.79122: L2-Pf-HR :0.87493: L2-HR :0.78273: (Sim:0h28m20s) 
CPU  0 inst:  156000000 cyc:  198115717 now IPC :0.26702: AVG IPC :0.78126: L2-Pf-HR :0.87316: L2-HR :0.78138: (Sim:0h28m47s) 
CPU  0 inst:  157000002 cyc:  201863236 now IPC :0.26684: AVG IPC :0.77166: L2-Pf-HR :0.87140: L2-HR :0.78005: (Sim:0h29m12s) 
CPU  0 inst:  158000004 cyc:  205615359 now IPC :0.26652: AVG IPC :0.76240: L2-Pf-HR :0.86965: L2-HR :0.77872: (Sim:0h29m35s) 
CPU  0 inst:  159000004 cyc:  209365522 now IPC :0.26666: AVG IPC :0.75347: L2-Pf-HR :0.86790: L2-HR :0.77739: (Sim:0h29m56s) 
CPU  0 inst:  160000000 cyc:  213111009 now IPC :0.26699: AVG IPC :0.74488: L2-Pf-HR :0.86618: L2-HR :0.77608: (Sim:0h30m22s) 
CPU  0 inst:  161000000 cyc:  216864259 now IPC :0.26644: AVG IPC :0.73657: L2-Pf-HR :0.86445: L2-HR :0.77478: (Sim:0h30m48s) 
CPU  0 inst:  162000004 cyc:  220616055 now IPC :0.26654: AVG IPC :0.72854: L2-Pf-HR :0.86274: L2-HR :0.77348: (Sim:0h31m9s) 
CPU  0 inst:  163000004 cyc:  224364100 now IPC :0.26681: AVG IPC :0.72079: L2-Pf-HR :0.86103: L2-HR :0.77219: (Sim:0h31m35s) 
CPU  0 inst:  164000000 cyc:  228112221 now IPC :0.26680: AVG IPC :0.71330: L2-Pf-HR :0.85932: L2-HR :0.77091: (Sim:0h32m1s) 
CPU  0 inst:  165000003 cyc:  231862785 now IPC :0.26663: AVG IPC :0.70604: L2-Pf-HR :0.85763: L2-HR :0.76964: (Sim:0h32m26s) 
CPU  0 inst:  166000002 cyc:  235612834 now IPC :0.26666: AVG IPC :0.69902: L2-Pf-HR :0.85594: L2-HR :0.76838: (Sim:0h32m51s) 
CPU  0 inst:  167000001 cyc:  239358307 now IPC :0.26699: AVG IPC :0.69223: L2-Pf-HR :0.85426: L2-HR :0.76713: (Sim:0h33m17s) 
CPU  0 inst:  168000000 cyc:  243108150 now IPC :0.26668: AVG IPC :0.68564: L2-Pf-HR :0.85260: L2-HR :0.76588: (Sim:0h33m42s) 
CPU  0 inst:  169000003 cyc:  246861512 now IPC :0.26643: AVG IPC :0.67924: L2-Pf-HR :0.85094: L2-HR :0.76464: (Sim:0h34m8s) 
CPU  0 inst:  170000002 cyc:  250612104 now IPC :0.26662: AVG IPC :0.67304: L2-Pf-HR :0.84928: L2-HR :0.76342: (Sim:0h34m31s) 
CPU  0 inst:  171000000 cyc:  254354129 now IPC :0.26723: AVG IPC :0.66704: L2-Pf-HR :0.84764: L2-HR :0.76219: (Sim:0h34m56s) 
CPU  0 inst:  172000000 cyc:  258101742 now IPC :0.26684: AVG IPC :0.66121: L2-Pf-HR :0.84599: L2-HR :0.76098: (Sim:0h35m23s) 
CPU  0 inst:  173000000 cyc:  261856876 now IPC :0.26630: AVG IPC :0.65553: L2-Pf-HR :0.84436: L2-HR :0.75977: (Sim:0h35m48s) 
CPU  0 inst:  174000002 cyc:  265610118 now IPC :0.26644: AVG IPC :0.65001: L2-Pf-HR :0.84273: L2-HR :0.75857: (Sim:0h36m14s) 
CPU  0 inst:  175000000 cyc:  269352691 now IPC :0.26720: AVG IPC :0.64467: L2-Pf-HR :0.84112: L2-HR :0.75738: (Sim:0h36m41s) 
CPU  0 inst:  176000000 cyc:  273102269 now IPC :0.26670: AVG IPC :0.63946: L2-Pf-HR :0.83950: L2-HR :0.75619: (Sim:0h37m1s) 
CPU  0 inst:  177000000 cyc:  276856430 now IPC :0.26637: AVG IPC :0.63438: L2-Pf-HR :0.83790: L2-HR :0.75502: (Sim:0h37m19s) 
CPU  0 inst:  178000002 cyc:  280606372 now IPC :0.26667: AVG IPC :0.62945: L2-Pf-HR :0.83630: L2-HR :0.75385: (Sim:0h37m44s) 
CPU  0 inst:  179000004 cyc:  284358501 now IPC :0.26652: AVG IPC :0.62464: L2-Pf-HR :0.83471: L2-HR :0.75269: (Sim:0h38m9s) 
CPU  0 inst:  180000004 cyc:  288101504 now IPC :0.26717: AVG IPC :0.61998: L2-Pf-HR :0.83312: L2-HR :0.75153: (Sim:0h38m33s) 
CPU  0 inst:  181000000 cyc:  291851618 now IPC :0.26666: AVG IPC :0.61543: L2-Pf-HR :0.83154: L2-HR :0.75039: (Sim:0h38m58s) 
CPU  0 inst:  182000000 cyc:  295597181 now IPC :0.26698: AVG IPC :0.61100: L2-Pf-HR :0.82998: L2-HR :0.74925: (Sim:0h39m25s) 
CPU  0 inst:  183000000 cyc:  299353004 now IPC :0.26625: AVG IPC :0.60666: L2-Pf-HR :0.82843: L2-HR :0.74812: (Sim:0h39m51s) 
CPU  0 inst:  184000000 cyc:  303102672 now IPC :0.26669: AVG IPC :0.60244: L2-Pf-HR :0.82687: L2-HR :0.74699: (Sim:0h40m16s) 
CPU  0 inst:  185000000 cyc:  306853099 now IPC :0.26664: AVG IPC :0.59832: L2-Pf-HR :0.82532: L2-HR :0.74587: (Sim:0h40m38s) 
CPU  0 inst:  186000003 cyc:  310596734 now IPC :0.26712: AVG IPC :0.59432: L2-Pf-HR :0.82378: L2-HR :0.74476: (Sim:0h41m4s) 
CPU  0 inst:  187000002 cyc:  314343798 now IPC :0.26688: AVG IPC :0.59040: L2-Pf-HR :0.82224: L2-HR :0.74365: (Sim:0h41m31s) 
CPU  0 inst:  188000000 cyc:  318093067 now IPC :0.26672: AVG IPC :0.58657: L2-Pf-HR :0.82072: L2-HR :0.74255: (Sim:0h41m57s) 
CPU  0 inst:  189000000 cyc:  321840746 now IPC :0.26683: AVG IPC :0.58284: L2-Pf-HR :0.81919: L2-HR :0.74146: (Sim:0h42m24s) 
CPU  0 inst:  190000000 cyc:  325592799 now IPC :0.26652: AVG IPC :0.57918: L2-Pf-HR :0.81769: L2-HR :0.74038: (Sim:0h42m51s) 
CPU  0 inst:  191000000 cyc:  329350757 now IPC :0.26610: AVG IPC :0.57560: L2-Pf-HR :0.81618: L2-HR :0.73930: (Sim:0h43m17s) 
CPU  0 inst:  192000000 cyc:  333101235 now IPC :0.26663: AVG IPC :0.57211: L2-Pf-HR :0.81468: L2-HR :0.73823: (Sim:0h43m42s) 
CPU  0 inst:  193000000 cyc:  336848122 now IPC :0.26689: AVG IPC :0.56871: L2-Pf-HR :0.81318: L2-HR :0.73716: (Sim:0h44m8s) 
CPU  0 inst:  194000000 cyc:  340596150 now IPC :0.26681: AVG IPC :0.56537: L2-Pf-HR :0.81170: L2-HR :0.73610: (Sim:0h44m34s) 
CPU  0 inst:  195000002 cyc:  344341560 now IPC :0.26699: AVG IPC :0.56212: L2-Pf-HR :0.81021: L2-HR :0.73504: (Sim:0h45m0s) 
CPU  0 inst:  196000004 cyc:  348091954 now IPC :0.26664: AVG IPC :0.55893: L2-Pf-HR :0.80874: L2-HR :0.73400: (Sim:0h45m23s) 
CPU  0 inst:  197000002 cyc:  351838861 now IPC :0.26689: AVG IPC :0.55581: L2-Pf-HR :0.80727: L2-HR :0.73296: (Sim:0h45m48s) 
CPU  0 inst:  198000002 cyc:  354405323 now IPC :0.38964: AVG IPC :0.55460: L2-Pf-HR :0.80696: L2-HR :0.73321: (Sim:0h46m9s) 
CPU  0 inst:  199000005 cyc:  355013956 now IPC :1.64303: AVG IPC :0.55647: L2-Pf-HR :0.80906: L2-HR :0.73592: (Sim:0h46m24s) 
CPU  0 inst:  200000000 cyc:  355618775 now IPC :1.65338: AVG IPC :0.55834: L2-Pf-HR :0.81119: L2-HR :0.73863: (Sim:0h46m40s) 
CPU  0 inst:  201000000 cyc:  356214600 now IPC :1.67835: AVG IPC :0.56022: L2-Pf-HR :0.81329: L2-HR :0.74129: (Sim:0h46m56s) 
CPU  0 inst:  202000002 cyc:  356834219 now IPC :1.61390: AVG IPC :0.56206: L2-Pf-HR :0.81513: L2-HR :0.74376: (Sim:0h47m12s) 
CPU  0 inst:  203000005 cyc:  357407197 now IPC :1.74527: AVG IPC :0.56396: L2-Pf-HR :0.81716: L2-HR :0.74633: (Sim:0h47m28s) 
CPU  0 inst:  204000003 cyc:  357972807 now IPC :1.76800: AVG IPC :0.56587: L2-Pf-HR :0.81911: L2-HR :0.74883: (Sim:0h47m44s) 
CPU  0 inst:  205000004 cyc:  358534744 now IPC :1.77956: AVG IPC :0.56777: L2-Pf-HR :0.82102: L2-HR :0.75129: (Sim:0h48m0s) 
CPU  0 inst:  206000004 cyc:  359109541 now IPC :1.73974: AVG IPC :0.56965: L2-Pf-HR :0.82274: L2-HR :0.75362: (Sim:0h48m16s) 
CPU  0 inst:  207000001 cyc:  359673336 now IPC :1.77369: AVG IPC :0.57155: L2-Pf-HR :0.82459: L2-HR :0.75602: (Sim:0h48m32s) 
CPU  0 inst:  208000000 cyc:  360230983 now IPC :1.79325: AVG IPC :0.57344: L2-Pf-HR :0.82634: L2-HR :0.75834: (Sim:0h48m48s) 
CPU  0 inst:  209000001 cyc:  360783674 now IPC :1.80933: AVG IPC :0.57534: L2-Pf-HR :0.82802: L2-HR :0.76058: (Sim:0h49m4s) 
CPU  0 inst:  210000004 cyc:  361335537 now IPC :1.81205: AVG IPC :0.57724: L2-Pf-HR :0.82963: L2-HR :0.76276: (Sim:0h49m19s) 
CPU  0 inst:  211000000 cyc:  361914847 now IPC :1.72618: AVG IPC :0.57908: L2-Pf-HR :0.83092: L2-HR :0.76466: (Sim:0h49m32s) 
CPU  0 inst:  212000003 cyc:  362479043 now IPC :1.77244: AVG IPC :0.58094: L2-Pf-HR :0.83223: L2-HR :0.76656: (Sim:0h49m46s) 
CPU  0 inst:  213000002 cyc:  363044133 now IPC :1.76963: AVG IPC :0.58280: L2-Pf-HR :0.83349: L2-HR :0.76840: (Sim:0h50m2s) 
CPU  0 inst:  214000002 cyc:  363615639 now IPC :1.74976: AVG IPC :0.58464: L2-Pf-HR :0.83475: L2-HR :0.77023: (Sim:0h50m18s) 
CPU  0 inst:  215000000 cyc:  364222810 now IPC :1.64698: AVG IPC :0.58641: L2-Pf-HR :0.83589: L2-HR :0.77197: (Sim:0h50m34s) 
CPU  0 inst:  216000000 cyc:  364812643 now IPC :1.69540: AVG IPC :0.58821: L2-Pf-HR :0.83721: L2-HR :0.77384: (Sim:0h50m50s) 
CPU  0 inst:  217000004 cyc:  365405561 now IPC :1.68658: AVG IPC :0.59000: L2-Pf-HR :0.83851: L2-HR :0.77567: (Sim:0h51m6s) 
CPU  0 inst:  218000001 cyc:  365996846 now IPC :1.69123: AVG IPC :0.59178: L2-Pf-HR :0.83976: L2-HR :0.77745: (Sim:0h51m22s) 
CPU  0 inst:  219000004 cyc:  366587373 now IPC :1.69341: AVG IPC :0.59356: L2-Pf-HR :0.84090: L2-HR :0.77914: (Sim:0h51m38s) 
CPU  0 inst:  220000001 cyc:  367146627 now IPC :1.78809: AVG IPC :0.59539: L2-Pf-HR :0.84219: L2-HR :0.78093: (Sim:0h51m54s) 
CPU  0 inst:  221000002 cyc:  367704058 now IPC :1.79395: AVG IPC :0.59721: L2-Pf-HR :0.84342: L2-HR :0.78266: (Sim:0h52m9s) 
CPU  0 inst:  222000005 cyc:  368263365 now IPC :1.78793: AVG IPC :0.59902: L2-Pf-HR :0.84455: L2-HR :0.78431: (Sim:0h52m25s) 
CPU  0 inst:  223000000 cyc:  368833866 now IPC :1.75284: AVG IPC :0.60081: L2-Pf-HR :0.84566: L2-HR :0.78593: (Sim:0h52m41s) 
CPU  0 inst:  224000000 cyc:  369385279 now IPC :1.81352: AVG IPC :0.60263: L2-Pf-HR :0.84685: L2-HR :0.78761: (Sim:0h52m56s) 
CPU  0 inst:  225000003 cyc:  369938622 now IPC :1.80720: AVG IPC :0.60443: L2-Pf-HR :0.84794: L2-HR :0.78920: (Sim:0h53m12s) 
CPU  0 inst:  226000005 cyc:  370490509 now IPC :1.81197: AVG IPC :0.60624: L2-Pf-HR :0.84898: L2-HR :0.79075: (Sim:0h53m28s) 
CPU  0 inst:  227000004 cyc:  371055096 now IPC :1.77120: AVG IPC :0.60801: L2-Pf-HR :0.85000: L2-HR :0.79227: (Sim:0h53m44s) 
CPU  0 inst:  228000001 cyc:  371618615 now IPC :1.77456: AVG IPC :0.60979: L2-Pf-HR :0.85086: L2-HR :0.79363: (Sim:0h54m0s) 
CPU  0 inst:  229000000 cyc:  372186416 now IPC :1.76118: AVG IPC :0.61155: L2-Pf-HR :0.85165: L2-HR :0.79491: (Sim:0h54m16s) 
CPU  0 inst:  230000000 cyc:  372755701 now IPC :1.75659: AVG IPC :0.61330: L2-Pf-HR :0.85244: L2-HR :0.79620: (Sim:0h54m31s) 
CPU  0 inst:  231000002 cyc:  373337444 now IPC :1.71898: AVG IPC :0.61503: L2-Pf-HR :0.85329: L2-HR :0.79751: (Sim:0h54m47s) 
CPU  0 inst:  232000000 cyc:  373936040 now IPC :1.67057: AVG IPC :0.61672: L2-Pf-HR :0.85406: L2-HR :0.79878: (Sim:0h55m1s) 
CPU  0 inst:  233000002 cyc:  374529607 now IPC :1.68473: AVG IPC :0.61842: L2-Pf-HR :0.85489: L2-HR :0.80008: (Sim:0h55m13s) 
CPU  0 inst:  234000001 cyc:  375119349 now IPC :1.69566: AVG IPC :0.62012: L2-Pf-HR :0.85575: L2-HR :0.80139: (Sim:0h55m22s) 
CPU  0 inst:  235000002 cyc:  375712729 now IPC :1.68526: AVG IPC :0.62181: L2-Pf-HR :0.85653: L2-HR :0.80264: (Sim:0h55m38s) 
CPU  0 inst:  236000002 cyc:  376286570 now IPC :1.74264: AVG IPC :0.62352: L2-Pf-HR :0.85734: L2-HR :0.80388: (Sim:0h55m53s) 
CPU  0 inst:  237000002 cyc:  376843861 now IPC :1.79439: AVG IPC :0.62526: L2-Pf-HR :0.85821: L2-HR :0.80516: (Sim:0h56m9s) 
CPU  0 inst:  238000000 cyc:  377402858 now IPC :1.78891: AVG IPC :0.62698: L2-Pf-HR :0.85903: L2-HR :0.80641: (Sim:0h56m24s) 
CPU  0 inst:  239000004 cyc:  377958823 now IPC :1.79868: AVG IPC :0.62871: L2-Pf-HR :0.85985: L2-HR :0.80765: (Sim:0h56m39s) 
CPU  0 inst:  240000000 cyc:  378533360 now IPC :1.74053: AVG IPC :0.63040: L2-Pf-HR :0.86057: L2-HR :0.80880: (Sim:0h56m54s) 
CPU  0 inst:  241000000 cyc:  379086398 now IPC :1.80819: AVG IPC :0.63213: L2-Pf-HR :0.86138: L2-HR :0.81003: (Sim:0h57m10s) 
CPU  0 inst:  242000002 cyc:  379637521 now IPC :1.81448: AVG IPC :0.63385: L2-Pf-HR :0.86219: L2-HR :0.81124: (Sim:0h57m25s) 
CPU  0 inst:  243000000 cyc:  380186022 now IPC :1.82315: AVG IPC :0.63557: L2-Pf-HR :0.86298: L2-HR :0.81243: (Sim:0h57m39s) 
CPU  0 inst:  244000002 cyc:  380761276 now IPC :1.73837: AVG IPC :0.63724: L2-Pf-HR :0.86357: L2-HR :0.81346: (Sim:0h57m49s) 
CPU  0 inst:  245000005 cyc:  381324885 now IPC :1.77428: AVG IPC :0.63892: L2-Pf-HR :0.86417: L2-HR :0.81447: (Sim:0h57m59s) 
CPU  0 inst:  246000003 cyc:  381888903 now IPC :1.77299: AVG IPC :0.64060: L2-Pf-HR :0.86476: L2-HR :0.81545: (Sim:0h58m11s) 
CPU  0 inst:  247000001 cyc:  382456700 now IPC :1.76119: AVG IPC :0.64227: L2-Pf-HR :0.86534: L2-HR :0.81643: (Sim:0h58m26s) 
CPU  0 inst:  248000000 cyc:  383057154 now IPC :1.66540: AVG IPC :0.64388: L2-Pf-HR :0.86581: L2-HR :0.81731: (Sim:0h58m42s) 
CPU  0 inst:  249000004 cyc:  383646290 now IPC :1.69741: AVG IPC :0.64550: L2-Pf-HR :0.86644: L2-HR :0.81832: (Sim:0h58m57s) 
CPU  0 inst:  250000001 cyc:  384235467 now IPC :1.69728: AVG IPC :0.64712: L2-Pf-HR :0.86705: L2-HR :0.81931: (Sim:0h59m13s) 
CPU  0 inst:  251000004 cyc:  384827350 now IPC :1.68953: AVG IPC :0.64872: L2-Pf-HR :0.86766: L2-HR :0.82029: (Sim:0h59m28s) 
CPU  0 inst:  252000004 cyc:  385429070 now IPC :1.66190: AVG IPC :0.65031: L2-Pf-HR :0.86814: L2-HR :0.82117: (Sim:0h59m44s) 
CPU  0 inst:  253000001 cyc:  385990345 now IPC :1.78165: AVG IPC :0.65196: L2-Pf-HR :0.86881: L2-HR :0.82218: (Sim:1h0m0s) 
CPU  0 inst:  254000004 cyc:  386544911 now IPC :1.80322: AVG IPC :0.65362: L2-Pf-HR :0.86944: L2-HR :0.82315: (Sim:1h0m15s) 
CPU  0 inst:  255000001 cyc:  387106125 now IPC :1.78185: AVG IPC :0.65526: L2-Pf-HR :0.87004: L2-HR :0.82410: (Sim:1h0m31s) 
CPU  0 inst:  256000000 cyc:  387665292 now IPC :1.78837: AVG IPC :0.65689: L2-Pf-HR :0.87059: L2-HR :0.82502: (Sim:1h0m47s) 
CPU  0 inst:  257000001 cyc:  388230677 now IPC :1.76871: AVG IPC :0.65852: L2-Pf-HR :0.87118: L2-HR :0.82595: (Sim:1h1m2s) 
CPU  0 inst:  258000001 cyc:  388780468 now IPC :1.81887: AVG IPC :0.66016: L2-Pf-HR :0.87178: L2-HR :0.82689: (Sim:1h1m14s) 
CPU  0 inst:  259000000 cyc:  389334547 now IPC :1.80480: AVG IPC :0.66180: L2-Pf-HR :0.87233: L2-HR :0.82778: (Sim:1h1m25s) 
CPU  0 inst:  260000005 cyc:  389883598 now IPC :1.82133: AVG IPC :0.66343: L2-Pf-HR :0.87286: L2-HR :0.82866: (Sim:1h1m38s) 
CPU  0 inst:  261000003 cyc:  390457312 now IPC :1.74303: AVG IPC :0.66502: L2-Pf-HR :0.87332: L2-HR :0.82946: (Sim:1h1m54s) 
CPU  0 inst:  262000005 cyc:  391021974 now IPC :1.77097: AVG IPC :0.66662: L2-Pf-HR :0.87374: L2-HR :0.83022: (Sim:1h2m9s) 
CPU  0 inst:  263000001 cyc:  391589595 now IPC :1.76173: AVG IPC :0.66822: L2-Pf-HR :0.87413: L2-HR :0.83095: (Sim:1h2m24s) 
CPU  0 inst:  264000000 cyc:  392162897 now IPC :1.74428: AVG IPC :0.66979: L2-Pf-HR :0.87454: L2-HR :0.83169: (Sim:1h2m40s) 
CPU  0 inst:  265000003 cyc:  392761589 now IPC :1.67031: AVG IPC :0.67132: L2-Pf-HR :0.87495: L2-HR :0.83243: (Sim:1h2m55s) 
CPU  0 inst:  266000005 cyc:  393354167 now IPC :1.68754: AVG IPC :0.67286: L2-Pf-HR :0.87537: L2-HR :0.83318: (Sim:1h3m11s) 
CPU  0 inst:  267000001 cyc:  393948801 now IPC :1.68170: AVG IPC :0.67438: L2-Pf-HR :0.87580: L2-HR :0.83393: (Sim:1h3m26s) 
CPU  0 inst:  268000005 cyc:  394537232 now IPC :1.69944: AVG IPC :0.67592: L2-Pf-HR :0.87626: L2-HR :0.83469: (Sim:1h3m41s) 
CPU  0 inst:  269000003 cyc:  395127514 now IPC :1.69410: AVG IPC :0.67744: L2-Pf-HR :0.87666: L2-HR :0.83540: (Sim:1h3m57s) 
CPU  0 inst:  270000000 cyc:  395685039 now IPC :1.79364: AVG IPC :0.67902: L2-Pf-HR :0.87713: L2-HR :0.83616: (Sim:1h4m12s) 
CPU  0 inst:  271000003 cyc:  396242480 now IPC :1.79392: AVG IPC :0.68059: L2-Pf-HR :0.87759: L2-HR :0.83692: (Sim:1h4m28s) 
CPU  0 inst:  272000000 cyc:  396801828 now IPC :1.78779: AVG IPC :0.68216: L2-Pf-HR :0.87805: L2-HR :0.83766: (Sim:1h4m44s) 
CPU  0 inst:  273000001 cyc:  397373897 now IPC :1.74804: AVG IPC :0.68369: L2-Pf-HR :0.87844: L2-HR :0.83836: (Sim:1h5m0s) 
CPU  0 inst:  274000003 cyc:  397925125 now IPC :1.81413: AVG IPC :0.68526: L2-Pf-HR :0.87892: L2-HR :0.83912: (Sim:1h5m16s) 
CPU  0 inst:  275000003 cyc:  398472871 now IPC :1.82566: AVG IPC :0.68683: L2-Pf-HR :0.87937: L2-HR :0.83986: (Sim:1h5m31s) 
CPU  0 inst:  276000001 cyc:  399021729 now IPC :1.82196: AVG IPC :0.68840: L2-Pf-HR :0.87982: L2-HR :0.84058: (Sim:1h5m44s) 
CPU  0 inst:  277000001 cyc:  399587173 now IPC :1.76852: AVG IPC :0.68993: L2-Pf-HR :0.88019: L2-HR :0.84125: (Sim:1h5m57s) 
CPU  0 inst:  278000004 cyc:  400155056 now IPC :1.76093: AVG IPC :0.69146: L2-Pf-HR :0.88053: L2-HR :0.84187: (Sim:1h6m13s) 
CPU  0 inst:  279000003 cyc:  400717043 now IPC :1.77940: AVG IPC :0.69299: L2-Pf-HR :0.88087: L2-HR :0.84248: (Sim:1h6m28s) 
CPU  0 inst:  280000000 cyc:  401284211 now IPC :1.76314: AVG IPC :0.69450: L2-Pf-HR :0.88120: L2-HR :0.84309: (Sim:1h6m44s) 
CPU  0 inst:  281000001 cyc:  401857152 now IPC :1.74538: AVG IPC :0.69600: L2-Pf-HR :0.88150: L2-HR :0.84367: (Sim:1h7m0s) 
CPU  0 inst:  282000004 cyc:  402461214 now IPC :1.65546: AVG IPC :0.69745: L2-Pf-HR :0.88180: L2-HR :0.84425: (Sim:1h7m17s) 
CPU  0 inst:  283000001 cyc:  403048755 now IPC :1.70200: AVG IPC :0.69892: L2-Pf-HR :0.88217: L2-HR :0.84487: (Sim:1h7m32s) 
CPU  0 inst:  284000003 cyc:  403641048 now IPC :1.68836: AVG IPC :0.70037: L2-Pf-HR :0.88252: L2-HR :0.84548: (Sim:1h7m48s) 
CPU  0 inst:  285000004 cyc:  404230077 now IPC :1.69771: AVG IPC :0.70183: L2-Pf-HR :0.88287: L2-HR :0.84609: (Sim:1h8m3s) 
CPU  0 inst:  286000003 cyc:  404812019 now IPC :1.71838: AVG IPC :0.70329: L2-Pf-HR :0.88317: L2-HR :0.84665: (Sim:1h8m19s) 
CPU  0 inst:  287000002 cyc:  405366264 now IPC :1.80425: AVG IPC :0.70480: L2-Pf-HR :0.88356: L2-HR :0.84728: (Sim:1h8m34s) 
CPU  0 inst:  288000000 cyc:  405923745 now IPC :1.79378: AVG IPC :0.70630: L2-Pf-HR :0.88393: L2-HR :0.84789: (Sim:1h8m49s) 
CPU  0 inst:  289000000 cyc:  406481514 now IPC :1.79286: AVG IPC :0.70780: L2-Pf-HR :0.88429: L2-HR :0.84849: (Sim:1h9m5s) 
CPU  0 inst:  290000004 cyc:  407050304 now IPC :1.75813: AVG IPC :0.70927: L2-Pf-HR :0.88460: L2-HR :0.84906: (Sim:1h9m20s) 
CPU  0 inst:  291000000 cyc:  407598509 now IPC :1.82413: AVG IPC :0.71077: L2-Pf-HR :0.88497: L2-HR :0.84967: (Sim:1h9m35s) 
CPU  0 inst:  292000005 cyc:  408149980 now IPC :1.81334: AVG IPC :0.71226: L2-Pf-HR :0.88533: L2-HR :0.85027: (Sim:1h9m51s) 
CPU  0 inst:  293000001 cyc:  408701404 now IPC :1.81348: AVG IPC :0.71375: L2-Pf-HR :0.88567: L2-HR :0.85085: (Sim:1h10m7s) 
CPU  0 inst:  294000002 cyc:  409271831 now IPC :1.75307: AVG IPC :0.71521: L2-Pf-HR :0.88595: L2-HR :0.85138: (Sim:1h10m22s) 
CPU  0 inst:  295000000 cyc:  409834787 now IPC :1.77633: AVG IPC :0.71667: L2-Pf-HR :0.88623: L2-HR :0.85189: (Sim:1h10m38s) 
CPU  0 inst:  296000000 cyc:  410399562 now IPC :1.77062: AVG IPC :0.71812: L2-Pf-HR :0.88648: L2-HR :0.85237: (Sim:1h10m53s) 
CPU  0 inst:  297000005 cyc:  410971099 now IPC :1.74968: AVG IPC :0.71956: L2-Pf-HR :0.88671: L2-HR :0.85284: (Sim:1h11m9s) 
CPU  0 inst:  298000003 cyc:  411560722 now IPC :1.69600: AVG IPC :0.72096: L2-Pf-HR :0.88695: L2-HR :0.85331: (Sim:1h11m24s) 
CPU  0 inst:  299000001 cyc:  412151799 now IPC :1.69182: AVG IPC :0.72236: L2-Pf-HR :0.88722: L2-HR :0.85381: (Sim:1h11m39s) 
CPU  0 inst:  300000004 cyc:  412745538 now IPC :1.68425: AVG IPC :0.72374: L2-Pf-HR :0.88748: L2-HR :0.85429: (Sim:1h11m54s) 
CPU  0 inst:  301000000 cyc:  413339008 now IPC :1.68500: AVG IPC :0.72513: L2-Pf-HR :0.88774: L2-HR :0.85479: (Sim:1h12m10s) 
CPU  0 inst:  302000000 cyc:  413935352 now IPC :1.67688: AVG IPC :0.72650: L2-Pf-HR :0.88801: L2-HR :0.85527: (Sim:1h12m26s) 
CPU  0 inst:  303000003 cyc:  414501407 now IPC :1.76662: AVG IPC :0.72793: L2-Pf-HR :0.88829: L2-HR :0.85576: (Sim:1h12m41s) 
CPU  0 inst:  304000000 cyc:  415058093 now IPC :1.79634: AVG IPC :0.72936: L2-Pf-HR :0.88858: L2-HR :0.85626: (Sim:1h12m53s) 
CPU  0 inst:  305000002 cyc:  415620768 now IPC :1.77723: AVG IPC :0.73078: L2-Pf-HR :0.88887: L2-HR :0.85676: (Sim:1h13m4s) 
CPU  0 inst:  306000002 cyc:  416177837 now IPC :1.79511: AVG IPC :0.73221: L2-Pf-HR :0.88914: L2-HR :0.85725: (Sim:1h13m20s) 
CPU  0 inst:  307000004 cyc:  416743622 now IPC :1.76746: AVG IPC :0.73362: L2-Pf-HR :0.88942: L2-HR :0.85773: (Sim:1h13m33s) 
CPU  0 inst:  308000000 cyc:  417294431 now IPC :1.81550: AVG IPC :0.73505: L2-Pf-HR :0.88971: L2-HR :0.85823: (Sim:1h13m48s) 
CPU  0 inst:  309000003 cyc:  417844758 now IPC :1.81711: AVG IPC :0.73648: L2-Pf-HR :0.89001: L2-HR :0.85873: (Sim:1h14m4s) 
CPU  0 inst:  310000005 cyc:  418393356 now IPC :1.82283: AVG IPC :0.73791: L2-Pf-HR :0.89031: L2-HR :0.85923: (Sim:1h14m19s) 
CPU  0 inst:  311000003 cyc:  418972153 now IPC :1.72772: AVG IPC :0.73928: L2-Pf-HR :0.89050: L2-HR :0.85963: (Sim:1h14m35s) 
CPU  0 inst:  312000000 cyc:  419536075 now IPC :1.77329: AVG IPC :0.74067: L2-Pf-HR :0.89072: L2-HR :0.86005: (Sim:1h14m50s) 
CPU  0 inst:  313000005 cyc:  420100306 now IPC :1.77233: AVG IPC :0.74206: L2-Pf-HR :0.89094: L2-HR :0.86047: (Sim:1h15m6s) 
CPU  0 inst:  314000004 cyc:  420668544 now IPC :1.75982: AVG IPC :0.74344: L2-Pf-HR :0.89117: L2-HR :0.86089: (Sim:1h15m21s) 
CPU  0 inst:  315000004 cyc:  421270943 now IPC :1.66003: AVG IPC :0.74475: L2-Pf-HR :0.89132: L2-HR :0.86125: (Sim:1h15m37s) 
CPU  0 inst:  316000000 cyc:  421858180 now IPC :1.70288: AVG IPC :0.74609: L2-Pf-HR :0.89156: L2-HR :0.86167: (Sim:1h15m53s) 
CPU  0 inst:  317000003 cyc:  422449142 now IPC :1.69216: AVG IPC :0.74742: L2-Pf-HR :0.89179: L2-HR :0.86210: (Sim:1h16m8s) 
CPU  0 inst:  318000001 cyc:  423038948 now IPC :1.69547: AVG IPC :0.74874: L2-Pf-HR :0.89202: L2-HR :0.86251: (Sim:1h16m24s) 
CPU  0 inst:  319000003 cyc:  423637222 now IPC :1.67148: AVG IPC :0.75005: L2-Pf-HR :0.89219: L2-HR :0.86288: (Sim:1h16m39s) 
CPU  0 inst:  320000000 cyc:  424197501 now IPC :1.78482: AVG IPC :0.75142: L2-Pf-HR :0.89246: L2-HR :0.86332: (Sim:1h16m54s) 
CPU  0 inst:  321000001 cyc:  424752911 now IPC :1.80047: AVG IPC :0.75279: L2-Pf-HR :0.89271: L2-HR :0.86375: (Sim:1h17m10s) 
CPU  0 inst:  322000003 cyc:  425315563 now IPC :1.77730: AVG IPC :0.75415: L2-Pf-HR :0.89296: L2-HR :0.86417: (Sim:1h17m26s) 
CPU  0 inst:  323000001 cyc:  425884447 now IPC :1.75782: AVG IPC :0.75550: L2-Pf-HR :0.89314: L2-HR :0.86454: (Sim:1h17m41s) 
CPU  0 inst:  324000000 cyc:  426438578 now IPC :1.80463: AVG IPC :0.75686: L2-Pf-HR :0.89341: L2-HR :0.86499: (Sim:1h17m57s) 
CPU  0 inst:  325000001 cyc:  426987007 now IPC :1.82339: AVG IPC :0.75823: L2-Pf-HR :0.89367: L2-HR :0.86542: (Sim:1h18m10s) 
CPU  0 inst:  326000005 cyc:  427538617 now IPC :1.81288: AVG IPC :0.75960: L2-Pf-HR :0.89391: L2-HR :0.86583: (Sim:1h18m26s) 
CPU  0 inst:  327000000 cyc:  428092164 now IPC :1.80652: AVG IPC :0.76096: L2-Pf-HR :0.89412: L2-HR :0.86623: (Sim:1h18m42s) 
CPU  0 inst:  328000000 cyc:  428666295 now IPC :1.74176: AVG IPC :0.76227: L2-Pf-HR :0.89428: L2-HR :0.86657: (Sim:1h18m58s) 
Finished CPU 0 instr: 326000001 cyc: 427668843 AVG IPC: 0.76227 (Sim time: 1h18m58s)

ChampSim completed all CPUs

[ROI Statistics]
Core_0_instructions 326000001
Core_0_cycles 427668843
Core_0_IPC 0.76227

Core_0_branch_prediction_accuracy 99.57883
Core_0_branch_MPKI 0.12289
Core_0_average_ROB_occupancy_at_mispredict 466.01051

Core_0_L1D_total_access 148994975
Core_0_L1D_total_hit 135573603 L1D_total_Hit Ratio: 0.90992
Core_0_L1D_total_miss 13421372
Core_0_L1D_loads 82245124
Core_0_L1D_load_hit 75213451 L1D_load_Hit Ratio: 0.91450
Core_0_L1D_load_miss 7031673
Core_0_L1D_RFOs 8618898
Core_0_L1D_RFO_hit 8107226 L1D_RFO_Hit Ratio: 0.94063
Core_0_L1D_RFO_miss 511672
Core_0_L1D_prefetches 58130953
Core_0_L1D_prefetch_hit 52252926 L1D_prefetch_Hit Ratio: 0.89888
Core_0_L1D_prefetch_miss 5878027
Core_0_L1D_writebacks 0
Core_0_L1D_writeback_hit 0 L1D_writeback_Hit Ratio: -nan
Core_0_L1D_writeback_miss 0
Core_0_L1D_prefetch_requested 150956743
Core_0_L1D_prefetch_issued 81829549
Core_0_L1D_prefetch_useful 5215164 L1D_Useful Ratio: 0.06373
Core_0_L1D_prefetch_useless 680211
Core_0_L1D_prefetch_late 1324674
Core_0_L1D_average_miss_latency 31948277.87817

Core_0_L1I_total_access 48829875
Core_0_L1I_total_hit 48824950 L1I_total_Hit Ratio: 0.99990
Core_0_L1I_total_miss 4925
Core_0_L1I_loads 48829875
Core_0_L1I_load_hit 48824950 L1I_load_Hit Ratio: 0.99990
Core_0_L1I_load_miss 4925
Core_0_L1I_RFOs 0
Core_0_L1I_RFO_hit 0 L1I_RFO_Hit Ratio: -nan
Core_0_L1I_RFO_miss 0
Core_0_L1I_prefetches 0
Core_0_L1I_prefetch_hit 0 L1I_prefetch_Hit Ratio: -nan
Core_0_L1I_prefetch_miss 0
Core_0_L1I_writebacks 0
Core_0_L1I_writeback_hit 0 L1I_writeback_Hit Ratio: -nan
Core_0_L1I_writeback_miss 0
Core_0_L1I_prefetch_requested 0
Core_0_L1I_prefetch_issued 0
Core_0_L1I_prefetch_useful 0 L1I_Useful Ratio: -nan
Core_0_L1I_prefetch_useless 0
Core_0_L1I_prefetch_late 0
Core_0_L1I_average_miss_latency 293.95289

Core_0_L2C_total_access 25000791
Core_0_L2C_total_hit 21664921 L2C_total_Hit Ratio: 0.86657
Core_0_L2C_total_miss 3335870
Core_0_L2C_loads 5712021
Core_0_L2C_load_hit 4600852 L2C_load_Hit Ratio: 0.80547
Core_0_L2C_load_miss 1111169
Core_0_L2C_RFOs 511663
Core_0_L2C_RFO_hit 68154 L2C_RFO_Hit Ratio: 0.13320
Core_0_L2C_RFO_miss 443509
Core_0_L2C_prefetches 16839515
Core_0_L2C_prefetch_hit 15059324 L2C_prefetch_Hit Ratio: 0.89428
Core_0_L2C_prefetch_miss 1780191
Core_0_L2C_writebacks 1937592
Core_0_L2C_writeback_hit 1936591 L2C_writeback_Hit Ratio: 0.99948
Core_0_L2C_writeback_miss 1001
Core_0_L2C_prefetch_requested 20044205
Core_0_L2C_prefetch_issued 19405009
Core_0_L2C_prefetch_useful 252306 L2C_Useful Ratio: 0.01300
Core_0_L2C_prefetch_useless 1520999
Core_0_L2C_prefetch_late 327723
Core_0_L2C_average_miss_latency 303.40752

Core_0_LLC_total_access 5164999
Core_0_LLC_total_hit 2127103 LLC_total_Hit Ratio: 0.41183
Core_0_LLC_total_miss 3037896
Core_0_LLC_loads 783553
Core_0_LLC_load_hit 146673 LLC_load_Hit Ratio: 0.18719
Core_0_LLC_load_miss 636880
Core_0_LLC_RFOs 443507
Core_0_LLC_RFO_hit 101 LLC_RFO_Hit Ratio: 0.00023
Core_0_LLC_RFO_miss 443406
Core_0_LLC_prefetches 2107807
Core_0_LLC_prefetch_hit 157050 LLC_prefetch_Hit Ratio: 0.07451
Core_0_LLC_prefetch_miss 1950757
Core_0_LLC_writebacks 1830132
Core_0_LLC_writeback_hit 1823279 LLC_writeback_Hit Ratio: 0.99626
Core_0_LLC_writeback_miss 6853
Core_0_LLC_prefetch_requested 0
Core_0_LLC_prefetch_issued 0
Core_0_LLC_prefetch_useful 10447 LLC_Useful Ratio: inf
Core_0_LLC_prefetch_useless 1904065
Core_0_LLC_prefetch_late 0
Core_0_LLC_average_miss_latency 293.79850

Core_0_major_page_fault 0
Core_0_minor_page_fault 19454


Channel_0_RQ_row_buffer_hit 1652242
Channel_0_RQ_row_buffer_miss 1378737
Channel_0_WQ_row_buffer_hit 536205
Channel_0_WQ_row_buffer_miss 1105183
Channel_0_WQ_full 442
Channel_0_dbus_congested 2263971

avg_congested_cycle 8

EzSearch AVG IPC :0.76227: L2-Pf-HR :0.89428 : L2-HR :0.86657 Uful:0.01300
     > Finished combination: TraceType=770-tot Sim:326000000 Prefetcher=L2ipcp L1=ipcp
