TRACE: [662000000][OPT-350M]_[h16][s1024][d64] Warmup: 2000000 NumTraces: 662000000
L1:next_line:L2:029-SecTOP-L2-MultiMarkovDelta_ip_stride_v4-IPStrS256
*************************************************
   ChampSim Multicore Out-of-Order Simulator
   Last compiled: Oct 31 2024 09:17:35
*************************************************

trace_0 770-tot_memTraces_v5/130-subBillion_s1024_LLM_Arch/memTraces[662000000][OPT-350M]_[h16][s1024][d64].champsim.9.xz
CPU 0 L1D next line prefetcher
MK1: Size: 128 TMAX: 64 TMIN: 32 MKPTHRESH: 40
MK2: Size: 256 TMAX: 32 TMIN: 16 MK2PTHRESH: 30
MK3: Size: 384 TMAX: 16 TMIN: 8 MK3PTHRESH: 25
MK4: Size: 512 TMAX: 8 TMIN: 0 MK4PTHRESH: 20
Stride Size: 256 Prefetch Degree: 15

CPU 0 L2C prefetcher
MAIN.cc ln 751 stats print skipped
CPU 0 L2C prefetcher initialized


Cache Size: 1280
number of cache lines: 20480
CPU  0 inst:    1000001 cyc:     507051 now IPC :1.97219: AVG IPC :1.97219: L2-Pf-HR :0.88354: L2-HR :0.85341: (Sim:0h0m14s) 
CPU  0 inst:    2000000 cyc:     996890 now IPC :2.04149: AVG IPC :2.00624: L2-Pf-HR :0.90992: L2-HR :0.88485: (Sim:0h0m27s) 

Warmup complete CPU  0 instructions:    2000001 cycles:     996891 (Simulation time: 0 hr 0 min 27 sec) 

CPU  0 inst:    3000003 cyc:    1523211 now IPC :1.89999: AVG IPC :1.89999: L2-Pf-HR :0.89290: L2-HR :0.86301: (Sim:0h0m34s) 
CPU  0 inst:    4000002 cyc:    2040084 now IPC :1.93471: AVG IPC :1.91719: L2-Pf-HR :0.89549: L2-HR :0.86545: (Sim:0h0m42s) 
CPU  0 inst:    5000003 cyc:    2556956 now IPC :1.93472: AVG IPC :1.92300: L2-Pf-HR :0.89468: L2-HR :0.86480: (Sim:0h0m49s) 
CPU  0 inst:    6000002 cyc:    3079383 now IPC :1.91414: AVG IPC :1.92078: L2-Pf-HR :0.89927: L2-HR :0.86825: (Sim:0h1m2s) 
CPU  0 inst:    7000001 cyc:    3709452 now IPC :1.58713: AVG IPC :1.84328: L2-Pf-HR :0.89253: L2-HR :0.86272: (Sim:0h1m15s) 
CPU  0 inst:    8000000 cyc:    4205009 now IPC :2.01793: AVG IPC :1.87026: L2-Pf-HR :0.89210: L2-HR :0.86283: (Sim:0h1m29s) 
CPU  0 inst:    9000005 cyc:    4700896 now IPC :2.01660: AVG IPC :1.88985: L2-Pf-HR :0.89158: L2-HR :0.86250: (Sim:0h1m42s) 
CPU  0 inst:   10000004 cyc:    5198978 now IPC :2.00770: AVG IPC :1.90382: L2-Pf-HR :0.89176: L2-HR :0.86288: (Sim:0h1m55s) 
CPU  0 inst:   11000001 cyc:    5693460 now IPC :2.02231: AVG IPC :1.91629: L2-Pf-HR :0.89157: L2-HR :0.86281: (Sim:0h2m8s) 
CPU  0 inst:   12000001 cyc:    6189452 now IPC :2.01616: AVG IPC :1.92583: L2-Pf-HR :0.89396: L2-HR :0.86490: (Sim:0h2m21s) 
CPU  0 inst:   13000004 cyc:    6786115 now IPC :1.67599: AVG IPC :1.90008: L2-Pf-HR :0.89475: L2-HR :0.86811: (Sim:0h2m35s) 
CPU  0 inst:   14000004 cyc:    7266345 now IPC :2.08234: AVG IPC :1.91404: L2-Pf-HR :0.89847: L2-HR :0.87483: (Sim:0h2m43s) 
CPU  0 inst:   15000002 cyc:    7743566 now IPC :2.09546: AVG IPC :1.92688: L2-Pf-HR :0.90199: L2-HR :0.88087: (Sim:0h2m51s) 
CPU  0 inst:   16000000 cyc:    8217240 now IPC :2.11115: AVG IPC :1.93896: L2-Pf-HR :0.90680: L2-HR :0.88752: (Sim:0h2m58s) 
CPU  0 inst:   17000002 cyc:    8902189 now IPC :1.45997: AVG IPC :1.89746: L2-Pf-HR :0.90539: L2-HR :0.88568: (Sim:0h3m7s) 
CPU  0 inst:   18000003 cyc:    9432877 now IPC :1.88435: AVG IPC :1.89664: L2-Pf-HR :0.90455: L2-HR :0.88416: (Sim:0h3m19s) 
CPU  0 inst:   19000001 cyc:    9968568 now IPC :1.86674: AVG IPC :1.89485: L2-Pf-HR :0.90407: L2-HR :0.88305: (Sim:0h3m33s) 
CPU  0 inst:   20000001 cyc:   10498672 now IPC :1.88642: AVG IPC :1.89438: L2-Pf-HR :0.90350: L2-HR :0.88197: (Sim:0h3m41s) 
CPU  0 inst:   21000003 cyc:   11025074 now IPC :1.89969: AVG IPC :1.89466: L2-Pf-HR :0.90295: L2-HR :0.88095: (Sim:0h3m49s) 
CPU  0 inst:   22000001 cyc:   11550637 now IPC :1.90272: AVG IPC :1.89506: L2-Pf-HR :0.90319: L2-HR :0.88065: (Sim:0h4m2s) 
CPU  0 inst:   23000005 cyc:   12199436 now IPC :1.54132: AVG IPC :1.87457: L2-Pf-HR :0.90162: L2-HR :0.87884: (Sim:0h4m16s) 
CPU  0 inst:   24000000 cyc:   12698280 now IPC :2.00462: AVG IPC :1.88012: L2-Pf-HR :0.90090: L2-HR :0.87792: (Sim:0h4m29s) 
CPU  0 inst:   25000000 cyc:   13196926 now IPC :2.00543: AVG IPC :1.88524: L2-Pf-HR :0.90027: L2-HR :0.87717: (Sim:0h4m42s) 
CPU  0 inst:   26000004 cyc:   13692205 now IPC :2.01907: AVG IPC :1.89046: L2-Pf-HR :0.89980: L2-HR :0.87657: (Sim:0h4m55s) 
CPU  0 inst:   27000003 cyc:   14188713 now IPC :2.01406: AVG IPC :1.89511: L2-Pf-HR :0.89925: L2-HR :0.87595: (Sim:0h5m7s) 
CPU  0 inst:   28000002 cyc:   14682962 now IPC :2.02327: AVG IPC :1.89974: L2-Pf-HR :0.89966: L2-HR :0.87607: (Sim:0h5m20s) 
CPU  0 inst:   29000003 cyc:   15274646 now IPC :1.69009: AVG IPC :1.89105: L2-Pf-HR :0.89975: L2-HR :0.87673: (Sim:0h5m33s) 
CPU  0 inst:   30000002 cyc:   15756845 now IPC :2.07383: AVG IPC :1.89702: L2-Pf-HR :0.90119: L2-HR :0.87932: (Sim:0h5m44s) 
CPU  0 inst:   31000000 cyc:   16234021 now IPC :2.09566: AVG IPC :1.90325: L2-Pf-HR :0.90259: L2-HR :0.88179: (Sim:0h5m56s) 
CPU  0 inst:   32000000 cyc:   16711623 now IPC :2.09379: AVG IPC :1.90904: L2-Pf-HR :0.90465: L2-HR :0.88471: (Sim:0h6m9s) 
CPU  0 inst:   33000000 cyc:   17368710 now IPC :1.52187: AVG IPC :1.89350: L2-Pf-HR :0.90431: L2-HR :0.88439: (Sim:0h6m24s) 
CPU  0 inst:   34000005 cyc:   17902578 now IPC :1.87313: AVG IPC :1.89285: L2-Pf-HR :0.90390: L2-HR :0.88370: (Sim:0h6m37s) 
CPU  0 inst:   35000003 cyc:   18432657 now IPC :1.88651: AVG IPC :1.89266: L2-Pf-HR :0.90363: L2-HR :0.88314: (Sim:0h6m51s) 
CPU  0 inst:   36000002 cyc:   18959649 now IPC :1.89756: AVG IPC :1.89281: L2-Pf-HR :0.90332: L2-HR :0.88258: (Sim:0h7m4s) 
CPU  0 inst:   37000000 cyc:   19484519 now IPC :1.90523: AVG IPC :1.89316: L2-Pf-HR :0.90300: L2-HR :0.88203: (Sim:0h7m16s) 
CPU  0 inst:   38000004 cyc:   20013189 now IPC :1.89155: AVG IPC :1.89311: L2-Pf-HR :0.90317: L2-HR :0.88188: (Sim:0h7m27s) 
CPU  0 inst:   39000000 cyc:   20671027 now IPC :1.52013: AVG IPC :1.88064: L2-Pf-HR :0.90244: L2-HR :0.88098: (Sim:0h7m40s) 
CPU  0 inst:   40000000 cyc:   21173372 now IPC :1.99066: AVG IPC :1.88338: L2-Pf-HR :0.90207: L2-HR :0.88047: (Sim:0h7m53s) 
CPU  0 inst:   41000000 cyc:   21672798 now IPC :2.00230: AVG IPC :1.88625: L2-Pf-HR :0.90170: L2-HR :0.87992: (Sim:0h8m6s) 
CPU  0 inst:   42000000 cyc:   22173820 now IPC :1.99592: AVG IPC :1.88885: L2-Pf-HR :0.90141: L2-HR :0.87950: (Sim:0h8m19s) 
CPU  0 inst:   43000003 cyc:   22671370 now IPC :2.00985: AVG IPC :1.89163: L2-Pf-HR :0.90111: L2-HR :0.87906: (Sim:0h8m33s) 
CPU  0 inst:   44000001 cyc:   23167936 now IPC :2.01383: AVG IPC :1.89436: L2-Pf-HR :0.90121: L2-HR :0.87897: (Sim:0h8m46s) 
CPU  0 inst:   45000005 cyc:   23758379 now IPC :1.69365: AVG IPC :1.88916: L2-Pf-HR :0.90113: L2-HR :0.87907: (Sim:0h9m0s) 
CPU  0 inst:   46000002 cyc:   24244772 now IPC :2.05594: AVG IPC :1.89265: L2-Pf-HR :0.90200: L2-HR :0.88063: (Sim:0h9m13s) 
CPU  0 inst:   47000003 cyc:   24726136 now IPC :2.07743: AVG IPC :1.89639: L2-Pf-HR :0.90290: L2-HR :0.88220: (Sim:0h9m26s) 
CPU  0 inst:   48000000 cyc:   25205487 now IPC :2.08615: AVG IPC :1.90015: L2-Pf-HR :0.90408: L2-HR :0.88394: (Sim:0h9m39s) 
CPU  0 inst:   49000004 cyc:   25851878 now IPC :1.54706: AVG IPC :1.89097: L2-Pf-HR :0.90415: L2-HR :0.88414: (Sim:0h9m53s) 
CPU  0 inst:   50000000 cyc:   26381064 now IPC :1.88969: AVG IPC :1.89094: L2-Pf-HR :0.90389: L2-HR :0.88368: (Sim:0h10m6s) 
CPU  0 inst:   51000002 cyc:   26914414 now IPC :1.87495: AVG IPC :1.89061: L2-Pf-HR :0.90363: L2-HR :0.88321: (Sim:0h10m20s) 
CPU  0 inst:   52000001 cyc:   27440028 now IPC :1.90253: AVG IPC :1.89085: L2-Pf-HR :0.90343: L2-HR :0.88282: (Sim:0h10m33s) 
CPU  0 inst:   53000005 cyc:   27969007 now IPC :1.89044: AVG IPC :1.89084: L2-Pf-HR :0.90322: L2-HR :0.88242: (Sim:0h10m45s) 
CPU  0 inst:   54000003 cyc:   28497467 now IPC :1.89229: AVG IPC :1.89087: L2-Pf-HR :0.90323: L2-HR :0.88222: (Sim:0h10m58s) 
CPU  0 inst:   55000002 cyc:   29150714 now IPC :1.53081: AVG IPC :1.88252: L2-Pf-HR :0.90280: L2-HR :0.88162: (Sim:0h11m12s) 
CPU  0 inst:   56000000 cyc:   29658178 now IPC :1.97058: AVG IPC :1.88407: L2-Pf-HR :0.90247: L2-HR :0.88120: (Sim:0h11m25s) 
CPU  0 inst:   57000004 cyc:   30157802 now IPC :2.00151: AVG IPC :1.88609: L2-Pf-HR :0.90218: L2-HR :0.88082: (Sim:0h11m38s) 
CPU  0 inst:   58000004 cyc:   30653989 now IPC :2.01537: AVG IPC :1.88825: L2-Pf-HR :0.90197: L2-HR :0.88051: (Sim:0h11m52s) 
CPU  0 inst:   59000005 cyc:   31152791 now IPC :2.00481: AVG IPC :1.89018: L2-Pf-HR :0.90169: L2-HR :0.88016: (Sim:0h12m4s) 
CPU  0 inst:   60000005 cyc:   31646896 now IPC :2.02386: AVG IPC :1.89233: L2-Pf-HR :0.90162: L2-HR :0.87998: (Sim:0h12m17s) 
CPU  0 inst:   61000002 cyc:   32238526 now IPC :1.69024: AVG IPC :1.88851: L2-Pf-HR :0.90155: L2-HR :0.87994: (Sim:0h12m31s) 
CPU  0 inst:   62000000 cyc:   32723655 now IPC :2.06130: AVG IPC :1.89115: L2-Pf-HR :0.90217: L2-HR :0.88106: (Sim:0h12m43s) 
CPU  0 inst:   63000001 cyc:   33199990 now IPC :2.09936: AVG IPC :1.89423: L2-Pf-HR :0.90284: L2-HR :0.88224: (Sim:0h12m56s) 
CPU  0 inst:   64000000 cyc:   33676070 now IPC :2.10049: AVG IPC :1.89723: L2-Pf-HR :0.90363: L2-HR :0.88348: (Sim:0h13m9s) 
CPU  0 inst:   65000005 cyc:   34313875 now IPC :1.56789: AVG IPC :1.89093: L2-Pf-HR :0.90390: L2-HR :0.88389: (Sim:0h13m23s) 
CPU  0 inst:   66000002 cyc:   34852005 now IPC :1.85828: AVG IPC :1.89041: L2-Pf-HR :0.90369: L2-HR :0.88355: (Sim:0h13m36s) 
CPU  0 inst:   67000001 cyc:   35378410 now IPC :1.89968: AVG IPC :1.89055: L2-Pf-HR :0.90350: L2-HR :0.88323: (Sim:0h13m50s) 
CPU  0 inst:   68000002 cyc:   35910346 now IPC :1.87993: AVG IPC :1.89039: L2-Pf-HR :0.90332: L2-HR :0.88292: (Sim:0h14m3s) 
CPU  0 inst:   69000005 cyc:   36436309 now IPC :1.90128: AVG IPC :1.89055: L2-Pf-HR :0.90315: L2-HR :0.88263: (Sim:0h14m17s) 
CPU  0 inst:   70000004 cyc:   36961574 now IPC :1.90380: AVG IPC :1.89074: L2-Pf-HR :0.90310: L2-HR :0.88243: (Sim:0h14m30s) 
CPU  0 inst:   71000005 cyc:   37607844 now IPC :1.54734: AVG IPC :1.88468: L2-Pf-HR :0.90289: L2-HR :0.88207: (Sim:0h14m44s) 
CPU  0 inst:   72000000 cyc:   38127593 now IPC :1.92400: AVG IPC :1.88523: L2-Pf-HR :0.90261: L2-HR :0.88173: (Sim:0h14m55s) 
CPU  0 inst:   73000002 cyc:   38622066 now IPC :2.02236: AVG IPC :1.88703: L2-Pf-HR :0.90239: L2-HR :0.88142: (Sim:0h15m6s) 
CPU  0 inst:   74000004 cyc:   39119670 now IPC :2.00963: AVG IPC :1.88863: L2-Pf-HR :0.90222: L2-HR :0.88119: (Sim:0h15m16s) 
CPU  0 inst:   75000003 cyc:   39614637 now IPC :2.02033: AVG IPC :1.89032: L2-Pf-HR :0.90204: L2-HR :0.88095: (Sim:0h15m30s) 
CPU  0 inst:   76000003 cyc:   40112309 now IPC :2.00936: AVG IPC :1.89184: L2-Pf-HR :0.90198: L2-HR :0.88079: (Sim:0h15m43s) 
CPU  0 inst:   77000003 cyc:   40695509 now IPC :1.71468: AVG IPC :1.88923: L2-Pf-HR :0.90196: L2-HR :0.88071: (Sim:0h15m57s) 
CPU  0 inst:   78000002 cyc:   41190494 now IPC :2.02026: AVG IPC :1.89085: L2-Pf-HR :0.90235: L2-HR :0.88151: (Sim:0h16m10s) 
CPU  0 inst:   79000004 cyc:   41668551 now IPC :2.09180: AVG IPC :1.89321: L2-Pf-HR :0.90287: L2-HR :0.88241: (Sim:0h16m23s) 
CPU  0 inst:   80000000 cyc:   42147503 now IPC :2.08788: AVG IPC :1.89548: L2-Pf-HR :0.90351: L2-HR :0.88341: (Sim:0h16m36s) 
CPU  0 inst:   81000000 cyc:   42769118 now IPC :1.60871: AVG IPC :1.89121: L2-Pf-HR :0.90388: L2-HR :0.88396: (Sim:0h16m49s) 
CPU  0 inst:   82000001 cyc:   43312556 now IPC :1.84014: AVG IPC :1.89055: L2-Pf-HR :0.90366: L2-HR :0.88362: (Sim:0h17m3s) 
CPU  0 inst:   83000003 cyc:   43841914 now IPC :1.88908: AVG IPC :1.89053: L2-Pf-HR :0.90353: L2-HR :0.88337: (Sim:0h17m16s) 
CPU  0 inst:   84000002 cyc:   44367214 now IPC :1.90367: AVG IPC :1.89069: L2-Pf-HR :0.90340: L2-HR :0.88312: (Sim:0h17m29s) 
CPU  0 inst:   85000001 cyc:   44895665 now IPC :1.89232: AVG IPC :1.89071: L2-Pf-HR :0.90326: L2-HR :0.88286: (Sim:0h17m43s) 
CPU  0 inst:   86000001 cyc:   45422066 now IPC :1.89969: AVG IPC :1.89082: L2-Pf-HR :0.90323: L2-HR :0.88270: (Sim:0h17m56s) 
CPU  0 inst:   87000000 cyc:   46033084 now IPC :1.63661: AVG IPC :1.88737: L2-Pf-HR :0.90315: L2-HR :0.88248: (Sim:0h18m10s) 
CPU  0 inst:   88000000 cyc:   46589510 now IPC :1.79718: AVG IPC :1.88627: L2-Pf-HR :0.90287: L2-HR :0.88212: (Sim:0h18m23s) 
CPU  0 inst:   89000000 cyc:   47091336 now IPC :1.99272: AVG IPC :1.88743: L2-Pf-HR :0.90270: L2-HR :0.88189: (Sim:0h18m37s) 
CPU  0 inst:   90000004 cyc:   47585593 now IPC :2.02325: AVG IPC :1.88887: L2-Pf-HR :0.90257: L2-HR :0.88168: (Sim:0h18m50s) 
CPU  0 inst:   91000000 cyc:   48082736 now IPC :2.01149: AVG IPC :1.89016: L2-Pf-HR :0.90240: L2-HR :0.88145: (Sim:0h19m4s) 
CPU  0 inst:   92000001 cyc:   48578389 now IPC :2.01754: AVG IPC :1.89149: L2-Pf-HR :0.90231: L2-HR :0.88129: (Sim:0h19m17s) 
CPU  0 inst:   93000005 cyc:   49145592 now IPC :1.76304: AVG IPC :1.88998: L2-Pf-HR :0.90229: L2-HR :0.88115: (Sim:0h19m31s) 
CPU  0 inst:   94000004 cyc:   49659474 now IPC :1.94597: AVG IPC :1.89057: L2-Pf-HR :0.90253: L2-HR :0.88172: (Sim:0h19m44s) 
CPU  0 inst:   95000001 cyc:   50139231 now IPC :2.08438: AVG IPC :1.89246: L2-Pf-HR :0.90295: L2-HR :0.88246: (Sim:0h19m57s) 
CPU  0 inst:   96000000 cyc:   50620732 now IPC :2.07684: AVG IPC :1.89425: L2-Pf-HR :0.90345: L2-HR :0.88326: (Sim:0h20m10s) 
CPU  0 inst:   97000002 cyc:   51183783 now IPC :1.77604: AVG IPC :1.89292: L2-Pf-HR :0.90394: L2-HR :0.88393: (Sim:0h20m23s) 
CPU  0 inst:   98000003 cyc:   51781912 now IPC :1.67188: AVG IPC :1.89032: L2-Pf-HR :0.90371: L2-HR :0.88362: (Sim:0h20m37s) 
CPU  0 inst:   99000001 cyc:   52310504 now IPC :1.89181: AVG IPC :1.89034: L2-Pf-HR :0.90362: L2-HR :0.88345: (Sim:0h20m50s) 
CPU  0 inst:  100000005 cyc:   52838434 now IPC :1.89420: AVG IPC :1.89038: L2-Pf-HR :0.90353: L2-HR :0.88326: (Sim:0h21m4s) 
CPU  0 inst:  101000003 cyc:   53369322 now IPC :1.88363: AVG IPC :1.89031: L2-Pf-HR :0.90344: L2-HR :0.88309: (Sim:0h21m17s) 
CPU  0 inst:  102000002 cyc:   53898226 now IPC :1.89070: AVG IPC :1.89031: L2-Pf-HR :0.90339: L2-HR :0.88294: (Sim:0h21m31s) 
CPU  0 inst:  103000000 cyc:   54421712 now IPC :1.91027: AVG IPC :1.89051: L2-Pf-HR :0.90347: L2-HR :0.88291: (Sim:0h21m44s) 
CPU  0 inst:  104000000 cyc:   55074227 now IPC :1.53253: AVG IPC :1.88619: L2-Pf-HR :0.90312: L2-HR :0.88252: (Sim:0h21m57s) 
CPU  0 inst:  105000004 cyc:   55572869 now IPC :2.00545: AVG IPC :1.88728: L2-Pf-HR :0.90297: L2-HR :0.88229: (Sim:0h22m10s) 
CPU  0 inst:  106000002 cyc:   56073287 now IPC :1.99833: AVG IPC :1.88829: L2-Pf-HR :0.90283: L2-HR :0.88210: (Sim:0h22m23s) 
CPU  0 inst:  107000003 cyc:   56569481 now IPC :2.01534: AVG IPC :1.88942: L2-Pf-HR :0.90271: L2-HR :0.88192: (Sim:0h22m36s) 
CPU  0 inst:  108000002 cyc:   57069279 now IPC :2.00081: AVG IPC :1.89041: L2-Pf-HR :0.90262: L2-HR :0.88175: (Sim:0h22m48s) 
CPU  0 inst:  109000000 cyc:   57569667 now IPC :1.99845: AVG IPC :1.89137: L2-Pf-HR :0.90272: L2-HR :0.88174: (Sim:0h22m59s) 
CPU  0 inst:  110000002 cyc:   58158516 now IPC :1.69823: AVG IPC :1.88938: L2-Pf-HR :0.90276: L2-HR :0.88202: (Sim:0h23m13s) 
CPU  0 inst:  111000002 cyc:   58640482 now IPC :2.07484: AVG IPC :1.89093: L2-Pf-HR :0.90314: L2-HR :0.88266: (Sim:0h23m26s) 
CPU  0 inst:  112000000 cyc:   59114370 now IPC :2.11020: AVG IPC :1.89272: L2-Pf-HR :0.90353: L2-HR :0.88331: (Sim:0h23m40s) 
CPU  0 inst:  113000002 cyc:   59590691 now IPC :2.09943: AVG IPC :1.89440: L2-Pf-HR :0.90416: L2-HR :0.88416: (Sim:0h23m53s) 
CPU  0 inst:  114000003 cyc:   60268342 now IPC :1.47569: AVG IPC :1.88961: L2-Pf-HR :0.90383: L2-HR :0.88376: (Sim:0h24m7s) 
CPU  0 inst:  115000000 cyc:   60798019 now IPC :1.88794: AVG IPC :1.88960: L2-Pf-HR :0.90377: L2-HR :0.88361: (Sim:0h24m20s) 
CPU  0 inst:  116000002 cyc:   61326000 now IPC :1.89401: AVG IPC :1.88964: L2-Pf-HR :0.90368: L2-HR :0.88345: (Sim:0h24m33s) 
CPU  0 inst:  117000003 cyc:   61854598 now IPC :1.89180: AVG IPC :1.88965: L2-Pf-HR :0.90363: L2-HR :0.88331: (Sim:0h24m47s) 
CPU  0 inst:  118000000 cyc:   62383548 now IPC :1.89053: AVG IPC :1.88966: L2-Pf-HR :0.90357: L2-HR :0.88318: (Sim:0h25m0s) 
CPU  0 inst:  119000005 cyc:   62908229 now IPC :1.90593: AVG IPC :1.88980: L2-Pf-HR :0.90368: L2-HR :0.88319: (Sim:0h25m13s) 
CPU  0 inst:  120000000 cyc:   63558645 now IPC :1.53747: AVG IPC :1.88614: L2-Pf-HR :0.90334: L2-HR :0.88281: (Sim:0h25m27s) 
CPU  0 inst:  121000002 cyc:   64060061 now IPC :1.99436: AVG IPC :1.88700: L2-Pf-HR :0.90318: L2-HR :0.88262: (Sim:0h25m41s) 
CPU  0 inst:  122000002 cyc:   64553709 now IPC :2.02573: AVG IPC :1.88807: L2-Pf-HR :0.90305: L2-HR :0.88244: (Sim:0h25m54s) 
CPU  0 inst:  123000000 cyc:   65049104 now IPC :2.01859: AVG IPC :1.88908: L2-Pf-HR :0.90292: L2-HR :0.88227: (Sim:0h26m7s) 
CPU  0 inst:  124000001 cyc:   65545290 now IPC :2.01538: AVG IPC :1.89005: L2-Pf-HR :0.90281: L2-HR :0.88212: (Sim:0h26m21s) 
CPU  0 inst:  125000002 cyc:   66040525 now IPC :2.01925: AVG IPC :1.89104: L2-Pf-HR :0.90292: L2-HR :0.88213: (Sim:0h26m34s) 
CPU  0 inst:  126000005 cyc:   66637683 now IPC :1.67460: AVG IPC :1.88907: L2-Pf-HR :0.90289: L2-HR :0.88227: (Sim:0h26m48s) 
CPU  0 inst:  127000000 cyc:   67123725 now IPC :2.05743: AVG IPC :1.89031: L2-Pf-HR :0.90322: L2-HR :0.88283: (Sim:0h27m1s) 
CPU  0 inst:  128000000 cyc:   67597560 now IPC :2.11044: AVG IPC :1.89187: L2-Pf-HR :0.90354: L2-HR :0.88338: (Sim:0h27m14s) 
CPU  0 inst:  129000001 cyc:   68071859 now IPC :2.10838: AVG IPC :1.89340: L2-Pf-HR :0.90408: L2-HR :0.88410: (Sim:0h27m27s) 
CPU  0 inst:  130000000 cyc:   68742452 now IPC :1.49122: AVG IPC :1.88942: L2-Pf-HR :0.90387: L2-HR :0.88386: (Sim:0h27m41s) 
CPU  0 inst:  131000003 cyc:   69274040 now IPC :1.88116: AVG IPC :1.88936: L2-Pf-HR :0.90378: L2-HR :0.88370: (Sim:0h27m54s) 
CPU  0 inst:  132000005 cyc:   69798464 now IPC :1.90686: AVG IPC :1.88949: L2-Pf-HR :0.90367: L2-HR :0.88353: (Sim:0h28m5s) 
CPU  0 inst:  133000000 cyc:   70325608 now IPC :1.89701: AVG IPC :1.88955: L2-Pf-HR :0.90357: L2-HR :0.88337: (Sim:0h28m19s) 
CPU  0 inst:  134000004 cyc:   70851879 now IPC :1.90017: AVG IPC :1.88963: L2-Pf-HR :0.90349: L2-HR :0.88323: (Sim:0h28m32s) 
CPU  0 inst:  135000002 cyc:   71380930 now IPC :1.89017: AVG IPC :1.88963: L2-Pf-HR :0.90355: L2-HR :0.88318: (Sim:0h28m45s) 
CPU  0 inst:  136000000 cyc:   72027884 now IPC :1.54570: AVG IPC :1.88650: L2-Pf-HR :0.90328: L2-HR :0.88287: (Sim:0h28m59s) 
CPU  0 inst:  137000001 cyc:   72524483 now IPC :2.01370: AVG IPC :1.88738: L2-Pf-HR :0.90317: L2-HR :0.88270: (Sim:0h29m12s) 
CPU  0 inst:  138000001 cyc:   73025539 now IPC :1.99578: AVG IPC :1.88814: L2-Pf-HR :0.90308: L2-HR :0.88256: (Sim:0h29m26s) 
CPU  0 inst:  139000000 cyc:   73524124 now IPC :2.00567: AVG IPC :1.88895: L2-Pf-HR :0.90299: L2-HR :0.88243: (Sim:0h29m39s) 
CPU  0 inst:  140000004 cyc:   74020591 now IPC :2.01424: AVG IPC :1.88980: L2-Pf-HR :0.90289: L2-HR :0.88227: (Sim:0h29m47s) 
CPU  0 inst:  141000004 cyc:   74514480 now IPC :2.02475: AVG IPC :1.89070: L2-Pf-HR :0.90294: L2-HR :0.88225: (Sim:0h30m0s) 
CPU  0 inst:  142000003 cyc:   75110125 now IPC :1.67885: AVG IPC :1.88900: L2-Pf-HR :0.90292: L2-HR :0.88234: (Sim:0h30m13s) 
CPU  0 inst:  143000000 cyc:   75592307 now IPC :2.07390: AVG IPC :1.89020: L2-Pf-HR :0.90317: L2-HR :0.88279: (Sim:0h30m26s) 
CPU  0 inst:  144000000 cyc:   76067050 now IPC :2.10640: AVG IPC :1.89156: L2-Pf-HR :0.90346: L2-HR :0.88330: (Sim:0h30m39s) 
CPU  0 inst:  145000000 cyc:   76542414 now IPC :2.10365: AVG IPC :1.89290: L2-Pf-HR :0.90390: L2-HR :0.88391: (Sim:0h30m52s) 
CPU  0 inst:  146000003 cyc:   77211863 now IPC :1.49377: AVG IPC :1.88939: L2-Pf-HR :0.90381: L2-HR :0.88382: (Sim:0h31m6s) 
CPU  0 inst:  147000004 cyc:   77745153 now IPC :1.87515: AVG IPC :1.88929: L2-Pf-HR :0.90372: L2-HR :0.88366: (Sim:0h31m19s) 
CPU  0 inst:  148000003 cyc:   78274696 now IPC :1.88842: AVG IPC :1.88929: L2-Pf-HR :0.90362: L2-HR :0.88351: (Sim:0h31m33s) 
CPU  0 inst:  149000000 cyc:   78797975 now IPC :1.91102: AVG IPC :1.88943: L2-Pf-HR :0.90355: L2-HR :0.88338: (Sim:0h31m46s) 
CPU  0 inst:  150000002 cyc:   79326142 now IPC :1.89334: AVG IPC :1.88946: L2-Pf-HR :0.90349: L2-HR :0.88327: (Sim:0h31m59s) 
CPU  0 inst:  151000005 cyc:   79853570 now IPC :1.89600: AVG IPC :1.88950: L2-Pf-HR :0.90352: L2-HR :0.88322: (Sim:0h32m11s) 
CPU  0 inst:  152000000 cyc:   80509143 now IPC :1.52538: AVG IPC :1.88650: L2-Pf-HR :0.90333: L2-HR :0.88298: (Sim:0h32m24s) 
CPU  0 inst:  153000004 cyc:   81013247 now IPC :1.98373: AVG IPC :1.88711: L2-Pf-HR :0.90321: L2-HR :0.88283: (Sim:0h32m38s) 
CPU  0 inst:  154000002 cyc:   81509447 now IPC :2.01531: AVG IPC :1.88790: L2-Pf-HR :0.90313: L2-HR :0.88269: (Sim:0h32m51s) 
CPU  0 inst:  155000003 cyc:   82005181 now IPC :2.01721: AVG IPC :1.88870: L2-Pf-HR :0.90306: L2-HR :0.88258: (Sim:0h33m3s) 
CPU  0 inst:  156000003 cyc:   82502698 now IPC :2.00998: AVG IPC :1.88944: L2-Pf-HR :0.90297: L2-HR :0.88245: (Sim:0h33m14s) 
CPU  0 inst:  157000001 cyc:   82996262 now IPC :2.02608: AVG IPC :1.89026: L2-Pf-HR :0.90300: L2-HR :0.88242: (Sim:0h33m27s) 
CPU  0 inst:  158000000 cyc:   83586910 now IPC :1.69305: AVG IPC :1.88885: L2-Pf-HR :0.90298: L2-HR :0.88245: (Sim:0h33m40s) 
CPU  0 inst:  159000001 cyc:   84072583 now IPC :2.05900: AVG IPC :1.88984: L2-Pf-HR :0.90320: L2-HR :0.88286: (Sim:0h33m53s) 
CPU  0 inst:  160000000 cyc:   84550704 now IPC :2.09152: AVG IPC :1.89100: L2-Pf-HR :0.90347: L2-HR :0.88331: (Sim:0h34m6s) 
CPU  0 inst:  161000003 cyc:   85025336 now IPC :2.10690: AVG IPC :1.89222: L2-Pf-HR :0.90381: L2-HR :0.88382: (Sim:0h34m18s) 
CPU  0 inst:  162000000 cyc:   85676979 now IPC :1.53458: AVG IPC :1.88946: L2-Pf-HR :0.90381: L2-HR :0.88384: (Sim:0h34m32s) 
CPU  0 inst:  163000001 cyc:   86208584 now IPC :1.88110: AVG IPC :1.88941: L2-Pf-HR :0.90374: L2-HR :0.88371: (Sim:0h34m45s) 
CPU  0 inst:  164000002 cyc:   86734727 now IPC :1.90063: AVG IPC :1.88948: L2-Pf-HR :0.90367: L2-HR :0.88359: (Sim:0h34m59s) 
CPU  0 inst:  165000000 cyc:   87263693 now IPC :1.89048: AVG IPC :1.88949: L2-Pf-HR :0.90361: L2-HR :0.88348: (Sim:0h35m12s) 
CPU  0 inst:  166000001 cyc:   87793525 now IPC :1.88739: AVG IPC :1.88947: L2-Pf-HR :0.90357: L2-HR :0.88337: (Sim:0h35m25s) 
CPU  0 inst:  167000005 cyc:   88317828 now IPC :1.90730: AVG IPC :1.88958: L2-Pf-HR :0.90358: L2-HR :0.88331: (Sim:0h35m38s) 
CPU  0 inst:  168000000 cyc:   88959398 now IPC :1.55867: AVG IPC :1.88717: L2-Pf-HR :0.90343: L2-HR :0.88313: (Sim:0h35m52s) 
CPU  0 inst:  169000000 cyc:   89463858 now IPC :1.98232: AVG IPC :1.88771: L2-Pf-HR :0.90332: L2-HR :0.88298: (Sim:0h36m5s) 
CPU  0 inst:  170000002 cyc:   89964475 now IPC :1.99754: AVG IPC :1.88833: L2-Pf-HR :0.90323: L2-HR :0.88286: (Sim:0h36m19s) 
CPU  0 inst:  171000001 cyc:   90462625 now IPC :2.00743: AVG IPC :1.88899: L2-Pf-HR :0.90314: L2-HR :0.88274: (Sim:0h36m32s) 
CPU  0 inst:  172000003 cyc:   90960020 now IPC :2.01048: AVG IPC :1.88966: L2-Pf-HR :0.90305: L2-HR :0.88261: (Sim:0h36m45s) 
CPU  0 inst:  173000002 cyc:   91453543 now IPC :2.02625: AVG IPC :1.89041: L2-Pf-HR :0.90305: L2-HR :0.88256: (Sim:0h36m58s) 
CPU  0 inst:  174000001 cyc:   92043052 now IPC :1.69633: AVG IPC :1.88915: L2-Pf-HR :0.90303: L2-HR :0.88256: (Sim:0h37m11s) 
CPU  0 inst:  175000001 cyc:   92524275 now IPC :2.07804: AVG IPC :1.89014: L2-Pf-HR :0.90322: L2-HR :0.88292: (Sim:0h37m24s) 
CPU  0 inst:  176000000 cyc:   93006105 now IPC :2.07542: AVG IPC :1.89111: L2-Pf-HR :0.90345: L2-HR :0.88331: (Sim:0h37m37s) 
CPU  0 inst:  177000003 cyc:   93482796 now IPC :2.09780: AVG IPC :1.89218: L2-Pf-HR :0.90374: L2-HR :0.88376: (Sim:0h37m50s) 
CPU  0 inst:  178000000 cyc:   94128047 now IPC :1.54978: AVG IPC :1.88981: L2-Pf-HR :0.90382: L2-HR :0.88387: (Sim:0h38m4s) 
CPU  0 inst:  179000003 cyc:   94662076 now IPC :1.87256: AVG IPC :1.88971: L2-Pf-HR :0.90374: L2-HR :0.88374: (Sim:0h38m17s) 
CPU  0 inst:  180000002 cyc:   95194373 now IPC :1.87865: AVG IPC :1.88965: L2-Pf-HR :0.90369: L2-HR :0.88364: (Sim:0h38m31s) 
CPU  0 inst:  181000000 cyc:   95722211 now IPC :1.89452: AVG IPC :1.88967: L2-Pf-HR :0.90364: L2-HR :0.88353: (Sim:0h38m44s) 
CPU  0 inst:  182000001 cyc:   96250285 now IPC :1.89368: AVG IPC :1.88970: L2-Pf-HR :0.90361: L2-HR :0.88345: (Sim:0h38m58s) 
CPU  0 inst:  183000005 cyc:   96777339 now IPC :1.89735: AVG IPC :1.88974: L2-Pf-HR :0.90359: L2-HR :0.88337: (Sim:0h39m11s) 
CPU  0 inst:  184000000 cyc:   97428414 now IPC :1.53591: AVG IPC :1.88735: L2-Pf-HR :0.90349: L2-HR :0.88321: (Sim:0h39m24s) 
CPU  0 inst:  185000001 cyc:   97941799 now IPC :1.94786: AVG IPC :1.88767: L2-Pf-HR :0.90338: L2-HR :0.88308: (Sim:0h39m37s) 
CPU  0 inst:  186000003 cyc:   98439255 now IPC :2.01023: AVG IPC :1.88830: L2-Pf-HR :0.90331: L2-HR :0.88297: (Sim:0h39m49s) 
CPU  0 inst:  187000004 cyc:   98935775 now IPC :2.01402: AVG IPC :1.88893: L2-Pf-HR :0.90325: L2-HR :0.88287: (Sim:0h40m2s) 
CPU  0 inst:  188000004 cyc:   99433591 now IPC :2.00877: AVG IPC :1.88954: L2-Pf-HR :0.90317: L2-HR :0.88276: (Sim:0h40m15s) 
CPU  0 inst:  189000004 cyc:   99931369 now IPC :2.00893: AVG IPC :1.89014: L2-Pf-HR :0.90313: L2-HR :0.88268: (Sim:0h40m28s) 
CPU  0 inst:  190000004 cyc:  100519649 now IPC :1.69987: AVG IPC :1.88902: L2-Pf-HR :0.90310: L2-HR :0.88262: (Sim:0h40m42s) 
CPU  0 inst:  191000004 cyc:  101013536 now IPC :2.02475: AVG IPC :1.88969: L2-Pf-HR :0.90325: L2-HR :0.88293: (Sim:0h40m55s) 
CPU  0 inst:  192000000 cyc:  101488982 now IPC :2.10328: AVG IPC :1.89070: L2-Pf-HR :0.90346: L2-HR :0.88329: (Sim:0h41m9s) 
CPU  0 inst:  193000001 cyc:  101967915 now IPC :2.08798: AVG IPC :1.89163: L2-Pf-HR :0.90371: L2-HR :0.88368: (Sim:0h41m21s) 
CPU  0 inst:  194000000 cyc:  102592807 now IPC :1.60027: AVG IPC :1.88984: L2-Pf-HR :0.90385: L2-HR :0.88389: (Sim:0h41m35s) 
CPU  0 inst:  195000002 cyc:  103137592 now IPC :1.83559: AVG IPC :1.88955: L2-Pf-HR :0.90378: L2-HR :0.88377: (Sim:0h41m48s) 
CPU  0 inst:  196000004 cyc:  103665789 now IPC :1.89324: AVG IPC :1.88957: L2-Pf-HR :0.90372: L2-HR :0.88366: (Sim:0h42m1s) 
CPU  0 inst:  197000003 cyc:  104193298 now IPC :1.89570: AVG IPC :1.88960: L2-Pf-HR :0.90366: L2-HR :0.88356: (Sim:0h42m14s) 
CPU  0 inst:  198000002 cyc:  104719789 now IPC :1.89937: AVG IPC :1.88965: L2-Pf-HR :0.90360: L2-HR :0.88345: (Sim:0h42m26s) 
CPU  0 inst:  199000002 cyc:  105248877 now IPC :1.89004: AVG IPC :1.88965: L2-Pf-HR :0.90359: L2-HR :0.88339: (Sim:0h42m40s) 
CPU  0 inst:  200000000 cyc:  105886478 now IPC :1.56838: AVG IPC :1.88770: L2-Pf-HR :0.90355: L2-HR :0.88329: (Sim:0h42m54s) 
CPU  0 inst:  201000001 cyc:  106415549 now IPC :1.89011: AVG IPC :1.88771: L2-Pf-HR :0.90343: L2-HR :0.88314: (Sim:0h43m5s) 
CPU  0 inst:  202000004 cyc:  106917300 now IPC :1.99303: AVG IPC :1.88821: L2-Pf-HR :0.90336: L2-HR :0.88304: (Sim:0h43m18s) 
CPU  0 inst:  203000004 cyc:  107412626 now IPC :2.01887: AVG IPC :1.88882: L2-Pf-HR :0.90330: L2-HR :0.88295: (Sim:0h43m31s) 
CPU  0 inst:  204000002 cyc:  107907456 now IPC :2.02089: AVG IPC :1.88943: L2-Pf-HR :0.90323: L2-HR :0.88285: (Sim:0h43m44s) 
CPU  0 inst:  205000001 cyc:  108401376 now IPC :2.02462: AVG IPC :1.89005: L2-Pf-HR :0.90318: L2-HR :0.88277: (Sim:0h43m57s) 
CPU  0 inst:  206000004 cyc:  108984246 now IPC :1.71565: AVG IPC :1.88911: L2-Pf-HR :0.90318: L2-HR :0.88272: (Sim:0h44m11s) 
CPU  0 inst:  207000003 cyc:  109495567 now IPC :1.95572: AVG IPC :1.88942: L2-Pf-HR :0.90329: L2-HR :0.88297: (Sim:0h44m23s) 
CPU  0 inst:  208000000 cyc:  109976426 now IPC :2.07961: AVG IPC :1.89026: L2-Pf-HR :0.90349: L2-HR :0.88331: (Sim:0h44m32s) 
CPU  0 inst:  209000001 cyc:  110455920 now IPC :2.08553: AVG IPC :1.89112: L2-Pf-HR :0.90371: L2-HR :0.88367: (Sim:0h44m41s) 
CPU  0 inst:  210000000 cyc:  111050968 now IPC :1.68053: AVG IPC :1.88998: L2-Pf-HR :0.90390: L2-HR :0.88394: (Sim:0h44m53s) 
CPU  0 inst:  211000001 cyc:  111617408 now IPC :1.76541: AVG IPC :1.88934: L2-Pf-HR :0.90382: L2-HR :0.88381: (Sim:0h45m5s) 
CPU  0 inst:  212000002 cyc:  112144358 now IPC :1.89772: AVG IPC :1.88938: L2-Pf-HR :0.90375: L2-HR :0.88370: (Sim:0h45m18s) 
CPU  0 inst:  213000000 cyc:  112672016 now IPC :1.89516: AVG IPC :1.88941: L2-Pf-HR :0.90370: L2-HR :0.88361: (Sim:0h45m31s) 
CPU  0 inst:  214000001 cyc:  113200163 now IPC :1.89341: AVG IPC :1.88943: L2-Pf-HR :0.90365: L2-HR :0.88352: (Sim:0h45m44s) 
CPU  0 inst:  215000001 cyc:  113725741 now IPC :1.90267: AVG IPC :1.88949: L2-Pf-HR :0.90363: L2-HR :0.88345: (Sim:0h45m58s) 
CPU  0 inst:  216000000 cyc:  114288041 now IPC :1.77841: AVG IPC :1.88894: L2-Pf-HR :0.90364: L2-HR :0.88342: (Sim:0h46m11s) 
CPU  0 inst:  217000000 cyc:  114893292 now IPC :1.65221: AVG IPC :1.88768: L2-Pf-HR :0.90348: L2-HR :0.88324: (Sim:0h46m25s) 
CPU  0 inst:  218000004 cyc:  115392045 now IPC :2.00501: AVG IPC :1.88819: L2-Pf-HR :0.90340: L2-HR :0.88313: (Sim:0h46m39s) 
CPU  0 inst:  219000002 cyc:  115887506 now IPC :2.01832: AVG IPC :1.88875: L2-Pf-HR :0.90334: L2-HR :0.88304: (Sim:0h46m52s) 
CPU  0 inst:  220000000 cyc:  116381104 now IPC :2.02594: AVG IPC :1.88934: L2-Pf-HR :0.90327: L2-HR :0.88294: (Sim:0h47m3s) 
CPU  0 inst:  221000000 cyc:  116877499 now IPC :2.01452: AVG IPC :1.88988: L2-Pf-HR :0.90322: L2-HR :0.88287: (Sim:0h47m15s) 
CPU  0 inst:  222000003 cyc:  117396712 now IPC :1.92600: AVG IPC :1.89004: L2-Pf-HR :0.90325: L2-HR :0.88285: (Sim:0h47m28s) 
CPU  0 inst:  223000003 cyc:  117961505 now IPC :1.77056: AVG IPC :1.88946: L2-Pf-HR :0.90329: L2-HR :0.88301: (Sim:0h47m42s) 
CPU  0 inst:  224000000 cyc:  118438450 now IPC :2.09667: AVG IPC :1.89030: L2-Pf-HR :0.90347: L2-HR :0.88332: (Sim:0h47m55s) 
CPU  0 inst:  225000002 cyc:  118915321 now IPC :2.09701: AVG IPC :1.89114: L2-Pf-HR :0.90367: L2-HR :0.88365: (Sim:0h48m7s) 
CPU  0 inst:  226000002 cyc:  119421195 now IPC :1.97678: AVG IPC :1.89150: L2-Pf-HR :0.90396: L2-HR :0.88403: (Sim:0h48m20s) 
CPU  0 inst:  227000004 cyc:  120081270 now IPC :1.51498: AVG IPC :1.88942: L2-Pf-HR :0.90380: L2-HR :0.88383: (Sim:0h48m34s) 
CPU  0 inst:  228000004 cyc:  120605143 now IPC :1.90886: AVG IPC :1.88950: L2-Pf-HR :0.90375: L2-HR :0.88374: (Sim:0h48m43s) 
CPU  0 inst:  229000000 cyc:  121135438 now IPC :1.88574: AVG IPC :1.88949: L2-Pf-HR :0.90370: L2-HR :0.88364: (Sim:0h48m56s) 
CPU  0 inst:  230000001 cyc:  121662292 now IPC :1.89806: AVG IPC :1.88952: L2-Pf-HR :0.90366: L2-HR :0.88356: (Sim:0h49m10s) 
CPU  0 inst:  231000002 cyc:  122190375 now IPC :1.89364: AVG IPC :1.88954: L2-Pf-HR :0.90364: L2-HR :0.88349: (Sim:0h49m24s) 
CPU  0 inst:  232000000 cyc:  122711737 now IPC :1.91805: AVG IPC :1.88966: L2-Pf-HR :0.90371: L2-HR :0.88349: (Sim:0h49m38s) 
CPU  0 inst:  233000005 cyc:  123351641 now IPC :1.56274: AVG IPC :1.88795: L2-Pf-HR :0.90351: L2-HR :0.88328: (Sim:0h49m51s) 
CPU  0 inst:  234000004 cyc:  123855406 now IPC :1.98505: AVG IPC :1.88835: L2-Pf-HR :0.90343: L2-HR :0.88318: (Sim:0h50m2s) 
CPU  0 inst:  235000002 cyc:  124352791 now IPC :2.01051: AVG IPC :1.88884: L2-Pf-HR :0.90336: L2-HR :0.88308: (Sim:0h50m15s) 
CPU  0 inst:  236000004 cyc:  124848411 now IPC :2.01768: AVG IPC :1.88936: L2-Pf-HR :0.90328: L2-HR :0.88298: (Sim:0h50m29s) 
CPU  0 inst:  237000004 cyc:  125346496 now IPC :2.00769: AVG IPC :1.88983: L2-Pf-HR :0.90321: L2-HR :0.88288: (Sim:0h50m42s) 
CPU  0 inst:  238000004 cyc:  125838763 now IPC :2.03142: AVG IPC :1.89039: L2-Pf-HR :0.90325: L2-HR :0.88287: (Sim:0h50m56s) 
CPU  0 inst:  239000001 cyc:  126436567 now IPC :1.67278: AVG IPC :1.88935: L2-Pf-HR :0.90325: L2-HR :0.88296: (Sim:0h51m10s) 
CPU  0 inst:  240000000 cyc:  126917210 now IPC :2.08054: AVG IPC :1.89008: L2-Pf-HR :0.90341: L2-HR :0.88324: (Sim:0h51m23s) 
CPU  0 inst:  241000001 cyc:  127399714 now IPC :2.07252: AVG IPC :1.89078: L2-Pf-HR :0.90359: L2-HR :0.88354: (Sim:0h51m36s) 
CPU  0 inst:  242000000 cyc:  127874002 now IPC :2.10842: AVG IPC :1.89159: L2-Pf-HR :0.90387: L2-HR :0.88392: (Sim:0h51m49s) 
CPU  0 inst:  243000001 cyc:  128548433 now IPC :1.48273: AVG IPC :1.88943: L2-Pf-HR :0.90374: L2-HR :0.88377: (Sim:0h52m4s) 
CPU  0 inst:  244000004 cyc:  129080048 now IPC :1.88107: AVG IPC :1.88940: L2-Pf-HR :0.90370: L2-HR :0.88368: (Sim:0h52m18s) 
CPU  0 inst:  245000000 cyc:  129604356 now IPC :1.90727: AVG IPC :1.88947: L2-Pf-HR :0.90365: L2-HR :0.88359: (Sim:0h52m32s) 
CPU  0 inst:  246000002 cyc:  130131940 now IPC :1.89544: AVG IPC :1.88949: L2-Pf-HR :0.90362: L2-HR :0.88352: (Sim:0h52m46s) 
CPU  0 inst:  247000005 cyc:  130659350 now IPC :1.89606: AVG IPC :1.88952: L2-Pf-HR :0.90358: L2-HR :0.88343: (Sim:0h52m59s) 
CPU  0 inst:  248000000 cyc:  131186767 now IPC :1.89602: AVG IPC :1.88955: L2-Pf-HR :0.90362: L2-HR :0.88342: (Sim:0h53m11s) 
CPU  0 inst:  249000002 cyc:  131833522 now IPC :1.54618: AVG IPC :1.88785: L2-Pf-HR :0.90347: L2-HR :0.88325: (Sim:0h53m26s) 
CPU  0 inst:  250000004 cyc:  132332407 now IPC :2.00447: AVG IPC :1.88829: L2-Pf-HR :0.90341: L2-HR :0.88316: (Sim:0h53m37s) 
CPU  0 inst:  251000002 cyc:  132829004 now IPC :2.01370: AVG IPC :1.88877: L2-Pf-HR :0.90336: L2-HR :0.88308: (Sim:0h53m48s) 
CPU  0 inst:  252000000 cyc:  133328320 now IPC :2.00274: AVG IPC :1.88920: L2-Pf-HR :0.90330: L2-HR :0.88300: (Sim:0h54m1s) 
CPU  0 inst:  253000001 cyc:  133826158 now IPC :2.00869: AVG IPC :1.88964: L2-Pf-HR :0.90326: L2-HR :0.88292: (Sim:0h54m14s) 
CPU  0 inst:  254000002 cyc:  134320907 now IPC :2.02123: AVG IPC :1.89013: L2-Pf-HR :0.90329: L2-HR :0.88291: (Sim:0h54m27s) 
CPU  0 inst:  255000001 cyc:  134914808 now IPC :1.68378: AVG IPC :1.88922: L2-Pf-HR :0.90328: L2-HR :0.88296: (Sim:0h54m41s) 
CPU  0 inst:  256000000 cyc:  135398748 now IPC :2.06637: AVG IPC :1.88985: L2-Pf-HR :0.90343: L2-HR :0.88323: (Sim:0h54m54s) 
CPU  0 inst:  257000000 cyc:  135880233 now IPC :2.07691: AVG IPC :1.89052: L2-Pf-HR :0.90360: L2-HR :0.88351: (Sim:0h55m8s) 
CPU  0 inst:  258000000 cyc:  136355727 now IPC :2.10308: AVG IPC :1.89127: L2-Pf-HR :0.90384: L2-HR :0.88385: (Sim:0h55m21s) 
CPU  0 inst:  259000000 cyc:  139949783 now IPC :0.27824: AVG IPC :1.84955: L2-Pf-HR :0.90251: L2-HR :0.88162: (Sim:0h55m47s) 
CPU  0 inst:  260000002 cyc:  144704321 now IPC :0.21033: AVG IPC :1.79531: L2-Pf-HR :0.90059: L2-HR :0.87851: (Sim:0h56m22s) 
CPU  0 inst:  261000004 cyc:  149449660 now IPC :0.21073: AVG IPC :1.74466: L2-Pf-HR :0.89869: L2-HR :0.87545: (Sim:0h56m54s) 
CPU  0 inst:  262000000 cyc:  154204633 now IPC :0.21031: AVG IPC :1.69704: L2-Pf-HR :0.89679: L2-HR :0.87244: (Sim:0h57m27s) 
CPU  0 inst:  263000005 cyc:  158955588 now IPC :0.21049: AVG IPC :1.65233: L2-Pf-HR :0.89490: L2-HR :0.86949: (Sim:0h58m3s) 
CPU  0 inst:  264000000 cyc:  163721541 now IPC :0.20982: AVG IPC :1.61008: L2-Pf-HR :0.89303: L2-HR :0.86659: (Sim:0h58m39s) 
CPU  0 inst:  265000000 cyc:  168494771 now IPC :0.20950: AVG IPC :1.57017: L2-Pf-HR :0.89116: L2-HR :0.86374: (Sim:0h59m14s) 
CPU  0 inst:  266000005 cyc:  173272462 now IPC :0.20931: AVG IPC :1.53243: L2-Pf-HR :0.88930: L2-HR :0.86094: (Sim:0h59m48s) 
CPU  0 inst:  267000004 cyc:  178025734 now IPC :0.21038: AVG IPC :1.49693: L2-Pf-HR :0.88747: L2-HR :0.85818: (Sim:1h0m22s) 
CPU  0 inst:  268000000 cyc:  182505757 now IPC :0.22321: AVG IPC :1.46549: L2-Pf-HR :0.88601: L2-HR :0.85602: (Sim:1h0m53s) 
CPU  0 inst:  269000000 cyc:  186219708 now IPC :0.26926: AVG IPC :1.44151: L2-Pf-HR :0.88590: L2-HR :0.85579: (Sim:1h1m19s) 
CPU  0 inst:  270000000 cyc:  189933351 now IPC :0.26928: AVG IPC :1.41847: L2-Pf-HR :0.88579: L2-HR :0.85557: (Sim:1h1m46s) 
CPU  0 inst:  271000000 cyc:  193645833 now IPC :0.26936: AVG IPC :1.39632: L2-Pf-HR :0.88570: L2-HR :0.85536: (Sim:1h2m13s) 
CPU  0 inst:  272000000 cyc:  197355562 now IPC :0.26956: AVG IPC :1.37503: L2-Pf-HR :0.88565: L2-HR :0.85520: (Sim:1h2m38s) 
CPU  0 inst:  273000000 cyc:  201065004 now IPC :0.26958: AVG IPC :1.35454: L2-Pf-HR :0.88559: L2-HR :0.85502: (Sim:1h3m2s) 
CPU  0 inst:  274000002 cyc:  204776931 now IPC :0.26940: AVG IPC :1.33477: L2-Pf-HR :0.88552: L2-HR :0.85483: (Sim:1h3m28s) 
CPU  0 inst:  275000001 cyc:  208490242 now IPC :0.26930: AVG IPC :1.31570: L2-Pf-HR :0.88546: L2-HR :0.85466: (Sim:1h3m56s) 
CPU  0 inst:  276000004 cyc:  212200938 now IPC :0.26949: AVG IPC :1.29732: L2-Pf-HR :0.88540: L2-HR :0.85449: (Sim:1h4m24s) 
CPU  0 inst:  277000000 cyc:  215911780 now IPC :0.26948: AVG IPC :1.27958: L2-Pf-HR :0.88534: L2-HR :0.85432: (Sim:1h4m52s) 
CPU  0 inst:  278000000 cyc:  219622688 now IPC :0.26948: AVG IPC :1.26243: L2-Pf-HR :0.88528: L2-HR :0.85414: (Sim:1h5m19s) 
CPU  0 inst:  279000000 cyc:  223332315 now IPC :0.26957: AVG IPC :1.24587: L2-Pf-HR :0.88522: L2-HR :0.85398: (Sim:1h5m47s) 
CPU  0 inst:  280000000 cyc:  227042462 now IPC :0.26953: AVG IPC :1.22984: L2-Pf-HR :0.88516: L2-HR :0.85380: (Sim:1h6m15s) 
CPU  0 inst:  281000002 cyc:  230752753 now IPC :0.26952: AVG IPC :1.21433: L2-Pf-HR :0.88511: L2-HR :0.85364: (Sim:1h6m43s) 
CPU  0 inst:  282000001 cyc:  234466071 now IPC :0.26930: AVG IPC :1.19930: L2-Pf-HR :0.88505: L2-HR :0.85347: (Sim:1h7m11s) 
CPU  0 inst:  283000000 cyc:  238177627 now IPC :0.26943: AVG IPC :1.18475: L2-Pf-HR :0.88499: L2-HR :0.85330: (Sim:1h7m39s) 
CPU  0 inst:  284000000 cyc:  241888389 now IPC :0.26949: AVG IPC :1.17065: L2-Pf-HR :0.88493: L2-HR :0.85314: (Sim:1h8m5s) 
CPU  0 inst:  285000000 cyc:  245601201 now IPC :0.26934: AVG IPC :1.15697: L2-Pf-HR :0.88484: L2-HR :0.85295: (Sim:1h8m31s) 
CPU  0 inst:  286000000 cyc:  249311388 now IPC :0.26953: AVG IPC :1.14371: L2-Pf-HR :0.88478: L2-HR :0.85278: (Sim:1h8m58s) 
CPU  0 inst:  287000000 cyc:  253021837 now IPC :0.26951: AVG IPC :1.13084: L2-Pf-HR :0.88472: L2-HR :0.85261: (Sim:1h9m25s) 
CPU  0 inst:  288000000 cyc:  256733144 now IPC :0.26945: AVG IPC :1.11834: L2-Pf-HR :0.88465: L2-HR :0.85243: (Sim:1h9m52s) 
CPU  0 inst:  289000001 cyc:  260445399 now IPC :0.26938: AVG IPC :1.10619: L2-Pf-HR :0.88459: L2-HR :0.85227: (Sim:1h10m20s) 
CPU  0 inst:  290000001 cyc:  264159480 now IPC :0.26925: AVG IPC :1.09438: L2-Pf-HR :0.88453: L2-HR :0.85210: (Sim:1h10m43s) 
CPU  0 inst:  291000000 cyc:  267871581 now IPC :0.26939: AVG IPC :1.08291: L2-Pf-HR :0.88445: L2-HR :0.85192: (Sim:1h11m10s) 
CPU  0 inst:  292000000 cyc:  271584236 now IPC :0.26935: AVG IPC :1.07174: L2-Pf-HR :0.88437: L2-HR :0.85174: (Sim:1h11m38s) 
CPU  0 inst:  293000004 cyc:  275295121 now IPC :0.26948: AVG IPC :1.06089: L2-Pf-HR :0.88432: L2-HR :0.85158: (Sim:1h12m6s) 
CPU  0 inst:  294000000 cyc:  279004470 now IPC :0.26959: AVG IPC :1.05033: L2-Pf-HR :0.88428: L2-HR :0.85144: (Sim:1h12m33s) 
CPU  0 inst:  295000000 cyc:  282716096 now IPC :0.26942: AVG IPC :1.04004: L2-Pf-HR :0.88421: L2-HR :0.85127: (Sim:1h13m1s) 
CPU  0 inst:  296000000 cyc:  286427870 now IPC :0.26941: AVG IPC :1.03002: L2-Pf-HR :0.88415: L2-HR :0.85110: (Sim:1h13m29s) 
CPU  0 inst:  297000001 cyc:  290142135 now IPC :0.26923: AVG IPC :1.02025: L2-Pf-HR :0.88408: L2-HR :0.85094: (Sim:1h13m56s) 
CPU  0 inst:  298000000 cyc:  293852496 now IPC :0.26952: AVG IPC :1.01074: L2-Pf-HR :0.88405: L2-HR :0.85080: (Sim:1h14m24s) 
CPU  0 inst:  299000000 cyc:  297563219 now IPC :0.26949: AVG IPC :1.00146: L2-Pf-HR :0.88399: L2-HR :0.85065: (Sim:1h14m51s) 
CPU  0 inst:  300000000 cyc:  301274465 now IPC :0.26945: AVG IPC :0.99242: L2-Pf-HR :0.88393: L2-HR :0.85048: (Sim:1h15m19s) 
CPU  0 inst:  301000000 cyc:  304985044 now IPC :0.26950: AVG IPC :0.98359: L2-Pf-HR :0.88387: L2-HR :0.85033: (Sim:1h15m46s) 
CPU  0 inst:  302000000 cyc:  308695621 now IPC :0.26950: AVG IPC :0.97498: L2-Pf-HR :0.88382: L2-HR :0.85017: (Sim:1h16m12s) 
CPU  0 inst:  303000003 cyc:  312406140 now IPC :0.26950: AVG IPC :0.96657: L2-Pf-HR :0.88376: L2-HR :0.85002: (Sim:1h16m39s) 
CPU  0 inst:  304000000 cyc:  316118519 now IPC :0.26937: AVG IPC :0.95836: L2-Pf-HR :0.88370: L2-HR :0.84986: (Sim:1h17m7s) 
CPU  0 inst:  305000001 cyc:  319831667 now IPC :0.26931: AVG IPC :0.95034: L2-Pf-HR :0.88365: L2-HR :0.84971: (Sim:1h17m32s) 
CPU  0 inst:  306000000 cyc:  323543460 now IPC :0.26941: AVG IPC :0.94250: L2-Pf-HR :0.88358: L2-HR :0.84954: (Sim:1h18m0s) 
CPU  0 inst:  307000000 cyc:  327254404 now IPC :0.26947: AVG IPC :0.93484: L2-Pf-HR :0.88353: L2-HR :0.84939: (Sim:1h18m27s) 
CPU  0 inst:  308000000 cyc:  330964564 now IPC :0.26953: AVG IPC :0.92736: L2-Pf-HR :0.88348: L2-HR :0.84925: (Sim:1h18m52s) 
CPU  0 inst:  309000000 cyc:  334675077 now IPC :0.26950: AVG IPC :0.92005: L2-Pf-HR :0.88343: L2-HR :0.84911: (Sim:1h19m18s) 
CPU  0 inst:  310000004 cyc:  338384912 now IPC :0.26955: AVG IPC :0.91290: L2-Pf-HR :0.88338: L2-HR :0.84896: (Sim:1h19m44s) 
CPU  0 inst:  311000000 cyc:  342094810 now IPC :0.26955: AVG IPC :0.90590: L2-Pf-HR :0.88334: L2-HR :0.84883: (Sim:1h20m10s) 
CPU  0 inst:  312000000 cyc:  345806795 now IPC :0.26940: AVG IPC :0.89905: L2-Pf-HR :0.88332: L2-HR :0.84871: (Sim:1h20m37s) 
CPU  0 inst:  313000000 cyc:  349517143 now IPC :0.26952: AVG IPC :0.89234: L2-Pf-HR :0.88328: L2-HR :0.84857: (Sim:1h21m4s) 
CPU  0 inst:  314000004 cyc:  353227411 now IPC :0.26952: AVG IPC :0.88578: L2-Pf-HR :0.88323: L2-HR :0.84844: (Sim:1h21m31s) 
CPU  0 inst:  315000000 cyc:  356937358 now IPC :0.26954: AVG IPC :0.87936: L2-Pf-HR :0.88320: L2-HR :0.84831: (Sim:1h21m58s) 
CPU  0 inst:  316000000 cyc:  360648175 now IPC :0.26948: AVG IPC :0.87307: L2-Pf-HR :0.88315: L2-HR :0.84817: (Sim:1h22m26s) 
CPU  0 inst:  317000000 cyc:  364358002 now IPC :0.26955: AVG IPC :0.86691: L2-Pf-HR :0.88310: L2-HR :0.84803: (Sim:1h22m51s) 
CPU  0 inst:  318000005 cyc:  368068534 now IPC :0.26950: AVG IPC :0.86087: L2-Pf-HR :0.88306: L2-HR :0.84790: (Sim:1h23m19s) 
CPU  0 inst:  319000001 cyc:  371782120 now IPC :0.26928: AVG IPC :0.85494: L2-Pf-HR :0.88300: L2-HR :0.84774: (Sim:1h23m47s) 
CPU  0 inst:  320000000 cyc:  375496049 now IPC :0.26926: AVG IPC :0.84913: L2-Pf-HR :0.88294: L2-HR :0.84760: (Sim:1h24m14s) 
CPU  0 inst:  321000000 cyc:  379206231 now IPC :0.26953: AVG IPC :0.84345: L2-Pf-HR :0.88290: L2-HR :0.84746: (Sim:1h24m42s) 
CPU  0 inst:  322000000 cyc:  382917472 now IPC :0.26945: AVG IPC :0.83787: L2-Pf-HR :0.88285: L2-HR :0.84732: (Sim:1h25m9s) 
CPU  0 inst:  323000000 cyc:  386627468 now IPC :0.26954: AVG IPC :0.83240: L2-Pf-HR :0.88280: L2-HR :0.84719: (Sim:1h25m31s) 
CPU  0 inst:  324000000 cyc:  390338326 now IPC :0.26948: AVG IPC :0.82704: L2-Pf-HR :0.88275: L2-HR :0.84704: (Sim:1h25m47s) 
CPU  0 inst:  325000000 cyc:  394048429 now IPC :0.26953: AVG IPC :0.82178: L2-Pf-HR :0.88270: L2-HR :0.84691: (Sim:1h26m14s) 
CPU  0 inst:  326000002 cyc:  397760516 now IPC :0.26939: AVG IPC :0.81661: L2-Pf-HR :0.88264: L2-HR :0.84676: (Sim:1h26m41s) 
CPU  0 inst:  327000001 cyc:  401475208 now IPC :0.26920: AVG IPC :0.81153: L2-Pf-HR :0.88258: L2-HR :0.84662: (Sim:1h27m8s) 
CPU  0 inst:  328000000 cyc:  405186172 now IPC :0.26947: AVG IPC :0.80655: L2-Pf-HR :0.88254: L2-HR :0.84648: (Sim:1h27m33s) 
CPU  0 inst:  329000000 cyc:  408897125 now IPC :0.26947: AVG IPC :0.80167: L2-Pf-HR :0.88250: L2-HR :0.84635: (Sim:1h27m58s) 
CPU  0 inst:  330000000 cyc:  412607943 now IPC :0.26948: AVG IPC :0.79687: L2-Pf-HR :0.88245: L2-HR :0.84622: (Sim:1h28m23s) 
CPU  0 inst:  331000004 cyc:  416317780 now IPC :0.26955: AVG IPC :0.79216: L2-Pf-HR :0.88240: L2-HR :0.84609: (Sim:1h28m49s) 
CPU  0 inst:  332000000 cyc:  420027054 now IPC :0.26959: AVG IPC :0.78753: L2-Pf-HR :0.88237: L2-HR :0.84597: (Sim:1h29m14s) 
CPU  0 inst:  333000002 cyc:  423738548 now IPC :0.26943: AVG IPC :0.78298: L2-Pf-HR :0.88232: L2-HR :0.84583: (Sim:1h29m40s) 
CPU  0 inst:  334000001 cyc:  427451009 now IPC :0.26936: AVG IPC :0.77851: L2-Pf-HR :0.88227: L2-HR :0.84571: (Sim:1h30m5s) 
CPU  0 inst:  335000004 cyc:  431163509 now IPC :0.26936: AVG IPC :0.77412: L2-Pf-HR :0.88223: L2-HR :0.84558: (Sim:1h30m31s) 
CPU  0 inst:  336000000 cyc:  434874074 now IPC :0.26950: AVG IPC :0.76980: L2-Pf-HR :0.88219: L2-HR :0.84545: (Sim:1h30m56s) 
CPU  0 inst:  337000000 cyc:  438585123 now IPC :0.26947: AVG IPC :0.76556: L2-Pf-HR :0.88213: L2-HR :0.84531: (Sim:1h31m21s) 
CPU  0 inst:  338000000 cyc:  442295301 now IPC :0.26953: AVG IPC :0.76139: L2-Pf-HR :0.88209: L2-HR :0.84518: (Sim:1h31m47s) 
CPU  0 inst:  339000000 cyc:  446006062 now IPC :0.26949: AVG IPC :0.75729: L2-Pf-HR :0.88203: L2-HR :0.84504: (Sim:1h32m5s) 
CPU  0 inst:  340000000 cyc:  449716013 now IPC :0.26955: AVG IPC :0.75326: L2-Pf-HR :0.88199: L2-HR :0.84492: (Sim:1h32m31s) 
CPU  0 inst:  341000001 cyc:  453427159 now IPC :0.26946: AVG IPC :0.74929: L2-Pf-HR :0.88194: L2-HR :0.84479: (Sim:1h32m56s) 
CPU  0 inst:  342000001 cyc:  457140678 now IPC :0.26929: AVG IPC :0.74538: L2-Pf-HR :0.88190: L2-HR :0.84466: (Sim:1h33m22s) 
CPU  0 inst:  343000000 cyc:  460853003 now IPC :0.26937: AVG IPC :0.74154: L2-Pf-HR :0.88184: L2-HR :0.84453: (Sim:1h33m47s) 
CPU  0 inst:  344000000 cyc:  464564461 now IPC :0.26944: AVG IPC :0.73776: L2-Pf-HR :0.88179: L2-HR :0.84439: (Sim:1h34m14s) 
CPU  0 inst:  345000000 cyc:  468274447 now IPC :0.26954: AVG IPC :0.73404: L2-Pf-HR :0.88175: L2-HR :0.84427: (Sim:1h34m41s) 
CPU  0 inst:  346000000 cyc:  471986456 now IPC :0.26940: AVG IPC :0.73038: L2-Pf-HR :0.88169: L2-HR :0.84413: (Sim:1h35m9s) 
CPU  0 inst:  347000000 cyc:  475696572 now IPC :0.26953: AVG IPC :0.72678: L2-Pf-HR :0.88165: L2-HR :0.84402: (Sim:1h35m36s) 
CPU  0 inst:  348000001 cyc:  479407488 now IPC :0.26948: AVG IPC :0.72323: L2-Pf-HR :0.88162: L2-HR :0.84390: (Sim:1h36m2s) 
CPU  0 inst:  349000001 cyc:  483120742 now IPC :0.26931: AVG IPC :0.71973: L2-Pf-HR :0.88158: L2-HR :0.84378: (Sim:1h36m17s) 
CPU  0 inst:  350000000 cyc:  486834285 now IPC :0.26928: AVG IPC :0.71629: L2-Pf-HR :0.88152: L2-HR :0.84364: (Sim:1h36m44s) 
CPU  0 inst:  351000000 cyc:  490545139 now IPC :0.26948: AVG IPC :0.71290: L2-Pf-HR :0.88148: L2-HR :0.84353: (Sim:1h37m11s) 
CPU  0 inst:  352000000 cyc:  494255602 now IPC :0.26951: AVG IPC :0.70957: L2-Pf-HR :0.88144: L2-HR :0.84341: (Sim:1h37m35s) 
CPU  0 inst:  353000000 cyc:  497966476 now IPC :0.26948: AVG IPC :0.70628: L2-Pf-HR :0.88139: L2-HR :0.84328: (Sim:1h38m2s) 
CPU  0 inst:  354000000 cyc:  501676296 now IPC :0.26955: AVG IPC :0.70304: L2-Pf-HR :0.88135: L2-HR :0.84316: (Sim:1h38m29s) 
CPU  0 inst:  355000000 cyc:  505386898 now IPC :0.26950: AVG IPC :0.69986: L2-Pf-HR :0.88130: L2-HR :0.84304: (Sim:1h38m53s) 
CPU  0 inst:  356000000 cyc:  509098995 now IPC :0.26939: AVG IPC :0.69671: L2-Pf-HR :0.88126: L2-HR :0.84292: (Sim:1h39m20s) 
CPU  0 inst:  357000001 cyc:  512813781 now IPC :0.26919: AVG IPC :0.69361: L2-Pf-HR :0.88121: L2-HR :0.84280: (Sim:1h39m41s) 
CPU  0 inst:  358000000 cyc:  516524845 now IPC :0.26946: AVG IPC :0.69055: L2-Pf-HR :0.88118: L2-HR :0.84269: (Sim:1h39m57s) 
CPU  0 inst:  359000000 cyc:  520235702 now IPC :0.26948: AVG IPC :0.68754: L2-Pf-HR :0.88115: L2-HR :0.84257: (Sim:1h40m16s) 
CPU  0 inst:  360000000 cyc:  523946456 now IPC :0.26949: AVG IPC :0.68458: L2-Pf-HR :0.88110: L2-HR :0.84245: (Sim:1h40m43s) 
CPU  0 inst:  361000000 cyc:  527658037 now IPC :0.26943: AVG IPC :0.68165: L2-Pf-HR :0.88104: L2-HR :0.84232: (Sim:1h41m11s) 
CPU  0 inst:  362000000 cyc:  531366741 now IPC :0.26964: AVG IPC :0.67877: L2-Pf-HR :0.88102: L2-HR :0.84223: (Sim:1h41m38s) 
CPU  0 inst:  363000000 cyc:  535077908 now IPC :0.26946: AVG IPC :0.67593: L2-Pf-HR :0.88098: L2-HR :0.84211: (Sim:1h42m5s) 
CPU  0 inst:  364000001 cyc:  538791332 now IPC :0.26929: AVG IPC :0.67312: L2-Pf-HR :0.88094: L2-HR :0.84199: (Sim:1h42m31s) 
CPU  0 inst:  365000000 cyc:  542503762 now IPC :0.26937: AVG IPC :0.67035: L2-Pf-HR :0.88090: L2-HR :0.84188: (Sim:1h42m59s) 
CPU  0 inst:  366000000 cyc:  546215405 now IPC :0.26942: AVG IPC :0.66762: L2-Pf-HR :0.88085: L2-HR :0.84176: (Sim:1h43m26s) 
CPU  0 inst:  367000000 cyc:  549927102 now IPC :0.26942: AVG IPC :0.66493: L2-Pf-HR :0.88080: L2-HR :0.84163: (Sim:1h43m49s) 
CPU  0 inst:  368000000 cyc:  553636829 now IPC :0.26956: AVG IPC :0.66228: L2-Pf-HR :0.88077: L2-HR :0.84153: (Sim:1h44m13s) 
CPU  0 inst:  369000004 cyc:  557346117 now IPC :0.26959: AVG IPC :0.65966: L2-Pf-HR :0.88074: L2-HR :0.84143: (Sim:1h44m39s) 
CPU  0 inst:  370000000 cyc:  561056077 now IPC :0.26954: AVG IPC :0.65707: L2-Pf-HR :0.88070: L2-HR :0.84132: (Sim:1h44m59s) 
CPU  0 inst:  371000002 cyc:  564767498 now IPC :0.26944: AVG IPC :0.65452: L2-Pf-HR :0.88067: L2-HR :0.84122: (Sim:1h45m21s) 
CPU  0 inst:  372000001 cyc:  568480678 now IPC :0.26931: AVG IPC :0.65200: L2-Pf-HR :0.88064: L2-HR :0.84111: (Sim:1h45m48s) 
CPU  0 inst:  373000004 cyc:  572191669 now IPC :0.26947: AVG IPC :0.64952: L2-Pf-HR :0.88060: L2-HR :0.84100: (Sim:1h46m12s) 
CPU  0 inst:  374000000 cyc:  575901460 now IPC :0.26956: AVG IPC :0.64706: L2-Pf-HR :0.88056: L2-HR :0.84089: (Sim:1h46m36s) 
CPU  0 inst:  375000000 cyc:  579613112 now IPC :0.26942: AVG IPC :0.64464: L2-Pf-HR :0.88052: L2-HR :0.84077: (Sim:1h47m0s) 
CPU  0 inst:  376000000 cyc:  583325071 now IPC :0.26940: AVG IPC :0.64225: L2-Pf-HR :0.88046: L2-HR :0.84064: (Sim:1h47m27s) 
CPU  0 inst:  377000000 cyc:  587036394 now IPC :0.26945: AVG IPC :0.63989: L2-Pf-HR :0.88041: L2-HR :0.84052: (Sim:1h47m54s) 
CPU  0 inst:  378000002 cyc:  590748036 now IPC :0.26942: AVG IPC :0.63756: L2-Pf-HR :0.88037: L2-HR :0.84042: (Sim:1h48m21s) 
CPU  0 inst:  379000003 cyc:  594461383 now IPC :0.26930: AVG IPC :0.63525: L2-Pf-HR :0.88034: L2-HR :0.84031: (Sim:1h48m48s) 
CPU  0 inst:  380000000 cyc:  598173438 now IPC :0.26939: AVG IPC :0.63298: L2-Pf-HR :0.88030: L2-HR :0.84021: (Sim:1h49m14s) 
CPU  0 inst:  381000000 cyc:  601884757 now IPC :0.26945: AVG IPC :0.63073: L2-Pf-HR :0.88025: L2-HR :0.84009: (Sim:1h49m40s) 
CPU  0 inst:  382000000 cyc:  605594734 now IPC :0.26954: AVG IPC :0.62852: L2-Pf-HR :0.88022: L2-HR :0.83999: (Sim:1h50m7s) 
CPU  0 inst:  383000000 cyc:  609304860 now IPC :0.26953: AVG IPC :0.62633: L2-Pf-HR :0.88019: L2-HR :0.83989: (Sim:1h50m33s) 
CPU  0 inst:  384000000 cyc:  613014166 now IPC :0.26959: AVG IPC :0.62417: L2-Pf-HR :0.88017: L2-HR :0.83980: (Sim:1h51m0s) 
CPU  0 inst:  385000000 cyc:  616723973 now IPC :0.26956: AVG IPC :0.62203: L2-Pf-HR :0.88014: L2-HR :0.83971: (Sim:1h51m26s) 
CPU  0 inst:  386000001 cyc:  620436330 now IPC :0.26937: AVG IPC :0.61992: L2-Pf-HR :0.88010: L2-HR :0.83960: (Sim:1h51m53s) 
CPU  0 inst:  387000001 cyc:  624150365 now IPC :0.26925: AVG IPC :0.61783: L2-Pf-HR :0.88007: L2-HR :0.83949: (Sim:1h52m19s) 
CPU  0 inst:  388000000 cyc:  627860838 now IPC :0.26951: AVG IPC :0.61576: L2-Pf-HR :0.88004: L2-HR :0.83940: (Sim:1h52m46s) 
CPU  0 inst:  389000000 cyc:  631571287 now IPC :0.26951: AVG IPC :0.61373: L2-Pf-HR :0.88000: L2-HR :0.83930: (Sim:1h53m12s) 
CPU  0 inst:  390000004 cyc:  635282462 now IPC :0.26946: AVG IPC :0.61171: L2-Pf-HR :0.87996: L2-HR :0.83919: (Sim:1h53m38s) 
CPU  0 inst:  391000000 cyc:  638992616 now IPC :0.26953: AVG IPC :0.60972: L2-Pf-HR :0.87992: L2-HR :0.83908: (Sim:1h54m5s) 
CPU  0 inst:  392000000 cyc:  642702001 now IPC :0.26959: AVG IPC :0.60776: L2-Pf-HR :0.87988: L2-HR :0.83897: (Sim:1h54m31s) 
CPU  0 inst:  393000001 cyc:  646412272 now IPC :0.26952: AVG IPC :0.60581: L2-Pf-HR :0.87984: L2-HR :0.83887: (Sim:1h54m58s) 
CPU  0 inst:  394000001 cyc:  650126348 now IPC :0.26925: AVG IPC :0.60389: L2-Pf-HR :0.87980: L2-HR :0.83877: (Sim:1h55m24s) 
CPU  0 inst:  395000000 cyc:  653838827 now IPC :0.26936: AVG IPC :0.60198: L2-Pf-HR :0.87967: L2-HR :0.83857: (Sim:1h55m49s) 
CPU  0 inst:  396000002 cyc:  654488936 now IPC :1.53821: AVG IPC :0.60291: L2-Pf-HR :0.88003: L2-HR :0.83919: (Sim:1h56m6s) 
CPU  0 inst:  397000005 cyc:  655131085 now IPC :1.55728: AVG IPC :0.60385: L2-Pf-HR :0.88039: L2-HR :0.83981: (Sim:1h56m24s) 
CPU  0 inst:  398000001 cyc:  655755300 now IPC :1.60201: AVG IPC :0.60480: L2-Pf-HR :0.88074: L2-HR :0.84042: (Sim:1h56m41s) 
CPU  0 inst:  399000001 cyc:  656377587 now IPC :1.60698: AVG IPC :0.60575: L2-Pf-HR :0.88108: L2-HR :0.84101: (Sim:1h56m58s) 
CPU  0 inst:  400000000 cyc:  656982692 now IPC :1.65260: AVG IPC :0.60672: L2-Pf-HR :0.88143: L2-HR :0.84161: (Sim:1h57m15s) 
CPU  0 inst:  401000002 cyc:  657555898 now IPC :1.74458: AVG IPC :0.60771: L2-Pf-HR :0.88180: L2-HR :0.84223: (Sim:1h57m32s) 
CPU  0 inst:  402000001 cyc:  658129021 now IPC :1.74482: AVG IPC :0.60871: L2-Pf-HR :0.88215: L2-HR :0.84283: (Sim:1h57m50s) 
CPU  0 inst:  403000005 cyc:  658697818 now IPC :1.75810: AVG IPC :0.60970: L2-Pf-HR :0.88251: L2-HR :0.84343: (Sim:1h58m7s) 
CPU  0 inst:  404000002 cyc:  659296649 now IPC :1.66992: AVG IPC :0.61066: L2-Pf-HR :0.88286: L2-HR :0.84402: (Sim:1h58m22s) 
CPU  0 inst:  405000002 cyc:  659866029 now IPC :1.75630: AVG IPC :0.61165: L2-Pf-HR :0.88324: L2-HR :0.84463: (Sim:1h58m39s) 
CPU  0 inst:  406000001 cyc:  660438905 now IPC :1.74558: AVG IPC :0.61264: L2-Pf-HR :0.88362: L2-HR :0.84524: (Sim:1h58m54s) 
CPU  0 inst:  407000000 cyc:  661006199 now IPC :1.76275: AVG IPC :0.61363: L2-Pf-HR :0.88400: L2-HR :0.84585: (Sim:1h59m4s) 
CPU  0 inst:  408000000 cyc:  661600205 now IPC :1.68348: AVG IPC :0.61459: L2-Pf-HR :0.88436: L2-HR :0.84643: (Sim:1h59m20s) 
CPU  0 inst:  409000001 cyc:  662182661 now IPC :1.71687: AVG IPC :0.61556: L2-Pf-HR :0.88476: L2-HR :0.84704: (Sim:1h59m36s) 
CPU  0 inst:  410000000 cyc:  662765935 now IPC :1.71446: AVG IPC :0.61653: L2-Pf-HR :0.88514: L2-HR :0.84764: (Sim:1h59m53s) 
CPU  0 inst:  411000005 cyc:  663351461 now IPC :1.70787: AVG IPC :0.61749: L2-Pf-HR :0.88552: L2-HR :0.84823: (Sim:2h0m10s) 
CPU  0 inst:  412000004 cyc:  663970183 now IPC :1.61623: AVG IPC :0.61843: L2-Pf-HR :0.88584: L2-HR :0.84876: (Sim:2h0m26s) 
CPU  0 inst:  413000003 cyc:  664578266 now IPC :1.64451: AVG IPC :0.61937: L2-Pf-HR :0.88614: L2-HR :0.84927: (Sim:2h0m43s) 
CPU  0 inst:  414000005 cyc:  665184634 now IPC :1.64917: AVG IPC :0.62031: L2-Pf-HR :0.88643: L2-HR :0.84979: (Sim:2h1m0s) 
CPU  0 inst:  415000003 cyc:  665801101 now IPC :1.62214: AVG IPC :0.62124: L2-Pf-HR :0.88672: L2-HR :0.85029: (Sim:2h1m16s) 
CPU  0 inst:  416000000 cyc:  666419893 now IPC :1.61605: AVG IPC :0.62216: L2-Pf-HR :0.88700: L2-HR :0.85079: (Sim:2h1m33s) 
CPU  0 inst:  417000002 cyc:  666992152 now IPC :1.74746: AVG IPC :0.62313: L2-Pf-HR :0.88730: L2-HR :0.85130: (Sim:2h1m45s) 
CPU  0 inst:  418000004 cyc:  667568470 now IPC :1.73516: AVG IPC :0.62409: L2-Pf-HR :0.88759: L2-HR :0.85180: (Sim:2h1m55s) 
CPU  0 inst:  419000000 cyc:  668140478 now IPC :1.74822: AVG IPC :0.62505: L2-Pf-HR :0.88788: L2-HR :0.85230: (Sim:2h2m9s) 
CPU  0 inst:  420000004 cyc:  668716322 now IPC :1.73659: AVG IPC :0.62601: L2-Pf-HR :0.88820: L2-HR :0.85283: (Sim:2h2m24s) 
CPU  0 inst:  421000001 cyc:  669296824 now IPC :1.72264: AVG IPC :0.62696: L2-Pf-HR :0.88851: L2-HR :0.85334: (Sim:2h2m40s) 
CPU  0 inst:  422000001 cyc:  669870271 now IPC :1.74384: AVG IPC :0.62792: L2-Pf-HR :0.88882: L2-HR :0.85385: (Sim:2h2m56s) 
CPU  0 inst:  423000005 cyc:  670440955 now IPC :1.75229: AVG IPC :0.62888: L2-Pf-HR :0.88914: L2-HR :0.85436: (Sim:2h3m13s) 
CPU  0 inst:  424000000 cyc:  671019039 now IPC :1.72984: AVG IPC :0.62983: L2-Pf-HR :0.88945: L2-HR :0.85487: (Sim:2h3m30s) 
CPU  0 inst:  425000002 cyc:  671610862 now IPC :1.68970: AVG IPC :0.63077: L2-Pf-HR :0.88978: L2-HR :0.85538: (Sim:2h3m47s) 
CPU  0 inst:  426000004 cyc:  672198992 now IPC :1.70031: AVG IPC :0.63170: L2-Pf-HR :0.89010: L2-HR :0.85588: (Sim:2h4m5s) 
CPU  0 inst:  427000003 cyc:  672784926 now IPC :1.70668: AVG IPC :0.63264: L2-Pf-HR :0.89043: L2-HR :0.85638: (Sim:2h4m22s) 
CPU  0 inst:  428000002 cyc:  673371513 now IPC :1.70478: AVG IPC :0.63358: L2-Pf-HR :0.89075: L2-HR :0.85688: (Sim:2h4m39s) 
CPU  0 inst:  429000005 cyc:  673995220 now IPC :1.60332: AVG IPC :0.63447: L2-Pf-HR :0.89099: L2-HR :0.85731: (Sim:2h4m56s) 
CPU  0 inst:  430000000 cyc:  674605156 now IPC :1.63951: AVG IPC :0.63538: L2-Pf-HR :0.89124: L2-HR :0.85775: (Sim:2h5m13s) 
CPU  0 inst:  431000004 cyc:  675213402 now IPC :1.64408: AVG IPC :0.63629: L2-Pf-HR :0.89149: L2-HR :0.85818: (Sim:2h5m30s) 
CPU  0 inst:  432000000 cyc:  675822248 now IPC :1.64244: AVG IPC :0.63720: L2-Pf-HR :0.89174: L2-HR :0.85861: (Sim:2h5m47s) 
CPU  0 inst:  433000005 cyc:  676429492 now IPC :1.64679: AVG IPC :0.63811: L2-Pf-HR :0.89197: L2-HR :0.85903: (Sim:2h6m4s) 
CPU  0 inst:  434000003 cyc:  677000498 now IPC :1.75129: AVG IPC :0.63905: L2-Pf-HR :0.89222: L2-HR :0.85947: (Sim:2h6m20s) 
CPU  0 inst:  435000005 cyc:  677569689 now IPC :1.75688: AVG IPC :0.63999: L2-Pf-HR :0.89247: L2-HR :0.85990: (Sim:2h6m37s) 
CPU  0 inst:  436000005 cyc:  678141811 now IPC :1.74788: AVG IPC :0.64093: L2-Pf-HR :0.89272: L2-HR :0.86032: (Sim:2h6m54s) 
CPU  0 inst:  437000004 cyc:  678727392 now IPC :1.70770: AVG IPC :0.64185: L2-Pf-HR :0.89295: L2-HR :0.86073: (Sim:2h7m12s) 
CPU  0 inst:  438000002 cyc:  679296951 now IPC :1.75574: AVG IPC :0.64278: L2-Pf-HR :0.89323: L2-HR :0.86118: (Sim:2h7m28s) 
CPU  0 inst:  439000002 cyc:  679863769 now IPC :1.76423: AVG IPC :0.64372: L2-Pf-HR :0.89351: L2-HR :0.86163: (Sim:2h7m45s) 
CPU  0 inst:  440000000 cyc:  680433522 now IPC :1.75514: AVG IPC :0.64465: L2-Pf-HR :0.89379: L2-HR :0.86207: (Sim:2h8m2s) 
CPU  0 inst:  441000003 cyc:  681019566 now IPC :1.70636: AVG IPC :0.64557: L2-Pf-HR :0.89404: L2-HR :0.86249: (Sim:2h8m19s) 
CPU  0 inst:  442000002 cyc:  681601871 now IPC :1.71731: AVG IPC :0.64648: L2-Pf-HR :0.89433: L2-HR :0.86294: (Sim:2h8m37s) 
CPU  0 inst:  443000000 cyc:  682181990 now IPC :1.72378: AVG IPC :0.64740: L2-Pf-HR :0.89461: L2-HR :0.86337: (Sim:2h8m53s) 
CPU  0 inst:  444000004 cyc:  682765068 now IPC :1.71504: AVG IPC :0.64831: L2-Pf-HR :0.89489: L2-HR :0.86380: (Sim:2h9m5s) 
CPU  0 inst:  445000005 cyc:  683358646 now IPC :1.68470: AVG IPC :0.64922: L2-Pf-HR :0.89516: L2-HR :0.86423: (Sim:2h9m14s) 
CPU  0 inst:  446000003 cyc:  683977964 now IPC :1.61468: AVG IPC :0.65009: L2-Pf-HR :0.89536: L2-HR :0.86459: (Sim:2h9m23s) 
CPU  0 inst:  447000001 cyc:  684587581 now IPC :1.64037: AVG IPC :0.65097: L2-Pf-HR :0.89558: L2-HR :0.86497: (Sim:2h9m32s) 
CPU  0 inst:  448000000 cyc:  685195580 now IPC :1.64474: AVG IPC :0.65186: L2-Pf-HR :0.89579: L2-HR :0.86534: (Sim:2h9m41s) 
CPU  0 inst:  449000005 cyc:  685809276 now IPC :1.62948: AVG IPC :0.65273: L2-Pf-HR :0.89598: L2-HR :0.86570: (Sim:2h9m50s) 
CPU  0 inst:  450000004 cyc:  686399365 now IPC :1.69466: AVG IPC :0.65363: L2-Pf-HR :0.89619: L2-HR :0.86607: (Sim:2h9m59s) 
CPU  0 inst:  451000001 cyc:  686969163 now IPC :1.75500: AVG IPC :0.65455: L2-Pf-HR :0.89641: L2-HR :0.86645: (Sim:2h10m8s) 
CPU  0 inst:  452000004 cyc:  687543223 now IPC :1.74198: AVG IPC :0.65545: L2-Pf-HR :0.89662: L2-HR :0.86682: (Sim:2h10m20s) 
CPU  0 inst:  453000004 cyc:  688116978 now IPC :1.74290: AVG IPC :0.65636: L2-Pf-HR :0.89684: L2-HR :0.86719: (Sim:2h10m35s) 
CPU  0 inst:  454000000 cyc:  688696972 now IPC :1.72415: AVG IPC :0.65726: L2-Pf-HR :0.89707: L2-HR :0.86757: (Sim:2h10m45s) 
CPU  0 inst:  455000001 cyc:  689267479 now IPC :1.75283: AVG IPC :0.65817: L2-Pf-HR :0.89730: L2-HR :0.86795: (Sim:2h10m54s) 
CPU  0 inst:  456000000 cyc:  689839167 now IPC :1.74920: AVG IPC :0.65908: L2-Pf-HR :0.89753: L2-HR :0.86833: (Sim:2h11m3s) 
CPU  0 inst:  457000001 cyc:  690410691 now IPC :1.74971: AVG IPC :0.65998: L2-Pf-HR :0.89776: L2-HR :0.86871: (Sim:2h11m14s) 
CPU  0 inst:  458000005 cyc:  690999460 now IPC :1.69847: AVG IPC :0.66087: L2-Pf-HR :0.89801: L2-HR :0.86909: (Sim:2h11m24s) 
CPU  0 inst:  459000003 cyc:  691589268 now IPC :1.69546: AVG IPC :0.66175: L2-Pf-HR :0.89825: L2-HR :0.86947: (Sim:2h11m33s) 
CPU  0 inst:  460000003 cyc:  692175895 now IPC :1.70466: AVG IPC :0.66264: L2-Pf-HR :0.89849: L2-HR :0.86984: (Sim:2h11m43s) 
CPU  0 inst:  461000001 cyc:  692761274 now IPC :1.70829: AVG IPC :0.66352: L2-Pf-HR :0.89873: L2-HR :0.87022: (Sim:2h11m52s) 
CPU  0 inst:  462000003 cyc:  693372228 now IPC :1.63679: AVG IPC :0.66438: L2-Pf-HR :0.89895: L2-HR :0.87057: (Sim:2h12m4s) 
CPU  0 inst:  463000003 cyc:  693983715 now IPC :1.63536: AVG IPC :0.66524: L2-Pf-HR :0.89912: L2-HR :0.87089: (Sim:2h12m21s) 
CPU  0 inst:  464000000 cyc:  694590881 now IPC :1.64699: AVG IPC :0.66610: L2-Pf-HR :0.89931: L2-HR :0.87121: (Sim:2h12m38s) 
CPU  0 inst:  465000002 cyc:  695202703 now IPC :1.63447: AVG IPC :0.66695: L2-Pf-HR :0.89950: L2-HR :0.87154: (Sim:2h12m55s) 
CPU  0 inst:  466000004 cyc:  695825107 now IPC :1.60668: AVG IPC :0.66779: L2-Pf-HR :0.89966: L2-HR :0.87185: (Sim:2h13m12s) 
CPU  0 inst:  467000002 cyc:  696395104 now IPC :1.75439: AVG IPC :0.66868: L2-Pf-HR :0.89985: L2-HR :0.87217: (Sim:2h13m28s) 
CPU  0 inst:  468000005 cyc:  696964476 now IPC :1.75633: AVG IPC :0.66957: L2-Pf-HR :0.90004: L2-HR :0.87250: (Sim:2h13m45s) 
CPU  0 inst:  469000000 cyc:  697533207 now IPC :1.75829: AVG IPC :0.67046: L2-Pf-HR :0.90023: L2-HR :0.87283: (Sim:2h14m2s) 
CPU  0 inst:  470000000 cyc:  698111279 now IPC :1.72989: AVG IPC :0.67134: L2-Pf-HR :0.90041: L2-HR :0.87315: (Sim:2h14m19s) 
CPU  0 inst:  471000003 cyc:  698687358 now IPC :1.73588: AVG IPC :0.67222: L2-Pf-HR :0.90062: L2-HR :0.87349: (Sim:2h14m36s) 
CPU  0 inst:  472000000 cyc:  699252872 now IPC :1.76830: AVG IPC :0.67311: L2-Pf-HR :0.90084: L2-HR :0.87383: (Sim:2h14m52s) 
CPU  0 inst:  473000005 cyc:  699820010 now IPC :1.76325: AVG IPC :0.67399: L2-Pf-HR :0.90105: L2-HR :0.87418: (Sim:2h15m9s) 
CPU  0 inst:  474000002 cyc:  700390497 now IPC :1.75288: AVG IPC :0.67487: L2-Pf-HR :0.90127: L2-HR :0.87452: (Sim:2h15m21s) 
CPU  0 inst:  475000000 cyc:  700989093 now IPC :1.67057: AVG IPC :0.67572: L2-Pf-HR :0.90147: L2-HR :0.87484: (Sim:2h15m31s) 
CPU  0 inst:  476000000 cyc:  701573275 now IPC :1.71180: AVG IPC :0.67659: L2-Pf-HR :0.90169: L2-HR :0.87518: (Sim:2h15m47s) 
CPU  0 inst:  477000005 cyc:  702155898 now IPC :1.71638: AVG IPC :0.67745: L2-Pf-HR :0.90191: L2-HR :0.87551: (Sim:2h16m4s) 
CPU  0 inst:  478000003 cyc:  702743756 now IPC :1.70109: AVG IPC :0.67831: L2-Pf-HR :0.90213: L2-HR :0.87585: (Sim:2h16m21s) 
CPU  0 inst:  479000002 cyc:  703363950 now IPC :1.61240: AVG IPC :0.67913: L2-Pf-HR :0.90229: L2-HR :0.87614: (Sim:2h16m38s) 
CPU  0 inst:  480000000 cyc:  703972702 now IPC :1.64270: AVG IPC :0.67997: L2-Pf-HR :0.90245: L2-HR :0.87642: (Sim:2h16m55s) 
CPU  0 inst:  481000001 cyc:  704580136 now IPC :1.64627: AVG IPC :0.68080: L2-Pf-HR :0.90262: L2-HR :0.87671: (Sim:2h17m12s) 
CPU  0 inst:  482000002 cyc:  705188985 now IPC :1.64244: AVG IPC :0.68163: L2-Pf-HR :0.90278: L2-HR :0.87700: (Sim:2h17m29s) 
CPU  0 inst:  483000000 cyc:  705801704 now IPC :1.63207: AVG IPC :0.68246: L2-Pf-HR :0.90292: L2-HR :0.87727: (Sim:2h17m46s) 
CPU  0 inst:  484000005 cyc:  706372920 now IPC :1.75066: AVG IPC :0.68332: L2-Pf-HR :0.90309: L2-HR :0.87756: (Sim:2h18m3s) 
CPU  0 inst:  485000005 cyc:  706943588 now IPC :1.75233: AVG IPC :0.68419: L2-Pf-HR :0.90326: L2-HR :0.87785: (Sim:2h18m20s) 
CPU  0 inst:  486000003 cyc:  707518474 now IPC :1.73947: AVG IPC :0.68505: L2-Pf-HR :0.90341: L2-HR :0.87813: (Sim:2h18m36s) 
CPU  0 inst:  487000002 cyc:  708103777 now IPC :1.70852: AVG IPC :0.68589: L2-Pf-HR :0.90357: L2-HR :0.87840: (Sim:2h18m53s) 
CPU  0 inst:  488000000 cyc:  708673815 now IPC :1.75427: AVG IPC :0.68675: L2-Pf-HR :0.90377: L2-HR :0.87871: (Sim:2h19m10s) 
CPU  0 inst:  489000000 cyc:  709244770 now IPC :1.75145: AVG IPC :0.68761: L2-Pf-HR :0.90395: L2-HR :0.87901: (Sim:2h19m27s) 
CPU  0 inst:  490000003 cyc:  709820540 now IPC :1.73681: AVG IPC :0.68846: L2-Pf-HR :0.90413: L2-HR :0.87930: (Sim:2h19m44s) 
CPU  0 inst:  491000000 cyc:  710391914 now IPC :1.75016: AVG IPC :0.68932: L2-Pf-HR :0.90432: L2-HR :0.87961: (Sim:2h20m1s) 
CPU  0 inst:  492000004 cyc:  710986591 now IPC :1.68159: AVG IPC :0.69015: L2-Pf-HR :0.90450: L2-HR :0.87989: (Sim:2h20m18s) 
CPU  0 inst:  493000000 cyc:  711574239 now IPC :1.70169: AVG IPC :0.69099: L2-Pf-HR :0.90469: L2-HR :0.88019: (Sim:2h20m34s) 
CPU  0 inst:  494000003 cyc:  712164378 now IPC :1.69452: AVG IPC :0.69182: L2-Pf-HR :0.90488: L2-HR :0.88048: (Sim:2h20m51s) 
CPU  0 inst:  495000004 cyc:  712757593 now IPC :1.68573: AVG IPC :0.69265: L2-Pf-HR :0.90506: L2-HR :0.88076: (Sim:2h21m8s) 
CPU  0 inst:  496000000 cyc:  713373539 now IPC :1.62351: AVG IPC :0.69345: L2-Pf-HR :0.90521: L2-HR :0.88102: (Sim:2h21m21s) 
CPU  0 inst:  497000002 cyc:  713987916 now IPC :1.62767: AVG IPC :0.69426: L2-Pf-HR :0.90534: L2-HR :0.88127: (Sim:2h21m33s) 
CPU  0 inst:  498000004 cyc:  714598102 now IPC :1.63885: AVG IPC :0.69507: L2-Pf-HR :0.90548: L2-HR :0.88151: (Sim:2h21m45s) 
CPU  0 inst:  499000005 cyc:  715205374 now IPC :1.64671: AVG IPC :0.69588: L2-Pf-HR :0.90562: L2-HR :0.88176: (Sim:2h21m54s) 
CPU  0 inst:  500000003 cyc:  715805475 now IPC :1.66638: AVG IPC :0.69669: L2-Pf-HR :0.90575: L2-HR :0.88200: (Sim:2h22m3s) 
CPU  0 inst:  501000001 cyc:  716376844 now IPC :1.75018: AVG IPC :0.69753: L2-Pf-HR :0.90590: L2-HR :0.88227: (Sim:2h22m12s) 
CPU  0 inst:  502000004 cyc:  716946388 now IPC :1.75580: AVG IPC :0.69837: L2-Pf-HR :0.90605: L2-HR :0.88252: (Sim:2h22m20s) 
CPU  0 inst:  503000005 cyc:  717518608 now IPC :1.74758: AVG IPC :0.69921: L2-Pf-HR :0.90620: L2-HR :0.88278: (Sim:2h22m29s) 
CPU  0 inst:  504000000 cyc:  718103827 now IPC :1.70875: AVG IPC :0.70004: L2-Pf-HR :0.90634: L2-HR :0.88303: (Sim:2h22m42s) 
CPU  0 inst:  505000000 cyc:  718671558 now IPC :1.76140: AVG IPC :0.70087: L2-Pf-HR :0.90651: L2-HR :0.88330: (Sim:2h22m50s) 
CPU  0 inst:  506000004 cyc:  719241406 now IPC :1.75486: AVG IPC :0.70171: L2-Pf-HR :0.90668: L2-HR :0.88357: (Sim:2h23m5s) 
CPU  0 inst:  507000001 cyc:  719813030 now IPC :1.74940: AVG IPC :0.70254: L2-Pf-HR :0.90685: L2-HR :0.88384: (Sim:2h23m22s) 
CPU  0 inst:  508000002 cyc:  720405320 now IPC :1.68836: AVG IPC :0.70336: L2-Pf-HR :0.90700: L2-HR :0.88409: (Sim:2h23m39s) 
CPU  0 inst:  509000001 cyc:  720988809 now IPC :1.71383: AVG IPC :0.70417: L2-Pf-HR :0.90719: L2-HR :0.88437: (Sim:2h23m56s) 
CPU  0 inst:  510000002 cyc:  721574076 now IPC :1.70862: AVG IPC :0.70499: L2-Pf-HR :0.90737: L2-HR :0.88464: (Sim:2h24m13s) 
CPU  0 inst:  511000005 cyc:  722161317 now IPC :1.70288: AVG IPC :0.70580: L2-Pf-HR :0.90755: L2-HR :0.88491: (Sim:2h24m30s) 
CPU  0 inst:  512000000 cyc:  722770171 now IPC :1.64242: AVG IPC :0.70659: L2-Pf-HR :0.90770: L2-HR :0.88515: (Sim:2h24m46s) 
CPU  0 inst:  513000004 cyc:  723379549 now IPC :1.64102: AVG IPC :0.70738: L2-Pf-HR :0.90782: L2-HR :0.88538: (Sim:2h25m3s) 
CPU  0 inst:  514000001 cyc:  723985017 now IPC :1.65161: AVG IPC :0.70817: L2-Pf-HR :0.90795: L2-HR :0.88561: (Sim:2h25m20s) 
CPU  0 inst:  515000005 cyc:  724593127 now IPC :1.64445: AVG IPC :0.70896: L2-Pf-HR :0.90808: L2-HR :0.88583: (Sim:2h25m37s) 
CPU  0 inst:  516000001 cyc:  725212402 now IPC :1.61479: AVG IPC :0.70973: L2-Pf-HR :0.90820: L2-HR :0.88605: (Sim:2h25m54s) 
CPU  0 inst:  517000005 cyc:  725795777 now IPC :1.71417: AVG IPC :0.71054: L2-Pf-HR :0.90832: L2-HR :0.88627: (Sim:2h26m6s) 
CPU  0 inst:  518000000 cyc:  726363536 now IPC :1.76130: AVG IPC :0.71136: L2-Pf-HR :0.90845: L2-HR :0.88650: (Sim:2h26m15s) 
CPU  0 inst:  519000003 cyc:  726936054 now IPC :1.74668: AVG IPC :0.71218: L2-Pf-HR :0.90859: L2-HR :0.88673: (Sim:2h26m24s) 
CPU  0 inst:  520000000 cyc:  727507733 now IPC :1.74923: AVG IPC :0.71300: L2-Pf-HR :0.90871: L2-HR :0.88695: (Sim:2h26m33s) 
CPU  0 inst:  521000000 cyc:  728091030 now IPC :1.71439: AVG IPC :0.71380: L2-Pf-HR :0.90885: L2-HR :0.88719: (Sim:2h26m49s) 
CPU  0 inst:  522000002 cyc:  728659797 now IPC :1.75819: AVG IPC :0.71462: L2-Pf-HR :0.90901: L2-HR :0.88744: (Sim:2h27m6s) 
CPU  0 inst:  523000003 cyc:  729233001 now IPC :1.74458: AVG IPC :0.71543: L2-Pf-HR :0.90916: L2-HR :0.88768: (Sim:2h27m16s) 
CPU  0 inst:  524000000 cyc:  729806522 now IPC :1.74361: AVG IPC :0.71624: L2-Pf-HR :0.90931: L2-HR :0.88792: (Sim:2h27m25s) 
CPU  0 inst:  525000004 cyc:  730398425 now IPC :1.68947: AVG IPC :0.71703: L2-Pf-HR :0.90946: L2-HR :0.88816: (Sim:2h27m34s) 
CPU  0 inst:  526000004 cyc:  730985568 now IPC :1.70316: AVG IPC :0.71782: L2-Pf-HR :0.90962: L2-HR :0.88840: (Sim:2h27m44s) 
CPU  0 inst:  527000003 cyc:  731576301 now IPC :1.69281: AVG IPC :0.71861: L2-Pf-HR :0.90978: L2-HR :0.88863: (Sim:2h27m53s) 
CPU  0 inst:  528000000 cyc:  732165581 now IPC :1.69698: AVG IPC :0.71940: L2-Pf-HR :0.90993: L2-HR :0.88887: (Sim:2h28m2s) 
CPU  0 inst:  529000004 cyc:  732776538 now IPC :1.63678: AVG IPC :0.72016: L2-Pf-HR :0.91006: L2-HR :0.88909: (Sim:2h28m17s) 
CPU  0 inst:  530000001 cyc:  733388945 now IPC :1.63290: AVG IPC :0.72093: L2-Pf-HR :0.91016: L2-HR :0.88928: (Sim:2h28m35s) 
CPU  0 inst:  531000002 cyc:  734000636 now IPC :1.63481: AVG IPC :0.72169: L2-Pf-HR :0.91027: L2-HR :0.88947: (Sim:2h28m52s) 
CPU  0 inst:  532000000 cyc:  734610615 now IPC :1.63940: AVG IPC :0.72245: L2-Pf-HR :0.91038: L2-HR :0.88968: (Sim:2h29m9s) 
CPU  0 inst:  533000000 cyc:  735220552 now IPC :1.63951: AVG IPC :0.72321: L2-Pf-HR :0.91048: L2-HR :0.88987: (Sim:2h29m26s) 
CPU  0 inst:  534000003 cyc:  735793064 now IPC :1.74669: AVG IPC :0.72401: L2-Pf-HR :0.91060: L2-HR :0.89007: (Sim:2h29m43s) 
CPU  0 inst:  535000001 cyc:  736362543 now IPC :1.75599: AVG IPC :0.72481: L2-Pf-HR :0.91072: L2-HR :0.89028: (Sim:2h30m0s) 
CPU  0 inst:  536000000 cyc:  736930693 now IPC :1.76010: AVG IPC :0.72561: L2-Pf-HR :0.91084: L2-HR :0.89049: (Sim:2h30m18s) 
CPU  0 inst:  537000002 cyc:  737516863 now IPC :1.70599: AVG IPC :0.72639: L2-Pf-HR :0.91095: L2-HR :0.89068: (Sim:2h30m35s) 
CPU  0 inst:  538000002 cyc:  738084697 now IPC :1.76108: AVG IPC :0.72719: L2-Pf-HR :0.91109: L2-HR :0.89091: (Sim:2h30m52s) 
CPU  0 inst:  539000004 cyc:  738651429 now IPC :1.76451: AVG IPC :0.72798: L2-Pf-HR :0.91123: L2-HR :0.89112: (Sim:2h31m9s) 
CPU  0 inst:  540000003 cyc:  739219920 now IPC :1.75904: AVG IPC :0.72878: L2-Pf-HR :0.91137: L2-HR :0.89134: (Sim:2h31m26s) 
CPU  0 inst:  541000004 cyc:  739797402 now IPC :1.73166: AVG IPC :0.72956: L2-Pf-HR :0.91150: L2-HR :0.89155: (Sim:2h31m43s) 
CPU  0 inst:  542000002 cyc:  740390289 now IPC :1.68666: AVG IPC :0.73033: L2-Pf-HR :0.91163: L2-HR :0.89177: (Sim:2h32m0s) 
CPU  0 inst:  543000000 cyc:  740971395 now IPC :1.72085: AVG IPC :0.73111: L2-Pf-HR :0.91177: L2-HR :0.89198: (Sim:2h32m18s) 
CPU  0 inst:  544000000 cyc:  741555049 now IPC :1.71334: AVG IPC :0.73188: L2-Pf-HR :0.91191: L2-HR :0.89219: (Sim:2h32m35s) 
CPU  0 inst:  545000001 cyc:  742138869 now IPC :1.71286: AVG IPC :0.73265: L2-Pf-HR :0.91205: L2-HR :0.89241: (Sim:2h32m52s) 
CPU  0 inst:  546000001 cyc:  742762445 now IPC :1.60365: AVG IPC :0.73339: L2-Pf-HR :0.91214: L2-HR :0.89258: (Sim:2h33m9s) 
CPU  0 inst:  547000005 cyc:  743368785 now IPC :1.64925: AVG IPC :0.73413: L2-Pf-HR :0.91224: L2-HR :0.89276: (Sim:2h33m23s) 
CPU  0 inst:  548000003 cyc:  743974107 now IPC :1.65201: AVG IPC :0.73488: L2-Pf-HR :0.91235: L2-HR :0.89294: (Sim:2h33m40s) 
CPU  0 inst:  549000000 cyc:  744580678 now IPC :1.64861: AVG IPC :0.73563: L2-Pf-HR :0.91245: L2-HR :0.89313: (Sim:2h33m57s) 
CPU  0 inst:  550000005 cyc:  745187126 now IPC :1.64895: AVG IPC :0.73637: L2-Pf-HR :0.91254: L2-HR :0.89330: (Sim:2h34m10s) 
CPU  0 inst:  551000005 cyc:  745759133 now IPC :1.74823: AVG IPC :0.73715: L2-Pf-HR :0.91265: L2-HR :0.89348: (Sim:2h34m19s) 
CPU  0 inst:  552000000 cyc:  746331119 now IPC :1.74829: AVG IPC :0.73792: L2-Pf-HR :0.91276: L2-HR :0.89368: (Sim:2h34m28s) 
CPU  0 inst:  553000002 cyc:  746901127 now IPC :1.75436: AVG IPC :0.73870: L2-Pf-HR :0.91287: L2-HR :0.89387: (Sim:2h34m36s) 
CPU  0 inst:  554000003 cyc:  747486487 now IPC :1.70835: AVG IPC :0.73946: L2-Pf-HR :0.91297: L2-HR :0.89404: (Sim:2h34m45s) 
CPU  0 inst:  555000001 cyc:  748055582 now IPC :1.75717: AVG IPC :0.74024: L2-Pf-HR :0.91310: L2-HR :0.89425: (Sim:2h34m54s) 
CPU  0 inst:  556000003 cyc:  748624146 now IPC :1.75882: AVG IPC :0.74101: L2-Pf-HR :0.91323: L2-HR :0.89445: (Sim:2h35m3s) 
CPU  0 inst:  557000002 cyc:  749195709 now IPC :1.74959: AVG IPC :0.74178: L2-Pf-HR :0.91335: L2-HR :0.89465: (Sim:2h35m12s) 
CPU  0 inst:  558000004 cyc:  749785802 now IPC :1.69465: AVG IPC :0.74253: L2-Pf-HR :0.91347: L2-HR :0.89484: (Sim:2h35m28s) 
CPU  0 inst:  559000004 cyc:  750366576 now IPC :1.72184: AVG IPC :0.74329: L2-Pf-HR :0.91361: L2-HR :0.89504: (Sim:2h35m45s) 
CPU  0 inst:  560000000 cyc:  750953403 now IPC :1.70407: AVG IPC :0.74404: L2-Pf-HR :0.91374: L2-HR :0.89524: (Sim:2h36m2s) 
CPU  0 inst:  561000001 cyc:  751540957 now IPC :1.70197: AVG IPC :0.74479: L2-Pf-HR :0.91387: L2-HR :0.89543: (Sim:2h36m19s) 
CPU  0 inst:  562000005 cyc:  752129376 now IPC :1.69948: AVG IPC :0.74554: L2-Pf-HR :0.91401: L2-HR :0.89564: (Sim:2h36m36s) 
CPU  0 inst:  563000001 cyc:  752752583 now IPC :1.60460: AVG IPC :0.74625: L2-Pf-HR :0.91408: L2-HR :0.89579: (Sim:2h36m54s) 
CPU  0 inst:  564000003 cyc:  753370448 now IPC :1.61848: AVG IPC :0.74697: L2-Pf-HR :0.91416: L2-HR :0.89595: (Sim:2h37m11s) 
CPU  0 inst:  565000000 cyc:  753981276 now IPC :1.63712: AVG IPC :0.74769: L2-Pf-HR :0.91425: L2-HR :0.89611: (Sim:2h37m28s) 
CPU  0 inst:  566000000 cyc:  754600419 now IPC :1.61514: AVG IPC :0.74840: L2-Pf-HR :0.91433: L2-HR :0.89626: (Sim:2h37m45s) 
CPU  0 inst:  567000003 cyc:  755183383 now IPC :1.71538: AVG IPC :0.74915: L2-Pf-HR :0.91442: L2-HR :0.89642: (Sim:2h38m1s) 
CPU  0 inst:  568000000 cyc:  755754878 now IPC :1.74979: AVG IPC :0.74991: L2-Pf-HR :0.91451: L2-HR :0.89659: (Sim:2h38m9s) 
CPU  0 inst:  569000000 cyc:  756324727 now IPC :1.75485: AVG IPC :0.75067: L2-Pf-HR :0.91461: L2-HR :0.89676: (Sim:2h38m18s) 
CPU  0 inst:  570000001 cyc:  756896866 now IPC :1.74783: AVG IPC :0.75142: L2-Pf-HR :0.91471: L2-HR :0.89693: (Sim:2h38m27s) 
CPU  0 inst:  571000000 cyc:  757485604 now IPC :1.69855: AVG IPC :0.75216: L2-Pf-HR :0.91480: L2-HR :0.89709: (Sim:2h38m36s) 
CPU  0 inst:  572000004 cyc:  758055449 now IPC :1.75487: AVG IPC :0.75291: L2-Pf-HR :0.91491: L2-HR :0.89727: (Sim:2h38m45s) 
CPU  0 inst:  573000004 cyc:  758623762 now IPC :1.75959: AVG IPC :0.75367: L2-Pf-HR :0.91503: L2-HR :0.89745: (Sim:2h38m54s) 
CPU  0 inst:  574000003 cyc:  759195017 now IPC :1.75053: AVG IPC :0.75442: L2-Pf-HR :0.91514: L2-HR :0.89764: (Sim:2h39m2s) 
CPU  0 inst:  575000002 cyc:  759788659 now IPC :1.68452: AVG IPC :0.75515: L2-Pf-HR :0.91525: L2-HR :0.89780: (Sim:2h39m11s) 
CPU  0 inst:  576000000 cyc:  760373261 now IPC :1.71056: AVG IPC :0.75588: L2-Pf-HR :0.91537: L2-HR :0.89799: (Sim:2h39m20s) 
CPU  0 inst:  577000000 cyc:  760956907 now IPC :1.71337: AVG IPC :0.75662: L2-Pf-HR :0.91549: L2-HR :0.89817: (Sim:2h39m29s) 
CPU  0 inst:  578000000 cyc:  761541687 now IPC :1.71004: AVG IPC :0.75735: L2-Pf-HR :0.91561: L2-HR :0.89835: (Sim:2h39m37s) 
CPU  0 inst:  579000003 cyc:  762158302 now IPC :1.62176: AVG IPC :0.75805: L2-Pf-HR :0.91570: L2-HR :0.89850: (Sim:2h39m46s) 
CPU  0 inst:  580000000 cyc:  762765449 now IPC :1.64704: AVG IPC :0.75876: L2-Pf-HR :0.91578: L2-HR :0.89865: (Sim:2h39m55s) 
CPU  0 inst:  581000004 cyc:  763372511 now IPC :1.64728: AVG IPC :0.75947: L2-Pf-HR :0.91586: L2-HR :0.89880: (Sim:2h40m4s) 
CPU  0 inst:  582000001 cyc:  763979477 now IPC :1.64753: AVG IPC :0.76017: L2-Pf-HR :0.91594: L2-HR :0.89895: (Sim:2h40m12s) 
CPU  0 inst:  583000001 cyc:  764599130 now IPC :1.61381: AVG IPC :0.76087: L2-Pf-HR :0.91601: L2-HR :0.89908: (Sim:2h40m21s) 
CPU  0 inst:  584000000 cyc:  765171350 now IPC :1.74758: AVG IPC :0.76161: L2-Pf-HR :0.91610: L2-HR :0.89924: (Sim:2h40m30s) 
CPU  0 inst:  585000001 cyc:  765740752 now IPC :1.75623: AVG IPC :0.76235: L2-Pf-HR :0.91619: L2-HR :0.89939: (Sim:2h40m38s) 
CPU  0 inst:  586000005 cyc:  766309607 now IPC :1.75792: AVG IPC :0.76309: L2-Pf-HR :0.91628: L2-HR :0.89955: (Sim:2h40m50s) 
CPU  0 inst:  587000005 cyc:  766890470 now IPC :1.72158: AVG IPC :0.76381: L2-Pf-HR :0.91636: L2-HR :0.89970: (Sim:2h41m7s) 
CPU  0 inst:  588000004 cyc:  767467704 now IPC :1.73240: AVG IPC :0.76454: L2-Pf-HR :0.91645: L2-HR :0.89986: (Sim:2h41m17s) 
CPU  0 inst:  589000000 cyc:  768039392 now IPC :1.74920: AVG IPC :0.76528: L2-Pf-HR :0.91656: L2-HR :0.90003: (Sim:2h41m25s) 
CPU  0 inst:  590000000 cyc:  768606118 now IPC :1.76452: AVG IPC :0.76601: L2-Pf-HR :0.91667: L2-HR :0.90019: (Sim:2h41m34s) 
CPU  0 inst:  591000002 cyc:  769179666 now IPC :1.74354: AVG IPC :0.76674: L2-Pf-HR :0.91677: L2-HR :0.90036: (Sim:2h41m43s) 
CPU  0 inst:  592000000 cyc:  769771606 now IPC :1.68936: AVG IPC :0.76745: L2-Pf-HR :0.91687: L2-HR :0.90052: (Sim:2h41m53s) 
CPU  0 inst:  593000001 cyc:  770355799 now IPC :1.71176: AVG IPC :0.76817: L2-Pf-HR :0.91699: L2-HR :0.90068: (Sim:2h42m2s) 
CPU  0 inst:  594000004 cyc:  770940292 now IPC :1.71089: AVG IPC :0.76889: L2-Pf-HR :0.91710: L2-HR :0.90085: (Sim:2h42m11s) 
CPU  0 inst:  595000005 cyc:  771528438 now IPC :1.70026: AVG IPC :0.76960: L2-Pf-HR :0.91720: L2-HR :0.90101: (Sim:2h42m22s) 
CPU  0 inst:  596000005 cyc:  772140425 now IPC :1.63402: AVG IPC :0.77028: L2-Pf-HR :0.91729: L2-HR :0.90115: (Sim:2h42m38s) 
CPU  0 inst:  597000005 cyc:  772753489 now IPC :1.63115: AVG IPC :0.77097: L2-Pf-HR :0.91736: L2-HR :0.90129: (Sim:2h42m55s) 
CPU  0 inst:  598000001 cyc:  773369107 now IPC :1.62438: AVG IPC :0.77165: L2-Pf-HR :0.91742: L2-HR :0.90141: (Sim:2h43m12s) 
CPU  0 inst:  599000002 cyc:  773981857 now IPC :1.63199: AVG IPC :0.77233: L2-Pf-HR :0.91749: L2-HR :0.90155: (Sim:2h43m28s) 
CPU  0 inst:  600000000 cyc:  774584176 now IPC :1.66025: AVG IPC :0.77302: L2-Pf-HR :0.91756: L2-HR :0.90168: (Sim:2h43m42s) 
CPU  0 inst:  601000001 cyc:  775158183 now IPC :1.74214: AVG IPC :0.77374: L2-Pf-HR :0.91764: L2-HR :0.90182: (Sim:2h43m51s) 
CPU  0 inst:  602000004 cyc:  775730001 now IPC :1.74881: AVG IPC :0.77446: L2-Pf-HR :0.91772: L2-HR :0.90196: (Sim:2h43m59s) 
CPU  0 inst:  603000000 cyc:  776302275 now IPC :1.74741: AVG IPC :0.77518: L2-Pf-HR :0.91780: L2-HR :0.90210: (Sim:2h44m8s) 
CPU  0 inst:  604000003 cyc:  776887820 now IPC :1.70782: AVG IPC :0.77588: L2-Pf-HR :0.91788: L2-HR :0.90224: (Sim:2h44m16s) 
CPU  0 inst:  605000000 cyc:  777457284 now IPC :1.75603: AVG IPC :0.77660: L2-Pf-HR :0.91798: L2-HR :0.90239: (Sim:2h44m24s) 
CPU  0 inst:  606000003 cyc:  778024496 now IPC :1.76301: AVG IPC :0.77732: L2-Pf-HR :0.91807: L2-HR :0.90255: (Sim:2h44m33s) 
CPU  0 inst:  607000003 cyc:  778595016 now IPC :1.75279: AVG IPC :0.77804: L2-Pf-HR :0.91817: L2-HR :0.90270: (Sim:2h44m41s) 
CPU  0 inst:  608000000 cyc:  779185917 now IPC :1.69233: AVG IPC :0.77873: L2-Pf-HR :0.91826: L2-HR :0.90284: (Sim:2h44m49s) 
CPU  0 inst:  609000004 cyc:  779769645 now IPC :1.71313: AVG IPC :0.77943: L2-Pf-HR :0.91837: L2-HR :0.90300: (Sim:2h44m58s) 
CPU  0 inst:  610000004 cyc:  780352812 now IPC :1.71477: AVG IPC :0.78013: L2-Pf-HR :0.91847: L2-HR :0.90316: (Sim:2h45m6s) 
CPU  0 inst:  611000000 cyc:  780936801 now IPC :1.71235: AVG IPC :0.78083: L2-Pf-HR :0.91858: L2-HR :0.90331: (Sim:2h45m14s) 
CPU  0 inst:  612000005 cyc:  781534969 now IPC :1.67178: AVG IPC :0.78151: L2-Pf-HR :0.91868: L2-HR :0.90346: (Sim:2h45m22s) 
CPU  0 inst:  613000000 cyc:  782152579 now IPC :1.61914: AVG IPC :0.78217: L2-Pf-HR :0.91874: L2-HR :0.90358: (Sim:2h45m30s) 
CPU  0 inst:  614000001 cyc:  782757025 now IPC :1.65441: AVG IPC :0.78285: L2-Pf-HR :0.91881: L2-HR :0.90371: (Sim:2h45m39s) 
CPU  0 inst:  615000005 cyc:  783368332 now IPC :1.63585: AVG IPC :0.78352: L2-Pf-HR :0.91887: L2-HR :0.90383: (Sim:2h45m47s) 
CPU  0 inst:  616000000 cyc:  783974913 now IPC :1.64858: AVG IPC :0.78419: L2-Pf-HR :0.91894: L2-HR :0.90395: (Sim:2h45m55s) 
CPU  0 inst:  617000000 cyc:  784576726 now IPC :1.66165: AVG IPC :0.78486: L2-Pf-HR :0.91900: L2-HR :0.90407: (Sim:2h46m3s) 
CPU  0 inst:  618000005 cyc:  785144779 now IPC :1.76041: AVG IPC :0.78557: L2-Pf-HR :0.91907: L2-HR :0.90420: (Sim:2h46m11s) 
CPU  0 inst:  619000001 cyc:  785714502 now IPC :1.75523: AVG IPC :0.78627: L2-Pf-HR :0.91915: L2-HR :0.90433: (Sim:2h46m20s) 
CPU  0 inst:  620000003 cyc:  786285068 now IPC :1.75265: AVG IPC :0.78697: L2-Pf-HR :0.91922: L2-HR :0.90446: (Sim:2h46m28s) 
CPU  0 inst:  621000005 cyc:  786872349 now IPC :1.70277: AVG IPC :0.78766: L2-Pf-HR :0.91929: L2-HR :0.90459: (Sim:2h46m36s) 
CPU  0 inst:  622000003 cyc:  787436791 now IPC :1.77166: AVG IPC :0.78836: L2-Pf-HR :0.91938: L2-HR :0.90473: (Sim:2h46m44s) 
CPU  0 inst:  623000000 cyc:  788004484 now IPC :1.76151: AVG IPC :0.78906: L2-Pf-HR :0.91948: L2-HR :0.90487: (Sim:2h46m53s) 
CPU  0 inst:  624000000 cyc:  788574542 now IPC :1.75421: AVG IPC :0.78976: L2-Pf-HR :0.91957: L2-HR :0.90501: (Sim:2h47m1s) 
CPU  0 inst:  625000002 cyc:  789165718 now IPC :1.69155: AVG IPC :0.79044: L2-Pf-HR :0.91965: L2-HR :0.90515: (Sim:2h47m9s) 
CPU  0 inst:  626000004 cyc:  789744699 now IPC :1.72718: AVG IPC :0.79113: L2-Pf-HR :0.91975: L2-HR :0.90529: (Sim:2h47m17s) 
CPU  0 inst:  627000000 cyc:  790325158 now IPC :1.72277: AVG IPC :0.79181: L2-Pf-HR :0.91985: L2-HR :0.90544: (Sim:2h47m26s) 
CPU  0 inst:  628000003 cyc:  790913359 now IPC :1.70010: AVG IPC :0.79249: L2-Pf-HR :0.91994: L2-HR :0.90558: (Sim:2h47m34s) 
CPU  0 inst:  629000000 cyc:  791522196 now IPC :1.64247: AVG IPC :0.79314: L2-Pf-HR :0.92002: L2-HR :0.90570: (Sim:2h47m42s) 
CPU  0 inst:  630000004 cyc:  792131651 now IPC :1.64082: AVG IPC :0.79380: L2-Pf-HR :0.92009: L2-HR :0.90582: (Sim:2h47m50s) 
CPU  0 inst:  631000001 cyc:  792745011 now IPC :1.63036: AVG IPC :0.79444: L2-Pf-HR :0.92014: L2-HR :0.90593: (Sim:2h47m58s) 
CPU  0 inst:  632000000 cyc:  793363159 now IPC :1.61773: AVG IPC :0.79509: L2-Pf-HR :0.92020: L2-HR :0.90604: (Sim:2h48m7s) 
CPU  0 inst:  633000001 cyc:  793971973 now IPC :1.64254: AVG IPC :0.79574: L2-Pf-HR :0.92027: L2-HR :0.90616: (Sim:2h48m15s) 
CPU  0 inst:  634000002 cyc:  794557631 now IPC :1.70748: AVG IPC :0.79641: L2-Pf-HR :0.92033: L2-HR :0.90627: (Sim:2h48m23s) 
CPU  0 inst:  635000000 cyc:  795129920 now IPC :1.74737: AVG IPC :0.79710: L2-Pf-HR :0.92039: L2-HR :0.90638: (Sim:2h48m31s) 
CPU  0 inst:  636000003 cyc:  795702346 now IPC :1.74696: AVG IPC :0.79778: L2-Pf-HR :0.92045: L2-HR :0.90650: (Sim:2h48m39s) 
CPU  0 inst:  637000001 cyc:  796281906 now IPC :1.72544: AVG IPC :0.79846: L2-Pf-HR :0.92051: L2-HR :0.90661: (Sim:2h48m48s) 
CPU  0 inst:  638000003 cyc:  796857499 now IPC :1.73734: AVG IPC :0.79913: L2-Pf-HR :0.92058: L2-HR :0.90674: (Sim:2h48m56s) 
CPU  0 inst:  639000000 cyc:  797425284 now IPC :1.76122: AVG IPC :0.79982: L2-Pf-HR :0.92066: L2-HR :0.90686: (Sim:2h49m4s) 
CPU  0 inst:  640000000 cyc:  797995951 now IPC :1.75234: AVG IPC :0.80050: L2-Pf-HR :0.92075: L2-HR :0.90699: (Sim:2h49m12s) 
CPU  0 inst:  641000001 cyc:  798564950 now IPC :1.75747: AVG IPC :0.80119: L2-Pf-HR :0.92083: L2-HR :0.90713: (Sim:2h49m20s) 
CPU  0 inst:  642000003 cyc:  799163488 now IPC :1.67074: AVG IPC :0.80184: L2-Pf-HR :0.92091: L2-HR :0.90725: (Sim:2h49m29s) 
CPU  0 inst:  643000002 cyc:  799745174 now IPC :1.71914: AVG IPC :0.80251: L2-Pf-HR :0.92100: L2-HR :0.90738: (Sim:2h49m37s) 
CPU  0 inst:  644000003 cyc:  800329955 now IPC :1.71004: AVG IPC :0.80317: L2-Pf-HR :0.92109: L2-HR :0.90751: (Sim:2h49m45s) 
CPU  0 inst:  645000003 cyc:  800912675 now IPC :1.71609: AVG IPC :0.80383: L2-Pf-HR :0.92118: L2-HR :0.90765: (Sim:2h49m53s) 
CPU  0 inst:  646000005 cyc:  801531999 now IPC :1.61467: AVG IPC :0.80446: L2-Pf-HR :0.92124: L2-HR :0.90775: (Sim:2h50m2s) 
CPU  0 inst:  647000003 cyc:  802135719 now IPC :1.65639: AVG IPC :0.80510: L2-Pf-HR :0.92129: L2-HR :0.90786: (Sim:2h50m10s) 
CPU  0 inst:  648000000 cyc:  802743125 now IPC :1.64634: AVG IPC :0.80574: L2-Pf-HR :0.92135: L2-HR :0.90796: (Sim:2h50m18s) 
CPU  0 inst:  649000001 cyc:  803349028 now IPC :1.65043: AVG IPC :0.80638: L2-Pf-HR :0.92141: L2-HR :0.90807: (Sim:2h50m26s) 
CPU  0 inst:  650000004 cyc:  803968108 now IPC :1.61530: AVG IPC :0.80700: L2-Pf-HR :0.92145: L2-HR :0.90816: (Sim:2h50m34s) 
CPU  0 inst:  651000000 cyc:  804538049 now IPC :1.75456: AVG IPC :0.80767: L2-Pf-HR :0.92152: L2-HR :0.90827: (Sim:2h50m43s) 
CPU  0 inst:  652000000 cyc:  805107098 now IPC :1.75732: AVG IPC :0.80835: L2-Pf-HR :0.92158: L2-HR :0.90838: (Sim:2h50m51s) 
CPU  0 inst:  653000000 cyc:  805677758 now IPC :1.75236: AVG IPC :0.80902: L2-Pf-HR :0.92164: L2-HR :0.90850: (Sim:2h50m59s) 
CPU  0 inst:  654000003 cyc:  806271217 now IPC :1.68504: AVG IPC :0.80966: L2-Pf-HR :0.92169: L2-HR :0.90860: (Sim:2h51m8s) 
CPU  0 inst:  655000001 cyc:  806840488 now IPC :1.75663: AVG IPC :0.81033: L2-Pf-HR :0.92178: L2-HR :0.90872: (Sim:2h51m16s) 
CPU  0 inst:  656000000 cyc:  807408480 now IPC :1.76059: AVG IPC :0.81100: L2-Pf-HR :0.92185: L2-HR :0.90885: (Sim:2h51m24s) 
CPU  0 inst:  657000004 cyc:  807978956 now IPC :1.75293: AVG IPC :0.81167: L2-Pf-HR :0.92193: L2-HR :0.90897: (Sim:2h51m32s) 
CPU  0 inst:  658000002 cyc:  808558967 now IPC :1.72410: AVG IPC :0.81232: L2-Pf-HR :0.92200: L2-HR :0.90908: (Sim:2h51m40s) 
CPU  0 inst:  659000005 cyc:  809149225 now IPC :1.69418: AVG IPC :0.81297: L2-Pf-HR :0.92208: L2-HR :0.90920: (Sim:2h51m49s) 
Finished CPU 0 instr: 657000004 cyc: 808152334 AVG IPC: 0.81297 (Sim time: 2h51m49s)

ChampSim completed all CPUs

[ROI Statistics]
Core_0_instructions 657000004
Core_0_cycles 808152334
Core_0_IPC 0.81297

Core_0_branch_prediction_accuracy 99.58944
Core_0_branch_MPKI 0.11916
Core_0_average_ROB_occupancy_at_mispredict 474.54487

Core_0_L1D_total_access 406130315
Core_0_L1D_total_hit 372529366 L1D_total_Hit Ratio: 0.91727
Core_0_L1D_total_miss 33600949
Core_0_L1D_loads 164223498
Core_0_L1D_load_hit 147229667 L1D_load_Hit Ratio: 0.89652
Core_0_L1D_load_miss 16993831
Core_0_L1D_RFOs 17093865
Core_0_L1D_RFO_hit 15866282 L1D_RFO_Hit Ratio: 0.92819
Core_0_L1D_RFO_miss 1227583
Core_0_L1D_prefetches 224812952
Core_0_L1D_prefetch_hit 209433417 L1D_prefetch_Hit Ratio: 0.93159
Core_0_L1D_prefetch_miss 15379535
Core_0_L1D_writebacks 0
Core_0_L1D_writeback_hit 0 L1D_writeback_Hit Ratio: -nan
Core_0_L1D_writeback_miss 0
Core_0_L1D_prefetch_requested 505653684
Core_0_L1D_prefetch_issued 258163414
Core_0_L1D_prefetch_useful 7747494 L1D_Useful Ratio: 0.03001
Core_0_L1D_prefetch_useless 7651988
Core_0_L1D_prefetch_late 773375
Core_0_L1D_average_miss_latency 5323062.06561

Core_0_L1I_total_access 97724979
Core_0_L1I_total_hit 97719970 L1I_total_Hit Ratio: 0.99995
Core_0_L1I_total_miss 5009
Core_0_L1I_loads 97724979
Core_0_L1I_load_hit 97719970 L1I_load_Hit Ratio: 0.99995
Core_0_L1I_load_miss 5009
Core_0_L1I_RFOs 0
Core_0_L1I_RFO_hit 0 L1I_RFO_Hit Ratio: -nan
Core_0_L1I_RFO_miss 0
Core_0_L1I_prefetches 0
Core_0_L1I_prefetch_hit 0 L1I_prefetch_Hit Ratio: -nan
Core_0_L1I_prefetch_miss 0
Core_0_L1I_writebacks 0
Core_0_L1I_writeback_hit 0 L1I_writeback_Hit Ratio: -nan
Core_0_L1I_writeback_miss 0
Core_0_L1I_prefetch_requested 0
Core_0_L1I_prefetch_issued 0
Core_0_L1I_prefetch_useful 0 L1I_Useful Ratio: -nan
Core_0_L1I_prefetch_useless 0
Core_0_L1I_prefetch_late 0
Core_0_L1I_average_miss_latency 325.53005

Core_0_L2C_total_access 93227196
Core_0_L2C_total_hit 84762483 L2C_total_Hit Ratio: 0.90920
Core_0_L2C_total_miss 8464713
Core_0_L2C_loads 16226697
Core_0_L2C_load_hit 14365955 L2C_load_Hit Ratio: 0.88533
Core_0_L2C_load_miss 1860742
Core_0_L2C_RFOs 1227579
Core_0_L2C_RFO_hit 227966 L2C_RFO_Hit Ratio: 0.18570
Core_0_L2C_RFO_miss 999613
Core_0_L2C_prefetches 71879852
Core_0_L2C_prefetch_hit 66279299 L2C_prefetch_Hit Ratio: 0.92208
Core_0_L2C_prefetch_miss 5600553
Core_0_L2C_writebacks 3893068
Core_0_L2C_writeback_hit 3889263 L2C_writeback_Hit Ratio: 0.99902
Core_0_L2C_writeback_miss 3805
Core_0_L2C_prefetch_requested 222989479
Core_0_L2C_prefetch_issued 82963552
Core_0_L2C_prefetch_useful 845106 L2C_Useful Ratio: 0.01019
Core_0_L2C_prefetch_useless 4765784
Core_0_L2C_prefetch_late 541506
Core_0_L2C_average_miss_latency 245.65464

Core_0_LLC_total_access 12252019
Core_0_LLC_total_hit 5798277 LLC_total_Hit Ratio: 0.47325
Core_0_LLC_total_miss 6453742
Core_0_LLC_loads 1319251
Core_0_LLC_load_hit 866323 LLC_load_Hit Ratio: 0.65668
Core_0_LLC_load_miss 452928
Core_0_LLC_RFOs 999611
Core_0_LLC_RFO_hit 40 LLC_RFO_Hit Ratio: 0.00004
Core_0_LLC_RFO_miss 999571
Core_0_LLC_prefetches 6230224
Core_0_LLC_prefetch_hit 1251442 LLC_prefetch_Hit Ratio: 0.20087
Core_0_LLC_prefetch_miss 4978782
Core_0_LLC_writebacks 3702933
Core_0_LLC_writeback_hit 3680472 LLC_writeback_Hit Ratio: 0.99393
Core_0_LLC_writeback_miss 22461
Core_0_LLC_prefetch_requested 0
Core_0_LLC_prefetch_issued 0
Core_0_LLC_prefetch_useful 663889 LLC_Useful Ratio: inf
Core_0_LLC_prefetch_useless 4289206
Core_0_LLC_prefetch_late 1540
Core_0_LLC_average_miss_latency 288.47926

Core_0_major_page_fault 0
Core_0_minor_page_fault 37887

CPU 0 L1D next line prefetcher final stats
CPU 0 L2C PC-based stride prefetcher final stats
Stride Degree: 15
MK1  MARKOV_LRU_SIZE: 128
MK1  MARKOV_PREDICTION_PERCENTTHRESHOLD: 40.00000
MK1  OUTLIERS_THRESHOLD_Max: 64
MK1  OUTLIERS_THRESHOLD_Min: 32
MK2  MARKOV_LRU_SIZE: 256
MK2  MARKOV_PREDICTION_PERCENTTHRESHOLD: 30.00000
MK2  OUTLIERS_THRESHOLD_Max: 32
MK2  OUTLIERS_THRESHOLD_Min: 16
MK3  MARKOV_LRU_SIZE: 384
MK3  MARKOV_PREDICTION_PERCENTTHRESHOLD: 25.00000
MK3  OUTLIERS_THRESHOLD_Max: 16
MK3  OUTLIERS_THRESHOLD_Min: 8
MK4  MARKOV_LRU_SIZE: 512
MK4  MARKOV_PREDICTION_PERCENTTHRESHOLD: 20.00000
MK4  OUTLIERS_THRESHOLD_Max: 8
MK4  OUTLIERS_THRESHOLD_Min: 0
IPStride Degree/Access Ratio: 3.73636
MK1 IPDEltaMarkov  Degree/Access Ratio: 0.54549
MK2 IPDEltaMarkov  Degree/Access Ratio: 0.66790
MK3 IPDEltaMarkov  Degree/Access Ratio: 0.73385
MK4 IPDEltaMarkov  Degree/Access Ratio: 1.39348
Channel_0_RQ_row_buffer_hit 3479845
Channel_0_RQ_row_buffer_miss 2951315
Channel_0_WQ_row_buffer_hit 957281
Channel_0_WQ_row_buffer_miss 2361107
Channel_0_WQ_full 90
Channel_0_dbus_congested 5234029

avg_congested_cycle 8

EzSearch AVG IPC :0.81297: L2-Pf-HR :0.92208 : L2-HR :0.90920 Uful:0.01019
     > Finished combination: TraceType=770-tot Sim:657000000 Prefetcher=L2029-SecTOP-L2-MultiMarkovDelta_ip_stride_v4-IPStrS256 L1=next_line
