TRACE: [167000000][OPT-350M]_[h16][s512][d64] Warmup: 2000000 NumTraces: 167000000
L1:ipcp:L2:ipcp
*************************************************
   ChampSim Multicore Out-of-Order Simulator
   Last compiled: Oct 31 2024 10:31:59
*************************************************

trace_0 770-tot_memTraces_v5/140-subBillion_s512_LLM_Arch/memTraces[167000000][OPT-350M]_[h16][s512][d64].champsim.9.xz
MAIN.cc ln 751 stats print skipped
CPU  0 inst:    1000000 cyc:     506289 now IPC :1.97516: AVG IPC :1.97516: L2-Pf-HR :0.88529: L2-HR :0.82175: (Sim:0h0m14s) 
CPU  0 inst:    2000002 cyc:     994689 now IPC :2.04751: AVG IPC :2.01068: L2-Pf-HR :0.92850: L2-HR :0.86124: (Sim:0h0m28s) 

Warmup complete CPU  0 instructions:    2000002 cycles:     994689 (Simulation time: 0 hr 0 min 28 sec) 

CPU  0 inst:    3000003 cyc:    1651642 now IPC :1.52218: AVG IPC :1.52218: L2-Pf-HR :0.96244: L2-HR :0.89062: (Sim:0h0m37s) 
CPU  0 inst:    4000001 cyc:    2281100 now IPC :1.58867: AVG IPC :1.55471: L2-Pf-HR :0.95932: L2-HR :0.88121: (Sim:0h0m48s) 
CPU  0 inst:    5000002 cyc:    2949748 now IPC :1.49556: AVG IPC :1.53448: L2-Pf-HR :0.95647: L2-HR :0.87873: (Sim:0h0m59s) 
CPU  0 inst:    6000000 cyc:    3590495 now IPC :1.56068: AVG IPC :1.54095: L2-Pf-HR :0.96317: L2-HR :0.88539: (Sim:0h1m13s) 
CPU  0 inst:    7000004 cyc:    4230955 now IPC :1.56138: AVG IPC :1.54499: L2-Pf-HR :0.96655: L2-HR :0.88885: (Sim:0h1m25s) 
CPU  0 inst:    8000000 cyc:    4864399 now IPC :1.57867: AVG IPC :1.55050: L2-Pf-HR :0.96483: L2-HR :0.88671: (Sim:0h1m39s) 
CPU  0 inst:    9000000 cyc:    5553529 now IPC :1.45110: AVG IPC :1.53548: L2-Pf-HR :0.96247: L2-HR :0.88461: (Sim:0h1m52s) 
CPU  0 inst:   10000001 cyc:    6230234 now IPC :1.47775: AVG IPC :1.52802: L2-Pf-HR :0.96493: L2-HR :0.88719: (Sim:0h2m6s) 
CPU  0 inst:   11000003 cyc:    6909014 now IPC :1.47323: AVG IPC :1.52173: L2-Pf-HR :0.96649: L2-HR :0.88867: (Sim:0h2m19s) 
CPU  0 inst:   12000001 cyc:    7591395 now IPC :1.46545: AVG IPC :1.51591: L2-Pf-HR :0.96498: L2-HR :0.88768: (Sim:0h2m33s) 
CPU  0 inst:   13000004 cyc:    8324433 now IPC :1.36419: AVG IPC :1.50073: L2-Pf-HR :0.96313: L2-HR :0.88602: (Sim:0h2m47s) 
CPU  0 inst:   14000002 cyc:    9021205 now IPC :1.43519: AVG IPC :1.49504: L2-Pf-HR :0.96481: L2-HR :0.88742: (Sim:0h3m1s) 
CPU  0 inst:   15000000 cyc:    9713565 now IPC :1.44433: AVG IPC :1.49102: L2-Pf-HR :0.96590: L2-HR :0.88877: (Sim:0h3m15s) 
CPU  0 inst:   16000000 cyc:   10418420 now IPC :1.41873: AVG IPC :1.48561: L2-Pf-HR :0.96526: L2-HR :0.88823: (Sim:0h3m29s) 
CPU  0 inst:   17000002 cyc:   11163710 now IPC :1.34176: AVG IPC :1.47507: L2-Pf-HR :0.96408: L2-HR :0.88635: (Sim:0h3m43s) 
CPU  0 inst:   18000002 cyc:   11864308 now IPC :1.42735: AVG IPC :1.47199: L2-Pf-HR :0.96511: L2-HR :0.88767: (Sim:0h3m57s) 
CPU  0 inst:   19000002 cyc:   12563256 now IPC :1.43072: AVG IPC :1.46950: L2-Pf-HR :0.96603: L2-HR :0.88840: (Sim:0h4m8s) 
CPU  0 inst:   20000000 cyc:   13263211 now IPC :1.42866: AVG IPC :1.46717: L2-Pf-HR :0.96575: L2-HR :0.88855: (Sim:0h4m16s) 
CPU  0 inst:   21000000 cyc:   13992950 now IPC :1.37035: AVG IPC :1.46173: L2-Pf-HR :0.96425: L2-HR :0.88695: (Sim:0h4m29s) 
CPU  0 inst:   22000000 cyc:   14687444 now IPC :1.43990: AVG IPC :1.46063: L2-Pf-HR :0.96507: L2-HR :0.88767: (Sim:0h4m43s) 
CPU  0 inst:   23000003 cyc:   15384051 now IPC :1.43553: AVG IPC :1.45941: L2-Pf-HR :0.96578: L2-HR :0.88846: (Sim:0h4m57s) 
CPU  0 inst:   24000000 cyc:   16089941 now IPC :1.41665: AVG IPC :1.45741: L2-Pf-HR :0.96576: L2-HR :0.88860: (Sim:0h5m11s) 
CPU  0 inst:   25000000 cyc:   16825654 now IPC :1.35923: AVG IPC :1.45285: L2-Pf-HR :0.96451: L2-HR :0.88705: (Sim:0h5m24s) 
CPU  0 inst:   26000003 cyc:   17526486 now IPC :1.42688: AVG IPC :1.45175: L2-Pf-HR :0.96520: L2-HR :0.88780: (Sim:0h5m37s) 
CPU  0 inst:   27000002 cyc:   18227365 now IPC :1.42678: AVG IPC :1.45073: L2-Pf-HR :0.96567: L2-HR :0.88837: (Sim:0h5m51s) 
CPU  0 inst:   28000003 cyc:   18940127 now IPC :1.40299: AVG IPC :1.44884: L2-Pf-HR :0.96570: L2-HR :0.88867: (Sim:0h6m5s) 
CPU  0 inst:   29000001 cyc:   19662123 now IPC :1.38505: AVG IPC :1.44637: L2-Pf-HR :0.96459: L2-HR :0.88724: (Sim:0h6m19s) 
CPU  0 inst:   30000002 cyc:   20370615 now IPC :1.41145: AVG IPC :1.44509: L2-Pf-HR :0.96519: L2-HR :0.88789: (Sim:0h6m32s) 
CPU  0 inst:   31000000 cyc:   21075404 now IPC :1.41886: AVG IPC :1.44417: L2-Pf-HR :0.96565: L2-HR :0.88834: (Sim:0h6m46s) 
CPU  0 inst:   32000000 cyc:   21784791 now IPC :1.40967: AVG IPC :1.44299: L2-Pf-HR :0.96579: L2-HR :0.88890: (Sim:0h7m0s) 
CPU  0 inst:   33000000 cyc:   22483786 now IPC :1.43063: AVG IPC :1.44259: L2-Pf-HR :0.96506: L2-HR :0.88783: (Sim:0h7m14s) 
CPU  0 inst:   34000000 cyc:   23219078 now IPC :1.36000: AVG IPC :1.43986: L2-Pf-HR :0.96519: L2-HR :0.88798: (Sim:0h7m27s) 
CPU  0 inst:   35000002 cyc:   23919943 now IPC :1.42681: AVG IPC :1.43946: L2-Pf-HR :0.96562: L2-HR :0.88856: (Sim:0h7m41s) 
CPU  0 inst:   36000005 cyc:   24623478 now IPC :1.42140: AVG IPC :1.43892: L2-Pf-HR :0.96592: L2-HR :0.88881: (Sim:0h7m55s) 
CPU  0 inst:   37000001 cyc:   25304185 now IPC :1.46905: AVG IPC :1.43977: L2-Pf-HR :0.96558: L2-HR :0.88836: (Sim:0h8m7s) 
CPU  0 inst:   38000003 cyc:   26059499 now IPC :1.32396: AVG IPC :1.43628: L2-Pf-HR :0.96522: L2-HR :0.88815: (Sim:0h8m21s) 
CPU  0 inst:   39000002 cyc:   26760612 now IPC :1.42630: AVG IPC :1.43601: L2-Pf-HR :0.96563: L2-HR :0.88850: (Sim:0h8m33s) 
CPU  0 inst:   40000000 cyc:   27464562 now IPC :1.42055: AVG IPC :1.43559: L2-Pf-HR :0.96590: L2-HR :0.88887: (Sim:0h8m46s) 
CPU  0 inst:   41000001 cyc:   28145231 now IPC :1.46914: AVG IPC :1.43644: L2-Pf-HR :0.96552: L2-HR :0.88846: (Sim:0h8m59s) 
CPU  0 inst:   42000000 cyc:   28893767 now IPC :1.33594: AVG IPC :1.43374: L2-Pf-HR :0.96512: L2-HR :0.88813: (Sim:0h9m12s) 
CPU  0 inst:   43000002 cyc:   29598298 now IPC :1.41939: AVG IPC :1.43339: L2-Pf-HR :0.96555: L2-HR :0.88858: (Sim:0h9m24s) 
CPU  0 inst:   44000000 cyc:   30300906 now IPC :1.42327: AVG IPC :1.43314: L2-Pf-HR :0.96584: L2-HR :0.88889: (Sim:0h9m37s) 
CPU  0 inst:   45000003 cyc:   30996515 now IPC :1.43759: AVG IPC :1.43325: L2-Pf-HR :0.96560: L2-HR :0.88859: (Sim:0h9m50s) 
CPU  0 inst:   46000002 cyc:   31741106 now IPC :1.34302: AVG IPC :1.43106: L2-Pf-HR :0.96517: L2-HR :0.88822: (Sim:0h10m2s) 
CPU  0 inst:   47000003 cyc:   32438792 now IPC :1.43331: AVG IPC :1.43111: L2-Pf-HR :0.96555: L2-HR :0.88860: (Sim:0h10m12s) 
CPU  0 inst:   48000000 cyc:   33135436 now IPC :1.43545: AVG IPC :1.43121: L2-Pf-HR :0.96585: L2-HR :0.88888: (Sim:0h10m26s) 
CPU  0 inst:   49000004 cyc:   33833687 now IPC :1.43216: AVG IPC :1.43123: L2-Pf-HR :0.96568: L2-HR :0.88868: (Sim:0h10m37s) 
CPU  0 inst:   50000002 cyc:   34559872 now IPC :1.37706: AVG IPC :1.43005: L2-Pf-HR :0.96530: L2-HR :0.88830: (Sim:0h10m48s) 
CPU  0 inst:   51000005 cyc:   35261176 now IPC :1.42592: AVG IPC :1.42997: L2-Pf-HR :0.96563: L2-HR :0.88855: (Sim:0h11m1s) 
CPU  0 inst:   52000002 cyc:   35957871 now IPC :1.43534: AVG IPC :1.43008: L2-Pf-HR :0.96589: L2-HR :0.88890: (Sim:0h11m14s) 
CPU  0 inst:   53000004 cyc:   36660264 now IPC :1.42371: AVG IPC :1.42995: L2-Pf-HR :0.96575: L2-HR :0.88878: (Sim:0h11m28s) 
CPU  0 inst:   54000005 cyc:   37397082 now IPC :1.35719: AVG IPC :1.42848: L2-Pf-HR :0.96539: L2-HR :0.88823: (Sim:0h11m41s) 
CPU  0 inst:   55000004 cyc:   38099734 now IPC :1.42318: AVG IPC :1.42838: L2-Pf-HR :0.96570: L2-HR :0.88859: (Sim:0h11m55s) 
CPU  0 inst:   56000000 cyc:   38806039 now IPC :1.41581: AVG IPC :1.42814: L2-Pf-HR :0.96595: L2-HR :0.88878: (Sim:0h12m9s) 
CPU  0 inst:   57000004 cyc:   39508189 now IPC :1.42420: AVG IPC :1.42807: L2-Pf-HR :0.96591: L2-HR :0.88883: (Sim:0h12m22s) 
CPU  0 inst:   58000000 cyc:   40248180 now IPC :1.35136: AVG IPC :1.42662: L2-Pf-HR :0.96547: L2-HR :0.88829: (Sim:0h12m36s) 
CPU  0 inst:   59000002 cyc:   40952469 now IPC :1.41987: AVG IPC :1.42651: L2-Pf-HR :0.96573: L2-HR :0.88854: (Sim:0h12m49s) 
CPU  0 inst:   60000005 cyc:   41655124 now IPC :1.42318: AVG IPC :1.42645: L2-Pf-HR :0.96593: L2-HR :0.88882: (Sim:0h13m3s) 
CPU  0 inst:   61000004 cyc:   42362873 now IPC :1.41293: AVG IPC :1.42622: L2-Pf-HR :0.96586: L2-HR :0.88884: (Sim:0h13m16s) 
CPU  0 inst:   62000002 cyc:   43089796 now IPC :1.37566: AVG IPC :1.42534: L2-Pf-HR :0.96542: L2-HR :0.88832: (Sim:0h13m30s) 
CPU  0 inst:   63000000 cyc:   43799741 now IPC :1.40856: AVG IPC :1.42507: L2-Pf-HR :0.96570: L2-HR :0.88857: (Sim:0h13m44s) 
CPU  0 inst:   64000000 cyc:   44506339 now IPC :1.41523: AVG IPC :1.42491: L2-Pf-HR :0.96592: L2-HR :0.88881: (Sim:0h13m57s) 
CPU  0 inst:   65000000 cyc:   45215872 now IPC :1.40938: AVG IPC :1.42466: L2-Pf-HR :0.96591: L2-HR :0.88894: (Sim:0h14m11s) 
CPU  0 inst:   66000001 cyc:   46464049 now IPC :0.80117: AVG IPC :1.40754: L2-Pf-HR :0.96330: L2-HR :0.88501: (Sim:0h14m26s) 
CPU  0 inst:   67000000 cyc:   51148046 now IPC :0.21349: AVG IPC :1.29602: L2-Pf-HR :0.94448: L2-HR :0.85855: (Sim:0h15m1s) 
CPU  0 inst:   68000005 cyc:   56068420 now IPC :0.20324: AVG IPC :1.19839: L2-Pf-HR :0.92663: L2-HR :0.83550: (Sim:0h15m34s) 
CPU  0 inst:   69000000 cyc:   60028601 now IPC :0.25251: AVG IPC :1.13494: L2-Pf-HR :0.91850: L2-HR :0.82720: (Sim:0h15m54s) 
CPU  0 inst:   70000000 cyc:   63682778 now IPC :0.27366: AVG IPC :1.08474: L2-Pf-HR :0.91395: L2-HR :0.82392: (Sim:0h16m19s) 
CPU  0 inst:   71000002 cyc:   67335544 now IPC :0.27377: AVG IPC :1.04008: L2-Pf-HR :0.90947: L2-HR :0.82069: (Sim:0h16m44s) 
CPU  0 inst:   72000000 cyc:   70985144 now IPC :0.27400: AVG IPC :1.00014: L2-Pf-HR :0.90504: L2-HR :0.81752: (Sim:0h17m10s) 
CPU  0 inst:   73000003 cyc:   74634570 now IPC :0.27402: AVG IPC :0.96415: L2-Pf-HR :0.90066: L2-HR :0.81438: (Sim:0h17m35s) 
CPU  0 inst:   74000000 cyc:   78283115 now IPC :0.27408: AVG IPC :0.93158: L2-Pf-HR :0.89633: L2-HR :0.81130: (Sim:0h18m0s) 
CPU  0 inst:   75000005 cyc:   81929212 now IPC :0.27427: AVG IPC :0.90196: L2-Pf-HR :0.89204: L2-HR :0.80825: (Sim:0h18m25s) 
CPU  0 inst:   76000000 cyc:   85577912 now IPC :0.27407: AVG IPC :0.87488: L2-Pf-HR :0.88781: L2-HR :0.80525: (Sim:0h18m50s) 
CPU  0 inst:   77000000 cyc:   89226509 now IPC :0.27408: AVG IPC :0.85003: L2-Pf-HR :0.88364: L2-HR :0.80230: (Sim:0h19m15s) 
CPU  0 inst:   78000000 cyc:   92873805 now IPC :0.27418: AVG IPC :0.82717: L2-Pf-HR :0.87952: L2-HR :0.79939: (Sim:0h19m40s) 
CPU  0 inst:   79000002 cyc:   96521364 now IPC :0.27416: AVG IPC :0.80606: L2-Pf-HR :0.87544: L2-HR :0.79652: (Sim:0h20m5s) 
CPU  0 inst:   80000000 cyc:  100169338 now IPC :0.27412: AVG IPC :0.78649: L2-Pf-HR :0.87140: L2-HR :0.79368: (Sim:0h20m30s) 
CPU  0 inst:   81000004 cyc:  103818040 now IPC :0.27407: AVG IPC :0.76831: L2-Pf-HR :0.86740: L2-HR :0.79089: (Sim:0h20m55s) 
CPU  0 inst:   82000000 cyc:  107464559 now IPC :0.27423: AVG IPC :0.75139: L2-Pf-HR :0.86345: L2-HR :0.78814: (Sim:0h21m20s) 
CPU  0 inst:   83000005 cyc:  111113317 now IPC :0.27407: AVG IPC :0.73557: L2-Pf-HR :0.85956: L2-HR :0.78543: (Sim:0h21m45s) 
CPU  0 inst:   84000001 cyc:  114758879 now IPC :0.27431: AVG IPC :0.72079: L2-Pf-HR :0.85571: L2-HR :0.78275: (Sim:0h22m10s) 
CPU  0 inst:   85000005 cyc:  118407451 now IPC :0.27408: AVG IPC :0.70691: L2-Pf-HR :0.85188: L2-HR :0.78011: (Sim:0h22m35s) 
CPU  0 inst:   86000000 cyc:  122054215 now IPC :0.27421: AVG IPC :0.69387: L2-Pf-HR :0.84810: L2-HR :0.77750: (Sim:0h23m0s) 
CPU  0 inst:   87000002 cyc:  125701298 now IPC :0.27419: AVG IPC :0.68160: L2-Pf-HR :0.84437: L2-HR :0.77493: (Sim:0h23m25s) 
CPU  0 inst:   88000000 cyc:  129351162 now IPC :0.27398: AVG IPC :0.67001: L2-Pf-HR :0.84068: L2-HR :0.77240: (Sim:0h23m50s) 
CPU  0 inst:   89000004 cyc:  132997325 now IPC :0.27426: AVG IPC :0.65908: L2-Pf-HR :0.83703: L2-HR :0.76990: (Sim:0h24m14s) 
CPU  0 inst:   90000000 cyc:  136645455 now IPC :0.27411: AVG IPC :0.64872: L2-Pf-HR :0.83341: L2-HR :0.76743: (Sim:0h24m39s) 
CPU  0 inst:   91000003 cyc:  140294190 now IPC :0.27407: AVG IPC :0.63891: L2-Pf-HR :0.82984: L2-HR :0.76499: (Sim:0h25m4s) 
CPU  0 inst:   92000002 cyc:  143942660 now IPC :0.27409: AVG IPC :0.62960: L2-Pf-HR :0.82631: L2-HR :0.76259: (Sim:0h25m29s) 
CPU  0 inst:   93000003 cyc:  147590396 now IPC :0.27414: AVG IPC :0.62075: L2-Pf-HR :0.82284: L2-HR :0.76022: (Sim:0h25m54s) 
CPU  0 inst:   94000002 cyc:  151236186 now IPC :0.27429: AVG IPC :0.61235: L2-Pf-HR :0.81937: L2-HR :0.75787: (Sim:0h26m13s) 
CPU  0 inst:   95000003 cyc:  154883873 now IPC :0.27415: AVG IPC :0.60433: L2-Pf-HR :0.81594: L2-HR :0.75555: (Sim:0h26m38s) 
CPU  0 inst:   96000000 cyc:  158531900 now IPC :0.27412: AVG IPC :0.59668: L2-Pf-HR :0.81254: L2-HR :0.75327: (Sim:0h27m3s) 
CPU  0 inst:   97000004 cyc:  162179672 now IPC :0.27414: AVG IPC :0.58938: L2-Pf-HR :0.80918: L2-HR :0.75101: (Sim:0h27m28s) 
CPU  0 inst:   98000000 cyc:  165827641 now IPC :0.27412: AVG IPC :0.58241: L2-Pf-HR :0.80586: L2-HR :0.74879: (Sim:0h27m52s) 
CPU  0 inst:   99000003 cyc:  169473966 now IPC :0.27425: AVG IPC :0.57574: L2-Pf-HR :0.80257: L2-HR :0.74659: (Sim:0h28m17s) 
CPU  0 inst:  100000002 cyc:  173122093 now IPC :0.27411: AVG IPC :0.56935: L2-Pf-HR :0.79933: L2-HR :0.74441: (Sim:0h28m43s) 
CPU  0 inst:  101000002 cyc:  175171390 now IPC :0.48797: AVG IPC :0.56839: L2-Pf-HR :0.80007: L2-HR :0.74596: (Sim:0h29m3s) 
CPU  0 inst:  102000000 cyc:  175776004 now IPC :1.65394: AVG IPC :0.57214: L2-Pf-HR :0.80492: L2-HR :0.75126: (Sim:0h29m19s) 
CPU  0 inst:  103000001 cyc:  176375128 now IPC :1.66911: AVG IPC :0.57589: L2-Pf-HR :0.80953: L2-HR :0.75632: (Sim:0h29m35s) 
CPU  0 inst:  104000000 cyc:  176910187 now IPC :1.86895: AVG IPC :0.57982: L2-Pf-HR :0.81495: L2-HR :0.76186: (Sim:0h29m50s) 
CPU  0 inst:  105000004 cyc:  177502219 now IPC :1.68910: AVG IPC :0.58354: L2-Pf-HR :0.81930: L2-HR :0.76665: (Sim:0h30m6s) 
CPU  0 inst:  106000001 cyc:  178111507 now IPC :1.64126: AVG IPC :0.58718: L2-Pf-HR :0.82285: L2-HR :0.77088: (Sim:0h30m21s) 
CPU  0 inst:  107000003 cyc:  178720073 now IPC :1.64321: AVG IPC :0.59080: L2-Pf-HR :0.82626: L2-HR :0.77496: (Sim:0h30m37s) 
CPU  0 inst:  108000002 cyc:  179254217 now IPC :1.87215: AVG IPC :0.59464: L2-Pf-HR :0.83051: L2-HR :0.77956: (Sim:0h30m51s) 
CPU  0 inst:  109000003 cyc:  179833543 now IPC :1.72615: AVG IPC :0.59830: L2-Pf-HR :0.83406: L2-HR :0.78363: (Sim:0h31m7s) 
CPU  0 inst:  110000001 cyc:  180422613 now IPC :1.69759: AVG IPC :0.60191: L2-Pf-HR :0.83678: L2-HR :0.78712: (Sim:0h31m23s) 
CPU  0 inst:  111000003 cyc:  181015390 now IPC :1.68698: AVG IPC :0.60549: L2-Pf-HR :0.83948: L2-HR :0.79052: (Sim:0h31m38s) 
CPU  0 inst:  112000000 cyc:  181549106 now IPC :1.87365: AVG IPC :0.60923: L2-Pf-HR :0.84291: L2-HR :0.79437: (Sim:0h31m53s) 
CPU  0 inst:  113000001 cyc:  182099187 now IPC :1.81792: AVG IPC :0.61291: L2-Pf-HR :0.84603: L2-HR :0.79797: (Sim:0h32m8s) 
CPU  0 inst:  114000001 cyc:  182684966 now IPC :1.70713: AVG IPC :0.61643: L2-Pf-HR :0.84801: L2-HR :0.80078: (Sim:0h32m24s) 
CPU  0 inst:  115000002 cyc:  183256769 now IPC :1.74886: AVG IPC :0.61999: L2-Pf-HR :0.85029: L2-HR :0.80374: (Sim:0h32m39s) 
CPU  0 inst:  116000002 cyc:  183808358 now IPC :1.81294: AVG IPC :0.62359: L2-Pf-HR :0.85294: L2-HR :0.80690: (Sim:0h32m54s) 
CPU  0 inst:  117000002 cyc:  184340684 now IPC :1.87855: AVG IPC :0.62723: L2-Pf-HR :0.85569: L2-HR :0.81011: (Sim:0h33m10s) 
CPU  0 inst:  118000005 cyc:  184935824 now IPC :1.68028: AVG IPC :0.63064: L2-Pf-HR :0.85727: L2-HR :0.81246: (Sim:0h33m25s) 
CPU  0 inst:  119000001 cyc:  185514847 now IPC :1.72704: AVG IPC :0.63408: L2-Pf-HR :0.85908: L2-HR :0.81494: (Sim:0h33m41s) 
CPU  0 inst:  120000000 cyc:  186072193 now IPC :1.79422: AVG IPC :0.63757: L2-Pf-HR :0.86121: L2-HR :0.81760: (Sim:0h33m56s) 
CPU  0 inst:  121000003 cyc:  186604035 now IPC :1.88026: AVG IPC :0.64113: L2-Pf-HR :0.86350: L2-HR :0.82035: (Sim:0h34m11s) 
CPU  0 inst:  122000001 cyc:  187189309 now IPC :1.70860: AVG IPC :0.64449: L2-Pf-HR :0.86492: L2-HR :0.82247: (Sim:0h34m27s) 
CPU  0 inst:  123000002 cyc:  187763075 now IPC :1.74287: AVG IPC :0.64786: L2-Pf-HR :0.86641: L2-HR :0.82460: (Sim:0h34m42s) 
CPU  0 inst:  124000003 cyc:  188324926 now IPC :1.77983: AVG IPC :0.65126: L2-Pf-HR :0.86820: L2-HR :0.82691: (Sim:0h34m57s) 
CPU  0 inst:  125000005 cyc:  188857150 now IPC :1.87891: AVG IPC :0.65473: L2-Pf-HR :0.87028: L2-HR :0.82941: (Sim:0h35m13s) 
CPU  0 inst:  126000003 cyc:  189436379 now IPC :1.72643: AVG IPC :0.65803: L2-Pf-HR :0.87164: L2-HR :0.83136: (Sim:0h35m28s) 
CPU  0 inst:  127000001 cyc:  190011952 now IPC :1.73740: AVG IPC :0.66132: L2-Pf-HR :0.87288: L2-HR :0.83321: (Sim:0h35m44s) 
CPU  0 inst:  128000000 cyc:  190583895 now IPC :1.74842: AVG IPC :0.66459: L2-Pf-HR :0.87419: L2-HR :0.83508: (Sim:0h36m0s) 
CPU  0 inst:  129000002 cyc:  191115901 now IPC :1.87968: AVG IPC :0.66799: L2-Pf-HR :0.87587: L2-HR :0.83720: (Sim:0h36m14s) 
CPU  0 inst:  130000002 cyc:  191686948 now IPC :1.75117: AVG IPC :0.67124: L2-Pf-HR :0.87712: L2-HR :0.83897: (Sim:0h36m28s) 
CPU  0 inst:  131000000 cyc:  192264504 now IPC :1.73143: AVG IPC :0.67444: L2-Pf-HR :0.87816: L2-HR :0.84058: (Sim:0h36m44s) 
CPU  0 inst:  132000005 cyc:  192847401 now IPC :1.71558: AVG IPC :0.67760: L2-Pf-HR :0.87914: L2-HR :0.84212: (Sim:0h37m0s) 
CPU  0 inst:  133000000 cyc:  193379742 now IPC :1.87849: AVG IPC :0.68093: L2-Pf-HR :0.88065: L2-HR :0.84403: (Sim:0h37m15s) 
CPU  0 inst:  134000005 cyc:  193935814 now IPC :1.79834: AVG IPC :0.68415: L2-Pf-HR :0.88195: L2-HR :0.84577: (Sim:0h37m30s) 
CPU  0 inst:  135000003 cyc:  194520788 now IPC :1.70947: AVG IPC :0.68725: L2-Pf-HR :0.88283: L2-HR :0.84718: (Sim:0h37m46s) 
CPU  0 inst:  136000000 cyc:  195104420 now IPC :1.71340: AVG IPC :0.69033: L2-Pf-HR :0.88362: L2-HR :0.84850: (Sim:0h38m2s) 
CPU  0 inst:  137000001 cyc:  195638902 now IPC :1.87097: AVG IPC :0.69357: L2-Pf-HR :0.88504: L2-HR :0.85028: (Sim:0h38m17s) 
CPU  0 inst:  138000001 cyc:  196169998 now IPC :1.88290: AVG IPC :0.69681: L2-Pf-HR :0.88651: L2-HR :0.85208: (Sim:0h38m32s) 
CPU  0 inst:  139000005 cyc:  196766810 now IPC :1.67558: AVG IPC :0.69979: L2-Pf-HR :0.88713: L2-HR :0.85323: (Sim:0h38m48s) 
CPU  0 inst:  140000003 cyc:  197347253 now IPC :1.72282: AVG IPC :0.70282: L2-Pf-HR :0.88778: L2-HR :0.85439: (Sim:0h39m4s) 
CPU  0 inst:  141000003 cyc:  197894729 now IPC :1.82656: AVG IPC :0.70594: L2-Pf-HR :0.88896: L2-HR :0.85591: (Sim:0h39m19s) 
CPU  0 inst:  142000002 cyc:  198425998 now IPC :1.88228: AVG IPC :0.70911: L2-Pf-HR :0.89027: L2-HR :0.85753: (Sim:0h39m34s) 
CPU  0 inst:  143000002 cyc:  199020980 now IPC :1.68072: AVG IPC :0.71203: L2-Pf-HR :0.89093: L2-HR :0.85864: (Sim:0h39m47s) 
CPU  0 inst:  144000000 cyc:  199609168 now IPC :1.70013: AVG IPC :0.71495: L2-Pf-HR :0.89149: L2-HR :0.85968: (Sim:0h40m1s) 
CPU  0 inst:  145000002 cyc:  200166560 now IPC :1.79407: AVG IPC :0.71797: L2-Pf-HR :0.89241: L2-HR :0.86097: (Sim:0h40m16s) 
CPU  0 inst:  146000005 cyc:  200697474 now IPC :1.88355: AVG IPC :0.72107: L2-Pf-HR :0.89360: L2-HR :0.86245: (Sim:0h40m31s) 
CPU  0 inst:  147000004 cyc:  201279435 now IPC :1.71833: AVG IPC :0.72397: L2-Pf-HR :0.89426: L2-HR :0.86351: (Sim:0h40m45s) 
CPU  0 inst:  148000001 cyc:  201862960 now IPC :1.71372: AVG IPC :0.72684: L2-Pf-HR :0.89474: L2-HR :0.86444: (Sim:0h40m57s) 
CPU  0 inst:  149000001 cyc:  202429362 now IPC :1.76553: AVG IPC :0.72977: L2-Pf-HR :0.89544: L2-HR :0.86550: (Sim:0h41m13s) 
CPU  0 inst:  150000005 cyc:  202961149 now IPC :1.88046: AVG IPC :0.73279: L2-Pf-HR :0.89641: L2-HR :0.86677: (Sim:0h41m25s) 
CPU  0 inst:  151000003 cyc:  203538122 now IPC :1.73318: AVG IPC :0.73564: L2-Pf-HR :0.89695: L2-HR :0.86770: (Sim:0h41m40s) 
CPU  0 inst:  152000000 cyc:  204116570 now IPC :1.72876: AVG IPC :0.73847: L2-Pf-HR :0.89741: L2-HR :0.86856: (Sim:0h41m55s) 
CPU  0 inst:  153000000 cyc:  204686256 now IPC :1.75535: AVG IPC :0.74132: L2-Pf-HR :0.89800: L2-HR :0.86949: (Sim:0h42m7s) 
CPU  0 inst:  154000001 cyc:  205218808 now IPC :1.87775: AVG IPC :0.74428: L2-Pf-HR :0.89888: L2-HR :0.87066: (Sim:0h42m21s) 
CPU  0 inst:  155000004 cyc:  205792073 now IPC :1.74440: AVG IPC :0.74708: L2-Pf-HR :0.89943: L2-HR :0.87155: (Sim:0h42m36s) 
CPU  0 inst:  156000001 cyc:  206370863 now IPC :1.72774: AVG IPC :0.74984: L2-Pf-HR :0.89988: L2-HR :0.87236: (Sim:0h42m51s) 
CPU  0 inst:  157000003 cyc:  206951631 now IPC :1.72186: AVG IPC :0.75258: L2-Pf-HR :0.90033: L2-HR :0.87316: (Sim:0h43m7s) 
CPU  0 inst:  158000000 cyc:  207483264 now IPC :1.88099: AVG IPC :0.75549: L2-Pf-HR :0.90112: L2-HR :0.87421: (Sim:0h43m22s) 
CPU  0 inst:  159000001 cyc:  208038428 now IPC :1.80127: AVG IPC :0.75829: L2-Pf-HR :0.90173: L2-HR :0.87512: (Sim:0h43m37s) 
CPU  0 inst:  160000000 cyc:  208619834 now IPC :1.71997: AVG IPC :0.76099: L2-Pf-HR :0.90208: L2-HR :0.87582: (Sim:0h43m53s) 
CPU  0 inst:  161000002 cyc:  209199829 now IPC :1.72416: AVG IPC :0.76367: L2-Pf-HR :0.90251: L2-HR :0.87658: (Sim:0h44m8s) 
CPU  0 inst:  162000004 cyc:  209745562 now IPC :1.83240: AVG IPC :0.76646: L2-Pf-HR :0.90326: L2-HR :0.87756: (Sim:0h44m23s) 
CPU  0 inst:  163000001 cyc:  210278244 now IPC :1.87729: AVG IPC :0.76929: L2-Pf-HR :0.90406: L2-HR :0.87859: (Sim:0h44m37s) 
CPU  0 inst:  164000004 cyc:  210873939 now IPC :1.67872: AVG IPC :0.77187: L2-Pf-HR :0.90431: L2-HR :0.87918: (Sim:0h44m49s) 
Finished CPU 0 instr: 162000002 cyc: 209879250 AVG IPC: 0.77187 (Sim time: 0h44m49s)

ChampSim completed all CPUs

[ROI Statistics]
Core_0_instructions 162000002
Core_0_cycles 209879250
Core_0_IPC 0.77187

Core_0_branch_prediction_accuracy 99.21038
Core_0_branch_MPKI 0.23475
Core_0_average_ROB_occupancy_at_mispredict 399.53062

Core_0_L1D_total_access 73948118
Core_0_L1D_total_hit 67423477 L1D_total_Hit Ratio: 0.91177
Core_0_L1D_total_miss 6524641
Core_0_L1D_loads 40753981
Core_0_L1D_load_hit 37313688 L1D_load_Hit Ratio: 0.91558
Core_0_L1D_load_miss 3440293
Core_0_L1D_RFOs 4398512
Core_0_L1D_RFO_hit 4178706 L1D_RFO_Hit Ratio: 0.95003
Core_0_L1D_RFO_miss 219806
Core_0_L1D_prefetches 28795625
Core_0_L1D_prefetch_hit 25931083 L1D_prefetch_Hit Ratio: 0.90052
Core_0_L1D_prefetch_miss 2864542
Core_0_L1D_writebacks 0
Core_0_L1D_writeback_hit 0 L1D_writeback_Hit Ratio: -nan
Core_0_L1D_writeback_miss 0
Core_0_L1D_prefetch_requested 75808652
Core_0_L1D_prefetch_issued 40633023
Core_0_L1D_prefetch_useful 2560359 L1D_Useful Ratio: 0.06301
Core_0_L1D_prefetch_useless 320996
Core_0_L1D_prefetch_late 650278
Core_0_L1D_average_miss_latency 16184486.14990

Core_0_L1I_total_access 23372174
Core_0_L1I_total_hit 23367158 L1I_total_Hit Ratio: 0.99979
Core_0_L1I_total_miss 5016
Core_0_L1I_loads 23372174
Core_0_L1I_load_hit 23367158 L1I_load_Hit Ratio: 0.99979
Core_0_L1I_load_miss 5016
Core_0_L1I_RFOs 0
Core_0_L1I_RFO_hit 0 L1I_RFO_Hit Ratio: -nan
Core_0_L1I_RFO_miss 0
Core_0_L1I_prefetches 0
Core_0_L1I_prefetch_hit 0 L1I_prefetch_Hit Ratio: -nan
Core_0_L1I_prefetch_miss 0
Core_0_L1I_writebacks 0
Core_0_L1I_writeback_hit 0 L1I_writeback_Hit Ratio: -nan
Core_0_L1I_writeback_miss 0
Core_0_L1I_prefetch_requested 0
Core_0_L1I_prefetch_issued 0
Core_0_L1I_prefetch_useful 0 L1I_Useful Ratio: -nan
Core_0_L1I_prefetch_useless 0
Core_0_L1I_prefetch_late 0
Core_0_L1I_average_miss_latency 273.02333

Core_0_L2C_total_access 12161082
Core_0_L2C_total_hit 10691745 L2C_total_Hit Ratio: 0.87918
Core_0_L2C_total_miss 1469337
Core_0_L2C_loads 2795120
Core_0_L2C_load_hit 2302638 L2C_load_Hit Ratio: 0.82381
Core_0_L2C_load_miss 492482
Core_0_L2C_RFOs 219799
Core_0_L2C_RFO_hit 22411 L2C_RFO_Hit Ratio: 0.10196
Core_0_L2C_RFO_miss 197388
Core_0_L2C_prefetches 8145305
Core_0_L2C_prefetch_hit 7365843 L2C_prefetch_Hit Ratio: 0.90431
Core_0_L2C_prefetch_miss 779462
Core_0_L2C_writebacks 1000858
Core_0_L2C_writeback_hit 1000853 L2C_writeback_Hit Ratio: 1.00000
Core_0_L2C_writeback_miss 5
Core_0_L2C_prefetch_requested 9787813
Core_0_L2C_prefetch_issued 9488886
Core_0_L2C_prefetch_useful 125316 L2C_Useful Ratio: 0.01321
Core_0_L2C_prefetch_useless 646721
Core_0_L2C_prefetch_late 166922
Core_0_L2C_average_miss_latency 320.48608

Core_0_LLC_total_access 2301199
Core_0_LLC_total_hit 869727 LLC_total_Hit Ratio: 0.37795
Core_0_LLC_total_miss 1431472
Core_0_LLC_loads 325691
Core_0_LLC_load_hit 6333 LLC_load_Hit Ratio: 0.01944
Core_0_LLC_load_miss 319358
Core_0_LLC_RFOs 197373
Core_0_LLC_RFO_hit 276 LLC_RFO_Hit Ratio: 0.00140
Core_0_LLC_RFO_miss 197097
Core_0_LLC_prefetches 946255
Core_0_LLC_prefetch_hit 35446 LLC_prefetch_Hit Ratio: 0.03746
Core_0_LLC_prefetch_miss 910809
Core_0_LLC_writebacks 831880
Core_0_LLC_writeback_hit 827672 LLC_writeback_Hit Ratio: 0.99494
Core_0_LLC_writeback_miss 4208
Core_0_LLC_prefetch_requested 0
Core_0_LLC_prefetch_issued 0
Core_0_LLC_prefetch_useful 3283 LLC_Useful Ratio: inf
Core_0_LLC_prefetch_useless 871142
Core_0_LLC_prefetch_late 0
Core_0_LLC_average_miss_latency 293.67882

Core_0_major_page_fault 0
Core_0_minor_page_fault 11197


Channel_0_RQ_row_buffer_hit 759538
Channel_0_RQ_row_buffer_miss 667726
Channel_0_WQ_row_buffer_hit 303706
Channel_0_WQ_row_buffer_miss 514876
Channel_0_WQ_full 3482
Channel_0_dbus_congested 1120762

avg_congested_cycle 8

EzSearch AVG IPC :0.77187: L2-Pf-HR :0.90431 : L2-HR :0.87918 Uful:0.01321
     > Finished combination: TraceType=770-tot Sim:162000000 Prefetcher=L2ipcp L1=ipcp
