TRACE: [83000000][Pythia-70M]_[h8][s512][d64] Warmup: 2000000 NumTraces: 83000000
L1:berti_concurso:L2:berti_concurso
*************************************************
   ChampSim Multicore Out-of-Order Simulator
   Last compiled: Oct 31 2024 10:52:24
*************************************************

trace_0 770-tot_memTraces_v5/140-subBillion_s512_LLM_Arch/memTraces[83000000][Pythia-70M]_[h8][s512][d64].champsim.9.xz
CPU 0 L1D Berti prefetcher
CPU 0 L2C Berti prefetcher
MAIN.cc ln 751 stats print skipped
CPU  0 inst:    1000003 cyc:     505987 now IPC :1.97634: AVG IPC :1.97634: L2-Pf-HR :0.78009: L2-HR :0.74323: (Sim:0h0m15s) 
CPU  0 inst:    2000001 cyc:     993615 now IPC :2.05074: AVG IPC :2.01285: L2-Pf-HR :0.83833: L2-HR :0.79854: (Sim:0h0m31s) 

Warmup complete CPU  0 instructions:    2000001 cycles:     993615 (Simulation time: 0 hr 0 min 31 sec) 

CPU  0 inst:    3000005 cyc:    1636328 now IPC :1.55591: AVG IPC :1.55591: L2-Pf-HR :0.93734: L2-HR :0.86375: (Sim:0h0m44s) 
CPU  0 inst:    4000001 cyc:    2263182 now IPC :1.59526: AVG IPC :1.57534: L2-Pf-HR :0.91261: L2-HR :0.84244: (Sim:0h0m56s) 
CPU  0 inst:    5000003 cyc:    2931440 now IPC :1.49643: AVG IPC :1.54813: L2-Pf-HR :0.91778: L2-HR :0.83951: (Sim:0h1m4s) 
CPU  0 inst:    6000003 cyc:    3563470 now IPC :1.58220: AVG IPC :1.55651: L2-Pf-HR :0.93183: L2-HR :0.84921: (Sim:0h1m12s) 
CPU  0 inst:    7000002 cyc:    4196942 now IPC :1.57860: AVG IPC :1.56088: L2-Pf-HR :0.93738: L2-HR :0.85273: (Sim:0h1m24s) 
CPU  0 inst:    8000000 cyc:    4825893 now IPC :1.58995: AVG IPC :1.56565: L2-Pf-HR :0.93136: L2-HR :0.84887: (Sim:0h1m37s) 
CPU  0 inst:    9000005 cyc:    5508054 now IPC :1.46594: AVG IPC :1.55058: L2-Pf-HR :0.92672: L2-HR :0.84578: (Sim:0h1m50s) 
CPU  0 inst:   10000000 cyc:    6179203 now IPC :1.48997: AVG IPC :1.54274: L2-Pf-HR :0.93262: L2-HR :0.84953: (Sim:0h2m4s) 
CPU  0 inst:   11000000 cyc:    6846214 now IPC :1.49923: AVG IPC :1.53778: L2-Pf-HR :0.93648: L2-HR :0.85196: (Sim:0h2m17s) 
CPU  0 inst:   12000002 cyc:    7528596 now IPC :1.46546: AVG IPC :1.53023: L2-Pf-HR :0.93297: L2-HR :0.84982: (Sim:0h2m31s) 
CPU  0 inst:   13000002 cyc:    8262808 now IPC :1.36200: AVG IPC :1.51324: L2-Pf-HR :0.93094: L2-HR :0.84699: (Sim:0h2m44s) 
CPU  0 inst:   14000000 cyc:    8949563 now IPC :1.45612: AVG IPC :1.50831: L2-Pf-HR :0.93442: L2-HR :0.84901: (Sim:0h2m58s) 
CPU  0 inst:   15000004 cyc:    9631223 now IPC :1.46701: AVG IPC :1.50505: L2-Pf-HR :0.93673: L2-HR :0.85100: (Sim:0h3m11s) 
CPU  0 inst:   16000000 cyc:   10321460 now IPC :1.44877: AVG IPC :1.50088: L2-Pf-HR :0.93467: L2-HR :0.85014: (Sim:0h3m25s) 
CPU  0 inst:   17000002 cyc:   11066795 now IPC :1.34168: AVG IPC :1.48910: L2-Pf-HR :0.93245: L2-HR :0.84725: (Sim:0h3m35s) 
CPU  0 inst:   18000000 cyc:   11760794 now IPC :1.44092: AVG IPC :1.48600: L2-Pf-HR :0.93493: L2-HR :0.84932: (Sim:0h3m47s) 
CPU  0 inst:   19000000 cyc:   12447845 now IPC :1.45550: AVG IPC :1.48417: L2-Pf-HR :0.93683: L2-HR :0.85051: (Sim:0h3m57s) 
CPU  0 inst:   20000000 cyc:   13140105 now IPC :1.44454: AVG IPC :1.48191: L2-Pf-HR :0.93602: L2-HR :0.85037: (Sim:0h4m8s) 
CPU  0 inst:   21000003 cyc:   13877736 now IPC :1.35570: AVG IPC :1.47468: L2-Pf-HR :0.93370: L2-HR :0.84781: (Sim:0h4m18s) 
CPU  0 inst:   22000001 cyc:   14562691 now IPC :1.45995: AVG IPC :1.47394: L2-Pf-HR :0.93571: L2-HR :0.84908: (Sim:0h4m32s) 
CPU  0 inst:   23000001 cyc:   15250374 now IPC :1.45416: AVG IPC :1.47299: L2-Pf-HR :0.93720: L2-HR :0.85028: (Sim:0h4m41s) 
CPU  0 inst:   24000000 cyc:   15944292 now IPC :1.44109: AVG IPC :1.47151: L2-Pf-HR :0.93715: L2-HR :0.85047: (Sim:0h4m49s) 
CPU  0 inst:   25000000 cyc:   16677837 now IPC :1.36324: AVG IPC :1.46644: L2-Pf-HR :0.93467: L2-HR :0.84803: (Sim:0h5m2s) 
CPU  0 inst:   26000002 cyc:   17374162 now IPC :1.43611: AVG IPC :1.46515: L2-Pf-HR :0.93630: L2-HR :0.84916: (Sim:0h5m16s) 
CPU  0 inst:   27000004 cyc:   18069311 now IPC :1.43854: AVG IPC :1.46407: L2-Pf-HR :0.93752: L2-HR :0.85005: (Sim:0h5m30s) 
CPU  0 inst:   28000005 cyc:   18766366 now IPC :1.43461: AVG IPC :1.46291: L2-Pf-HR :0.93737: L2-HR :0.85040: (Sim:0h5m44s) 
CPU  0 inst:   29000004 cyc:   19488496 now IPC :1.38479: AVG IPC :1.45986: L2-Pf-HR :0.93486: L2-HR :0.84805: (Sim:0h5m58s) 
CPU  0 inst:   30000003 cyc:   20192517 now IPC :1.42041: AVG IPC :1.45842: L2-Pf-HR :0.93618: L2-HR :0.84911: (Sim:0h6m12s) 
CPU  0 inst:   31000004 cyc:   20890106 now IPC :1.43351: AVG IPC :1.45754: L2-Pf-HR :0.93730: L2-HR :0.84987: (Sim:0h6m26s) 
CPU  0 inst:   32000000 cyc:   21588377 now IPC :1.43210: AVG IPC :1.45668: L2-Pf-HR :0.93768: L2-HR :0.85068: (Sim:0h6m40s) 
CPU  0 inst:   33000002 cyc:   22349070 now IPC :1.31459: AVG IPC :1.45162: L2-Pf-HR :0.93574: L2-HR :0.84834: (Sim:0h6m54s) 
CPU  0 inst:   34000000 cyc:   27009413 now IPC :0.21458: AVG IPC :1.23002: L2-Pf-HR :0.87546: L2-HR :0.79124: (Sim:0h7m33s) 
CPU  0 inst:   35000002 cyc:   30895252 now IPC :0.25735: AVG IPC :1.10362: L2-Pf-HR :0.85520: L2-HR :0.77544: (Sim:0h8m1s) 
CPU  0 inst:   36000001 cyc:   34548122 now IPC :0.27376: AVG IPC :1.01328: L2-Pf-HR :0.84556: L2-HR :0.76832: (Sim:0h8m28s) 
CPU  0 inst:   37000001 cyc:   38197521 now IPC :0.27402: AVG IPC :0.94076: L2-Pf-HR :0.83651: L2-HR :0.76145: (Sim:0h8m53s) 
CPU  0 inst:   38000000 cyc:   41843046 now IPC :0.27431: AVG IPC :0.88129: L2-Pf-HR :0.82815: L2-HR :0.75490: (Sim:0h9m15s) 
CPU  0 inst:   39000000 cyc:   45487494 now IPC :0.27439: AVG IPC :0.83158: L2-Pf-HR :0.82047: L2-HR :0.74867: (Sim:0h9m40s) 
CPU  0 inst:   40000000 cyc:   49132921 now IPC :0.27432: AVG IPC :0.78938: L2-Pf-HR :0.81303: L2-HR :0.74268: (Sim:0h10m6s) 
CPU  0 inst:   41000001 cyc:   52775721 now IPC :0.27451: AVG IPC :0.75316: L2-Pf-HR :0.80581: L2-HR :0.73691: (Sim:0h10m31s) 
CPU  0 inst:   42000001 cyc:   56425249 now IPC :0.27401: AVG IPC :0.72161: L2-Pf-HR :0.79882: L2-HR :0.73137: (Sim:0h10m57s) 
CPU  0 inst:   43000002 cyc:   60075443 now IPC :0.27396: AVG IPC :0.69395: L2-Pf-HR :0.79205: L2-HR :0.72603: (Sim:0h11m22s) 
CPU  0 inst:   44000001 cyc:   63718876 now IPC :0.27447: AVG IPC :0.66959: L2-Pf-HR :0.78550: L2-HR :0.72089: (Sim:0h11m47s) 
CPU  0 inst:   45000001 cyc:   67360680 now IPC :0.27459: AVG IPC :0.64791: L2-Pf-HR :0.77914: L2-HR :0.71592: (Sim:0h12m13s) 
CPU  0 inst:   46000000 cyc:   71003763 now IPC :0.27449: AVG IPC :0.62848: L2-Pf-HR :0.77302: L2-HR :0.71117: (Sim:0h12m39s) 
CPU  0 inst:   47000000 cyc:   74648061 now IPC :0.27440: AVG IPC :0.61096: L2-Pf-HR :0.76702: L2-HR :0.70654: (Sim:0h13m4s) 
CPU  0 inst:   48000000 cyc:   78301234 now IPC :0.27373: AVG IPC :0.59503: L2-Pf-HR :0.76121: L2-HR :0.70208: (Sim:0h13m30s) 
CPU  0 inst:   49000000 cyc:   81956449 now IPC :0.27358: AVG IPC :0.58051: L2-Pf-HR :0.75549: L2-HR :0.69772: (Sim:0h13m55s) 
CPU  0 inst:   50000003 cyc:   85606393 now IPC :0.27398: AVG IPC :0.56729: L2-Pf-HR :0.74992: L2-HR :0.69350: (Sim:0h14m20s) 
CPU  0 inst:   51000004 cyc:   87318455 now IPC :0.58409: AVG IPC :0.56762: L2-Pf-HR :0.74983: L2-HR :0.69686: (Sim:0h14m40s) 
CPU  0 inst:   52000005 cyc:   87905230 now IPC :1.70423: AVG IPC :0.57530: L2-Pf-HR :0.75484: L2-HR :0.70562: (Sim:0h14m56s) 
CPU  0 inst:   53000000 cyc:   88500082 now IPC :1.68108: AVG IPC :0.58281: L2-Pf-HR :0.75999: L2-HR :0.71401: (Sim:0h15m13s) 
CPU  0 inst:   54000003 cyc:   89041270 now IPC :1.84779: AVG IPC :0.59059: L2-Pf-HR :0.76571: L2-HR :0.72228: (Sim:0h15m29s) 
CPU  0 inst:   55000004 cyc:   89646620 now IPC :1.65194: AVG IPC :0.59784: L2-Pf-HR :0.76954: L2-HR :0.72905: (Sim:0h15m44s) 
CPU  0 inst:   56000000 cyc:   90241444 now IPC :1.68116: AVG IPC :0.60506: L2-Pf-HR :0.77303: L2-HR :0.73548: (Sim:0h16m1s) 
CPU  0 inst:   57000000 cyc:   90836874 now IPC :1.67946: AVG IPC :0.61218: L2-Pf-HR :0.77644: L2-HR :0.74164: (Sim:0h16m15s) 
CPU  0 inst:   58000001 cyc:   91379171 now IPC :1.84401: AVG IPC :0.61957: L2-Pf-HR :0.78107: L2-HR :0.74816: (Sim:0h16m31s) 
CPU  0 inst:   59000003 cyc:   91976376 now IPC :1.67447: AVG IPC :0.62649: L2-Pf-HR :0.78424: L2-HR :0.75372: (Sim:0h16m48s) 
CPU  0 inst:   60000001 cyc:   92548033 now IPC :1.74930: AVG IPC :0.63350: L2-Pf-HR :0.78714: L2-HR :0.75879: (Sim:0h17m2s) 
CPU  0 inst:   61000005 cyc:   93133558 now IPC :1.70788: AVG IPC :0.64033: L2-Pf-HR :0.78949: L2-HR :0.76333: (Sim:0h17m18s) 
CPU  0 inst:   62000001 cyc:   93668965 now IPC :1.86773: AVG IPC :0.64742: L2-Pf-HR :0.79323: L2-HR :0.76848: (Sim:0h17m34s) 
CPU  0 inst:   63000002 cyc:   94227249 now IPC :1.79120: AVG IPC :0.65427: L2-Pf-HR :0.79606: L2-HR :0.77301: (Sim:0h17m50s) 
CPU  0 inst:   64000000 cyc:   94795656 now IPC :1.75930: AVG IPC :0.66097: L2-Pf-HR :0.79831: L2-HR :0.77697: (Sim:0h18m6s) 
CPU  0 inst:   65000000 cyc:   95383206 now IPC :1.70198: AVG IPC :0.66745: L2-Pf-HR :0.79976: L2-HR :0.78046: (Sim:0h18m21s) 
CPU  0 inst:   66000002 cyc:   95918518 now IPC :1.86807: AVG IPC :0.67422: L2-Pf-HR :0.80285: L2-HR :0.78471: (Sim:0h18m39s) 
CPU  0 inst:   67000000 cyc:   96448549 now IPC :1.88668: AVG IPC :0.68095: L2-Pf-HR :0.80603: L2-HR :0.78891: (Sim:0h18m55s) 
CPU  0 inst:   68000000 cyc:   97030973 now IPC :1.71696: AVG IPC :0.68723: L2-Pf-HR :0.80736: L2-HR :0.79182: (Sim:0h19m11s) 
CPU  0 inst:   69000001 cyc:   97608222 now IPC :1.73236: AVG IPC :0.69348: L2-Pf-HR :0.80878: L2-HR :0.79480: (Sim:0h19m27s) 
CPU  0 inst:   70000002 cyc:   98155081 now IPC :1.82863: AVG IPC :0.69987: L2-Pf-HR :0.81096: L2-HR :0.79815: (Sim:0h19m43s) 
CPU  0 inst:   71000003 cyc:   98688549 now IPC :1.87453: AVG IPC :0.70628: L2-Pf-HR :0.81342: L2-HR :0.80159: (Sim:0h19m59s) 
CPU  0 inst:   72000000 cyc:   99276683 now IPC :1.70029: AVG IPC :0.71223: L2-Pf-HR :0.81463: L2-HR :0.80411: (Sim:0h20m16s) 
CPU  0 inst:   73000000 cyc:   99850479 now IPC :1.74278: AVG IPC :0.71821: L2-Pf-HR :0.81577: L2-HR :0.80657: (Sim:0h20m31s) 
CPU  0 inst:   74000002 cyc:  100409484 now IPC :1.78890: AVG IPC :0.72423: L2-Pf-HR :0.81736: L2-HR :0.80925: (Sim:0h20m45s) 
CPU  0 inst:   75000000 cyc:  100941621 now IPC :1.87921: AVG IPC :0.73038: L2-Pf-HR :0.81958: L2-HR :0.81218: (Sim:0h21m1s) 
CPU  0 inst:   76000004 cyc:  101513030 now IPC :1.75007: AVG IPC :0.73618: L2-Pf-HR :0.82056: L2-HR :0.81434: (Sim:0h21m18s) 
CPU  0 inst:   77000001 cyc:  102084571 now IPC :1.74965: AVG IPC :0.74191: L2-Pf-HR :0.82153: L2-HR :0.81642: (Sim:0h21m34s) 
CPU  0 inst:   78000003 cyc:  102645621 now IPC :1.78238: AVG IPC :0.74765: L2-Pf-HR :0.82277: L2-HR :0.81864: (Sim:0h21m50s) 
CPU  0 inst:   79000002 cyc:  103181268 now IPC :1.86690: AVG IPC :0.75352: L2-Pf-HR :0.82467: L2-HR :0.82112: (Sim:0h22m6s) 
CPU  0 inst:   80000000 cyc:  103755454 now IPC :1.74159: AVG IPC :0.75904: L2-Pf-HR :0.82554: L2-HR :0.82298: (Sim:0h22m23s) 
Finished CPU 0 instr: 78000000 cyc: 102761915 AVG IPC: 0.75904 (Sim time: 0h22m23s)

ChampSim completed all CPUs

[ROI Statistics]
Core_0_instructions 78000000
Core_0_cycles 102761915
Core_0_IPC 0.75904

Core_0_branch_prediction_accuracy 99.16542
Core_0_branch_MPKI 0.25491
Core_0_average_ROB_occupancy_at_mispredict 387.04471

Core_0_L1D_total_access 23602246
Core_0_L1D_total_hit 20632627 L1D_total_Hit Ratio: 0.87418
Core_0_L1D_total_miss 2969619
Core_0_L1D_loads 19638793
Core_0_L1D_load_hit 18099525 L1D_load_Hit Ratio: 0.92162
Core_0_L1D_load_miss 1539268
Core_0_L1D_RFOs 2162364
Core_0_L1D_RFO_hit 2036808 L1D_RFO_Hit Ratio: 0.94194
Core_0_L1D_RFO_miss 125556
Core_0_L1D_prefetches 1801089
Core_0_L1D_prefetch_hit 496294 L1D_prefetch_Hit Ratio: 0.27555
Core_0_L1D_prefetch_miss 1304795
Core_0_L1D_writebacks 0
Core_0_L1D_writeback_hit 0 L1D_writeback_Hit Ratio: -nan
Core_0_L1D_writeback_miss 0
Core_0_L1D_prefetch_requested 3176516
Core_0_L1D_prefetch_issued 2849700
Core_0_L1D_prefetch_useful 1295098 L1D_Useful Ratio: 0.45447
Core_0_L1D_prefetch_useless 36392
Core_0_L1D_prefetch_late 258142
Core_0_L1D_average_miss_latency 6371177.72370

Core_0_L1I_total_access 11364943
Core_0_L1I_total_hit 11360038 L1I_total_Hit Ratio: 0.99957
Core_0_L1I_total_miss 4905
Core_0_L1I_loads 11364943
Core_0_L1I_load_hit 11360038 L1I_load_Hit Ratio: 0.99957
Core_0_L1I_load_miss 4905
Core_0_L1I_RFOs 0
Core_0_L1I_RFO_hit 0 L1I_RFO_Hit Ratio: -nan
Core_0_L1I_RFO_miss 0
Core_0_L1I_prefetches 0
Core_0_L1I_prefetch_hit 0 L1I_prefetch_Hit Ratio: -nan
Core_0_L1I_prefetch_miss 0
Core_0_L1I_writebacks 0
Core_0_L1I_writeback_hit 0 L1I_writeback_Hit Ratio: -nan
Core_0_L1I_writeback_miss 0
Core_0_L1I_prefetch_requested 0
Core_0_L1I_prefetch_issued 0
Core_0_L1I_prefetch_useful 0 L1I_Useful Ratio: -nan
Core_0_L1I_prefetch_useless 0
Core_0_L1I_prefetch_late 0
Core_0_L1I_average_miss_latency 285.44587

Core_0_L2C_total_access 4030751
Core_0_L2C_total_hit 3317218 L2C_total_Hit Ratio: 0.82298
Core_0_L2C_total_miss 713533
Core_0_L2C_loads 1287374
Core_0_L2C_load_hit 1069204 L2C_load_Hit Ratio: 0.83053
Core_0_L2C_load_miss 218170
Core_0_L2C_RFOs 125555
Core_0_L2C_RFO_hit 1134 L2C_RFO_Hit Ratio: 0.00903
Core_0_L2C_RFO_miss 124421
Core_0_L2C_prefetches 2126222
Core_0_L2C_prefetch_hit 1755286 L2C_prefetch_Hit Ratio: 0.82554
Core_0_L2C_prefetch_miss 370936
Core_0_L2C_writebacks 491600
Core_0_L2C_writeback_hit 491594 L2C_writeback_Hit Ratio: 0.99999
Core_0_L2C_writeback_miss 6
Core_0_L2C_prefetch_requested 1080933
Core_0_L2C_prefetch_issued 831065
Core_0_L2C_prefetch_useful 83972 L2C_Useful Ratio: 0.10104
Core_0_L2C_prefetch_useless 285454
Core_0_L2C_prefetch_late 51210
Core_0_L2C_average_miss_latency 331.45279

Core_0_LLC_total_access 1128351
Core_0_LLC_total_hit 422705 LLC_total_Hit Ratio: 0.37462
Core_0_LLC_total_miss 705646
Core_0_LLC_loads 167141
Core_0_LLC_load_hit 3036 LLC_load_Hit Ratio: 0.01816
Core_0_LLC_load_miss 164105
Core_0_LLC_RFOs 124419
Core_0_LLC_RFO_hit 113 LLC_RFO_Hit Ratio: 0.00091
Core_0_LLC_RFO_miss 124306
Core_0_LLC_prefetches 421967
Core_0_LLC_prefetch_hit 8295 LLC_prefetch_Hit Ratio: 0.01966
Core_0_LLC_prefetch_miss 413672
Core_0_LLC_writebacks 414824
Core_0_LLC_writeback_hit 411261 LLC_writeback_Hit Ratio: 0.99141
Core_0_LLC_writeback_miss 3563
Core_0_LLC_prefetch_requested 0
Core_0_LLC_prefetch_issued 0
Core_0_LLC_prefetch_useful 1718 LLC_Useful Ratio: inf
Core_0_LLC_prefetch_useless 378202
Core_0_LLC_prefetch_late 0
Core_0_LLC_average_miss_latency 306.42807

Core_0_major_page_fault 0
Core_0_minor_page_fault 6067

CPU 0 L1D berti prefetcher final stats
CPU 0 L2C berti prefetcher final stats
Channel_0_RQ_row_buffer_hit 400418
Channel_0_RQ_row_buffer_miss 301667
Channel_0_WQ_row_buffer_hit 162755
Channel_0_WQ_row_buffer_miss 245536
Channel_0_WQ_full 1228
Channel_0_dbus_congested 453646

avg_congested_cycle 8

EzSearch AVG IPC :0.75904: L2-Pf-HR :0.82554 : L2-HR :0.82298 Uful:0.10104
     > Finished combination: TraceType=770-tot Sim:78000000 Prefetcher=L2berti_concurso L1=berti_concurso
