TRACE: [496000000][OPT-125M]_[h12][s1024][d64] Warmup: 2000000 NumTraces: 496000000
L1:no:L2:spp_berti_src
Initialize SIGNATURE TABLE
ST_SET: 1
ST_WAY: 256
ST_TAG_BIT: 16
ST_TAG_MASK: ffff

Initialize PATTERN TABLE
PT_SET: 512
PT_WAY: 4
SIG_DELTA_BIT: 7
C_SIG_BIT: 4
C_DELTA_BIT: 4

Initialize PREFETCH FILTER
FILTER_SET: 1024
*************************************************
   ChampSim Multicore Out-of-Order Simulator
   Last compiled: Oct 31 2024 09:08:10
*************************************************

trace_0 770-tot_memTraces_v5/130-subBillion_s1024_LLM_Arch/memTraces[496000000][OPT-125M]_[h12][s1024][d64].champsim.9.xz
ST_WAYS: 256
PT_SETS: 512
MAIN.cc ln 751 stats print skipped
CPU  0 inst:    1000002 cyc:     507003 now IPC :1.97238: AVG IPC :1.97238: L2-Pf-HR :0.96451: L2-HR :0.84609: (Sim:0h0m10s) 
CPU  0 inst:    2000000 cyc:     996985 now IPC :2.04089: AVG IPC :2.00605: L2-Pf-HR :0.98428: L2-HR :0.89953: (Sim:0h0m19s) 

Warmup complete CPU  0 instructions:    2000002 cycles:     996986 (Simulation time: 0 hr 0 min 19 sec) 

CPU  0 inst:    3000000 cyc:    1500774 now IPC :1.98496: AVG IPC :1.98496: L2-Pf-HR :0.99725: L2-HR :0.93547: (Sim:0h0m26s) 
CPU  0 inst:    4000000 cyc:    2005916 now IPC :1.97964: AVG IPC :1.98230: L2-Pf-HR :0.99734: L2-HR :0.93569: (Sim:0h0m38s) 
CPU  0 inst:    5000000 cyc:    2529081 now IPC :1.91144: AVG IPC :1.95810: L2-Pf-HR :0.99736: L2-HR :0.93571: (Sim:0h0m51s) 
CPU  0 inst:    6000005 cyc:    3040695 now IPC :1.95461: AVG IPC :1.95723: L2-Pf-HR :0.99733: L2-HR :0.93606: (Sim:0h1m0s) 
CPU  0 inst:    7000002 cyc:    3660388 now IPC :1.61370: AVG IPC :1.87730: L2-Pf-HR :0.99456: L2-HR :0.93069: (Sim:0h1m7s) 
CPU  0 inst:    8000000 cyc:    4161410 now IPC :1.99592: AVG IPC :1.89608: L2-Pf-HR :0.99504: L2-HR :0.93235: (Sim:0h1m14s) 
CPU  0 inst:    9000005 cyc:    4676793 now IPC :1.94031: AVG IPC :1.90227: L2-Pf-HR :0.99416: L2-HR :0.93194: (Sim:0h1m21s) 
CPU  0 inst:   10000000 cyc:    5161489 now IPC :2.06314: AVG IPC :1.92100: L2-Pf-HR :0.99153: L2-HR :0.92805: (Sim:0h1m27s) 
CPU  0 inst:   11000003 cyc:    5644220 now IPC :2.07155: AVG IPC :1.93664: L2-Pf-HR :0.98791: L2-HR :0.92299: (Sim:0h1m34s) 
CPU  0 inst:   12000003 cyc:    6125734 now IPC :2.07678: AVG IPC :1.94979: L2-Pf-HR :0.98544: L2-HR :0.91936: (Sim:0h1m41s) 
CPU  0 inst:   13000005 cyc:    6725713 now IPC :1.66673: AVG IPC :1.92015: L2-Pf-HR :0.98525: L2-HR :0.91985: (Sim:0h1m50s) 
CPU  0 inst:   14000002 cyc:    7262099 now IPC :1.86432: AVG IPC :1.91537: L2-Pf-HR :0.98628: L2-HR :0.92229: (Sim:0h1m58s) 
CPU  0 inst:   15000003 cyc:    7815038 now IPC :1.80852: AVG IPC :1.90670: L2-Pf-HR :0.98715: L2-HR :0.92452: (Sim:0h2m5s) 
CPU  0 inst:   16000000 cyc:    8370416 now IPC :1.80057: AVG IPC :1.89871: L2-Pf-HR :0.98792: L2-HR :0.92636: (Sim:0h2m12s) 
CPU  0 inst:   17000000 cyc:    9047635 now IPC :1.47663: AVG IPC :1.86320: L2-Pf-HR :0.98756: L2-HR :0.92448: (Sim:0h2m19s) 
CPU  0 inst:   18000001 cyc:    9626633 now IPC :1.72712: AVG IPC :1.85407: L2-Pf-HR :0.98825: L2-HR :0.92518: (Sim:0h2m26s) 
CPU  0 inst:   19000005 cyc:   10211556 now IPC :1.70963: AVG IPC :1.84490: L2-Pf-HR :0.98891: L2-HR :0.92600: (Sim:0h2m34s) 
CPU  0 inst:   20000003 cyc:   10776008 now IPC :1.77163: AVG IPC :1.84067: L2-Pf-HR :0.98951: L2-HR :0.92679: (Sim:0h2m40s) 
CPU  0 inst:   21000001 cyc:   11338090 now IPC :1.77910: AVG IPC :1.83733: L2-Pf-HR :0.99002: L2-HR :0.92747: (Sim:0h2m47s) 
CPU  0 inst:   22000002 cyc:   11849446 now IPC :1.95559: AVG IPC :1.84290: L2-Pf-HR :0.99046: L2-HR :0.92802: (Sim:0h2m54s) 
CPU  0 inst:   23000001 cyc:   12509597 now IPC :1.51480: AVG IPC :1.82409: L2-Pf-HR :0.99003: L2-HR :0.92701: (Sim:0h3m2s) 
CPU  0 inst:   24000000 cyc:   13045556 now IPC :1.86581: AVG IPC :1.82594: L2-Pf-HR :0.99036: L2-HR :0.92758: (Sim:0h3m12s) 
CPU  0 inst:   25000003 cyc:   13578734 now IPC :1.87555: AVG IPC :1.82805: L2-Pf-HR :0.99074: L2-HR :0.92833: (Sim:0h3m25s) 
CPU  0 inst:   26000004 cyc:   14085133 now IPC :1.97473: AVG IPC :1.83372: L2-Pf-HR :0.99082: L2-HR :0.92850: (Sim:0h3m37s) 
CPU  0 inst:   27000002 cyc:   14572672 now IPC :2.05111: AVG IPC :1.84153: L2-Pf-HR :0.98987: L2-HR :0.92731: (Sim:0h3m50s) 
CPU  0 inst:   28000000 cyc:   15055565 now IPC :2.07085: AVG IPC :1.84940: L2-Pf-HR :0.98867: L2-HR :0.92558: (Sim:0h4m3s) 
CPU  0 inst:   29000005 cyc:   15666084 now IPC :1.63796: AVG IPC :1.84060: L2-Pf-HR :0.98828: L2-HR :0.92511: (Sim:0h4m16s) 
CPU  0 inst:   30000000 cyc:   16199007 now IPC :1.87643: AVG IPC :1.84186: L2-Pf-HR :0.98859: L2-HR :0.92599: (Sim:0h4m29s) 
CPU  0 inst:   31000001 cyc:   16749346 now IPC :1.81706: AVG IPC :1.84099: L2-Pf-HR :0.98889: L2-HR :0.92683: (Sim:0h4m41s) 
CPU  0 inst:   32000000 cyc:   17298860 now IPC :1.81979: AVG IPC :1.84028: L2-Pf-HR :0.98918: L2-HR :0.92759: (Sim:0h4m54s) 
CPU  0 inst:   33000003 cyc:   17961311 now IPC :1.50955: AVG IPC :1.82736: L2-Pf-HR :0.98904: L2-HR :0.92690: (Sim:0h5m5s) 
CPU  0 inst:   34000000 cyc:   18531549 now IPC :1.75365: AVG IPC :1.82497: L2-Pf-HR :0.98928: L2-HR :0.92704: (Sim:0h5m13s) 
CPU  0 inst:   35000005 cyc:   19119906 now IPC :1.69966: AVG IPC :1.82090: L2-Pf-HR :0.98957: L2-HR :0.92738: (Sim:0h5m24s) 
CPU  0 inst:   36000000 cyc:   19685314 now IPC :1.76863: AVG IPC :1.81932: L2-Pf-HR :0.98985: L2-HR :0.92771: (Sim:0h5m33s) 
CPU  0 inst:   37000004 cyc:   20250421 now IPC :1.76958: AVG IPC :1.81786: L2-Pf-HR :0.99010: L2-HR :0.92800: (Sim:0h5m42s) 
CPU  0 inst:   38000005 cyc:   20777339 now IPC :1.89783: AVG IPC :1.81999: L2-Pf-HR :0.99033: L2-HR :0.92825: (Sim:0h5m49s) 
CPU  0 inst:   39000002 cyc:   21436006 now IPC :1.51821: AVG IPC :1.81026: L2-Pf-HR :0.99015: L2-HR :0.92781: (Sim:0h5m59s) 
CPU  0 inst:   40000000 cyc:   21957114 now IPC :1.91898: AVG IPC :1.81297: L2-Pf-HR :0.99030: L2-HR :0.92803: (Sim:0h6m9s) 
CPU  0 inst:   41000001 cyc:   22478475 now IPC :1.91806: AVG IPC :1.81552: L2-Pf-HR :0.99052: L2-HR :0.92844: (Sim:0h6m22s) 
CPU  0 inst:   42000000 cyc:   22989133 now IPC :1.95826: AVG IPC :1.81883: L2-Pf-HR :0.99073: L2-HR :0.92882: (Sim:0h6m36s) 
CPU  0 inst:   43000005 cyc:   23481073 now IPC :2.03278: AVG IPC :1.82351: L2-Pf-HR :0.99078: L2-HR :0.92892: (Sim:0h6m46s) 
CPU  0 inst:   44000000 cyc:   23963776 now IPC :2.07166: AVG IPC :1.82873: L2-Pf-HR :0.99004: L2-HR :0.92788: (Sim:0h6m54s) 
CPU  0 inst:   45000003 cyc:   24568756 now IPC :1.65295: AVG IPC :1.82422: L2-Pf-HR :0.98966: L2-HR :0.92732: (Sim:0h7m2s) 
CPU  0 inst:   46000000 cyc:   25089286 now IPC :1.92111: AVG IPC :1.82631: L2-Pf-HR :0.98981: L2-HR :0.92779: (Sim:0h7m10s) 
CPU  0 inst:   47000001 cyc:   25640603 now IPC :1.81384: AVG IPC :1.82603: L2-Pf-HR :0.98998: L2-HR :0.92826: (Sim:0h7m19s) 
CPU  0 inst:   48000000 cyc:   26190046 now IPC :1.82002: AVG IPC :1.82590: L2-Pf-HR :0.99014: L2-HR :0.92875: (Sim:0h7m27s) 
CPU  0 inst:   49000000 cyc:   26855675 now IPC :1.50234: AVG IPC :1.81757: L2-Pf-HR :0.99007: L2-HR :0.92836: (Sim:0h7m35s) 
CPU  0 inst:   50000004 cyc:   27415006 now IPC :1.78786: AVG IPC :1.81694: L2-Pf-HR :0.99020: L2-HR :0.92842: (Sim:0h7m45s) 
CPU  0 inst:   51000001 cyc:   28003234 now IPC :1.70002: AVG IPC :1.81439: L2-Pf-HR :0.99037: L2-HR :0.92863: (Sim:0h7m54s) 
CPU  0 inst:   52000003 cyc:   28557866 now IPC :1.80300: AVG IPC :1.81417: L2-Pf-HR :0.99053: L2-HR :0.92880: (Sim:0h8m8s) 
CPU  0 inst:   53000000 cyc:   29112467 now IPC :1.80309: AVG IPC :1.81395: L2-Pf-HR :0.99070: L2-HR :0.92897: (Sim:0h8m21s) 
CPU  0 inst:   54000005 cyc:   29634056 now IPC :1.91723: AVG IPC :1.81583: L2-Pf-HR :0.99085: L2-HR :0.92913: (Sim:0h8m34s) 
CPU  0 inst:   55000005 cyc:   30290633 now IPC :1.52305: AVG IPC :1.80927: L2-Pf-HR :0.99075: L2-HR :0.92886: (Sim:0h8m48s) 
CPU  0 inst:   56000000 cyc:   30791313 now IPC :1.99727: AVG IPC :1.81243: L2-Pf-HR :0.99081: L2-HR :0.92894: (Sim:0h9m1s) 
CPU  0 inst:   57000000 cyc:   31328016 now IPC :1.86323: AVG IPC :1.81332: L2-Pf-HR :0.99095: L2-HR :0.92922: (Sim:0h9m10s) 
CPU  0 inst:   58000001 cyc:   31840459 now IPC :1.95144: AVG IPC :1.81562: L2-Pf-HR :0.99077: L2-HR :0.92899: (Sim:0h9m18s) 
CPU  0 inst:   59000003 cyc:   32335013 now IPC :2.02203: AVG IPC :1.81888: L2-Pf-HR :0.99030: L2-HR :0.92837: (Sim:0h9m27s) 
CPU  0 inst:   60000003 cyc:   32817807 now IPC :2.07128: AVG IPC :1.82271: L2-Pf-HR :0.98976: L2-HR :0.92759: (Sim:0h9m38s) 
CPU  0 inst:   61000002 cyc:   33426201 now IPC :1.64367: AVG IPC :1.81935: L2-Pf-HR :0.98952: L2-HR :0.92720: (Sim:0h9m51s) 
CPU  0 inst:   62000004 cyc:   33935618 now IPC :1.96303: AVG IPC :1.82157: L2-Pf-HR :0.98962: L2-HR :0.92750: (Sim:0h10m3s) 
CPU  0 inst:   63000005 cyc:   34472571 now IPC :1.86236: AVG IPC :1.82222: L2-Pf-HR :0.98974: L2-HR :0.92786: (Sim:0h10m15s) 
CPU  0 inst:   64000000 cyc:   35017420 now IPC :1.83536: AVG IPC :1.82243: L2-Pf-HR :0.98987: L2-HR :0.92823: (Sim:0h10m27s) 
CPU  0 inst:   65000000 cyc:   35684941 now IPC :1.49808: AVG IPC :1.81619: L2-Pf-HR :0.98984: L2-HR :0.92802: (Sim:0h10m39s) 
CPU  0 inst:   66000001 cyc:   36241513 now IPC :1.79671: AVG IPC :1.81588: L2-Pf-HR :0.98989: L2-HR :0.92800: (Sim:0h10m52s) 
CPU  0 inst:   67000000 cyc:   36818992 now IPC :1.73166: AVG IPC :1.81453: L2-Pf-HR :0.99002: L2-HR :0.92813: (Sim:0h11m5s) 
CPU  0 inst:   68000003 cyc:   37386531 now IPC :1.76200: AVG IPC :1.81371: L2-Pf-HR :0.99016: L2-HR :0.92829: (Sim:0h11m19s) 
CPU  0 inst:   69000004 cyc:   37945946 now IPC :1.78758: AVG IPC :1.81331: L2-Pf-HR :0.99029: L2-HR :0.92846: (Sim:0h11m32s) 
CPU  0 inst:   70000000 cyc:   38471941 now IPC :1.90115: AVG IPC :1.81455: L2-Pf-HR :0.99041: L2-HR :0.92860: (Sim:0h11m45s) 
CPU  0 inst:   71000003 cyc:   39156916 now IPC :1.45991: AVG IPC :1.80818: L2-Pf-HR :0.99039: L2-HR :0.92845: (Sim:0h11m59s) 
CPU  0 inst:   72000000 cyc:   39677584 now IPC :1.92060: AVG IPC :1.80969: L2-Pf-HR :0.99037: L2-HR :0.92842: (Sim:0h12m11s) 
CPU  0 inst:   73000000 cyc:   40199180 now IPC :1.91719: AVG IPC :1.81112: L2-Pf-HR :0.99049: L2-HR :0.92864: (Sim:0h12m24s) 
CPU  0 inst:   74000005 cyc:   40716268 now IPC :1.93392: AVG IPC :1.81272: L2-Pf-HR :0.99053: L2-HR :0.92874: (Sim:0h12m33s) 
CPU  0 inst:   75000005 cyc:   41213578 now IPC :2.01082: AVG IPC :1.81517: L2-Pf-HR :0.99065: L2-HR :0.92896: (Sim:0h12m44s) 
CPU  0 inst:   76000001 cyc:   41710797 now IPC :2.01118: AVG IPC :1.81757: L2-Pf-HR :0.99049: L2-HR :0.92878: (Sim:0h12m54s) 
CPU  0 inst:   77000000 cyc:   42311578 now IPC :1.66450: AVG IPC :1.81534: L2-Pf-HR :0.99015: L2-HR :0.92825: (Sim:0h13m5s) 
CPU  0 inst:   78000004 cyc:   42833861 now IPC :1.91468: AVG IPC :1.81658: L2-Pf-HR :0.99019: L2-HR :0.92843: (Sim:0h13m18s) 
CPU  0 inst:   79000001 cyc:   43373969 now IPC :1.85148: AVG IPC :1.81702: L2-Pf-HR :0.99028: L2-HR :0.92871: (Sim:0h13m29s) 
CPU  0 inst:   80000000 cyc:   43921081 now IPC :1.82778: AVG IPC :1.81716: L2-Pf-HR :0.99037: L2-HR :0.92898: (Sim:0h13m40s) 
CPU  0 inst:   81000003 cyc:   44578050 now IPC :1.52215: AVG IPC :1.81271: L2-Pf-HR :0.99037: L2-HR :0.92888: (Sim:0h13m53s) 
CPU  0 inst:   82000004 cyc:   45122380 now IPC :1.83712: AVG IPC :1.81301: L2-Pf-HR :0.99036: L2-HR :0.92877: (Sim:0h14m2s) 
CPU  0 inst:   83000004 cyc:   45698184 now IPC :1.73670: AVG IPC :1.81203: L2-Pf-HR :0.99046: L2-HR :0.92886: (Sim:0h14m11s) 
CPU  0 inst:   84000000 cyc:   46272207 now IPC :1.74208: AVG IPC :1.81115: L2-Pf-HR :0.99056: L2-HR :0.92897: (Sim:0h14m23s) 
CPU  0 inst:   85000001 cyc:   46841752 now IPC :1.75579: AVG IPC :1.81046: L2-Pf-HR :0.99066: L2-HR :0.92907: (Sim:0h14m36s) 
CPU  0 inst:   86000005 cyc:   47379168 now IPC :1.86076: AVG IPC :1.81104: L2-Pf-HR :0.99075: L2-HR :0.92917: (Sim:0h14m49s) 
CPU  0 inst:   87000001 cyc:   48037616 now IPC :1.51872: AVG IPC :1.80695: L2-Pf-HR :0.99078: L2-HR :0.92911: (Sim:0h15m1s) 
CPU  0 inst:   88000000 cyc:   48585234 now IPC :1.82609: AVG IPC :1.80717: L2-Pf-HR :0.99074: L2-HR :0.92906: (Sim:0h15m13s) 
CPU  0 inst:   89000004 cyc:   49135463 now IPC :1.81743: AVG IPC :1.80729: L2-Pf-HR :0.99083: L2-HR :0.92922: (Sim:0h15m25s) 
CPU  0 inst:   90000002 cyc:   49647195 now IPC :1.95414: AVG IPC :1.80883: L2-Pf-HR :0.99057: L2-HR :0.92887: (Sim:0h15m38s) 
CPU  0 inst:   91000001 cyc:   50167006 now IPC :1.92377: AVG IPC :1.81005: L2-Pf-HR :0.99058: L2-HR :0.92888: (Sim:0h15m51s) 
CPU  0 inst:   92000001 cyc:   50661824 now IPC :2.02095: AVG IPC :1.81215: L2-Pf-HR :0.99037: L2-HR :0.92858: (Sim:0h16m4s) 
CPU  0 inst:   93000001 cyc:   51282719 now IPC :1.61058: AVG IPC :1.80966: L2-Pf-HR :0.99013: L2-HR :0.92815: (Sim:0h16m18s) 
CPU  0 inst:   94000002 cyc:   51820141 now IPC :1.86074: AVG IPC :1.81020: L2-Pf-HR :0.99014: L2-HR :0.92829: (Sim:0h16m29s) 
CPU  0 inst:   95000002 cyc:   52370705 now IPC :1.81632: AVG IPC :1.81026: L2-Pf-HR :0.99021: L2-HR :0.92852: (Sim:0h16m42s) 
CPU  0 inst:   96000000 cyc:   52930334 now IPC :1.78689: AVG IPC :1.81001: L2-Pf-HR :0.99029: L2-HR :0.92873: (Sim:0h16m53s) 
CPU  0 inst:   97000001 cyc:   53555199 now IPC :1.60035: AVG IPC :1.80752: L2-Pf-HR :0.99033: L2-HR :0.92874: (Sim:0h17m4s) 
CPU  0 inst:   98000001 cyc:   54168003 now IPC :1.63184: AVG IPC :1.80549: L2-Pf-HR :0.99036: L2-HR :0.92871: (Sim:0h17m17s) 
CPU  0 inst:   99000001 cyc:   54755925 now IPC :1.70091: AVG IPC :1.80435: L2-Pf-HR :0.99044: L2-HR :0.92880: (Sim:0h17m31s) 
CPU  0 inst:  100000003 cyc:   55337548 now IPC :1.71933: AVG IPC :1.80344: L2-Pf-HR :0.99053: L2-HR :0.92889: (Sim:0h17m44s) 
CPU  0 inst:  101000005 cyc:   55911819 now IPC :1.74134: AVG IPC :1.80279: L2-Pf-HR :0.99061: L2-HR :0.92899: (Sim:0h17m57s) 
CPU  0 inst:  102000002 cyc:   56468860 now IPC :1.79519: AVG IPC :1.80272: L2-Pf-HR :0.99069: L2-HR :0.92909: (Sim:0h18m10s) 
CPU  0 inst:  103000001 cyc:   57006707 now IPC :1.85926: AVG IPC :1.80326: L2-Pf-HR :0.99074: L2-HR :0.92918: (Sim:0h18m22s) 
CPU  0 inst:  104000000 cyc:   57637572 now IPC :1.58512: AVG IPC :1.80083: L2-Pf-HR :0.99067: L2-HR :0.92896: (Sim:0h18m36s) 
CPU  0 inst:  105000000 cyc:   58162562 now IPC :1.90480: AVG IPC :1.80178: L2-Pf-HR :0.99074: L2-HR :0.92908: (Sim:0h18m49s) 
CPU  0 inst:  106000002 cyc:   58691731 now IPC :1.88976: AVG IPC :1.80259: L2-Pf-HR :0.99065: L2-HR :0.92898: (Sim:0h19m1s) 
CPU  0 inst:  107000003 cyc:   59181521 now IPC :2.04169: AVG IPC :1.80460: L2-Pf-HR :0.99041: L2-HR :0.92864: (Sim:0h19m13s) 
CPU  0 inst:  108000003 cyc:   59665504 now IPC :2.06619: AVG IPC :1.80676: L2-Pf-HR :0.99012: L2-HR :0.92821: (Sim:0h19m25s) 
CPU  0 inst:  109000001 cyc:   60182045 now IPC :1.93595: AVG IPC :1.80789: L2-Pf-HR :0.98995: L2-HR :0.92797: (Sim:0h19m36s) 
CPU  0 inst:  110000003 cyc:   60780138 now IPC :1.67198: AVG IPC :1.80653: L2-Pf-HR :0.98992: L2-HR :0.92796: (Sim:0h19m48s) 
CPU  0 inst:  111000000 cyc:   61342031 now IPC :1.77969: AVG IPC :1.80628: L2-Pf-HR :0.98999: L2-HR :0.92816: (Sim:0h20m1s) 
CPU  0 inst:  112000000 cyc:   61889709 now IPC :1.82589: AVG IPC :1.80646: L2-Pf-HR :0.99005: L2-HR :0.92835: (Sim:0h20m14s) 
CPU  0 inst:  113000000 cyc:   62425885 now IPC :1.86506: AVG IPC :1.80697: L2-Pf-HR :0.99012: L2-HR :0.92856: (Sim:0h20m26s) 
CPU  0 inst:  114000001 cyc:   63095545 now IPC :1.49330: AVG IPC :1.80358: L2-Pf-HR :0.99007: L2-HR :0.92829: (Sim:0h20m39s) 
CPU  0 inst:  115000002 cyc:   63683101 now IPC :1.70197: AVG IPC :1.80263: L2-Pf-HR :0.99015: L2-HR :0.92836: (Sim:0h20m52s) 
CPU  0 inst:  116000001 cyc:   64255039 now IPC :1.74844: AVG IPC :1.80214: L2-Pf-HR :0.99022: L2-HR :0.92844: (Sim:0h21m6s) 
CPU  0 inst:  117000001 cyc:   64814515 now IPC :1.78739: AVG IPC :1.80201: L2-Pf-HR :0.99030: L2-HR :0.92853: (Sim:0h21m19s) 
CPU  0 inst:  118000001 cyc:   65348348 now IPC :1.87325: AVG IPC :1.80260: L2-Pf-HR :0.99037: L2-HR :0.92860: (Sim:0h21m33s) 
CPU  0 inst:  119000003 cyc:   65857206 now IPC :1.96519: AVG IPC :1.80388: L2-Pf-HR :0.99045: L2-HR :0.92870: (Sim:0h21m46s) 
CPU  0 inst:  120000000 cyc:   66518787 now IPC :1.51153: AVG IPC :1.80093: L2-Pf-HR :0.99037: L2-HR :0.92852: (Sim:0h21m58s) 
CPU  0 inst:  121000000 cyc:   67038621 now IPC :1.92369: AVG IPC :1.80189: L2-Pf-HR :0.99043: L2-HR :0.92862: (Sim:0h22m10s) 
CPU  0 inst:  122000005 cyc:   67557407 now IPC :1.92759: AVG IPC :1.80287: L2-Pf-HR :0.99030: L2-HR :0.92846: (Sim:0h22m22s) 
CPU  0 inst:  123000001 cyc:   68054516 now IPC :2.01162: AVG IPC :1.80442: L2-Pf-HR :0.99032: L2-HR :0.92847: (Sim:0h22m32s) 
CPU  0 inst:  124000002 cyc:   68548513 now IPC :2.02431: AVG IPC :1.80603: L2-Pf-HR :0.99008: L2-HR :0.92813: (Sim:0h22m44s) 
CPU  0 inst:  125000004 cyc:   69033636 now IPC :2.06134: AVG IPC :1.80785: L2-Pf-HR :0.98988: L2-HR :0.92783: (Sim:0h22m57s) 
CPU  0 inst:  126000003 cyc:   69654047 now IPC :1.61183: AVG IPC :1.80608: L2-Pf-HR :0.98984: L2-HR :0.92780: (Sim:0h23m11s) 
CPU  0 inst:  127000004 cyc:   70207822 now IPC :1.80579: AVG IPC :1.80608: L2-Pf-HR :0.98990: L2-HR :0.92797: (Sim:0h23m22s) 
CPU  0 inst:  128000000 cyc:   70758135 now IPC :1.81714: AVG IPC :1.80616: L2-Pf-HR :0.98996: L2-HR :0.92815: (Sim:0h23m32s) 
CPU  0 inst:  129000003 cyc:   71299174 now IPC :1.84830: AVG IPC :1.80649: L2-Pf-HR :0.98998: L2-HR :0.92828: (Sim:0h23m44s) 
CPU  0 inst:  130000004 cyc:   71961249 now IPC :1.51040: AVG IPC :1.80372: L2-Pf-HR :0.98992: L2-HR :0.92806: (Sim:0h23m56s) 
CPU  0 inst:  131000005 cyc:   72529661 now IPC :1.75929: AVG IPC :1.80337: L2-Pf-HR :0.98999: L2-HR :0.92813: (Sim:0h24m10s) 
CPU  0 inst:  132000003 cyc:   73105214 now IPC :1.73746: AVG IPC :1.80285: L2-Pf-HR :0.99006: L2-HR :0.92820: (Sim:0h24m25s) 
CPU  0 inst:  133000001 cyc:   73656825 now IPC :1.81287: AVG IPC :1.80292: L2-Pf-HR :0.99013: L2-HR :0.92828: (Sim:0h24m38s) 
CPU  0 inst:  134000002 cyc:   74218863 now IPC :1.77924: AVG IPC :1.80274: L2-Pf-HR :0.99019: L2-HR :0.92835: (Sim:0h24m52s) 
CPU  0 inst:  135000003 cyc:   74731160 now IPC :1.95199: AVG IPC :1.80378: L2-Pf-HR :0.99026: L2-HR :0.92842: (Sim:0h25m3s) 
CPU  0 inst:  136000000 cyc:   75385026 now IPC :1.52936: AVG IPC :1.80136: L2-Pf-HR :0.99019: L2-HR :0.92827: (Sim:0h25m17s) 
CPU  0 inst:  137000004 cyc:   75905914 now IPC :1.91981: AVG IPC :1.80219: L2-Pf-HR :0.99025: L2-HR :0.92835: (Sim:0h25m30s) 
CPU  0 inst:  138000002 cyc:   76457932 now IPC :1.81153: AVG IPC :1.80226: L2-Pf-HR :0.99026: L2-HR :0.92841: (Sim:0h25m44s) 
CPU  0 inst:  139000000 cyc:   76953328 now IPC :2.01858: AVG IPC :1.80367: L2-Pf-HR :0.99019: L2-HR :0.92828: (Sim:0h25m56s) 
CPU  0 inst:  140000005 cyc:   77466348 now IPC :1.94925: AVG IPC :1.80464: L2-Pf-HR :0.99005: L2-HR :0.92811: (Sim:0h26m6s) 
CPU  0 inst:  141000001 cyc:   77967770 now IPC :1.99432: AVG IPC :1.80588: L2-Pf-HR :0.98982: L2-HR :0.92779: (Sim:0h26m18s) 
CPU  0 inst:  142000001 cyc:   78594040 now IPC :1.59676: AVG IPC :1.80419: L2-Pf-HR :0.98976: L2-HR :0.92771: (Sim:0h26m33s) 
CPU  0 inst:  143000004 cyc:   79139415 now IPC :1.83361: AVG IPC :1.80440: L2-Pf-HR :0.98981: L2-HR :0.92786: (Sim:0h26m45s) 
CPU  0 inst:  144000000 cyc:   79693334 now IPC :1.80531: AVG IPC :1.80440: L2-Pf-HR :0.98986: L2-HR :0.92801: (Sim:0h26m58s) 
CPU  0 inst:  145000000 cyc:   80252963 now IPC :1.78690: AVG IPC :1.80428: L2-Pf-HR :0.98992: L2-HR :0.92817: (Sim:0h27m12s) 
CPU  0 inst:  146000004 cyc:   80923630 now IPC :1.49106: AVG IPC :1.80165: L2-Pf-HR :0.98989: L2-HR :0.92801: (Sim:0h27m27s) 
CPU  0 inst:  147000000 cyc:   81501681 now IPC :1.72994: AVG IPC :1.80114: L2-Pf-HR :0.98994: L2-HR :0.92805: (Sim:0h27m39s) 
CPU  0 inst:  148000000 cyc:   82095397 now IPC :1.68431: AVG IPC :1.80028: L2-Pf-HR :0.98999: L2-HR :0.92810: (Sim:0h27m52s) 
CPU  0 inst:  149000004 cyc:   82668883 now IPC :1.74373: AVG IPC :1.79988: L2-Pf-HR :0.99006: L2-HR :0.92817: (Sim:0h28m6s) 
CPU  0 inst:  150000005 cyc:   83219645 now IPC :1.81567: AVG IPC :1.79999: L2-Pf-HR :0.99011: L2-HR :0.92823: (Sim:0h28m20s) 
CPU  0 inst:  151000003 cyc:   83750965 now IPC :1.88210: AVG IPC :1.80052: L2-Pf-HR :0.99017: L2-HR :0.92830: (Sim:0h28m34s) 
CPU  0 inst:  152000000 cyc:   84409571 now IPC :1.51835: AVG IPC :1.79829: L2-Pf-HR :0.99012: L2-HR :0.92817: (Sim:0h28m48s) 
CPU  0 inst:  153000002 cyc:   84928114 now IPC :1.92848: AVG IPC :1.79909: L2-Pf-HR :0.99013: L2-HR :0.92819: (Sim:0h29m1s) 
CPU  0 inst:  154000000 cyc:   85443958 now IPC :1.93857: AVG IPC :1.79995: L2-Pf-HR :0.99002: L2-HR :0.92805: (Sim:0h29m14s) 
CPU  0 inst:  155000003 cyc:   85945192 now IPC :1.99508: AVG IPC :1.80110: L2-Pf-HR :0.98999: L2-HR :0.92801: (Sim:0h29m28s) 
CPU  0 inst:  156000003 cyc:   86441508 now IPC :2.01485: AVG IPC :1.80234: L2-Pf-HR :0.98988: L2-HR :0.92784: (Sim:0h29m41s) 
CPU  0 inst:  157000003 cyc:   86926831 now IPC :2.06048: AVG IPC :1.80380: L2-Pf-HR :0.98968: L2-HR :0.92755: (Sim:0h29m54s) 
CPU  0 inst:  158000001 cyc:   87532268 now IPC :1.65170: AVG IPC :1.80273: L2-Pf-HR :0.98960: L2-HR :0.92743: (Sim:0h30m8s) 
CPU  0 inst:  159000002 cyc:   88076848 now IPC :1.83628: AVG IPC :1.80294: L2-Pf-HR :0.98964: L2-HR :0.92756: (Sim:0h30m18s) 
CPU  0 inst:  160000000 cyc:   88635248 now IPC :1.79083: AVG IPC :1.80287: L2-Pf-HR :0.98969: L2-HR :0.92770: (Sim:0h30m28s) 
CPU  0 inst:  161000003 cyc:   89199375 now IPC :1.77266: AVG IPC :1.80267: L2-Pf-HR :0.98974: L2-HR :0.92785: (Sim:0h30m37s) 
CPU  0 inst:  162000004 cyc:   89855324 now IPC :1.52451: AVG IPC :1.80062: L2-Pf-HR :0.98972: L2-HR :0.92773: (Sim:0h30m47s) 
CPU  0 inst:  163000002 cyc:   90419263 now IPC :1.77324: AVG IPC :1.80045: L2-Pf-HR :0.98976: L2-HR :0.92775: (Sim:0h30m58s) 
CPU  0 inst:  164000001 cyc:   91001374 now IPC :1.71788: AVG IPC :1.79991: L2-Pf-HR :0.98981: L2-HR :0.92781: (Sim:0h31m11s) 
CPU  0 inst:  165000001 cyc:   91549941 now IPC :1.82293: AVG IPC :1.80005: L2-Pf-HR :0.98987: L2-HR :0.92787: (Sim:0h31m24s) 
CPU  0 inst:  166000001 cyc:   92090538 now IPC :1.84981: AVG IPC :1.80035: L2-Pf-HR :0.98992: L2-HR :0.92792: (Sim:0h31m37s) 
CPU  0 inst:  167000003 cyc:   92605110 now IPC :1.94337: AVG IPC :1.80115: L2-Pf-HR :0.98997: L2-HR :0.92798: (Sim:0h31m51s) 
CPU  0 inst:  168000000 cyc:   93262328 now IPC :1.52156: AVG IPC :1.79916: L2-Pf-HR :0.98995: L2-HR :0.92789: (Sim:0h32m6s) 
CPU  0 inst:  169000004 cyc:   93759071 now IPC :2.01312: AVG IPC :1.80030: L2-Pf-HR :0.98997: L2-HR :0.92792: (Sim:0h32m18s) 
CPU  0 inst:  170000004 cyc:   94287347 now IPC :1.89295: AVG IPC :1.80083: L2-Pf-HR :0.98995: L2-HR :0.92791: (Sim:0h32m32s) 
CPU  0 inst:  171000004 cyc:   94775392 now IPC :2.04899: AVG IPC :1.80212: L2-Pf-HR :0.98985: L2-HR :0.92777: (Sim:0h32m45s) 
CPU  0 inst:  172000004 cyc:   95273313 now IPC :2.00835: AVG IPC :1.80321: L2-Pf-HR :0.98975: L2-HR :0.92763: (Sim:0h32m58s) 
CPU  0 inst:  173000004 cyc:   95755331 now IPC :2.07461: AVG IPC :1.80459: L2-Pf-HR :0.98958: L2-HR :0.92739: (Sim:0h33m10s) 
CPU  0 inst:  174000000 cyc:   96343939 now IPC :1.69892: AVG IPC :1.80394: L2-Pf-HR :0.98953: L2-HR :0.92731: (Sim:0h33m24s) 
CPU  0 inst:  175000000 cyc:   96863024 now IPC :1.92647: AVG IPC :1.80460: L2-Pf-HR :0.98957: L2-HR :0.92741: (Sim:0h33m37s) 
CPU  0 inst:  176000000 cyc:   97417565 now IPC :1.80329: AVG IPC :1.80459: L2-Pf-HR :0.98961: L2-HR :0.92754: (Sim:0h33m49s) 
CPU  0 inst:  177000001 cyc:   97976284 now IPC :1.78981: AVG IPC :1.80451: L2-Pf-HR :0.98966: L2-HR :0.92767: (Sim:0h34m2s) 
CPU  0 inst:  178000003 cyc:   98649876 now IPC :1.48458: AVG IPC :1.80230: L2-Pf-HR :0.98964: L2-HR :0.92760: (Sim:0h34m16s) 
CPU  0 inst:  179000005 cyc:   99216334 now IPC :1.76536: AVG IPC :1.80209: L2-Pf-HR :0.98967: L2-HR :0.92760: (Sim:0h34m29s) 
CPU  0 inst:  180000000 cyc:   99938996 now IPC :1.38377: AVG IPC :1.79903: L2-Pf-HR :0.98973: L2-HR :0.92767: (Sim:0h34m43s) 
CPU  0 inst:  181000004 cyc:  100663874 now IPC :1.37955: AVG IPC :1.79598: L2-Pf-HR :0.98978: L2-HR :0.92774: (Sim:0h34m57s) 
CPU  0 inst:  182000002 cyc:  101360321 now IPC :1.43586: AVG IPC :1.79348: L2-Pf-HR :0.98983: L2-HR :0.92780: (Sim:0h35m11s) 
CPU  0 inst:  183000002 cyc:  102089938 now IPC :1.37058: AVG IPC :1.79043: L2-Pf-HR :0.98988: L2-HR :0.92786: (Sim:0h35m26s) 
CPU  0 inst:  184000000 cyc:  102871318 now IPC :1.27978: AVG IPC :1.78651: L2-Pf-HR :0.98988: L2-HR :0.92781: (Sim:0h35m39s) 
CPU  0 inst:  185000001 cyc:  103385888 now IPC :1.94337: AVG IPC :1.78730: L2-Pf-HR :0.98989: L2-HR :0.92781: (Sim:0h35m52s) 
CPU  0 inst:  186000003 cyc:  103914280 now IPC :1.89254: AVG IPC :1.78784: L2-Pf-HR :0.98994: L2-HR :0.92790: (Sim:0h36m5s) 
CPU  0 inst:  187000003 cyc:  104441658 now IPC :1.89617: AVG IPC :1.78840: L2-Pf-HR :0.98989: L2-HR :0.92785: (Sim:0h36m17s) 
CPU  0 inst:  188000002 cyc:  104937283 now IPC :2.01765: AVG IPC :1.78949: L2-Pf-HR :0.98980: L2-HR :0.92772: (Sim:0h36m30s) 
CPU  0 inst:  189000002 cyc:  105422588 now IPC :2.06056: AVG IPC :1.79075: L2-Pf-HR :0.98969: L2-HR :0.92754: (Sim:0h36m43s) 
CPU  0 inst:  190000003 cyc:  106031949 now IPC :1.64107: AVG IPC :1.78988: L2-Pf-HR :0.98956: L2-HR :0.92734: (Sim:0h36m56s) 
CPU  0 inst:  191000004 cyc:  106567574 now IPC :1.86698: AVG IPC :1.79027: L2-Pf-HR :0.98958: L2-HR :0.92744: (Sim:0h37m10s) 
CPU  0 inst:  192000000 cyc:  107135269 now IPC :1.76150: AVG IPC :1.79012: L2-Pf-HR :0.98962: L2-HR :0.92756: (Sim:0h37m21s) 
CPU  0 inst:  193000005 cyc:  107690487 now IPC :1.80110: AVG IPC :1.79017: L2-Pf-HR :0.98966: L2-HR :0.92767: (Sim:0h37m33s) 
CPU  0 inst:  194000001 cyc:  109472042 now IPC :0.56131: AVG IPC :1.76999: L2-Pf-HR :0.98965: L2-HR :0.92649: (Sim:0h37m49s) 
CPU  0 inst:  195000000 cyc:  114310844 now IPC :0.20666: AVG IPC :1.70323: L2-Pf-HR :0.98955: L2-HR :0.92146: (Sim:0h38m23s) 
CPU  0 inst:  196000002 cyc:  119285619 now IPC :0.20101: AVG IPC :1.64006: L2-Pf-HR :0.98951: L2-HR :0.91654: (Sim:0h38m59s) 
CPU  0 inst:  197000004 cyc:  124207352 now IPC :0.20318: AVG IPC :1.58266: L2-Pf-HR :0.98938: L2-HR :0.91175: (Sim:0h39m35s) 
CPU  0 inst:  198000003 cyc:  129149704 now IPC :0.20233: AVG IPC :1.52943: L2-Pf-HR :0.98924: L2-HR :0.90707: (Sim:0h40m12s) 
CPU  0 inst:  199000002 cyc:  134087154 now IPC :0.20253: AVG IPC :1.48020: L2-Pf-HR :0.98910: L2-HR :0.90249: (Sim:0h40m48s) 
CPU  0 inst:  200000000 cyc:  139025848 now IPC :0.20248: AVG IPC :1.43448: L2-Pf-HR :0.98896: L2-HR :0.89801: (Sim:0h41m25s) 
CPU  0 inst:  201000000 cyc:  143798464 now IPC :0.20953: AVG IPC :1.39354: L2-Pf-HR :0.98882: L2-HR :0.89417: (Sim:0h42m0s) 
CPU  0 inst:  202000000 cyc:  147764907 now IPC :0.25212: AVG IPC :1.36270: L2-Pf-HR :0.98859: L2-HR :0.89349: (Sim:0h42m25s) 
CPU  0 inst:  203000002 cyc:  151729657 now IPC :0.25222: AVG IPC :1.33349: L2-Pf-HR :0.98837: L2-HR :0.89282: (Sim:0h42m51s) 
CPU  0 inst:  204000005 cyc:  155694335 now IPC :0.25223: AVG IPC :1.30578: L2-Pf-HR :0.98815: L2-HR :0.89216: (Sim:0h43m19s) 
CPU  0 inst:  205000000 cyc:  159655732 now IPC :0.25243: AVG IPC :1.27948: L2-Pf-HR :0.98793: L2-HR :0.89149: (Sim:0h43m43s) 
CPU  0 inst:  206000000 cyc:  163616699 now IPC :0.25246: AVG IPC :1.25446: L2-Pf-HR :0.98770: L2-HR :0.89082: (Sim:0h44m9s) 
CPU  0 inst:  207000000 cyc:  167577802 now IPC :0.25245: AVG IPC :1.23063: L2-Pf-HR :0.98748: L2-HR :0.89016: (Sim:0h44m35s) 
CPU  0 inst:  208000000 cyc:  171539005 now IPC :0.25245: AVG IPC :1.20791: L2-Pf-HR :0.98726: L2-HR :0.88950: (Sim:0h45m1s) 
CPU  0 inst:  209000000 cyc:  175498320 now IPC :0.25257: AVG IPC :1.18624: L2-Pf-HR :0.98703: L2-HR :0.88884: (Sim:0h45m27s) 
CPU  0 inst:  210000001 cyc:  179460721 now IPC :0.25237: AVG IPC :1.16550: L2-Pf-HR :0.98681: L2-HR :0.88818: (Sim:0h45m47s) 
CPU  0 inst:  211000001 cyc:  183421100 now IPC :0.25250: AVG IPC :1.14568: L2-Pf-HR :0.98659: L2-HR :0.88753: (Sim:0h46m7s) 
CPU  0 inst:  212000004 cyc:  187384835 now IPC :0.25229: AVG IPC :1.12668: L2-Pf-HR :0.98637: L2-HR :0.88687: (Sim:0h46m32s) 
CPU  0 inst:  213000000 cyc:  191346361 now IPC :0.25243: AVG IPC :1.10849: L2-Pf-HR :0.98615: L2-HR :0.88622: (Sim:0h46m59s) 
CPU  0 inst:  214000000 cyc:  195308030 now IPC :0.25242: AVG IPC :1.09103: L2-Pf-HR :0.98592: L2-HR :0.88557: (Sim:0h47m21s) 
CPU  0 inst:  215000000 cyc:  199266930 now IPC :0.25260: AVG IPC :1.07429: L2-Pf-HR :0.98570: L2-HR :0.88492: (Sim:0h47m40s) 
CPU  0 inst:  216000000 cyc:  203229613 now IPC :0.25235: AVG IPC :1.05819: L2-Pf-HR :0.98548: L2-HR :0.88427: (Sim:0h48m7s) 
CPU  0 inst:  217000000 cyc:  207191217 now IPC :0.25242: AVG IPC :1.04271: L2-Pf-HR :0.98526: L2-HR :0.88363: (Sim:0h48m34s) 
CPU  0 inst:  218000001 cyc:  211152668 now IPC :0.25243: AVG IPC :1.02781: L2-Pf-HR :0.98504: L2-HR :0.88298: (Sim:0h49m1s) 
CPU  0 inst:  219000003 cyc:  215116780 now IPC :0.25226: AVG IPC :1.01345: L2-Pf-HR :0.98482: L2-HR :0.88234: (Sim:0h49m28s) 
CPU  0 inst:  220000000 cyc:  219077186 now IPC :0.25250: AVG IPC :0.99963: L2-Pf-HR :0.98460: L2-HR :0.88170: (Sim:0h49m51s) 
CPU  0 inst:  221000000 cyc:  223035829 now IPC :0.25261: AVG IPC :0.98631: L2-Pf-HR :0.98437: L2-HR :0.88106: (Sim:0h50m15s) 
CPU  0 inst:  222000000 cyc:  226995969 now IPC :0.25252: AVG IPC :0.97346: L2-Pf-HR :0.98415: L2-HR :0.88043: (Sim:0h50m42s) 
CPU  0 inst:  223000000 cyc:  230957594 now IPC :0.25242: AVG IPC :0.96103: L2-Pf-HR :0.98393: L2-HR :0.87979: (Sim:0h51m10s) 
CPU  0 inst:  224000000 cyc:  234915361 now IPC :0.25267: AVG IPC :0.94905: L2-Pf-HR :0.98371: L2-HR :0.87916: (Sim:0h51m36s) 
CPU  0 inst:  225000001 cyc:  238876293 now IPC :0.25247: AVG IPC :0.93745: L2-Pf-HR :0.98349: L2-HR :0.87852: (Sim:0h52m3s) 
CPU  0 inst:  226000001 cyc:  242837297 now IPC :0.25246: AVG IPC :0.92623: L2-Pf-HR :0.98327: L2-HR :0.87790: (Sim:0h52m28s) 
CPU  0 inst:  227000000 cyc:  246798157 now IPC :0.25247: AVG IPC :0.91537: L2-Pf-HR :0.98305: L2-HR :0.87727: (Sim:0h52m53s) 
CPU  0 inst:  228000000 cyc:  250758907 now IPC :0.25248: AVG IPC :0.90486: L2-Pf-HR :0.98283: L2-HR :0.87664: (Sim:0h53m20s) 
CPU  0 inst:  229000004 cyc:  254722088 now IPC :0.25232: AVG IPC :0.89467: L2-Pf-HR :0.98261: L2-HR :0.87602: (Sim:0h53m45s) 
CPU  0 inst:  230000000 cyc:  258684451 now IPC :0.25237: AVG IPC :0.88479: L2-Pf-HR :0.98239: L2-HR :0.87539: (Sim:0h54m6s) 
CPU  0 inst:  231000000 cyc:  262645048 now IPC :0.25249: AVG IPC :0.87522: L2-Pf-HR :0.98217: L2-HR :0.87477: (Sim:0h54m28s) 
CPU  0 inst:  232000000 cyc:  266606648 now IPC :0.25242: AVG IPC :0.86593: L2-Pf-HR :0.98195: L2-HR :0.87415: (Sim:0h54m56s) 
CPU  0 inst:  233000000 cyc:  270568427 now IPC :0.25241: AVG IPC :0.85692: L2-Pf-HR :0.98173: L2-HR :0.87353: (Sim:0h55m23s) 
CPU  0 inst:  234000003 cyc:  274530193 now IPC :0.25241: AVG IPC :0.84816: L2-Pf-HR :0.98151: L2-HR :0.87292: (Sim:0h55m50s) 
CPU  0 inst:  235000000 cyc:  278492520 now IPC :0.25238: AVG IPC :0.83965: L2-Pf-HR :0.98129: L2-HR :0.87230: (Sim:0h56m18s) 
CPU  0 inst:  236000000 cyc:  282453194 now IPC :0.25248: AVG IPC :0.83139: L2-Pf-HR :0.98107: L2-HR :0.87169: (Sim:0h56m46s) 
CPU  0 inst:  237000000 cyc:  286416837 now IPC :0.25229: AVG IPC :0.82335: L2-Pf-HR :0.98085: L2-HR :0.87107: (Sim:0h57m13s) 
CPU  0 inst:  238000000 cyc:  290378201 now IPC :0.25244: AVG IPC :0.81553: L2-Pf-HR :0.98063: L2-HR :0.87046: (Sim:0h57m39s) 
CPU  0 inst:  239000000 cyc:  294339394 now IPC :0.25245: AVG IPC :0.80793: L2-Pf-HR :0.98041: L2-HR :0.86986: (Sim:0h58m7s) 
CPU  0 inst:  240000000 cyc:  298301288 now IPC :0.25240: AVG IPC :0.80053: L2-Pf-HR :0.98019: L2-HR :0.86925: (Sim:0h58m35s) 
CPU  0 inst:  241000001 cyc:  302261805 now IPC :0.25249: AVG IPC :0.79332: L2-Pf-HR :0.97997: L2-HR :0.86864: (Sim:0h59m0s) 
CPU  0 inst:  242000000 cyc:  306221464 now IPC :0.25255: AVG IPC :0.78631: L2-Pf-HR :0.97975: L2-HR :0.86804: (Sim:0h59m27s) 
CPU  0 inst:  243000000 cyc:  310179968 now IPC :0.25262: AVG IPC :0.77947: L2-Pf-HR :0.97953: L2-HR :0.86744: (Sim:0h59m53s) 
CPU  0 inst:  244000000 cyc:  314137489 now IPC :0.25268: AVG IPC :0.77282: L2-Pf-HR :0.97931: L2-HR :0.86684: (Sim:1h0m20s) 
CPU  0 inst:  245000000 cyc:  318097992 now IPC :0.25249: AVG IPC :0.76632: L2-Pf-HR :0.97909: L2-HR :0.86624: (Sim:1h0m47s) 
CPU  0 inst:  246000004 cyc:  322058632 now IPC :0.25249: AVG IPC :0.75998: L2-Pf-HR :0.97887: L2-HR :0.86564: (Sim:1h1m13s) 
CPU  0 inst:  247000000 cyc:  326019681 now IPC :0.25246: AVG IPC :0.75379: L2-Pf-HR :0.97866: L2-HR :0.86504: (Sim:1h1m39s) 
CPU  0 inst:  248000000 cyc:  329980103 now IPC :0.25250: AVG IPC :0.74776: L2-Pf-HR :0.97844: L2-HR :0.86445: (Sim:1h2m7s) 
CPU  0 inst:  249000003 cyc:  333942769 now IPC :0.25236: AVG IPC :0.74186: L2-Pf-HR :0.97822: L2-HR :0.86386: (Sim:1h2m35s) 
CPU  0 inst:  250000004 cyc:  337901215 now IPC :0.25262: AVG IPC :0.73611: L2-Pf-HR :0.97800: L2-HR :0.86327: (Sim:1h2m59s) 
CPU  0 inst:  251000000 cyc:  341861155 now IPC :0.25253: AVG IPC :0.73050: L2-Pf-HR :0.97778: L2-HR :0.86268: (Sim:1h3m26s) 
CPU  0 inst:  252000000 cyc:  345823073 now IPC :0.25240: AVG IPC :0.72500: L2-Pf-HR :0.97756: L2-HR :0.86209: (Sim:1h3m54s) 
CPU  0 inst:  253000000 cyc:  349784009 now IPC :0.25247: AVG IPC :0.71964: L2-Pf-HR :0.97735: L2-HR :0.86150: (Sim:1h4m20s) 
CPU  0 inst:  254000000 cyc:  353746336 now IPC :0.25238: AVG IPC :0.71439: L2-Pf-HR :0.97713: L2-HR :0.86091: (Sim:1h4m45s) 
CPU  0 inst:  255000002 cyc:  357706236 now IPC :0.25253: AVG IPC :0.70926: L2-Pf-HR :0.97691: L2-HR :0.86033: (Sim:1h5m10s) 
CPU  0 inst:  256000000 cyc:  361669610 now IPC :0.25231: AVG IPC :0.70424: L2-Pf-HR :0.97669: L2-HR :0.85975: (Sim:1h5m38s) 
CPU  0 inst:  257000000 cyc:  365632477 now IPC :0.25234: AVG IPC :0.69933: L2-Pf-HR :0.97648: L2-HR :0.85917: (Sim:1h6m5s) 
CPU  0 inst:  258000000 cyc:  369592241 now IPC :0.25254: AVG IPC :0.69453: L2-Pf-HR :0.97626: L2-HR :0.85859: (Sim:1h6m30s) 
CPU  0 inst:  259000000 cyc:  373552971 now IPC :0.25248: AVG IPC :0.68983: L2-Pf-HR :0.97604: L2-HR :0.85801: (Sim:1h6m57s) 
CPU  0 inst:  260000000 cyc:  377513698 now IPC :0.25248: AVG IPC :0.68523: L2-Pf-HR :0.97582: L2-HR :0.85743: (Sim:1h7m24s) 
CPU  0 inst:  261000000 cyc:  381473882 now IPC :0.25251: AVG IPC :0.68072: L2-Pf-HR :0.97560: L2-HR :0.85686: (Sim:1h7m49s) 
CPU  0 inst:  262000000 cyc:  385433703 now IPC :0.25254: AVG IPC :0.67631: L2-Pf-HR :0.97539: L2-HR :0.85628: (Sim:1h8m10s) 
CPU  0 inst:  263000001 cyc:  389393002 now IPC :0.25257: AVG IPC :0.67199: L2-Pf-HR :0.97517: L2-HR :0.85571: (Sim:1h8m33s) 
CPU  0 inst:  264000000 cyc:  393353225 now IPC :0.25251: AVG IPC :0.66776: L2-Pf-HR :0.97495: L2-HR :0.85514: (Sim:1h8m57s) 
CPU  0 inst:  265000000 cyc:  397316348 now IPC :0.25233: AVG IPC :0.66361: L2-Pf-HR :0.97474: L2-HR :0.85457: (Sim:1h9m20s) 
CPU  0 inst:  266000000 cyc:  401274446 now IPC :0.25265: AVG IPC :0.65954: L2-Pf-HR :0.97452: L2-HR :0.85401: (Sim:1h9m45s) 
CPU  0 inst:  267000004 cyc:  405234927 now IPC :0.25250: AVG IPC :0.65555: L2-Pf-HR :0.97430: L2-HR :0.85344: (Sim:1h10m12s) 
CPU  0 inst:  268000000 cyc:  409196057 now IPC :0.25245: AVG IPC :0.65164: L2-Pf-HR :0.97409: L2-HR :0.85287: (Sim:1h10m36s) 
CPU  0 inst:  269000000 cyc:  413157604 now IPC :0.25243: AVG IPC :0.64781: L2-Pf-HR :0.97387: L2-HR :0.85231: (Sim:1h10m57s) 
CPU  0 inst:  270000001 cyc:  417119706 now IPC :0.25239: AVG IPC :0.64404: L2-Pf-HR :0.97365: L2-HR :0.85175: (Sim:1h11m24s) 
CPU  0 inst:  271000001 cyc:  421082481 now IPC :0.25235: AVG IPC :0.64035: L2-Pf-HR :0.97344: L2-HR :0.85119: (Sim:1h11m49s) 
CPU  0 inst:  272000000 cyc:  425045166 now IPC :0.25235: AVG IPC :0.63672: L2-Pf-HR :0.97322: L2-HR :0.85063: (Sim:1h12m11s) 
CPU  0 inst:  273000000 cyc:  429006589 now IPC :0.25243: AVG IPC :0.63316: L2-Pf-HR :0.97301: L2-HR :0.85007: (Sim:1h12m39s) 
CPU  0 inst:  274000000 cyc:  432965656 now IPC :0.25258: AVG IPC :0.62968: L2-Pf-HR :0.97279: L2-HR :0.84952: (Sim:1h13m6s) 
CPU  0 inst:  275000000 cyc:  436928062 now IPC :0.25237: AVG IPC :0.62625: L2-Pf-HR :0.97257: L2-HR :0.84896: (Sim:1h13m31s) 
CPU  0 inst:  276000000 cyc:  440890493 now IPC :0.25237: AVG IPC :0.62288: L2-Pf-HR :0.97236: L2-HR :0.84841: (Sim:1h13m58s) 
CPU  0 inst:  277000000 cyc:  444853274 now IPC :0.25235: AVG IPC :0.61957: L2-Pf-HR :0.97214: L2-HR :0.84785: (Sim:1h14m25s) 
CPU  0 inst:  278000001 cyc:  448813037 now IPC :0.25254: AVG IPC :0.61632: L2-Pf-HR :0.97193: L2-HR :0.84730: (Sim:1h14m50s) 
CPU  0 inst:  279000003 cyc:  452775906 now IPC :0.25234: AVG IPC :0.61313: L2-Pf-HR :0.97171: L2-HR :0.84675: (Sim:1h15m17s) 
CPU  0 inst:  280000000 cyc:  456735233 now IPC :0.25257: AVG IPC :0.61000: L2-Pf-HR :0.97150: L2-HR :0.84621: (Sim:1h15m40s) 
CPU  0 inst:  281000000 cyc:  460694396 now IPC :0.25258: AVG IPC :0.60692: L2-Pf-HR :0.97128: L2-HR :0.84566: (Sim:1h16m2s) 
CPU  0 inst:  282000000 cyc:  464656698 now IPC :0.25238: AVG IPC :0.60389: L2-Pf-HR :0.97106: L2-HR :0.84511: (Sim:1h16m28s) 
CPU  0 inst:  283000000 cyc:  468616866 now IPC :0.25251: AVG IPC :0.60092: L2-Pf-HR :0.97085: L2-HR :0.84457: (Sim:1h16m55s) 
CPU  0 inst:  284000004 cyc:  472576763 now IPC :0.25253: AVG IPC :0.59799: L2-Pf-HR :0.97063: L2-HR :0.84403: (Sim:1h17m20s) 
CPU  0 inst:  285000000 cyc:  476536258 now IPC :0.25256: AVG IPC :0.59511: L2-Pf-HR :0.97042: L2-HR :0.84349: (Sim:1h17m47s) 
CPU  0 inst:  286000003 cyc:  480497677 now IPC :0.25244: AVG IPC :0.59228: L2-Pf-HR :0.97021: L2-HR :0.84295: (Sim:1h18m15s) 
CPU  0 inst:  287000000 cyc:  484455498 now IPC :0.25266: AVG IPC :0.58950: L2-Pf-HR :0.96999: L2-HR :0.84241: (Sim:1h18m41s) 
CPU  0 inst:  288000000 cyc:  488416425 now IPC :0.25247: AVG IPC :0.58676: L2-Pf-HR :0.96978: L2-HR :0.84187: (Sim:1h19m6s) 
CPU  0 inst:  289000000 cyc:  492378822 now IPC :0.25237: AVG IPC :0.58407: L2-Pf-HR :0.96956: L2-HR :0.84133: (Sim:1h19m34s) 
CPU  0 inst:  290000000 cyc:  496339245 now IPC :0.25250: AVG IPC :0.58142: L2-Pf-HR :0.96935: L2-HR :0.84080: (Sim:1h20m1s) 
CPU  0 inst:  291000000 cyc:  500298580 now IPC :0.25257: AVG IPC :0.57881: L2-Pf-HR :0.96913: L2-HR :0.84027: (Sim:1h20m27s) 
CPU  0 inst:  292000000 cyc:  504259898 now IPC :0.25244: AVG IPC :0.57624: L2-Pf-HR :0.96892: L2-HR :0.83973: (Sim:1h20m53s) 
CPU  0 inst:  293000001 cyc:  508218400 now IPC :0.25262: AVG IPC :0.57371: L2-Pf-HR :0.96870: L2-HR :0.83920: (Sim:1h21m18s) 
CPU  0 inst:  294000001 cyc:  512180739 now IPC :0.25238: AVG IPC :0.57122: L2-Pf-HR :0.96849: L2-HR :0.83867: (Sim:1h21m43s) 
CPU  0 inst:  295000000 cyc:  516141210 now IPC :0.25249: AVG IPC :0.56877: L2-Pf-HR :0.96828: L2-HR :0.83815: (Sim:1h22m3s) 
CPU  0 inst:  296000000 cyc:  520101112 now IPC :0.25253: AVG IPC :0.56636: L2-Pf-HR :0.96806: L2-HR :0.83762: (Sim:1h22m23s) 
CPU  0 inst:  297000005 cyc:  521744976 now IPC :0.60833: AVG IPC :0.56649: L2-Pf-HR :0.96797: L2-HR :0.83794: (Sim:1h22m40s) 
CPU  0 inst:  298000001 cyc:  522372091 now IPC :1.59460: AVG IPC :0.56773: L2-Pf-HR :0.96794: L2-HR :0.83873: (Sim:1h22m56s) 
CPU  0 inst:  299000005 cyc:  522990769 now IPC :1.61636: AVG IPC :0.56897: L2-Pf-HR :0.96792: L2-HR :0.83950: (Sim:1h23m9s) 
CPU  0 inst:  300000004 cyc:  523607708 now IPC :1.62090: AVG IPC :0.57021: L2-Pf-HR :0.96788: L2-HR :0.84024: (Sim:1h23m25s) 
CPU  0 inst:  301000002 cyc:  524233573 now IPC :1.59779: AVG IPC :0.57144: L2-Pf-HR :0.96786: L2-HR :0.84097: (Sim:1h23m42s) 
CPU  0 inst:  302000002 cyc:  524818104 now IPC :1.71077: AVG IPC :0.57271: L2-Pf-HR :0.96784: L2-HR :0.84174: (Sim:1h23m58s) 
CPU  0 inst:  303000001 cyc:  525394884 now IPC :1.73376: AVG IPC :0.57399: L2-Pf-HR :0.96781: L2-HR :0.84248: (Sim:1h24m14s) 
CPU  0 inst:  304000000 cyc:  525972253 now IPC :1.73199: AVG IPC :0.57527: L2-Pf-HR :0.96778: L2-HR :0.84322: (Sim:1h24m29s) 
CPU  0 inst:  305000000 cyc:  526563587 now IPC :1.69109: AVG IPC :0.57652: L2-Pf-HR :0.96777: L2-HR :0.84395: (Sim:1h24m41s) 
CPU  0 inst:  306000005 cyc:  527145309 now IPC :1.71904: AVG IPC :0.57778: L2-Pf-HR :0.96774: L2-HR :0.84467: (Sim:1h24m57s) 
CPU  0 inst:  307000005 cyc:  527720644 now IPC :1.73812: AVG IPC :0.57905: L2-Pf-HR :0.96770: L2-HR :0.84537: (Sim:1h25m13s) 
CPU  0 inst:  308000001 cyc:  528292803 now IPC :1.74776: AVG IPC :0.58032: L2-Pf-HR :0.96768: L2-HR :0.84607: (Sim:1h25m29s) 
CPU  0 inst:  309000003 cyc:  528876523 now IPC :1.71315: AVG IPC :0.58157: L2-Pf-HR :0.96768: L2-HR :0.84676: (Sim:1h25m44s) 
CPU  0 inst:  310000004 cyc:  529460974 now IPC :1.71101: AVG IPC :0.58282: L2-Pf-HR :0.96773: L2-HR :0.84746: (Sim:1h25m56s) 
CPU  0 inst:  311000000 cyc:  530044288 now IPC :1.71434: AVG IPC :0.58407: L2-Pf-HR :0.96779: L2-HR :0.84815: (Sim:1h26m10s) 
CPU  0 inst:  312000000 cyc:  530621448 now IPC :1.73262: AVG IPC :0.58532: L2-Pf-HR :0.96785: L2-HR :0.84885: (Sim:1h26m25s) 
CPU  0 inst:  313000003 cyc:  531214703 now IPC :1.68562: AVG IPC :0.58655: L2-Pf-HR :0.96791: L2-HR :0.84952: (Sim:1h26m41s) 
CPU  0 inst:  314000004 cyc:  531827904 now IPC :1.63079: AVG IPC :0.58776: L2-Pf-HR :0.96788: L2-HR :0.85013: (Sim:1h26m56s) 
CPU  0 inst:  315000001 cyc:  532435241 now IPC :1.64653: AVG IPC :0.58897: L2-Pf-HR :0.96787: L2-HR :0.85078: (Sim:1h27m12s) 
CPU  0 inst:  316000003 cyc:  533044803 now IPC :1.64053: AVG IPC :0.59017: L2-Pf-HR :0.96786: L2-HR :0.85142: (Sim:1h27m28s) 
CPU  0 inst:  317000004 cyc:  533655263 now IPC :1.63811: AVG IPC :0.59137: L2-Pf-HR :0.96783: L2-HR :0.85203: (Sim:1h27m44s) 
CPU  0 inst:  318000000 cyc:  534237068 now IPC :1.71878: AVG IPC :0.59260: L2-Pf-HR :0.96780: L2-HR :0.85263: (Sim:1h28m0s) 
CPU  0 inst:  319000002 cyc:  534803742 now IPC :1.76469: AVG IPC :0.59385: L2-Pf-HR :0.96778: L2-HR :0.85325: (Sim:1h28m16s) 
CPU  0 inst:  320000000 cyc:  535372813 now IPC :1.75725: AVG IPC :0.59509: L2-Pf-HR :0.96776: L2-HR :0.85388: (Sim:1h28m32s) 
CPU  0 inst:  321000005 cyc:  535940085 now IPC :1.76283: AVG IPC :0.59633: L2-Pf-HR :0.96775: L2-HR :0.85450: (Sim:1h28m48s) 
CPU  0 inst:  322000002 cyc:  536523066 now IPC :1.71532: AVG IPC :0.59754: L2-Pf-HR :0.96771: L2-HR :0.85507: (Sim:1h29m4s) 
CPU  0 inst:  323000000 cyc:  537085420 now IPC :1.77824: AVG IPC :0.59878: L2-Pf-HR :0.96769: L2-HR :0.85567: (Sim:1h29m20s) 
CPU  0 inst:  324000003 cyc:  537651654 now IPC :1.76606: AVG IPC :0.60001: L2-Pf-HR :0.96768: L2-HR :0.85627: (Sim:1h29m36s) 
CPU  0 inst:  325000003 cyc:  538218362 now IPC :1.76458: AVG IPC :0.60124: L2-Pf-HR :0.96767: L2-HR :0.85687: (Sim:1h29m52s) 
CPU  0 inst:  326000003 cyc:  538808934 now IPC :1.69327: AVG IPC :0.60244: L2-Pf-HR :0.96767: L2-HR :0.85742: (Sim:1h30m8s) 
CPU  0 inst:  327000000 cyc:  539382668 now IPC :1.74296: AVG IPC :0.60366: L2-Pf-HR :0.96773: L2-HR :0.85802: (Sim:1h30m22s) 
CPU  0 inst:  328000000 cyc:  539955367 now IPC :1.74612: AVG IPC :0.60487: L2-Pf-HR :0.96780: L2-HR :0.85861: (Sim:1h30m37s) 
CPU  0 inst:  329000002 cyc:  540531635 now IPC :1.73531: AVG IPC :0.60608: L2-Pf-HR :0.96786: L2-HR :0.85919: (Sim:1h30m53s) 
CPU  0 inst:  330000000 cyc:  541142107 now IPC :1.63807: AVG IPC :0.60724: L2-Pf-HR :0.96788: L2-HR :0.85971: (Sim:1h31m8s) 
CPU  0 inst:  331000004 cyc:  541746225 now IPC :1.65531: AVG IPC :0.60842: L2-Pf-HR :0.96786: L2-HR :0.86025: (Sim:1h31m22s) 
CPU  0 inst:  332000005 cyc:  542349509 now IPC :1.65760: AVG IPC :0.60958: L2-Pf-HR :0.96785: L2-HR :0.86079: (Sim:1h31m38s) 
CPU  0 inst:  333000005 cyc:  542956443 now IPC :1.64763: AVG IPC :0.61075: L2-Pf-HR :0.96785: L2-HR :0.86131: (Sim:1h31m54s) 
CPU  0 inst:  334000001 cyc:  543576446 now IPC :1.61289: AVG IPC :0.61189: L2-Pf-HR :0.96781: L2-HR :0.86179: (Sim:1h32m9s) 
CPU  0 inst:  335000002 cyc:  544141268 now IPC :1.77047: AVG IPC :0.61310: L2-Pf-HR :0.96780: L2-HR :0.86233: (Sim:1h32m25s) 
CPU  0 inst:  336000000 cyc:  544704854 now IPC :1.77435: AVG IPC :0.61430: L2-Pf-HR :0.96778: L2-HR :0.86286: (Sim:1h32m41s) 
CPU  0 inst:  337000002 cyc:  545279785 now IPC :1.73934: AVG IPC :0.61549: L2-Pf-HR :0.96775: L2-HR :0.86337: (Sim:1h32m57s) 
CPU  0 inst:  338000000 cyc:  545851949 now IPC :1.74775: AVG IPC :0.61668: L2-Pf-HR :0.96775: L2-HR :0.86390: (Sim:1h33m12s) 
CPU  0 inst:  339000005 cyc:  546428302 now IPC :1.73506: AVG IPC :0.61786: L2-Pf-HR :0.96772: L2-HR :0.86439: (Sim:1h33m28s) 
CPU  0 inst:  340000005 cyc:  546992683 now IPC :1.77185: AVG IPC :0.61905: L2-Pf-HR :0.96769: L2-HR :0.86488: (Sim:1h33m39s) 
CPU  0 inst:  341000000 cyc:  547562177 now IPC :1.75594: AVG IPC :0.62024: L2-Pf-HR :0.96766: L2-HR :0.86536: (Sim:1h33m54s) 
CPU  0 inst:  342000002 cyc:  548130809 now IPC :1.75861: AVG IPC :0.62142: L2-Pf-HR :0.96764: L2-HR :0.86585: (Sim:1h34m9s) 
CPU  0 inst:  343000004 cyc:  548715747 now IPC :1.70959: AVG IPC :0.62258: L2-Pf-HR :0.96769: L2-HR :0.86635: (Sim:1h34m24s) 
CPU  0 inst:  344000000 cyc:  549290857 now IPC :1.73879: AVG IPC :0.62375: L2-Pf-HR :0.96774: L2-HR :0.86683: (Sim:1h34m39s) 
CPU  0 inst:  345000001 cyc:  549867223 now IPC :1.73501: AVG IPC :0.62492: L2-Pf-HR :0.96778: L2-HR :0.86731: (Sim:1h34m54s) 
CPU  0 inst:  346000002 cyc:  550442971 now IPC :1.73687: AVG IPC :0.62609: L2-Pf-HR :0.96784: L2-HR :0.86780: (Sim:1h35m9s) 
CPU  0 inst:  347000001 cyc:  551058945 now IPC :1.62344: AVG IPC :0.62720: L2-Pf-HR :0.96783: L2-HR :0.86824: (Sim:1h35m25s) 
CPU  0 inst:  348000003 cyc:  551668327 now IPC :1.64101: AVG IPC :0.62832: L2-Pf-HR :0.96781: L2-HR :0.86868: (Sim:1h35m40s) 
CPU  0 inst:  349000000 cyc:  552274281 now IPC :1.65029: AVG IPC :0.62945: L2-Pf-HR :0.96779: L2-HR :0.86913: (Sim:1h35m55s) 
CPU  0 inst:  350000002 cyc:  552880966 now IPC :1.64831: AVG IPC :0.63057: L2-Pf-HR :0.96778: L2-HR :0.86958: (Sim:1h36m9s) 
CPU  0 inst:  351000005 cyc:  553482853 now IPC :1.66145: AVG IPC :0.63169: L2-Pf-HR :0.96774: L2-HR :0.86998: (Sim:1h36m24s) 
CPU  0 inst:  352000000 cyc:  554046544 now IPC :1.77401: AVG IPC :0.63285: L2-Pf-HR :0.96773: L2-HR :0.87044: (Sim:1h36m39s) 
CPU  0 inst:  353000004 cyc:  554613240 now IPC :1.76462: AVG IPC :0.63401: L2-Pf-HR :0.96771: L2-HR :0.87089: (Sim:1h36m54s) 
CPU  0 inst:  354000002 cyc:  555183981 now IPC :1.75210: AVG IPC :0.63516: L2-Pf-HR :0.96771: L2-HR :0.87134: (Sim:1h37m9s) 
CPU  0 inst:  355000000 cyc:  555768925 now IPC :1.70956: AVG IPC :0.63630: L2-Pf-HR :0.96767: L2-HR :0.87174: (Sim:1h37m24s) 
CPU  0 inst:  356000001 cyc:  556334181 now IPC :1.76911: AVG IPC :0.63745: L2-Pf-HR :0.96766: L2-HR :0.87218: (Sim:1h37m38s) 
CPU  0 inst:  357000005 cyc:  556896399 now IPC :1.77868: AVG IPC :0.63860: L2-Pf-HR :0.96764: L2-HR :0.87261: (Sim:1h37m53s) 
CPU  0 inst:  358000003 cyc:  557464488 now IPC :1.76028: AVG IPC :0.63975: L2-Pf-HR :0.96763: L2-HR :0.87304: (Sim:1h38m8s) 
CPU  0 inst:  359000002 cyc:  558044859 now IPC :1.72303: AVG IPC :0.64088: L2-Pf-HR :0.96761: L2-HR :0.87344: (Sim:1h38m24s) 
CPU  0 inst:  360000000 cyc:  558622530 now IPC :1.73109: AVG IPC :0.64201: L2-Pf-HR :0.96766: L2-HR :0.87387: (Sim:1h38m39s) 
CPU  0 inst:  361000003 cyc:  559194114 now IPC :1.74953: AVG IPC :0.64314: L2-Pf-HR :0.96771: L2-HR :0.87430: (Sim:1h38m49s) 
CPU  0 inst:  362000003 cyc:  559768275 now IPC :1.74167: AVG IPC :0.64427: L2-Pf-HR :0.96776: L2-HR :0.87472: (Sim:1h39m3s) 
CPU  0 inst:  363000003 cyc:  560348306 now IPC :1.72405: AVG IPC :0.64539: L2-Pf-HR :0.96780: L2-HR :0.87513: (Sim:1h39m16s) 
CPU  0 inst:  364000002 cyc:  560972912 now IPC :1.60101: AVG IPC :0.64646: L2-Pf-HR :0.96779: L2-HR :0.87549: (Sim:1h39m29s) 
CPU  0 inst:  365000000 cyc:  561577318 now IPC :1.65451: AVG IPC :0.64754: L2-Pf-HR :0.96777: L2-HR :0.87588: (Sim:1h39m43s) 
CPU  0 inst:  366000004 cyc:  562184273 now IPC :1.64758: AVG IPC :0.64862: L2-Pf-HR :0.96776: L2-HR :0.87626: (Sim:1h39m59s) 
CPU  0 inst:  367000001 cyc:  562787812 now IPC :1.65689: AVG IPC :0.64971: L2-Pf-HR :0.96773: L2-HR :0.87664: (Sim:1h40m14s) 
CPU  0 inst:  368000000 cyc:  563380771 now IPC :1.68646: AVG IPC :0.65080: L2-Pf-HR :0.96770: L2-HR :0.87699: (Sim:1h40m30s) 
CPU  0 inst:  369000001 cyc:  563945916 now IPC :1.76946: AVG IPC :0.65192: L2-Pf-HR :0.96769: L2-HR :0.87738: (Sim:1h40m46s) 
CPU  0 inst:  370000003 cyc:  564513160 now IPC :1.76291: AVG IPC :0.65304: L2-Pf-HR :0.96767: L2-HR :0.87777: (Sim:1h40m56s) 
CPU  0 inst:  371000001 cyc:  565086268 now IPC :1.74487: AVG IPC :0.65415: L2-Pf-HR :0.96765: L2-HR :0.87814: (Sim:1h41m10s) 
CPU  0 inst:  372000004 cyc:  565667902 now IPC :1.71930: AVG IPC :0.65525: L2-Pf-HR :0.96763: L2-HR :0.87850: (Sim:1h41m26s) 
CPU  0 inst:  373000005 cyc:  566232576 now IPC :1.77094: AVG IPC :0.65636: L2-Pf-HR :0.96762: L2-HR :0.87887: (Sim:1h41m41s) 
CPU  0 inst:  374000005 cyc:  566798013 now IPC :1.76854: AVG IPC :0.65747: L2-Pf-HR :0.96760: L2-HR :0.87923: (Sim:1h41m57s) 
CPU  0 inst:  375000005 cyc:  567368829 now IPC :1.75188: AVG IPC :0.65858: L2-Pf-HR :0.96757: L2-HR :0.87959: (Sim:1h42m13s) 
CPU  0 inst:  376000000 cyc:  567946253 now IPC :1.73182: AVG IPC :0.65967: L2-Pf-HR :0.96758: L2-HR :0.87995: (Sim:1h42m28s) 
CPU  0 inst:  377000003 cyc:  568525073 now IPC :1.72766: AVG IPC :0.66076: L2-Pf-HR :0.96763: L2-HR :0.88032: (Sim:1h42m44s) 
CPU  0 inst:  378000002 cyc:  569102075 now IPC :1.73309: AVG IPC :0.66185: L2-Pf-HR :0.96767: L2-HR :0.88068: (Sim:1h42m59s) 
CPU  0 inst:  379000004 cyc:  569682499 now IPC :1.72288: AVG IPC :0.66293: L2-Pf-HR :0.96772: L2-HR :0.88104: (Sim:1h43m15s) 
CPU  0 inst:  380000005 cyc:  570280408 now IPC :1.67250: AVG IPC :0.66399: L2-Pf-HR :0.96775: L2-HR :0.88139: (Sim:1h43m28s) 
CPU  0 inst:  381000002 cyc:  570892150 now IPC :1.63467: AVG IPC :0.66503: L2-Pf-HR :0.96773: L2-HR :0.88172: (Sim:1h43m37s) 
CPU  0 inst:  382000003 cyc:  571500868 now IPC :1.64280: AVG IPC :0.66608: L2-Pf-HR :0.96771: L2-HR :0.88204: (Sim:1h43m48s) 
CPU  0 inst:  383000001 cyc:  572110352 now IPC :1.64073: AVG IPC :0.66712: L2-Pf-HR :0.96770: L2-HR :0.88238: (Sim:1h43m58s) 
CPU  0 inst:  384000000 cyc:  572723198 now IPC :1.63173: AVG IPC :0.66815: L2-Pf-HR :0.96768: L2-HR :0.88269: (Sim:1h44m9s) 
CPU  0 inst:  385000002 cyc:  573297180 now IPC :1.74222: AVG IPC :0.66923: L2-Pf-HR :0.96766: L2-HR :0.88302: (Sim:1h44m20s) 
CPU  0 inst:  386000004 cyc:  573860934 now IPC :1.77383: AVG IPC :0.67032: L2-Pf-HR :0.96765: L2-HR :0.88336: (Sim:1h44m34s) 
CPU  0 inst:  387000003 cyc:  574435505 now IPC :1.74043: AVG IPC :0.67139: L2-Pf-HR :0.96764: L2-HR :0.88369: (Sim:1h44m50s) 
CPU  0 inst:  388000004 cyc:  575006569 now IPC :1.75112: AVG IPC :0.67246: L2-Pf-HR :0.96763: L2-HR :0.88402: (Sim:1h45m6s) 
CPU  0 inst:  389000000 cyc:  575587614 now IPC :1.72103: AVG IPC :0.67352: L2-Pf-HR :0.96761: L2-HR :0.88434: (Sim:1h45m21s) 
CPU  0 inst:  390000002 cyc:  576149394 now IPC :1.78006: AVG IPC :0.67460: L2-Pf-HR :0.96759: L2-HR :0.88466: (Sim:1h45m32s) 
CPU  0 inst:  391000004 cyc:  576713414 now IPC :1.77299: AVG IPC :0.67568: L2-Pf-HR :0.96758: L2-HR :0.88498: (Sim:1h45m42s) 
CPU  0 inst:  392000000 cyc:  577278809 now IPC :1.76867: AVG IPC :0.67675: L2-Pf-HR :0.96757: L2-HR :0.88531: (Sim:1h45m56s) 
CPU  0 inst:  393000001 cyc:  577872021 now IPC :1.68574: AVG IPC :0.67779: L2-Pf-HR :0.96759: L2-HR :0.88561: (Sim:1h46m12s) 
CPU  0 inst:  394000002 cyc:  578443251 now IPC :1.75061: AVG IPC :0.67885: L2-Pf-HR :0.96763: L2-HR :0.88593: (Sim:1h46m27s) 
CPU  0 inst:  395000002 cyc:  579015758 now IPC :1.74670: AVG IPC :0.67991: L2-Pf-HR :0.96768: L2-HR :0.88626: (Sim:1h46m42s) 
CPU  0 inst:  396000003 cyc:  579592576 now IPC :1.73365: AVG IPC :0.68096: L2-Pf-HR :0.96772: L2-HR :0.88658: (Sim:1h46m57s) 
CPU  0 inst:  397000003 cyc:  580207440 now IPC :1.62638: AVG IPC :0.68196: L2-Pf-HR :0.96772: L2-HR :0.88685: (Sim:1h47m12s) 
CPU  0 inst:  398000000 cyc:  580810283 now IPC :1.65880: AVG IPC :0.68298: L2-Pf-HR :0.96771: L2-HR :0.88714: (Sim:1h47m28s) 
CPU  0 inst:  399000004 cyc:  581417321 now IPC :1.64735: AVG IPC :0.68399: L2-Pf-HR :0.96769: L2-HR :0.88744: (Sim:1h47m43s) 
CPU  0 inst:  400000000 cyc:  582026162 now IPC :1.64246: AVG IPC :0.68499: L2-Pf-HR :0.96768: L2-HR :0.88773: (Sim:1h47m59s) 
CPU  0 inst:  401000003 cyc:  582638084 now IPC :1.63420: AVG IPC :0.68599: L2-Pf-HR :0.96765: L2-HR :0.88798: (Sim:1h48m15s) 
CPU  0 inst:  402000003 cyc:  583202749 now IPC :1.77096: AVG IPC :0.68704: L2-Pf-HR :0.96764: L2-HR :0.88828: (Sim:1h48m30s) 
CPU  0 inst:  403000001 cyc:  583767728 now IPC :1.76997: AVG IPC :0.68809: L2-Pf-HR :0.96763: L2-HR :0.88858: (Sim:1h48m46s) 
CPU  0 inst:  404000002 cyc:  584339780 now IPC :1.74809: AVG IPC :0.68913: L2-Pf-HR :0.96762: L2-HR :0.88887: (Sim:1h49m2s) 
CPU  0 inst:  405000001 cyc:  584925344 now IPC :1.70775: AVG IPC :0.69015: L2-Pf-HR :0.96759: L2-HR :0.88914: (Sim:1h49m17s) 
CPU  0 inst:  406000003 cyc:  585491095 now IPC :1.76757: AVG IPC :0.69120: L2-Pf-HR :0.96758: L2-HR :0.88943: (Sim:1h49m33s) 
CPU  0 inst:  407000003 cyc:  586053862 now IPC :1.77693: AVG IPC :0.69224: L2-Pf-HR :0.96757: L2-HR :0.88972: (Sim:1h49m48s) 
CPU  0 inst:  408000000 cyc:  586624002 now IPC :1.75395: AVG IPC :0.69327: L2-Pf-HR :0.96755: L2-HR :0.88999: (Sim:1h50m4s) 
CPU  0 inst:  409000004 cyc:  587192562 now IPC :1.75884: AVG IPC :0.69431: L2-Pf-HR :0.96755: L2-HR :0.89029: (Sim:1h50m20s) 
CPU  0 inst:  410000002 cyc:  587783932 now IPC :1.69099: AVG IPC :0.69531: L2-Pf-HR :0.96758: L2-HR :0.89055: (Sim:1h50m35s) 
CPU  0 inst:  411000000 cyc:  588358884 now IPC :1.73927: AVG IPC :0.69633: L2-Pf-HR :0.96762: L2-HR :0.89083: (Sim:1h50m50s) 
CPU  0 inst:  412000001 cyc:  588937156 now IPC :1.72929: AVG IPC :0.69735: L2-Pf-HR :0.96765: L2-HR :0.89110: (Sim:1h51m6s) 
CPU  0 inst:  413000002 cyc:  589515508 now IPC :1.72905: AVG IPC :0.69836: L2-Pf-HR :0.96769: L2-HR :0.89138: (Sim:1h51m21s) 
CPU  0 inst:  414000003 cyc:  590130232 now IPC :1.62675: AVG IPC :0.69933: L2-Pf-HR :0.96769: L2-HR :0.89163: (Sim:1h51m36s) 
CPU  0 inst:  415000001 cyc:  590738249 now IPC :1.64469: AVG IPC :0.70031: L2-Pf-HR :0.96766: L2-HR :0.89188: (Sim:1h51m52s) 
CPU  0 inst:  416000000 cyc:  591350213 now IPC :1.63408: AVG IPC :0.70128: L2-Pf-HR :0.96765: L2-HR :0.89213: (Sim:1h52m8s) 
CPU  0 inst:  417000003 cyc:  591955731 now IPC :1.65148: AVG IPC :0.70225: L2-Pf-HR :0.96764: L2-HR :0.89239: (Sim:1h52m24s) 
CPU  0 inst:  418000002 cyc:  592550658 now IPC :1.68088: AVG IPC :0.70323: L2-Pf-HR :0.96761: L2-HR :0.89262: (Sim:1h52m41s) 
CPU  0 inst:  419000001 cyc:  593116641 now IPC :1.76684: AVG IPC :0.70425: L2-Pf-HR :0.96760: L2-HR :0.89288: (Sim:1h52m56s) 
CPU  0 inst:  420000003 cyc:  593687178 now IPC :1.75274: AVG IPC :0.70526: L2-Pf-HR :0.96759: L2-HR :0.89314: (Sim:1h53m13s) 
CPU  0 inst:  421000002 cyc:  594256716 now IPC :1.75581: AVG IPC :0.70627: L2-Pf-HR :0.96758: L2-HR :0.89341: (Sim:1h53m28s) 
CPU  0 inst:  422000003 cyc:  594842182 now IPC :1.70804: AVG IPC :0.70726: L2-Pf-HR :0.96755: L2-HR :0.89364: (Sim:1h53m36s) 
CPU  0 inst:  423000000 cyc:  595406428 now IPC :1.77227: AVG IPC :0.70827: L2-Pf-HR :0.96755: L2-HR :0.89390: (Sim:1h53m45s) 
CPU  0 inst:  424000000 cyc:  595968404 now IPC :1.77944: AVG IPC :0.70928: L2-Pf-HR :0.96754: L2-HR :0.89415: (Sim:1h54m0s) 
CPU  0 inst:  425000005 cyc:  596536513 now IPC :1.76023: AVG IPC :0.71028: L2-Pf-HR :0.96753: L2-HR :0.89440: (Sim:1h54m15s) 
CPU  0 inst:  426000005 cyc:  597123238 now IPC :1.70438: AVG IPC :0.71126: L2-Pf-HR :0.96752: L2-HR :0.89463: (Sim:1h54m31s) 
CPU  0 inst:  427000000 cyc:  597696256 now IPC :1.74514: AVG IPC :0.71225: L2-Pf-HR :0.96756: L2-HR :0.89489: (Sim:1h54m47s) 
CPU  0 inst:  428000002 cyc:  598268543 now IPC :1.74738: AVG IPC :0.71324: L2-Pf-HR :0.96760: L2-HR :0.89515: (Sim:1h55m2s) 
CPU  0 inst:  429000005 cyc:  598843637 now IPC :1.73885: AVG IPC :0.71423: L2-Pf-HR :0.96764: L2-HR :0.89540: (Sim:1h55m17s) 
CPU  0 inst:  430000000 cyc:  599444931 now IPC :1.66307: AVG IPC :0.71518: L2-Pf-HR :0.96767: L2-HR :0.89563: (Sim:1h55m33s) 
CPU  0 inst:  431000002 cyc:  600050988 now IPC :1.65001: AVG IPC :0.71613: L2-Pf-HR :0.96765: L2-HR :0.89585: (Sim:1h55m49s) 
CPU  0 inst:  432000000 cyc:  600656434 now IPC :1.65167: AVG IPC :0.71707: L2-Pf-HR :0.96764: L2-HR :0.89609: (Sim:1h56m4s) 
CPU  0 inst:  433000002 cyc:  601263621 now IPC :1.64694: AVG IPC :0.71801: L2-Pf-HR :0.96763: L2-HR :0.89631: (Sim:1h56m20s) 
CPU  0 inst:  434000002 cyc:  601873468 now IPC :1.63976: AVG IPC :0.71895: L2-Pf-HR :0.96761: L2-HR :0.89653: (Sim:1h56m32s) 
CPU  0 inst:  435000002 cyc:  602452614 now IPC :1.72668: AVG IPC :0.71992: L2-Pf-HR :0.96759: L2-HR :0.89675: (Sim:1h56m42s) 
CPU  0 inst:  436000003 cyc:  603016062 now IPC :1.77479: AVG IPC :0.72091: L2-Pf-HR :0.96758: L2-HR :0.89698: (Sim:1h56m52s) 
CPU  0 inst:  437000000 cyc:  603585305 now IPC :1.75671: AVG IPC :0.72189: L2-Pf-HR :0.96758: L2-HR :0.89722: (Sim:1h57m1s) 
CPU  0 inst:  438000002 cyc:  604154109 now IPC :1.75808: AVG IPC :0.72286: L2-Pf-HR :0.96757: L2-HR :0.89745: (Sim:1h57m12s) 
CPU  0 inst:  439000002 cyc:  604736895 now IPC :1.71590: AVG IPC :0.72382: L2-Pf-HR :0.96755: L2-HR :0.89766: (Sim:1h57m26s) 
CPU  0 inst:  440000000 cyc:  605297168 now IPC :1.78484: AVG IPC :0.72481: L2-Pf-HR :0.96754: L2-HR :0.89789: (Sim:1h57m36s) 
CPU  0 inst:  441000005 cyc:  605860926 now IPC :1.77382: AVG IPC :0.72578: L2-Pf-HR :0.96753: L2-HR :0.89811: (Sim:1h57m45s) 
CPU  0 inst:  442000004 cyc:  606430798 now IPC :1.75478: AVG IPC :0.72675: L2-Pf-HR :0.96751: L2-HR :0.89833: (Sim:1h57m54s) 
CPU  0 inst:  443000003 cyc:  607015350 now IPC :1.71071: AVG IPC :0.72770: L2-Pf-HR :0.96752: L2-HR :0.89854: (Sim:1h58m9s) 
CPU  0 inst:  444000002 cyc:  607589294 now IPC :1.74233: AVG IPC :0.72866: L2-Pf-HR :0.96756: L2-HR :0.89878: (Sim:1h58m24s) 
CPU  0 inst:  445000001 cyc:  608165134 now IPC :1.73659: AVG IPC :0.72962: L2-Pf-HR :0.96760: L2-HR :0.89900: (Sim:1h58m40s) 
CPU  0 inst:  446000002 cyc:  608744218 now IPC :1.72687: AVG IPC :0.73057: L2-Pf-HR :0.96763: L2-HR :0.89922: (Sim:1h58m55s) 
CPU  0 inst:  447000002 cyc:  609349429 now IPC :1.65232: AVG IPC :0.73148: L2-Pf-HR :0.96765: L2-HR :0.89943: (Sim:1h59m11s) 
CPU  0 inst:  448000000 cyc:  609959154 now IPC :1.64008: AVG IPC :0.73239: L2-Pf-HR :0.96763: L2-HR :0.89963: (Sim:1h59m26s) 
CPU  0 inst:  449000005 cyc:  610571666 now IPC :1.63263: AVG IPC :0.73330: L2-Pf-HR :0.96761: L2-HR :0.89982: (Sim:1h59m42s) 
CPU  0 inst:  450000000 cyc:  611180769 now IPC :1.64175: AVG IPC :0.73421: L2-Pf-HR :0.96760: L2-HR :0.90002: (Sim:1h59m58s) 
CPU  0 inst:  451000002 cyc:  611789468 now IPC :1.64285: AVG IPC :0.73511: L2-Pf-HR :0.96758: L2-HR :0.90021: (Sim:2h0m14s) 
CPU  0 inst:  452000001 cyc:  612360094 now IPC :1.75246: AVG IPC :0.73606: L2-Pf-HR :0.96757: L2-HR :0.90042: (Sim:2h0m29s) 
CPU  0 inst:  453000000 cyc:  612924978 now IPC :1.77027: AVG IPC :0.73701: L2-Pf-HR :0.96756: L2-HR :0.90062: (Sim:2h0m45s) 
CPU  0 inst:  454000004 cyc:  613496396 now IPC :1.75004: AVG IPC :0.73796: L2-Pf-HR :0.96755: L2-HR :0.90083: (Sim:2h1m1s) 
CPU  0 inst:  455000004 cyc:  614073881 now IPC :1.73165: AVG IPC :0.73890: L2-Pf-HR :0.96754: L2-HR :0.90104: (Sim:2h1m16s) 
CPU  0 inst:  456000000 cyc:  614644346 now IPC :1.75295: AVG IPC :0.73984: L2-Pf-HR :0.96752: L2-HR :0.90123: (Sim:2h1m32s) 
CPU  0 inst:  457000004 cyc:  615207215 now IPC :1.77662: AVG IPC :0.74079: L2-Pf-HR :0.96751: L2-HR :0.90144: (Sim:2h1m48s) 
CPU  0 inst:  458000001 cyc:  615774645 now IPC :1.76233: AVG IPC :0.74173: L2-Pf-HR :0.96750: L2-HR :0.90164: (Sim:2h2m4s) 
CPU  0 inst:  459000004 cyc:  616340076 now IPC :1.76857: AVG IPC :0.74268: L2-Pf-HR :0.96748: L2-HR :0.90184: (Sim:2h2m20s) 
CPU  0 inst:  460000004 cyc:  616929981 now IPC :1.69519: AVG IPC :0.74359: L2-Pf-HR :0.96751: L2-HR :0.90203: (Sim:2h2m36s) 
CPU  0 inst:  461000000 cyc:  617503677 now IPC :1.74308: AVG IPC :0.74452: L2-Pf-HR :0.96755: L2-HR :0.90223: (Sim:2h2m52s) 
CPU  0 inst:  462000001 cyc:  618080304 now IPC :1.73423: AVG IPC :0.74544: L2-Pf-HR :0.96759: L2-HR :0.90244: (Sim:2h3m8s) 
CPU  0 inst:  463000005 cyc:  618655745 now IPC :1.73780: AVG IPC :0.74637: L2-Pf-HR :0.96762: L2-HR :0.90264: (Sim:2h3m23s) 
CPU  0 inst:  464000000 cyc:  619276861 now IPC :1.61000: AVG IPC :0.74723: L2-Pf-HR :0.96761: L2-HR :0.90281: (Sim:2h3m39s) 
CPU  0 inst:  465000002 cyc:  619883467 now IPC :1.64852: AVG IPC :0.74812: L2-Pf-HR :0.96761: L2-HR :0.90299: (Sim:2h3m49s) 
CPU  0 inst:  466000002 cyc:  620488596 now IPC :1.65254: AVG IPC :0.74900: L2-Pf-HR :0.96760: L2-HR :0.90318: (Sim:2h4m1s) 
CPU  0 inst:  467000001 cyc:  621093314 now IPC :1.65366: AVG IPC :0.74988: L2-Pf-HR :0.96759: L2-HR :0.90336: (Sim:2h4m10s) 
CPU  0 inst:  468000002 cyc:  621696688 now IPC :1.65735: AVG IPC :0.75077: L2-Pf-HR :0.96756: L2-HR :0.90352: (Sim:2h4m19s) 
CPU  0 inst:  469000001 cyc:  622261155 now IPC :1.77158: AVG IPC :0.75169: L2-Pf-HR :0.96755: L2-HR :0.90371: (Sim:2h4m30s) 
CPU  0 inst:  470000003 cyc:  622825909 now IPC :1.77069: AVG IPC :0.75262: L2-Pf-HR :0.96754: L2-HR :0.90390: (Sim:2h4m45s) 
CPU  0 inst:  471000000 cyc:  623399612 now IPC :1.74306: AVG IPC :0.75353: L2-Pf-HR :0.96754: L2-HR :0.90409: (Sim:2h5m0s) 
CPU  0 inst:  472000000 cyc:  623987799 now IPC :1.70014: AVG IPC :0.75443: L2-Pf-HR :0.96751: L2-HR :0.90426: (Sim:2h5m16s) 
CPU  0 inst:  473000001 cyc:  624551181 now IPC :1.77500: AVG IPC :0.75535: L2-Pf-HR :0.96751: L2-HR :0.90445: (Sim:2h5m32s) 
CPU  0 inst:  474000001 cyc:  625111973 now IPC :1.78319: AVG IPC :0.75627: L2-Pf-HR :0.96750: L2-HR :0.90463: (Sim:2h5m47s) 
CPU  0 inst:  475000004 cyc:  625679084 now IPC :1.76333: AVG IPC :0.75719: L2-Pf-HR :0.96749: L2-HR :0.90482: (Sim:2h6m3s) 
CPU  0 inst:  476000001 cyc:  626264174 now IPC :1.70913: AVG IPC :0.75808: L2-Pf-HR :0.96748: L2-HR :0.90498: (Sim:2h6m19s) 
CPU  0 inst:  477000001 cyc:  626838978 now IPC :1.73972: AVG IPC :0.75898: L2-Pf-HR :0.96751: L2-HR :0.90517: (Sim:2h6m34s) 
CPU  0 inst:  478000004 cyc:  627410107 now IPC :1.75092: AVG IPC :0.75988: L2-Pf-HR :0.96755: L2-HR :0.90535: (Sim:2h6m50s) 
CPU  0 inst:  479000004 cyc:  627988508 now IPC :1.72890: AVG IPC :0.76078: L2-Pf-HR :0.96758: L2-HR :0.90554: (Sim:2h7m6s) 
CPU  0 inst:  480000000 cyc:  628568553 now IPC :1.72400: AVG IPC :0.76167: L2-Pf-HR :0.96761: L2-HR :0.90572: (Sim:2h7m21s) 
CPU  0 inst:  481000004 cyc:  629189617 now IPC :1.61015: AVG IPC :0.76250: L2-Pf-HR :0.96759: L2-HR :0.90587: (Sim:2h7m37s) 
CPU  0 inst:  482000005 cyc:  629799924 now IPC :1.63852: AVG IPC :0.76336: L2-Pf-HR :0.96758: L2-HR :0.90603: (Sim:2h7m53s) 
CPU  0 inst:  483000003 cyc:  630414305 now IPC :1.62765: AVG IPC :0.76420: L2-Pf-HR :0.96756: L2-HR :0.90619: (Sim:2h8m10s) 
CPU  0 inst:  484000004 cyc:  631023437 now IPC :1.64168: AVG IPC :0.76505: L2-Pf-HR :0.96754: L2-HR :0.90634: (Sim:2h8m25s) 
CPU  0 inst:  485000001 cyc:  631605033 now IPC :1.71940: AVG IPC :0.76593: L2-Pf-HR :0.96754: L2-HR :0.90651: (Sim:2h8m42s) 
CPU  0 inst:  486000005 cyc:  632172575 now IPC :1.76199: AVG IPC :0.76682: L2-Pf-HR :0.96752: L2-HR :0.90668: (Sim:2h8m58s) 
CPU  0 inst:  487000005 cyc:  632742561 now IPC :1.75443: AVG IPC :0.76771: L2-Pf-HR :0.96751: L2-HR :0.90684: (Sim:2h9m14s) 
CPU  0 inst:  488000000 cyc:  633310160 now IPC :1.76180: AVG IPC :0.76861: L2-Pf-HR :0.96750: L2-HR :0.90702: (Sim:2h9m30s) 
CPU  0 inst:  489000003 cyc:  633895171 now IPC :1.70937: AVG IPC :0.76948: L2-Pf-HR :0.96749: L2-HR :0.90717: (Sim:2h9m46s) 
CPU  0 inst:  490000001 cyc:  634457153 now IPC :1.77941: AVG IPC :0.77037: L2-Pf-HR :0.96747: L2-HR :0.90734: (Sim:2h10m2s) 
CPU  0 inst:  491000003 cyc:  635021964 now IPC :1.77051: AVG IPC :0.77126: L2-Pf-HR :0.96747: L2-HR :0.90750: (Sim:2h10m18s) 
CPU  0 inst:  492000001 cyc:  635589276 now IPC :1.76269: AVG IPC :0.77215: L2-Pf-HR :0.96746: L2-HR :0.90767: (Sim:2h10m34s) 
CPU  0 inst:  493000004 cyc:  636178045 now IPC :1.69846: AVG IPC :0.77301: L2-Pf-HR :0.96746: L2-HR :0.90782: (Sim:2h10m50s) 
Finished CPU 0 instr: 491000002 cyc: 635181059 AVG IPC: 0.77301 (Sim time: 2h10m50s)

ChampSim completed all CPUs

[ROI Statistics]
Core_0_instructions 491000002
Core_0_cycles 635181059
Core_0_IPC 0.77301

Core_0_branch_prediction_accuracy 99.58586
Core_0_branch_MPKI 0.12051
Core_0_average_ROB_occupancy_at_mispredict 471.41882

Core_0_L1D_total_access 135358261
Core_0_L1D_total_hit 116041054 L1D_total_Hit Ratio: 0.85729
Core_0_L1D_total_miss 19317207
Core_0_L1D_loads 122556296
Core_0_L1D_load_hit 104140521 L1D_load_Hit Ratio: 0.84974
Core_0_L1D_load_miss 18415775
Core_0_L1D_RFOs 12801965
Core_0_L1D_RFO_hit 11900533 L1D_RFO_Hit Ratio: 0.92959
Core_0_L1D_RFO_miss 901432
Core_0_L1D_prefetches 0
Core_0_L1D_prefetch_hit 0 L1D_prefetch_Hit Ratio: -nan
Core_0_L1D_prefetch_miss 0
Core_0_L1D_writebacks 0
Core_0_L1D_writeback_hit 0 L1D_writeback_Hit Ratio: -nan
Core_0_L1D_writeback_miss 0
Core_0_L1D_prefetch_requested 0
Core_0_L1D_prefetch_issued 0
Core_0_L1D_prefetch_useful 0 L1D_Useful Ratio: -nan
Core_0_L1D_prefetch_useless 0
Core_0_L1D_prefetch_late 0
Core_0_L1D_average_miss_latency 54.53205

Core_0_L1I_total_access 73183711
Core_0_L1I_total_hit 73178736 L1I_total_Hit Ratio: 0.99993
Core_0_L1I_total_miss 4975
Core_0_L1I_loads 73183711
Core_0_L1I_load_hit 73178736 L1I_load_Hit Ratio: 0.99993
Core_0_L1I_load_miss 4975
Core_0_L1I_RFOs 0
Core_0_L1I_RFO_hit 0 L1I_RFO_Hit Ratio: -nan
Core_0_L1I_RFO_miss 0
Core_0_L1I_prefetches 0
Core_0_L1I_prefetch_hit 0 L1I_prefetch_Hit Ratio: -nan
Core_0_L1I_prefetch_miss 0
Core_0_L1I_writebacks 0
Core_0_L1I_writeback_hit 0 L1I_writeback_Hit Ratio: -nan
Core_0_L1I_writeback_miss 0
Core_0_L1I_prefetch_requested 0
Core_0_L1I_prefetch_issued 0
Core_0_L1I_prefetch_useful 0 L1I_Useful Ratio: -nan
Core_0_L1I_prefetch_useless 0
Core_0_L1I_prefetch_late 0
Core_0_L1I_average_miss_latency 319.82553

Core_0_L2C_total_access 51183601
Core_0_L2C_total_hit 46465430 L2C_total_Hit Ratio: 0.90782
Core_0_L2C_total_miss 4718171
Core_0_L2C_loads 18420747
Core_0_L2C_load_hit 15433236 L2C_load_Hit Ratio: 0.83782
Core_0_L2C_load_miss 2987511
Core_0_L2C_RFOs 901432
Core_0_L2C_RFO_hit 114236 L2C_RFO_Hit Ratio: 0.12673
Core_0_L2C_RFO_miss 787196
Core_0_L2C_prefetches 28947591
Core_0_L2C_prefetch_hit 28005683 L2C_prefetch_Hit Ratio: 0.96746
Core_0_L2C_prefetch_miss 941908
Core_0_L2C_writebacks 2913831
Core_0_L2C_writeback_hit 2912275 L2C_writeback_Hit Ratio: 0.99947
Core_0_L2C_writeback_miss 1556
Core_0_L2C_prefetch_requested 69012632
Core_0_L2C_prefetch_issued 63548626
Core_0_L2C_prefetch_useful 830318 L2C_Useful Ratio: 0.01307
Core_0_L2C_prefetch_useless 113562
Core_0_L2C_prefetch_late 501637
Core_0_L2C_average_miss_latency 176.96886

Core_0_LLC_total_access 20906329
Core_0_LLC_total_hit 16400701 LLC_total_Hit Ratio: 0.78448
Core_0_LLC_total_miss 4505628
Core_0_LLC_loads 2485926
Core_0_LLC_load_hit 1584565 LLC_load_Hit Ratio: 0.63741
Core_0_LLC_load_miss 901361
Core_0_LLC_RFOs 787195
Core_0_LLC_RFO_hit 440 LLC_RFO_Hit Ratio: 0.00056
Core_0_LLC_RFO_miss 786755
Core_0_LLC_prefetches 14899404
Core_0_LLC_prefetch_hit 12135109 LLC_prefetch_Hit Ratio: 0.81447
Core_0_LLC_prefetch_miss 2764295
Core_0_LLC_writebacks 2733804
Core_0_LLC_writeback_hit 2680587 LLC_writeback_Hit Ratio: 0.98053
Core_0_LLC_writeback_miss 53217
Core_0_LLC_prefetch_requested 0
Core_0_LLC_prefetch_issued 0
Core_0_LLC_prefetch_useful 1254569 LLC_Useful Ratio: inf
Core_0_LLC_prefetch_useless 1496265
Core_0_LLC_prefetch_late 405212
Core_0_LLC_average_miss_latency 282.47266

Core_0_major_page_fault 0
Core_0_minor_page_fault 28665

 All Calls: 18464763
 Critical Calls: 18464763
------------------
Depth Distribution
------------------
depth 0: 0
depth 1: 11830228
depth 2: 10977818
depth 3: 9849419
depth 4: 8357063
depth 5: 6480624
depth 6: 4183783
depth 7: 2925504
depth 8: 2495947
depth 9: 2081212
depth 10: 1751780
depth 11: 1250824
depth 12: 821254
depth 13: 393557
depth 14: 75685
depth 15: 73689
depth 16: 239
depth 17: 0
depth 18: 0
depth 19: 0
depth 20: 0
depth 21: 0
depth 22: 0
depth 23: 0
depth 24: 0
depth 25: 0
depth 26: 0
depth 27: 0
depth 28: 0
depth 29: 0
Total: 63548626
-----------------------------
-----------------------------
	Captured at Filter
-----------------------------
depth 0: 0
depth 1: 5423059
depth 2: 4965178
depth 3: 4465348
depth 4: 3731931
depth 5: 2474697
depth 6: 985253
depth 7: 326056
depth 8: 214773
depth 9: 169889
depth 10: 133888
depth 11: 86570
depth 12: 50197
depth 13: 17329
depth 14: 358
depth 15: 378
depth 16: 0
depth 17: 0
depth 18: 0
depth 19: 0
depth 20: 0
depth 21: 0
depth 22: 0
depth 23: 0
depth 24: 0
depth 25: 0
depth 26: 0
depth 27: 0
depth 28: 0
depth 29: 0
-----------------------------
-----------------------------
		Lost at Page
-----------------------------
depth 0: 0
depth 1: 943574
depth 2: 1553502
depth 3: 2130899
depth 4: 2678280
depth 5: 2978563
depth 6: 2356777
depth 7: 1149111
depth 8: 752835
depth 9: 413714
depth 10: 371426
depth 11: 298957
depth 12: 221621
depth 13: 113537
depth 14: 21277
depth 15: 22754
depth 16: 17
depth 17: 0
depth 18: 0
depth 19: 0
depth 20: 0
depth 21: 0
depth 22: 0
depth 23: 0
depth 24: 0
depth 25: 0
depth 26: 0
depth 27: 0
depth 28: 0
depth 29: 0
-----------------------------
-----------------------------
	Lost due to PQ Size
-----------------------------
5464006
-----------------------------
ST read accesses: 17777879
ST write accesses: 642868
PT read accesses: 643922972
PT write accesses: 25922518
FILTER read accesses: 114970393
FILTER write accesses: 16230337
GHR read accesses: 101697097
GHR write accesses: 15990350
GHR counter read accesses: 538245874
GHR counter write accesses: 30252513
ST tag read accesses: 7408707127
ST tag write accesses: 243723696
Channel_0_RQ_row_buffer_hit 2329856
Channel_0_RQ_row_buffer_miss 2122486
Channel_0_WQ_row_buffer_hit 763388
Channel_0_WQ_row_buffer_miss 1700976
Channel_0_WQ_full 332
Channel_0_dbus_congested 3284762

avg_congested_cycle 8

EzSearch AVG IPC :0.77301: L2-Pf-HR :0.96746 : L2-HR :0.90782 Uful:0.01307
     > Finished combination: TraceType=770-tot Sim:491000000 Prefetcher=L2spp_berti_src L1=no
