TRACE: [21000000]_FE_[Pythia-70M]_[h8]_[s256]_[d64] Warmup: 2000000 NumTraces: 21000000
L1:bingo_dpc3:L2:bingo_dpc3
*************************************************
   ChampSim Multicore Out-of-Order Simulator
   Last compiled: Oct 31 2024 11:21:21
*************************************************

trace_0 770-tot_memTraces_v5/150-subBillion_s256_LLM_Arch/memTraces[21000000]_FE_[Pythia-70M]_[h8]_[s256]_[d64].champsim.9.xz
Bingo PHT WAYS: 16 and PHT_SIZE: 16384
Bingo2 PHT WAYS: 16 and PHT_SIZE: 16384
MAIN.cc ln 751 stats print skipped
CPU  0 inst:    1000001 cyc:     506364 now IPC :1.97487: AVG IPC :1.97487: L2-Pf-HR :0.79550: L2-HR :0.67009: (Sim:0h0m14s) 
CPU  0 inst:    2000003 cyc:     998937 now IPC :2.03016: AVG IPC :2.00213: L2-Pf-HR :0.79611: L2-HR :0.74648: (Sim:0h0m29s) 

Warmup complete CPU  0 instructions:    2000003 cycles:     998937 (Simulation time: 0 hr 0 min 29 sec) 

CPU  0 inst:    3000001 cyc:    1581573 now IPC :1.71633: AVG IPC :1.71633: L2-Pf-HR :0.79707: L2-HR :0.81062: (Sim:0h0m42s) 
CPU  0 inst:    4000001 cyc:    2127847 now IPC :1.83058: AVG IPC :1.77162: L2-Pf-HR :0.80092: L2-HR :0.82102: (Sim:0h0m54s) 
CPU  0 inst:    5000000 cyc:    2694075 now IPC :1.76607: AVG IPC :1.76977: L2-Pf-HR :0.80162: L2-HR :0.82287: (Sim:0h1m7s) 
CPU  0 inst:    6000005 cyc:    3263623 now IPC :1.75579: AVG IPC :1.76625: L2-Pf-HR :0.79656: L2-HR :0.82043: (Sim:0h1m20s) 
CPU  0 inst:    7000004 cyc:    3826645 now IPC :1.77613: AVG IPC :1.76822: L2-Pf-HR :0.79451: L2-HR :0.81971: (Sim:0h1m32s) 
CPU  0 inst:    8000000 cyc:    4404426 now IPC :1.73075: AVG IPC :1.76186: L2-Pf-HR :0.79626: L2-HR :0.82069: (Sim:0h1m41s) 
CPU  0 inst:    9000000 cyc:    5550716 now IPC :0.87238: AVG IPC :1.53786: L2-Pf-HR :0.73365: L2-HR :0.74150: (Sim:0h1m52s) 
CPU  0 inst:   10000000 cyc:    8960035 now IPC :0.29331: AVG IPC :1.00489: L2-Pf-HR :0.66563: L2-HR :0.71050: (Sim:0h2m6s) 
CPU  0 inst:   11000000 cyc:   12375057 now IPC :0.29282: AVG IPC :0.79113: L2-Pf-HR :0.61154: L2-HR :0.68489: (Sim:0h2m18s) 
CPU  0 inst:   12000000 cyc:   15796956 now IPC :0.29224: AVG IPC :0.67577: L2-Pf-HR :0.56525: L2-HR :0.66230: (Sim:0h2m30s) 
CPU  0 inst:   13000000 cyc:   19221988 now IPC :0.29197: AVG IPC :0.60363: L2-Pf-HR :0.52472: L2-HR :0.64209: (Sim:0h2m48s) 
CPU  0 inst:   14000002 cyc:   20084786 now IPC :1.15902: AVG IPC :0.62874: L2-Pf-HR :0.56326: L2-HR :0.67810: (Sim:0h3m2s) 
CPU  0 inst:   15000005 cyc:   20727002 now IPC :1.55711: AVG IPC :0.65896: L2-Pf-HR :0.59793: L2-HR :0.70987: (Sim:0h3m17s) 
CPU  0 inst:   16000000 cyc:   21342809 now IPC :1.62388: AVG IPC :0.68817: L2-Pf-HR :0.62546: L2-HR :0.73450: (Sim:0h3m31s) 
CPU  0 inst:   17000000 cyc:   21939368 now IPC :1.67628: AVG IPC :0.71632: L2-Pf-HR :0.64831: L2-HR :0.75430: (Sim:0h3m46s) 
CPU  0 inst:   18000002 cyc:   22536953 now IPC :1.67341: AVG IPC :0.74287: L2-Pf-HR :0.66815: L2-HR :0.77101: (Sim:0h3m58s) 
Finished CPU 0 instr: 16000005 cyc: 21538017 AVG IPC: 0.74287 (Sim time: 0h3m58s)

ChampSim completed all CPUs

[ROI Statistics]
Core_0_instructions 16000005
Core_0_cycles 21538017
Core_0_IPC 0.74287

Core_0_branch_prediction_accuracy 98.24557
Core_0_branch_MPKI 0.63131
Core_0_average_ROB_occupancy_at_mispredict 287.19503

Core_0_L1D_total_access 4886605
Core_0_L1D_total_hit 4324600 L1D_total_Hit Ratio: 0.88499
Core_0_L1D_total_miss 562005
Core_0_L1D_loads 4007669
Core_0_L1D_load_hit 3714510 L1D_load_Hit Ratio: 0.92685
Core_0_L1D_load_miss 293159
Core_0_L1D_RFOs 567211
Core_0_L1D_RFO_hit 564447 L1D_RFO_Hit Ratio: 0.99513
Core_0_L1D_RFO_miss 2764
Core_0_L1D_prefetches 311725
Core_0_L1D_prefetch_hit 45643 L1D_prefetch_Hit Ratio: 0.14642
Core_0_L1D_prefetch_miss 266082
Core_0_L1D_writebacks 0
Core_0_L1D_writeback_hit 0 L1D_writeback_Hit Ratio: -nan
Core_0_L1D_writeback_miss 0
Core_0_L1D_prefetch_requested 510146
Core_0_L1D_prefetch_issued 510146
Core_0_L1D_prefetch_useful 289148 L1D_Useful Ratio: 0.56679
Core_0_L1D_prefetch_useless 4583
Core_0_L1D_prefetch_late 45696
Core_0_L1D_average_miss_latency 991263.60683

Core_0_L1I_total_access 2339079
Core_0_L1I_total_hit 2334373 L1I_total_Hit Ratio: 0.99799
Core_0_L1I_total_miss 4706
Core_0_L1I_loads 2339079
Core_0_L1I_load_hit 2334373 L1I_load_Hit Ratio: 0.99799
Core_0_L1I_load_miss 4706
Core_0_L1I_RFOs 0
Core_0_L1I_RFO_hit 0 L1I_RFO_Hit Ratio: -nan
Core_0_L1I_RFO_miss 0
Core_0_L1I_prefetches 0
Core_0_L1I_prefetch_hit 0 L1I_prefetch_Hit Ratio: -nan
Core_0_L1I_prefetch_miss 0
Core_0_L1I_writebacks 0
Core_0_L1I_writeback_hit 0 L1I_writeback_Hit Ratio: -nan
Core_0_L1I_writeback_miss 0
Core_0_L1I_prefetch_requested 0
Core_0_L1I_prefetch_issued 0
Core_0_L1I_prefetch_useful 0 L1I_Useful Ratio: -nan
Core_0_L1I_prefetch_useless 0
Core_0_L1I_prefetch_late 0
Core_0_L1I_average_miss_latency 183.53145

Core_0_L2C_total_access 747903
Core_0_L2C_total_hit 576640 L2C_total_Hit Ratio: 0.77101
Core_0_L2C_total_miss 171263
Core_0_L2C_loads 253213
Core_0_L2C_load_hit 210614 L2C_load_Hit Ratio: 0.83177
Core_0_L2C_load_miss 42599
Core_0_L2C_RFOs 2759
Core_0_L2C_RFO_hit 134 L2C_RFO_Hit Ratio: 0.04857
Core_0_L2C_RFO_miss 2625
Core_0_L2C_prefetches 379788
Core_0_L2C_prefetch_hit 253754 L2C_prefetch_Hit Ratio: 0.66815
Core_0_L2C_prefetch_miss 126034
Core_0_L2C_writebacks 112143
Core_0_L2C_writeback_hit 112138 L2C_writeback_Hit Ratio: 0.99996
Core_0_L2C_writeback_miss 5
Core_0_L2C_prefetch_requested 112552
Core_0_L2C_prefetch_issued 112552
Core_0_L2C_prefetch_useful 33755 L2C_Useful Ratio: 0.29991
Core_0_L2C_prefetch_useless 91411
Core_0_L2C_prefetch_late 14056
Core_0_L2C_average_miss_latency 215.90364

Core_0_LLC_total_access 272962
Core_0_LLC_total_hit 147649 LLC_total_Hit Ratio: 0.54091
Core_0_LLC_total_miss 125313
Core_0_LLC_loads 28577
Core_0_LLC_load_hit 8988 LLC_load_Hit Ratio: 0.31452
Core_0_LLC_load_miss 19589
Core_0_LLC_RFOs 2625
Core_0_LLC_RFO_hit 11 LLC_RFO_Hit Ratio: 0.00419
Core_0_LLC_RFO_miss 2614
Core_0_LLC_prefetches 140057
Core_0_LLC_prefetch_hit 37674 LLC_prefetch_Hit Ratio: 0.26899
Core_0_LLC_prefetch_miss 102383
Core_0_LLC_writebacks 101703
Core_0_LLC_writeback_hit 100976 LLC_writeback_Hit Ratio: 0.99285
Core_0_LLC_writeback_miss 727
Core_0_LLC_prefetch_requested 0
Core_0_LLC_prefetch_issued 0
Core_0_LLC_prefetch_useful 4599 LLC_Useful Ratio: inf
Core_0_LLC_prefetch_useless 63162
Core_0_LLC_prefetch_late 0
Core_0_LLC_average_miss_latency 230.85134

Core_0_major_page_fault 0
Core_0_minor_page_fault 2382

[Bingo] PHT Access: 57775
[Bingo] PHT Hit PC+Addr: 28587
[Bingo] PHT Hit PC+Offs: 26877
[Bingo] PHT Miss: 2311
[Bingo] Prefetch PC+Addr: 0
[Bingo] Prefetch PC+Offs: 0
[Bingo] Useful PC+Addr: 0
[Bingo] Useful PC+Offs: 0
[Bingo] Useless PC+Addr: 0
[Bingo] Useless PC+Offs: 0
[Bingo] L1 Prefetch per Region: 10.45159
[Bingo] L2 Prefetch per Region: 0.48426
[Bingo] L3 Prefetch per Region: 0.00000
[Bingo] No Prefetch per Region: 21.06415
[Bingo] Number of Voters Mean: 13.42110
[Bingo] Number of Voters SD: 6.99722
PHT read accesses: 636201
PHT write accesses: 55209
AT read accesses: 3717240
AT write accesses: 3717242
FT read accesses: 848306
FT write accesses: 57775
PS read accesses: 334340
PS write accesses: 55464
PHT tag read accesses: 1976706
PHT tag write accesses: 83796
AT tag read accesses: 75864003
AT tag write accesses: 3772451
FT tag read accesses: 18132063
FT tag write accesses: 510748
PS tag read accesses: 66769087
PS tag write accesses: 387779
[Bingo2] PHT Access: 12074
[Bingo2] PHT Hit PC+Addr: 1370
[Bingo2] PHT Hit PC+Offs: 8838
[Bingo2] PHT Miss: 1866
[Bingo2] Prefetch PC+Addr: 0
[Bingo2] Prefetch PC+Offs: 0
[Bingo2] Useful PC+Addr: 0
[Bingo2] Useful PC+Offs: 0
[Bingo2] Useless PC+Addr: 0
[Bingo2] Useless PC+Offs: 0
[Bingo2] L1 Prefetch per Region: 0.00000
[Bingo2] L2 Prefetch per Region: 12.87177
[Bingo2] L3 Prefetch per Region: 0.00000
[Bingo2] No Prefetch per Region: 19.12823
[Bingo2] Number of Voters Mean: 15.15988
[Bingo2] Number of Voters SD: 5.75628
PHT read accesses: 142918
PHT write accesses: 9853
AT read accesses: 238942
AT write accesses: 248657
FT read accesses: 34345
FT write accesses: 12074
PS read accesses: 32230
PS write accesses: 10208
PHT tag read accesses: 468503
PHT tag write accesses: 11223
AT tag read accesses: 7192306
AT tag write accesses: 248795
FT tag read accesses: 3511171
FT tag write accesses: 34231
PS tag read accesses: 4402979
PS tag write accesses: 41891
Channel_0_RQ_row_buffer_hit 84203
Channel_0_RQ_row_buffer_miss 40360
Channel_0_WQ_row_buffer_hit 26591
Channel_0_WQ_row_buffer_miss 34068
Channel_0_WQ_full 0
Channel_0_dbus_congested 129531

avg_congested_cycle 8

EzSearch AVG IPC :0.74287: L2-Pf-HR :0.66815 : L2-HR :0.77101 Uful:0.29991
     > Finished combination: TraceType=770-tot Sim:16000000 Prefetcher=L2bingo_dpc3 L1=bingo_dpc3
