TRACE: [1319000000]_FE_[Pythia-70M]_[h8]_[s2048]_[d64] Warmup: 2000000 NumTraces: 1319000000
L1:isb_ideal:L2:isb_ideal
*************************************************
   ChampSim Multicore Out-of-Order Simulator
   Last compiled: Oct 31 2024 08:32:58
*************************************************

trace_0 770-tot_memTraces_v5/120-subBillion_s2048_LLM_Arch/memTraces[1319000000]_FE_[Pythia-70M]_[h8]_[s2048]_[d64].champsim.9SSize.xz
L1D: Ideal ISB Prefetching
Ideal ISB Prefetching
MAIN.cc ln 751 stats print skipped
CPU  0 inst:    1000002 cyc:     507738 now IPC :1.96952: AVG IPC :1.96952: L2-Pf-HR :0.99690: L2-HR :0.87267: (Sim:0h0m6s) 
CPU  0 inst:    2000000 cyc:     998016 now IPC :2.03965: AVG IPC :2.00398: L2-Pf-HR :0.99680: L2-HR :0.90318: (Sim:0h0m12s) 

Warmup complete CPU  0 instructions:    2000005 cycles:     998017 (Simulation time: 0 hr 0 min 12 sec) 

CPU  0 inst:    3000004 cyc:    1684189 now IPC :1.45736: AVG IPC :1.45736: L2-Pf-HR :0.99704: L2-HR :0.93333: (Sim:0h0m18s) 
CPU  0 inst:    4000002 cyc:    2371439 now IPC :1.45507: AVG IPC :1.45621: L2-Pf-HR :0.99701: L2-HR :0.93318: (Sim:0h0m24s) 
CPU  0 inst:    5000000 cyc:    3056848 now IPC :1.45898: AVG IPC :1.45714: L2-Pf-HR :0.99696: L2-HR :0.93311: (Sim:0h0m29s) 
CPU  0 inst:    6000001 cyc:    3744346 now IPC :1.45455: AVG IPC :1.45649: L2-Pf-HR :0.99696: L2-HR :0.93309: (Sim:0h0m35s) 
CPU  0 inst:    7000002 cyc:    4493006 now IPC :1.33572: AVG IPC :1.43062: L2-Pf-HR :0.99712: L2-HR :0.93315: (Sim:0h0m41s) 
CPU  0 inst:    8000000 cyc:    5211320 now IPC :1.39215: AVG IPC :1.42406: L2-Pf-HR :0.99714: L2-HR :0.93316: (Sim:0h0m47s) 
CPU  0 inst:    9000003 cyc:    5931201 now IPC :1.38912: AVG IPC :1.41896: L2-Pf-HR :0.99714: L2-HR :0.93317: (Sim:0h0m53s) 
CPU  0 inst:   10000002 cyc:    6655151 now IPC :1.38131: AVG IPC :1.41414: L2-Pf-HR :0.99713: L2-HR :0.93317: (Sim:0h0m59s) 
CPU  0 inst:   11000003 cyc:    7381354 now IPC :1.37703: AVG IPC :1.40992: L2-Pf-HR :0.99711: L2-HR :0.93315: (Sim:0h1m5s) 
CPU  0 inst:   12000001 cyc:    8113022 now IPC :1.36674: AVG IPC :1.40548: L2-Pf-HR :0.99711: L2-HR :0.93314: (Sim:0h1m11s) 
CPU  0 inst:   13000002 cyc:    8925307 now IPC :1.23110: AVG IPC :1.38761: L2-Pf-HR :0.99650: L2-HR :0.93260: (Sim:0h1m17s) 
CPU  0 inst:   14000003 cyc:    9653103 now IPC :1.37401: AVG IPC :1.38647: L2-Pf-HR :0.99590: L2-HR :0.93317: (Sim:0h1m23s) 
CPU  0 inst:   15000002 cyc:   10381691 now IPC :1.37252: AVG IPC :1.38538: L2-Pf-HR :0.99542: L2-HR :0.93363: (Sim:0h1m29s) 
CPU  0 inst:   16000000 cyc:   11109253 now IPC :1.37445: AVG IPC :1.38460: L2-Pf-HR :0.99500: L2-HR :0.93404: (Sim:0h1m35s) 
CPU  0 inst:   17000000 cyc:   11838497 now IPC :1.37128: AVG IPC :1.38370: L2-Pf-HR :0.99463: L2-HR :0.93439: (Sim:0h1m41s) 
CPU  0 inst:   18000000 cyc:   12567464 now IPC :1.37180: AVG IPC :1.38295: L2-Pf-HR :0.99430: L2-HR :0.93469: (Sim:0h1m47s) 
CPU  0 inst:   19000000 cyc:   13330868 now IPC :1.30992: AVG IPC :1.37843: L2-Pf-HR :0.99403: L2-HR :0.93494: (Sim:0h1m54s) 
CPU  0 inst:   20000001 cyc:   14056273 now IPC :1.37854: AVG IPC :1.37844: L2-Pf-HR :0.99378: L2-HR :0.93518: (Sim:0h2m0s) 
CPU  0 inst:   21000003 cyc:   14780724 now IPC :1.38036: AVG IPC :1.37854: L2-Pf-HR :0.99356: L2-HR :0.93540: (Sim:0h2m6s) 
CPU  0 inst:   22000004 cyc:   15506198 now IPC :1.37841: AVG IPC :1.37853: L2-Pf-HR :0.99336: L2-HR :0.93559: (Sim:0h2m12s) 
CPU  0 inst:   23000004 cyc:   16229800 now IPC :1.38198: AVG IPC :1.37870: L2-Pf-HR :0.99319: L2-HR :0.93578: (Sim:0h2m18s) 
CPU  0 inst:   24000000 cyc:   16954430 now IPC :1.38001: AVG IPC :1.37876: L2-Pf-HR :0.99302: L2-HR :0.93593: (Sim:0h2m24s) 
CPU  0 inst:   25000001 cyc:   17751902 now IPC :1.25396: AVG IPC :1.37282: L2-Pf-HR :0.99283: L2-HR :0.93559: (Sim:0h2m31s) 
CPU  0 inst:   26000004 cyc:   18470291 now IPC :1.39201: AVG IPC :1.37360: L2-Pf-HR :0.99271: L2-HR :0.93576: (Sim:0h2m37s) 
CPU  0 inst:   27000001 cyc:   19189164 now IPC :1.39106: AVG IPC :1.37429: L2-Pf-HR :0.99260: L2-HR :0.93591: (Sim:0h2m44s) 
CPU  0 inst:   28000005 cyc:   19908787 now IPC :1.38962: AVG IPC :1.37488: L2-Pf-HR :0.99250: L2-HR :0.93605: (Sim:0h2m50s) 
CPU  0 inst:   29000005 cyc:   20628577 now IPC :1.38929: AVG IPC :1.37541: L2-Pf-HR :0.99240: L2-HR :0.93618: (Sim:0h2m56s) 
CPU  0 inst:   30000005 cyc:   21349562 now IPC :1.38699: AVG IPC :1.37582: L2-Pf-HR :0.99229: L2-HR :0.93628: (Sim:0h3m2s) 
CPU  0 inst:   31000005 cyc:   22099922 now IPC :1.33269: AVG IPC :1.37428: L2-Pf-HR :0.99222: L2-HR :0.93639: (Sim:0h3m9s) 
CPU  0 inst:   32000000 cyc:   22812689 now IPC :1.40298: AVG IPC :1.37522: L2-Pf-HR :0.99213: L2-HR :0.93648: (Sim:0h3m15s) 
CPU  0 inst:   33000004 cyc:   23522927 now IPC :1.40798: AVG IPC :1.37625: L2-Pf-HR :0.99205: L2-HR :0.93658: (Sim:0h3m21s) 
CPU  0 inst:   34000002 cyc:   24234013 now IPC :1.40630: AVG IPC :1.37717: L2-Pf-HR :0.99197: L2-HR :0.93666: (Sim:0h3m28s) 
CPU  0 inst:   35000003 cyc:   24943514 now IPC :1.40944: AVG IPC :1.37813: L2-Pf-HR :0.99190: L2-HR :0.93675: (Sim:0h3m34s) 
CPU  0 inst:   36000003 cyc:   25653908 now IPC :1.40767: AVG IPC :1.37898: L2-Pf-HR :0.99183: L2-HR :0.93681: (Sim:0h3m40s) 
CPU  0 inst:   37000000 cyc:   26458216 now IPC :1.24330: AVG IPC :1.37469: L2-Pf-HR :0.99174: L2-HR :0.93657: (Sim:0h3m47s) 
CPU  0 inst:   38000003 cyc:   27183415 now IPC :1.37894: AVG IPC :1.37481: L2-Pf-HR :0.99168: L2-HR :0.93665: (Sim:0h3m53s) 
CPU  0 inst:   39000001 cyc:   27910473 now IPC :1.37540: AVG IPC :1.37483: L2-Pf-HR :0.99163: L2-HR :0.93672: (Sim:0h4m0s) 
CPU  0 inst:   40000000 cyc:   28636973 now IPC :1.37646: AVG IPC :1.37487: L2-Pf-HR :0.99158: L2-HR :0.93679: (Sim:0h4m6s) 
CPU  0 inst:   41000001 cyc:   29362379 now IPC :1.37854: AVG IPC :1.37496: L2-Pf-HR :0.99152: L2-HR :0.93685: (Sim:0h4m12s) 
CPU  0 inst:   42000001 cyc:   30089004 now IPC :1.37623: AVG IPC :1.37500: L2-Pf-HR :0.99146: L2-HR :0.93690: (Sim:0h4m18s) 
CPU  0 inst:   43000001 cyc:   30853636 now IPC :1.30782: AVG IPC :1.37328: L2-Pf-HR :0.99143: L2-HR :0.93696: (Sim:0h4m25s) 
CPU  0 inst:   44000005 cyc:   31579574 now IPC :1.37753: AVG IPC :1.37338: L2-Pf-HR :0.99139: L2-HR :0.93701: (Sim:0h4m31s) 
CPU  0 inst:   45000005 cyc:   32304266 now IPC :1.37990: AVG IPC :1.37353: L2-Pf-HR :0.99135: L2-HR :0.93707: (Sim:0h4m38s) 
CPU  0 inst:   46000005 cyc:   33029796 now IPC :1.37830: AVG IPC :1.37364: L2-Pf-HR :0.99131: L2-HR :0.93712: (Sim:0h4m44s) 
CPU  0 inst:   47000005 cyc:   33754531 now IPC :1.37981: AVG IPC :1.37377: L2-Pf-HR :0.99128: L2-HR :0.93717: (Sim:0h4m51s) 
CPU  0 inst:   48000000 cyc:   34477974 now IPC :1.38227: AVG IPC :1.37396: L2-Pf-HR :0.99123: L2-HR :0.93720: (Sim:0h4m58s) 
CPU  0 inst:   49000003 cyc:   35283470 now IPC :1.24147: AVG IPC :1.37084: L2-Pf-HR :0.99118: L2-HR :0.93702: (Sim:0h5m5s) 
CPU  0 inst:   50000000 cyc:   36010312 now IPC :1.37581: AVG IPC :1.37095: L2-Pf-HR :0.99115: L2-HR :0.93707: (Sim:0h5m11s) 
CPU  0 inst:   51000000 cyc:   36739317 now IPC :1.37173: AVG IPC :1.37096: L2-Pf-HR :0.99112: L2-HR :0.93712: (Sim:0h5m18s) 
CPU  0 inst:   52000000 cyc:   37467563 now IPC :1.37316: AVG IPC :1.37101: L2-Pf-HR :0.99110: L2-HR :0.93716: (Sim:0h5m24s) 
CPU  0 inst:   53000000 cyc:   38197233 now IPC :1.37048: AVG IPC :1.37100: L2-Pf-HR :0.99105: L2-HR :0.93719: (Sim:0h5m31s) 
CPU  0 inst:   54000003 cyc:   38928246 now IPC :1.36797: AVG IPC :1.37094: L2-Pf-HR :0.99102: L2-HR :0.93723: (Sim:0h5m37s) 
CPU  0 inst:   55000000 cyc:   39692606 now IPC :1.30828: AVG IPC :1.36970: L2-Pf-HR :0.99101: L2-HR :0.93727: (Sim:0h5m44s) 
CPU  0 inst:   56000000 cyc:   40418766 now IPC :1.37711: AVG IPC :1.36984: L2-Pf-HR :0.99098: L2-HR :0.93731: (Sim:0h5m50s) 
CPU  0 inst:   57000004 cyc:   41144039 now IPC :1.37880: AVG IPC :1.37000: L2-Pf-HR :0.99096: L2-HR :0.93734: (Sim:0h5m57s) 
CPU  0 inst:   58000004 cyc:   41870128 now IPC :1.37724: AVG IPC :1.37013: L2-Pf-HR :0.99093: L2-HR :0.93738: (Sim:0h6m4s) 
CPU  0 inst:   59000004 cyc:   42595456 now IPC :1.37869: AVG IPC :1.37028: L2-Pf-HR :0.99091: L2-HR :0.93740: (Sim:0h6m10s) 
CPU  0 inst:   60000000 cyc:   43321114 now IPC :1.37805: AVG IPC :1.37041: L2-Pf-HR :0.99087: L2-HR :0.93743: (Sim:0h6m17s) 
CPU  0 inst:   61000003 cyc:   44073075 now IPC :1.32986: AVG IPC :1.36970: L2-Pf-HR :0.99061: L2-HR :0.93687: (Sim:0h6m23s) 
CPU  0 inst:   62000000 cyc:   44791020 now IPC :1.39286: AVG IPC :1.37008: L2-Pf-HR :0.99026: L2-HR :0.93615: (Sim:0h6m30s) 
CPU  0 inst:   63000005 cyc:   45521178 now IPC :1.36957: AVG IPC :1.37007: L2-Pf-HR :0.98991: L2-HR :0.93541: (Sim:0h6m36s) 
CPU  0 inst:   64000000 cyc:   46236766 now IPC :1.39745: AVG IPC :1.37051: L2-Pf-HR :0.98958: L2-HR :0.93469: (Sim:0h6m43s) 
CPU  0 inst:   65000005 cyc:   47075362 now IPC :1.19248: AVG IPC :1.36727: L2-Pf-HR :0.98938: L2-HR :0.93411: (Sim:0h6m50s) 
CPU  0 inst:   66000005 cyc:   47812083 now IPC :1.35737: AVG IPC :1.36711: L2-Pf-HR :0.98938: L2-HR :0.93407: (Sim:0h6m57s) 
CPU  0 inst:   67000000 cyc:   48548600 now IPC :1.35774: AVG IPC :1.36697: L2-Pf-HR :0.98939: L2-HR :0.93402: (Sim:0h7m4s) 
CPU  0 inst:   68000002 cyc:   49288787 now IPC :1.35101: AVG IPC :1.36672: L2-Pf-HR :0.98938: L2-HR :0.93398: (Sim:0h7m11s) 
CPU  0 inst:   69000000 cyc:   50028453 now IPC :1.35196: AVG IPC :1.36650: L2-Pf-HR :0.98938: L2-HR :0.93393: (Sim:0h7m17s) 
CPU  0 inst:   70000001 cyc:   50766659 now IPC :1.35464: AVG IPC :1.36632: L2-Pf-HR :0.98938: L2-HR :0.93389: (Sim:0h7m24s) 
CPU  0 inst:   71000005 cyc:   51543751 now IPC :1.28685: AVG IPC :1.36510: L2-Pf-HR :0.98939: L2-HR :0.93385: (Sim:0h7m31s) 
CPU  0 inst:   72000000 cyc:   52288684 now IPC :1.34240: AVG IPC :1.36477: L2-Pf-HR :0.98939: L2-HR :0.93381: (Sim:0h7m38s) 
CPU  0 inst:   73000001 cyc:   53032696 now IPC :1.34407: AVG IPC :1.36447: L2-Pf-HR :0.98938: L2-HR :0.93376: (Sim:0h7m45s) 
CPU  0 inst:   74000001 cyc:   53777270 now IPC :1.34305: AVG IPC :1.36417: L2-Pf-HR :0.98939: L2-HR :0.93373: (Sim:0h7m52s) 
CPU  0 inst:   75000005 cyc:   54524076 now IPC :1.33904: AVG IPC :1.36382: L2-Pf-HR :0.98938: L2-HR :0.93368: (Sim:0h7m59s) 
CPU  0 inst:   76000001 cyc:   55270812 now IPC :1.33916: AVG IPC :1.36348: L2-Pf-HR :0.98938: L2-HR :0.93364: (Sim:0h8m6s) 
CPU  0 inst:   77000000 cyc:   56082831 now IPC :1.23150: AVG IPC :1.36154: L2-Pf-HR :0.98936: L2-HR :0.93351: (Sim:0h8m13s) 
CPU  0 inst:   78000001 cyc:   56810713 now IPC :1.37385: AVG IPC :1.36170: L2-Pf-HR :0.98936: L2-HR :0.93356: (Sim:0h8m20s) 
CPU  0 inst:   79000001 cyc:   57536596 now IPC :1.37763: AVG IPC :1.36190: L2-Pf-HR :0.98936: L2-HR :0.93360: (Sim:0h8m27s) 
CPU  0 inst:   80000000 cyc:   58263770 now IPC :1.37519: AVG IPC :1.36207: L2-Pf-HR :0.98936: L2-HR :0.93365: (Sim:0h8m34s) 
CPU  0 inst:   81000001 cyc:   58990111 now IPC :1.37677: AVG IPC :1.36225: L2-Pf-HR :0.98937: L2-HR :0.93369: (Sim:0h8m41s) 
CPU  0 inst:   82000000 cyc:   59716522 now IPC :1.37663: AVG IPC :1.36243: L2-Pf-HR :0.98936: L2-HR :0.93373: (Sim:0h8m48s) 
CPU  0 inst:   83000000 cyc:   60474421 now IPC :1.31944: AVG IPC :1.36188: L2-Pf-HR :0.98936: L2-HR :0.93377: (Sim:0h8m55s) 
CPU  0 inst:   84000005 cyc:   61187581 now IPC :1.40222: AVG IPC :1.36236: L2-Pf-HR :0.98937: L2-HR :0.93381: (Sim:0h9m1s) 
CPU  0 inst:   85000005 cyc:   61901947 now IPC :1.39984: AVG IPC :1.36280: L2-Pf-HR :0.98937: L2-HR :0.93385: (Sim:0h9m8s) 
CPU  0 inst:   86000005 cyc:   62613521 now IPC :1.40534: AVG IPC :1.36329: L2-Pf-HR :0.98937: L2-HR :0.93388: (Sim:0h9m15s) 
CPU  0 inst:   87000005 cyc:   63325535 now IPC :1.40447: AVG IPC :1.36376: L2-Pf-HR :0.98937: L2-HR :0.93392: (Sim:0h9m22s) 
CPU  0 inst:   88000000 cyc:   64039794 now IPC :1.40005: AVG IPC :1.36417: L2-Pf-HR :0.98936: L2-HR :0.93395: (Sim:0h9m29s) 
CPU  0 inst:   89000003 cyc:   64838407 now IPC :1.25217: AVG IPC :1.36277: L2-Pf-HR :0.98935: L2-HR :0.93386: (Sim:0h9m36s) 
CPU  0 inst:   90000000 cyc:   65560372 now IPC :1.38510: AVG IPC :1.36302: L2-Pf-HR :0.98935: L2-HR :0.93389: (Sim:0h9m43s) 
CPU  0 inst:   91000000 cyc:   66281241 now IPC :1.38721: AVG IPC :1.36329: L2-Pf-HR :0.98935: L2-HR :0.93393: (Sim:0h9m50s) 
CPU  0 inst:   92000000 cyc:   67003714 now IPC :1.38413: AVG IPC :1.36352: L2-Pf-HR :0.98935: L2-HR :0.93396: (Sim:0h9m57s) 
CPU  0 inst:   93000001 cyc:   67725753 now IPC :1.38497: AVG IPC :1.36375: L2-Pf-HR :0.98935: L2-HR :0.93399: (Sim:0h10m4s) 
CPU  0 inst:   94000005 cyc:   68446682 now IPC :1.38710: AVG IPC :1.36400: L2-Pf-HR :0.98935: L2-HR :0.93402: (Sim:0h10m11s) 
CPU  0 inst:   95000004 cyc:   69211482 now IPC :1.30753: AVG IPC :1.36337: L2-Pf-HR :0.98936: L2-HR :0.93405: (Sim:0h10m18s) 
CPU  0 inst:   96000000 cyc:   69936340 now IPC :1.37958: AVG IPC :1.36354: L2-Pf-HR :0.98936: L2-HR :0.93408: (Sim:0h10m24s) 
CPU  0 inst:   97000004 cyc:   70663305 now IPC :1.37559: AVG IPC :1.36366: L2-Pf-HR :0.98936: L2-HR :0.93412: (Sim:0h10m31s) 
CPU  0 inst:   98000004 cyc:   71390836 now IPC :1.37451: AVG IPC :1.36378: L2-Pf-HR :0.98936: L2-HR :0.93415: (Sim:0h10m38s) 
CPU  0 inst:   99000003 cyc:   72117608 now IPC :1.37595: AVG IPC :1.36390: L2-Pf-HR :0.98936: L2-HR :0.93417: (Sim:0h10m45s) 
CPU  0 inst:  100000001 cyc:   72843316 now IPC :1.37796: AVG IPC :1.36404: L2-Pf-HR :0.98935: L2-HR :0.93420: (Sim:0h10m52s) 
CPU  0 inst:  101000002 cyc:   73645124 now IPC :1.24718: AVG IPC :1.36275: L2-Pf-HR :0.98935: L2-HR :0.93412: (Sim:0h11m0s) 
CPU  0 inst:  102000002 cyc:   74373735 now IPC :1.37247: AVG IPC :1.36285: L2-Pf-HR :0.98935: L2-HR :0.93415: (Sim:0h11m7s) 
CPU  0 inst:  103000002 cyc:   75100764 now IPC :1.37546: AVG IPC :1.36297: L2-Pf-HR :0.98936: L2-HR :0.93418: (Sim:0h11m13s) 
CPU  0 inst:  104000000 cyc:   75828728 now IPC :1.37369: AVG IPC :1.36308: L2-Pf-HR :0.98936: L2-HR :0.93421: (Sim:0h11m20s) 
CPU  0 inst:  105000002 cyc:   76557033 now IPC :1.37305: AVG IPC :1.36317: L2-Pf-HR :0.98936: L2-HR :0.93424: (Sim:0h11m27s) 
CPU  0 inst:  106000002 cyc:   77284410 now IPC :1.37480: AVG IPC :1.36328: L2-Pf-HR :0.98936: L2-HR :0.93427: (Sim:0h11m35s) 
CPU  0 inst:  107000000 cyc:   78049797 now IPC :1.30653: AVG IPC :1.36272: L2-Pf-HR :0.98937: L2-HR :0.93429: (Sim:0h11m42s) 
CPU  0 inst:  108000000 cyc:   78774310 now IPC :1.38024: AVG IPC :1.36288: L2-Pf-HR :0.98937: L2-HR :0.93431: (Sim:0h11m49s) 
CPU  0 inst:  109000000 cyc:   79500596 now IPC :1.37687: AVG IPC :1.36301: L2-Pf-HR :0.98937: L2-HR :0.93434: (Sim:0h11m56s) 
CPU  0 inst:  110000004 cyc:   80227635 now IPC :1.37545: AVG IPC :1.36313: L2-Pf-HR :0.98937: L2-HR :0.93436: (Sim:0h12m3s) 
CPU  0 inst:  111000002 cyc:   80950404 now IPC :1.38357: AVG IPC :1.36331: L2-Pf-HR :0.98936: L2-HR :0.93438: (Sim:0h12m9s) 
CPU  0 inst:  112000000 cyc:   81677706 now IPC :1.37494: AVG IPC :1.36342: L2-Pf-HR :0.98936: L2-HR :0.93440: (Sim:0h12m17s) 
CPU  0 inst:  113000003 cyc:   82471416 now IPC :1.25991: AVG IPC :1.36241: L2-Pf-HR :0.98936: L2-HR :0.93433: (Sim:0h12m24s) 
CPU  0 inst:  114000001 cyc:   83184577 now IPC :1.40221: AVG IPC :1.36275: L2-Pf-HR :0.98936: L2-HR :0.93435: (Sim:0h12m31s) 
CPU  0 inst:  115000001 cyc:   83896944 now IPC :1.40377: AVG IPC :1.36311: L2-Pf-HR :0.98936: L2-HR :0.93438: (Sim:0h12m38s) 
CPU  0 inst:  116000003 cyc:   84611050 now IPC :1.40036: AVG IPC :1.36342: L2-Pf-HR :0.98936: L2-HR :0.93440: (Sim:0h12m45s) 
CPU  0 inst:  117000004 cyc:   85324873 now IPC :1.40091: AVG IPC :1.36374: L2-Pf-HR :0.98936: L2-HR :0.93442: (Sim:0h12m52s) 
CPU  0 inst:  118000005 cyc:   86037606 now IPC :1.40305: AVG IPC :1.36407: L2-Pf-HR :0.98936: L2-HR :0.93444: (Sim:0h12m59s) 
CPU  0 inst:  119000005 cyc:   86795754 now IPC :1.31900: AVG IPC :1.36367: L2-Pf-HR :0.98937: L2-HR :0.93446: (Sim:0h13m7s) 
CPU  0 inst:  120000000 cyc:   87517019 now IPC :1.38645: AVG IPC :1.36386: L2-Pf-HR :0.98936: L2-HR :0.93448: (Sim:0h13m14s) 
CPU  0 inst:  121000001 cyc:   88240759 now IPC :1.38171: AVG IPC :1.36401: L2-Pf-HR :0.98937: L2-HR :0.93450: (Sim:0h13m21s) 
CPU  0 inst:  122000002 cyc:   88965625 now IPC :1.37957: AVG IPC :1.36414: L2-Pf-HR :0.98937: L2-HR :0.93452: (Sim:0h13m28s) 
CPU  0 inst:  123000002 cyc:   89687771 now IPC :1.38476: AVG IPC :1.36431: L2-Pf-HR :0.98936: L2-HR :0.93454: (Sim:0h13m36s) 
CPU  0 inst:  124000003 cyc:   90408697 now IPC :1.38711: AVG IPC :1.36449: L2-Pf-HR :0.98936: L2-HR :0.93456: (Sim:0h13m43s) 
CPU  0 inst:  125000002 cyc:   91157601 now IPC :1.33528: AVG IPC :1.36425: L2-Pf-HR :0.98926: L2-HR :0.93433: (Sim:0h13m50s) 
CPU  0 inst:  126000003 cyc:   91879874 now IPC :1.38452: AVG IPC :1.36441: L2-Pf-HR :0.98909: L2-HR :0.93396: (Sim:0h13m57s) 
CPU  0 inst:  127000002 cyc:   92606111 now IPC :1.37696: AVG IPC :1.36451: L2-Pf-HR :0.98892: L2-HR :0.93360: (Sim:0h14m4s) 
CPU  0 inst:  128000000 cyc:   93314005 now IPC :1.41264: AVG IPC :1.36488: L2-Pf-HR :0.98875: L2-HR :0.93324: (Sim:0h14m11s) 
CPU  0 inst:  129000005 cyc:   94140441 now IPC :1.21002: AVG IPC :1.36350: L2-Pf-HR :0.98864: L2-HR :0.93290: (Sim:0h14m18s) 
CPU  0 inst:  130000002 cyc:   94879090 now IPC :1.35382: AVG IPC :1.36343: L2-Pf-HR :0.98864: L2-HR :0.93287: (Sim:0h14m26s) 
CPU  0 inst:  131000004 cyc:   95615855 now IPC :1.35729: AVG IPC :1.36338: L2-Pf-HR :0.98865: L2-HR :0.93283: (Sim:0h14m33s) 
CPU  0 inst:  132000001 cyc:   96353851 now IPC :1.35502: AVG IPC :1.36331: L2-Pf-HR :0.98865: L2-HR :0.93280: (Sim:0h14m40s) 
CPU  0 inst:  133000000 cyc:   97092855 now IPC :1.35317: AVG IPC :1.36324: L2-Pf-HR :0.98865: L2-HR :0.93277: (Sim:0h14m48s) 
CPU  0 inst:  134000001 cyc:   97834937 now IPC :1.34756: AVG IPC :1.36312: L2-Pf-HR :0.98865: L2-HR :0.93273: (Sim:0h14m55s) 
CPU  0 inst:  135000005 cyc:   98615932 now IPC :1.28042: AVG IPC :1.36245: L2-Pf-HR :0.98867: L2-HR :0.93270: (Sim:0h15m3s) 
CPU  0 inst:  136000000 cyc:   99362071 now IPC :1.34023: AVG IPC :1.36229: L2-Pf-HR :0.98866: L2-HR :0.93267: (Sim:0h15m10s) 
CPU  0 inst:  137000004 cyc:  100103792 now IPC :1.34822: AVG IPC :1.36218: L2-Pf-HR :0.98867: L2-HR :0.93264: (Sim:0h15m18s) 
CPU  0 inst:  138000004 cyc:  100850567 now IPC :1.33909: AVG IPC :1.36201: L2-Pf-HR :0.98867: L2-HR :0.93260: (Sim:0h15m25s) 
CPU  0 inst:  139000002 cyc:  101599920 now IPC :1.33448: AVG IPC :1.36180: L2-Pf-HR :0.98867: L2-HR :0.93257: (Sim:0h15m32s) 
CPU  0 inst:  140000001 cyc:  102346184 now IPC :1.34001: AVG IPC :1.36164: L2-Pf-HR :0.98867: L2-HR :0.93254: (Sim:0h15m40s) 
CPU  0 inst:  141000002 cyc:  103155462 now IPC :1.23567: AVG IPC :1.36064: L2-Pf-HR :0.98867: L2-HR :0.93246: (Sim:0h15m48s) 
CPU  0 inst:  142000002 cyc:  103875941 now IPC :1.38797: AVG IPC :1.36084: L2-Pf-HR :0.98868: L2-HR :0.93247: (Sim:0h15m55s) 
CPU  0 inst:  143000002 cyc:  104596081 now IPC :1.38862: AVG IPC :1.36103: L2-Pf-HR :0.98868: L2-HR :0.93248: (Sim:0h16m2s) 
CPU  0 inst:  144000000 cyc:  105316236 now IPC :1.38859: AVG IPC :1.36122: L2-Pf-HR :0.98869: L2-HR :0.93250: (Sim:0h16m10s) 
CPU  0 inst:  145000002 cyc:  106036735 now IPC :1.38793: AVG IPC :1.36140: L2-Pf-HR :0.98869: L2-HR :0.93251: (Sim:0h16m17s) 
CPU  0 inst:  146000002 cyc:  106759093 now IPC :1.38436: AVG IPC :1.36156: L2-Pf-HR :0.98869: L2-HR :0.93252: (Sim:0h16m25s) 
CPU  0 inst:  147000000 cyc:  107517005 now IPC :1.31941: AVG IPC :1.36126: L2-Pf-HR :0.98870: L2-HR :0.93253: (Sim:0h16m32s) 
CPU  0 inst:  148000000 cyc:  108237997 now IPC :1.38698: AVG IPC :1.36143: L2-Pf-HR :0.98870: L2-HR :0.93255: (Sim:0h16m39s) 
CPU  0 inst:  149000002 cyc:  108957751 now IPC :1.38937: AVG IPC :1.36162: L2-Pf-HR :0.98871: L2-HR :0.93256: (Sim:0h16m47s) 
CPU  0 inst:  150000005 cyc:  109678401 now IPC :1.38764: AVG IPC :1.36179: L2-Pf-HR :0.98871: L2-HR :0.93257: (Sim:0h16m54s) 
CPU  0 inst:  151000000 cyc:  110399786 now IPC :1.38622: AVG IPC :1.36195: L2-Pf-HR :0.98871: L2-HR :0.93258: (Sim:0h17m1s) 
CPU  0 inst:  152000000 cyc:  111118113 now IPC :1.39212: AVG IPC :1.36215: L2-Pf-HR :0.98871: L2-HR :0.93259: (Sim:0h17m9s) 
CPU  0 inst:  153000003 cyc:  111920155 now IPC :1.24682: AVG IPC :1.36132: L2-Pf-HR :0.98871: L2-HR :0.93253: (Sim:0h17m17s) 
CPU  0 inst:  154000001 cyc:  112645506 now IPC :1.37864: AVG IPC :1.36143: L2-Pf-HR :0.98872: L2-HR :0.93254: (Sim:0h17m24s) 
CPU  0 inst:  155000000 cyc:  113373807 now IPC :1.37306: AVG IPC :1.36150: L2-Pf-HR :0.98872: L2-HR :0.93255: (Sim:0h17m32s) 
CPU  0 inst:  156000004 cyc:  114101250 now IPC :1.37468: AVG IPC :1.36159: L2-Pf-HR :0.98872: L2-HR :0.93256: (Sim:0h17m39s) 
CPU  0 inst:  157000004 cyc:  114828356 now IPC :1.37532: AVG IPC :1.36168: L2-Pf-HR :0.98872: L2-HR :0.93257: (Sim:0h17m47s) 
CPU  0 inst:  158000005 cyc:  115558077 now IPC :1.37039: AVG IPC :1.36173: L2-Pf-HR :0.98872: L2-HR :0.93258: (Sim:0h17m54s) 
CPU  0 inst:  159000005 cyc:  116324170 now IPC :1.30532: AVG IPC :1.36136: L2-Pf-HR :0.98873: L2-HR :0.93259: (Sim:0h18m2s) 
CPU  0 inst:  160000000 cyc:  117054070 now IPC :1.37004: AVG IPC :1.36141: L2-Pf-HR :0.98873: L2-HR :0.93260: (Sim:0h18m9s) 
CPU  0 inst:  161000002 cyc:  117781619 now IPC :1.37448: AVG IPC :1.36149: L2-Pf-HR :0.98874: L2-HR :0.93261: (Sim:0h18m17s) 
CPU  0 inst:  162000002 cyc:  118508992 now IPC :1.37481: AVG IPC :1.36157: L2-Pf-HR :0.98874: L2-HR :0.93262: (Sim:0h18m24s) 
CPU  0 inst:  163000002 cyc:  119236380 now IPC :1.37478: AVG IPC :1.36166: L2-Pf-HR :0.98874: L2-HR :0.93263: (Sim:0h18m32s) 
CPU  0 inst:  164000003 cyc:  119960136 now IPC :1.38168: AVG IPC :1.36178: L2-Pf-HR :0.98874: L2-HR :0.93264: (Sim:0h18m39s) 
CPU  0 inst:  165000003 cyc:  120757625 now IPC :1.25394: AVG IPC :1.36106: L2-Pf-HR :0.98874: L2-HR :0.93258: (Sim:0h18m48s) 
CPU  0 inst:  166000002 cyc:  121483789 now IPC :1.37710: AVG IPC :1.36116: L2-Pf-HR :0.98874: L2-HR :0.93259: (Sim:0h18m56s) 
CPU  0 inst:  167000005 cyc:  122210604 now IPC :1.37587: AVG IPC :1.36124: L2-Pf-HR :0.98874: L2-HR :0.93260: (Sim:0h19m4s) 
CPU  0 inst:  168000000 cyc:  122938421 now IPC :1.37396: AVG IPC :1.36132: L2-Pf-HR :0.98874: L2-HR :0.93260: (Sim:0h19m11s) 
CPU  0 inst:  169000001 cyc:  123663046 now IPC :1.38003: AVG IPC :1.36143: L2-Pf-HR :0.98874: L2-HR :0.93261: (Sim:0h19m19s) 
CPU  0 inst:  170000001 cyc:  124390458 now IPC :1.37474: AVG IPC :1.36151: L2-Pf-HR :0.98874: L2-HR :0.93262: (Sim:0h19m27s) 
CPU  0 inst:  171000001 cyc:  125156954 now IPC :1.30464: AVG IPC :1.36116: L2-Pf-HR :0.98875: L2-HR :0.93263: (Sim:0h19m35s) 
CPU  0 inst:  172000003 cyc:  125886611 now IPC :1.37051: AVG IPC :1.36121: L2-Pf-HR :0.98875: L2-HR :0.93264: (Sim:0h19m43s) 
CPU  0 inst:  173000001 cyc:  126614093 now IPC :1.37460: AVG IPC :1.36129: L2-Pf-HR :0.98876: L2-HR :0.93265: (Sim:0h19m50s) 
CPU  0 inst:  174000001 cyc:  127343518 now IPC :1.37094: AVG IPC :1.36135: L2-Pf-HR :0.98876: L2-HR :0.93265: (Sim:0h19m58s) 
CPU  0 inst:  175000001 cyc:  128071241 now IPC :1.37415: AVG IPC :1.36142: L2-Pf-HR :0.98876: L2-HR :0.93266: (Sim:0h20m6s) 
CPU  0 inst:  176000000 cyc:  128799294 now IPC :1.37353: AVG IPC :1.36149: L2-Pf-HR :0.98876: L2-HR :0.93267: (Sim:0h20m14s) 
CPU  0 inst:  177000004 cyc:  129607183 now IPC :1.23780: AVG IPC :1.36071: L2-Pf-HR :0.98877: L2-HR :0.93261: (Sim:0h20m22s) 
CPU  0 inst:  178000005 cyc:  130333488 now IPC :1.37683: AVG IPC :1.36080: L2-Pf-HR :0.98877: L2-HR :0.93262: (Sim:0h20m29s) 
CPU  0 inst:  179000005 cyc:  131061309 now IPC :1.37396: AVG IPC :1.36088: L2-Pf-HR :0.98877: L2-HR :0.93263: (Sim:0h20m37s) 
CPU  0 inst:  180000005 cyc:  131789469 now IPC :1.37332: AVG IPC :1.36095: L2-Pf-HR :0.98876: L2-HR :0.93264: (Sim:0h20m45s) 
CPU  0 inst:  181000003 cyc:  132515862 now IPC :1.37666: AVG IPC :1.36103: L2-Pf-HR :0.98877: L2-HR :0.93264: (Sim:0h20m52s) 
CPU  0 inst:  182000003 cyc:  133243433 now IPC :1.37444: AVG IPC :1.36111: L2-Pf-HR :0.98877: L2-HR :0.93265: (Sim:0h21m0s) 
CPU  0 inst:  183000005 cyc:  134009924 now IPC :1.30465: AVG IPC :1.36078: L2-Pf-HR :0.98878: L2-HR :0.93266: (Sim:0h21m7s) 
CPU  0 inst:  184000000 cyc:  134735900 now IPC :1.37745: AVG IPC :1.36087: L2-Pf-HR :0.98878: L2-HR :0.93267: (Sim:0h21m15s) 
CPU  0 inst:  185000003 cyc:  135462898 now IPC :1.37552: AVG IPC :1.36095: L2-Pf-HR :0.98878: L2-HR :0.93267: (Sim:0h21m23s) 
CPU  0 inst:  186000003 cyc:  136189313 now IPC :1.37662: AVG IPC :1.36103: L2-Pf-HR :0.98878: L2-HR :0.93268: (Sim:0h21m30s) 
CPU  0 inst:  187000001 cyc:  136915588 now IPC :1.37689: AVG IPC :1.36112: L2-Pf-HR :0.98879: L2-HR :0.93269: (Sim:0h21m38s) 
CPU  0 inst:  188000004 cyc:  137640665 now IPC :1.37917: AVG IPC :1.36121: L2-Pf-HR :0.98879: L2-HR :0.93270: (Sim:0h21m45s) 
CPU  0 inst:  189000002 cyc:  138398653 now IPC :1.31928: AVG IPC :1.36098: L2-Pf-HR :0.98874: L2-HR :0.93257: (Sim:0h21m53s) 
CPU  0 inst:  190000001 cyc:  139126100 now IPC :1.37467: AVG IPC :1.36106: L2-Pf-HR :0.98863: L2-HR :0.93233: (Sim:0h22m0s) 
CPU  0 inst:  191000005 cyc:  139853930 now IPC :1.37395: AVG IPC :1.36112: L2-Pf-HR :0.98852: L2-HR :0.93209: (Sim:0h22m8s) 
CPU  0 inst:  192000000 cyc:  140570825 now IPC :1.39490: AVG IPC :1.36130: L2-Pf-HR :0.98841: L2-HR :0.93185: (Sim:0h22m15s) 
CPU  0 inst:  193000005 cyc:  141390491 now IPC :1.22002: AVG IPC :1.36047: L2-Pf-HR :0.98833: L2-HR :0.93159: (Sim:0h22m23s) 
CPU  0 inst:  194000005 cyc:  142112031 now IPC :1.38592: AVG IPC :1.36060: L2-Pf-HR :0.98833: L2-HR :0.93156: (Sim:0h22m31s) 
CPU  0 inst:  195000004 cyc:  142834444 now IPC :1.38425: AVG IPC :1.36072: L2-Pf-HR :0.98833: L2-HR :0.93153: (Sim:0h22m39s) 
CPU  0 inst:  196000004 cyc:  143558916 now IPC :1.38032: AVG IPC :1.36082: L2-Pf-HR :0.98834: L2-HR :0.93150: (Sim:0h22m46s) 
CPU  0 inst:  197000000 cyc:  144283384 now IPC :1.38032: AVG IPC :1.36092: L2-Pf-HR :0.98834: L2-HR :0.93147: (Sim:0h22m54s) 
CPU  0 inst:  198000003 cyc:  145011643 now IPC :1.37314: AVG IPC :1.36098: L2-Pf-HR :0.98834: L2-HR :0.93144: (Sim:0h23m2s) 
CPU  0 inst:  199000005 cyc:  145786257 now IPC :1.29097: AVG IPC :1.36061: L2-Pf-HR :0.98834: L2-HR :0.93141: (Sim:0h23m10s) 
CPU  0 inst:  200000000 cyc:  146530963 now IPC :1.34281: AVG IPC :1.36052: L2-Pf-HR :0.98834: L2-HR :0.93138: (Sim:0h23m18s) 
CPU  0 inst:  201000001 cyc:  147275468 now IPC :1.34318: AVG IPC :1.36043: L2-Pf-HR :0.98834: L2-HR :0.93135: (Sim:0h23m25s) 
CPU  0 inst:  202000002 cyc:  148026231 now IPC :1.33198: AVG IPC :1.36028: L2-Pf-HR :0.98834: L2-HR :0.93132: (Sim:0h23m33s) 
CPU  0 inst:  203000002 cyc:  148778622 now IPC :1.32910: AVG IPC :1.36012: L2-Pf-HR :0.98835: L2-HR :0.93128: (Sim:0h23m41s) 
CPU  0 inst:  204000001 cyc:  149532409 now IPC :1.32663: AVG IPC :1.35995: L2-Pf-HR :0.98835: L2-HR :0.93125: (Sim:0h23m49s) 
CPU  0 inst:  205000004 cyc:  150349144 now IPC :1.22439: AVG IPC :1.35921: L2-Pf-HR :0.98835: L2-HR :0.93119: (Sim:0h23m58s) 
CPU  0 inst:  206000002 cyc:  151078052 now IPC :1.37191: AVG IPC :1.35927: L2-Pf-HR :0.98835: L2-HR :0.93119: (Sim:0h24m5s) 
CPU  0 inst:  207000003 cyc:  151806225 now IPC :1.37330: AVG IPC :1.35934: L2-Pf-HR :0.98835: L2-HR :0.93119: (Sim:0h24m13s) 
CPU  0 inst:  208000000 cyc:  152535960 now IPC :1.37036: AVG IPC :1.35940: L2-Pf-HR :0.98835: L2-HR :0.93119: (Sim:0h24m21s) 
CPU  0 inst:  209000003 cyc:  153266552 now IPC :1.36876: AVG IPC :1.35944: L2-Pf-HR :0.98835: L2-HR :0.93119: (Sim:0h24m29s) 
CPU  0 inst:  210000001 cyc:  153993135 now IPC :1.37630: AVG IPC :1.35952: L2-Pf-HR :0.98835: L2-HR :0.93119: (Sim:0h24m37s) 
CPU  0 inst:  211000000 cyc:  154753671 now IPC :1.31486: AVG IPC :1.35930: L2-Pf-HR :0.98836: L2-HR :0.93119: (Sim:0h24m45s) 
CPU  0 inst:  212000001 cyc:  155466291 now IPC :1.40327: AVG IPC :1.35950: L2-Pf-HR :0.98836: L2-HR :0.93119: (Sim:0h24m53s) 
CPU  0 inst:  213000001 cyc:  156179417 now IPC :1.40228: AVG IPC :1.35970: L2-Pf-HR :0.98836: L2-HR :0.93119: (Sim:0h25m0s) 
CPU  0 inst:  214000001 cyc:  156892315 now IPC :1.40273: AVG IPC :1.35990: L2-Pf-HR :0.98837: L2-HR :0.93119: (Sim:0h25m8s) 
CPU  0 inst:  215000001 cyc:  157603692 now IPC :1.40572: AVG IPC :1.36010: L2-Pf-HR :0.98837: L2-HR :0.93119: (Sim:0h25m16s) 
CPU  0 inst:  216000000 cyc:  158316572 now IPC :1.40276: AVG IPC :1.36030: L2-Pf-HR :0.98837: L2-HR :0.93119: (Sim:0h25m24s) 
CPU  0 inst:  217000005 cyc:  159107499 now IPC :1.26435: AVG IPC :1.35982: L2-Pf-HR :0.98837: L2-HR :0.93114: (Sim:0h25m32s) 
CPU  0 inst:  218000005 cyc:  159819136 now IPC :1.40521: AVG IPC :1.36002: L2-Pf-HR :0.98837: L2-HR :0.93115: (Sim:0h25m40s) 
CPU  0 inst:  219000005 cyc:  160531541 now IPC :1.40370: AVG IPC :1.36022: L2-Pf-HR :0.98837: L2-HR :0.93114: (Sim:0h25m48s) 
CPU  0 inst:  220000005 cyc:  161245818 now IPC :1.40002: AVG IPC :1.36039: L2-Pf-HR :0.98837: L2-HR :0.93114: (Sim:0h25m55s) 
CPU  0 inst:  221000003 cyc:  161961755 now IPC :1.39677: AVG IPC :1.36055: L2-Pf-HR :0.98838: L2-HR :0.93115: (Sim:0h26m3s) 
CPU  0 inst:  222000002 cyc:  162675113 now IPC :1.40182: AVG IPC :1.36074: L2-Pf-HR :0.98838: L2-HR :0.93115: (Sim:0h26m11s) 
CPU  0 inst:  223000005 cyc:  163435044 now IPC :1.31591: AVG IPC :1.36053: L2-Pf-HR :0.98839: L2-HR :0.93115: (Sim:0h26m19s) 
CPU  0 inst:  224000000 cyc:  164160312 now IPC :1.37879: AVG IPC :1.36061: L2-Pf-HR :0.98839: L2-HR :0.93115: (Sim:0h26m26s) 
CPU  0 inst:  225000003 cyc:  164885787 now IPC :1.37841: AVG IPC :1.36069: L2-Pf-HR :0.98839: L2-HR :0.93114: (Sim:0h26m34s) 
CPU  0 inst:  226000004 cyc:  165613419 now IPC :1.37432: AVG IPC :1.36075: L2-Pf-HR :0.98839: L2-HR :0.93114: (Sim:0h26m42s) 
CPU  0 inst:  227000001 cyc:  166339727 now IPC :1.37682: AVG IPC :1.36082: L2-Pf-HR :0.98839: L2-HR :0.93114: (Sim:0h26m50s) 
CPU  0 inst:  228000003 cyc:  167066425 now IPC :1.37609: AVG IPC :1.36088: L2-Pf-HR :0.98839: L2-HR :0.93114: (Sim:0h26m58s) 
CPU  0 inst:  229000004 cyc:  167863650 now IPC :1.25435: AVG IPC :1.36038: L2-Pf-HR :0.98840: L2-HR :0.93109: (Sim:0h27m6s) 
CPU  0 inst:  230000004 cyc:  168580925 now IPC :1.39417: AVG IPC :1.36052: L2-Pf-HR :0.98840: L2-HR :0.93109: (Sim:0h27m14s) 
CPU  0 inst:  231000004 cyc:  169298591 now IPC :1.39341: AVG IPC :1.36066: L2-Pf-HR :0.98840: L2-HR :0.93109: (Sim:0h27m21s) 
CPU  0 inst:  232000000 cyc:  170015625 now IPC :1.39463: AVG IPC :1.36080: L2-Pf-HR :0.98840: L2-HR :0.93109: (Sim:0h27m29s) 
CPU  0 inst:  233000001 cyc:  170733550 now IPC :1.39290: AVG IPC :1.36094: L2-Pf-HR :0.98840: L2-HR :0.93109: (Sim:0h27m37s) 
CPU  0 inst:  234000004 cyc:  171449601 now IPC :1.39655: AVG IPC :1.36109: L2-Pf-HR :0.98840: L2-HR :0.93109: (Sim:0h27m45s) 
CPU  0 inst:  235000001 cyc:  172207848 now IPC :1.31883: AVG IPC :1.36090: L2-Pf-HR :0.98841: L2-HR :0.93109: (Sim:0h27m52s) 
CPU  0 inst:  236000002 cyc:  172929087 now IPC :1.38650: AVG IPC :1.36101: L2-Pf-HR :0.98841: L2-HR :0.93109: (Sim:0h28m0s) 
CPU  0 inst:  237000002 cyc:  173652325 now IPC :1.38267: AVG IPC :1.36110: L2-Pf-HR :0.98841: L2-HR :0.93109: (Sim:0h28m7s) 
CPU  0 inst:  238000002 cyc:  174376792 now IPC :1.38033: AVG IPC :1.36118: L2-Pf-HR :0.98841: L2-HR :0.93109: (Sim:0h28m15s) 
CPU  0 inst:  239000005 cyc:  175098475 now IPC :1.38565: AVG IPC :1.36128: L2-Pf-HR :0.98842: L2-HR :0.93109: (Sim:0h28m23s) 
CPU  0 inst:  240000000 cyc:  175822408 now IPC :1.38134: AVG IPC :1.36137: L2-Pf-HR :0.98842: L2-HR :0.93109: (Sim:0h28m30s) 
CPU  0 inst:  241000000 cyc:  176622671 now IPC :1.24959: AVG IPC :1.36086: L2-Pf-HR :0.98842: L2-HR :0.93104: (Sim:0h28m39s) 
CPU  0 inst:  242000000 cyc:  177342752 now IPC :1.38873: AVG IPC :1.36097: L2-Pf-HR :0.98842: L2-HR :0.93104: (Sim:0h28m46s) 
CPU  0 inst:  243000000 cyc:  178064015 now IPC :1.38646: AVG IPC :1.36107: L2-Pf-HR :0.98842: L2-HR :0.93104: (Sim:0h28m54s) 
CPU  0 inst:  244000001 cyc:  178784290 now IPC :1.38836: AVG IPC :1.36118: L2-Pf-HR :0.98842: L2-HR :0.93104: (Sim:0h29m1s) 
CPU  0 inst:  245000003 cyc:  179506426 now IPC :1.38478: AVG IPC :1.36128: L2-Pf-HR :0.98842: L2-HR :0.93104: (Sim:0h29m9s) 
CPU  0 inst:  246000004 cyc:  180226692 now IPC :1.38838: AVG IPC :1.36139: L2-Pf-HR :0.98842: L2-HR :0.93104: (Sim:0h29m17s) 
CPU  0 inst:  247000004 cyc:  180988429 now IPC :1.31279: AVG IPC :1.36118: L2-Pf-HR :0.98843: L2-HR :0.93104: (Sim:0h29m24s) 
CPU  0 inst:  248000000 cyc:  181712826 now IPC :1.38045: AVG IPC :1.36126: L2-Pf-HR :0.98843: L2-HR :0.93104: (Sim:0h29m32s) 
CPU  0 inst:  249000001 cyc:  182436615 now IPC :1.38162: AVG IPC :1.36134: L2-Pf-HR :0.98843: L2-HR :0.93103: (Sim:0h29m39s) 
CPU  0 inst:  250000001 cyc:  183164129 now IPC :1.37454: AVG IPC :1.36139: L2-Pf-HR :0.98843: L2-HR :0.93103: (Sim:0h29m47s) 
CPU  0 inst:  251000004 cyc:  183886763 now IPC :1.38383: AVG IPC :1.36148: L2-Pf-HR :0.98844: L2-HR :0.93103: (Sim:0h29m55s) 
CPU  0 inst:  252000002 cyc:  184611477 now IPC :1.37985: AVG IPC :1.36156: L2-Pf-HR :0.98844: L2-HR :0.93104: (Sim:0h30m3s) 
CPU  0 inst:  253000005 cyc:  185368509 now IPC :1.32095: AVG IPC :1.36139: L2-Pf-HR :0.98841: L2-HR :0.93096: (Sim:0h30m11s) 
CPU  0 inst:  254000005 cyc:  186098687 now IPC :1.36953: AVG IPC :1.36142: L2-Pf-HR :0.98833: L2-HR :0.93078: (Sim:0h30m18s) 
CPU  0 inst:  255000001 cyc:  186819789 now IPC :1.38676: AVG IPC :1.36152: L2-Pf-HR :0.98825: L2-HR :0.93059: (Sim:0h30m25s) 
CPU  0 inst:  256000000 cyc:  187510082 now IPC :1.44866: AVG IPC :1.36184: L2-Pf-HR :0.98818: L2-HR :0.93041: (Sim:0h30m32s) 
CPU  0 inst:  257000005 cyc:  188318029 now IPC :1.23771: AVG IPC :1.36131: L2-Pf-HR :0.98810: L2-HR :0.93019: (Sim:0h30m40s) 
CPU  0 inst:  258000003 cyc:  189058147 now IPC :1.35113: AVG IPC :1.36127: L2-Pf-HR :0.98810: L2-HR :0.93016: (Sim:0h30m47s) 
CPU  0 inst:  259000004 cyc:  189799605 now IPC :1.34870: AVG IPC :1.36122: L2-Pf-HR :0.98811: L2-HR :0.93013: (Sim:0h30m55s) 
CPU  0 inst:  260000001 cyc:  190539778 now IPC :1.35103: AVG IPC :1.36118: L2-Pf-HR :0.98811: L2-HR :0.93010: (Sim:0h31m3s) 
CPU  0 inst:  261000003 cyc:  191284728 now IPC :1.34237: AVG IPC :1.36110: L2-Pf-HR :0.98811: L2-HR :0.93007: (Sim:0h31m10s) 
CPU  0 inst:  262000000 cyc:  192027258 now IPC :1.34674: AVG IPC :1.36105: L2-Pf-HR :0.98811: L2-HR :0.93004: (Sim:0h31m18s) 
CPU  0 inst:  263000005 cyc:  192810425 now IPC :1.27687: AVG IPC :1.36070: L2-Pf-HR :0.98811: L2-HR :0.93001: (Sim:0h31m26s) 
CPU  0 inst:  264000000 cyc:  193552715 now IPC :1.34718: AVG IPC :1.36065: L2-Pf-HR :0.98811: L2-HR :0.92997: (Sim:0h31m33s) 
CPU  0 inst:  265000003 cyc:  194296296 now IPC :1.34485: AVG IPC :1.36059: L2-Pf-HR :0.98811: L2-HR :0.92994: (Sim:0h31m41s) 
CPU  0 inst:  266000001 cyc:  195037280 now IPC :1.34955: AVG IPC :1.36055: L2-Pf-HR :0.98811: L2-HR :0.92991: (Sim:0h31m49s) 
CPU  0 inst:  267000002 cyc:  195786188 now IPC :1.33528: AVG IPC :1.36045: L2-Pf-HR :0.98811: L2-HR :0.92988: (Sim:0h31m56s) 
CPU  0 inst:  268000000 cyc:  196533444 now IPC :1.33823: AVG IPC :1.36037: L2-Pf-HR :0.98812: L2-HR :0.92985: (Sim:0h32m4s) 
CPU  0 inst:  269000004 cyc:  197352913 now IPC :1.22031: AVG IPC :1.35978: L2-Pf-HR :0.98812: L2-HR :0.92978: (Sim:0h32m12s) 
CPU  0 inst:  270000004 cyc:  198084847 now IPC :1.36624: AVG IPC :1.35981: L2-Pf-HR :0.98812: L2-HR :0.92978: (Sim:0h32m20s) 
CPU  0 inst:  271000004 cyc:  198817678 now IPC :1.36457: AVG IPC :1.35982: L2-Pf-HR :0.98812: L2-HR :0.92977: (Sim:0h32m27s) 
CPU  0 inst:  272000000 cyc:  199550888 now IPC :1.36386: AVG IPC :1.35984: L2-Pf-HR :0.98812: L2-HR :0.92977: (Sim:0h32m35s) 
CPU  0 inst:  273000004 cyc:  200282231 now IPC :1.36735: AVG IPC :1.35987: L2-Pf-HR :0.98812: L2-HR :0.92976: (Sim:0h32m43s) 
CPU  0 inst:  274000004 cyc:  201015803 now IPC :1.36319: AVG IPC :1.35988: L2-Pf-HR :0.98812: L2-HR :0.92976: (Sim:0h32m50s) 
CPU  0 inst:  275000001 cyc:  201778353 now IPC :1.31139: AVG IPC :1.35969: L2-Pf-HR :0.98813: L2-HR :0.92975: (Sim:0h32m58s) 
CPU  0 inst:  276000002 cyc:  202489832 now IPC :1.40552: AVG IPC :1.35986: L2-Pf-HR :0.98813: L2-HR :0.92974: (Sim:0h33m6s) 
CPU  0 inst:  277000002 cyc:  203202014 now IPC :1.40414: AVG IPC :1.36001: L2-Pf-HR :0.98813: L2-HR :0.92974: (Sim:0h33m13s) 
CPU  0 inst:  278000004 cyc:  203914878 now IPC :1.40279: AVG IPC :1.36016: L2-Pf-HR :0.98813: L2-HR :0.92973: (Sim:0h33m21s) 
CPU  0 inst:  279000005 cyc:  204628609 now IPC :1.40109: AVG IPC :1.36031: L2-Pf-HR :0.98813: L2-HR :0.92972: (Sim:0h33m28s) 
CPU  0 inst:  280000000 cyc:  205338745 now IPC :1.40817: AVG IPC :1.36047: L2-Pf-HR :0.98813: L2-HR :0.92972: (Sim:0h33m36s) 
CPU  0 inst:  281000000 cyc:  206135421 now IPC :1.25522: AVG IPC :1.36006: L2-Pf-HR :0.98813: L2-HR :0.92967: (Sim:0h33m44s) 
CPU  0 inst:  282000003 cyc:  206863612 now IPC :1.37327: AVG IPC :1.36011: L2-Pf-HR :0.98813: L2-HR :0.92966: (Sim:0h33m52s) 
CPU  0 inst:  283000000 cyc:  207589188 now IPC :1.37821: AVG IPC :1.36017: L2-Pf-HR :0.98813: L2-HR :0.92965: (Sim:0h33m59s) 
CPU  0 inst:  284000000 cyc:  208318435 now IPC :1.37128: AVG IPC :1.36021: L2-Pf-HR :0.98813: L2-HR :0.92965: (Sim:0h34m11s) 
CPU  0 inst:  285000004 cyc:  209046759 now IPC :1.37302: AVG IPC :1.36026: L2-Pf-HR :0.98814: L2-HR :0.92964: (Sim:0h34m24s) 
CPU  0 inst:  286000004 cyc:  209774738 now IPC :1.37367: AVG IPC :1.36030: L2-Pf-HR :0.98814: L2-HR :0.92964: (Sim:0h34m38s) 
CPU  0 inst:  287000004 cyc:  210540099 now IPC :1.30657: AVG IPC :1.36011: L2-Pf-HR :0.98815: L2-HR :0.92963: (Sim:0h34m53s) 
CPU  0 inst:  288000000 cyc:  211267529 now IPC :1.37470: AVG IPC :1.36016: L2-Pf-HR :0.98815: L2-HR :0.92962: (Sim:0h35m7s) 
CPU  0 inst:  289000005 cyc:  211996360 now IPC :1.37207: AVG IPC :1.36020: L2-Pf-HR :0.98815: L2-HR :0.92962: (Sim:0h35m22s) 
CPU  0 inst:  290000002 cyc:  212723072 now IPC :1.37606: AVG IPC :1.36025: L2-Pf-HR :0.98815: L2-HR :0.92961: (Sim:0h35m36s) 
CPU  0 inst:  291000004 cyc:  213452054 now IPC :1.37178: AVG IPC :1.36029: L2-Pf-HR :0.98815: L2-HR :0.92961: (Sim:0h35m51s) 
CPU  0 inst:  292000002 cyc:  214178044 now IPC :1.37743: AVG IPC :1.36035: L2-Pf-HR :0.98815: L2-HR :0.92960: (Sim:0h36m6s) 
CPU  0 inst:  293000002 cyc:  214976195 now IPC :1.25290: AVG IPC :1.35995: L2-Pf-HR :0.98815: L2-HR :0.92956: (Sim:0h36m17s) 
CPU  0 inst:  294000002 cyc:  215697159 now IPC :1.38703: AVG IPC :1.36004: L2-Pf-HR :0.98815: L2-HR :0.92955: (Sim:0h36m25s) 
CPU  0 inst:  295000002 cyc:  216417550 now IPC :1.38814: AVG IPC :1.36014: L2-Pf-HR :0.98816: L2-HR :0.92954: (Sim:0h36m33s) 
CPU  0 inst:  296000000 cyc:  217138463 now IPC :1.38713: AVG IPC :1.36023: L2-Pf-HR :0.98816: L2-HR :0.92954: (Sim:0h36m45s) 
CPU  0 inst:  297000000 cyc:  217857209 now IPC :1.39131: AVG IPC :1.36033: L2-Pf-HR :0.98816: L2-HR :0.92953: (Sim:0h36m58s) 
CPU  0 inst:  298000000 cyc:  218577100 now IPC :1.38910: AVG IPC :1.36042: L2-Pf-HR :0.98816: L2-HR :0.92953: (Sim:0h37m7s) 
CPU  0 inst:  299000000 cyc:  219337447 now IPC :1.31519: AVG IPC :1.36027: L2-Pf-HR :0.98817: L2-HR :0.92952: (Sim:0h37m15s) 
xz: 770-tot_memTraces_v5/120-subBillion_s2048_LLM_Arch/memTraces[1319000000]_FE_[Pythia-70M]_[h8]_[s2048]_[d64].champsim.9SSize.xz: Unexpected end of input
*** Reached end of trace for Core: 0 Repeating trace: 770-tot_memTraces_v5/120-subBillion_s2048_LLM_Arch/memTraces[1319000000]_FE_[Pythia-70M]_[h8]_[s2048]_[d64].champsim.9SSize.xz
CPU  0 inst:  300000001 cyc:  220411110 now IPC :0.93139: AVG IPC :1.35817: L2-Pf-HR :0.98813: L2-HR :0.92936: (Sim:0h37m31s) 
CPU  0 inst:  301000001 cyc:  221149998 now IPC :1.35339: AVG IPC :1.35815: L2-Pf-HR :0.98812: L2-HR :0.92934: (Sim:0h37m43s) 
CPU  0 inst:  302000000 cyc:  221888921 now IPC :1.35332: AVG IPC :1.35814: L2-Pf-HR :0.98812: L2-HR :0.92931: (Sim:0h37m51s) 
CPU  0 inst:  303000000 cyc:  222627591 now IPC :1.35378: AVG IPC :1.35812: L2-Pf-HR :0.98811: L2-HR :0.92929: (Sim:0h37m59s) 
CPU  0 inst:  304000000 cyc:  223367814 now IPC :1.35094: AVG IPC :1.35810: L2-Pf-HR :0.98811: L2-HR :0.92927: (Sim:0h38m8s) 
CPU  0 inst:  305000000 cyc:  224107564 now IPC :1.35181: AVG IPC :1.35808: L2-Pf-HR :0.98810: L2-HR :0.92924: (Sim:0h38m17s) 
CPU  0 inst:  306000004 cyc:  224879922 now IPC :1.29474: AVG IPC :1.35786: L2-Pf-HR :0.98810: L2-HR :0.92922: (Sim:0h38m32s) 
CPU  0 inst:  307000002 cyc:  225618894 now IPC :1.35323: AVG IPC :1.35784: L2-Pf-HR :0.98810: L2-HR :0.92919: (Sim:0h38m47s) 
CPU  0 inst:  308000000 cyc:  226361176 now IPC :1.34719: AVG IPC :1.35781: L2-Pf-HR :0.98809: L2-HR :0.92917: (Sim:0h39m2s) 
CPU  0 inst:  309000000 cyc:  227102160 now IPC :1.34956: AVG IPC :1.35778: L2-Pf-HR :0.98809: L2-HR :0.92914: (Sim:0h39m18s) 
CPU  0 inst:  310000004 cyc:  227842547 now IPC :1.35065: AVG IPC :1.35776: L2-Pf-HR :0.98808: L2-HR :0.92912: (Sim:0h39m33s) 
CPU  0 inst:  311000004 cyc:  228581096 now IPC :1.35401: AVG IPC :1.35775: L2-Pf-HR :0.98807: L2-HR :0.92910: (Sim:0h39m48s) 
CPU  0 inst:  312000000 cyc:  229389389 now IPC :1.23717: AVG IPC :1.35732: L2-Pf-HR :0.98805: L2-HR :0.92905: (Sim:0h40m4s) 
CPU  0 inst:  313000004 cyc:  230117667 now IPC :1.37311: AVG IPC :1.35737: L2-Pf-HR :0.98805: L2-HR :0.92905: (Sim:0h40m15s) 
CPU  0 inst:  314000004 cyc:  230845086 now IPC :1.37472: AVG IPC :1.35742: L2-Pf-HR :0.98806: L2-HR :0.92904: (Sim:0h40m25s) 
CPU  0 inst:  315000003 cyc:  231575143 now IPC :1.36975: AVG IPC :1.35746: L2-Pf-HR :0.98806: L2-HR :0.92904: (Sim:0h40m34s) 
CPU  0 inst:  316000004 cyc:  232302093 now IPC :1.37561: AVG IPC :1.35752: L2-Pf-HR :0.98806: L2-HR :0.92903: (Sim:0h40m43s) 
CPU  0 inst:  317000002 cyc:  233031053 now IPC :1.37181: AVG IPC :1.35757: L2-Pf-HR :0.98806: L2-HR :0.92903: (Sim:0h40m52s) 
CPU  0 inst:  318000002 cyc:  233795181 now IPC :1.30868: AVG IPC :1.35740: L2-Pf-HR :0.98807: L2-HR :0.92902: (Sim:0h41m2s) 
CPU  0 inst:  319000002 cyc:  234520632 now IPC :1.37845: AVG IPC :1.35747: L2-Pf-HR :0.98807: L2-HR :0.92902: (Sim:0h41m12s) 
CPU  0 inst:  320000000 cyc:  235246819 now IPC :1.37705: AVG IPC :1.35753: L2-Pf-HR :0.98807: L2-HR :0.92901: (Sim:0h41m27s) 
CPU  0 inst:  321000005 cyc:  235973607 now IPC :1.37592: AVG IPC :1.35759: L2-Pf-HR :0.98807: L2-HR :0.92901: (Sim:0h41m42s) 
CPU  0 inst:  322000005 cyc:  236701463 now IPC :1.37390: AVG IPC :1.35764: L2-Pf-HR :0.98808: L2-HR :0.92901: (Sim:0h41m56s) 
CPU  0 inst:  323000000 cyc:  237425687 now IPC :1.38078: AVG IPC :1.35771: L2-Pf-HR :0.98808: L2-HR :0.92900: (Sim:0h42m11s) 
CPU  0 inst:  324000000 cyc:  238220663 now IPC :1.25790: AVG IPC :1.35737: L2-Pf-HR :0.98806: L2-HR :0.92897: (Sim:0h42m22s) 
CPU  0 inst:  325000000 cyc:  238941265 now IPC :1.38773: AVG IPC :1.35747: L2-Pf-HR :0.98806: L2-HR :0.92896: (Sim:0h42m31s) 
CPU  0 inst:  326000005 cyc:  239661057 now IPC :1.38930: AVG IPC :1.35756: L2-Pf-HR :0.98807: L2-HR :0.92896: (Sim:0h42m40s) 
CPU  0 inst:  327000000 cyc:  240383289 now IPC :1.38459: AVG IPC :1.35764: L2-Pf-HR :0.98807: L2-HR :0.92896: (Sim:0h42m49s) 
CPU  0 inst:  328000000 cyc:  241101362 now IPC :1.39262: AVG IPC :1.35775: L2-Pf-HR :0.98807: L2-HR :0.92895: (Sim:0h42m58s) 
CPU  0 inst:  329000004 cyc:  241822732 now IPC :1.38626: AVG IPC :1.35783: L2-Pf-HR :0.98807: L2-HR :0.92895: (Sim:0h43m8s) 
CPU  0 inst:  330000000 cyc:  242574315 now IPC :1.33052: AVG IPC :1.35775: L2-Pf-HR :0.98808: L2-HR :0.92895: (Sim:0h43m17s) 
CPU  0 inst:  331000004 cyc:  243285925 now IPC :1.40527: AVG IPC :1.35789: L2-Pf-HR :0.98808: L2-HR :0.92894: (Sim:0h43m26s) 
CPU  0 inst:  332000005 cyc:  243997476 now IPC :1.40538: AVG IPC :1.35803: L2-Pf-HR :0.98808: L2-HR :0.92894: (Sim:0h43m35s) 
CPU  0 inst:  333000004 cyc:  244709094 now IPC :1.40525: AVG IPC :1.35817: L2-Pf-HR :0.98809: L2-HR :0.92893: (Sim:0h43m45s) 
CPU  0 inst:  334000002 cyc:  245420195 now IPC :1.40627: AVG IPC :1.35831: L2-Pf-HR :0.98809: L2-HR :0.92893: (Sim:0h43m54s) 
CPU  0 inst:  335000002 cyc:  246128529 now IPC :1.41176: AVG IPC :1.35846: L2-Pf-HR :0.98809: L2-HR :0.92893: (Sim:0h44m3s) 
CPU  0 inst:  336000000 cyc:  246923495 now IPC :1.25791: AVG IPC :1.35813: L2-Pf-HR :0.98807: L2-HR :0.92889: (Sim:0h44m14s) 
CPU  0 inst:  337000001 cyc:  247650367 now IPC :1.37576: AVG IPC :1.35819: L2-Pf-HR :0.98807: L2-HR :0.92888: (Sim:0h44m24s) 
CPU  0 inst:  338000002 cyc:  248376132 now IPC :1.37786: AVG IPC :1.35824: L2-Pf-HR :0.98807: L2-HR :0.92888: (Sim:0h44m37s) 
CPU  0 inst:  339000003 cyc:  249103455 now IPC :1.37491: AVG IPC :1.35829: L2-Pf-HR :0.98808: L2-HR :0.92888: (Sim:0h44m51s) 
CPU  0 inst:  340000003 cyc:  249828482 now IPC :1.37926: AVG IPC :1.35835: L2-Pf-HR :0.98808: L2-HR :0.92887: (Sim:0h45m1s) 
CPU  0 inst:  341000003 cyc:  250556009 now IPC :1.37452: AVG IPC :1.35840: L2-Pf-HR :0.98808: L2-HR :0.92887: (Sim:0h45m13s) 
CPU  0 inst:  342000003 cyc:  251319776 now IPC :1.30930: AVG IPC :1.35825: L2-Pf-HR :0.98809: L2-HR :0.92887: (Sim:0h45m28s) 
CPU  0 inst:  343000002 cyc:  252047205 now IPC :1.37470: AVG IPC :1.35830: L2-Pf-HR :0.98809: L2-HR :0.92886: (Sim:0h45m43s) 
CPU  0 inst:  344000000 cyc:  252775827 now IPC :1.37245: AVG IPC :1.35834: L2-Pf-HR :0.98809: L2-HR :0.92886: (Sim:0h45m55s) 
CPU  0 inst:  345000001 cyc:  253502209 now IPC :1.37669: AVG IPC :1.35839: L2-Pf-HR :0.98810: L2-HR :0.92886: (Sim:0h46m6s) 
CPU  0 inst:  346000001 cyc:  254230745 now IPC :1.37262: AVG IPC :1.35843: L2-Pf-HR :0.98810: L2-HR :0.92885: (Sim:0h46m16s) 
CPU  0 inst:  347000001 cyc:  254953791 now IPC :1.38304: AVG IPC :1.35850: L2-Pf-HR :0.98810: L2-HR :0.92885: (Sim:0h46m28s) 
CPU  0 inst:  348000004 cyc:  255754608 now IPC :1.24873: AVG IPC :1.35816: L2-Pf-HR :0.98808: L2-HR :0.92881: (Sim:0h46m39s) 
CPU  0 inst:  349000000 cyc:  256483602 now IPC :1.37175: AVG IPC :1.35820: L2-Pf-HR :0.98808: L2-HR :0.92881: (Sim:0h46m48s) 
CPU  0 inst:  350000005 cyc:  257212520 now IPC :1.37190: AVG IPC :1.35824: L2-Pf-HR :0.98808: L2-HR :0.92880: (Sim:0h46m59s) 
CPU  0 inst:  351000005 cyc:  257943673 now IPC :1.36770: AVG IPC :1.35826: L2-Pf-HR :0.98809: L2-HR :0.92880: (Sim:0h47m11s) 
CPU  0 inst:  352000000 cyc:  258672108 now IPC :1.37280: AVG IPC :1.35830: L2-Pf-HR :0.98809: L2-HR :0.92880: (Sim:0h47m26s) 
CPU  0 inst:  353000005 cyc:  259401595 now IPC :1.37083: AVG IPC :1.35834: L2-Pf-HR :0.98809: L2-HR :0.92879: (Sim:0h47m39s) 
CPU  0 inst:  354000004 cyc:  260167238 now IPC :1.30609: AVG IPC :1.35819: L2-Pf-HR :0.98810: L2-HR :0.92879: (Sim:0h47m53s) 
CPU  0 inst:  355000005 cyc:  260892999 now IPC :1.37787: AVG IPC :1.35824: L2-Pf-HR :0.98810: L2-HR :0.92878: (Sim:0h48m8s) 
CPU  0 inst:  356000005 cyc:  261621107 now IPC :1.37342: AVG IPC :1.35828: L2-Pf-HR :0.98810: L2-HR :0.92878: (Sim:0h48m20s) 
CPU  0 inst:  357000003 cyc:  262345533 now IPC :1.38040: AVG IPC :1.35834: L2-Pf-HR :0.98810: L2-HR :0.92878: (Sim:0h48m30s) 
CPU  0 inst:  358000003 cyc:  263071491 now IPC :1.37749: AVG IPC :1.35840: L2-Pf-HR :0.98811: L2-HR :0.92878: (Sim:0h48m44s) 
CPU  0 inst:  359000003 cyc:  263795963 now IPC :1.38032: AVG IPC :1.35846: L2-Pf-HR :0.98811: L2-HR :0.92878: (Sim:0h48m58s) 
CPU  0 inst:  360000000 cyc:  264547758 now IPC :1.33015: AVG IPC :1.35838: L2-Pf-HR :0.98808: L2-HR :0.92870: (Sim:0h49m11s) 
CPU  0 inst:  361000005 cyc:  265269928 now IPC :1.38472: AVG IPC :1.35845: L2-Pf-HR :0.98802: L2-HR :0.92857: (Sim:0h49m22s) 
CPU  0 inst:  362000005 cyc:  266000107 now IPC :1.36953: AVG IPC :1.35848: L2-Pf-HR :0.98797: L2-HR :0.92844: (Sim:0h49m32s) 
CPU  0 inst:  363000000 cyc:  266716881 now IPC :1.39513: AVG IPC :1.35858: L2-Pf-HR :0.98792: L2-HR :0.92831: (Sim:0h49m46s) 
CPU  0 inst:  364000001 cyc:  267540254 now IPC :1.21452: AVG IPC :1.35813: L2-Pf-HR :0.98786: L2-HR :0.92817: (Sim:0h50m2s) 
CPU  0 inst:  365000005 cyc:  268276209 now IPC :1.35878: AVG IPC :1.35814: L2-Pf-HR :0.98786: L2-HR :0.92815: (Sim:0h50m17s) 
CPU  0 inst:  366000000 cyc:  269010238 now IPC :1.36234: AVG IPC :1.35815: L2-Pf-HR :0.98786: L2-HR :0.92812: (Sim:0h50m31s) 
CPU  0 inst:  367000003 cyc:  269748783 now IPC :1.35402: AVG IPC :1.35814: L2-Pf-HR :0.98785: L2-HR :0.92810: (Sim:0h50m45s) 
CPU  0 inst:  368000000 cyc:  270485430 now IPC :1.35750: AVG IPC :1.35813: L2-Pf-HR :0.98784: L2-HR :0.92807: (Sim:0h51m0s) 
CPU  0 inst:  369000000 cyc:  271226197 now IPC :1.34995: AVG IPC :1.35811: L2-Pf-HR :0.98784: L2-HR :0.92805: (Sim:0h51m12s) 
CPU  0 inst:  370000003 cyc:  271999496 now IPC :1.29316: AVG IPC :1.35793: L2-Pf-HR :0.98783: L2-HR :0.92802: (Sim:0h51m28s) 
CPU  0 inst:  371000001 cyc:  272742614 now IPC :1.34568: AVG IPC :1.35789: L2-Pf-HR :0.98783: L2-HR :0.92800: (Sim:0h51m42s) 
CPU  0 inst:  372000002 cyc:  273482919 now IPC :1.35080: AVG IPC :1.35787: L2-Pf-HR :0.98782: L2-HR :0.92797: (Sim:0h51m53s) 
CPU  0 inst:  373000000 cyc:  274225000 now IPC :1.34756: AVG IPC :1.35785: L2-Pf-HR :0.98782: L2-HR :0.92795: (Sim:0h52m7s) 
CPU  0 inst:  374000004 cyc:  274968845 now IPC :1.34437: AVG IPC :1.35781: L2-Pf-HR :0.98781: L2-HR :0.92793: (Sim:0h52m21s) 
CPU  0 inst:  375000002 cyc:  275714839 now IPC :1.34049: AVG IPC :1.35776: L2-Pf-HR :0.98781: L2-HR :0.92790: (Sim:0h52m34s) 
CPU  0 inst:  376000000 cyc:  276525587 now IPC :1.23343: AVG IPC :1.35740: L2-Pf-HR :0.98779: L2-HR :0.92786: (Sim:0h52m49s) 
CPU  0 inst:  377000002 cyc:  277253066 now IPC :1.37461: AVG IPC :1.35744: L2-Pf-HR :0.98779: L2-HR :0.92785: (Sim:0h53m1s) 
CPU  0 inst:  378000002 cyc:  277980219 now IPC :1.37523: AVG IPC :1.35749: L2-Pf-HR :0.98779: L2-HR :0.92785: (Sim:0h53m16s) 
CPU  0 inst:  379000003 cyc:  278705846 now IPC :1.37812: AVG IPC :1.35754: L2-Pf-HR :0.98779: L2-HR :0.92784: (Sim:0h53m31s) 
CPU  0 inst:  380000003 cyc:  279432772 now IPC :1.37566: AVG IPC :1.35759: L2-Pf-HR :0.98780: L2-HR :0.92784: (Sim:0h53m46s) 
CPU  0 inst:  381000003 cyc:  280158336 now IPC :1.37824: AVG IPC :1.35764: L2-Pf-HR :0.98780: L2-HR :0.92783: (Sim:0h54m2s) 
CPU  0 inst:  382000005 cyc:  280919504 now IPC :1.31377: AVG IPC :1.35752: L2-Pf-HR :0.98781: L2-HR :0.92783: (Sim:0h54m17s) 
CPU  0 inst:  383000002 cyc:  281633686 now IPC :1.40020: AVG IPC :1.35763: L2-Pf-HR :0.98781: L2-HR :0.92783: (Sim:0h54m32s) 
CPU  0 inst:  384000000 cyc:  282348264 now IPC :1.39942: AVG IPC :1.35774: L2-Pf-HR :0.98781: L2-HR :0.92782: (Sim:0h54m45s) 
CPU  0 inst:  385000000 cyc:  283063920 now IPC :1.39732: AVG IPC :1.35784: L2-Pf-HR :0.98781: L2-HR :0.92782: (Sim:0h55m0s) 
CPU  0 inst:  386000000 cyc:  283776035 now IPC :1.40427: AVG IPC :1.35796: L2-Pf-HR :0.98782: L2-HR :0.92781: (Sim:0h55m16s) 
CPU  0 inst:  387000001 cyc:  284490785 now IPC :1.39909: AVG IPC :1.35806: L2-Pf-HR :0.98782: L2-HR :0.92781: (Sim:0h55m31s) 
CPU  0 inst:  388000003 cyc:  285284120 now IPC :1.26050: AVG IPC :1.35779: L2-Pf-HR :0.98780: L2-HR :0.92778: (Sim:0h55m46s) 
CPU  0 inst:  389000001 cyc:  286008980 now IPC :1.37957: AVG IPC :1.35784: L2-Pf-HR :0.98780: L2-HR :0.92777: (Sim:0h56m1s) 
CPU  0 inst:  390000001 cyc:  286731894 now IPC :1.38329: AVG IPC :1.35791: L2-Pf-HR :0.98781: L2-HR :0.92777: (Sim:0h56m15s) 
CPU  0 inst:  391000005 cyc:  287453266 now IPC :1.38625: AVG IPC :1.35798: L2-Pf-HR :0.98781: L2-HR :0.92776: (Sim:0h56m26s) 
CPU  0 inst:  392000000 cyc:  288175492 now IPC :1.38460: AVG IPC :1.35805: L2-Pf-HR :0.98781: L2-HR :0.92776: (Sim:0h56m41s) 
CPU  0 inst:  393000000 cyc:  288897057 now IPC :1.38588: AVG IPC :1.35811: L2-Pf-HR :0.98782: L2-HR :0.92776: (Sim:0h56m56s) 
CPU  0 inst:  394000005 cyc:  289662064 now IPC :1.30718: AVG IPC :1.35798: L2-Pf-HR :0.98782: L2-HR :0.92775: (Sim:0h57m11s) 
CPU  0 inst:  395000005 cyc:  290390133 now IPC :1.37350: AVG IPC :1.35802: L2-Pf-HR :0.98783: L2-HR :0.92775: (Sim:0h57m24s) 
CPU  0 inst:  396000005 cyc:  291115846 now IPC :1.37796: AVG IPC :1.35807: L2-Pf-HR :0.98783: L2-HR :0.92774: (Sim:0h57m37s) 
CPU  0 inst:  397000003 cyc:  291844525 now IPC :1.37234: AVG IPC :1.35810: L2-Pf-HR :0.98783: L2-HR :0.92774: (Sim:0h57m53s) 
CPU  0 inst:  398000003 cyc:  292571075 now IPC :1.37637: AVG IPC :1.35815: L2-Pf-HR :0.98784: L2-HR :0.92774: (Sim:0h58m8s) 
CPU  0 inst:  399000002 cyc:  293299115 now IPC :1.37355: AVG IPC :1.35819: L2-Pf-HR :0.98784: L2-HR :0.92774: (Sim:0h58m23s) 
CPU  0 inst:  400000000 cyc:  294100557 now IPC :1.24775: AVG IPC :1.35789: L2-Pf-HR :0.98782: L2-HR :0.92771: (Sim:0h58m38s) 
CPU  0 inst:  401000003 cyc:  294828086 now IPC :1.37452: AVG IPC :1.35793: L2-Pf-HR :0.98783: L2-HR :0.92771: (Sim:0h58m54s) 
CPU  0 inst:  402000001 cyc:  295557896 now IPC :1.37022: AVG IPC :1.35796: L2-Pf-HR :0.98783: L2-HR :0.92771: (Sim:0h59m7s) 
CPU  0 inst:  403000001 cyc:  296285015 now IPC :1.37529: AVG IPC :1.35800: L2-Pf-HR :0.98784: L2-HR :0.92771: (Sim:0h59m21s) 
CPU  0 inst:  404000004 cyc:  297014470 now IPC :1.37089: AVG IPC :1.35803: L2-Pf-HR :0.98784: L2-HR :0.92770: (Sim:0h59m36s) 
CPU  0 inst:  405000000 cyc:  297743328 now IPC :1.37200: AVG IPC :1.35807: L2-Pf-HR :0.98784: L2-HR :0.92770: (Sim:0h59m50s) 
CPU  0 inst:  406000001 cyc:  298510218 now IPC :1.30397: AVG IPC :1.35793: L2-Pf-HR :0.98785: L2-HR :0.92770: (Sim:1h0m5s) 
CPU  0 inst:  407000001 cyc:  299236782 now IPC :1.37634: AVG IPC :1.35797: L2-Pf-HR :0.98785: L2-HR :0.92770: (Sim:1h0m20s) 
CPU  0 inst:  408000000 cyc:  299962194 now IPC :1.37853: AVG IPC :1.35802: L2-Pf-HR :0.98786: L2-HR :0.92769: (Sim:1h0m33s) 
CPU  0 inst:  409000005 cyc:  300690036 now IPC :1.37393: AVG IPC :1.35806: L2-Pf-HR :0.98786: L2-HR :0.92769: (Sim:1h0m47s) 
CPU  0 inst:  410000004 cyc:  301414448 now IPC :1.38043: AVG IPC :1.35811: L2-Pf-HR :0.98786: L2-HR :0.92769: (Sim:1h1m0s) 
CPU  0 inst:  411000001 cyc:  302140209 now IPC :1.37786: AVG IPC :1.35816: L2-Pf-HR :0.98787: L2-HR :0.92768: (Sim:1h1m15s) 
CPU  0 inst:  412000002 cyc:  302936172 now IPC :1.25634: AVG IPC :1.35789: L2-Pf-HR :0.98785: L2-HR :0.92765: (Sim:1h1m30s) 
CPU  0 inst:  413000000 cyc:  303650581 now IPC :1.39976: AVG IPC :1.35799: L2-Pf-HR :0.98785: L2-HR :0.92765: (Sim:1h1m44s) 
CPU  0 inst:  414000000 cyc:  304366084 now IPC :1.39762: AVG IPC :1.35809: L2-Pf-HR :0.98786: L2-HR :0.92765: (Sim:1h1m59s) 
CPU  0 inst:  415000000 cyc:  305080175 now IPC :1.40038: AVG IPC :1.35819: L2-Pf-HR :0.98786: L2-HR :0.92765: (Sim:1h2m14s) 
CPU  0 inst:  416000000 cyc:  305794805 now IPC :1.39933: AVG IPC :1.35828: L2-Pf-HR :0.98786: L2-HR :0.92765: (Sim:1h2m25s) 
CPU  0 inst:  417000001 cyc:  306507753 now IPC :1.40263: AVG IPC :1.35839: L2-Pf-HR :0.98787: L2-HR :0.92765: (Sim:1h2m36s) 
CPU  0 inst:  418000003 cyc:  307264582 now IPC :1.32131: AVG IPC :1.35829: L2-Pf-HR :0.98787: L2-HR :0.92765: (Sim:1h2m51s) 
CPU  0 inst:  419000000 cyc:  307990320 now IPC :1.37790: AVG IPC :1.35834: L2-Pf-HR :0.98788: L2-HR :0.92765: (Sim:1h3m7s) 
CPU  0 inst:  420000004 cyc:  308713668 now IPC :1.38247: AVG IPC :1.35840: L2-Pf-HR :0.98788: L2-HR :0.92765: (Sim:1h3m22s) 
CPU  0 inst:  421000000 cyc:  309440081 now IPC :1.37662: AVG IPC :1.35844: L2-Pf-HR :0.98789: L2-HR :0.92765: (Sim:1h3m38s) 
CPU  0 inst:  422000003 cyc:  310162193 now IPC :1.38483: AVG IPC :1.35850: L2-Pf-HR :0.98789: L2-HR :0.92765: (Sim:1h3m54s) 
CPU  0 inst:  423000004 cyc:  310883802 now IPC :1.38579: AVG IPC :1.35857: L2-Pf-HR :0.98789: L2-HR :0.92765: (Sim:1h4m9s) 
CPU  0 inst:  424000000 cyc:  311636560 now IPC :1.32844: AVG IPC :1.35849: L2-Pf-HR :0.98787: L2-HR :0.92760: (Sim:1h4m23s) 
CPU  0 inst:  425000001 cyc:  312360698 now IPC :1.38095: AVG IPC :1.35854: L2-Pf-HR :0.98783: L2-HR :0.92749: (Sim:1h4m37s) 
CPU  0 inst:  426000000 cyc:  313084749 now IPC :1.38112: AVG IPC :1.35860: L2-Pf-HR :0.98778: L2-HR :0.92737: (Sim:1h4m51s) 
CPU  0 inst:  427000000 cyc:  313795258 now IPC :1.40744: AVG IPC :1.35871: L2-Pf-HR :0.98774: L2-HR :0.92726: (Sim:1h5m5s) 
CPU  0 inst:  428000004 cyc:  314609573 now IPC :1.22803: AVG IPC :1.35837: L2-Pf-HR :0.98768: L2-HR :0.92712: (Sim:1h5m20s) 
CPU  0 inst:  429000002 cyc:  315345687 now IPC :1.35848: AVG IPC :1.35837: L2-Pf-HR :0.98768: L2-HR :0.92711: (Sim:1h5m36s) 
CPU  0 inst:  430000001 cyc:  316085190 now IPC :1.35226: AVG IPC :1.35835: L2-Pf-HR :0.98768: L2-HR :0.92709: (Sim:1h5m51s) 
CPU  0 inst:  431000000 cyc:  316818324 now IPC :1.36401: AVG IPC :1.35837: L2-Pf-HR :0.98767: L2-HR :0.92707: (Sim:1h6m6s) 
CPU  0 inst:  432000000 cyc:  317556614 now IPC :1.35448: AVG IPC :1.35836: L2-Pf-HR :0.98767: L2-HR :0.92704: (Sim:1h6m21s) 
CPU  0 inst:  433000002 cyc:  318295548 now IPC :1.35330: AVG IPC :1.35835: L2-Pf-HR :0.98766: L2-HR :0.92703: (Sim:1h6m35s) 
CPU  0 inst:  434000003 cyc:  319075977 now IPC :1.28135: AVG IPC :1.35816: L2-Pf-HR :0.98766: L2-HR :0.92701: (Sim:1h6m47s) 
CPU  0 inst:  435000004 cyc:  319816968 now IPC :1.34955: AVG IPC :1.35814: L2-Pf-HR :0.98766: L2-HR :0.92699: (Sim:1h7m1s) 
CPU  0 inst:  436000002 cyc:  320557754 now IPC :1.34991: AVG IPC :1.35812: L2-Pf-HR :0.98766: L2-HR :0.92697: (Sim:1h7m16s) 
CPU  0 inst:  437000000 cyc:  321302542 now IPC :1.34266: AVG IPC :1.35808: L2-Pf-HR :0.98766: L2-HR :0.92695: (Sim:1h7m31s) 
CPU  0 inst:  438000004 cyc:  322051454 now IPC :1.33528: AVG IPC :1.35803: L2-Pf-HR :0.98765: L2-HR :0.92694: (Sim:1h7m44s) 
CPU  0 inst:  439000005 cyc:  322793005 now IPC :1.34853: AVG IPC :1.35801: L2-Pf-HR :0.98765: L2-HR :0.92692: (Sim:1h7m59s) 
CPU  0 inst:  440000000 cyc:  323601116 now IPC :1.23745: AVG IPC :1.35771: L2-Pf-HR :0.98763: L2-HR :0.92688: (Sim:1h8m15s) 
CPU  0 inst:  441000003 cyc:  324325428 now IPC :1.38062: AVG IPC :1.35776: L2-Pf-HR :0.98764: L2-HR :0.92688: (Sim:1h8m29s) 
CPU  0 inst:  442000001 cyc:  325046108 now IPC :1.38758: AVG IPC :1.35782: L2-Pf-HR :0.98764: L2-HR :0.92688: (Sim:1h8m41s) 
CPU  0 inst:  443000001 cyc:  325769082 now IPC :1.38318: AVG IPC :1.35788: L2-Pf-HR :0.98764: L2-HR :0.92688: (Sim:1h8m54s) 
CPU  0 inst:  444000003 cyc:  326490179 now IPC :1.38678: AVG IPC :1.35794: L2-Pf-HR :0.98765: L2-HR :0.92688: (Sim:1h9m9s) 
CPU  0 inst:  445000001 cyc:  327212318 now IPC :1.38477: AVG IPC :1.35800: L2-Pf-HR :0.98765: L2-HR :0.92687: (Sim:1h9m24s) 
CPU  0 inst:  446000001 cyc:  327973679 now IPC :1.31344: AVG IPC :1.35790: L2-Pf-HR :0.98766: L2-HR :0.92688: (Sim:1h9m39s) 
CPU  0 inst:  447000001 cyc:  328695195 now IPC :1.38597: AVG IPC :1.35796: L2-Pf-HR :0.98766: L2-HR :0.92687: (Sim:1h9m52s) 
CPU  0 inst:  448000000 cyc:  329418714 now IPC :1.38213: AVG IPC :1.35801: L2-Pf-HR :0.98767: L2-HR :0.92687: (Sim:1h10m7s) 
CPU  0 inst:  449000005 cyc:  330139722 now IPC :1.38695: AVG IPC :1.35808: L2-Pf-HR :0.98767: L2-HR :0.92687: (Sim:1h10m21s) 
CPU  0 inst:  450000001 cyc:  330862822 now IPC :1.38293: AVG IPC :1.35813: L2-Pf-HR :0.98768: L2-HR :0.92687: (Sim:1h10m33s) 
CPU  0 inst:  451000005 cyc:  331580874 now IPC :1.39266: AVG IPC :1.35821: L2-Pf-HR :0.98768: L2-HR :0.92687: (Sim:1h10m44s) 
CPU  0 inst:  452000002 cyc:  332382415 now IPC :1.24759: AVG IPC :1.35794: L2-Pf-HR :0.98766: L2-HR :0.92685: (Sim:1h10m56s) 
CPU  0 inst:  453000002 cyc:  333111866 now IPC :1.37089: AVG IPC :1.35797: L2-Pf-HR :0.98767: L2-HR :0.92685: (Sim:1h11m11s) 
CPU  0 inst:  454000000 cyc:  333839136 now IPC :1.37500: AVG IPC :1.35801: L2-Pf-HR :0.98767: L2-HR :0.92685: (Sim:1h11m26s) 
CPU  0 inst:  455000005 cyc:  334568505 now IPC :1.37106: AVG IPC :1.35803: L2-Pf-HR :0.98768: L2-HR :0.92685: (Sim:1h11m38s) 
CPU  0 inst:  456000000 cyc:  335295732 now IPC :1.37508: AVG IPC :1.35807: L2-Pf-HR :0.98768: L2-HR :0.92685: (Sim:1h11m53s) 
CPU  0 inst:  457000001 cyc:  336024009 now IPC :1.37311: AVG IPC :1.35810: L2-Pf-HR :0.98768: L2-HR :0.92685: (Sim:1h12m9s) 
CPU  0 inst:  458000003 cyc:  336791895 now IPC :1.30228: AVG IPC :1.35798: L2-Pf-HR :0.98769: L2-HR :0.92685: (Sim:1h12m24s) 
CPU  0 inst:  459000001 cyc:  337520938 now IPC :1.37166: AVG IPC :1.35801: L2-Pf-HR :0.98770: L2-HR :0.92685: (Sim:1h12m37s) 
CPU  0 inst:  460000004 cyc:  338250217 now IPC :1.37122: AVG IPC :1.35803: L2-Pf-HR :0.98770: L2-HR :0.92685: (Sim:1h12m49s) 
CPU  0 inst:  461000000 cyc:  338979831 now IPC :1.37058: AVG IPC :1.35806: L2-Pf-HR :0.98770: L2-HR :0.92685: (Sim:1h13m4s) 
CPU  0 inst:  462000004 cyc:  339709625 now IPC :1.37026: AVG IPC :1.35809: L2-Pf-HR :0.98771: L2-HR :0.92685: (Sim:1h13m20s) 
CPU  0 inst:  463000004 cyc:  340433742 now IPC :1.38099: AVG IPC :1.35814: L2-Pf-HR :0.98771: L2-HR :0.92685: (Sim:1h13m34s) 
CPU  0 inst:  464000000 cyc:  341231945 now IPC :1.25281: AVG IPC :1.35789: L2-Pf-HR :0.98769: L2-HR :0.92683: (Sim:1h13m50s) 
CPU  0 inst:  465000002 cyc:  341959756 now IPC :1.37399: AVG IPC :1.35792: L2-Pf-HR :0.98770: L2-HR :0.92683: (Sim:1h14m5s) 
CPU  0 inst:  466000001 cyc:  342686375 now IPC :1.37624: AVG IPC :1.35796: L2-Pf-HR :0.98770: L2-HR :0.92683: (Sim:1h14m20s) 
CPU  0 inst:  467000004 cyc:  343415936 now IPC :1.37069: AVG IPC :1.35799: L2-Pf-HR :0.98771: L2-HR :0.92683: (Sim:1h14m32s) 
CPU  0 inst:  468000002 cyc:  344143234 now IPC :1.37495: AVG IPC :1.35803: L2-Pf-HR :0.98771: L2-HR :0.92683: (Sim:1h14m47s) 
CPU  0 inst:  469000002 cyc:  344870141 now IPC :1.37569: AVG IPC :1.35806: L2-Pf-HR :0.98771: L2-HR :0.92683: (Sim:1h15m3s) 
CPU  0 inst:  470000002 cyc:  345637563 now IPC :1.30306: AVG IPC :1.35794: L2-Pf-HR :0.98772: L2-HR :0.92683: (Sim:1h15m18s) 
CPU  0 inst:  471000005 cyc:  346366987 now IPC :1.37095: AVG IPC :1.35797: L2-Pf-HR :0.98772: L2-HR :0.92683: (Sim:1h15m33s) 
CPU  0 inst:  472000000 cyc:  347097942 now IPC :1.36807: AVG IPC :1.35799: L2-Pf-HR :0.98773: L2-HR :0.92683: (Sim:1h15m48s) 
CPU  0 inst:  473000000 cyc:  347827167 now IPC :1.37132: AVG IPC :1.35802: L2-Pf-HR :0.98773: L2-HR :0.92683: (Sim:1h16m3s) 
CPU  0 inst:  474000003 cyc:  348555582 now IPC :1.37285: AVG IPC :1.35805: L2-Pf-HR :0.98773: L2-HR :0.92683: (Sim:1h16m18s) 
CPU  0 inst:  475000000 cyc:  349283701 now IPC :1.37340: AVG IPC :1.35808: L2-Pf-HR :0.98774: L2-HR :0.92683: (Sim:1h16m33s) 
CPU  0 inst:  476000000 cyc:  350088969 now IPC :1.24182: AVG IPC :1.35781: L2-Pf-HR :0.98772: L2-HR :0.92680: (Sim:1h16m48s) 
CPU  0 inst:  477000003 cyc:  350819061 now IPC :1.36969: AVG IPC :1.35784: L2-Pf-HR :0.98773: L2-HR :0.92680: (Sim:1h17m3s) 
CPU  0 inst:  478000000 cyc:  351545913 now IPC :1.37579: AVG IPC :1.35787: L2-Pf-HR :0.98773: L2-HR :0.92680: (Sim:1h17m18s) 
CPU  0 inst:  479000004 cyc:  352272903 now IPC :1.37554: AVG IPC :1.35791: L2-Pf-HR :0.98773: L2-HR :0.92680: (Sim:1h17m33s) 
CPU  0 inst:  480000000 cyc:  352999585 now IPC :1.37611: AVG IPC :1.35795: L2-Pf-HR :0.98774: L2-HR :0.92680: (Sim:1h17m48s) 
CPU  0 inst:  481000004 cyc:  353727723 now IPC :1.37337: AVG IPC :1.35798: L2-Pf-HR :0.98774: L2-HR :0.92680: (Sim:1h18m4s) 
CPU  0 inst:  482000004 cyc:  354495887 now IPC :1.30181: AVG IPC :1.35786: L2-Pf-HR :0.98775: L2-HR :0.92680: (Sim:1h18m19s) 
CPU  0 inst:  483000004 cyc:  355223364 now IPC :1.37461: AVG IPC :1.35789: L2-Pf-HR :0.98775: L2-HR :0.92680: (Sim:1h18m34s) 
CPU  0 inst:  484000002 cyc:  355951573 now IPC :1.37323: AVG IPC :1.35792: L2-Pf-HR :0.98775: L2-HR :0.92680: (Sim:1h18m50s) 
CPU  0 inst:  485000002 cyc:  356679457 now IPC :1.37385: AVG IPC :1.35796: L2-Pf-HR :0.98776: L2-HR :0.92680: (Sim:1h19m5s) 
CPU  0 inst:  486000002 cyc:  357407150 now IPC :1.37421: AVG IPC :1.35799: L2-Pf-HR :0.98776: L2-HR :0.92680: (Sim:1h19m19s) 
CPU  0 inst:  487000002 cyc:  358134848 now IPC :1.37420: AVG IPC :1.35802: L2-Pf-HR :0.98777: L2-HR :0.92680: (Sim:1h19m34s) 
CPU  0 inst:  488000000 cyc:  358891712 now IPC :1.32124: AVG IPC :1.35795: L2-Pf-HR :0.98775: L2-HR :0.92677: (Sim:1h19m49s) 
CPU  0 inst:  489000000 cyc:  359622985 now IPC :1.36748: AVG IPC :1.35796: L2-Pf-HR :0.98772: L2-HR :0.92667: (Sim:1h20m2s) 
CPU  0 inst:  490000003 cyc:  360353715 now IPC :1.36850: AVG IPC :1.35799: L2-Pf-HR :0.98768: L2-HR :0.92657: (Sim:1h20m12s) 
CPU  0 inst:  491000001 cyc:  361069238 now IPC :1.39758: AVG IPC :1.35806: L2-Pf-HR :0.98764: L2-HR :0.92647: (Sim:1h20m26s) 
CPU  0 inst:  492000000 cyc:  361885670 now IPC :1.22484: AVG IPC :1.35776: L2-Pf-HR :0.98759: L2-HR :0.92634: (Sim:1h20m42s) 
CPU  0 inst:  493000001 cyc:  362607794 now IPC :1.38481: AVG IPC :1.35782: L2-Pf-HR :0.98759: L2-HR :0.92633: (Sim:1h20m57s) 
CPU  0 inst:  494000005 cyc:  363327710 now IPC :1.38906: AVG IPC :1.35788: L2-Pf-HR :0.98759: L2-HR :0.92631: (Sim:1h21m10s) 
CPU  0 inst:  495000000 cyc:  364050317 now IPC :1.38387: AVG IPC :1.35793: L2-Pf-HR :0.98759: L2-HR :0.92630: (Sim:1h21m24s) 
CPU  0 inst:  496000000 cyc:  364770644 now IPC :1.38826: AVG IPC :1.35799: L2-Pf-HR :0.98758: L2-HR :0.92628: (Sim:1h21m37s) 
CPU  0 inst:  497000004 cyc:  365495036 now IPC :1.38047: AVG IPC :1.35804: L2-Pf-HR :0.98758: L2-HR :0.92627: (Sim:1h21m53s) 
CPU  0 inst:  498000005 cyc:  366266416 now IPC :1.29638: AVG IPC :1.35791: L2-Pf-HR :0.98758: L2-HR :0.92625: (Sim:1h22m9s) 
CPU  0 inst:  499000000 cyc:  367008908 now IPC :1.34681: AVG IPC :1.35788: L2-Pf-HR :0.98758: L2-HR :0.92624: (Sim:1h22m24s) 
CPU  0 inst:  500000002 cyc:  367750861 now IPC :1.34780: AVG IPC :1.35786: L2-Pf-HR :0.98757: L2-HR :0.92622: (Sim:1h22m40s) 
CPU  0 inst:  501000000 cyc:  368496469 now IPC :1.34118: AVG IPC :1.35783: L2-Pf-HR :0.98757: L2-HR :0.92621: (Sim:1h22m55s) 
CPU  0 inst:  502000004 cyc:  369244256 now IPC :1.33728: AVG IPC :1.35779: L2-Pf-HR :0.98757: L2-HR :0.92619: (Sim:1h23m10s) 
CPU  0 inst:  503000005 cyc:  369994116 now IPC :1.33358: AVG IPC :1.35774: L2-Pf-HR :0.98757: L2-HR :0.92618: (Sim:1h23m25s) 
CPU  0 inst:  504000000 cyc:  370807478 now IPC :1.22946: AVG IPC :1.35746: L2-Pf-HR :0.98755: L2-HR :0.92614: (Sim:1h23m42s) 
CPU  0 inst:  505000003 cyc:  371542634 now IPC :1.36026: AVG IPC :1.35746: L2-Pf-HR :0.98755: L2-HR :0.92614: (Sim:1h23m57s) 
CPU  0 inst:  506000002 cyc:  372274703 now IPC :1.36599: AVG IPC :1.35748: L2-Pf-HR :0.98756: L2-HR :0.92614: (Sim:1h24m11s) 
CPU  0 inst:  507000002 cyc:  373003097 now IPC :1.37288: AVG IPC :1.35751: L2-Pf-HR :0.98756: L2-HR :0.92614: (Sim:1h24m26s) 
CPU  0 inst:  508000002 cyc:  373732048 now IPC :1.37183: AVG IPC :1.35754: L2-Pf-HR :0.98756: L2-HR :0.92614: (Sim:1h24m41s) 
CPU  0 inst:  509000002 cyc:  374460082 now IPC :1.37356: AVG IPC :1.35757: L2-Pf-HR :0.98757: L2-HR :0.92614: (Sim:1h24m54s) 
CPU  0 inst:  510000002 cyc:  375224657 now IPC :1.30792: AVG IPC :1.35747: L2-Pf-HR :0.98757: L2-HR :0.92614: (Sim:1h25m5s) 
CPU  0 inst:  511000000 cyc:  375940586 now IPC :1.39678: AVG IPC :1.35754: L2-Pf-HR :0.98758: L2-HR :0.92614: (Sim:1h25m19s) 
CPU  0 inst:  512000000 cyc:  376653589 now IPC :1.40252: AVG IPC :1.35763: L2-Pf-HR :0.98758: L2-HR :0.92614: (Sim:1h25m33s) 
CPU  0 inst:  513000000 cyc:  377367801 now IPC :1.40014: AVG IPC :1.35771: L2-Pf-HR :0.98758: L2-HR :0.92614: (Sim:1h25m49s) 
CPU  0 inst:  514000003 cyc:  378079731 now IPC :1.40464: AVG IPC :1.35780: L2-Pf-HR :0.98759: L2-HR :0.92614: (Sim:1h26m5s) 
CPU  0 inst:  515000000 cyc:  378792459 now IPC :1.40306: AVG IPC :1.35788: L2-Pf-HR :0.98759: L2-HR :0.92614: (Sim:1h26m20s) 
CPU  0 inst:  516000003 cyc:  379582145 now IPC :1.26633: AVG IPC :1.35769: L2-Pf-HR :0.98758: L2-HR :0.92612: (Sim:1h26m36s) 
CPU  0 inst:  517000003 cyc:  380295746 now IPC :1.40134: AVG IPC :1.35777: L2-Pf-HR :0.98758: L2-HR :0.92612: (Sim:1h26m51s) 
CPU  0 inst:  518000004 cyc:  381011188 now IPC :1.39774: AVG IPC :1.35785: L2-Pf-HR :0.98759: L2-HR :0.92612: (Sim:1h27m7s) 
CPU  0 inst:  519000004 cyc:  381724283 now IPC :1.40234: AVG IPC :1.35793: L2-Pf-HR :0.98759: L2-HR :0.92612: (Sim:1h27m21s) 
CPU  0 inst:  520000000 cyc:  382438688 now IPC :1.39976: AVG IPC :1.35801: L2-Pf-HR :0.98759: L2-HR :0.92612: (Sim:1h27m37s) 
CPU  0 inst:  521000004 cyc:  383152835 now IPC :1.40028: AVG IPC :1.35809: L2-Pf-HR :0.98760: L2-HR :0.92611: (Sim:1h27m48s) 
CPU  0 inst:  522000003 cyc:  383910960 now IPC :1.31904: AVG IPC :1.35801: L2-Pf-HR :0.98760: L2-HR :0.92611: (Sim:1h28m3s) 
CPU  0 inst:  523000002 cyc:  384639934 now IPC :1.37179: AVG IPC :1.35804: L2-Pf-HR :0.98761: L2-HR :0.92611: (Sim:1h28m18s) 
CPU  0 inst:  524000002 cyc:  385364958 now IPC :1.37926: AVG IPC :1.35808: L2-Pf-HR :0.98761: L2-HR :0.92611: (Sim:1h28m33s) 
CPU  0 inst:  525000002 cyc:  386094080 now IPC :1.37151: AVG IPC :1.35810: L2-Pf-HR :0.98761: L2-HR :0.92611: (Sim:1h28m49s) 
CPU  0 inst:  526000002 cyc:  386821003 now IPC :1.37566: AVG IPC :1.35814: L2-Pf-HR :0.98762: L2-HR :0.92611: (Sim:1h29m4s) 
CPU  0 inst:  527000002 cyc:  387547524 now IPC :1.37642: AVG IPC :1.35817: L2-Pf-HR :0.98762: L2-HR :0.92611: (Sim:1h29m19s) 
CPU  0 inst:  528000000 cyc:  388346358 now IPC :1.25182: AVG IPC :1.35795: L2-Pf-HR :0.98761: L2-HR :0.92609: (Sim:1h29m35s) 
CPU  0 inst:  529000003 cyc:  389064758 now IPC :1.39199: AVG IPC :1.35801: L2-Pf-HR :0.98761: L2-HR :0.92609: (Sim:1h29m51s) 
CPU  0 inst:  530000003 cyc:  389783683 now IPC :1.39097: AVG IPC :1.35807: L2-Pf-HR :0.98762: L2-HR :0.92609: (Sim:1h30m6s) 
CPU  0 inst:  531000002 cyc:  390500622 now IPC :1.39482: AVG IPC :1.35814: L2-Pf-HR :0.98762: L2-HR :0.92609: (Sim:1h30m21s) 
CPU  0 inst:  532000003 cyc:  391218506 now IPC :1.39298: AVG IPC :1.35821: L2-Pf-HR :0.98762: L2-HR :0.92609: (Sim:1h30m37s) 
CPU  0 inst:  533000004 cyc:  391939049 now IPC :1.38784: AVG IPC :1.35826: L2-Pf-HR :0.98763: L2-HR :0.92609: (Sim:1h30m52s) 
CPU  0 inst:  534000002 cyc:  392697398 now IPC :1.31865: AVG IPC :1.35818: L2-Pf-HR :0.98763: L2-HR :0.92609: (Sim:1h31m7s) 
CPU  0 inst:  535000001 cyc:  393422434 now IPC :1.37924: AVG IPC :1.35822: L2-Pf-HR :0.98763: L2-HR :0.92609: (Sim:1h31m22s) 
CPU  0 inst:  536000000 cyc:  394145927 now IPC :1.38218: AVG IPC :1.35827: L2-Pf-HR :0.98764: L2-HR :0.92609: (Sim:1h31m37s) 
CPU  0 inst:  537000004 cyc:  394872193 now IPC :1.37691: AVG IPC :1.35830: L2-Pf-HR :0.98764: L2-HR :0.92609: (Sim:1h31m51s) 
CPU  0 inst:  538000004 cyc:  395595242 now IPC :1.38303: AVG IPC :1.35835: L2-Pf-HR :0.98765: L2-HR :0.92609: (Sim:1h32m5s) 
CPU  0 inst:  539000000 cyc:  396319850 now IPC :1.38005: AVG IPC :1.35839: L2-Pf-HR :0.98765: L2-HR :0.92609: (Sim:1h32m18s) 
CPU  0 inst:  540000005 cyc:  397122016 now IPC :1.24663: AVG IPC :1.35816: L2-Pf-HR :0.98764: L2-HR :0.92607: (Sim:1h32m33s) 
CPU  0 inst:  541000005 cyc:  397842008 now IPC :1.38890: AVG IPC :1.35822: L2-Pf-HR :0.98764: L2-HR :0.92607: (Sim:1h32m45s) 
CPU  0 inst:  542000005 cyc:  398562437 now IPC :1.38806: AVG IPC :1.35827: L2-Pf-HR :0.98765: L2-HR :0.92606: (Sim:1h32m57s) 
CPU  0 inst:  543000005 cyc:  399283872 now IPC :1.38613: AVG IPC :1.35832: L2-Pf-HR :0.98765: L2-HR :0.92606: (Sim:1h33m12s) 
CPU  0 inst:  544000000 cyc:  400005561 now IPC :1.38563: AVG IPC :1.35837: L2-Pf-HR :0.98765: L2-HR :0.92606: (Sim:1h33m27s) 
CPU  0 inst:  545000005 cyc:  400730086 now IPC :1.38022: AVG IPC :1.35841: L2-Pf-HR :0.98765: L2-HR :0.92606: (Sim:1h33m42s) 
CPU  0 inst:  546000003 cyc:  401490698 now IPC :1.31473: AVG IPC :1.35833: L2-Pf-HR :0.98766: L2-HR :0.92607: (Sim:1h33m57s) 
CPU  0 inst:  547000003 cyc:  402218424 now IPC :1.37414: AVG IPC :1.35836: L2-Pf-HR :0.98766: L2-HR :0.92607: (Sim:1h34m10s) 
CPU  0 inst:  548000003 cyc:  402943672 now IPC :1.37884: AVG IPC :1.35839: L2-Pf-HR :0.98767: L2-HR :0.92607: (Sim:1h34m24s) 
CPU  0 inst:  549000003 cyc:  403670034 now IPC :1.37672: AVG IPC :1.35843: L2-Pf-HR :0.98767: L2-HR :0.92607: (Sim:1h34m36s) 
CPU  0 inst:  550000002 cyc:  404395548 now IPC :1.37833: AVG IPC :1.35846: L2-Pf-HR :0.98767: L2-HR :0.92607: (Sim:1h34m48s) 
CPU  0 inst:  551000005 cyc:  405120008 now IPC :1.38034: AVG IPC :1.35850: L2-Pf-HR :0.98768: L2-HR :0.92607: (Sim:1h35m4s) 
CPU  0 inst:  552000000 cyc:  405872748 now IPC :1.32847: AVG IPC :1.35844: L2-Pf-HR :0.98767: L2-HR :0.92605: (Sim:1h35m20s) 
CPU  0 inst:  553000003 cyc:  406608386 now IPC :1.35937: AVG IPC :1.35845: L2-Pf-HR :0.98764: L2-HR :0.92596: (Sim:1h35m34s) 
CPU  0 inst:  554000002 cyc:  407337386 now IPC :1.37174: AVG IPC :1.35847: L2-Pf-HR :0.98761: L2-HR :0.92587: (Sim:1h35m49s) 
CPU  0 inst:  555000003 cyc:  408029723 now IPC :1.44438: AVG IPC :1.35862: L2-Pf-HR :0.98757: L2-HR :0.92578: (Sim:1h36m3s) 
CPU  0 inst:  556000000 cyc:  408823379 now IPC :1.25999: AVG IPC :1.35842: L2-Pf-HR :0.98753: L2-HR :0.92566: (Sim:1h36m16s) 
CPU  0 inst:  557000001 cyc:  409561188 now IPC :1.35537: AVG IPC :1.35842: L2-Pf-HR :0.98752: L2-HR :0.92564: (Sim:1h36m28s) 
CPU  0 inst:  558000005 cyc:  410300250 now IPC :1.35307: AVG IPC :1.35841: L2-Pf-HR :0.98752: L2-HR :0.92563: (Sim:1h36m44s) 
CPU  0 inst:  559000000 cyc:  411037605 now IPC :1.35619: AVG IPC :1.35841: L2-Pf-HR :0.98752: L2-HR :0.92562: (Sim:1h36m59s) 
CPU  0 inst:  560000000 cyc:  411778571 now IPC :1.34959: AVG IPC :1.35839: L2-Pf-HR :0.98752: L2-HR :0.92560: (Sim:1h37m15s) 
CPU  0 inst:  561000002 cyc:  412517850 now IPC :1.35267: AVG IPC :1.35838: L2-Pf-HR :0.98752: L2-HR :0.92559: (Sim:1h37m30s) 
CPU  0 inst:  562000002 cyc:  413297929 now IPC :1.28192: AVG IPC :1.35823: L2-Pf-HR :0.98752: L2-HR :0.92557: (Sim:1h37m44s) 
CPU  0 inst:  563000001 cyc:  414037626 now IPC :1.35190: AVG IPC :1.35822: L2-Pf-HR :0.98751: L2-HR :0.92556: (Sim:1h38m0s) 
CPU  0 inst:  564000001 cyc:  414779259 now IPC :1.34838: AVG IPC :1.35821: L2-Pf-HR :0.98751: L2-HR :0.92554: (Sim:1h38m15s) 
CPU  0 inst:  565000000 cyc:  415519681 now IPC :1.35058: AVG IPC :1.35819: L2-Pf-HR :0.98751: L2-HR :0.92553: (Sim:1h38m30s) 
CPU  0 inst:  566000000 cyc:  416264151 now IPC :1.34324: AVG IPC :1.35817: L2-Pf-HR :0.98751: L2-HR :0.92552: (Sim:1h38m46s) 
CPU  0 inst:  567000005 cyc:  417009411 now IPC :1.34182: AVG IPC :1.35814: L2-Pf-HR :0.98751: L2-HR :0.92551: (Sim:1h39m0s) 
CPU  0 inst:  568000000 cyc:  417782077 now IPC :1.29421: AVG IPC :1.35802: L2-Pf-HR :0.98749: L2-HR :0.92548: (Sim:1h39m15s) 
CPU  0 inst:  569000003 cyc:  418562920 now IPC :1.28067: AVG IPC :1.35787: L2-Pf-HR :0.98749: L2-HR :0.92547: (Sim:1h39m30s) 
CPU  0 inst:  570000003 cyc:  419296066 now IPC :1.36398: AVG IPC :1.35788: L2-Pf-HR :0.98750: L2-HR :0.92547: (Sim:1h39m44s) 
CPU  0 inst:  571000003 cyc:  420029507 now IPC :1.36344: AVG IPC :1.35789: L2-Pf-HR :0.98750: L2-HR :0.92547: (Sim:1h39m56s) 
CPU  0 inst:  572000003 cyc:  420763238 now IPC :1.36290: AVG IPC :1.35790: L2-Pf-HR :0.98750: L2-HR :0.92547: (Sim:1h40m10s) 
CPU  0 inst:  573000005 cyc:  421498060 now IPC :1.36088: AVG IPC :1.35791: L2-Pf-HR :0.98751: L2-HR :0.92547: (Sim:1h40m26s) 
CPU  0 inst:  574000003 cyc:  422267295 now IPC :1.29999: AVG IPC :1.35780: L2-Pf-HR :0.98751: L2-HR :0.92547: (Sim:1h40m41s) 
CPU  0 inst:  575000001 cyc:  422981542 now IPC :1.40007: AVG IPC :1.35787: L2-Pf-HR :0.98751: L2-HR :0.92547: (Sim:1h40m57s) 
CPU  0 inst:  576000000 cyc:  423696469 now IPC :1.39874: AVG IPC :1.35794: L2-Pf-HR :0.98752: L2-HR :0.92547: (Sim:1h41m12s) 
CPU  0 inst:  577000001 cyc:  424409132 now IPC :1.40319: AVG IPC :1.35802: L2-Pf-HR :0.98752: L2-HR :0.92546: (Sim:1h41m27s) 
CPU  0 inst:  578000000 cyc:  425122261 now IPC :1.40227: AVG IPC :1.35809: L2-Pf-HR :0.98752: L2-HR :0.92546: (Sim:1h41m42s) 
CPU  0 inst:  579000001 cyc:  425836270 now IPC :1.40054: AVG IPC :1.35816: L2-Pf-HR :0.98753: L2-HR :0.92546: (Sim:1h41m57s) 
CPU  0 inst:  580000005 cyc:  426590953 now IPC :1.32507: AVG IPC :1.35811: L2-Pf-HR :0.98752: L2-HR :0.92544: (Sim:1h42m13s) 
CPU  0 inst:  581000005 cyc:  427357839 now IPC :1.30397: AVG IPC :1.35801: L2-Pf-HR :0.98752: L2-HR :0.92544: (Sim:1h42m29s) 
CPU  0 inst:  582000005 cyc:  428085264 now IPC :1.37471: AVG IPC :1.35804: L2-Pf-HR :0.98752: L2-HR :0.92544: (Sim:1h42m44s) 
CPU  0 inst:  583000005 cyc:  428815049 now IPC :1.37027: AVG IPC :1.35806: L2-Pf-HR :0.98753: L2-HR :0.92544: (Sim:1h42m59s) 
CPU  0 inst:  584000000 cyc:  429544382 now IPC :1.37111: AVG IPC :1.35808: L2-Pf-HR :0.98753: L2-HR :0.92544: (Sim:1h43m15s) 
CPU  0 inst:  585000005 cyc:  430272012 now IPC :1.37433: AVG IPC :1.35811: L2-Pf-HR :0.98753: L2-HR :0.92544: (Sim:1h43m30s) 
CPU  0 inst:  586000003 cyc:  431042580 now IPC :1.29774: AVG IPC :1.35800: L2-Pf-HR :0.98754: L2-HR :0.92544: (Sim:1h43m46s) 
CPU  0 inst:  587000003 cyc:  431770957 now IPC :1.37292: AVG IPC :1.35802: L2-Pf-HR :0.98754: L2-HR :0.92544: (Sim:1h44m1s) 
CPU  0 inst:  588000003 cyc:  432500418 now IPC :1.37088: AVG IPC :1.35805: L2-Pf-HR :0.98755: L2-HR :0.92543: (Sim:1h44m13s) 
CPU  0 inst:  589000000 cyc:  433230557 now IPC :1.36960: AVG IPC :1.35807: L2-Pf-HR :0.98755: L2-HR :0.92543: (Sim:1h44m27s) 
CPU  0 inst:  590000002 cyc:  433960733 now IPC :1.36954: AVG IPC :1.35808: L2-Pf-HR :0.98755: L2-HR :0.92543: (Sim:1h44m42s) 
CPU  0 inst:  591000003 cyc:  434691430 now IPC :1.36856: AVG IPC :1.35810: L2-Pf-HR :0.98756: L2-HR :0.92543: (Sim:1h44m54s) 
CPU  0 inst:  592000000 cyc:  435456572 now IPC :1.30694: AVG IPC :1.35801: L2-Pf-HR :0.98755: L2-HR :0.92542: (Sim:1h45m7s) 
CPU  0 inst:  593000004 cyc:  436211333 now IPC :1.32493: AVG IPC :1.35795: L2-Pf-HR :0.98755: L2-HR :0.92542: (Sim:1h45m22s) 
CPU  0 inst:  594000001 cyc:  436932197 now IPC :1.38722: AVG IPC :1.35800: L2-Pf-HR :0.98755: L2-HR :0.92542: (Sim:1h45m34s) 
CPU  0 inst:  595000003 cyc:  437653449 now IPC :1.38648: AVG IPC :1.35805: L2-Pf-HR :0.98756: L2-HR :0.92542: (Sim:1h45m49s) 
CPU  0 inst:  596000001 cyc:  438375221 now IPC :1.38548: AVG IPC :1.35810: L2-Pf-HR :0.98756: L2-HR :0.92542: (Sim:1h46m5s) 
CPU  0 inst:  597000001 cyc:  439094901 now IPC :1.38951: AVG IPC :1.35815: L2-Pf-HR :0.98757: L2-HR :0.92542: (Sim:1h46m20s) 
CPU  0 inst:  598000002 cyc:  439856330 now IPC :1.31332: AVG IPC :1.35807: L2-Pf-HR :0.98757: L2-HR :0.92542: (Sim:1h46m36s) 
xz: 770-tot_memTraces_v5/120-subBillion_s2048_LLM_Arch/memTraces[1319000000]_FE_[Pythia-70M]_[h8]_[s2048]_[d64].champsim.9SSize.xz: Unexpected end of input
*** Reached end of trace for Core: 0 Repeating trace: 770-tot_memTraces_v5/120-subBillion_s2048_LLM_Arch/memTraces[1319000000]_FE_[Pythia-70M]_[h8]_[s2048]_[d64].champsim.9SSize.xz
CPU  0 inst:  599000005 cyc:  440904522 now IPC :0.95403: AVG IPC :1.35711: L2-Pf-HR :0.98755: L2-HR :0.92534: (Sim:1h46m50s) 
CPU  0 inst:  600000000 cyc:  441642298 now IPC :1.35542: AVG IPC :1.35710: L2-Pf-HR :0.98755: L2-HR :0.92533: (Sim:1h47m1s) 
CPU  0 inst:  601000004 cyc:  442380706 now IPC :1.35427: AVG IPC :1.35710: L2-Pf-HR :0.98755: L2-HR :0.92532: (Sim:1h47m17s) 
CPU  0 inst:  602000005 cyc:  443119783 now IPC :1.35304: AVG IPC :1.35709: L2-Pf-HR :0.98755: L2-HR :0.92531: (Sim:1h47m32s) 
CPU  0 inst:  603000002 cyc:  443861565 now IPC :1.34810: AVG IPC :1.35708: L2-Pf-HR :0.98755: L2-HR :0.92530: (Sim:1h47m47s) 
CPU  0 inst:  604000001 cyc:  444600441 now IPC :1.35341: AVG IPC :1.35707: L2-Pf-HR :0.98755: L2-HR :0.92529: (Sim:1h48m3s) 
CPU  0 inst:  605000001 cyc:  445373791 now IPC :1.29308: AVG IPC :1.35696: L2-Pf-HR :0.98755: L2-HR :0.92528: (Sim:1h48m19s) 
CPU  0 inst:  606000000 cyc:  446112897 now IPC :1.35298: AVG IPC :1.35695: L2-Pf-HR :0.98755: L2-HR :0.92527: (Sim:1h48m35s) 
CPU  0 inst:  607000000 cyc:  446855319 now IPC :1.34694: AVG IPC :1.35694: L2-Pf-HR :0.98755: L2-HR :0.92526: (Sim:1h48m49s) 
CPU  0 inst:  608000000 cyc:  447595115 now IPC :1.35172: AVG IPC :1.35693: L2-Pf-HR :0.98755: L2-HR :0.92525: (Sim:1h49m5s) 
CPU  0 inst:  609000003 cyc:  448336018 now IPC :1.34971: AVG IPC :1.35692: L2-Pf-HR :0.98755: L2-HR :0.92525: (Sim:1h49m21s) 
CPU  0 inst:  610000001 cyc:  449077058 now IPC :1.34945: AVG IPC :1.35690: L2-Pf-HR :0.98755: L2-HR :0.92524: (Sim:1h49m36s) 
CPU  0 inst:  611000005 cyc:  449892385 now IPC :1.22651: AVG IPC :1.35667: L2-Pf-HR :0.98754: L2-HR :0.92521: (Sim:1h49m52s) 
CPU  0 inst:  612000003 cyc:  450623841 now IPC :1.36713: AVG IPC :1.35668: L2-Pf-HR :0.98754: L2-HR :0.92521: (Sim:1h50m8s) 
CPU  0 inst:  613000003 cyc:  451351282 now IPC :1.37468: AVG IPC :1.35671: L2-Pf-HR :0.98755: L2-HR :0.92521: (Sim:1h50m23s) 
CPU  0 inst:  614000003 cyc:  452081535 now IPC :1.36939: AVG IPC :1.35673: L2-Pf-HR :0.98755: L2-HR :0.92521: (Sim:1h50m34s) 
CPU  0 inst:  615000002 cyc:  452810875 now IPC :1.37110: AVG IPC :1.35676: L2-Pf-HR :0.98755: L2-HR :0.92521: (Sim:1h50m44s) 
CPU  0 inst:  616000000 cyc:  453540532 now IPC :1.37050: AVG IPC :1.35678: L2-Pf-HR :0.98756: L2-HR :0.92521: (Sim:1h50m54s) 
CPU  0 inst:  617000003 cyc:  454308327 now IPC :1.30243: AVG IPC :1.35669: L2-Pf-HR :0.98756: L2-HR :0.92521: (Sim:1h51m9s) 
CPU  0 inst:  618000004 cyc:  455033814 now IPC :1.37839: AVG IPC :1.35672: L2-Pf-HR :0.98757: L2-HR :0.92521: (Sim:1h51m25s) 
CPU  0 inst:  619000001 cyc:  455761802 now IPC :1.37364: AVG IPC :1.35675: L2-Pf-HR :0.98757: L2-HR :0.92521: (Sim:1h51m42s) 
CPU  0 inst:  620000001 cyc:  456489237 now IPC :1.37469: AVG IPC :1.35678: L2-Pf-HR :0.98757: L2-HR :0.92522: (Sim:1h51m58s) 
CPU  0 inst:  621000003 cyc:  457216265 now IPC :1.37547: AVG IPC :1.35681: L2-Pf-HR :0.98758: L2-HR :0.92522: (Sim:1h52m15s) 
[...]
CPU  0 inst: 1196000002 cyc:  881234010 now IPC :1.38824: AVG IPC :1.35645: L2-Pf-HR :0.98767: L2-HR :0.92251: (Sim:3h43m27s) 
xz: 770-tot_memTraces_v5/120-subBillion_s2048_LLM_Arch/memTraces[1319000000]_FE_[Pythia-70M]_[h8]_[s2048]_[d64].champsim.9SSize.xz: Unexpected end of input
*** Reached end of trace for Core: 0 Repeating trace: 770-tot_memTraces_v5/120-subBillion_s2048_LLM_Arch/memTraces[1319000000]_FE_[Pythia-70M]_[h8]_[s2048]_[d64].champsim.9SSize.xz
CPU  0 inst: 1197000002 cyc:  882256897 now IPC :0.97763: AVG IPC :1.35601: L2-Pf-HR :0.98767: L2-HR :0.92247: (Sim:3h43m35s) 
CPU  0 inst: 1198000003 cyc:  883027870 now IPC :1.29706: AVG IPC :1.35596: L2-Pf-HR :0.98767: L2-HR :0.92247: (Sim:3h43m42s) 
CPU  0 inst: 1199000000 cyc:  883765506 now IPC :1.35568: AVG IPC :1.35596: L2-Pf-HR :0.98767: L2-HR :0.92246: (Sim:3h43m50s) 
CPU  0 inst: 1200000000 cyc:  884505241 now IPC :1.35184: AVG IPC :1.35596: L2-Pf-HR :0.98767: L2-HR :0.92246: (Sim:3h43m57s) 
CPU  0 inst: 1201000003 cyc:  885243401 now IPC :1.35472: AVG IPC :1.35596: L2-Pf-HR :0.98767: L2-HR :0.92246: (Sim:3h44m4s) 
CPU  0 inst: 1202000002 cyc:  885983111 now IPC :1.35188: AVG IPC :1.35596: L2-Pf-HR :0.98767: L2-HR :0.92245: (Sim:3h44m12s) 
CPU  0 inst: 1203000005 cyc:  886739861 now IPC :1.32144: AVG IPC :1.35593: L2-Pf-HR :0.98767: L2-HR :0.92245: (Sim:3h44m19s) 
CPU  0 inst: 1204000000 cyc:  887494861 now IPC :1.32450: AVG IPC :1.35590: L2-Pf-HR :0.98767: L2-HR :0.92245: (Sim:3h44m26s) 
CPU  0 inst: 1205000004 cyc:  888235106 now IPC :1.35091: AVG IPC :1.35589: L2-Pf-HR :0.98767: L2-HR :0.92244: (Sim:3h44m34s) 
CPU  0 inst: 1206000002 cyc:  888977650 now IPC :1.34672: AVG IPC :1.35589: L2-Pf-HR :0.98767: L2-HR :0.92244: (Sim:3h44m41s) 
CPU  0 inst: 1207000003 cyc:  889717572 now IPC :1.35150: AVG IPC :1.35588: L2-Pf-HR :0.98767: L2-HR :0.92244: (Sim:3h44m49s) 
CPU  0 inst: 1208000000 cyc:  890459989 now IPC :1.34695: AVG IPC :1.35588: L2-Pf-HR :0.98767: L2-HR :0.92243: (Sim:3h44m56s) 
CPU  0 inst: 1209000002 cyc:  891204505 now IPC :1.34316: AVG IPC :1.35587: L2-Pf-HR :0.98767: L2-HR :0.92243: (Sim:3h45m4s) 
CPU  0 inst: 1210000003 cyc:  892012844 now IPC :1.23711: AVG IPC :1.35576: L2-Pf-HR :0.98766: L2-HR :0.92242: (Sim:3h45m12s) 
CPU  0 inst: 1211000003 cyc:  892743383 now IPC :1.36885: AVG IPC :1.35577: L2-Pf-HR :0.98767: L2-HR :0.92242: (Sim:3h45m19s) 
CPU  0 inst: 1212000003 cyc:  893471256 now IPC :1.37387: AVG IPC :1.35578: L2-Pf-HR :0.98767: L2-HR :0.92242: (Sim:3h45m26s) 
CPU  0 inst: 1213000003 cyc:  894201267 now IPC :1.36984: AVG IPC :1.35579: L2-Pf-HR :0.98767: L2-HR :0.92242: (Sim:3h45m33s) 
CPU  0 inst: 1214000003 cyc:  894931363 now IPC :1.36968: AVG IPC :1.35581: L2-Pf-HR :0.98767: L2-HR :0.92243: (Sim:3h45m40s) 
CPU  0 inst: 1215000002 cyc:  895661065 now IPC :1.37042: AVG IPC :1.35582: L2-Pf-HR :0.98767: L2-HR :0.92243: (Sim:3h45m48s) 
CPU  0 inst: 1216000000 cyc:  896427959 now IPC :1.30396: AVG IPC :1.35577: L2-Pf-HR :0.98768: L2-HR :0.92243: (Sim:3h45m55s) 
CPU  0 inst: 1217000001 cyc:  897152733 now IPC :1.37974: AVG IPC :1.35579: L2-Pf-HR :0.98768: L2-HR :0.92243: (Sim:3h46m2s) 
CPU  0 inst: 1218000001 cyc:  897880540 now IPC :1.37399: AVG IPC :1.35581: L2-Pf-HR :0.98768: L2-HR :0.92243: (Sim:3h46m9s) 
CPU  0 inst: 1219000001 cyc:  898605431 now IPC :1.37952: AVG IPC :1.35583: L2-Pf-HR :0.98768: L2-HR :0.92243: (Sim:3h46m16s) 
CPU  0 inst: 1220000001 cyc:  899332541 now IPC :1.37531: AVG IPC :1.35584: L2-Pf-HR :0.98768: L2-HR :0.92244: (Sim:3h46m24s) 
CPU  0 inst: 1221000003 cyc:  900061125 now IPC :1.37253: AVG IPC :1.35586: L2-Pf-HR :0.98769: L2-HR :0.92244: (Sim:3h46m31s) 
CPU  0 inst: 1222000002 cyc:  900851574 now IPC :1.26510: AVG IPC :1.35578: L2-Pf-HR :0.98768: L2-HR :0.92243: (Sim:3h46m38s) 
CPU  0 inst: 1223000002 cyc:  901573557 now IPC :1.38507: AVG IPC :1.35580: L2-Pf-HR :0.98769: L2-HR :0.92243: (Sim:3h46m46s) 
CPU  0 inst: 1224000000 cyc:  902294146 now IPC :1.38775: AVG IPC :1.35583: L2-Pf-HR :0.98769: L2-HR :0.92243: (Sim:3h46m53s) 
CPU  0 inst: 1225000002 cyc:  903016677 now IPC :1.38403: AVG IPC :1.35585: L2-Pf-HR :0.98769: L2-HR :0.92243: (Sim:3h47m0s) 
CPU  0 inst: 1226000004 cyc:  903739092 now IPC :1.38425: AVG IPC :1.35587: L2-Pf-HR :0.98769: L2-HR :0.92244: (Sim:3h47m7s) 
CPU  0 inst: 1227000001 cyc:  904460553 now IPC :1.38607: AVG IPC :1.35589: L2-Pf-HR :0.98769: L2-HR :0.92244: (Sim:3h47m14s) 
CPU  0 inst: 1228000002 cyc:  905212272 now IPC :1.33029: AVG IPC :1.35587: L2-Pf-HR :0.98769: L2-HR :0.92244: (Sim:3h47m22s) 
CPU  0 inst: 1229000000 cyc:  905923795 now IPC :1.40543: AVG IPC :1.35591: L2-Pf-HR :0.98770: L2-HR :0.92244: (Sim:3h47m29s) 
CPU  0 inst: 1230000000 cyc:  906636321 now IPC :1.40346: AVG IPC :1.35595: L2-Pf-HR :0.98770: L2-HR :0.92244: (Sim:3h47m36s) 
CPU  0 inst: 1231000000 cyc:  907347903 now IPC :1.40532: AVG IPC :1.35599: L2-Pf-HR :0.98770: L2-HR :0.92244: (Sim:3h47m43s) 
CPU  0 inst: 1232000000 cyc:  908059923 now IPC :1.40445: AVG IPC :1.35603: L2-Pf-HR :0.98770: L2-HR :0.92245: (Sim:3h47m50s) 
CPU  0 inst: 1233000003 cyc:  908776350 now IPC :1.39582: AVG IPC :1.35606: L2-Pf-HR :0.98770: L2-HR :0.92245: (Sim:3h47m58s) 
CPU  0 inst: 1234000000 cyc:  909577082 now IPC :1.24885: AVG IPC :1.35596: L2-Pf-HR :0.98770: L2-HR :0.92244: (Sim:3h48m5s) 
CPU  0 inst: 1235000004 cyc:  910305149 now IPC :1.37351: AVG IPC :1.35598: L2-Pf-HR :0.98770: L2-HR :0.92244: (Sim:3h48m12s) 
CPU  0 inst: 1236000004 cyc:  911032938 now IPC :1.37402: AVG IPC :1.35599: L2-Pf-HR :0.98771: L2-HR :0.92244: (Sim:3h48m20s) 
CPU  0 inst: 1237000005 cyc:  911761350 now IPC :1.37285: AVG IPC :1.35601: L2-Pf-HR :0.98771: L2-HR :0.92244: (Sim:3h48m27s) 
CPU  0 inst: 1238000003 cyc:  912490269 now IPC :1.37189: AVG IPC :1.35602: L2-Pf-HR :0.98771: L2-HR :0.92244: (Sim:3h48m34s) 
CPU  0 inst: 1239000002 cyc:  913219971 now IPC :1.37042: AVG IPC :1.35603: L2-Pf-HR :0.98771: L2-HR :0.92245: (Sim:3h48m41s) 
CPU  0 inst: 1240000000 cyc:  913984980 now IPC :1.30717: AVG IPC :1.35599: L2-Pf-HR :0.98771: L2-HR :0.92245: (Sim:3h48m49s) 
CPU  0 inst: 1241000002 cyc:  914712326 now IPC :1.37486: AVG IPC :1.35600: L2-Pf-HR :0.98771: L2-HR :0.92245: (Sim:3h48m56s) 
CPU  0 inst: 1242000004 cyc:  915440581 now IPC :1.37315: AVG IPC :1.35602: L2-Pf-HR :0.98772: L2-HR :0.92245: (Sim:3h49m3s) 
CPU  0 inst: 1243000001 cyc:  916168074 now IPC :1.37458: AVG IPC :1.35603: L2-Pf-HR :0.98772: L2-HR :0.92245: (Sim:3h49m10s) 
CPU  0 inst: 1244000002 cyc:  916895138 now IPC :1.37540: AVG IPC :1.35605: L2-Pf-HR :0.98772: L2-HR :0.92245: (Sim:3h49m17s) 
CPU  0 inst: 1245000003 cyc:  917623383 now IPC :1.37317: AVG IPC :1.35606: L2-Pf-HR :0.98772: L2-HR :0.92246: (Sim:3h49m24s) 
CPU  0 inst: 1246000003 cyc:  918423437 now IPC :1.24992: AVG IPC :1.35597: L2-Pf-HR :0.98772: L2-HR :0.92245: (Sim:3h49m32s) 
CPU  0 inst: 1247000003 cyc:  919152861 now IPC :1.37094: AVG IPC :1.35598: L2-Pf-HR :0.98772: L2-HR :0.92245: (Sim:3h49m39s) 
CPU  0 inst: 1248000000 cyc:  919882736 now IPC :1.37009: AVG IPC :1.35599: L2-Pf-HR :0.98772: L2-HR :0.92245: (Sim:3h49m46s) 
CPU  0 inst: 1249000000 cyc:  920614805 now IPC :1.36599: AVG IPC :1.35600: L2-Pf-HR :0.98772: L2-HR :0.92245: (Sim:3h49m53s) 
CPU  0 inst: 1250000001 cyc:  921347341 now IPC :1.36512: AVG IPC :1.35601: L2-Pf-HR :0.98773: L2-HR :0.92245: (Sim:3h50m1s) 
CPU  0 inst: 1251000001 cyc:  922083982 now IPC :1.35751: AVG IPC :1.35601: L2-Pf-HR :0.98773: L2-HR :0.92246: (Sim:3h50m8s) 
CPU  0 inst: 1252000001 cyc:  922844452 now IPC :1.31498: AVG IPC :1.35597: L2-Pf-HR :0.98773: L2-HR :0.92246: (Sim:3h50m15s) 
CPU  0 inst: 1253000001 cyc:  923571673 now IPC :1.37510: AVG IPC :1.35599: L2-Pf-HR :0.98773: L2-HR :0.92246: (Sim:3h50m23s) 
CPU  0 inst: 1254000003 cyc:  924301120 now IPC :1.37090: AVG IPC :1.35600: L2-Pf-HR :0.98773: L2-HR :0.92246: (Sim:3h50m30s) 
CPU  0 inst: 1255000000 cyc:  925030573 now IPC :1.37089: AVG IPC :1.35601: L2-Pf-HR :0.98774: L2-HR :0.92246: (Sim:3h50m37s) 
CPU  0 inst: 1256000000 cyc:  925756197 now IPC :1.37812: AVG IPC :1.35603: L2-Pf-HR :0.98774: L2-HR :0.92247: (Sim:3h50m45s) 
CPU  0 inst: 1257000001 cyc:  926482378 now IPC :1.37707: AVG IPC :1.35605: L2-Pf-HR :0.98774: L2-HR :0.92247: (Sim:3h50m52s) 
CPU  0 inst: 1258000000 cyc:  927235803 now IPC :1.32727: AVG IPC :1.35602: L2-Pf-HR :0.98773: L2-HR :0.92243: (Sim:3h50m59s) 
CPU  0 inst: 1259000005 cyc:  927955145 now IPC :1.39017: AVG IPC :1.35605: L2-Pf-HR :0.98771: L2-HR :0.92239: (Sim:3h51m6s) 
CPU  0 inst: 1260000001 cyc:  928687180 now IPC :1.36605: AVG IPC :1.35606: L2-Pf-HR :0.98770: L2-HR :0.92235: (Sim:3h51m12s) 
CPU  0 inst: 1261000005 cyc:  929402842 now IPC :1.39731: AVG IPC :1.35609: L2-Pf-HR :0.98768: L2-HR :0.92231: (Sim:3h51m19s) 
CPU  0 inst: 1262000003 cyc:  930233168 now IPC :1.20434: AVG IPC :1.35595: L2-Pf-HR :0.98767: L2-HR :0.92228: (Sim:3h51m27s) 
CPU  0 inst: 1263000003 cyc:  930967298 now IPC :1.36216: AVG IPC :1.35596: L2-Pf-HR :0.98767: L2-HR :0.92227: (Sim:3h51m34s) 
CPU  0 inst: 1264000000 cyc:  931704263 now IPC :1.35691: AVG IPC :1.35596: L2-Pf-HR :0.98767: L2-HR :0.92227: (Sim:3h51m41s) 
CPU  0 inst: 1265000003 cyc:  932442649 now IPC :1.35431: AVG IPC :1.35596: L2-Pf-HR :0.98767: L2-HR :0.92226: (Sim:3h51m49s) 
CPU  0 inst: 1266000003 cyc:  933180028 now IPC :1.35615: AVG IPC :1.35596: L2-Pf-HR :0.98767: L2-HR :0.92226: (Sim:3h51m56s) 
CPU  0 inst: 1267000001 cyc:  933918215 now IPC :1.35467: AVG IPC :1.35596: L2-Pf-HR :0.98767: L2-HR :0.92225: (Sim:3h52m3s) 
CPU  0 inst: 1268000000 cyc:  934693152 now IPC :1.29043: AVG IPC :1.35590: L2-Pf-HR :0.98767: L2-HR :0.92225: (Sim:3h52m11s) 
CPU  0 inst: 1269000004 cyc:  935434457 now IPC :1.34898: AVG IPC :1.35590: L2-Pf-HR :0.98767: L2-HR :0.92224: (Sim:3h52m18s) 
CPU  0 inst: 1270000002 cyc:  936177042 now IPC :1.34664: AVG IPC :1.35589: L2-Pf-HR :0.98767: L2-HR :0.92224: (Sim:3h52m25s) 
CPU  0 inst: 1271000003 cyc:  936917793 now IPC :1.34998: AVG IPC :1.35589: L2-Pf-HR :0.98767: L2-HR :0.92223: (Sim:3h52m32s) 
CPU  0 inst: 1272000000 cyc:  937665675 now IPC :1.33711: AVG IPC :1.35587: L2-Pf-HR :0.98766: L2-HR :0.92223: (Sim:3h52m40s) 
CPU  0 inst: 1273000002 cyc:  938411919 now IPC :1.34005: AVG IPC :1.35586: L2-Pf-HR :0.98766: L2-HR :0.92222: (Sim:3h52m47s) 
CPU  0 inst: 1274000000 cyc:  939222558 now IPC :1.23359: AVG IPC :1.35575: L2-Pf-HR :0.98766: L2-HR :0.92222: (Sim:3h52m55s) 
CPU  0 inst: 1275000004 cyc:  939951328 now IPC :1.37218: AVG IPC :1.35576: L2-Pf-HR :0.98766: L2-HR :0.92222: (Sim:3h53m2s) 
CPU  0 inst: 1276000004 cyc:  940679665 now IPC :1.37299: AVG IPC :1.35578: L2-Pf-HR :0.98767: L2-HR :0.92222: (Sim:3h53m9s) 
CPU  0 inst: 1277000000 cyc:  941407366 now IPC :1.37419: AVG IPC :1.35579: L2-Pf-HR :0.98767: L2-HR :0.92222: (Sim:3h53m16s) 
CPU  0 inst: 1278000004 cyc:  942135676 now IPC :1.37305: AVG IPC :1.35581: L2-Pf-HR :0.98767: L2-HR :0.92222: (Sim:3h53m24s) 
CPU  0 inst: 1279000002 cyc:  942865888 now IPC :1.36946: AVG IPC :1.35582: L2-Pf-HR :0.98767: L2-HR :0.92222: (Sim:3h53m31s) 
CPU  0 inst: 1280000000 cyc:  943621533 now IPC :1.32337: AVG IPC :1.35579: L2-Pf-HR :0.98767: L2-HR :0.92222: (Sim:3h53m38s) 
CPU  0 inst: 1281000002 cyc:  944337184 now IPC :1.39733: AVG IPC :1.35582: L2-Pf-HR :0.98767: L2-HR :0.92222: (Sim:3h53m45s) 
CPU  0 inst: 1282000002 cyc:  945053317 now IPC :1.39639: AVG IPC :1.35585: L2-Pf-HR :0.98768: L2-HR :0.92223: (Sim:3h53m52s) 
CPU  0 inst: 1283000002 cyc:  945767003 now IPC :1.40118: AVG IPC :1.35589: L2-Pf-HR :0.98768: L2-HR :0.92223: (Sim:3h53m59s) 
CPU  0 inst: 1284000002 cyc:  946483433 now IPC :1.39581: AVG IPC :1.35592: L2-Pf-HR :0.98768: L2-HR :0.92223: (Sim:3h54m7s) 
CPU  0 inst: 1285000002 cyc:  947198702 now IPC :1.39808: AVG IPC :1.35595: L2-Pf-HR :0.98768: L2-HR :0.92223: (Sim:3h54m14s) 
CPU  0 inst: 1286000003 cyc:  947997576 now IPC :1.25176: AVG IPC :1.35586: L2-Pf-HR :0.98768: L2-HR :0.92222: (Sim:3h54m21s) 
CPU  0 inst: 1287000003 cyc:  948721001 now IPC :1.38231: AVG IPC :1.35588: L2-Pf-HR :0.98768: L2-HR :0.92222: (Sim:3h54m29s) 
CPU  0 inst: 1288000000 cyc:  949444581 now IPC :1.38201: AVG IPC :1.35590: L2-Pf-HR :0.98768: L2-HR :0.92222: (Sim:3h54m36s) 
CPU  0 inst: 1289000000 cyc:  950168199 now IPC :1.38194: AVG IPC :1.35592: L2-Pf-HR :0.98768: L2-HR :0.92223: (Sim:3h54m43s) 
CPU  0 inst: 1290000000 cyc:  950892460 now IPC :1.38072: AVG IPC :1.35594: L2-Pf-HR :0.98768: L2-HR :0.92223: (Sim:3h54m50s) 
CPU  0 inst: 1291000001 cyc:  951617850 now IPC :1.37857: AVG IPC :1.35596: L2-Pf-HR :0.98769: L2-HR :0.92223: (Sim:3h54m58s) 
CPU  0 inst: 1292000001 cyc:  952382519 now IPC :1.30776: AVG IPC :1.35592: L2-Pf-HR :0.98769: L2-HR :0.92223: (Sim:3h55m5s) 
CPU  0 inst: 1293000001 cyc:  953111754 now IPC :1.37130: AVG IPC :1.35593: L2-Pf-HR :0.98769: L2-HR :0.92223: (Sim:3h55m12s) 
CPU  0 inst: 1294000003 cyc:  953839069 now IPC :1.37492: AVG IPC :1.35594: L2-Pf-HR :0.98769: L2-HR :0.92223: (Sim:3h55m19s) 
CPU  0 inst: 1295000004 cyc:  954567865 now IPC :1.37213: AVG IPC :1.35596: L2-Pf-HR :0.98769: L2-HR :0.92223: (Sim:3h55m26s) 
CPU  0 inst: 1296000000 cyc:  955297416 now IPC :1.37070: AVG IPC :1.35597: L2-Pf-HR :0.98770: L2-HR :0.92224: (Sim:3h55m34s) 
CPU  0 inst: 1297000002 cyc:  956024531 now IPC :1.37530: AVG IPC :1.35598: L2-Pf-HR :0.98770: L2-HR :0.92224: (Sim:3h55m41s) 
CPU  0 inst: 1298000005 cyc:  956826427 now IPC :1.24705: AVG IPC :1.35589: L2-Pf-HR :0.98769: L2-HR :0.92223: (Sim:3h55m48s) 
CPU  0 inst: 1299000004 cyc:  957556032 now IPC :1.37060: AVG IPC :1.35590: L2-Pf-HR :0.98770: L2-HR :0.92223: (Sim:3h55m56s) 
CPU  0 inst: 1300000005 cyc:  958285172 now IPC :1.37148: AVG IPC :1.35591: L2-Pf-HR :0.98770: L2-HR :0.92223: (Sim:3h56m3s) 
CPU  0 inst: 1301000005 cyc:  959016158 now IPC :1.36802: AVG IPC :1.35592: L2-Pf-HR :0.98770: L2-HR :0.92224: (Sim:3h56m10s) 
CPU  0 inst: 1302000003 cyc:  959746126 now IPC :1.36992: AVG IPC :1.35593: L2-Pf-HR :0.98770: L2-HR :0.92224: (Sim:3h56m18s) 
CPU  0 inst: 1303000003 cyc:  960476412 now IPC :1.36933: AVG IPC :1.35595: L2-Pf-HR :0.98770: L2-HR :0.92224: (Sim:3h56m25s) 
CPU  0 inst: 1304000000 cyc:  961241647 now IPC :1.30678: AVG IPC :1.35591: L2-Pf-HR :0.98771: L2-HR :0.92224: (Sim:3h56m32s) 
CPU  0 inst: 1305000003 cyc:  961969567 now IPC :1.37378: AVG IPC :1.35592: L2-Pf-HR :0.98771: L2-HR :0.92224: (Sim:3h56m39s) 
CPU  0 inst: 1306000002 cyc:  962697638 now IPC :1.37349: AVG IPC :1.35593: L2-Pf-HR :0.98771: L2-HR :0.92224: (Sim:3h56m46s) 
CPU  0 inst: 1307000003 cyc:  963425264 now IPC :1.37433: AVG IPC :1.35595: L2-Pf-HR :0.98771: L2-HR :0.92224: (Sim:3h56m54s) 
CPU  0 inst: 1308000005 cyc:  964154033 now IPC :1.37218: AVG IPC :1.35596: L2-Pf-HR :0.98771: L2-HR :0.92224: (Sim:3h57m1s) 
CPU  0 inst: 1309000001 cyc:  964880745 now IPC :1.37606: AVG IPC :1.35597: L2-Pf-HR :0.98771: L2-HR :0.92225: (Sim:3h57m8s) 
CPU  0 inst: 1310000000 cyc:  965671421 now IPC :1.26474: AVG IPC :1.35590: L2-Pf-HR :0.98771: L2-HR :0.92224: (Sim:3h57m16s) 
CPU  0 inst: 1311000003 cyc:  966386681 now IPC :1.39810: AVG IPC :1.35593: L2-Pf-HR :0.98771: L2-HR :0.92224: (Sim:3h57m23s) 
CPU  0 inst: 1312000000 cyc:  967102368 now IPC :1.39725: AVG IPC :1.35596: L2-Pf-HR :0.98772: L2-HR :0.92224: (Sim:3h57m30s) 
CPU  0 inst: 1313000001 cyc:  967818176 now IPC :1.39702: AVG IPC :1.35599: L2-Pf-HR :0.98772: L2-HR :0.92224: (Sim:3h57m37s) 
CPU  0 inst: 1314000005 cyc:  968531823 now IPC :1.40126: AVG IPC :1.35602: L2-Pf-HR :0.98772: L2-HR :0.92225: (Sim:3h57m44s) 
CPU  0 inst: 1315000005 cyc:  969248231 now IPC :1.39585: AVG IPC :1.35605: L2-Pf-HR :0.98772: L2-HR :0.92225: (Sim:3h57m51s) 
CPU  0 inst: 1316000001 cyc:  970007205 now IPC :1.31756: AVG IPC :1.35602: L2-Pf-HR :0.98772: L2-HR :0.92225: (Sim:3h57m59s) 
Finished CPU 0 instr: 1314000002 cyc: 969009189 AVG IPC: 1.35602 (Sim time: 3h57m59s)

ChampSim completed all CPUs

[ROI Statistics]
Core_0_instructions 1314000002
Core_0_cycles 969009189
Core_0_IPC 1.35602

Core_0_branch_prediction_accuracy 99.93053
Core_0_branch_MPKI 0.00971
Core_0_average_ROB_occupancy_at_mispredict 446.87270

Core_0_L1D_total_access 273257229
Core_0_L1D_total_hit 247906493 L1D_total_Hit Ratio: 0.90723
Core_0_L1D_total_miss 25350736
Core_0_L1D_loads 260778748
Core_0_L1D_load_hit 235686804 L1D_load_Hit Ratio: 0.90378
Core_0_L1D_load_miss 25091944
Core_0_L1D_RFOs 11875170
Core_0_L1D_RFO_hit 11616378 L1D_RFO_Hit Ratio: 0.97821
Core_0_L1D_RFO_miss 258792
Core_0_L1D_prefetches 603311
Core_0_L1D_prefetch_hit 603311 L1D_prefetch_Hit Ratio: 1.00000
Core_0_L1D_prefetch_miss 0
Core_0_L1D_writebacks 0
Core_0_L1D_writeback_hit 0 L1D_writeback_Hit Ratio: -nan
Core_0_L1D_writeback_miss 0
Core_0_L1D_prefetch_requested 152499807
Core_0_L1D_prefetch_issued 84873106
Core_0_L1D_prefetch_useful 0 L1D_Useful Ratio: 0.00000
Core_0_L1D_prefetch_useless 0
Core_0_L1D_prefetch_late 0
Core_0_L1D_average_miss_latency 95.21640

Core_0_L1I_total_access 142926668
Core_0_L1I_total_hit 142912002 L1I_total_Hit Ratio: 0.99990
Core_0_L1I_total_miss 14666
Core_0_L1I_loads 142926668
Core_0_L1I_load_hit 142912002 L1I_load_Hit Ratio: 0.99990
Core_0_L1I_load_miss 14666
Core_0_L1I_RFOs 0
Core_0_L1I_RFO_hit 0 L1I_RFO_Hit Ratio: -nan
Core_0_L1I_RFO_miss 0
Core_0_L1I_prefetches 0
Core_0_L1I_prefetch_hit 0 L1I_prefetch_Hit Ratio: -nan
Core_0_L1I_prefetch_miss 0
Core_0_L1I_writebacks 0
Core_0_L1I_writeback_hit 0 L1I_writeback_Hit Ratio: -nan
Core_0_L1I_writeback_miss 0
Core_0_L1I_prefetch_requested 0
Core_0_L1I_prefetch_issued 0
Core_0_L1I_prefetch_useful 0 L1I_Useful Ratio: -nan
Core_0_L1I_prefetch_useless 0
Core_0_L1I_prefetch_late 0
Core_0_L1I_average_miss_latency 243.91681

Core_0_L2C_total_access 113266473
Core_0_L2C_total_hit 104460032 L2C_total_Hit Ratio: 0.92225
Core_0_L2C_total_miss 8806441
Core_0_L2C_loads 25106607
Core_0_L2C_load_hit 17294100 L2C_load_Hit Ratio: 0.68883
Core_0_L2C_load_miss 7812507
Core_0_L2C_RFOs 258792
Core_0_L2C_RFO_hit 257149 L2C_RFO_Hit Ratio: 0.99365
Core_0_L2C_RFO_miss 1643
Core_0_L2C_prefetches 80357235
Core_0_L2C_prefetch_hit 79370702 L2C_prefetch_Hit Ratio: 0.98772
Core_0_L2C_prefetch_miss 986533
Core_0_L2C_writebacks 7543839
Core_0_L2C_writeback_hit 7538081 L2C_writeback_Hit Ratio: 0.99924
Core_0_L2C_writeback_miss 5758
Core_0_L2C_prefetch_requested 48985119
Core_0_L2C_prefetch_issued 954268
Core_0_L2C_prefetch_useful 986493 L2C_Useful Ratio: 1.03377
Core_0_L2C_prefetch_useless 482
Core_0_L2C_prefetch_late 51202
Core_0_L2C_average_miss_latency 248.45941

Core_0_LLC_total_access 16696769
Core_0_LLC_total_hit 10091906 LLC_total_Hit Ratio: 0.60442
Core_0_LLC_total_miss 6604863
Core_0_LLC_loads 7761305
Core_0_LLC_load_hit 1981081 LLC_load_Hit Ratio: 0.25525
Core_0_LLC_load_miss 5780224
Core_0_LLC_RFOs 1643
Core_0_LLC_RFO_hit 405 LLC_RFO_Hit Ratio: 0.24650
Core_0_LLC_RFO_miss 1238
Core_0_LLC_prefetches 1537002
Core_0_LLC_prefetch_hit 770945 LLC_prefetch_Hit Ratio: 0.50159
Core_0_LLC_prefetch_miss 766057
Core_0_LLC_writebacks 7396819
Core_0_LLC_writeback_hit 7339475 LLC_writeback_Hit Ratio: 0.99225
Core_0_LLC_writeback_miss 57344
Core_0_LLC_prefetch_requested 0
Core_0_LLC_prefetch_issued 0
Core_0_LLC_prefetch_useful 189371 LLC_Useful Ratio: inf
Core_0_LLC_prefetch_useless 572470
Core_0_LLC_prefetch_late 10274
Core_0_LLC_average_miss_latency 281.63345

Core_0_major_page_fault 0
Core_0_minor_page_fault 21513

CPU 0 L1D next line prefetcher final stats
Prefetcher final stats
Training Unit Size: 2873
Addr table size: 1300939 1300940


Triggers: 7831401
No Prediction: 1366413 17.44787
Stream end: 462615
No translation: 421927447 5387.63686
Predictions: 954268 12.18515


Stream divergence: 140986 1.80027
Stream divergence -- new stream: 0
Channel_0_RQ_row_buffer_hit 4120904
Channel_0_RQ_row_buffer_miss 2426558
Channel_0_WQ_row_buffer_hit 1230949
Channel_0_WQ_row_buffer_miss 4347898
Channel_0_WQ_full 0
Channel_0_dbus_congested 2446747

avg_congested_cycle 8

EzSearch AVG IPC :1.35602: L2-Pf-HR :0.98772 : L2-HR :0.92225 Uful:1.03377
     > Finished combination: TraceType=770-tot Sim:1314000000 Prefetcher=L2isb_ideal L1=isb_ideal
