*************************************************
   ChampSim Multicore Out-of-Order Simulator
   Last compiled: Aug 13 2024 02:07:24
*************************************************

trace_0 ./LLM_Traces/2B_Traces_SelfAttention_Phythia-70M-Seq1024-07-08-0125.champsim.xz
CPU 0 L2C next line prefetcher initialized
warmup_instructions 2000000
simulation_instructions 360000000
champsim_seed 200

num_cpus 1
cpu_freq 4000
dram_io_freq 2400
page_size 4096
block_size 64
max_read_per_cycle 8
max_fill_per_cycle 1
dram_channels 1
dram_ranks 1
dram_banks 8
dram_rows 65536
dram_columns 128
dram_row_size 8
dram_size 4096
dram_pages 1048576

fetch_width 6
decode_width 6
exec_width 4
lq_width 2
sq_width 2
retire_width 4
scheduler_size 128
branch_mispredict_penalty 20
rob_size 256
lq_size 72
sq_size 56
num_instr_destinations_sparc 4
num_instr_destinations 2
num_instr_sources 4

itlb_set 16
itlb_way 8
itlb_rq_size 16
itlb_wq_size 16
itlb_pq_size 0
itlb_mshr_size 8
itlb_latency 1

dtlb_set 16
dtlb_way 4
dtlb_rq_size 16
dtlb_wq_size 16
dtlb_pq_size 0
dtlb_mshr_size 8
dtlb_latency 1

stlb_set 128
stlb_way 12
stlb_rq_size 32
stlb_wq_size 32
stlb_pq_size 0
stlb_mshr_size 16
stlb_latency 8

l1i_size 32
l1i_set 64
l1i_way 8
l1i_rq_size 64
l1i_wq_size 64
l1i_pq_size 8
l1i_mshr_size 8
l1i_latency 1

l1d_size 32
l1d_set 64
l1d_way 8
l1d_rq_size 64
l1d_wq_size 64
l1d_pq_size 8
l1d_mshr_size 16
l1d_latency 4

l2c_size 512
l2c_set 1024
l2c_way 8
l2c_rq_size 32
l2c_wq_size 32
l2c_pq_size 16
l2c_mshr_size 32
l2c_latency 10

llc_size 2048
llc_set 2048
llc_way 16
llc_rq_size 32
llc_wq_size 32
llc_pq_size 32
llc_mshr_size 64
llc_latency 20

dram_channel_width 8
dram_wq_size 64
dram_rq_size 64
tRP 15
tRCD 15
tCAS 12.5
dram_dbus_turn_around_time 30
dram_write_high_wm 56
dram_write_low_wm 48
min_dram_writes_per_switch 16
dram_mtps 2400
dram_dbus_return_time 13


Heartbeat CPU  0 instructions:    1000001 cycles:     467275 heartbeat IPC: 2.14007 cumulative IPC: 2.14007 (Simulation time: 0 hr 0 min 4 sec) 
Heartbeat CPU  0 instructions:    2000000 cycles:    1041552 heartbeat IPC: 1.74132 cumulative IPC: 1.92021 (Simulation time: 0 hr 0 min 12 sec) 

Warmup complete CPU  0 instructions:    2000002 cycles:    1041553 (Simulation time: 0 hr 0 min 12 sec) 

Heartbeat CPU  0 instructions:    3000001 cycles:    2051550 heartbeat IPC: 0.99010 cumulative IPC: 0.99010 (Simulation time: 0 hr 0 min 20 sec) 
Heartbeat CPU  0 instructions:    4000000 cycles:    3107377 heartbeat IPC: 0.94712 cumulative IPC: 0.96814 (Simulation time: 0 hr 0 min 29 sec) 
Heartbeat CPU  0 instructions:    5000002 cycles:    4155169 heartbeat IPC: 0.95439 cumulative IPC: 0.96351 (Simulation time: 0 hr 0 min 37 sec) 
Heartbeat CPU  0 instructions:    6000001 cycles:    5209135 heartbeat IPC: 0.94880 cumulative IPC: 0.95979 (Simulation time: 0 hr 0 min 45 sec) 
Heartbeat CPU  0 instructions:    7000000 cycles:    6256295 heartbeat IPC: 0.95496 cumulative IPC: 0.95882 (Simulation time: 0 hr 0 min 54 sec) 
Heartbeat CPU  0 instructions:    8000000 cycles:    7310345 heartbeat IPC: 0.94872 cumulative IPC: 0.95712 (Simulation time: 0 hr 1 min 3 sec) 
Heartbeat CPU  0 instructions:    9000003 cycles:    8375891 heartbeat IPC: 0.93849 cumulative IPC: 0.95441 (Simulation time: 0 hr 1 min 11 sec) 
Heartbeat CPU  0 instructions:   10000003 cycles:    9440494 heartbeat IPC: 0.93932 cumulative IPC: 0.95250 (Simulation time: 0 hr 1 min 20 sec) 
Heartbeat CPU  0 instructions:   11000000 cycles:   10493499 heartbeat IPC: 0.94966 cumulative IPC: 0.95218 (Simulation time: 0 hr 1 min 28 sec) 
Heartbeat CPU  0 instructions:   12000000 cycles:   11566157 heartbeat IPC: 0.93226 cumulative IPC: 0.95015 (Simulation time: 0 hr 1 min 35 sec) 
Heartbeat CPU  0 instructions:   13000002 cycles:   12630978 heartbeat IPC: 0.93913 cumulative IPC: 0.94914 (Simulation time: 0 hr 1 min 44 sec) 
Heartbeat CPU  0 instructions:   14000002 cycles:   13679486 heartbeat IPC: 0.95374 cumulative IPC: 0.94952 (Simulation time: 0 hr 1 min 53 sec) 
Heartbeat CPU  0 instructions:   15000001 cycles:   14734639 heartbeat IPC: 0.94773 cumulative IPC: 0.94938 (Simulation time: 0 hr 2 min 1 sec) 
Heartbeat CPU  0 instructions:   16000000 cycles:   15795505 heartbeat IPC: 0.94263 cumulative IPC: 0.94890 (Simulation time: 0 hr 2 min 9 sec) 
Heartbeat CPU  0 instructions:   17000001 cycles:   16861388 heartbeat IPC: 0.93819 cumulative IPC: 0.94818 (Simulation time: 0 hr 2 min 17 sec) 
Heartbeat CPU  0 instructions:   18000003 cycles:   17943365 heartbeat IPC: 0.92424 cumulative IPC: 0.94664 (Simulation time: 0 hr 2 min 26 sec) 
Heartbeat CPU  0 instructions:   19000003 cycles:   19009258 heartbeat IPC: 0.93818 cumulative IPC: 0.94614 (Simulation time: 0 hr 2 min 35 sec) 
Heartbeat CPU  0 instructions:   20000000 cycles:   20084398 heartbeat IPC: 0.93011 cumulative IPC: 0.94524 (Simulation time: 0 hr 2 min 45 sec) 
Heartbeat CPU  0 instructions:   21000001 cycles:   21141313 heartbeat IPC: 0.94615 cumulative IPC: 0.94528 (Simulation time: 0 hr 2 min 52 sec) 
Heartbeat CPU  0 instructions:   22000001 cycles:   22220977 heartbeat IPC: 0.92621 cumulative IPC: 0.94431 (Simulation time: 0 hr 3 min 0 sec) 
Heartbeat CPU  0 instructions:   23000002 cycles:   23281915 heartbeat IPC: 0.94256 cumulative IPC: 0.94423 (Simulation time: 0 hr 3 min 8 sec) 
Heartbeat CPU  0 instructions:   24000000 cycles:   24352119 heartbeat IPC: 0.93440 cumulative IPC: 0.94378 (Simulation time: 0 hr 3 min 16 sec) 
Heartbeat CPU  0 instructions:   25000000 cycles:   25393580 heartbeat IPC: 0.96019 cumulative IPC: 0.94448 (Simulation time: 0 hr 3 min 22 sec) 
Heartbeat CPU  0 instructions:   26000003 cycles:   26517292 heartbeat IPC: 0.88991 cumulative IPC: 0.94207 (Simulation time: 0 hr 3 min 29 sec) 
Heartbeat CPU  0 instructions:   27000003 cycles:   27569585 heartbeat IPC: 0.95031 cumulative IPC: 0.94240 (Simulation time: 0 hr 3 min 38 sec) 
Heartbeat CPU  0 instructions:   28000000 cycles:   28633003 heartbeat IPC: 0.94036 cumulative IPC: 0.94232 (Simulation time: 0 hr 3 min 48 sec) 
Heartbeat CPU  0 instructions:   29000000 cycles:   29696490 heartbeat IPC: 0.94030 cumulative IPC: 0.94225 (Simulation time: 0 hr 3 min 57 sec) 
Heartbeat CPU  0 instructions:   30000001 cycles:   30769744 heartbeat IPC: 0.93175 cumulative IPC: 0.94187 (Simulation time: 0 hr 4 min 6 sec) 
Heartbeat CPU  0 instructions:   31000001 cycles:   31820412 heartbeat IPC: 0.95178 cumulative IPC: 0.94221 (Simulation time: 0 hr 4 min 13 sec) 
Heartbeat CPU  0 instructions:   32000000 cycles:   32872105 heartbeat IPC: 0.95085 cumulative IPC: 0.94249 (Simulation time: 0 hr 4 min 21 sec) 
Heartbeat CPU  0 instructions:   33000001 cycles:   33940587 heartbeat IPC: 0.93591 cumulative IPC: 0.94228 (Simulation time: 0 hr 4 min 30 sec) 
Heartbeat CPU  0 instructions:   34000000 cycles:   35003686 heartbeat IPC: 0.94065 cumulative IPC: 0.94223 (Simulation time: 0 hr 4 min 40 sec) 
Heartbeat CPU  0 instructions:   35000003 cycles:   36075647 heartbeat IPC: 0.93287 cumulative IPC: 0.94194 (Simulation time: 0 hr 4 min 49 sec) 
Heartbeat CPU  0 instructions:   36000000 cycles:   37135902 heartbeat IPC: 0.94317 cumulative IPC: 0.94198 (Simulation time: 0 hr 4 min 56 sec) 
Heartbeat CPU  0 instructions:   37000000 cycles:   38189216 heartbeat IPC: 0.94938 cumulative IPC: 0.94219 (Simulation time: 0 hr 5 min 4 sec) 
Heartbeat CPU  0 instructions:   38000003 cycles:   39268748 heartbeat IPC: 0.92633 cumulative IPC: 0.94174 (Simulation time: 0 hr 5 min 13 sec) 
Heartbeat CPU  0 instructions:   39000003 cycles:   40333118 heartbeat IPC: 0.93952 cumulative IPC: 0.94168 (Simulation time: 0 hr 5 min 22 sec) 
Heartbeat CPU  0 instructions:   40000000 cycles:   41391577 heartbeat IPC: 0.94477 cumulative IPC: 0.94176 (Simulation time: 0 hr 5 min 31 sec) 
Heartbeat CPU  0 instructions:   41000002 cycles:   42487533 heartbeat IPC: 0.91245 cumulative IPC: 0.94098 (Simulation time: 0 hr 5 min 39 sec) 
Heartbeat CPU  0 instructions:   42000001 cycles:   43550861 heartbeat IPC: 0.94044 cumulative IPC: 0.94097 (Simulation time: 0 hr 5 min 48 sec) 
Heartbeat CPU  0 instructions:   43000001 cycles:   44627264 heartbeat IPC: 0.92902 cumulative IPC: 0.94068 (Simulation time: 0 hr 5 min 56 sec) 
Heartbeat CPU  0 instructions:   44000000 cycles:   45701063 heartbeat IPC: 0.93127 cumulative IPC: 0.94045 (Simulation time: 0 hr 6 min 4 sec) 
Heartbeat CPU  0 instructions:   45000002 cycles:   46763564 heartbeat IPC: 0.94118 cumulative IPC: 0.94047 (Simulation time: 0 hr 6 min 11 sec) 
Heartbeat CPU  0 instructions:   46000001 cycles:   47844429 heartbeat IPC: 0.92518 cumulative IPC: 0.94011 (Simulation time: 0 hr 6 min 18 sec) 
Heartbeat CPU  0 instructions:   47000001 cycles:   48926123 heartbeat IPC: 0.92448 cumulative IPC: 0.93976 (Simulation time: 0 hr 6 min 27 sec) 
Heartbeat CPU  0 instructions:   48000000 cycles:   50003401 heartbeat IPC: 0.92826 cumulative IPC: 0.93951 (Simulation time: 0 hr 6 min 36 sec) 
Heartbeat CPU  0 instructions:   49000000 cycles:   51095641 heartbeat IPC: 0.91555 cumulative IPC: 0.93898 (Simulation time: 0 hr 6 min 44 sec) 
Heartbeat CPU  0 instructions:   50000000 cycles:   52088520 heartbeat IPC: 1.00717 cumulative IPC: 0.94031 (Simulation time: 0 hr 6 min 52 sec) 
Heartbeat CPU  0 instructions:   51000000 cycles:   53018141 heartbeat IPC: 1.07571 cumulative IPC: 0.94273 (Simulation time: 0 hr 7 min 0 sec) 
Heartbeat CPU  0 instructions:   52000000 cycles:   53946006 heartbeat IPC: 1.07774 cumulative IPC: 0.94510 (Simulation time: 0 hr 7 min 8 sec) 
Heartbeat CPU  0 instructions:   53000002 cycles:   54869672 heartbeat IPC: 1.08264 cumulative IPC: 0.94746 (Simulation time: 0 hr 7 min 17 sec) 
Heartbeat CPU  0 instructions:   54000003 cycles:   55796547 heartbeat IPC: 1.07890 cumulative IPC: 0.94969 (Simulation time: 0 hr 7 min 26 sec) 
Heartbeat CPU  0 instructions:   55000001 cycles:   56728494 heartbeat IPC: 1.07302 cumulative IPC: 0.95175 (Simulation time: 0 hr 7 min 33 sec) 
Heartbeat CPU  0 instructions:   56000000 cycles:   57657514 heartbeat IPC: 1.07640 cumulative IPC: 0.95379 (Simulation time: 0 hr 7 min 41 sec) 
Heartbeat CPU  0 instructions:   57000000 cycles:   58587291 heartbeat IPC: 1.07553 cumulative IPC: 0.95576 (Simulation time: 0 hr 7 min 49 sec) 
Heartbeat CPU  0 instructions:   58000001 cycles:   59520078 heartbeat IPC: 1.07206 cumulative IPC: 0.95762 (Simulation time: 0 hr 7 min 58 sec) 
Heartbeat CPU  0 instructions:   59000001 cycles:   60446158 heartbeat IPC: 1.07982 cumulative IPC: 0.95952 (Simulation time: 0 hr 8 min 7 sec) 
Heartbeat CPU  0 instructions:   60000000 cycles:   61363636 heartbeat IPC: 1.08994 cumulative IPC: 0.96151 (Simulation time: 0 hr 8 min 14 sec) 
Heartbeat CPU  0 instructions:   61000001 cycles:   62282502 heartbeat IPC: 1.08830 cumulative IPC: 0.96341 (Simulation time: 0 hr 8 min 23 sec) 
Heartbeat CPU  0 instructions:   62000001 cycles:   63204443 heartbeat IPC: 1.08467 cumulative IPC: 0.96521 (Simulation time: 0 hr 8 min 31 sec) 
Heartbeat CPU  0 instructions:   63000000 cycles:   64127810 heartbeat IPC: 1.08299 cumulative IPC: 0.96693 (Simulation time: 0 hr 8 min 39 sec) 
Heartbeat CPU  0 instructions:   64000000 cycles:   65037235 heartbeat IPC: 1.09960 cumulative IPC: 0.96882 (Simulation time: 0 hr 8 min 47 sec) 
Heartbeat CPU  0 instructions:   65000003 cycles:   65950470 heartbeat IPC: 1.09501 cumulative IPC: 0.97059 (Simulation time: 0 hr 8 min 53 sec) 
Heartbeat CPU  0 instructions:   66000000 cycles:   67099379 heartbeat IPC: 0.87039 cumulative IPC: 0.96885 (Simulation time: 0 hr 8 min 59 sec) 
Heartbeat CPU  0 instructions:   67000001 cycles:   68161109 heartbeat IPC: 0.94186 cumulative IPC: 0.96842 (Simulation time: 0 hr 9 min 8 sec) 
Heartbeat CPU  0 instructions:   68000000 cycles:   69200144 heartbeat IPC: 0.96243 cumulative IPC: 0.96833 (Simulation time: 0 hr 9 min 17 sec) 
Heartbeat CPU  0 instructions:   69000001 cycles:   70251793 heartbeat IPC: 0.95089 cumulative IPC: 0.96806 (Simulation time: 0 hr 9 min 25 sec) 
Heartbeat CPU  0 instructions:   70000001 cycles:   71309691 heartbeat IPC: 0.94527 cumulative IPC: 0.96772 (Simulation time: 0 hr 9 min 33 sec) 
Heartbeat CPU  0 instructions:   71000003 cycles:   72336913 heartbeat IPC: 0.97350 cumulative IPC: 0.96780 (Simulation time: 0 hr 9 min 40 sec) 
Heartbeat CPU  0 instructions:   72000000 cycles:   73373017 heartbeat IPC: 0.96515 cumulative IPC: 0.96777 (Simulation time: 0 hr 9 min 49 sec) 
Heartbeat CPU  0 instructions:   73000001 cycles:   74429952 heartbeat IPC: 0.94613 cumulative IPC: 0.96746 (Simulation time: 0 hr 9 min 57 sec) 
Heartbeat CPU  0 instructions:   74000001 cycles:   75487888 heartbeat IPC: 0.94524 cumulative IPC: 0.96714 (Simulation time: 0 hr 10 min 6 sec) 
Heartbeat CPU  0 instructions:   75000001 cycles:   76551579 heartbeat IPC: 0.94012 cumulative IPC: 0.96676 (Simulation time: 0 hr 10 min 14 sec) 
Heartbeat CPU  0 instructions:   76000000 cycles:   77606616 heartbeat IPC: 0.94783 cumulative IPC: 0.96650 (Simulation time: 0 hr 10 min 21 sec) 
Heartbeat CPU  0 instructions:   77000000 cycles:   78652824 heartbeat IPC: 0.95583 cumulative IPC: 0.96635 (Simulation time: 0 hr 10 min 30 sec) 
Heartbeat CPU  0 instructions:   78000002 cycles:   79697793 heartbeat IPC: 0.95697 cumulative IPC: 0.96623 (Simulation time: 0 hr 10 min 38 sec) 
Heartbeat CPU  0 instructions:   79000001 cycles:   80746500 heartbeat IPC: 0.95355 cumulative IPC: 0.96606 (Simulation time: 0 hr 10 min 47 sec) 
Heartbeat CPU  0 instructions:   80000000 cycles:   81786443 heartbeat IPC: 0.96159 cumulative IPC: 0.96601 (Simulation time: 0 hr 10 min 55 sec) 
Heartbeat CPU  0 instructions:   81000000 cycles:   82842360 heartbeat IPC: 0.94704 cumulative IPC: 0.96576 (Simulation time: 0 hr 11 min 4 sec) 
Heartbeat CPU  0 instructions:   82000000 cycles:   83913942 heartbeat IPC: 0.93320 cumulative IPC: 0.96534 (Simulation time: 0 hr 11 min 13 sec) 
Heartbeat CPU  0 instructions:   83000003 cycles:   84997238 heartbeat IPC: 0.92311 cumulative IPC: 0.96479 (Simulation time: 0 hr 11 min 20 sec) 
Heartbeat CPU  0 instructions:   84000000 cycles:   86075041 heartbeat IPC: 0.92781 cumulative IPC: 0.96433 (Simulation time: 0 hr 11 min 28 sec) 
Heartbeat CPU  0 instructions:   85000003 cycles:   87138276 heartbeat IPC: 0.94053 cumulative IPC: 0.96403 (Simulation time: 0 hr 11 min 34 sec) 
Heartbeat CPU  0 instructions:   86000001 cycles:   88197159 heartbeat IPC: 0.94439 cumulative IPC: 0.96379 (Simulation time: 0 hr 11 min 41 sec) 
Heartbeat CPU  0 instructions:   87000001 cycles:   89275415 heartbeat IPC: 0.92742 cumulative IPC: 0.96335 (Simulation time: 0 hr 11 min 49 sec) 
Heartbeat CPU  0 instructions:   88000000 cycles:   90343766 heartbeat IPC: 0.93602 cumulative IPC: 0.96302 (Simulation time: 0 hr 11 min 57 sec) 
Heartbeat CPU  0 instructions:   89000002 cycles:   91420395 heartbeat IPC: 0.92883 cumulative IPC: 0.96261 (Simulation time: 0 hr 12 min 5 sec) 
Heartbeat CPU  0 instructions:   90000002 cycles:   92450952 heartbeat IPC: 0.97035 cumulative IPC: 0.96270 (Simulation time: 0 hr 12 min 11 sec) 
Heartbeat CPU  0 instructions:   91000001 cycles:   93520075 heartbeat IPC: 0.93535 cumulative IPC: 0.96239 (Simulation time: 0 hr 12 min 19 sec) 
Heartbeat CPU  0 instructions:   92000000 cycles:   94592784 heartbeat IPC: 0.93222 cumulative IPC: 0.96204 (Simulation time: 0 hr 12 min 28 sec) 
Heartbeat CPU  0 instructions:   93000000 cycles:   95663084 heartbeat IPC: 0.93432 cumulative IPC: 0.96173 (Simulation time: 0 hr 12 min 37 sec) 
Heartbeat CPU  0 instructions:   94000001 cycles:   96712534 heartbeat IPC: 0.95288 cumulative IPC: 0.96163 (Simulation time: 0 hr 12 min 45 sec) 
Heartbeat CPU  0 instructions:   95000000 cycles:   97763419 heartbeat IPC: 0.95158 cumulative IPC: 0.96152 (Simulation time: 0 hr 12 min 53 sec) 
Heartbeat CPU  0 instructions:   96000000 cycles:   98820747 heartbeat IPC: 0.94578 cumulative IPC: 0.96135 (Simulation time: 0 hr 13 min 0 sec) 
Heartbeat CPU  0 instructions:   97000002 cycles:   99869861 heartbeat IPC: 0.95319 cumulative IPC: 0.96126 (Simulation time: 0 hr 13 min 8 sec) 
Heartbeat CPU  0 instructions:   98000000 cycles:  100934731 heartbeat IPC: 0.93908 cumulative IPC: 0.96103 (Simulation time: 0 hr 13 min 17 sec) 
Heartbeat CPU  0 instructions:   99000000 cycles:  101996001 heartbeat IPC: 0.94227 cumulative IPC: 0.96083 (Simulation time: 0 hr 13 min 26 sec) 
Heartbeat CPU  0 instructions:  100000000 cycles:  103068862 heartbeat IPC: 0.93209 cumulative IPC: 0.96053 (Simulation time: 0 hr 13 min 35 sec) 
Heartbeat CPU  0 instructions:  101000001 cycles:  104132264 heartbeat IPC: 0.94038 cumulative IPC: 0.96032 (Simulation time: 0 hr 13 min 42 sec) 
Heartbeat CPU  0 instructions:  102000003 cycles:  105193717 heartbeat IPC: 0.94211 cumulative IPC: 0.96013 (Simulation time: 0 hr 13 min 50 sec) 
Heartbeat CPU  0 instructions:  103000001 cycles:  106259272 heartbeat IPC: 0.93848 cumulative IPC: 0.95991 (Simulation time: 0 hr 13 min 58 sec) 
Heartbeat CPU  0 instructions:  104000000 cycles:  107305958 heartbeat IPC: 0.95540 cumulative IPC: 0.95987 (Simulation time: 0 hr 14 min 6 sec) 
Heartbeat CPU  0 instructions:  105000001 cycles:  108373976 heartbeat IPC: 0.93631 cumulative IPC: 0.95964 (Simulation time: 0 hr 14 min 13 sec) 
Heartbeat CPU  0 instructions:  106000003 cycles:  109436425 heartbeat IPC: 0.94122 cumulative IPC: 0.95946 (Simulation time: 0 hr 14 min 19 sec) 
Heartbeat CPU  0 instructions:  107000001 cycles:  110512817 heartbeat IPC: 0.92903 cumulative IPC: 0.95916 (Simulation time: 0 hr 14 min 27 sec) 
Heartbeat CPU  0 instructions:  108000000 cycles:  111583554 heartbeat IPC: 0.93394 cumulative IPC: 0.95891 (Simulation time: 0 hr 14 min 36 sec) 
Heartbeat CPU  0 instructions:  109000000 cycles:  112669937 heartbeat IPC: 0.92049 cumulative IPC: 0.95854 (Simulation time: 0 hr 14 min 45 sec) 
Heartbeat CPU  0 instructions:  110000002 cycles:  113746785 heartbeat IPC: 0.92864 cumulative IPC: 0.95825 (Simulation time: 0 hr 14 min 53 sec) 
Heartbeat CPU  0 instructions:  111000002 cycles:  114829957 heartbeat IPC: 0.92321 cumulative IPC: 0.95792 (Simulation time: 0 hr 15 min 0 sec) 
Heartbeat CPU  0 instructions:  112000000 cycles:  115883294 heartbeat IPC: 0.94936 cumulative IPC: 0.95784 (Simulation time: 0 hr 15 min 9 sec) 
Heartbeat CPU  0 instructions:  113000000 cycles:  116954093 heartbeat IPC: 0.93388 cumulative IPC: 0.95762 (Simulation time: 0 hr 15 min 17 sec) 
Heartbeat CPU  0 instructions:  114000000 cycles:  117991858 heartbeat IPC: 0.96361 cumulative IPC: 0.95767 (Simulation time: 0 hr 15 min 25 sec) 
Heartbeat CPU  0 instructions:  115000002 cycles:  118908283 heartbeat IPC: 1.09120 cumulative IPC: 0.95871 (Simulation time: 0 hr 15 min 34 sec) 
Heartbeat CPU  0 instructions:  116000000 cycles:  119827432 heartbeat IPC: 1.08796 cumulative IPC: 0.95971 (Simulation time: 0 hr 15 min 42 sec) 
Heartbeat CPU  0 instructions:  117000000 cycles:  120739819 heartbeat IPC: 1.09603 cumulative IPC: 0.96075 (Simulation time: 0 hr 15 min 51 sec) 
Heartbeat CPU  0 instructions:  118000003 cycles:  121657640 heartbeat IPC: 1.08954 cumulative IPC: 0.96173 (Simulation time: 0 hr 16 min 0 sec) 
Heartbeat CPU  0 instructions:  119000001 cycles:  122576561 heartbeat IPC: 1.08823 cumulative IPC: 0.96269 (Simulation time: 0 hr 16 min 9 sec) 
Heartbeat CPU  0 instructions:  120000000 cycles:  123486068 heartbeat IPC: 1.09950 cumulative IPC: 0.96370 (Simulation time: 0 hr 16 min 16 sec) 
Heartbeat CPU  0 instructions:  121000001 cycles:  124398200 heartbeat IPC: 1.09633 cumulative IPC: 0.96468 (Simulation time: 0 hr 16 min 24 sec) 
Heartbeat CPU  0 instructions:  122000000 cycles:  125301243 heartbeat IPC: 1.10737 cumulative IPC: 0.96572 (Simulation time: 0 hr 16 min 33 sec) 
Heartbeat CPU  0 instructions:  123000003 cycles:  126201075 heartbeat IPC: 1.11132 cumulative IPC: 0.96677 (Simulation time: 0 hr 16 min 41 sec) 
Heartbeat CPU  0 instructions:  124000000 cycles:  127100459 heartbeat IPC: 1.11187 cumulative IPC: 0.96780 (Simulation time: 0 hr 16 min 49 sec) 
Heartbeat CPU  0 instructions:  125000003 cycles:  128001912 heartbeat IPC: 1.10932 cumulative IPC: 0.96881 (Simulation time: 0 hr 16 min 56 sec) 
Heartbeat CPU  0 instructions:  126000003 cycles:  128910630 heartbeat IPC: 1.10045 cumulative IPC: 0.96974 (Simulation time: 0 hr 17 min 3 sec) 
Heartbeat CPU  0 instructions:  127000002 cycles:  129818195 heartbeat IPC: 1.10185 cumulative IPC: 0.97067 (Simulation time: 0 hr 17 min 11 sec) 
Heartbeat CPU  0 instructions:  128000000 cycles:  130726013 heartbeat IPC: 1.10154 cumulative IPC: 0.97159 (Simulation time: 0 hr 17 min 19 sec) 
Heartbeat CPU  0 instructions:  129000000 cycles:  131626542 heartbeat IPC: 1.11046 cumulative IPC: 0.97255 (Simulation time: 0 hr 17 min 28 sec) 
Heartbeat CPU  0 instructions:  130000000 cycles:  132183956 heartbeat IPC: 1.79400 cumulative IPC: 0.97604 (Simulation time: 0 hr 17 min 31 sec) 
Heartbeat CPU  0 instructions:  131000000 cycles:  132555049 heartbeat IPC: 2.69474 cumulative IPC: 0.98089 (Simulation time: 0 hr 17 min 32 sec) 
Heartbeat CPU  0 instructions:  132000000 cycles:  133895912 heartbeat IPC: 0.74579 cumulative IPC: 0.97852 (Simulation time: 0 hr 17 min 36 sec) 
Heartbeat CPU  0 instructions:  133000001 cycles:  140940992 heartbeat IPC: 0.14194 cumulative IPC: 0.93639 (Simulation time: 0 hr 17 min 54 sec) 
Heartbeat CPU  0 instructions:  134000000 cycles:  148446041 heartbeat IPC: 0.13324 cumulative IPC: 0.89550 (Simulation time: 0 hr 18 min 13 sec) 
Heartbeat CPU  0 instructions:  135000002 cycles:  155969786 heartbeat IPC: 0.13291 cumulative IPC: 0.85846 (Simulation time: 0 hr 18 min 31 sec) 
Heartbeat CPU  0 instructions:  136000000 cycles:  163456751 heartbeat IPC: 0.13357 cumulative IPC: 0.82505 (Simulation time: 0 hr 18 min 51 sec) 
Heartbeat CPU  0 instructions:  137000000 cycles:  167761913 heartbeat IPC: 0.23228 cumulative IPC: 0.80974 (Simulation time: 0 hr 19 min 0 sec) 
Heartbeat CPU  0 instructions:  138000002 cycles:  169998848 heartbeat IPC: 0.44704 cumulative IPC: 0.80494 (Simulation time: 0 hr 19 min 7 sec) 
Heartbeat CPU  0 instructions:  139000000 cycles:  172623628 heartbeat IPC: 0.38098 cumulative IPC: 0.79845 (Simulation time: 0 hr 19 min 14 sec) 
Heartbeat CPU  0 instructions:  140000000 cycles:  175267279 heartbeat IPC: 0.37826 cumulative IPC: 0.79208 (Simulation time: 0 hr 19 min 21 sec) 
Heartbeat CPU  0 instructions:  141000002 cycles:  177777786 heartbeat IPC: 0.39833 cumulative IPC: 0.78648 (Simulation time: 0 hr 19 min 27 sec) 
Heartbeat CPU  0 instructions:  142000001 cycles:  180255262 heartbeat IPC: 0.40364 cumulative IPC: 0.78119 (Simulation time: 0 hr 19 min 33 sec) 
Heartbeat CPU  0 instructions:  143000000 cycles:  182738337 heartbeat IPC: 0.40273 cumulative IPC: 0.77602 (Simulation time: 0 hr 19 min 40 sec) 
Heartbeat CPU  0 instructions:  144000000 cycles:  185307418 heartbeat IPC: 0.38924 cumulative IPC: 0.77063 (Simulation time: 0 hr 19 min 48 sec) 
Heartbeat CPU  0 instructions:  145000000 cycles:  187826937 heartbeat IPC: 0.39690 cumulative IPC: 0.76558 (Simulation time: 0 hr 19 min 55 sec) 
Heartbeat CPU  0 instructions:  146000003 cycles:  190359212 heartbeat IPC: 0.39490 cumulative IPC: 0.76063 (Simulation time: 0 hr 20 min 3 sec) 
Heartbeat CPU  0 instructions:  147000002 cycles:  192842941 heartbeat IPC: 0.40262 cumulative IPC: 0.75599 (Simulation time: 0 hr 20 min 10 sec) 
Heartbeat CPU  0 instructions:  148000000 cycles:  195345458 heartbeat IPC: 0.39960 cumulative IPC: 0.75140 (Simulation time: 0 hr 20 min 15 sec) 
Heartbeat CPU  0 instructions:  149000003 cycles:  197813799 heartbeat IPC: 0.40513 cumulative IPC: 0.74706 (Simulation time: 0 hr 20 min 22 sec) 
Heartbeat CPU  0 instructions:  150000001 cycles:  200273839 heartbeat IPC: 0.40650 cumulative IPC: 0.74285 (Simulation time: 0 hr 20 min 31 sec) 
Heartbeat CPU  0 instructions:  151000000 cycles:  202903502 heartbeat IPC: 0.38028 cumulative IPC: 0.73813 (Simulation time: 0 hr 20 min 39 sec) 
Heartbeat CPU  0 instructions:  152000000 cycles:  205550650 heartbeat IPC: 0.37777 cumulative IPC: 0.73346 (Simulation time: 0 hr 20 min 47 sec) 
Heartbeat CPU  0 instructions:  153000002 cycles:  208130449 heartbeat IPC: 0.38763 cumulative IPC: 0.72916 (Simulation time: 0 hr 20 min 54 sec) 
Heartbeat CPU  0 instructions:  154000003 cycles:  210667043 heartbeat IPC: 0.39423 cumulative IPC: 0.72510 (Simulation time: 0 hr 21 min 0 sec) 
Heartbeat CPU  0 instructions:  155000000 cycles:  213150461 heartbeat IPC: 0.40267 cumulative IPC: 0.72133 (Simulation time: 0 hr 21 min 6 sec) 
Heartbeat CPU  0 instructions:  156000000 cycles:  215653227 heartbeat IPC: 0.39956 cumulative IPC: 0.71758 (Simulation time: 0 hr 21 min 13 sec) 
Heartbeat CPU  0 instructions:  157000000 cycles:  218151859 heartbeat IPC: 0.40022 cumulative IPC: 0.71392 (Simulation time: 0 hr 21 min 20 sec) 
Heartbeat CPU  0 instructions:  158000001 cycles:  220621040 heartbeat IPC: 0.40499 cumulative IPC: 0.71045 (Simulation time: 0 hr 21 min 27 sec) 
Heartbeat CPU  0 instructions:  159000002 cycles:  223135255 heartbeat IPC: 0.39774 cumulative IPC: 0.70691 (Simulation time: 0 hr 21 min 34 sec) 
Heartbeat CPU  0 instructions:  160000000 cycles:  225693088 heartbeat IPC: 0.39096 cumulative IPC: 0.70331 (Simulation time: 0 hr 21 min 40 sec) 
Heartbeat CPU  0 instructions:  161000001 cycles:  228195091 heartbeat IPC: 0.39968 cumulative IPC: 0.69997 (Simulation time: 0 hr 21 min 46 sec) 
Heartbeat CPU  0 instructions:  162000000 cycles:  230697139 heartbeat IPC: 0.39967 cumulative IPC: 0.69670 (Simulation time: 0 hr 21 min 53 sec) 
Heartbeat CPU  0 instructions:  163000001 cycles:  233233385 heartbeat IPC: 0.39428 cumulative IPC: 0.69339 (Simulation time: 0 hr 22 min 0 sec) 
Heartbeat CPU  0 instructions:  164000000 cycles:  235732323 heartbeat IPC: 0.40017 cumulative IPC: 0.69027 (Simulation time: 0 hr 22 min 7 sec) 
Heartbeat CPU  0 instructions:  165000000 cycles:  238234839 heartbeat IPC: 0.39960 cumulative IPC: 0.68720 (Simulation time: 0 hr 22 min 13 sec) 
Heartbeat CPU  0 instructions:  166000002 cycles:  240808498 heartbeat IPC: 0.38855 cumulative IPC: 0.68400 (Simulation time: 0 hr 22 min 18 sec) 
Heartbeat CPU  0 instructions:  167000000 cycles:  243356022 heartbeat IPC: 0.39254 cumulative IPC: 0.68093 (Simulation time: 0 hr 22 min 24 sec) 
Heartbeat CPU  0 instructions:  168000000 cycles:  245835183 heartbeat IPC: 0.40336 cumulative IPC: 0.67812 (Simulation time: 0 hr 22 min 30 sec) 
Heartbeat CPU  0 instructions:  169000000 cycles:  248392218 heartbeat IPC: 0.39108 cumulative IPC: 0.67515 (Simulation time: 0 hr 22 min 36 sec) 
Heartbeat CPU  0 instructions:  170000000 cycles:  250912634 heartbeat IPC: 0.39676 cumulative IPC: 0.67235 (Simulation time: 0 hr 22 min 44 sec) 
Heartbeat CPU  0 instructions:  171000000 cycles:  253449999 heartbeat IPC: 0.39411 cumulative IPC: 0.66955 (Simulation time: 0 hr 22 min 51 sec) 
Heartbeat CPU  0 instructions:  172000000 cycles:  255974119 heartbeat IPC: 0.39618 cumulative IPC: 0.66684 (Simulation time: 0 hr 22 min 57 sec) 
Heartbeat CPU  0 instructions:  173000001 cycles:  258488982 heartbeat IPC: 0.39764 cumulative IPC: 0.66421 (Simulation time: 0 hr 23 min 3 sec) 
Heartbeat CPU  0 instructions:  174000000 cycles:  261006294 heartbeat IPC: 0.39725 cumulative IPC: 0.66163 (Simulation time: 0 hr 23 min 10 sec) 
Heartbeat CPU  0 instructions:  175000003 cycles:  263535925 heartbeat IPC: 0.39532 cumulative IPC: 0.65906 (Simulation time: 0 hr 23 min 17 sec) 
Heartbeat CPU  0 instructions:  176000000 cycles:  266014033 heartbeat IPC: 0.40353 cumulative IPC: 0.65667 (Simulation time: 0 hr 23 min 23 sec) 
Heartbeat CPU  0 instructions:  177000000 cycles:  268497525 heartbeat IPC: 0.40266 cumulative IPC: 0.65431 (Simulation time: 0 hr 23 min 30 sec) 
Heartbeat CPU  0 instructions:  178000000 cycles:  271062810 heartbeat IPC: 0.38982 cumulative IPC: 0.65180 (Simulation time: 0 hr 23 min 38 sec) 
Heartbeat CPU  0 instructions:  179000003 cycles:  273621133 heartbeat IPC: 0.39088 cumulative IPC: 0.64935 (Simulation time: 0 hr 23 min 43 sec) 
Heartbeat CPU  0 instructions:  180000000 cycles:  276168955 heartbeat IPC: 0.39249 cumulative IPC: 0.64697 (Simulation time: 0 hr 23 min 49 sec) 
Heartbeat CPU  0 instructions:  181000002 cycles:  278774621 heartbeat IPC: 0.38378 cumulative IPC: 0.64450 (Simulation time: 0 hr 23 min 56 sec) 
Heartbeat CPU  0 instructions:  182000001 cycles:  281277322 heartbeat IPC: 0.39957 cumulative IPC: 0.64232 (Simulation time: 0 hr 24 min 3 sec) 
Heartbeat CPU  0 instructions:  183000000 cycles:  283791749 heartbeat IPC: 0.39770 cumulative IPC: 0.64014 (Simulation time: 0 hr 24 min 10 sec) 
Heartbeat CPU  0 instructions:  184000000 cycles:  286281326 heartbeat IPC: 0.40167 cumulative IPC: 0.63806 (Simulation time: 0 hr 24 min 17 sec) 
Heartbeat CPU  0 instructions:  185000002 cycles:  288793364 heartbeat IPC: 0.39808 cumulative IPC: 0.63596 (Simulation time: 0 hr 24 min 22 sec) 
Heartbeat CPU  0 instructions:  186000000 cycles:  291261227 heartbeat IPC: 0.40521 cumulative IPC: 0.63400 (Simulation time: 0 hr 24 min 29 sec) 
Heartbeat CPU  0 instructions:  187000000 cycles:  293763619 heartbeat IPC: 0.39962 cumulative IPC: 0.63200 (Simulation time: 0 hr 24 min 36 sec) 
Heartbeat CPU  0 instructions:  188000000 cycles:  296256230 heartbeat IPC: 0.40119 cumulative IPC: 0.63005 (Simulation time: 0 hr 24 min 43 sec) 
Heartbeat CPU  0 instructions:  189000000 cycles:  298818616 heartbeat IPC: 0.39026 cumulative IPC: 0.62799 (Simulation time: 0 hr 24 min 50 sec) 
Heartbeat CPU  0 instructions:  190000001 cycles:  301287689 heartbeat IPC: 0.40501 cumulative IPC: 0.62615 (Simulation time: 0 hr 24 min 57 sec) 
Heartbeat CPU  0 instructions:  191000002 cycles:  303792285 heartbeat IPC: 0.39927 cumulative IPC: 0.62428 (Simulation time: 0 hr 25 min 2 sec) 
Heartbeat CPU  0 instructions:  192000000 cycles:  306263602 heartbeat IPC: 0.40464 cumulative IPC: 0.62250 (Simulation time: 0 hr 25 min 7 sec) 
Heartbeat CPU  0 instructions:  193000000 cycles:  308735238 heartbeat IPC: 0.40459 cumulative IPC: 0.62075 (Simulation time: 0 hr 25 min 13 sec) 
Heartbeat CPU  0 instructions:  194000002 cycles:  311214275 heartbeat IPC: 0.40338 cumulative IPC: 0.61901 (Simulation time: 0 hr 25 min 20 sec) 
Heartbeat CPU  0 instructions:  195000003 cycles:  313829059 heartbeat IPC: 0.38244 cumulative IPC: 0.61703 (Simulation time: 0 hr 25 min 27 sec) 
Heartbeat CPU  0 instructions:  196000000 cycles:  316408163 heartbeat IPC: 0.38773 cumulative IPC: 0.61516 (Simulation time: 0 hr 25 min 35 sec) 
Heartbeat CPU  0 instructions:  197000000 cycles:  318907702 heartbeat IPC: 0.40007 cumulative IPC: 0.61347 (Simulation time: 0 hr 25 min 42 sec) 
Heartbeat CPU  0 instructions:  198000000 cycles:  321419050 heartbeat IPC: 0.39819 cumulative IPC: 0.61178 (Simulation time: 0 hr 25 min 49 sec) 
Heartbeat CPU  0 instructions:  199000002 cycles:  323900873 heartbeat IPC: 0.40293 cumulative IPC: 0.61017 (Simulation time: 0 hr 25 min 56 sec) 
Heartbeat CPU  0 instructions:  200000000 cycles:  326370831 heartbeat IPC: 0.40486 cumulative IPC: 0.60861 (Simulation time: 0 hr 26 min 2 sec) 
Heartbeat CPU  0 instructions:  201000003 cycles:  328135172 heartbeat IPC: 0.56679 cumulative IPC: 0.60839 (Simulation time: 0 hr 26 min 7 sec) 
Heartbeat CPU  0 instructions:  202000000 cycles:  328777015 heartbeat IPC: 1.55801 cumulative IPC: 0.61025 (Simulation time: 0 hr 26 min 9 sec) 
Heartbeat CPU  0 instructions:  203000000 cycles:  329356167 heartbeat IPC: 1.72666 cumulative IPC: 0.61222 (Simulation time: 0 hr 26 min 18 sec) 
Heartbeat CPU  0 instructions:  204000000 cycles:  329958665 heartbeat IPC: 1.65976 cumulative IPC: 0.61414 (Simulation time: 0 hr 26 min 26 sec) 
Heartbeat CPU  0 instructions:  205000001 cycles:  330535085 heartbeat IPC: 1.73485 cumulative IPC: 0.61610 (Simulation time: 0 hr 26 min 34 sec) 
Heartbeat CPU  0 instructions:  206000000 cycles:  331078009 heartbeat IPC: 1.84188 cumulative IPC: 0.61811 (Simulation time: 0 hr 26 min 43 sec) 
Heartbeat CPU  0 instructions:  207000001 cycles:  331635732 heartbeat IPC: 1.79301 cumulative IPC: 0.62010 (Simulation time: 0 hr 26 min 53 sec) 
Heartbeat CPU  0 instructions:  208000000 cycles:  332215214 heartbeat IPC: 1.72568 cumulative IPC: 0.62203 (Simulation time: 0 hr 27 min 4 sec) 
Heartbeat CPU  0 instructions:  209000003 cycles:  332788008 heartbeat IPC: 1.74583 cumulative IPC: 0.62397 (Simulation time: 0 hr 27 min 12 sec) 
Heartbeat CPU  0 instructions:  210000003 cycles:  333361340 heartbeat IPC: 1.74419 cumulative IPC: 0.62590 (Simulation time: 0 hr 27 min 22 sec) 
Heartbeat CPU  0 instructions:  211000000 cycles:  333922062 heartbeat IPC: 1.78341 cumulative IPC: 0.62785 (Simulation time: 0 hr 27 min 31 sec) 
Heartbeat CPU  0 instructions:  212000000 cycles:  334549804 heartbeat IPC: 1.59301 cumulative IPC: 0.62967 (Simulation time: 0 hr 27 min 42 sec) 
Heartbeat CPU  0 instructions:  213000002 cycles:  335309985 heartbeat IPC: 1.31548 cumulative IPC: 0.63123 (Simulation time: 0 hr 27 min 52 sec) 
Heartbeat CPU  0 instructions:  214000002 cycles:  336040279 heartbeat IPC: 1.36931 cumulative IPC: 0.63284 (Simulation time: 0 hr 28 min 4 sec) 
Heartbeat CPU  0 instructions:  215000003 cycles:  336770632 heartbeat IPC: 1.36920 cumulative IPC: 0.63444 (Simulation time: 0 hr 28 min 16 sec) 
Heartbeat CPU  0 instructions:  216000000 cycles:  337538014 heartbeat IPC: 1.30313 cumulative IPC: 0.63597 (Simulation time: 0 hr 28 min 26 sec) 
Heartbeat CPU  0 instructions:  217000003 cycles:  338271938 heartbeat IPC: 1.36254 cumulative IPC: 0.63755 (Simulation time: 0 hr 28 min 40 sec) 
Heartbeat CPU  0 instructions:  218000002 cycles:  338998449 heartbeat IPC: 1.37644 cumulative IPC: 0.63913 (Simulation time: 0 hr 28 min 53 sec) 
Heartbeat CPU  0 instructions:  219000000 cycles:  339748762 heartbeat IPC: 1.33277 cumulative IPC: 0.64067 (Simulation time: 0 hr 29 min 5 sec) 
Heartbeat CPU  0 instructions:  220000000 cycles:  340499649 heartbeat IPC: 1.33176 cumulative IPC: 0.64220 (Simulation time: 0 hr 29 min 18 sec) 
Heartbeat CPU  0 instructions:  221000003 cycles:  341225791 heartbeat IPC: 1.37715 cumulative IPC: 0.64377 (Simulation time: 0 hr 29 min 31 sec) 
Heartbeat CPU  0 instructions:  222000002 cycles:  342058382 heartbeat IPC: 1.20107 cumulative IPC: 0.64513 (Simulation time: 0 hr 29 min 44 sec) 
Heartbeat CPU  0 instructions:  223000000 cycles:  342906084 heartbeat IPC: 1.17966 cumulative IPC: 0.64645 (Simulation time: 0 hr 29 min 58 sec) 
Heartbeat CPU  0 instructions:  224000000 cycles:  343747797 heartbeat IPC: 1.18805 cumulative IPC: 0.64779 (Simulation time: 0 hr 30 min 13 sec) 
Heartbeat CPU  0 instructions:  225000002 cycles:  344510511 heartbeat IPC: 1.31111 cumulative IPC: 0.64926 (Simulation time: 0 hr 30 min 24 sec) 
Heartbeat CPU  0 instructions:  226000000 cycles:  345234220 heartbeat IPC: 1.38177 cumulative IPC: 0.65080 (Simulation time: 0 hr 30 min 36 sec) 
Heartbeat CPU  0 instructions:  227000000 cycles:  345965454 heartbeat IPC: 1.36755 cumulative IPC: 0.65232 (Simulation time: 0 hr 30 min 49 sec) 
Heartbeat CPU  0 instructions:  228000000 cycles:  346747017 heartbeat IPC: 1.27949 cumulative IPC: 0.65374 (Simulation time: 0 hr 31 min 1 sec) 
Heartbeat CPU  0 instructions:  229000001 cycles:  347468922 heartbeat IPC: 1.38523 cumulative IPC: 0.65526 (Simulation time: 0 hr 31 min 14 sec) 
Heartbeat CPU  0 instructions:  230000001 cycles:  348194126 heartbeat IPC: 1.37892 cumulative IPC: 0.65677 (Simulation time: 0 hr 31 min 28 sec) 
Heartbeat CPU  0 instructions:  231000000 cycles:  348939652 heartbeat IPC: 1.34133 cumulative IPC: 0.65824 (Simulation time: 0 hr 31 min 39 sec) 
Heartbeat CPU  0 instructions:  232000000 cycles:  349700477 heartbeat IPC: 1.31436 cumulative IPC: 0.65967 (Simulation time: 0 hr 31 min 52 sec) 
Heartbeat CPU  0 instructions:  233000003 cycles:  350427882 heartbeat IPC: 1.37475 cumulative IPC: 0.66116 (Simulation time: 0 hr 32 min 6 sec) 
Heartbeat CPU  0 instructions:  234000001 cycles:  351156115 heartbeat IPC: 1.37318 cumulative IPC: 0.66264 (Simulation time: 0 hr 32 min 18 sec) 
Heartbeat CPU  0 instructions:  235000001 cycles:  351932875 heartbeat IPC: 1.28740 cumulative IPC: 0.66402 (Simulation time: 0 hr 32 min 31 sec) 
Heartbeat CPU  0 instructions:  236000000 cycles:  352672271 heartbeat IPC: 1.35245 cumulative IPC: 0.66547 (Simulation time: 0 hr 32 min 45 sec) 
Heartbeat CPU  0 instructions:  237000000 cycles:  353394199 heartbeat IPC: 1.38518 cumulative IPC: 0.66695 (Simulation time: 0 hr 32 min 58 sec) 
Heartbeat CPU  0 instructions:  238000001 cycles:  354125484 heartbeat IPC: 1.36746 cumulative IPC: 0.66840 (Simulation time: 0 hr 33 min 9 sec) 
Heartbeat CPU  0 instructions:  239000002 cycles:  354940313 heartbeat IPC: 1.22725 cumulative IPC: 0.66968 (Simulation time: 0 hr 33 min 21 sec) 
Heartbeat CPU  0 instructions:  240000000 cycles:  355849162 heartbeat IPC: 1.10029 cumulative IPC: 0.67079 (Simulation time: 0 hr 33 min 32 sec) 
Heartbeat CPU  0 instructions:  241000003 cycles:  356583858 heartbeat IPC: 1.36111 cumulative IPC: 0.67221 (Simulation time: 0 hr 33 min 45 sec) 
Heartbeat CPU  0 instructions:  242000002 cycles:  357317815 heartbeat IPC: 1.36248 cumulative IPC: 0.67363 (Simulation time: 0 hr 33 min 58 sec) 
Heartbeat CPU  0 instructions:  243000003 cycles:  358057591 heartbeat IPC: 1.35176 cumulative IPC: 0.67504 (Simulation time: 0 hr 34 min 10 sec) 
Heartbeat CPU  0 instructions:  244000000 cycles:  358825856 heartbeat IPC: 1.30163 cumulative IPC: 0.67639 (Simulation time: 0 hr 34 min 24 sec) 
Heartbeat CPU  0 instructions:  245000000 cycles:  359544911 heartbeat IPC: 1.39071 cumulative IPC: 0.67782 (Simulation time: 0 hr 34 min 37 sec) 
Heartbeat CPU  0 instructions:  246000003 cycles:  360262735 heartbeat IPC: 1.39310 cumulative IPC: 0.67925 (Simulation time: 0 hr 34 min 49 sec) 
Heartbeat CPU  0 instructions:  247000001 cycles:  361027923 heartbeat IPC: 1.30687 cumulative IPC: 0.68058 (Simulation time: 0 hr 35 min 2 sec) 
Heartbeat CPU  0 instructions:  248000000 cycles:  361758729 heartbeat IPC: 1.36835 cumulative IPC: 0.68197 (Simulation time: 0 hr 35 min 16 sec) 
Heartbeat CPU  0 instructions:  249000001 cycles:  362470231 heartbeat IPC: 1.40548 cumulative IPC: 0.68340 (Simulation time: 0 hr 35 min 28 sec) 
Heartbeat CPU  0 instructions:  250000002 cycles:  363201445 heartbeat IPC: 1.36759 cumulative IPC: 0.68478 (Simulation time: 0 hr 35 min 40 sec) 
Heartbeat CPU  0 instructions:  251000000 cycles:  363955798 heartbeat IPC: 1.32564 cumulative IPC: 0.68611 (Simulation time: 0 hr 35 min 52 sec) 
Heartbeat CPU  0 instructions:  252000000 cycles:  364674826 heartbeat IPC: 1.39077 cumulative IPC: 0.68751 (Simulation time: 0 hr 36 min 2 sec) 
Heartbeat CPU  0 instructions:  253000001 cycles:  365391173 heartbeat IPC: 1.39597 cumulative IPC: 0.68890 (Simulation time: 0 hr 36 min 16 sec) 
Heartbeat CPU  0 instructions:  254000003 cycles:  366134080 heartbeat IPC: 1.34607 cumulative IPC: 0.69024 (Simulation time: 0 hr 36 min 29 sec) 
Heartbeat CPU  0 instructions:  255000001 cycles:  366922259 heartbeat IPC: 1.26874 cumulative IPC: 0.69148 (Simulation time: 0 hr 36 min 42 sec) 
Heartbeat CPU  0 instructions:  256000000 cycles:  367750940 heartbeat IPC: 1.20674 cumulative IPC: 0.69265 (Simulation time: 0 hr 36 min 54 sec) 
Heartbeat CPU  0 instructions:  257000002 cycles:  368539160 heartbeat IPC: 1.26868 cumulative IPC: 0.69388 (Simulation time: 0 hr 37 min 7 sec) 
Heartbeat CPU  0 instructions:  258000001 cycles:  369293269 heartbeat IPC: 1.32607 cumulative IPC: 0.69518 (Simulation time: 0 hr 37 min 19 sec) 
Heartbeat CPU  0 instructions:  259000002 cycles:  370105849 heartbeat IPC: 1.23065 cumulative IPC: 0.69636 (Simulation time: 0 hr 37 min 32 sec) 
Heartbeat CPU  0 instructions:  260000000 cycles:  370898346 heartbeat IPC: 1.26183 cumulative IPC: 0.69757 (Simulation time: 0 hr 37 min 48 sec) 
Heartbeat CPU  0 instructions:  261000003 cycles:  371651544 heartbeat IPC: 1.32768 cumulative IPC: 0.69885 (Simulation time: 0 hr 37 min 58 sec) 
Heartbeat CPU  0 instructions:  262000003 cycles:  372410935 heartbeat IPC: 1.31684 cumulative IPC: 0.70011 (Simulation time: 0 hr 38 min 11 sec) 
Heartbeat CPU  0 instructions:  263000003 cycles:  373227330 heartbeat IPC: 1.22490 cumulative IPC: 0.70126 (Simulation time: 0 hr 38 min 24 sec) 
Heartbeat CPU  0 instructions:  264000000 cycles:  373985828 heartbeat IPC: 1.31839 cumulative IPC: 0.70252 (Simulation time: 0 hr 38 min 35 sec) 
Heartbeat CPU  0 instructions:  265000001 cycles:  374729196 heartbeat IPC: 1.34523 cumulative IPC: 0.70380 (Simulation time: 0 hr 38 min 45 sec) 
Heartbeat CPU  0 instructions:  266000000 cycles:  375509178 heartbeat IPC: 1.28208 cumulative IPC: 0.70500 (Simulation time: 0 hr 38 min 59 sec) 
Heartbeat CPU  0 instructions:  267000000 cycles:  376309097 heartbeat IPC: 1.25013 cumulative IPC: 0.70616 (Simulation time: 0 hr 39 min 12 sec) 
Heartbeat CPU  0 instructions:  268000000 cycles:  377065824 heartbeat IPC: 1.32148 cumulative IPC: 0.70740 (Simulation time: 0 hr 39 min 24 sec) 
Heartbeat CPU  0 instructions:  269000001 cycles:  377820961 heartbeat IPC: 1.32426 cumulative IPC: 0.70864 (Simulation time: 0 hr 39 min 37 sec) 
Heartbeat CPU  0 instructions:  270000003 cycles:  378618142 heartbeat IPC: 1.25442 cumulative IPC: 0.70979 (Simulation time: 0 hr 39 min 49 sec) 
Heartbeat CPU  0 instructions:  271000000 cycles:  379391571 heartbeat IPC: 1.29294 cumulative IPC: 0.71098 (Simulation time: 0 hr 40 min 2 sec) 
Heartbeat CPU  0 instructions:  272000000 cycles:  380213772 heartbeat IPC: 1.21625 cumulative IPC: 0.71208 (Simulation time: 0 hr 40 min 15 sec) 
Heartbeat CPU  0 instructions:  273000002 cycles:  381024435 heartbeat IPC: 1.23356 cumulative IPC: 0.71319 (Simulation time: 0 hr 40 min 27 sec) 
Heartbeat CPU  0 instructions:  274000003 cycles:  381778658 heartbeat IPC: 1.32587 cumulative IPC: 0.71440 (Simulation time: 0 hr 40 min 40 sec) 
Heartbeat CPU  0 instructions:  275000002 cycles:  382521960 heartbeat IPC: 1.34535 cumulative IPC: 0.71563 (Simulation time: 0 hr 40 min 54 sec) 
Heartbeat CPU  0 instructions:  276000000 cycles:  383272750 heartbeat IPC: 1.33193 cumulative IPC: 0.71684 (Simulation time: 0 hr 41 min 5 sec) 
Heartbeat CPU  0 instructions:  277000000 cycles:  384004222 heartbeat IPC: 1.36711 cumulative IPC: 0.71809 (Simulation time: 0 hr 41 min 16 sec) 
Heartbeat CPU  0 instructions:  278000001 cycles:  384758221 heartbeat IPC: 1.32626 cumulative IPC: 0.71928 (Simulation time: 0 hr 41 min 30 sec) 
Heartbeat CPU  0 instructions:  279000003 cycles:  385491820 heartbeat IPC: 1.36315 cumulative IPC: 0.72051 (Simulation time: 0 hr 41 min 40 sec) 
Heartbeat CPU  0 instructions:  280000000 cycles:  386221042 heartbeat IPC: 1.37132 cumulative IPC: 0.72174 (Simulation time: 0 hr 41 min 52 sec) 
Heartbeat CPU  0 instructions:  281000001 cycles:  386957362 heartbeat IPC: 1.35811 cumulative IPC: 0.72296 (Simulation time: 0 hr 42 min 5 sec) 
Heartbeat CPU  0 instructions:  282000000 cycles:  387691609 heartbeat IPC: 1.36194 cumulative IPC: 0.72417 (Simulation time: 0 hr 42 min 17 sec) 
Heartbeat CPU  0 instructions:  283000001 cycles:  388442148 heartbeat IPC: 1.33238 cumulative IPC: 0.72535 (Simulation time: 0 hr 42 min 28 sec) 
Heartbeat CPU  0 instructions:  284000000 cycles:  389172182 heartbeat IPC: 1.36980 cumulative IPC: 0.72656 (Simulation time: 0 hr 42 min 42 sec) 
Heartbeat CPU  0 instructions:  285000000 cycles:  389917154 heartbeat IPC: 1.34233 cumulative IPC: 0.72774 (Simulation time: 0 hr 42 min 55 sec) 
Heartbeat CPU  0 instructions:  286000002 cycles:  390660076 heartbeat IPC: 1.34604 cumulative IPC: 0.72892 (Simulation time: 0 hr 43 min 7 sec) 
Heartbeat CPU  0 instructions:  287000002 cycles:  391396831 heartbeat IPC: 1.35730 cumulative IPC: 0.73010 (Simulation time: 0 hr 43 min 20 sec) 
Heartbeat CPU  0 instructions:  288000000 cycles:  392133948 heartbeat IPC: 1.35663 cumulative IPC: 0.73128 (Simulation time: 0 hr 43 min 32 sec) 
Heartbeat CPU  0 instructions:  289000000 cycles:  392963556 heartbeat IPC: 1.20539 cumulative IPC: 0.73229 (Simulation time: 0 hr 43 min 42 sec) 
Heartbeat CPU  0 instructions:  290000001 cycles:  393796533 heartbeat IPC: 1.20051 cumulative IPC: 0.73328 (Simulation time: 0 hr 43 min 54 sec) 
Heartbeat CPU  0 instructions:  291000000 cycles:  394546622 heartbeat IPC: 1.33317 cumulative IPC: 0.73443 (Simulation time: 0 hr 44 min 6 sec) 
Heartbeat CPU  0 instructions:  292000000 cycles:  395273167 heartbeat IPC: 1.37638 cumulative IPC: 0.73561 (Simulation time: 0 hr 44 min 19 sec) 
Heartbeat CPU  0 instructions:  293000002 cycles:  396003274 heartbeat IPC: 1.36967 cumulative IPC: 0.73678 (Simulation time: 0 hr 44 min 32 sec) 
Heartbeat CPU  0 instructions:  294000002 cycles:  396733906 heartbeat IPC: 1.36868 cumulative IPC: 0.73795 (Simulation time: 0 hr 44 min 44 sec) 
Heartbeat CPU  0 instructions:  295000001 cycles:  397481647 heartbeat IPC: 1.33736 cumulative IPC: 0.73908 (Simulation time: 0 hr 44 min 57 sec) 
Heartbeat CPU  0 instructions:  296000000 cycles:  398209454 heartbeat IPC: 1.37399 cumulative IPC: 0.74024 (Simulation time: 0 hr 45 min 10 sec) 
Heartbeat CPU  0 instructions:  297000000 cycles:  398944386 heartbeat IPC: 1.36067 cumulative IPC: 0.74139 (Simulation time: 0 hr 45 min 21 sec) 
Heartbeat CPU  0 instructions:  298000001 cycles:  399679827 heartbeat IPC: 1.35973 cumulative IPC: 0.74253 (Simulation time: 0 hr 45 min 32 sec) 
Heartbeat CPU  0 instructions:  299000003 cycles:  400412404 heartbeat IPC: 1.36505 cumulative IPC: 0.74367 (Simulation time: 0 hr 45 min 49 sec) 
Heartbeat CPU  0 instructions:  300000000 cycles:  401171703 heartbeat IPC: 1.31700 cumulative IPC: 0.74476 (Simulation time: 0 hr 46 min 2 sec) 
Heartbeat CPU  0 instructions:  301000000 cycles:  401930515 heartbeat IPC: 1.31785 cumulative IPC: 0.74584 (Simulation time: 0 hr 46 min 11 sec) 
Heartbeat CPU  0 instructions:  302000001 cycles:  402661719 heartbeat IPC: 1.36761 cumulative IPC: 0.74697 (Simulation time: 0 hr 46 min 19 sec) 
Heartbeat CPU  0 instructions:  303000002 cycles:  403395439 heartbeat IPC: 1.36292 cumulative IPC: 0.74810 (Simulation time: 0 hr 46 min 25 sec) 
Heartbeat CPU  0 instructions:  304000000 cycles:  404144051 heartbeat IPC: 1.33580 cumulative IPC: 0.74919 (Simulation time: 0 hr 46 min 31 sec) 
Heartbeat CPU  0 instructions:  305000002 cycles:  404952061 heartbeat IPC: 1.23761 cumulative IPC: 0.75017 (Simulation time: 0 hr 46 min 39 sec) 
Heartbeat CPU  0 instructions:  306000003 cycles:  405767490 heartbeat IPC: 1.22635 cumulative IPC: 0.75113 (Simulation time: 0 hr 46 min 46 sec) 
Heartbeat CPU  0 instructions:  307000003 cycles:  406549344 heartbeat IPC: 1.27901 cumulative IPC: 0.75214 (Simulation time: 0 hr 46 min 55 sec) 
Heartbeat CPU  0 instructions:  308000000 cycles:  407299379 heartbeat IPC: 1.33327 cumulative IPC: 0.75322 (Simulation time: 0 hr 47 min 3 sec) 
Heartbeat CPU  0 instructions:  309000002 cycles:  408041005 heartbeat IPC: 1.34839 cumulative IPC: 0.75430 (Simulation time: 0 hr 47 min 10 sec) 
Heartbeat CPU  0 instructions:  310000000 cycles:  408776286 heartbeat IPC: 1.36002 cumulative IPC: 0.75539 (Simulation time: 0 hr 47 min 18 sec) 
Heartbeat CPU  0 instructions:  311000003 cycles:  409506944 heartbeat IPC: 1.36863 cumulative IPC: 0.75649 (Simulation time: 0 hr 47 min 25 sec) 
Heartbeat CPU  0 instructions:  312000000 cycles:  410259006 heartbeat IPC: 1.32967 cumulative IPC: 0.75754 (Simulation time: 0 hr 47 min 34 sec) 
Heartbeat CPU  0 instructions:  313000001 cycles:  411012812 heartbeat IPC: 1.32660 cumulative IPC: 0.75859 (Simulation time: 0 hr 47 min 41 sec) 
Heartbeat CPU  0 instructions:  314000001 cycles:  411765443 heartbeat IPC: 1.32867 cumulative IPC: 0.75963 (Simulation time: 0 hr 47 min 50 sec) 
Heartbeat CPU  0 instructions:  315000000 cycles:  412482030 heartbeat IPC: 1.39550 cumulative IPC: 0.76074 (Simulation time: 0 hr 48 min 0 sec) 
Heartbeat CPU  0 instructions:  316000000 cycles:  413204633 heartbeat IPC: 1.38389 cumulative IPC: 0.76183 (Simulation time: 0 hr 48 min 9 sec) 
Heartbeat CPU  0 instructions:  317000001 cycles:  413958525 heartbeat IPC: 1.32645 cumulative IPC: 0.76287 (Simulation time: 0 hr 48 min 18 sec) 
Heartbeat CPU  0 instructions:  318000000 cycles:  414694808 heartbeat IPC: 1.35817 cumulative IPC: 0.76392 (Simulation time: 0 hr 48 min 28 sec) 
Heartbeat CPU  0 instructions:  319000000 cycles:  415401991 heartbeat IPC: 1.41406 cumulative IPC: 0.76503 (Simulation time: 0 hr 48 min 37 sec) 
Heartbeat CPU  0 instructions:  320000000 cycles:  416129343 heartbeat IPC: 1.37485 cumulative IPC: 0.76610 (Simulation time: 0 hr 48 min 46 sec) 
Heartbeat CPU  0 instructions:  321000002 cycles:  416904479 heartbeat IPC: 1.29010 cumulative IPC: 0.76708 (Simulation time: 0 hr 48 min 55 sec) 
Heartbeat CPU  0 instructions:  322000001 cycles:  417679260 heartbeat IPC: 1.29069 cumulative IPC: 0.76805 (Simulation time: 0 hr 49 min 3 sec) 
Heartbeat CPU  0 instructions:  323000000 cycles:  418468315 heartbeat IPC: 1.26734 cumulative IPC: 0.76900 (Simulation time: 0 hr 49 min 11 sec) 
Heartbeat CPU  0 instructions:  324000000 cycles:  419254151 heartbeat IPC: 1.27253 cumulative IPC: 0.76994 (Simulation time: 0 hr 49 min 19 sec) 
Heartbeat CPU  0 instructions:  325000000 cycles:  420040092 heartbeat IPC: 1.27236 cumulative IPC: 0.77089 (Simulation time: 0 hr 49 min 28 sec) 
Heartbeat CPU  0 instructions:  326000003 cycles:  420831821 heartbeat IPC: 1.26306 cumulative IPC: 0.77181 (Simulation time: 0 hr 49 min 37 sec) 
Heartbeat CPU  0 instructions:  327000003 cycles:  421579361 heartbeat IPC: 1.33772 cumulative IPC: 0.77282 (Simulation time: 0 hr 49 min 46 sec) 
Heartbeat CPU  0 instructions:  328000000 cycles:  422340146 heartbeat IPC: 1.31443 cumulative IPC: 0.77380 (Simulation time: 0 hr 49 min 54 sec) 
Heartbeat CPU  0 instructions:  329000001 cycles:  423127298 heartbeat IPC: 1.27040 cumulative IPC: 0.77472 (Simulation time: 0 hr 50 min 3 sec) 
Heartbeat CPU  0 instructions:  330000000 cycles:  423911777 heartbeat IPC: 1.27473 cumulative IPC: 0.77565 (Simulation time: 0 hr 50 min 13 sec) 
Heartbeat CPU  0 instructions:  331000001 cycles:  424652470 heartbeat IPC: 1.35009 cumulative IPC: 0.77666 (Simulation time: 0 hr 50 min 21 sec) 
Heartbeat CPU  0 instructions:  332000000 cycles:  425428875 heartbeat IPC: 1.28799 cumulative IPC: 0.77759 (Simulation time: 0 hr 50 min 32 sec) 
Heartbeat CPU  0 instructions:  333000002 cycles:  426230117 heartbeat IPC: 1.24806 cumulative IPC: 0.77848 (Simulation time: 0 hr 50 min 42 sec) 
Heartbeat CPU  0 instructions:  334000002 cycles:  426998106 heartbeat IPC: 1.30210 cumulative IPC: 0.77942 (Simulation time: 0 hr 50 min 52 sec) 
Heartbeat CPU  0 instructions:  335000001 cycles:  427754050 heartbeat IPC: 1.32285 cumulative IPC: 0.78038 (Simulation time: 0 hr 51 min 1 sec) 
Heartbeat CPU  0 instructions:  336000000 cycles:  428529458 heartbeat IPC: 1.28964 cumulative IPC: 0.78131 (Simulation time: 0 hr 51 min 11 sec) 
Heartbeat CPU  0 instructions:  337000001 cycles:  429304835 heartbeat IPC: 1.28970 cumulative IPC: 0.78223 (Simulation time: 0 hr 51 min 19 sec) 
Heartbeat CPU  0 instructions:  338000001 cycles:  430086692 heartbeat IPC: 1.27901 cumulative IPC: 0.78313 (Simulation time: 0 hr 51 min 28 sec) 
Heartbeat CPU  0 instructions:  339000000 cycles:  430755889 heartbeat IPC: 1.49433 cumulative IPC: 0.78424 (Simulation time: 0 hr 51 min 35 sec) 
Heartbeat CPU  0 instructions:  340000000 cycles:  431205869 heartbeat IPC: 2.22232 cumulative IPC: 0.78575 (Simulation time: 0 hr 51 min 38 sec) 
Heartbeat CPU  0 instructions:  341000000 cycles:  431606753 heartbeat IPC: 2.49449 cumulative IPC: 0.78734 (Simulation time: 0 hr 51 min 39 sec) 
Heartbeat CPU  0 instructions:  342000001 cycles:  432306395 heartbeat IPC: 1.42930 cumulative IPC: 0.78838 (Simulation time: 0 hr 51 min 42 sec) 
Heartbeat CPU  0 instructions:  343000001 cycles:  433192501 heartbeat IPC: 1.12853 cumulative IPC: 0.78908 (Simulation time: 0 hr 51 min 46 sec) 
Heartbeat CPU  0 instructions:  344000000 cycles:  433939530 heartbeat IPC: 1.33863 cumulative IPC: 0.79002 (Simulation time: 0 hr 51 min 50 sec) 
Heartbeat CPU  0 instructions:  345000002 cycles:  434708935 heartbeat IPC: 1.29971 cumulative IPC: 0.79093 (Simulation time: 0 hr 51 min 53 sec) 
Heartbeat CPU  0 instructions:  346000001 cycles:  435474362 heartbeat IPC: 1.30646 cumulative IPC: 0.79184 (Simulation time: 0 hr 51 min 57 sec) 
Heartbeat CPU  0 instructions:  347000000 cycles:  436248824 heartbeat IPC: 1.29122 cumulative IPC: 0.79273 (Simulation time: 0 hr 52 min 2 sec) 
Heartbeat CPU  0 instructions:  348000000 cycles:  437028361 heartbeat IPC: 1.28281 cumulative IPC: 0.79360 (Simulation time: 0 hr 52 min 5 sec) 
Heartbeat CPU  0 instructions:  349000000 cycles:  437806131 heartbeat IPC: 1.28573 cumulative IPC: 0.79448 (Simulation time: 0 hr 52 min 9 sec) 
Heartbeat CPU  0 instructions:  350000003 cycles:  438587242 heartbeat IPC: 1.28023 cumulative IPC: 0.79535 (Simulation time: 0 hr 52 min 13 sec) 
Heartbeat CPU  0 instructions:  351000003 cycles:  439361383 heartbeat IPC: 1.29175 cumulative IPC: 0.79622 (Simulation time: 0 hr 52 min 17 sec) 
Heartbeat CPU  0 instructions:  352000000 cycles:  440139086 heartbeat IPC: 1.28583 cumulative IPC: 0.79709 (Simulation time: 0 hr 52 min 21 sec) 
Heartbeat CPU  0 instructions:  353000000 cycles:  440941464 heartbeat IPC: 1.24630 cumulative IPC: 0.79791 (Simulation time: 0 hr 52 min 25 sec) 
Heartbeat CPU  0 instructions:  354000000 cycles:  441992159 heartbeat IPC: 0.95175 cumulative IPC: 0.79828 (Simulation time: 0 hr 52 min 31 sec) 
Heartbeat CPU  0 instructions:  355000000 cycles:  443046824 heartbeat IPC: 0.94817 cumulative IPC: 0.79863 (Simulation time: 0 hr 52 min 36 sec) 
Heartbeat CPU  0 instructions:  356000000 cycles:  444113096 heartbeat IPC: 0.93785 cumulative IPC: 0.79897 (Simulation time: 0 hr 52 min 42 sec) 
Heartbeat CPU  0 instructions:  357000003 cycles:  445174832 heartbeat IPC: 0.94186 cumulative IPC: 0.79931 (Simulation time: 0 hr 52 min 48 sec) 
Heartbeat CPU  0 instructions:  358000003 cycles:  446228944 heartbeat IPC: 0.94867 cumulative IPC: 0.79966 (Simulation time: 0 hr 52 min 53 sec) 
Heartbeat CPU  0 instructions:  359000001 cycles:  447262291 heartbeat IPC: 0.96773 cumulative IPC: 0.80005 (Simulation time: 0 hr 52 min 59 sec) 
Heartbeat CPU  0 instructions:  360000000 cycles:  448313302 heartbeat IPC: 0.95146 cumulative IPC: 0.80041 (Simulation time: 0 hr 53 min 4 sec) 
Heartbeat CPU  0 instructions:  361000001 cycles:  449368135 heartbeat IPC: 0.94802 cumulative IPC: 0.80076 (Simulation time: 0 hr 53 min 10 sec) 
Heartbeat CPU  0 instructions:  362000001 cycles:  450416025 heartbeat IPC: 0.95430 cumulative IPC: 0.80111 (Simulation time: 0 hr 53 min 16 sec) 
Finished CPU 0 instructions: 360000003 cycles: 449374473 cumulative IPC: 0.80111 (Simulation time: 0 hr 53 min 16 sec) 

ChampSim completed all CPUs

[ROI Statistics]
Core_0_instructions 360000003
Core_0_cycles 449374473
Core_0_IPC 0.80111

Core_0_branch_prediction_accuracy 98.08116
Core_0_branch_MPKI 0.51551
Core_0_average_ROB_occupancy_at_mispredict 208.77900

Core_0_L1D_total_access 93298658
Core_0_L1D_total_hit 73577249
Core_0_L1D_total_miss 19721409
Core_0_L1D_loads 86775376
Core_0_L1D_load_hit 68249069
Core_0_L1D_load_miss 18526307
Core_0_L1D_RFOs 6523282
Core_0_L1D_RFO_hit 5328180
Core_0_L1D_RFO_miss 1195102
Core_0_L1D_prefetches 0
Core_0_L1D_prefetch_hit 0
Core_0_L1D_prefetch_miss 0
Core_0_L1D_writebacks 0
Core_0_L1D_writeback_hit 0
Core_0_L1D_writeback_miss 0
Core_0_L1D_prefetch_requested 0
Core_0_L1D_prefetch_issued 0
Core_0_L1D_prefetch_useful 0
Core_0_L1D_prefetch_useless 0
Core_0_L1D_prefetch_late 0
Core_0_L1D_average_miss_latency 42.64057

Core_0_L1I_total_access 115190765
Core_0_L1I_total_hit 115181355
Core_0_L1I_total_miss 9410
Core_0_L1I_loads 115190765
Core_0_L1I_load_hit 115181355
Core_0_L1I_load_miss 9410
Core_0_L1I_RFOs 0
Core_0_L1I_RFO_hit 0
Core_0_L1I_RFO_miss 0
Core_0_L1I_prefetches 0
Core_0_L1I_prefetch_hit 0
Core_0_L1I_prefetch_miss 0
Core_0_L1I_writebacks 0
Core_0_L1I_writeback_hit 0
Core_0_L1I_writeback_miss 0
Core_0_L1I_prefetch_requested 0
Core_0_L1I_prefetch_issued 0
Core_0_L1I_prefetch_useful 0
Core_0_L1I_prefetch_useless 0
Core_0_L1I_prefetch_late 0
Core_0_L1I_average_miss_latency 172.98587

Core_0_L2C_total_access 55053080
Core_0_L2C_total_hit 48194400
Core_0_L2C_total_miss 6858680
Core_0_L2C_loads 18535634
Core_0_L2C_load_hit 17029782
Core_0_L2C_load_miss 1505852
Core_0_L2C_RFOs 1195094
Core_0_L2C_RFO_hit 654030
Core_0_L2C_RFO_miss 541064
Core_0_L2C_prefetches 33271258
Core_0_L2C_prefetch_hit 28459774
Core_0_L2C_prefetch_miss 4811484
Core_0_L2C_writebacks 2051094
Core_0_L2C_writeback_hit 2050814
Core_0_L2C_writeback_miss 280
Core_0_L2C_prefetch_requested 40989485
Core_0_L2C_prefetch_issued 38304980
Core_0_L2C_prefetch_useful 3657388
Core_0_L2C_prefetch_useless 1177043
Core_0_L2C_prefetch_late 330932
Core_0_L2C_average_miss_latency 196.97680

Core_0_LLC_total_access 8604230
Core_0_LLC_total_hit 4639810
Core_0_LLC_total_miss 3964420
Core_0_LLC_loads 1178673
Core_0_LLC_load_hit 319187
Core_0_LLC_load_miss 859486
Core_0_LLC_RFOs 537381
Core_0_LLC_RFO_hit 3071
Core_0_LLC_RFO_miss 534310
Core_0_LLC_prefetches 5142346
Core_0_LLC_prefetch_hit 2571949
Core_0_LLC_prefetch_miss 2570397
Core_0_LLC_writebacks 1745830
Core_0_LLC_writeback_hit 1745603
Core_0_LLC_writeback_miss 227
Core_0_LLC_prefetch_requested 0
Core_0_LLC_prefetch_issued 0
Core_0_LLC_prefetch_useful 75074
Core_0_LLC_prefetch_useless 2497923
Core_0_LLC_prefetch_late 0
Core_0_LLC_average_miss_latency 299.73758

Core_0_major_page_fault 0
Core_0_minor_page_fault 18565

CPU 0 L2C next line prefetcher final stats
Channel_0_RQ_row_buffer_hit 1354914
Channel_0_RQ_row_buffer_miss 2609253
Channel_0_WQ_row_buffer_hit 455087
Channel_0_WQ_row_buffer_miss 1239127
Channel_0_WQ_full 0
Channel_0_dbus_congested 2362668

avg_congested_cycle 9
