*************************************************
   ChampSim Multicore Out-of-Order Simulator
   Last compiled: Aug 12 2024 01:42:02
*************************************************

trace_0 ./LLM_Traces/2B_Traces_SelfAttention_Phythia-70M-Seq1024-07-08-0125.champsim.xz
CPU 0 L2C next line prefetcher initialized
warmup_instructions 2000000
simulation_instructions 360000000
champsim_seed 200

num_cpus 1
cpu_freq 4000
dram_io_freq 2400
page_size 4096
block_size 64
max_read_per_cycle 8
max_fill_per_cycle 1
dram_channels 1
dram_ranks 1
dram_banks 8
dram_rows 65536
dram_columns 128
dram_row_size 8
dram_size 4096
dram_pages 1048576

fetch_width 6
decode_width 6
exec_width 4
lq_width 2
sq_width 2
retire_width 4
scheduler_size 128
branch_mispredict_penalty 20
rob_size 256
lq_size 72
sq_size 56
num_instr_destinations_sparc 4
num_instr_destinations 2
num_instr_sources 4

itlb_set 16
itlb_way 8
itlb_rq_size 16
itlb_wq_size 16
itlb_pq_size 0
itlb_mshr_size 8
itlb_latency 1

dtlb_set 16
dtlb_way 4
dtlb_rq_size 16
dtlb_wq_size 16
dtlb_pq_size 0
dtlb_mshr_size 8
dtlb_latency 1

stlb_set 128
stlb_way 12
stlb_rq_size 32
stlb_wq_size 32
stlb_pq_size 0
stlb_mshr_size 16
stlb_latency 8

l1i_size 32
l1i_set 64
l1i_way 8
l1i_rq_size 64
l1i_wq_size 64
l1i_pq_size 8
l1i_mshr_size 8
l1i_latency 1

l1d_size 32
l1d_set 64
l1d_way 8
l1d_rq_size 64
l1d_wq_size 64
l1d_pq_size 8
l1d_mshr_size 16
l1d_latency 4

l2c_size 512
l2c_set 1024
l2c_way 8
l2c_rq_size 32
l2c_wq_size 32
l2c_pq_size 16
l2c_mshr_size 32
l2c_latency 10

llc_size 2048
llc_set 2048
llc_way 16
llc_rq_size 32
llc_wq_size 32
llc_pq_size 32
llc_mshr_size 64
llc_latency 20

dram_channel_width 8
dram_wq_size 64
dram_rq_size 64
tRP 15
tRCD 15
tCAS 12.5
dram_dbus_turn_around_time 30
dram_write_high_wm 56
dram_write_low_wm 48
min_dram_writes_per_switch 16
dram_mtps 2400
dram_dbus_return_time 13


Heartbeat CPU  0 instructions:    1000001 cycles:     464964 heartbeat IPC: 2.15071 cumulative IPC: 2.15071 (Simulation time: 0 hr 0 min 11 sec) 
Heartbeat CPU  0 instructions:    2000000 cycles:    1038012 heartbeat IPC: 1.74505 cumulative IPC: 1.92676 (Simulation time: 0 hr 0 min 29 sec) 

Warmup complete CPU  0 instructions:    2000002 cycles:    1038013 (Simulation time: 0 hr 0 min 29 sec) 

Heartbeat CPU  0 instructions:    3000001 cycles:    2115468 heartbeat IPC: 0.92811 cumulative IPC: 0.92811 (Simulation time: 0 hr 0 min 46 sec) 
Heartbeat CPU  0 instructions:    4000000 cycles:    3237198 heartbeat IPC: 0.89148 cumulative IPC: 0.90943 (Simulation time: 0 hr 1 min 16 sec) 
Heartbeat CPU  0 instructions:    5000002 cycles:    4354918 heartbeat IPC: 0.89468 cumulative IPC: 0.90446 (Simulation time: 0 hr 1 min 36 sec) 
Heartbeat CPU  0 instructions:    6000001 cycles:    5474260 heartbeat IPC: 0.89338 cumulative IPC: 0.90166 (Simulation time: 0 hr 1 min 55 sec) 
Heartbeat CPU  0 instructions:    7000000 cycles:    6588975 heartbeat IPC: 0.89709 cumulative IPC: 0.90074 (Simulation time: 0 hr 2 min 9 sec) 
Heartbeat CPU  0 instructions:    8000000 cycles:    7711896 heartbeat IPC: 0.89053 cumulative IPC: 0.89903 (Simulation time: 0 hr 2 min 31 sec) 
Heartbeat CPU  0 instructions:    9000003 cycles:    8842815 heartbeat IPC: 0.88424 cumulative IPC: 0.89688 (Simulation time: 0 hr 2 min 44 sec) 
Heartbeat CPU  0 instructions:   10000003 cycles:    9969401 heartbeat IPC: 0.88764 cumulative IPC: 0.89572 (Simulation time: 0 hr 2 min 58 sec) 
Heartbeat CPU  0 instructions:   11000000 cycles:   11087604 heartbeat IPC: 0.89429 cumulative IPC: 0.89556 (Simulation time: 0 hr 3 min 18 sec) 
Heartbeat CPU  0 instructions:   12000000 cycles:   12221273 heartbeat IPC: 0.88209 cumulative IPC: 0.89419 (Simulation time: 0 hr 3 min 37 sec) 
Heartbeat CPU  0 instructions:   13000002 cycles:   13350923 heartbeat IPC: 0.88523 cumulative IPC: 0.89337 (Simulation time: 0 hr 3 min 55 sec) 
Heartbeat CPU  0 instructions:   14000000 cycles:   14460797 heartbeat IPC: 0.90100 cumulative IPC: 0.89400 (Simulation time: 0 hr 4 min 4 sec) 
Heartbeat CPU  0 instructions:   15000003 cycles:   15582104 heartbeat IPC: 0.89182 cumulative IPC: 0.89383 (Simulation time: 0 hr 4 min 14 sec) 
Heartbeat CPU  0 instructions:   16000000 cycles:   16711090 heartbeat IPC: 0.88575 cumulative IPC: 0.89325 (Simulation time: 0 hr 4 min 36 sec) 
Heartbeat CPU  0 instructions:   17000001 cycles:   17842627 heartbeat IPC: 0.88375 cumulative IPC: 0.89261 (Simulation time: 0 hr 4 min 44 sec) 
Heartbeat CPU  0 instructions:   18000003 cycles:   18991688 heartbeat IPC: 0.87028 cumulative IPC: 0.89118 (Simulation time: 0 hr 4 min 54 sec) 
Heartbeat CPU  0 instructions:   19000003 cycles:   20123418 heartbeat IPC: 0.88360 cumulative IPC: 0.89073 (Simulation time: 0 hr 5 min 3 sec) 
Heartbeat CPU  0 instructions:   20000000 cycles:   21261467 heartbeat IPC: 0.87869 cumulative IPC: 0.89006 (Simulation time: 0 hr 5 min 12 sec) 
Heartbeat CPU  0 instructions:   21000001 cycles:   22381680 heartbeat IPC: 0.89269 cumulative IPC: 0.89019 (Simulation time: 0 hr 5 min 25 sec) 
Heartbeat CPU  0 instructions:   22000001 cycles:   23528414 heartbeat IPC: 0.87204 cumulative IPC: 0.88927 (Simulation time: 0 hr 5 min 41 sec) 
Heartbeat CPU  0 instructions:   23000002 cycles:   24651742 heartbeat IPC: 0.89021 cumulative IPC: 0.88931 (Simulation time: 0 hr 5 min 52 sec) 
Heartbeat CPU  0 instructions:   24000000 cycles:   25774758 heartbeat IPC: 0.89046 cumulative IPC: 0.88937 (Simulation time: 0 hr 6 min 14 sec) 
Heartbeat CPU  0 instructions:   25000000 cycles:   26824823 heartbeat IPC: 0.95232 cumulative IPC: 0.89193 (Simulation time: 0 hr 6 min 46 sec) 
Heartbeat CPU  0 instructions:   26000003 cycles:   28020318 heartbeat IPC: 0.83648 cumulative IPC: 0.88947 (Simulation time: 0 hr 7 min 9 sec) 
Heartbeat CPU  0 instructions:   27000003 cycles:   29138741 heartbeat IPC: 0.89412 cumulative IPC: 0.88966 (Simulation time: 0 hr 7 min 27 sec) 
Heartbeat CPU  0 instructions:   28000000 cycles:   30267575 heartbeat IPC: 0.88587 cumulative IPC: 0.88951 (Simulation time: 0 hr 7 min 49 sec) 
Heartbeat CPU  0 instructions:   29000000 cycles:   31398963 heartbeat IPC: 0.88387 cumulative IPC: 0.88930 (Simulation time: 0 hr 7 min 59 sec) 
Heartbeat CPU  0 instructions:   30000001 cycles:   32541777 heartbeat IPC: 0.87503 cumulative IPC: 0.88878 (Simulation time: 0 hr 8 min 14 sec) 
Heartbeat CPU  0 instructions:   31000001 cycles:   33661031 heartbeat IPC: 0.89345 cumulative IPC: 0.88894 (Simulation time: 0 hr 8 min 33 sec) 
Heartbeat CPU  0 instructions:   32000000 cycles:   34779351 heartbeat IPC: 0.89420 cumulative IPC: 0.88912 (Simulation time: 0 hr 8 min 49 sec) 
Heartbeat CPU  0 instructions:   33000001 cycles:   35918787 heartbeat IPC: 0.87763 cumulative IPC: 0.88874 (Simulation time: 0 hr 9 min 4 sec) 
Heartbeat CPU  0 instructions:   34000000 cycles:   37055089 heartbeat IPC: 0.88005 cumulative IPC: 0.88847 (Simulation time: 0 hr 9 min 16 sec) 
Heartbeat CPU  0 instructions:   35000000 cycles:   38192777 heartbeat IPC: 0.87898 cumulative IPC: 0.88818 (Simulation time: 0 hr 9 min 26 sec) 
Heartbeat CPU  0 instructions:   36000000 cycles:   39324131 heartbeat IPC: 0.88390 cumulative IPC: 0.88805 (Simulation time: 0 hr 9 min 38 sec) 
Heartbeat CPU  0 instructions:   37000000 cycles:   40440310 heartbeat IPC: 0.89591 cumulative IPC: 0.88827 (Simulation time: 0 hr 9 min 49 sec) 
Heartbeat CPU  0 instructions:   38000003 cycles:   41586589 heartbeat IPC: 0.87239 cumulative IPC: 0.88782 (Simulation time: 0 hr 10 min 0 sec) 
Heartbeat CPU  0 instructions:   39000003 cycles:   42712314 heartbeat IPC: 0.88832 cumulative IPC: 0.88784 (Simulation time: 0 hr 10 min 10 sec) 
Heartbeat CPU  0 instructions:   40000000 cycles:   43838192 heartbeat IPC: 0.88819 cumulative IPC: 0.88785 (Simulation time: 0 hr 10 min 21 sec) 
Heartbeat CPU  0 instructions:   41000002 cycles:   45004611 heartbeat IPC: 0.85733 cumulative IPC: 0.88704 (Simulation time: 0 hr 10 min 32 sec) 
Heartbeat CPU  0 instructions:   42000001 cycles:   46131334 heartbeat IPC: 0.88753 cumulative IPC: 0.88705 (Simulation time: 0 hr 10 min 45 sec) 
Heartbeat CPU  0 instructions:   43000001 cycles:   47275188 heartbeat IPC: 0.87424 cumulative IPC: 0.88673 (Simulation time: 0 hr 11 min 1 sec) 
Heartbeat CPU  0 instructions:   44000000 cycles:   48418347 heartbeat IPC: 0.87477 cumulative IPC: 0.88644 (Simulation time: 0 hr 11 min 18 sec) 
Heartbeat CPU  0 instructions:   45000002 cycles:   49548334 heartbeat IPC: 0.88497 cumulative IPC: 0.88641 (Simulation time: 0 hr 11 min 35 sec) 
Heartbeat CPU  0 instructions:   46000001 cycles:   50692544 heartbeat IPC: 0.87396 cumulative IPC: 0.88612 (Simulation time: 0 hr 11 min 46 sec) 
Heartbeat CPU  0 instructions:   47000001 cycles:   51833375 heartbeat IPC: 0.87655 cumulative IPC: 0.88591 (Simulation time: 0 hr 11 min 59 sec) 
Heartbeat CPU  0 instructions:   48000000 cycles:   52971777 heartbeat IPC: 0.87842 cumulative IPC: 0.88574 (Simulation time: 0 hr 12 min 37 sec) 
Heartbeat CPU  0 instructions:   49000000 cycles:   54092575 heartbeat IPC: 0.89222 cumulative IPC: 0.88588 (Simulation time: 0 hr 13 min 20 sec) 
Heartbeat CPU  0 instructions:   50000000 cycles:   55150590 heartbeat IPC: 0.94517 cumulative IPC: 0.88704 (Simulation time: 0 hr 13 min 48 sec) 
Heartbeat CPU  0 instructions:   51000000 cycles:   56130353 heartbeat IPC: 1.02066 cumulative IPC: 0.88942 (Simulation time: 0 hr 14 min 23 sec) 
Heartbeat CPU  0 instructions:   52000000 cycles:   57106734 heartbeat IPC: 1.02419 cumulative IPC: 0.89176 (Simulation time: 0 hr 14 min 51 sec) 
Heartbeat CPU  0 instructions:   53000002 cycles:   58080308 heartbeat IPC: 1.02715 cumulative IPC: 0.89407 (Simulation time: 0 hr 15 min 18 sec) 
Heartbeat CPU  0 instructions:   54000003 cycles:   59054606 heartbeat IPC: 1.02638 cumulative IPC: 0.89630 (Simulation time: 0 hr 15 min 41 sec) 
Heartbeat CPU  0 instructions:   55000001 cycles:   60032865 heartbeat IPC: 1.02222 cumulative IPC: 0.89838 (Simulation time: 0 hr 16 min 5 sec) 
Heartbeat CPU  0 instructions:   56000000 cycles:   61012367 heartbeat IPC: 1.02093 cumulative IPC: 0.90038 (Simulation time: 0 hr 16 min 29 sec) 
Heartbeat CPU  0 instructions:   57000000 cycles:   61995905 heartbeat IPC: 1.01674 cumulative IPC: 0.90226 (Simulation time: 0 hr 16 min 48 sec) 
Heartbeat CPU  0 instructions:   58000001 cycles:   62979044 heartbeat IPC: 1.01715 cumulative IPC: 0.90409 (Simulation time: 0 hr 16 min 59 sec) 
Heartbeat CPU  0 instructions:   59000001 cycles:   63953214 heartbeat IPC: 1.02651 cumulative IPC: 0.90598 (Simulation time: 0 hr 17 min 16 sec) 
Heartbeat CPU  0 instructions:   60000000 cycles:   64924625 heartbeat IPC: 1.02943 cumulative IPC: 0.90786 (Simulation time: 0 hr 17 min 27 sec) 
Heartbeat CPU  0 instructions:   61000001 cycles:   65897974 heartbeat IPC: 1.02738 cumulative IPC: 0.90965 (Simulation time: 0 hr 17 min 41 sec) 
Heartbeat CPU  0 instructions:   62000001 cycles:   66863434 heartbeat IPC: 1.03578 cumulative IPC: 0.91150 (Simulation time: 0 hr 17 min 56 sec) 
Heartbeat CPU  0 instructions:   63000000 cycles:   67833829 heartbeat IPC: 1.03051 cumulative IPC: 0.91323 (Simulation time: 0 hr 18 min 9 sec) 
Heartbeat CPU  0 instructions:   64000000 cycles:   68798079 heartbeat IPC: 1.03708 cumulative IPC: 0.91499 (Simulation time: 0 hr 18 min 23 sec) 
Heartbeat CPU  0 instructions:   65000003 cycles:   69731311 heartbeat IPC: 1.07155 cumulative IPC: 0.91712 (Simulation time: 0 hr 18 min 35 sec) 
Heartbeat CPU  0 instructions:   66000000 cycles:   70949244 heartbeat IPC: 0.82106 cumulative IPC: 0.91545 (Simulation time: 0 hr 19 min 2 sec) 
Heartbeat CPU  0 instructions:   67000001 cycles:   72073391 heartbeat IPC: 0.88956 cumulative IPC: 0.91504 (Simulation time: 0 hr 19 min 34 sec) 
Heartbeat CPU  0 instructions:   68000000 cycles:   73173042 heartbeat IPC: 0.90938 cumulative IPC: 0.91495 (Simulation time: 0 hr 20 min 3 sec) 
Heartbeat CPU  0 instructions:   69000001 cycles:   74285429 heartbeat IPC: 0.89897 cumulative IPC: 0.91471 (Simulation time: 0 hr 20 min 38 sec) 
Heartbeat CPU  0 instructions:   70000001 cycles:   75402962 heartbeat IPC: 0.89483 cumulative IPC: 0.91441 (Simulation time: 0 hr 21 min 10 sec) 
Heartbeat CPU  0 instructions:   71000003 cycles:   76493524 heartbeat IPC: 0.91696 cumulative IPC: 0.91445 (Simulation time: 0 hr 21 min 30 sec) 
Heartbeat CPU  0 instructions:   72000000 cycles:   77588050 heartbeat IPC: 0.91363 cumulative IPC: 0.91443 (Simulation time: 0 hr 21 min 51 sec) 
Heartbeat CPU  0 instructions:   73000001 cycles:   78711737 heartbeat IPC: 0.88993 cumulative IPC: 0.91408 (Simulation time: 0 hr 22 min 2 sec) 
Heartbeat CPU  0 instructions:   74000001 cycles:   79839273 heartbeat IPC: 0.88689 cumulative IPC: 0.91369 (Simulation time: 0 hr 22 min 15 sec) 
Heartbeat CPU  0 instructions:   75000001 cycles:   80969163 heartbeat IPC: 0.88504 cumulative IPC: 0.91329 (Simulation time: 0 hr 22 min 30 sec) 
Heartbeat CPU  0 instructions:   76000000 cycles:   82088844 heartbeat IPC: 0.89311 cumulative IPC: 0.91301 (Simulation time: 0 hr 22 min 53 sec) 
Heartbeat CPU  0 instructions:   77000003 cycles:   83193775 heartbeat IPC: 0.90504 cumulative IPC: 0.91290 (Simulation time: 0 hr 23 min 19 sec) 
Heartbeat CPU  0 instructions:   78000002 cycles:   84297359 heartbeat IPC: 0.90614 cumulative IPC: 0.91281 (Simulation time: 0 hr 23 min 51 sec) 
Heartbeat CPU  0 instructions:   79000001 cycles:   85405291 heartbeat IPC: 0.90258 cumulative IPC: 0.91268 (Simulation time: 0 hr 24 min 9 sec) 
Heartbeat CPU  0 instructions:   80000000 cycles:   86507765 heartbeat IPC: 0.90705 cumulative IPC: 0.91260 (Simulation time: 0 hr 24 min 27 sec) 
Heartbeat CPU  0 instructions:   81000000 cycles:   87631865 heartbeat IPC: 0.88960 cumulative IPC: 0.91230 (Simulation time: 0 hr 24 min 38 sec) 
Heartbeat CPU  0 instructions:   82000000 cycles:   88772896 heartbeat IPC: 0.87640 cumulative IPC: 0.91184 (Simulation time: 0 hr 24 min 49 sec) 
Heartbeat CPU  0 instructions:   83000003 cycles:   89925711 heartbeat IPC: 0.86744 cumulative IPC: 0.91126 (Simulation time: 0 hr 25 min 0 sec) 
Heartbeat CPU  0 instructions:   84000000 cycles:   91068407 heartbeat IPC: 0.87512 cumulative IPC: 0.91080 (Simulation time: 0 hr 25 min 11 sec) 
Heartbeat CPU  0 instructions:   85000003 cycles:   92187013 heartbeat IPC: 0.89397 cumulative IPC: 0.91060 (Simulation time: 0 hr 25 min 23 sec) 
Heartbeat CPU  0 instructions:   86000001 cycles:   93300749 heartbeat IPC: 0.89788 cumulative IPC: 0.91044 (Simulation time: 0 hr 25 min 35 sec) 
Heartbeat CPU  0 instructions:   87000001 cycles:   94428177 heartbeat IPC: 0.88697 cumulative IPC: 0.91016 (Simulation time: 0 hr 25 min 47 sec) 
Heartbeat CPU  0 instructions:   88000000 cycles:   95554255 heartbeat IPC: 0.88804 cumulative IPC: 0.90990 (Simulation time: 0 hr 25 min 58 sec) 
Heartbeat CPU  0 instructions:   89000002 cycles:   96673574 heartbeat IPC: 0.89340 cumulative IPC: 0.90970 (Simulation time: 0 hr 26 min 8 sec) 
Heartbeat CPU  0 instructions:   90000002 cycles:   97744504 heartbeat IPC: 0.93377 cumulative IPC: 0.90997 (Simulation time: 0 hr 26 min 17 sec) 
Heartbeat CPU  0 instructions:   91000001 cycles:   98889656 heartbeat IPC: 0.87325 cumulative IPC: 0.90954 (Simulation time: 0 hr 26 min 29 sec) 
Heartbeat CPU  0 instructions:   92000000 cycles:  100022307 heartbeat IPC: 0.88288 cumulative IPC: 0.90924 (Simulation time: 0 hr 26 min 41 sec) 
Heartbeat CPU  0 instructions:   93000000 cycles:  101165297 heartbeat IPC: 0.87490 cumulative IPC: 0.90884 (Simulation time: 0 hr 26 min 52 sec) 
Heartbeat CPU  0 instructions:   94000001 cycles:  102274887 heartbeat IPC: 0.90123 cumulative IPC: 0.90876 (Simulation time: 0 hr 27 min 3 sec) 
Heartbeat CPU  0 instructions:   95000000 cycles:  103389995 heartbeat IPC: 0.89677 cumulative IPC: 0.90863 (Simulation time: 0 hr 27 min 14 sec) 
Heartbeat CPU  0 instructions:   96000000 cycles:  104507514 heartbeat IPC: 0.89484 cumulative IPC: 0.90848 (Simulation time: 0 hr 27 min 26 sec) 
Heartbeat CPU  0 instructions:   97000002 cycles:  105617384 heartbeat IPC: 0.90101 cumulative IPC: 0.90840 (Simulation time: 0 hr 27 min 37 sec) 
Heartbeat CPU  0 instructions:   98000000 cycles:  106743932 heartbeat IPC: 0.88767 cumulative IPC: 0.90818 (Simulation time: 0 hr 27 min 47 sec) 
Heartbeat CPU  0 instructions:   99000000 cycles:  107864187 heartbeat IPC: 0.89265 cumulative IPC: 0.90802 (Simulation time: 0 hr 27 min 58 sec) 
Heartbeat CPU  0 instructions:  100000000 cycles:  108998417 heartbeat IPC: 0.88166 cumulative IPC: 0.90774 (Simulation time: 0 hr 28 min 9 sec) 
Heartbeat CPU  0 instructions:  101000001 cycles:  110127295 heartbeat IPC: 0.88584 cumulative IPC: 0.90751 (Simulation time: 0 hr 28 min 22 sec) 
Heartbeat CPU  0 instructions:  102000003 cycles:  111251221 heartbeat IPC: 0.88974 cumulative IPC: 0.90733 (Simulation time: 0 hr 28 min 35 sec) 
Heartbeat CPU  0 instructions:  103000001 cycles:  112380309 heartbeat IPC: 0.88567 cumulative IPC: 0.90711 (Simulation time: 0 hr 28 min 46 sec) 
Heartbeat CPU  0 instructions:  104000000 cycles:  113491066 heartbeat IPC: 0.90029 cumulative IPC: 0.90705 (Simulation time: 0 hr 28 min 57 sec) 
Heartbeat CPU  0 instructions:  105000001 cycles:  114626706 heartbeat IPC: 0.88056 cumulative IPC: 0.90678 (Simulation time: 0 hr 29 min 9 sec) 
Heartbeat CPU  0 instructions:  106000000 cycles:  115749418 heartbeat IPC: 0.89070 cumulative IPC: 0.90662 (Simulation time: 0 hr 29 min 20 sec) 
Heartbeat CPU  0 instructions:  107000001 cycles:  116884319 heartbeat IPC: 0.88113 cumulative IPC: 0.90637 (Simulation time: 0 hr 29 min 33 sec) 
Heartbeat CPU  0 instructions:  108000000 cycles:  118015074 heartbeat IPC: 0.88436 cumulative IPC: 0.90616 (Simulation time: 0 hr 29 min 44 sec) 
Heartbeat CPU  0 instructions:  109000000 cycles:  119168503 heartbeat IPC: 0.86698 cumulative IPC: 0.90578 (Simulation time: 0 hr 29 min 56 sec) 
Heartbeat CPU  0 instructions:  110000002 cycles:  120306290 heartbeat IPC: 0.87890 cumulative IPC: 0.90552 (Simulation time: 0 hr 30 min 8 sec) 
Heartbeat CPU  0 instructions:  111000001 cycles:  121440247 heartbeat IPC: 0.88187 cumulative IPC: 0.90530 (Simulation time: 0 hr 30 min 19 sec) 
Heartbeat CPU  0 instructions:  112000000 cycles:  122546629 heartbeat IPC: 0.90385 cumulative IPC: 0.90529 (Simulation time: 0 hr 30 min 30 sec) 
Heartbeat CPU  0 instructions:  113000000 cycles:  123657682 heartbeat IPC: 0.90005 cumulative IPC: 0.90524 (Simulation time: 0 hr 30 min 41 sec) 
Heartbeat CPU  0 instructions:  114000000 cycles:  124727605 heartbeat IPC: 0.93465 cumulative IPC: 0.90549 (Simulation time: 0 hr 30 min 52 sec) 
Heartbeat CPU  0 instructions:  115000002 cycles:  125686955 heartbeat IPC: 1.04237 cumulative IPC: 0.90655 (Simulation time: 0 hr 31 min 5 sec) 
Heartbeat CPU  0 instructions:  116000000 cycles:  126657924 heartbeat IPC: 1.02990 cumulative IPC: 0.90750 (Simulation time: 0 hr 31 min 17 sec) 
Heartbeat CPU  0 instructions:  117000000 cycles:  127621306 heartbeat IPC: 1.03801 cumulative IPC: 0.90849 (Simulation time: 0 hr 31 min 28 sec) 
Heartbeat CPU  0 instructions:  118000003 cycles:  128578368 heartbeat IPC: 1.04487 cumulative IPC: 0.90952 (Simulation time: 0 hr 31 min 40 sec) 
Heartbeat CPU  0 instructions:  119000001 cycles:  129545149 heartbeat IPC: 1.03436 cumulative IPC: 0.91046 (Simulation time: 0 hr 31 min 51 sec) 
Heartbeat CPU  0 instructions:  120000000 cycles:  130502573 heartbeat IPC: 1.04447 cumulative IPC: 0.91145 (Simulation time: 0 hr 32 min 3 sec) 
Heartbeat CPU  0 instructions:  121000001 cycles:  131460895 heartbeat IPC: 1.04349 cumulative IPC: 0.91242 (Simulation time: 0 hr 32 min 14 sec) 
Heartbeat CPU  0 instructions:  122000000 cycles:  132412160 heartbeat IPC: 1.05123 cumulative IPC: 0.91342 (Simulation time: 0 hr 32 min 26 sec) 
Heartbeat CPU  0 instructions:  123000003 cycles:  133360197 heartbeat IPC: 1.05481 cumulative IPC: 0.91443 (Simulation time: 0 hr 32 min 38 sec) 
Heartbeat CPU  0 instructions:  124000000 cycles:  134301920 heartbeat IPC: 1.06188 cumulative IPC: 0.91548 (Simulation time: 0 hr 32 min 49 sec) 
Heartbeat CPU  0 instructions:  125000003 cycles:  135246038 heartbeat IPC: 1.05919 cumulative IPC: 0.91649 (Simulation time: 0 hr 33 min 0 sec) 
Heartbeat CPU  0 instructions:  126000003 cycles:  136197193 heartbeat IPC: 1.05135 cumulative IPC: 0.91744 (Simulation time: 0 hr 33 min 13 sec) 
Heartbeat CPU  0 instructions:  127000002 cycles:  137149684 heartbeat IPC: 1.04988 cumulative IPC: 0.91836 (Simulation time: 0 hr 33 min 25 sec) 
Heartbeat CPU  0 instructions:  128000000 cycles:  138100574 heartbeat IPC: 1.05164 cumulative IPC: 0.91929 (Simulation time: 0 hr 33 min 36 sec) 
Heartbeat CPU  0 instructions:  129000000 cycles:  139039146 heartbeat IPC: 1.06545 cumulative IPC: 0.92028 (Simulation time: 0 hr 33 min 47 sec) 
Heartbeat CPU  0 instructions:  130000000 cycles:  139593151 heartbeat IPC: 1.80504 cumulative IPC: 0.92382 (Simulation time: 0 hr 33 min 50 sec) 
Heartbeat CPU  0 instructions:  131000000 cycles:  139964471 heartbeat IPC: 2.69309 cumulative IPC: 0.92855 (Simulation time: 0 hr 33 min 51 sec) 
Heartbeat CPU  0 instructions:  132000000 cycles:  141040187 heartbeat IPC: 0.92961 cumulative IPC: 0.92856 (Simulation time: 0 hr 33 min 55 sec) 
Heartbeat CPU  0 instructions:  133000001 cycles:  148107323 heartbeat IPC: 0.14150 cumulative IPC: 0.89074 (Simulation time: 0 hr 34 min 18 sec) 
Heartbeat CPU  0 instructions:  134000000 cycles:  155620802 heartbeat IPC: 0.13309 cumulative IPC: 0.85391 (Simulation time: 0 hr 34 min 42 sec) 
Heartbeat CPU  0 instructions:  135000002 cycles:  163185149 heartbeat IPC: 0.13220 cumulative IPC: 0.82024 (Simulation time: 0 hr 35 min 5 sec) 
Heartbeat CPU  0 instructions:  136000000 cycles:  170698416 heartbeat IPC: 0.13310 cumulative IPC: 0.78981 (Simulation time: 0 hr 35 min 29 sec) 
Heartbeat CPU  0 instructions:  137000000 cycles:  175044729 heartbeat IPC: 0.23008 cumulative IPC: 0.77583 (Simulation time: 0 hr 35 min 42 sec) 
Heartbeat CPU  0 instructions:  138000002 cycles:  177268016 heartbeat IPC: 0.44979 cumulative IPC: 0.77172 (Simulation time: 0 hr 35 min 48 sec) 
Heartbeat CPU  0 instructions:  139000000 cycles:  179798534 heartbeat IPC: 0.39518 cumulative IPC: 0.76639 (Simulation time: 0 hr 35 min 55 sec) 
Heartbeat CPU  0 instructions:  140000000 cycles:  182341716 heartbeat IPC: 0.39321 cumulative IPC: 0.76115 (Simulation time: 0 hr 36 min 2 sec) 
Heartbeat CPU  0 instructions:  141000002 cycles:  184747629 heartbeat IPC: 0.41564 cumulative IPC: 0.75663 (Simulation time: 0 hr 36 min 9 sec) 
Heartbeat CPU  0 instructions:  142000001 cycles:  187132765 heartbeat IPC: 0.41926 cumulative IPC: 0.75230 (Simulation time: 0 hr 36 min 16 sec) 
Heartbeat CPU  0 instructions:  143000000 cycles:  189517864 heartbeat IPC: 0.41927 cumulative IPC: 0.74809 (Simulation time: 0 hr 36 min 23 sec) 
Heartbeat CPU  0 instructions:  144000000 cycles:  191994114 heartbeat IPC: 0.40384 cumulative IPC: 0.74363 (Simulation time: 0 hr 36 min 31 sec) 
Heartbeat CPU  0 instructions:  145000000 cycles:  194407614 heartbeat IPC: 0.41434 cumulative IPC: 0.73952 (Simulation time: 0 hr 36 min 38 sec) 
Heartbeat CPU  0 instructions:  146000003 cycles:  196831402 heartbeat IPC: 0.41258 cumulative IPC: 0.73547 (Simulation time: 0 hr 36 min 44 sec) 
Heartbeat CPU  0 instructions:  147000002 cycles:  199210082 heartbeat IPC: 0.42040 cumulative IPC: 0.73169 (Simulation time: 0 hr 36 min 51 sec) 
Heartbeat CPU  0 instructions:  148000000 cycles:  201603406 heartbeat IPC: 0.41783 cumulative IPC: 0.72794 (Simulation time: 0 hr 36 min 58 sec) 
Heartbeat CPU  0 instructions:  149000003 cycles:  203968627 heartbeat IPC: 0.42279 cumulative IPC: 0.72439 (Simulation time: 0 hr 37 min 4 sec) 
Heartbeat CPU  0 instructions:  150000001 cycles:  206322531 heartbeat IPC: 0.42483 cumulative IPC: 0.72095 (Simulation time: 0 hr 37 min 12 sec) 
Heartbeat CPU  0 instructions:  151000000 cycles:  208844548 heartbeat IPC: 0.39651 cumulative IPC: 0.71701 (Simulation time: 0 hr 37 min 19 sec) 
Heartbeat CPU  0 instructions:  152000000 cycles:  211390661 heartbeat IPC: 0.39276 cumulative IPC: 0.71309 (Simulation time: 0 hr 37 min 26 sec) 
Heartbeat CPU  0 instructions:  153000002 cycles:  213868108 heartbeat IPC: 0.40364 cumulative IPC: 0.70949 (Simulation time: 0 hr 37 min 33 sec) 
Heartbeat CPU  0 instructions:  154000003 cycles:  216302939 heartbeat IPC: 0.41071 cumulative IPC: 0.70611 (Simulation time: 0 hr 37 min 39 sec) 
Heartbeat CPU  0 instructions:  155000000 cycles:  218683558 heartbeat IPC: 0.42006 cumulative IPC: 0.70298 (Simulation time: 0 hr 37 min 46 sec) 
Heartbeat CPU  0 instructions:  156000000 cycles:  221079188 heartbeat IPC: 0.41743 cumulative IPC: 0.69987 (Simulation time: 0 hr 37 min 53 sec) 
Heartbeat CPU  0 instructions:  157000000 cycles:  223472432 heartbeat IPC: 0.41784 cumulative IPC: 0.69683 (Simulation time: 0 hr 38 min 0 sec) 
Heartbeat CPU  0 instructions:  158000001 cycles:  225836779 heartbeat IPC: 0.42295 cumulative IPC: 0.69395 (Simulation time: 0 hr 38 min 7 sec) 
Heartbeat CPU  0 instructions:  159000002 cycles:  228239448 heartbeat IPC: 0.41620 cumulative IPC: 0.69102 (Simulation time: 0 hr 38 min 14 sec) 
Heartbeat CPU  0 instructions:  160000000 cycles:  230699362 heartbeat IPC: 0.40652 cumulative IPC: 0.68797 (Simulation time: 0 hr 38 min 21 sec) 
Heartbeat CPU  0 instructions:  161000001 cycles:  233097157 heartbeat IPC: 0.41705 cumulative IPC: 0.68517 (Simulation time: 0 hr 38 min 28 sec) 
Heartbeat CPU  0 instructions:  162000000 cycles:  235489612 heartbeat IPC: 0.41798 cumulative IPC: 0.68244 (Simulation time: 0 hr 38 min 34 sec) 
Heartbeat CPU  0 instructions:  163000001 cycles:  237919086 heartbeat IPC: 0.41161 cumulative IPC: 0.67967 (Simulation time: 0 hr 38 min 41 sec) 
Heartbeat CPU  0 instructions:  164000000 cycles:  240315601 heartbeat IPC: 0.41727 cumulative IPC: 0.67704 (Simulation time: 0 hr 38 min 48 sec) 
Heartbeat CPU  0 instructions:  165000000 cycles:  242715912 heartbeat IPC: 0.41661 cumulative IPC: 0.67445 (Simulation time: 0 hr 38 min 54 sec) 
Heartbeat CPU  0 instructions:  166000002 cycles:  245193935 heartbeat IPC: 0.40355 cumulative IPC: 0.67170 (Simulation time: 0 hr 39 min 1 sec) 
Heartbeat CPU  0 instructions:  167000000 cycles:  247639916 heartbeat IPC: 0.40883 cumulative IPC: 0.66909 (Simulation time: 0 hr 39 min 8 sec) 
Heartbeat CPU  0 instructions:  168000000 cycles:  250021596 heartbeat IPC: 0.41987 cumulative IPC: 0.66671 (Simulation time: 0 hr 39 min 15 sec) 
Heartbeat CPU  0 instructions:  169000000 cycles:  252466695 heartbeat IPC: 0.40898 cumulative IPC: 0.66420 (Simulation time: 0 hr 39 min 22 sec) 
Heartbeat CPU  0 instructions:  170000000 cycles:  254885547 heartbeat IPC: 0.41342 cumulative IPC: 0.66181 (Simulation time: 0 hr 39 min 28 sec) 
Heartbeat CPU  0 instructions:  171000000 cycles:  257322791 heartbeat IPC: 0.41030 cumulative IPC: 0.65942 (Simulation time: 0 hr 39 min 35 sec) 
Heartbeat CPU  0 instructions:  172000000 cycles:  259753210 heartbeat IPC: 0.41145 cumulative IPC: 0.65709 (Simulation time: 0 hr 39 min 41 sec) 
Heartbeat CPU  0 instructions:  173000001 cycles:  262160073 heartbeat IPC: 0.41548 cumulative IPC: 0.65487 (Simulation time: 0 hr 39 min 48 sec) 
Heartbeat CPU  0 instructions:  174000000 cycles:  264577378 heartbeat IPC: 0.41368 cumulative IPC: 0.65265 (Simulation time: 0 hr 39 min 55 sec) 
Heartbeat CPU  0 instructions:  175000003 cycles:  266998302 heartbeat IPC: 0.41307 cumulative IPC: 0.65047 (Simulation time: 0 hr 40 min 3 sec) 
Heartbeat CPU  0 instructions:  176000000 cycles:  269366119 heartbeat IPC: 0.42233 cumulative IPC: 0.64846 (Simulation time: 0 hr 40 min 10 sec) 
Heartbeat CPU  0 instructions:  177000000 cycles:  271745002 heartbeat IPC: 0.42037 cumulative IPC: 0.64646 (Simulation time: 0 hr 40 min 18 sec) 
Heartbeat CPU  0 instructions:  178000000 cycles:  274210562 heartbeat IPC: 0.40559 cumulative IPC: 0.64428 (Simulation time: 0 hr 40 min 24 sec) 
Heartbeat CPU  0 instructions:  179000003 cycles:  276663233 heartbeat IPC: 0.40772 cumulative IPC: 0.64218 (Simulation time: 0 hr 40 min 31 sec) 
Heartbeat CPU  0 instructions:  180000000 cycles:  279116529 heartbeat IPC: 0.40761 cumulative IPC: 0.64011 (Simulation time: 0 hr 40 min 37 sec) 
Heartbeat CPU  0 instructions:  181000002 cycles:  281611622 heartbeat IPC: 0.40079 cumulative IPC: 0.63798 (Simulation time: 0 hr 40 min 45 sec) 
Heartbeat CPU  0 instructions:  182000001 cycles:  284006320 heartbeat IPC: 0.41759 cumulative IPC: 0.63611 (Simulation time: 0 hr 40 min 51 sec) 
Heartbeat CPU  0 instructions:  183000000 cycles:  286425872 heartbeat IPC: 0.41330 cumulative IPC: 0.63422 (Simulation time: 0 hr 40 min 58 sec) 
Heartbeat CPU  0 instructions:  184000000 cycles:  288822675 heartbeat IPC: 0.41722 cumulative IPC: 0.63242 (Simulation time: 0 hr 41 min 4 sec) 
Heartbeat CPU  0 instructions:  185000002 cycles:  291245851 heartbeat IPC: 0.41268 cumulative IPC: 0.63058 (Simulation time: 0 hr 41 min 11 sec) 
Heartbeat CPU  0 instructions:  186000000 cycles:  293620122 heartbeat IPC: 0.42118 cumulative IPC: 0.62888 (Simulation time: 0 hr 41 min 18 sec) 
Heartbeat CPU  0 instructions:  187000000 cycles:  296023647 heartbeat IPC: 0.41606 cumulative IPC: 0.62715 (Simulation time: 0 hr 41 min 31 sec) 
Heartbeat CPU  0 instructions:  188000000 cycles:  298413182 heartbeat IPC: 0.41849 cumulative IPC: 0.62547 (Simulation time: 0 hr 41 min 38 sec) 
Heartbeat CPU  0 instructions:  189000000 cycles:  300870178 heartbeat IPC: 0.40700 cumulative IPC: 0.62368 (Simulation time: 0 hr 41 min 45 sec) 
Heartbeat CPU  0 instructions:  190000001 cycles:  303240637 heartbeat IPC: 0.42186 cumulative IPC: 0.62210 (Simulation time: 0 hr 41 min 53 sec) 
Heartbeat CPU  0 instructions:  191000002 cycles:  305657766 heartbeat IPC: 0.41371 cumulative IPC: 0.62045 (Simulation time: 0 hr 42 min 0 sec) 
Heartbeat CPU  0 instructions:  192000000 cycles:  308030882 heartbeat IPC: 0.42139 cumulative IPC: 0.61891 (Simulation time: 0 hr 42 min 7 sec) 
Heartbeat CPU  0 instructions:  193000000 cycles:  310406200 heartbeat IPC: 0.42100 cumulative IPC: 0.61739 (Simulation time: 0 hr 42 min 14 sec) 
Heartbeat CPU  0 instructions:  194000002 cycles:  312789785 heartbeat IPC: 0.41954 cumulative IPC: 0.61587 (Simulation time: 0 hr 42 min 23 sec) 
Heartbeat CPU  0 instructions:  195000003 cycles:  315319247 heartbeat IPC: 0.39534 cumulative IPC: 0.61410 (Simulation time: 0 hr 42 min 30 sec) 
Heartbeat CPU  0 instructions:  196000000 cycles:  317795544 heartbeat IPC: 0.40383 cumulative IPC: 0.61246 (Simulation time: 0 hr 42 min 37 sec) 
Heartbeat CPU  0 instructions:  197000000 cycles:  320198152 heartbeat IPC: 0.41621 cumulative IPC: 0.61098 (Simulation time: 0 hr 42 min 44 sec) 
Heartbeat CPU  0 instructions:  198000000 cycles:  322607058 heartbeat IPC: 0.41513 cumulative IPC: 0.60951 (Simulation time: 0 hr 42 min 53 sec) 
Heartbeat CPU  0 instructions:  199000002 cycles:  324995326 heartbeat IPC: 0.41871 cumulative IPC: 0.60810 (Simulation time: 0 hr 43 min 0 sec) 
Heartbeat CPU  0 instructions:  200000000 cycles:  327375511 heartbeat IPC: 0.42013 cumulative IPC: 0.60673 (Simulation time: 0 hr 43 min 7 sec) 
Heartbeat CPU  0 instructions:  201000003 cycles:  329080085 heartbeat IPC: 0.58666 cumulative IPC: 0.60663 (Simulation time: 0 hr 43 min 12 sec) 
Heartbeat CPU  0 instructions:  202000000 cycles:  329725783 heartbeat IPC: 1.54871 cumulative IPC: 0.60848 (Simulation time: 0 hr 43 min 15 sec) 
Heartbeat CPU  0 instructions:  203000000 cycles:  330432603 heartbeat IPC: 1.41479 cumulative IPC: 0.61021 (Simulation time: 0 hr 43 min 27 sec) 
Heartbeat CPU  0 instructions:  204000000 cycles:  331068173 heartbeat IPC: 1.57339 cumulative IPC: 0.61207 (Simulation time: 0 hr 43 min 40 sec) 
Heartbeat CPU  0 instructions:  205000001 cycles:  331675394 heartbeat IPC: 1.64685 cumulative IPC: 0.61397 (Simulation time: 0 hr 43 min 55 sec) 
Heartbeat CPU  0 instructions:  206000000 cycles:  332244433 heartbeat IPC: 1.75735 cumulative IPC: 0.61593 (Simulation time: 0 hr 44 min 8 sec) 
Heartbeat CPU  0 instructions:  207000001 cycles:  332830548 heartbeat IPC: 1.70615 cumulative IPC: 0.61786 (Simulation time: 0 hr 44 min 22 sec) 
Heartbeat CPU  0 instructions:  208000000 cycles:  333448468 heartbeat IPC: 1.61833 cumulative IPC: 0.61972 (Simulation time: 0 hr 44 min 35 sec) 
Heartbeat CPU  0 instructions:  209000003 cycles:  334056377 heartbeat IPC: 1.64499 cumulative IPC: 0.62159 (Simulation time: 0 hr 44 min 47 sec) 
Heartbeat CPU  0 instructions:  210000003 cycles:  334663416 heartbeat IPC: 1.64734 cumulative IPC: 0.62345 (Simulation time: 0 hr 45 min 1 sec) 
Heartbeat CPU  0 instructions:  211000000 cycles:  335250775 heartbeat IPC: 1.70253 cumulative IPC: 0.62535 (Simulation time: 0 hr 45 min 14 sec) 
Heartbeat CPU  0 instructions:  212000000 cycles:  335916056 heartbeat IPC: 1.50312 cumulative IPC: 0.62709 (Simulation time: 0 hr 45 min 29 sec) 
Heartbeat CPU  0 instructions:  213000002 cycles:  336715456 heartbeat IPC: 1.25094 cumulative IPC: 0.62858 (Simulation time: 0 hr 45 min 47 sec) 
Heartbeat CPU  0 instructions:  214000002 cycles:  337487824 heartbeat IPC: 1.29472 cumulative IPC: 0.63011 (Simulation time: 0 hr 46 min 6 sec) 
Heartbeat CPU  0 instructions:  215000003 cycles:  338252730 heartbeat IPC: 1.30735 cumulative IPC: 0.63165 (Simulation time: 0 hr 46 min 24 sec) 
Heartbeat CPU  0 instructions:  216000000 cycles:  339072546 heartbeat IPC: 1.21978 cumulative IPC: 0.63307 (Simulation time: 0 hr 46 min 42 sec) 
Heartbeat CPU  0 instructions:  217000003 cycles:  339842457 heartbeat IPC: 1.29886 cumulative IPC: 0.63458 (Simulation time: 0 hr 47 min 0 sec) 
Heartbeat CPU  0 instructions:  218000002 cycles:  340606646 heartbeat IPC: 1.30858 cumulative IPC: 0.63610 (Simulation time: 0 hr 47 min 19 sec) 
Heartbeat CPU  0 instructions:  219000002 cycles:  341398809 heartbeat IPC: 1.26237 cumulative IPC: 0.63756 (Simulation time: 0 hr 47 min 36 sec) 
Heartbeat CPU  0 instructions:  220000000 cycles:  342194484 heartbeat IPC: 1.25679 cumulative IPC: 0.63900 (Simulation time: 0 hr 47 min 55 sec) 
Heartbeat CPU  0 instructions:  221000003 cycles:  342955417 heartbeat IPC: 1.31418 cumulative IPC: 0.64051 (Simulation time: 0 hr 48 min 14 sec) 
Heartbeat CPU  0 instructions:  222000002 cycles:  343844063 heartbeat IPC: 1.12531 cumulative IPC: 0.64176 (Simulation time: 0 hr 48 min 33 sec) 
Heartbeat CPU  0 instructions:  223000000 cycles:  344816303 heartbeat IPC: 1.02855 cumulative IPC: 0.64286 (Simulation time: 0 hr 48 min 53 sec) 
Heartbeat CPU  0 instructions:  224000000 cycles:  345693135 heartbeat IPC: 1.14047 cumulative IPC: 0.64412 (Simulation time: 0 hr 49 min 13 sec) 
Heartbeat CPU  0 instructions:  225000002 cycles:  346499685 heartbeat IPC: 1.23985 cumulative IPC: 0.64551 (Simulation time: 0 hr 49 min 33 sec) 
Heartbeat CPU  0 instructions:  226000000 cycles:  347258383 heartbeat IPC: 1.31804 cumulative IPC: 0.64699 (Simulation time: 0 hr 49 min 53 sec) 
Heartbeat CPU  0 instructions:  227000000 cycles:  348026682 heartbeat IPC: 1.30158 cumulative IPC: 0.64844 (Simulation time: 0 hr 50 min 11 sec) 
Heartbeat CPU  0 instructions:  228000000 cycles:  348857776 heartbeat IPC: 1.20323 cumulative IPC: 0.64976 (Simulation time: 0 hr 50 min 30 sec) 
Heartbeat CPU  0 instructions:  229000001 cycles:  349618060 heartbeat IPC: 1.31530 cumulative IPC: 0.65121 (Simulation time: 0 hr 50 min 49 sec) 
Heartbeat CPU  0 instructions:  230000001 cycles:  350372587 heartbeat IPC: 1.32533 cumulative IPC: 0.65267 (Simulation time: 0 hr 51 min 3 sec) 
Heartbeat CPU  0 instructions:  231000000 cycles:  351153190 heartbeat IPC: 1.28106 cumulative IPC: 0.65407 (Simulation time: 0 hr 51 min 18 sec) 
Heartbeat CPU  0 instructions:  232000000 cycles:  351958678 heartbeat IPC: 1.24148 cumulative IPC: 0.65542 (Simulation time: 0 hr 51 min 32 sec) 
Heartbeat CPU  0 instructions:  233000003 cycles:  352721845 heartbeat IPC: 1.31033 cumulative IPC: 0.65684 (Simulation time: 0 hr 51 min 47 sec) 
Heartbeat CPU  0 instructions:  234000001 cycles:  353485000 heartbeat IPC: 1.31035 cumulative IPC: 0.65826 (Simulation time: 0 hr 52 min 1 sec) 
Heartbeat CPU  0 instructions:  235000001 cycles:  354304596 heartbeat IPC: 1.22011 cumulative IPC: 0.65956 (Simulation time: 0 hr 52 min 15 sec) 
Heartbeat CPU  0 instructions:  236000000 cycles:  355081829 heartbeat IPC: 1.28661 cumulative IPC: 0.66094 (Simulation time: 0 hr 52 min 30 sec) 
Heartbeat CPU  0 instructions:  237000000 cycles:  355835359 heartbeat IPC: 1.32709 cumulative IPC: 0.66235 (Simulation time: 0 hr 52 min 45 sec) 
Heartbeat CPU  0 instructions:  238000001 cycles:  356601075 heartbeat IPC: 1.30597 cumulative IPC: 0.66374 (Simulation time: 0 hr 52 min 59 sec) 
Heartbeat CPU  0 instructions:  239000002 cycles:  357481840 heartbeat IPC: 1.13538 cumulative IPC: 0.66490 (Simulation time: 0 hr 53 min 15 sec) 
Heartbeat CPU  0 instructions:  240000000 cycles:  358530934 heartbeat IPC: 0.95320 cumulative IPC: 0.66575 (Simulation time: 0 hr 53 min 29 sec) 
Heartbeat CPU  0 instructions:  241000000 cycles:  359301892 heartbeat IPC: 1.29709 cumulative IPC: 0.66711 (Simulation time: 0 hr 53 min 44 sec) 
Heartbeat CPU  0 instructions:  242000002 cycles:  360068312 heartbeat IPC: 1.30477 cumulative IPC: 0.66847 (Simulation time: 0 hr 53 min 58 sec) 
Heartbeat CPU  0 instructions:  243000003 cycles:  360845899 heartbeat IPC: 1.28603 cumulative IPC: 0.66980 (Simulation time: 0 hr 54 min 13 sec) 
Heartbeat CPU  0 instructions:  244000000 cycles:  361655269 heartbeat IPC: 1.23553 cumulative IPC: 0.67107 (Simulation time: 0 hr 54 min 28 sec) 
Heartbeat CPU  0 instructions:  245000001 cycles:  362408412 heartbeat IPC: 1.32777 cumulative IPC: 0.67244 (Simulation time: 0 hr 54 min 43 sec) 
Heartbeat CPU  0 instructions:  246000003 cycles:  363153873 heartbeat IPC: 1.34145 cumulative IPC: 0.67382 (Simulation time: 0 hr 54 min 57 sec) 
Heartbeat CPU  0 instructions:  247000001 cycles:  363956671 heartbeat IPC: 1.24564 cumulative IPC: 0.67508 (Simulation time: 0 hr 55 min 11 sec) 
Heartbeat CPU  0 instructions:  248000000 cycles:  364725078 heartbeat IPC: 1.30139 cumulative IPC: 0.67641 (Simulation time: 0 hr 55 min 26 sec) 
Heartbeat CPU  0 instructions:  249000001 cycles:  365469673 heartbeat IPC: 1.34301 cumulative IPC: 0.67777 (Simulation time: 0 hr 55 min 40 sec) 
Heartbeat CPU  0 instructions:  250000002 cycles:  366237339 heartbeat IPC: 1.30265 cumulative IPC: 0.67908 (Simulation time: 0 hr 55 min 55 sec) 
Heartbeat CPU  0 instructions:  251000000 cycles:  367033951 heartbeat IPC: 1.25531 cumulative IPC: 0.68034 (Simulation time: 0 hr 56 min 9 sec) 
Heartbeat CPU  0 instructions:  252000000 cycles:  367790062 heartbeat IPC: 1.32256 cumulative IPC: 0.68166 (Simulation time: 0 hr 56 min 23 sec) 
Heartbeat CPU  0 instructions:  253000001 cycles:  368540206 heartbeat IPC: 1.33308 cumulative IPC: 0.68299 (Simulation time: 0 hr 56 min 37 sec) 
Heartbeat CPU  0 instructions:  254000000 cycles:  369320249 heartbeat IPC: 1.28198 cumulative IPC: 0.68426 (Simulation time: 0 hr 56 min 52 sec) 
Heartbeat CPU  0 instructions:  255000000 cycles:  370148527 heartbeat IPC: 1.20732 cumulative IPC: 0.68543 (Simulation time: 0 hr 57 min 7 sec) 
Heartbeat CPU  0 instructions:  256000000 cycles:  371096956 heartbeat IPC: 1.05438 cumulative IPC: 0.68638 (Simulation time: 0 hr 57 min 21 sec) 
Heartbeat CPU  0 instructions:  257000002 cycles:  371967876 heartbeat IPC: 1.14821 cumulative IPC: 0.68746 (Simulation time: 0 hr 57 min 35 sec) 
Heartbeat CPU  0 instructions:  258000000 cycles:  372784868 heartbeat IPC: 1.22400 cumulative IPC: 0.68864 (Simulation time: 0 hr 57 min 49 sec) 
Heartbeat CPU  0 instructions:  259000002 cycles:  373673385 heartbeat IPC: 1.12547 cumulative IPC: 0.68968 (Simulation time: 0 hr 58 min 3 sec) 
Heartbeat CPU  0 instructions:  260000000 cycles:  374538561 heartbeat IPC: 1.15583 cumulative IPC: 0.69076 (Simulation time: 0 hr 58 min 19 sec) 
Heartbeat CPU  0 instructions:  261000003 cycles:  375349113 heartbeat IPC: 1.23373 cumulative IPC: 0.69194 (Simulation time: 0 hr 58 min 33 sec) 
Heartbeat CPU  0 instructions:  262000003 cycles:  376169213 heartbeat IPC: 1.21936 cumulative IPC: 0.69309 (Simulation time: 0 hr 58 min 46 sec) 
Heartbeat CPU  0 instructions:  263000003 cycles:  377065737 heartbeat IPC: 1.11542 cumulative IPC: 0.69410 (Simulation time: 0 hr 59 min 2 sec) 
Heartbeat CPU  0 instructions:  264000000 cycles:  377891216 heartbeat IPC: 1.21141 cumulative IPC: 0.69523 (Simulation time: 0 hr 59 min 15 sec) 
Heartbeat CPU  0 instructions:  265000001 cycles:  378693723 heartbeat IPC: 1.24610 cumulative IPC: 0.69640 (Simulation time: 0 hr 59 min 29 sec) 
Heartbeat CPU  0 instructions:  266000000 cycles:  379542426 heartbeat IPC: 1.17827 cumulative IPC: 0.69748 (Simulation time: 0 hr 59 min 44 sec) 
Heartbeat CPU  0 instructions:  267000000 cycles:  380419501 heartbeat IPC: 1.14015 cumulative IPC: 0.69851 (Simulation time: 0 hr 59 min 58 sec) 
Heartbeat CPU  0 instructions:  268000000 cycles:  381233828 heartbeat IPC: 1.22801 cumulative IPC: 0.69964 (Simulation time: 1 hr 0 min 12 sec) 
Heartbeat CPU  0 instructions:  269000003 cycles:  382050686 heartbeat IPC: 1.22421 cumulative IPC: 0.70076 (Simulation time: 1 hr 0 min 26 sec) 
Heartbeat CPU  0 instructions:  270000001 cycles:  382924128 heartbeat IPC: 1.14489 cumulative IPC: 0.70178 (Simulation time: 1 hr 0 min 40 sec) 
Heartbeat CPU  0 instructions:  271000000 cycles:  383767773 heartbeat IPC: 1.18533 cumulative IPC: 0.70285 (Simulation time: 1 hr 0 min 55 sec) 
Heartbeat CPU  0 instructions:  272000000 cycles:  384671868 heartbeat IPC: 1.10608 cumulative IPC: 0.70380 (Simulation time: 1 hr 1 min 8 sec) 
Heartbeat CPU  0 instructions:  273000002 cycles:  385611624 heartbeat IPC: 1.06411 cumulative IPC: 0.70468 (Simulation time: 1 hr 1 min 22 sec) 
Heartbeat CPU  0 instructions:  274000003 cycles:  386404471 heartbeat IPC: 1.26128 cumulative IPC: 0.70582 (Simulation time: 1 hr 1 min 36 sec) 
Heartbeat CPU  0 instructions:  275000002 cycles:  387183216 heartbeat IPC: 1.28412 cumulative IPC: 0.70699 (Simulation time: 1 hr 1 min 49 sec) 
Heartbeat CPU  0 instructions:  276000000 cycles:  387971220 heartbeat IPC: 1.26903 cumulative IPC: 0.70813 (Simulation time: 1 hr 2 min 4 sec) 
Heartbeat CPU  0 instructions:  277000000 cycles:  388737893 heartbeat IPC: 1.30434 cumulative IPC: 0.70931 (Simulation time: 1 hr 2 min 20 sec) 
Heartbeat CPU  0 instructions:  278000001 cycles:  389530023 heartbeat IPC: 1.26242 cumulative IPC: 0.71044 (Simulation time: 1 hr 2 min 35 sec) 
Heartbeat CPU  0 instructions:  279000001 cycles:  390309218 heartbeat IPC: 1.28338 cumulative IPC: 0.71159 (Simulation time: 1 hr 2 min 48 sec) 
Heartbeat CPU  0 instructions:  280000000 cycles:  391078761 heartbeat IPC: 1.29947 cumulative IPC: 0.71275 (Simulation time: 1 hr 3 min 1 sec) 
Heartbeat CPU  0 instructions:  281000001 cycles:  391854655 heartbeat IPC: 1.28884 cumulative IPC: 0.71389 (Simulation time: 1 hr 3 min 15 sec) 
Heartbeat CPU  0 instructions:  282000000 cycles:  392626530 heartbeat IPC: 1.29555 cumulative IPC: 0.71504 (Simulation time: 1 hr 3 min 29 sec) 
Heartbeat CPU  0 instructions:  283000001 cycles:  393417325 heartbeat IPC: 1.26455 cumulative IPC: 0.71614 (Simulation time: 1 hr 3 min 43 sec) 
Heartbeat CPU  0 instructions:  284000000 cycles:  394183214 heartbeat IPC: 1.30567 cumulative IPC: 0.71729 (Simulation time: 1 hr 3 min 57 sec) 
Heartbeat CPU  0 instructions:  285000000 cycles:  394967426 heartbeat IPC: 1.27517 cumulative IPC: 0.71840 (Simulation time: 1 hr 4 min 11 sec) 
Heartbeat CPU  0 instructions:  286000002 cycles:  395752603 heartbeat IPC: 1.27360 cumulative IPC: 0.71951 (Simulation time: 1 hr 4 min 25 sec) 
Heartbeat CPU  0 instructions:  287000002 cycles:  396524191 heartbeat IPC: 1.29603 cumulative IPC: 0.72063 (Simulation time: 1 hr 4 min 39 sec) 
Heartbeat CPU  0 instructions:  288000000 cycles:  397298494 heartbeat IPC: 1.29148 cumulative IPC: 0.72175 (Simulation time: 1 hr 4 min 53 sec) 
Heartbeat CPU  0 instructions:  289000000 cycles:  398186802 heartbeat IPC: 1.12574 cumulative IPC: 0.72265 (Simulation time: 1 hr 5 min 7 sec) 
Heartbeat CPU  0 instructions:  290000001 cycles:  399160165 heartbeat IPC: 1.02737 cumulative IPC: 0.72340 (Simulation time: 1 hr 5 min 20 sec) 
Heartbeat CPU  0 instructions:  291000003 cycles:  399943625 heartbeat IPC: 1.27639 cumulative IPC: 0.72448 (Simulation time: 1 hr 5 min 36 sec) 
Heartbeat CPU  0 instructions:  292000000 cycles:  400699836 heartbeat IPC: 1.32238 cumulative IPC: 0.72561 (Simulation time: 1 hr 5 min 51 sec) 
Heartbeat CPU  0 instructions:  293000002 cycles:  401461808 heartbeat IPC: 1.31239 cumulative IPC: 0.72673 (Simulation time: 1 hr 6 min 5 sec) 
Heartbeat CPU  0 instructions:  294000002 cycles:  402230280 heartbeat IPC: 1.30128 cumulative IPC: 0.72783 (Simulation time: 1 hr 6 min 20 sec) 
Heartbeat CPU  0 instructions:  295000001 cycles:  403013573 heartbeat IPC: 1.27666 cumulative IPC: 0.72890 (Simulation time: 1 hr 6 min 36 sec) 
Heartbeat CPU  0 instructions:  296000000 cycles:  403773599 heartbeat IPC: 1.31574 cumulative IPC: 0.73001 (Simulation time: 1 hr 6 min 51 sec) 
Heartbeat CPU  0 instructions:  297000000 cycles:  404537776 heartbeat IPC: 1.30860 cumulative IPC: 0.73110 (Simulation time: 1 hr 7 min 3 sec) 
Heartbeat CPU  0 instructions:  298000000 cycles:  405303716 heartbeat IPC: 1.30559 cumulative IPC: 0.73219 (Simulation time: 1 hr 7 min 15 sec) 
Heartbeat CPU  0 instructions:  299000003 cycles:  406061414 heartbeat IPC: 1.31979 cumulative IPC: 0.73329 (Simulation time: 1 hr 7 min 29 sec) 
Heartbeat CPU  0 instructions:  300000000 cycles:  406846075 heartbeat IPC: 1.27443 cumulative IPC: 0.73434 (Simulation time: 1 hr 7 min 41 sec) 
Heartbeat CPU  0 instructions:  301000000 cycles:  407639107 heartbeat IPC: 1.26098 cumulative IPC: 0.73536 (Simulation time: 1 hr 7 min 55 sec) 
Heartbeat CPU  0 instructions:  302000001 cycles:  408395547 heartbeat IPC: 1.32198 cumulative IPC: 0.73645 (Simulation time: 1 hr 8 min 7 sec) 
Heartbeat CPU  0 instructions:  303000003 cycles:  409152859 heartbeat IPC: 1.32046 cumulative IPC: 0.73754 (Simulation time: 1 hr 8 min 17 sec) 
Heartbeat CPU  0 instructions:  304000000 cycles:  409919689 heartbeat IPC: 1.30407 cumulative IPC: 0.73860 (Simulation time: 1 hr 8 min 27 sec) 
Heartbeat CPU  0 instructions:  305000002 cycles:  410755617 heartbeat IPC: 1.19628 cumulative IPC: 0.73953 (Simulation time: 1 hr 8 min 39 sec) 
Heartbeat CPU  0 instructions:  306000003 cycles:  411680458 heartbeat IPC: 1.08127 cumulative IPC: 0.74030 (Simulation time: 1 hr 8 min 50 sec) 
Heartbeat CPU  0 instructions:  307000000 cycles:  412516907 heartbeat IPC: 1.19553 cumulative IPC: 0.74123 (Simulation time: 1 hr 9 min 2 sec) 
Heartbeat CPU  0 instructions:  308000000 cycles:  413291769 heartbeat IPC: 1.29055 cumulative IPC: 0.74226 (Simulation time: 1 hr 9 min 13 sec) 
Heartbeat CPU  0 instructions:  309000002 cycles:  414053852 heartbeat IPC: 1.31220 cumulative IPC: 0.74331 (Simulation time: 1 hr 9 min 23 sec) 
Heartbeat CPU  0 instructions:  310000000 cycles:  414811449 heartbeat IPC: 1.31996 cumulative IPC: 0.74437 (Simulation time: 1 hr 9 min 33 sec) 
Heartbeat CPU  0 instructions:  311000003 cycles:  415567703 heartbeat IPC: 1.32231 cumulative IPC: 0.74542 (Simulation time: 1 hr 9 min 45 sec) 
Heartbeat CPU  0 instructions:  312000000 cycles:  416355574 heartbeat IPC: 1.26924 cumulative IPC: 0.74642 (Simulation time: 1 hr 9 min 56 sec) 
Heartbeat CPU  0 instructions:  313000001 cycles:  417136170 heartbeat IPC: 1.28107 cumulative IPC: 0.74742 (Simulation time: 1 hr 10 min 7 sec) 
Heartbeat CPU  0 instructions:  314000001 cycles:  417926727 heartbeat IPC: 1.26493 cumulative IPC: 0.74840 (Simulation time: 1 hr 10 min 25 sec) 
Heartbeat CPU  0 instructions:  315000000 cycles:  418678364 heartbeat IPC: 1.33043 cumulative IPC: 0.74945 (Simulation time: 1 hr 10 min 39 sec) 
Heartbeat CPU  0 instructions:  316000000 cycles:  419429148 heartbeat IPC: 1.33194 cumulative IPC: 0.75049 (Simulation time: 1 hr 10 min 53 sec) 
Heartbeat CPU  0 instructions:  317000001 cycles:  420228200 heartbeat IPC: 1.25148 cumulative IPC: 0.75145 (Simulation time: 1 hr 11 min 8 sec) 
Heartbeat CPU  0 instructions:  318000000 cycles:  420995921 heartbeat IPC: 1.30256 cumulative IPC: 0.75246 (Simulation time: 1 hr 11 min 24 sec) 
Heartbeat CPU  0 instructions:  319000000 cycles:  421735959 heartbeat IPC: 1.35128 cumulative IPC: 0.75351 (Simulation time: 1 hr 11 min 37 sec) 
Heartbeat CPU  0 instructions:  320000000 cycles:  422500491 heartbeat IPC: 1.30799 cumulative IPC: 0.75452 (Simulation time: 1 hr 11 min 51 sec) 
Heartbeat CPU  0 instructions:  321000002 cycles:  423318254 heartbeat IPC: 1.22285 cumulative IPC: 0.75542 (Simulation time: 1 hr 12 min 6 sec) 
Heartbeat CPU  0 instructions:  322000001 cycles:  424157702 heartbeat IPC: 1.19126 cumulative IPC: 0.75629 (Simulation time: 1 hr 12 min 20 sec) 
Heartbeat CPU  0 instructions:  323000000 cycles:  425045957 heartbeat IPC: 1.12580 cumulative IPC: 0.75706 (Simulation time: 1 hr 12 min 34 sec) 
Heartbeat CPU  0 instructions:  324000000 cycles:  425911396 heartbeat IPC: 1.15548 cumulative IPC: 0.75787 (Simulation time: 1 hr 12 min 48 sec) 
Heartbeat CPU  0 instructions:  325000000 cycles:  426765754 heartbeat IPC: 1.17047 cumulative IPC: 0.75870 (Simulation time: 1 hr 13 min 2 sec) 
Heartbeat CPU  0 instructions:  326000003 cycles:  427625506 heartbeat IPC: 1.16313 cumulative IPC: 0.75952 (Simulation time: 1 hr 13 min 18 sec) 
Heartbeat CPU  0 instructions:  327000003 cycles:  428433495 heartbeat IPC: 1.23764 cumulative IPC: 0.76042 (Simulation time: 1 hr 13 min 32 sec) 
Heartbeat CPU  0 instructions:  328000000 cycles:  429258408 heartbeat IPC: 1.21225 cumulative IPC: 0.76129 (Simulation time: 1 hr 13 min 45 sec) 
Heartbeat CPU  0 instructions:  329000001 cycles:  430117049 heartbeat IPC: 1.16463 cumulative IPC: 0.76210 (Simulation time: 1 hr 13 min 59 sec) 
Heartbeat CPU  0 instructions:  330000000 cycles:  430972143 heartbeat IPC: 1.16946 cumulative IPC: 0.76291 (Simulation time: 1 hr 14 min 15 sec) 
Heartbeat CPU  0 instructions:  331000001 cycles:  431772966 heartbeat IPC: 1.24872 cumulative IPC: 0.76381 (Simulation time: 1 hr 14 min 28 sec) 
Heartbeat CPU  0 instructions:  332000000 cycles:  432613595 heartbeat IPC: 1.18958 cumulative IPC: 0.76464 (Simulation time: 1 hr 14 min 43 sec) 
Heartbeat CPU  0 instructions:  333000001 cycles:  433486785 heartbeat IPC: 1.14523 cumulative IPC: 0.76541 (Simulation time: 1 hr 14 min 59 sec) 
Heartbeat CPU  0 instructions:  334000002 cycles:  434323235 heartbeat IPC: 1.19553 cumulative IPC: 0.76624 (Simulation time: 1 hr 15 min 14 sec) 
Heartbeat CPU  0 instructions:  335000001 cycles:  435136035 heartbeat IPC: 1.23031 cumulative IPC: 0.76711 (Simulation time: 1 hr 15 min 28 sec) 
Heartbeat CPU  0 instructions:  336000000 cycles:  435984999 heartbeat IPC: 1.17791 cumulative IPC: 0.76791 (Simulation time: 1 hr 15 min 43 sec) 
Heartbeat CPU  0 instructions:  337000001 cycles:  436834901 heartbeat IPC: 1.17661 cumulative IPC: 0.76871 (Simulation time: 1 hr 15 min 58 sec) 
Heartbeat CPU  0 instructions:  338000001 cycles:  437686219 heartbeat IPC: 1.17465 cumulative IPC: 0.76950 (Simulation time: 1 hr 16 min 13 sec) 
Heartbeat CPU  0 instructions:  339000000 cycles:  438421029 heartbeat IPC: 1.36089 cumulative IPC: 0.77049 (Simulation time: 1 hr 16 min 24 sec) 
Heartbeat CPU  0 instructions:  340000000 cycles:  438898360 heartbeat IPC: 2.09498 cumulative IPC: 0.77194 (Simulation time: 1 hr 16 min 29 sec) 
Heartbeat CPU  0 instructions:  341000000 cycles:  439308488 heartbeat IPC: 2.43826 cumulative IPC: 0.77349 (Simulation time: 1 hr 16 min 31 sec) 
Heartbeat CPU  0 instructions:  342000001 cycles:  440067277 heartbeat IPC: 1.31789 cumulative IPC: 0.77444 (Simulation time: 1 hr 16 min 34 sec) 
Heartbeat CPU  0 instructions:  343000001 cycles:  441030750 heartbeat IPC: 1.03791 cumulative IPC: 0.77501 (Simulation time: 1 hr 16 min 40 sec) 
Heartbeat CPU  0 instructions:  344000000 cycles:  441823996 heartbeat IPC: 1.26064 cumulative IPC: 0.77589 (Simulation time: 1 hr 16 min 46 sec) 
Heartbeat CPU  0 instructions:  345000000 cycles:  442642568 heartbeat IPC: 1.22164 cumulative IPC: 0.77671 (Simulation time: 1 hr 16 min 52 sec) 
Heartbeat CPU  0 instructions:  346000001 cycles:  443454357 heartbeat IPC: 1.23185 cumulative IPC: 0.77755 (Simulation time: 1 hr 16 min 58 sec) 
Heartbeat CPU  0 instructions:  347000000 cycles:  444274336 heartbeat IPC: 1.21954 cumulative IPC: 0.77837 (Simulation time: 1 hr 17 min 3 sec) 
Heartbeat CPU  0 instructions:  348000000 cycles:  445108382 heartbeat IPC: 1.19897 cumulative IPC: 0.77916 (Simulation time: 1 hr 17 min 8 sec) 
Heartbeat CPU  0 instructions:  349000000 cycles:  445936424 heartbeat IPC: 1.20767 cumulative IPC: 0.77995 (Simulation time: 1 hr 17 min 14 sec) 
Heartbeat CPU  0 instructions:  350000003 cycles:  446767598 heartbeat IPC: 1.20312 cumulative IPC: 0.78074 (Simulation time: 1 hr 17 min 19 sec) 
Heartbeat CPU  0 instructions:  351000003 cycles:  447590799 heartbeat IPC: 1.21477 cumulative IPC: 0.78154 (Simulation time: 1 hr 17 min 25 sec) 
Heartbeat CPU  0 instructions:  352000000 cycles:  448417779 heartbeat IPC: 1.20922 cumulative IPC: 0.78233 (Simulation time: 1 hr 17 min 30 sec) 
Heartbeat CPU  0 instructions:  353000000 cycles:  449272939 heartbeat IPC: 1.16937 cumulative IPC: 0.78307 (Simulation time: 1 hr 17 min 35 sec) 
Heartbeat CPU  0 instructions:  354000000 cycles:  450391523 heartbeat IPC: 0.89399 cumulative IPC: 0.78335 (Simulation time: 1 hr 17 min 43 sec) 
Heartbeat CPU  0 instructions:  355000000 cycles:  451513194 heartbeat IPC: 0.89153 cumulative IPC: 0.78362 (Simulation time: 1 hr 17 min 51 sec) 
Heartbeat CPU  0 instructions:  356000000 cycles:  452635802 heartbeat IPC: 0.89078 cumulative IPC: 0.78388 (Simulation time: 1 hr 17 min 58 sec) 
Heartbeat CPU  0 instructions:  357000003 cycles:  453762306 heartbeat IPC: 0.88770 cumulative IPC: 0.78414 (Simulation time: 1 hr 18 min 6 sec) 
Heartbeat CPU  0 instructions:  358000001 cycles:  454878803 heartbeat IPC: 0.89566 cumulative IPC: 0.78442 (Simulation time: 1 hr 18 min 13 sec) 
Heartbeat CPU  0 instructions:  359000001 cycles:  455976898 heartbeat IPC: 0.91067 cumulative IPC: 0.78472 (Simulation time: 1 hr 18 min 21 sec) 
Heartbeat CPU  0 instructions:  360000000 cycles:  457097774 heartbeat IPC: 0.89216 cumulative IPC: 0.78498 (Simulation time: 1 hr 18 min 30 sec) 
Heartbeat CPU  0 instructions:  361000001 cycles:  458215707 heartbeat IPC: 0.89451 cumulative IPC: 0.78525 (Simulation time: 1 hr 18 min 38 sec) 
Heartbeat CPU  0 instructions:  362000001 cycles:  459322269 heartbeat IPC: 0.90370 cumulative IPC: 0.78554 (Simulation time: 1 hr 18 min 46 sec) 
Finished CPU 0 instructions: 360000003 cycles: 458284257 cumulative IPC: 0.78554 (Simulation time: 1 hr 18 min 46 sec) 

ChampSim completed all CPUs

[ROI Statistics]
Core_0_instructions 360000003
Core_0_cycles 458284257
Core_0_IPC 0.78554

Core_0_branch_prediction_accuracy 98.08116
Core_0_branch_MPKI 0.51551
Core_0_average_ROB_occupancy_at_mispredict 208.94854

Core_0_L1D_total_access 93314391
Core_0_L1D_total_hit 73595242
Core_0_L1D_total_miss 19719149
Core_0_L1D_loads 86793101
Core_0_L1D_load_hit 68268211
Core_0_L1D_load_miss 18524890
Core_0_L1D_RFOs 6521290
Core_0_L1D_RFO_hit 5327031
Core_0_L1D_RFO_miss 1194259
Core_0_L1D_prefetches 0
Core_0_L1D_prefetch_hit 0
Core_0_L1D_prefetch_miss 0
Core_0_L1D_writebacks 0
Core_0_L1D_writeback_hit 0
Core_0_L1D_writeback_miss 0
Core_0_L1D_prefetch_requested 0
Core_0_L1D_prefetch_issued 0
Core_0_L1D_prefetch_useful 0
Core_0_L1D_prefetch_useless 0
Core_0_L1D_prefetch_late 0
Core_0_L1D_average_miss_latency 45.08166

Core_0_L1I_total_access 115062386
Core_0_L1I_total_hit 115052976
Core_0_L1I_total_miss 9410
Core_0_L1I_loads 115062386
Core_0_L1I_load_hit 115052976
Core_0_L1I_load_miss 9410
Core_0_L1I_RFOs 0
Core_0_L1I_RFO_hit 0
Core_0_L1I_RFO_miss 0
Core_0_L1I_prefetches 0
Core_0_L1I_prefetch_hit 0
Core_0_L1I_prefetch_miss 0
Core_0_L1I_writebacks 0
Core_0_L1I_writeback_hit 0
Core_0_L1I_writeback_miss 0
Core_0_L1I_prefetch_requested 0
Core_0_L1I_prefetch_issued 0
Core_0_L1I_prefetch_useful 0
Core_0_L1I_prefetch_useless 0
Core_0_L1I_prefetch_late 0
Core_0_L1I_average_miss_latency 182.34952

Core_0_L2C_total_access 50241325
Core_0_L2C_total_hit 42921345
Core_0_L2C_total_miss 7319980
Core_0_L2C_loads 18534212
Core_0_L2C_load_hit 16690086
Core_0_L2C_load_miss 1844126
Core_0_L2C_RFOs 1194252
Core_0_L2C_RFO_hit 604913
Core_0_L2C_RFO_miss 589339
Core_0_L2C_prefetches 28461824
Core_0_L2C_prefetch_hit 23575603
Core_0_L2C_prefetch_miss 4886221
Core_0_L2C_writebacks 2051037
Core_0_L2C_writeback_hit 2050743
Core_0_L2C_writeback_miss 294
Core_0_L2C_prefetch_requested 44964700
Core_0_L2C_prefetch_issued 34169848
Core_0_L2C_prefetch_useful 3459058
Core_0_L2C_prefetch_useless 1445681
Core_0_L2C_prefetch_late 193323
Core_0_L2C_average_miss_latency 194.69689

Core_0_LLC_total_access 9065661
Core_0_LLC_total_hit 4921619
Core_0_LLC_total_miss 4144042
Core_0_LLC_loads 1653871
Core_0_LLC_load_hit 659722
Core_0_LLC_load_miss 994149
Core_0_LLC_RFOs 586282
Core_0_LLC_RFO_hit 3042
Core_0_LLC_RFO_miss 583240
Core_0_LLC_prefetches 5079532
Core_0_LLC_prefetch_hit 2513097
Core_0_LLC_prefetch_miss 2566435
Core_0_LLC_writebacks 1745976
Core_0_LLC_writeback_hit 1745758
Core_0_LLC_writeback_miss 218
Core_0_LLC_prefetch_requested 0
Core_0_LLC_prefetch_issued 0
Core_0_LLC_prefetch_useful 72513
Core_0_LLC_prefetch_useless 2486304
Core_0_LLC_prefetch_late 0
Core_0_LLC_average_miss_latency 296.95980

Core_0_major_page_fault 0
Core_0_minor_page_fault 18565

CPU 0 L2C next line prefetcher final stats
Channel_0_RQ_row_buffer_hit 1475127
Channel_0_RQ_row_buffer_miss 2668674
Channel_0_WQ_row_buffer_hit 442921
Channel_0_WQ_row_buffer_miss 1259660
Channel_0_WQ_full 0
Channel_0_dbus_congested 2559361

avg_congested_cycle 10
