*************************************************
   ChampSim Multicore Out-of-Order Simulator
   Last compiled: Aug 12 2024 00:48:43
*************************************************

trace_0 ./LLM_Traces/2B_Traces_SelfAttention_Phythia-70M-Seq1024-07-08-0125.champsim.xz
CPU 0 L2C next line prefetcher initialized
warmup_instructions 2000000
simulation_instructions 2036000000
champsim_seed 200

num_cpus 1
cpu_freq 4000
dram_io_freq 2400
page_size 4096
block_size 64
max_read_per_cycle 8
max_fill_per_cycle 1
dram_channels 1
dram_ranks 1
dram_banks 8
dram_rows 65536
dram_columns 128
dram_row_size 8
dram_size 4096
dram_pages 1048576

fetch_width 6
decode_width 6
exec_width 4
lq_width 2
sq_width 2
retire_width 4
scheduler_size 128
branch_mispredict_penalty 20
rob_size 256
lq_size 72
sq_size 56
num_instr_destinations_sparc 4
num_instr_destinations 2
num_instr_sources 4

itlb_set 16
itlb_way 8
itlb_rq_size 16
itlb_wq_size 16
itlb_pq_size 0
itlb_mshr_size 8
itlb_latency 1

dtlb_set 16
dtlb_way 4
dtlb_rq_size 16
dtlb_wq_size 16
dtlb_pq_size 0
dtlb_mshr_size 8
dtlb_latency 1

stlb_set 128
stlb_way 12
stlb_rq_size 32
stlb_wq_size 32
stlb_pq_size 0
stlb_mshr_size 16
stlb_latency 8

l1i_size 32
l1i_set 64
l1i_way 8
l1i_rq_size 64
l1i_wq_size 64
l1i_pq_size 8
l1i_mshr_size 8
l1i_latency 1

l1d_size 32
l1d_set 64
l1d_way 8
l1d_rq_size 64
l1d_wq_size 64
l1d_pq_size 8
l1d_mshr_size 16
l1d_latency 4

l2c_size 512
l2c_set 1024
l2c_way 8
l2c_rq_size 32
l2c_wq_size 32
l2c_pq_size 16
l2c_mshr_size 32
l2c_latency 10

llc_size 2048
llc_set 2048
llc_way 16
llc_rq_size 32
llc_wq_size 32
llc_pq_size 32
llc_mshr_size 64
llc_latency 20

dram_channel_width 8
dram_wq_size 64
dram_rq_size 64
tRP 15
tRCD 15
tCAS 12.5
dram_dbus_turn_around_time 30
dram_write_high_wm 56
dram_write_low_wm 48
min_dram_writes_per_switch 16
dram_mtps 2400
dram_dbus_return_time 13


Heartbeat CPU  0 instructions:    1000001 cycles:     465164 heartbeat IPC: 2.14978 cumulative IPC: 2.14978 (Simulation time: 0 hr 0 min 2 sec) 
Heartbeat CPU  0 instructions:    2000000 cycles:    1038116 heartbeat IPC: 1.74535 cumulative IPC: 1.92657 (Simulation time: 0 hr 0 min 7 sec) 

Warmup complete CPU  0 instructions:    2000002 cycles:    1038117 (Simulation time: 0 hr 0 min 7 sec) 

Heartbeat CPU  0 instructions:    3000001 cycles:    2119968 heartbeat IPC: 0.92434 cumulative IPC: 0.92434 (Simulation time: 0 hr 0 min 14 sec) 
Heartbeat CPU  0 instructions:    4000000 cycles:    3242091 heartbeat IPC: 0.89117 cumulative IPC: 0.90745 (Simulation time: 0 hr 0 min 23 sec) 
Heartbeat CPU  0 instructions:    5000002 cycles:    4355165 heartbeat IPC: 0.89841 cumulative IPC: 0.90442 (Simulation time: 0 hr 0 min 30 sec) 
Heartbeat CPU  0 instructions:    6000001 cycles:    5472650 heartbeat IPC: 0.89487 cumulative IPC: 0.90201 (Simulation time: 0 hr 0 min 37 sec) 
Heartbeat CPU  0 instructions:    7000000 cycles:    6589812 heartbeat IPC: 0.89512 cumulative IPC: 0.90063 (Simulation time: 0 hr 0 min 46 sec) 
Heartbeat CPU  0 instructions:    8000000 cycles:    7716258 heartbeat IPC: 0.88775 cumulative IPC: 0.89845 (Simulation time: 0 hr 1 min 7 sec) 
Heartbeat CPU  0 instructions:    9000003 cycles:    8847443 heartbeat IPC: 0.88403 cumulative IPC: 0.89636 (Simulation time: 0 hr 1 min 25 sec) 
Heartbeat CPU  0 instructions:   10000003 cycles:    9979968 heartbeat IPC: 0.88298 cumulative IPC: 0.89467 (Simulation time: 0 hr 1 min 31 sec) 
Heartbeat CPU  0 instructions:   11000000 cycles:   11103487 heartbeat IPC: 0.89006 cumulative IPC: 0.89415 (Simulation time: 0 hr 1 min 39 sec) 
Heartbeat CPU  0 instructions:   12000000 cycles:   12249524 heartbeat IPC: 0.87257 cumulative IPC: 0.89195 (Simulation time: 0 hr 1 min 52 sec) 
Heartbeat CPU  0 instructions:   13000002 cycles:   13384906 heartbeat IPC: 0.88076 cumulative IPC: 0.89092 (Simulation time: 0 hr 2 min 7 sec) 
Heartbeat CPU  0 instructions:   14000000 cycles:   14497699 heartbeat IPC: 0.89864 cumulative IPC: 0.89156 (Simulation time: 0 hr 2 min 22 sec) 
Heartbeat CPU  0 instructions:   15000003 cycles:   15624900 heartbeat IPC: 0.88716 cumulative IPC: 0.89122 (Simulation time: 0 hr 2 min 30 sec) 
Heartbeat CPU  0 instructions:   16000000 cycles:   16752508 heartbeat IPC: 0.88683 cumulative IPC: 0.89090 (Simulation time: 0 hr 2 min 39 sec) 
Heartbeat CPU  0 instructions:   17000001 cycles:   17887430 heartbeat IPC: 0.88112 cumulative IPC: 0.89024 (Simulation time: 0 hr 2 min 46 sec) 
Heartbeat CPU  0 instructions:   18000003 cycles:   19035478 heartbeat IPC: 0.87105 cumulative IPC: 0.88902 (Simulation time: 0 hr 2 min 53 sec) 
Heartbeat CPU  0 instructions:   19000003 cycles:   20172833 heartbeat IPC: 0.87923 cumulative IPC: 0.88844 (Simulation time: 0 hr 3 min 3 sec) 
Heartbeat CPU  0 instructions:   20000000 cycles:   21316651 heartbeat IPC: 0.87426 cumulative IPC: 0.88764 (Simulation time: 0 hr 3 min 10 sec) 
Heartbeat CPU  0 instructions:   21000001 cycles:   22443186 heartbeat IPC: 0.88768 cumulative IPC: 0.88764 (Simulation time: 0 hr 3 min 17 sec) 
Heartbeat CPU  0 instructions:   22000000 cycles:   23595464 heartbeat IPC: 0.86785 cumulative IPC: 0.88663 (Simulation time: 0 hr 3 min 24 sec) 
Heartbeat CPU  0 instructions:   23000002 cycles:   24728605 heartbeat IPC: 0.88250 cumulative IPC: 0.88643 (Simulation time: 0 hr 3 min 31 sec) 
Heartbeat CPU  0 instructions:   24000000 cycles:   25863474 heartbeat IPC: 0.88116 cumulative IPC: 0.88619 (Simulation time: 0 hr 3 min 43 sec) 
Heartbeat CPU  0 instructions:   25000000 cycles:   26932305 heartbeat IPC: 0.93560 cumulative IPC: 0.88823 (Simulation time: 0 hr 3 min 58 sec) 
Heartbeat CPU  0 instructions:   26000003 cycles:   28139609 heartbeat IPC: 0.82829 cumulative IPC: 0.88556 (Simulation time: 0 hr 4 min 14 sec) 
Heartbeat CPU  0 instructions:   27000003 cycles:   29262383 heartbeat IPC: 0.89065 cumulative IPC: 0.88576 (Simulation time: 0 hr 4 min 28 sec) 
Heartbeat CPU  0 instructions:   28000000 cycles:   30396977 heartbeat IPC: 0.88137 cumulative IPC: 0.88559 (Simulation time: 0 hr 4 min 41 sec) 
Heartbeat CPU  0 instructions:   29000000 cycles:   31528905 heartbeat IPC: 0.88345 cumulative IPC: 0.88551 (Simulation time: 0 hr 4 min 53 sec) 
Heartbeat CPU  0 instructions:   30000001 cycles:   32673808 heartbeat IPC: 0.87344 cumulative IPC: 0.88508 (Simulation time: 0 hr 5 min 9 sec) 
Heartbeat CPU  0 instructions:   31000001 cycles:   33798983 heartbeat IPC: 0.88875 cumulative IPC: 0.88520 (Simulation time: 0 hr 5 min 18 sec) 
Heartbeat CPU  0 instructions:   32000000 cycles:   34920619 heartbeat IPC: 0.89155 cumulative IPC: 0.88541 (Simulation time: 0 hr 5 min 29 sec) 
Heartbeat CPU  0 instructions:   33000001 cycles:   36054903 heartbeat IPC: 0.88161 cumulative IPC: 0.88529 (Simulation time: 0 hr 5 min 36 sec) 
Heartbeat CPU  0 instructions:   34000000 cycles:   37190776 heartbeat IPC: 0.88038 cumulative IPC: 0.88514 (Simulation time: 0 hr 5 min 43 sec) 
Heartbeat CPU  0 instructions:   35000000 cycles:   38333063 heartbeat IPC: 0.87544 cumulative IPC: 0.88484 (Simulation time: 0 hr 5 min 51 sec) 
Heartbeat CPU  0 instructions:   36000000 cycles:   39467305 heartbeat IPC: 0.88165 cumulative IPC: 0.88474 (Simulation time: 0 hr 5 min 58 sec) 
Heartbeat CPU  0 instructions:   37000000 cycles:   40587745 heartbeat IPC: 0.89251 cumulative IPC: 0.88496 (Simulation time: 0 hr 6 min 5 sec) 
Heartbeat CPU  0 instructions:   38000003 cycles:   41737949 heartbeat IPC: 0.86941 cumulative IPC: 0.88452 (Simulation time: 0 hr 6 min 13 sec) 
Heartbeat CPU  0 instructions:   39000003 cycles:   42867390 heartbeat IPC: 0.88539 cumulative IPC: 0.88455 (Simulation time: 0 hr 6 min 22 sec) 
Heartbeat CPU  0 instructions:   40000000 cycles:   44001150 heartbeat IPC: 0.88202 cumulative IPC: 0.88448 (Simulation time: 0 hr 6 min 30 sec) 
Heartbeat CPU  0 instructions:   41000002 cycles:   45168119 heartbeat IPC: 0.85692 cumulative IPC: 0.88375 (Simulation time: 0 hr 6 min 39 sec) 
Heartbeat CPU  0 instructions:   42000001 cycles:   46305013 heartbeat IPC: 0.87959 cumulative IPC: 0.88365 (Simulation time: 0 hr 6 min 47 sec) 
Heartbeat CPU  0 instructions:   43000001 cycles:   47452680 heartbeat IPC: 0.87133 cumulative IPC: 0.88334 (Simulation time: 0 hr 6 min 57 sec) 
Heartbeat CPU  0 instructions:   44000000 cycles:   48600055 heartbeat IPC: 0.87155 cumulative IPC: 0.88306 (Simulation time: 0 hr 7 min 4 sec) 
Heartbeat CPU  0 instructions:   45000002 cycles:   49734645 heartbeat IPC: 0.88138 cumulative IPC: 0.88302 (Simulation time: 0 hr 7 min 12 sec) 
Heartbeat CPU  0 instructions:   46000001 cycles:   50886674 heartbeat IPC: 0.86803 cumulative IPC: 0.88267 (Simulation time: 0 hr 7 min 20 sec) 
Heartbeat CPU  0 instructions:   47000001 cycles:   52037737 heartbeat IPC: 0.86876 cumulative IPC: 0.88236 (Simulation time: 0 hr 7 min 30 sec) 
Heartbeat CPU  0 instructions:   48000000 cycles:   53182186 heartbeat IPC: 0.87378 cumulative IPC: 0.88217 (Simulation time: 0 hr 7 min 36 sec) 
Heartbeat CPU  0 instructions:   49000000 cycles:   54307138 heartbeat IPC: 0.88893 cumulative IPC: 0.88231 (Simulation time: 0 hr 7 min 42 sec) 
Heartbeat CPU  0 instructions:   50000000 cycles:   55373481 heartbeat IPC: 0.93778 cumulative IPC: 0.88340 (Simulation time: 0 hr 7 min 49 sec) 
Heartbeat CPU  0 instructions:   51000000 cycles:   56365805 heartbeat IPC: 1.00774 cumulative IPC: 0.88563 (Simulation time: 0 hr 7 min 56 sec) 
Heartbeat CPU  0 instructions:   52000000 cycles:   57358341 heartbeat IPC: 1.00752 cumulative IPC: 0.88778 (Simulation time: 0 hr 8 min 3 sec) 
Heartbeat CPU  0 instructions:   53000002 cycles:   58346838 heartbeat IPC: 1.01164 cumulative IPC: 0.88992 (Simulation time: 0 hr 8 min 9 sec) 
Heartbeat CPU  0 instructions:   54000003 cycles:   59339024 heartbeat IPC: 1.00788 cumulative IPC: 0.89192 (Simulation time: 0 hr 8 min 16 sec) 
Heartbeat CPU  0 instructions:   55000001 cycles:   60338350 heartbeat IPC: 1.00067 cumulative IPC: 0.89376 (Simulation time: 0 hr 8 min 22 sec) 
Heartbeat CPU  0 instructions:   56000000 cycles:   61333853 heartbeat IPC: 1.00452 cumulative IPC: 0.89559 (Simulation time: 0 hr 8 min 29 sec) 
Heartbeat CPU  0 instructions:   57000000 cycles:   62328045 heartbeat IPC: 1.00584 cumulative IPC: 0.89737 (Simulation time: 0 hr 8 min 37 sec) 
Heartbeat CPU  0 instructions:   58000002 cycles:   63334244 heartbeat IPC: 0.99384 cumulative IPC: 0.89893 (Simulation time: 0 hr 8 min 44 sec) 
Heartbeat CPU  0 instructions:   59000001 cycles:   64321720 heartbeat IPC: 1.01268 cumulative IPC: 0.90071 (Simulation time: 0 hr 8 min 50 sec) 
Heartbeat CPU  0 instructions:   60000000 cycles:   65304305 heartbeat IPC: 1.01772 cumulative IPC: 0.90250 (Simulation time: 0 hr 8 min 57 sec) 
Heartbeat CPU  0 instructions:   61000001 cycles:   66290525 heartbeat IPC: 1.01397 cumulative IPC: 0.90418 (Simulation time: 0 hr 9 min 4 sec) 
Heartbeat CPU  0 instructions:   62000001 cycles:   67271131 heartbeat IPC: 1.01978 cumulative IPC: 0.90589 (Simulation time: 0 hr 9 min 10 sec) 
Heartbeat CPU  0 instructions:   63000000 cycles:   68255215 heartbeat IPC: 1.01617 cumulative IPC: 0.90751 (Simulation time: 0 hr 9 min 17 sec) 
Heartbeat CPU  0 instructions:   64000000 cycles:   69238049 heartbeat IPC: 1.01747 cumulative IPC: 0.90909 (Simulation time: 0 hr 9 min 24 sec) 
Heartbeat CPU  0 instructions:   65000003 cycles:   70193279 heartbeat IPC: 1.04687 cumulative IPC: 0.91099 (Simulation time: 0 hr 9 min 29 sec) 
Heartbeat CPU  0 instructions:   66000000 cycles:   71438239 heartbeat IPC: 0.80324 cumulative IPC: 0.90909 (Simulation time: 0 hr 9 min 36 sec) 
Heartbeat CPU  0 instructions:   67000001 cycles:   72565091 heartbeat IPC: 0.88743 cumulative IPC: 0.90875 (Simulation time: 0 hr 9 min 43 sec) 
Heartbeat CPU  0 instructions:   68000000 cycles:   73671444 heartbeat IPC: 0.90387 cumulative IPC: 0.90867 (Simulation time: 0 hr 9 min 49 sec) 
Heartbeat CPU  0 instructions:   69000001 cycles:   74786762 heartbeat IPC: 0.89661 cumulative IPC: 0.90849 (Simulation time: 0 hr 9 min 56 sec) 
Heartbeat CPU  0 instructions:   70000001 cycles:   75909165 heartbeat IPC: 0.89095 cumulative IPC: 0.90823 (Simulation time: 0 hr 10 min 3 sec) 
Heartbeat CPU  0 instructions:   71000003 cycles:   76998801 heartbeat IPC: 0.91774 cumulative IPC: 0.90836 (Simulation time: 0 hr 10 min 9 sec) 
Heartbeat CPU  0 instructions:   72000000 cycles:   78094732 heartbeat IPC: 0.91246 cumulative IPC: 0.90842 (Simulation time: 0 hr 10 min 16 sec) 
Heartbeat CPU  0 instructions:   73000001 cycles:   79218190 heartbeat IPC: 0.89011 cumulative IPC: 0.90816 (Simulation time: 0 hr 10 min 22 sec) 
Heartbeat CPU  0 instructions:   74000001 cycles:   80341416 heartbeat IPC: 0.89029 cumulative IPC: 0.90791 (Simulation time: 0 hr 10 min 29 sec) 
Heartbeat CPU  0 instructions:   75000001 cycles:   81475294 heartbeat IPC: 0.88193 cumulative IPC: 0.90754 (Simulation time: 0 hr 10 min 36 sec) 
Heartbeat CPU  0 instructions:   76000000 cycles:   82595928 heartbeat IPC: 0.89235 cumulative IPC: 0.90733 (Simulation time: 0 hr 10 min 42 sec) 
Heartbeat CPU  0 instructions:   77000003 cycles:   83705293 heartbeat IPC: 0.90142 cumulative IPC: 0.90725 (Simulation time: 0 hr 10 min 49 sec) 
Heartbeat CPU  0 instructions:   78000002 cycles:   84812355 heartbeat IPC: 0.90329 cumulative IPC: 0.90720 (Simulation time: 0 hr 10 min 55 sec) 
Heartbeat CPU  0 instructions:   79000001 cycles:   85922225 heartbeat IPC: 0.90101 cumulative IPC: 0.90712 (Simulation time: 0 hr 11 min 3 sec) 
Heartbeat CPU  0 instructions:   80000000 cycles:   87026481 heartbeat IPC: 0.90559 cumulative IPC: 0.90710 (Simulation time: 0 hr 11 min 12 sec) 
Heartbeat CPU  0 instructions:   81000000 cycles:   88149030 heartbeat IPC: 0.89083 cumulative IPC: 0.90689 (Simulation time: 0 hr 11 min 24 sec) 
Heartbeat CPU  0 instructions:   82000000 cycles:   89296156 heartbeat IPC: 0.87174 cumulative IPC: 0.90643 (Simulation time: 0 hr 11 min 31 sec) 
Heartbeat CPU  0 instructions:   83000003 cycles:   90450501 heartbeat IPC: 0.86629 cumulative IPC: 0.90591 (Simulation time: 0 hr 11 min 39 sec) 
Heartbeat CPU  0 instructions:   84000000 cycles:   91599000 heartbeat IPC: 0.87070 cumulative IPC: 0.90547 (Simulation time: 0 hr 11 min 46 sec) 
Heartbeat CPU  0 instructions:   85000003 cycles:   92724476 heartbeat IPC: 0.88852 cumulative IPC: 0.90526 (Simulation time: 0 hr 11 min 55 sec) 
Heartbeat CPU  0 instructions:   86000001 cycles:   93848409 heartbeat IPC: 0.88973 cumulative IPC: 0.90507 (Simulation time: 0 hr 12 min 3 sec) 
Heartbeat CPU  0 instructions:   87000001 cycles:   94989949 heartbeat IPC: 0.87601 cumulative IPC: 0.90472 (Simulation time: 0 hr 12 min 11 sec) 
Heartbeat CPU  0 instructions:   88000000 cycles:   96131349 heartbeat IPC: 0.87612 cumulative IPC: 0.90438 (Simulation time: 0 hr 12 min 19 sec) 
Heartbeat CPU  0 instructions:   89000002 cycles:   97257325 heartbeat IPC: 0.88812 cumulative IPC: 0.90419 (Simulation time: 0 hr 12 min 29 sec) 
Heartbeat CPU  0 instructions:   90000002 cycles:   98346036 heartbeat IPC: 0.91852 cumulative IPC: 0.90435 (Simulation time: 0 hr 12 min 37 sec) 
Heartbeat CPU  0 instructions:   91000001 cycles:   99489602 heartbeat IPC: 0.87446 cumulative IPC: 0.90400 (Simulation time: 0 hr 12 min 46 sec) 
Heartbeat CPU  0 instructions:   92000000 cycles:  100630853 heartbeat IPC: 0.87623 cumulative IPC: 0.90368 (Simulation time: 0 hr 12 min 54 sec) 
Heartbeat CPU  0 instructions:   93000000 cycles:  101772572 heartbeat IPC: 0.87587 cumulative IPC: 0.90337 (Simulation time: 0 hr 13 min 1 sec) 
Heartbeat CPU  0 instructions:   94000001 cycles:  102883779 heartbeat IPC: 0.89992 cumulative IPC: 0.90333 (Simulation time: 0 hr 13 min 8 sec) 
Heartbeat CPU  0 instructions:   95000000 cycles:  104004983 heartbeat IPC: 0.89190 cumulative IPC: 0.90320 (Simulation time: 0 hr 13 min 17 sec) 
Heartbeat CPU  0 instructions:   96000000 cycles:  105128915 heartbeat IPC: 0.88973 cumulative IPC: 0.90306 (Simulation time: 0 hr 13 min 26 sec) 
Heartbeat CPU  0 instructions:   97000002 cycles:  106242145 heartbeat IPC: 0.89829 cumulative IPC: 0.90301 (Simulation time: 0 hr 13 min 36 sec) 
Heartbeat CPU  0 instructions:   98000000 cycles:  107375705 heartbeat IPC: 0.88217 cumulative IPC: 0.90279 (Simulation time: 0 hr 13 min 45 sec) 
Heartbeat CPU  0 instructions:   99000000 cycles:  108502592 heartbeat IPC: 0.88740 cumulative IPC: 0.90262 (Simulation time: 0 hr 13 min 54 sec) 
Heartbeat CPU  0 instructions:  100000000 cycles:  109647445 heartbeat IPC: 0.87347 cumulative IPC: 0.90232 (Simulation time: 0 hr 14 min 3 sec) 
Heartbeat CPU  0 instructions:  101000001 cycles:  110776396 heartbeat IPC: 0.88578 cumulative IPC: 0.90215 (Simulation time: 0 hr 14 min 13 sec) 
Heartbeat CPU  0 instructions:  102000002 cycles:  111901175 heartbeat IPC: 0.88906 cumulative IPC: 0.90201 (Simulation time: 0 hr 14 min 22 sec) 
Heartbeat CPU  0 instructions:  103000001 cycles:  113030768 heartbeat IPC: 0.88527 cumulative IPC: 0.90184 (Simulation time: 0 hr 14 min 30 sec) 
Heartbeat CPU  0 instructions:  104000000 cycles:  114144113 heartbeat IPC: 0.89819 cumulative IPC: 0.90181 (Simulation time: 0 hr 14 min 40 sec) 
Heartbeat CPU  0 instructions:  105000001 cycles:  115279771 heartbeat IPC: 0.88055 cumulative IPC: 0.90160 (Simulation time: 0 hr 14 min 48 sec) 
Heartbeat CPU  0 instructions:  106000000 cycles:  116404407 heartbeat IPC: 0.88918 cumulative IPC: 0.90148 (Simulation time: 0 hr 14 min 56 sec) 
Heartbeat CPU  0 instructions:  107000001 cycles:  117548952 heartbeat IPC: 0.87371 cumulative IPC: 0.90120 (Simulation time: 0 hr 15 min 5 sec) 
Heartbeat CPU  0 instructions:  108000000 cycles:  118681158 heartbeat IPC: 0.88323 cumulative IPC: 0.90103 (Simulation time: 0 hr 15 min 13 sec) 
Heartbeat CPU  0 instructions:  109000000 cycles:  119839214 heartbeat IPC: 0.86352 cumulative IPC: 0.90067 (Simulation time: 0 hr 15 min 22 sec) 
Heartbeat CPU  0 instructions:  110000002 cycles:  120980074 heartbeat IPC: 0.87653 cumulative IPC: 0.90044 (Simulation time: 0 hr 15 min 30 sec) 
Heartbeat CPU  0 instructions:  111000001 cycles:  122125332 heartbeat IPC: 0.87316 cumulative IPC: 0.90018 (Simulation time: 0 hr 15 min 41 sec) 
Heartbeat CPU  0 instructions:  112000000 cycles:  123245725 heartbeat IPC: 0.89254 cumulative IPC: 0.90011 (Simulation time: 0 hr 15 min 50 sec) 
Heartbeat CPU  0 instructions:  113000000 cycles:  124363644 heartbeat IPC: 0.89452 cumulative IPC: 0.90006 (Simulation time: 0 hr 16 min 0 sec) 
Heartbeat CPU  0 instructions:  114000000 cycles:  125449284 heartbeat IPC: 0.92112 cumulative IPC: 0.90024 (Simulation time: 0 hr 16 min 8 sec) 
Heartbeat CPU  0 instructions:  115000002 cycles:  126421293 heartbeat IPC: 1.02880 cumulative IPC: 0.90124 (Simulation time: 0 hr 16 min 19 sec) 
Heartbeat CPU  0 instructions:  116000000 cycles:  127401827 heartbeat IPC: 1.01985 cumulative IPC: 0.90216 (Simulation time: 0 hr 16 min 27 sec) 
Heartbeat CPU  0 instructions:  117000000 cycles:  128377904 heartbeat IPC: 1.02451 cumulative IPC: 0.90310 (Simulation time: 0 hr 16 min 36 sec) 
Heartbeat CPU  0 instructions:  118000003 cycles:  129349456 heartbeat IPC: 1.02928 cumulative IPC: 0.90405 (Simulation time: 0 hr 16 min 45 sec) 
Heartbeat CPU  0 instructions:  119000001 cycles:  130323781 heartbeat IPC: 1.02635 cumulative IPC: 0.90497 (Simulation time: 0 hr 16 min 55 sec) 
Heartbeat CPU  0 instructions:  120000000 cycles:  131291668 heartbeat IPC: 1.03318 cumulative IPC: 0.90593 (Simulation time: 0 hr 17 min 3 sec) 
Heartbeat CPU  0 instructions:  121000001 cycles:  132262140 heartbeat IPC: 1.03043 cumulative IPC: 0.90685 (Simulation time: 0 hr 17 min 14 sec) 
Heartbeat CPU  0 instructions:  122000000 cycles:  133223835 heartbeat IPC: 1.03983 cumulative IPC: 0.90781 (Simulation time: 0 hr 17 min 22 sec) 
Heartbeat CPU  0 instructions:  123000003 cycles:  134180883 heartbeat IPC: 1.04488 cumulative IPC: 0.90880 (Simulation time: 0 hr 17 min 39 sec) 
Heartbeat CPU  0 instructions:  124000000 cycles:  135133578 heartbeat IPC: 1.04965 cumulative IPC: 0.90980 (Simulation time: 0 hr 17 min 50 sec) 
Heartbeat CPU  0 instructions:  125000003 cycles:  136090313 heartbeat IPC: 1.04522 cumulative IPC: 0.91076 (Simulation time: 0 hr 18 min 12 sec) 
Heartbeat CPU  0 instructions:  126000003 cycles:  137052005 heartbeat IPC: 1.03983 cumulative IPC: 0.91167 (Simulation time: 0 hr 18 min 21 sec) 
Heartbeat CPU  0 instructions:  127000002 cycles:  138014160 heartbeat IPC: 1.03933 cumulative IPC: 0.91257 (Simulation time: 0 hr 18 min 28 sec) 
Heartbeat CPU  0 instructions:  128000000 cycles:  138978855 heartbeat IPC: 1.03659 cumulative IPC: 0.91344 (Simulation time: 0 hr 18 min 37 sec) 
Heartbeat CPU  0 instructions:  129000000 cycles:  139934532 heartbeat IPC: 1.04638 cumulative IPC: 0.91435 (Simulation time: 0 hr 18 min 46 sec) 
Heartbeat CPU  0 instructions:  130000000 cycles:  140502995 heartbeat IPC: 1.75913 cumulative IPC: 0.91779 (Simulation time: 0 hr 18 min 49 sec) 
Heartbeat CPU  0 instructions:  131000000 cycles:  140883218 heartbeat IPC: 2.63004 cumulative IPC: 0.92245 (Simulation time: 0 hr 18 min 50 sec) 
Heartbeat CPU  0 instructions:  132000000 cycles:  142265395 heartbeat IPC: 0.72350 cumulative IPC: 0.92050 (Simulation time: 0 hr 19 min 7 sec) 
Heartbeat CPU  0 instructions:  133000001 cycles:  149419488 heartbeat IPC: 0.13978 cumulative IPC: 0.88286 (Simulation time: 0 hr 20 min 35 sec) 
Heartbeat CPU  0 instructions:  134000000 cycles:  156990851 heartbeat IPC: 0.13208 cumulative IPC: 0.84641 (Simulation time: 0 hr 21 min 40 sec) 
Heartbeat CPU  0 instructions:  135000002 cycles:  164594362 heartbeat IPC: 0.13152 cumulative IPC: 0.81318 (Simulation time: 0 hr 22 min 42 sec) 
Heartbeat CPU  0 instructions:  136000000 cycles:  172163197 heartbeat IPC: 0.13212 cumulative IPC: 0.78305 (Simulation time: 0 hr 23 min 35 sec) 
Heartbeat CPU  0 instructions:  137000000 cycles:  176529525 heartbeat IPC: 0.22903 cumulative IPC: 0.76927 (Simulation time: 0 hr 24 min 20 sec) 
Heartbeat CPU  0 instructions:  138000002 cycles:  178876859 heartbeat IPC: 0.42602 cumulative IPC: 0.76474 (Simulation time: 0 hr 24 min 33 sec) 
Heartbeat CPU  0 instructions:  139000000 cycles:  181640451 heartbeat IPC: 0.36185 cumulative IPC: 0.75857 (Simulation time: 0 hr 24 min 45 sec) 
Heartbeat CPU  0 instructions:  140000000 cycles:  184410942 heartbeat IPC: 0.36095 cumulative IPC: 0.75257 (Simulation time: 0 hr 24 min 57 sec) 
Heartbeat CPU  0 instructions:  141000002 cycles:  187032893 heartbeat IPC: 0.38140 cumulative IPC: 0.74733 (Simulation time: 0 hr 25 min 13 sec) 
Heartbeat CPU  0 instructions:  142000001 cycles:  189633530 heartbeat IPC: 0.38452 cumulative IPC: 0.74233 (Simulation time: 0 hr 25 min 23 sec) 
Heartbeat CPU  0 instructions:  143000000 cycles:  192238600 heartbeat IPC: 0.38387 cumulative IPC: 0.73745 (Simulation time: 0 hr 25 min 35 sec) 
Heartbeat CPU  0 instructions:  144000000 cycles:  194920210 heartbeat IPC: 0.37291 cumulative IPC: 0.73240 (Simulation time: 0 hr 25 min 49 sec) 
Heartbeat CPU  0 instructions:  145000000 cycles:  197557114 heartbeat IPC: 0.37923 cumulative IPC: 0.72767 (Simulation time: 0 hr 25 min 58 sec) 
Heartbeat CPU  0 instructions:  146000003 cycles:  200212194 heartbeat IPC: 0.37664 cumulative IPC: 0.72299 (Simulation time: 0 hr 26 min 8 sec) 
Heartbeat CPU  0 instructions:  147000002 cycles:  202810387 heartbeat IPC: 0.38488 cumulative IPC: 0.71863 (Simulation time: 0 hr 26 min 21 sec) 
Heartbeat CPU  0 instructions:  148000000 cycles:  205420192 heartbeat IPC: 0.38317 cumulative IPC: 0.71435 (Simulation time: 0 hr 26 min 30 sec) 
Heartbeat CPU  0 instructions:  149000003 cycles:  208008063 heartbeat IPC: 0.38642 cumulative IPC: 0.71025 (Simulation time: 0 hr 26 min 38 sec) 
Heartbeat CPU  0 instructions:  150000001 cycles:  210589957 heartbeat IPC: 0.38731 cumulative IPC: 0.70627 (Simulation time: 0 hr 26 min 49 sec) 
Heartbeat CPU  0 instructions:  151000000 cycles:  213333756 heartbeat IPC: 0.36446 cumulative IPC: 0.70185 (Simulation time: 0 hr 27 min 0 sec) 
Heartbeat CPU  0 instructions:  152000000 cycles:  216098563 heartbeat IPC: 0.36169 cumulative IPC: 0.69748 (Simulation time: 0 hr 27 min 12 sec) 
Heartbeat CPU  0 instructions:  153000002 cycles:  218793099 heartbeat IPC: 0.37112 cumulative IPC: 0.69344 (Simulation time: 0 hr 27 min 23 sec) 
Heartbeat CPU  0 instructions:  154000003 cycles:  221447471 heartbeat IPC: 0.37674 cumulative IPC: 0.68963 (Simulation time: 0 hr 27 min 33 sec) 
Heartbeat CPU  0 instructions:  155000000 cycles:  224037570 heartbeat IPC: 0.38608 cumulative IPC: 0.68610 (Simulation time: 0 hr 27 min 44 sec) 
Heartbeat CPU  0 instructions:  156000000 cycles:  226661883 heartbeat IPC: 0.38105 cumulative IPC: 0.68255 (Simulation time: 0 hr 27 min 59 sec) 
Heartbeat CPU  0 instructions:  157000000 cycles:  229281797 heartbeat IPC: 0.38169 cumulative IPC: 0.67910 (Simulation time: 0 hr 28 min 20 sec) 
Heartbeat CPU  0 instructions:  158000001 cycles:  231868792 heartbeat IPC: 0.38655 cumulative IPC: 0.67582 (Simulation time: 0 hr 28 min 35 sec) 
Heartbeat CPU  0 instructions:  159000002 cycles:  234496205 heartbeat IPC: 0.38060 cumulative IPC: 0.67250 (Simulation time: 0 hr 28 min 43 sec) 
Heartbeat CPU  0 instructions:  160000000 cycles:  237172437 heartbeat IPC: 0.37366 cumulative IPC: 0.66911 (Simulation time: 0 hr 29 min 2 sec) 
Heartbeat CPU  0 instructions:  161000001 cycles:  239793275 heartbeat IPC: 0.38156 cumulative IPC: 0.66595 (Simulation time: 0 hr 29 min 27 sec) 
Heartbeat CPU  0 instructions:  162000000 cycles:  242414397 heartbeat IPC: 0.38152 cumulative IPC: 0.66287 (Simulation time: 0 hr 29 min 41 sec) 
Heartbeat CPU  0 instructions:  163000001 cycles:  245059454 heartbeat IPC: 0.37806 cumulative IPC: 0.65978 (Simulation time: 0 hr 29 min 56 sec) 
Heartbeat CPU  0 instructions:  164000000 cycles:  247673026 heartbeat IPC: 0.38262 cumulative IPC: 0.65684 (Simulation time: 0 hr 30 min 10 sec) 
Heartbeat CPU  0 instructions:  165000000 cycles:  250292540 heartbeat IPC: 0.38175 cumulative IPC: 0.65395 (Simulation time: 0 hr 30 min 23 sec) 
Heartbeat CPU  0 instructions:  166000002 cycles:  252985776 heartbeat IPC: 0.37130 cumulative IPC: 0.65093 (Simulation time: 0 hr 30 min 39 sec) 
Heartbeat CPU  0 instructions:  167000000 cycles:  255656852 heartbeat IPC: 0.37438 cumulative IPC: 0.64803 (Simulation time: 0 hr 31 min 6 sec) 
Heartbeat CPU  0 instructions:  168000000 cycles:  258255796 heartbeat IPC: 0.38477 cumulative IPC: 0.64537 (Simulation time: 0 hr 31 min 15 sec) 
Heartbeat CPU  0 instructions:  169000000 cycles:  260924591 heartbeat IPC: 0.37470 cumulative IPC: 0.64259 (Simulation time: 0 hr 31 min 28 sec) 
Heartbeat CPU  0 instructions:  170000000 cycles:  263564198 heartbeat IPC: 0.37884 cumulative IPC: 0.63994 (Simulation time: 0 hr 31 min 42 sec) 
Heartbeat CPU  0 instructions:  171000000 cycles:  266209569 heartbeat IPC: 0.37802 cumulative IPC: 0.63732 (Simulation time: 0 hr 32 min 4 sec) 
Heartbeat CPU  0 instructions:  172000000 cycles:  268852264 heartbeat IPC: 0.37840 cumulative IPC: 0.63477 (Simulation time: 0 hr 32 min 28 sec) 
Heartbeat CPU  0 instructions:  173000001 cycles:  271487337 heartbeat IPC: 0.37950 cumulative IPC: 0.63228 (Simulation time: 0 hr 32 min 48 sec) 
Heartbeat CPU  0 instructions:  174000000 cycles:  274121398 heartbeat IPC: 0.37964 cumulative IPC: 0.62984 (Simulation time: 0 hr 33 min 2 sec) 
Heartbeat CPU  0 instructions:  175000003 cycles:  276762591 heartbeat IPC: 0.37862 cumulative IPC: 0.62744 (Simulation time: 0 hr 33 min 24 sec) 
Heartbeat CPU  0 instructions:  176000000 cycles:  279355856 heartbeat IPC: 0.38561 cumulative IPC: 0.62518 (Simulation time: 0 hr 33 min 34 sec) 
Heartbeat CPU  0 instructions:  177000000 cycles:  281955890 heartbeat IPC: 0.38461 cumulative IPC: 0.62296 (Simulation time: 0 hr 33 min 55 sec) 
Heartbeat CPU  0 instructions:  178000000 cycles:  284637694 heartbeat IPC: 0.37288 cumulative IPC: 0.62059 (Simulation time: 0 hr 34 min 6 sec) 
Heartbeat CPU  0 instructions:  179000003 cycles:  287313770 heartbeat IPC: 0.37368 cumulative IPC: 0.61829 (Simulation time: 0 hr 34 min 18 sec) 
Heartbeat CPU  0 instructions:  180000000 cycles:  289969773 heartbeat IPC: 0.37650 cumulative IPC: 0.61606 (Simulation time: 0 hr 34 min 25 sec) 
Heartbeat CPU  0 instructions:  181000002 cycles:  292680970 heartbeat IPC: 0.36884 cumulative IPC: 0.61376 (Simulation time: 0 hr 34 min 40 sec) 
Heartbeat CPU  0 instructions:  182000001 cycles:  295300416 heartbeat IPC: 0.38176 cumulative IPC: 0.61170 (Simulation time: 0 hr 34 min 55 sec) 
Heartbeat CPU  0 instructions:  183000000 cycles:  297926706 heartbeat IPC: 0.38076 cumulative IPC: 0.60966 (Simulation time: 0 hr 35 min 9 sec) 
Heartbeat CPU  0 instructions:  184000000 cycles:  300541065 heartbeat IPC: 0.38250 cumulative IPC: 0.60767 (Simulation time: 0 hr 35 min 27 sec) 
Heartbeat CPU  0 instructions:  185000002 cycles:  303163364 heartbeat IPC: 0.38135 cumulative IPC: 0.60571 (Simulation time: 0 hr 35 min 48 sec) 
Heartbeat CPU  0 instructions:  186000000 cycles:  305752032 heartbeat IPC: 0.38630 cumulative IPC: 0.60385 (Simulation time: 0 hr 35 min 57 sec) 
Heartbeat CPU  0 instructions:  187000000 cycles:  308374436 heartbeat IPC: 0.38133 cumulative IPC: 0.60195 (Simulation time: 0 hr 36 min 5 sec) 
Heartbeat CPU  0 instructions:  188000000 cycles:  310981763 heartbeat IPC: 0.38353 cumulative IPC: 0.60011 (Simulation time: 0 hr 36 min 14 sec) 
Heartbeat CPU  0 instructions:  189000000 cycles:  313660115 heartbeat IPC: 0.37336 cumulative IPC: 0.59817 (Simulation time: 0 hr 36 min 23 sec) 
Heartbeat CPU  0 instructions:  190000001 cycles:  316240293 heartbeat IPC: 0.38757 cumulative IPC: 0.59644 (Simulation time: 0 hr 36 min 34 sec) 
Heartbeat CPU  0 instructions:  191000002 cycles:  318868578 heartbeat IPC: 0.38048 cumulative IPC: 0.59466 (Simulation time: 0 hr 36 min 52 sec) 
Heartbeat CPU  0 instructions:  192000000 cycles:  321452361 heartbeat IPC: 0.38703 cumulative IPC: 0.59298 (Simulation time: 0 hr 37 min 1 sec) 
Heartbeat CPU  0 instructions:  193000000 cycles:  324044687 heartbeat IPC: 0.38575 cumulative IPC: 0.59132 (Simulation time: 0 hr 37 min 13 sec) 
Heartbeat CPU  0 instructions:  194000002 cycles:  326641063 heartbeat IPC: 0.38515 cumulative IPC: 0.58968 (Simulation time: 0 hr 37 min 21 sec) 
Heartbeat CPU  0 instructions:  195000003 cycles:  329381593 heartbeat IPC: 0.36489 cumulative IPC: 0.58780 (Simulation time: 0 hr 37 min 29 sec) 
Heartbeat CPU  0 instructions:  196000000 cycles:  332080443 heartbeat IPC: 0.37053 cumulative IPC: 0.58603 (Simulation time: 0 hr 37 min 43 sec) 
Heartbeat CPU  0 instructions:  197000000 cycles:  334692765 heartbeat IPC: 0.38280 cumulative IPC: 0.58444 (Simulation time: 0 hr 37 min 50 sec) 
Heartbeat CPU  0 instructions:  198000000 cycles:  337324781 heartbeat IPC: 0.37994 cumulative IPC: 0.58284 (Simulation time: 0 hr 38 min 6 sec) 
Heartbeat CPU  0 instructions:  199000002 cycles:  339925791 heartbeat IPC: 0.38447 cumulative IPC: 0.58131 (Simulation time: 0 hr 38 min 14 sec) 
Heartbeat CPU  0 instructions:  200000000 cycles:  342510962 heartbeat IPC: 0.38682 cumulative IPC: 0.57984 (Simulation time: 0 hr 38 min 22 sec) 
Heartbeat CPU  0 instructions:  201000003 cycles:  344362470 heartbeat IPC: 0.54010 cumulative IPC: 0.57963 (Simulation time: 0 hr 38 min 27 sec) 
Heartbeat CPU  0 instructions:  202000000 cycles:  345003514 heartbeat IPC: 1.55995 cumulative IPC: 0.58145 (Simulation time: 0 hr 38 min 29 sec) 
Heartbeat CPU  0 instructions:  203000000 cycles:  345749379 heartbeat IPC: 1.34073 cumulative IPC: 0.58310 (Simulation time: 0 hr 38 min 36 sec) 
Heartbeat CPU  0 instructions:  204000000 cycles:  346389685 heartbeat IPC: 1.56175 cumulative IPC: 0.58491 (Simulation time: 0 hr 38 min 43 sec) 
Heartbeat CPU  0 instructions:  205000001 cycles:  347000577 heartbeat IPC: 1.63695 cumulative IPC: 0.58677 (Simulation time: 0 hr 38 min 51 sec) 
Heartbeat CPU  0 instructions:  206000000 cycles:  347571951 heartbeat IPC: 1.75017 cumulative IPC: 0.58869 (Simulation time: 0 hr 38 min 58 sec) 
Heartbeat CPU  0 instructions:  207000001 cycles:  348160730 heartbeat IPC: 1.69843 cumulative IPC: 0.59057 (Simulation time: 0 hr 39 min 6 sec) 
Heartbeat CPU  0 instructions:  208000000 cycles:  348780741 heartbeat IPC: 1.61287 cumulative IPC: 0.59239 (Simulation time: 0 hr 39 min 13 sec) 
Heartbeat CPU  0 instructions:  209000003 cycles:  349393056 heartbeat IPC: 1.63315 cumulative IPC: 0.59422 (Simulation time: 0 hr 39 min 21 sec) 
Heartbeat CPU  0 instructions:  210000003 cycles:  350001316 heartbeat IPC: 1.64403 cumulative IPC: 0.59605 (Simulation time: 0 hr 39 min 28 sec) 
Heartbeat CPU  0 instructions:  211000000 cycles:  350588088 heartbeat IPC: 1.70423 cumulative IPC: 0.59791 (Simulation time: 0 hr 39 min 35 sec) 
Heartbeat CPU  0 instructions:  212000000 cycles:  351255343 heartbeat IPC: 1.49868 cumulative IPC: 0.59963 (Simulation time: 0 hr 39 min 44 sec) 
Heartbeat CPU  0 instructions:  213000002 cycles:  352059666 heartbeat IPC: 1.24328 cumulative IPC: 0.60110 (Simulation time: 0 hr 39 min 56 sec) 
Heartbeat CPU  0 instructions:  214000002 cycles:  352833712 heartbeat IPC: 1.29191 cumulative IPC: 0.60262 (Simulation time: 0 hr 40 min 15 sec) 
Heartbeat CPU  0 instructions:  215000003 cycles:  353600715 heartbeat IPC: 1.30378 cumulative IPC: 0.60415 (Simulation time: 0 hr 40 min 36 sec) 
Heartbeat CPU  0 instructions:  216000000 cycles:  354421622 heartbeat IPC: 1.21816 cumulative IPC: 0.60557 (Simulation time: 0 hr 41 min 3 sec) 
Heartbeat CPU  0 instructions:  217000003 cycles:  355194126 heartbeat IPC: 1.29450 cumulative IPC: 0.60708 (Simulation time: 0 hr 41 min 53 sec) 
Heartbeat CPU  0 instructions:  218000002 cycles:  355959462 heartbeat IPC: 1.30661 cumulative IPC: 0.60859 (Simulation time: 0 hr 42 min 26 sec) 
Heartbeat CPU  0 instructions:  219000002 cycles:  356755219 heartbeat IPC: 1.25666 cumulative IPC: 0.61004 (Simulation time: 0 hr 42 min 51 sec) 
Heartbeat CPU  0 instructions:  220000000 cycles:  357553115 heartbeat IPC: 1.25329 cumulative IPC: 0.61147 (Simulation time: 0 hr 43 min 13 sec) 
Heartbeat CPU  0 instructions:  221000003 cycles:  358316163 heartbeat IPC: 1.31054 cumulative IPC: 0.61297 (Simulation time: 0 hr 43 min 50 sec) 
Heartbeat CPU  0 instructions:  222000002 cycles:  359210239 heartbeat IPC: 1.11847 cumulative IPC: 0.61423 (Simulation time: 0 hr 44 min 5 sec) 
Heartbeat CPU  0 instructions:  223000000 cycles:  360191461 heartbeat IPC: 1.01914 cumulative IPC: 0.61534 (Simulation time: 0 hr 44 min 17 sec) 
Heartbeat CPU  0 instructions:  224000000 cycles:  361072852 heartbeat IPC: 1.13457 cumulative IPC: 0.61661 (Simulation time: 0 hr 44 min 40 sec) 
Heartbeat CPU  0 instructions:  225000002 cycles:  361885558 heartbeat IPC: 1.23046 cumulative IPC: 0.61799 (Simulation time: 0 hr 45 min 9 sec) 
Heartbeat CPU  0 instructions:  226000000 cycles:  362652046 heartbeat IPC: 1.30465 cumulative IPC: 0.61945 (Simulation time: 0 hr 45 min 24 sec) 
Heartbeat CPU  0 instructions:  227000000 cycles:  363426238 heartbeat IPC: 1.29167 cumulative IPC: 0.62088 (Simulation time: 0 hr 45 min 45 sec) 
Heartbeat CPU  0 instructions:  228000000 cycles:  364263682 heartbeat IPC: 1.19411 cumulative IPC: 0.62220 (Simulation time: 0 hr 46 min 10 sec) 
Heartbeat CPU  0 instructions:  229000001 cycles:  365032909 heartbeat IPC: 1.30001 cumulative IPC: 0.62364 (Simulation time: 0 hr 46 min 26 sec) 
Heartbeat CPU  0 instructions:  230000001 cycles:  365791827 heartbeat IPC: 1.31767 cumulative IPC: 0.62508 (Simulation time: 0 hr 46 min 41 sec) 
Heartbeat CPU  0 instructions:  231000000 cycles:  366581053 heartbeat IPC: 1.26706 cumulative IPC: 0.62647 (Simulation time: 0 hr 46 min 56 sec) 
Heartbeat CPU  0 instructions:  232000000 cycles:  367389969 heartbeat IPC: 1.23622 cumulative IPC: 0.62781 (Simulation time: 0 hr 47 min 17 sec) 
Heartbeat CPU  0 instructions:  233000003 cycles:  368157996 heartbeat IPC: 1.30204 cumulative IPC: 0.62922 (Simulation time: 0 hr 47 min 48 sec) 
Heartbeat CPU  0 instructions:  234000001 cycles:  368926015 heartbeat IPC: 1.30205 cumulative IPC: 0.63063 (Simulation time: 0 hr 48 min 11 sec) 
Heartbeat CPU  0 instructions:  235000001 cycles:  369753462 heartbeat IPC: 1.20854 cumulative IPC: 0.63192 (Simulation time: 0 hr 48 min 43 sec) 
Heartbeat CPU  0 instructions:  236000000 cycles:  370537002 heartbeat IPC: 1.27626 cumulative IPC: 0.63329 (Simulation time: 0 hr 49 min 20 sec) 
Heartbeat CPU  0 instructions:  237000000 cycles:  371297642 heartbeat IPC: 1.31468 cumulative IPC: 0.63469 (Simulation time: 0 hr 49 min 42 sec) 
Heartbeat CPU  0 instructions:  238000001 cycles:  372070989 heartbeat IPC: 1.29308 cumulative IPC: 0.63606 (Simulation time: 0 hr 50 min 8 sec) 
Heartbeat CPU  0 instructions:  239000002 cycles:  372958141 heartbeat IPC: 1.12720 cumulative IPC: 0.63723 (Simulation time: 0 hr 50 min 33 sec) 
Heartbeat CPU  0 instructions:  240000000 cycles:  374025110 heartbeat IPC: 0.93723 cumulative IPC: 0.63809 (Simulation time: 0 hr 51 min 9 sec) 
Heartbeat CPU  0 instructions:  241000000 cycles:  374809391 heartbeat IPC: 1.27505 cumulative IPC: 0.63943 (Simulation time: 0 hr 51 min 51 sec) 
Heartbeat CPU  0 instructions:  242000002 cycles:  375582969 heartbeat IPC: 1.29270 cumulative IPC: 0.64078 (Simulation time: 0 hr 52 min 35 sec) 
Heartbeat CPU  0 instructions:  243000003 cycles:  376368922 heartbeat IPC: 1.27234 cumulative IPC: 0.64210 (Simulation time: 0 hr 52 min 54 sec) 
Heartbeat CPU  0 instructions:  244000000 cycles:  377189943 heartbeat IPC: 1.21799 cumulative IPC: 0.64336 (Simulation time: 0 hr 53 min 16 sec) 
Heartbeat CPU  0 instructions:  245000001 cycles:  377948542 heartbeat IPC: 1.31822 cumulative IPC: 0.64472 (Simulation time: 0 hr 54 min 4 sec) 
Heartbeat CPU  0 instructions:  246000003 cycles:  378701973 heartbeat IPC: 1.32726 cumulative IPC: 0.64608 (Simulation time: 0 hr 54 min 33 sec) 
Heartbeat CPU  0 instructions:  247000001 cycles:  379511903 heartbeat IPC: 1.23467 cumulative IPC: 0.64734 (Simulation time: 0 hr 55 min 14 sec) 
Heartbeat CPU  0 instructions:  248000000 cycles:  380286819 heartbeat IPC: 1.29046 cumulative IPC: 0.64865 (Simulation time: 0 hr 55 min 46 sec) 
Heartbeat CPU  0 instructions:  249000001 cycles:  381039879 heartbeat IPC: 1.32792 cumulative IPC: 0.65000 (Simulation time: 0 hr 56 min 10 sec) 
Heartbeat CPU  0 instructions:  250000002 cycles:  381815127 heartbeat IPC: 1.28991 cumulative IPC: 0.65130 (Simulation time: 0 hr 56 min 36 sec) 
Heartbeat CPU  0 instructions:  251000000 cycles:  382618976 heartbeat IPC: 1.24401 cumulative IPC: 0.65255 (Simulation time: 0 hr 56 min 56 sec) 
Heartbeat CPU  0 instructions:  252000000 cycles:  383383220 heartbeat IPC: 1.30848 cumulative IPC: 0.65386 (Simulation time: 0 hr 57 min 25 sec) 
Caught signal: 2
