*************************************************
   ChampSim Multicore Out-of-Order Simulator
   Last compiled: Sep  2 2024 09:38:33
*************************************************

trace_0 ./LLM_Traces/2B_Traces_SelfAttention_Phythia-70M-Seq1024-07-08-0125.champsim.xz
CPU 0 L1D next line prefetcher
Markov Talbe Size: 33 Markov Confidence: 3%
Stride Size: 32 Prefetch Degree: 20

CPU 0 L2C prefetcher
warmup_instructions 2000000
simulation_instructions 350000000
champsim_seed 200

num_cpus 1
cpu_freq 4000
dram_io_freq 2400
page_size 4096
block_size 64
max_read_per_cycle 8
max_fill_per_cycle 1
dram_channels 1
dram_ranks 1
dram_banks 8
dram_rows 65536
dram_columns 128
dram_row_size 8
dram_size 4096
dram_pages 1048576

fetch_width 6
decode_width 6
exec_width 4
lq_width 2
sq_width 2
retire_width 4
scheduler_size 128
branch_mispredict_penalty 20
rob_size 256
lq_size 72
sq_size 56
num_instr_destinations_sparc 4
num_instr_destinations 2
num_instr_sources 4

itlb_set 16
itlb_way 8
itlb_rq_size 16
itlb_wq_size 16
itlb_pq_size 0
itlb_mshr_size 8
itlb_latency 1

dtlb_set 16
dtlb_way 4
dtlb_rq_size 16
dtlb_wq_size 16
dtlb_pq_size 0
dtlb_mshr_size 8
dtlb_latency 1

stlb_set 128
stlb_way 12
stlb_rq_size 32
stlb_wq_size 32
stlb_pq_size 0
stlb_mshr_size 16
stlb_latency 8

l1i_size 32
l1i_set 64
l1i_way 8
l1i_rq_size 64
l1i_wq_size 64
l1i_pq_size 8
l1i_mshr_size 8
l1i_latency 1

l1d_size 32
l1d_set 64
l1d_way 8
l1d_rq_size 64
l1d_wq_size 64
l1d_pq_size 8
l1d_mshr_size 16
l1d_latency 4

l2c_size 512
l2c_set 1024
l2c_way 8
l2c_rq_size 32
l2c_wq_size 32
l2c_pq_size 16
l2c_mshr_size 32
l2c_latency 10

llc_size 2048
llc_set 2048
llc_way 16
llc_rq_size 32
llc_wq_size 32
llc_pq_size 32
llc_mshr_size 64
llc_latency 20

dram_channel_width 8
dram_wq_size 64
dram_rq_size 64
tRP 15
tRCD 15
tCAS 12.5
dram_dbus_turn_around_time 30
dram_write_high_wm 56
dram_write_low_wm 48
min_dram_writes_per_switch 16
dram_mtps 2400
dram_dbus_return_time 13


CPU 0 L2C prefetcher initialized


Cache Size: 512
number of cache lines: 8192
Heartbeat CPU  0 instr:    1000001 cyc:     474495 curr IPC: 2.10751 AVG IPC: 2.10751 (Sim:0h0m1s) 
Heartbeat CPU  0 instr:    2000000 cyc:    1054352 curr IPC: 1.72456 AVG IPC: 1.89690 (Sim:0h0m3s) 

Warmup complete CPU  0 instructions:    2000002 cycles:    1054353 (Simulation time: 0 hr 0 min 3 sec) 

Heartbeat CPU  0 instr:    3000001 cyc:    2104025 curr IPC: 0.95268 AVG IPC: 0.95268 (Sim:0h0m5s) 
Heartbeat CPU  0 instr:    4000000 cyc:    3190647 curr IPC: 0.92028 AVG IPC: 0.93620 (Sim:0h0m7s) 
Heartbeat CPU  0 instr:    5000002 cyc:    4265944 curr IPC: 0.92998 AVG IPC: 0.93412 (Sim:0h0m9s) 
Heartbeat CPU  0 instr:    6000001 cyc:    5343242 curr IPC: 0.92825 AVG IPC: 0.93264 (Sim:0h0m11s) 
Heartbeat CPU  0 instr:    7000002 cyc:    6426205 curr IPC: 0.92339 AVG IPC: 0.93078 (Sim:0h0m13s) 
Heartbeat CPU  0 instr:    8000000 cyc:    7518841 curr IPC: 0.91522 AVG IPC: 0.92815 (Sim:0h0m15s) 
Heartbeat CPU  0 instr:    9000003 cyc:    8622949 curr IPC: 0.90571 AVG IPC: 0.92487 (Sim:0h0m17s) 
Heartbeat CPU  0 instr:   10000003 cyc:    9721423 curr IPC: 0.91035 AVG IPC: 0.92303 (Sim:0h0m19s) 
Heartbeat CPU  0 instr:   11000000 cyc:   10814269 curr IPC: 0.91504 AVG IPC: 0.92214 (Sim:0h0m21s) 
Heartbeat CPU  0 instr:   12000000 cyc:   11929379 curr IPC: 0.89677 AVG IPC: 0.91954 (Sim:0h0m22s) 
Heartbeat CPU  0 instr:   13000002 cyc:   13035592 curr IPC: 0.90399 AVG IPC: 0.91810 (Sim:0h0m24s) 
Heartbeat CPU  0 instr:   14000002 cyc:   14111920 curr IPC: 0.92908 AVG IPC: 0.91901 (Sim:0h0m26s) 
Heartbeat CPU  0 instr:   15000001 cyc:   15201221 curr IPC: 0.91802 AVG IPC: 0.91893 (Sim:0h0m28s) 
Heartbeat CPU  0 instr:   16000000 cyc:   16293333 curr IPC: 0.91566 AVG IPC: 0.91870 (Sim:0h0m30s) 
Heartbeat CPU  0 instr:   17000001 cyc:   17394957 curr IPC: 0.90775 AVG IPC: 0.91796 (Sim:0h0m33s) 
Heartbeat CPU  0 instr:   18000003 cyc:   18499652 curr IPC: 0.90523 AVG IPC: 0.91715 (Sim:0h0m35s) 
Heartbeat CPU  0 instr:   19000003 cyc:   19600480 curr IPC: 0.90841 AVG IPC: 0.91663 (Sim:0h0m37s) 
Heartbeat CPU  0 instr:   20000000 cyc:   20706590 curr IPC: 0.90407 AVG IPC: 0.91593 (Sim:0h0m39s) 
Heartbeat CPU  0 instr:   21000001 cyc:   21781987 curr IPC: 0.92989 AVG IPC: 0.91665 (Sim:0h0m41s) 
Heartbeat CPU  0 instr:   22000000 cyc:   22882925 curr IPC: 0.90832 AVG IPC: 0.91623 (Sim:0h0m43s) 
Heartbeat CPU  0 instr:   23000002 cyc:   23938677 curr IPC: 0.94719 AVG IPC: 0.91766 (Sim:0h0m45s) 
Heartbeat CPU  0 instr:   24000000 cyc:   24989131 curr IPC: 0.95197 AVG IPC: 0.91916 (Sim:0h0m47s) 
Heartbeat CPU  0 instr:   25000000 cyc:   26039715 curr IPC: 0.95185 AVG IPC: 0.92054 (Sim:0h0m49s) 
Heartbeat CPU  0 instr:   26000003 cyc:   27212284 curr IPC: 0.85283 AVG IPC: 0.91750 (Sim:0h0m51s) 
Heartbeat CPU  0 instr:   27000003 cyc:   28313700 curr IPC: 0.90792 AVG IPC: 0.91712 (Sim:0h0m53s) 
Heartbeat CPU  0 instr:   28000000 cyc:   29412024 curr IPC: 0.91048 AVG IPC: 0.91686 (Sim:0h0m55s) 
Heartbeat CPU  0 instr:   29000000 cyc:   30511354 curr IPC: 0.90964 AVG IPC: 0.91659 (Sim:0h0m57s) 
Heartbeat CPU  0 instr:   30000001 cyc:   31623894 curr IPC: 0.89884 AVG IPC: 0.91594 (Sim:0h1m0s) 
Heartbeat CPU  0 instr:   31000001 cyc:   32712696 curr IPC: 0.91844 AVG IPC: 0.91603 (Sim:0h1m2s) 
Heartbeat CPU  0 instr:   32000000 cyc:   33805318 curr IPC: 0.91523 AVG IPC: 0.91600 (Sim:0h1m4s) 
Heartbeat CPU  0 instr:   33000001 cyc:   34907816 curr IPC: 0.90703 AVG IPC: 0.91571 (Sim:0h1m6s) 
Heartbeat CPU  0 instr:   34000000 cyc:   36000507 curr IPC: 0.91517 AVG IPC: 0.91569 (Sim:0h1m8s) 
Heartbeat CPU  0 instr:   35000003 cyc:   37104683 curr IPC: 0.90566 AVG IPC: 0.91539 (Sim:0h1m10s) 
Heartbeat CPU  0 instr:   36000000 cyc:   38196977 curr IPC: 0.91550 AVG IPC: 0.91539 (Sim:0h1m12s) 
Heartbeat CPU  0 instr:   37000000 cyc:   39280945 curr IPC: 0.92254 AVG IPC: 0.91559 (Sim:0h1m15s) 
Heartbeat CPU  0 instr:   38000003 cyc:   40393813 curr IPC: 0.89858 AVG IPC: 0.91511 (Sim:0h1m17s) 
Heartbeat CPU  0 instr:   39000003 cyc:   41488779 curr IPC: 0.91327 AVG IPC: 0.91506 (Sim:0h1m19s) 
Heartbeat CPU  0 instr:   40000000 cyc:   42581831 curr IPC: 0.91487 AVG IPC: 0.91506 (Sim:0h1m21s) 
Heartbeat CPU  0 instr:   41000002 cyc:   43707562 curr IPC: 0.88831 AVG IPC: 0.91435 (Sim:0h1m23s) 
Heartbeat CPU  0 instr:   42000001 cyc:   44804802 curr IPC: 0.91138 AVG IPC: 0.91428 (Sim:0h1m25s) 
Heartbeat CPU  0 instr:   43000001 cyc:   45909396 curr IPC: 0.90531 AVG IPC: 0.91406 (Sim:0h1m27s) 
Heartbeat CPU  0 instr:   44000000 cyc:   47007808 curr IPC: 0.91040 AVG IPC: 0.91397 (Sim:0h1m29s) 
Heartbeat CPU  0 instr:   45000002 cyc:   48091228 curr IPC: 0.92300 AVG IPC: 0.91418 (Sim:0h1m31s) 
Heartbeat CPU  0 instr:   46000001 cyc:   49182257 curr IPC: 0.91657 AVG IPC: 0.91423 (Sim:0h1m33s) 
Heartbeat CPU  0 instr:   47000000 cyc:   50266054 curr IPC: 0.92268 AVG IPC: 0.91442 (Sim:0h1m35s) 
Heartbeat CPU  0 instr:   48000000 cyc:   51332681 curr IPC: 0.93753 AVG IPC: 0.91491 (Sim:0h1m38s) 
Heartbeat CPU  0 instr:   49000000 cyc:   52440242 curr IPC: 0.90288 AVG IPC: 0.91465 (Sim:0h1m40s) 
Heartbeat CPU  0 instr:   50000001 cyc:   53460693 curr IPC: 0.97996 AVG IPC: 0.91592 (Sim:0h1m42s) 
Heartbeat CPU  0 instr:   51000000 cyc:   54410756 curr IPC: 1.05256 AVG IPC: 0.91835 (Sim:0h1m44s) 
Heartbeat CPU  0 instr:   52000000 cyc:   55351913 curr IPC: 1.06252 AVG IPC: 0.92085 (Sim:0h1m46s) 
Heartbeat CPU  0 instr:   53000002 cyc:   56289065 curr IPC: 1.06706 AVG IPC: 0.92333 (Sim:0h1m48s) 
Heartbeat CPU  0 instr:   54000003 cyc:   57237008 curr IPC: 1.05492 AVG IPC: 0.92555 (Sim:0h1m50s) 
Heartbeat CPU  0 instr:   55000001 cyc:   58184741 curr IPC: 1.05515 AVG IPC: 0.92770 (Sim:0h1m52s) 
Heartbeat CPU  0 instr:   56000000 cyc:   59130955 curr IPC: 1.05684 AVG IPC: 0.92981 (Sim:0h1m54s) 
Heartbeat CPU  0 instr:   57000003 cyc:   60080690 curr IPC: 1.05293 AVG IPC: 0.93179 (Sim:0h1m56s) 
Heartbeat CPU  0 instr:   58000002 cyc:   61027288 curr IPC: 1.05641 AVG IPC: 0.93375 (Sim:0h1m58s) 
Heartbeat CPU  0 instr:   59000001 cyc:   61965541 curr IPC: 1.06581 AVG IPC: 0.93579 (Sim:0h2m1s) 
Heartbeat CPU  0 instr:   60000000 cyc:   62893530 curr IPC: 1.07760 AVG IPC: 0.93792 (Sim:0h2m3s) 
Heartbeat CPU  0 instr:   61000001 cyc:   63822015 curr IPC: 1.07702 AVG IPC: 0.93997 (Sim:0h2m5s) 
Heartbeat CPU  0 instr:   62000000 cyc:   64743594 curr IPC: 1.08509 AVG IPC: 0.94207 (Sim:0h2m7s) 
Heartbeat CPU  0 instr:   63000000 cyc:   65663597 curr IPC: 1.08695 AVG IPC: 0.94414 (Sim:0h2m10s) 
Heartbeat CPU  0 instr:   64000000 cyc:   66563455 curr IPC: 1.11129 AVG IPC: 0.94643 (Sim:0h2m12s) 
Heartbeat CPU  0 instr:   65000003 cyc:   67476509 curr IPC: 1.09523 AVG IPC: 0.94848 (Sim:0h2m14s) 
Heartbeat CPU  0 instr:   66000000 cyc:   68627635 curr IPC: 0.86871 AVG IPC: 0.94712 (Sim:0h2m16s) 
Heartbeat CPU  0 instr:   67000001 cyc:   69734882 curr IPC: 0.90314 AVG IPC: 0.94641 (Sim:0h2m18s) 
Heartbeat CPU  0 instr:   68000000 cyc:   70809636 curr IPC: 0.93044 AVG IPC: 0.94616 (Sim:0h2m20s) 
Heartbeat CPU  0 instr:   69000002 cyc:   71894650 curr IPC: 0.92165 AVG IPC: 0.94579 (Sim:0h2m23s) 
Heartbeat CPU  0 instr:   70000003 cyc:   72974980 curr IPC: 0.92564 AVG IPC: 0.94549 (Sim:0h2m24s) 
Heartbeat CPU  0 instr:   71000003 cyc:   74026096 curr IPC: 0.95137 AVG IPC: 0.94557 (Sim:0h2m26s) 
Heartbeat CPU  0 instr:   72000000 cyc:   75103946 curr IPC: 0.92777 AVG IPC: 0.94531 (Sim:0h2m28s) 
Heartbeat CPU  0 instr:   73000001 cyc:   76196657 curr IPC: 0.91516 AVG IPC: 0.94487 (Sim:0h2m31s) 
Heartbeat CPU  0 instr:   74000002 cyc:   77296894 curr IPC: 0.90890 AVG IPC: 0.94435 (Sim:0h2m33s) 
Heartbeat CPU  0 instr:   75000001 cyc:   78397714 curr IPC: 0.90841 AVG IPC: 0.94384 (Sim:0h2m35s) 
Heartbeat CPU  0 instr:   76000000 cyc:   79487250 curr IPC: 0.91782 AVG IPC: 0.94348 (Sim:0h2m38s) 
Heartbeat CPU  0 instr:   77000003 cyc:   80564977 curr IPC: 0.92788 AVG IPC: 0.94327 (Sim:0h2m40s) 
Heartbeat CPU  0 instr:   78000002 cyc:   81637791 curr IPC: 0.93213 AVG IPC: 0.94312 (Sim:0h2m42s) 
Heartbeat CPU  0 instr:   79000001 cyc:   82723739 curr IPC: 0.92085 AVG IPC: 0.94283 (Sim:0h2m45s) 
Heartbeat CPU  0 instr:   80000000 cyc:   83796550 curr IPC: 0.93213 AVG IPC: 0.94269 (Sim:0h2m47s) 
Heartbeat CPU  0 instr:   81000000 cyc:   84883750 curr IPC: 0.91979 AVG IPC: 0.94239 (Sim:0h2m49s) 
Heartbeat CPU  0 instr:   82000000 cyc:   85993862 curr IPC: 0.90081 AVG IPC: 0.94185 (Sim:0h2m52s) 
Heartbeat CPU  0 instr:   83000003 cyc:   87108873 curr IPC: 0.89685 AVG IPC: 0.94126 (Sim:0h2m54s) 
Heartbeat CPU  0 instr:   84000000 cyc:   88219934 curr IPC: 0.90004 AVG IPC: 0.94074 (Sim:0h2m56s) 
Heartbeat CPU  0 instr:   85000003 cyc:   89311750 curr IPC: 0.91591 AVG IPC: 0.94043 (Sim:0h2m58s) 
Heartbeat CPU  0 instr:   86000001 cyc:   90395979 curr IPC: 0.92231 AVG IPC: 0.94021 (Sim:0h3m0s) 
Heartbeat CPU  0 instr:   87000001 cyc:   91477284 curr IPC: 0.92481 AVG IPC: 0.94003 (Sim:0h3m2s) 
Heartbeat CPU  0 instr:   88000000 cyc:   92534244 curr IPC: 0.94611 AVG IPC: 0.94010 (Sim:0h3m4s) 
Heartbeat CPU  0 instr:   89000002 cyc:   93598704 curr IPC: 0.93945 AVG IPC: 0.94009 (Sim:0h3m7s) 
Heartbeat CPU  0 instr:   90000002 cyc:   94658642 curr IPC: 0.94345 AVG IPC: 0.94013 (Sim:0h3m9s) 
Heartbeat CPU  0 instr:   91000001 cyc:   95781155 curr IPC: 0.89086 AVG IPC: 0.93954 (Sim:0h3m11s) 
Heartbeat CPU  0 instr:   92000000 cyc:   96890173 curr IPC: 0.90170 AVG IPC: 0.93911 (Sim:0h3m14s) 
Heartbeat CPU  0 instr:   93000000 cyc:   97996854 curr IPC: 0.90360 AVG IPC: 0.93870 (Sim:0h3m16s) 
Heartbeat CPU  0 instr:   94000000 cyc:   99074732 curr IPC: 0.92775 AVG IPC: 0.93858 (Sim:0h3m19s) 
Heartbeat CPU  0 instr:   95000000 cyc:  100154801 curr IPC: 0.92587 AVG IPC: 0.93844 (Sim:0h3m21s) 
Heartbeat CPU  0 instr:   96000000 cyc:  101249359 curr IPC: 0.91361 AVG IPC: 0.93817 (Sim:0h3m23s) 
Heartbeat CPU  0 instr:   97000000 cyc:  102334978 curr IPC: 0.92113 AVG IPC: 0.93799 (Sim:0h3m26s) 
Heartbeat CPU  0 instr:   98000000 cyc:  103436625 curr IPC: 0.90773 AVG IPC: 0.93766 (Sim:0h3m28s) 
Heartbeat CPU  0 instr:   99000000 cyc:  104532782 curr IPC: 0.91228 AVG IPC: 0.93739 (Sim:0h3m30s) 
Heartbeat CPU  0 instr:  100000000 cyc:  105648205 curr IPC: 0.89652 AVG IPC: 0.93696 (Sim:0h3m32s) 
Heartbeat CPU  0 instr:  101000001 cyc:  106743767 curr IPC: 0.91277 AVG IPC: 0.93671 (Sim:0h3m34s) 
Heartbeat CPU  0 instr:  102000000 cyc:  107841775 curr IPC: 0.91074 AVG IPC: 0.93644 (Sim:0h3m37s) 
Heartbeat CPU  0 instr:  103000003 cyc:  108942683 curr IPC: 0.90834 AVG IPC: 0.93615 (Sim:0h3m40s) 
Heartbeat CPU  0 instr:  104000000 cyc:  110019190 curr IPC: 0.92893 AVG IPC: 0.93608 (Sim:0h3m43s) 
Heartbeat CPU  0 instr:  105000001 cyc:  111121186 curr IPC: 0.90745 AVG IPC: 0.93580 (Sim:0h3m45s) 
Heartbeat CPU  0 instr:  106000000 cyc:  112217591 curr IPC: 0.91207 AVG IPC: 0.93556 (Sim:0h3m48s) 
Heartbeat CPU  0 instr:  107000000 cyc:  113323444 curr IPC: 0.90428 AVG IPC: 0.93525 (Sim:0h3m50s) 
Heartbeat CPU  0 instr:  108000000 cyc:  114424118 curr IPC: 0.90853 AVG IPC: 0.93499 (Sim:0h3m53s) 
Heartbeat CPU  0 instr:  109000000 cyc:  115541412 curr IPC: 0.89502 AVG IPC: 0.93460 (Sim:0h3m55s) 
Heartbeat CPU  0 instr:  110000002 cyc:  116641092 curr IPC: 0.90936 AVG IPC: 0.93436 (Sim:0h3m58s) 
Heartbeat CPU  0 instr:  111000002 cyc:  117731191 curr IPC: 0.91735 AVG IPC: 0.93420 (Sim:0h4m1s) 
Heartbeat CPU  0 instr:  112000000 cyc:  118780493 curr IPC: 0.95301 AVG IPC: 0.93437 (Sim:0h4m3s) 
Heartbeat CPU  0 instr:  113000000 cyc:  119838322 curr IPC: 0.94533 AVG IPC: 0.93447 (Sim:0h4m5s) 
Heartbeat CPU  0 instr:  114000000 cyc:  120899625 curr IPC: 0.94224 AVG IPC: 0.93454 (Sim:0h4m7s) 
Heartbeat CPU  0 instr:  115000002 cyc:  121838915 curr IPC: 1.06464 AVG IPC: 0.93555 (Sim:0h4m10s) 
Heartbeat CPU  0 instr:  116000000 cyc:  122774484 curr IPC: 1.06887 AVG IPC: 0.93657 (Sim:0h4m13s) 
Heartbeat CPU  0 instr:  117000000 cyc:  123700971 curr IPC: 1.07935 AVG IPC: 0.93765 (Sim:0h4m15s) 
Heartbeat CPU  0 instr:  118000003 cyc:  124635310 curr IPC: 1.07028 AVG IPC: 0.93866 (Sim:0h4m18s) 
Heartbeat CPU  0 instr:  119000002 cyc:  125571249 curr IPC: 1.06844 AVG IPC: 0.93963 (Sim:0h4m21s) 
Heartbeat CPU  0 instr:  120000000 cyc:  126497434 curr IPC: 1.07970 AVG IPC: 0.94067 (Sim:0h4m23s) 
Heartbeat CPU  0 instr:  121000003 cyc:  127423754 curr IPC: 1.07954 AVG IPC: 0.94168 (Sim:0h4m26s) 
Heartbeat CPU  0 instr:  122000000 cyc:  128342957 curr IPC: 1.08790 AVG IPC: 0.94274 (Sim:0h4m29s) 
Heartbeat CPU  0 instr:  123000000 cyc:  129250283 curr IPC: 1.10214 AVG IPC: 0.94387 (Sim:0h4m31s) 
Heartbeat CPU  0 instr:  124000000 cyc:  130168369 curr IPC: 1.08922 AVG IPC: 0.94490 (Sim:0h4m34s) 
Heartbeat CPU  0 instr:  125000003 cyc:  131069944 curr IPC: 1.10917 AVG IPC: 0.94604 (Sim:0h4m37s) 
Heartbeat CPU  0 instr:  126000003 cyc:  131980037 curr IPC: 1.09879 AVG IPC: 0.94710 (Sim:0h4m39s) 
Heartbeat CPU  0 instr:  127000002 cyc:  132889809 curr IPC: 1.09918 AVG IPC: 0.94815 (Sim:0h4m41s) 
Heartbeat CPU  0 instr:  128000000 cyc:  133791220 curr IPC: 1.10937 AVG IPC: 0.94925 (Sim:0h4m43s) 
Heartbeat CPU  0 instr:  129000000 cyc:  134678898 curr IPC: 1.12653 AVG IPC: 0.95042 (Sim:0h4m46s) 
Heartbeat CPU  0 instr:  130000000 cyc:  135231706 curr IPC: 1.80895 AVG IPC: 0.95396 (Sim:0h4m48s) 
Heartbeat CPU  0 instr:  131000000 cyc:  135627309 curr IPC: 2.52779 AVG IPC: 0.95859 (Sim:0h4m48s) 
Heartbeat CPU  0 instr:  132000000 cyc:  136816701 curr IPC: 0.84077 AVG IPC: 0.95756 (Sim:0h4m50s) 
Heartbeat CPU  0 instr:  133000001 cyc:  143210054 curr IPC: 0.15641 AVG IPC: 0.92152 (Sim:0h4m58s) 
Heartbeat CPU  0 instr:  134000000 cyc:  150044758 curr IPC: 0.14631 AVG IPC: 0.88596 (Sim:0h5m7s) 
Heartbeat CPU  0 instr:  135000002 cyc:  156889798 curr IPC: 0.14609 AVG IPC: 0.85346 (Sim:0h5m16s) 
Heartbeat CPU  0 instr:  136000000 cyc:  163697754 curr IPC: 0.14689 AVG IPC: 0.82389 (Sim:0h5m23s) 
Heartbeat CPU  0 instr:  137000000 cyc:  167644909 curr IPC: 0.25335 AVG IPC: 0.81037 (Sim:0h5m30s) 
Heartbeat CPU  0 instr:  138000002 cyc:  169629728 curr IPC: 0.50383 AVG IPC: 0.80676 (Sim:0h5m34s) 
Heartbeat CPU  0 instr:  139000000 cyc:  171968467 curr IPC: 0.42758 AVG IPC: 0.80157 (Sim:0h5m38s) 
Heartbeat CPU  0 instr:  140000000 cyc:  174340247 curr IPC: 0.42162 AVG IPC: 0.79637 (Sim:0h5m41s) 
Heartbeat CPU  0 instr:  141000002 cyc:  176579172 curr IPC: 0.44664 AVG IPC: 0.79191 (Sim:0h5m45s) 
Heartbeat CPU  0 instr:  142000001 cyc:  178791374 curr IPC: 0.45204 AVG IPC: 0.78768 (Sim:0h5m49s) 
Heartbeat CPU  0 instr:  143000000 cyc:  181006025 curr IPC: 0.45154 AVG IPC: 0.78354 (Sim:0h5m52s) 
Heartbeat CPU  0 instr:  144000000 cyc:  183314136 curr IPC: 0.43325 AVG IPC: 0.77911 (Sim:0h5m55s) 
Heartbeat CPU  0 instr:  145000000 cyc:  185561149 curr IPC: 0.44504 AVG IPC: 0.77504 (Sim:0h5m59s) 
Heartbeat CPU  0 instr:  146000003 cyc:  187824761 curr IPC: 0.44177 AVG IPC: 0.77100 (Sim:0h6m3s) 
Heartbeat CPU  0 instr:  147000002 cyc:  190039022 curr IPC: 0.45162 AVG IPC: 0.76726 (Sim:0h6m6s) 
Heartbeat CPU  0 instr:  148000000 cyc:  192261377 curr IPC: 0.44997 AVG IPC: 0.76357 (Sim:0h6m10s) 
Heartbeat CPU  0 instr:  149000003 cyc:  194462462 curr IPC: 0.45432 AVG IPC: 0.76005 (Sim:0h6m14s) 
Heartbeat CPU  0 instr:  150000001 cyc:  196658969 curr IPC: 0.45527 AVG IPC: 0.75663 (Sim:0h6m17s) 
Heartbeat CPU  0 instr:  151000000 cyc:  199030419 curr IPC: 0.42168 AVG IPC: 0.75262 (Sim:0h6m21s) 
Heartbeat CPU  0 instr:  152000000 cyc:  201415799 curr IPC: 0.41922 AVG IPC: 0.74865 (Sim:0h6m25s) 
Heartbeat CPU  0 instr:  153000002 cyc:  203735396 curr IPC: 0.43111 AVG IPC: 0.74501 (Sim:0h6m28s) 
Heartbeat CPU  0 instr:  154000003 cyc:  206002584 curr IPC: 0.44108 AVG IPC: 0.74165 (Sim:0h6m31s) 
Heartbeat CPU  0 instr:  155000000 cyc:  208224289 curr IPC: 0.45010 AVG IPC: 0.73852 (Sim:0h6m34s) 
Heartbeat CPU  0 instr:  156000000 cyc:  210457402 curr IPC: 0.44781 AVG IPC: 0.73542 (Sim:0h6m38s) 
Heartbeat CPU  0 instr:  157000000 cyc:  212683997 curr IPC: 0.44912 AVG IPC: 0.73241 (Sim:0h6m42s) 
Heartbeat CPU  0 instr:  158000001 cyc:  214881473 curr IPC: 0.45507 AVG IPC: 0.72956 (Sim:0h6m46s) 
Heartbeat CPU  0 instr:  159000002 cyc:  217117034 curr IPC: 0.44732 AVG IPC: 0.72664 (Sim:0h6m49s) 
Heartbeat CPU  0 instr:  160000000 cyc:  219411096 curr IPC: 0.43591 AVG IPC: 0.72359 (Sim:0h6m53s) 
Heartbeat CPU  0 instr:  161000001 cyc:  221644183 curr IPC: 0.44781 AVG IPC: 0.72079 (Sim:0h6m57s) 
Heartbeat CPU  0 instr:  162000000 cyc:  223869154 curr IPC: 0.44944 AVG IPC: 0.71809 (Sim:0h7m1s) 
Heartbeat CPU  0 instr:  163000001 cyc:  226136170 curr IPC: 0.44111 AVG IPC: 0.71530 (Sim:0h7m4s) 
Heartbeat CPU  0 instr:  164000000 cyc:  228365239 curr IPC: 0.44862 AVG IPC: 0.71268 (Sim:0h7m7s) 
Heartbeat CPU  0 instr:  165000000 cyc:  230602596 curr IPC: 0.44696 AVG IPC: 0.71009 (Sim:0h7m11s) 
Heartbeat CPU  0 instr:  166000002 cyc:  232920536 curr IPC: 0.43142 AVG IPC: 0.70730 (Sim:0h7m14s) 
Heartbeat CPU  0 instr:  167000000 cyc:  235203952 curr IPC: 0.43794 AVG IPC: 0.70468 (Sim:0h7m18s) 
Heartbeat CPU  0 instr:  168000000 cyc:  237422691 curr IPC: 0.45071 AVG IPC: 0.70229 (Sim:0h7m22s) 
Heartbeat CPU  0 instr:  169000000 cyc:  239704794 curr IPC: 0.43819 AVG IPC: 0.69977 (Sim:0h7m25s) 
Heartbeat CPU  0 instr:  170000000 cyc:  241964151 curr IPC: 0.44260 AVG IPC: 0.69736 (Sim:0h7m29s) 
Heartbeat CPU  0 instr:  171000000 cyc:  244245800 curr IPC: 0.43828 AVG IPC: 0.69493 (Sim:0h7m33s) 
Heartbeat CPU  0 instr:  172000000 cyc:  246520740 curr IPC: 0.43957 AVG IPC: 0.69256 (Sim:0h7m36s) 
Heartbeat CPU  0 instr:  173000001 cyc:  248764367 curr IPC: 0.44571 AVG IPC: 0.69032 (Sim:0h7m39s) 
Heartbeat CPU  0 instr:  174000000 cyc:  251019968 curr IPC: 0.44334 AVG IPC: 0.68809 (Sim:0h7m42s) 
Heartbeat CPU  0 instr:  175000003 cyc:  253282261 curr IPC: 0.44203 AVG IPC: 0.68589 (Sim:0h7m46s) 
Heartbeat CPU  0 instr:  176000000 cyc:  255482469 curr IPC: 0.45450 AVG IPC: 0.68389 (Sim:0h7m50s) 
Heartbeat CPU  0 instr:  177000000 cyc:  257698418 curr IPC: 0.45127 AVG IPC: 0.68188 (Sim:0h7m53s) 
Heartbeat CPU  0 instr:  178000000 cyc:  260004001 curr IPC: 0.43373 AVG IPC: 0.67967 (Sim:0h7m57s) 
Heartbeat CPU  0 instr:  179000003 cyc:  262293215 curr IPC: 0.43683 AVG IPC: 0.67754 (Sim:0h8m1s) 
Heartbeat CPU  0 instr:  180000000 cyc:  264589301 curr IPC: 0.43552 AVG IPC: 0.67543 (Sim:0h8m5s) 
Heartbeat CPU  0 instr:  181000002 cyc:  266918518 curr IPC: 0.42933 AVG IPC: 0.67328 (Sim:0h8m8s) 
Heartbeat CPU  0 instr:  182000001 cyc:  269155870 curr IPC: 0.44696 AVG IPC: 0.67139 (Sim:0h8m12s) 
Heartbeat CPU  0 instr:  183000000 cyc:  271409604 curr IPC: 0.44371 AVG IPC: 0.66949 (Sim:0h8m15s) 
Heartbeat CPU  0 instr:  184000000 cyc:  273619343 curr IPC: 0.45254 AVG IPC: 0.66773 (Sim:0h8m18s) 
Heartbeat CPU  0 instr:  185000002 cyc:  275851804 curr IPC: 0.44794 AVG IPC: 0.66595 (Sim:0h8m22s) 
Heartbeat CPU  0 instr:  186000000 cyc:  278049997 curr IPC: 0.45492 AVG IPC: 0.66427 (Sim:0h8m25s) 
Heartbeat CPU  0 instr:  187000000 cyc:  280283854 curr IPC: 0.44766 AVG IPC: 0.66254 (Sim:0h8m29s) 
Heartbeat CPU  0 instr:  188000000 cyc:  282505242 curr IPC: 0.45017 AVG IPC: 0.66086 (Sim:0h8m32s) 
Heartbeat CPU  0 instr:  189000000 cyc:  284790260 curr IPC: 0.43763 AVG IPC: 0.65906 (Sim:0h8m36s) 
Heartbeat CPU  0 instr:  190000001 cyc:  286983089 curr IPC: 0.45603 AVG IPC: 0.65751 (Sim:0h8m39s) 
Heartbeat CPU  0 instr:  191000002 cyc:  289228830 curr IPC: 0.44529 AVG IPC: 0.65585 (Sim:0h8m43s) 
Heartbeat CPU  0 instr:  192000000 cyc:  291433427 curr IPC: 0.45360 AVG IPC: 0.65432 (Sim:0h8m46s) 
Heartbeat CPU  0 instr:  193000000 cyc:  293635069 curr IPC: 0.45421 AVG IPC: 0.65281 (Sim:0h8m48s) 
Caught signal: 2
*************************************************
   ChampSim Multicore Out-of-Order Simulator
   Last compiled: Sep  2 2024 09:38:33
*************************************************

trace_0 ./LLM_Traces/2B_Traces_SelfAttention_Phythia-70M-Seq1024-07-08-0125.champsim.xz
CPU 0 L1D next line prefetcher
Markov Talbe Size: 33 Markov Confidence: 3%
Stride Size: 32 Prefetch Degree: 20

CPU 0 L2C prefetcher
warmup_instructions 2000000
simulation_instructions 350000000
champsim_seed 200

num_cpus 1
cpu_freq 4000
dram_io_freq 2400
page_size 4096
block_size 64
max_read_per_cycle 8
max_fill_per_cycle 1
dram_channels 1
dram_ranks 1
dram_banks 8
dram_rows 65536
dram_columns 128
dram_row_size 8
dram_size 4096
dram_pages 1048576

fetch_width 6
decode_width 6
exec_width 4
lq_width 2
sq_width 2
retire_width 4
scheduler_size 128
branch_mispredict_penalty 20
rob_size 256
lq_size 72
sq_size 56
num_instr_destinations_sparc 4
num_instr_destinations 2
num_instr_sources 4

itlb_set 16
itlb_way 8
itlb_rq_size 16
itlb_wq_size 16
itlb_pq_size 0
itlb_mshr_size 8
itlb_latency 1

dtlb_set 16
dtlb_way 4
dtlb_rq_size 16
dtlb_wq_size 16
dtlb_pq_size 0
dtlb_mshr_size 8
dtlb_latency 1

stlb_set 128
stlb_way 12
stlb_rq_size 32
stlb_wq_size 32
stlb_pq_size 0
stlb_mshr_size 16
stlb_latency 8

l1i_size 32
l1i_set 64
l1i_way 8
l1i_rq_size 64
l1i_wq_size 64
l1i_pq_size 8
l1i_mshr_size 8
l1i_latency 1

l1d_size 32
l1d_set 64
l1d_way 8
l1d_rq_size 64
l1d_wq_size 64
l1d_pq_size 8
l1d_mshr_size 16
l1d_latency 4

l2c_size 512
l2c_set 1024
l2c_way 8
l2c_rq_size 32
l2c_wq_size 32
l2c_pq_size 16
l2c_mshr_size 32
l2c_latency 10

llc_size 2048
llc_set 2048
llc_way 16
llc_rq_size 32
llc_wq_size 32
llc_pq_size 32
llc_mshr_size 64
llc_latency 20

dram_channel_width 8
dram_wq_size 64
dram_rq_size 64
tRP 15
tRCD 15
tCAS 12.5
dram_dbus_turn_around_time 30
dram_write_high_wm 56
dram_write_low_wm 48
min_dram_writes_per_switch 16
dram_mtps 2400
dram_dbus_return_time 13


CPU 0 L2C prefetcher initialized


Cache Size: 512
number of cache lines: 8192
Heartbeat CPU  0 instr:    1000001 cyc:     474495 curr IPC: 2.10751 AVG IPC: 2.10751 (Sim:0h0m1s) 
Heartbeat CPU  0 instr:    2000000 cyc:    1054352 curr IPC: 1.72456 AVG IPC: 1.89690 (Sim:0h0m3s) 

Warmup complete CPU  0 instructions:    2000002 cycles:    1054353 (Simulation time: 0 hr 0 min 3 sec) 

Heartbeat CPU  0 instr:    3000001 cyc:    2104025 curr IPC: 0.95268 AVG IPC: 0.95268 (Sim:0h0m7s) 
Heartbeat CPU  0 instr:    4000000 cyc:    3190647 curr IPC: 0.92028 AVG IPC: 0.93620 (Sim:0h0m11s) 
Heartbeat CPU  0 instr:    5000002 cyc:    4265944 curr IPC: 0.92998 AVG IPC: 0.93412 (Sim:0h0m13s) 
Heartbeat CPU  0 instr:    6000001 cyc:    5343242 curr IPC: 0.92825 AVG IPC: 0.93264 (Sim:0h0m16s) 
Heartbeat CPU  0 instr:    7000002 cyc:    6426205 curr IPC: 0.92339 AVG IPC: 0.93078 (Sim:0h0m19s) 
Heartbeat CPU  0 instr:    8000000 cyc:    7518841 curr IPC: 0.91522 AVG IPC: 0.92815 (Sim:0h0m22s) 
Heartbeat CPU  0 instr:    9000003 cyc:    8622949 curr IPC: 0.90571 AVG IPC: 0.92487 (Sim:0h0m27s) 
Heartbeat CPU  0 instr:   10000003 cyc:    9721423 curr IPC: 0.91035 AVG IPC: 0.92303 (Sim:0h0m31s) 
Heartbeat CPU  0 instr:   11000000 cyc:   10814269 curr IPC: 0.91504 AVG IPC: 0.92214 (Sim:0h0m37s) 
Heartbeat CPU  0 instr:   12000000 cyc:   11929379 curr IPC: 0.89677 AVG IPC: 0.91954 (Sim:0h0m41s) 
Heartbeat CPU  0 instr:   13000002 cyc:   13035592 curr IPC: 0.90399 AVG IPC: 0.91810 (Sim:0h0m46s) 
Heartbeat CPU  0 instr:   14000002 cyc:   14111920 curr IPC: 0.92908 AVG IPC: 0.91901 (Sim:0h0m48s) 
Heartbeat CPU  0 instr:   15000001 cyc:   15201221 curr IPC: 0.91802 AVG IPC: 0.91893 (Sim:0h0m50s) 
Heartbeat CPU  0 instr:   16000000 cyc:   16293333 curr IPC: 0.91566 AVG IPC: 0.91870 (Sim:0h0m53s) 
Heartbeat CPU  0 instr:   17000001 cyc:   17394957 curr IPC: 0.90775 AVG IPC: 0.91796 (Sim:0h0m55s) 
Heartbeat CPU  0 instr:   18000003 cyc:   18499652 curr IPC: 0.90523 AVG IPC: 0.91715 (Sim:0h0m58s) 
Heartbeat CPU  0 instr:   19000003 cyc:   19600480 curr IPC: 0.90841 AVG IPC: 0.91663 (Sim:0h1m0s) 
Heartbeat CPU  0 instr:   20000000 cyc:   20706590 curr IPC: 0.90407 AVG IPC: 0.91593 (Sim:0h1m2s) 
Heartbeat CPU  0 instr:   21000001 cyc:   21781987 curr IPC: 0.92989 AVG IPC: 0.91665 (Sim:0h1m5s) 
Heartbeat CPU  0 instr:   22000000 cyc:   22882925 curr IPC: 0.90832 AVG IPC: 0.91623 (Sim:0h1m9s) 
Heartbeat CPU  0 instr:   23000002 cyc:   23938677 curr IPC: 0.94719 AVG IPC: 0.91766 (Sim:0h1m14s) 
Heartbeat CPU  0 instr:   24000000 cyc:   24989131 curr IPC: 0.95197 AVG IPC: 0.91916 (Sim:0h1m17s) 
Heartbeat CPU  0 instr:   25000000 cyc:   26039715 curr IPC: 0.95185 AVG IPC: 0.92054 (Sim:0h1m20s) 
Heartbeat CPU  0 instr:   26000003 cyc:   27212284 curr IPC: 0.85283 AVG IPC: 0.91750 (Sim:0h1m22s) 
Heartbeat CPU  0 instr:   27000003 cyc:   28313700 curr IPC: 0.90792 AVG IPC: 0.91712 (Sim:0h1m24s) 
Heartbeat CPU  0 instr:   28000000 cyc:   29412024 curr IPC: 0.91048 AVG IPC: 0.91686 (Sim:0h1m26s) 
Heartbeat CPU  0 instr:   29000000 cyc:   30511354 curr IPC: 0.90964 AVG IPC: 0.91659 (Sim:0h1m29s) 
Heartbeat CPU  0 instr:   30000001 cyc:   31623894 curr IPC: 0.89884 AVG IPC: 0.91594 (Sim:0h1m31s) 
Heartbeat CPU  0 instr:   31000001 cyc:   32712696 curr IPC: 0.91844 AVG IPC: 0.91603 (Sim:0h1m34s) 
Heartbeat CPU  0 instr:   32000000 cyc:   33805318 curr IPC: 0.91523 AVG IPC: 0.91600 (Sim:0h1m37s) 
Heartbeat CPU  0 instr:   33000001 cyc:   34907816 curr IPC: 0.90703 AVG IPC: 0.91571 (Sim:0h1m39s) 
Heartbeat CPU  0 instr:   34000000 cyc:   36000507 curr IPC: 0.91517 AVG IPC: 0.91569 (Sim:0h1m41s) 
Heartbeat CPU  0 instr:   35000003 cyc:   37104683 curr IPC: 0.90566 AVG IPC: 0.91539 (Sim:0h1m43s) 
Heartbeat CPU  0 instr:   36000000 cyc:   38196977 curr IPC: 0.91550 AVG IPC: 0.91539 (Sim:0h1m46s) 
Heartbeat CPU  0 instr:   37000000 cyc:   39280945 curr IPC: 0.92254 AVG IPC: 0.91559 (Sim:0h1m48s) 
Heartbeat CPU  0 instr:   38000003 cyc:   40393813 curr IPC: 0.89858 AVG IPC: 0.91511 (Sim:0h1m50s) 
Heartbeat CPU  0 instr:   39000003 cyc:   41488779 curr IPC: 0.91327 AVG IPC: 0.91506 (Sim:0h1m52s) 
Heartbeat CPU  0 instr:   40000000 cyc:   42581831 curr IPC: 0.91487 AVG IPC: 0.91506 (Sim:0h1m54s) 
Heartbeat CPU  0 instr:   41000002 cyc:   43707562 curr IPC: 0.88831 AVG IPC: 0.91435 (Sim:0h1m56s) 
Heartbeat CPU  0 instr:   42000001 cyc:   44804802 curr IPC: 0.91138 AVG IPC: 0.91428 (Sim:0h1m59s) 
Heartbeat CPU  0 instr:   43000001 cyc:   45909396 curr IPC: 0.90531 AVG IPC: 0.91406 (Sim:0h2m1s) 
Heartbeat CPU  0 instr:   44000000 cyc:   47007808 curr IPC: 0.91040 AVG IPC: 0.91397 (Sim:0h2m3s) 
Heartbeat CPU  0 instr:   45000002 cyc:   48091228 curr IPC: 0.92300 AVG IPC: 0.91418 (Sim:0h2m5s) 
Heartbeat CPU  0 instr:   46000001 cyc:   49182257 curr IPC: 0.91657 AVG IPC: 0.91423 (Sim:0h2m7s) 
Heartbeat CPU  0 instr:   47000000 cyc:   50266054 curr IPC: 0.92268 AVG IPC: 0.91442 (Sim:0h2m9s) 
Heartbeat CPU  0 instr:   48000000 cyc:   51332681 curr IPC: 0.93753 AVG IPC: 0.91491 (Sim:0h2m12s) 
Heartbeat CPU  0 instr:   49000000 cyc:   52440242 curr IPC: 0.90288 AVG IPC: 0.91465 (Sim:0h2m14s) 
Heartbeat CPU  0 instr:   50000001 cyc:   53460693 curr IPC: 0.97996 AVG IPC: 0.91592 (Sim:0h2m16s) 
Heartbeat CPU  0 instr:   51000000 cyc:   54410756 curr IPC: 1.05256 AVG IPC: 0.91835 (Sim:0h2m19s) 
Heartbeat CPU  0 instr:   52000000 cyc:   55351913 curr IPC: 1.06252 AVG IPC: 0.92085 (Sim:0h2m21s) 
Heartbeat CPU  0 instr:   53000002 cyc:   56289065 curr IPC: 1.06706 AVG IPC: 0.92333 (Sim:0h2m24s) 
Heartbeat CPU  0 instr:   54000003 cyc:   57237008 curr IPC: 1.05492 AVG IPC: 0.92555 (Sim:0h2m26s) 
Heartbeat CPU  0 instr:   55000001 cyc:   58184741 curr IPC: 1.05515 AVG IPC: 0.92770 (Sim:0h2m29s) 
Heartbeat CPU  0 instr:   56000000 cyc:   59130955 curr IPC: 1.05684 AVG IPC: 0.92981 (Sim:0h2m31s) 
Heartbeat CPU  0 instr:   57000003 cyc:   60080690 curr IPC: 1.05293 AVG IPC: 0.93179 (Sim:0h2m33s) 
Heartbeat CPU  0 instr:   58000002 cyc:   61027288 curr IPC: 1.05641 AVG IPC: 0.93375 (Sim:0h2m35s) 
Heartbeat CPU  0 instr:   59000001 cyc:   61965541 curr IPC: 1.06581 AVG IPC: 0.93579 (Sim:0h2m38s) 
Heartbeat CPU  0 instr:   60000000 cyc:   62893530 curr IPC: 1.07760 AVG IPC: 0.93792 (Sim:0h2m40s) 
Heartbeat CPU  0 instr:   61000001 cyc:   63822015 curr IPC: 1.07702 AVG IPC: 0.93997 (Sim:0h2m43s) 
Heartbeat CPU  0 instr:   62000000 cyc:   64743594 curr IPC: 1.08509 AVG IPC: 0.94207 (Sim:0h2m45s) 
Heartbeat CPU  0 instr:   63000000 cyc:   65663597 curr IPC: 1.08695 AVG IPC: 0.94414 (Sim:0h2m47s) 
Heartbeat CPU  0 instr:   64000000 cyc:   66563455 curr IPC: 1.11129 AVG IPC: 0.94643 (Sim:0h2m50s) 
Heartbeat CPU  0 instr:   65000003 cyc:   67476509 curr IPC: 1.09523 AVG IPC: 0.94848 (Sim:0h2m52s) 
Heartbeat CPU  0 instr:   66000000 cyc:   68627635 curr IPC: 0.86871 AVG IPC: 0.94712 (Sim:0h2m54s) 
Heartbeat CPU  0 instr:   67000001 cyc:   69734882 curr IPC: 0.90314 AVG IPC: 0.94641 (Sim:0h2m56s) 
Heartbeat CPU  0 instr:   68000000 cyc:   70809636 curr IPC: 0.93044 AVG IPC: 0.94616 (Sim:0h2m59s) 
Heartbeat CPU  0 instr:   69000002 cyc:   71894650 curr IPC: 0.92165 AVG IPC: 0.94579 (Sim:0h3m1s) 
Heartbeat CPU  0 instr:   70000003 cyc:   72974980 curr IPC: 0.92564 AVG IPC: 0.94549 (Sim:0h3m4s) 
Heartbeat CPU  0 instr:   71000003 cyc:   74026096 curr IPC: 0.95137 AVG IPC: 0.94557 (Sim:0h3m6s) 
Heartbeat CPU  0 instr:   72000000 cyc:   75103946 curr IPC: 0.92777 AVG IPC: 0.94531 (Sim:0h3m9s) 
Heartbeat CPU  0 instr:   73000001 cyc:   76196657 curr IPC: 0.91516 AVG IPC: 0.94487 (Sim:0h3m11s) 
Heartbeat CPU  0 instr:   74000002 cyc:   77296894 curr IPC: 0.90890 AVG IPC: 0.94435 (Sim:0h3m13s) 
Heartbeat CPU  0 instr:   75000001 cyc:   78397714 curr IPC: 0.90841 AVG IPC: 0.94384 (Sim:0h3m15s) 
Heartbeat CPU  0 instr:   76000000 cyc:   79487250 curr IPC: 0.91782 AVG IPC: 0.94348 (Sim:0h3m17s) 
Heartbeat CPU  0 instr:   77000003 cyc:   80564977 curr IPC: 0.92788 AVG IPC: 0.94327 (Sim:0h3m19s) 
Heartbeat CPU  0 instr:   78000002 cyc:   81637791 curr IPC: 0.93213 AVG IPC: 0.94312 (Sim:0h3m22s) 
Heartbeat CPU  0 instr:   79000001 cyc:   82723739 curr IPC: 0.92085 AVG IPC: 0.94283 (Sim:0h3m24s) 
Heartbeat CPU  0 instr:   80000000 cyc:   83796550 curr IPC: 0.93213 AVG IPC: 0.94269 (Sim:0h3m26s) 
Heartbeat CPU  0 instr:   81000000 cyc:   84883750 curr IPC: 0.91979 AVG IPC: 0.94239 (Sim:0h3m28s) 
Heartbeat CPU  0 instr:   82000000 cyc:   85993862 curr IPC: 0.90081 AVG IPC: 0.94185 (Sim:0h3m30s) 
Heartbeat CPU  0 instr:   83000003 cyc:   87108873 curr IPC: 0.89685 AVG IPC: 0.94126 (Sim:0h3m32s) 
Heartbeat CPU  0 instr:   84000000 cyc:   88219934 curr IPC: 0.90004 AVG IPC: 0.94074 (Sim:0h3m34s) 
Heartbeat CPU  0 instr:   85000003 cyc:   89311750 curr IPC: 0.91591 AVG IPC: 0.94043 (Sim:0h3m36s) 
Heartbeat CPU  0 instr:   86000001 cyc:   90395979 curr IPC: 0.92231 AVG IPC: 0.94021 (Sim:0h3m38s) 
Heartbeat CPU  0 instr:   87000001 cyc:   91477284 curr IPC: 0.92481 AVG IPC: 0.94003 (Sim:0h3m40s) 
Heartbeat CPU  0 instr:   88000000 cyc:   92534244 curr IPC: 0.94611 AVG IPC: 0.94010 (Sim:0h3m42s) 
Heartbeat CPU  0 instr:   89000002 cyc:   93598704 curr IPC: 0.93945 AVG IPC: 0.94009 (Sim:0h3m44s) 
Heartbeat CPU  0 instr:   90000002 cyc:   94658642 curr IPC: 0.94345 AVG IPC: 0.94013 (Sim:0h3m46s) 
Heartbeat CPU  0 instr:   91000001 cyc:   95781155 curr IPC: 0.89086 AVG IPC: 0.93954 (Sim:0h3m48s) 
Heartbeat CPU  0 instr:   92000000 cyc:   96890173 curr IPC: 0.90170 AVG IPC: 0.93911 (Sim:0h3m50s) 
Heartbeat CPU  0 instr:   93000000 cyc:   97996854 curr IPC: 0.90360 AVG IPC: 0.93870 (Sim:0h3m52s) 
Heartbeat CPU  0 instr:   94000000 cyc:   99074732 curr IPC: 0.92775 AVG IPC: 0.93858 (Sim:0h3m54s) 
Heartbeat CPU  0 instr:   95000000 cyc:  100154801 curr IPC: 0.92587 AVG IPC: 0.93844 (Sim:0h3m56s) 
Heartbeat CPU  0 instr:   96000000 cyc:  101249359 curr IPC: 0.91361 AVG IPC: 0.93817 (Sim:0h3m58s) 
Heartbeat CPU  0 instr:   97000000 cyc:  102334978 curr IPC: 0.92113 AVG IPC: 0.93799 (Sim:0h4m1s) 
Heartbeat CPU  0 instr:   98000000 cyc:  103436625 curr IPC: 0.90773 AVG IPC: 0.93766 (Sim:0h4m3s) 
Heartbeat CPU  0 instr:   99000000 cyc:  104532782 curr IPC: 0.91228 AVG IPC: 0.93739 (Sim:0h4m6s) 
Heartbeat CPU  0 instr:  100000000 cyc:  105648205 curr IPC: 0.89652 AVG IPC: 0.93696 (Sim:0h4m8s) 
Heartbeat CPU  0 instr:  101000001 cyc:  106743767 curr IPC: 0.91277 AVG IPC: 0.93671 (Sim:0h4m10s) 
Heartbeat CPU  0 instr:  102000000 cyc:  107841775 curr IPC: 0.91074 AVG IPC: 0.93644 (Sim:0h4m12s) 
Heartbeat CPU  0 instr:  103000003 cyc:  108942683 curr IPC: 0.90834 AVG IPC: 0.93615 (Sim:0h4m14s) 
Heartbeat CPU  0 instr:  104000000 cyc:  110019190 curr IPC: 0.92893 AVG IPC: 0.93608 (Sim:0h4m17s) 
Heartbeat CPU  0 instr:  105000001 cyc:  111121186 curr IPC: 0.90745 AVG IPC: 0.93580 (Sim:0h4m19s) 
Heartbeat CPU  0 instr:  106000000 cyc:  112217591 curr IPC: 0.91207 AVG IPC: 0.93556 (Sim:0h4m21s) 
Heartbeat CPU  0 instr:  107000000 cyc:  113323444 curr IPC: 0.90428 AVG IPC: 0.93525 (Sim:0h4m23s) 
Heartbeat CPU  0 instr:  108000000 cyc:  114424118 curr IPC: 0.90853 AVG IPC: 0.93499 (Sim:0h4m25s) 
Heartbeat CPU  0 instr:  109000000 cyc:  115541412 curr IPC: 0.89502 AVG IPC: 0.93460 (Sim:0h4m28s) 
Heartbeat CPU  0 instr:  110000002 cyc:  116641092 curr IPC: 0.90936 AVG IPC: 0.93436 (Sim:0h4m30s) 
Heartbeat CPU  0 instr:  111000002 cyc:  117731191 curr IPC: 0.91735 AVG IPC: 0.93420 (Sim:0h4m32s) 
Heartbeat CPU  0 instr:  112000000 cyc:  118780493 curr IPC: 0.95301 AVG IPC: 0.93437 (Sim:0h4m35s) 
Heartbeat CPU  0 instr:  113000000 cyc:  119838322 curr IPC: 0.94533 AVG IPC: 0.93447 (Sim:0h4m38s) 
Heartbeat CPU  0 instr:  114000000 cyc:  120899625 curr IPC: 0.94224 AVG IPC: 0.93454 (Sim:0h4m40s) 
Heartbeat CPU  0 instr:  115000002 cyc:  121838915 curr IPC: 1.06464 AVG IPC: 0.93555 (Sim:0h4m42s) 
Heartbeat CPU  0 instr:  116000000 cyc:  122774484 curr IPC: 1.06887 AVG IPC: 0.93657 (Sim:0h4m45s) 
Heartbeat CPU  0 instr:  117000000 cyc:  123700971 curr IPC: 1.07935 AVG IPC: 0.93765 (Sim:0h4m47s) 
Heartbeat CPU  0 instr:  118000003 cyc:  124635310 curr IPC: 1.07028 AVG IPC: 0.93866 (Sim:0h4m50s) 
Heartbeat CPU  0 instr:  119000002 cyc:  125571249 curr IPC: 1.06844 AVG IPC: 0.93963 (Sim:0h4m52s) 
Heartbeat CPU  0 instr:  120000000 cyc:  126497434 curr IPC: 1.07970 AVG IPC: 0.94067 (Sim:0h4m54s) 
Heartbeat CPU  0 instr:  121000003 cyc:  127423754 curr IPC: 1.07954 AVG IPC: 0.94168 (Sim:0h4m56s) 
Heartbeat CPU  0 instr:  122000000 cyc:  128342957 curr IPC: 1.08790 AVG IPC: 0.94274 (Sim:0h4m59s) 
Heartbeat CPU  0 instr:  123000000 cyc:  129250283 curr IPC: 1.10214 AVG IPC: 0.94387 (Sim:0h5m2s) 
Heartbeat CPU  0 instr:  124000000 cyc:  130168369 curr IPC: 1.08922 AVG IPC: 0.94490 (Sim:0h5m4s) 
Heartbeat CPU  0 instr:  125000003 cyc:  131069944 curr IPC: 1.10917 AVG IPC: 0.94604 (Sim:0h5m6s) 
Heartbeat CPU  0 instr:  126000003 cyc:  131980037 curr IPC: 1.09879 AVG IPC: 0.94710 (Sim:0h5m8s) 
Heartbeat CPU  0 instr:  127000002 cyc:  132889809 curr IPC: 1.09918 AVG IPC: 0.94815 (Sim:0h5m10s) 
Heartbeat CPU  0 instr:  128000000 cyc:  133791220 curr IPC: 1.10937 AVG IPC: 0.94925 (Sim:0h5m13s) 
Heartbeat CPU  0 instr:  129000000 cyc:  134678898 curr IPC: 1.12653 AVG IPC: 0.95042 (Sim:0h5m15s) 
Heartbeat CPU  0 instr:  130000000 cyc:  135231706 curr IPC: 1.80895 AVG IPC: 0.95396 (Sim:0h5m16s) 
Heartbeat CPU  0 instr:  131000000 cyc:  135627309 curr IPC: 2.52779 AVG IPC: 0.95859 (Sim:0h5m16s) 
Heartbeat CPU  0 instr:  132000000 cyc:  136816701 curr IPC: 0.84077 AVG IPC: 0.95756 (Sim:0h5m18s) 
Heartbeat CPU  0 instr:  133000001 cyc:  143210054 curr IPC: 0.15641 AVG IPC: 0.92152 (Sim:0h5m25s) 
Heartbeat CPU  0 instr:  134000000 cyc:  150044758 curr IPC: 0.14631 AVG IPC: 0.88596 (Sim:0h5m32s) 
Heartbeat CPU  0 instr:  135000002 cyc:  156889798 curr IPC: 0.14609 AVG IPC: 0.85346 (Sim:0h5m39s) 
Heartbeat CPU  0 instr:  136000000 cyc:  163697754 curr IPC: 0.14689 AVG IPC: 0.82389 (Sim:0h5m47s) 
Heartbeat CPU  0 instr:  137000000 cyc:  167644909 curr IPC: 0.25335 AVG IPC: 0.81037 (Sim:0h5m51s) 
Heartbeat CPU  0 instr:  138000002 cyc:  169629728 curr IPC: 0.50383 AVG IPC: 0.80676 (Sim:0h5m54s) 
Heartbeat CPU  0 instr:  139000000 cyc:  171968467 curr IPC: 0.42758 AVG IPC: 0.80157 (Sim:0h5m57s) 
Heartbeat CPU  0 instr:  140000000 cyc:  174340247 curr IPC: 0.42162 AVG IPC: 0.79637 (Sim:0h6m0s) 
Heartbeat CPU  0 instr:  141000002 cyc:  176579172 curr IPC: 0.44664 AVG IPC: 0.79191 (Sim:0h6m3s) 
Heartbeat CPU  0 instr:  142000001 cyc:  178791374 curr IPC: 0.45204 AVG IPC: 0.78768 (Sim:0h6m6s) 
Heartbeat CPU  0 instr:  143000000 cyc:  181006025 curr IPC: 0.45154 AVG IPC: 0.78354 (Sim:0h6m9s) 
Heartbeat CPU  0 instr:  144000000 cyc:  183314136 curr IPC: 0.43325 AVG IPC: 0.77911 (Sim:0h6m12s) 
Heartbeat CPU  0 instr:  145000000 cyc:  185561149 curr IPC: 0.44504 AVG IPC: 0.77504 (Sim:0h6m15s) 
Heartbeat CPU  0 instr:  146000003 cyc:  187824761 curr IPC: 0.44177 AVG IPC: 0.77100 (Sim:0h6m18s) 
Heartbeat CPU  0 instr:  147000002 cyc:  190039022 curr IPC: 0.45162 AVG IPC: 0.76726 (Sim:0h6m21s) 
Heartbeat CPU  0 instr:  148000000 cyc:  192261377 curr IPC: 0.44997 AVG IPC: 0.76357 (Sim:0h6m24s) 
Heartbeat CPU  0 instr:  149000003 cyc:  194462462 curr IPC: 0.45432 AVG IPC: 0.76005 (Sim:0h6m27s) 
Heartbeat CPU  0 instr:  150000001 cyc:  196658969 curr IPC: 0.45527 AVG IPC: 0.75663 (Sim:0h6m31s) 
Heartbeat CPU  0 instr:  151000000 cyc:  199030419 curr IPC: 0.42168 AVG IPC: 0.75262 (Sim:0h6m34s) 
Heartbeat CPU  0 instr:  152000000 cyc:  201415799 curr IPC: 0.41922 AVG IPC: 0.74865 (Sim:0h6m37s) 
Heartbeat CPU  0 instr:  153000002 cyc:  203735396 curr IPC: 0.43111 AVG IPC: 0.74501 (Sim:0h6m40s) 
Heartbeat CPU  0 instr:  154000003 cyc:  206002584 curr IPC: 0.44108 AVG IPC: 0.74165 (Sim:0h6m43s) 
Heartbeat CPU  0 instr:  155000000 cyc:  208224289 curr IPC: 0.45010 AVG IPC: 0.73852 (Sim:0h6m47s) 
Heartbeat CPU  0 instr:  156000000 cyc:  210457402 curr IPC: 0.44781 AVG IPC: 0.73542 (Sim:0h6m50s) 
Heartbeat CPU  0 instr:  157000000 cyc:  212683997 curr IPC: 0.44912 AVG IPC: 0.73241 (Sim:0h6m54s) 
Heartbeat CPU  0 instr:  158000001 cyc:  214881473 curr IPC: 0.45507 AVG IPC: 0.72956 (Sim:0h6m57s) 
Heartbeat CPU  0 instr:  159000002 cyc:  217117034 curr IPC: 0.44732 AVG IPC: 0.72664 (Sim:0h7m0s) 
Heartbeat CPU  0 instr:  160000000 cyc:  219411096 curr IPC: 0.43591 AVG IPC: 0.72359 (Sim:0h7m4s) 
Heartbeat CPU  0 instr:  161000001 cyc:  221644183 curr IPC: 0.44781 AVG IPC: 0.72079 (Sim:0h7m8s) 
Heartbeat CPU  0 instr:  162000000 cyc:  223869154 curr IPC: 0.44944 AVG IPC: 0.71809 (Sim:0h7m11s) 
Heartbeat CPU  0 instr:  163000001 cyc:  226136170 curr IPC: 0.44111 AVG IPC: 0.71530 (Sim:0h7m14s) 
Heartbeat CPU  0 instr:  164000000 cyc:  228365239 curr IPC: 0.44862 AVG IPC: 0.71268 (Sim:0h7m18s) 
Heartbeat CPU  0 instr:  165000000 cyc:  230602596 curr IPC: 0.44696 AVG IPC: 0.71009 (Sim:0h7m21s) 
Heartbeat CPU  0 instr:  166000002 cyc:  232920536 curr IPC: 0.43142 AVG IPC: 0.70730 (Sim:0h7m24s) 
Heartbeat CPU  0 instr:  167000000 cyc:  235203952 curr IPC: 0.43794 AVG IPC: 0.70468 (Sim:0h7m27s) 
Heartbeat CPU  0 instr:  168000000 cyc:  237422691 curr IPC: 0.45071 AVG IPC: 0.70229 (Sim:0h7m30s) 
Heartbeat CPU  0 instr:  169000000 cyc:  239704794 curr IPC: 0.43819 AVG IPC: 0.69977 (Sim:0h7m33s) 
Heartbeat CPU  0 instr:  170000000 cyc:  241964151 curr IPC: 0.44260 AVG IPC: 0.69736 (Sim:0h7m36s) 
Heartbeat CPU  0 instr:  171000000 cyc:  244245800 curr IPC: 0.43828 AVG IPC: 0.69493 (Sim:0h7m39s) 
Heartbeat CPU  0 instr:  172000000 cyc:  246520740 curr IPC: 0.43957 AVG IPC: 0.69256 (Sim:0h7m44s) 
Heartbeat CPU  0 instr:  173000001 cyc:  248764367 curr IPC: 0.44571 AVG IPC: 0.69032 (Sim:0h7m47s) 
Heartbeat CPU  0 instr:  174000000 cyc:  251019968 curr IPC: 0.44334 AVG IPC: 0.68809 (Sim:0h7m50s) 
Heartbeat CPU  0 instr:  175000003 cyc:  253282261 curr IPC: 0.44203 AVG IPC: 0.68589 (Sim:0h7m54s) 
Heartbeat CPU  0 instr:  176000000 cyc:  255482469 curr IPC: 0.45450 AVG IPC: 0.68389 (Sim:0h7m57s) 
Heartbeat CPU  0 instr:  177000000 cyc:  257698418 curr IPC: 0.45127 AVG IPC: 0.68188 (Sim:0h8m0s) 
Heartbeat CPU  0 instr:  178000000 cyc:  260004001 curr IPC: 0.43373 AVG IPC: 0.67967 (Sim:0h8m3s) 
Heartbeat CPU  0 instr:  179000003 cyc:  262293215 curr IPC: 0.43683 AVG IPC: 0.67754 (Sim:0h8m7s) 
Heartbeat CPU  0 instr:  180000000 cyc:  264589301 curr IPC: 0.43552 AVG IPC: 0.67543 (Sim:0h8m10s) 
Heartbeat CPU  0 instr:  181000002 cyc:  266918518 curr IPC: 0.42933 AVG IPC: 0.67328 (Sim:0h8m13s) 
Heartbeat CPU  0 instr:  182000001 cyc:  269155870 curr IPC: 0.44696 AVG IPC: 0.67139 (Sim:0h8m16s) 
Heartbeat CPU  0 instr:  183000000 cyc:  271409604 curr IPC: 0.44371 AVG IPC: 0.66949 (Sim:0h8m19s) 
Heartbeat CPU  0 instr:  184000000 cyc:  273619343 curr IPC: 0.45254 AVG IPC: 0.66773 (Sim:0h8m22s) 
Heartbeat CPU  0 instr:  185000002 cyc:  275851804 curr IPC: 0.44794 AVG IPC: 0.66595 (Sim:0h8m26s) 
Heartbeat CPU  0 instr:  186000000 cyc:  278049997 curr IPC: 0.45492 AVG IPC: 0.66427 (Sim:0h8m29s) 
Heartbeat CPU  0 instr:  187000000 cyc:  280283854 curr IPC: 0.44766 AVG IPC: 0.66254 (Sim:0h8m32s) 
Heartbeat CPU  0 instr:  188000000 cyc:  282505242 curr IPC: 0.45017 AVG IPC: 0.66086 (Sim:0h8m35s) 
Heartbeat CPU  0 instr:  189000000 cyc:  284790260 curr IPC: 0.43763 AVG IPC: 0.65906 (Sim:0h8m38s) 
Heartbeat CPU  0 instr:  190000001 cyc:  286983089 curr IPC: 0.45603 AVG IPC: 0.65751 (Sim:0h8m41s) 
Heartbeat CPU  0 instr:  191000002 cyc:  289228830 curr IPC: 0.44529 AVG IPC: 0.65585 (Sim:0h8m44s) 
Heartbeat CPU  0 instr:  192000000 cyc:  291433427 curr IPC: 0.45360 AVG IPC: 0.65432 (Sim:0h8m48s) 
Heartbeat CPU  0 instr:  193000000 cyc:  293635069 curr IPC: 0.45421 AVG IPC: 0.65281 (Sim:0h8m51s) 
Heartbeat CPU  0 instr:  194000002 cyc:  295846933 curr IPC: 0.45211 AVG IPC: 0.65131 (Sim:0h8m54s) 
Heartbeat CPU  0 instr:  195000003 cyc:  298204005 curr IPC: 0.42426 AVG IPC: 0.64950 (Sim:0h8m57s) 
Heartbeat CPU  0 instr:  196000000 cyc:  300512022 curr IPC: 0.43327 AVG IPC: 0.64784 (Sim:0h9m0s) 
Heartbeat CPU  0 instr:  197000000 cyc:  302743038 curr IPC: 0.44823 AVG IPC: 0.64636 (Sim:0h9m3s) 
Heartbeat CPU  0 instr:  198000000 cyc:  304970229 curr IPC: 0.44900 AVG IPC: 0.64492 (Sim:0h9m7s) 
Heartbeat CPU  0 instr:  199000002 cyc:  307179669 curr IPC: 0.45260 AVG IPC: 0.64353 (Sim:0h9m10s) 
Heartbeat CPU  0 instr:  200000000 cyc:  309386124 curr IPC: 0.45321 AVG IPC: 0.64217 (Sim:0h9m13s) 
Heartbeat CPU  0 instr:  201000003 cyc:  310966591 curr IPC: 0.63273 AVG IPC: 0.64212 (Sim:0h9m15s) 
Heartbeat CPU  0 instr:  202000000 cyc:  311600821 curr IPC: 1.57671 AVG IPC: 0.64403 (Sim:0h9m16s) 
Heartbeat CPU  0 instr:  203000003 cyc:  312207016 curr IPC: 1.64964 AVG IPC: 0.64599 (Sim:0h9m18s) 
Heartbeat CPU  0 instr:  204000000 cyc:  312840349 curr IPC: 1.57894 AVG IPC: 0.64788 (Sim:0h9m20s) 
Heartbeat CPU  0 instr:  205000001 cyc:  313428693 curr IPC: 1.69969 AVG IPC: 0.64986 (Sim:0h9m23s) 
Heartbeat CPU  0 instr:  206000002 cyc:  313980481 curr IPC: 1.81229 AVG IPC: 0.65191 (Sim:0h9m25s) 
Heartbeat CPU  0 instr:  207000001 cyc:  314551777 curr IPC: 1.75040 AVG IPC: 0.65391 (Sim:0h9m28s) 
Heartbeat CPU  0 instr:  208000000 cyc:  315144938 curr IPC: 1.68588 AVG IPC: 0.65586 (Sim:0h9m30s) 
Heartbeat CPU  0 instr:  209000002 cyc:  315724864 curr IPC: 1.72436 AVG IPC: 0.65783 (Sim:0h9m33s) 
Heartbeat CPU  0 instr:  210000003 cyc:  316311365 curr IPC: 1.70503 AVG IPC: 0.65978 (Sim:0h9m34s) 
Heartbeat CPU  0 instr:  211000000 cyc:  316887483 curr IPC: 1.73575 AVG IPC: 0.66174 (Sim:0h9m36s) 
Heartbeat CPU  0 instr:  212000000 cyc:  317533599 curr IPC: 1.54771 AVG IPC: 0.66355 (Sim:0h9m38s) 
Heartbeat CPU  0 instr:  213000002 cyc:  318310450 curr IPC: 1.28725 AVG IPC: 0.66508 (Sim:0h9m41s) 
Heartbeat CPU  0 instr:  214000002 cyc:  319058172 curr IPC: 1.33740 AVG IPC: 0.66666 (Sim:0h9m44s) 
Heartbeat CPU  0 instr:  215000003 cyc:  319800550 curr IPC: 1.34702 AVG IPC: 0.66824 (Sim:0h9m46s) 
Heartbeat CPU  0 instr:  216000000 cyc:  320591426 curr IPC: 1.26442 AVG IPC: 0.66972 (Sim:0h9m49s) 
Heartbeat CPU  0 instr:  217000003 cyc:  321348177 curr IPC: 1.32144 AVG IPC: 0.67126 (Sim:0h9m52s) 
Heartbeat CPU  0 instr:  218000002 cyc:  322092076 curr IPC: 1.34427 AVG IPC: 0.67282 (Sim:0h9m54s) 
Heartbeat CPU  0 instr:  219000002 cyc:  322860508 curr IPC: 1.30135 AVG IPC: 0.67432 (Sim:0h9m57s) 
Heartbeat CPU  0 instr:  220000000 cyc:  323626505 curr IPC: 1.30549 AVG IPC: 0.67582 (Sim:0h10m0s) 
Heartbeat CPU  0 instr:  221000002 cyc:  324374964 curr IPC: 1.33608 AVG IPC: 0.67735 (Sim:0h10m2s) 
Heartbeat CPU  0 instr:  222000000 cyc:  325188792 curr IPC: 1.22876 AVG IPC: 0.67873 (Sim:0h10m5s) 
Heartbeat CPU  0 instr:  223000000 cyc:  326030198 curr IPC: 1.18849 AVG IPC: 0.68005 (Sim:0h10m7s) 
Heartbeat CPU  0 instr:  224000000 cyc:  326824970 curr IPC: 1.25822 AVG IPC: 0.68146 (Sim:0h10m10s) 
Heartbeat CPU  0 instr:  225000002 cyc:  327604245 curr IPC: 1.28325 AVG IPC: 0.68290 (Sim:0h10m12s) 
Heartbeat CPU  0 instr:  226000000 cyc:  328351627 curr IPC: 1.33800 AVG IPC: 0.68439 (Sim:0h10m15s) 
Heartbeat CPU  0 instr:  227000001 cyc:  329095023 curr IPC: 1.34518 AVG IPC: 0.68589 (Sim:0h10m18s) 
Heartbeat CPU  0 instr:  228000000 cyc:  329902149 curr IPC: 1.23896 AVG IPC: 0.68725 (Sim:0h10m21s) 
Heartbeat CPU  0 instr:  229000001 cyc:  330641498 curr IPC: 1.35254 AVG IPC: 0.68874 (Sim:0h10m23s) 
Heartbeat CPU  0 instr:  230000001 cyc:  331382262 curr IPC: 1.34996 AVG IPC: 0.69022 (Sim:0h10m26s) 
Heartbeat CPU  0 instr:  231000000 cyc:  332146664 curr IPC: 1.30821 AVG IPC: 0.69165 (Sim:0h10m29s) 
Heartbeat CPU  0 instr:  232000000 cyc:  332927905 curr IPC: 1.28001 AVG IPC: 0.69304 (Sim:0h10m32s) 
Heartbeat CPU  0 instr:  233000003 cyc:  333677720 curr IPC: 1.33367 AVG IPC: 0.69448 (Sim:0h10m35s) 
Heartbeat CPU  0 instr:  234000003 cyc:  334425395 curr IPC: 1.33748 AVG IPC: 0.69592 (Sim:0h10m37s) 
Heartbeat CPU  0 instr:  235000003 cyc:  335229961 curr IPC: 1.24291 AVG IPC: 0.69724 (Sim:0h10m40s) 
Heartbeat CPU  0 instr:  236000000 cyc:  335990927 curr IPC: 1.31412 AVG IPC: 0.69864 (Sim:0h10m42s) 
Heartbeat CPU  0 instr:  237000000 cyc:  336733514 curr IPC: 1.34664 AVG IPC: 0.70007 (Sim:0h10m45s) 
Heartbeat CPU  0 instr:  238000000 cyc:  337478053 curr IPC: 1.34311 AVG IPC: 0.70150 (Sim:0h10m48s) 
Heartbeat CPU  0 instr:  239000001 cyc:  338299533 curr IPC: 1.21732 AVG IPC: 0.70275 (Sim:0h10m50s) 
Heartbeat CPU  0 instr:  240000000 cyc:  339159038 curr IPC: 1.16346 AVG IPC: 0.70392 (Sim:0h10m52s) 
Heartbeat CPU  0 instr:  241000002 cyc:  339896298 curr IPC: 1.35638 AVG IPC: 0.70534 (Sim:0h10m55s) 
Heartbeat CPU  0 instr:  242000002 cyc:  340639465 curr IPC: 1.34559 AVG IPC: 0.70674 (Sim:0h10m57s) 
Heartbeat CPU  0 instr:  243000000 cyc:  341390034 curr IPC: 1.33232 AVG IPC: 0.70812 (Sim:0h10m59s) 
Heartbeat CPU  0 instr:  244000000 cyc:  342181773 curr IPC: 1.26304 AVG IPC: 0.70941 (Sim:0h11m2s) 
Heartbeat CPU  0 instr:  245000000 cyc:  342905375 curr IPC: 1.38198 AVG IPC: 0.71084 (Sim:0h11m4s) 
Heartbeat CPU  0 instr:  246000001 cyc:  343635059 curr IPC: 1.37046 AVG IPC: 0.71224 (Sim:0h11m7s) 
Heartbeat CPU  0 instr:  247000003 cyc:  344412777 curr IPC: 1.28582 AVG IPC: 0.71354 (Sim:0h11m9s) 
Heartbeat CPU  0 instr:  248000000 cyc:  345151725 curr IPC: 1.35327 AVG IPC: 0.71491 (Sim:0h11m12s) 
Heartbeat CPU  0 instr:  249000001 cyc:  345877699 curr IPC: 1.37746 AVG IPC: 0.71631 (Sim:0h11m15s) 
Heartbeat CPU  0 instr:  250000002 cyc:  346621432 curr IPC: 1.34457 AVG IPC: 0.71766 (Sim:0h11m18s) 
Heartbeat CPU  0 instr:  251000002 cyc:  347384699 curr IPC: 1.31016 AVG IPC: 0.71897 (Sim:0h11m20s) 
Heartbeat CPU  0 instr:  252000000 cyc:  348114999 curr IPC: 1.36930 AVG IPC: 0.72034 (Sim:0h11m22s) 
Heartbeat CPU  0 instr:  253000001 cyc:  348849340 curr IPC: 1.36177 AVG IPC: 0.72169 (Sim:0h11m25s) 
Heartbeat CPU  0 instr:  254000003 cyc:  349604026 curr IPC: 1.32506 AVG IPC: 0.72300 (Sim:0h11m27s) 
Heartbeat CPU  0 instr:  255000001 cyc:  350394725 curr IPC: 1.26470 AVG IPC: 0.72422 (Sim:0h11m29s) 
Heartbeat CPU  0 instr:  256000000 cyc:  351210900 curr IPC: 1.22523 AVG IPC: 0.72539 (Sim:0h11m32s) 
Heartbeat CPU  0 instr:  257000002 cyc:  352001735 curr IPC: 1.26449 AVG IPC: 0.72660 (Sim:0h11m34s) 
Heartbeat CPU  0 instr:  258000002 cyc:  352765376 curr IPC: 1.30952 AVG IPC: 0.72787 (Sim:0h11m36s) 
Heartbeat CPU  0 instr:  259000002 cyc:  353599280 curr IPC: 1.19918 AVG IPC: 0.72899 (Sim:0h11m39s) 
Heartbeat CPU  0 instr:  260000000 cyc:  354415940 curr IPC: 1.22450 AVG IPC: 0.73013 (Sim:0h11m41s) 
Heartbeat CPU  0 instr:  261000003 cyc:  355183546 curr IPC: 1.30276 AVG IPC: 0.73137 (Sim:0h11m44s) 
Heartbeat CPU  0 instr:  262000003 cyc:  355955569 curr IPC: 1.29530 AVG IPC: 0.73260 (Sim:0h11m46s) 
Heartbeat CPU  0 instr:  263000003 cyc:  356802419 curr IPC: 1.18085 AVG IPC: 0.73367 (Sim:0h11m49s) 
Heartbeat CPU  0 instr:  264000000 cyc:  357576666 curr IPC: 1.29157 AVG IPC: 0.73488 (Sim:0h11m51s) 
Heartbeat CPU  0 instr:  265000001 cyc:  358340188 curr IPC: 1.30972 AVG IPC: 0.73611 (Sim:0h11m54s) 
Heartbeat CPU  0 instr:  266000003 cyc:  359144327 curr IPC: 1.24357 AVG IPC: 0.73724 (Sim:0h11m56s) 
Heartbeat CPU  0 instr:  267000000 cyc:  359969648 curr IPC: 1.21165 AVG IPC: 0.73834 (Sim:0h11m59s) 
Heartbeat CPU  0 instr:  268000000 cyc:  360743873 curr IPC: 1.29161 AVG IPC: 0.73953 (Sim:0h12m2s) 
Heartbeat CPU  0 instr:  269000001 cyc:  361513780 curr IPC: 1.29886 AVG IPC: 0.74072 (Sim:0h12m4s) 
Heartbeat CPU  0 instr:  270000003 cyc:  362333746 curr IPC: 1.21957 AVG IPC: 0.74181 (Sim:0h12m6s) 
Heartbeat CPU  0 instr:  271000000 cyc:  363133184 curr IPC: 1.25087 AVG IPC: 0.74293 (Sim:0h12m9s) 
Heartbeat CPU  0 instr:  272000000 cyc:  363959997 curr IPC: 1.20946 AVG IPC: 0.74400 (Sim:0h12m12s) 
Heartbeat CPU  0 instr:  273000002 cyc:  364779660 curr IPC: 1.22002 AVG IPC: 0.74507 (Sim:0h12m15s) 
Heartbeat CPU  0 instr:  274000003 cyc:  365547715 curr IPC: 1.30199 AVG IPC: 0.74624 (Sim:0h12m17s) 
Heartbeat CPU  0 instr:  275000002 cyc:  366304990 curr IPC: 1.32052 AVG IPC: 0.74743 (Sim:0h12m20s) 
Heartbeat CPU  0 instr:  276000000 cyc:  367074363 curr IPC: 1.29976 AVG IPC: 0.74859 (Sim:0h12m23s) 
Heartbeat CPU  0 instr:  277000000 cyc:  367824674 curr IPC: 1.33278 AVG IPC: 0.74979 (Sim:0h12m26s) 
Heartbeat CPU  0 instr:  278000002 cyc:  368601517 curr IPC: 1.28726 AVG IPC: 0.75092 (Sim:0h12m28s) 
Heartbeat CPU  0 instr:  279000001 cyc:  369350577 curr IPC: 1.33501 AVG IPC: 0.75211 (Sim:0h12m31s) 
Heartbeat CPU  0 instr:  280000000 cyc:  370101030 curr IPC: 1.33253 AVG IPC: 0.75329 (Sim:0h12m33s) 
Heartbeat CPU  0 instr:  281000001 cyc:  370856334 curr IPC: 1.32397 AVG IPC: 0.75446 (Sim:0h12m36s) 
Heartbeat CPU  0 instr:  282000002 cyc:  371606391 curr IPC: 1.33323 AVG IPC: 0.75563 (Sim:0h12m39s) 
Heartbeat CPU  0 instr:  283000001 cyc:  372379780 curr IPC: 1.29301 AVG IPC: 0.75675 (Sim:0h12m42s) 
Heartbeat CPU  0 instr:  284000000 cyc:  373126740 curr IPC: 1.33876 AVG IPC: 0.75792 (Sim:0h12m46s) 
Heartbeat CPU  0 instr:  285000000 cyc:  373887072 curr IPC: 1.31521 AVG IPC: 0.75905 (Sim:0h12m48s) 
Heartbeat CPU  0 instr:  286000003 cyc:  374647312 curr IPC: 1.31538 AVG IPC: 0.76019 (Sim:0h12m51s) 
Heartbeat CPU  0 instr:  287000000 cyc:  375400761 curr IPC: 1.32723 AVG IPC: 0.76133 (Sim:0h12m54s) 
Heartbeat CPU  0 instr:  288000000 cyc:  376156661 curr IPC: 1.32293 AVG IPC: 0.76246 (Sim:0h12m57s) 
Heartbeat CPU  0 instr:  289000000 cyc:  376961992 curr IPC: 1.24173 AVG IPC: 0.76349 (Sim:0h13m0s) 
Heartbeat CPU  0 instr:  290000001 cyc:  377757695 curr IPC: 1.25675 AVG IPC: 0.76453 (Sim:0h13m3s) 
Heartbeat CPU  0 instr:  291000000 cyc:  378519971 curr IPC: 1.31186 AVG IPC: 0.76563 (Sim:0h13m5s) 
Heartbeat CPU  0 instr:  292000000 cyc:  379257943 curr IPC: 1.35506 AVG IPC: 0.76678 (Sim:0h13m7s) 
Heartbeat CPU  0 instr:  293000002 cyc:  380004092 curr IPC: 1.34022 AVG IPC: 0.76791 (Sim:0h13m10s) 
Heartbeat CPU  0 instr:  294000002 cyc:  380749148 curr IPC: 1.34218 AVG IPC: 0.76904 (Sim:0h13m12s) 
Heartbeat CPU  0 instr:  295000001 cyc:  381520458 curr IPC: 1.29649 AVG IPC: 0.77011 (Sim:0h13m15s) 
Heartbeat CPU  0 instr:  296000000 cyc:  382264095 curr IPC: 1.34474 AVG IPC: 0.77123 (Sim:0h13m17s) 
Heartbeat CPU  0 instr:  297000000 cyc:  383009117 curr IPC: 1.34224 AVG IPC: 0.77234 (Sim:0h13m20s) 
Heartbeat CPU  0 instr:  298000003 cyc:  383753144 curr IPC: 1.34404 AVG IPC: 0.77345 (Sim:0h13m22s) 
Heartbeat CPU  0 instr:  299000003 cyc:  384495032 curr IPC: 1.34791 AVG IPC: 0.77457 (Sim:0h13m25s) 
Heartbeat CPU  0 instr:  300000000 cyc:  385256142 curr IPC: 1.31387 AVG IPC: 0.77563 (Sim:0h13m27s) 
Heartbeat CPU  0 instr:  301000000 cyc:  386031876 curr IPC: 1.28910 AVG IPC: 0.77667 (Sim:0h13m29s) 
Heartbeat CPU  0 instr:  302000001 cyc:  386773944 curr IPC: 1.34759 AVG IPC: 0.77777 (Sim:0h13m31s) 
Heartbeat CPU  0 instr:  303000002 cyc:  387509442 curr IPC: 1.35962 AVG IPC: 0.77887 (Sim:0h13m34s) 
Heartbeat CPU  0 instr:  304000000 cyc:  388250028 curr IPC: 1.35028 AVG IPC: 0.77997 (Sim:0h13m36s) 
Heartbeat CPU  0 instr:  305000002 cyc:  389034883 curr IPC: 1.27412 AVG IPC: 0.78097 (Sim:0h13m39s) 
Heartbeat CPU  0 instr:  306000003 cyc:  389823961 curr IPC: 1.26730 AVG IPC: 0.78195 (Sim:0h13m42s) 
Heartbeat CPU  0 instr:  307000003 cyc:  390573980 curr IPC: 1.33330 AVG IPC: 0.78302 (Sim:0h13m44s) 
Heartbeat CPU  0 instr:  308000000 cyc:  391322870 curr IPC: 1.33531 AVG IPC: 0.78408 (Sim:0h13m46s) 
Heartbeat CPU  0 instr:  309000002 cyc:  392059560 curr IPC: 1.35743 AVG IPC: 0.78516 (Sim:0h13m48s) 
Heartbeat CPU  0 instr:  310000000 cyc:  392791745 curr IPC: 1.36577 AVG IPC: 0.78624 (Sim:0h13m50s) 
Heartbeat CPU  0 instr:  311000003 cyc:  393518994 curr IPC: 1.37505 AVG IPC: 0.78733 (Sim:0h13m53s) 
Heartbeat CPU  0 instr:  312000000 cyc:  394273292 curr IPC: 1.32573 AVG IPC: 0.78836 (Sim:0h13m55s) 
Heartbeat CPU  0 instr:  313000001 cyc:  395022508 curr IPC: 1.33473 AVG IPC: 0.78940 (Sim:0h13m58s) 
Heartbeat CPU  0 instr:  314000001 cyc:  395787234 curr IPC: 1.30766 AVG IPC: 0.79041 (Sim:0h14m0s) 
Heartbeat CPU  0 instr:  315000002 cyc:  396516311 curr IPC: 1.37160 AVG IPC: 0.79148 (Sim:0h14m3s) 
Heartbeat CPU  0 instr:  316000000 cyc:  397252499 curr IPC: 1.35835 AVG IPC: 0.79253 (Sim:0h14m5s) 
Heartbeat CPU  0 instr:  317000000 cyc:  398030985 curr IPC: 1.28454 AVG IPC: 0.79350 (Sim:0h14m8s) 
Heartbeat CPU  0 instr:  318000001 cyc:  398783176 curr IPC: 1.32945 AVG IPC: 0.79451 (Sim:0h14m10s) 
Heartbeat CPU  0 instr:  319000000 cyc:  399500154 curr IPC: 1.39474 AVG IPC: 0.79559 (Sim:0h14m13s) 
Heartbeat CPU  0 instr:  320000000 cyc:  400241060 curr IPC: 1.34970 AVG IPC: 0.79662 (Sim:0h14m16s) 
Heartbeat CPU  0 instr:  321000001 cyc:  401029380 curr IPC: 1.26852 AVG IPC: 0.79755 (Sim:0h14m18s) 
Heartbeat CPU  0 instr:  322000003 cyc:  401808968 curr IPC: 1.28273 AVG IPC: 0.79849 (Sim:0h14m21s) 
Heartbeat CPU  0 instr:  323000000 cyc:  402598389 curr IPC: 1.26675 AVG IPC: 0.79941 (Sim:0h14m23s) 
Heartbeat CPU  0 instr:  324000000 cyc:  403383845 curr IPC: 1.27315 AVG IPC: 0.80034 (Sim:0h14m26s) 
Heartbeat CPU  0 instr:  325000000 cyc:  404193392 curr IPC: 1.23526 AVG IPC: 0.80121 (Sim:0h14m28s) 
Heartbeat CPU  0 instr:  326000000 cyc:  405014517 curr IPC: 1.21784 AVG IPC: 0.80206 (Sim:0h14m31s) 
Heartbeat CPU  0 instr:  327000003 cyc:  405779486 curr IPC: 1.30725 AVG IPC: 0.80301 (Sim:0h14m34s) 
Heartbeat CPU  0 instr:  328000000 cyc:  406557573 curr IPC: 1.28520 AVG IPC: 0.80394 (Sim:0h14m36s) 
Heartbeat CPU  0 instr:  329000001 cyc:  407366622 curr IPC: 1.23602 AVG IPC: 0.80480 (Sim:0h14m39s) 
Heartbeat CPU  0 instr:  330000000 cyc:  408175161 curr IPC: 1.23680 AVG IPC: 0.80566 (Sim:0h14m41s) 
Heartbeat CPU  0 instr:  331000001 cyc:  408934125 curr IPC: 1.31759 AVG IPC: 0.80661 (Sim:0h14m44s) 
Heartbeat CPU  0 instr:  332000000 cyc:  409731806 curr IPC: 1.25363 AVG IPC: 0.80748 (Sim:0h14m47s) 
Heartbeat CPU  0 instr:  333000001 cyc:  410560542 curr IPC: 1.20666 AVG IPC: 0.80829 (Sim:0h14m49s) 
Heartbeat CPU  0 instr:  334000002 cyc:  411348653 curr IPC: 1.26886 AVG IPC: 0.80918 (Sim:0h14m52s) 
Heartbeat CPU  0 instr:  335000001 cyc:  412125600 curr IPC: 1.28709 AVG IPC: 0.81008 (Sim:0h14m55s) 
Heartbeat CPU  0 instr:  336000000 cyc:  412926495 curr IPC: 1.24860 AVG IPC: 0.81093 (Sim:0h14m57s) 
Heartbeat CPU  0 instr:  337000001 cyc:  413722746 curr IPC: 1.25589 AVG IPC: 0.81179 (Sim:0h15m0s) 
Heartbeat CPU  0 instr:  338000001 cyc:  414517172 curr IPC: 1.25877 AVG IPC: 0.81265 (Sim:0h15m2s) 
Heartbeat CPU  0 instr:  339000000 cyc:  415178515 curr IPC: 1.51207 AVG IPC: 0.81377 (Sim:0h15m5s) 
Heartbeat CPU  0 instr:  340000000 cyc:  415616836 curr IPC: 2.28143 AVG IPC: 0.81532 (Sim:0h15m6s) 
Heartbeat CPU  0 instr:  341000000 cyc:  416027871 curr IPC: 2.43288 AVG IPC: 0.81692 (Sim:0h15m7s) 
Heartbeat CPU  0 instr:  342000001 cyc:  416705784 curr IPC: 1.47512 AVG IPC: 0.81799 (Sim:0h15m8s) 
Heartbeat CPU  0 instr:  343000000 cyc:  417568381 curr IPC: 1.15929 AVG IPC: 0.81870 (Sim:0h15m10s) 
Heartbeat CPU  0 instr:  344000000 cyc:  418326363 curr IPC: 1.31929 AVG IPC: 0.81961 (Sim:0h15m12s) 
Heartbeat CPU  0 instr:  345000002 cyc:  419111477 curr IPC: 1.27370 AVG IPC: 0.82046 (Sim:0h15m14s) 
Heartbeat CPU  0 instr:  346000001 cyc:  419895621 curr IPC: 1.27527 AVG IPC: 0.82131 (Sim:0h15m16s) 
Heartbeat CPU  0 instr:  347000000 cyc:  420687852 curr IPC: 1.26226 AVG IPC: 0.82215 (Sim:0h15m18s) 
Heartbeat CPU  0 instr:  348000000 cyc:  421479082 curr IPC: 1.26385 AVG IPC: 0.82298 (Sim:0h15m20s) 
Heartbeat CPU  0 instr:  349000000 cyc:  422274202 curr IPC: 1.25767 AVG IPC: 0.82380 (Sim:0h15m22s) 
Heartbeat CPU  0 instr:  350000003 cyc:  423071954 curr IPC: 1.25353 AVG IPC: 0.82461 (Sim:0h15m24s) 
Heartbeat CPU  0 instr:  351000003 cyc:  423859768 curr IPC: 1.26934 AVG IPC: 0.82544 (Sim:0h15m26s) 
Heartbeat CPU  0 instr:  352000000 cyc:  424649708 curr IPC: 1.26592 AVG IPC: 0.82626 (Sim:0h15m28s) 
Finished CPU 0 instr: 350000002 cyc: 423595363 AVG IPC: 0.82626 (Sim time: 0h15m28s

ChampSim completed all CPUs

[ROI Statistics]
Core_0_instructions 350000002
Core_0_cycles 423595363
Core_0_IPC 0.82626

Core_0_branch_prediction_accuracy 98.12358
Core_0_branch_MPKI 0.51152
Core_0_average_ROB_occupancy_at_mispredict 208.27868

Core_0_L1D_total_access 219022183
Core_0_L1D_total_hit 180807911 L1D_total_Hit Ratio: 0.82552
Core_0_L1D_total_miss 38214272
Core_0_L1D_loads 84834779
Core_0_L1D_load_hit 71657420 L1D_load_Hit Ratio: 0.84467
Core_0_L1D_load_miss 13177359
Core_0_L1D_RFOs 6495813
Core_0_L1D_RFO_hit 5389221 L1D_RFO_Hit Ratio: 0.82965
Core_0_L1D_RFO_miss 1106592
Core_0_L1D_prefetches 127691591
Core_0_L1D_prefetch_hit 103761270 L1D_prefetch_Hit Ratio: 0.81259
Core_0_L1D_prefetch_miss 23930321
Core_0_L1D_writebacks 0
Core_0_L1D_writeback_hit 0 L1D_writeback_Hit Ratio: -nan
Core_0_L1D_writeback_miss 0
Core_0_L1D_prefetch_requested 258529638
Core_0_L1D_prefetch_issued 139675566
Core_0_L1D_prefetch_useful 8477606 L1D_Total_Hit Ratio: 0.06069
Core_0_L1D_prefetch_useless 15536556
Core_0_L1D_prefetch_late 1045094
Core_0_L1D_average_miss_latency 5323158.06344

Core_0_L1I_total_access 112029467
Core_0_L1I_total_hit 112020056 L1I_total_Hit Ratio: 0.99992
Core_0_L1I_total_miss 9411
Core_0_L1I_loads 112029467
Core_0_L1I_load_hit 112020056 L1I_load_Hit Ratio: 0.99992
Core_0_L1I_load_miss 9411
Core_0_L1I_RFOs 0
Core_0_L1I_RFO_hit 0 L1I_RFO_Hit Ratio: -nan
Core_0_L1I_RFO_miss 0
Core_0_L1I_prefetches 0
Core_0_L1I_prefetch_hit 0 L1I_prefetch_Hit Ratio: -nan
Core_0_L1I_prefetch_miss 0
Core_0_L1I_writebacks 0
Core_0_L1I_writeback_hit 0 L1I_writeback_Hit Ratio: -nan
Core_0_L1I_writeback_miss 0
Core_0_L1I_prefetch_requested 0
Core_0_L1I_prefetch_issued 0
Core_0_L1I_prefetch_useful 0 L1I_Total_Hit Ratio: -nan
Core_0_L1I_prefetch_useless 0
Core_0_L1I_prefetch_late 0
Core_0_L1I_average_miss_latency 217.15493

Core_0_L2C_total_access 66169024
Core_0_L2C_total_hit 57286593 L2C_total_Hit Ratio: 0.86576
Core_0_L2C_total_miss 8882431
Core_0_L2C_loads 12143156
Core_0_L2C_load_hit 11120849 L2C_load_Hit Ratio: 0.91581
Core_0_L2C_load_miss 1022307
Core_0_L2C_RFOs 1103455
Core_0_L2C_RFO_hit 580900 L2C_RFO_Hit Ratio: 0.52644
Core_0_L2C_RFO_miss 522555
Core_0_L2C_prefetches 50855036
Core_0_L2C_prefetch_hit 43517603 L2C_prefetch_Hit Ratio: 0.85572
Core_0_L2C_prefetch_miss 7337433
Core_0_L2C_writebacks 2067377
Core_0_L2C_writeback_hit 2067241 L2C_writeback_Hit Ratio: 0.99993
Core_0_L2C_writeback_miss 136
Core_0_L2C_prefetch_requested 67139842
Core_0_L2C_prefetch_issued 29767267
Core_0_L2C_prefetch_useful 2097471 L2C_Total_Hit Ratio: 0.07046
Core_0_L2C_prefetch_useless 5281474
Core_0_L2C_prefetch_late 7941
Core_0_L2C_average_miss_latency 201.89664

Core_0_LLC_total_access 10829112
Core_0_LLC_total_hit 5835844 LLC_total_Hit Ratio: 0.53890
Core_0_LLC_total_miss 4993268
Core_0_LLC_loads 1014477
Core_0_LLC_load_hit 327730 LLC_load_Hit Ratio: 0.32305
Core_0_LLC_load_miss 686747
Core_0_LLC_RFOs 522444
Core_0_LLC_RFO_hit 2434 LLC_RFO_Hit Ratio: 0.00466
Core_0_LLC_RFO_miss 520010
Core_0_LLC_prefetches 7586273
Core_0_LLC_prefetch_hit 3800047 LLC_prefetch_Hit Ratio: 0.50091
Core_0_LLC_prefetch_miss 3786226
Core_0_LLC_writebacks 1705918
Core_0_LLC_writeback_hit 1705633 LLC_writeback_Hit Ratio: 0.99983
Core_0_LLC_writeback_miss 285
Core_0_LLC_prefetch_requested 0
Core_0_LLC_prefetch_issued 0
Core_0_LLC_prefetch_useful 85151 LLC_Total_Hit Ratio: inf
Core_0_LLC_prefetch_useless 3718276
Core_0_LLC_prefetch_late 1089
Core_0_LLC_average_miss_latency 318.87326

Core_0_major_page_fault 0
Core_0_minor_page_fault 18565

CPU 0 L1D next line prefetcher final stats
CPU 0 L2C PC-based stride prefetcher final stats
Hit Total: 0 Coverage: inf%
 		NxtLine: 0 	Stride: 0 	Markov: 0
Hit Ratio: 	NxtLine: -nan% 	Stride: -nan% 	Markov: -nan%
Accuracy : 	NxtLine: -nan% 	Stride: -nan% 	Markov: -nan%



MissHit265282MissCnt4524807 5.86284%
Channel_0_RQ_row_buffer_hit 1984031
Channel_0_RQ_row_buffer_miss 3008935
Channel_0_WQ_row_buffer_hit 414045
Channel_0_WQ_row_buffer_miss 1265649
Channel_0_WQ_full 0
Channel_0_dbus_congested 3931583

avg_congested_cycle 10
*************************************************
   ChampSim Multicore Out-of-Order Simulator
   Last compiled: Sep  2 2024 11:01:10
*************************************************

trace_0 ./LLM_Traces/2B_Traces_SelfAttention_Phythia-70M-Seq1024-07-08-0125.champsim.xz
CPU 0 L1D next line prefetcher
Markov Talbe Size: 33 Markov Confidence: 3%
Stride Size: 32 Prefetch Degree: 20

CPU 0 L2C prefetcher
warmup_instructions 2000000
simulation_instructions 350000000
champsim_seed 200

num_cpus 1
cpu_freq 4000
dram_io_freq 2400
page_size 4096
block_size 64
max_read_per_cycle 8
max_fill_per_cycle 1
dram_channels 1
dram_ranks 1
dram_banks 8
dram_rows 65536
dram_columns 128
dram_row_size 8
dram_size 4096
dram_pages 1048576

fetch_width 6
decode_width 6
exec_width 4
lq_width 2
sq_width 2
retire_width 4
scheduler_size 128
branch_mispredict_penalty 20
rob_size 256
lq_size 72
sq_size 56
num_instr_destinations_sparc 4
num_instr_destinations 2
num_instr_sources 4

itlb_set 16
itlb_way 8
itlb_rq_size 16
itlb_wq_size 16
itlb_pq_size 0
itlb_mshr_size 8
itlb_latency 1

dtlb_set 16
dtlb_way 4
dtlb_rq_size 16
dtlb_wq_size 16
dtlb_pq_size 0
dtlb_mshr_size 8
dtlb_latency 1

stlb_set 128
stlb_way 12
stlb_rq_size 32
stlb_wq_size 32
stlb_pq_size 0
stlb_mshr_size 16
stlb_latency 8

l1i_size 32
l1i_set 64
l1i_way 8
l1i_rq_size 64
l1i_wq_size 64
l1i_pq_size 8
l1i_mshr_size 8
l1i_latency 1

l1d_size 32
l1d_set 64
l1d_way 8
l1d_rq_size 64
l1d_wq_size 64
l1d_pq_size 8
l1d_mshr_size 16
l1d_latency 4

l2c_size 512
l2c_set 1024
l2c_way 8
l2c_rq_size 32
l2c_wq_size 32
l2c_pq_size 16
l2c_mshr_size 32
l2c_latency 10

llc_size 2048
llc_set 2048
llc_way 16
llc_rq_size 32
llc_wq_size 32
llc_pq_size 32
llc_mshr_size 64
llc_latency 20

dram_channel_width 8
dram_wq_size 64
dram_rq_size 64
tRP 15
tRCD 15
tCAS 12.5
dram_dbus_turn_around_time 30
dram_write_high_wm 56
dram_write_low_wm 48
min_dram_writes_per_switch 16
dram_mtps 2400
dram_dbus_return_time 13


CPU 0 L2C prefetcher initialized


Cache Size: 512
number of cache lines: 8192
Heartbeat CPU  0 instr:    1000001 cyc:     474495 curr IPC: 2.10751 AVG IPC: 2.10751 (Sim:0h0m2s) 
Heartbeat CPU  0 instr:    2000000 cyc:    1054352 curr IPC: 1.72456 AVG IPC: 1.89690 (Sim:0h0m3s) 

Warmup complete CPU  0 instructions:    2000002 cycles:    1054353 (Simulation time: 0 hr 0 min 3 sec) 

Heartbeat CPU  0 instr:    3000001 cyc:    2104025 curr IPC: 0.95268 AVG IPC: 0.95268 (Sim:0h0m5s) 
Heartbeat CPU  0 instr:    4000000 cyc:    3190647 curr IPC: 0.92028 AVG IPC: 0.93620 (Sim:0h0m7s) 
Heartbeat CPU  0 instr:    5000002 cyc:    4265944 curr IPC: 0.92998 AVG IPC: 0.93412 (Sim:0h0m9s) 
Heartbeat CPU  0 instr:    6000001 cyc:    5343242 curr IPC: 0.92825 AVG IPC: 0.93264 (Sim:0h0m12s) 
Heartbeat CPU  0 instr:    7000002 cyc:    6426205 curr IPC: 0.92339 AVG IPC: 0.93078 (Sim:0h0m14s) 
Heartbeat CPU  0 instr:    8000000 cyc:    7518841 curr IPC: 0.91522 AVG IPC: 0.92815 (Sim:0h0m15s) 
Heartbeat CPU  0 instr:    9000003 cyc:    8622949 curr IPC: 0.90571 AVG IPC: 0.92487 (Sim:0h0m18s) 
Heartbeat CPU  0 instr:   10000003 cyc:    9721423 curr IPC: 0.91035 AVG IPC: 0.92303 (Sim:0h0m19s) 
Heartbeat CPU  0 instr:   11000000 cyc:   10814269 curr IPC: 0.91504 AVG IPC: 0.92214 (Sim:0h0m21s) 
Heartbeat CPU  0 instr:   12000000 cyc:   11929379 curr IPC: 0.89677 AVG IPC: 0.91954 (Sim:0h0m23s) 
Heartbeat CPU  0 instr:   13000002 cyc:   13035592 curr IPC: 0.90399 AVG IPC: 0.91810 (Sim:0h0m25s) 
Heartbeat CPU  0 instr:   14000002 cyc:   14111920 curr IPC: 0.92908 AVG IPC: 0.91901 (Sim:0h0m28s) 
Heartbeat CPU  0 instr:   15000001 cyc:   15201221 curr IPC: 0.91802 AVG IPC: 0.91893 (Sim:0h0m29s) 
Heartbeat CPU  0 instr:   16000000 cyc:   16293333 curr IPC: 0.91566 AVG IPC: 0.91870 (Sim:0h0m32s) 
Heartbeat CPU  0 instr:   17000001 cyc:   17394957 curr IPC: 0.90775 AVG IPC: 0.91796 (Sim:0h0m34s) 
Heartbeat CPU  0 instr:   18000003 cyc:   18499652 curr IPC: 0.90523 AVG IPC: 0.91715 (Sim:0h0m36s) 
Heartbeat CPU  0 instr:   19000003 cyc:   19600480 curr IPC: 0.90841 AVG IPC: 0.91663 (Sim:0h0m38s) 
Heartbeat CPU  0 instr:   20000000 cyc:   20706590 curr IPC: 0.90407 AVG IPC: 0.91593 (Sim:0h0m40s) 
Heartbeat CPU  0 instr:   21000001 cyc:   21781987 curr IPC: 0.92989 AVG IPC: 0.91665 (Sim:0h0m42s) 
Heartbeat CPU  0 instr:   22000000 cyc:   22882925 curr IPC: 0.90832 AVG IPC: 0.91623 (Sim:0h0m44s) 
Heartbeat CPU  0 instr:   23000002 cyc:   23938677 curr IPC: 0.94719 AVG IPC: 0.91766 (Sim:0h0m46s) 
Heartbeat CPU  0 instr:   24000000 cyc:   24989131 curr IPC: 0.95197 AVG IPC: 0.91916 (Sim:0h0m48s) 
Heartbeat CPU  0 instr:   25000000 cyc:   26039715 curr IPC: 0.95185 AVG IPC: 0.92054 (Sim:0h0m50s) 
Heartbeat CPU  0 instr:   26000003 cyc:   27212284 curr IPC: 0.85283 AVG IPC: 0.91750 (Sim:0h0m52s) 
Heartbeat CPU  0 instr:   27000003 cyc:   28313700 curr IPC: 0.90792 AVG IPC: 0.91712 (Sim:0h0m54s) 
Heartbeat CPU  0 instr:   28000000 cyc:   29412024 curr IPC: 0.91048 AVG IPC: 0.91686 (Sim:0h0m57s) 
Heartbeat CPU  0 instr:   29000000 cyc:   30511354 curr IPC: 0.90964 AVG IPC: 0.91659 (Sim:0h0m59s) 
Heartbeat CPU  0 instr:   30000001 cyc:   31623894 curr IPC: 0.89884 AVG IPC: 0.91594 (Sim:0h1m1s) 
Heartbeat CPU  0 instr:   31000001 cyc:   32712696 curr IPC: 0.91844 AVG IPC: 0.91603 (Sim:0h1m3s) 
Heartbeat CPU  0 instr:   32000000 cyc:   33805318 curr IPC: 0.91523 AVG IPC: 0.91600 (Sim:0h1m5s) 
Heartbeat CPU  0 instr:   33000001 cyc:   34907816 curr IPC: 0.90703 AVG IPC: 0.91571 (Sim:0h1m7s) 
Heartbeat CPU  0 instr:   34000000 cyc:   36000507 curr IPC: 0.91517 AVG IPC: 0.91569 (Sim:0h1m9s) 
Heartbeat CPU  0 instr:   35000003 cyc:   37104683 curr IPC: 0.90566 AVG IPC: 0.91539 (Sim:0h1m12s) 
Heartbeat CPU  0 instr:   36000000 cyc:   38196977 curr IPC: 0.91550 AVG IPC: 0.91539 (Sim:0h1m14s) 
Heartbeat CPU  0 instr:   37000000 cyc:   39280945 curr IPC: 0.92254 AVG IPC: 0.91559 (Sim:0h1m16s) 
Heartbeat CPU  0 instr:   38000003 cyc:   40393813 curr IPC: 0.89858 AVG IPC: 0.91511 (Sim:0h1m18s) 
Heartbeat CPU  0 instr:   39000003 cyc:   41488779 curr IPC: 0.91327 AVG IPC: 0.91506 (Sim:0h1m20s) 
Heartbeat CPU  0 instr:   40000000 cyc:   42581831 curr IPC: 0.91487 AVG IPC: 0.91506 (Sim:0h1m22s) 
Heartbeat CPU  0 instr:   41000002 cyc:   43707562 curr IPC: 0.88831 AVG IPC: 0.91435 (Sim:0h1m24s) 
Heartbeat CPU  0 instr:   42000001 cyc:   44804802 curr IPC: 0.91138 AVG IPC: 0.91428 (Sim:0h1m26s) 
Heartbeat CPU  0 instr:   43000001 cyc:   45909396 curr IPC: 0.90531 AVG IPC: 0.91406 (Sim:0h1m28s) 
Heartbeat CPU  0 instr:   44000000 cyc:   47007808 curr IPC: 0.91040 AVG IPC: 0.91397 (Sim:0h1m30s) 
Heartbeat CPU  0 instr:   45000002 cyc:   48091228 curr IPC: 0.92300 AVG IPC: 0.91418 (Sim:0h1m32s) 
Heartbeat CPU  0 instr:   46000001 cyc:   49182257 curr IPC: 0.91657 AVG IPC: 0.91423 (Sim:0h1m34s) 
Heartbeat CPU  0 instr:   47000000 cyc:   50266054 curr IPC: 0.92268 AVG IPC: 0.91442 (Sim:0h1m36s) 
Heartbeat CPU  0 instr:   48000000 cyc:   51332681 curr IPC: 0.93753 AVG IPC: 0.91491 (Sim:0h1m38s) 
Heartbeat CPU  0 instr:   49000000 cyc:   52440242 curr IPC: 0.90288 AVG IPC: 0.91465 (Sim:0h1m40s) 
Heartbeat CPU  0 instr:   50000001 cyc:   53460693 curr IPC: 0.97996 AVG IPC: 0.91592 (Sim:0h1m42s) 
Heartbeat CPU  0 instr:   51000000 cyc:   54410756 curr IPC: 1.05256 AVG IPC: 0.91835 (Sim:0h1m44s) 
Heartbeat CPU  0 instr:   52000000 cyc:   55351913 curr IPC: 1.06252 AVG IPC: 0.92085 (Sim:0h1m46s) 
Heartbeat CPU  0 instr:   53000002 cyc:   56289065 curr IPC: 1.06706 AVG IPC: 0.92333 (Sim:0h1m48s) 
Heartbeat CPU  0 instr:   54000003 cyc:   57237008 curr IPC: 1.05492 AVG IPC: 0.92555 (Sim:0h1m50s) 
Heartbeat CPU  0 instr:   55000001 cyc:   58184741 curr IPC: 1.05515 AVG IPC: 0.92770 (Sim:0h1m52s) 
Heartbeat CPU  0 instr:   56000000 cyc:   59130955 curr IPC: 1.05684 AVG IPC: 0.92981 (Sim:0h1m54s) 
Heartbeat CPU  0 instr:   57000003 cyc:   60080690 curr IPC: 1.05293 AVG IPC: 0.93179 (Sim:0h1m56s) 
Heartbeat CPU  0 instr:   58000002 cyc:   61027288 curr IPC: 1.05641 AVG IPC: 0.93375 (Sim:0h1m58s) 
Heartbeat CPU  0 instr:   59000001 cyc:   61965541 curr IPC: 1.06581 AVG IPC: 0.93579 (Sim:0h2m0s) 
Heartbeat CPU  0 instr:   60000000 cyc:   62893530 curr IPC: 1.07760 AVG IPC: 0.93792 (Sim:0h2m2s) 
Heartbeat CPU  0 instr:   61000001 cyc:   63822015 curr IPC: 1.07702 AVG IPC: 0.93997 (Sim:0h2m4s) 
Heartbeat CPU  0 instr:   62000000 cyc:   64743594 curr IPC: 1.08509 AVG IPC: 0.94207 (Sim:0h2m7s) 
Heartbeat CPU  0 instr:   63000000 cyc:   65663597 curr IPC: 1.08695 AVG IPC: 0.94414 (Sim:0h2m8s) 
Heartbeat CPU  0 instr:   64000000 cyc:   66563455 curr IPC: 1.11129 AVG IPC: 0.94643 (Sim:0h2m10s) 
Heartbeat CPU  0 instr:   65000003 cyc:   67476509 curr IPC: 1.09523 AVG IPC: 0.94848 (Sim:0h2m12s) 
Heartbeat CPU  0 instr:   66000000 cyc:   68627635 curr IPC: 0.86871 AVG IPC: 0.94712 (Sim:0h2m14s) 
Heartbeat CPU  0 instr:   67000001 cyc:   69734882 curr IPC: 0.90314 AVG IPC: 0.94641 (Sim:0h2m16s) 
Heartbeat CPU  0 instr:   68000000 cyc:   70809636 curr IPC: 0.93044 AVG IPC: 0.94616 (Sim:0h2m18s) 
Heartbeat CPU  0 instr:   69000002 cyc:   71894650 curr IPC: 0.92165 AVG IPC: 0.94579 (Sim:0h2m20s) 
Heartbeat CPU  0 instr:   70000003 cyc:   72974980 curr IPC: 0.92564 AVG IPC: 0.94549 (Sim:0h2m22s) 
Heartbeat CPU  0 instr:   71000003 cyc:   74026096 curr IPC: 0.95137 AVG IPC: 0.94557 (Sim:0h2m24s) 
Heartbeat CPU  0 instr:   72000000 cyc:   75103946 curr IPC: 0.92777 AVG IPC: 0.94531 (Sim:0h2m26s) 
Heartbeat CPU  0 instr:   73000001 cyc:   76196657 curr IPC: 0.91516 AVG IPC: 0.94487 (Sim:0h2m28s) 
Heartbeat CPU  0 instr:   74000002 cyc:   77296894 curr IPC: 0.90890 AVG IPC: 0.94435 (Sim:0h2m30s) 
Heartbeat CPU  0 instr:   75000001 cyc:   78397714 curr IPC: 0.90841 AVG IPC: 0.94384 (Sim:0h2m32s) 
Heartbeat CPU  0 instr:   76000000 cyc:   79487250 curr IPC: 0.91782 AVG IPC: 0.94348 (Sim:0h2m34s) 
Heartbeat CPU  0 instr:   77000003 cyc:   80564977 curr IPC: 0.92788 AVG IPC: 0.94327 (Sim:0h2m36s) 
Heartbeat CPU  0 instr:   78000002 cyc:   81637791 curr IPC: 0.93213 AVG IPC: 0.94312 (Sim:0h2m38s) 
Heartbeat CPU  0 instr:   79000001 cyc:   82723739 curr IPC: 0.92085 AVG IPC: 0.94283 (Sim:0h2m40s) 
Heartbeat CPU  0 instr:   80000000 cyc:   83796550 curr IPC: 0.93213 AVG IPC: 0.94269 (Sim:0h2m42s) 
Heartbeat CPU  0 instr:   81000000 cyc:   84883750 curr IPC: 0.91979 AVG IPC: 0.94239 (Sim:0h2m44s) 
Heartbeat CPU  0 instr:   82000000 cyc:   85993862 curr IPC: 0.90081 AVG IPC: 0.94185 (Sim:0h2m46s) 
Heartbeat CPU  0 instr:   83000003 cyc:   87108873 curr IPC: 0.89685 AVG IPC: 0.94126 (Sim:0h2m48s) 
Heartbeat CPU  0 instr:   84000000 cyc:   88219934 curr IPC: 0.90004 AVG IPC: 0.94074 (Sim:0h2m50s) 
Heartbeat CPU  0 instr:   85000003 cyc:   89311750 curr IPC: 0.91591 AVG IPC: 0.94043 (Sim:0h2m52s) 
Heartbeat CPU  0 instr:   86000001 cyc:   90395979 curr IPC: 0.92231 AVG IPC: 0.94021 (Sim:0h2m54s) 
Heartbeat CPU  0 instr:   87000001 cyc:   91477284 curr IPC: 0.92481 AVG IPC: 0.94003 (Sim:0h2m56s) 
Heartbeat CPU  0 instr:   88000000 cyc:   92534244 curr IPC: 0.94611 AVG IPC: 0.94010 (Sim:0h2m58s) 
Heartbeat CPU  0 instr:   89000002 cyc:   93598704 curr IPC: 0.93945 AVG IPC: 0.94009 (Sim:0h3m0s) 
Heartbeat CPU  0 instr:   90000002 cyc:   94658642 curr IPC: 0.94345 AVG IPC: 0.94013 (Sim:0h3m2s) 
Heartbeat CPU  0 instr:   91000001 cyc:   95781155 curr IPC: 0.89086 AVG IPC: 0.93954 (Sim:0h3m4s) 
Heartbeat CPU  0 instr:   92000000 cyc:   96890173 curr IPC: 0.90170 AVG IPC: 0.93911 (Sim:0h3m7s) 
Heartbeat CPU  0 instr:   93000000 cyc:   97996854 curr IPC: 0.90360 AVG IPC: 0.93870 (Sim:0h3m9s) 
Heartbeat CPU  0 instr:   94000000 cyc:   99074732 curr IPC: 0.92775 AVG IPC: 0.93858 (Sim:0h3m11s) 
Heartbeat CPU  0 instr:   95000000 cyc:  100154801 curr IPC: 0.92587 AVG IPC: 0.93844 (Sim:0h3m13s) 
Heartbeat CPU  0 instr:   96000000 cyc:  101249359 curr IPC: 0.91361 AVG IPC: 0.93817 (Sim:0h3m15s) 
Heartbeat CPU  0 instr:   97000000 cyc:  102334978 curr IPC: 0.92113 AVG IPC: 0.93799 (Sim:0h3m17s) 
Heartbeat CPU  0 instr:   98000000 cyc:  103436625 curr IPC: 0.90773 AVG IPC: 0.93766 (Sim:0h3m19s) 
Heartbeat CPU  0 instr:   99000000 cyc:  104532782 curr IPC: 0.91228 AVG IPC: 0.93739 (Sim:0h3m21s) 
Heartbeat CPU  0 instr:  100000000 cyc:  105648205 curr IPC: 0.89652 AVG IPC: 0.93696 (Sim:0h3m24s) 
Heartbeat CPU  0 instr:  101000001 cyc:  106743767 curr IPC: 0.91277 AVG IPC: 0.93671 (Sim:0h3m26s) 
Heartbeat CPU  0 instr:  102000000 cyc:  107841775 curr IPC: 0.91074 AVG IPC: 0.93644 (Sim:0h3m28s) 
Heartbeat CPU  0 instr:  103000003 cyc:  108942683 curr IPC: 0.90834 AVG IPC: 0.93615 (Sim:0h3m30s) 
Heartbeat CPU  0 instr:  104000000 cyc:  110019190 curr IPC: 0.92893 AVG IPC: 0.93608 (Sim:0h3m33s) 
Heartbeat CPU  0 instr:  105000001 cyc:  111121186 curr IPC: 0.90745 AVG IPC: 0.93580 (Sim:0h3m35s) 
Heartbeat CPU  0 instr:  106000000 cyc:  112217591 curr IPC: 0.91207 AVG IPC: 0.93556 (Sim:0h3m38s) 
Heartbeat CPU  0 instr:  107000000 cyc:  113323444 curr IPC: 0.90428 AVG IPC: 0.93525 (Sim:0h3m40s) 
Heartbeat CPU  0 instr:  108000000 cyc:  114424118 curr IPC: 0.90853 AVG IPC: 0.93499 (Sim:0h3m43s) 
Heartbeat CPU  0 instr:  109000000 cyc:  115541412 curr IPC: 0.89502 AVG IPC: 0.93460 (Sim:0h3m45s) 
Heartbeat CPU  0 instr:  110000002 cyc:  116641092 curr IPC: 0.90936 AVG IPC: 0.93436 (Sim:0h3m47s) 
Heartbeat CPU  0 instr:  111000002 cyc:  117731191 curr IPC: 0.91735 AVG IPC: 0.93420 (Sim:0h3m49s) 
Heartbeat CPU  0 instr:  112000000 cyc:  118780493 curr IPC: 0.95301 AVG IPC: 0.93437 (Sim:0h3m52s) 
Heartbeat CPU  0 instr:  113000000 cyc:  119838322 curr IPC: 0.94533 AVG IPC: 0.93447 (Sim:0h3m54s) 
Heartbeat CPU  0 instr:  114000000 cyc:  120899625 curr IPC: 0.94224 AVG IPC: 0.93454 (Sim:0h3m56s) 
Heartbeat CPU  0 instr:  115000002 cyc:  121838915 curr IPC: 1.06464 AVG IPC: 0.93555 (Sim:0h3m59s) 
Heartbeat CPU  0 instr:  116000000 cyc:  122774484 curr IPC: 1.06887 AVG IPC: 0.93657 (Sim:0h4m2s) 
Heartbeat CPU  0 instr:  117000000 cyc:  123700971 curr IPC: 1.07935 AVG IPC: 0.93765 (Sim:0h4m4s) 
Heartbeat CPU  0 instr:  118000003 cyc:  124635310 curr IPC: 1.07028 AVG IPC: 0.93866 (Sim:0h4m7s) 
Heartbeat CPU  0 instr:  119000002 cyc:  125571249 curr IPC: 1.06844 AVG IPC: 0.93963 (Sim:0h4m9s) 
Heartbeat CPU  0 instr:  120000000 cyc:  126497434 curr IPC: 1.07970 AVG IPC: 0.94067 (Sim:0h4m12s) 
Heartbeat CPU  0 instr:  121000003 cyc:  127423754 curr IPC: 1.07954 AVG IPC: 0.94168 (Sim:0h4m14s) 
Heartbeat CPU  0 instr:  122000000 cyc:  128342957 curr IPC: 1.08790 AVG IPC: 0.94274 (Sim:0h4m16s) 
Heartbeat CPU  0 instr:  123000000 cyc:  129250283 curr IPC: 1.10214 AVG IPC: 0.94387 (Sim:0h4m19s) 
Heartbeat CPU  0 instr:  124000000 cyc:  130168369 curr IPC: 1.08922 AVG IPC: 0.94490 (Sim:0h4m21s) 
Heartbeat CPU  0 instr:  125000003 cyc:  131069944 curr IPC: 1.10917 AVG IPC: 0.94604 (Sim:0h4m23s) 
Heartbeat CPU  0 instr:  126000003 cyc:  131980037 curr IPC: 1.09879 AVG IPC: 0.94710 (Sim:0h4m25s) 
Heartbeat CPU  0 instr:  127000002 cyc:  132889809 curr IPC: 1.09918 AVG IPC: 0.94815 (Sim:0h4m28s) 
Heartbeat CPU  0 instr:  128000000 cyc:  133791220 curr IPC: 1.10937 AVG IPC: 0.94925 (Sim:0h4m30s) 
Heartbeat CPU  0 instr:  129000000 cyc:  134678898 curr IPC: 1.12653 AVG IPC: 0.95042 (Sim:0h4m32s) 
Heartbeat CPU  0 instr:  130000000 cyc:  135231706 curr IPC: 1.80895 AVG IPC: 0.95396 (Sim:0h4m33s) 
Heartbeat CPU  0 instr:  131000000 cyc:  135627309 curr IPC: 2.52779 AVG IPC: 0.95859 (Sim:0h4m34s) 
Heartbeat CPU  0 instr:  132000000 cyc:  136816701 curr IPC: 0.84077 AVG IPC: 0.95756 (Sim:0h4m36s) 
Heartbeat CPU  0 instr:  133000001 cyc:  143210054 curr IPC: 0.15641 AVG IPC: 0.92152 (Sim:0h5m3s) 
Heartbeat CPU  0 instr:  134000000 cyc:  150044758 curr IPC: 0.14631 AVG IPC: 0.88596 (Sim:0h6m41s) 
Heartbeat CPU  0 instr:  135000002 cyc:  156889798 curr IPC: 0.14609 AVG IPC: 0.85346 (Sim:0h9m57s) 
Heartbeat CPU  0 instr:  136000000 cyc:  163697754 curr IPC: 0.14689 AVG IPC: 0.82389 (Sim:0h13m2s) 
Heartbeat CPU  0 instr:  137000000 cyc:  167644909 curr IPC: 0.25335 AVG IPC: 0.81037 (Sim:0h15m25s) 
Heartbeat CPU  0 instr:  138000002 cyc:  169629728 curr IPC: 0.50383 AVG IPC: 0.80676 (Sim:0h15m27s) 
Heartbeat CPU  0 instr:  139000000 cyc:  171968467 curr IPC: 0.42758 AVG IPC: 0.80157 (Sim:0h15m30s) 
Heartbeat CPU  0 instr:  140000000 cyc:  174340247 curr IPC: 0.42162 AVG IPC: 0.79637 (Sim:0h15m33s) 
Heartbeat CPU  0 instr:  141000002 cyc:  176579172 curr IPC: 0.44664 AVG IPC: 0.79191 (Sim:0h15m35s) 
Heartbeat CPU  0 instr:  142000001 cyc:  178791374 curr IPC: 0.45204 AVG IPC: 0.78768 (Sim:0h15m38s) 
[...]
Heartbeat CPU  0 instr:  245000000 cyc:  342905375 curr IPC: 1.38198 AVG IPC: 0.71084 (Sim:0h20m8s) 
Heartbeat CPU  0 instr:  246000001 cyc:  343635059 curr IPC: 1.37046 AVG IPC: 0.71224 (Sim:0h20m10s) 
Heartbeat CPU  0 instr:  247000003 cyc:  344412777 curr IPC: 1.28582 AVG IPC: 0.71354 (Sim:0h20m12s) 
Heartbeat CPU  0 instr:  248000000 cyc:  345151725 curr IPC: 1.35327 AVG IPC: 0.71491 (Sim:0h20m14s) 
Heartbeat CPU  0 instr:  249000001 cyc:  345877699 curr IPC: 1.37746 AVG IPC: 0.71631 (Sim:0h20m16s) 
Heartbeat CPU  0 instr:  250000002 cyc:  346621432 curr IPC: 1.34457 AVG IPC: 0.71766 (Sim:0h20m18s) 
Heartbeat CPU  0 instr:  251000002 cyc:  347384699 curr IPC: 1.31016 AVG IPC: 0.71897 (Sim:0h20m20s) 
Heartbeat CPU  0 instr:  252000000 cyc:  348114999 curr IPC: 1.36930 AVG IPC: 0.72034 (Sim:0h20m22s) 
Heartbeat CPU  0 instr:  253000001 cyc:  348849340 curr IPC: 1.36177 AVG IPC: 0.72169 (Sim:0h20m24s) 
Heartbeat CPU  0 instr:  254000003 cyc:  349604026 curr IPC: 1.32506 AVG IPC: 0.72300 (Sim:0h20m26s) 
Heartbeat CPU  0 instr:  255000001 cyc:  350394725 curr IPC: 1.26470 AVG IPC: 0.72422 (Sim:0h20m28s) 
Heartbeat CPU  0 instr:  256000000 cyc:  351210900 curr IPC: 1.22523 AVG IPC: 0.72539 (Sim:0h20m31s) 
Heartbeat CPU  0 instr:  257000002 cyc:  352001735 curr IPC: 1.26449 AVG IPC: 0.72660 (Sim:0h20m33s) 
Heartbeat CPU  0 instr:  258000002 cyc:  352765376 curr IPC: 1.30952 AVG IPC: 0.72787 (Sim:0h20m35s) 
Heartbeat CPU  0 instr:  259000002 cyc:  353599280 curr IPC: 1.19918 AVG IPC: 0.72899 (Sim:0h20m37s) 
Heartbeat CPU  0 instr:  260000000 cyc:  354415940 curr IPC: 1.22450 AVG IPC: 0.73013 (Sim:0h20m39s) 
Heartbeat CPU  0 instr:  261000003 cyc:  355183546 curr IPC: 1.30276 AVG IPC: 0.73137 (Sim:0h20m41s) 
Heartbeat CPU  0 instr:  262000003 cyc:  355955569 curr IPC: 1.29530 AVG IPC: 0.73260 (Sim:0h20m43s) 
Heartbeat CPU  0 instr:  263000003 cyc:  356802419 curr IPC: 1.18085 AVG IPC: 0.73367 (Sim:0h20m46s) 
Heartbeat CPU  0 instr:  264000000 cyc:  357576666 curr IPC: 1.29157 AVG IPC: 0.73488 (Sim:0h20m48s) 
Heartbeat CPU  0 instr:  265000001 cyc:  358340188 curr IPC: 1.30972 AVG IPC: 0.73611 (Sim:0h20m50s) 
Heartbeat CPU  0 instr:  266000003 cyc:  359144327 curr IPC: 1.24357 AVG IPC: 0.73724 (Sim:0h20m52s) 
Heartbeat CPU  0 instr:  267000000 cyc:  359969648 curr IPC: 1.21165 AVG IPC: 0.73834 (Sim:0h20m54s) 
Heartbeat CPU  0 instr:  268000000 cyc:  360743873 curr IPC: 1.29161 AVG IPC: 0.73953 (Sim:0h20m56s) 
Heartbeat CPU  0 instr:  269000001 cyc:  361513780 curr IPC: 1.29886 AVG IPC: 0.74072 (Sim:0h20m58s) 
Heartbeat CPU  0 instr:  270000003 cyc:  362333746 curr IPC: 1.21957 AVG IPC: 0.74181 (Sim:0h21m0s) 
Heartbeat CPU  0 instr:  271000000 cyc:  363133184 curr IPC: 1.25087 AVG IPC: 0.74293 (Sim:0h21m3s) 
Heartbeat CPU  0 instr:  272000000 cyc:  363959997 curr IPC: 1.20946 AVG IPC: 0.74400 (Sim:0h21m5s) 
Heartbeat CPU  0 instr:  273000002 cyc:  364779660 curr IPC: 1.22002 AVG IPC: 0.74507 (Sim:0h21m7s) 
Heartbeat CPU  0 instr:  274000003 cyc:  365547715 curr IPC: 1.30199 AVG IPC: 0.74624 (Sim:0h21m9s) 
Heartbeat CPU  0 instr:  275000002 cyc:  366304990 curr IPC: 1.32052 AVG IPC: 0.74743 (Sim:0h21m11s) 
Heartbeat CPU  0 instr:  276000000 cyc:  367074363 curr IPC: 1.29976 AVG IPC: 0.74859 (Sim:0h21m13s) 
Heartbeat CPU  0 instr:  277000000 cyc:  367824674 curr IPC: 1.33278 AVG IPC: 0.74979 (Sim:0h21m15s) 
Heartbeat CPU  0 instr:  278000002 cyc:  368601517 curr IPC: 1.28726 AVG IPC: 0.75092 (Sim:0h21m18s) 
Heartbeat CPU  0 instr:  279000001 cyc:  369350577 curr IPC: 1.33501 AVG IPC: 0.75211 (Sim:0h21m20s) 
Heartbeat CPU  0 instr:  280000000 cyc:  370101030 curr IPC: 1.33253 AVG IPC: 0.75329 (Sim:0h21m22s) 
Heartbeat CPU  0 instr:  281000001 cyc:  370856334 curr IPC: 1.32397 AVG IPC: 0.75446 (Sim:0h21m24s) 
Heartbeat CPU  0 instr:  282000002 cyc:  371606391 curr IPC: 1.33323 AVG IPC: 0.75563 (Sim:0h21m26s) 
Heartbeat CPU  0 instr:  283000001 cyc:  372379780 curr IPC: 1.29301 AVG IPC: 0.75675 (Sim:0h21m28s) 
Heartbeat CPU  0 instr:  284000000 cyc:  373126740 curr IPC: 1.33876 AVG IPC: 0.75792 (Sim:0h21m30s) 
Heartbeat CPU  0 instr:  285000000 cyc:  373887072 curr IPC: 1.31521 AVG IPC: 0.75905 (Sim:0h21m33s) 
Heartbeat CPU  0 instr:  286000003 cyc:  374647312 curr IPC: 1.31538 AVG IPC: 0.76019 (Sim:0h21m35s) 
Heartbeat CPU  0 instr:  287000000 cyc:  375400761 curr IPC: 1.32723 AVG IPC: 0.76133 (Sim:0h21m37s) 
Heartbeat CPU  0 instr:  288000000 cyc:  376156661 curr IPC: 1.32293 AVG IPC: 0.76246 (Sim:0h21m40s) 
Heartbeat CPU  0 instr:  289000000 cyc:  376961992 curr IPC: 1.24173 AVG IPC: 0.76349 (Sim:0h21m43s) 
Heartbeat CPU  0 instr:  290000001 cyc:  377757695 curr IPC: 1.25675 AVG IPC: 0.76453 (Sim:0h21m45s) 
Heartbeat CPU  0 instr:  291000000 cyc:  378519971 curr IPC: 1.31186 AVG IPC: 0.76563 (Sim:0h21m47s) 
Heartbeat CPU  0 instr:  292000000 cyc:  379257943 curr IPC: 1.35506 AVG IPC: 0.76678 (Sim:0h21m49s) 
Heartbeat CPU  0 instr:  293000002 cyc:  380004092 curr IPC: 1.34022 AVG IPC: 0.76791 (Sim:0h21m51s) 
Heartbeat CPU  0 instr:  294000002 cyc:  380749148 curr IPC: 1.34218 AVG IPC: 0.76904 (Sim:0h21m54s) 
Heartbeat CPU  0 instr:  295000001 cyc:  381520458 curr IPC: 1.29649 AVG IPC: 0.77011 (Sim:0h21m56s) 
Heartbeat CPU  0 instr:  296000000 cyc:  382264095 curr IPC: 1.34474 AVG IPC: 0.77123 (Sim:0h21m58s) 
Heartbeat CPU  0 instr:  297000000 cyc:  383009117 curr IPC: 1.34224 AVG IPC: 0.77234 (Sim:0h22m0s) 
Heartbeat CPU  0 instr:  298000003 cyc:  383753144 curr IPC: 1.34404 AVG IPC: 0.77345 (Sim:0h22m2s) 
Heartbeat CPU  0 instr:  299000003 cyc:  384495032 curr IPC: 1.34791 AVG IPC: 0.77457 (Sim:0h22m4s) 
Heartbeat CPU  0 instr:  300000000 cyc:  385256142 curr IPC: 1.31387 AVG IPC: 0.77563 (Sim:0h22m6s) 
Heartbeat CPU  0 instr:  301000000 cyc:  386031876 curr IPC: 1.28910 AVG IPC: 0.77667 (Sim:0h22m9s) 
Heartbeat CPU  0 instr:  302000001 cyc:  386773944 curr IPC: 1.34759 AVG IPC: 0.77777 (Sim:0h22m11s) 
Heartbeat CPU  0 instr:  303000002 cyc:  387509442 curr IPC: 1.35962 AVG IPC: 0.77887 (Sim:0h22m13s) 
Heartbeat CPU  0 instr:  304000000 cyc:  388250028 curr IPC: 1.35028 AVG IPC: 0.77997 (Sim:0h22m14s) 
Heartbeat CPU  0 instr:  305000002 cyc:  389034883 curr IPC: 1.27412 AVG IPC: 0.78097 (Sim:0h22m17s) 
Heartbeat CPU  0 instr:  306000003 cyc:  389823961 curr IPC: 1.26730 AVG IPC: 0.78195 (Sim:0h22m19s) 
Heartbeat CPU  0 instr:  307000003 cyc:  390573980 curr IPC: 1.33330 AVG IPC: 0.78302 (Sim:0h22m21s) 
Heartbeat CPU  0 instr:  308000000 cyc:  391322870 curr IPC: 1.33531 AVG IPC: 0.78408 (Sim:0h22m23s) 
Heartbeat CPU  0 instr:  309000002 cyc:  392059560 curr IPC: 1.35743 AVG IPC: 0.78516 (Sim:0h22m25s) 
Heartbeat CPU  0 instr:  310000000 cyc:  392791745 curr IPC: 1.36577 AVG IPC: 0.78624 (Sim:0h22m26s) 
Heartbeat CPU  0 instr:  311000003 cyc:  393518994 curr IPC: 1.37505 AVG IPC: 0.78733 (Sim:0h22m28s) 
Heartbeat CPU  0 instr:  312000000 cyc:  394273292 curr IPC: 1.32573 AVG IPC: 0.78836 (Sim:0h22m31s) 
Heartbeat CPU  0 instr:  313000001 cyc:  395022508 curr IPC: 1.33473 AVG IPC: 0.78940 (Sim:0h22m32s) 
Heartbeat CPU  0 instr:  314000001 cyc:  395787234 curr IPC: 1.30766 AVG IPC: 0.79041 (Sim:0h22m35s) 
Heartbeat CPU  0 instr:  315000002 cyc:  396516311 curr IPC: 1.37160 AVG IPC: 0.79148 (Sim:0h22m37s) 
Heartbeat CPU  0 instr:  316000000 cyc:  397252499 curr IPC: 1.35835 AVG IPC: 0.79253 (Sim:0h22m39s) 
Heartbeat CPU  0 instr:  317000000 cyc:  398030985 curr IPC: 1.28454 AVG IPC: 0.79350 (Sim:0h22m41s) 
Heartbeat CPU  0 instr:  318000001 cyc:  398783176 curr IPC: 1.32945 AVG IPC: 0.79451 (Sim:0h22m44s) 
Heartbeat CPU  0 instr:  319000000 cyc:  399500154 curr IPC: 1.39474 AVG IPC: 0.79559 (Sim:0h22m46s) 
Heartbeat CPU  0 instr:  320000000 cyc:  400241060 curr IPC: 1.34970 AVG IPC: 0.79662 (Sim:0h22m48s) 
Heartbeat CPU  0 instr:  321000001 cyc:  401029380 curr IPC: 1.26852 AVG IPC: 0.79755 (Sim:0h22m50s) 
Heartbeat CPU  0 instr:  322000003 cyc:  401808968 curr IPC: 1.28273 AVG IPC: 0.79849 (Sim:0h22m52s) 
Heartbeat CPU  0 instr:  323000000 cyc:  402598389 curr IPC: 1.26675 AVG IPC: 0.79941 (Sim:0h22m54s) 
Heartbeat CPU  0 instr:  324000000 cyc:  403383845 curr IPC: 1.27315 AVG IPC: 0.80034 (Sim:0h22m57s) 
Heartbeat CPU  0 instr:  325000000 cyc:  404193392 curr IPC: 1.23526 AVG IPC: 0.80121 (Sim:0h22m59s) 
Heartbeat CPU  0 instr:  326000000 cyc:  405014517 curr IPC: 1.21784 AVG IPC: 0.80206 (Sim:0h23m1s) 
Heartbeat CPU  0 instr:  327000003 cyc:  405779486 curr IPC: 1.30725 AVG IPC: 0.80301 (Sim:0h23m3s) 
Heartbeat CPU  0 instr:  328000000 cyc:  406557573 curr IPC: 1.28520 AVG IPC: 0.80394 (Sim:0h23m5s) 
Heartbeat CPU  0 instr:  329000001 cyc:  407366622 curr IPC: 1.23602 AVG IPC: 0.80480 (Sim:0h23m8s) 
Heartbeat CPU  0 instr:  330000000 cyc:  408175161 curr IPC: 1.23680 AVG IPC: 0.80566 (Sim:0h23m10s) 
Heartbeat CPU  0 instr:  331000001 cyc:  408934125 curr IPC: 1.31759 AVG IPC: 0.80661 (Sim:0h23m12s) 
Heartbeat CPU  0 instr:  332000000 cyc:  409731806 curr IPC: 1.25363 AVG IPC: 0.80748 (Sim:0h23m14s) 
Heartbeat CPU  0 instr:  333000001 cyc:  410560542 curr IPC: 1.20666 AVG IPC: 0.80829 (Sim:0h23m17s) 
Heartbeat CPU  0 instr:  334000002 cyc:  411348653 curr IPC: 1.26886 AVG IPC: 0.80918 (Sim:0h23m19s) 
Heartbeat CPU  0 instr:  335000001 cyc:  412125600 curr IPC: 1.28709 AVG IPC: 0.81008 (Sim:0h23m21s) 
Heartbeat CPU  0 instr:  336000000 cyc:  412926495 curr IPC: 1.24860 AVG IPC: 0.81093 (Sim:0h23m23s) 
Heartbeat CPU  0 instr:  337000001 cyc:  413722746 curr IPC: 1.25589 AVG IPC: 0.81179 (Sim:0h23m25s) 
Heartbeat CPU  0 instr:  338000001 cyc:  414517172 curr IPC: 1.25877 AVG IPC: 0.81265 (Sim:0h23m27s) 
Heartbeat CPU  0 instr:  339000000 cyc:  415178515 curr IPC: 1.51207 AVG IPC: 0.81377 (Sim:0h23m29s) 
Heartbeat CPU  0 instr:  340000000 cyc:  415616836 curr IPC: 2.28143 AVG IPC: 0.81532 (Sim:0h23m31s) 
Heartbeat CPU  0 instr:  341000000 cyc:  416027871 curr IPC: 2.43288 AVG IPC: 0.81692 (Sim:0h23m31s) 
Heartbeat CPU  0 instr:  342000001 cyc:  416705784 curr IPC: 1.47512 AVG IPC: 0.81799 (Sim:0h23m32s) 
Heartbeat CPU  0 instr:  343000000 cyc:  417568381 curr IPC: 1.15929 AVG IPC: 0.81870 (Sim:0h23m34s) 
Heartbeat CPU  0 instr:  344000000 cyc:  418326363 curr IPC: 1.31929 AVG IPC: 0.81961 (Sim:0h23m36s) 
Heartbeat CPU  0 instr:  345000002 cyc:  419111477 curr IPC: 1.27370 AVG IPC: 0.82046 (Sim:0h23m37s) 
Heartbeat CPU  0 instr:  346000001 cyc:  419895621 curr IPC: 1.27527 AVG IPC: 0.82131 (Sim:0h23m39s) 
Heartbeat CPU  0 instr:  347000000 cyc:  420687852 curr IPC: 1.26226 AVG IPC: 0.82215 (Sim:0h23m40s) 
Heartbeat CPU  0 instr:  348000000 cyc:  421479082 curr IPC: 1.26385 AVG IPC: 0.82298 (Sim:0h23m42s) 
Heartbeat CPU  0 instr:  349000000 cyc:  422274202 curr IPC: 1.25767 AVG IPC: 0.82380 (Sim:0h23m43s) 
Heartbeat CPU  0 instr:  350000003 cyc:  423071954 curr IPC: 1.25353 AVG IPC: 0.82461 (Sim:0h23m45s) 
Heartbeat CPU  0 instr:  351000003 cyc:  423859768 curr IPC: 1.26934 AVG IPC: 0.82544 (Sim:0h23m46s) 
Heartbeat CPU  0 instr:  352000000 cyc:  424649708 curr IPC: 1.26592 AVG IPC: 0.82626 (Sim:0h23m48s) 
Finished CPU 0 instr: 350000002 cyc: 423595363 AVG IPC: 0.82626 (Sim time: 0h23m48s

ChampSim completed all CPUs

[ROI Statistics]
Core_0_instructions 350000002
Core_0_cycles 423595363
Core_0_IPC 0.82626

Core_0_branch_prediction_accuracy 98.12358
Core_0_branch_MPKI 0.51152
Core_0_average_ROB_occupancy_at_mispredict 208.27868

Core_0_L1D_total_access 219022183
Core_0_L1D_total_hit 180807911 L1D_total_Hit Ratio: 0.82552
Core_0_L1D_total_miss 38214272
Core_0_L1D_loads 84834779
Core_0_L1D_load_hit 71657420 L1D_load_Hit Ratio: 0.84467
Core_0_L1D_load_miss 13177359
Core_0_L1D_RFOs 6495813
Core_0_L1D_RFO_hit 5389221 L1D_RFO_Hit Ratio: 0.82965
Core_0_L1D_RFO_miss 1106592
Core_0_L1D_prefetches 127691591
Core_0_L1D_prefetch_hit 103761270 L1D_prefetch_Hit Ratio: 0.81259
Core_0_L1D_prefetch_miss 23930321
Core_0_L1D_writebacks 0
Core_0_L1D_writeback_hit 0 L1D_writeback_Hit Ratio: -nan
Core_0_L1D_writeback_miss 0
Core_0_L1D_prefetch_requested 258529638
Core_0_L1D_prefetch_issued 139675566
Core_0_L1D_prefetch_useful 8477606 L1D_Total_Hit Ratio: 0.06069
Core_0_L1D_prefetch_useless 15536556
Core_0_L1D_prefetch_late 1045094
Core_0_L1D_average_miss_latency 5323158.06344

Core_0_L1I_total_access 112029467
Core_0_L1I_total_hit 112020056 L1I_total_Hit Ratio: 0.99992
Core_0_L1I_total_miss 9411
Core_0_L1I_loads 112029467
Core_0_L1I_load_hit 112020056 L1I_load_Hit Ratio: 0.99992
Core_0_L1I_load_miss 9411
Core_0_L1I_RFOs 0
Core_0_L1I_RFO_hit 0 L1I_RFO_Hit Ratio: -nan
Core_0_L1I_RFO_miss 0
Core_0_L1I_prefetches 0
Core_0_L1I_prefetch_hit 0 L1I_prefetch_Hit Ratio: -nan
Core_0_L1I_prefetch_miss 0
Core_0_L1I_writebacks 0
Core_0_L1I_writeback_hit 0 L1I_writeback_Hit Ratio: -nan
Core_0_L1I_writeback_miss 0
Core_0_L1I_prefetch_requested 0
Core_0_L1I_prefetch_issued 0
Core_0_L1I_prefetch_useful 0 L1I_Total_Hit Ratio: -nan
Core_0_L1I_prefetch_useless 0
Core_0_L1I_prefetch_late 0
Core_0_L1I_average_miss_latency 217.15493

Core_0_L2C_total_access 66169024
Core_0_L2C_total_hit 57286593 L2C_total_Hit Ratio: 0.86576
Core_0_L2C_total_miss 8882431
Core_0_L2C_loads 12143156
Core_0_L2C_load_hit 11120849 L2C_load_Hit Ratio: 0.91581
Core_0_L2C_load_miss 1022307
Core_0_L2C_RFOs 1103455
Core_0_L2C_RFO_hit 580900 L2C_RFO_Hit Ratio: 0.52644
Core_0_L2C_RFO_miss 522555
Core_0_L2C_prefetches 50855036
Core_0_L2C_prefetch_hit 43517603 L2C_prefetch_Hit Ratio: 0.85572
Core_0_L2C_prefetch_miss 7337433
Core_0_L2C_writebacks 2067377
Core_0_L2C_writeback_hit 2067241 L2C_writeback_Hit Ratio: 0.99993
Core_0_L2C_writeback_miss 136
Core_0_L2C_prefetch_requested 67952414
Core_0_L2C_prefetch_issued 29767267
Core_0_L2C_prefetch_useful 2097471 L2C_Total_Hit Ratio: 0.07046
Core_0_L2C_prefetch_useless 5281474
Core_0_L2C_prefetch_late 7941
Core_0_L2C_average_miss_latency 201.89664

Core_0_LLC_total_access 10829112
Core_0_LLC_total_hit 5835844 LLC_total_Hit Ratio: 0.53890
Core_0_LLC_total_miss 4993268
Core_0_LLC_loads 1014477
Core_0_LLC_load_hit 327730 LLC_load_Hit Ratio: 0.32305
Core_0_LLC_load_miss 686747
Core_0_LLC_RFOs 522444
Core_0_LLC_RFO_hit 2434 LLC_RFO_Hit Ratio: 0.00466
Core_0_LLC_RFO_miss 520010
Core_0_LLC_prefetches 7586273
Core_0_LLC_prefetch_hit 3800047 LLC_prefetch_Hit Ratio: 0.50091
Core_0_LLC_prefetch_miss 3786226
Core_0_LLC_writebacks 1705918
Core_0_LLC_writeback_hit 1705633 LLC_writeback_Hit Ratio: 0.99983
Core_0_LLC_writeback_miss 285
Core_0_LLC_prefetch_requested 0
Core_0_LLC_prefetch_issued 0
Core_0_LLC_prefetch_useful 85151 LLC_Total_Hit Ratio: inf
Core_0_LLC_prefetch_useless 3718276
Core_0_LLC_prefetch_late 1089
Core_0_LLC_average_miss_latency 318.87326

Core_0_major_page_fault 0
Core_0_minor_page_fault 18565

CPU 0 L1D next line prefetcher final stats
CPU 0 L2C PC-based stride prefetcher final stats
Hit Total: 0 Coverage: inf%
 		NxtLine: 0 	Stride: 0 	Markov: 0
Hit Ratio: 	NxtLine: -nan% 	Stride: -nan% 	Markov: -nan%
Accuracy : 	NxtLine: -nan% 	Stride: -nan% 	Markov: -nan%



MissHit203651MissCnt6709556 3.03524%
Channel_0_RQ_row_buffer_hit 1984031
Channel_0_RQ_row_buffer_miss 3008935
Channel_0_WQ_row_buffer_hit 414045
Channel_0_WQ_row_buffer_miss 1265649
Channel_0_WQ_full 0
Channel_0_dbus_congested 3931583

avg_congested_cycle 10
*************************************************
   ChampSim Multicore Out-of-Order Simulator
   Last compiled: Sep  3 2024 00:55:25
*************************************************

trace_0 ./LLM_Traces/2B_Traces_SelfAttention_Phythia-70M-Seq1024-07-08-0125.champsim.xz
CPU 0 L1D next line prefetcher
Markov Talbe Size: 33 Markov Confidence: 3%
Stride Size: 32 Prefetch Degree: 20

CPU 0 L2C prefetcher
warmup_instructions 2000000
simulation_instructions 350000000
champsim_seed 200

num_cpus 1
cpu_freq 4000
dram_io_freq 2400
page_size 4096
block_size 64
max_read_per_cycle 8
max_fill_per_cycle 1
dram_channels 1
dram_ranks 1
dram_banks 8
dram_rows 65536
dram_columns 128
dram_row_size 8
dram_size 4096
dram_pages 1048576

fetch_width 6
decode_width 6
exec_width 4
lq_width 2
sq_width 2
retire_width 4
scheduler_size 128
branch_mispredict_penalty 20
rob_size 256
lq_size 72
sq_size 56
num_instr_destinations_sparc 4
num_instr_destinations 2
num_instr_sources 4

itlb_set 16
itlb_way 8
itlb_rq_size 16
itlb_wq_size 16
itlb_pq_size 0
itlb_mshr_size 8
itlb_latency 1

dtlb_set 16
dtlb_way 4
dtlb_rq_size 16
dtlb_wq_size 16
dtlb_pq_size 0
dtlb_mshr_size 8
dtlb_latency 1

stlb_set 128
stlb_way 12
stlb_rq_size 32
stlb_wq_size 32
stlb_pq_size 0
stlb_mshr_size 16
stlb_latency 8

l1i_size 32
l1i_set 64
l1i_way 8
l1i_rq_size 64
l1i_wq_size 64
l1i_pq_size 8
l1i_mshr_size 8
l1i_latency 1

l1d_size 32
l1d_set 64
l1d_way 8
l1d_rq_size 64
l1d_wq_size 64
l1d_pq_size 8
l1d_mshr_size 16
l1d_latency 4

l2c_size 512
l2c_set 1024
l2c_way 8
l2c_rq_size 32
l2c_wq_size 32
l2c_pq_size 16
l2c_mshr_size 32
l2c_latency 10

llc_size 2048
llc_set 2048
llc_way 16
llc_rq_size 32
llc_wq_size 32
llc_pq_size 32
llc_mshr_size 64
llc_latency 20

dram_channel_width 8
dram_wq_size 64
dram_rq_size 64
tRP 15
tRCD 15
tCAS 12.5
dram_dbus_turn_around_time 30
dram_write_high_wm 56
dram_write_low_wm 48
min_dram_writes_per_switch 16
dram_mtps 2400
dram_dbus_return_time 13


CPU 0 L2C prefetcher initialized


Cache Size: 512
number of cache lines: 8192
MSHR Occupancy: 0
MSHR Occupancy: 0
MSHR Occupancy: 0
MSHR Occupancy: 0
Heartbeat CPU  0 instr:    1000001 cyc:     474495 curr IPC: 2.10751 AVG IPC: 2.10751 (Sim:0h0m1s) 
MSHR Occupancy: 0
MSHR Occupancy: 0
MSHR Occupancy: 0
MSHR Occupancy: 0
MSHR Occupancy: 0
MSHR Occupancy: 0
Heartbeat CPU  0 instr:    2000000 cyc:    1054352 curr IPC: 1.72456 AVG IPC: 1.89690 (Sim:0h0m3s) 

Warmup complete CPU  0 instructions:    2000002 cycles:    1054353 (Simulation time: 0 hr 0 min 3 sec) 

MSHR Occupancy: 0
MSHR Occupancy: 3
MSHR Occupancy: 2
MSHR Occupancy: 2
MSHR Occupancy: 2
MSHR Occupancy: 2
Heartbeat CPU  0 instr:    3000001 cyc:    2104025 curr IPC: 0.95268 AVG IPC: 0.95268 (Sim:0h0m5s) 
MSHR Occupancy: 2
MSHR Occupancy: 2
MSHR Occupancy: 2
MSHR Occupancy: 2
MSHR Occupancy: 3
MSHR Occupancy: 2
Heartbeat CPU  0 instr:    4000000 cyc:    3190647 curr IPC: 0.92028 AVG IPC: 0.93620 (Sim:0h0m7s) 
MSHR Occupancy: 2
MSHR Occupancy: 2
MSHR Occupancy: 2
MSHR Occupancy: 2
MSHR Occupancy: 2
Heartbeat CPU  0 instr:    5000002 cyc:    4265944 curr IPC: 0.92998 AVG IPC: 0.93412 (Sim:0h0m9s) 
MSHR Occupancy: 2
MSHR Occupancy: 2
MSHR Occupancy: 2
MSHR Occupancy: 2
MSHR Occupancy: 2
MSHR Occupancy: 2
Heartbeat CPU  0 instr:    6000001 cyc:    5343242 curr IPC: 0.92825 AVG IPC: 0.93264 (Sim:0h0m11s) 
MSHR Occupancy: 2
MSHR Occupancy: 2
MSHR Occupancy: 2
MSHR Occupancy: 2
MSHR Occupancy: 2
MSHR Occupancy: 2
Heartbeat CPU  0 instr:    7000002 cyc:    6426205 curr IPC: 0.92339 AVG IPC: 0.93078 (Sim:0h0m13s) 
MSHR Occupancy: 2
MSHR Occupancy: 2
MSHR Occupancy: 2
MSHR Occupancy: 2
MSHR Occupancy: 3
MSHR Occupancy: 2
Heartbeat CPU  0 instr:    8000000 cyc:    7518841 curr IPC: 0.91522 AVG IPC: 0.92815 (Sim:0h0m15s) 
MSHR Occupancy: 2
MSHR Occupancy: 2
MSHR Occupancy: 2
MSHR Occupancy: 2
MSHR Occupancy: 3
Heartbeat CPU  0 instr:    9000003 cyc:    8622949 curr IPC: 0.90571 AVG IPC: 0.92487 (Sim:0h0m17s) 
MSHR Occupancy: 2
MSHR Occupancy: 2
MSHR Occupancy: 2
MSHR Occupancy: 2
MSHR Occupancy: 2
MSHR Occupancy: 3
Heartbeat CPU  0 instr:   10000003 cyc:    9721423 curr IPC: 0.91035 AVG IPC: 0.92303 (Sim:0h0m19s) 
MSHR Occupancy: 3
MSHR Occupancy: 2
MSHR Occupancy: 2
MSHR Occupancy: 3
MSHR Occupancy: 2
Heartbeat CPU  0 instr:   11000000 cyc:   10814269 curr IPC: 0.91504 AVG IPC: 0.92214 (Sim:0h0m21s) 
MSHR Occupancy: 2
MSHR Occupancy: 3
MSHR Occupancy: 2
MSHR Occupancy: 2
MSHR Occupancy: 3
MSHR Occupancy: 2
Heartbeat CPU  0 instr:   12000000 cyc:   11929379 curr IPC: 0.89677 AVG IPC: 0.91954 (Sim:0h0m23s) 
MSHR Occupancy: 2
MSHR Occupancy: 2
MSHR Occupancy: 2
MSHR Occupancy: 2
MSHR Occupancy: 2
MSHR Occupancy: 2
Heartbeat CPU  0 instr:   13000002 cyc:   13035592 curr IPC: 0.90399 AVG IPC: 0.91810 (Sim:0h0m25s) 
MSHR Occupancy: 2
Caught signal: 2
