*************************************************
   ChampSim Multicore Out-of-Order Simulator
   Last compiled: Aug 15 2024 23:17:28
*************************************************

trace_0 ./LLM_Traces/2B_Traces_SelfAttention_Phythia-70M-Seq1024-07-08-0125.champsim.xz
CPU 0 L2C next line prefetcher initialized
warmup_instructions 2000000
simulation_instructions 350000000
champsim_seed 200

num_cpus 1
cpu_freq 4000
dram_io_freq 2400
page_size 4096
block_size 64
max_read_per_cycle 8
max_fill_per_cycle 1
dram_channels 1
dram_ranks 1
dram_banks 8
dram_rows 65536
dram_columns 128
dram_row_size 8
dram_size 4096
dram_pages 1048576

fetch_width 6
decode_width 6
exec_width 4
lq_width 2
sq_width 2
retire_width 4
scheduler_size 128
branch_mispredict_penalty 20
rob_size 256
lq_size 72
sq_size 56
num_instr_destinations_sparc 4
num_instr_destinations 2
num_instr_sources 4

itlb_set 16
itlb_way 8
itlb_rq_size 16
itlb_wq_size 16
itlb_pq_size 0
itlb_mshr_size 8
itlb_latency 1

dtlb_set 16
dtlb_way 4
dtlb_rq_size 16
dtlb_wq_size 16
dtlb_pq_size 0
dtlb_mshr_size 8
dtlb_latency 1

stlb_set 128
stlb_way 12
stlb_rq_size 32
stlb_wq_size 32
stlb_pq_size 0
stlb_mshr_size 16
stlb_latency 8

l1i_size 32
l1i_set 64
l1i_way 8
l1i_rq_size 64
l1i_wq_size 64
l1i_pq_size 8
l1i_mshr_size 8
l1i_latency 1

l1d_size 32
l1d_set 64
l1d_way 8
l1d_rq_size 64
l1d_wq_size 64
l1d_pq_size 8
l1d_mshr_size 16
l1d_latency 4

l2c_size 512
l2c_set 1024
l2c_way 8
l2c_rq_size 32
l2c_wq_size 32
l2c_pq_size 16
l2c_mshr_size 32
l2c_latency 10

llc_size 2048
llc_set 2048
llc_way 16
llc_rq_size 32
llc_wq_size 32
llc_pq_size 32
llc_mshr_size 64
llc_latency 20

dram_channel_width 8
dram_wq_size 64
dram_rq_size 64
tRP 15
tRCD 15
tCAS 12.5
dram_dbus_turn_around_time 30
dram_write_high_wm 56
dram_write_low_wm 48
min_dram_writes_per_switch 16
dram_mtps 2400
dram_dbus_return_time 13


Heartbeat CPU  0 instructions:    1000001 cycles:     467764 heartbeat IPC: 2.13783 cumulative IPC: 2.13783 (Simulation time: 0 hr 0 min 2 sec) 
Heartbeat CPU  0 instructions:    2000000 cycles:    1041997 heartbeat IPC: 1.74145 cumulative IPC: 1.91939 (Simulation time: 0 hr 0 min 6 sec) 

Warmup complete CPU  0 instructions:    2000002 cycles:    1041998 (Simulation time: 0 hr 0 min 6 sec) 

Heartbeat CPU  0 instructions:    3000001 cycles:    2064993 heartbeat IPC: 0.97752 cumulative IPC: 0.97752 (Simulation time: 0 hr 0 min 11 sec) 
Heartbeat CPU  0 instructions:    4000000 cycles:    3124808 heartbeat IPC: 0.94356 cumulative IPC: 0.96024 (Simulation time: 0 hr 0 min 15 sec) 
Heartbeat CPU  0 instructions:    5000002 cycles:    4182098 heartbeat IPC: 0.94582 cumulative IPC: 0.95538 (Simulation time: 0 hr 0 min 19 sec) 
Heartbeat CPU  0 instructions:    6000001 cycles:    5241136 heartbeat IPC: 0.94425 cumulative IPC: 0.95258 (Simulation time: 0 hr 0 min 24 sec) 
Heartbeat CPU  0 instructions:    7000000 cycles:    6303035 heartbeat IPC: 0.94171 cumulative IPC: 0.95038 (Simulation time: 0 hr 0 min 30 sec) 
Heartbeat CPU  0 instructions:    8000000 cycles:    7372888 heartbeat IPC: 0.93471 cumulative IPC: 0.94773 (Simulation time: 0 hr 0 min 35 sec) 
Heartbeat CPU  0 instructions:    9000003 cycles:    8446414 heartbeat IPC: 0.93151 cumulative IPC: 0.94538 (Simulation time: 0 hr 0 min 41 sec) 
Heartbeat CPU  0 instructions:   10000003 cycles:    9518386 heartbeat IPC: 0.93286 cumulative IPC: 0.94380 (Simulation time: 0 hr 0 min 47 sec) 
Heartbeat CPU  0 instructions:   11000000 cycles:   10584638 heartbeat IPC: 0.93786 cumulative IPC: 0.94314 (Simulation time: 0 hr 0 min 52 sec) 
Heartbeat CPU  0 instructions:   12000000 cycles:   11664114 heartbeat IPC: 0.92638 cumulative IPC: 0.94143 (Simulation time: 0 hr 0 min 58 sec) 
Heartbeat CPU  0 instructions:   13000002 cycles:   12737393 heartbeat IPC: 0.93173 cumulative IPC: 0.94054 (Simulation time: 0 hr 1 min 7 sec) 
Heartbeat CPU  0 instructions:   14000002 cycles:   13791843 heartbeat IPC: 0.94836 cumulative IPC: 0.94119 (Simulation time: 0 hr 1 min 17 sec) 
Heartbeat CPU  0 instructions:   15000001 cycles:   14857220 heartbeat IPC: 0.93863 cumulative IPC: 0.94099 (Simulation time: 0 hr 1 min 27 sec) 
Heartbeat CPU  0 instructions:   16000000 cycles:   15924191 heartbeat IPC: 0.93723 cumulative IPC: 0.94072 (Simulation time: 0 hr 1 min 38 sec) 
Heartbeat CPU  0 instructions:   17000001 cycles:   16997851 heartbeat IPC: 0.93139 cumulative IPC: 0.94009 (Simulation time: 0 hr 1 min 48 sec) 
Heartbeat CPU  0 instructions:   18000003 cycles:   18082769 heartbeat IPC: 0.92173 cumulative IPC: 0.93892 (Simulation time: 0 hr 1 min 58 sec) 
Heartbeat CPU  0 instructions:   19000003 cycles:   19159341 heartbeat IPC: 0.92887 cumulative IPC: 0.93833 (Simulation time: 0 hr 2 min 7 sec) 
Heartbeat CPU  0 instructions:   20000000 cycles:   20242223 heartbeat IPC: 0.92346 cumulative IPC: 0.93749 (Simulation time: 0 hr 2 min 15 sec) 
Heartbeat CPU  0 instructions:   21000001 cycles:   21307411 heartbeat IPC: 0.93880 cumulative IPC: 0.93756 (Simulation time: 0 hr 2 min 21 sec) 
Heartbeat CPU  0 instructions:   22000001 cycles:   22396225 heartbeat IPC: 0.91843 cumulative IPC: 0.93658 (Simulation time: 0 hr 2 min 29 sec) 
Heartbeat CPU  0 instructions:   23000002 cycles:   23464608 heartbeat IPC: 0.93599 cumulative IPC: 0.93655 (Simulation time: 0 hr 2 min 36 sec) 
Heartbeat CPU  0 instructions:   24000000 cycles:   24524163 heartbeat IPC: 0.94379 cumulative IPC: 0.93688 (Simulation time: 0 hr 2 min 41 sec) 
Heartbeat CPU  0 instructions:   25000000 cycles:   25557699 heartbeat IPC: 0.96755 cumulative IPC: 0.93817 (Simulation time: 0 hr 2 min 46 sec) 
Heartbeat CPU  0 instructions:   26000003 cycles:   26690806 heartbeat IPC: 0.88253 cumulative IPC: 0.93572 (Simulation time: 0 hr 2 min 52 sec) 
Heartbeat CPU  0 instructions:   27000003 cycles:   27757502 heartbeat IPC: 0.93747 cumulative IPC: 0.93579 (Simulation time: 0 hr 2 min 58 sec) 
Heartbeat CPU  0 instructions:   28000000 cycles:   28832063 heartbeat IPC: 0.93061 cumulative IPC: 0.93559 (Simulation time: 0 hr 3 min 3 sec) 
Heartbeat CPU  0 instructions:   29000000 cycles:   29902561 heartbeat IPC: 0.93414 cumulative IPC: 0.93553 (Simulation time: 0 hr 3 min 10 sec) 
Heartbeat CPU  0 instructions:   30000002 cycles:   30979680 heartbeat IPC: 0.92840 cumulative IPC: 0.93528 (Simulation time: 0 hr 3 min 17 sec) 
Heartbeat CPU  0 instructions:   31000001 cycles:   32036481 heartbeat IPC: 0.94625 cumulative IPC: 0.93565 (Simulation time: 0 hr 3 min 27 sec) 
Heartbeat CPU  0 instructions:   32000000 cycles:   33099628 heartbeat IPC: 0.94060 cumulative IPC: 0.93581 (Simulation time: 0 hr 3 min 37 sec) 
Heartbeat CPU  0 instructions:   33000001 cycles:   34176948 heartbeat IPC: 0.92823 cumulative IPC: 0.93557 (Simulation time: 0 hr 3 min 45 sec) 
Heartbeat CPU  0 instructions:   34000000 cycles:   35246996 heartbeat IPC: 0.93454 cumulative IPC: 0.93554 (Simulation time: 0 hr 3 min 53 sec) 
Heartbeat CPU  0 instructions:   35000003 cycles:   36320521 heartbeat IPC: 0.93151 cumulative IPC: 0.93541 (Simulation time: 0 hr 4 min 1 sec) 
Heartbeat CPU  0 instructions:   36000000 cycles:   37386992 heartbeat IPC: 0.93767 cumulative IPC: 0.93548 (Simulation time: 0 hr 4 min 10 sec) 
Heartbeat CPU  0 instructions:   37000000 cycles:   38446446 heartbeat IPC: 0.94388 cumulative IPC: 0.93572 (Simulation time: 0 hr 4 min 20 sec) 
Heartbeat CPU  0 instructions:   38000003 cycles:   39534941 heartbeat IPC: 0.91870 cumulative IPC: 0.93524 (Simulation time: 0 hr 4 min 31 sec) 
Heartbeat CPU  0 instructions:   39000003 cycles:   40606443 heartbeat IPC: 0.93327 cumulative IPC: 0.93518 (Simulation time: 0 hr 4 min 41 sec) 
Heartbeat CPU  0 instructions:   40000000 cycles:   41673496 heartbeat IPC: 0.93716 cumulative IPC: 0.93523 (Simulation time: 0 hr 4 min 52 sec) 
Heartbeat CPU  0 instructions:   41000002 cycles:   42774142 heartbeat IPC: 0.90856 cumulative IPC: 0.93453 (Simulation time: 0 hr 5 min 3 sec) 
Heartbeat CPU  0 instructions:   42000001 cycles:   43847115 heartbeat IPC: 0.93199 cumulative IPC: 0.93447 (Simulation time: 0 hr 5 min 14 sec) 
Heartbeat CPU  0 instructions:   43000001 cycles:   44930513 heartbeat IPC: 0.92302 cumulative IPC: 0.93419 (Simulation time: 0 hr 5 min 25 sec) 
Heartbeat CPU  0 instructions:   44000000 cycles:   46014520 heartbeat IPC: 0.92250 cumulative IPC: 0.93390 (Simulation time: 0 hr 5 min 35 sec) 
Heartbeat CPU  0 instructions:   45000002 cycles:   47087626 heartbeat IPC: 0.93188 cumulative IPC: 0.93386 (Simulation time: 0 hr 5 min 45 sec) 
Heartbeat CPU  0 instructions:   46000001 cycles:   48179275 heartbeat IPC: 0.91604 cumulative IPC: 0.93344 (Simulation time: 0 hr 5 min 56 sec) 
Heartbeat CPU  0 instructions:   47000001 cycles:   49268152 heartbeat IPC: 0.91838 cumulative IPC: 0.93310 (Simulation time: 0 hr 6 min 7 sec) 
Heartbeat CPU  0 instructions:   48000000 cycles:   50339392 heartbeat IPC: 0.93350 cumulative IPC: 0.93311 (Simulation time: 0 hr 6 min 16 sec) 
Heartbeat CPU  0 instructions:   49000000 cycles:   51419924 heartbeat IPC: 0.92547 cumulative IPC: 0.93295 (Simulation time: 0 hr 6 min 27 sec) 
Heartbeat CPU  0 instructions:   50000000 cycles:   52416225 heartbeat IPC: 1.00371 cumulative IPC: 0.93432 (Simulation time: 0 hr 6 min 40 sec) 
Heartbeat CPU  0 instructions:   51000000 cycles:   53348486 heartbeat IPC: 1.07266 cumulative IPC: 0.93679 (Simulation time: 0 hr 6 min 51 sec) 
Heartbeat CPU  0 instructions:   52000000 cycles:   54273310 heartbeat IPC: 1.08129 cumulative IPC: 0.93930 (Simulation time: 0 hr 7 min 5 sec) 
Heartbeat CPU  0 instructions:   53000002 cycles:   55200351 heartbeat IPC: 1.07870 cumulative IPC: 0.94168 (Simulation time: 0 hr 7 min 16 sec) 
Heartbeat CPU  0 instructions:   54000003 cycles:   56132232 heartbeat IPC: 1.07310 cumulative IPC: 0.94391 (Simulation time: 0 hr 7 min 30 sec) 
Heartbeat CPU  0 instructions:   55000001 cycles:   57070016 heartbeat IPC: 1.06634 cumulative IPC: 0.94596 (Simulation time: 0 hr 7 min 43 sec) 
Heartbeat CPU  0 instructions:   56000000 cycles:   58001621 heartbeat IPC: 1.07342 cumulative IPC: 0.94804 (Simulation time: 0 hr 7 min 54 sec) 
Heartbeat CPU  0 instructions:   57000000 cycles:   58939160 heartbeat IPC: 1.06662 cumulative IPC: 0.94996 (Simulation time: 0 hr 8 min 4 sec) 
Heartbeat CPU  0 instructions:   58000001 cycles:   59877036 heartbeat IPC: 1.06624 cumulative IPC: 0.95181 (Simulation time: 0 hr 8 min 16 sec) 
Heartbeat CPU  0 instructions:   59000001 cycles:   60803325 heartbeat IPC: 1.07958 cumulative IPC: 0.95379 (Simulation time: 0 hr 8 min 29 sec) 
Heartbeat CPU  0 instructions:   60000000 cycles:   61724712 heartbeat IPC: 1.08532 cumulative IPC: 0.95579 (Simulation time: 0 hr 8 min 41 sec) 
Heartbeat CPU  0 instructions:   61000001 cycles:   62645955 heartbeat IPC: 1.08549 cumulative IPC: 0.95773 (Simulation time: 0 hr 8 min 52 sec) 
Heartbeat CPU  0 instructions:   62000001 cycles:   63565260 heartbeat IPC: 1.08778 cumulative IPC: 0.95964 (Simulation time: 0 hr 9 min 3 sec) 
Heartbeat CPU  0 instructions:   63000000 cycles:   64490914 heartbeat IPC: 1.08032 cumulative IPC: 0.96140 (Simulation time: 0 hr 9 min 14 sec) 
Heartbeat CPU  0 instructions:   64000000 cycles:   65402363 heartbeat IPC: 1.09715 cumulative IPC: 0.96333 (Simulation time: 0 hr 9 min 26 sec) 
Heartbeat CPU  0 instructions:   65000003 cycles:   66301394 heartbeat IPC: 1.11231 cumulative IPC: 0.96538 (Simulation time: 0 hr 9 min 36 sec) 
Heartbeat CPU  0 instructions:   66000000 cycles:   67432551 heartbeat IPC: 0.88405 cumulative IPC: 0.96399 (Simulation time: 0 hr 9 min 46 sec) 
Heartbeat CPU  0 instructions:   67000001 cycles:   68504408 heartbeat IPC: 0.93296 cumulative IPC: 0.96350 (Simulation time: 0 hr 9 min 58 sec) 
Heartbeat CPU  0 instructions:   68000000 cycles:   69551989 heartbeat IPC: 0.95458 cumulative IPC: 0.96336 (Simulation time: 0 hr 10 min 9 sec) 
Heartbeat CPU  0 instructions:   69000001 cycles:   70606564 heartbeat IPC: 0.94825 cumulative IPC: 0.96313 (Simulation time: 0 hr 10 min 21 sec) 
Heartbeat CPU  0 instructions:   70000001 cycles:   71664084 heartbeat IPC: 0.94561 cumulative IPC: 0.96287 (Simulation time: 0 hr 10 min 31 sec) 
Heartbeat CPU  0 instructions:   71000003 cycles:   72693571 heartbeat IPC: 0.97136 cumulative IPC: 0.96299 (Simulation time: 0 hr 10 min 43 sec) 
Heartbeat CPU  0 instructions:   72000000 cycles:   73735942 heartbeat IPC: 0.95935 cumulative IPC: 0.96294 (Simulation time: 0 hr 10 min 56 sec) 
Heartbeat CPU  0 instructions:   73000001 cycles:   74800678 heartbeat IPC: 0.93920 cumulative IPC: 0.96260 (Simulation time: 0 hr 11 min 10 sec) 
Heartbeat CPU  0 instructions:   74000001 cycles:   75868028 heartbeat IPC: 0.93690 cumulative IPC: 0.96223 (Simulation time: 0 hr 11 min 25 sec) 
Heartbeat CPU  0 instructions:   75000001 cycles:   76935920 heartbeat IPC: 0.93642 cumulative IPC: 0.96187 (Simulation time: 0 hr 11 min 37 sec) 
Heartbeat CPU  0 instructions:   76000000 cycles:   77993138 heartbeat IPC: 0.94588 cumulative IPC: 0.96165 (Simulation time: 0 hr 11 min 49 sec) 
Heartbeat CPU  0 instructions:   77000000 cycles:   79045912 heartbeat IPC: 0.94987 cumulative IPC: 0.96149 (Simulation time: 0 hr 12 min 0 sec) 
Heartbeat CPU  0 instructions:   78000002 cycles:   80098884 heartbeat IPC: 0.94969 cumulative IPC: 0.96133 (Simulation time: 0 hr 12 min 10 sec) 
Heartbeat CPU  0 instructions:   79000001 cycles:   81153725 heartbeat IPC: 0.94801 cumulative IPC: 0.96116 (Simulation time: 0 hr 12 min 22 sec) 
Heartbeat CPU  0 instructions:   80000000 cycles:   82193619 heartbeat IPC: 0.96164 cumulative IPC: 0.96116 (Simulation time: 0 hr 12 min 34 sec) 
Heartbeat CPU  0 instructions:   81000000 cycles:   83255187 heartbeat IPC: 0.94200 cumulative IPC: 0.96092 (Simulation time: 0 hr 12 min 45 sec) 
Heartbeat CPU  0 instructions:   82000000 cycles:   84334352 heartbeat IPC: 0.92664 cumulative IPC: 0.96047 (Simulation time: 0 hr 12 min 57 sec) 
Heartbeat CPU  0 instructions:   83000003 cycles:   85423499 heartbeat IPC: 0.91815 cumulative IPC: 0.95993 (Simulation time: 0 hr 13 min 8 sec) 
Heartbeat CPU  0 instructions:   84000000 cycles:   86504406 heartbeat IPC: 0.92515 cumulative IPC: 0.95949 (Simulation time: 0 hr 13 min 19 sec) 
Heartbeat CPU  0 instructions:   85000003 cycles:   87571106 heartbeat IPC: 0.93747 cumulative IPC: 0.95921 (Simulation time: 0 hr 13 min 30 sec) 
Heartbeat CPU  0 instructions:   86000001 cycles:   88637128 heartbeat IPC: 0.93807 cumulative IPC: 0.95896 (Simulation time: 0 hr 13 min 41 sec) 
Heartbeat CPU  0 instructions:   87000001 cycles:   89718322 heartbeat IPC: 0.92490 cumulative IPC: 0.95854 (Simulation time: 0 hr 13 min 51 sec) 
Heartbeat CPU  0 instructions:   88000000 cycles:   90783210 heartbeat IPC: 0.93906 cumulative IPC: 0.95831 (Simulation time: 0 hr 14 min 2 sec) 
Heartbeat CPU  0 instructions:   89000002 cycles:   91846407 heartbeat IPC: 0.94056 cumulative IPC: 0.95810 (Simulation time: 0 hr 14 min 12 sec) 
Heartbeat CPU  0 instructions:   90000002 cycles:   92869550 heartbeat IPC: 0.97738 cumulative IPC: 0.95832 (Simulation time: 0 hr 14 min 20 sec) 
Heartbeat CPU  0 instructions:   91000001 cycles:   93949553 heartbeat IPC: 0.92592 cumulative IPC: 0.95794 (Simulation time: 0 hr 14 min 30 sec) 
Heartbeat CPU  0 instructions:   92000000 cycles:   95023072 heartbeat IPC: 0.93151 cumulative IPC: 0.95764 (Simulation time: 0 hr 14 min 40 sec) 
Heartbeat CPU  0 instructions:   93000000 cycles:   96097607 heartbeat IPC: 0.93064 cumulative IPC: 0.95733 (Simulation time: 0 hr 14 min 50 sec) 
Heartbeat CPU  0 instructions:   94000000 cycles:   97151583 heartbeat IPC: 0.94879 cumulative IPC: 0.95724 (Simulation time: 0 hr 15 min 0 sec) 
Heartbeat CPU  0 instructions:   95000000 cycles:   98206964 heartbeat IPC: 0.94753 cumulative IPC: 0.95714 (Simulation time: 0 hr 15 min 10 sec) 
Heartbeat CPU  0 instructions:   96000000 cycles:   99275737 heartbeat IPC: 0.93565 cumulative IPC: 0.95690 (Simulation time: 0 hr 15 min 19 sec) 
Heartbeat CPU  0 instructions:   97000002 cycles:  100329691 heartbeat IPC: 0.94881 cumulative IPC: 0.95682 (Simulation time: 0 hr 15 min 29 sec) 
Heartbeat CPU  0 instructions:   98000000 cycles:  101405033 heartbeat IPC: 0.92993 cumulative IPC: 0.95653 (Simulation time: 0 hr 15 min 39 sec) 
Heartbeat CPU  0 instructions:   99000000 cycles:  102467899 heartbeat IPC: 0.94085 cumulative IPC: 0.95636 (Simulation time: 0 hr 15 min 50 sec) 
Heartbeat CPU  0 instructions:  100000000 cycles:  103547789 heartbeat IPC: 0.92602 cumulative IPC: 0.95604 (Simulation time: 0 hr 16 min 0 sec) 
Heartbeat CPU  0 instructions:  101000001 cycles:  104619120 heartbeat IPC: 0.93342 cumulative IPC: 0.95581 (Simulation time: 0 hr 16 min 9 sec) 
Heartbeat CPU  0 instructions:  102000003 cycles:  105686862 heartbeat IPC: 0.93656 cumulative IPC: 0.95561 (Simulation time: 0 hr 16 min 20 sec) 
Heartbeat CPU  0 instructions:  103000001 cycles:  106761606 heartbeat IPC: 0.93045 cumulative IPC: 0.95536 (Simulation time: 0 hr 16 min 31 sec) 
Heartbeat CPU  0 instructions:  104000000 cycles:  107815560 heartbeat IPC: 0.94881 cumulative IPC: 0.95529 (Simulation time: 0 hr 16 min 42 sec) 
Heartbeat CPU  0 instructions:  105000001 cycles:  108890402 heartbeat IPC: 0.93037 cumulative IPC: 0.95504 (Simulation time: 0 hr 17 min 1 sec) 
Heartbeat CPU  0 instructions:  106000000 cycles:  109956794 heartbeat IPC: 0.93774 cumulative IPC: 0.95487 (Simulation time: 0 hr 17 min 17 sec) 
Heartbeat CPU  0 instructions:  107000001 cycles:  111036016 heartbeat IPC: 0.92659 cumulative IPC: 0.95460 (Simulation time: 0 hr 17 min 33 sec) 
Heartbeat CPU  0 instructions:  108000000 cycles:  112114148 heartbeat IPC: 0.92753 cumulative IPC: 0.95433 (Simulation time: 0 hr 17 min 47 sec) 
Heartbeat CPU  0 instructions:  109000000 cycles:  113212968 heartbeat IPC: 0.91007 cumulative IPC: 0.95390 (Simulation time: 0 hr 18 min 0 sec) 
Heartbeat CPU  0 instructions:  110000002 cycles:  114295373 heartbeat IPC: 0.92387 cumulative IPC: 0.95361 (Simulation time: 0 hr 18 min 14 sec) 
Heartbeat CPU  0 instructions:  111000002 cycles:  115380687 heartbeat IPC: 0.92139 cumulative IPC: 0.95331 (Simulation time: 0 hr 18 min 26 sec) 
Heartbeat CPU  0 instructions:  112000000 cycles:  116433114 heartbeat IPC: 0.95018 cumulative IPC: 0.95328 (Simulation time: 0 hr 18 min 39 sec) 
Heartbeat CPU  0 instructions:  113000000 cycles:  117490756 heartbeat IPC: 0.94550 cumulative IPC: 0.95321 (Simulation time: 0 hr 18 min 50 sec) 
Heartbeat CPU  0 instructions:  114000000 cycles:  118522317 heartbeat IPC: 0.96940 cumulative IPC: 0.95335 (Simulation time: 0 hr 19 min 0 sec) 
Heartbeat CPU  0 instructions:  115000002 cycles:  119439344 heartbeat IPC: 1.09048 cumulative IPC: 0.95441 (Simulation time: 0 hr 19 min 11 sec) 
Heartbeat CPU  0 instructions:  116000000 cycles:  120359404 heartbeat IPC: 1.08688 cumulative IPC: 0.95543 (Simulation time: 0 hr 19 min 22 sec) 
Heartbeat CPU  0 instructions:  117000000 cycles:  121273060 heartbeat IPC: 1.09450 cumulative IPC: 0.95649 (Simulation time: 0 hr 19 min 33 sec) 
Heartbeat CPU  0 instructions:  118000003 cycles:  122192167 heartbeat IPC: 1.08802 cumulative IPC: 0.95749 (Simulation time: 0 hr 19 min 45 sec) 
Heartbeat CPU  0 instructions:  119000001 cycles:  123111946 heartbeat IPC: 1.08722 cumulative IPC: 0.95847 (Simulation time: 0 hr 19 min 57 sec) 
Heartbeat CPU  0 instructions:  120000000 cycles:  124025750 heartbeat IPC: 1.09433 cumulative IPC: 0.95948 (Simulation time: 0 hr 20 min 8 sec) 
Heartbeat CPU  0 instructions:  121000001 cycles:  124940624 heartbeat IPC: 1.09305 cumulative IPC: 0.96046 (Simulation time: 0 hr 20 min 19 sec) 
Heartbeat CPU  0 instructions:  122000000 cycles:  125848284 heartbeat IPC: 1.10173 cumulative IPC: 0.96149 (Simulation time: 0 hr 20 min 29 sec) 
Heartbeat CPU  0 instructions:  123000003 cycles:  126746464 heartbeat IPC: 1.11337 cumulative IPC: 0.96258 (Simulation time: 0 hr 20 min 41 sec) 
Heartbeat CPU  0 instructions:  124000000 cycles:  127646183 heartbeat IPC: 1.11145 cumulative IPC: 0.96363 (Simulation time: 0 hr 20 min 52 sec) 
Heartbeat CPU  0 instructions:  125000003 cycles:  128546006 heartbeat IPC: 1.11133 cumulative IPC: 0.96468 (Simulation time: 0 hr 21 min 4 sec) 
Heartbeat CPU  0 instructions:  126000003 cycles:  129454780 heartbeat IPC: 1.10038 cumulative IPC: 0.96564 (Simulation time: 0 hr 21 min 16 sec) 
Heartbeat CPU  0 instructions:  127000002 cycles:  130359958 heartbeat IPC: 1.10475 cumulative IPC: 0.96661 (Simulation time: 0 hr 21 min 28 sec) 
Heartbeat CPU  0 instructions:  128000000 cycles:  131264925 heartbeat IPC: 1.10501 cumulative IPC: 0.96757 (Simulation time: 0 hr 21 min 40 sec) 
Heartbeat CPU  0 instructions:  129000000 cycles:  132160566 heartbeat IPC: 1.11652 cumulative IPC: 0.96859 (Simulation time: 0 hr 21 min 52 sec) 
Heartbeat CPU  0 instructions:  130000000 cycles:  132714328 heartbeat IPC: 1.80583 cumulative IPC: 0.97211 (Simulation time: 0 hr 21 min 56 sec) 
Heartbeat CPU  0 instructions:  131000000 cycles:  133085780 heartbeat IPC: 2.69214 cumulative IPC: 0.97695 (Simulation time: 0 hr 21 min 58 sec) 
Heartbeat CPU  0 instructions:  132000000 cycles:  134344536 heartbeat IPC: 0.79444 cumulative IPC: 0.97523 (Simulation time: 0 hr 22 min 8 sec) 
Heartbeat CPU  0 instructions:  133000001 cycles:  141155477 heartbeat IPC: 0.14682 cumulative IPC: 0.93496 (Simulation time: 0 hr 23 min 0 sec) 
Heartbeat CPU  0 instructions:  134000000 cycles:  148432755 heartbeat IPC: 0.13741 cumulative IPC: 0.89558 (Simulation time: 0 hr 23 min 45 sec) 
Heartbeat CPU  0 instructions:  135000001 cycles:  155655344 heartbeat IPC: 0.13845 cumulative IPC: 0.86021 (Simulation time: 0 hr 24 min 28 sec) 
Heartbeat CPU  0 instructions:  136000000 cycles:  162832841 heartbeat IPC: 0.13932 cumulative IPC: 0.82823 (Simulation time: 0 hr 25 min 11 sec) 
Heartbeat CPU  0 instructions:  137000000 cycles:  167010384 heartbeat IPC: 0.23938 cumulative IPC: 0.81341 (Simulation time: 0 hr 25 min 33 sec) 
Heartbeat CPU  0 instructions:  138000002 cycles:  169134501 heartbeat IPC: 0.47078 cumulative IPC: 0.80908 (Simulation time: 0 hr 25 min 41 sec) 
Heartbeat CPU  0 instructions:  139000000 cycles:  171619293 heartbeat IPC: 0.40245 cumulative IPC: 0.80315 (Simulation time: 0 hr 25 min 52 sec) 
Heartbeat CPU  0 instructions:  140000000 cycles:  174121591 heartbeat IPC: 0.39963 cumulative IPC: 0.79732 (Simulation time: 0 hr 26 min 1 sec) 
Heartbeat CPU  0 instructions:  141000002 cycles:  176492789 heartbeat IPC: 0.42173 cumulative IPC: 0.79224 (Simulation time: 0 hr 26 min 10 sec) 
Heartbeat CPU  0 instructions:  142000001 cycles:  178839137 heartbeat IPC: 0.42619 cumulative IPC: 0.78741 (Simulation time: 0 hr 26 min 18 sec) 
Heartbeat CPU  0 instructions:  143000000 cycles:  181189908 heartbeat IPC: 0.42539 cumulative IPC: 0.78269 (Simulation time: 0 hr 26 min 28 sec) 
Heartbeat CPU  0 instructions:  144000000 cycles:  183635076 heartbeat IPC: 0.40897 cumulative IPC: 0.77769 (Simulation time: 0 hr 26 min 37 sec) 
Heartbeat CPU  0 instructions:  145000000 cycles:  186015864 heartbeat IPC: 0.42003 cumulative IPC: 0.77308 (Simulation time: 0 hr 26 min 48 sec) 
Heartbeat CPU  0 instructions:  146000003 cycles:  188415925 heartbeat IPC: 0.41666 cumulative IPC: 0.76852 (Simulation time: 0 hr 26 min 57 sec) 
Heartbeat CPU  0 instructions:  147000002 cycles:  190764137 heartbeat IPC: 0.42586 cumulative IPC: 0.76428 (Simulation time: 0 hr 27 min 6 sec) 
Heartbeat CPU  0 instructions:  148000000 cycles:  193123011 heartbeat IPC: 0.42393 cumulative IPC: 0.76010 (Simulation time: 0 hr 27 min 15 sec) 
Heartbeat CPU  0 instructions:  149000003 cycles:  195456971 heartbeat IPC: 0.42846 cumulative IPC: 0.75611 (Simulation time: 0 hr 27 min 24 sec) 
Heartbeat CPU  0 instructions:  150000001 cycles:  197779797 heartbeat IPC: 0.43051 cumulative IPC: 0.75227 (Simulation time: 0 hr 27 min 35 sec) 
Heartbeat CPU  0 instructions:  151000000 cycles:  200281798 heartbeat IPC: 0.39968 cumulative IPC: 0.74784 (Simulation time: 0 hr 27 min 45 sec) 
Heartbeat CPU  0 instructions:  152000000 cycles:  202804700 heartbeat IPC: 0.39637 cumulative IPC: 0.74345 (Simulation time: 0 hr 27 min 54 sec) 
Heartbeat CPU  0 instructions:  153000002 cycles:  205256892 heartbeat IPC: 0.40780 cumulative IPC: 0.73942 (Simulation time: 0 hr 28 min 3 sec) 
Heartbeat CPU  0 instructions:  154000003 cycles:  207662464 heartbeat IPC: 0.41570 cumulative IPC: 0.73565 (Simulation time: 0 hr 28 min 12 sec) 
Heartbeat CPU  0 instructions:  155000000 cycles:  210012058 heartbeat IPC: 0.42560 cumulative IPC: 0.73216 (Simulation time: 0 hr 28 min 22 sec) 
Heartbeat CPU  0 instructions:  156000000 cycles:  212375274 heartbeat IPC: 0.42315 cumulative IPC: 0.72871 (Simulation time: 0 hr 28 min 32 sec) 
Heartbeat CPU  0 instructions:  157000000 cycles:  214740247 heartbeat IPC: 0.42284 cumulative IPC: 0.72532 (Simulation time: 0 hr 28 min 42 sec) 
Heartbeat CPU  0 instructions:  158000001 cycles:  217076137 heartbeat IPC: 0.42810 cumulative IPC: 0.72211 (Simulation time: 0 hr 28 min 51 sec) 
Heartbeat CPU  0 instructions:  159000002 cycles:  219450415 heartbeat IPC: 0.42118 cumulative IPC: 0.71884 (Simulation time: 0 hr 29 min 0 sec) 
Heartbeat CPU  0 instructions:  160000000 cycles:  221876316 heartbeat IPC: 0.41222 cumulative IPC: 0.71547 (Simulation time: 0 hr 29 min 9 sec) 
Heartbeat CPU  0 instructions:  161000001 cycles:  224247352 heartbeat IPC: 0.42176 cumulative IPC: 0.71235 (Simulation time: 0 hr 29 min 18 sec) 
Heartbeat CPU  0 instructions:  162000000 cycles:  226616010 heartbeat IPC: 0.42218 cumulative IPC: 0.70930 (Simulation time: 0 hr 29 min 28 sec) 
Heartbeat CPU  0 instructions:  163000001 cycles:  229018432 heartbeat IPC: 0.41625 cumulative IPC: 0.70621 (Simulation time: 0 hr 29 min 37 sec) 
Heartbeat CPU  0 instructions:  164000000 cycles:  231381693 heartbeat IPC: 0.42314 cumulative IPC: 0.70331 (Simulation time: 0 hr 29 min 47 sec) 
Heartbeat CPU  0 instructions:  165000000 cycles:  233751355 heartbeat IPC: 0.42200 cumulative IPC: 0.70044 (Simulation time: 0 hr 29 min 55 sec) 
Heartbeat CPU  0 instructions:  166000002 cycles:  236200770 heartbeat IPC: 0.40826 cumulative IPC: 0.69740 (Simulation time: 0 hr 30 min 5 sec) 
Heartbeat CPU  0 instructions:  167000000 cycles:  238618354 heartbeat IPC: 0.41364 cumulative IPC: 0.69451 (Simulation time: 0 hr 30 min 14 sec) 
Heartbeat CPU  0 instructions:  168000000 cycles:  240970601 heartbeat IPC: 0.42513 cumulative IPC: 0.69187 (Simulation time: 0 hr 30 min 23 sec) 
Heartbeat CPU  0 instructions:  169000000 cycles:  243386889 heartbeat IPC: 0.41386 cumulative IPC: 0.68910 (Simulation time: 0 hr 30 min 33 sec) 
Heartbeat CPU  0 instructions:  170000000 cycles:  245778875 heartbeat IPC: 0.41806 cumulative IPC: 0.68645 (Simulation time: 0 hr 30 min 42 sec) 
Heartbeat CPU  0 instructions:  171000000 cycles:  248188794 heartbeat IPC: 0.41495 cumulative IPC: 0.68380 (Simulation time: 0 hr 30 min 51 sec) 
Heartbeat CPU  0 instructions:  172000000 cycles:  250591856 heartbeat IPC: 0.41614 cumulative IPC: 0.68123 (Simulation time: 0 hr 31 min 1 sec) 
Heartbeat CPU  0 instructions:  173000001 cycles:  252971911 heartbeat IPC: 0.42016 cumulative IPC: 0.67876 (Simulation time: 0 hr 31 min 10 sec) 
Heartbeat CPU  0 instructions:  174000000 cycles:  255359786 heartbeat IPC: 0.41878 cumulative IPC: 0.67632 (Simulation time: 0 hr 31 min 20 sec) 
Heartbeat CPU  0 instructions:  175000003 cycles:  257752255 heartbeat IPC: 0.41798 cumulative IPC: 0.67391 (Simulation time: 0 hr 31 min 29 sec) 
Heartbeat CPU  0 instructions:  176000000 cycles:  260087243 heartbeat IPC: 0.42827 cumulative IPC: 0.67170 (Simulation time: 0 hr 31 min 38 sec) 
Heartbeat CPU  0 instructions:  177000000 cycles:  262438329 heartbeat IPC: 0.42534 cumulative IPC: 0.66948 (Simulation time: 0 hr 31 min 47 sec) 
Heartbeat CPU  0 instructions:  178000000 cycles:  264874653 heartbeat IPC: 0.41045 cumulative IPC: 0.66709 (Simulation time: 0 hr 31 min 57 sec) 
Heartbeat CPU  0 instructions:  179000003 cycles:  267298700 heartbeat IPC: 0.41253 cumulative IPC: 0.66477 (Simulation time: 0 hr 32 min 6 sec) 
Heartbeat CPU  0 instructions:  180000000 cycles:  269722757 heartbeat IPC: 0.41253 cumulative IPC: 0.66250 (Simulation time: 0 hr 32 min 16 sec) 
Heartbeat CPU  0 instructions:  181000002 cycles:  272190276 heartbeat IPC: 0.40527 cumulative IPC: 0.66016 (Simulation time: 0 hr 32 min 25 sec) 
Heartbeat CPU  0 instructions:  182000001 cycles:  274558460 heartbeat IPC: 0.42226 cumulative IPC: 0.65810 (Simulation time: 0 hr 32 min 35 sec) 
Heartbeat CPU  0 instructions:  183000000 cycles:  276939028 heartbeat IPC: 0.42007 cumulative IPC: 0.65604 (Simulation time: 0 hr 32 min 45 sec) 
Heartbeat CPU  0 instructions:  184000000 cycles:  279287766 heartbeat IPC: 0.42576 cumulative IPC: 0.65410 (Simulation time: 0 hr 32 min 54 sec) 
Heartbeat CPU  0 instructions:  185000002 cycles:  281654121 heartbeat IPC: 0.42259 cumulative IPC: 0.65215 (Simulation time: 0 hr 33 min 4 sec) 
Heartbeat CPU  0 instructions:  186000000 cycles:  283987532 heartbeat IPC: 0.42856 cumulative IPC: 0.65030 (Simulation time: 0 hr 33 min 13 sec) 
Heartbeat CPU  0 instructions:  187000000 cycles:  286356590 heartbeat IPC: 0.42211 cumulative IPC: 0.64841 (Simulation time: 0 hr 33 min 22 sec) 
Heartbeat CPU  0 instructions:  188000000 cycles:  288709884 heartbeat IPC: 0.42494 cumulative IPC: 0.64658 (Simulation time: 0 hr 33 min 32 sec) 
Heartbeat CPU  0 instructions:  189000000 cycles:  291130926 heartbeat IPC: 0.41305 cumulative IPC: 0.64463 (Simulation time: 0 hr 33 min 42 sec) 
Heartbeat CPU  0 instructions:  190000001 cycles:  293458705 heartbeat IPC: 0.42959 cumulative IPC: 0.64292 (Simulation time: 0 hr 33 min 52 sec) 
Heartbeat CPU  0 instructions:  191000002 cycles:  295835763 heartbeat IPC: 0.42069 cumulative IPC: 0.64113 (Simulation time: 0 hr 34 min 1 sec) 
Heartbeat CPU  0 instructions:  192000000 cycles:  298171689 heartbeat IPC: 0.42809 cumulative IPC: 0.63945 (Simulation time: 0 hr 34 min 11 sec) 
Heartbeat CPU  0 instructions:  193000000 cycles:  300510174 heartbeat IPC: 0.42763 cumulative IPC: 0.63780 (Simulation time: 0 hr 34 min 20 sec) 
Heartbeat CPU  0 instructions:  194000002 cycles:  302855447 heartbeat IPC: 0.42639 cumulative IPC: 0.63615 (Simulation time: 0 hr 34 min 29 sec) 
Heartbeat CPU  0 instructions:  195000003 cycles:  305346601 heartbeat IPC: 0.40142 cumulative IPC: 0.63423 (Simulation time: 0 hr 34 min 39 sec) 
Heartbeat CPU  0 instructions:  196000000 cycles:  307790541 heartbeat IPC: 0.40917 cumulative IPC: 0.63244 (Simulation time: 0 hr 34 min 48 sec) 
Heartbeat CPU  0 instructions:  197000000 cycles:  310153511 heartbeat IPC: 0.42320 cumulative IPC: 0.63084 (Simulation time: 0 hr 34 min 57 sec) 
Heartbeat CPU  0 instructions:  198000000 cycles:  312518053 heartbeat IPC: 0.42291 cumulative IPC: 0.62926 (Simulation time: 0 hr 35 min 6 sec) 
Heartbeat CPU  0 instructions:  199000002 cycles:  314861412 heartbeat IPC: 0.42674 cumulative IPC: 0.62775 (Simulation time: 0 hr 35 min 15 sec) 
Heartbeat CPU  0 instructions:  200000000 cycles:  317199658 heartbeat IPC: 0.42767 cumulative IPC: 0.62627 (Simulation time: 0 hr 35 min 24 sec) 
Heartbeat CPU  0 instructions:  201000003 cycles:  318876034 heartbeat IPC: 0.59653 cumulative IPC: 0.62611 (Simulation time: 0 hr 35 min 30 sec) 
Heartbeat CPU  0 instructions:  202000000 cycles:  319505077 heartbeat IPC: 1.58971 cumulative IPC: 0.62802 (Simulation time: 0 hr 35 min 33 sec) 
Heartbeat CPU  0 instructions:  203000000 cycles:  320092277 heartbeat IPC: 1.70300 cumulative IPC: 0.62999 (Simulation time: 0 hr 35 min 42 sec) 
Heartbeat CPU  0 instructions:  204000000 cycles:  320703085 heartbeat IPC: 1.63718 cumulative IPC: 0.63192 (Simulation time: 0 hr 35 min 51 sec) 
Heartbeat CPU  0 instructions:  205000001 cycles:  321289410 heartbeat IPC: 1.70554 cumulative IPC: 0.63388 (Simulation time: 0 hr 36 min 0 sec) 
Heartbeat CPU  0 instructions:  206000000 cycles:  321837740 heartbeat IPC: 1.82372 cumulative IPC: 0.63592 (Simulation time: 0 hr 36 min 9 sec) 
Heartbeat CPU  0 instructions:  207000001 cycles:  322400433 heartbeat IPC: 1.77717 cumulative IPC: 0.63792 (Simulation time: 0 hr 36 min 19 sec) 
Heartbeat CPU  0 instructions:  208000000 cycles:  322982781 heartbeat IPC: 1.71718 cumulative IPC: 0.63987 (Simulation time: 0 hr 36 min 35 sec) 
Heartbeat CPU  0 instructions:  209000003 cycles:  323557789 heartbeat IPC: 1.73911 cumulative IPC: 0.64183 (Simulation time: 0 hr 36 min 47 sec) 
Heartbeat CPU  0 instructions:  210000003 cycles:  324140795 heartbeat IPC: 1.71525 cumulative IPC: 0.64377 (Simulation time: 0 hr 36 min 56 sec) 
Heartbeat CPU  0 instructions:  211000000 cycles:  324709130 heartbeat IPC: 1.75952 cumulative IPC: 0.64573 (Simulation time: 0 hr 37 min 5 sec) 
Heartbeat CPU  0 instructions:  212000000 cycles:  325351003 heartbeat IPC: 1.55794 cumulative IPC: 0.64753 (Simulation time: 0 hr 37 min 15 sec) 
Heartbeat CPU  0 instructions:  213000002 cycles:  326120066 heartbeat IPC: 1.30029 cumulative IPC: 0.64907 (Simulation time: 0 hr 37 min 27 sec) 
Heartbeat CPU  0 instructions:  214000002 cycles:  326857708 heartbeat IPC: 1.35567 cumulative IPC: 0.65067 (Simulation time: 0 hr 37 min 44 sec) 
Heartbeat CPU  0 instructions:  215000003 cycles:  327598883 heartbeat IPC: 1.34921 cumulative IPC: 0.65226 (Simulation time: 0 hr 37 min 59 sec) 
Heartbeat CPU  0 instructions:  216000000 cycles:  328389495 heartbeat IPC: 1.26484 cumulative IPC: 0.65374 (Simulation time: 0 hr 38 min 13 sec) 
Heartbeat CPU  0 instructions:  217000003 cycles:  329132165 heartbeat IPC: 1.34650 cumulative IPC: 0.65531 (Simulation time: 0 hr 38 min 27 sec) 
Heartbeat CPU  0 instructions:  218000002 cycles:  329869970 heartbeat IPC: 1.35537 cumulative IPC: 0.65688 (Simulation time: 0 hr 38 min 40 sec) 
Heartbeat CPU  0 instructions:  219000000 cycles:  330635642 heartbeat IPC: 1.30604 cumulative IPC: 0.65839 (Simulation time: 0 hr 38 min 53 sec) 
Heartbeat CPU  0 instructions:  220000000 cycles:  331400858 heartbeat IPC: 1.30682 cumulative IPC: 0.65989 (Simulation time: 0 hr 39 min 7 sec) 
Heartbeat CPU  0 instructions:  221000003 cycles:  332136706 heartbeat IPC: 1.35898 cumulative IPC: 0.66144 (Simulation time: 0 hr 39 min 21 sec) 
Heartbeat CPU  0 instructions:  222000002 cycles:  332945381 heartbeat IPC: 1.23659 cumulative IPC: 0.66284 (Simulation time: 0 hr 39 min 33 sec) 
Heartbeat CPU  0 instructions:  223000000 cycles:  333788227 heartbeat IPC: 1.18645 cumulative IPC: 0.66417 (Simulation time: 0 hr 39 min 48 sec) 
Heartbeat CPU  0 instructions:  224000000 cycles:  334619015 heartbeat IPC: 1.20368 cumulative IPC: 0.66551 (Simulation time: 0 hr 40 min 1 sec) 
Heartbeat CPU  0 instructions:  225000002 cycles:  335387032 heartbeat IPC: 1.30206 cumulative IPC: 0.66698 (Simulation time: 0 hr 40 min 14 sec) 
Heartbeat CPU  0 instructions:  226000000 cycles:  336116435 heartbeat IPC: 1.37098 cumulative IPC: 0.66851 (Simulation time: 0 hr 40 min 28 sec) 
Heartbeat CPU  0 instructions:  227000000 cycles:  336852040 heartbeat IPC: 1.35943 cumulative IPC: 0.67002 (Simulation time: 0 hr 40 min 41 sec) 
Heartbeat CPU  0 instructions:  228000000 cycles:  337645175 heartbeat IPC: 1.26082 cumulative IPC: 0.67141 (Simulation time: 0 hr 40 min 55 sec) 
Heartbeat CPU  0 instructions:  229000001 cycles:  338373493 heartbeat IPC: 1.37303 cumulative IPC: 0.67293 (Simulation time: 0 hr 41 min 8 sec) 
Heartbeat CPU  0 instructions:  230000001 cycles:  339105667 heartbeat IPC: 1.36580 cumulative IPC: 0.67443 (Simulation time: 0 hr 41 min 21 sec) 
Heartbeat CPU  0 instructions:  231000000 cycles:  339861149 heartbeat IPC: 1.32366 cumulative IPC: 0.67588 (Simulation time: 0 hr 41 min 34 sec) 
Heartbeat CPU  0 instructions:  232000000 cycles:  340631841 heartbeat IPC: 1.29754 cumulative IPC: 0.67729 (Simulation time: 0 hr 41 min 48 sec) 
Heartbeat CPU  0 instructions:  233000003 cycles:  341365263 heartbeat IPC: 1.36348 cumulative IPC: 0.67877 (Simulation time: 0 hr 42 min 1 sec) 
Heartbeat CPU  0 instructions:  234000001 cycles:  342102911 heartbeat IPC: 1.35566 cumulative IPC: 0.68023 (Simulation time: 0 hr 42 min 17 sec) 
Heartbeat CPU  0 instructions:  235000003 cycles:  342888979 heartbeat IPC: 1.27216 cumulative IPC: 0.68159 (Simulation time: 0 hr 42 min 32 sec) 
Heartbeat CPU  0 instructions:  236000000 cycles:  343633533 heartbeat IPC: 1.34308 cumulative IPC: 0.68303 (Simulation time: 0 hr 42 min 46 sec) 
Heartbeat CPU  0 instructions:  237000000 cycles:  344359713 heartbeat IPC: 1.37707 cumulative IPC: 0.68450 (Simulation time: 0 hr 42 min 59 sec) 
Heartbeat CPU  0 instructions:  238000001 cycles:  345091658 heartbeat IPC: 1.36622 cumulative IPC: 0.68595 (Simulation time: 0 hr 43 min 12 sec) 
Heartbeat CPU  0 instructions:  239000001 cycles:  345877133 heartbeat IPC: 1.27312 cumulative IPC: 0.68728 (Simulation time: 0 hr 43 min 27 sec) 
Heartbeat CPU  0 instructions:  240000000 cycles:  346768323 heartbeat IPC: 1.12209 cumulative IPC: 0.68841 (Simulation time: 0 hr 43 min 41 sec) 
Heartbeat CPU  0 instructions:  241000003 cycles:  347509281 heartbeat IPC: 1.34961 cumulative IPC: 0.68982 (Simulation time: 0 hr 43 min 54 sec) 
Heartbeat CPU  0 instructions:  242000002 cycles:  348246475 heartbeat IPC: 1.35649 cumulative IPC: 0.69124 (Simulation time: 0 hr 44 min 8 sec) 
Heartbeat CPU  0 instructions:  243000003 cycles:  348995434 heartbeat IPC: 1.33519 cumulative IPC: 0.69262 (Simulation time: 0 hr 44 min 23 sec) 
Heartbeat CPU  0 instructions:  244000000 cycles:  349773782 heartbeat IPC: 1.28477 cumulative IPC: 0.69394 (Simulation time: 0 hr 44 min 38 sec) 
Heartbeat CPU  0 instructions:  245000000 cycles:  350497223 heartbeat IPC: 1.38228 cumulative IPC: 0.69537 (Simulation time: 0 hr 44 min 52 sec) 
Heartbeat CPU  0 instructions:  246000003 cycles:  351219938 heartbeat IPC: 1.38368 cumulative IPC: 0.69679 (Simulation time: 0 hr 45 min 7 sec) 
Heartbeat CPU  0 instructions:  247000001 cycles:  351999033 heartbeat IPC: 1.28354 cumulative IPC: 0.69809 (Simulation time: 0 hr 45 min 21 sec) 
Heartbeat CPU  0 instructions:  248000000 cycles:  352738733 heartbeat IPC: 1.35190 cumulative IPC: 0.69947 (Simulation time: 0 hr 45 min 35 sec) 
Heartbeat CPU  0 instructions:  249000001 cycles:  353456820 heartbeat IPC: 1.39259 cumulative IPC: 0.70088 (Simulation time: 0 hr 45 min 46 sec) 
Heartbeat CPU  0 instructions:  250000002 cycles:  354197619 heartbeat IPC: 1.34990 cumulative IPC: 0.70224 (Simulation time: 0 hr 45 min 59 sec) 
Heartbeat CPU  0 instructions:  251000000 cycles:  354961938 heartbeat IPC: 1.30835 cumulative IPC: 0.70355 (Simulation time: 0 hr 46 min 12 sec) 
Heartbeat CPU  0 instructions:  252000000 cycles:  355685628 heartbeat IPC: 1.38181 cumulative IPC: 0.70493 (Simulation time: 0 hr 46 min 26 sec) 
Heartbeat CPU  0 instructions:  253000001 cycles:  356410386 heartbeat IPC: 1.37977 cumulative IPC: 0.70631 (Simulation time: 0 hr 46 min 39 sec) 
Heartbeat CPU  0 instructions:  254000003 cycles:  357165589 heartbeat IPC: 1.32415 cumulative IPC: 0.70762 (Simulation time: 0 hr 46 min 54 sec) 
Heartbeat CPU  0 instructions:  255000001 cycles:  357941681 heartbeat IPC: 1.28850 cumulative IPC: 0.70888 (Simulation time: 0 hr 47 min 7 sec) 
Heartbeat CPU  0 instructions:  256000000 cycles:  358748463 heartbeat IPC: 1.23949 cumulative IPC: 0.71008 (Simulation time: 0 hr 47 min 20 sec) 
Heartbeat CPU  0 instructions:  257000002 cycles:  359545294 heartbeat IPC: 1.25497 cumulative IPC: 0.71129 (Simulation time: 0 hr 47 min 34 sec) 
Heartbeat CPU  0 instructions:  258000001 cycles:  360303141 heartbeat IPC: 1.31953 cumulative IPC: 0.71257 (Simulation time: 0 hr 47 min 48 sec) 
Heartbeat CPU  0 instructions:  259000002 cycles:  361129243 heartbeat IPC: 1.21051 cumulative IPC: 0.71372 (Simulation time: 0 hr 48 min 2 sec) 
Heartbeat CPU  0 instructions:  260000000 cycles:  361935899 heartbeat IPC: 1.23968 cumulative IPC: 0.71489 (Simulation time: 0 hr 48 min 16 sec) 
Heartbeat CPU  0 instructions:  261000003 cycles:  362698127 heartbeat IPC: 1.31195 cumulative IPC: 0.71615 (Simulation time: 0 hr 48 min 29 sec) 
Heartbeat CPU  0 instructions:  262000003 cycles:  363462430 heartbeat IPC: 1.30838 cumulative IPC: 0.71740 (Simulation time: 0 hr 48 min 43 sec) 
Heartbeat CPU  0 instructions:  263000003 cycles:  364285840 heartbeat IPC: 1.21446 cumulative IPC: 0.71853 (Simulation time: 0 hr 48 min 57 sec) 
Heartbeat CPU  0 instructions:  264000000 cycles:  365052655 heartbeat IPC: 1.30409 cumulative IPC: 0.71976 (Simulation time: 0 hr 49 min 11 sec) 
Heartbeat CPU  0 instructions:  265000001 cycles:  365805243 heartbeat IPC: 1.32875 cumulative IPC: 0.72102 (Simulation time: 0 hr 49 min 23 sec) 
Heartbeat CPU  0 instructions:  266000000 cycles:  366596417 heartbeat IPC: 1.26394 cumulative IPC: 0.72219 (Simulation time: 0 hr 49 min 37 sec) 
Heartbeat CPU  0 instructions:  267000000 cycles:  367404818 heartbeat IPC: 1.23701 cumulative IPC: 0.72333 (Simulation time: 0 hr 49 min 51 sec) 
Heartbeat CPU  0 instructions:  268000000 cycles:  368166138 heartbeat IPC: 1.31351 cumulative IPC: 0.72455 (Simulation time: 0 hr 50 min 4 sec) 
Heartbeat CPU  0 instructions:  269000001 cycles:  368923646 heartbeat IPC: 1.32012 cumulative IPC: 0.72578 (Simulation time: 0 hr 50 min 17 sec) 
Heartbeat CPU  0 instructions:  270000003 cycles:  369736246 heartbeat IPC: 1.23062 cumulative IPC: 0.72689 (Simulation time: 0 hr 50 min 30 sec) 
Heartbeat CPU  0 instructions:  271000000 cycles:  370515885 heartbeat IPC: 1.28264 cumulative IPC: 0.72806 (Simulation time: 0 hr 50 min 44 sec) 
Heartbeat CPU  0 instructions:  272000000 cycles:  371316603 heartbeat IPC: 1.24888 cumulative IPC: 0.72919 (Simulation time: 0 hr 50 min 57 sec) 
Heartbeat CPU  0 instructions:  273000002 cycles:  372118816 heartbeat IPC: 1.24655 cumulative IPC: 0.73031 (Simulation time: 0 hr 51 min 10 sec) 
Heartbeat CPU  0 instructions:  274000003 cycles:  372889060 heartbeat IPC: 1.29829 cumulative IPC: 0.73148 (Simulation time: 0 hr 51 min 23 sec) 
Heartbeat CPU  0 instructions:  275000002 cycles:  373645803 heartbeat IPC: 1.32145 cumulative IPC: 0.73268 (Simulation time: 0 hr 51 min 37 sec) 
Heartbeat CPU  0 instructions:  276000000 cycles:  374411871 heartbeat IPC: 1.30536 cumulative IPC: 0.73386 (Simulation time: 0 hr 51 min 51 sec) 
Heartbeat CPU  0 instructions:  277000000 cycles:  375153073 heartbeat IPC: 1.34916 cumulative IPC: 0.73508 (Simulation time: 0 hr 52 min 4 sec) 
Heartbeat CPU  0 instructions:  278000001 cycles:  375920141 heartbeat IPC: 1.30367 cumulative IPC: 0.73624 (Simulation time: 0 hr 52 min 18 sec) 
Heartbeat CPU  0 instructions:  279000001 cycles:  376669276 heartbeat IPC: 1.33487 cumulative IPC: 0.73743 (Simulation time: 0 hr 52 min 31 sec) 
Heartbeat CPU  0 instructions:  280000000 cycles:  377415466 heartbeat IPC: 1.34014 cumulative IPC: 0.73863 (Simulation time: 0 hr 52 min 45 sec) 
Heartbeat CPU  0 instructions:  281000001 cycles:  378164221 heartbeat IPC: 1.33555 cumulative IPC: 0.73981 (Simulation time: 0 hr 52 min 58 sec) 
Heartbeat CPU  0 instructions:  282000000 cycles:  378910349 heartbeat IPC: 1.34025 cumulative IPC: 0.74100 (Simulation time: 0 hr 53 min 11 sec) 
Heartbeat CPU  0 instructions:  283000001 cycles:  379675829 heartbeat IPC: 1.30637 cumulative IPC: 0.74214 (Simulation time: 0 hr 53 min 25 sec) 
Heartbeat CPU  0 instructions:  284000000 cycles:  380416963 heartbeat IPC: 1.34928 cumulative IPC: 0.74333 (Simulation time: 0 hr 53 min 40 sec) 
Heartbeat CPU  0 instructions:  285000000 cycles:  381178590 heartbeat IPC: 1.31298 cumulative IPC: 0.74447 (Simulation time: 0 hr 53 min 52 sec) 
Heartbeat CPU  0 instructions:  286000002 cycles:  381934380 heartbeat IPC: 1.32312 cumulative IPC: 0.74562 (Simulation time: 0 hr 54 min 6 sec) 
Heartbeat CPU  0 instructions:  287000002 cycles:  382685679 heartbeat IPC: 1.33103 cumulative IPC: 0.74677 (Simulation time: 0 hr 54 min 19 sec) 
Heartbeat CPU  0 instructions:  288000000 cycles:  383434096 heartbeat IPC: 1.33615 cumulative IPC: 0.74792 (Simulation time: 0 hr 54 min 35 sec) 
Heartbeat CPU  0 instructions:  289000000 cycles:  384227858 heartbeat IPC: 1.25982 cumulative IPC: 0.74898 (Simulation time: 0 hr 54 min 49 sec) 
Heartbeat CPU  0 instructions:  290000001 cycles:  385044261 heartbeat IPC: 1.22489 cumulative IPC: 0.75000 (Simulation time: 0 hr 55 min 5 sec) 
Heartbeat CPU  0 instructions:  291000002 cycles:  385804720 heartbeat IPC: 1.31500 cumulative IPC: 0.75111 (Simulation time: 0 hr 55 min 22 sec) 
Heartbeat CPU  0 instructions:  292000000 cycles:  386539663 heartbeat IPC: 1.36065 cumulative IPC: 0.75227 (Simulation time: 0 hr 55 min 38 sec) 
Heartbeat CPU  0 instructions:  293000002 cycles:  387279791 heartbeat IPC: 1.35112 cumulative IPC: 0.75342 (Simulation time: 0 hr 55 min 52 sec) 
Heartbeat CPU  0 instructions:  294000002 cycles:  388015794 heartbeat IPC: 1.35869 cumulative IPC: 0.75457 (Simulation time: 0 hr 56 min 7 sec) 
Heartbeat CPU  0 instructions:  295000001 cycles:  388770204 heartbeat IPC: 1.32554 cumulative IPC: 0.75568 (Simulation time: 0 hr 56 min 23 sec) 
Heartbeat CPU  0 instructions:  296000000 cycles:  389501322 heartbeat IPC: 1.36777 cumulative IPC: 0.75684 (Simulation time: 0 hr 56 min 39 sec) 
Heartbeat CPU  0 instructions:  297000000 cycles:  390232424 heartbeat IPC: 1.36780 cumulative IPC: 0.75798 (Simulation time: 0 hr 56 min 51 sec) 
Heartbeat CPU  0 instructions:  298000000 cycles:  390969325 heartbeat IPC: 1.35703 cumulative IPC: 0.75912 (Simulation time: 0 hr 57 min 4 sec) 
Heartbeat CPU  0 instructions:  299000003 cycles:  391702194 heartbeat IPC: 1.36450 cumulative IPC: 0.76025 (Simulation time: 0 hr 57 min 19 sec) 
Heartbeat CPU  0 instructions:  300000000 cycles:  392454135 heartbeat IPC: 1.32989 cumulative IPC: 0.76135 (Simulation time: 0 hr 57 min 35 sec) 
Heartbeat CPU  0 instructions:  301000000 cycles:  393218093 heartbeat IPC: 1.30897 cumulative IPC: 0.76241 (Simulation time: 0 hr 57 min 48 sec) 
Heartbeat CPU  0 instructions:  302000001 cycles:  393946651 heartbeat IPC: 1.37258 cumulative IPC: 0.76354 (Simulation time: 0 hr 58 min 2 sec) 
Heartbeat CPU  0 instructions:  303000002 cycles:  394675681 heartbeat IPC: 1.37169 cumulative IPC: 0.76467 (Simulation time: 0 hr 58 min 15 sec) 
Heartbeat CPU  0 instructions:  304000000 cycles:  395408037 heartbeat IPC: 1.36545 cumulative IPC: 0.76579 (Simulation time: 0 hr 58 min 27 sec) 
Heartbeat CPU  0 instructions:  305000002 cycles:  396188773 heartbeat IPC: 1.28085 cumulative IPC: 0.76680 (Simulation time: 0 hr 58 min 41 sec) 
Heartbeat CPU  0 instructions:  306000003 cycles:  396969379 heartbeat IPC: 1.28106 cumulative IPC: 0.76782 (Simulation time: 0 hr 58 min 54 sec) 
Heartbeat CPU  0 instructions:  307000003 cycles:  397737856 heartbeat IPC: 1.30128 cumulative IPC: 0.76885 (Simulation time: 0 hr 59 min 8 sec) 
Heartbeat CPU  0 instructions:  308000000 cycles:  398489261 heartbeat IPC: 1.33084 cumulative IPC: 0.76991 (Simulation time: 0 hr 59 min 22 sec) 
Heartbeat CPU  0 instructions:  309000002 cycles:  399221863 heartbeat IPC: 1.36500 cumulative IPC: 0.77101 (Simulation time: 0 hr 59 min 34 sec) 
Heartbeat CPU  0 instructions:  310000000 cycles:  399951481 heartbeat IPC: 1.37058 cumulative IPC: 0.77210 (Simulation time: 0 hr 59 min 46 sec) 
Heartbeat CPU  0 instructions:  311000003 cycles:  400680648 heartbeat IPC: 1.37143 cumulative IPC: 0.77320 (Simulation time: 0 hr 59 min 57 sec) 
Heartbeat CPU  0 instructions:  312000000 cycles:  401436874 heartbeat IPC: 1.32235 cumulative IPC: 0.77424 (Simulation time: 1 hr 0 min 10 sec) 
Heartbeat CPU  0 instructions:  313000001 cycles:  402181588 heartbeat IPC: 1.34280 cumulative IPC: 0.77529 (Simulation time: 1 hr 0 min 21 sec) 
Heartbeat CPU  0 instructions:  314000001 cycles:  402942783 heartbeat IPC: 1.31372 cumulative IPC: 0.77631 (Simulation time: 1 hr 0 min 35 sec) 
Heartbeat CPU  0 instructions:  315000000 cycles:  403671420 heartbeat IPC: 1.37242 cumulative IPC: 0.77739 (Simulation time: 1 hr 0 min 48 sec) 
Heartbeat CPU  0 instructions:  316000000 cycles:  404404173 heartbeat IPC: 1.36472 cumulative IPC: 0.77846 (Simulation time: 1 hr 1 min 2 sec) 
Heartbeat CPU  0 instructions:  317000001 cycles:  405174972 heartbeat IPC: 1.29736 cumulative IPC: 0.77945 (Simulation time: 1 hr 1 min 17 sec) 
Heartbeat CPU  0 instructions:  318000000 cycles:  405917608 heartbeat IPC: 1.34655 cumulative IPC: 0.78049 (Simulation time: 1 hr 1 min 33 sec) 
Heartbeat CPU  0 instructions:  319000000 cycles:  406634406 heartbeat IPC: 1.39509 cumulative IPC: 0.78157 (Simulation time: 1 hr 1 min 45 sec) 
Heartbeat CPU  0 instructions:  320000000 cycles:  407371448 heartbeat IPC: 1.35677 cumulative IPC: 0.78262 (Simulation time: 1 hr 1 min 59 sec) 
Heartbeat CPU  0 instructions:  321000002 cycles:  408153132 heartbeat IPC: 1.27929 cumulative IPC: 0.78357 (Simulation time: 1 hr 2 min 14 sec) 
Heartbeat CPU  0 instructions:  322000001 cycles:  408920727 heartbeat IPC: 1.30277 cumulative IPC: 0.78455 (Simulation time: 1 hr 2 min 29 sec) 
Heartbeat CPU  0 instructions:  323000000 cycles:  409698871 heartbeat IPC: 1.28511 cumulative IPC: 0.78550 (Simulation time: 1 hr 2 min 43 sec) 
Heartbeat CPU  0 instructions:  324000000 cycles:  410489406 heartbeat IPC: 1.26497 cumulative IPC: 0.78643 (Simulation time: 1 hr 2 min 56 sec) 
Heartbeat CPU  0 instructions:  325000000 cycles:  411289655 heartbeat IPC: 1.24961 cumulative IPC: 0.78733 (Simulation time: 1 hr 3 min 11 sec) 
Heartbeat CPU  0 instructions:  326000003 cycles:  412090116 heartbeat IPC: 1.24928 cumulative IPC: 0.78823 (Simulation time: 1 hr 3 min 27 sec) 
Heartbeat CPU  0 instructions:  327000003 cycles:  412845495 heartbeat IPC: 1.32384 cumulative IPC: 0.78921 (Simulation time: 1 hr 3 min 39 sec) 
Heartbeat CPU  0 instructions:  328000000 cycles:  413615491 heartbeat IPC: 1.29870 cumulative IPC: 0.79016 (Simulation time: 1 hr 3 min 53 sec) 
Heartbeat CPU  0 instructions:  329000001 cycles:  414416454 heartbeat IPC: 1.24850 cumulative IPC: 0.79105 (Simulation time: 1 hr 4 min 7 sec) 
Heartbeat CPU  0 instructions:  330000000 cycles:  415212709 heartbeat IPC: 1.25588 cumulative IPC: 0.79194 (Simulation time: 1 hr 4 min 22 sec) 
Heartbeat CPU  0 instructions:  331000001 cycles:  415961402 heartbeat IPC: 1.33566 cumulative IPC: 0.79293 (Simulation time: 1 hr 4 min 34 sec) 
Heartbeat CPU  0 instructions:  332000000 cycles:  416751884 heartbeat IPC: 1.26505 cumulative IPC: 0.79382 (Simulation time: 1 hr 4 min 48 sec) 
Heartbeat CPU  0 instructions:  333000001 cycles:  417565316 heartbeat IPC: 1.22936 cumulative IPC: 0.79467 (Simulation time: 1 hr 5 min 3 sec) 
Heartbeat CPU  0 instructions:  334000002 cycles:  418337748 heartbeat IPC: 1.29461 cumulative IPC: 0.79560 (Simulation time: 1 hr 5 min 18 sec) 
Heartbeat CPU  0 instructions:  335000001 cycles:  419099614 heartbeat IPC: 1.31257 cumulative IPC: 0.79654 (Simulation time: 1 hr 5 min 31 sec) 
Heartbeat CPU  0 instructions:  336000000 cycles:  419884644 heartbeat IPC: 1.27384 cumulative IPC: 0.79744 (Simulation time: 1 hr 5 min 45 sec) 
Heartbeat CPU  0 instructions:  337000001 cycles:  420671289 heartbeat IPC: 1.27122 cumulative IPC: 0.79832 (Simulation time: 1 hr 5 min 59 sec) 
Heartbeat CPU  0 instructions:  338000001 cycles:  421453012 heartbeat IPC: 1.27923 cumulative IPC: 0.79922 (Simulation time: 1 hr 6 min 14 sec) 
Heartbeat CPU  0 instructions:  339000000 cycles:  422111265 heartbeat IPC: 1.51917 cumulative IPC: 0.80034 (Simulation time: 1 hr 6 min 25 sec) 
Heartbeat CPU  0 instructions:  340000000 cycles:  422556468 heartbeat IPC: 2.24617 cumulative IPC: 0.80187 (Simulation time: 1 hr 6 min 31 sec) 
Heartbeat CPU  0 instructions:  341000000 cycles:  422957226 heartbeat IPC: 2.49527 cumulative IPC: 0.80348 (Simulation time: 1 hr 6 min 34 sec) 
Heartbeat CPU  0 instructions:  342000001 cycles:  423639971 heartbeat IPC: 1.46468 cumulative IPC: 0.80455 (Simulation time: 1 hr 6 min 41 sec) 
Heartbeat CPU  0 instructions:  343000001 cycles:  424507426 heartbeat IPC: 1.15280 cumulative IPC: 0.80526 (Simulation time: 1 hr 6 min 49 sec) 
Heartbeat CPU  0 instructions:  344000000 cycles:  425254773 heartbeat IPC: 1.33807 cumulative IPC: 0.80620 (Simulation time: 1 hr 6 min 58 sec) 
Heartbeat CPU  0 instructions:  345000002 cycles:  426022737 heartbeat IPC: 1.30215 cumulative IPC: 0.80710 (Simulation time: 1 hr 7 min 5 sec) 
Heartbeat CPU  0 instructions:  346000001 cycles:  426794911 heartbeat IPC: 1.29504 cumulative IPC: 0.80798 (Simulation time: 1 hr 7 min 13 sec) 
Heartbeat CPU  0 instructions:  347000000 cycles:  427571085 heartbeat IPC: 1.28837 cumulative IPC: 0.80885 (Simulation time: 1 hr 7 min 20 sec) 
Heartbeat CPU  0 instructions:  348000000 cycles:  428354102 heartbeat IPC: 1.27711 cumulative IPC: 0.80971 (Simulation time: 1 hr 7 min 28 sec) 
Heartbeat CPU  0 instructions:  349000000 cycles:  429132079 heartbeat IPC: 1.28539 cumulative IPC: 0.81058 (Simulation time: 1 hr 7 min 36 sec) 
Heartbeat CPU  0 instructions:  350000003 cycles:  429917421 heartbeat IPC: 1.27333 cumulative IPC: 0.81142 (Simulation time: 1 hr 7 min 44 sec) 
Heartbeat CPU  0 instructions:  351000003 cycles:  430692251 heartbeat IPC: 1.29061 cumulative IPC: 0.81229 (Simulation time: 1 hr 7 min 51 sec) 
Heartbeat CPU  0 instructions:  352000000 cycles:  431470680 heartbeat IPC: 1.28463 cumulative IPC: 0.81314 (Simulation time: 1 hr 7 min 59 sec) 
Finished CPU 0 instructions: 350000002 cycles: 430428690 cumulative IPC: 0.81314 (Simulation time: 1 hr 7 min 59 sec) 

ChampSim completed all CPUs

[ROI Statistics]
Core_0_instructions 350000002
Core_0_cycles 430428690
Core_0_IPC 0.81314

Core_0_branch_prediction_accuracy 98.12358
Core_0_branch_MPKI 0.51152
Core_0_average_ROB_occupancy_at_mispredict 208.61143

Core_0_L1D_total_access 91233102
Core_0_L1D_total_hit 72007810
Core_0_L1D_total_miss 19225292
Core_0_L1D_loads 84753848
Core_0_L1D_load_hit 66681795
Core_0_L1D_load_miss 18072053
Core_0_L1D_RFOs 6479254
Core_0_L1D_RFO_hit 5326015
Core_0_L1D_RFO_miss 1153239
Core_0_L1D_prefetches 0
Core_0_L1D_prefetch_hit 0
Core_0_L1D_prefetch_miss 0
Core_0_L1D_writebacks 0
Core_0_L1D_writeback_hit 0
Core_0_L1D_writeback_miss 0
Core_0_L1D_prefetch_requested 0
Core_0_L1D_prefetch_issued 0
Core_0_L1D_prefetch_useful 0
Core_0_L1D_prefetch_useless 0
Core_0_L1D_prefetch_late 0
Core_0_L1D_average_miss_latency 40.98870

Core_0_L1I_total_access 112149624
Core_0_L1I_total_hit 112140214
Core_0_L1I_total_miss 9410
Core_0_L1I_loads 112149624
Core_0_L1I_load_hit 112140214
Core_0_L1I_load_miss 9410
Core_0_L1I_RFOs 0
Core_0_L1I_RFO_hit 0
Core_0_L1I_RFO_miss 0
Core_0_L1I_prefetches 0
Core_0_L1I_prefetch_hit 0
Core_0_L1I_prefetch_miss 0
Core_0_L1I_writebacks 0
Core_0_L1I_writeback_hit 0
Core_0_L1I_writeback_miss 0
Core_0_L1I_prefetch_requested 0
Core_0_L1I_prefetch_issued 0
Core_0_L1I_prefetch_useful 0
Core_0_L1I_prefetch_useless 0
Core_0_L1I_prefetch_late 0
Core_0_L1I_average_miss_latency 182.26769

Core_0_L2C_total_access 77698918
Core_0_L2C_total_hit 70401037
Core_0_L2C_total_miss 7297881
Core_0_L2C_loads 18081368
Core_0_L2C_load_hit 16818112
Core_0_L2C_load_miss 1263256
Core_0_L2C_RFOs 1153229
Core_0_L2C_RFO_hit 606023
Core_0_L2C_RFO_miss 547206
Core_0_L2C_prefetches 56454768
Core_0_L2C_prefetch_hit 50967756
Core_0_L2C_prefetch_miss 5487012
Core_0_L2C_writebacks 2009553
Core_0_L2C_writeback_hit 2009146
Core_0_L2C_writeback_miss 407
Core_0_L2C_prefetch_requested 129236228
Core_0_L2C_prefetch_issued 75374359
Core_0_L2C_prefetch_useful 3880966
Core_0_L2C_prefetch_useless 1634691
Core_0_L2C_prefetch_late 193572
Core_0_L2C_average_miss_latency 199.09429

Core_0_LLC_total_access 9002279
Core_0_LLC_total_hit 4860843
Core_0_LLC_total_miss 4141436
Core_0_LLC_loads 1073161
Core_0_LLC_load_hit 297979
Core_0_LLC_load_miss 775182
Core_0_LLC_RFOs 543788
Core_0_LLC_RFO_hit 1905
Core_0_LLC_RFO_miss 541883
Core_0_LLC_prefetches 5680525
Core_0_LLC_prefetch_hit 2856412
Core_0_LLC_prefetch_miss 2824113
Core_0_LLC_writebacks 1704805
Core_0_LLC_writeback_hit 1704547
Core_0_LLC_writeback_miss 258
Core_0_LLC_prefetch_requested 0
Core_0_LLC_prefetch_issued 0
Core_0_LLC_prefetch_useful 71053
Core_0_LLC_prefetch_useless 2754942
Core_0_LLC_prefetch_late 0
Core_0_LLC_average_miss_latency 304.13403

Core_0_major_page_fault 0
Core_0_minor_page_fault 18565

CPU 0 L2C next line prefetcher final stats
Channel_0_RQ_row_buffer_hit 1309846
Channel_0_RQ_row_buffer_miss 2831307
Channel_0_WQ_row_buffer_hit 431510
Channel_0_WQ_row_buffer_miss 1227328
Channel_0_WQ_full 0
Channel_0_dbus_congested 2714069

avg_congested_cycle 10
