*************************************************
   ChampSim Multicore Out-of-Order Simulator
   Last compiled: Aug 15 2024 23:21:09
*************************************************

trace_0 ./LLM_Traces/2B_Traces_SelfAttention_Phythia-70M-Seq1024-07-08-0125.champsim.xz
CPU 0 L2C next line prefetcher initialized
warmup_instructions 2000000
simulation_instructions 350000000
champsim_seed 200

num_cpus 1
cpu_freq 4000
dram_io_freq 2400
page_size 4096
block_size 64
max_read_per_cycle 8
max_fill_per_cycle 1
dram_channels 1
dram_ranks 1
dram_banks 8
dram_rows 65536
dram_columns 128
dram_row_size 8
dram_size 4096
dram_pages 1048576

fetch_width 6
decode_width 6
exec_width 4
lq_width 2
sq_width 2
retire_width 4
scheduler_size 128
branch_mispredict_penalty 20
rob_size 256
lq_size 72
sq_size 56
num_instr_destinations_sparc 4
num_instr_destinations 2
num_instr_sources 4

itlb_set 16
itlb_way 8
itlb_rq_size 16
itlb_wq_size 16
itlb_pq_size 0
itlb_mshr_size 8
itlb_latency 1

dtlb_set 16
dtlb_way 4
dtlb_rq_size 16
dtlb_wq_size 16
dtlb_pq_size 0
dtlb_mshr_size 8
dtlb_latency 1

stlb_set 128
stlb_way 12
stlb_rq_size 32
stlb_wq_size 32
stlb_pq_size 0
stlb_mshr_size 16
stlb_latency 8

l1i_size 32
l1i_set 64
l1i_way 8
l1i_rq_size 64
l1i_wq_size 64
l1i_pq_size 8
l1i_mshr_size 8
l1i_latency 1

l1d_size 32
l1d_set 64
l1d_way 8
l1d_rq_size 64
l1d_wq_size 64
l1d_pq_size 8
l1d_mshr_size 16
l1d_latency 4

l2c_size 512
l2c_set 1024
l2c_way 8
l2c_rq_size 32
l2c_wq_size 32
l2c_pq_size 16
l2c_mshr_size 32
l2c_latency 10

llc_size 2048
llc_set 2048
llc_way 16
llc_rq_size 32
llc_wq_size 32
llc_pq_size 32
llc_mshr_size 64
llc_latency 20

dram_channel_width 8
dram_wq_size 64
dram_rq_size 64
tRP 15
tRCD 15
tCAS 12.5
dram_dbus_turn_around_time 30
dram_write_high_wm 56
dram_write_low_wm 48
min_dram_writes_per_switch 16
dram_mtps 2400
dram_dbus_return_time 13


Heartbeat CPU  0 instructions:    1000001 cycles:     467704 heartbeat IPC: 2.13811 cumulative IPC: 2.13811 (Simulation time: 0 hr 0 min 7 sec) 
Heartbeat CPU  0 instructions:    2000000 cycles:    1041912 heartbeat IPC: 1.74153 cumulative IPC: 1.91955 (Simulation time: 0 hr 0 min 27 sec) 

Warmup complete CPU  0 instructions:    2000002 cycles:    1041913 (Simulation time: 0 hr 0 min 27 sec) 

Heartbeat CPU  0 instructions:    3000001 cycles:    2064842 heartbeat IPC: 0.97758 cumulative IPC: 0.97758 (Simulation time: 0 hr 0 min 49 sec) 
Heartbeat CPU  0 instructions:    4000000 cycles:    3127414 heartbeat IPC: 0.94111 cumulative IPC: 0.95900 (Simulation time: 0 hr 1 min 10 sec) 
Heartbeat CPU  0 instructions:    5000002 cycles:    4186540 heartbeat IPC: 0.94418 cumulative IPC: 0.95401 (Simulation time: 0 hr 1 min 31 sec) 
Heartbeat CPU  0 instructions:    6000001 cycles:    5249506 heartbeat IPC: 0.94076 cumulative IPC: 0.95066 (Simulation time: 0 hr 1 min 52 sec) 
Heartbeat CPU  0 instructions:    7000000 cycles:    6314300 heartbeat IPC: 0.93915 cumulative IPC: 0.94834 (Simulation time: 0 hr 2 min 12 sec) 
Heartbeat CPU  0 instructions:    8000000 cycles:    7387062 heartbeat IPC: 0.93217 cumulative IPC: 0.94560 (Simulation time: 0 hr 2 min 39 sec) 
Heartbeat CPU  0 instructions:    9000003 cycles:    8462187 heartbeat IPC: 0.93013 cumulative IPC: 0.94336 (Simulation time: 0 hr 3 min 4 sec) 
Heartbeat CPU  0 instructions:   10000003 cycles:    9532892 heartbeat IPC: 0.93396 cumulative IPC: 0.94218 (Simulation time: 0 hr 3 min 36 sec) 
Heartbeat CPU  0 instructions:   11000000 cycles:   10599629 heartbeat IPC: 0.93744 cumulative IPC: 0.94165 (Simulation time: 0 hr 4 min 0 sec) 
Heartbeat CPU  0 instructions:   12000000 cycles:   11682748 heartbeat IPC: 0.92326 cumulative IPC: 0.93978 (Simulation time: 0 hr 4 min 29 sec) 
Heartbeat CPU  0 instructions:   13000002 cycles:   12763631 heartbeat IPC: 0.92517 cumulative IPC: 0.93843 (Simulation time: 0 hr 4 min 55 sec) 
Heartbeat CPU  0 instructions:   14000002 cycles:   13820104 heartbeat IPC: 0.94655 cumulative IPC: 0.93910 (Simulation time: 0 hr 5 min 23 sec) 
Heartbeat CPU  0 instructions:   15000001 cycles:   14886065 heartbeat IPC: 0.93812 cumulative IPC: 0.93902 (Simulation time: 0 hr 5 min 49 sec) 
Heartbeat CPU  0 instructions:   16000000 cycles:   15957015 heartbeat IPC: 0.93375 cumulative IPC: 0.93865 (Simulation time: 0 hr 6 min 16 sec) 
Heartbeat CPU  0 instructions:   17000001 cycles:   17030792 heartbeat IPC: 0.93129 cumulative IPC: 0.93815 (Simulation time: 0 hr 6 min 43 sec) 
Heartbeat CPU  0 instructions:   18000003 cycles:   18117828 heartbeat IPC: 0.91993 cumulative IPC: 0.93699 (Simulation time: 0 hr 7 min 19 sec) 
Heartbeat CPU  0 instructions:   19000003 cycles:   19194614 heartbeat IPC: 0.92869 cumulative IPC: 0.93650 (Simulation time: 0 hr 7 min 49 sec) 
Heartbeat CPU  0 instructions:   20000000 cycles:   20277756 heartbeat IPC: 0.92324 cumulative IPC: 0.93575 (Simulation time: 0 hr 8 min 17 sec) 
Heartbeat CPU  0 instructions:   21000001 cycles:   21343656 heartbeat IPC: 0.93818 cumulative IPC: 0.93588 (Simulation time: 0 hr 8 min 47 sec) 
Heartbeat CPU  0 instructions:   22000001 cycles:   22431837 heartbeat IPC: 0.91896 cumulative IPC: 0.93502 (Simulation time: 0 hr 9 min 16 sec) 
Heartbeat CPU  0 instructions:   23000002 cycles:   23504634 heartbeat IPC: 0.93214 cumulative IPC: 0.93488 (Simulation time: 0 hr 9 min 43 sec) 
Heartbeat CPU  0 instructions:   24000000 cycles:   24569493 heartbeat IPC: 0.93909 cumulative IPC: 0.93507 (Simulation time: 0 hr 10 min 10 sec) 
Heartbeat CPU  0 instructions:   25000000 cycles:   25596600 heartbeat IPC: 0.97361 cumulative IPC: 0.93668 (Simulation time: 0 hr 10 min 28 sec) 
Heartbeat CPU  0 instructions:   26000003 cycles:   26722267 heartbeat IPC: 0.88836 cumulative IPC: 0.93457 (Simulation time: 0 hr 10 min 56 sec) 
Heartbeat CPU  0 instructions:   27000003 cycles:   27784700 heartbeat IPC: 0.94124 cumulative IPC: 0.93483 (Simulation time: 0 hr 11 min 26 sec) 
Heartbeat CPU  0 instructions:   28000000 cycles:   28858181 heartbeat IPC: 0.93155 cumulative IPC: 0.93470 (Simulation time: 0 hr 11 min 55 sec) 
Heartbeat CPU  0 instructions:   29000000 cycles:   29932138 heartbeat IPC: 0.93114 cumulative IPC: 0.93457 (Simulation time: 0 hr 12 min 22 sec) 
Heartbeat CPU  0 instructions:   30000002 cycles:   31011972 heartbeat IPC: 0.92607 cumulative IPC: 0.93427 (Simulation time: 0 hr 13 min 0 sec) 
Heartbeat CPU  0 instructions:   31000001 cycles:   32070671 heartbeat IPC: 0.94455 cumulative IPC: 0.93462 (Simulation time: 0 hr 13 min 46 sec) 
Heartbeat CPU  0 instructions:   32000000 cycles:   33136444 heartbeat IPC: 0.93829 cumulative IPC: 0.93474 (Simulation time: 0 hr 14 min 24 sec) 
Heartbeat CPU  0 instructions:   33000001 cycles:   34211969 heartbeat IPC: 0.92978 cumulative IPC: 0.93458 (Simulation time: 0 hr 14 min 58 sec) 
Heartbeat CPU  0 instructions:   34000000 cycles:   35280648 heartbeat IPC: 0.93573 cumulative IPC: 0.93461 (Simulation time: 0 hr 15 min 28 sec) 
Heartbeat CPU  0 instructions:   35000003 cycles:   36357539 heartbeat IPC: 0.92860 cumulative IPC: 0.93443 (Simulation time: 0 hr 16 min 0 sec) 
Heartbeat CPU  0 instructions:   36000000 cycles:   37425998 heartbeat IPC: 0.93592 cumulative IPC: 0.93447 (Simulation time: 0 hr 16 min 30 sec) 
Heartbeat CPU  0 instructions:   37000000 cycles:   38489373 heartbeat IPC: 0.94040 cumulative IPC: 0.93464 (Simulation time: 0 hr 17 min 3 sec) 
Heartbeat CPU  0 instructions:   38000003 cycles:   39579771 heartbeat IPC: 0.91710 cumulative IPC: 0.93415 (Simulation time: 0 hr 17 min 36 sec) 
Heartbeat CPU  0 instructions:   39000003 cycles:   40652795 heartbeat IPC: 0.93195 cumulative IPC: 0.93409 (Simulation time: 0 hr 18 min 10 sec) 
Heartbeat CPU  0 instructions:   40000000 cycles:   41715668 heartbeat IPC: 0.94084 cumulative IPC: 0.93426 (Simulation time: 0 hr 18 min 45 sec) 
Heartbeat CPU  0 instructions:   41000002 cycles:   42817298 heartbeat IPC: 0.90775 cumulative IPC: 0.93356 (Simulation time: 0 hr 19 min 17 sec) 
Heartbeat CPU  0 instructions:   42000001 cycles:   43886810 heartbeat IPC: 0.93500 cumulative IPC: 0.93360 (Simulation time: 0 hr 19 min 43 sec) 
Heartbeat CPU  0 instructions:   43000001 cycles:   44973386 heartbeat IPC: 0.92032 cumulative IPC: 0.93327 (Simulation time: 0 hr 20 min 10 sec) 
Heartbeat CPU  0 instructions:   44000000 cycles:   46059395 heartbeat IPC: 0.92080 cumulative IPC: 0.93297 (Simulation time: 0 hr 20 min 33 sec) 
Heartbeat CPU  0 instructions:   45000002 cycles:   47132541 heartbeat IPC: 0.93184 cumulative IPC: 0.93294 (Simulation time: 0 hr 20 min 58 sec) 
Heartbeat CPU  0 instructions:   46000001 cycles:   48223361 heartbeat IPC: 0.91674 cumulative IPC: 0.93257 (Simulation time: 0 hr 21 min 20 sec) 
Heartbeat CPU  0 instructions:   47000001 cycles:   49311216 heartbeat IPC: 0.91924 cumulative IPC: 0.93227 (Simulation time: 0 hr 21 min 47 sec) 
Heartbeat CPU  0 instructions:   48000000 cycles:   50385196 heartbeat IPC: 0.93112 cumulative IPC: 0.93224 (Simulation time: 0 hr 22 min 11 sec) 
Heartbeat CPU  0 instructions:   49000000 cycles:   51463843 heartbeat IPC: 0.92709 cumulative IPC: 0.93213 (Simulation time: 0 hr 22 min 32 sec) 
Heartbeat CPU  0 instructions:   50000000 cycles:   52462402 heartbeat IPC: 1.00144 cumulative IPC: 0.93348 (Simulation time: 0 hr 23 min 3 sec) 
Heartbeat CPU  0 instructions:   51000000 cycles:   53392601 heartbeat IPC: 1.07504 cumulative IPC: 0.93600 (Simulation time: 0 hr 23 min 34 sec) 
Heartbeat CPU  0 instructions:   52000000 cycles:   54320474 heartbeat IPC: 1.07773 cumulative IPC: 0.93846 (Simulation time: 0 hr 23 min 59 sec) 
Heartbeat CPU  0 instructions:   53000002 cycles:   55246072 heartbeat IPC: 1.08038 cumulative IPC: 0.94089 (Simulation time: 0 hr 24 min 26 sec) 
Heartbeat CPU  0 instructions:   54000003 cycles:   56178186 heartbeat IPC: 1.07283 cumulative IPC: 0.94312 (Simulation time: 0 hr 24 min 52 sec) 
Heartbeat CPU  0 instructions:   55000001 cycles:   57112693 heartbeat IPC: 1.07008 cumulative IPC: 0.94523 (Simulation time: 0 hr 25 min 16 sec) 
Heartbeat CPU  0 instructions:   56000000 cycles:   58044516 heartbeat IPC: 1.07316 cumulative IPC: 0.94733 (Simulation time: 0 hr 25 min 41 sec) 
Heartbeat CPU  0 instructions:   57000000 cycles:   58982093 heartbeat IPC: 1.06658 cumulative IPC: 0.94925 (Simulation time: 0 hr 26 min 5 sec) 
Heartbeat CPU  0 instructions:   58000001 cycles:   59922372 heartbeat IPC: 1.06352 cumulative IPC: 0.95108 (Simulation time: 0 hr 26 min 31 sec) 
Heartbeat CPU  0 instructions:   59000001 cycles:   60848016 heartbeat IPC: 1.08033 cumulative IPC: 0.95308 (Simulation time: 0 hr 26 min 54 sec) 
Heartbeat CPU  0 instructions:   60000000 cycles:   61766311 heartbeat IPC: 1.08897 cumulative IPC: 0.95513 (Simulation time: 0 hr 27 min 20 sec) 
Heartbeat CPU  0 instructions:   61000001 cycles:   62686536 heartbeat IPC: 1.08669 cumulative IPC: 0.95710 (Simulation time: 0 hr 27 min 45 sec) 
Heartbeat CPU  0 instructions:   62000001 cycles:   63606846 heartbeat IPC: 1.08659 cumulative IPC: 0.95900 (Simulation time: 0 hr 28 min 10 sec) 
Heartbeat CPU  0 instructions:   63000000 cycles:   64528437 heartbeat IPC: 1.08508 cumulative IPC: 0.96083 (Simulation time: 0 hr 28 min 37 sec) 
Heartbeat CPU  0 instructions:   64000000 cycles:   65441375 heartbeat IPC: 1.09536 cumulative IPC: 0.96274 (Simulation time: 0 hr 29 min 2 sec) 
Heartbeat CPU  0 instructions:   65000003 cycles:   66341942 heartbeat IPC: 1.11041 cumulative IPC: 0.96478 (Simulation time: 0 hr 29 min 22 sec) 
Heartbeat CPU  0 instructions:   66000000 cycles:   67469476 heartbeat IPC: 0.88689 cumulative IPC: 0.96346 (Simulation time: 0 hr 29 min 50 sec) 
Heartbeat CPU  0 instructions:   67000001 cycles:   68541056 heartbeat IPC: 0.93320 cumulative IPC: 0.96298 (Simulation time: 0 hr 30 min 18 sec) 
Heartbeat CPU  0 instructions:   68000000 cycles:   69588323 heartbeat IPC: 0.95487 cumulative IPC: 0.96285 (Simulation time: 0 hr 30 min 46 sec) 
Heartbeat CPU  0 instructions:   69000001 cycles:   70646120 heartbeat IPC: 0.94536 cumulative IPC: 0.96259 (Simulation time: 0 hr 31 min 10 sec) 
Heartbeat CPU  0 instructions:   70000001 cycles:   71705213 heartbeat IPC: 0.94420 cumulative IPC: 0.96231 (Simulation time: 0 hr 31 min 36 sec) 
Heartbeat CPU  0 instructions:   71000003 cycles:   72741308 heartbeat IPC: 0.96516 cumulative IPC: 0.96235 (Simulation time: 0 hr 32 min 0 sec) 
Heartbeat CPU  0 instructions:   72000000 cycles:   73785710 heartbeat IPC: 0.95748 cumulative IPC: 0.96228 (Simulation time: 0 hr 32 min 37 sec) 
Heartbeat CPU  0 instructions:   73000001 cycles:   74853058 heartbeat IPC: 0.93690 cumulative IPC: 0.96191 (Simulation time: 0 hr 33 min 2 sec) 
Heartbeat CPU  0 instructions:   74000001 cycles:   75923473 heartbeat IPC: 0.93422 cumulative IPC: 0.96152 (Simulation time: 0 hr 33 min 25 sec) 
Heartbeat CPU  0 instructions:   75000001 cycles:   76994215 heartbeat IPC: 0.93393 cumulative IPC: 0.96113 (Simulation time: 0 hr 34 min 1 sec) 
Heartbeat CPU  0 instructions:   76000000 cycles:   78055497 heartbeat IPC: 0.94226 cumulative IPC: 0.96087 (Simulation time: 0 hr 34 min 26 sec) 
Heartbeat CPU  0 instructions:   77000003 cycles:   79109549 heartbeat IPC: 0.94872 cumulative IPC: 0.96071 (Simulation time: 0 hr 34 min 53 sec) 
Heartbeat CPU  0 instructions:   78000002 cycles:   80164021 heartbeat IPC: 0.94834 cumulative IPC: 0.96054 (Simulation time: 0 hr 35 min 18 sec) 
Heartbeat CPU  0 instructions:   79000001 cycles:   81221122 heartbeat IPC: 0.94598 cumulative IPC: 0.96035 (Simulation time: 0 hr 35 min 43 sec) 
Heartbeat CPU  0 instructions:   80000000 cycles:   82264660 heartbeat IPC: 0.95828 cumulative IPC: 0.96032 (Simulation time: 0 hr 36 min 8 sec) 
Heartbeat CPU  0 instructions:   81000000 cycles:   83327693 heartbeat IPC: 0.94070 cumulative IPC: 0.96007 (Simulation time: 0 hr 36 min 32 sec) 
Heartbeat CPU  0 instructions:   82000000 cycles:   84410029 heartbeat IPC: 0.92393 cumulative IPC: 0.95960 (Simulation time: 0 hr 36 min 59 sec) 
Heartbeat CPU  0 instructions:   83000003 cycles:   85497324 heartbeat IPC: 0.91972 cumulative IPC: 0.95909 (Simulation time: 0 hr 37 min 25 sec) 
Heartbeat CPU  0 instructions:   84000000 cycles:   86580857 heartbeat IPC: 0.92290 cumulative IPC: 0.95863 (Simulation time: 0 hr 37 min 52 sec) 
Heartbeat CPU  0 instructions:   85000003 cycles:   87651460 heartbeat IPC: 0.93406 cumulative IPC: 0.95832 (Simulation time: 0 hr 38 min 21 sec) 
Heartbeat CPU  0 instructions:   86000001 cycles:   88716302 heartbeat IPC: 0.93910 cumulative IPC: 0.95809 (Simulation time: 0 hr 38 min 51 sec) 
Heartbeat CPU  0 instructions:   87000001 cycles:   89796852 heartbeat IPC: 0.92545 cumulative IPC: 0.95769 (Simulation time: 0 hr 39 min 17 sec) 
Heartbeat CPU  0 instructions:   88000000 cycles:   90864845 heartbeat IPC: 0.93633 cumulative IPC: 0.95744 (Simulation time: 0 hr 39 min 45 sec) 
Heartbeat CPU  0 instructions:   89000002 cycles:   91930731 heartbeat IPC: 0.93819 cumulative IPC: 0.95721 (Simulation time: 0 hr 40 min 11 sec) 
Heartbeat CPU  0 instructions:   90000002 cycles:   92952698 heartbeat IPC: 0.97851 cumulative IPC: 0.95745 (Simulation time: 0 hr 40 min 37 sec) 
Heartbeat CPU  0 instructions:   91000001 cycles:   94034329 heartbeat IPC: 0.92453 cumulative IPC: 0.95707 (Simulation time: 0 hr 41 min 11 sec) 
Heartbeat CPU  0 instructions:   92000000 cycles:   95109400 heartbeat IPC: 0.93017 cumulative IPC: 0.95676 (Simulation time: 0 hr 41 min 40 sec) 
Heartbeat CPU  0 instructions:   93000000 cycles:   96186550 heartbeat IPC: 0.92838 cumulative IPC: 0.95644 (Simulation time: 0 hr 42 min 7 sec) 
Heartbeat CPU  0 instructions:   94000000 cycles:   97240772 heartbeat IPC: 0.94857 cumulative IPC: 0.95635 (Simulation time: 0 hr 42 min 35 sec) 
Heartbeat CPU  0 instructions:   95000000 cycles:   98297509 heartbeat IPC: 0.94631 cumulative IPC: 0.95624 (Simulation time: 0 hr 43 min 3 sec) 
Heartbeat CPU  0 instructions:   96000000 cycles:   99366889 heartbeat IPC: 0.93512 cumulative IPC: 0.95601 (Simulation time: 0 hr 43 min 30 sec) 
Heartbeat CPU  0 instructions:   97000002 cycles:  100421062 heartbeat IPC: 0.94861 cumulative IPC: 0.95593 (Simulation time: 0 hr 43 min 57 sec) 
Heartbeat CPU  0 instructions:   98000000 cycles:  101494930 heartbeat IPC: 0.93121 cumulative IPC: 0.95567 (Simulation time: 0 hr 44 min 24 sec) 
Heartbeat CPU  0 instructions:   99000000 cycles:  102560174 heartbeat IPC: 0.93875 cumulative IPC: 0.95549 (Simulation time: 0 hr 44 min 51 sec) 
Heartbeat CPU  0 instructions:  100000000 cycles:  103642865 heartbeat IPC: 0.92362 cumulative IPC: 0.95516 (Simulation time: 0 hr 45 min 17 sec) 
Heartbeat CPU  0 instructions:  101000001 cycles:  104715129 heartbeat IPC: 0.93261 cumulative IPC: 0.95492 (Simulation time: 0 hr 45 min 42 sec) 
Heartbeat CPU  0 instructions:  102000003 cycles:  105784472 heartbeat IPC: 0.93516 cumulative IPC: 0.95472 (Simulation time: 0 hr 46 min 7 sec) 
Heartbeat CPU  0 instructions:  103000001 cycles:  106858614 heartbeat IPC: 0.93097 cumulative IPC: 0.95448 (Simulation time: 0 hr 46 min 31 sec) 
Heartbeat CPU  0 instructions:  104000000 cycles:  107912957 heartbeat IPC: 0.94846 cumulative IPC: 0.95442 (Simulation time: 0 hr 46 min 57 sec) 
Heartbeat CPU  0 instructions:  105000001 cycles:  108989201 heartbeat IPC: 0.92916 cumulative IPC: 0.95417 (Simulation time: 0 hr 47 min 20 sec) 
Heartbeat CPU  0 instructions:  106000000 cycles:  110058396 heartbeat IPC: 0.93528 cumulative IPC: 0.95398 (Simulation time: 0 hr 47 min 46 sec) 
Heartbeat CPU  0 instructions:  107000001 cycles:  111141769 heartbeat IPC: 0.92304 cumulative IPC: 0.95368 (Simulation time: 0 hr 48 min 10 sec) 
Heartbeat CPU  0 instructions:  108000000 cycles:  112221858 heartbeat IPC: 0.92585 cumulative IPC: 0.95341 (Simulation time: 0 hr 48 min 38 sec) 
Heartbeat CPU  0 instructions:  109000000 cycles:  113321897 heartbeat IPC: 0.90906 cumulative IPC: 0.95297 (Simulation time: 0 hr 49 min 4 sec) 
Heartbeat CPU  0 instructions:  110000002 cycles:  114407419 heartbeat IPC: 0.92122 cumulative IPC: 0.95267 (Simulation time: 0 hr 49 min 32 sec) 
Heartbeat CPU  0 instructions:  111000002 cycles:  115494248 heartbeat IPC: 0.92011 cumulative IPC: 0.95236 (Simulation time: 0 hr 49 min 56 sec) 
Heartbeat CPU  0 instructions:  112000000 cycles:  116546757 heartbeat IPC: 0.95011 cumulative IPC: 0.95234 (Simulation time: 0 hr 50 min 21 sec) 
Heartbeat CPU  0 instructions:  113000000 cycles:  117607195 heartbeat IPC: 0.94301 cumulative IPC: 0.95226 (Simulation time: 0 hr 50 min 52 sec) 
Heartbeat CPU  0 instructions:  114000000 cycles:  118637443 heartbeat IPC: 0.97064 cumulative IPC: 0.95242 (Simulation time: 0 hr 51 min 21 sec) 
Heartbeat CPU  0 instructions:  115000002 cycles:  119553123 heartbeat IPC: 1.09209 cumulative IPC: 0.95350 (Simulation time: 0 hr 51 min 56 sec) 
Heartbeat CPU  0 instructions:  116000000 cycles:  120472059 heartbeat IPC: 1.08821 cumulative IPC: 0.95453 (Simulation time: 0 hr 52 min 28 sec) 
Heartbeat CPU  0 instructions:  117000000 cycles:  121384372 heartbeat IPC: 1.09611 cumulative IPC: 0.95561 (Simulation time: 0 hr 52 min 57 sec) 
Heartbeat CPU  0 instructions:  118000003 cycles:  122305865 heartbeat IPC: 1.08520 cumulative IPC: 0.95659 (Simulation time: 0 hr 53 min 31 sec) 
Heartbeat CPU  0 instructions:  119000001 cycles:  123226300 heartbeat IPC: 1.08644 cumulative IPC: 0.95757 (Simulation time: 0 hr 54 min 3 sec) 
Heartbeat CPU  0 instructions:  120000000 cycles:  124139285 heartbeat IPC: 1.09531 cumulative IPC: 0.95859 (Simulation time: 0 hr 54 min 37 sec) 
Heartbeat CPU  0 instructions:  121000001 cycles:  125052519 heartbeat IPC: 1.09501 cumulative IPC: 0.95960 (Simulation time: 0 hr 55 min 8 sec) 
Heartbeat CPU  0 instructions:  122000000 cycles:  125961019 heartbeat IPC: 1.10071 cumulative IPC: 0.96062 (Simulation time: 0 hr 55 min 41 sec) 
Heartbeat CPU  0 instructions:  123000003 cycles:  126858164 heartbeat IPC: 1.11465 cumulative IPC: 0.96172 (Simulation time: 0 hr 56 min 6 sec) 
Heartbeat CPU  0 instructions:  124000000 cycles:  127756270 heartbeat IPC: 1.11345 cumulative IPC: 0.96280 (Simulation time: 0 hr 56 min 33 sec) 
Heartbeat CPU  0 instructions:  125000003 cycles:  128649349 heartbeat IPC: 1.11973 cumulative IPC: 0.96389 (Simulation time: 0 hr 57 min 0 sec) 
Heartbeat CPU  0 instructions:  126000003 cycles:  129558582 heartbeat IPC: 1.09983 cumulative IPC: 0.96486 (Simulation time: 0 hr 57 min 29 sec) 
Heartbeat CPU  0 instructions:  127000002 cycles:  130462395 heartbeat IPC: 1.10642 cumulative IPC: 0.96584 (Simulation time: 0 hr 57 min 56 sec) 
Heartbeat CPU  0 instructions:  128000000 cycles:  131369978 heartbeat IPC: 1.10183 cumulative IPC: 0.96679 (Simulation time: 0 hr 58 min 25 sec) 
Heartbeat CPU  0 instructions:  129000000 cycles:  132261538 heartbeat IPC: 1.12163 cumulative IPC: 0.96784 (Simulation time: 0 hr 58 min 50 sec) 
Heartbeat CPU  0 instructions:  130000000 cycles:  132811807 heartbeat IPC: 1.81729 cumulative IPC: 0.97139 (Simulation time: 0 hr 58 min 58 sec) 
Heartbeat CPU  0 instructions:  131000000 cycles:  133185093 heartbeat IPC: 2.67891 cumulative IPC: 0.97621 (Simulation time: 0 hr 59 min 0 sec) 
Heartbeat CPU  0 instructions:  132000000 cycles:  134268302 heartbeat IPC: 0.92318 cumulative IPC: 0.97578 (Simulation time: 0 hr 59 min 11 sec) 
Heartbeat CPU  0 instructions:  133000000 cycles:  140982081 heartbeat IPC: 0.14895 cumulative IPC: 0.93611 (Simulation time: 1 hr 0 min 7 sec) 
Heartbeat CPU  0 instructions:  134000000 cycles:  148183989 heartbeat IPC: 0.13885 cumulative IPC: 0.89709 (Simulation time: 1 hr 1 min 3 sec) 
Heartbeat CPU  0 instructions:  135000002 cycles:  155420389 heartbeat IPC: 0.13819 cumulative IPC: 0.86152 (Simulation time: 1 hr 1 min 58 sec) 
Heartbeat CPU  0 instructions:  136000000 cycles:  162634295 heartbeat IPC: 0.13862 cumulative IPC: 0.82925 (Simulation time: 1 hr 2 min 59 sec) 
Heartbeat CPU  0 instructions:  137000000 cycles:  166805167 heartbeat IPC: 0.23976 cumulative IPC: 0.81441 (Simulation time: 1 hr 3 min 33 sec) 
Heartbeat CPU  0 instructions:  138000002 cycles:  168951524 heartbeat IPC: 0.46591 cumulative IPC: 0.80996 (Simulation time: 1 hr 3 min 48 sec) 
Heartbeat CPU  0 instructions:  139000000 cycles:  171451272 heartbeat IPC: 0.40004 cumulative IPC: 0.80395 (Simulation time: 1 hr 4 min 3 sec) 
Heartbeat CPU  0 instructions:  140000000 cycles:  173963425 heartbeat IPC: 0.39806 cumulative IPC: 0.79805 (Simulation time: 1 hr 4 min 15 sec) 
Heartbeat CPU  0 instructions:  141000002 cycles:  176339966 heartbeat IPC: 0.42078 cumulative IPC: 0.79294 (Simulation time: 1 hr 4 min 31 sec) 
Heartbeat CPU  0 instructions:  142000001 cycles:  178687749 heartbeat IPC: 0.42593 cumulative IPC: 0.78808 (Simulation time: 1 hr 4 min 45 sec) 
Heartbeat CPU  0 instructions:  143000000 cycles:  181043801 heartbeat IPC: 0.42444 cumulative IPC: 0.78333 (Simulation time: 1 hr 4 min 59 sec) 
Heartbeat CPU  0 instructions:  144000000 cycles:  183493630 heartbeat IPC: 0.40819 cumulative IPC: 0.77829 (Simulation time: 1 hr 5 min 11 sec) 
Heartbeat CPU  0 instructions:  145000000 cycles:  185883590 heartbeat IPC: 0.41842 cumulative IPC: 0.77364 (Simulation time: 1 hr 5 min 25 sec) 
Heartbeat CPU  0 instructions:  146000003 cycles:  188283572 heartbeat IPC: 0.41667 cumulative IPC: 0.76906 (Simulation time: 1 hr 5 min 37 sec) 
Heartbeat CPU  0 instructions:  147000002 cycles:  190635186 heartbeat IPC: 0.42524 cumulative IPC: 0.76480 (Simulation time: 1 hr 5 min 48 sec) 
Heartbeat CPU  0 instructions:  148000000 cycles:  193001498 heartbeat IPC: 0.42260 cumulative IPC: 0.76058 (Simulation time: 1 hr 5 min 57 sec) 
Heartbeat CPU  0 instructions:  149000003 cycles:  195342882 heartbeat IPC: 0.42710 cumulative IPC: 0.75656 (Simulation time: 1 hr 6 min 7 sec) 
Heartbeat CPU  0 instructions:  150000001 cycles:  197669363 heartbeat IPC: 0.42983 cumulative IPC: 0.75269 (Simulation time: 1 hr 6 min 18 sec) 
Heartbeat CPU  0 instructions:  151000000 cycles:  200171767 heartbeat IPC: 0.39962 cumulative IPC: 0.74826 (Simulation time: 1 hr 6 min 29 sec) 
Heartbeat CPU  0 instructions:  152000000 cycles:  202696984 heartbeat IPC: 0.39601 cumulative IPC: 0.74384 (Simulation time: 1 hr 6 min 40 sec) 
Heartbeat CPU  0 instructions:  153000002 cycles:  205149398 heartbeat IPC: 0.40776 cumulative IPC: 0.73981 (Simulation time: 1 hr 6 min 48 sec) 
Heartbeat CPU  0 instructions:  154000003 cycles:  207556285 heartbeat IPC: 0.41547 cumulative IPC: 0.73603 (Simulation time: 1 hr 6 min 58 sec) 
Heartbeat CPU  0 instructions:  155000000 cycles:  209907564 heartbeat IPC: 0.42530 cumulative IPC: 0.73253 (Simulation time: 1 hr 7 min 10 sec) 
Heartbeat CPU  0 instructions:  156000000 cycles:  212272515 heartbeat IPC: 0.42284 cumulative IPC: 0.72906 (Simulation time: 1 hr 7 min 20 sec) 
Heartbeat CPU  0 instructions:  157000000 cycles:  214638686 heartbeat IPC: 0.42262 cumulative IPC: 0.72567 (Simulation time: 1 hr 7 min 31 sec) 
Heartbeat CPU  0 instructions:  158000001 cycles:  216977355 heartbeat IPC: 0.42759 cumulative IPC: 0.72244 (Simulation time: 1 hr 7 min 40 sec) 
Heartbeat CPU  0 instructions:  159000002 cycles:  219350969 heartbeat IPC: 0.42130 cumulative IPC: 0.71916 (Simulation time: 1 hr 7 min 51 sec) 
Heartbeat CPU  0 instructions:  160000000 cycles:  221781626 heartbeat IPC: 0.41141 cumulative IPC: 0.71578 (Simulation time: 1 hr 8 min 2 sec) 
Heartbeat CPU  0 instructions:  161000001 cycles:  224153870 heartbeat IPC: 0.42154 cumulative IPC: 0.71265 (Simulation time: 1 hr 8 min 13 sec) 
Heartbeat CPU  0 instructions:  162000000 cycles:  226518975 heartbeat IPC: 0.42281 cumulative IPC: 0.70961 (Simulation time: 1 hr 8 min 23 sec) 
Heartbeat CPU  0 instructions:  163000001 cycles:  228921101 heartbeat IPC: 0.41630 cumulative IPC: 0.70651 (Simulation time: 1 hr 8 min 35 sec) 
Heartbeat CPU  0 instructions:  164000000 cycles:  231287831 heartbeat IPC: 0.42252 cumulative IPC: 0.70360 (Simulation time: 1 hr 8 min 46 sec) 
Heartbeat CPU  0 instructions:  165000000 cycles:  233659742 heartbeat IPC: 0.42160 cumulative IPC: 0.70072 (Simulation time: 1 hr 8 min 58 sec) 
Heartbeat CPU  0 instructions:  166000002 cycles:  236109704 heartbeat IPC: 0.40817 cumulative IPC: 0.69767 (Simulation time: 1 hr 9 min 9 sec) 
Heartbeat CPU  0 instructions:  167000000 cycles:  238527875 heartbeat IPC: 0.41353 cumulative IPC: 0.69478 (Simulation time: 1 hr 9 min 19 sec) 
Heartbeat CPU  0 instructions:  168000000 cycles:  240881784 heartbeat IPC: 0.42483 cumulative IPC: 0.69213 (Simulation time: 1 hr 9 min 31 sec) 
Heartbeat CPU  0 instructions:  169000000 cycles:  243299069 heartbeat IPC: 0.41369 cumulative IPC: 0.68935 (Simulation time: 1 hr 9 min 42 sec) 
Heartbeat CPU  0 instructions:  170000000 cycles:  245690215 heartbeat IPC: 0.41821 cumulative IPC: 0.68670 (Simulation time: 1 hr 9 min 53 sec) 
Heartbeat CPU  0 instructions:  171000000 cycles:  248099570 heartbeat IPC: 0.41505 cumulative IPC: 0.68405 (Simulation time: 1 hr 10 min 2 sec) 
Heartbeat CPU  0 instructions:  172000000 cycles:  250505590 heartbeat IPC: 0.41562 cumulative IPC: 0.68146 (Simulation time: 1 hr 10 min 13 sec) 
Heartbeat CPU  0 instructions:  173000001 cycles:  252885663 heartbeat IPC: 0.42016 cumulative IPC: 0.67899 (Simulation time: 1 hr 10 min 24 sec) 
Heartbeat CPU  0 instructions:  174000000 cycles:  255275607 heartbeat IPC: 0.41842 cumulative IPC: 0.67654 (Simulation time: 1 hr 10 min 35 sec) 
Heartbeat CPU  0 instructions:  175000003 cycles:  257671927 heartbeat IPC: 0.41731 cumulative IPC: 0.67412 (Simulation time: 1 hr 10 min 46 sec) 
Heartbeat CPU  0 instructions:  176000000 cycles:  260011134 heartbeat IPC: 0.42749 cumulative IPC: 0.67189 (Simulation time: 1 hr 10 min 56 sec) 
Heartbeat CPU  0 instructions:  177000000 cycles:  262362954 heartbeat IPC: 0.42520 cumulative IPC: 0.66967 (Simulation time: 1 hr 11 min 6 sec) 
Heartbeat CPU  0 instructions:  178000000 cycles:  264801608 heartbeat IPC: 0.41006 cumulative IPC: 0.66727 (Simulation time: 1 hr 11 min 17 sec) 
Heartbeat CPU  0 instructions:  179000003 cycles:  267226177 heartbeat IPC: 0.41245 cumulative IPC: 0.66495 (Simulation time: 1 hr 11 min 29 sec) 
Heartbeat CPU  0 instructions:  180000000 cycles:  269650240 heartbeat IPC: 0.41253 cumulative IPC: 0.66267 (Simulation time: 1 hr 11 min 38 sec) 
Heartbeat CPU  0 instructions:  181000002 cycles:  272118017 heartbeat IPC: 0.40522 cumulative IPC: 0.66033 (Simulation time: 1 hr 11 min 49 sec) 
Heartbeat CPU  0 instructions:  182000001 cycles:  274487523 heartbeat IPC: 0.42203 cumulative IPC: 0.65827 (Simulation time: 1 hr 12 min 0 sec) 
Heartbeat CPU  0 instructions:  183000000 cycles:  276872007 heartbeat IPC: 0.41938 cumulative IPC: 0.65620 (Simulation time: 1 hr 12 min 11 sec) 
Heartbeat CPU  0 instructions:  184000000 cycles:  279226435 heartbeat IPC: 0.42473 cumulative IPC: 0.65424 (Simulation time: 1 hr 12 min 22 sec) 
Heartbeat CPU  0 instructions:  185000002 cycles:  281602998 heartbeat IPC: 0.42078 cumulative IPC: 0.65226 (Simulation time: 1 hr 12 min 32 sec) 
Heartbeat CPU  0 instructions:  186000000 cycles:  283944476 heartbeat IPC: 0.42708 cumulative IPC: 0.65040 (Simulation time: 1 hr 12 min 43 sec) 
Heartbeat CPU  0 instructions:  187000000 cycles:  286318394 heartbeat IPC: 0.42124 cumulative IPC: 0.64849 (Simulation time: 1 hr 12 min 55 sec) 
Heartbeat CPU  0 instructions:  188000000 cycles:  288678658 heartbeat IPC: 0.42368 cumulative IPC: 0.64665 (Simulation time: 1 hr 13 min 6 sec) 
Heartbeat CPU  0 instructions:  189000000 cycles:  291106509 heartbeat IPC: 0.41189 cumulative IPC: 0.64468 (Simulation time: 1 hr 13 min 16 sec) 
Heartbeat CPU  0 instructions:  190000001 cycles:  293444232 heartbeat IPC: 0.42777 cumulative IPC: 0.64295 (Simulation time: 1 hr 13 min 29 sec) 
Heartbeat CPU  0 instructions:  191000002 cycles:  295830571 heartbeat IPC: 0.41905 cumulative IPC: 0.64114 (Simulation time: 1 hr 13 min 41 sec) 
Heartbeat CPU  0 instructions:  192000000 cycles:  298173787 heartbeat IPC: 0.42676 cumulative IPC: 0.63945 (Simulation time: 1 hr 13 min 52 sec) 
Heartbeat CPU  0 instructions:  193000000 cycles:  300521255 heartbeat IPC: 0.42599 cumulative IPC: 0.63777 (Simulation time: 1 hr 14 min 2 sec) 
Heartbeat CPU  0 instructions:  194000002 cycles:  302872836 heartbeat IPC: 0.42525 cumulative IPC: 0.63612 (Simulation time: 1 hr 14 min 12 sec) 
Heartbeat CPU  0 instructions:  195000003 cycles:  305368274 heartbeat IPC: 0.40073 cumulative IPC: 0.63419 (Simulation time: 1 hr 14 min 25 sec) 
Heartbeat CPU  0 instructions:  196000000 cycles:  307816359 heartbeat IPC: 0.40848 cumulative IPC: 0.63239 (Simulation time: 1 hr 14 min 36 sec) 
Heartbeat CPU  0 instructions:  197000000 cycles:  310187868 heartbeat IPC: 0.42167 cumulative IPC: 0.63077 (Simulation time: 1 hr 14 min 47 sec) 
Heartbeat CPU  0 instructions:  198000000 cycles:  312564994 heartbeat IPC: 0.42068 cumulative IPC: 0.62917 (Simulation time: 1 hr 14 min 57 sec) 
Heartbeat CPU  0 instructions:  199000002 cycles:  314918971 heartbeat IPC: 0.42481 cumulative IPC: 0.62763 (Simulation time: 1 hr 15 min 8 sec) 
Heartbeat CPU  0 instructions:  200000000 cycles:  317264338 heartbeat IPC: 0.42637 cumulative IPC: 0.62614 (Simulation time: 1 hr 15 min 19 sec) 
Heartbeat CPU  0 instructions:  201000003 cycles:  318950067 heartbeat IPC: 0.59322 cumulative IPC: 0.62597 (Simulation time: 1 hr 15 min 25 sec) 
Heartbeat CPU  0 instructions:  202000000 cycles:  319592718 heartbeat IPC: 1.55605 cumulative IPC: 0.62784 (Simulation time: 1 hr 15 min 29 sec) 
Heartbeat CPU  0 instructions:  203000000 cycles:  320180731 heartbeat IPC: 1.70064 cumulative IPC: 0.62982 (Simulation time: 1 hr 15 min 45 sec) 
Heartbeat CPU  0 instructions:  204000000 cycles:  320790241 heartbeat IPC: 1.64066 cumulative IPC: 0.63175 (Simulation time: 1 hr 16 min 9 sec) 
Heartbeat CPU  0 instructions:  205000001 cycles:  321375057 heartbeat IPC: 1.70994 cumulative IPC: 0.63372 (Simulation time: 1 hr 16 min 35 sec) 
Heartbeat CPU  0 instructions:  206000000 cycles:  321922695 heartbeat IPC: 1.82602 cumulative IPC: 0.63575 (Simulation time: 1 hr 17 min 1 sec) 
Heartbeat CPU  0 instructions:  207000003 cycles:  322483703 heartbeat IPC: 1.78251 cumulative IPC: 0.63775 (Simulation time: 1 hr 17 min 27 sec) 
Heartbeat CPU  0 instructions:  208000000 cycles:  323065195 heartbeat IPC: 1.71971 cumulative IPC: 0.63971 (Simulation time: 1 hr 17 min 52 sec) 
Heartbeat CPU  0 instructions:  209000003 cycles:  323638578 heartbeat IPC: 1.74404 cumulative IPC: 0.64167 (Simulation time: 1 hr 18 min 15 sec) 
Heartbeat CPU  0 instructions:  210000003 cycles:  324219894 heartbeat IPC: 1.72023 cumulative IPC: 0.64361 (Simulation time: 1 hr 18 min 41 sec) 
Heartbeat CPU  0 instructions:  211000000 cycles:  324787244 heartbeat IPC: 1.76258 cumulative IPC: 0.64557 (Simulation time: 1 hr 19 min 5 sec) 
Heartbeat CPU  0 instructions:  212000000 cycles:  325427681 heartbeat IPC: 1.56143 cumulative IPC: 0.64738 (Simulation time: 1 hr 19 min 27 sec) 
Heartbeat CPU  0 instructions:  213000002 cycles:  326192156 heartbeat IPC: 1.30809 cumulative IPC: 0.64893 (Simulation time: 1 hr 20 min 9 sec) 
Heartbeat CPU  0 instructions:  214000002 cycles:  326928375 heartbeat IPC: 1.35829 cumulative IPC: 0.65053 (Simulation time: 1 hr 20 min 53 sec) 
Heartbeat CPU  0 instructions:  215000003 cycles:  327666129 heartbeat IPC: 1.35547 cumulative IPC: 0.65213 (Simulation time: 1 hr 21 min 30 sec) 
Heartbeat CPU  0 instructions:  216000000 cycles:  328451657 heartbeat IPC: 1.27303 cumulative IPC: 0.65362 (Simulation time: 1 hr 22 min 4 sec) 
Heartbeat CPU  0 instructions:  217000003 cycles:  329192987 heartbeat IPC: 1.34893 cumulative IPC: 0.65519 (Simulation time: 1 hr 22 min 37 sec) 
Heartbeat CPU  0 instructions:  218000002 cycles:  329926755 heartbeat IPC: 1.36283 cumulative IPC: 0.65676 (Simulation time: 1 hr 23 min 25 sec) 
Heartbeat CPU  0 instructions:  219000000 cycles:  330688265 heartbeat IPC: 1.31318 cumulative IPC: 0.65828 (Simulation time: 1 hr 23 min 55 sec) 
Heartbeat CPU  0 instructions:  220000000 cycles:  331449080 heartbeat IPC: 1.31438 cumulative IPC: 0.65979 (Simulation time: 1 hr 24 min 20 sec) 
Heartbeat CPU  0 instructions:  221000003 cycles:  332183935 heartbeat IPC: 1.36082 cumulative IPC: 0.66135 (Simulation time: 1 hr 24 min 52 sec) 
Heartbeat CPU  0 instructions:  222000002 cycles:  332989665 heartbeat IPC: 1.24111 cumulative IPC: 0.66275 (Simulation time: 1 hr 25 min 23 sec) 
Heartbeat CPU  0 instructions:  223000000 cycles:  333829121 heartbeat IPC: 1.19125 cumulative IPC: 0.66409 (Simulation time: 1 hr 26 min 8 sec) 
Heartbeat CPU  0 instructions:  224000000 cycles:  334660294 heartbeat IPC: 1.20312 cumulative IPC: 0.66543 (Simulation time: 1 hr 26 min 48 sec) 
Heartbeat CPU  0 instructions:  225000002 cycles:  335423565 heartbeat IPC: 1.31015 cumulative IPC: 0.66690 (Simulation time: 1 hr 27 min 23 sec) 
Heartbeat CPU  0 instructions:  226000000 cycles:  336148662 heartbeat IPC: 1.37912 cumulative IPC: 0.66844 (Simulation time: 1 hr 27 min 51 sec) 
Heartbeat CPU  0 instructions:  227000000 cycles:  336881599 heartbeat IPC: 1.36437 cumulative IPC: 0.66996 (Simulation time: 1 hr 28 min 25 sec) 
Heartbeat CPU  0 instructions:  228000000 cycles:  337668835 heartbeat IPC: 1.27027 cumulative IPC: 0.67137 (Simulation time: 1 hr 29 min 7 sec) 
Heartbeat CPU  0 instructions:  229000001 cycles:  338391967 heartbeat IPC: 1.38287 cumulative IPC: 0.67289 (Simulation time: 1 hr 29 min 43 sec) 
Heartbeat CPU  0 instructions:  230000001 cycles:  339119900 heartbeat IPC: 1.37375 cumulative IPC: 0.67440 (Simulation time: 1 hr 30 min 16 sec) 
Heartbeat CPU  0 instructions:  231000000 cycles:  339872426 heartbeat IPC: 1.32886 cumulative IPC: 0.67585 (Simulation time: 1 hr 30 min 51 sec) 
Heartbeat CPU  0 instructions:  232000000 cycles:  340638597 heartbeat IPC: 1.30519 cumulative IPC: 0.67727 (Simulation time: 1 hr 31 min 29 sec) 
Heartbeat CPU  0 instructions:  233000003 cycles:  341367993 heartbeat IPC: 1.37100 cumulative IPC: 0.67876 (Simulation time: 1 hr 32 min 0 sec) 
Heartbeat CPU  0 instructions:  234000001 cycles:  342101594 heartbeat IPC: 1.36314 cumulative IPC: 0.68023 (Simulation time: 1 hr 32 min 49 sec) 
Heartbeat CPU  0 instructions:  235000003 cycles:  342882516 heartbeat IPC: 1.28054 cumulative IPC: 0.68160 (Simulation time: 1 hr 33 min 46 sec) 
Heartbeat CPU  0 instructions:  236000000 cycles:  343622972 heartbeat IPC: 1.35052 cumulative IPC: 0.68305 (Simulation time: 1 hr 34 min 51 sec) 
Heartbeat CPU  0 instructions:  237000000 cycles:  344347059 heartbeat IPC: 1.38105 cumulative IPC: 0.68452 (Simulation time: 1 hr 35 min 44 sec) 
Heartbeat CPU  0 instructions:  238000001 cycles:  345077229 heartbeat IPC: 1.36955 cumulative IPC: 0.68598 (Simulation time: 1 hr 36 min 21 sec) 
Heartbeat CPU  0 instructions:  239000001 cycles:  345861204 heartbeat IPC: 1.27555 cumulative IPC: 0.68732 (Simulation time: 1 hr 37 min 40 sec) 
Heartbeat CPU  0 instructions:  240000000 cycles:  346752655 heartbeat IPC: 1.12177 cumulative IPC: 0.68844 (Simulation time: 1 hr 39 min 0 sec) 
Heartbeat CPU  0 instructions:  241000003 cycles:  347489549 heartbeat IPC: 1.35705 cumulative IPC: 0.68986 (Simulation time: 1 hr 40 min 6 sec) 
Heartbeat CPU  0 instructions:  242000002 cycles:  348224499 heartbeat IPC: 1.36064 cumulative IPC: 0.69128 (Simulation time: 1 hr 41 min 2 sec) 
Heartbeat CPU  0 instructions:  243000003 cycles:  348968456 heartbeat IPC: 1.34417 cumulative IPC: 0.69267 (Simulation time: 1 hr 42 min 26 sec) 
Heartbeat CPU  0 instructions:  244000000 cycles:  349745437 heartbeat IPC: 1.28703 cumulative IPC: 0.69400 (Simulation time: 1 hr 43 min 48 sec) 
Heartbeat CPU  0 instructions:  245000000 cycles:  350465456 heartbeat IPC: 1.38885 cumulative IPC: 0.69543 (Simulation time: 1 hr 45 min 23 sec) 
Heartbeat CPU  0 instructions:  246000003 cycles:  351185063 heartbeat IPC: 1.38965 cumulative IPC: 0.69686 (Simulation time: 1 hr 46 min 52 sec) 
Heartbeat CPU  0 instructions:  247000001 cycles:  351958827 heartbeat IPC: 1.29238 cumulative IPC: 0.69817 (Simulation time: 1 hr 47 min 54 sec) 
Heartbeat CPU  0 instructions:  248000000 cycles:  352693648 heartbeat IPC: 1.36087 cumulative IPC: 0.69956 (Simulation time: 1 hr 49 min 5 sec) 
Heartbeat CPU  0 instructions:  249000001 cycles:  353408301 heartbeat IPC: 1.39928 cumulative IPC: 0.70097 (Simulation time: 1 hr 50 min 8 sec) 
Heartbeat CPU  0 instructions:  250000002 cycles:  354144900 heartbeat IPC: 1.35759 cumulative IPC: 0.70234 (Simulation time: 1 hr 51 min 23 sec) 
Heartbeat CPU  0 instructions:  251000000 cycles:  354906319 heartbeat IPC: 1.31333 cumulative IPC: 0.70366 (Simulation time: 1 hr 53 min 0 sec) 
Heartbeat CPU  0 instructions:  252000000 cycles:  355629288 heartbeat IPC: 1.38319 cumulative IPC: 0.70504 (Simulation time: 1 hr 54 min 21 sec) 
Heartbeat CPU  0 instructions:  253000001 cycles:  356352538 heartbeat IPC: 1.38265 cumulative IPC: 0.70642 (Simulation time: 1 hr 56 min 1 sec) 
Heartbeat CPU  0 instructions:  254000003 cycles:  357101554 heartbeat IPC: 1.33509 cumulative IPC: 0.70775 (Simulation time: 1 hr 57 min 23 sec) 
Heartbeat CPU  0 instructions:  255000001 cycles:  357873834 heartbeat IPC: 1.29486 cumulative IPC: 0.70902 (Simulation time: 1 hr 58 min 52 sec) 
Heartbeat CPU  0 instructions:  256000000 cycles:  358672892 heartbeat IPC: 1.25147 cumulative IPC: 0.71023 (Simulation time: 2 hr 0 min 12 sec) 
Heartbeat CPU  0 instructions:  257000002 cycles:  359471421 heartbeat IPC: 1.25231 cumulative IPC: 0.71144 (Simulation time: 2 hr 1 min 36 sec) 
Heartbeat CPU  0 instructions:  258000001 cycles:  360228138 heartbeat IPC: 1.32150 cumulative IPC: 0.71272 (Simulation time: 2 hr 2 min 51 sec) 
Heartbeat CPU  0 instructions:  259000002 cycles:  361050277 heartbeat IPC: 1.21634 cumulative IPC: 0.71387 (Simulation time: 2 hr 4 min 28 sec) 
Heartbeat CPU  0 instructions:  260000000 cycles:  361854274 heartbeat IPC: 1.24378 cumulative IPC: 0.71505 (Simulation time: 2 hr 5 min 56 sec) 
Heartbeat CPU  0 instructions:  261000003 cycles:  362611799 heartbeat IPC: 1.32009 cumulative IPC: 0.71632 (Simulation time: 2 hr 7 min 9 sec) 
Heartbeat CPU  0 instructions:  262000003 cycles:  363374552 heartbeat IPC: 1.31104 cumulative IPC: 0.71757 (Simulation time: 2 hr 8 min 21 sec) 
Heartbeat CPU  0 instructions:  263000003 cycles:  364196324 heartbeat IPC: 1.21688 cumulative IPC: 0.71870 (Simulation time: 2 hr 9 min 50 sec) 
Heartbeat CPU  0 instructions:  264000000 cycles:  364960941 heartbeat IPC: 1.30784 cumulative IPC: 0.71994 (Simulation time: 2 hr 11 min 9 sec) 
Heartbeat CPU  0 instructions:  265000001 cycles:  365713151 heartbeat IPC: 1.32942 cumulative IPC: 0.72120 (Simulation time: 2 hr 12 min 23 sec) 
Heartbeat CPU  0 instructions:  266000000 cycles:  366504019 heartbeat IPC: 1.26443 cumulative IPC: 0.72237 (Simulation time: 2 hr 13 min 35 sec) 
Heartbeat CPU  0 instructions:  267000000 cycles:  367309524 heartbeat IPC: 1.24146 cumulative IPC: 0.72351 (Simulation time: 2 hr 14 min 39 sec) 
Heartbeat CPU  0 instructions:  268000000 cycles:  368070339 heartbeat IPC: 1.31438 cumulative IPC: 0.72474 (Simulation time: 2 hr 15 min 43 sec) 
Heartbeat CPU  0 instructions:  269000001 cycles:  368824654 heartbeat IPC: 1.32571 cumulative IPC: 0.72597 (Simulation time: 2 hr 16 min 42 sec) 
Heartbeat CPU  0 instructions:  270000003 cycles:  369632899 heartbeat IPC: 1.23725 cumulative IPC: 0.72709 (Simulation time: 2 hr 18 min 21 sec) 
Heartbeat CPU  0 instructions:  271000000 cycles:  370408652 heartbeat IPC: 1.28907 cumulative IPC: 0.72827 (Simulation time: 2 hr 20 min 44 sec) 
Heartbeat CPU  0 instructions:  272000000 cycles:  371206402 heartbeat IPC: 1.25353 cumulative IPC: 0.72941 (Simulation time: 2 hr 22 min 37 sec) 
Heartbeat CPU  0 instructions:  273000002 cycles:  372004934 heartbeat IPC: 1.25230 cumulative IPC: 0.73053 (Simulation time: 2 hr 24 min 18 sec) 
Heartbeat CPU  0 instructions:  274000003 cycles:  372773582 heartbeat IPC: 1.30099 cumulative IPC: 0.73171 (Simulation time: 2 hr 26 min 33 sec) 
Heartbeat CPU  0 instructions:  275000002 cycles:  373526803 heartbeat IPC: 1.32763 cumulative IPC: 0.73292 (Simulation time: 2 hr 28 min 36 sec) 
Heartbeat CPU  0 instructions:  276000000 cycles:  374288156 heartbeat IPC: 1.31345 cumulative IPC: 0.73410 (Simulation time: 2 hr 30 min 27 sec) 
Heartbeat CPU  0 instructions:  277000000 cycles:  375026894 heartbeat IPC: 1.35366 cumulative IPC: 0.73532 (Simulation time: 2 hr 32 min 36 sec) 
Heartbeat CPU  0 instructions:  278000001 cycles:  375789423 heartbeat IPC: 1.31143 cumulative IPC: 0.73650 (Simulation time: 2 hr 34 min 55 sec) 
Heartbeat CPU  0 instructions:  279000001 cycles:  376534799 heartbeat IPC: 1.34160 cumulative IPC: 0.73770 (Simulation time: 2 hr 36 min 35 sec) 
Heartbeat CPU  0 instructions:  280000000 cycles:  377275686 heartbeat IPC: 1.34973 cumulative IPC: 0.73890 (Simulation time: 2 hr 38 min 3 sec) 
Heartbeat CPU  0 instructions:  281000001 cycles:  378019493 heartbeat IPC: 1.34444 cumulative IPC: 0.74010 (Simulation time: 2 hr 39 min 14 sec) 
Heartbeat CPU  0 instructions:  282000000 cycles:  378760879 heartbeat IPC: 1.34882 cumulative IPC: 0.74129 (Simulation time: 2 hr 40 min 51 sec) 
Heartbeat CPU  0 instructions:  283000001 cycles:  379519676 heartbeat IPC: 1.31788 cumulative IPC: 0.74245 (Simulation time: 2 hr 42 min 48 sec) 
Heartbeat CPU  0 instructions:  284000000 cycles:  380256470 heartbeat IPC: 1.35723 cumulative IPC: 0.74364 (Simulation time: 2 hr 43 min 52 sec) 
Heartbeat CPU  0 instructions:  285000000 cycles:  381011836 heartbeat IPC: 1.32386 cumulative IPC: 0.74480 (Simulation time: 2 hr 45 min 12 sec) 
Heartbeat CPU  0 instructions:  286000002 cycles:  381765719 heartbeat IPC: 1.32647 cumulative IPC: 0.74595 (Simulation time: 2 hr 47 min 13 sec) 
Heartbeat CPU  0 instructions:  287000002 cycles:  382513989 heartbeat IPC: 1.33642 cumulative IPC: 0.74711 (Simulation time: 2 hr 49 min 3 sec) 
Heartbeat CPU  0 instructions:  288000000 cycles:  383259341 heartbeat IPC: 1.34165 cumulative IPC: 0.74827 (Simulation time: 2 hr 50 min 51 sec) 
Heartbeat CPU  0 instructions:  289000000 cycles:  384051925 heartbeat IPC: 1.26170 cumulative IPC: 0.74933 (Simulation time: 2 hr 53 min 15 sec) 
Heartbeat CPU  0 instructions:  290000001 cycles:  384879457 heartbeat IPC: 1.20841 cumulative IPC: 0.75032 (Simulation time: 2 hr 56 min 12 sec) 
Heartbeat CPU  0 instructions:  291000000 cycles:  385637393 heartbeat IPC: 1.31937 cumulative IPC: 0.75144 (Simulation time: 2 hr 59 min 17 sec) 
Heartbeat CPU  0 instructions:  292000000 cycles:  386369880 heartbeat IPC: 1.36521 cumulative IPC: 0.75261 (Simulation time: 3 hr 1 min 48 sec) 
Heartbeat CPU  0 instructions:  293000002 cycles:  387105858 heartbeat IPC: 1.35874 cumulative IPC: 0.75376 (Simulation time: 3 hr 4 min 3 sec) 
Heartbeat CPU  0 instructions:  294000002 cycles:  387838311 heartbeat IPC: 1.36528 cumulative IPC: 0.75492 (Simulation time: 3 hr 6 min 43 sec) 
Heartbeat CPU  0 instructions:  295000001 cycles:  388589132 heartbeat IPC: 1.33187 cumulative IPC: 0.75604 (Simulation time: 3 hr 9 min 30 sec) 
Heartbeat CPU  0 instructions:  296000000 cycles:  389316126 heartbeat IPC: 1.37553 cumulative IPC: 0.75720 (Simulation time: 3 hr 11 min 45 sec) 
Heartbeat CPU  0 instructions:  297000000 cycles:  390040819 heartbeat IPC: 1.37989 cumulative IPC: 0.75836 (Simulation time: 3 hr 13 min 10 sec) 
Heartbeat CPU  0 instructions:  298000000 cycles:  390774854 heartbeat IPC: 1.36233 cumulative IPC: 0.75949 (Simulation time: 3 hr 14 min 50 sec) 
Heartbeat CPU  0 instructions:  299000003 cycles:  391504699 heartbeat IPC: 1.37016 cumulative IPC: 0.76064 (Simulation time: 3 hr 16 min 34 sec) 
Heartbeat CPU  0 instructions:  300000000 cycles:  392251467 heartbeat IPC: 1.33910 cumulative IPC: 0.76174 (Simulation time: 3 hr 18 min 6 sec) 
Heartbeat CPU  0 instructions:  301000000 cycles:  393011887 heartbeat IPC: 1.31506 cumulative IPC: 0.76281 (Simulation time: 3 hr 19 min 49 sec) 
Heartbeat CPU  0 instructions:  302000001 cycles:  393736599 heartbeat IPC: 1.37986 cumulative IPC: 0.76395 (Simulation time: 3 hr 21 min 18 sec) 
Heartbeat CPU  0 instructions:  303000002 cycles:  394461342 heartbeat IPC: 1.37980 cumulative IPC: 0.76509 (Simulation time: 3 hr 22 min 34 sec) 
Heartbeat CPU  0 instructions:  304000000 cycles:  395186922 heartbeat IPC: 1.37821 cumulative IPC: 0.76622 (Simulation time: 3 hr 23 min 46 sec) 
Heartbeat CPU  0 instructions:  305000002 cycles:  395959879 heartbeat IPC: 1.29374 cumulative IPC: 0.76725 (Simulation time: 3 hr 25 min 15 sec) 
Heartbeat CPU  0 instructions:  306000003 cycles:  396748695 heartbeat IPC: 1.26772 cumulative IPC: 0.76825 (Simulation time: 3 hr 26 min 38 sec) 
Heartbeat CPU  0 instructions:  307000003 cycles:  397512717 heartbeat IPC: 1.30886 cumulative IPC: 0.76929 (Simulation time: 3 hr 28 min 1 sec) 
Heartbeat CPU  0 instructions:  308000000 cycles:  398258791 heartbeat IPC: 1.34035 cumulative IPC: 0.77036 (Simulation time: 3 hr 29 min 32 sec) 
Heartbeat CPU  0 instructions:  309000002 cycles:  398986687 heartbeat IPC: 1.37383 cumulative IPC: 0.77146 (Simulation time: 3 hr 30 min 44 sec) 
Heartbeat CPU  0 instructions:  310000000 cycles:  399708210 heartbeat IPC: 1.38595 cumulative IPC: 0.77258 (Simulation time: 3 hr 32 min 44 sec) 
Heartbeat CPU  0 instructions:  311000003 cycles:  400432927 heartbeat IPC: 1.37985 cumulative IPC: 0.77368 (Simulation time: 3 hr 35 min 8 sec) 
Heartbeat CPU  0 instructions:  312000000 cycles:  401184925 heartbeat IPC: 1.32979 cumulative IPC: 0.77472 (Simulation time: 3 hr 36 min 59 sec) 
Heartbeat CPU  0 instructions:  313000001 cycles:  401927849 heartbeat IPC: 1.34603 cumulative IPC: 0.77578 (Simulation time: 3 hr 39 min 9 sec) 
Heartbeat CPU  0 instructions:  314000001 cycles:  402685155 heartbeat IPC: 1.32047 cumulative IPC: 0.77681 (Simulation time: 3 hr 42 min 9 sec) 
Heartbeat CPU  0 instructions:  315000000 cycles:  403410339 heartbeat IPC: 1.37896 cumulative IPC: 0.77789 (Simulation time: 3 hr 44 min 13 sec) 
Heartbeat CPU  0 instructions:  316000000 cycles:  404138987 heartbeat IPC: 1.37240 cumulative IPC: 0.77897 (Simulation time: 3 hr 46 min 34 sec) 
Heartbeat CPU  0 instructions:  317000001 cycles:  404901313 heartbeat IPC: 1.31178 cumulative IPC: 0.77997 (Simulation time: 3 hr 49 min 54 sec) 
Heartbeat CPU  0 instructions:  318000000 cycles:  405640569 heartbeat IPC: 1.35271 cumulative IPC: 0.78102 (Simulation time: 3 hr 53 min 25 sec) 
Heartbeat CPU  0 instructions:  319000000 cycles:  406353358 heartbeat IPC: 1.40294 cumulative IPC: 0.78211 (Simulation time: 3 hr 56 min 31 sec) 
Heartbeat CPU  0 instructions:  320000000 cycles:  407085507 heartbeat IPC: 1.36584 cumulative IPC: 0.78317 (Simulation time: 3 hr 59 min 14 sec) 
Heartbeat CPU  0 instructions:  321000002 cycles:  407859777 heartbeat IPC: 1.29154 cumulative IPC: 0.78413 (Simulation time: 4 hr 2 min 6 sec) 
Heartbeat CPU  0 instructions:  322000001 cycles:  408622420 heartbeat IPC: 1.31123 cumulative IPC: 0.78512 (Simulation time: 4 hr 4 min 50 sec) 
Heartbeat CPU  0 instructions:  323000000 cycles:  409390176 heartbeat IPC: 1.30250 cumulative IPC: 0.78609 (Simulation time: 4 hr 7 min 38 sec) 
Heartbeat CPU  0 instructions:  324000000 cycles:  410176647 heartbeat IPC: 1.27150 cumulative IPC: 0.78703 (Simulation time: 4 hr 10 min 12 sec) 
Heartbeat CPU  0 instructions:  325000000 cycles:  410970029 heartbeat IPC: 1.26043 cumulative IPC: 0.78794 (Simulation time: 4 hr 12 min 30 sec) 
Heartbeat CPU  0 instructions:  326000003 cycles:  411765105 heartbeat IPC: 1.25775 cumulative IPC: 0.78885 (Simulation time: 4 hr 14 min 47 sec) 
Heartbeat CPU  0 instructions:  327000003 cycles:  412516976 heartbeat IPC: 1.33002 cumulative IPC: 0.78984 (Simulation time: 4 hr 16 min 39 sec) 
Heartbeat CPU  0 instructions:  328000000 cycles:  413284436 heartbeat IPC: 1.30300 cumulative IPC: 0.79080 (Simulation time: 4 hr 18 min 27 sec) 
Heartbeat CPU  0 instructions:  329000001 cycles:  414078143 heartbeat IPC: 1.25991 cumulative IPC: 0.79170 (Simulation time: 4 hr 20 min 27 sec) 
Heartbeat CPU  0 instructions:  330000000 cycles:  414870263 heartbeat IPC: 1.26243 cumulative IPC: 0.79260 (Simulation time: 4 hr 22 min 40 sec) 
Heartbeat CPU  0 instructions:  331000001 cycles:  415618276 heartbeat IPC: 1.33688 cumulative IPC: 0.79358 (Simulation time: 4 hr 25 min 8 sec) 
Heartbeat CPU  0 instructions:  332000000 cycles:  416403989 heartbeat IPC: 1.27273 cumulative IPC: 0.79449 (Simulation time: 4 hr 27 min 5 sec) 
Heartbeat CPU  0 instructions:  333000001 cycles:  417213733 heartbeat IPC: 1.23496 cumulative IPC: 0.79534 (Simulation time: 4 hr 29 min 13 sec) 
Heartbeat CPU  0 instructions:  334000002 cycles:  417984335 heartbeat IPC: 1.29769 cumulative IPC: 0.79627 (Simulation time: 4 hr 30 min 54 sec) 
Heartbeat CPU  0 instructions:  335000001 cycles:  418742393 heartbeat IPC: 1.31916 cumulative IPC: 0.79722 (Simulation time: 4 hr 32 min 21 sec) 
Heartbeat CPU  0 instructions:  336000000 cycles:  419523458 heartbeat IPC: 1.28030 cumulative IPC: 0.79812 (Simulation time: 4 hr 33 min 50 sec) 
Heartbeat CPU  0 instructions:  337000001 cycles:  420304754 heartbeat IPC: 1.27993 cumulative IPC: 0.79902 (Simulation time: 4 hr 35 min 38 sec) 
Heartbeat CPU  0 instructions:  338000001 cycles:  421082027 heartbeat IPC: 1.28655 cumulative IPC: 0.79992 (Simulation time: 4 hr 37 min 7 sec) 
Heartbeat CPU  0 instructions:  339000000 cycles:  421737283 heartbeat IPC: 1.52612 cumulative IPC: 0.80105 (Simulation time: 4 hr 38 min 5 sec) 
Heartbeat CPU  0 instructions:  340000000 cycles:  422180678 heartbeat IPC: 2.25533 cumulative IPC: 0.80259 (Simulation time: 4 hr 38 min 40 sec) 
Heartbeat CPU  0 instructions:  341000000 cycles:  422579406 heartbeat IPC: 2.50798 cumulative IPC: 0.80420 (Simulation time: 4 hr 38 min 56 sec) 
Heartbeat CPU  0 instructions:  342000001 cycles:  423250113 heartbeat IPC: 1.49097 cumulative IPC: 0.80529 (Simulation time: 4 hr 39 min 14 sec) 
Heartbeat CPU  0 instructions:  343000001 cycles:  424112226 heartbeat IPC: 1.15994 cumulative IPC: 0.80601 (Simulation time: 4 hr 39 min 47 sec) 
Heartbeat CPU  0 instructions:  344000000 cycles:  424861878 heartbeat IPC: 1.33395 cumulative IPC: 0.80695 (Simulation time: 4 hr 40 min 17 sec) 
Heartbeat CPU  0 instructions:  345000002 cycles:  425630149 heartbeat IPC: 1.30163 cumulative IPC: 0.80784 (Simulation time: 4 hr 40 min 49 sec) 
Heartbeat CPU  0 instructions:  346000001 cycles:  426402081 heartbeat IPC: 1.29545 cumulative IPC: 0.80873 (Simulation time: 4 hr 41 min 19 sec) 
Heartbeat CPU  0 instructions:  347000000 cycles:  427179800 heartbeat IPC: 1.28581 cumulative IPC: 0.80960 (Simulation time: 4 hr 41 min 46 sec) 
Heartbeat CPU  0 instructions:  348000000 cycles:  427966660 heartbeat IPC: 1.27087 cumulative IPC: 0.81045 (Simulation time: 4 hr 42 min 13 sec) 
Heartbeat CPU  0 instructions:  349000000 cycles:  428748244 heartbeat IPC: 1.27945 cumulative IPC: 0.81130 (Simulation time: 4 hr 42 min 40 sec) 
Heartbeat CPU  0 instructions:  350000003 cycles:  429534744 heartbeat IPC: 1.27146 cumulative IPC: 0.81215 (Simulation time: 4 hr 43 min 7 sec) 
Heartbeat CPU  0 instructions:  351000003 cycles:  430312765 heartbeat IPC: 1.28531 cumulative IPC: 0.81301 (Simulation time: 4 hr 43 min 37 sec) 
Heartbeat CPU  0 instructions:  352000000 cycles:  431094237 heartbeat IPC: 1.27963 cumulative IPC: 0.81385 (Simulation time: 4 hr 44 min 6 sec) 
Finished CPU 0 instructions: 350000002 cycles: 430052332 cumulative IPC: 0.81385 (Simulation time: 4 hr 44 min 6 sec) 

ChampSim completed all CPUs

[ROI Statistics]
Core_0_instructions 350000002
Core_0_cycles 430052332
Core_0_IPC 0.81385

Core_0_branch_prediction_accuracy 98.12358
Core_0_branch_MPKI 0.51152
Core_0_average_ROB_occupancy_at_mispredict 208.59416

Core_0_L1D_total_access 91232910
Core_0_L1D_total_hit 72007737
Core_0_L1D_total_miss 19225173
Core_0_L1D_loads 84752904
Core_0_L1D_load_hit 66680897
Core_0_L1D_load_miss 18072007
Core_0_L1D_RFOs 6480006
Core_0_L1D_RFO_hit 5326840
Core_0_L1D_RFO_miss 1153166
Core_0_L1D_prefetches 0
Core_0_L1D_prefetch_hit 0
Core_0_L1D_prefetch_miss 0
Core_0_L1D_writebacks 0
Core_0_L1D_writeback_hit 0
Core_0_L1D_writeback_miss 0
Core_0_L1D_prefetch_requested 0
Core_0_L1D_prefetch_issued 0
Core_0_L1D_prefetch_useful 0
Core_0_L1D_prefetch_useless 0
Core_0_L1D_prefetch_late 0
Core_0_L1D_average_miss_latency 40.59204

Core_0_L1I_total_access 112143279
Core_0_L1I_total_hit 112133868
Core_0_L1I_total_miss 9411
Core_0_L1I_loads 112143279
Core_0_L1I_load_hit 112133868
Core_0_L1I_load_miss 9411
Core_0_L1I_RFOs 0
Core_0_L1I_RFO_hit 0
Core_0_L1I_RFO_miss 0
Core_0_L1I_prefetches 0
Core_0_L1I_prefetch_hit 0
Core_0_L1I_prefetch_miss 0
Core_0_L1I_writebacks 0
Core_0_L1I_writeback_hit 0
Core_0_L1I_writeback_miss 0
Core_0_L1I_prefetch_requested 0
Core_0_L1I_prefetch_issued 0
Core_0_L1I_prefetch_useful 0
Core_0_L1I_prefetch_useless 0
Core_0_L1I_prefetch_late 0
Core_0_L1I_average_miss_latency 183.64000

Core_0_L2C_total_access 70083430
Core_0_L2C_total_hit 62606875
Core_0_L2C_total_miss 7476555
Core_0_L2C_loads 18081330
Core_0_L2C_load_hit 16852309
Core_0_L2C_load_miss 1229021
Core_0_L2C_RFOs 1153157
Core_0_L2C_RFO_hit 605505
Core_0_L2C_RFO_miss 547652
Core_0_L2C_prefetches 48839300
Core_0_L2C_prefetch_hit 43139852
Core_0_L2C_prefetch_miss 5699448
Core_0_L2C_writebacks 2009643
Core_0_L2C_writeback_hit 2009209
Core_0_L2C_writeback_miss 434
Core_0_L2C_prefetch_requested 79874778
Core_0_L2C_prefetch_issued 58902138
Core_0_L2C_prefetch_useful 3997794
Core_0_L2C_prefetch_useless 1729936
Core_0_L2C_prefetch_late 203206
Core_0_L2C_average_miss_latency 199.89609

Core_0_LLC_total_access 9181085
Core_0_LLC_total_hit 4979334
Core_0_LLC_total_miss 4201751
Core_0_LLC_loads 1029009
Core_0_LLC_load_hit 289837
Core_0_LLC_load_miss 739172
Core_0_LLC_RFOs 544508
Core_0_LLC_RFO_hit 1726
Core_0_LLC_RFO_miss 542782
Core_0_LLC_prefetches 5902604
Core_0_LLC_prefetch_hit 2983059
Core_0_LLC_prefetch_miss 2919545
Core_0_LLC_writebacks 1704964
Core_0_LLC_writeback_hit 1704712
Core_0_LLC_writeback_miss 252
Core_0_LLC_prefetch_requested 0
Core_0_LLC_prefetch_issued 0
Core_0_LLC_prefetch_useful 67188
Core_0_LLC_prefetch_useless 2851866
Core_0_LLC_prefetch_late 0
Core_0_LLC_average_miss_latency 308.88236

Core_0_major_page_fault 0
Core_0_minor_page_fault 18565

CPU 0 L2C next line prefetcher final stats
Channel_0_RQ_row_buffer_hit 1398679
Channel_0_RQ_row_buffer_miss 2802794
Channel_0_WQ_row_buffer_hit 425901
Channel_0_WQ_row_buffer_miss 1234092
Channel_0_WQ_full 0
Channel_0_dbus_congested 2804114

avg_congested_cycle 10
