*************************************************
   ChampSim Multicore Out-of-Order Simulator
   Last compiled: Aug 21 2024 11:40:26
*************************************************

trace_0 ./LLM_Traces/2B_Traces_SelfAttention_Phythia-70M-Seq1024-07-08-0125.champsim.xz
CPU 0 L2C next line prefetcher initialized
warmup_instructions 2000000
simulation_instructions 350000000
champsim_seed 200

num_cpus 1
cpu_freq 4000
dram_io_freq 2400
page_size 4096
block_size 64
max_read_per_cycle 8
max_fill_per_cycle 1
dram_channels 1
dram_ranks 1
dram_banks 8
dram_rows 65536
dram_columns 128
dram_row_size 8
dram_size 4096
dram_pages 1048576

fetch_width 6
decode_width 6
exec_width 4
lq_width 2
sq_width 2
retire_width 4
scheduler_size 128
branch_mispredict_penalty 20
rob_size 256
lq_size 72
sq_size 56
num_instr_destinations_sparc 4
num_instr_destinations 2
num_instr_sources 4

itlb_set 16
itlb_way 8
itlb_rq_size 16
itlb_wq_size 16
itlb_pq_size 0
itlb_mshr_size 8
itlb_latency 1

dtlb_set 16
dtlb_way 4
dtlb_rq_size 16
dtlb_wq_size 16
dtlb_pq_size 0
dtlb_mshr_size 8
dtlb_latency 1

stlb_set 128
stlb_way 12
stlb_rq_size 32
stlb_wq_size 32
stlb_pq_size 0
stlb_mshr_size 16
stlb_latency 8

l1i_size 32
l1i_set 64
l1i_way 8
l1i_rq_size 64
l1i_wq_size 64
l1i_pq_size 8
l1i_mshr_size 8
l1i_latency 1

l1d_size 32
l1d_set 64
l1d_way 8
l1d_rq_size 64
l1d_wq_size 64
l1d_pq_size 8
l1d_mshr_size 16
l1d_latency 4

l2c_size 512
l2c_set 1024
l2c_way 8
l2c_rq_size 32
l2c_wq_size 32
l2c_pq_size 16
l2c_mshr_size 32
l2c_latency 10

llc_size 2048
llc_set 2048
llc_way 16
llc_rq_size 32
llc_wq_size 32
llc_pq_size 32
llc_mshr_size 64
llc_latency 20

dram_channel_width 8
dram_wq_size 64
dram_rq_size 64
tRP 15
tRCD 15
tCAS 12.5
dram_dbus_turn_around_time 30
dram_write_high_wm 56
dram_write_low_wm 48
min_dram_writes_per_switch 16
dram_mtps 2400
dram_dbus_return_time 13


Heartbeat CPU  0 instr:    1000001 cyc:     467807 curr IPC: 2.13764 AVG IPC: 2.13764 (Sim:0h0m3s) 
Heartbeat CPU  0 instr:    2000000 cyc:    1042066 curr IPC: 1.74137 AVG IPC: 1.91926 (Sim:0h0m57s) 

Warmup complete CPU  0 instructions:    2000002 cycles:    1042067 (Simulation time: 0 hr 0 min 57 sec) 

Heartbeat CPU  0 instr:    3000001 cyc:    2059476 curr IPC: 0.98289 AVG IPC: 0.98289 (Sim:0h2m5s) 
Heartbeat CPU  0 instr:    4000000 cyc:    3114569 curr IPC: 0.94778 AVG IPC: 0.96502 (Sim:0h3m13s) 
Heartbeat CPU  0 instr:    5000002 cyc:    4163500 curr IPC: 0.95335 AVG IPC: 0.96110 (Sim:0h4m25s) 
Heartbeat CPU  0 instr:    6000001 cyc:    5218093 curr IPC: 0.94823 AVG IPC: 0.95785 (Sim:0h5m40s) 
Heartbeat CPU  0 instr:    7000000 cyc:    6271445 curr IPC: 0.94935 AVG IPC: 0.95614 (Sim:0h6m49s) 
Heartbeat CPU  0 instr:    8000000 cyc:    7334097 curr IPC: 0.94104 AVG IPC: 0.95359 (Sim:0h8m4s) 
Heartbeat CPU  0 instr:    9000003 cyc:    8403408 curr IPC: 0.93518 AVG IPC: 0.95091 (Sim:0h9m15s) 
Heartbeat CPU  0 instr:   10000003 cyc:    9468410 curr IPC: 0.93897 AVG IPC: 0.94940 (Sim:0h10m29s) 
Heartbeat CPU  0 instr:   11000000 cyc:   10528427 curr IPC: 0.94338 AVG IPC: 0.94873 (Sim:0h11m43s) 
Heartbeat CPU  0 instr:   12000000 cyc:   11604003 curr IPC: 0.92973 AVG IPC: 0.94680 (Sim:0h13m1s) 
Heartbeat CPU  0 instr:   13000002 cyc:   12671914 curr IPC: 0.93641 AVG IPC: 0.94584 (Sim:0h14m47s) 
Heartbeat CPU  0 instr:   14000002 cyc:   13721323 curr IPC: 0.95292 AVG IPC: 0.94643 (Sim:0h16m50s) 
Heartbeat CPU  0 instr:   15000001 cyc:   14779672 curr IPC: 0.94487 AVG IPC: 0.94631 (Sim:0h19m9s) 
Heartbeat CPU  0 instr:   16000000 cyc:   15841464 curr IPC: 0.94180 AVG IPC: 0.94598 (Sim:0h22m19s) 
Heartbeat CPU  0 instr:   17000001 cyc:   16907545 curr IPC: 0.93802 AVG IPC: 0.94545 (Sim:0h24m41s) 
Heartbeat CPU  0 instr:   18000003 cyc:   17986923 curr IPC: 0.92646 AVG IPC: 0.94424 (Sim:0h27m6s) 
Heartbeat CPU  0 instr:   19000003 cyc:   19057829 curr IPC: 0.93379 AVG IPC: 0.94362 (Sim:0h29m26s) 
Heartbeat CPU  0 instr:   20000000 cyc:   20135429 curr IPC: 0.92799 AVG IPC: 0.94274 (Sim:0h31m19s) 
Heartbeat CPU  0 instr:   21000001 cyc:   21193577 curr IPC: 0.94505 AVG IPC: 0.94286 (Sim:0h33m29s) 
Heartbeat CPU  0 instr:   22000001 cyc:   22274325 curr IPC: 0.92529 AVG IPC: 0.94196 (Sim:0h35m55s) 
Heartbeat CPU  0 instr:   23000002 cyc:   23337881 curr IPC: 0.94024 AVG IPC: 0.94188 (Sim:0h40m15s) 
Heartbeat CPU  0 instr:   24000000 cyc:   24393397 curr IPC: 0.94740 AVG IPC: 0.94213 (Sim:0h44m24s) 
Heartbeat CPU  0 instr:   25000000 cyc:   25425775 curr IPC: 0.96864 AVG IPC: 0.94325 (Sim:0h47m6s) 
Heartbeat CPU  0 instr:   26000003 cyc:   26550215 curr IPC: 0.88933 AVG IPC: 0.94088 (Sim:0h50m34s) 
Heartbeat CPU  0 instr:   27000003 cyc:   27606714 curr IPC: 0.94652 AVG IPC: 0.94110 (Sim:0h54m9s) 
Heartbeat CPU  0 instr:   28000000 cyc:   28673310 curr IPC: 0.93756 AVG IPC: 0.94096 (Sim:0h57m17s) 
Heartbeat CPU  0 instr:   29000000 cyc:   29737748 curr IPC: 0.93946 AVG IPC: 0.94091 (Sim:1h0m14s) 
Heartbeat CPU  0 instr:   30000002 cyc:   30809586 curr IPC: 0.93298 AVG IPC: 0.94062 (Sim:1h3m7s) 
Heartbeat CPU  0 instr:   31000001 cyc:   31860996 curr IPC: 0.95110 AVG IPC: 0.94098 (Sim:1h6m22s) 
Heartbeat CPU  0 instr:   32000000 cyc:   32916743 curr IPC: 0.94720 AVG IPC: 0.94119 (Sim:1h9m12s) 
Heartbeat CPU  0 instr:   33000001 cyc:   33986140 curr IPC: 0.93511 AVG IPC: 0.94099 (Sim:1h12m1s) 
Heartbeat CPU  0 instr:   34000000 cyc:   35048132 curr IPC: 0.94163 AVG IPC: 0.94101 (Sim:1h14m56s) 
Heartbeat CPU  0 instr:   35000003 cyc:   36115875 curr IPC: 0.93656 AVG IPC: 0.94087 (Sim:1h17m46s) 
Heartbeat CPU  0 instr:   36000000 cyc:   37177143 curr IPC: 0.94227 AVG IPC: 0.94091 (Sim:1h20m31s) 
Heartbeat CPU  0 instr:   37000000 cyc:   38230387 curr IPC: 0.94945 AVG IPC: 0.94116 (Sim:1h22m5s) 
Heartbeat CPU  0 instr:   38000003 cyc:   39313377 curr IPC: 0.92337 AVG IPC: 0.94065 (Sim:1h23m29s) 
Heartbeat CPU  0 instr:   39000003 cyc:   40376259 curr IPC: 0.94084 AVG IPC: 0.94066 (Sim:1h24m44s) 
Heartbeat CPU  0 instr:   40000000 cyc:   41435869 curr IPC: 0.94374 AVG IPC: 0.94074 (Sim:1h26m2s) 
Heartbeat CPU  0 instr:   41000002 cyc:   42528888 curr IPC: 0.91490 AVG IPC: 0.94006 (Sim:1h27m29s) 
Heartbeat CPU  0 instr:   42000001 cyc:   43594144 curr IPC: 0.93874 AVG IPC: 0.94002 (Sim:1h28m44s) 
Heartbeat CPU  0 instr:   43000001 cyc:   44671759 curr IPC: 0.92798 AVG IPC: 0.93973 (Sim:1h30m7s) 
Heartbeat CPU  0 instr:   44000000 cyc:   45747422 curr IPC: 0.92966 AVG IPC: 0.93948 (Sim:1h31m23s) 
Heartbeat CPU  0 instr:   45000002 cyc:   46811654 curr IPC: 0.93965 AVG IPC: 0.93949 (Sim:1h32m45s) 
Heartbeat CPU  0 instr:   46000001 cyc:   47896147 curr IPC: 0.92209 AVG IPC: 0.93909 (Sim:1h34m11s) 
Heartbeat CPU  0 instr:   47000001 cyc:   48977715 curr IPC: 0.92458 AVG IPC: 0.93876 (Sim:1h35m29s) 
Heartbeat CPU  0 instr:   48000000 cyc:   50041689 curr IPC: 0.93987 AVG IPC: 0.93878 (Sim:1h36m39s) 
Heartbeat CPU  0 instr:   49000000 cyc:   51122514 curr IPC: 0.92522 AVG IPC: 0.93849 (Sim:1h37m47s) 
Heartbeat CPU  0 instr:   50000000 cyc:   52114139 curr IPC: 1.00845 AVG IPC: 0.93985 (Sim:1h39m25s) 
Heartbeat CPU  0 instr:   51000000 cyc:   53042635 curr IPC: 1.07701 AVG IPC: 0.94230 (Sim:1h40m48s) 
Heartbeat CPU  0 instr:   52000000 cyc:   53962178 curr IPC: 1.08750 AVG IPC: 0.94482 (Sim:1h42m5s) 
Heartbeat CPU  0 instr:   53000002 cyc:   54885136 curr IPC: 1.08348 AVG IPC: 0.94720 (Sim:1h43m21s) 
Heartbeat CPU  0 instr:   54000003 cyc:   55812579 curr IPC: 1.07823 AVG IPC: 0.94942 (Sim:1h44m40s) 
Heartbeat CPU  0 instr:   55000001 cyc:   56746856 curr IPC: 1.07034 AVG IPC: 0.95144 (Sim:1h46m10s) 
Heartbeat CPU  0 instr:   56000000 cyc:   57673982 curr IPC: 1.07860 AVG IPC: 0.95353 (Sim:1h47m19s) 
Heartbeat CPU  0 instr:   57000000 cyc:   58605479 curr IPC: 1.07354 AVG IPC: 0.95547 (Sim:1h48m29s) 
Heartbeat CPU  0 instr:   58000001 cyc:   59536303 curr IPC: 1.07432 AVG IPC: 0.95736 (Sim:1h49m42s) 
Heartbeat CPU  0 instr:   59000001 cyc:   60457634 curr IPC: 1.08539 AVG IPC: 0.95934 (Sim:1h50m51s) 
Heartbeat CPU  0 instr:   60000000 cyc:   61373272 curr IPC: 1.09213 AVG IPC: 0.96136 (Sim:1h52m7s) 
Heartbeat CPU  0 instr:   61000001 cyc:   62290076 curr IPC: 1.09075 AVG IPC: 0.96330 (Sim:1h53m36s) 
Heartbeat CPU  0 instr:   62000001 cyc:   63203709 curr IPC: 1.09453 AVG IPC: 0.96523 (Sim:1h54m47s) 
Heartbeat CPU  0 instr:   63000000 cyc:   64121695 curr IPC: 1.08934 AVG IPC: 0.96703 (Sim:1h56m4s) 
Heartbeat CPU  0 instr:   64000000 cyc:   65026797 curr IPC: 1.10485 AVG IPC: 0.96898 (Sim:1h57m40s) 
Heartbeat CPU  0 instr:   65000003 cyc:   65924579 curr IPC: 1.11386 AVG IPC: 0.97099 (Sim:1h59m1s) 
Heartbeat CPU  0 instr:   66000000 cyc:   67050420 curr IPC: 0.88822 AVG IPC: 0.96957 (Sim:2h0m54s) 
Heartbeat CPU  0 instr:   67000001 cyc:   68114312 curr IPC: 0.93995 AVG IPC: 0.96910 (Sim:2h2m33s) 
Heartbeat CPU  0 instr:   68000000 cyc:   69156348 curr IPC: 0.95966 AVG IPC: 0.96896 (Sim:2h3m53s) 
Heartbeat CPU  0 instr:   69000001 cyc:   70204287 curr IPC: 0.95425 AVG IPC: 0.96874 (Sim:2h5m12s) 
Heartbeat CPU  0 instr:   70000001 cyc:   71256124 curr IPC: 0.95072 AVG IPC: 0.96847 (Sim:2h6m27s) 
Heartbeat CPU  0 instr:   71000003 cyc:   72282889 curr IPC: 0.97393 AVG IPC: 0.96855 (Sim:2h7m45s) 
Heartbeat CPU  0 instr:   72000000 cyc:   73320732 curr IPC: 0.96353 AVG IPC: 0.96847 (Sim:2h9m1s) 
Heartbeat CPU  0 instr:   73000001 cyc:   74378306 curr IPC: 0.94556 AVG IPC: 0.96814 (Sim:2h10m16s) 
Heartbeat CPU  0 instr:   74000001 cyc:   75438470 curr IPC: 0.94325 AVG IPC: 0.96779 (Sim:2h11m41s) 
Heartbeat CPU  0 instr:   75000001 cyc:   76502618 curr IPC: 0.93972 AVG IPC: 0.96739 (Sim:2h13m0s) 
Heartbeat CPU  0 instr:   76000000 cyc:   77555078 curr IPC: 0.95015 AVG IPC: 0.96716 (Sim:2h14m17s) 
Heartbeat CPU  0 instr:   77000000 cyc:   78601182 curr IPC: 0.95593 AVG IPC: 0.96700 (Sim:2h15m38s) 
Heartbeat CPU  0 instr:   78000002 cyc:   79647389 curr IPC: 0.95584 AVG IPC: 0.96686 (Sim:2h16m57s) 
Heartbeat CPU  0 instr:   79000001 cyc:   80697307 curr IPC: 0.95245 AVG IPC: 0.96667 (Sim:2h18m15s) 
Heartbeat CPU  0 instr:   80000000 cyc:   81735006 curr IPC: 0.96367 AVG IPC: 0.96663 (Sim:2h19m33s) 
Heartbeat CPU  0 instr:   81000000 cyc:   82791804 curr IPC: 0.94625 AVG IPC: 0.96636 (Sim:2h20m52s) 
Heartbeat CPU  0 instr:   82000000 cyc:   83865351 curr IPC: 0.93149 AVG IPC: 0.96591 (Sim:2h22m18s) 
Heartbeat CPU  0 instr:   83000003 cyc:   84947890 curr IPC: 0.92376 AVG IPC: 0.96537 (Sim:2h23m47s) 
Heartbeat CPU  0 instr:   84000000 cyc:   86022672 curr IPC: 0.93042 AVG IPC: 0.96493 (Sim:2h25m10s) 
Heartbeat CPU  0 instr:   85000003 cyc:   87086765 curr IPC: 0.93977 AVG IPC: 0.96461 (Sim:2h26m26s) 
Heartbeat CPU  0 instr:   86000001 cyc:   88147478 curr IPC: 0.94276 AVG IPC: 0.96435 (Sim:2h27m42s) 
Heartbeat CPU  0 instr:   87000001 cyc:   89221654 curr IPC: 0.93095 AVG IPC: 0.96394 (Sim:2h29m0s) 
Heartbeat CPU  0 instr:   88000000 cyc:   90281515 curr IPC: 0.94352 AVG IPC: 0.96370 (Sim:2h30m18s) 
Heartbeat CPU  0 instr:   89000002 cyc:   91342248 curr IPC: 0.94275 AVG IPC: 0.96345 (Sim:2h31m39s) 
Heartbeat CPU  0 instr:   90000002 cyc:   92364368 curr IPC: 0.97836 AVG IPC: 0.96362 (Sim:2h32m59s) 
Heartbeat CPU  0 instr:   91000001 cyc:   93437687 curr IPC: 0.93169 AVG IPC: 0.96325 (Sim:2h34m45s) 
Heartbeat CPU  0 instr:   92000000 cyc:   94508653 curr IPC: 0.93374 AVG IPC: 0.96291 (Sim:2h36m16s) 
Heartbeat CPU  0 instr:   93000000 cyc:   95579182 curr IPC: 0.93412 AVG IPC: 0.96258 (Sim:2h37m45s) 
Heartbeat CPU  0 instr:   94000000 cyc:   96627406 curr IPC: 0.95399 AVG IPC: 0.96249 (Sim:2h39m5s) 
Heartbeat CPU  0 instr:   95000000 cyc:   97678475 curr IPC: 0.95141 AVG IPC: 0.96237 (Sim:2h40m39s) 
Heartbeat CPU  0 instr:   96000000 cyc:   98739868 curr IPC: 0.94216 AVG IPC: 0.96215 (Sim:2h42m16s) 
Heartbeat CPU  0 instr:   97000002 cyc:   99789598 curr IPC: 0.95263 AVG IPC: 0.96205 (Sim:2h43m52s) 
Heartbeat CPU  0 instr:   98000000 cyc:  100857609 curr IPC: 0.93632 AVG IPC: 0.96177 (Sim:2h45m18s) 
Heartbeat CPU  0 instr:   99000000 cyc:  101916599 curr IPC: 0.94430 AVG IPC: 0.96159 (Sim:2h46m47s) 
Heartbeat CPU  0 instr:  100000000 cyc:  102991462 curr IPC: 0.93035 AVG IPC: 0.96126 (Sim:2h48m13s) 
Heartbeat CPU  0 instr:  101000001 cyc:  104057267 curr IPC: 0.93826 AVG IPC: 0.96102 (Sim:2h49m40s) 
Heartbeat CPU  0 instr:  102000003 cyc:  105119528 curr IPC: 0.94139 AVG IPC: 0.96082 (Sim:2h51m3s) 
Heartbeat CPU  0 instr:  103000001 cyc:  106187140 curr IPC: 0.93667 AVG IPC: 0.96058 (Sim:2h52m17s) 
Heartbeat CPU  0 instr:  104000000 cyc:  107232929 curr IPC: 0.95621 AVG IPC: 0.96053 (Sim:2h53m39s) 
Heartbeat CPU  0 instr:  105000001 cyc:  108300688 curr IPC: 0.93654 AVG IPC: 0.96030 (Sim:2h55m1s) 
Heartbeat CPU  0 instr:  106000000 cyc:  109362197 curr IPC: 0.94205 AVG IPC: 0.96012 (Sim:2h56m20s) 
Heartbeat CPU  0 instr:  107000001 cyc:  110435214 curr IPC: 0.93195 AVG IPC: 0.95984 (Sim:2h57m43s) 
Heartbeat CPU  0 instr:  108000000 cyc:  111508761 curr IPC: 0.93149 AVG IPC: 0.95957 (Sim:2h59m6s) 
Heartbeat CPU  0 instr:  109000000 cyc:  112599857 curr IPC: 0.91651 AVG IPC: 0.95914 (Sim:3h0m30s) 
Heartbeat CPU  0 instr:  110000002 cyc:  113677587 curr IPC: 0.92788 AVG IPC: 0.95884 (Sim:3h1m50s) 
Heartbeat CPU  0 instr:  111000002 cyc:  114758437 curr IPC: 0.92520 AVG IPC: 0.95853 (Sim:3h3m14s) 
Heartbeat CPU  0 instr:  112000000 cyc:  115805478 curr IPC: 0.95507 AVG IPC: 0.95849 (Sim:3h4m46s) 
Heartbeat CPU  0 instr:  113000000 cyc:  116861679 curr IPC: 0.94679 AVG IPC: 0.95839 (Sim:3h6m7s) 
Heartbeat CPU  0 instr:  114000000 cyc:  117894122 curr IPC: 0.96858 AVG IPC: 0.95848 (Sim:3h7m37s) 
Heartbeat CPU  0 instr:  115000002 cyc:  118805954 curr IPC: 1.09670 AVG IPC: 0.95955 (Sim:3h8m59s) 
Heartbeat CPU  0 instr:  116000000 cyc:  119719902 curr IPC: 1.09415 AVG IPC: 0.96058 (Sim:3h10m17s) 
Heartbeat CPU  0 instr:  117000000 cyc:  120631411 curr IPC: 1.09708 AVG IPC: 0.96162 (Sim:3h11m38s) 
Heartbeat CPU  0 instr:  118000003 cyc:  121549083 curr IPC: 1.08972 AVG IPC: 0.96260 (Sim:3h13m2s) 
Heartbeat CPU  0 instr:  119000001 cyc:  122462164 curr IPC: 1.09519 AVG IPC: 0.96360 (Sim:3h14m32s) 
Heartbeat CPU  0 instr:  120000000 cyc:  123370088 curr IPC: 1.10141 AVG IPC: 0.96462 (Sim:3h15m52s) 
Heartbeat CPU  0 instr:  121000001 cyc:  124280039 curr IPC: 1.09896 AVG IPC: 0.96561 (Sim:3h17m14s) 
Heartbeat CPU  0 instr:  122000000 cyc:  125181902 curr IPC: 1.10881 AVG IPC: 0.96665 (Sim:3h18m37s) 
Heartbeat CPU  0 instr:  123000003 cyc:  126076144 curr IPC: 1.11827 AVG IPC: 0.96774 (Sim:3h20m0s) 
Heartbeat CPU  0 instr:  124000000 cyc:  126972599 curr IPC: 1.11550 AVG IPC: 0.96879 (Sim:3h21m25s) 
Heartbeat CPU  0 instr:  125000003 cyc:  127865213 curr IPC: 1.12031 AVG IPC: 0.96985 (Sim:3h22m48s) 
Heartbeat CPU  0 instr:  126000003 cyc:  128769732 curr IPC: 1.10556 AVG IPC: 0.97082 (Sim:3h24m11s) 
Heartbeat CPU  0 instr:  127000002 cyc:  129672068 curr IPC: 1.10823 AVG IPC: 0.97178 (Sim:3h25m34s) 
Heartbeat CPU  0 instr:  128000000 cyc:  130573773 curr IPC: 1.10901 AVG IPC: 0.97273 (Sim:3h26m59s) 
Heartbeat CPU  0 instr:  129000000 cyc:  131462788 curr IPC: 1.12484 AVG IPC: 0.97377 (Sim:3h28m16s) 
Heartbeat CPU  0 instr:  130000000 cyc:  132016509 curr IPC: 1.80596 AVG IPC: 0.97729 (Sim:3h28m39s) 
Heartbeat CPU  0 instr:  131000000 cyc:  132387245 curr IPC: 2.69734 AVG IPC: 0.98214 (Sim:3h28m44s) 
Heartbeat CPU  0 instr:  132000000 cyc:  133649475 curr IPC: 0.79225 AVG IPC: 0.98034 (Sim:3h29m53s) 
Heartbeat CPU  0 instr:  133000000 cyc:  140375133 curr IPC: 0.14868 AVG IPC: 0.94019 (Sim:3h38m52s) 
Heartbeat CPU  0 instr:  134000000 cyc:  147556887 curr IPC: 0.13924 AVG IPC: 0.90093 (Sim:3h47m46s) 
Heartbeat CPU  0 instr:  135000002 cyc:  154777416 curr IPC: 0.13849 AVG IPC: 0.86512 (Sim:3h56m15s) 
Heartbeat CPU  0 instr:  136000000 cyc:  161965789 curr IPC: 0.13911 AVG IPC: 0.83269 (Sim:4h5m13s) 
Heartbeat CPU  0 instr:  137000000 cyc:  166122430 curr IPC: 0.24058 AVG IPC: 0.81778 (Sim:4h9m59s) 
Heartbeat CPU  0 instr:  138000002 cyc:  168286022 curr IPC: 0.46220 AVG IPC: 0.81318 (Sim:4h11m24s) 
Heartbeat CPU  0 instr:  139000000 cyc:  170833317 curr IPC: 0.39257 AVG IPC: 0.80687 (Sim:4h13m2s) 
Heartbeat CPU  0 instr:  140000000 cyc:  173391293 curr IPC: 0.39093 AVG IPC: 0.80070 (Sim:4h14m45s) 
Heartbeat CPU  0 instr:  141000002 cyc:  175814426 curr IPC: 0.41269 AVG IPC: 0.79532 (Sim:4h16m31s) 
Heartbeat CPU  0 instr:  142000001 cyc:  178206700 curr IPC: 0.41801 AVG IPC: 0.79023 (Sim:4h18m8s) 
Heartbeat CPU  0 instr:  143000000 cyc:  180603941 curr IPC: 0.41715 AVG IPC: 0.78524 (Sim:4h19m51s) 
Heartbeat CPU  0 instr:  144000000 cyc:  183094047 curr IPC: 0.40159 AVG IPC: 0.78000 (Sim:4h21m38s) 
Heartbeat CPU  0 instr:  145000000 cyc:  185526166 curr IPC: 0.41116 AVG IPC: 0.77513 (Sim:4h23m27s) 
Heartbeat CPU  0 instr:  146000003 cyc:  187973503 curr IPC: 0.40861 AVG IPC: 0.77034 (Sim:4h25m10s) 
Heartbeat CPU  0 instr:  147000002 cyc:  190370835 curr IPC: 0.41713 AVG IPC: 0.76586 (Sim:4h26m54s) 
Heartbeat CPU  0 instr:  148000000 cyc:  192779726 curr IPC: 0.41513 AVG IPC: 0.76146 (Sim:4h28m38s) 
Heartbeat CPU  0 instr:  149000003 cyc:  195162667 curr IPC: 0.41965 AVG IPC: 0.75726 (Sim:4h30m24s) 
Heartbeat CPU  0 instr:  150000001 cyc:  197536148 curr IPC: 0.42132 AVG IPC: 0.75320 (Sim:4h32m14s) 
Heartbeat CPU  0 instr:  151000000 cyc:  200080544 curr IPC: 0.39302 AVG IPC: 0.74860 (Sim:4h34m4s) 
Heartbeat CPU  0 instr:  152000000 cyc:  202648676 curr IPC: 0.38939 AVG IPC: 0.74402 (Sim:4h35m49s) 
Heartbeat CPU  0 instr:  153000002 cyc:  205143950 curr IPC: 0.40076 AVG IPC: 0.73983 (Sim:4h37m35s) 
Heartbeat CPU  0 instr:  154000003 cyc:  207596470 curr IPC: 0.40774 AVG IPC: 0.73588 (Sim:4h39m21s) 
Heartbeat CPU  0 instr:  155000000 cyc:  209990668 curr IPC: 0.41768 AVG IPC: 0.73224 (Sim:4h41m2s) 
Heartbeat CPU  0 instr:  156000000 cyc:  212408618 curr IPC: 0.41357 AVG IPC: 0.72859 (Sim:4h42m46s) 
Heartbeat CPU  0 instr:  157000000 cyc:  214824630 curr IPC: 0.41391 AVG IPC: 0.72504 (Sim:4h44m31s) 
Heartbeat CPU  0 instr:  158000001 cyc:  217210133 curr IPC: 0.41920 AVG IPC: 0.72166 (Sim:4h46m14s) 
Heartbeat CPU  0 instr:  159000002 cyc:  219631581 curr IPC: 0.41298 AVG IPC: 0.71824 (Sim:4h47m57s) 
Heartbeat CPU  0 instr:  160000000 cyc:  222103563 curr IPC: 0.40453 AVG IPC: 0.71473 (Sim:4h49m45s) 
Heartbeat CPU  0 instr:  161000001 cyc:  224522886 curr IPC: 0.41334 AVG IPC: 0.71147 (Sim:4h51m29s) 
Heartbeat CPU  0 instr:  162000000 cyc:  226940116 curr IPC: 0.41370 AVG IPC: 0.70828 (Sim:4h53m11s) 
Heartbeat CPU  0 instr:  163000001 cyc:  229383891 curr IPC: 0.40920 AVG IPC: 0.70508 (Sim:4h54m58s) 
Heartbeat CPU  0 instr:  164000000 cyc:  231799197 curr IPC: 0.41403 AVG IPC: 0.70204 (Sim:4h56m41s) 
Heartbeat CPU  0 instr:  165000000 cyc:  234217793 curr IPC: 0.41346 AVG IPC: 0.69904 (Sim:4h58m29s) 
Heartbeat CPU  0 instr:  166000002 cyc:  236713922 curr IPC: 0.40062 AVG IPC: 0.69588 (Sim:5h0m17s) 
Heartbeat CPU  0 instr:  167000000 cyc:  239175527 curr IPC: 0.40624 AVG IPC: 0.69289 (Sim:5h2m2s) 
Heartbeat CPU  0 instr:  168000000 cyc:  241574659 curr IPC: 0.41682 AVG IPC: 0.69014 (Sim:5h3m45s) 
Heartbeat CPU  0 instr:  169000000 cyc:  244039847 curr IPC: 0.40565 AVG IPC: 0.68725 (Sim:5h5m32s) 
Heartbeat CPU  0 instr:  170000000 cyc:  246478357 curr IPC: 0.41009 AVG IPC: 0.68450 (Sim:5h7m16s) 
Heartbeat CPU  0 instr:  171000000 cyc:  248931856 curr IPC: 0.40758 AVG IPC: 0.68175 (Sim:5h9m5s) 
Heartbeat CPU  0 instr:  172000000 cyc:  251380316 curr IPC: 0.40842 AVG IPC: 0.67908 (Sim:5h10m50s) 
Heartbeat CPU  0 instr:  173000001 cyc:  253808123 curr IPC: 0.41189 AVG IPC: 0.67651 (Sim:5h12m36s) 
Heartbeat CPU  0 instr:  174000000 cyc:  256245700 curr IPC: 0.41024 AVG IPC: 0.67397 (Sim:5h14m20s) 
Heartbeat CPU  0 instr:  175000003 cyc:  258686742 curr IPC: 0.40966 AVG IPC: 0.67147 (Sim:5h16m5s) 
Heartbeat CPU  0 instr:  176000000 cyc:  261072902 curr IPC: 0.41908 AVG IPC: 0.66915 (Sim:5h17m54s) 
Heartbeat CPU  0 instr:  177000000 cyc:  263468339 curr IPC: 0.41746 AVG IPC: 0.66685 (Sim:5h19m35s) 
Heartbeat CPU  0 instr:  178000000 cyc:  265951722 curr IPC: 0.40268 AVG IPC: 0.66438 (Sim:5h21m22s) 
Heartbeat CPU  0 instr:  179000003 cyc:  268424389 curr IPC: 0.40442 AVG IPC: 0.66197 (Sim:5h23m4s) 
Heartbeat CPU  0 instr:  180000000 cyc:  270889960 curr IPC: 0.40558 AVG IPC: 0.65963 (Sim:5h24m51s) 
Heartbeat CPU  0 instr:  181000002 cyc:  273406688 curr IPC: 0.39734 AVG IPC: 0.65721 (Sim:5h26m30s) 
Heartbeat CPU  0 instr:  182000001 cyc:  275822378 curr IPC: 0.41396 AVG IPC: 0.65507 (Sim:5h28m12s) 
Heartbeat CPU  0 instr:  183000000 cyc:  278250450 curr IPC: 0.41185 AVG IPC: 0.65294 (Sim:5h29m54s) 
Heartbeat CPU  0 instr:  184000000 cyc:  280655925 curr IPC: 0.41572 AVG IPC: 0.65090 (Sim:5h31m36s) 
Heartbeat CPU  0 instr:  185000002 cyc:  283075674 curr IPC: 0.41327 AVG IPC: 0.64886 (Sim:5h33m17s) 
Heartbeat CPU  0 instr:  186000000 cyc:  285455460 curr IPC: 0.42020 AVG IPC: 0.64695 (Sim:5h35m1s) 
Heartbeat CPU  0 instr:  187000000 cyc:  287867200 curr IPC: 0.41464 AVG IPC: 0.64499 (Sim:5h36m43s) 
Heartbeat CPU  0 instr:  188000000 cyc:  290269182 curr IPC: 0.41632 AVG IPC: 0.64309 (Sim:5h38m7s) 
Heartbeat CPU  0 instr:  189000000 cyc:  292743748 curr IPC: 0.40411 AVG IPC: 0.64107 (Sim:5h39m19s) 
Heartbeat CPU  0 instr:  190000001 cyc:  295119319 curr IPC: 0.42095 AVG IPC: 0.63929 (Sim:5h40m26s) 
Heartbeat CPU  0 instr:  191000002 cyc:  297541433 curr IPC: 0.41286 AVG IPC: 0.63744 (Sim:5h41m35s) 
Heartbeat CPU  0 instr:  192000000 cyc:  299922586 curr IPC: 0.41996 AVG IPC: 0.63571 (Sim:5h42m41s) 
Heartbeat CPU  0 instr:  193000000 cyc:  302312343 curr IPC: 0.41845 AVG IPC: 0.63398 (Sim:5h43m50s) 
Heartbeat CPU  0 instr:  194000002 cyc:  304702832 curr IPC: 0.41833 AVG IPC: 0.63228 (Sim:5h44m59s) 
Heartbeat CPU  0 instr:  195000003 cyc:  307240959 curr IPC: 0.39399 AVG IPC: 0.63031 (Sim:5h46m6s) 
Heartbeat CPU  0 instr:  196000000 cyc:  309734663 curr IPC: 0.40101 AVG IPC: 0.62846 (Sim:5h47m9s) 
Heartbeat CPU  0 instr:  197000000 cyc:  312147197 curr IPC: 0.41450 AVG IPC: 0.62680 (Sim:5h48m16s) 
Heartbeat CPU  0 instr:  198000000 cyc:  314569130 curr IPC: 0.41289 AVG IPC: 0.62515 (Sim:5h49m31s) 
Heartbeat CPU  0 instr:  199000002 cyc:  316962696 curr IPC: 0.41779 AVG IPC: 0.62357 (Sim:5h51m4s) 
Heartbeat CPU  0 instr:  200000000 cyc:  319348569 curr IPC: 0.41913 AVG IPC: 0.62204 (Sim:5h52m15s) 
Heartbeat CPU  0 instr:  201000003 cyc:  321063033 curr IPC: 0.58327 AVG IPC: 0.62183 (Sim:5h52m53s) 
Heartbeat CPU  0 instr:  202000000 cyc:  321697429 curr IPC: 1.57630 AVG IPC: 0.62372 (Sim:5h53m13s) 
Heartbeat CPU  0 instr:  203000000 cyc:  322283037 curr IPC: 1.70763 AVG IPC: 0.62570 (Sim:5h54m51s) 
Heartbeat CPU  0 instr:  204000000 cyc:  322891805 curr IPC: 1.64266 AVG IPC: 0.62762 (Sim:5h56m2s) 
Heartbeat CPU  0 instr:  205000001 cyc:  323476400 curr IPC: 1.71059 AVG IPC: 0.62959 (Sim:5h57m10s) 
Heartbeat CPU  0 instr:  206000000 cyc:  324022333 curr IPC: 1.83172 AVG IPC: 0.63162 (Sim:5h58m25s) 
Heartbeat CPU  0 instr:  207000003 cyc:  324582392 curr IPC: 1.78553 AVG IPC: 0.63362 (Sim:5h59m53s) 
Heartbeat CPU  0 instr:  208000000 cyc:  325162956 curr IPC: 1.72246 AVG IPC: 0.63557 (Sim:6h1m18s) 
Heartbeat CPU  0 instr:  209000003 cyc:  325735435 curr IPC: 1.74679 AVG IPC: 0.63752 (Sim:6h2m27s) 
Heartbeat CPU  0 instr:  210000003 cyc:  326315596 curr IPC: 1.72366 AVG IPC: 0.63946 (Sim:6h3m38s) 
Heartbeat CPU  0 instr:  211000000 cyc:  326881121 curr IPC: 1.76826 AVG IPC: 0.64142 (Sim:6h4m50s) 
Heartbeat CPU  0 instr:  212000000 cyc:  327519571 curr IPC: 1.56629 AVG IPC: 0.64323 (Sim:6h6m17s) 
Heartbeat CPU  0 instr:  213000002 cyc:  328284521 curr IPC: 1.30728 AVG IPC: 0.64478 (Sim:6h8m9s) 
Heartbeat CPU  0 instr:  214000002 cyc:  329019512 curr IPC: 1.36056 AVG IPC: 0.64639 (Sim:6h10m4s) 
Heartbeat CPU  0 instr:  215000003 cyc:  329756121 curr IPC: 1.35757 AVG IPC: 0.64798 (Sim:6h11m52s) 
Heartbeat CPU  0 instr:  216000000 cyc:  330540717 curr IPC: 1.27454 AVG IPC: 0.64947 (Sim:6h13m40s) 
Heartbeat CPU  0 instr:  217000003 cyc:  331279734 curr IPC: 1.35315 AVG IPC: 0.65105 (Sim:6h15m38s) 
Heartbeat CPU  0 instr:  218000002 cyc:  332012735 curr IPC: 1.36425 AVG IPC: 0.65263 (Sim:6h17m29s) 
Heartbeat CPU  0 instr:  219000000 cyc:  332773755 curr IPC: 1.31402 AVG IPC: 0.65414 (Sim:6h19m16s) 
Heartbeat CPU  0 instr:  220000000 cyc:  333533944 curr IPC: 1.31546 AVG IPC: 0.65566 (Sim:6h21m16s) 
Heartbeat CPU  0 instr:  221000003 cyc:  334266320 curr IPC: 1.36542 AVG IPC: 0.65722 (Sim:6h23m28s) 
Heartbeat CPU  0 instr:  222000002 cyc:  335071614 curr IPC: 1.24178 AVG IPC: 0.65862 (Sim:6h25m31s) 
Heartbeat CPU  0 instr:  223000000 cyc:  335914419 curr IPC: 1.18651 AVG IPC: 0.65995 (Sim:6h27m59s) 
Heartbeat CPU  0 instr:  224000000 cyc:  336742912 curr IPC: 1.20701 AVG IPC: 0.66130 (Sim:6h30m12s) 
Heartbeat CPU  0 instr:  225000002 cyc:  337506685 curr IPC: 1.30929 AVG IPC: 0.66277 (Sim:6h32m23s) 
Heartbeat CPU  0 instr:  226000000 cyc:  338232582 curr IPC: 1.37760 AVG IPC: 0.66431 (Sim:6h34m29s) 
Heartbeat CPU  0 instr:  227000000 cyc:  338965179 curr IPC: 1.36501 AVG IPC: 0.66583 (Sim:6h36m31s) 
Heartbeat CPU  0 instr:  228000000 cyc:  339752161 curr IPC: 1.27068 AVG IPC: 0.66724 (Sim:6h38m45s) 
Heartbeat CPU  0 instr:  229000001 cyc:  340476552 curr IPC: 1.38047 AVG IPC: 0.66876 (Sim:6h40m49s) 
Heartbeat CPU  0 instr:  230000001 cyc:  341203961 curr IPC: 1.37474 AVG IPC: 0.67027 (Sim:6h42m48s) 
Heartbeat CPU  0 instr:  231000000 cyc:  341955287 curr IPC: 1.33098 AVG IPC: 0.67173 (Sim:6h44m51s) 
Heartbeat CPU  0 instr:  232000000 cyc:  342721222 curr IPC: 1.30559 AVG IPC: 0.67315 (Sim:6h47m4s) 
Heartbeat CPU  0 instr:  233000003 cyc:  343450382 curr IPC: 1.37145 AVG IPC: 0.67463 (Sim:6h49m15s) 
Heartbeat CPU  0 instr:  234000001 cyc:  344184563 curr IPC: 1.36206 AVG IPC: 0.67610 (Sim:6h51m22s) 
Heartbeat CPU  0 instr:  235000003 cyc:  344966519 curr IPC: 1.27885 AVG IPC: 0.67747 (Sim:6h53m16s) 
Heartbeat CPU  0 instr:  236000000 cyc:  345708188 curr IPC: 1.34831 AVG IPC: 0.67892 (Sim:6h55m24s) 
Heartbeat CPU  0 instr:  237000000 cyc:  346432241 curr IPC: 1.38111 AVG IPC: 0.68039 (Sim:6h57m33s) 
Heartbeat CPU  0 instr:  238000001 cyc:  347162340 curr IPC: 1.36968 AVG IPC: 0.68184 (Sim:6h59m36s) 
Heartbeat CPU  0 instr:  239000001 cyc:  347945896 curr IPC: 1.27623 AVG IPC: 0.68319 (Sim:7h1m49s) 
Heartbeat CPU  0 instr:  240000000 cyc:  348840557 curr IPC: 1.11774 AVG IPC: 0.68430 (Sim:7h3m48s) 
Heartbeat CPU  0 instr:  241000003 cyc:  349576483 curr IPC: 1.35884 AVG IPC: 0.68573 (Sim:7h5m54s) 
Heartbeat CPU  0 instr:  242000002 cyc:  350310349 curr IPC: 1.36265 AVG IPC: 0.68715 (Sim:7h8m0s) 
Heartbeat CPU  0 instr:  243000003 cyc:  351054963 curr IPC: 1.34298 AVG IPC: 0.68855 (Sim:7h10m0s) 
Heartbeat CPU  0 instr:  244000000 cyc:  351831070 curr IPC: 1.28848 AVG IPC: 0.68987 (Sim:7h12m25s) 
Heartbeat CPU  0 instr:  245000000 cyc:  352551134 curr IPC: 1.38877 AVG IPC: 0.69131 (Sim:7h14m25s) 
Heartbeat CPU  0 instr:  246000003 cyc:  353271809 curr IPC: 1.38759 AVG IPC: 0.69273 (Sim:7h16m25s) 
Heartbeat CPU  0 instr:  247000001 cyc:  354046210 curr IPC: 1.29132 AVG IPC: 0.69404 (Sim:7h18m22s) 
Heartbeat CPU  0 instr:  248000000 cyc:  354780090 curr IPC: 1.36262 AVG IPC: 0.69543 (Sim:7h20m30s) 
Heartbeat CPU  0 instr:  249000001 cyc:  355495115 curr IPC: 1.39855 AVG IPC: 0.69685 (Sim:7h22m28s) 
Heartbeat CPU  0 instr:  250000002 cyc:  356232665 curr IPC: 1.35584 AVG IPC: 0.69822 (Sim:7h24m32s) 
Heartbeat CPU  0 instr:  251000000 cyc:  356993002 curr IPC: 1.31520 AVG IPC: 0.69953 (Sim:7h26m27s) 
Heartbeat CPU  0 instr:  252000000 cyc:  357715689 curr IPC: 1.38372 AVG IPC: 0.70092 (Sim:7h28m27s) 
Heartbeat CPU  0 instr:  253000001 cyc:  358439123 curr IPC: 1.38230 AVG IPC: 0.70230 (Sim:7h30m35s) 
Heartbeat CPU  0 instr:  254000003 cyc:  359186856 curr IPC: 1.33738 AVG IPC: 0.70363 (Sim:7h32m33s) 
Heartbeat CPU  0 instr:  255000001 cyc:  359959649 curr IPC: 1.29401 AVG IPC: 0.70490 (Sim:7h34m42s) 
Heartbeat CPU  0 instr:  256000000 cyc:  360758750 curr IPC: 1.25141 AVG IPC: 0.70611 (Sim:7h36m41s) 
Heartbeat CPU  0 instr:  257000002 cyc:  361554653 curr IPC: 1.25644 AVG IPC: 0.70733 (Sim:7h38m40s) 
Heartbeat CPU  0 instr:  258000001 cyc:  362310558 curr IPC: 1.32292 AVG IPC: 0.70861 (Sim:7h40m30s) 
Heartbeat CPU  0 instr:  259000002 cyc:  363133099 curr IPC: 1.21575 AVG IPC: 0.70977 (Sim:7h42m33s) 
Heartbeat CPU  0 instr:  260000000 cyc:  363935768 curr IPC: 1.24584 AVG IPC: 0.71095 (Sim:7h44m58s) 
Heartbeat CPU  0 instr:  261000003 cyc:  364694124 curr IPC: 1.31865 AVG IPC: 0.71222 (Sim:7h46m51s) 
Heartbeat CPU  0 instr:  262000003 cyc:  365456791 curr IPC: 1.31119 AVG IPC: 0.71347 (Sim:7h48m44s) 
Heartbeat CPU  0 instr:  263000003 cyc:  366277852 curr IPC: 1.21794 AVG IPC: 0.71461 (Sim:7h51m0s) 
Heartbeat CPU  0 instr:  264000000 cyc:  367040833 curr IPC: 1.31064 AVG IPC: 0.71585 (Sim:7h52m52s) 
Heartbeat CPU  0 instr:  265000001 cyc:  367792027 curr IPC: 1.33122 AVG IPC: 0.71711 (Sim:7h54m42s) 
Heartbeat CPU  0 instr:  266000000 cyc:  368581825 curr IPC: 1.26615 AVG IPC: 0.71829 (Sim:7h56m58s) 
Heartbeat CPU  0 instr:  267000000 cyc:  369386994 curr IPC: 1.24198 AVG IPC: 0.71943 (Sim:7h58m56s) 
Heartbeat CPU  0 instr:  268000000 cyc:  370146444 curr IPC: 1.31674 AVG IPC: 0.72066 (Sim:8h1m3s) 
Heartbeat CPU  0 instr:  269000001 cyc:  370899914 curr IPC: 1.32719 AVG IPC: 0.72190 (Sim:8h3m2s) 
Heartbeat CPU  0 instr:  270000003 cyc:  371707929 curr IPC: 1.23760 AVG IPC: 0.72302 (Sim:8h5m12s) 
Heartbeat CPU  0 instr:  271000000 cyc:  372484974 curr IPC: 1.28692 AVG IPC: 0.72420 (Sim:8h7m16s) 
Heartbeat CPU  0 instr:  272000000 cyc:  373281709 curr IPC: 1.25512 AVG IPC: 0.72534 (Sim:8h9m8s) 
Heartbeat CPU  0 instr:  273000002 cyc:  374079180 curr IPC: 1.25397 AVG IPC: 0.72647 (Sim:8h11m0s) 
Heartbeat CPU  0 instr:  274000003 cyc:  374844575 curr IPC: 1.30652 AVG IPC: 0.72766 (Sim:8h13m5s) 
Heartbeat CPU  0 instr:  275000002 cyc:  375596448 curr IPC: 1.33001 AVG IPC: 0.72887 (Sim:8h14m59s) 
Heartbeat CPU  0 instr:  276000000 cyc:  376356954 curr IPC: 1.31491 AVG IPC: 0.73005 (Sim:8h17m2s) 
Heartbeat CPU  0 instr:  277000000 cyc:  377093400 curr IPC: 1.35787 AVG IPC: 0.73128 (Sim:8h19m16s) 
Heartbeat CPU  0 instr:  278000001 cyc:  377854662 curr IPC: 1.31361 AVG IPC: 0.73246 (Sim:8h21m34s) 
Heartbeat CPU  0 instr:  279000001 cyc:  378600023 curr IPC: 1.34163 AVG IPC: 0.73366 (Sim:8h23m13s) 
Heartbeat CPU  0 instr:  280000000 cyc:  379338956 curr IPC: 1.35330 AVG IPC: 0.73487 (Sim:8h25m5s) 
Heartbeat CPU  0 instr:  281000001 cyc:  380081186 curr IPC: 1.34729 AVG IPC: 0.73607 (Sim:8h26m56s) 
Heartbeat CPU  0 instr:  282000000 cyc:  380819898 curr IPC: 1.35371 AVG IPC: 0.73727 (Sim:8h28m46s) 
Heartbeat CPU  0 instr:  283000001 cyc:  381577991 curr IPC: 1.31910 AVG IPC: 0.73843 (Sim:8h30m42s) 
Heartbeat CPU  0 instr:  284000000 cyc:  382312114 curr IPC: 1.36217 AVG IPC: 0.73963 (Sim:8h32m49s) 
Heartbeat CPU  0 instr:  285000000 cyc:  383067169 curr IPC: 1.32441 AVG IPC: 0.74079 (Sim:8h34m45s) 
Heartbeat CPU  0 instr:  286000002 cyc:  383819076 curr IPC: 1.32995 AVG IPC: 0.74195 (Sim:8h36m43s) 
Heartbeat CPU  0 instr:  287000002 cyc:  384566927 curr IPC: 1.33716 AVG IPC: 0.74311 (Sim:8h38m44s) 
Heartbeat CPU  0 instr:  288000000 cyc:  385310842 curr IPC: 1.34424 AVG IPC: 0.74427 (Sim:8h40m46s) 
Heartbeat CPU  0 instr:  289000000 cyc:  386105540 curr IPC: 1.25834 AVG IPC: 0.74533 (Sim:8h42m39s) 
Heartbeat CPU  0 instr:  290000001 cyc:  386929555 curr IPC: 1.21357 AVG IPC: 0.74633 (Sim:8h44m29s) 
Heartbeat CPU  0 instr:  291000002 cyc:  387686996 curr IPC: 1.32024 AVG IPC: 0.74746 (Sim:8h46m41s) 
Heartbeat CPU  0 instr:  292000000 cyc:  388418609 curr IPC: 1.36684 AVG IPC: 0.74863 (Sim:8h48m57s) 
Heartbeat CPU  0 instr:  293000002 cyc:  389153758 curr IPC: 1.36027 AVG IPC: 0.74978 (Sim:8h50m52s) 
Heartbeat CPU  0 instr:  294000002 cyc:  389885197 curr IPC: 1.36717 AVG IPC: 0.75095 (Sim:8h52m50s) 
Heartbeat CPU  0 instr:  295000001 cyc:  390635802 curr IPC: 1.33226 AVG IPC: 0.75207 (Sim:8h55m53s) 
Heartbeat CPU  0 instr:  296000000 cyc:  391362719 curr IPC: 1.37567 AVG IPC: 0.75323 (Sim:8h59m20s) 
Heartbeat CPU  0 instr:  297000000 cyc:  392088322 curr IPC: 1.37816 AVG IPC: 0.75439 (Sim:9h1m6s) 
Heartbeat CPU  0 instr:  298000000 cyc:  392821511 curr IPC: 1.36390 AVG IPC: 0.75553 (Sim:9h3m2s) 
Heartbeat CPU  0 instr:  299000003 cyc:  393551830 curr IPC: 1.36927 AVG IPC: 0.75667 (Sim:9h5m7s) 
Heartbeat CPU  0 instr:  300000000 cyc:  394298917 curr IPC: 1.33853 AVG IPC: 0.75777 (Sim:9h6m56s) 
Heartbeat CPU  0 instr:  301000000 cyc:  395058759 curr IPC: 1.31606 AVG IPC: 0.75885 (Sim:9h9m6s) 
Heartbeat CPU  0 instr:  302000001 cyc:  395783177 curr IPC: 1.38042 AVG IPC: 0.75999 (Sim:9h10m51s) 
Heartbeat CPU  0 instr:  303000002 cyc:  396507095 curr IPC: 1.38137 AVG IPC: 0.76113 (Sim:9h12m15s) 
Heartbeat CPU  0 instr:  304000000 cyc:  397233196 curr IPC: 1.37722 AVG IPC: 0.76226 (Sim:9h13m31s) 
Heartbeat CPU  0 instr:  305000002 cyc:  398006490 curr IPC: 1.29317 AVG IPC: 0.76329 (Sim:9h15m27s) 
Heartbeat CPU  0 instr:  306000003 cyc:  398794999 curr IPC: 1.26822 AVG IPC: 0.76429 (Sim:9h17m16s) 
Heartbeat CPU  0 instr:  307000003 cyc:  399558451 curr IPC: 1.30984 AVG IPC: 0.76534 (Sim:9h19m5s) 
Heartbeat CPU  0 instr:  308000000 cyc:  400306170 curr IPC: 1.33740 AVG IPC: 0.76641 (Sim:9h20m57s) 
Heartbeat CPU  0 instr:  309000002 cyc:  401033288 curr IPC: 1.37530 AVG IPC: 0.76752 (Sim:9h22m23s) 
Heartbeat CPU  0 instr:  310000000 cyc:  401756698 curr IPC: 1.38234 AVG IPC: 0.76863 (Sim:9h23m43s) 
Heartbeat CPU  0 instr:  311000003 cyc:  402482084 curr IPC: 1.37858 AVG IPC: 0.76973 (Sim:9h25m21s) 
Heartbeat CPU  0 instr:  312000000 cyc:  403234831 curr IPC: 1.32846 AVG IPC: 0.77077 (Sim:9h26m59s) 
Heartbeat CPU  0 instr:  313000001 cyc:  403975036 curr IPC: 1.35098 AVG IPC: 0.77184 (Sim:9h28m16s) 
Heartbeat CPU  0 instr:  314000001 cyc:  404732065 curr IPC: 1.32095 AVG IPC: 0.77287 (Sim:9h30m5s) 
Heartbeat CPU  0 instr:  315000000 cyc:  405457532 curr IPC: 1.37842 AVG IPC: 0.77396 (Sim:9h32m1s) 
Heartbeat CPU  0 instr:  316000000 cyc:  406184658 curr IPC: 1.37528 AVG IPC: 0.77504 (Sim:9h34m0s) 
Heartbeat CPU  0 instr:  317000001 cyc:  406948536 curr IPC: 1.30911 AVG IPC: 0.77604 (Sim:9h36m7s) 
Heartbeat CPU  0 instr:  318000000 cyc:  407689674 curr IPC: 1.34927 AVG IPC: 0.77709 (Sim:9h38m38s) 
Heartbeat CPU  0 instr:  319000000 cyc:  408400984 curr IPC: 1.40586 AVG IPC: 0.77818 (Sim:9h40m32s) 
Heartbeat CPU  0 instr:  320000000 cyc:  409134941 curr IPC: 1.36248 AVG IPC: 0.77923 (Sim:9h42m29s) 
Heartbeat CPU  0 instr:  321000002 cyc:  409910086 curr IPC: 1.29008 AVG IPC: 0.78020 (Sim:9h44m30s) 
Heartbeat CPU  0 instr:  322000001 cyc:  410674559 curr IPC: 1.30809 AVG IPC: 0.78119 (Sim:9h46m29s) 
Heartbeat CPU  0 instr:  323000000 cyc:  411445103 curr IPC: 1.29778 AVG IPC: 0.78216 (Sim:9h48m25s) 
Heartbeat CPU  0 instr:  324000000 cyc:  412232967 curr IPC: 1.26925 AVG IPC: 0.78309 (Sim:9h50m18s) 
Heartbeat CPU  0 instr:  325000000 cyc:  413028326 curr IPC: 1.25729 AVG IPC: 0.78401 (Sim:9h52m25s) 
Heartbeat CPU  0 instr:  326000003 cyc:  413824610 curr IPC: 1.25584 AVG IPC: 0.78492 (Sim:9h54m49s) 
Heartbeat CPU  0 instr:  327000003 cyc:  414576602 curr IPC: 1.32980 AVG IPC: 0.78591 (Sim:9h56m43s) 
Heartbeat CPU  0 instr:  328000000 cyc:  415342854 curr IPC: 1.30505 AVG IPC: 0.78687 (Sim:9h58m32s) 
Heartbeat CPU  0 instr:  329000001 cyc:  416138717 curr IPC: 1.25650 AVG IPC: 0.78777 (Sim:10h0m28s) 
Heartbeat CPU  0 instr:  330000000 cyc:  416931259 curr IPC: 1.26176 AVG IPC: 0.78867 (Sim:10h2m47s) 
Heartbeat CPU  0 instr:  331000001 cyc:  417678203 curr IPC: 1.33879 AVG IPC: 0.78966 (Sim:10h4m44s) 
Heartbeat CPU  0 instr:  332000000 cyc:  418464331 curr IPC: 1.27206 AVG IPC: 0.79057 (Sim:10h6m53s) 
Heartbeat CPU  0 instr:  333000001 cyc:  419272916 curr IPC: 1.23673 AVG IPC: 0.79143 (Sim:10h9m17s) 
Heartbeat CPU  0 instr:  334000002 cyc:  420043008 curr IPC: 1.29855 AVG IPC: 0.79236 (Sim:10h11m32s) 
Heartbeat CPU  0 instr:  335000001 cyc:  420801483 curr IPC: 1.31843 AVG IPC: 0.79331 (Sim:10h13m39s) 
Heartbeat CPU  0 instr:  336000000 cyc:  421582171 curr IPC: 1.28092 AVG IPC: 0.79422 (Sim:10h15m49s) 
Heartbeat CPU  0 instr:  337000001 cyc:  422363471 curr IPC: 1.27992 AVG IPC: 0.79512 (Sim:10h17m54s) 
Heartbeat CPU  0 instr:  338000001 cyc:  423140490 curr IPC: 1.28697 AVG IPC: 0.79602 (Sim:10h20m14s) 
Heartbeat CPU  0 instr:  339000000 cyc:  423794413 curr IPC: 1.52923 AVG IPC: 0.79716 (Sim:10h21m52s) 
Heartbeat CPU  0 instr:  340000000 cyc:  424237678 curr IPC: 2.25599 AVG IPC: 0.79869 (Sim:10h22m36s) 
Heartbeat CPU  0 instr:  341000000 cyc:  424635617 curr IPC: 2.51295 AVG IPC: 0.80030 (Sim:10h22m49s) 
Heartbeat CPU  0 instr:  342000001 cyc:  425301433 curr IPC: 1.50192 AVG IPC: 0.80140 (Sim:10h23m14s) 
Heartbeat CPU  0 instr:  343000001 cyc:  426158042 curr IPC: 1.16739 AVG IPC: 0.80213 (Sim:10h23m59s) 
Heartbeat CPU  0 instr:  344000000 cyc:  426900659 curr IPC: 1.34659 AVG IPC: 0.80308 (Sim:10h24m38s) 
Heartbeat CPU  0 instr:  345000002 cyc:  427665118 curr IPC: 1.30812 AVG IPC: 0.80399 (Sim:10h25m19s) 
Heartbeat CPU  0 instr:  346000001 cyc:  428432583 curr IPC: 1.30299 AVG IPC: 0.80488 (Sim:10h25m57s) 
Heartbeat CPU  0 instr:  347000000 cyc:  429203469 curr IPC: 1.29721 AVG IPC: 0.80577 (Sim:10h26m37s) 
Heartbeat CPU  0 instr:  348000000 cyc:  429982439 curr IPC: 1.28375 AVG IPC: 0.80664 (Sim:10h27m17s) 
Heartbeat CPU  0 instr:  349000000 cyc:  430758552 curr IPC: 1.28847 AVG IPC: 0.80751 (Sim:10h27m57s) 
Heartbeat CPU  0 instr:  350000003 cyc:  431539487 curr IPC: 1.28052 AVG IPC: 0.80837 (Sim:10h28m38s) 
Heartbeat CPU  0 instr:  351000003 cyc:  432311046 curr IPC: 1.29608 AVG IPC: 0.80924 (Sim:10h29m19s) 
Heartbeat CPU  0 instr:  352000000 cyc:  433086967 curr IPC: 1.28879 AVG IPC: 0.81010 (Sim:10h29m58s) 
Finished CPU 0 instr: 350000002 cyc: 432044908 AVG IPC: 0.81010 (Sim time: 10h29m58s

ChampSim completed all CPUs

[ROI Statistics]
Core_0_instructions 350000002
Core_0_cycles 432044908
Core_0_IPC 0.81010

Core_0_branch_prediction_accuracy 98.12358
Core_0_branch_MPKI 0.51152
Core_0_average_ROB_occupancy_at_mispredict 208.59834

Core_0_L1D_total_access 91229718
Core_0_L1D_total_hit 72004361 Hit Ratio: 0.78926
Core_0_L1D_total_miss 19225357
Core_0_L1D_loads 84749696
Core_0_L1D_load_hit 66677558
Core_0_L1D_load_miss 18072138
Core_0_L1D_RFOs 6480022
Core_0_L1D_RFO_hit 5326803
Core_0_L1D_RFO_miss 1153219
Core_0_L1D_prefetches 0
Core_0_L1D_prefetch_hit 0
Core_0_L1D_prefetch_miss 0
Core_0_L1D_writebacks 0
Core_0_L1D_writeback_hit 0
Core_0_L1D_writeback_miss 0
Core_0_L1D_prefetch_requested 0
Core_0_L1D_prefetch_issued 0
Core_0_L1D_prefetch_useful 0
Core_0_L1D_prefetch_useless 0
Core_0_L1D_prefetch_late 0
Core_0_L1D_average_miss_latency 40.62800

Core_0_L1I_total_access 112157879
Core_0_L1I_total_hit 112148469 Hit Ratio: 0.99992
Core_0_L1I_total_miss 9410
Core_0_L1I_loads 112157879
Core_0_L1I_load_hit 112148469
Core_0_L1I_load_miss 9410
Core_0_L1I_RFOs 0
Core_0_L1I_RFO_hit 0
Core_0_L1I_RFO_miss 0
Core_0_L1I_prefetches 0
Core_0_L1I_prefetch_hit 0
Core_0_L1I_prefetch_miss 0
Core_0_L1I_writebacks 0
Core_0_L1I_writeback_hit 0
Core_0_L1I_writeback_miss 0
Core_0_L1I_prefetch_requested 0
Core_0_L1I_prefetch_issued 0
Core_0_L1I_prefetch_useful 0
Core_0_L1I_prefetch_useless 0
Core_0_L1I_prefetch_late 0
Core_0_L1I_average_miss_latency 177.12200

Core_0_L2C_total_access 64613274
Core_0_L2C_total_hit 57238875 Hit Ratio: 0.88587
Core_0_L2C_total_miss 7374399
Core_0_L2C_loads 18081453
Core_0_L2C_load_hit 16813495
Core_0_L2C_load_miss 1267958
Core_0_L2C_RFOs 1153210
Core_0_L2C_RFO_hit 611906
Core_0_L2C_RFO_miss 541304
Core_0_L2C_prefetches 43368953
Core_0_L2C_prefetch_hit 37804235
Core_0_L2C_prefetch_miss 5564718
Core_0_L2C_writebacks 2009658
Core_0_L2C_writeback_hit 2009239
Core_0_L2C_writeback_miss 419
Core_0_L2C_prefetch_requested 56076148
Core_0_L2C_prefetch_issued 47852009
Core_0_L2C_prefetch_useful 3872347
Core_0_L2C_prefetch_useless 1721616
Core_0_L2C_prefetch_late 255560
Core_0_L2C_average_miss_latency 204.33659

Core_0_LLC_total_access 9078845
Core_0_LLC_total_hit 4836974 Hit Ratio: 0.53277
Core_0_LLC_total_miss 4241871
Core_0_LLC_loads 1015359
Core_0_LLC_load_hit 286238
Core_0_LLC_load_miss 729121
Core_0_LLC_RFOs 538403
Core_0_LLC_RFO_hit 1846
Core_0_LLC_RFO_miss 536557
Core_0_LLC_prefetches 5820218
Core_0_LLC_prefetch_hit 2844276
Core_0_LLC_prefetch_miss 2975942
Core_0_LLC_writebacks 1704865
Core_0_LLC_writeback_hit 1704614
Core_0_LLC_writeback_miss 251
Core_0_LLC_prefetch_requested 0
Core_0_LLC_prefetch_issued 0
Core_0_LLC_prefetch_useful 64867
Core_0_LLC_prefetch_useless 2913639
Core_0_LLC_prefetch_late 0
Core_0_LLC_average_miss_latency 311.81049

Core_0_major_page_fault 0
Core_0_minor_page_fault 18565

CPU 0 L2C next line prefetcher final stats
Channel_0_RQ_row_buffer_hit 1398720
Channel_0_RQ_row_buffer_miss 2842876
Channel_0_WQ_row_buffer_hit 446842
Channel_0_WQ_row_buffer_miss 1210593
Channel_0_WQ_full 0
Channel_0_dbus_congested 2740765

avg_congested_cycle 10
