*************************************************
   ChampSim Multicore Out-of-Order Simulator
   Last compiled: Aug 22 2024 23:25:03
*************************************************

trace_0 ./LLM_Traces/2B_Traces_SelfAttention_Phythia-70M-Seq1024-07-08-0125.champsim.xz
warmup_instructions 2000000
simulation_instructions 350000000
champsim_seed 200

num_cpus 1
cpu_freq 4000
dram_io_freq 2400
page_size 4096
block_size 64
max_read_per_cycle 8
max_fill_per_cycle 1
dram_channels 1
dram_ranks 1
dram_banks 8
dram_rows 65536
dram_columns 128
dram_row_size 8
dram_size 4096
dram_pages 1048576

fetch_width 6
decode_width 6
exec_width 4
lq_width 2
sq_width 2
retire_width 4
scheduler_size 128
branch_mispredict_penalty 20
rob_size 256
lq_size 72
sq_size 56
num_instr_destinations_sparc 4
num_instr_destinations 2
num_instr_sources 4

itlb_set 16
itlb_way 8
itlb_rq_size 16
itlb_wq_size 16
itlb_pq_size 0
itlb_mshr_size 8
itlb_latency 1

dtlb_set 16
dtlb_way 4
dtlb_rq_size 16
dtlb_wq_size 16
dtlb_pq_size 0
dtlb_mshr_size 8
dtlb_latency 1

stlb_set 128
stlb_way 12
stlb_rq_size 32
stlb_wq_size 32
stlb_pq_size 0
stlb_mshr_size 16
stlb_latency 8

l1i_size 32
l1i_set 64
l1i_way 8
l1i_rq_size 64
l1i_wq_size 64
l1i_pq_size 8
l1i_mshr_size 8
l1i_latency 1

l1d_size 32
l1d_set 64
l1d_way 8
l1d_rq_size 64
l1d_wq_size 64
l1d_pq_size 8
l1d_mshr_size 16
l1d_latency 4

l2c_size 512
l2c_set 1024
l2c_way 8
l2c_rq_size 32
l2c_wq_size 32
l2c_pq_size 16
l2c_mshr_size 32
l2c_latency 10

llc_size 2048
llc_set 2048
llc_way 16
llc_rq_size 32
llc_wq_size 32
llc_pq_size 32
llc_mshr_size 64
llc_latency 20

dram_channel_width 8
dram_wq_size 64
dram_rq_size 64
tRP 15
tRCD 15
tCAS 12.5
dram_dbus_turn_around_time 30
dram_write_high_wm 56
dram_write_low_wm 48
min_dram_writes_per_switch 16
dram_mtps 2400
dram_dbus_return_time 13


Heartbeat CPU  0 instr:    1000001 cyc:     467428 curr IPC: 2.13937 AVG IPC: 2.13937 (Sim:0h0m2s) 
Heartbeat CPU  0 instr:    2000000 cyc:    1045445 curr IPC: 1.73005 AVG IPC: 1.91306 (Sim:0h0m4s) 

Warmup complete CPU  0 instructions:    2000002 cycles:    1045446 (Simulation time: 0 hr 0 min 4 sec) 

Heartbeat CPU  0 instr:    3000001 cyc:    2150162 curr IPC: 0.90521 AVG IPC: 0.90521 (Sim:0h0m6s) 
Heartbeat CPU  0 instr:    4000000 cyc:    3290192 curr IPC: 0.87717 AVG IPC: 0.89097 (Sim:0h0m8s) 
Heartbeat CPU  0 instr:    5000002 cyc:    4419973 curr IPC: 0.88513 AVG IPC: 0.88901 (Sim:0h0m11s) 
Heartbeat CPU  0 instr:    6000001 cyc:    5543850 curr IPC: 0.88978 AVG IPC: 0.88920 (Sim:0h0m14s) 
Heartbeat CPU  0 instr:    7000002 cyc:    6674282 curr IPC: 0.88462 AVG IPC: 0.88828 (Sim:0h0m16s) 
Heartbeat CPU  0 instr:    8000000 cyc:    7808040 curr IPC: 0.88202 AVG IPC: 0.88723 (Sim:0h0m18s) 
Heartbeat CPU  0 instr:    9000003 cyc:    8955420 curr IPC: 0.87155 AVG IPC: 0.88496 (Sim:0h0m21s) 
Heartbeat CPU  0 instr:   10000003 cyc:   10091083 curr IPC: 0.88054 AVG IPC: 0.88440 (Sim:0h0m23s) 
Heartbeat CPU  0 instr:   11000000 cyc:   11216379 curr IPC: 0.88865 AVG IPC: 0.88487 (Sim:0h0m25s) 
Heartbeat CPU  0 instr:   12000000 cyc:   12381713 curr IPC: 0.85812 AVG IPC: 0.88212 (Sim:0h0m28s) 
Heartbeat CPU  0 instr:   13000002 cyc:   13546593 curr IPC: 0.85846 AVG IPC: 0.87992 (Sim:0h0m30s) 
Heartbeat CPU  0 instr:   14000000 cyc:   14665736 curr IPC: 0.89354 AVG IPC: 0.88104 (Sim:0h0m34s) 
Heartbeat CPU  0 instr:   15000002 cyc:   15803910 curr IPC: 0.87860 AVG IPC: 0.88085 (Sim:0h0m38s) 
Heartbeat CPU  0 instr:   16000000 cyc:   16945235 curr IPC: 0.87617 AVG IPC: 0.88051 (Sim:0h0m42s) 
Heartbeat CPU  0 instr:   17000001 cyc:   18094913 curr IPC: 0.86981 AVG IPC: 0.87979 (Sim:0h0m46s) 
Heartbeat CPU  0 instr:   18000003 cyc:   19239858 curr IPC: 0.87341 AVG IPC: 0.87939 (Sim:0h0m49s) 
Heartbeat CPU  0 instr:   19000003 cyc:   20380928 curr IPC: 0.87637 AVG IPC: 0.87921 (Sim:0h0m53s) 
Heartbeat CPU  0 instr:   20000000 cyc:   21469061 curr IPC: 0.91900 AVG IPC: 0.88133 (Sim:0h0m57s) 
Heartbeat CPU  0 instr:   21000001 cyc:   22534315 curr IPC: 0.93874 AVG IPC: 0.88418 (Sim:0h1m0s) 
Heartbeat CPU  0 instr:   22000000 cyc:   23635322 curr IPC: 0.90826 AVG IPC: 0.88535 (Sim:0h1m5s) 
Heartbeat CPU  0 instr:   23000002 cyc:   24718525 curr IPC: 0.92319 AVG IPC: 0.88708 (Sim:0h1m8s) 
Heartbeat CPU  0 instr:   24000000 cyc:   25800757 curr IPC: 0.92401 AVG IPC: 0.88870 (Sim:0h1m12s) 
Heartbeat CPU  0 instr:   25000000 cyc:   26847223 curr IPC: 0.95560 AVG IPC: 0.89141 (Sim:0h1m16s) 
Heartbeat CPU  0 instr:   26000000 cyc:   27994581 curr IPC: 0.87157 AVG IPC: 0.89057 (Sim:0h1m19s) 
Heartbeat CPU  0 instr:   27000002 cyc:   29070728 curr IPC: 0.92924 AVG IPC: 0.89205 (Sim:0h1m22s) 
Heartbeat CPU  0 instr:   28000000 cyc:   30151711 curr IPC: 0.92508 AVG IPC: 0.89328 (Sim:0h1m25s) 
Heartbeat CPU  0 instr:   29000000 cyc:   31230692 curr IPC: 0.92680 AVG IPC: 0.89448 (Sim:0h1m28s) 
Heartbeat CPU  0 instr:   30000001 cyc:   32319901 curr IPC: 0.91810 AVG IPC: 0.89530 (Sim:0h1m31s) 
Heartbeat CPU  0 instr:   31000001 cyc:   33391215 curr IPC: 0.93343 AVG IPC: 0.89656 (Sim:0h1m33s) 
Heartbeat CPU  0 instr:   32000000 cyc:   34461663 curr IPC: 0.93419 AVG IPC: 0.89777 (Sim:0h1m36s) 
Heartbeat CPU  0 instr:   33000001 cyc:   35538106 curr IPC: 0.92899 AVG IPC: 0.89874 (Sim:0h1m39s) 
Heartbeat CPU  0 instr:   34000001 cyc:   36612506 curr IPC: 0.93075 AVG IPC: 0.89971 (Sim:0h1m41s) 
Heartbeat CPU  0 instr:   35000003 cyc:   37697658 curr IPC: 0.92153 AVG IPC: 0.90035 (Sim:0h1m44s) 
Heartbeat CPU  0 instr:   36000000 cyc:   38773501 curr IPC: 0.92950 AVG IPC: 0.90119 (Sim:0h1m47s) 
Heartbeat CPU  0 instr:   37000001 cyc:   39838914 curr IPC: 0.93860 AVG IPC: 0.90221 (Sim:0h1m49s) 
Heartbeat CPU  0 instr:   38000003 cyc:   40934578 curr IPC: 0.91269 AVG IPC: 0.90250 (Sim:0h1m52s) 
Heartbeat CPU  0 instr:   39000003 cyc:   42006557 curr IPC: 0.93285 AVG IPC: 0.90330 (Sim:0h1m55s) 
Heartbeat CPU  0 instr:   40000000 cyc:   43082319 curr IPC: 0.92957 AVG IPC: 0.90397 (Sim:0h1m57s) 
Heartbeat CPU  0 instr:   41000002 cyc:   44188472 curr IPC: 0.90404 AVG IPC: 0.90397 (Sim:0h2m0s) 
Heartbeat CPU  0 instr:   42000001 cyc:   45268586 curr IPC: 0.92583 AVG IPC: 0.90450 (Sim:0h2m3s) 
Heartbeat CPU  0 instr:   43000001 cyc:   46360283 curr IPC: 0.91601 AVG IPC: 0.90478 (Sim:0h2m6s) 
Heartbeat CPU  0 instr:   44000000 cyc:   47448120 curr IPC: 0.91925 AVG IPC: 0.90512 (Sim:0h2m9s) 
Heartbeat CPU  0 instr:   45000001 cyc:   48526971 curr IPC: 0.92691 AVG IPC: 0.90562 (Sim:0h2m11s) 
Heartbeat CPU  0 instr:   46000001 cyc:   49620655 curr IPC: 0.91434 AVG IPC: 0.90581 (Sim:0h2m14s) 
Heartbeat CPU  0 instr:   47000001 cyc:   50714091 curr IPC: 0.91455 AVG IPC: 0.90600 (Sim:0h2m16s) 
Heartbeat CPU  0 instr:   48000000 cyc:   51810863 curr IPC: 0.91177 AVG IPC: 0.90613 (Sim:0h2m19s) 
Heartbeat CPU  0 instr:   49000000 cyc:   52905095 curr IPC: 0.91388 AVG IPC: 0.90629 (Sim:0h2m22s) 
Heartbeat CPU  0 instr:   50000000 cyc:   53911829 curr IPC: 0.99331 AVG IPC: 0.90795 (Sim:0h2m25s) 
Heartbeat CPU  0 instr:   51000000 cyc:   54853720 curr IPC: 1.06169 AVG IPC: 0.91064 (Sim:0h2m28s) 
Heartbeat CPU  0 instr:   52000000 cyc:   55789289 curr IPC: 1.06887 AVG IPC: 0.91334 (Sim:0h2m31s) 
Heartbeat CPU  0 instr:   53000002 cyc:   56720899 curr IPC: 1.07341 AVG IPC: 0.91602 (Sim:0h2m34s) 
Heartbeat CPU  0 instr:   54000003 cyc:   57658762 curr IPC: 1.06625 AVG IPC: 0.91851 (Sim:0h2m37s) 
Heartbeat CPU  0 instr:   55000001 cyc:   58596840 curr IPC: 1.06601 AVG IPC: 0.92092 (Sim:0h2m40s) 
Heartbeat CPU  0 instr:   56000000 cyc:   59530603 curr IPC: 1.07093 AVG IPC: 0.92331 (Sim:0h2m43s) 
Heartbeat CPU  0 instr:   57000003 cyc:   60472300 curr IPC: 1.06192 AVG IPC: 0.92551 (Sim:0h2m46s) 
Heartbeat CPU  0 instr:   58000002 cyc:   61415730 curr IPC: 1.05996 AVG IPC: 0.92761 (Sim:0h2m49s) 
Heartbeat CPU  0 instr:   59000001 cyc:   62349761 curr IPC: 1.07063 AVG IPC: 0.92979 (Sim:0h2m51s) 
Heartbeat CPU  0 instr:   60000000 cyc:   63271939 curr IPC: 1.08439 AVG IPC: 0.93208 (Sim:0h2m54s) 
Heartbeat CPU  0 instr:   61000001 cyc:   64193467 curr IPC: 1.08516 AVG IPC: 0.93431 (Sim:0h2m57s) 
Heartbeat CPU  0 instr:   62000000 cyc:   65116242 curr IPC: 1.08369 AVG IPC: 0.93646 (Sim:0h3m0s) 
Heartbeat CPU  0 instr:   63000000 cyc:   66043310 curr IPC: 1.07867 AVG IPC: 0.93849 (Sim:0h3m3s) 
Heartbeat CPU  0 instr:   64000000 cyc:   66965490 curr IPC: 1.08439 AVG IPC: 0.94053 (Sim:0h3m6s) 
Heartbeat CPU  0 instr:   65000003 cyc:   67871297 curr IPC: 1.10399 AVG IPC: 0.94275 (Sim:0h3m9s) 
Heartbeat CPU  0 instr:   66000000 cyc:   68989969 curr IPC: 0.89391 AVG IPC: 0.94194 (Sim:0h3m12s) 
Heartbeat CPU  0 instr:   67000002 cyc:   70104323 curr IPC: 0.89738 AVG IPC: 0.94123 (Sim:0h3m15s) 
Heartbeat CPU  0 instr:   68000000 cyc:   71176815 curr IPC: 0.93241 AVG IPC: 0.94109 (Sim:0h3m18s) 
Heartbeat CPU  0 instr:   69000002 cyc:   72252449 curr IPC: 0.92969 AVG IPC: 0.94092 (Sim:0h3m22s) 
Heartbeat CPU  0 instr:   70000003 cyc:   73323305 curr IPC: 0.93383 AVG IPC: 0.94081 (Sim:0h3m25s) 
Heartbeat CPU  0 instr:   71000003 cyc:   74367888 curr IPC: 0.95732 AVG IPC: 0.94105 (Sim:0h3m28s) 
Heartbeat CPU  0 instr:   72000000 cyc:   75423344 curr IPC: 0.94745 AVG IPC: 0.94114 (Sim:0h3m31s) 
Heartbeat CPU  0 instr:   73000001 cyc:   76497919 curr IPC: 0.93060 AVG IPC: 0.94099 (Sim:0h3m33s) 
Heartbeat CPU  0 instr:   74000002 cyc:   77580843 curr IPC: 0.92343 AVG IPC: 0.94074 (Sim:0h3m36s) 
Heartbeat CPU  0 instr:   75000002 cyc:   78667720 curr IPC: 0.92007 AVG IPC: 0.94045 (Sim:0h3m39s) 
Heartbeat CPU  0 instr:   76000000 cyc:   79739387 curr IPC: 0.93312 AVG IPC: 0.94035 (Sim:0h3m42s) 
Heartbeat CPU  0 instr:   77000000 cyc:   80809724 curr IPC: 0.93429 AVG IPC: 0.94027 (Sim:0h3m46s) 
Heartbeat CPU  0 instr:   78000002 cyc:   81873956 curr IPC: 0.93965 AVG IPC: 0.94026 (Sim:0h3m50s) 
Heartbeat CPU  0 instr:   79000001 cyc:   82943476 curr IPC: 0.93500 AVG IPC: 0.94019 (Sim:0h3m53s) 
Heartbeat CPU  0 instr:   80000000 cyc:   84005010 curr IPC: 0.94203 AVG IPC: 0.94022 (Sim:0h3m56s) 
Heartbeat CPU  0 instr:   81000000 cyc:   85085018 curr IPC: 0.92592 AVG IPC: 0.94003 (Sim:0h4m0s) 
Heartbeat CPU  0 instr:   82000000 cyc:   86192198 curr IPC: 0.90320 AVG IPC: 0.93955 (Sim:0h4m3s) 
Heartbeat CPU  0 instr:   83000003 cyc:   87302185 curr IPC: 0.90091 AVG IPC: 0.93906 (Sim:0h4m6s) 
Heartbeat CPU  0 instr:   84000000 cyc:   88405454 curr IPC: 0.90639 AVG IPC: 0.93864 (Sim:0h4m9s) 
Heartbeat CPU  0 instr:   85000003 cyc:   89488604 curr IPC: 0.92324 AVG IPC: 0.93846 (Sim:0h4m12s) 
Heartbeat CPU  0 instr:   86000001 cyc:   90567962 curr IPC: 0.92647 AVG IPC: 0.93831 (Sim:0h4m14s) 
Heartbeat CPU  0 instr:   87000001 cyc:   91667962 curr IPC: 0.90909 AVG IPC: 0.93796 (Sim:0h4m18s) 
Heartbeat CPU  0 instr:   88000000 cyc:   92763359 curr IPC: 0.91291 AVG IPC: 0.93766 (Sim:0h4m21s) 
Heartbeat CPU  0 instr:   89000002 cyc:   93861237 curr IPC: 0.91085 AVG IPC: 0.93734 (Sim:0h4m24s) 
Heartbeat CPU  0 instr:   90000002 cyc:   94882560 curr IPC: 0.97912 AVG IPC: 0.93780 (Sim:0h4m27s) 
Heartbeat CPU  0 instr:   91000001 cyc:   95997341 curr IPC: 0.89704 AVG IPC: 0.93732 (Sim:0h4m30s) 
Heartbeat CPU  0 instr:   92000000 cyc:   97114394 curr IPC: 0.89521 AVG IPC: 0.93683 (Sim:0h4m33s) 
Heartbeat CPU  0 instr:   93000000 cyc:   98221861 curr IPC: 0.90296 AVG IPC: 0.93644 (Sim:0h4m36s) 
Heartbeat CPU  0 instr:   94000000 cyc:   99300837 curr IPC: 0.92680 AVG IPC: 0.93634 (Sim:0h4m39s) 
Heartbeat CPU  0 instr:   95000000 cyc:  100379489 curr IPC: 0.92708 AVG IPC: 0.93623 (Sim:0h4m42s) 
Heartbeat CPU  0 instr:   96000000 cyc:  101463119 curr IPC: 0.92282 AVG IPC: 0.93609 (Sim:0h4m46s) 
Heartbeat CPU  0 instr:   97000000 cyc:  102533151 curr IPC: 0.93455 AVG IPC: 0.93607 (Sim:0h4m49s) 
Heartbeat CPU  0 instr:   98000000 cyc:  103622125 curr IPC: 0.91830 AVG IPC: 0.93589 (Sim:0h4m52s) 
Heartbeat CPU  0 instr:   99000000 cyc:  104703946 curr IPC: 0.92437 AVG IPC: 0.93577 (Sim:0h4m54s) 
Heartbeat CPU  0 instr:  100000000 cyc:  105808083 curr IPC: 0.90568 AVG IPC: 0.93545 (Sim:0h4m57s) 
Heartbeat CPU  0 instr:  101000001 cyc:  106896822 curr IPC: 0.91849 AVG IPC: 0.93527 (Sim:0h5m0s) 
Heartbeat CPU  0 instr:  102000002 cyc:  107981248 curr IPC: 0.92215 AVG IPC: 0.93514 (Sim:0h5m3s) 
Heartbeat CPU  0 instr:  103000003 cyc:  109070412 curr IPC: 0.91814 AVG IPC: 0.93497 (Sim:0h5m7s) 
Heartbeat CPU  0 instr:  104000000 cyc:  110137585 curr IPC: 0.93705 AVG IPC: 0.93499 (Sim:0h5m10s) 
Heartbeat CPU  0 instr:  105000001 cyc:  111228094 curr IPC: 0.91700 AVG IPC: 0.93481 (Sim:0h5m13s) 
Heartbeat CPU  0 instr:  106000000 cyc:  112310455 curr IPC: 0.92391 AVG IPC: 0.93471 (Sim:0h5m16s) 
Heartbeat CPU  0 instr:  107000001 cyc:  113412918 curr IPC: 0.90706 AVG IPC: 0.93443 (Sim:0h5m19s) 
Heartbeat CPU  0 instr:  108000000 cyc:  114505936 curr IPC: 0.91490 AVG IPC: 0.93425 (Sim:0h5m22s) 
Heartbeat CPU  0 instr:  109000000 cyc:  115627173 curr IPC: 0.89187 AVG IPC: 0.93383 (Sim:0h5m25s) 
Heartbeat CPU  0 instr:  110000002 cyc:  116728465 curr IPC: 0.90803 AVG IPC: 0.93359 (Sim:0h5m29s) 
Heartbeat CPU  0 instr:  111000001 cyc:  117827684 curr IPC: 0.90974 AVG IPC: 0.93336 (Sim:0h5m32s) 
Heartbeat CPU  0 instr:  112000000 cyc:  118901409 curr IPC: 0.93134 AVG IPC: 0.93334 (Sim:0h5m35s) 
Heartbeat CPU  0 instr:  113000000 cyc:  119986218 curr IPC: 0.92182 AVG IPC: 0.93324 (Sim:0h5m37s) 
Heartbeat CPU  0 instr:  114000000 cyc:  121020571 curr IPC: 0.96679 AVG IPC: 0.93353 (Sim:0h5m40s) 
Heartbeat CPU  0 instr:  115000002 cyc:  121953353 curr IPC: 1.07206 AVG IPC: 0.93460 (Sim:0h5m43s) 
Heartbeat CPU  0 instr:  116000000 cyc:  122892622 curr IPC: 1.06466 AVG IPC: 0.93560 (Sim:0h5m46s) 
Heartbeat CPU  0 instr:  117000000 cyc:  123826265 curr IPC: 1.07107 AVG IPC: 0.93663 (Sim:0h5m50s) 
Heartbeat CPU  0 instr:  118000003 cyc:  124766146 curr IPC: 1.06397 AVG IPC: 0.93760 (Sim:0h5m53s) 
Heartbeat CPU  0 instr:  119000002 cyc:  125714215 curr IPC: 1.05477 AVG IPC: 0.93849 (Sim:0h5m56s) 
Heartbeat CPU  0 instr:  120000000 cyc:  126652112 curr IPC: 1.06621 AVG IPC: 0.93944 (Sim:0h5m59s) 
Heartbeat CPU  0 instr:  121000003 cyc:  127590948 curr IPC: 1.06515 AVG IPC: 0.94037 (Sim:0h6m2s) 
Heartbeat CPU  0 instr:  122000000 cyc:  128529116 curr IPC: 1.06590 AVG IPC: 0.94130 (Sim:0h6m5s) 
Heartbeat CPU  0 instr:  123000000 cyc:  129452365 curr IPC: 1.08313 AVG IPC: 0.94232 (Sim:0h6m8s) 
Heartbeat CPU  0 instr:  124000000 cyc:  130378312 curr IPC: 1.07998 AVG IPC: 0.94330 (Sim:0h6m11s) 
Heartbeat CPU  0 instr:  125000003 cyc:  131310689 curr IPC: 1.07253 AVG IPC: 0.94423 (Sim:0h6m14s) 
Heartbeat CPU  0 instr:  126000003 cyc:  132241384 curr IPC: 1.07447 AVG IPC: 0.94515 (Sim:0h6m17s) 
Heartbeat CPU  0 instr:  127000002 cyc:  133175089 curr IPC: 1.07100 AVG IPC: 0.94604 (Sim:0h6m20s) 
Heartbeat CPU  0 instr:  128000000 cyc:  134109192 curr IPC: 1.07054 AVG IPC: 0.94691 (Sim:0h6m23s) 
Heartbeat CPU  0 instr:  129000000 cyc:  135032462 curr IPC: 1.08311 AVG IPC: 0.94785 (Sim:0h6m26s) 
Heartbeat CPU  0 instr:  130000000 cyc:  135567286 curr IPC: 1.86977 AVG IPC: 0.95152 (Sim:0h6m28s) 
Heartbeat CPU  0 instr:  131000000 cyc:  135928484 curr IPC: 2.76856 AVG IPC: 0.95638 (Sim:0h6m28s) 
Heartbeat CPU  0 instr:  132000000 cyc:  136714539 curr IPC: 1.27218 AVG IPC: 0.95821 (Sim:0h6m30s) 
Heartbeat CPU  0 instr:  133000001 cyc:  142916576 curr IPC: 0.16124 AVG IPC: 0.92337 (Sim:0h6m37s) 
Heartbeat CPU  0 instr:  134000000 cyc:  149667567 curr IPC: 0.14813 AVG IPC: 0.88816 (Sim:0h6m45s) 
Heartbeat CPU  0 instr:  135000000 cyc:  156442367 curr IPC: 0.14761 AVG IPC: 0.85587 (Sim:0h6m52s) 
Heartbeat CPU  0 instr:  136000000 cyc:  163191399 curr IPC: 0.14817 AVG IPC: 0.82642 (Sim:0h6m59s) 
Heartbeat CPU  0 instr:  137000000 cyc:  167103747 curr IPC: 0.25560 AVG IPC: 0.81297 (Sim:0h7m3s) 
Heartbeat CPU  0 instr:  138000002 cyc:  169121685 curr IPC: 0.49556 AVG IPC: 0.80916 (Sim:0h7m7s) 
Heartbeat CPU  0 instr:  139000000 cyc:  171495796 curr IPC: 0.42121 AVG IPC: 0.80375 (Sim:0h7m11s) 
Heartbeat CPU  0 instr:  140000000 cyc:  173887426 curr IPC: 0.41812 AVG IPC: 0.79842 (Sim:0h7m15s) 
Heartbeat CPU  0 instr:  141000002 cyc:  176148602 curr IPC: 0.44225 AVG IPC: 0.79382 (Sim:0h7m19s) 
Heartbeat CPU  0 instr:  142000001 cyc:  178372072 curr IPC: 0.44975 AVG IPC: 0.78950 (Sim:0h7m24s) 
Heartbeat CPU  0 instr:  143000000 cyc:  180607581 curr IPC: 0.44732 AVG IPC: 0.78524 (Sim:0h7m28s) 
Heartbeat CPU  0 instr:  144000000 cyc:  182934526 curr IPC: 0.42975 AVG IPC: 0.78070 (Sim:0h7m32s) 
Heartbeat CPU  0 instr:  145000000 cyc:  185202159 curr IPC: 0.44099 AVG IPC: 0.77651 (Sim:0h7m36s) 
Heartbeat CPU  0 instr:  146000003 cyc:  187479994 curr IPC: 0.43901 AVG IPC: 0.77239 (Sim:0h7m39s) 
Heartbeat CPU  0 instr:  147000002 cyc:  189713057 curr IPC: 0.44781 AVG IPC: 0.76855 (Sim:0h7m43s) 
Heartbeat CPU  0 instr:  148000000 cyc:  191949830 curr IPC: 0.44707 AVG IPC: 0.76478 (Sim:0h7m47s) 
Heartbeat CPU  0 instr:  149000003 cyc:  194170257 curr IPC: 0.45037 AVG IPC: 0.76117 (Sim:0h7m51s) 
Heartbeat CPU  0 instr:  150000001 cyc:  196383070 curr IPC: 0.45191 AVG IPC: 0.75766 (Sim:0h7m56s) 
Heartbeat CPU  0 instr:  151000000 cyc:  198768787 curr IPC: 0.41916 AVG IPC: 0.75358 (Sim:0h8m0s) 
Heartbeat CPU  0 instr:  152000000 cyc:  201171006 curr IPC: 0.41628 AVG IPC: 0.74953 (Sim:0h8m4s) 
Heartbeat CPU  0 instr:  153000002 cyc:  203502792 curr IPC: 0.42886 AVG IPC: 0.74584 (Sim:0h8m8s) 
Heartbeat CPU  0 instr:  154000003 cyc:  205786421 curr IPC: 0.43790 AVG IPC: 0.74240 (Sim:0h8m12s) 
Heartbeat CPU  0 instr:  155000000 cyc:  208024640 curr IPC: 0.44678 AVG IPC: 0.73920 (Sim:0h8m16s) 
Heartbeat CPU  0 instr:  156000000 cyc:  210277851 curr IPC: 0.44381 AVG IPC: 0.73602 (Sim:0h8m19s) 
Heartbeat CPU  0 instr:  157000000 cyc:  212523824 curr IPC: 0.44524 AVG IPC: 0.73294 (Sim:0h8m23s) 
Heartbeat CPU  0 instr:  158000001 cyc:  214739940 curr IPC: 0.45124 AVG IPC: 0.73001 (Sim:0h8m27s) 
Heartbeat CPU  0 instr:  159000002 cyc:  216997654 curr IPC: 0.44293 AVG IPC: 0.72701 (Sim:0h8m31s) 
Heartbeat CPU  0 instr:  160000000 cyc:  219306481 curr IPC: 0.43312 AVG IPC: 0.72390 (Sim:0h8m35s) 
Heartbeat CPU  0 instr:  161000001 cyc:  221562416 curr IPC: 0.44328 AVG IPC: 0.72103 (Sim:0h8m39s) 
Heartbeat CPU  0 instr:  162000000 cyc:  223806145 curr IPC: 0.44569 AVG IPC: 0.71826 (Sim:0h8m43s) 
Heartbeat CPU  0 instr:  163000001 cyc:  226086013 curr IPC: 0.43862 AVG IPC: 0.71543 (Sim:0h8m47s) 
Heartbeat CPU  0 instr:  164000000 cyc:  228338915 curr IPC: 0.44387 AVG IPC: 0.71273 (Sim:0h8m51s) 
Heartbeat CPU  0 instr:  165000000 cyc:  230593265 curr IPC: 0.44359 AVG IPC: 0.71009 (Sim:0h8m56s) 
Heartbeat CPU  0 instr:  166000002 cyc:  232925553 curr IPC: 0.42876 AVG IPC: 0.70726 (Sim:0h8m59s) 
Heartbeat CPU  0 instr:  167000000 cyc:  235225785 curr IPC: 0.43474 AVG IPC: 0.70459 (Sim:0h9m3s) 
Heartbeat CPU  0 instr:  168000000 cyc:  237460744 curr IPC: 0.44744 AVG IPC: 0.70215 (Sim:0h9m7s) 
Heartbeat CPU  0 instr:  169000000 cyc:  239759066 curr IPC: 0.43510 AVG IPC: 0.69958 (Sim:0h9m11s) 
Heartbeat CPU  0 instr:  170000000 cyc:  242035679 curr IPC: 0.43925 AVG IPC: 0.69712 (Sim:0h9m15s) 
Heartbeat CPU  0 instr:  171000000 cyc:  244329149 curr IPC: 0.43602 AVG IPC: 0.69466 (Sim:0h9m18s) 
Heartbeat CPU  0 instr:  172000000 cyc:  246620040 curr IPC: 0.43651 AVG IPC: 0.69225 (Sim:0h9m23s) 
Heartbeat CPU  0 instr:  173000001 cyc:  248882381 curr IPC: 0.44202 AVG IPC: 0.68997 (Sim:0h9m26s) 
Heartbeat CPU  0 instr:  174000000 cyc:  251153685 curr IPC: 0.44028 AVG IPC: 0.68770 (Sim:0h9m30s) 
Heartbeat CPU  0 instr:  175000003 cyc:  253428469 curr IPC: 0.43960 AVG IPC: 0.68547 (Sim:0h9m35s) 
Heartbeat CPU  0 instr:  176000000 cyc:  255646627 curr IPC: 0.45082 AVG IPC: 0.68342 (Sim:0h9m39s) 
Heartbeat CPU  0 instr:  177000000 cyc:  257881511 curr IPC: 0.44745 AVG IPC: 0.68137 (Sim:0h9m44s) 
Heartbeat CPU  0 instr:  178000000 cyc:  260206952 curr IPC: 0.43003 AVG IPC: 0.67911 (Sim:0h9m49s) 
Heartbeat CPU  0 instr:  179000003 cyc:  262516950 curr IPC: 0.43290 AVG IPC: 0.67694 (Sim:0h9m54s) 
Heartbeat CPU  0 instr:  180000000 cyc:  264826843 curr IPC: 0.43292 AVG IPC: 0.67480 (Sim:0h9m58s) 
Heartbeat CPU  0 instr:  181000002 cyc:  267176345 curr IPC: 0.42562 AVG IPC: 0.67260 (Sim:0h10m3s) 
Heartbeat CPU  0 instr:  182000001 cyc:  269430709 curr IPC: 0.44358 AVG IPC: 0.67068 (Sim:0h10m8s) 
Heartbeat CPU  0 instr:  183000000 cyc:  271698757 curr IPC: 0.44091 AVG IPC: 0.66875 (Sim:0h10m13s) 
Heartbeat CPU  0 instr:  184000000 cyc:  273924782 curr IPC: 0.44923 AVG IPC: 0.66696 (Sim:0h10m18s) 
Heartbeat CPU  0 instr:  185000002 cyc:  276175636 curr IPC: 0.44428 AVG IPC: 0.66514 (Sim:0h10m22s) 
Heartbeat CPU  0 instr:  186000000 cyc:  278391917 curr IPC: 0.45121 AVG IPC: 0.66343 (Sim:0h10m26s) 
Heartbeat CPU  0 instr:  187000000 cyc:  280641089 curr IPC: 0.44461 AVG IPC: 0.66167 (Sim:0h10m29s) 
Heartbeat CPU  0 instr:  188000000 cyc:  282874931 curr IPC: 0.44766 AVG IPC: 0.65997 (Sim:0h10m33s) 
Heartbeat CPU  0 instr:  189000000 cyc:  285175465 curr IPC: 0.43468 AVG IPC: 0.65815 (Sim:0h10m37s) 
Heartbeat CPU  0 instr:  190000001 cyc:  287387064 curr IPC: 0.45216 AVG IPC: 0.65656 (Sim:0h10m41s) 
Heartbeat CPU  0 instr:  191000002 cyc:  289648982 curr IPC: 0.44210 AVG IPC: 0.65488 (Sim:0h10m45s) 
Heartbeat CPU  0 instr:  192000000 cyc:  291870246 curr IPC: 0.45019 AVG IPC: 0.65331 (Sim:0h10m49s) 
Heartbeat CPU  0 instr:  193000000 cyc:  294091663 curr IPC: 0.45016 AVG IPC: 0.65177 (Sim:0h10m53s) 
Heartbeat CPU  0 instr:  194000002 cyc:  296319151 curr IPC: 0.44894 AVG IPC: 0.65024 (Sim:0h10m57s) 
Heartbeat CPU  0 instr:  195000003 cyc:  298694036 curr IPC: 0.42107 AVG IPC: 0.64842 (Sim:0h11m1s) 
Heartbeat CPU  0 instr:  196000000 cyc:  301019344 curr IPC: 0.43005 AVG IPC: 0.64672 (Sim:0h11m5s) 
Heartbeat CPU  0 instr:  197000000 cyc:  303272254 curr IPC: 0.44387 AVG IPC: 0.64521 (Sim:0h11m9s) 
Heartbeat CPU  0 instr:  198000000 cyc:  305519242 curr IPC: 0.44504 AVG IPC: 0.64373 (Sim:0h11m13s) 
Heartbeat CPU  0 instr:  199000002 cyc:  307744937 curr IPC: 0.44930 AVG IPC: 0.64232 (Sim:0h11m17s) 
Heartbeat CPU  0 instr:  200000000 cyc:  309963715 curr IPC: 0.45070 AVG IPC: 0.64095 (Sim:0h11m20s) 
Heartbeat CPU  0 instr:  201000003 cyc:  311555916 curr IPC: 0.62806 AVG IPC: 0.64088 (Sim:0h11m24s) 
Heartbeat CPU  0 instr:  202000000 cyc:  312157555 curr IPC: 1.66212 AVG IPC: 0.64286 (Sim:0h11m25s) 
Heartbeat CPU  0 instr:  203000000 cyc:  312967446 curr IPC: 1.23473 AVG IPC: 0.64439 (Sim:0h11m27s) 
Heartbeat CPU  0 instr:  204000000 cyc:  313736999 curr IPC: 1.29946 AVG IPC: 0.64600 (Sim:0h11m29s) 
Heartbeat CPU  0 instr:  205000000 cyc:  314461845 curr IPC: 1.37960 AVG IPC: 0.64770 (Sim:0h11m32s) 
Heartbeat CPU  0 instr:  206000000 cyc:  315111213 curr IPC: 1.53996 AVG IPC: 0.64955 (Sim:0h11m34s) 
Heartbeat CPU  0 instr:  207000001 cyc:  315802281 curr IPC: 1.44704 AVG IPC: 0.65130 (Sim:0h11m37s) 
Heartbeat CPU  0 instr:  208000000 cyc:  316573046 curr IPC: 1.29741 AVG IPC: 0.65287 (Sim:0h11m39s) 
Heartbeat CPU  0 instr:  209000002 cyc:  317291028 curr IPC: 1.39280 AVG IPC: 0.65455 (Sim:0h11m41s) 
Heartbeat CPU  0 instr:  210000003 cyc:  318010558 curr IPC: 1.38980 AVG IPC: 0.65622 (Sim:0h11m44s) 
Heartbeat CPU  0 instr:  211000000 cyc:  318671769 curr IPC: 1.51237 AVG IPC: 0.65801 (Sim:0h11m46s) 
Heartbeat CPU  0 instr:  212000000 cyc:  319442409 curr IPC: 1.29762 AVG IPC: 0.65955 (Sim:0h11m48s) 
Heartbeat CPU  0 instr:  213000000 cyc:  320479600 curr IPC: 0.96414 AVG IPC: 0.66054 (Sim:0h11m51s) 
Heartbeat CPU  0 instr:  214000002 cyc:  321405900 curr IPC: 1.07957 AVG IPC: 0.66175 (Sim:0h11m54s) 
Heartbeat CPU  0 instr:  215000002 cyc:  322300276 curr IPC: 1.11810 AVG IPC: 0.66303 (Sim:0h11m57s) 
Heartbeat CPU  0 instr:  216000000 cyc:  323366147 curr IPC: 0.93820 AVG IPC: 0.66394 (Sim:0h12m0s) 
Heartbeat CPU  0 instr:  217000003 cyc:  324311697 curr IPC: 1.05759 AVG IPC: 0.66509 (Sim:0h12m3s) 
Heartbeat CPU  0 instr:  218000002 cyc:  325229623 curr IPC: 1.08941 AVG IPC: 0.66629 (Sim:0h12m6s) 
Heartbeat CPU  0 instr:  219000000 cyc:  326174794 curr IPC: 1.05801 AVG IPC: 0.66743 (Sim:0h12m9s) 
Heartbeat CPU  0 instr:  220000000 cyc:  327198258 curr IPC: 0.97707 AVG IPC: 0.66840 (Sim:0h12m12s) 
Heartbeat CPU  0 instr:  221000003 cyc:  328120490 curr IPC: 1.08433 AVG IPC: 0.66957 (Sim:0h12m15s) 
Heartbeat CPU  0 instr:  222000002 cyc:  329109268 curr IPC: 1.01135 AVG IPC: 0.67060 (Sim:0h12m18s) 
Heartbeat CPU  0 instr:  223000000 cyc:  330275060 curr IPC: 0.85778 AVG IPC: 0.67126 (Sim:0h12m22s) 
Heartbeat CPU  0 instr:  224000000 cyc:  331334702 curr IPC: 0.94371 AVG IPC: 0.67214 (Sim:0h12m26s) 
Heartbeat CPU  0 instr:  225000002 cyc:  332294141 curr IPC: 1.04228 AVG IPC: 0.67321 (Sim:0h12m28s) 
Heartbeat CPU  0 instr:  226000000 cyc:  333226077 curr IPC: 1.07303 AVG IPC: 0.67433 (Sim:0h12m31s) 
Heartbeat CPU  0 instr:  227000000 cyc:  334141406 curr IPC: 1.09250 AVG IPC: 0.67548 (Sim:0h12m34s) 
Heartbeat CPU  0 instr:  228000000 cyc:  335199406 curr IPC: 0.94518 AVG IPC: 0.67633 (Sim:0h12m37s) 
Heartbeat CPU  0 instr:  229000001 cyc:  336117251 curr IPC: 1.08951 AVG IPC: 0.67747 (Sim:0h12m40s) 
Heartbeat CPU  0 instr:  230000000 cyc:  337007712 curr IPC: 1.12301 AVG IPC: 0.67865 (Sim:0h12m44s) 
Heartbeat CPU  0 instr:  231000001 cyc:  337980416 curr IPC: 1.02806 AVG IPC: 0.67966 (Sim:0h12m47s) 
Heartbeat CPU  0 instr:  232000000 cyc:  338991137 curr IPC: 0.98939 AVG IPC: 0.68058 (Sim:0h12m50s) 
Heartbeat CPU  0 instr:  233000003 cyc:  339917416 curr IPC: 1.07959 AVG IPC: 0.68167 (Sim:0h12m53s) 
Heartbeat CPU  0 instr:  234000001 cyc:  340813626 curr IPC: 1.11581 AVG IPC: 0.68282 (Sim:0h12m56s) 
Heartbeat CPU  0 instr:  235000003 cyc:  341878429 curr IPC: 0.93914 AVG IPC: 0.68362 (Sim:0h12m59s) 
Heartbeat CPU  0 instr:  236000000 cyc:  342811660 curr IPC: 1.07154 AVG IPC: 0.68468 (Sim:0h13m2s) 
Heartbeat CPU  0 instr:  237000000 cyc:  343758313 curr IPC: 1.05635 AVG IPC: 0.68571 (Sim:0h13m5s) 
Heartbeat CPU  0 instr:  238000001 cyc:  344674732 curr IPC: 1.09121 AVG IPC: 0.68679 (Sim:0h13m8s) 
Heartbeat CPU  0 instr:  239000003 cyc:  345646667 curr IPC: 1.02888 AVG IPC: 0.68775 (Sim:0h13m11s) 
Heartbeat CPU  0 instr:  240000000 cyc:  346820601 curr IPC: 0.85183 AVG IPC: 0.68831 (Sim:0h13m14s) 
Heartbeat CPU  0 instr:  241000000 cyc:  347699462 curr IPC: 1.13784 AVG IPC: 0.68945 (Sim:0h13m17s) 
Heartbeat CPU  0 instr:  242000002 cyc:  348564899 curr IPC: 1.15549 AVG IPC: 0.69061 (Sim:0h13m20s) 
Heartbeat CPU  0 instr:  243000003 cyc:  349465921 curr IPC: 1.10985 AVG IPC: 0.69169 (Sim:0h13m24s) 
Heartbeat CPU  0 instr:  244000000 cyc:  350510487 curr IPC: 0.95733 AVG IPC: 0.69249 (Sim:0h13m27s) 
Heartbeat CPU  0 instr:  245000000 cyc:  351387521 curr IPC: 1.14021 AVG IPC: 0.69361 (Sim:0h13m30s) 
Heartbeat CPU  0 instr:  246000003 cyc:  352252805 curr IPC: 1.15569 AVG IPC: 0.69475 (Sim:0h13m33s) 
Heartbeat CPU  0 instr:  247000001 cyc:  353232092 curr IPC: 1.02115 AVG IPC: 0.69565 (Sim:0h13m36s) 
Heartbeat CPU  0 instr:  248000000 cyc:  354126417 curr IPC: 1.11816 AVG IPC: 0.69672 (Sim:0h13m39s) 
Heartbeat CPU  0 instr:  249000001 cyc:  354991379 curr IPC: 1.15612 AVG IPC: 0.69785 (Sim:0h13m42s) 
Heartbeat CPU  0 instr:  250000002 cyc:  355876251 curr IPC: 1.13011 AVG IPC: 0.69892 (Sim:0h13m45s) 
Heartbeat CPU  0 instr:  251000000 cyc:  356827129 curr IPC: 1.05166 AVG IPC: 0.69987 (Sim:0h13m49s) 
Heartbeat CPU  0 instr:  252000000 cyc:  357700361 curr IPC: 1.14517 AVG IPC: 0.70096 (Sim:0h13m52s) 
Heartbeat CPU  0 instr:  253000001 cyc:  358608574 curr IPC: 1.10106 AVG IPC: 0.70197 (Sim:0h13m55s) 
Heartbeat CPU  0 instr:  254000000 cyc:  359519926 curr IPC: 1.09727 AVG IPC: 0.70298 (Sim:0h13m58s) 
Heartbeat CPU  0 instr:  255000002 cyc:  360517544 curr IPC: 1.00239 AVG IPC: 0.70381 (Sim:0h14m2s) 
Heartbeat CPU  0 instr:  256000000 cyc:  361572788 curr IPC: 0.94765 AVG IPC: 0.70452 (Sim:0h14m5s) 
Heartbeat CPU  0 instr:  257000002 cyc:  362587138 curr IPC: 0.98585 AVG IPC: 0.70531 (Sim:0h14m8s) 
Heartbeat CPU  0 instr:  258000001 cyc:  363485774 curr IPC: 1.11280 AVG IPC: 0.70632 (Sim:0h14m11s) 
Heartbeat CPU  0 instr:  259000000 cyc:  364480274 curr IPC: 1.00553 AVG IPC: 0.70714 (Sim:0h14m14s) 
Heartbeat CPU  0 instr:  260000000 cyc:  365472243 curr IPC: 1.00810 AVG IPC: 0.70796 (Sim:0h14m17s) 
Heartbeat CPU  0 instr:  261000003 cyc:  366382860 curr IPC: 1.09816 AVG IPC: 0.70893 (Sim:0h14m20s) 
Heartbeat CPU  0 instr:  262000003 cyc:  367286441 curr IPC: 1.10671 AVG IPC: 0.70992 (Sim:0h14m24s) 
Heartbeat CPU  0 instr:  263000003 cyc:  368365744 curr IPC: 0.92652 AVG IPC: 0.71055 (Sim:0h14m27s) 
Heartbeat CPU  0 instr:  264000000 cyc:  369298741 curr IPC: 1.07181 AVG IPC: 0.71147 (Sim:0h14m29s) 
Heartbeat CPU  0 instr:  265000001 cyc:  370241211 curr IPC: 1.06104 AVG IPC: 0.71236 (Sim:0h14m32s) 
Heartbeat CPU  0 instr:  266000003 cyc:  371244414 curr IPC: 0.99681 AVG IPC: 0.71313 (Sim:0h14m35s) 
Heartbeat CPU  0 instr:  267000000 cyc:  372226071 curr IPC: 1.01868 AVG IPC: 0.71394 (Sim:0h14m38s) 
Heartbeat CPU  0 instr:  268000000 cyc:  373143469 curr IPC: 1.09004 AVG IPC: 0.71487 (Sim:0h14m41s) 
Heartbeat CPU  0 instr:  269000003 cyc:  374043422 curr IPC: 1.11117 AVG IPC: 0.71582 (Sim:0h14m44s) 
Heartbeat CPU  0 instr:  270000001 cyc:  375073125 curr IPC: 0.97115 AVG IPC: 0.71652 (Sim:0h14m47s) 
Heartbeat CPU  0 instr:  271000000 cyc:  376059249 curr IPC: 1.01407 AVG IPC: 0.71731 (Sim:0h14m50s) 
Heartbeat CPU  0 instr:  272000000 cyc:  377063876 curr IPC: 0.99539 AVG IPC: 0.71805 (Sim:0h14m53s) 
Heartbeat CPU  0 instr:  273000002 cyc:  378065978 curr IPC: 0.99790 AVG IPC: 0.71879 (Sim:0h14m57s) 
Heartbeat CPU  0 instr:  274000000 cyc:  379022296 curr IPC: 1.04568 AVG IPC: 0.71962 (Sim:0h15m0s) 
Heartbeat CPU  0 instr:  275000000 cyc:  379959680 curr IPC: 1.06680 AVG IPC: 0.72048 (Sim:0h15m3s) 
Heartbeat CPU  0 instr:  276000000 cyc:  380915636 curr IPC: 1.04607 AVG IPC: 0.72130 (Sim:0h15m6s) 
Heartbeat CPU  0 instr:  277000000 cyc:  381841306 curr IPC: 1.08030 AVG IPC: 0.72217 (Sim:0h15m9s) 
Heartbeat CPU  0 instr:  278000001 cyc:  382882367 curr IPC: 0.96056 AVG IPC: 0.72282 (Sim:0h15m12s) 
Heartbeat CPU  0 instr:  279000000 cyc:  383881354 curr IPC: 1.00101 AVG IPC: 0.72355 (Sim:0h15m15s) 
Heartbeat CPU  0 instr:  280000000 cyc:  384786471 curr IPC: 1.10483 AVG IPC: 0.72445 (Sim:0h15m18s) 
Heartbeat CPU  0 instr:  281000001 cyc:  385731347 curr IPC: 1.05834 AVG IPC: 0.72527 (Sim:0h15m21s) 
Heartbeat CPU  0 instr:  282000002 cyc:  386664877 curr IPC: 1.07120 AVG IPC: 0.72610 (Sim:0h15m24s) 
Heartbeat CPU  0 instr:  283000001 cyc:  387668567 curr IPC: 0.99632 AVG IPC: 0.72681 (Sim:0h15m27s) 
Heartbeat CPU  0 instr:  284000000 cyc:  388569752 curr IPC: 1.10965 AVG IPC: 0.72770 (Sim:0h15m30s) 
Heartbeat CPU  0 instr:  285000002 cyc:  389525020 curr IPC: 1.04683 AVG IPC: 0.72848 (Sim:0h15m33s) 
Heartbeat CPU  0 instr:  286000002 cyc:  390469189 curr IPC: 1.05913 AVG IPC: 0.72928 (Sim:0h15m36s) 
Heartbeat CPU  0 instr:  287000000 cyc:  391396239 curr IPC: 1.07869 AVG IPC: 0.73011 (Sim:0h15m40s) 
Heartbeat CPU  0 instr:  288000000 cyc:  392320500 curr IPC: 1.08195 AVG IPC: 0.73094 (Sim:0h15m43s) 
Heartbeat CPU  0 instr:  289000000 cyc:  393297694 curr IPC: 1.02334 AVG IPC: 0.73167 (Sim:0h15m46s) 
Heartbeat CPU  0 instr:  290000003 cyc:  394353609 curr IPC: 0.94705 AVG IPC: 0.73225 (Sim:0h15m49s) 
Heartbeat CPU  0 instr:  291000003 cyc:  395369466 curr IPC: 0.98439 AVG IPC: 0.73290 (Sim:0h15m52s) 
Heartbeat CPU  0 instr:  292000000 cyc:  396327298 curr IPC: 1.04402 AVG IPC: 0.73365 (Sim:0h15m54s) 
Heartbeat CPU  0 instr:  293000002 cyc:  397267243 curr IPC: 1.06389 AVG IPC: 0.73444 (Sim:0h15m57s) 
Heartbeat CPU  0 instr:  294000001 cyc:  398190591 curr IPC: 1.08301 AVG IPC: 0.73525 (Sim:0h16m0s) 
Heartbeat CPU  0 instr:  295000001 cyc:  399214292 curr IPC: 0.97685 AVG IPC: 0.73587 (Sim:0h16m4s) 
Heartbeat CPU  0 instr:  296000000 cyc:  400130930 curr IPC: 1.09094 AVG IPC: 0.73668 (Sim:0h16m7s) 
Heartbeat CPU  0 instr:  297000000 cyc:  400950250 curr IPC: 1.22052 AVG IPC: 0.73768 (Sim:0h16m10s) 
Heartbeat CPU  0 instr:  298000002 cyc:  401820184 curr IPC: 1.14951 AVG IPC: 0.73857 (Sim:0h16m13s) 
Heartbeat CPU  0 instr:  299000003 cyc:  402693471 curr IPC: 1.14510 AVG IPC: 0.73945 (Sim:0h16m16s) 
Heartbeat CPU  0 instr:  300000000 cyc:  403509168 curr IPC: 1.22594 AVG IPC: 0.74044 (Sim:0h16m19s) 
Heartbeat CPU  0 instr:  301000000 cyc:  404458486 curr IPC: 1.05339 AVG IPC: 0.74118 (Sim:0h16m22s) 
Heartbeat CPU  0 instr:  302000001 cyc:  405295949 curr IPC: 1.19408 AVG IPC: 0.74211 (Sim:0h16m25s) 
Heartbeat CPU  0 instr:  303000002 cyc:  406041608 curr IPC: 1.34110 AVG IPC: 0.74322 (Sim:0h16m27s) 
Heartbeat CPU  0 instr:  304000000 cyc:  406766435 curr IPC: 1.37964 AVG IPC: 0.74435 (Sim:0h16m30s) 
Heartbeat CPU  0 instr:  305000002 cyc:  407599381 curr IPC: 1.20056 AVG IPC: 0.74529 (Sim:0h16m33s) 
Heartbeat CPU  0 instr:  306000003 cyc:  408482820 curr IPC: 1.13194 AVG IPC: 0.74613 (Sim:0h16m36s) 
Heartbeat CPU  0 instr:  307000003 cyc:  409300756 curr IPC: 1.22259 AVG IPC: 0.74708 (Sim:0h16m39s) 
Heartbeat CPU  0 instr:  308000000 cyc:  410125796 curr IPC: 1.21206 AVG IPC: 0.74802 (Sim:0h16m41s) 
Heartbeat CPU  0 instr:  309000000 cyc:  410872820 curr IPC: 1.33865 AVG IPC: 0.74910 (Sim:0h16m44s) 
Heartbeat CPU  0 instr:  310000000 cyc:  411586361 curr IPC: 1.40146 AVG IPC: 0.75023 (Sim:0h16m46s) 
Heartbeat CPU  0 instr:  311000003 cyc:  412362170 curr IPC: 1.28898 AVG IPC: 0.75125 (Sim:0h16m48s) 
Heartbeat CPU  0 instr:  312000000 cyc:  413160497 curr IPC: 1.25262 AVG IPC: 0.75222 (Sim:0h16m51s) 
Heartbeat CPU  0 instr:  313000001 cyc:  413917033 curr IPC: 1.32182 AVG IPC: 0.75326 (Sim:0h16m53s) 
Heartbeat CPU  0 instr:  314000001 cyc:  414832990 curr IPC: 1.09175 AVG IPC: 0.75401 (Sim:0h16m55s) 
Heartbeat CPU  0 instr:  315000003 cyc:  415717319 curr IPC: 1.13080 AVG IPC: 0.75481 (Sim:0h16m58s) 
Heartbeat CPU  0 instr:  316000000 cyc:  416588385 curr IPC: 1.14802 AVG IPC: 0.75564 (Sim:0h17m0s) 
Heartbeat CPU  0 instr:  317000001 cyc:  417609387 curr IPC: 0.97943 AVG IPC: 0.75619 (Sim:0h17m3s) 
Heartbeat CPU  0 instr:  318000000 cyc:  418509965 curr IPC: 1.11040 AVG IPC: 0.75695 (Sim:0h17m5s) 
Heartbeat CPU  0 instr:  319000000 cyc:  419372873 curr IPC: 1.15887 AVG IPC: 0.75778 (Sim:0h17m7s) 
Heartbeat CPU  0 instr:  320000000 cyc:  420292913 curr IPC: 1.08691 AVG IPC: 0.75850 (Sim:0h17m9s) 
Heartbeat CPU  0 instr:  321000003 cyc:  421298784 curr IPC: 0.99417 AVG IPC: 0.75907 (Sim:0h17m11s) 
Heartbeat CPU  0 instr:  322000003 cyc:  422296922 curr IPC: 1.00187 AVG IPC: 0.75964 (Sim:0h17m14s) 
Heartbeat CPU  0 instr:  323000001 cyc:  423367033 curr IPC: 0.93448 AVG IPC: 0.76008 (Sim:0h17m16s) 
Heartbeat CPU  0 instr:  324000000 cyc:  424316385 curr IPC: 1.05335 AVG IPC: 0.76074 (Sim:0h17m19s) 
Heartbeat CPU  0 instr:  325000000 cyc:  425349912 curr IPC: 0.96756 AVG IPC: 0.76125 (Sim:0h17m21s) 
Heartbeat CPU  0 instr:  326000002 cyc:  426365833 curr IPC: 0.98433 AVG IPC: 0.76178 (Sim:0h17m24s) 
Heartbeat CPU  0 instr:  327000002 cyc:  427282495 curr IPC: 1.09091 AVG IPC: 0.76249 (Sim:0h17m26s) 
Heartbeat CPU  0 instr:  328000000 cyc:  428240768 curr IPC: 1.04354 AVG IPC: 0.76312 (Sim:0h17m29s) 
Heartbeat CPU  0 instr:  329000001 cyc:  429238203 curr IPC: 1.00257 AVG IPC: 0.76367 (Sim:0h17m31s) 
Heartbeat CPU  0 instr:  330000003 cyc:  430209579 curr IPC: 1.02947 AVG IPC: 0.76428 (Sim:0h17m34s) 
Heartbeat CPU  0 instr:  331000001 cyc:  431133877 curr IPC: 1.08190 AVG IPC: 0.76496 (Sim:0h17m36s) 
Heartbeat CPU  0 instr:  332000000 cyc:  432076478 curr IPC: 1.06089 AVG IPC: 0.76561 (Sim:0h17m38s) 
Heartbeat CPU  0 instr:  333000002 cyc:  433133667 curr IPC: 0.94591 AVG IPC: 0.76605 (Sim:0h17m40s) 
Heartbeat CPU  0 instr:  334000002 cyc:  434049101 curr IPC: 1.09238 AVG IPC: 0.76674 (Sim:0h17m43s) 
Heartbeat CPU  0 instr:  335000002 cyc:  434985347 curr IPC: 1.06810 AVG IPC: 0.76739 (Sim:0h17m45s) 
Heartbeat CPU  0 instr:  336000000 cyc:  435946512 curr IPC: 1.04040 AVG IPC: 0.76799 (Sim:0h17m47s) 
Heartbeat CPU  0 instr:  337000001 cyc:  436923525 curr IPC: 1.02353 AVG IPC: 0.76856 (Sim:0h17m50s) 
Heartbeat CPU  0 instr:  338000001 cyc:  437859575 curr IPC: 1.06832 AVG IPC: 0.76921 (Sim:0h17m52s) 
Heartbeat CPU  0 instr:  339000000 cyc:  438602490 curr IPC: 1.34605 AVG IPC: 0.77019 (Sim:0h17m55s) 
Heartbeat CPU  0 instr:  340000000 cyc:  439072618 curr IPC: 2.12708 AVG IPC: 0.77164 (Sim:0h17m56s) 
Heartbeat CPU  0 instr:  341000000 cyc:  439483411 curr IPC: 2.43432 AVG IPC: 0.77320 (Sim:0h17m57s) 
Heartbeat CPU  0 instr:  342000000 cyc:  440143098 curr IPC: 1.51587 AVG IPC: 0.77432 (Sim:0h17m58s) 
Heartbeat CPU  0 instr:  343000001 cyc:  440989272 curr IPC: 1.18179 AVG IPC: 0.77510 (Sim:0h18m0s) 
Heartbeat CPU  0 instr:  344000000 cyc:  441753367 curr IPC: 1.30874 AVG IPC: 0.77602 (Sim:0h18m2s) 
Heartbeat CPU  0 instr:  345000002 cyc:  442548912 curr IPC: 1.25700 AVG IPC: 0.77689 (Sim:0h18m4s) 
Heartbeat CPU  0 instr:  346000001 cyc:  443333181 curr IPC: 1.27507 AVG IPC: 0.77777 (Sim:0h18m6s) 
Heartbeat CPU  0 instr:  347000002 cyc:  444122610 curr IPC: 1.26674 AVG IPC: 0.77865 (Sim:0h18m7s) 
Heartbeat CPU  0 instr:  348000000 cyc:  444921192 curr IPC: 1.25222 AVG IPC: 0.77950 (Sim:0h18m9s) 
Heartbeat CPU  0 instr:  349000000 cyc:  445723219 curr IPC: 1.24684 AVG IPC: 0.78034 (Sim:0h18m11s) 
Heartbeat CPU  0 instr:  350000000 cyc:  446527902 curr IPC: 1.24273 AVG IPC: 0.78118 (Sim:0h18m13s) 
Heartbeat CPU  0 instr:  351000003 cyc:  447322142 curr IPC: 1.25907 AVG IPC: 0.78203 (Sim:0h18m14s) 
Heartbeat CPU  0 instr:  352000000 cyc:  448122312 curr IPC: 1.24973 AVG IPC: 0.78286 (Sim:0h18m16s) 
Finished CPU 0 instr: 350000002 cyc: 447076874 AVG IPC: 0.78286 (Sim time: 0h18m16s

ChampSim completed all CPUs

[ROI Statistics]
Core_0_instructions 350000002
Core_0_cycles 447076874
Core_0_IPC 0.78286

Core_0_branch_prediction_accuracy 98.12358
Core_0_branch_MPKI 0.51152
Core_0_average_ROB_occupancy_at_mispredict 208.65341

Core_0_L1D_total_access 158316816
Core_0_L1D_total_hit 133522734 L1D_total_Hit Ratio: 0.84339
Core_0_L1D_total_miss 24794082
Core_0_L1D_loads 85015325
Core_0_L1D_load_hit 71356245 L1D_load_Hit Ratio: 0.83933
Core_0_L1D_load_miss 13659080
Core_0_L1D_RFOs 6490239
Core_0_L1D_RFO_hit 5368289 L1D_RFO_Hit Ratio: 0.82713
Core_0_L1D_RFO_miss 1121950
Core_0_L1D_prefetches 66811252
Core_0_L1D_prefetch_hit 56798200 L1D_prefetch_Hit Ratio: 0.85013
Core_0_L1D_prefetch_miss 10013052
Core_0_L1D_writebacks 0
Core_0_L1D_writeback_hit 0 L1D_writeback_Hit Ratio: -nan
Core_0_L1D_writeback_miss 0
Core_0_L1D_prefetch_requested 161687529
Core_0_L1D_prefetch_issued 74416599
Core_0_L1D_prefetch_useful 7001145 L1D_Total_Hit Ratio: 0.09408
Core_0_L1D_prefetch_useless 3075746
Core_0_L1D_prefetch_late 570234
Core_0_L1D_average_miss_latency 3067670.53397

Core_0_L1I_total_access 111872329
Core_0_L1I_total_hit 111862916 L1I_total_Hit Ratio: 0.99992
Core_0_L1I_total_miss 9413
Core_0_L1I_loads 111872329
Core_0_L1I_load_hit 111862916 L1I_load_Hit Ratio: 0.99992
Core_0_L1I_load_miss 9413
Core_0_L1I_RFOs 0
Core_0_L1I_RFO_hit 0 L1I_RFO_Hit Ratio: -nan
Core_0_L1I_RFO_miss 0
Core_0_L1I_prefetches 0
Core_0_L1I_prefetch_hit 0 L1I_prefetch_Hit Ratio: -nan
Core_0_L1I_prefetch_miss 0
Core_0_L1I_writebacks 0
Core_0_L1I_writeback_hit 0 L1I_writeback_Hit Ratio: -nan
Core_0_L1I_writeback_miss 0
Core_0_L1I_prefetch_requested 0
Core_0_L1I_prefetch_issued 0
Core_0_L1I_prefetch_useful 0 L1I_Total_Hit Ratio: -nan
Core_0_L1I_prefetch_useless 0
Core_0_L1I_prefetch_late 0
Core_0_L1I_average_miss_latency 180.60725

Core_0_L2C_total_access 48528009
Core_0_L2C_total_hit 41239178 L2C_total_Hit Ratio: 0.84980
Core_0_L2C_total_miss 7288831
Core_0_L2C_loads 13098572
Core_0_L2C_load_hit 11392637 L2C_load_Hit Ratio: 0.86976
Core_0_L2C_load_miss 1705935
Core_0_L2C_RFOs 1119453
Core_0_L2C_RFO_hit 553118 L2C_RFO_Hit Ratio: 0.49410
Core_0_L2C_RFO_miss 566335
Core_0_L2C_prefetches 32152245
Core_0_L2C_prefetch_hit 27135717 L2C_prefetch_Hit Ratio: 0.84398
Core_0_L2C_prefetch_miss 5016528
Core_0_L2C_writebacks 2157739
Core_0_L2C_writeback_hit 2157706 L2C_writeback_Hit Ratio: 0.99998
Core_0_L2C_writeback_miss 33
Core_0_L2C_prefetch_requested 44554000
Core_0_L2C_prefetch_issued 43392263
Core_0_L2C_prefetch_useful 1716364 L2C_Total_Hit Ratio: 0.03955
Core_0_L2C_prefetch_useless 3303745
Core_0_L2C_prefetch_late 24060
Core_0_L2C_average_miss_latency 212.85410

Core_0_LLC_total_access 8994344
Core_0_LLC_total_hit 4872640 LLC_total_Hit Ratio: 0.54174
Core_0_LLC_total_miss 4121704
Core_0_LLC_loads 1682053
Core_0_LLC_load_hit 778360 LLC_load_Hit Ratio: 0.46274
Core_0_LLC_load_miss 903693
Core_0_LLC_RFOs 566161
Core_0_LLC_RFO_hit 3823 LLC_RFO_Hit Ratio: 0.00675
Core_0_LLC_RFO_miss 562338
Core_0_LLC_prefetches 5040583
Core_0_LLC_prefetch_hit 2385127 LLC_prefetch_Hit Ratio: 0.47318
Core_0_LLC_prefetch_miss 2655456
Core_0_LLC_writebacks 1705547
Core_0_LLC_writeback_hit 1705330 LLC_writeback_Hit Ratio: 0.99987
Core_0_LLC_writeback_miss 217
Core_0_LLC_prefetch_requested 0
Core_0_LLC_prefetch_issued 0
Core_0_LLC_prefetch_useful 235973 LLC_Total_Hit Ratio: inf
Core_0_LLC_prefetch_useless 2401281
Core_0_LLC_prefetch_late 0
Core_0_LLC_average_miss_latency 321.61486

Core_0_major_page_fault 0
Core_0_minor_page_fault 18565


Channel_0_RQ_row_buffer_hit 1105308
Channel_0_RQ_row_buffer_miss 3016134
Channel_0_WQ_row_buffer_hit 411205
Channel_0_WQ_row_buffer_miss 1281560
Channel_0_WQ_full 0
Channel_0_dbus_congested 2778357

avg_congested_cycle 11
