*************************************************
   ChampSim Multicore Out-of-Order Simulator
   Last compiled: Aug  8 2024 06:25:31
*************************************************

trace_0 ./LLM_Traces/2B_Traces_SelfAttention_Phythia-70M-Seq1024-07-08-0125.champsim.xz
CPU 0 L2C next line prefetcher initialized
warmup_instructions 2000000
simulation_instructions 2000000000
champsim_seed 200

num_cpus 1
cpu_freq 4000
dram_io_freq 2400
page_size 4096
block_size 64
max_read_per_cycle 8
max_fill_per_cycle 1
dram_channels 1
dram_ranks 1
dram_banks 8
dram_rows 65536
dram_columns 128
dram_row_size 8
dram_size 4096
dram_pages 1048576

fetch_width 6
decode_width 6
exec_width 4
lq_width 2
sq_width 2
retire_width 4
scheduler_size 128
branch_mispredict_penalty 20
rob_size 256
lq_size 72
sq_size 56
num_instr_destinations_sparc 4
num_instr_destinations 2
num_instr_sources 4

itlb_set 16
itlb_way 8
itlb_rq_size 16
itlb_wq_size 16
itlb_pq_size 0
itlb_mshr_size 8
itlb_latency 1

dtlb_set 16
dtlb_way 4
dtlb_rq_size 16
dtlb_wq_size 16
dtlb_pq_size 0
dtlb_mshr_size 8
dtlb_latency 1

stlb_set 128
stlb_way 12
stlb_rq_size 32
stlb_wq_size 32
stlb_pq_size 0
stlb_mshr_size 16
stlb_latency 8

l1i_size 32
l1i_set 64
l1i_way 8
l1i_rq_size 64
l1i_wq_size 64
l1i_pq_size 8
l1i_mshr_size 8
l1i_latency 1

l1d_size 32
l1d_set 64
l1d_way 8
l1d_rq_size 64
l1d_wq_size 64
l1d_pq_size 8
l1d_mshr_size 16
l1d_latency 4

l2c_size 512
l2c_set 1024
l2c_way 8
l2c_rq_size 32
l2c_wq_size 32
l2c_pq_size 16
l2c_mshr_size 32
l2c_latency 10

llc_size 2048
llc_set 2048
llc_way 16
llc_rq_size 32
llc_wq_size 32
llc_pq_size 32
llc_mshr_size 64
llc_latency 20

dram_channel_width 8
dram_wq_size 64
dram_rq_size 64
tRP 15
tRCD 15
tCAS 12.5
dram_dbus_turn_around_time 30
dram_write_high_wm 56
dram_write_low_wm 48
min_dram_writes_per_switch 16
dram_mtps 2400
dram_dbus_return_time 13


Heartbeat CPU  0 instructions:    1000001 cycles:     467273 heartbeat IPC: 2.14008 cumulative IPC: 2.14008 (Simulation time: 0 hr 0 min 1 sec) 
Caught signal: 2
*************************************************
   ChampSim Multicore Out-of-Order Simulator
   Last compiled: Aug  8 2024 12:09:54
*************************************************

trace_0 ./LLM_Traces/2B_Traces_SelfAttention_Phythia-70M-Seq1024-07-08-0125.champsim.xz
CPU 0 L2C next line prefetcher initialized
warmup_instructions 2000000
simulation_instructions 2000000000
champsim_seed 200

num_cpus 1
cpu_freq 4000
dram_io_freq 2400
page_size 4096
block_size 64
max_read_per_cycle 8
max_fill_per_cycle 1
dram_channels 1
dram_ranks 1
dram_banks 8
dram_rows 65536
dram_columns 128
dram_row_size 8
dram_size 4096
dram_pages 1048576

fetch_width 6
decode_width 6
exec_width 4
lq_width 2
sq_width 2
retire_width 4
scheduler_size 128
branch_mispredict_penalty 20
rob_size 256
lq_size 72
sq_size 56
num_instr_destinations_sparc 4
num_instr_destinations 2
num_instr_sources 4

itlb_set 16
itlb_way 8
itlb_rq_size 16
itlb_wq_size 16
itlb_pq_size 0
itlb_mshr_size 8
itlb_latency 1

dtlb_set 16
dtlb_way 4
dtlb_rq_size 16
dtlb_wq_size 16
dtlb_pq_size 0
dtlb_mshr_size 8
dtlb_latency 1

stlb_set 128
stlb_way 12
stlb_rq_size 32
stlb_wq_size 32
stlb_pq_size 0
stlb_mshr_size 16
stlb_latency 8

l1i_size 32
l1i_set 64
l1i_way 8
l1i_rq_size 64
l1i_wq_size 64
l1i_pq_size 8
l1i_mshr_size 8
l1i_latency 1

l1d_size 32
l1d_set 64
l1d_way 8
l1d_rq_size 64
l1d_wq_size 64
l1d_pq_size 8
l1d_mshr_size 16
l1d_latency 4

l2c_size 512
l2c_set 1024
l2c_way 8
l2c_rq_size 32
l2c_wq_size 32
l2c_pq_size 16
l2c_mshr_size 32
l2c_latency 10

llc_size 2048
llc_set 2048
llc_way 16
llc_rq_size 32
llc_wq_size 32
llc_pq_size 32
llc_mshr_size 64
llc_latency 20

dram_channel_width 8
dram_wq_size 64
dram_rq_size 64
tRP 15
tRCD 15
tCAS 12.5
dram_dbus_turn_around_time 30
dram_write_high_wm 56
dram_write_low_wm 48
min_dram_writes_per_switch 16
dram_mtps 2400
dram_dbus_return_time 13


Heartbeat CPU  0 instructions:    1000001 cycles:     467275 heartbeat IPC: 2.14007 cumulative IPC: 2.14007 (Simulation time: 0 hr 0 min 4 sec) 
Heartbeat CPU  0 instructions:    2000000 cycles:    1041556 heartbeat IPC: 1.74131 cumulative IPC: 1.92020 (Simulation time: 0 hr 0 min 14 sec) 

Warmup complete CPU  0 instructions:    2000002 cycles:    1041557 (Simulation time: 0 hr 0 min 14 sec) 

Heartbeat CPU  0 instructions:    3000001 cycles:    2051211 heartbeat IPC: 0.99044 cumulative IPC: 0.99044 (Simulation time: 0 hr 0 min 27 sec) 
Heartbeat CPU  0 instructions:    4000000 cycles:    3107040 heartbeat IPC: 0.94712 cumulative IPC: 0.96830 (Simulation time: 0 hr 0 min 37 sec) 
Heartbeat CPU  0 instructions:    5000002 cycles:    4154835 heartbeat IPC: 0.95439 cumulative IPC: 0.96361 (Simulation time: 0 hr 0 min 47 sec) 
Heartbeat CPU  0 instructions:    6000001 cycles:    5209318 heartbeat IPC: 0.94833 cumulative IPC: 0.95975 (Simulation time: 0 hr 0 min 56 sec) 
Heartbeat CPU  0 instructions:    7000000 cycles:    6256617 heartbeat IPC: 0.95484 cumulative IPC: 0.95876 (Simulation time: 0 hr 1 min 5 sec) 
Heartbeat CPU  0 instructions:    8000000 cycles:    7310669 heartbeat IPC: 0.94872 cumulative IPC: 0.95707 (Simulation time: 0 hr 1 min 14 sec) 
Heartbeat CPU  0 instructions:    9000003 cycles:    8376216 heartbeat IPC: 0.93849 cumulative IPC: 0.95437 (Simulation time: 0 hr 1 min 25 sec) 
Heartbeat CPU  0 instructions:   10000003 cycles:    9440630 heartbeat IPC: 0.93948 cumulative IPC: 0.95249 (Simulation time: 0 hr 1 min 37 sec) 
Heartbeat CPU  0 instructions:   11000000 cycles:   10493608 heartbeat IPC: 0.94968 cumulative IPC: 0.95217 (Simulation time: 0 hr 1 min 47 sec) 
Heartbeat CPU  0 instructions:   12000000 cycles:   11566572 heartbeat IPC: 0.93200 cumulative IPC: 0.95012 (Simulation time: 0 hr 1 min 57 sec) 
Heartbeat CPU  0 instructions:   13000002 cycles:   12631397 heartbeat IPC: 0.93912 cumulative IPC: 0.94911 (Simulation time: 0 hr 2 min 9 sec) 
Heartbeat CPU  0 instructions:   14000002 cycles:   13680030 heartbeat IPC: 0.95362 cumulative IPC: 0.94948 (Simulation time: 0 hr 2 min 22 sec) 
Heartbeat CPU  0 instructions:   15000001 cycles:   14735178 heartbeat IPC: 0.94773 cumulative IPC: 0.94935 (Simulation time: 0 hr 2 min 33 sec) 
Heartbeat CPU  0 instructions:   16000000 cycles:   15796093 heartbeat IPC: 0.94258 cumulative IPC: 0.94886 (Simulation time: 0 hr 2 min 42 sec) 
Heartbeat CPU  0 instructions:   17000001 cycles:   16862036 heartbeat IPC: 0.93814 cumulative IPC: 0.94814 (Simulation time: 0 hr 3 min 2 sec) 
Heartbeat CPU  0 instructions:   18000003 cycles:   17944063 heartbeat IPC: 0.92419 cumulative IPC: 0.94661 (Simulation time: 0 hr 3 min 15 sec) 
Heartbeat CPU  0 instructions:   19000003 cycles:   19009592 heartbeat IPC: 0.93850 cumulative IPC: 0.94612 (Simulation time: 0 hr 3 min 28 sec) 
Heartbeat CPU  0 instructions:   20000000 cycles:   20084547 heartbeat IPC: 0.93027 cumulative IPC: 0.94523 (Simulation time: 0 hr 3 min 41 sec) 
Heartbeat CPU  0 instructions:   21000001 cycles:   21141379 heartbeat IPC: 0.94623 cumulative IPC: 0.94528 (Simulation time: 0 hr 3 min 53 sec) 
Heartbeat CPU  0 instructions:   22000001 cycles:   22221056 heartbeat IPC: 0.92620 cumulative IPC: 0.94431 (Simulation time: 0 hr 4 min 5 sec) 
Heartbeat CPU  0 instructions:   23000002 cycles:   23282001 heartbeat IPC: 0.94256 cumulative IPC: 0.94423 (Simulation time: 0 hr 4 min 17 sec) 
Heartbeat CPU  0 instructions:   24000000 cycles:   24352208 heartbeat IPC: 0.93440 cumulative IPC: 0.94377 (Simulation time: 0 hr 4 min 29 sec) 
Heartbeat CPU  0 instructions:   25000000 cycles:   25392797 heartbeat IPC: 0.96099 cumulative IPC: 0.94451 (Simulation time: 0 hr 4 min 38 sec) 
Heartbeat CPU  0 instructions:   26000003 cycles:   26516519 heartbeat IPC: 0.88990 cumulative IPC: 0.94210 (Simulation time: 0 hr 4 min 51 sec) 
Heartbeat CPU  0 instructions:   27000003 cycles:   27568931 heartbeat IPC: 0.95020 cumulative IPC: 0.94242 (Simulation time: 0 hr 5 min 5 sec) 
Heartbeat CPU  0 instructions:   28000000 cycles:   28632349 heartbeat IPC: 0.94036 cumulative IPC: 0.94234 (Simulation time: 0 hr 5 min 18 sec) 
Heartbeat CPU  0 instructions:   29000000 cycles:   29696156 heartbeat IPC: 0.94002 cumulative IPC: 0.94226 (Simulation time: 0 hr 5 min 30 sec) 
Heartbeat CPU  0 instructions:   30000001 cycles:   30769410 heartbeat IPC: 0.93175 cumulative IPC: 0.94188 (Simulation time: 0 hr 5 min 42 sec) 
Heartbeat CPU  0 instructions:   31000001 cycles:   31820112 heartbeat IPC: 0.95174 cumulative IPC: 0.94221 (Simulation time: 0 hr 5 min 54 sec) 
Heartbeat CPU  0 instructions:   32000000 cycles:   32871832 heartbeat IPC: 0.95082 cumulative IPC: 0.94250 (Simulation time: 0 hr 6 min 7 sec) 
Heartbeat CPU  0 instructions:   33000001 cycles:   33940105 heartbeat IPC: 0.93609 cumulative IPC: 0.94229 (Simulation time: 0 hr 6 min 19 sec) 
Heartbeat CPU  0 instructions:   34000000 cycles:   35003139 heartbeat IPC: 0.94070 cumulative IPC: 0.94224 (Simulation time: 0 hr 6 min 32 sec) 
Heartbeat CPU  0 instructions:   35000003 cycles:   36075100 heartbeat IPC: 0.93287 cumulative IPC: 0.94195 (Simulation time: 0 hr 6 min 45 sec) 
Heartbeat CPU  0 instructions:   36000000 cycles:   37135358 heartbeat IPC: 0.94316 cumulative IPC: 0.94199 (Simulation time: 0 hr 7 min 0 sec) 
Heartbeat CPU  0 instructions:   37000000 cycles:   38188682 heartbeat IPC: 0.94938 cumulative IPC: 0.94220 (Simulation time: 0 hr 7 min 13 sec) 
Heartbeat CPU  0 instructions:   38000003 cycles:   39268224 heartbeat IPC: 0.92632 cumulative IPC: 0.94175 (Simulation time: 0 hr 7 min 28 sec) 
Heartbeat CPU  0 instructions:   39000003 cycles:   40332571 heartbeat IPC: 0.93954 cumulative IPC: 0.94169 (Simulation time: 0 hr 7 min 42 sec) 
Heartbeat CPU  0 instructions:   40000000 cycles:   41391042 heartbeat IPC: 0.94476 cumulative IPC: 0.94177 (Simulation time: 0 hr 7 min 57 sec) 
Heartbeat CPU  0 instructions:   41000002 cycles:   42486898 heartbeat IPC: 0.91253 cumulative IPC: 0.94100 (Simulation time: 0 hr 8 min 12 sec) 
Heartbeat CPU  0 instructions:   42000001 cycles:   43550241 heartbeat IPC: 0.94043 cumulative IPC: 0.94098 (Simulation time: 0 hr 8 min 27 sec) 
Heartbeat CPU  0 instructions:   43000001 cycles:   44626618 heartbeat IPC: 0.92904 cumulative IPC: 0.94069 (Simulation time: 0 hr 8 min 43 sec) 
Heartbeat CPU  0 instructions:   44000000 cycles:   45700424 heartbeat IPC: 0.93127 cumulative IPC: 0.94046 (Simulation time: 0 hr 8 min 59 sec) 
Heartbeat CPU  0 instructions:   45000002 cycles:   46762912 heartbeat IPC: 0.94119 cumulative IPC: 0.94048 (Simulation time: 0 hr 9 min 14 sec) 
Heartbeat CPU  0 instructions:   46000001 cycles:   47843769 heartbeat IPC: 0.92519 cumulative IPC: 0.94013 (Simulation time: 0 hr 9 min 29 sec) 
Heartbeat CPU  0 instructions:   47000001 cycles:   48925463 heartbeat IPC: 0.92448 cumulative IPC: 0.93977 (Simulation time: 0 hr 9 min 43 sec) 
Heartbeat CPU  0 instructions:   48000000 cycles:   50002937 heartbeat IPC: 0.92810 cumulative IPC: 0.93952 (Simulation time: 0 hr 9 min 57 sec) 
Heartbeat CPU  0 instructions:   49000000 cycles:   51095024 heartbeat IPC: 0.91568 cumulative IPC: 0.93900 (Simulation time: 0 hr 10 min 7 sec) 
Heartbeat CPU  0 instructions:   50000000 cycles:   52087794 heartbeat IPC: 1.00728 cumulative IPC: 0.94032 (Simulation time: 0 hr 10 min 22 sec) 
Heartbeat CPU  0 instructions:   51000000 cycles:   53017722 heartbeat IPC: 1.07535 cumulative IPC: 0.94274 (Simulation time: 0 hr 10 min 35 sec) 
Heartbeat CPU  0 instructions:   52000000 cycles:   53945466 heartbeat IPC: 1.07788 cumulative IPC: 0.94511 (Simulation time: 0 hr 10 min 48 sec) 
Heartbeat CPU  0 instructions:   53000002 cycles:   54868736 heartbeat IPC: 1.08311 cumulative IPC: 0.94748 (Simulation time: 0 hr 11 min 0 sec) 
Heartbeat CPU  0 instructions:   54000003 cycles:   55795305 heartbeat IPC: 1.07925 cumulative IPC: 0.94971 (Simulation time: 0 hr 11 min 12 sec) 
Heartbeat CPU  0 instructions:   55000001 cycles:   56727148 heartbeat IPC: 1.07314 cumulative IPC: 0.95177 (Simulation time: 0 hr 11 min 24 sec) 
Heartbeat CPU  0 instructions:   56000000 cycles:   57656211 heartbeat IPC: 1.07635 cumulative IPC: 0.95382 (Simulation time: 0 hr 11 min 38 sec) 
Heartbeat CPU  0 instructions:   57000000 cycles:   58586037 heartbeat IPC: 1.07547 cumulative IPC: 0.95578 (Simulation time: 0 hr 11 min 50 sec) 
Heartbeat CPU  0 instructions:   58000001 cycles:   59518833 heartbeat IPC: 1.07205 cumulative IPC: 0.95764 (Simulation time: 0 hr 12 min 3 sec) 
Heartbeat CPU  0 instructions:   59000001 cycles:   60445141 heartbeat IPC: 1.07955 cumulative IPC: 0.95954 (Simulation time: 0 hr 12 min 15 sec) 
Heartbeat CPU  0 instructions:   60000000 cycles:   61362647 heartbeat IPC: 1.08991 cumulative IPC: 0.96152 (Simulation time: 0 hr 12 min 27 sec) 
Heartbeat CPU  0 instructions:   61000001 cycles:   62281529 heartbeat IPC: 1.08828 cumulative IPC: 0.96342 (Simulation time: 0 hr 12 min 39 sec) 
Heartbeat CPU  0 instructions:   62000001 cycles:   63203417 heartbeat IPC: 1.08473 cumulative IPC: 0.96522 (Simulation time: 0 hr 12 min 53 sec) 
Heartbeat CPU  0 instructions:   63000000 cycles:   64126787 heartbeat IPC: 1.08299 cumulative IPC: 0.96695 (Simulation time: 0 hr 13 min 6 sec) 
Heartbeat CPU  0 instructions:   64000000 cycles:   65036463 heartbeat IPC: 1.09929 cumulative IPC: 0.96883 (Simulation time: 0 hr 13 min 18 sec) 
Heartbeat CPU  0 instructions:   65000003 cycles:   65949695 heartbeat IPC: 1.09502 cumulative IPC: 0.97060 (Simulation time: 0 hr 13 min 27 sec) 
Heartbeat CPU  0 instructions:   66000000 cycles:   67098632 heartbeat IPC: 0.87037 cumulative IPC: 0.96886 (Simulation time: 0 hr 13 min 40 sec) 
Heartbeat CPU  0 instructions:   67000001 cycles:   68160353 heartbeat IPC: 0.94187 cumulative IPC: 0.96843 (Simulation time: 0 hr 13 min 54 sec) 
Heartbeat CPU  0 instructions:   68000000 cycles:   69199482 heartbeat IPC: 0.96234 cumulative IPC: 0.96834 (Simulation time: 0 hr 14 min 7 sec) 
Heartbeat CPU  0 instructions:   69000001 cycles:   70251140 heartbeat IPC: 0.95088 cumulative IPC: 0.96807 (Simulation time: 0 hr 14 min 20 sec) 
Heartbeat CPU  0 instructions:   70000001 cycles:   71309052 heartbeat IPC: 0.94526 cumulative IPC: 0.96773 (Simulation time: 0 hr 14 min 32 sec) 
Heartbeat CPU  0 instructions:   71000003 cycles:   72336275 heartbeat IPC: 0.97350 cumulative IPC: 0.96781 (Simulation time: 0 hr 14 min 44 sec) 
Heartbeat CPU  0 instructions:   72000000 cycles:   73372367 heartbeat IPC: 0.96516 cumulative IPC: 0.96778 (Simulation time: 0 hr 14 min 57 sec) 
Heartbeat CPU  0 instructions:   73000001 cycles:   74429314 heartbeat IPC: 0.94612 cumulative IPC: 0.96746 (Simulation time: 0 hr 15 min 10 sec) 
Heartbeat CPU  0 instructions:   74000001 cycles:   75487250 heartbeat IPC: 0.94524 cumulative IPC: 0.96715 (Simulation time: 0 hr 15 min 23 sec) 
Heartbeat CPU  0 instructions:   75000001 cycles:   76551082 heartbeat IPC: 0.94000 cumulative IPC: 0.96677 (Simulation time: 0 hr 15 min 36 sec) 
Heartbeat CPU  0 instructions:   76000000 cycles:   77606205 heartbeat IPC: 0.94776 cumulative IPC: 0.96650 (Simulation time: 0 hr 15 min 48 sec) 
Heartbeat CPU  0 instructions:   77000000 cycles:   78652064 heartbeat IPC: 0.95615 cumulative IPC: 0.96636 (Simulation time: 0 hr 16 min 1 sec) 
Heartbeat CPU  0 instructions:   78000002 cycles:   79697069 heartbeat IPC: 0.95694 cumulative IPC: 0.96624 (Simulation time: 0 hr 16 min 13 sec) 
Heartbeat CPU  0 instructions:   79000001 cycles:   80745644 heartbeat IPC: 0.95367 cumulative IPC: 0.96607 (Simulation time: 0 hr 16 min 26 sec) 
Heartbeat CPU  0 instructions:   80000000 cycles:   81785551 heartbeat IPC: 0.96162 cumulative IPC: 0.96602 (Simulation time: 0 hr 16 min 39 sec) 
Heartbeat CPU  0 instructions:   81000000 cycles:   82841675 heartbeat IPC: 0.94686 cumulative IPC: 0.96577 (Simulation time: 0 hr 16 min 52 sec) 
Heartbeat CPU  0 instructions:   82000000 cycles:   83913257 heartbeat IPC: 0.93320 cumulative IPC: 0.96535 (Simulation time: 0 hr 17 min 6 sec) 
Heartbeat CPU  0 instructions:   83000003 cycles:   84996275 heartbeat IPC: 0.92335 cumulative IPC: 0.96481 (Simulation time: 0 hr 17 min 20 sec) 
Heartbeat CPU  0 instructions:   84000000 cycles:   86074159 heartbeat IPC: 0.92774 cumulative IPC: 0.96434 (Simulation time: 0 hr 17 min 34 sec) 
Heartbeat CPU  0 instructions:   85000003 cycles:   87137564 heartbeat IPC: 0.94038 cumulative IPC: 0.96404 (Simulation time: 0 hr 17 min 48 sec) 
Heartbeat CPU  0 instructions:   86000001 cycles:   88196452 heartbeat IPC: 0.94439 cumulative IPC: 0.96380 (Simulation time: 0 hr 18 min 2 sec) 
Heartbeat CPU  0 instructions:   87000001 cycles:   89274708 heartbeat IPC: 0.92742 cumulative IPC: 0.96336 (Simulation time: 0 hr 18 min 16 sec) 
Heartbeat CPU  0 instructions:   88000000 cycles:   90343159 heartbeat IPC: 0.93593 cumulative IPC: 0.96303 (Simulation time: 0 hr 18 min 29 sec) 
Heartbeat CPU  0 instructions:   89000002 cycles:   91419921 heartbeat IPC: 0.92871 cumulative IPC: 0.96262 (Simulation time: 0 hr 18 min 42 sec) 
Heartbeat CPU  0 instructions:   90000002 cycles:   92450490 heartbeat IPC: 0.97034 cumulative IPC: 0.96271 (Simulation time: 0 hr 18 min 54 sec) 
Heartbeat CPU  0 instructions:   91000001 cycles:   93519705 heartbeat IPC: 0.93526 cumulative IPC: 0.96239 (Simulation time: 0 hr 19 min 13 sec) 
Heartbeat CPU  0 instructions:   92000000 cycles:   94592410 heartbeat IPC: 0.93222 cumulative IPC: 0.96204 (Simulation time: 0 hr 19 min 28 sec) 
Heartbeat CPU  0 instructions:   93000000 cycles:   95662776 heartbeat IPC: 0.93426 cumulative IPC: 0.96173 (Simulation time: 0 hr 19 min 43 sec) 
Heartbeat CPU  0 instructions:   94000001 cycles:   96712227 heartbeat IPC: 0.95288 cumulative IPC: 0.96163 (Simulation time: 0 hr 19 min 57 sec) 
Heartbeat CPU  0 instructions:   95000000 cycles:   97763032 heartbeat IPC: 0.95165 cumulative IPC: 0.96152 (Simulation time: 0 hr 20 min 11 sec) 
Heartbeat CPU  0 instructions:   96000000 cycles:   98820561 heartbeat IPC: 0.94560 cumulative IPC: 0.96135 (Simulation time: 0 hr 20 min 25 sec) 
Heartbeat CPU  0 instructions:   97000002 cycles:   99869479 heartbeat IPC: 0.95337 cumulative IPC: 0.96127 (Simulation time: 0 hr 20 min 38 sec) 
Heartbeat CPU  0 instructions:   98000000 cycles:  100934363 heartbeat IPC: 0.93907 cumulative IPC: 0.96103 (Simulation time: 0 hr 20 min 52 sec) 
Heartbeat CPU  0 instructions:   99000000 cycles:  101995635 heartbeat IPC: 0.94227 cumulative IPC: 0.96083 (Simulation time: 0 hr 21 min 5 sec) 
Heartbeat CPU  0 instructions:  100000000 cycles:  103068501 heartbeat IPC: 0.93208 cumulative IPC: 0.96053 (Simulation time: 0 hr 21 min 19 sec) 
Heartbeat CPU  0 instructions:  101000001 cycles:  104131904 heartbeat IPC: 0.94038 cumulative IPC: 0.96032 (Simulation time: 0 hr 21 min 33 sec) 
Heartbeat CPU  0 instructions:  102000003 cycles:  105193380 heartbeat IPC: 0.94209 cumulative IPC: 0.96014 (Simulation time: 0 hr 21 min 46 sec) 
Heartbeat CPU  0 instructions:  103000001 cycles:  106259002 heartbeat IPC: 0.93842 cumulative IPC: 0.95992 (Simulation time: 0 hr 22 min 0 sec) 
Heartbeat CPU  0 instructions:  104000000 cycles:  107305354 heartbeat IPC: 0.95570 cumulative IPC: 0.95988 (Simulation time: 0 hr 22 min 13 sec) 
Heartbeat CPU  0 instructions:  105000001 cycles:  108373384 heartbeat IPC: 0.93630 cumulative IPC: 0.95964 (Simulation time: 0 hr 22 min 27 sec) 
Heartbeat CPU  0 instructions:  106000003 cycles:  109436008 heartbeat IPC: 0.94107 cumulative IPC: 0.95946 (Simulation time: 0 hr 22 min 41 sec) 
Heartbeat CPU  0 instructions:  107000001 cycles:  110512432 heartbeat IPC: 0.92900 cumulative IPC: 0.95916 (Simulation time: 0 hr 22 min 56 sec) 
Heartbeat CPU  0 instructions:  108000000 cycles:  111583100 heartbeat IPC: 0.93400 cumulative IPC: 0.95892 (Simulation time: 0 hr 23 min 10 sec) 
Heartbeat CPU  0 instructions:  109000000 cycles:  112669492 heartbeat IPC: 0.92048 cumulative IPC: 0.95854 (Simulation time: 0 hr 23 min 25 sec) 
Heartbeat CPU  0 instructions:  110000002 cycles:  113746361 heartbeat IPC: 0.92862 cumulative IPC: 0.95826 (Simulation time: 0 hr 23 min 39 sec) 
Heartbeat CPU  0 instructions:  111000002 cycles:  114829535 heartbeat IPC: 0.92321 cumulative IPC: 0.95792 (Simulation time: 0 hr 23 min 53 sec) 
Heartbeat CPU  0 instructions:  112000000 cycles:  115882787 heartbeat IPC: 0.94944 cumulative IPC: 0.95784 (Simulation time: 0 hr 24 min 7 sec) 
Heartbeat CPU  0 instructions:  113000000 cycles:  116953531 heartbeat IPC: 0.93393 cumulative IPC: 0.95762 (Simulation time: 0 hr 24 min 20 sec) 
Heartbeat CPU  0 instructions:  114000000 cycles:  117991234 heartbeat IPC: 0.96367 cumulative IPC: 0.95768 (Simulation time: 0 hr 24 min 32 sec) 
Heartbeat CPU  0 instructions:  115000002 cycles:  118907604 heartbeat IPC: 1.09126 cumulative IPC: 0.95872 (Simulation time: 0 hr 24 min 47 sec) 
Heartbeat CPU  0 instructions:  116000000 cycles:  119826539 heartbeat IPC: 1.08821 cumulative IPC: 0.95972 (Simulation time: 0 hr 25 min 1 sec) 
Heartbeat CPU  0 instructions:  117000000 cycles:  120738927 heartbeat IPC: 1.09602 cumulative IPC: 0.96076 (Simulation time: 0 hr 25 min 16 sec) 
Heartbeat CPU  0 instructions:  118000003 cycles:  121656724 heartbeat IPC: 1.08957 cumulative IPC: 0.96174 (Simulation time: 0 hr 25 min 29 sec) 
Heartbeat CPU  0 instructions:  119000001 cycles:  122575696 heartbeat IPC: 1.08817 cumulative IPC: 0.96269 (Simulation time: 0 hr 25 min 44 sec) 
Heartbeat CPU  0 instructions:  120000000 cycles:  123485436 heartbeat IPC: 1.09921 cumulative IPC: 0.96371 (Simulation time: 0 hr 25 min 57 sec) 
Heartbeat CPU  0 instructions:  121000001 cycles:  124397816 heartbeat IPC: 1.09604 cumulative IPC: 0.96469 (Simulation time: 0 hr 26 min 12 sec) 
Heartbeat CPU  0 instructions:  122000000 cycles:  125300859 heartbeat IPC: 1.10737 cumulative IPC: 0.96572 (Simulation time: 0 hr 26 min 25 sec) 
Heartbeat CPU  0 instructions:  123000003 cycles:  126200873 heartbeat IPC: 1.11110 cumulative IPC: 0.96677 (Simulation time: 0 hr 26 min 39 sec) 
Heartbeat CPU  0 instructions:  124000000 cycles:  127100518 heartbeat IPC: 1.11155 cumulative IPC: 0.96780 (Simulation time: 0 hr 26 min 53 sec) 
Heartbeat CPU  0 instructions:  125000003 cycles:  128001959 heartbeat IPC: 1.10934 cumulative IPC: 0.96881 (Simulation time: 0 hr 27 min 7 sec) 
Heartbeat CPU  0 instructions:  126000003 cycles:  128910164 heartbeat IPC: 1.10107 cumulative IPC: 0.96975 (Simulation time: 0 hr 27 min 22 sec) 
Heartbeat CPU  0 instructions:  127000002 cycles:  129817692 heartbeat IPC: 1.10189 cumulative IPC: 0.97068 (Simulation time: 0 hr 27 min 36 sec) 
Heartbeat CPU  0 instructions:  128000000 cycles:  130725522 heartbeat IPC: 1.10153 cumulative IPC: 0.97159 (Simulation time: 0 hr 27 min 50 sec) 
Heartbeat CPU  0 instructions:  129000000 cycles:  131625918 heartbeat IPC: 1.11062 cumulative IPC: 0.97255 (Simulation time: 0 hr 28 min 3 sec) 
Heartbeat CPU  0 instructions:  130000000 cycles:  132184109 heartbeat IPC: 1.79150 cumulative IPC: 0.97604 (Simulation time: 0 hr 28 min 7 sec) 
Heartbeat CPU  0 instructions:  131000000 cycles:  132556460 heartbeat IPC: 2.68564 cumulative IPC: 0.98088 (Simulation time: 0 hr 28 min 8 sec) 
Heartbeat CPU  0 instructions:  132000000 cycles:  133890726 heartbeat IPC: 0.74948 cumulative IPC: 0.97855 (Simulation time: 0 hr 28 min 13 sec) 
Heartbeat CPU  0 instructions:  133000001 cycles:  140935368 heartbeat IPC: 0.14195 cumulative IPC: 0.93642 (Simulation time: 0 hr 28 min 45 sec) 
Heartbeat CPU  0 instructions:  134000000 cycles:  148437458 heartbeat IPC: 0.13330 cumulative IPC: 0.89555 (Simulation time: 0 hr 29 min 16 sec) 
Heartbeat CPU  0 instructions:  135000002 cycles:  155959134 heartbeat IPC: 0.13295 cumulative IPC: 0.85852 (Simulation time: 0 hr 29 min 53 sec) 
Heartbeat CPU  0 instructions:  136000000 cycles:  163446215 heartbeat IPC: 0.13356 cumulative IPC: 0.82510 (Simulation time: 0 hr 30 min 23 sec) 
Heartbeat CPU  0 instructions:  137000000 cycles:  167751935 heartbeat IPC: 0.23225 cumulative IPC: 0.80979 (Simulation time: 0 hr 30 min 40 sec) 
Heartbeat CPU  0 instructions:  138000002 cycles:  170013923 heartbeat IPC: 0.44209 cumulative IPC: 0.80487 (Simulation time: 0 hr 30 min 47 sec) 
Heartbeat CPU  0 instructions:  139000000 cycles:  172589877 heartbeat IPC: 0.38820 cumulative IPC: 0.79861 (Simulation time: 0 hr 30 min 55 sec) 
Heartbeat CPU  0 instructions:  140000000 cycles:  175168107 heartbeat IPC: 0.38786 cumulative IPC: 0.79253 (Simulation time: 0 hr 31 min 3 sec) 
Heartbeat CPU  0 instructions:  141000002 cycles:  177620591 heartbeat IPC: 0.40775 cumulative IPC: 0.78718 (Simulation time: 0 hr 31 min 11 sec) 
Heartbeat CPU  0 instructions:  142000001 cycles:  180038375 heartbeat IPC: 0.41360 cumulative IPC: 0.78214 (Simulation time: 0 hr 31 min 19 sec) 
Heartbeat CPU  0 instructions:  143000000 cycles:  182459459 heartbeat IPC: 0.41304 cumulative IPC: 0.77721 (Simulation time: 0 hr 31 min 27 sec) 
Heartbeat CPU  0 instructions:  144000000 cycles:  184972990 heartbeat IPC: 0.39785 cumulative IPC: 0.77203 (Simulation time: 0 hr 31 min 34 sec) 
Heartbeat CPU  0 instructions:  145000000 cycles:  187428733 heartbeat IPC: 0.40721 cumulative IPC: 0.76722 (Simulation time: 0 hr 31 min 42 sec) 
Heartbeat CPU  0 instructions:  146000003 cycles:  189892094 heartbeat IPC: 0.40595 cumulative IPC: 0.76251 (Simulation time: 0 hr 31 min 50 sec) 
Heartbeat CPU  0 instructions:  147000002 cycles:  192329212 heartbeat IPC: 0.41032 cumulative IPC: 0.75802 (Simulation time: 0 hr 31 min 58 sec) 
Heartbeat CPU  0 instructions:  148000000 cycles:  194786622 heartbeat IPC: 0.40693 cumulative IPC: 0.75357 (Simulation time: 0 hr 32 min 6 sec) 
Heartbeat CPU  0 instructions:  149000003 cycles:  197211500 heartbeat IPC: 0.41239 cumulative IPC: 0.74935 (Simulation time: 0 hr 32 min 14 sec) 
Heartbeat CPU  0 instructions:  150000001 cycles:  199594137 heartbeat IPC: 0.41970 cumulative IPC: 0.74539 (Simulation time: 0 hr 32 min 22 sec) 
Heartbeat CPU  0 instructions:  151000000 cycles:  202142238 heartbeat IPC: 0.39245 cumulative IPC: 0.74092 (Simulation time: 0 hr 32 min 29 sec) 
Heartbeat CPU  0 instructions:  152000000 cycles:  204714546 heartbeat IPC: 0.38876 cumulative IPC: 0.73647 (Simulation time: 0 hr 32 min 37 sec) 
Heartbeat CPU  0 instructions:  153000002 cycles:  207217616 heartbeat IPC: 0.39951 cumulative IPC: 0.73238 (Simulation time: 0 hr 32 min 45 sec) 
Heartbeat CPU  0 instructions:  154000003 cycles:  209679303 heartbeat IPC: 0.40623 cumulative IPC: 0.72854 (Simulation time: 0 hr 32 min 53 sec) 
Heartbeat CPU  0 instructions:  155000000 cycles:  212089696 heartbeat IPC: 0.41487 cumulative IPC: 0.72495 (Simulation time: 0 hr 33 min 0 sec) 
Heartbeat CPU  0 instructions:  156000000 cycles:  214514258 heartbeat IPC: 0.41245 cumulative IPC: 0.72140 (Simulation time: 0 hr 33 min 9 sec) 
Heartbeat CPU  0 instructions:  157000000 cycles:  216937011 heartbeat IPC: 0.41275 cumulative IPC: 0.71794 (Simulation time: 0 hr 33 min 17 sec) 
Heartbeat CPU  0 instructions:  158000001 cycles:  219333650 heartbeat IPC: 0.41725 cumulative IPC: 0.71464 (Simulation time: 0 hr 33 min 24 sec) 
Heartbeat CPU  0 instructions:  159000002 cycles:  221776325 heartbeat IPC: 0.40939 cumulative IPC: 0.71126 (Simulation time: 0 hr 33 min 32 sec) 
Heartbeat CPU  0 instructions:  160000000 cycles:  224276570 heartbeat IPC: 0.39996 cumulative IPC: 0.70777 (Simulation time: 0 hr 33 min 40 sec) 
Heartbeat CPU  0 instructions:  161000001 cycles:  226713088 heartbeat IPC: 0.41042 cumulative IPC: 0.70456 (Simulation time: 0 hr 33 min 48 sec) 
Heartbeat CPU  0 instructions:  162000000 cycles:  229141646 heartbeat IPC: 0.41177 cumulative IPC: 0.70145 (Simulation time: 0 hr 33 min 55 sec) 
Heartbeat CPU  0 instructions:  163000001 cycles:  231614782 heartbeat IPC: 0.40435 cumulative IPC: 0.69826 (Simulation time: 0 hr 34 min 3 sec) 
Heartbeat CPU  0 instructions:  164000000 cycles:  234055132 heartbeat IPC: 0.40978 cumulative IPC: 0.69524 (Simulation time: 0 hr 34 min 11 sec) 
Heartbeat CPU  0 instructions:  165000000 cycles:  236491376 heartbeat IPC: 0.41047 cumulative IPC: 0.69229 (Simulation time: 0 hr 34 min 18 sec) 
Heartbeat CPU  0 instructions:  166000002 cycles:  238990570 heartbeat IPC: 0.40013 cumulative IPC: 0.68922 (Simulation time: 0 hr 34 min 26 sec) 
Heartbeat CPU  0 instructions:  167000000 cycles:  241463942 heartbeat IPC: 0.40431 cumulative IPC: 0.68629 (Simulation time: 0 hr 34 min 33 sec) 
Heartbeat CPU  0 instructions:  168000000 cycles:  243871882 heartbeat IPC: 0.41529 cumulative IPC: 0.68360 (Simulation time: 0 hr 34 min 41 sec) 
Heartbeat CPU  0 instructions:  169000000 cycles:  246352645 heartbeat IPC: 0.40310 cumulative IPC: 0.68077 (Simulation time: 0 hr 34 min 49 sec) 
Heartbeat CPU  0 instructions:  170000000 cycles:  248801948 heartbeat IPC: 0.40828 cumulative IPC: 0.67807 (Simulation time: 0 hr 34 min 57 sec) 
Heartbeat CPU  0 instructions:  171000000 cycles:  251281210 heartbeat IPC: 0.40335 cumulative IPC: 0.67535 (Simulation time: 0 hr 35 min 4 sec) 
Heartbeat CPU  0 instructions:  172000000 cycles:  253744547 heartbeat IPC: 0.40595 cumulative IPC: 0.67273 (Simulation time: 0 hr 35 min 12 sec) 
Heartbeat CPU  0 instructions:  173000001 cycles:  256181339 heartbeat IPC: 0.41038 cumulative IPC: 0.67022 (Simulation time: 0 hr 35 min 20 sec) 
Heartbeat CPU  0 instructions:  174000000 cycles:  258625907 heartbeat IPC: 0.40907 cumulative IPC: 0.66774 (Simulation time: 0 hr 35 min 28 sec) 
Heartbeat CPU  0 instructions:  175000003 cycles:  261083173 heartbeat IPC: 0.40696 cumulative IPC: 0.66528 (Simulation time: 0 hr 35 min 35 sec) 
Heartbeat CPU  0 instructions:  176000000 cycles:  263484150 heartbeat IPC: 0.41650 cumulative IPC: 0.66300 (Simulation time: 0 hr 35 min 43 sec) 
Heartbeat CPU  0 instructions:  177000000 cycles:  265896378 heartbeat IPC: 0.41455 cumulative IPC: 0.66074 (Simulation time: 0 hr 35 min 51 sec) 
Heartbeat CPU  0 instructions:  178000000 cycles:  268386629 heartbeat IPC: 0.40157 cumulative IPC: 0.65833 (Simulation time: 0 hr 35 min 58 sec) 
Heartbeat CPU  0 instructions:  179000003 cycles:  270883556 heartbeat IPC: 0.40049 cumulative IPC: 0.65594 (Simulation time: 0 hr 36 min 6 sec) 
Heartbeat CPU  0 instructions:  180000000 cycles:  273376153 heartbeat IPC: 0.40119 cumulative IPC: 0.65361 (Simulation time: 0 hr 36 min 14 sec) 
Heartbeat CPU  0 instructions:  181000002 cycles:  275928756 heartbeat IPC: 0.39176 cumulative IPC: 0.65118 (Simulation time: 0 hr 36 min 22 sec) 
Heartbeat CPU  0 instructions:  182000001 cycles:  278388802 heartbeat IPC: 0.40650 cumulative IPC: 0.64901 (Simulation time: 0 hr 36 min 29 sec) 
Heartbeat CPU  0 instructions:  183000000 cycles:  280845045 heartbeat IPC: 0.40713 cumulative IPC: 0.64688 (Simulation time: 0 hr 36 min 38 sec) 
Heartbeat CPU  0 instructions:  184000000 cycles:  283283081 heartbeat IPC: 0.41017 cumulative IPC: 0.64484 (Simulation time: 0 hr 36 min 45 sec) 
Heartbeat CPU  0 instructions:  185000002 cycles:  285746693 heartbeat IPC: 0.40591 cumulative IPC: 0.64277 (Simulation time: 0 hr 36 min 53 sec) 
Heartbeat CPU  0 instructions:  186000000 cycles:  288148478 heartbeat IPC: 0.41636 cumulative IPC: 0.64088 (Simulation time: 0 hr 37 min 0 sec) 
Heartbeat CPU  0 instructions:  187000000 cycles:  290575877 heartbeat IPC: 0.41196 cumulative IPC: 0.63896 (Simulation time: 0 hr 37 min 8 sec) 
Heartbeat CPU  0 instructions:  188000000 cycles:  292991486 heartbeat IPC: 0.41397 cumulative IPC: 0.63710 (Simulation time: 0 hr 37 min 16 sec) 
Heartbeat CPU  0 instructions:  189000000 cycles:  295475400 heartbeat IPC: 0.40259 cumulative IPC: 0.63512 (Simulation time: 0 hr 37 min 24 sec) 
Heartbeat CPU  0 instructions:  190000001 cycles:  297871695 heartbeat IPC: 0.41731 cumulative IPC: 0.63336 (Simulation time: 0 hr 37 min 32 sec) 
Heartbeat CPU  0 instructions:  191000002 cycles:  300316350 heartbeat IPC: 0.40906 cumulative IPC: 0.63153 (Simulation time: 0 hr 37 min 39 sec) 
Heartbeat CPU  0 instructions:  192000000 cycles:  302723941 heartbeat IPC: 0.41535 cumulative IPC: 0.62980 (Simulation time: 0 hr 37 min 47 sec) 
Heartbeat CPU  0 instructions:  193000000 cycles:  305139588 heartbeat IPC: 0.41397 cumulative IPC: 0.62809 (Simulation time: 0 hr 37 min 55 sec) 
Heartbeat CPU  0 instructions:  194000002 cycles:  307553029 heartbeat IPC: 0.41435 cumulative IPC: 0.62640 (Simulation time: 0 hr 38 min 3 sec) 
Heartbeat CPU  0 instructions:  195000003 cycles:  310096486 heartbeat IPC: 0.39317 cumulative IPC: 0.62448 (Simulation time: 0 hr 38 min 10 sec) 
Heartbeat CPU  0 instructions:  196000000 cycles:  312592719 heartbeat IPC: 0.40060 cumulative IPC: 0.62269 (Simulation time: 0 hr 38 min 17 sec) 
Heartbeat CPU  0 instructions:  197000000 cycles:  315020401 heartbeat IPC: 0.41192 cumulative IPC: 0.62106 (Simulation time: 0 hr 38 min 25 sec) 
Heartbeat CPU  0 instructions:  198000000 cycles:  317454503 heartbeat IPC: 0.41083 cumulative IPC: 0.61944 (Simulation time: 0 hr 38 min 33 sec) 
Heartbeat CPU  0 instructions:  199000002 cycles:  319862751 heartbeat IPC: 0.41524 cumulative IPC: 0.61790 (Simulation time: 0 hr 38 min 41 sec) 
Heartbeat CPU  0 instructions:  200000000 cycles:  322266006 heartbeat IPC: 0.41610 cumulative IPC: 0.61639 (Simulation time: 0 hr 38 min 49 sec) 
Heartbeat CPU  0 instructions:  201000003 cycles:  323987227 heartbeat IPC: 0.58098 cumulative IPC: 0.61620 (Simulation time: 0 hr 38 min 53 sec) 
Heartbeat CPU  0 instructions:  202000000 cycles:  324630860 heartbeat IPC: 1.55368 cumulative IPC: 0.61807 (Simulation time: 0 hr 38 min 55 sec) 
Heartbeat CPU  0 instructions:  203000000 cycles:  325208996 heartbeat IPC: 1.72970 cumulative IPC: 0.62005 (Simulation time: 0 hr 39 min 11 sec) 
Heartbeat CPU  0 instructions:  204000000 cycles:  325814085 heartbeat IPC: 1.65265 cumulative IPC: 0.62197 (Simulation time: 0 hr 39 min 27 sec) 
Heartbeat CPU  0 instructions:  205000001 cycles:  326390192 heartbeat IPC: 1.73579 cumulative IPC: 0.62395 (Simulation time: 0 hr 39 min 43 sec) 
Heartbeat CPU  0 instructions:  206000000 cycles:  326933010 heartbeat IPC: 1.84224 cumulative IPC: 0.62598 (Simulation time: 0 hr 40 min 0 sec) 
Heartbeat CPU  0 instructions:  207000001 cycles:  327490751 heartbeat IPC: 1.79295 cumulative IPC: 0.62797 (Simulation time: 0 hr 40 min 19 sec) 
Heartbeat CPU  0 instructions:  208000000 cycles:  328071283 heartbeat IPC: 1.72256 cumulative IPC: 0.62991 (Simulation time: 0 hr 40 min 37 sec) 
Heartbeat CPU  0 instructions:  209000003 cycles:  328644782 heartbeat IPC: 1.74369 cumulative IPC: 0.63186 (Simulation time: 0 hr 40 min 53 sec) 
Heartbeat CPU  0 instructions:  210000003 cycles:  329218597 heartbeat IPC: 1.74272 cumulative IPC: 0.63380 (Simulation time: 0 hr 41 min 9 sec) 
Heartbeat CPU  0 instructions:  211000000 cycles:  329779691 heartbeat IPC: 1.78223 cumulative IPC: 0.63576 (Simulation time: 0 hr 41 min 27 sec) 
Heartbeat CPU  0 instructions:  212000000 cycles:  330407276 heartbeat IPC: 1.59341 cumulative IPC: 0.63759 (Simulation time: 0 hr 41 min 47 sec) 
Heartbeat CPU  0 instructions:  213000002 cycles:  331166856 heartbeat IPC: 1.31652 cumulative IPC: 0.63915 (Simulation time: 0 hr 42 min 13 sec) 
Heartbeat CPU  0 instructions:  214000002 cycles:  331896971 heartbeat IPC: 1.36965 cumulative IPC: 0.64076 (Simulation time: 0 hr 42 min 40 sec) 
Heartbeat CPU  0 instructions:  215000003 cycles:  332627266 heartbeat IPC: 1.36931 cumulative IPC: 0.64237 (Simulation time: 0 hr 43 min 5 sec) 
Heartbeat CPU  0 instructions:  216000000 cycles:  333395314 heartbeat IPC: 1.30200 cumulative IPC: 0.64389 (Simulation time: 0 hr 43 min 30 sec) 
Heartbeat CPU  0 instructions:  217000003 cycles:  334129260 heartbeat IPC: 1.36250 cumulative IPC: 0.64548 (Simulation time: 0 hr 43 min 58 sec) 
Heartbeat CPU  0 instructions:  218000002 cycles:  334855434 heartbeat IPC: 1.37708 cumulative IPC: 0.64707 (Simulation time: 0 hr 44 min 24 sec) 
Heartbeat CPU  0 instructions:  219000000 cycles:  335606522 heartbeat IPC: 1.33140 cumulative IPC: 0.64860 (Simulation time: 0 hr 44 min 49 sec) 
Heartbeat CPU  0 instructions:  220000000 cycles:  336357540 heartbeat IPC: 1.33153 cumulative IPC: 0.65013 (Simulation time: 0 hr 45 min 15 sec) 
Heartbeat CPU  0 instructions:  221000003 cycles:  337084128 heartbeat IPC: 1.37630 cumulative IPC: 0.65170 (Simulation time: 0 hr 45 min 43 sec) 
Heartbeat CPU  0 instructions:  222000002 cycles:  337916637 heartbeat IPC: 1.20119 cumulative IPC: 0.65306 (Simulation time: 0 hr 46 min 9 sec) 
Heartbeat CPU  0 instructions:  223000000 cycles:  338762418 heartbeat IPC: 1.18234 cumulative IPC: 0.65439 (Simulation time: 0 hr 46 min 40 sec) 
Heartbeat CPU  0 instructions:  224000000 cycles:  339607023 heartbeat IPC: 1.18399 cumulative IPC: 0.65571 (Simulation time: 0 hr 47 min 8 sec) 
Heartbeat CPU  0 instructions:  225000002 cycles:  340370423 heartbeat IPC: 1.30993 cumulative IPC: 0.65718 (Simulation time: 0 hr 47 min 36 sec) 
Heartbeat CPU  0 instructions:  226000000 cycles:  341094487 heartbeat IPC: 1.38109 cumulative IPC: 0.65872 (Simulation time: 0 hr 48 min 4 sec) 
Heartbeat CPU  0 instructions:  227000000 cycles:  341825738 heartbeat IPC: 1.36752 cumulative IPC: 0.66024 (Simulation time: 0 hr 48 min 31 sec) 
Heartbeat CPU  0 instructions:  228000000 cycles:  342607301 heartbeat IPC: 1.27949 cumulative IPC: 0.66166 (Simulation time: 0 hr 48 min 59 sec) 
Heartbeat CPU  0 instructions:  229000001 cycles:  343329208 heartbeat IPC: 1.38522 cumulative IPC: 0.66318 (Simulation time: 0 hr 49 min 26 sec) 
Heartbeat CPU  0 instructions:  230000001 cycles:  344054627 heartbeat IPC: 1.37851 cumulative IPC: 0.66470 (Simulation time: 0 hr 49 min 53 sec) 
Heartbeat CPU  0 instructions:  231000000 cycles:  344800318 heartbeat IPC: 1.34104 cumulative IPC: 0.66616 (Simulation time: 0 hr 50 min 20 sec) 
Heartbeat CPU  0 instructions:  232000000 cycles:  345561413 heartbeat IPC: 1.31390 cumulative IPC: 0.66760 (Simulation time: 0 hr 50 min 47 sec) 
Heartbeat CPU  0 instructions:  233000003 cycles:  346288990 heartbeat IPC: 1.37443 cumulative IPC: 0.66909 (Simulation time: 0 hr 51 min 15 sec) 
Heartbeat CPU  0 instructions:  234000001 cycles:  347017202 heartbeat IPC: 1.37322 cumulative IPC: 0.67057 (Simulation time: 0 hr 51 min 41 sec) 
Heartbeat CPU  0 instructions:  235000001 cycles:  347794020 heartbeat IPC: 1.28730 cumulative IPC: 0.67195 (Simulation time: 0 hr 52 min 7 sec) 
Heartbeat CPU  0 instructions:  236000000 cycles:  348533694 heartbeat IPC: 1.35195 cumulative IPC: 0.67340 (Simulation time: 0 hr 52 min 34 sec) 
Heartbeat CPU  0 instructions:  237000000 cycles:  349255672 heartbeat IPC: 1.38508 cumulative IPC: 0.67487 (Simulation time: 0 hr 53 min 0 sec) 
Heartbeat CPU  0 instructions:  238000001 cycles:  349987472 heartbeat IPC: 1.36649 cumulative IPC: 0.67632 (Simulation time: 0 hr 53 min 25 sec) 
Heartbeat CPU  0 instructions:  239000002 cycles:  350802109 heartbeat IPC: 1.22754 cumulative IPC: 0.67761 (Simulation time: 0 hr 53 min 55 sec) 
Heartbeat CPU  0 instructions:  240000000 cycles:  351709262 heartbeat IPC: 1.10235 cumulative IPC: 0.67871 (Simulation time: 0 hr 54 min 21 sec) 
Heartbeat CPU  0 instructions:  241000003 cycles:  352444418 heartbeat IPC: 1.36026 cumulative IPC: 0.68013 (Simulation time: 0 hr 54 min 48 sec) 
Heartbeat CPU  0 instructions:  242000002 cycles:  353178374 heartbeat IPC: 1.36248 cumulative IPC: 0.68155 (Simulation time: 0 hr 55 min 15 sec) 
Heartbeat CPU  0 instructions:  243000003 cycles:  353918151 heartbeat IPC: 1.35176 cumulative IPC: 0.68296 (Simulation time: 0 hr 55 min 43 sec) 
Heartbeat CPU  0 instructions:  244000000 cycles:  354686387 heartbeat IPC: 1.30168 cumulative IPC: 0.68430 (Simulation time: 0 hr 56 min 14 sec) 
Heartbeat CPU  0 instructions:  245000000 cycles:  355405442 heartbeat IPC: 1.39071 cumulative IPC: 0.68574 (Simulation time: 0 hr 56 min 41 sec) 
Heartbeat CPU  0 instructions:  246000003 cycles:  356123440 heartbeat IPC: 1.39277 cumulative IPC: 0.68717 (Simulation time: 0 hr 57 min 8 sec) 
Heartbeat CPU  0 instructions:  247000001 cycles:  356888619 heartbeat IPC: 1.30688 cumulative IPC: 0.68850 (Simulation time: 0 hr 57 min 35 sec) 
Heartbeat CPU  0 instructions:  248000000 cycles:  357619352 heartbeat IPC: 1.36849 cumulative IPC: 0.68989 (Simulation time: 0 hr 58 min 2 sec) 
Heartbeat CPU  0 instructions:  249000001 cycles:  358330854 heartbeat IPC: 1.40548 cumulative IPC: 0.69132 (Simulation time: 0 hr 58 min 29 sec) 
Heartbeat CPU  0 instructions:  250000002 cycles:  359062006 heartbeat IPC: 1.36771 cumulative IPC: 0.69270 (Simulation time: 0 hr 58 min 56 sec) 
Heartbeat CPU  0 instructions:  251000000 cycles:  359816553 heartbeat IPC: 1.32530 cumulative IPC: 0.69403 (Simulation time: 0 hr 59 min 21 sec) 
Heartbeat CPU  0 instructions:  252000000 cycles:  360535601 heartbeat IPC: 1.39073 cumulative IPC: 0.69542 (Simulation time: 0 hr 59 min 47 sec) 
Heartbeat CPU  0 instructions:  253000001 cycles:  361251977 heartbeat IPC: 1.39592 cumulative IPC: 0.69681 (Simulation time: 1 hr 0 min 13 sec) 
Heartbeat CPU  0 instructions:  254000003 cycles:  361994884 heartbeat IPC: 1.34607 cumulative IPC: 0.69815 (Simulation time: 1 hr 0 min 39 sec) 
Heartbeat CPU  0 instructions:  255000001 cycles:  362783012 heartbeat IPC: 1.26883 cumulative IPC: 0.69939 (Simulation time: 1 hr 1 min 6 sec) 
Heartbeat CPU  0 instructions:  256000000 cycles:  363611688 heartbeat IPC: 1.20674 cumulative IPC: 0.70055 (Simulation time: 1 hr 1 min 30 sec) 
Heartbeat CPU  0 instructions:  257000002 cycles:  364400391 heartbeat IPC: 1.26791 cumulative IPC: 0.70179 (Simulation time: 1 hr 1 min 56 sec) 
Heartbeat CPU  0 instructions:  258000001 cycles:  365154895 heartbeat IPC: 1.32537 cumulative IPC: 0.70308 (Simulation time: 1 hr 2 min 21 sec) 
Heartbeat CPU  0 instructions:  259000002 cycles:  365967721 heartbeat IPC: 1.23028 cumulative IPC: 0.70425 (Simulation time: 1 hr 2 min 47 sec) 
Heartbeat CPU  0 instructions:  260000000 cycles:  366760127 heartbeat IPC: 1.26198 cumulative IPC: 0.70546 (Simulation time: 1 hr 3 min 15 sec) 
Heartbeat CPU  0 instructions:  261000003 cycles:  367513355 heartbeat IPC: 1.32762 cumulative IPC: 0.70674 (Simulation time: 1 hr 3 min 40 sec) 
Heartbeat CPU  0 instructions:  262000003 cycles:  368272746 heartbeat IPC: 1.31684 cumulative IPC: 0.70800 (Simulation time: 1 hr 4 min 5 sec) 
Heartbeat CPU  0 instructions:  263000003 cycles:  369089159 heartbeat IPC: 1.22487 cumulative IPC: 0.70915 (Simulation time: 1 hr 4 min 33 sec) 
Heartbeat CPU  0 instructions:  264000000 cycles:  369847643 heartbeat IPC: 1.31842 cumulative IPC: 0.71040 (Simulation time: 1 hr 4 min 57 sec) 
Heartbeat CPU  0 instructions:  265000001 cycles:  370591004 heartbeat IPC: 1.34524 cumulative IPC: 0.71168 (Simulation time: 1 hr 5 min 22 sec) 
Heartbeat CPU  0 instructions:  266000000 cycles:  371370974 heartbeat IPC: 1.28210 cumulative IPC: 0.71288 (Simulation time: 1 hr 5 min 49 sec) 
Heartbeat CPU  0 instructions:  267000000 cycles:  372170893 heartbeat IPC: 1.25013 cumulative IPC: 0.71404 (Simulation time: 1 hr 6 min 14 sec) 
Heartbeat CPU  0 instructions:  268000000 cycles:  372927644 heartbeat IPC: 1.32144 cumulative IPC: 0.71527 (Simulation time: 1 hr 6 min 42 sec) 
Heartbeat CPU  0 instructions:  269000001 cycles:  373682794 heartbeat IPC: 1.32424 cumulative IPC: 0.71651 (Simulation time: 1 hr 7 min 7 sec) 
Heartbeat CPU  0 instructions:  270000003 cycles:  374479985 heartbeat IPC: 1.25441 cumulative IPC: 0.71766 (Simulation time: 1 hr 7 min 33 sec) 
Heartbeat CPU  0 instructions:  271000000 cycles:  375253394 heartbeat IPC: 1.29297 cumulative IPC: 0.71884 (Simulation time: 1 hr 7 min 58 sec) 
Heartbeat CPU  0 instructions:  272000000 cycles:  376075590 heartbeat IPC: 1.21625 cumulative IPC: 0.71993 (Simulation time: 1 hr 8 min 22 sec) 
Heartbeat CPU  0 instructions:  273000002 cycles:  376886311 heartbeat IPC: 1.23347 cumulative IPC: 0.72104 (Simulation time: 1 hr 8 min 45 sec) 
Heartbeat CPU  0 instructions:  274000003 cycles:  377640534 heartbeat IPC: 1.32587 cumulative IPC: 0.72225 (Simulation time: 1 hr 9 min 13 sec) 
Heartbeat CPU  0 instructions:  275000002 cycles:  378384086 heartbeat IPC: 1.34489 cumulative IPC: 0.72348 (Simulation time: 1 hr 9 min 34 sec) 
Heartbeat CPU  0 instructions:  276000000 cycles:  379135131 heartbeat IPC: 1.33148 cumulative IPC: 0.72469 (Simulation time: 1 hr 9 min 58 sec) 
Heartbeat CPU  0 instructions:  277000000 cycles:  379866606 heartbeat IPC: 1.36710 cumulative IPC: 0.72593 (Simulation time: 1 hr 10 min 22 sec) 
Heartbeat CPU  0 instructions:  278000001 cycles:  380620574 heartbeat IPC: 1.32632 cumulative IPC: 0.72712 (Simulation time: 1 hr 10 min 47 sec) 
Heartbeat CPU  0 instructions:  279000003 cycles:  381354269 heartbeat IPC: 1.36297 cumulative IPC: 0.72835 (Simulation time: 1 hr 11 min 7 sec) 
Heartbeat CPU  0 instructions:  280000000 cycles:  382083462 heartbeat IPC: 1.37137 cumulative IPC: 0.72958 (Simulation time: 1 hr 11 min 31 sec) 
Heartbeat CPU  0 instructions:  281000001 cycles:  382819830 heartbeat IPC: 1.35802 cumulative IPC: 0.73079 (Simulation time: 1 hr 11 min 53 sec) 
Heartbeat CPU  0 instructions:  282000000 cycles:  383554001 heartbeat IPC: 1.36208 cumulative IPC: 0.73200 (Simulation time: 1 hr 12 min 15 sec) 
Heartbeat CPU  0 instructions:  283000001 cycles:  384304539 heartbeat IPC: 1.33238 cumulative IPC: 0.73318 (Simulation time: 1 hr 12 min 38 sec) 
Heartbeat CPU  0 instructions:  284000000 cycles:  385034574 heartbeat IPC: 1.36980 cumulative IPC: 0.73439 (Simulation time: 1 hr 13 min 3 sec) 
Heartbeat CPU  0 instructions:  285000000 cycles:  385779375 heartbeat IPC: 1.34264 cumulative IPC: 0.73557 (Simulation time: 1 hr 13 min 25 sec) 
Heartbeat CPU  0 instructions:  286000002 cycles:  386522662 heartbeat IPC: 1.34538 cumulative IPC: 0.73674 (Simulation time: 1 hr 13 min 49 sec) 
Heartbeat CPU  0 instructions:  287000002 cycles:  387259728 heartbeat IPC: 1.35673 cumulative IPC: 0.73792 (Simulation time: 1 hr 14 min 12 sec) 
Heartbeat CPU  0 instructions:  288000000 cycles:  387997059 heartbeat IPC: 1.35624 cumulative IPC: 0.73910 (Simulation time: 1 hr 14 min 36 sec) 
Heartbeat CPU  0 instructions:  289000000 cycles:  388826526 heartbeat IPC: 1.20559 cumulative IPC: 0.74010 (Simulation time: 1 hr 14 min 57 sec) 
Heartbeat CPU  0 instructions:  290000001 cycles:  389662267 heartbeat IPC: 1.19654 cumulative IPC: 0.74108 (Simulation time: 1 hr 15 min 19 sec) 
Heartbeat CPU  0 instructions:  291000000 cycles:  390411938 heartbeat IPC: 1.33392 cumulative IPC: 0.74222 (Simulation time: 1 hr 15 min 44 sec) 
Heartbeat CPU  0 instructions:  292000000 cycles:  391138475 heartbeat IPC: 1.37639 cumulative IPC: 0.74340 (Simulation time: 1 hr 16 min 9 sec) 
Heartbeat CPU  0 instructions:  293000002 cycles:  391868575 heartbeat IPC: 1.36968 cumulative IPC: 0.74457 (Simulation time: 1 hr 16 min 32 sec) 
Heartbeat CPU  0 instructions:  294000002 cycles:  392599223 heartbeat IPC: 1.36865 cumulative IPC: 0.74574 (Simulation time: 1 hr 16 min 55 sec) 
Heartbeat CPU  0 instructions:  295000001 cycles:  393346962 heartbeat IPC: 1.33736 cumulative IPC: 0.74687 (Simulation time: 1 hr 17 min 20 sec) 
Heartbeat CPU  0 instructions:  296000000 cycles:  394074770 heartbeat IPC: 1.37399 cumulative IPC: 0.74803 (Simulation time: 1 hr 17 min 45 sec) 
Heartbeat CPU  0 instructions:  297000000 cycles:  394809967 heartbeat IPC: 1.36018 cumulative IPC: 0.74917 (Simulation time: 1 hr 18 min 4 sec) 
Heartbeat CPU  0 instructions:  298000001 cycles:  395545693 heartbeat IPC: 1.35920 cumulative IPC: 0.75031 (Simulation time: 1 hr 18 min 25 sec) 
Heartbeat CPU  0 instructions:  299000003 cycles:  396278292 heartbeat IPC: 1.36501 cumulative IPC: 0.75145 (Simulation time: 1 hr 18 min 48 sec) 
Heartbeat CPU  0 instructions:  300000000 cycles:  397038045 heartbeat IPC: 1.31621 cumulative IPC: 0.75253 (Simulation time: 1 hr 19 min 9 sec) 
Heartbeat CPU  0 instructions:  301000000 cycles:  397796859 heartbeat IPC: 1.31785 cumulative IPC: 0.75361 (Simulation time: 1 hr 19 min 31 sec) 
Heartbeat CPU  0 instructions:  302000001 cycles:  398528551 heartbeat IPC: 1.36670 cumulative IPC: 0.75474 (Simulation time: 1 hr 19 min 51 sec) 
Heartbeat CPU  0 instructions:  303000002 cycles:  399262388 heartbeat IPC: 1.36270 cumulative IPC: 0.75586 (Simulation time: 1 hr 20 min 9 sec) 
Heartbeat CPU  0 instructions:  304000000 cycles:  400011623 heartbeat IPC: 1.33469 cumulative IPC: 0.75695 (Simulation time: 1 hr 20 min 24 sec) 
Heartbeat CPU  0 instructions:  305000002 cycles:  400819959 heartbeat IPC: 1.23711 cumulative IPC: 0.75792 (Simulation time: 1 hr 20 min 44 sec) 
Heartbeat CPU  0 instructions:  306000003 cycles:  401635472 heartbeat IPC: 1.22622 cumulative IPC: 0.75887 (Simulation time: 1 hr 21 min 3 sec) 
Heartbeat CPU  0 instructions:  307000003 cycles:  402417340 heartbeat IPC: 1.27899 cumulative IPC: 0.75989 (Simulation time: 1 hr 21 min 23 sec) 
Heartbeat CPU  0 instructions:  308000000 cycles:  403167408 heartbeat IPC: 1.33321 cumulative IPC: 0.76096 (Simulation time: 1 hr 21 min 43 sec) 
Heartbeat CPU  0 instructions:  309000002 cycles:  403910227 heartbeat IPC: 1.34623 cumulative IPC: 0.76203 (Simulation time: 1 hr 21 min 59 sec) 
Heartbeat CPU  0 instructions:  310000000 cycles:  404646117 heartbeat IPC: 1.35890 cumulative IPC: 0.76312 (Simulation time: 1 hr 22 min 15 sec) 
Heartbeat CPU  0 instructions:  311000003 cycles:  405377129 heartbeat IPC: 1.36797 cumulative IPC: 0.76422 (Simulation time: 1 hr 22 min 35 sec) 
Heartbeat CPU  0 instructions:  312000000 cycles:  406129299 heartbeat IPC: 1.32948 cumulative IPC: 0.76527 (Simulation time: 1 hr 22 min 55 sec) 
Heartbeat CPU  0 instructions:  313000001 cycles:  406883256 heartbeat IPC: 1.32634 cumulative IPC: 0.76631 (Simulation time: 1 hr 23 min 12 sec) 
Heartbeat CPU  0 instructions:  314000001 cycles:  407635882 heartbeat IPC: 1.32868 cumulative IPC: 0.76735 (Simulation time: 1 hr 23 min 36 sec) 
Heartbeat CPU  0 instructions:  315000000 cycles:  408352508 heartbeat IPC: 1.39543 cumulative IPC: 0.76845 (Simulation time: 1 hr 24 min 0 sec) 
Heartbeat CPU  0 instructions:  316000000 cycles:  409075123 heartbeat IPC: 1.38386 cumulative IPC: 0.76954 (Simulation time: 1 hr 24 min 24 sec) 
Heartbeat CPU  0 instructions:  317000001 cycles:  409829013 heartbeat IPC: 1.32645 cumulative IPC: 0.77057 (Simulation time: 1 hr 24 min 49 sec) 
Heartbeat CPU  0 instructions:  318000000 cycles:  410565297 heartbeat IPC: 1.35817 cumulative IPC: 0.77163 (Simulation time: 1 hr 25 min 16 sec) 
Heartbeat CPU  0 instructions:  319000000 cycles:  411272480 heartbeat IPC: 1.41406 cumulative IPC: 0.77274 (Simulation time: 1 hr 25 min 38 sec) 
Heartbeat CPU  0 instructions:  320000000 cycles:  411999831 heartbeat IPC: 1.37485 cumulative IPC: 0.77380 (Simulation time: 1 hr 26 min 1 sec) 
Heartbeat CPU  0 instructions:  321000002 cycles:  412774769 heartbeat IPC: 1.29043 cumulative IPC: 0.77477 (Simulation time: 1 hr 26 min 25 sec) 
Heartbeat CPU  0 instructions:  322000001 cycles:  413549521 heartbeat IPC: 1.29073 cumulative IPC: 0.77574 (Simulation time: 1 hr 26 min 49 sec) 
Heartbeat CPU  0 instructions:  323000000 cycles:  414338683 heartbeat IPC: 1.26717 cumulative IPC: 0.77668 (Simulation time: 1 hr 27 min 12 sec) 
Heartbeat CPU  0 instructions:  324000000 cycles:  415123851 heartbeat IPC: 1.27361 cumulative IPC: 0.77762 (Simulation time: 1 hr 27 min 36 sec) 
Heartbeat CPU  0 instructions:  325000000 cycles:  415910112 heartbeat IPC: 1.27184 cumulative IPC: 0.77856 (Simulation time: 1 hr 28 min 1 sec) 
Heartbeat CPU  0 instructions:  326000003 cycles:  416701863 heartbeat IPC: 1.26303 cumulative IPC: 0.77948 (Simulation time: 1 hr 28 min 27 sec) 
Heartbeat CPU  0 instructions:  327000003 cycles:  417449403 heartbeat IPC: 1.33772 cumulative IPC: 0.78048 (Simulation time: 1 hr 28 min 50 sec) 
Heartbeat CPU  0 instructions:  328000000 cycles:  418210188 heartbeat IPC: 1.31443 cumulative IPC: 0.78146 (Simulation time: 1 hr 29 min 13 sec) 
Heartbeat CPU  0 instructions:  329000001 cycles:  418997340 heartbeat IPC: 1.27040 cumulative IPC: 0.78238 (Simulation time: 1 hr 29 min 36 sec) 
Heartbeat CPU  0 instructions:  330000000 cycles:  419781994 heartbeat IPC: 1.27445 cumulative IPC: 0.78330 (Simulation time: 1 hr 30 min 2 sec) 
Heartbeat CPU  0 instructions:  331000001 cycles:  420522705 heartbeat IPC: 1.35006 cumulative IPC: 0.78430 (Simulation time: 1 hr 30 min 25 sec) 
Heartbeat CPU  0 instructions:  332000000 cycles:  421299114 heartbeat IPC: 1.28798 cumulative IPC: 0.78523 (Simulation time: 1 hr 30 min 49 sec) 
Heartbeat CPU  0 instructions:  333000002 cycles:  422100360 heartbeat IPC: 1.24806 cumulative IPC: 0.78611 (Simulation time: 1 hr 31 min 15 sec) 
Heartbeat CPU  0 instructions:  334000002 cycles:  422868348 heartbeat IPC: 1.30210 cumulative IPC: 0.78705 (Simulation time: 1 hr 31 min 41 sec) 
Heartbeat CPU  0 instructions:  335000001 cycles:  423624270 heartbeat IPC: 1.32289 cumulative IPC: 0.78801 (Simulation time: 1 hr 32 min 6 sec) 
Heartbeat CPU  0 instructions:  336000000 cycles:  424399869 heartbeat IPC: 1.28932 cumulative IPC: 0.78893 (Simulation time: 1 hr 32 min 31 sec) 
Heartbeat CPU  0 instructions:  337000001 cycles:  425175251 heartbeat IPC: 1.28969 cumulative IPC: 0.78985 (Simulation time: 1 hr 32 min 57 sec) 
Heartbeat CPU  0 instructions:  338000001 cycles:  425957100 heartbeat IPC: 1.27902 cumulative IPC: 0.79075 (Simulation time: 1 hr 33 min 23 sec) 
Heartbeat CPU  0 instructions:  339000000 cycles:  426626288 heartbeat IPC: 1.49435 cumulative IPC: 0.79185 (Simulation time: 1 hr 33 min 43 sec) 
Heartbeat CPU  0 instructions:  340000000 cycles:  427076239 heartbeat IPC: 2.22246 cumulative IPC: 0.79336 (Simulation time: 1 hr 33 min 52 sec) 
Heartbeat CPU  0 instructions:  341000000 cycles:  427477481 heartbeat IPC: 2.49226 cumulative IPC: 0.79496 (Simulation time: 1 hr 33 min 55 sec) 
Heartbeat CPU  0 instructions:  342000001 cycles:  428177790 heartbeat IPC: 1.42794 cumulative IPC: 0.79600 (Simulation time: 1 hr 34 min 0 sec) 
Heartbeat CPU  0 instructions:  343000001 cycles:  429063793 heartbeat IPC: 1.12866 cumulative IPC: 0.79669 (Simulation time: 1 hr 34 min 10 sec) 
Heartbeat CPU  0 instructions:  344000000 cycles:  429810692 heartbeat IPC: 1.33887 cumulative IPC: 0.79763 (Simulation time: 1 hr 34 min 19 sec) 
Heartbeat CPU  0 instructions:  345000002 cycles:  430580228 heartbeat IPC: 1.29949 cumulative IPC: 0.79853 (Simulation time: 1 hr 34 min 29 sec) 
Heartbeat CPU  0 instructions:  346000001 cycles:  431345655 heartbeat IPC: 1.30646 cumulative IPC: 0.79943 (Simulation time: 1 hr 34 min 39 sec) 
Heartbeat CPU  0 instructions:  347000000 cycles:  432120008 heartbeat IPC: 1.29140 cumulative IPC: 0.80032 (Simulation time: 1 hr 34 min 48 sec) 
Heartbeat CPU  0 instructions:  348000000 cycles:  432899527 heartbeat IPC: 1.28284 cumulative IPC: 0.80119 (Simulation time: 1 hr 34 min 57 sec) 
Heartbeat CPU  0 instructions:  349000000 cycles:  433677148 heartbeat IPC: 1.28597 cumulative IPC: 0.80206 (Simulation time: 1 hr 35 min 6 sec) 
Heartbeat CPU  0 instructions:  350000003 cycles:  434458259 heartbeat IPC: 1.28023 cumulative IPC: 0.80292 (Simulation time: 1 hr 35 min 14 sec) 
Heartbeat CPU  0 instructions:  351000003 cycles:  435232403 heartbeat IPC: 1.29175 cumulative IPC: 0.80379 (Simulation time: 1 hr 35 min 23 sec) 
Heartbeat CPU  0 instructions:  352000000 cycles:  436010151 heartbeat IPC: 1.28576 cumulative IPC: 0.80466 (Simulation time: 1 hr 35 min 32 sec) 
Heartbeat CPU  0 instructions:  353000000 cycles:  436812711 heartbeat IPC: 1.24601 cumulative IPC: 0.80547 (Simulation time: 1 hr 35 min 41 sec) 
Heartbeat CPU  0 instructions:  354000000 cycles:  437863487 heartbeat IPC: 0.95168 cumulative IPC: 0.80582 (Simulation time: 1 hr 35 min 54 sec) 
Heartbeat CPU  0 instructions:  355000000 cycles:  438917891 heartbeat IPC: 0.94840 cumulative IPC: 0.80616 (Simulation time: 1 hr 36 min 6 sec) 
Heartbeat CPU  0 instructions:  356000000 cycles:  439983840 heartbeat IPC: 0.93813 cumulative IPC: 0.80648 (Simulation time: 1 hr 36 min 18 sec) 
Heartbeat CPU  0 instructions:  357000003 cycles:  441045770 heartbeat IPC: 0.94168 cumulative IPC: 0.80681 (Simulation time: 1 hr 36 min 30 sec) 
Heartbeat CPU  0 instructions:  358000000 cycles:  442100833 heartbeat IPC: 0.94781 cumulative IPC: 0.80715 (Simulation time: 1 hr 36 min 43 sec) 
Heartbeat CPU  0 instructions:  359000001 cycles:  443133847 heartbeat IPC: 0.96804 cumulative IPC: 0.80752 (Simulation time: 1 hr 36 min 55 sec) 
Heartbeat CPU  0 instructions:  360000000 cycles:  444184868 heartbeat IPC: 0.95145 cumulative IPC: 0.80787 (Simulation time: 1 hr 37 min 7 sec) 
Heartbeat CPU  0 instructions:  361000001 cycles:  445239831 heartbeat IPC: 0.94790 cumulative IPC: 0.80820 (Simulation time: 1 hr 37 min 19 sec) 
Heartbeat CPU  0 instructions:  362000001 cycles:  446287402 heartbeat IPC: 0.95459 cumulative IPC: 0.80854 (Simulation time: 1 hr 37 min 31 sec) 
Heartbeat CPU  0 instructions:  363000001 cycles:  447352788 heartbeat IPC: 0.93863 cumulative IPC: 0.80885 (Simulation time: 1 hr 37 min 44 sec) 
Heartbeat CPU  0 instructions:  364000000 cycles:  448422919 heartbeat IPC: 0.93446 cumulative IPC: 0.80915 (Simulation time: 1 hr 37 min 56 sec) 
Heartbeat CPU  0 instructions:  365000002 cycles:  449491718 heartbeat IPC: 0.93563 cumulative IPC: 0.80945 (Simulation time: 1 hr 38 min 9 sec) 
Heartbeat CPU  0 instructions:  366000001 cycles:  450565205 heartbeat IPC: 0.93154 cumulative IPC: 0.80975 (Simulation time: 1 hr 38 min 22 sec) 
Heartbeat CPU  0 instructions:  367000002 cycles:  451635213 heartbeat IPC: 0.93457 cumulative IPC: 0.81004 (Simulation time: 1 hr 38 min 34 sec) 
Heartbeat CPU  0 instructions:  368000000 cycles:  452693443 heartbeat IPC: 0.94497 cumulative IPC: 0.81036 (Simulation time: 1 hr 38 min 46 sec) 
Heartbeat CPU  0 instructions:  369000001 cycles:  453766975 heartbeat IPC: 0.93151 cumulative IPC: 0.81065 (Simulation time: 1 hr 38 min 58 sec) 
Heartbeat CPU  0 instructions:  370000002 cycles:  454820156 heartbeat IPC: 0.94951 cumulative IPC: 0.81097 (Simulation time: 1 hr 39 min 8 sec) 
Heartbeat CPU  0 instructions:  371000002 cycles:  455931651 heartbeat IPC: 0.89969 cumulative IPC: 0.81118 (Simulation time: 1 hr 39 min 21 sec) 
Heartbeat CPU  0 instructions:  372000000 cycles:  456986632 heartbeat IPC: 0.94788 cumulative IPC: 0.81150 (Simulation time: 1 hr 39 min 35 sec) 
Heartbeat CPU  0 instructions:  373000000 cycles:  458042788 heartbeat IPC: 0.94683 cumulative IPC: 0.81181 (Simulation time: 1 hr 39 min 48 sec) 
Heartbeat CPU  0 instructions:  374000002 cycles:  459110702 heartbeat IPC: 0.93641 cumulative IPC: 0.81210 (Simulation time: 1 hr 40 min 1 sec) 
Heartbeat CPU  0 instructions:  375000000 cycles:  460184637 heartbeat IPC: 0.93115 cumulative IPC: 0.81238 (Simulation time: 1 hr 40 min 13 sec) 
Heartbeat CPU  0 instructions:  376000000 cycles:  461250507 heartbeat IPC: 0.93820 cumulative IPC: 0.81267 (Simulation time: 1 hr 40 min 25 sec) 
Heartbeat CPU  0 instructions:  377000003 cycles:  462318647 heartbeat IPC: 0.93621 cumulative IPC: 0.81296 (Simulation time: 1 hr 40 min 37 sec) 
Heartbeat CPU  0 instructions:  378000002 cycles:  463379005 heartbeat IPC: 0.94308 cumulative IPC: 0.81326 (Simulation time: 1 hr 40 min 49 sec) 
Heartbeat CPU  0 instructions:  379000000 cycles:  464443005 heartbeat IPC: 0.93985 cumulative IPC: 0.81355 (Simulation time: 1 hr 41 min 1 sec) 
Heartbeat CPU  0 instructions:  380000000 cycles:  465496632 heartbeat IPC: 0.94910 cumulative IPC: 0.81386 (Simulation time: 1 hr 41 min 13 sec) 
Heartbeat CPU  0 instructions:  381000002 cycles:  466569755 heartbeat IPC: 0.93186 cumulative IPC: 0.81413 (Simulation time: 1 hr 41 min 25 sec) 
Heartbeat CPU  0 instructions:  382000002 cycles:  467637853 heartbeat IPC: 0.93624 cumulative IPC: 0.81441 (Simulation time: 1 hr 41 min 38 sec) 
Heartbeat CPU  0 instructions:  383000002 cycles:  468689528 heartbeat IPC: 0.95086 cumulative IPC: 0.81472 (Simulation time: 1 hr 41 min 50 sec) 
Heartbeat CPU  0 instructions:  384000000 cycles:  469746253 heartbeat IPC: 0.94632 cumulative IPC: 0.81501 (Simulation time: 1 hr 42 min 2 sec) 
Heartbeat CPU  0 instructions:  385000003 cycles:  470815660 heartbeat IPC: 0.93510 cumulative IPC: 0.81529 (Simulation time: 1 hr 42 min 14 sec) 
Heartbeat CPU  0 instructions:  386000002 cycles:  471870853 heartbeat IPC: 0.94769 cumulative IPC: 0.81558 (Simulation time: 1 hr 42 min 27 sec) 
Heartbeat CPU  0 instructions:  387000001 cycles:  472934598 heartbeat IPC: 0.94007 cumulative IPC: 0.81586 (Simulation time: 1 hr 42 min 39 sec) 
Heartbeat CPU  0 instructions:  388000000 cycles:  473984929 heartbeat IPC: 0.95208 cumulative IPC: 0.81617 (Simulation time: 1 hr 42 min 51 sec) 
Heartbeat CPU  0 instructions:  389000002 cycles:  475071842 heartbeat IPC: 0.92004 cumulative IPC: 0.81640 (Simulation time: 1 hr 43 min 4 sec) 
Heartbeat CPU  0 instructions:  390000002 cycles:  476154969 heartbeat IPC: 0.92325 cumulative IPC: 0.81665 (Simulation time: 1 hr 43 min 17 sec) 
Heartbeat CPU  0 instructions:  391000002 cycles:  477224672 heartbeat IPC: 0.93484 cumulative IPC: 0.81691 (Simulation time: 1 hr 43 min 30 sec) 
Heartbeat CPU  0 instructions:  392000000 cycles:  478305656 heartbeat IPC: 0.92508 cumulative IPC: 0.81716 (Simulation time: 1 hr 43 min 42 sec) 
Heartbeat CPU  0 instructions:  393000001 cycles:  479379029 heartbeat IPC: 0.93164 cumulative IPC: 0.81741 (Simulation time: 1 hr 43 min 54 sec) 
Heartbeat CPU  0 instructions:  394000000 cycles:  480463241 heartbeat IPC: 0.92233 cumulative IPC: 0.81765 (Simulation time: 1 hr 44 min 5 sec) 
Heartbeat CPU  0 instructions:  395000000 cycles:  481466343 heartbeat IPC: 0.99691 cumulative IPC: 0.81803 (Simulation time: 1 hr 44 min 16 sec) 
Heartbeat CPU  0 instructions:  396000000 cycles:  482388273 heartbeat IPC: 1.08468 cumulative IPC: 0.81854 (Simulation time: 1 hr 44 min 29 sec) 
Heartbeat CPU  0 instructions:  397000002 cycles:  483314690 heartbeat IPC: 1.07943 cumulative IPC: 0.81904 (Simulation time: 1 hr 44 min 41 sec) 
Heartbeat CPU  0 instructions:  398000001 cycles:  484233530 heartbeat IPC: 1.08833 cumulative IPC: 0.81955 (Simulation time: 1 hr 44 min 53 sec) 
Heartbeat CPU  0 instructions:  399000000 cycles:  485154965 heartbeat IPC: 1.08526 cumulative IPC: 0.82006 (Simulation time: 1 hr 45 min 6 sec) 
Heartbeat CPU  0 instructions:  400000000 cycles:  486081555 heartbeat IPC: 1.07923 cumulative IPC: 0.82055 (Simulation time: 1 hr 45 min 17 sec) 
Heartbeat CPU  0 instructions:  401000001 cycles:  486999506 heartbeat IPC: 1.08938 cumulative IPC: 0.82106 (Simulation time: 1 hr 45 min 29 sec) 
Heartbeat CPU  0 instructions:  402000003 cycles:  487910954 heartbeat IPC: 1.09716 cumulative IPC: 0.82158 (Simulation time: 1 hr 45 min 41 sec) 
Heartbeat CPU  0 instructions:  403000003 cycles:  488820797 heartbeat IPC: 1.09909 cumulative IPC: 0.82209 (Simulation time: 1 hr 45 min 54 sec) 
Heartbeat CPU  0 instructions:  404000000 cycles:  489729602 heartbeat IPC: 1.10034 cumulative IPC: 0.82261 (Simulation time: 1 hr 46 min 6 sec) 
Heartbeat CPU  0 instructions:  405000002 cycles:  490635398 heartbeat IPC: 1.10400 cumulative IPC: 0.82313 (Simulation time: 1 hr 46 min 18 sec) 
Heartbeat CPU  0 instructions:  406000002 cycles:  491546679 heartbeat IPC: 1.09736 cumulative IPC: 0.82364 (Simulation time: 1 hr 46 min 30 sec) 
Heartbeat CPU  0 instructions:  407000002 cycles:  492449957 heartbeat IPC: 1.10708 cumulative IPC: 0.82416 (Simulation time: 1 hr 46 min 43 sec) 
Heartbeat CPU  0 instructions:  408000000 cycles:  493348544 heartbeat IPC: 1.11286 cumulative IPC: 0.82469 (Simulation time: 1 hr 46 min 55 sec) 
Heartbeat CPU  0 instructions:  409000003 cycles:  494248053 heartbeat IPC: 1.11172 cumulative IPC: 0.82521 (Simulation time: 1 hr 47 min 7 sec) 
Heartbeat CPU  0 instructions:  410000003 cycles:  495126109 heartbeat IPC: 1.13888 cumulative IPC: 0.82577 (Simulation time: 1 hr 47 min 18 sec) 
Heartbeat CPU  0 instructions:  411000000 cycles:  496231832 heartbeat IPC: 0.90438 cumulative IPC: 0.82595 (Simulation time: 1 hr 47 min 28 sec) 
Heartbeat CPU  0 instructions:  412000000 cycles:  497281896 heartbeat IPC: 0.95232 cumulative IPC: 0.82621 (Simulation time: 1 hr 47 min 41 sec) 
Heartbeat CPU  0 instructions:  413000000 cycles:  498337464 heartbeat IPC: 0.94736 cumulative IPC: 0.82647 (Simulation time: 1 hr 47 min 54 sec) 
Heartbeat CPU  0 instructions:  414000003 cycles:  499392140 heartbeat IPC: 0.94816 cumulative IPC: 0.82673 (Simulation time: 1 hr 48 min 6 sec) 
Heartbeat CPU  0 instructions:  415000000 cycles:  500427633 heartbeat IPC: 0.96572 cumulative IPC: 0.82702 (Simulation time: 1 hr 48 min 18 sec) 
Heartbeat CPU  0 instructions:  416000000 cycles:  501462815 heartbeat IPC: 0.96601 cumulative IPC: 0.82730 (Simulation time: 1 hr 48 min 30 sec) 
Heartbeat CPU  0 instructions:  417000003 cycles:  502488308 heartbeat IPC: 0.97514 cumulative IPC: 0.82761 (Simulation time: 1 hr 48 min 44 sec) 
Heartbeat CPU  0 instructions:  418000003 cycles:  503524763 heartbeat IPC: 0.96483 cumulative IPC: 0.82789 (Simulation time: 1 hr 48 min 56 sec) 
Heartbeat CPU  0 instructions:  419000003 cycles:  504544186 heartbeat IPC: 0.98095 cumulative IPC: 0.82820 (Simulation time: 1 hr 49 min 8 sec) 
Heartbeat CPU  0 instructions:  420000000 cycles:  505591446 heartbeat IPC: 0.95487 cumulative IPC: 0.82846 (Simulation time: 1 hr 49 min 19 sec) 
Heartbeat CPU  0 instructions:  421000002 cycles:  506639426 heartbeat IPC: 0.95422 cumulative IPC: 0.82872 (Simulation time: 1 hr 49 min 31 sec) 
Heartbeat CPU  0 instructions:  422000001 cycles:  507683954 heartbeat IPC: 0.95737 cumulative IPC: 0.82899 (Simulation time: 1 hr 49 min 44 sec) 
Heartbeat CPU  0 instructions:  423000001 cycles:  508739456 heartbeat IPC: 0.94742 cumulative IPC: 0.82923 (Simulation time: 1 hr 49 min 57 sec) 
Heartbeat CPU  0 instructions:  424000000 cycles:  509775414 heartbeat IPC: 0.96529 cumulative IPC: 0.82951 (Simulation time: 1 hr 50 min 9 sec) 
Heartbeat CPU  0 instructions:  425000000 cycles:  510835528 heartbeat IPC: 0.94329 cumulative IPC: 0.82975 (Simulation time: 1 hr 50 min 21 sec) 
Heartbeat CPU  0 instructions:  426000001 cycles:  511878490 heartbeat IPC: 0.95881 cumulative IPC: 0.83001 (Simulation time: 1 hr 50 min 33 sec) 
Heartbeat CPU  0 instructions:  427000002 cycles:  512946182 heartbeat IPC: 0.93660 cumulative IPC: 0.83023 (Simulation time: 1 hr 50 min 45 sec) 
Heartbeat CPU  0 instructions:  428000000 cycles:  514009465 heartbeat IPC: 0.94048 cumulative IPC: 0.83046 (Simulation time: 1 hr 50 min 58 sec) 
Heartbeat CPU  0 instructions:  429000000 cycles:  515077334 heartbeat IPC: 0.93644 cumulative IPC: 0.83068 (Simulation time: 1 hr 51 min 11 sec) 
Heartbeat CPU  0 instructions:  430000003 cycles:  516147578 heartbeat IPC: 0.93437 cumulative IPC: 0.83090 (Simulation time: 1 hr 51 min 24 sec) 
Heartbeat CPU  0 instructions:  431000003 cycles:  517220055 heartbeat IPC: 0.93242 cumulative IPC: 0.83111 (Simulation time: 1 hr 51 min 37 sec) 
Heartbeat CPU  0 instructions:  432000000 cycles:  518274131 heartbeat IPC: 0.94870 cumulative IPC: 0.83135 (Simulation time: 1 hr 51 min 49 sec) 
Heartbeat CPU  0 instructions:  433000000 cycles:  519335213 heartbeat IPC: 0.94243 cumulative IPC: 0.83157 (Simulation time: 1 hr 52 min 1 sec) 
Heartbeat CPU  0 instructions:  434000002 cycles:  520412913 heartbeat IPC: 0.92790 cumulative IPC: 0.83177 (Simulation time: 1 hr 52 min 13 sec) 
Heartbeat CPU  0 instructions:  435000002 cycles:  521470592 heartbeat IPC: 0.94547 cumulative IPC: 0.83201 (Simulation time: 1 hr 52 min 23 sec) 
Heartbeat CPU  0 instructions:  436000000 cycles:  522506895 heartbeat IPC: 0.96497 cumulative IPC: 0.83227 (Simulation time: 1 hr 52 min 35 sec) 
Heartbeat CPU  0 instructions:  437000000 cycles:  523541321 heartbeat IPC: 0.96672 cumulative IPC: 0.83254 (Simulation time: 1 hr 52 min 48 sec) 
Heartbeat CPU  0 instructions:  438000001 cycles:  524573557 heartbeat IPC: 0.96877 cumulative IPC: 0.83280 (Simulation time: 1 hr 53 min 1 sec) 
Heartbeat CPU  0 instructions:  439000002 cycles:  525625071 heartbeat IPC: 0.95101 cumulative IPC: 0.83304 (Simulation time: 1 hr 53 min 14 sec) 
Heartbeat CPU  0 instructions:  440000000 cycles:  526685944 heartbeat IPC: 0.94262 cumulative IPC: 0.83326 (Simulation time: 1 hr 53 min 26 sec) 
Heartbeat CPU  0 instructions:  441000001 cycles:  527741429 heartbeat IPC: 0.94743 cumulative IPC: 0.83349 (Simulation time: 1 hr 53 min 40 sec) 
Heartbeat CPU  0 instructions:  442000001 cycles:  528780872 heartbeat IPC: 0.96205 cumulative IPC: 0.83374 (Simulation time: 1 hr 53 min 54 sec) 
Heartbeat CPU  0 instructions:  443000001 cycles:  529822189 heartbeat IPC: 0.96032 cumulative IPC: 0.83399 (Simulation time: 1 hr 54 min 7 sec) 
Heartbeat CPU  0 instructions:  444000000 cycles:  530861723 heartbeat IPC: 0.96197 cumulative IPC: 0.83425 (Simulation time: 1 hr 54 min 19 sec) 
Heartbeat CPU  0 instructions:  445000003 cycles:  531926563 heartbeat IPC: 0.93911 cumulative IPC: 0.83446 (Simulation time: 1 hr 54 min 32 sec) 
Heartbeat CPU  0 instructions:  446000001 cycles:  532977586 heartbeat IPC: 0.95145 cumulative IPC: 0.83469 (Simulation time: 1 hr 54 min 45 sec) 
Heartbeat CPU  0 instructions:  447000003 cycles:  534034118 heartbeat IPC: 0.94649 cumulative IPC: 0.83491 (Simulation time: 1 hr 54 min 57 sec) 
Heartbeat CPU  0 instructions:  448000000 cycles:  535088109 heartbeat IPC: 0.94877 cumulative IPC: 0.83513 (Simulation time: 1 hr 55 min 10 sec) 
Heartbeat CPU  0 instructions:  449000001 cycles:  536143838 heartbeat IPC: 0.94721 cumulative IPC: 0.83535 (Simulation time: 1 hr 55 min 22 sec) 
Heartbeat CPU  0 instructions:  450000000 cycles:  537209299 heartbeat IPC: 0.93856 cumulative IPC: 0.83556 (Simulation time: 1 hr 55 min 35 sec) 
Heartbeat CPU  0 instructions:  451000002 cycles:  538283778 heartbeat IPC: 0.93069 cumulative IPC: 0.83575 (Simulation time: 1 hr 55 min 48 sec) 
Heartbeat CPU  0 instructions:  452000000 cycles:  539366699 heartbeat IPC: 0.92343 cumulative IPC: 0.83593 (Simulation time: 1 hr 56 min 1 sec) 
Heartbeat CPU  0 instructions:  453000003 cycles:  540441008 heartbeat IPC: 0.93083 cumulative IPC: 0.83612 (Simulation time: 1 hr 56 min 15 sec) 
Heartbeat CPU  0 instructions:  454000001 cycles:  541534251 heartbeat IPC: 0.91471 cumulative IPC: 0.83627 (Simulation time: 1 hr 56 min 29 sec) 
Heartbeat CPU  0 instructions:  455000003 cycles:  542606898 heartbeat IPC: 0.93227 cumulative IPC: 0.83646 (Simulation time: 1 hr 56 min 42 sec) 
Heartbeat CPU  0 instructions:  456000000 cycles:  543666458 heartbeat IPC: 0.94379 cumulative IPC: 0.83667 (Simulation time: 1 hr 56 min 56 sec) 
Heartbeat CPU  0 instructions:  457000001 cycles:  544734721 heartbeat IPC: 0.93610 cumulative IPC: 0.83687 (Simulation time: 1 hr 57 min 9 sec) 
Heartbeat CPU  0 instructions:  458000002 cycles:  545799643 heartbeat IPC: 0.93904 cumulative IPC: 0.83707 (Simulation time: 1 hr 57 min 22 sec) 
Heartbeat CPU  0 instructions:  459000002 cycles:  546862659 heartbeat IPC: 0.94072 cumulative IPC: 0.83727 (Simulation time: 1 hr 57 min 33 sec) 
Heartbeat CPU  0 instructions:  460000000 cycles:  547778480 heartbeat IPC: 1.09191 cumulative IPC: 0.83770 (Simulation time: 1 hr 57 min 47 sec) 
Heartbeat CPU  0 instructions:  461000001 cycles:  548666728 heartbeat IPC: 1.12581 cumulative IPC: 0.83816 (Simulation time: 1 hr 58 min 2 sec) 
Heartbeat CPU  0 instructions:  462000002 cycles:  549546647 heartbeat IPC: 1.13647 cumulative IPC: 0.83864 (Simulation time: 1 hr 58 min 15 sec) 
Heartbeat CPU  0 instructions:  463000001 cycles:  550425963 heartbeat IPC: 1.13725 cumulative IPC: 0.83912 (Simulation time: 1 hr 58 min 28 sec) 
Heartbeat CPU  0 instructions:  464000000 cycles:  551308225 heartbeat IPC: 1.13345 cumulative IPC: 0.83959 (Simulation time: 1 hr 58 min 41 sec) 
Heartbeat CPU  0 instructions:  465000000 cycles:  552183571 heartbeat IPC: 1.14241 cumulative IPC: 0.84007 (Simulation time: 1 hr 58 min 54 sec) 
Heartbeat CPU  0 instructions:  466000000 cycles:  553076879 heartbeat IPC: 1.11943 cumulative IPC: 0.84053 (Simulation time: 1 hr 59 min 7 sec) 
Heartbeat CPU  0 instructions:  467000003 cycles:  553963866 heartbeat IPC: 1.12742 cumulative IPC: 0.84099 (Simulation time: 1 hr 59 min 19 sec) 
Heartbeat CPU  0 instructions:  468000000 cycles:  554849660 heartbeat IPC: 1.12893 cumulative IPC: 0.84145 (Simulation time: 1 hr 59 min 32 sec) 
Heartbeat CPU  0 instructions:  469000002 cycles:  555749706 heartbeat IPC: 1.11106 cumulative IPC: 0.84188 (Simulation time: 1 hr 59 min 45 sec) 
Heartbeat CPU  0 instructions:  470000003 cycles:  556640253 heartbeat IPC: 1.12291 cumulative IPC: 0.84233 (Simulation time: 1 hr 59 min 59 sec) 
Heartbeat CPU  0 instructions:  471000000 cycles:  557517160 heartbeat IPC: 1.14037 cumulative IPC: 0.84280 (Simulation time: 2 hr 0 min 13 sec) 
Heartbeat CPU  0 instructions:  472000000 cycles:  558402342 heartbeat IPC: 1.12971 cumulative IPC: 0.84326 (Simulation time: 2 hr 0 min 26 sec) 
Heartbeat CPU  0 instructions:  473000001 cycles:  559289286 heartbeat IPC: 1.12747 cumulative IPC: 0.84371 (Simulation time: 2 hr 0 min 39 sec) 
Heartbeat CPU  0 instructions:  474000002 cycles:  560169000 heartbeat IPC: 1.13673 cumulative IPC: 0.84417 (Simulation time: 2 hr 0 min 52 sec) 
Heartbeat CPU  0 instructions:  475000002 cycles:  560798190 heartbeat IPC: 1.58934 cumulative IPC: 0.84501 (Simulation time: 2 hr 0 min 58 sec) 
Heartbeat CPU  0 instructions:  476000000 cycles:  566488400 heartbeat IPC: 0.17574 cumulative IPC: 0.83828 (Simulation time: 2 hr 1 min 20 sec) 
Heartbeat CPU  0 instructions:  477000002 cycles:  573971800 heartbeat IPC: 0.13363 cumulative IPC: 0.82907 (Simulation time: 2 hr 1 min 47 sec) 
Heartbeat CPU  0 instructions:  478000003 cycles:  581439738 heartbeat IPC: 0.13391 cumulative IPC: 0.82013 (Simulation time: 2 hr 2 min 15 sec) 
Heartbeat CPU  0 instructions:  479000000 cycles:  588912664 heartbeat IPC: 0.13382 cumulative IPC: 0.81140 (Simulation time: 2 hr 2 min 43 sec) 
Heartbeat CPU  0 instructions:  480000000 cycles:  595855498 heartbeat IPC: 0.14403 cumulative IPC: 0.80361 (Simulation time: 2 hr 3 min 10 sec) 
Heartbeat CPU  0 instructions:  481000000 cycles:  598501072 heartbeat IPC: 0.37799 cumulative IPC: 0.80173 (Simulation time: 2 hr 3 min 17 sec) 
Heartbeat CPU  0 instructions:  482000000 cycles:  601020715 heartbeat IPC: 0.39688 cumulative IPC: 0.80003 (Simulation time: 2 hr 3 min 24 sec) 
Heartbeat CPU  0 instructions:  483000000 cycles:  603490928 heartbeat IPC: 0.40482 cumulative IPC: 0.79841 (Simulation time: 2 hr 3 min 31 sec) 
Heartbeat CPU  0 instructions:  484000000 cycles:  605991946 heartbeat IPC: 0.39984 cumulative IPC: 0.79676 (Simulation time: 2 hr 3 min 38 sec) 
Heartbeat CPU  0 instructions:  485000002 cycles:  608413628 heartbeat IPC: 0.41294 cumulative IPC: 0.79523 (Simulation time: 2 hr 3 min 46 sec) 
Heartbeat CPU  0 instructions:  486000000 cycles:  610844902 heartbeat IPC: 0.41131 cumulative IPC: 0.79370 (Simulation time: 2 hr 3 min 53 sec) 
Heartbeat CPU  0 instructions:  487000003 cycles:  613256629 heartbeat IPC: 0.41464 cumulative IPC: 0.79221 (Simulation time: 2 hr 4 min 0 sec) 
Heartbeat CPU  0 instructions:  488000000 cycles:  615665619 heartbeat IPC: 0.41511 cumulative IPC: 0.79073 (Simulation time: 2 hr 4 min 7 sec) 
Heartbeat CPU  0 instructions:  489000003 cycles:  618077626 heartbeat IPC: 0.41459 cumulative IPC: 0.78926 (Simulation time: 2 hr 4 min 14 sec) 
Heartbeat CPU  0 instructions:  490000000 cycles:  620519768 heartbeat IPC: 0.40948 cumulative IPC: 0.78776 (Simulation time: 2 hr 4 min 22 sec) 
Heartbeat CPU  0 instructions:  491000000 cycles:  623011581 heartbeat IPC: 0.40131 cumulative IPC: 0.78621 (Simulation time: 2 hr 4 min 29 sec) 
Heartbeat CPU  0 instructions:  492000000 cycles:  625473187 heartbeat IPC: 0.40624 cumulative IPC: 0.78471 (Simulation time: 2 hr 4 min 37 sec) 
Heartbeat CPU  0 instructions:  493000000 cycles:  627897072 heartbeat IPC: 0.41256 cumulative IPC: 0.78327 (Simulation time: 2 hr 4 min 44 sec) 
Heartbeat CPU  0 instructions:  494000000 cycles:  630329966 heartbeat IPC: 0.41103 cumulative IPC: 0.78184 (Simulation time: 2 hr 4 min 51 sec) 
Heartbeat CPU  0 instructions:  495000000 cycles:  632759852 heartbeat IPC: 0.41154 cumulative IPC: 0.78041 (Simulation time: 2 hr 4 min 59 sec) 
Heartbeat CPU  0 instructions:  496000000 cycles:  635285699 heartbeat IPC: 0.39591 cumulative IPC: 0.77888 (Simulation time: 2 hr 5 min 6 sec) 
Heartbeat CPU  0 instructions:  497000000 cycles:  637738313 heartbeat IPC: 0.40773 cumulative IPC: 0.77745 (Simulation time: 2 hr 5 min 13 sec) 
Heartbeat CPU  0 instructions:  498000001 cycles:  640201678 heartbeat IPC: 0.40595 cumulative IPC: 0.77602 (Simulation time: 2 hr 5 min 20 sec) 
Heartbeat CPU  0 instructions:  499000002 cycles:  642645238 heartbeat IPC: 0.40924 cumulative IPC: 0.77462 (Simulation time: 2 hr 5 min 28 sec) 
Heartbeat CPU  0 instructions:  500000000 cycles:  645068987 heartbeat IPC: 0.41258 cumulative IPC: 0.77326 (Simulation time: 2 hr 5 min 35 sec) 
Heartbeat CPU  0 instructions:  501000002 cycles:  647534425 heartbeat IPC: 0.40561 cumulative IPC: 0.77186 (Simulation time: 2 hr 5 min 43 sec) 
Heartbeat CPU  0 instructions:  502000002 cycles:  649976741 heartbeat IPC: 0.40945 cumulative IPC: 0.77049 (Simulation time: 2 hr 5 min 50 sec) 
Heartbeat CPU  0 instructions:  503000003 cycles:  652407688 heartbeat IPC: 0.41136 cumulative IPC: 0.76915 (Simulation time: 2 hr 5 min 57 sec) 
Heartbeat CPU  0 instructions:  504000000 cycles:  654882559 heartbeat IPC: 0.40406 cumulative IPC: 0.76777 (Simulation time: 2 hr 6 min 5 sec) 
Heartbeat CPU  0 instructions:  505000000 cycles:  657342140 heartbeat IPC: 0.40657 cumulative IPC: 0.76642 (Simulation time: 2 hr 6 min 12 sec) 
Heartbeat CPU  0 instructions:  506000003 cycles:  659760160 heartbeat IPC: 0.41356 cumulative IPC: 0.76512 (Simulation time: 2 hr 6 min 20 sec) 
Heartbeat CPU  0 instructions:  507000003 cycles:  662185969 heartbeat IPC: 0.41223 cumulative IPC: 0.76383 (Simulation time: 2 hr 6 min 27 sec) 
Heartbeat CPU  0 instructions:  508000000 cycles:  664620076 heartbeat IPC: 0.41083 cumulative IPC: 0.76253 (Simulation time: 2 hr 6 min 34 sec) 
Heartbeat CPU  0 instructions:  509000002 cycles:  667059118 heartbeat IPC: 0.41000 cumulative IPC: 0.76124 (Simulation time: 2 hr 6 min 41 sec) 
Heartbeat CPU  0 instructions:  510000002 cycles:  669554168 heartbeat IPC: 0.40079 cumulative IPC: 0.75990 (Simulation time: 2 hr 6 min 48 sec) 
Heartbeat CPU  0 instructions:  511000000 cycles:  672065442 heartbeat IPC: 0.39820 cumulative IPC: 0.75854 (Simulation time: 2 hr 6 min 55 sec) 
Heartbeat CPU  0 instructions:  512000000 cycles:  674523194 heartbeat IPC: 0.40688 cumulative IPC: 0.75726 (Simulation time: 2 hr 7 min 3 sec) 
Heartbeat CPU  0 instructions:  513000003 cycles:  676926910 heartbeat IPC: 0.41602 cumulative IPC: 0.75605 (Simulation time: 2 hr 7 min 10 sec) 
Heartbeat CPU  0 instructions:  514000002 cycles:  679348478 heartbeat IPC: 0.41296 cumulative IPC: 0.75482 (Simulation time: 2 hr 7 min 17 sec) 
Heartbeat CPU  0 instructions:  515000002 cycles:  681762853 heartbeat IPC: 0.41419 cumulative IPC: 0.75361 (Simulation time: 2 hr 7 min 24 sec) 
Heartbeat CPU  0 instructions:  516000000 cycles:  684177125 heartbeat IPC: 0.41420 cumulative IPC: 0.75241 (Simulation time: 2 hr 7 min 31 sec) 
Heartbeat CPU  0 instructions:  517000000 cycles:  686608579 heartbeat IPC: 0.41128 cumulative IPC: 0.75120 (Simulation time: 2 hr 7 min 39 sec) 
Heartbeat CPU  0 instructions:  518000001 cycles:  689068950 heartbeat IPC: 0.40644 cumulative IPC: 0.74997 (Simulation time: 2 hr 7 min 46 sec) 
[...]
Heartbeat CPU  0 instructions: 1889000002 cycles: 2416423061 heartbeat IPC: 0.41274 cumulative IPC: 0.78124 (Simulation time: 7 hr 12 min 23 sec) 
Heartbeat CPU  0 instructions: 1890000001 cycles: 2418856679 heartbeat IPC: 0.41091 cumulative IPC: 0.78087 (Simulation time: 7 hr 12 min 29 sec) 
Heartbeat CPU  0 instructions: 1891000003 cycles: 2421285125 heartbeat IPC: 0.41179 cumulative IPC: 0.78050 (Simulation time: 7 hr 12 min 34 sec) 
Heartbeat CPU  0 instructions: 1892000000 cycles: 2423756652 heartbeat IPC: 0.40461 cumulative IPC: 0.78012 (Simulation time: 7 hr 12 min 40 sec) 
Heartbeat CPU  0 instructions: 1893000000 cycles: 2426241476 heartbeat IPC: 0.40244 cumulative IPC: 0.77973 (Simulation time: 7 hr 12 min 46 sec) 
Heartbeat CPU  0 instructions: 1894000001 cycles: 2428675049 heartbeat IPC: 0.41092 cumulative IPC: 0.77936 (Simulation time: 7 hr 12 min 52 sec) 
Heartbeat CPU  0 instructions: 1895000000 cycles: 2431124209 heartbeat IPC: 0.40830 cumulative IPC: 0.77899 (Simulation time: 7 hr 12 min 57 sec) 
Heartbeat CPU  0 instructions: 1896000000 cycles: 2433609650 heartbeat IPC: 0.40234 cumulative IPC: 0.77860 (Simulation time: 7 hr 13 min 3 sec) 
Heartbeat CPU  0 instructions: 1897000000 cycles: 2436057238 heartbeat IPC: 0.40857 cumulative IPC: 0.77823 (Simulation time: 7 hr 13 min 9 sec) 
Heartbeat CPU  0 instructions: 1898000003 cycles: 2438549468 heartbeat IPC: 0.40125 cumulative IPC: 0.77784 (Simulation time: 7 hr 13 min 14 sec) 
Heartbeat CPU  0 instructions: 1899000003 cycles: 2440996634 heartbeat IPC: 0.40864 cumulative IPC: 0.77747 (Simulation time: 7 hr 13 min 20 sec) 
Heartbeat CPU  0 instructions: 1900000000 cycles: 2443545289 heartbeat IPC: 0.39236 cumulative IPC: 0.77707 (Simulation time: 7 hr 13 min 26 sec) 
Heartbeat CPU  0 instructions: 1901000001 cycles: 2445988920 heartbeat IPC: 0.40923 cumulative IPC: 0.77670 (Simulation time: 7 hr 13 min 31 sec) 
Heartbeat CPU  0 instructions: 1902000003 cycles: 2448406114 heartbeat IPC: 0.41370 cumulative IPC: 0.77635 (Simulation time: 7 hr 13 min 37 sec) 
Heartbeat CPU  0 instructions: 1903000000 cycles: 2450839644 heartbeat IPC: 0.41092 cumulative IPC: 0.77598 (Simulation time: 7 hr 13 min 43 sec) 
Heartbeat CPU  0 instructions: 1904000000 cycles: 2453343278 heartbeat IPC: 0.39942 cumulative IPC: 0.77560 (Simulation time: 7 hr 13 min 48 sec) 
Heartbeat CPU  0 instructions: 1905000003 cycles: 2455786080 heartbeat IPC: 0.40937 cumulative IPC: 0.77523 (Simulation time: 7 hr 13 min 54 sec) 
Heartbeat CPU  0 instructions: 1906000000 cycles: 2458283512 heartbeat IPC: 0.40041 cumulative IPC: 0.77485 (Simulation time: 7 hr 14 min 0 sec) 
Heartbeat CPU  0 instructions: 1907000001 cycles: 2460778015 heartbeat IPC: 0.40088 cumulative IPC: 0.77447 (Simulation time: 7 hr 14 min 6 sec) 
Heartbeat CPU  0 instructions: 1908000000 cycles: 2463201044 heartbeat IPC: 0.41271 cumulative IPC: 0.77412 (Simulation time: 7 hr 14 min 12 sec) 
Heartbeat CPU  0 instructions: 1909000001 cycles: 2465645646 heartbeat IPC: 0.40906 cumulative IPC: 0.77376 (Simulation time: 7 hr 14 min 18 sec) 
Heartbeat CPU  0 instructions: 1910000000 cycles: 2468099444 heartbeat IPC: 0.40753 cumulative IPC: 0.77339 (Simulation time: 7 hr 14 min 24 sec) 
Heartbeat CPU  0 instructions: 1911000001 cycles: 2470567909 heartbeat IPC: 0.40511 cumulative IPC: 0.77302 (Simulation time: 7 hr 14 min 29 sec) 
Heartbeat CPU  0 instructions: 1912000000 cycles: 2471895175 heartbeat IPC: 0.75343 cumulative IPC: 0.77301 (Simulation time: 7 hr 14 min 32 sec) 
Heartbeat CPU  0 instructions: 1913000003 cycles: 2472706932 heartbeat IPC: 1.23190 cumulative IPC: 0.77316 (Simulation time: 7 hr 14 min 43 sec) 
Heartbeat CPU  0 instructions: 1914000001 cycles: 2473310868 heartbeat IPC: 1.65580 cumulative IPC: 0.77338 (Simulation time: 7 hr 14 min 56 sec) 
Heartbeat CPU  0 instructions: 1915000001 cycles: 2473885105 heartbeat IPC: 1.74144 cumulative IPC: 0.77360 (Simulation time: 7 hr 15 min 9 sec) 
Heartbeat CPU  0 instructions: 1916000000 cycles: 2474446411 heartbeat IPC: 1.78156 cumulative IPC: 0.77383 (Simulation time: 7 hr 15 min 22 sec) 
Heartbeat CPU  0 instructions: 1917000000 cycles: 2474977383 heartbeat IPC: 1.88334 cumulative IPC: 0.77407 (Simulation time: 7 hr 15 min 34 sec) 
Heartbeat CPU  0 instructions: 1918000002 cycles: 2475542265 heartbeat IPC: 1.77028 cumulative IPC: 0.77430 (Simulation time: 7 hr 15 min 47 sec) 
Heartbeat CPU  0 instructions: 1919000003 cycles: 2476108827 heartbeat IPC: 1.76503 cumulative IPC: 0.77452 (Simulation time: 7 hr 15 min 58 sec) 
Heartbeat CPU  0 instructions: 1920000000 cycles: 2476685154 heartbeat IPC: 1.73512 cumulative IPC: 0.77475 (Simulation time: 7 hr 16 min 12 sec) 
Heartbeat CPU  0 instructions: 1921000002 cycles: 2477239230 heartbeat IPC: 1.80481 cumulative IPC: 0.77498 (Simulation time: 7 hr 16 min 24 sec) 
Heartbeat CPU  0 instructions: 1922000003 cycles: 2477778801 heartbeat IPC: 1.85333 cumulative IPC: 0.77521 (Simulation time: 7 hr 16 min 37 sec) 
Heartbeat CPU  0 instructions: 1923000003 cycles: 2478341607 heartbeat IPC: 1.77681 cumulative IPC: 0.77544 (Simulation time: 7 hr 16 min 50 sec) 
Heartbeat CPU  0 instructions: 1924000000 cycles: 2478994053 heartbeat IPC: 1.53269 cumulative IPC: 0.77564 (Simulation time: 7 hr 17 min 6 sec) 
Heartbeat CPU  0 instructions: 1925000000 cycles: 2479762236 heartbeat IPC: 1.30177 cumulative IPC: 0.77580 (Simulation time: 7 hr 17 min 26 sec) 
Heartbeat CPU  0 instructions: 1926000000 cycles: 2480512892 heartbeat IPC: 1.33217 cumulative IPC: 0.77597 (Simulation time: 7 hr 17 min 46 sec) 
Heartbeat CPU  0 instructions: 1927000002 cycles: 2481247457 heartbeat IPC: 1.36135 cumulative IPC: 0.77615 (Simulation time: 7 hr 18 min 5 sec) 
Heartbeat CPU  0 instructions: 1928000000 cycles: 2481989151 heartbeat IPC: 1.34826 cumulative IPC: 0.77632 (Simulation time: 7 hr 18 min 25 sec) 
Heartbeat CPU  0 instructions: 1929000000 cycles: 2482762780 heartbeat IPC: 1.29261 cumulative IPC: 0.77648 (Simulation time: 7 hr 18 min 44 sec) 
Heartbeat CPU  0 instructions: 1930000000 cycles: 2483495486 heartbeat IPC: 1.36480 cumulative IPC: 0.77665 (Simulation time: 7 hr 19 min 3 sec) 
Heartbeat CPU  0 instructions: 1931000000 cycles: 2484228933 heartbeat IPC: 1.36343 cumulative IPC: 0.77682 (Simulation time: 7 hr 19 min 22 sec) 
Heartbeat CPU  0 instructions: 1932000000 cycles: 2484992993 heartbeat IPC: 1.30880 cumulative IPC: 0.77699 (Simulation time: 7 hr 19 min 41 sec) 
Heartbeat CPU  0 instructions: 1933000000 cycles: 2485842503 heartbeat IPC: 1.17715 cumulative IPC: 0.77712 (Simulation time: 7 hr 19 min 59 sec) 
Heartbeat CPU  0 instructions: 1934000003 cycles: 2486639337 heartbeat IPC: 1.25497 cumulative IPC: 0.77728 (Simulation time: 7 hr 20 min 19 sec) 
Heartbeat CPU  0 instructions: 1935000001 cycles: 2487362665 heartbeat IPC: 1.38250 cumulative IPC: 0.77745 (Simulation time: 7 hr 20 min 38 sec) 
Heartbeat CPU  0 instructions: 1936000000 cycles: 2488088749 heartbeat IPC: 1.37725 cumulative IPC: 0.77763 (Simulation time: 7 hr 20 min 57 sec) 
Heartbeat CPU  0 instructions: 1937000002 cycles: 2488828630 heartbeat IPC: 1.35157 cumulative IPC: 0.77780 (Simulation time: 7 hr 21 min 16 sec) 
Heartbeat CPU  0 instructions: 1938000002 cycles: 2489560315 heartbeat IPC: 1.36671 cumulative IPC: 0.77797 (Simulation time: 7 hr 21 min 35 sec) 
Heartbeat CPU  0 instructions: 1939000003 cycles: 2490276971 heartbeat IPC: 1.39537 cumulative IPC: 0.77815 (Simulation time: 7 hr 21 min 54 sec) 
Heartbeat CPU  0 instructions: 1940000000 cycles: 2491004091 heartbeat IPC: 1.37528 cumulative IPC: 0.77832 (Simulation time: 7 hr 22 min 13 sec) 
Heartbeat CPU  0 instructions: 1941000002 cycles: 2491747777 heartbeat IPC: 1.34466 cumulative IPC: 0.77849 (Simulation time: 7 hr 22 min 33 sec) 
Heartbeat CPU  0 instructions: 1942000001 cycles: 2492477026 heartbeat IPC: 1.37127 cumulative IPC: 0.77867 (Simulation time: 7 hr 22 min 52 sec) 
Heartbeat CPU  0 instructions: 1943000000 cycles: 2493189266 heartbeat IPC: 1.40402 cumulative IPC: 0.77885 (Simulation time: 7 hr 23 min 10 sec) 
Heartbeat CPU  0 instructions: 1944000000 cycles: 2493915846 heartbeat IPC: 1.37631 cumulative IPC: 0.77902 (Simulation time: 7 hr 23 min 29 sec) 
Heartbeat CPU  0 instructions: 1945000002 cycles: 2494644220 heartbeat IPC: 1.37292 cumulative IPC: 0.77919 (Simulation time: 7 hr 23 min 47 sec) 
Heartbeat CPU  0 instructions: 1946000003 cycles: 2495359440 heartbeat IPC: 1.39817 cumulative IPC: 0.77937 (Simulation time: 7 hr 24 min 6 sec) 
Heartbeat CPU  0 instructions: 1947000000 cycles: 2496087524 heartbeat IPC: 1.37346 cumulative IPC: 0.77954 (Simulation time: 7 hr 24 min 25 sec) 
Heartbeat CPU  0 instructions: 1948000000 cycles: 2496824270 heartbeat IPC: 1.35732 cumulative IPC: 0.77972 (Simulation time: 7 hr 24 min 43 sec) 
Heartbeat CPU  0 instructions: 1949000003 cycles: 2497614075 heartbeat IPC: 1.26614 cumulative IPC: 0.77987 (Simulation time: 7 hr 25 min 4 sec) 
Heartbeat CPU  0 instructions: 1950000002 cycles: 2498434777 heartbeat IPC: 1.21847 cumulative IPC: 0.78001 (Simulation time: 7 hr 25 min 22 sec) 
Heartbeat CPU  0 instructions: 1951000002 cycles: 2499166824 heartbeat IPC: 1.36603 cumulative IPC: 0.78019 (Simulation time: 7 hr 25 min 42 sec) 
Heartbeat CPU  0 instructions: 1952000000 cycles: 2499893446 heartbeat IPC: 1.37623 cumulative IPC: 0.78036 (Simulation time: 7 hr 26 min 1 sec) 
Heartbeat CPU  0 instructions: 1953000000 cycles: 2500614975 heartbeat IPC: 1.38595 cumulative IPC: 0.78053 (Simulation time: 7 hr 26 min 19 sec) 
Heartbeat CPU  0 instructions: 1954000001 cycles: 2501340389 heartbeat IPC: 1.37852 cumulative IPC: 0.78071 (Simulation time: 7 hr 26 min 38 sec) 
Heartbeat CPU  0 instructions: 1955000002 cycles: 2502062170 heartbeat IPC: 1.38546 cumulative IPC: 0.78088 (Simulation time: 7 hr 26 min 58 sec) 
Heartbeat CPU  0 instructions: 1956000000 cycles: 2502803399 heartbeat IPC: 1.34911 cumulative IPC: 0.78105 (Simulation time: 7 hr 27 min 17 sec) 
Heartbeat CPU  0 instructions: 1957000003 cycles: 2503535029 heartbeat IPC: 1.36682 cumulative IPC: 0.78122 (Simulation time: 7 hr 27 min 36 sec) 
Heartbeat CPU  0 instructions: 1958000003 cycles: 2504254395 heartbeat IPC: 1.39011 cumulative IPC: 0.78140 (Simulation time: 7 hr 27 min 55 sec) 
Heartbeat CPU  0 instructions: 1959000000 cycles: 2504975307 heartbeat IPC: 1.38713 cumulative IPC: 0.78157 (Simulation time: 7 hr 28 min 15 sec) 
Heartbeat CPU  0 instructions: 1960000000 cycles: 2505705436 heartbeat IPC: 1.36962 cumulative IPC: 0.78174 (Simulation time: 7 hr 28 min 32 sec) 
Heartbeat CPU  0 instructions: 1961000000 cycles: 2506433615 heartbeat IPC: 1.37329 cumulative IPC: 0.78191 (Simulation time: 7 hr 28 min 51 sec) 
Heartbeat CPU  0 instructions: 1962000002 cycles: 2507152833 heartbeat IPC: 1.39040 cumulative IPC: 0.78209 (Simulation time: 7 hr 29 min 10 sec) 
Heartbeat CPU  0 instructions: 1963000000 cycles: 2507885671 heartbeat IPC: 1.36456 cumulative IPC: 0.78226 (Simulation time: 7 hr 29 min 29 sec) 
Heartbeat CPU  0 instructions: 1964000000 cycles: 2508601319 heartbeat IPC: 1.39734 cumulative IPC: 0.78243 (Simulation time: 7 hr 29 min 47 sec) 
Heartbeat CPU  0 instructions: 1965000002 cycles: 2509316619 heartbeat IPC: 1.39802 cumulative IPC: 0.78261 (Simulation time: 7 hr 30 min 5 sec) 
Heartbeat CPU  0 instructions: 1966000000 cycles: 2510094128 heartbeat IPC: 1.28616 cumulative IPC: 0.78277 (Simulation time: 7 hr 30 min 23 sec) 
Heartbeat CPU  0 instructions: 1967000003 cycles: 2510926539 heartbeat IPC: 1.20133 cumulative IPC: 0.78290 (Simulation time: 7 hr 30 min 43 sec) 
Heartbeat CPU  0 instructions: 1968000000 cycles: 2511752083 heartbeat IPC: 1.21132 cumulative IPC: 0.78305 (Simulation time: 7 hr 31 min 2 sec) 
Heartbeat CPU  0 instructions: 1969000003 cycles: 2512529535 heartbeat IPC: 1.28626 cumulative IPC: 0.78320 (Simulation time: 7 hr 31 min 22 sec) 
Heartbeat CPU  0 instructions: 1970000001 cycles: 2513301757 heartbeat IPC: 1.29496 cumulative IPC: 0.78336 (Simulation time: 7 hr 31 min 40 sec) 
Heartbeat CPU  0 instructions: 1971000000 cycles: 2514059687 heartbeat IPC: 1.31938 cumulative IPC: 0.78352 (Simulation time: 7 hr 32 min 0 sec) 
Heartbeat CPU  0 instructions: 1972000000 cycles: 2514870790 heartbeat IPC: 1.23289 cumulative IPC: 0.78367 (Simulation time: 7 hr 32 min 19 sec) 
Heartbeat CPU  0 instructions: 1973000002 cycles: 2515631248 heartbeat IPC: 1.31500 cumulative IPC: 0.78383 (Simulation time: 7 hr 32 min 37 sec) 
Heartbeat CPU  0 instructions: 1974000000 cycles: 2516396963 heartbeat IPC: 1.30597 cumulative IPC: 0.78398 (Simulation time: 7 hr 32 min 56 sec) 
Heartbeat CPU  0 instructions: 1975000001 cycles: 2517179070 heartbeat IPC: 1.27860 cumulative IPC: 0.78414 (Simulation time: 7 hr 33 min 16 sec) 
Heartbeat CPU  0 instructions: 1976000000 cycles: 2517955547 heartbeat IPC: 1.28787 cumulative IPC: 0.78429 (Simulation time: 7 hr 33 min 35 sec) 
Heartbeat CPU  0 instructions: 1977000000 cycles: 2518714180 heartbeat IPC: 1.31816 cumulative IPC: 0.78445 (Simulation time: 7 hr 33 min 53 sec) 
Heartbeat CPU  0 instructions: 1978000003 cycles: 2519475679 heartbeat IPC: 1.31320 cumulative IPC: 0.78461 (Simulation time: 7 hr 34 min 12 sec) 
Heartbeat CPU  0 instructions: 1979000000 cycles: 2520269493 heartbeat IPC: 1.25974 cumulative IPC: 0.78476 (Simulation time: 7 hr 34 min 30 sec) 
Heartbeat CPU  0 instructions: 1980000000 cycles: 2521027152 heartbeat IPC: 1.31985 cumulative IPC: 0.78493 (Simulation time: 7 hr 34 min 49 sec) 
Heartbeat CPU  0 instructions: 1981000000 cycles: 2521784728 heartbeat IPC: 1.32000 cumulative IPC: 0.78509 (Simulation time: 7 hr 35 min 7 sec) 
Heartbeat CPU  0 instructions: 1982000001 cycles: 2522556485 heartbeat IPC: 1.29575 cumulative IPC: 0.78524 (Simulation time: 7 hr 35 min 27 sec) 
Heartbeat CPU  0 instructions: 1983000002 cycles: 2523424136 heartbeat IPC: 1.15254 cumulative IPC: 0.78537 (Simulation time: 7 hr 35 min 45 sec) 
Heartbeat CPU  0 instructions: 1984000000 cycles: 2524240769 heartbeat IPC: 1.22454 cumulative IPC: 0.78551 (Simulation time: 7 hr 36 min 3 sec) 
Heartbeat CPU  0 instructions: 1985000000 cycles: 2524984564 heartbeat IPC: 1.34446 cumulative IPC: 0.78568 (Simulation time: 7 hr 36 min 23 sec) 
Heartbeat CPU  0 instructions: 1986000002 cycles: 2525726971 heartbeat IPC: 1.34697 cumulative IPC: 0.78584 (Simulation time: 7 hr 36 min 42 sec) 
Heartbeat CPU  0 instructions: 1987000000 cycles: 2526475754 heartbeat IPC: 1.33550 cumulative IPC: 0.78600 (Simulation time: 7 hr 37 min 0 sec) 
Heartbeat CPU  0 instructions: 1988000000 cycles: 2527217769 heartbeat IPC: 1.34768 cumulative IPC: 0.78617 (Simulation time: 7 hr 37 min 19 sec) 
Heartbeat CPU  0 instructions: 1989000003 cycles: 2527954747 heartbeat IPC: 1.35690 cumulative IPC: 0.78633 (Simulation time: 7 hr 37 min 39 sec) 
Heartbeat CPU  0 instructions: 1990000001 cycles: 2528687150 heartbeat IPC: 1.36537 cumulative IPC: 0.78650 (Simulation time: 7 hr 37 min 58 sec) 
Heartbeat CPU  0 instructions: 1991000003 cycles: 2529440017 heartbeat IPC: 1.32826 cumulative IPC: 0.78666 (Simulation time: 7 hr 38 min 16 sec) 
Heartbeat CPU  0 instructions: 1992000000 cycles: 2530178299 heartbeat IPC: 1.35449 cumulative IPC: 0.78683 (Simulation time: 7 hr 38 min 35 sec) 
Heartbeat CPU  0 instructions: 1993000001 cycles: 2530922011 heartbeat IPC: 1.34461 cumulative IPC: 0.78699 (Simulation time: 7 hr 38 min 54 sec) 
Heartbeat CPU  0 instructions: 1994000003 cycles: 2531667346 heartbeat IPC: 1.34168 cumulative IPC: 0.78716 (Simulation time: 7 hr 39 min 14 sec) 
Heartbeat CPU  0 instructions: 1995000001 cycles: 2532418131 heartbeat IPC: 1.33194 cumulative IPC: 0.78732 (Simulation time: 7 hr 39 min 32 sec) 
Heartbeat CPU  0 instructions: 1996000000 cycles: 2533159073 heartbeat IPC: 1.34963 cumulative IPC: 0.78748 (Simulation time: 7 hr 39 min 51 sec) 
Heartbeat CPU  0 instructions: 1997000003 cycles: 2533893378 heartbeat IPC: 1.36184 cumulative IPC: 0.78765 (Simulation time: 7 hr 40 min 11 sec) 
Heartbeat CPU  0 instructions: 1998000003 cycles: 2534645427 heartbeat IPC: 1.32970 cumulative IPC: 0.78781 (Simulation time: 7 hr 40 min 31 sec) 
Heartbeat CPU  0 instructions: 1999000000 cycles: 2535423777 heartbeat IPC: 1.28477 cumulative IPC: 0.78796 (Simulation time: 7 hr 40 min 50 sec) 
Heartbeat CPU  0 instructions: 2000000000 cycles: 2536275905 heartbeat IPC: 1.17353 cumulative IPC: 0.78809 (Simulation time: 7 hr 41 min 8 sec) 
Heartbeat CPU  0 instructions: 2001000003 cycles: 2537049373 heartbeat IPC: 1.29288 cumulative IPC: 0.78825 (Simulation time: 7 hr 41 min 26 sec) 
Heartbeat CPU  0 instructions: 2002000002 cycles: 2537784167 heartbeat IPC: 1.36092 cumulative IPC: 0.78841 (Simulation time: 7 hr 41 min 45 sec) 
Finished CPU 0 instructions: 2000000000 cycles: 2536742610 cumulative IPC: 0.78841 (Simulation time: 7 hr 41 min 45 sec) 

ChampSim completed all CPUs

[ROI Statistics]
Core_0_instructions 2000000000
Core_0_cycles 2536742610
Core_0_IPC 0.78841

Core_0_branch_prediction_accuracy 98.17303
Core_0_branch_MPKI 0.51587
Core_0_average_ROB_occupancy_at_mispredict 207.66613

Core_0_L1D_total_access 522756330
Core_0_L1D_total_hit 413054575
Core_0_L1D_total_miss 109701755
Core_0_L1D_loads 484227617
Core_0_L1D_load_hit 381245557
Core_0_L1D_load_miss 102982060
Core_0_L1D_RFOs 38528713
Core_0_L1D_RFO_hit 31809018
Core_0_L1D_RFO_miss 6719695
Core_0_L1D_prefetches 0
Core_0_L1D_prefetch_hit 0
Core_0_L1D_prefetch_miss 0
Core_0_L1D_writebacks 0
Core_0_L1D_writeback_hit 0
Core_0_L1D_writeback_miss 0
Core_0_L1D_prefetch_requested 0
Core_0_L1D_prefetch_issued 0
Core_0_L1D_prefetch_useful 0
Core_0_L1D_prefetch_useless 0
Core_0_L1D_prefetch_late 0
Core_0_L1D_average_miss_latency 43.37376

Core_0_L1I_total_access 652260659
Core_0_L1I_total_hit 652214163
Core_0_L1I_total_miss 46496
Core_0_L1I_loads 652260659
Core_0_L1I_load_hit 652214163
Core_0_L1I_load_miss 46496
Core_0_L1I_RFOs 0
Core_0_L1I_RFO_hit 0
Core_0_L1I_RFO_miss 0
Core_0_L1I_prefetches 0
Core_0_L1I_prefetch_hit 0
Core_0_L1I_prefetch_miss 0
Core_0_L1I_writebacks 0
Core_0_L1I_writeback_hit 0
Core_0_L1I_writeback_miss 0
Core_0_L1I_prefetch_requested 0
Core_0_L1I_prefetch_issued 0
Core_0_L1I_prefetch_useful 0
Core_0_L1I_prefetch_useless 0
Core_0_L1I_prefetch_late 0
Core_0_L1I_average_miss_latency 208.80407

Core_0_L2C_total_access 312118215
Core_0_L2C_total_hit 273652981
Core_0_L2C_total_miss 38465234
Core_0_L2C_loads 103028114
Core_0_L2C_load_hit 95064544
Core_0_L2C_load_miss 7963570
Core_0_L2C_RFOs 6719609
Core_0_L2C_RFO_hit 3483036
Core_0_L2C_RFO_miss 3236573
Core_0_L2C_prefetches 190557691
Core_0_L2C_prefetch_hit 163296452
Core_0_L2C_prefetch_miss 27261239
Core_0_L2C_writebacks 11812801
Core_0_L2C_writeback_hit 11808949
Core_0_L2C_writeback_miss 3852
Core_0_L2C_prefetch_requested 234908009
Core_0_L2C_prefetch_issued 219409293
Core_0_L2C_prefetch_useful 20964844
Core_0_L2C_prefetch_useless 6318569
Core_0_L2C_prefetch_late 1598080
Core_0_L2C_average_miss_latency 199.44378

Core_0_LLC_total_access 48457555
Core_0_LLC_total_hit 26038031
Core_0_LLC_total_miss 22419524
Core_0_LLC_loads 6389688
Core_0_LLC_load_hit 1710492
Core_0_LLC_load_miss 4679196
Core_0_LLC_RFOs 3212446
Core_0_LLC_RFO_hit 20642
Core_0_LLC_RFO_miss 3191804
Core_0_LLC_prefetches 28859246
Core_0_LLC_prefetch_hit 14312107
Core_0_LLC_prefetch_miss 14547139
Core_0_LLC_writebacks 9996175
Core_0_LLC_writeback_hit 9994790
Core_0_LLC_writeback_miss 1385
Core_0_LLC_prefetch_requested 0
Core_0_LLC_prefetch_issued 0
Core_0_LLC_prefetch_useful 443102
Core_0_LLC_prefetch_useless 14099839
Core_0_LLC_prefetch_late 0
Core_0_LLC_average_miss_latency 300.20617

Core_0_major_page_fault 0
Core_0_minor_page_fault 21169

CPU 0 L2C next line prefetcher final stats
Channel_0_RQ_row_buffer_hit 7079160
Channel_0_RQ_row_buffer_miss 15338845
Channel_0_WQ_row_buffer_hit 2514773
Channel_0_WQ_row_buffer_miss 7245099
Channel_0_WQ_full 0
Channel_0_dbus_congested 13934988

avg_congested_cycle 9
