*************************************************
   ChampSim Multicore Out-of-Order Simulator
   Last compiled: Aug  8 2024 03:58:08
*************************************************

trace_0 ./LLM_Traces/2B_Traces_SelfAttention_Phythia-70M-Seq1024-07-08-0125.champsim.xz
CPU 0 L2C next line prefetcher initialized
warmup_instructions 2000000
simulation_instructions 2000000000
champsim_seed 200

num_cpus 1
cpu_freq 4000
dram_io_freq 2400
page_size 4096
block_size 64
max_read_per_cycle 8
max_fill_per_cycle 1
dram_channels 1
dram_ranks 1
dram_banks 8
dram_rows 65536
dram_columns 128
dram_row_size 8
dram_size 4096
dram_pages 1048576

fetch_width 6
decode_width 6
exec_width 4
lq_width 2
sq_width 2
retire_width 4
scheduler_size 128
branch_mispredict_penalty 20
rob_size 256
lq_size 72
sq_size 56
num_instr_destinations_sparc 4
num_instr_destinations 2
num_instr_sources 4

itlb_set 16
itlb_way 8
itlb_rq_size 16
itlb_wq_size 16
itlb_pq_size 0
itlb_mshr_size 8
itlb_latency 1

dtlb_set 16
dtlb_way 4
dtlb_rq_size 16
dtlb_wq_size 16
dtlb_pq_size 0
dtlb_mshr_size 8
dtlb_latency 1

stlb_set 128
stlb_way 12
stlb_rq_size 32
stlb_wq_size 32
stlb_pq_size 0
stlb_mshr_size 16
stlb_latency 8

l1i_size 32
l1i_set 64
l1i_way 8
l1i_rq_size 64
l1i_wq_size 64
l1i_pq_size 8
l1i_mshr_size 8
l1i_latency 1

l1d_size 32
l1d_set 64
l1d_way 8
l1d_rq_size 64
l1d_wq_size 64
l1d_pq_size 8
l1d_mshr_size 16
l1d_latency 4

l2c_size 512
l2c_set 1024
l2c_way 8
l2c_rq_size 32
l2c_wq_size 32
l2c_pq_size 16
l2c_mshr_size 32
l2c_latency 10

llc_size 2048
llc_set 2048
llc_way 16
llc_rq_size 32
llc_wq_size 32
llc_pq_size 32
llc_mshr_size 64
llc_latency 20

dram_channel_width 8
dram_wq_size 64
dram_rq_size 64
tRP 15
tRCD 15
tCAS 12.5
dram_dbus_turn_around_time 30
dram_write_high_wm 56
dram_write_low_wm 48
min_dram_writes_per_switch 16
dram_mtps 2400
dram_dbus_return_time 13


Heartbeat CPU  0 instructions:    1000001 cycles:     455376 heartbeat IPC: 2.19599 cumulative IPC: 2.19599 (Simulation time: 0 hr 0 min 3 sec) 
Heartbeat CPU  0 instructions:    2000000 cycles:    1026669 heartbeat IPC: 1.75041 cumulative IPC: 1.94805 (Simulation time: 0 hr 0 min 10 sec) 

Warmup complete CPU  0 instructions:    2000002 cycles:    1026670 (Simulation time: 0 hr 0 min 10 sec) 

Heartbeat CPU  0 instructions:    3000001 cycles:    2188563 heartbeat IPC: 0.86066 cumulative IPC: 0.86066 (Simulation time: 0 hr 0 min 22 sec) 
Heartbeat CPU  0 instructions:    4000000 cycles:    3384659 heartbeat IPC: 0.83605 cumulative IPC: 0.84818 (Simulation time: 0 hr 0 min 31 sec) 
Heartbeat CPU  0 instructions:    5000002 cycles:    4575709 heartbeat IPC: 0.83960 cumulative IPC: 0.84530 (Simulation time: 0 hr 0 min 38 sec) 
Heartbeat CPU  0 instructions:    6000003 cycles:    5768660 heartbeat IPC: 0.83826 cumulative IPC: 0.84353 (Simulation time: 0 hr 0 min 47 sec) 
Heartbeat CPU  0 instructions:    7000000 cycles:    6971915 heartbeat IPC: 0.83108 cumulative IPC: 0.84101 (Simulation time: 0 hr 1 min 2 sec) 
Heartbeat CPU  0 instructions:    8000000 cycles:    8170655 heartbeat IPC: 0.83421 cumulative IPC: 0.83987 (Simulation time: 0 hr 1 min 19 sec) 
Heartbeat CPU  0 instructions:    9000003 cycles:    9390749 heartbeat IPC: 0.81961 cumulative IPC: 0.83691 (Simulation time: 0 hr 1 min 35 sec) 
Heartbeat CPU  0 instructions:   10000003 cycles:   10605515 heartbeat IPC: 0.82320 cumulative IPC: 0.83517 (Simulation time: 0 hr 1 min 49 sec) 
Heartbeat CPU  0 instructions:   11000000 cycles:   11809494 heartbeat IPC: 0.83058 cumulative IPC: 0.83466 (Simulation time: 0 hr 2 min 1 sec) 
Heartbeat CPU  0 instructions:   12000000 cycles:   13042611 heartbeat IPC: 0.81095 cumulative IPC: 0.83223 (Simulation time: 0 hr 2 min 15 sec) 
Heartbeat CPU  0 instructions:   13000002 cycles:   14263821 heartbeat IPC: 0.81886 cumulative IPC: 0.83099 (Simulation time: 0 hr 2 min 28 sec) 
Heartbeat CPU  0 instructions:   14000002 cycles:   15457403 heartbeat IPC: 0.83781 cumulative IPC: 0.83156 (Simulation time: 0 hr 2 min 41 sec) 
Heartbeat CPU  0 instructions:   15000003 cycles:   16667614 heartbeat IPC: 0.82630 cumulative IPC: 0.83115 (Simulation time: 0 hr 2 min 54 sec) 
Heartbeat CPU  0 instructions:   16000000 cycles:   17870990 heartbeat IPC: 0.83099 cumulative IPC: 0.83114 (Simulation time: 0 hr 3 min 5 sec) 
Heartbeat CPU  0 instructions:   17000002 cycles:   19093235 heartbeat IPC: 0.81817 cumulative IPC: 0.83026 (Simulation time: 0 hr 3 min 15 sec) 
Heartbeat CPU  0 instructions:   18000003 cycles:   20323890 heartbeat IPC: 0.81258 cumulative IPC: 0.82914 (Simulation time: 0 hr 3 min 25 sec) 
Heartbeat CPU  0 instructions:   19000001 cycles:   21549187 heartbeat IPC: 0.81613 cumulative IPC: 0.82836 (Simulation time: 0 hr 3 min 37 sec) 
Heartbeat CPU  0 instructions:   20000000 cycles:   22772447 heartbeat IPC: 0.81749 cumulative IPC: 0.82775 (Simulation time: 0 hr 3 min 47 sec) 
Heartbeat CPU  0 instructions:   21000001 cycles:   23980066 heartbeat IPC: 0.82808 cumulative IPC: 0.82776 (Simulation time: 0 hr 3 min 58 sec) 
Heartbeat CPU  0 instructions:   22000000 cycles:   25215325 heartbeat IPC: 0.80955 cumulative IPC: 0.82683 (Simulation time: 0 hr 4 min 13 sec) 
Heartbeat CPU  0 instructions:   23000002 cycles:   26434433 heartbeat IPC: 0.82027 cumulative IPC: 0.82652 (Simulation time: 0 hr 4 min 28 sec) 
Heartbeat CPU  0 instructions:   24000000 cycles:   27653525 heartbeat IPC: 0.82028 cumulative IPC: 0.82623 (Simulation time: 0 hr 4 min 45 sec) 
Heartbeat CPU  0 instructions:   25000000 cycles:   28794957 heartbeat IPC: 0.87609 cumulative IPC: 0.82828 (Simulation time: 0 hr 4 min 57 sec) 
Heartbeat CPU  0 instructions:   26000003 cycles:   30065105 heartbeat IPC: 0.78731 cumulative IPC: 0.82649 (Simulation time: 0 hr 5 min 12 sec) 
Heartbeat CPU  0 instructions:   27000003 cycles:   31269210 heartbeat IPC: 0.83049 cumulative IPC: 0.82665 (Simulation time: 0 hr 5 min 25 sec) 
Heartbeat CPU  0 instructions:   28000000 cycles:   32486921 heartbeat IPC: 0.82121 cumulative IPC: 0.82644 (Simulation time: 0 hr 5 min 40 sec) 
Heartbeat CPU  0 instructions:   29000000 cycles:   33709987 heartbeat IPC: 0.81762 cumulative IPC: 0.82611 (Simulation time: 0 hr 5 min 53 sec) 
Heartbeat CPU  0 instructions:   30000002 cycles:   34937655 heartbeat IPC: 0.81455 cumulative IPC: 0.82569 (Simulation time: 0 hr 6 min 5 sec) 
Heartbeat CPU  0 instructions:   31000002 cycles:   36157218 heartbeat IPC: 0.81997 cumulative IPC: 0.82549 (Simulation time: 0 hr 6 min 16 sec) 
Heartbeat CPU  0 instructions:   32000000 cycles:   37361779 heartbeat IPC: 0.83018 cumulative IPC: 0.82565 (Simulation time: 0 hr 6 min 25 sec) 
Heartbeat CPU  0 instructions:   33000001 cycles:   38577539 heartbeat IPC: 0.82253 cumulative IPC: 0.82555 (Simulation time: 0 hr 6 min 35 sec) 
Heartbeat CPU  0 instructions:   34000000 cycles:   39793161 heartbeat IPC: 0.82262 cumulative IPC: 0.82546 (Simulation time: 0 hr 6 min 45 sec) 
Heartbeat CPU  0 instructions:   35000002 cycles:   41022814 heartbeat IPC: 0.81324 cumulative IPC: 0.82508 (Simulation time: 0 hr 6 min 57 sec) 
Heartbeat CPU  0 instructions:   36000000 cycles:   42245527 heartbeat IPC: 0.81785 cumulative IPC: 0.82487 (Simulation time: 0 hr 7 min 10 sec) 
Heartbeat CPU  0 instructions:   37000000 cycles:   43452522 heartbeat IPC: 0.82850 cumulative IPC: 0.82497 (Simulation time: 0 hr 7 min 25 sec) 
Heartbeat CPU  0 instructions:   38000003 cycles:   44673260 heartbeat IPC: 0.81918 cumulative IPC: 0.82481 (Simulation time: 0 hr 7 min 39 sec) 
Heartbeat CPU  0 instructions:   39000003 cycles:   45888609 heartbeat IPC: 0.82281 cumulative IPC: 0.82475 (Simulation time: 0 hr 7 min 53 sec) 
Heartbeat CPU  0 instructions:   40000000 cycles:   47116548 heartbeat IPC: 0.81437 cumulative IPC: 0.82448 (Simulation time: 0 hr 8 min 7 sec) 
Heartbeat CPU  0 instructions:   41000002 cycles:   48372072 heartbeat IPC: 0.79648 cumulative IPC: 0.82373 (Simulation time: 0 hr 8 min 21 sec) 
Heartbeat CPU  0 instructions:   42000001 cycles:   49594934 heartbeat IPC: 0.81775 cumulative IPC: 0.82358 (Simulation time: 0 hr 8 min 36 sec) 
Heartbeat CPU  0 instructions:   43000001 cycles:   50832749 heartbeat IPC: 0.80788 cumulative IPC: 0.82319 (Simulation time: 0 hr 8 min 48 sec) 
Heartbeat CPU  0 instructions:   44000000 cycles:   52066919 heartbeat IPC: 0.81026 cumulative IPC: 0.82288 (Simulation time: 0 hr 8 min 57 sec) 
Heartbeat CPU  0 instructions:   45000002 cycles:   53288007 heartbeat IPC: 0.81894 cumulative IPC: 0.82279 (Simulation time: 0 hr 9 min 6 sec) 
Heartbeat CPU  0 instructions:   46000003 cycles:   54525883 heartbeat IPC: 0.80784 cumulative IPC: 0.82244 (Simulation time: 0 hr 9 min 18 sec) 
Heartbeat CPU  0 instructions:   47000001 cycles:   55761026 heartbeat IPC: 0.80962 cumulative IPC: 0.82215 (Simulation time: 0 hr 9 min 27 sec) 
Heartbeat CPU  0 instructions:   48000000 cycles:   57002284 heartbeat IPC: 0.80563 cumulative IPC: 0.82179 (Simulation time: 0 hr 9 min 38 sec) 
Heartbeat CPU  0 instructions:   49000000 cycles:   58215006 heartbeat IPC: 0.82459 cumulative IPC: 0.82185 (Simulation time: 0 hr 9 min 49 sec) 
Heartbeat CPU  0 instructions:   50000000 cycles:   59331619 heartbeat IPC: 0.89557 cumulative IPC: 0.82326 (Simulation time: 0 hr 10 min 3 sec) 
Heartbeat CPU  0 instructions:   51000000 cycles:   60393126 heartbeat IPC: 0.94206 cumulative IPC: 0.82538 (Simulation time: 0 hr 10 min 18 sec) 
Heartbeat CPU  0 instructions:   52000000 cycles:   61447375 heartbeat IPC: 0.94854 cumulative IPC: 0.82753 (Simulation time: 0 hr 10 min 32 sec) 
Heartbeat CPU  0 instructions:   53000002 cycles:   62504936 heartbeat IPC: 0.94557 cumulative IPC: 0.82956 (Simulation time: 0 hr 10 min 45 sec) 
Heartbeat CPU  0 instructions:   54000003 cycles:   63559043 heartbeat IPC: 0.94867 cumulative IPC: 0.83157 (Simulation time: 0 hr 10 min 59 sec) 
Heartbeat CPU  0 instructions:   55000001 cycles:   64628502 heartbeat IPC: 0.93505 cumulative IPC: 0.83331 (Simulation time: 0 hr 11 min 11 sec) 
Heartbeat CPU  0 instructions:   56000000 cycles:   65686338 heartbeat IPC: 0.94533 cumulative IPC: 0.83514 (Simulation time: 0 hr 11 min 22 sec) 
Heartbeat CPU  0 instructions:   57000000 cycles:   66749269 heartbeat IPC: 0.94079 cumulative IPC: 0.83685 (Simulation time: 0 hr 11 min 31 sec) 
Heartbeat CPU  0 instructions:   58000002 cycles:   67816711 heartbeat IPC: 0.93682 cumulative IPC: 0.83845 (Simulation time: 0 hr 11 min 41 sec) 
Heartbeat CPU  0 instructions:   59000001 cycles:   68870239 heartbeat IPC: 0.94919 cumulative IPC: 0.84017 (Simulation time: 0 hr 11 min 50 sec) 
Heartbeat CPU  0 instructions:   60000000 cycles:   69930868 heartbeat IPC: 0.94284 cumulative IPC: 0.84175 (Simulation time: 0 hr 11 min 58 sec) 
Heartbeat CPU  0 instructions:   61000001 cycles:   70991396 heartbeat IPC: 0.94293 cumulative IPC: 0.84328 (Simulation time: 0 hr 12 min 7 sec) 
Heartbeat CPU  0 instructions:   62000001 cycles:   72036447 heartbeat IPC: 0.95689 cumulative IPC: 0.84495 (Simulation time: 0 hr 12 min 20 sec) 
Heartbeat CPU  0 instructions:   63000000 cycles:   73086833 heartbeat IPC: 0.95203 cumulative IPC: 0.84651 (Simulation time: 0 hr 12 min 33 sec) 
Heartbeat CPU  0 instructions:   64000000 cycles:   74145270 heartbeat IPC: 0.94479 cumulative IPC: 0.84794 (Simulation time: 0 hr 12 min 47 sec) 
Heartbeat CPU  0 instructions:   65000003 cycles:   75158748 heartbeat IPC: 0.98670 cumulative IPC: 0.84983 (Simulation time: 0 hr 13 min 0 sec) 
Heartbeat CPU  0 instructions:   66000000 cycles:   76625304 heartbeat IPC: 0.68187 cumulative IPC: 0.84658 (Simulation time: 0 hr 13 min 13 sec) 
Heartbeat CPU  0 instructions:   67000001 cycles:   77833903 heartbeat IPC: 0.82741 cumulative IPC: 0.84627 (Simulation time: 0 hr 13 min 25 sec) 
Heartbeat CPU  0 instructions:   68000000 cycles:   79027623 heartbeat IPC: 0.83772 cumulative IPC: 0.84614 (Simulation time: 0 hr 13 min 35 sec) 
Heartbeat CPU  0 instructions:   69000001 cycles:   80229280 heartbeat IPC: 0.83219 cumulative IPC: 0.84593 (Simulation time: 0 hr 13 min 46 sec) 
Heartbeat CPU  0 instructions:   70000001 cycles:   81433776 heartbeat IPC: 0.83022 cumulative IPC: 0.84570 (Simulation time: 0 hr 13 min 55 sec) 
Heartbeat CPU  0 instructions:   71000003 cycles:   82614988 heartbeat IPC: 0.84659 cumulative IPC: 0.84571 (Simulation time: 0 hr 14 min 2 sec) 
Heartbeat CPU  0 instructions:   72000000 cycles:   83801526 heartbeat IPC: 0.84279 cumulative IPC: 0.84567 (Simulation time: 0 hr 14 min 9 sec) 
Heartbeat CPU  0 instructions:   73000001 cycles:   85005309 heartbeat IPC: 0.83072 cumulative IPC: 0.84545 (Simulation time: 0 hr 14 min 15 sec) 
Heartbeat CPU  0 instructions:   74000001 cycles:   86220970 heartbeat IPC: 0.82260 cumulative IPC: 0.84513 (Simulation time: 0 hr 14 min 22 sec) 
Heartbeat CPU  0 instructions:   75000001 cycles:   87443203 heartbeat IPC: 0.81817 cumulative IPC: 0.84475 (Simulation time: 0 hr 14 min 29 sec) 
Heartbeat CPU  0 instructions:   76000000 cycles:   88643065 heartbeat IPC: 0.83343 cumulative IPC: 0.84459 (Simulation time: 0 hr 14 min 38 sec) 
Heartbeat CPU  0 instructions:   77000003 cycles:   89848618 heartbeat IPC: 0.82950 cumulative IPC: 0.84439 (Simulation time: 0 hr 14 min 47 sec) 
Heartbeat CPU  0 instructions:   78000002 cycles:   91046423 heartbeat IPC: 0.83486 cumulative IPC: 0.84426 (Simulation time: 0 hr 14 min 55 sec) 
Heartbeat CPU  0 instructions:   79000001 cycles:   92241238 heartbeat IPC: 0.83695 cumulative IPC: 0.84416 (Simulation time: 0 hr 15 min 4 sec) 
Heartbeat CPU  0 instructions:   80000000 cycles:   93434367 heartbeat IPC: 0.83813 cumulative IPC: 0.84409 (Simulation time: 0 hr 15 min 13 sec) 
Heartbeat CPU  0 instructions:   81000000 cycles:   94650450 heartbeat IPC: 0.82231 cumulative IPC: 0.84380 (Simulation time: 0 hr 15 min 23 sec) 
Heartbeat CPU  0 instructions:   82000000 cycles:   95890609 heartbeat IPC: 0.80635 cumulative IPC: 0.84331 (Simulation time: 0 hr 15 min 33 sec) 
Heartbeat CPU  0 instructions:   83000003 cycles:   97143423 heartbeat IPC: 0.79821 cumulative IPC: 0.84273 (Simulation time: 0 hr 15 min 43 sec) 
Heartbeat CPU  0 instructions:   84000000 cycles:   98390033 heartbeat IPC: 0.80217 cumulative IPC: 0.84221 (Simulation time: 0 hr 15 min 53 sec) 
Heartbeat CPU  0 instructions:   85000003 cycles:   99601795 heartbeat IPC: 0.82525 cumulative IPC: 0.84200 (Simulation time: 0 hr 16 min 5 sec) 
Heartbeat CPU  0 instructions:   86000002 cycles:  100821528 heartbeat IPC: 0.81985 cumulative IPC: 0.84173 (Simulation time: 0 hr 16 min 15 sec) 
Heartbeat CPU  0 instructions:   87000001 cycles:  102052771 heartbeat IPC: 0.81219 cumulative IPC: 0.84137 (Simulation time: 0 hr 16 min 24 sec) 
Heartbeat CPU  0 instructions:   88000000 cycles:  103289483 heartbeat IPC: 0.80859 cumulative IPC: 0.84097 (Simulation time: 0 hr 16 min 34 sec) 
Heartbeat CPU  0 instructions:   89000002 cycles:  104517824 heartbeat IPC: 0.81411 cumulative IPC: 0.84065 (Simulation time: 0 hr 16 min 42 sec) 
Heartbeat CPU  0 instructions:   90000002 cycles:  105681083 heartbeat IPC: 0.85965 cumulative IPC: 0.84086 (Simulation time: 0 hr 16 min 48 sec) 
Heartbeat CPU  0 instructions:   91000001 cycles:  106909971 heartbeat IPC: 0.81374 cumulative IPC: 0.84055 (Simulation time: 0 hr 16 min 54 sec) 
Heartbeat CPU  0 instructions:   92000000 cycles:  108150477 heartbeat IPC: 0.80612 cumulative IPC: 0.84015 (Simulation time: 0 hr 17 min 1 sec) 
Heartbeat CPU  0 instructions:   93000000 cycles:  109382053 heartbeat IPC: 0.81197 cumulative IPC: 0.83983 (Simulation time: 0 hr 17 min 7 sec) 
Heartbeat CPU  0 instructions:   94000001 cycles:  110581209 heartbeat IPC: 0.83392 cumulative IPC: 0.83976 (Simulation time: 0 hr 17 min 14 sec) 
Heartbeat CPU  0 instructions:   95000000 cycles:  111789081 heartbeat IPC: 0.82790 cumulative IPC: 0.83964 (Simulation time: 0 hr 17 min 20 sec) 
Heartbeat CPU  0 instructions:   96000000 cycles:  113012120 heartbeat IPC: 0.81764 cumulative IPC: 0.83939 (Simulation time: 0 hr 17 min 27 sec) 
Heartbeat CPU  0 instructions:   97000002 cycles:  114212055 heartbeat IPC: 0.83338 cumulative IPC: 0.83933 (Simulation time: 0 hr 17 min 33 sec) 
Heartbeat CPU  0 instructions:   98000000 cycles:  115437838 heartbeat IPC: 0.81580 cumulative IPC: 0.83908 (Simulation time: 0 hr 17 min 40 sec) 
Heartbeat CPU  0 instructions:   99000000 cycles:  116649712 heartbeat IPC: 0.82517 cumulative IPC: 0.83893 (Simulation time: 0 hr 17 min 48 sec) 
Heartbeat CPU  0 instructions:  100000000 cycles:  117887981 heartbeat IPC: 0.80758 cumulative IPC: 0.83860 (Simulation time: 0 hr 17 min 57 sec) 
Heartbeat CPU  0 instructions:  101000001 cycles:  119115572 heartbeat IPC: 0.81460 cumulative IPC: 0.83835 (Simulation time: 0 hr 18 min 6 sec) 
Heartbeat CPU  0 instructions:  102000002 cycles:  120321797 heartbeat IPC: 0.82903 cumulative IPC: 0.83826 (Simulation time: 0 hr 18 min 16 sec) 
Heartbeat CPU  0 instructions:  103000001 cycles:  121531947 heartbeat IPC: 0.82634 cumulative IPC: 0.83814 (Simulation time: 0 hr 18 min 26 sec) 
Heartbeat CPU  0 instructions:  104000000 cycles:  122729447 heartbeat IPC: 0.83507 cumulative IPC: 0.83811 (Simulation time: 0 hr 18 min 36 sec) 
Heartbeat CPU  0 instructions:  105000001 cycles:  123955439 heartbeat IPC: 0.81567 cumulative IPC: 0.83788 (Simulation time: 0 hr 18 min 46 sec) 
Heartbeat CPU  0 instructions:  106000000 cycles:  125175693 heartbeat IPC: 0.81950 cumulative IPC: 0.83770 (Simulation time: 0 hr 18 min 56 sec) 
Heartbeat CPU  0 instructions:  107000000 cycles:  126414323 heartbeat IPC: 0.80734 cumulative IPC: 0.83740 (Simulation time: 0 hr 19 min 6 sec) 
Heartbeat CPU  0 instructions:  108000000 cycles:  127643255 heartbeat IPC: 0.81371 cumulative IPC: 0.83717 (Simulation time: 0 hr 19 min 13 sec) 
Heartbeat CPU  0 instructions:  109000000 cycles:  128890900 heartbeat IPC: 0.80151 cumulative IPC: 0.83683 (Simulation time: 0 hr 19 min 20 sec) 
Heartbeat CPU  0 instructions:  110000002 cycles:  130131367 heartbeat IPC: 0.80615 cumulative IPC: 0.83653 (Simulation time: 0 hr 19 min 27 sec) 
Heartbeat CPU  0 instructions:  111000001 cycles:  131370341 heartbeat IPC: 0.80712 cumulative IPC: 0.83625 (Simulation time: 0 hr 19 min 33 sec) 
Heartbeat CPU  0 instructions:  112000000 cycles:  132577611 heartbeat IPC: 0.82831 cumulative IPC: 0.83618 (Simulation time: 0 hr 19 min 40 sec) 
Heartbeat CPU  0 instructions:  113000000 cycles:  133799177 heartbeat IPC: 0.81862 cumulative IPC: 0.83602 (Simulation time: 0 hr 19 min 47 sec) 
Heartbeat CPU  0 instructions:  114000000 cycles:  134962338 heartbeat IPC: 0.85973 cumulative IPC: 0.83622 (Simulation time: 0 hr 19 min 53 sec) 
Heartbeat CPU  0 instructions:  115000002 cycles:  136000576 heartbeat IPC: 0.96317 cumulative IPC: 0.83720 (Simulation time: 0 hr 20 min 0 sec) 
Heartbeat CPU  0 instructions:  116000000 cycles:  137040598 heartbeat IPC: 0.96152 cumulative IPC: 0.83815 (Simulation time: 0 hr 20 min 8 sec) 
Heartbeat CPU  0 instructions:  117000000 cycles:  138080938 heartbeat IPC: 0.96122 cumulative IPC: 0.83908 (Simulation time: 0 hr 20 min 16 sec) 
Heartbeat CPU  0 instructions:  118000003 cycles:  139115036 heartbeat IPC: 0.96703 cumulative IPC: 0.84004 (Simulation time: 0 hr 20 min 25 sec) 
Heartbeat CPU  0 instructions:  119000001 cycles:  140158163 heartbeat IPC: 0.95865 cumulative IPC: 0.84093 (Simulation time: 0 hr 20 min 35 sec) 
Heartbeat CPU  0 instructions:  120000000 cycles:  141188764 heartbeat IPC: 0.97031 cumulative IPC: 0.84188 (Simulation time: 0 hr 20 min 43 sec) 
Heartbeat CPU  0 instructions:  121000001 cycles:  142224993 heartbeat IPC: 0.96504 cumulative IPC: 0.84279 (Simulation time: 0 hr 20 min 52 sec) 
Heartbeat CPU  0 instructions:  122000000 cycles:  143248454 heartbeat IPC: 0.97708 cumulative IPC: 0.84375 (Simulation time: 0 hr 21 min 0 sec) 
Heartbeat CPU  0 instructions:  123000003 cycles:  144268676 heartbeat IPC: 0.98018 cumulative IPC: 0.84472 (Simulation time: 0 hr 21 min 10 sec) 
Heartbeat CPU  0 instructions:  124000000 cycles:  145287775 heartbeat IPC: 0.98126 cumulative IPC: 0.84569 (Simulation time: 0 hr 21 min 19 sec) 
Heartbeat CPU  0 instructions:  125000003 cycles:  146315872 heartbeat IPC: 0.97267 cumulative IPC: 0.84659 (Simulation time: 0 hr 21 min 31 sec) 
Heartbeat CPU  0 instructions:  126000003 cycles:  147344614 heartbeat IPC: 0.97206 cumulative IPC: 0.84747 (Simulation time: 0 hr 21 min 39 sec) 
Heartbeat CPU  0 instructions:  127000002 cycles:  148372230 heartbeat IPC: 0.97313 cumulative IPC: 0.84835 (Simulation time: 0 hr 21 min 46 sec) 
Heartbeat CPU  0 instructions:  128000000 cycles:  149400450 heartbeat IPC: 0.97255 cumulative IPC: 0.84921 (Simulation time: 0 hr 21 min 53 sec) 
Heartbeat CPU  0 instructions:  129000000 cycles:  150426052 heartbeat IPC: 0.97504 cumulative IPC: 0.85007 (Simulation time: 0 hr 22 min 0 sec) 
Heartbeat CPU  0 instructions:  130000000 cycles:  151022147 heartbeat IPC: 1.67759 cumulative IPC: 0.85336 (Simulation time: 0 hr 22 min 4 sec) 
Heartbeat CPU  0 instructions:  131000000 cycles:  151417697 heartbeat IPC: 2.52813 cumulative IPC: 0.85776 (Simulation time: 0 hr 22 min 5 sec) 
Heartbeat CPU  0 instructions:  132000000 cycles:  152941322 heartbeat IPC: 0.65633 cumulative IPC: 0.85574 (Simulation time: 0 hr 22 min 9 sec) 
Heartbeat CPU  0 instructions:  133000003 cycles:  160758887 heartbeat IPC: 0.12792 cumulative IPC: 0.82012 (Simulation time: 0 hr 22 min 27 sec) 
Heartbeat CPU  0 instructions:  134000002 cycles:  168921714 heartbeat IPC: 0.12251 cumulative IPC: 0.78621 (Simulation time: 0 hr 22 min 51 sec) 
Heartbeat CPU  0 instructions:  135000002 cycles:  177114469 heartbeat IPC: 0.12206 cumulative IPC: 0.75531 (Simulation time: 0 hr 23 min 18 sec) 
Heartbeat CPU  0 instructions:  136000000 cycles:  185269534 heartbeat IPC: 0.12262 cumulative IPC: 0.72730 (Simulation time: 0 hr 23 min 44 sec) 
Heartbeat CPU  0 instructions:  137000000 cycles:  189956981 heartbeat IPC: 0.21334 cumulative IPC: 0.71455 (Simulation time: 0 hr 23 min 59 sec) 
Heartbeat CPU  0 instructions:  138000002 cycles:  192468566 heartbeat IPC: 0.39816 cumulative IPC: 0.71040 (Simulation time: 0 hr 24 min 14 sec) 
Heartbeat CPU  0 instructions:  139000000 cycles:  195397758 heartbeat IPC: 0.34139 cumulative IPC: 0.70484 (Simulation time: 0 hr 24 min 26 sec) 
Heartbeat CPU  0 instructions:  140000000 cycles:  198245404 heartbeat IPC: 0.35117 cumulative IPC: 0.69973 (Simulation time: 0 hr 24 min 35 sec) 
Heartbeat CPU  0 instructions:  141000002 cycles:  201055263 heartbeat IPC: 0.35589 cumulative IPC: 0.69490 (Simulation time: 0 hr 24 min 42 sec) 
Heartbeat CPU  0 instructions:  142000001 cycles:  203830154 heartbeat IPC: 0.36037 cumulative IPC: 0.69032 (Simulation time: 0 hr 24 min 51 sec) 
Heartbeat CPU  0 instructions:  143000000 cycles:  206580367 heartbeat IPC: 0.36361 cumulative IPC: 0.68595 (Simulation time: 0 hr 25 min 1 sec) 
Heartbeat CPU  0 instructions:  144000000 cycles:  209402863 heartbeat IPC: 0.35430 cumulative IPC: 0.68146 (Simulation time: 0 hr 25 min 9 sec) 
Heartbeat CPU  0 instructions:  145000000 cycles:  212188553 heartbeat IPC: 0.35898 cumulative IPC: 0.67721 (Simulation time: 0 hr 25 min 18 sec) 
Heartbeat CPU  0 instructions:  146000003 cycles:  214979051 heartbeat IPC: 0.35836 cumulative IPC: 0.67305 (Simulation time: 0 hr 25 min 29 sec) 
Heartbeat CPU  0 instructions:  147000002 cycles:  217816244 heartbeat IPC: 0.35246 cumulative IPC: 0.66885 (Simulation time: 0 hr 25 min 41 sec) 
Heartbeat CPU  0 instructions:  148000000 cycles:  220699414 heartbeat IPC: 0.34684 cumulative IPC: 0.66462 (Simulation time: 0 hr 25 min 52 sec) 
Heartbeat CPU  0 instructions:  149000003 cycles:  223395669 heartbeat IPC: 0.37089 cumulative IPC: 0.66106 (Simulation time: 0 hr 26 min 4 sec) 
Heartbeat CPU  0 instructions:  150000001 cycles:  226180494 heartbeat IPC: 0.35909 cumulative IPC: 0.65733 (Simulation time: 0 hr 26 min 15 sec) 
Heartbeat CPU  0 instructions:  151000000 cycles:  229017953 heartbeat IPC: 0.35243 cumulative IPC: 0.65353 (Simulation time: 0 hr 26 min 26 sec) 
Heartbeat CPU  0 instructions:  152000000 cycles:  231825270 heartbeat IPC: 0.35621 cumulative IPC: 0.64992 (Simulation time: 0 hr 26 min 40 sec) 
Heartbeat CPU  0 instructions:  153000002 cycles:  234665516 heartbeat IPC: 0.35208 cumulative IPC: 0.64630 (Simulation time: 0 hr 26 min 51 sec) 
Heartbeat CPU  0 instructions:  154000003 cycles:  237457856 heartbeat IPC: 0.35812 cumulative IPC: 0.64289 (Simulation time: 0 hr 27 min 0 sec) 
Heartbeat CPU  0 instructions:  155000000 cycles:  240221545 heartbeat IPC: 0.36183 cumulative IPC: 0.63965 (Simulation time: 0 hr 27 min 8 sec) 
Heartbeat CPU  0 instructions:  156000000 cycles:  243007407 heartbeat IPC: 0.35896 cumulative IPC: 0.63641 (Simulation time: 0 hr 27 min 16 sec) 
Heartbeat CPU  0 instructions:  157000000 cycles:  245783152 heartbeat IPC: 0.36026 cumulative IPC: 0.63328 (Simulation time: 0 hr 27 min 23 sec) 
Heartbeat CPU  0 instructions:  158000001 cycles:  248544587 heartbeat IPC: 0.36213 cumulative IPC: 0.63026 (Simulation time: 0 hr 27 min 30 sec) 
Heartbeat CPU  0 instructions:  159000002 cycles:  251364068 heartbeat IPC: 0.35468 cumulative IPC: 0.62715 (Simulation time: 0 hr 27 min 38 sec) 
Heartbeat CPU  0 instructions:  160000000 cycles:  254139365 heartbeat IPC: 0.36032 cumulative IPC: 0.62423 (Simulation time: 0 hr 27 min 47 sec) 
Heartbeat CPU  0 instructions:  161000001 cycles:  256848867 heartbeat IPC: 0.36907 cumulative IPC: 0.62153 (Simulation time: 0 hr 27 min 56 sec) 
Heartbeat CPU  0 instructions:  162000000 cycles:  259702398 heartbeat IPC: 0.35044 cumulative IPC: 0.61854 (Simulation time: 0 hr 28 min 8 sec) 
Heartbeat CPU  0 instructions:  163000001 cycles:  262528269 heartbeat IPC: 0.35387 cumulative IPC: 0.61568 (Simulation time: 0 hr 28 min 23 sec) 
Heartbeat CPU  0 instructions:  164000000 cycles:  265307680 heartbeat IPC: 0.35979 cumulative IPC: 0.61298 (Simulation time: 0 hr 28 min 39 sec) 
Heartbeat CPU  0 instructions:  165000000 cycles:  268109887 heartbeat IPC: 0.35686 cumulative IPC: 0.61030 (Simulation time: 0 hr 28 min 52 sec) 
Heartbeat CPU  0 instructions:  166000002 cycles:  270981018 heartbeat IPC: 0.34830 cumulative IPC: 0.60751 (Simulation time: 0 hr 29 min 5 sec) 
Heartbeat CPU  0 instructions:  167000000 cycles:  273778730 heartbeat IPC: 0.35743 cumulative IPC: 0.60495 (Simulation time: 0 hr 29 min 15 sec) 
Heartbeat CPU  0 instructions:  168000000 cycles:  276504779 heartbeat IPC: 0.36683 cumulative IPC: 0.60259 (Simulation time: 0 hr 29 min 28 sec) 
Heartbeat CPU  0 instructions:  169000000 cycles:  279436329 heartbeat IPC: 0.34112 cumulative IPC: 0.59984 (Simulation time: 0 hr 29 min 43 sec) 
Heartbeat CPU  0 instructions:  170000000 cycles:  282229261 heartbeat IPC: 0.35805 cumulative IPC: 0.59743 (Simulation time: 0 hr 29 min 54 sec) 
Heartbeat CPU  0 instructions:  171000000 cycles:  285056136 heartbeat IPC: 0.35375 cumulative IPC: 0.59501 (Simulation time: 0 hr 30 min 1 sec) 
Heartbeat CPU  0 instructions:  172000000 cycles:  287760519 heartbeat IPC: 0.36977 cumulative IPC: 0.59288 (Simulation time: 0 hr 30 min 11 sec) 
Heartbeat CPU  0 instructions:  173000001 cycles:  290500655 heartbeat IPC: 0.36495 cumulative IPC: 0.59073 (Simulation time: 0 hr 30 min 22 sec) 
Heartbeat CPU  0 instructions:  174000000 cycles:  293294927 heartbeat IPC: 0.35787 cumulative IPC: 0.58850 (Simulation time: 0 hr 30 min 32 sec) 
Heartbeat CPU  0 instructions:  175000000 cycles:  296161853 heartbeat IPC: 0.34881 cumulative IPC: 0.58617 (Simulation time: 0 hr 30 min 44 sec) 
Heartbeat CPU  0 instructions:  176000000 cycles:  298878132 heartbeat IPC: 0.36815 cumulative IPC: 0.58418 (Simulation time: 0 hr 30 min 57 sec) 
Heartbeat CPU  0 instructions:  177000000 cycles:  301627103 heartbeat IPC: 0.36377 cumulative IPC: 0.58217 (Simulation time: 0 hr 31 min 10 sec) 
Heartbeat CPU  0 instructions:  178000000 cycles:  304478072 heartbeat IPC: 0.35076 cumulative IPC: 0.57999 (Simulation time: 0 hr 31 min 26 sec) 
Heartbeat CPU  0 instructions:  179000003 cycles:  307319284 heartbeat IPC: 0.35196 cumulative IPC: 0.57788 (Simulation time: 0 hr 31 min 42 sec) 
Heartbeat CPU  0 instructions:  180000000 cycles:  310116208 heartbeat IPC: 0.35753 cumulative IPC: 0.57588 (Simulation time: 0 hr 31 min 51 sec) 
Heartbeat CPU  0 instructions:  181000002 cycles:  313038672 heartbeat IPC: 0.34218 cumulative IPC: 0.57370 (Simulation time: 0 hr 32 min 1 sec) 
Heartbeat CPU  0 instructions:  182000001 cycles:  315829680 heartbeat IPC: 0.35829 cumulative IPC: 0.57179 (Simulation time: 0 hr 32 min 7 sec) 
Heartbeat CPU  0 instructions:  183000000 cycles:  318589578 heartbeat IPC: 0.36233 cumulative IPC: 0.56997 (Simulation time: 0 hr 32 min 14 sec) 
Heartbeat CPU  0 instructions:  184000000 cycles:  321377604 heartbeat IPC: 0.35868 cumulative IPC: 0.56813 (Simulation time: 0 hr 32 min 20 sec) 
Heartbeat CPU  0 instructions:  185000002 cycles:  324295878 heartbeat IPC: 0.34267 cumulative IPC: 0.56609 (Simulation time: 0 hr 32 min 27 sec) 
Heartbeat CPU  0 instructions:  186000000 cycles:  327029585 heartbeat IPC: 0.36580 cumulative IPC: 0.56441 (Simulation time: 0 hr 32 min 33 sec) 
Heartbeat CPU  0 instructions:  187000000 cycles:  329771840 heartbeat IPC: 0.36466 cumulative IPC: 0.56275 (Simulation time: 0 hr 32 min 39 sec) 
Heartbeat CPU  0 instructions:  188000000 cycles:  332605198 heartbeat IPC: 0.35294 cumulative IPC: 0.56095 (Simulation time: 0 hr 32 min 46 sec) 
Heartbeat CPU  0 instructions:  189000000 cycles:  335414095 heartbeat IPC: 0.35601 cumulative IPC: 0.55923 (Simulation time: 0 hr 32 min 53 sec) 
Heartbeat CPU  0 instructions:  190000001 cycles:  338249280 heartbeat IPC: 0.35271 cumulative IPC: 0.55750 (Simulation time: 0 hr 33 min 0 sec) 
Heartbeat CPU  0 instructions:  191000002 cycles:  340988108 heartbeat IPC: 0.36512 cumulative IPC: 0.55595 (Simulation time: 0 hr 33 min 8 sec) 
Heartbeat CPU  0 instructions:  192000000 cycles:  343734669 heartbeat IPC: 0.36409 cumulative IPC: 0.55441 (Simulation time: 0 hr 33 min 18 sec) 
Heartbeat CPU  0 instructions:  193000000 cycles:  346515246 heartbeat IPC: 0.35964 cumulative IPC: 0.55284 (Simulation time: 0 hr 33 min 28 sec) 
Heartbeat CPU  0 instructions:  194000002 cycles:  349325153 heartbeat IPC: 0.35588 cumulative IPC: 0.55125 (Simulation time: 0 hr 33 min 39 sec) 
Heartbeat CPU  0 instructions:  195000003 cycles:  352177455 heartbeat IPC: 0.35059 cumulative IPC: 0.54962 (Simulation time: 0 hr 33 min 50 sec) 
Heartbeat CPU  0 instructions:  196000000 cycles:  354976803 heartbeat IPC: 0.35722 cumulative IPC: 0.54810 (Simulation time: 0 hr 34 min 6 sec) 
Heartbeat CPU  0 instructions:  197000001 cycles:  357756330 heartbeat IPC: 0.35977 cumulative IPC: 0.54663 (Simulation time: 0 hr 34 min 18 sec) 
Heartbeat CPU  0 instructions:  198000000 cycles:  360648964 heartbeat IPC: 0.34571 cumulative IPC: 0.54502 (Simulation time: 0 hr 34 min 39 sec) 
Heartbeat CPU  0 instructions:  199000002 cycles:  363405486 heartbeat IPC: 0.36278 cumulative IPC: 0.54363 (Simulation time: 0 hr 34 min 55 sec) 
Heartbeat CPU  0 instructions:  200000000 cycles:  366231224 heartbeat IPC: 0.35389 cumulative IPC: 0.54216 (Simulation time: 0 hr 35 min 8 sec) 
Heartbeat CPU  0 instructions:  201000003 cycles:  368117259 heartbeat IPC: 0.53021 cumulative IPC: 0.54210 (Simulation time: 0 hr 35 min 14 sec) 
Heartbeat CPU  0 instructions:  202000000 cycles:  368744243 heartbeat IPC: 1.59493 cumulative IPC: 0.54390 (Simulation time: 0 hr 35 min 17 sec) 
Heartbeat CPU  0 instructions:  203000003 cycles:  369863982 heartbeat IPC: 0.89307 cumulative IPC: 0.54496 (Simulation time: 0 hr 35 min 23 sec) 
Heartbeat CPU  0 instructions:  204000000 cycles:  370927064 heartbeat IPC: 0.94066 cumulative IPC: 0.54609 (Simulation time: 0 hr 35 min 30 sec) 
Heartbeat CPU  0 instructions:  205000001 cycles:  371888749 heartbeat IPC: 1.03984 cumulative IPC: 0.54737 (Simulation time: 0 hr 35 min 37 sec) 
Heartbeat CPU  0 instructions:  206000000 cycles:  372666603 heartbeat IPC: 1.28559 cumulative IPC: 0.54892 (Simulation time: 0 hr 35 min 47 sec) 
Heartbeat CPU  0 instructions:  207000002 cycles:  373516320 heartbeat IPC: 1.17686 cumulative IPC: 0.55035 (Simulation time: 0 hr 36 min 4 sec) 
Heartbeat CPU  0 instructions:  208000000 cycles:  374484068 heartbeat IPC: 1.03332 cumulative IPC: 0.55160 (Simulation time: 0 hr 36 min 18 sec) 
Heartbeat CPU  0 instructions:  209000002 cycles:  375455330 heartbeat IPC: 1.02959 cumulative IPC: 0.55284 (Simulation time: 0 hr 36 min 34 sec) 
Heartbeat CPU  0 instructions:  210000003 cycles:  376427217 heartbeat IPC: 1.02893 cumulative IPC: 0.55407 (Simulation time: 0 hr 36 min 46 sec) 
Heartbeat CPU  0 instructions:  211000000 cycles:  377262918 heartbeat IPC: 1.19660 cumulative IPC: 0.55550 (Simulation time: 0 hr 36 min 57 sec) 
Heartbeat CPU  0 instructions:  212000000 cycles:  378265837 heartbeat IPC: 0.99709 cumulative IPC: 0.55668 (Simulation time: 0 hr 37 min 9 sec) 
Heartbeat CPU  0 instructions:  213000003 cycles:  379517231 heartbeat IPC: 0.79911 cumulative IPC: 0.55748 (Simulation time: 0 hr 37 min 22 sec) 
Heartbeat CPU  0 instructions:  214000002 cycles:  380621657 heartbeat IPC: 0.90545 cumulative IPC: 0.55849 (Simulation time: 0 hr 37 min 35 sec) 
Heartbeat CPU  0 instructions:  215000000 cycles:  381746262 heartbeat IPC: 0.88920 cumulative IPC: 0.55947 (Simulation time: 0 hr 37 min 45 sec) 
Heartbeat CPU  0 instructions:  216000000 cycles:  383100241 heartbeat IPC: 0.73856 cumulative IPC: 0.56010 (Simulation time: 0 hr 37 min 53 sec) 
Heartbeat CPU  0 instructions:  217000003 cycles:  384256643 heartbeat IPC: 0.86475 cumulative IPC: 0.56102 (Simulation time: 0 hr 38 min 1 sec) 
Heartbeat CPU  0 instructions:  218000002 cycles:  385385168 heartbeat IPC: 0.88611 cumulative IPC: 0.56198 (Simulation time: 0 hr 38 min 10 sec) 
Heartbeat CPU  0 instructions:  219000002 cycles:  386650788 heartbeat IPC: 0.79013 cumulative IPC: 0.56272 (Simulation time: 0 hr 38 min 22 sec) 
Heartbeat CPU  0 instructions:  220000000 cycles:  387946179 heartbeat IPC: 0.77197 cumulative IPC: 0.56342 (Simulation time: 0 hr 38 min 35 sec) 
Heartbeat CPU  0 instructions:  221000003 cycles:  389100147 heartbeat IPC: 0.86658 cumulative IPC: 0.56433 (Simulation time: 0 hr 38 min 51 sec) 
Heartbeat CPU  0 instructions:  222000002 cycles:  390395524 heartbeat IPC: 0.77198 cumulative IPC: 0.56502 (Simulation time: 0 hr 39 min 8 sec) 
Heartbeat CPU  0 instructions:  223000002 cycles:  391792365 heartbeat IPC: 0.71590 cumulative IPC: 0.56556 (Simulation time: 0 hr 39 min 31 sec) 
Heartbeat CPU  0 instructions:  224000000 cycles:  393119314 heartbeat IPC: 0.75361 cumulative IPC: 0.56619 (Simulation time: 0 hr 39 min 49 sec) 
Heartbeat CPU  0 instructions:  225000001 cycles:  394347862 heartbeat IPC: 0.81397 cumulative IPC: 0.56697 (Simulation time: 0 hr 40 min 6 sec) 
Heartbeat CPU  0 instructions:  226000000 cycles:  395430353 heartbeat IPC: 0.92379 cumulative IPC: 0.56795 (Simulation time: 0 hr 40 min 16 sec) 
Heartbeat CPU  0 instructions:  227000001 cycles:  396522239 heartbeat IPC: 0.91585 cumulative IPC: 0.56891 (Simulation time: 0 hr 40 min 24 sec) 
Heartbeat CPU  0 instructions:  228000000 cycles:  397884607 heartbeat IPC: 0.73402 cumulative IPC: 0.56947 (Simulation time: 0 hr 40 min 35 sec) 
Heartbeat CPU  0 instructions:  229000000 cycles:  398993087 heartbeat IPC: 0.90214 cumulative IPC: 0.57040 (Simulation time: 0 hr 40 min 44 sec) 
Heartbeat CPU  0 instructions:  230000000 cycles:  400097970 heartbeat IPC: 0.90507 cumulative IPC: 0.57133 (Simulation time: 0 hr 40 min 52 sec) 
Heartbeat CPU  0 instructions:  231000003 cycles:  401296281 heartbeat IPC: 0.83451 cumulative IPC: 0.57211 (Simulation time: 0 hr 41 min 2 sec) 
Heartbeat CPU  0 instructions:  232000000 cycles:  402574056 heartbeat IPC: 0.78261 cumulative IPC: 0.57278 (Simulation time: 0 hr 41 min 17 sec) 
Heartbeat CPU  0 instructions:  233000003 cycles:  403657406 heartbeat IPC: 0.92307 cumulative IPC: 0.57373 (Simulation time: 0 hr 41 min 33 sec) 
Heartbeat CPU  0 instructions:  234000001 cycles:  404735455 heartbeat IPC: 0.92760 cumulative IPC: 0.57467 (Simulation time: 0 hr 41 min 50 sec) 
Heartbeat CPU  0 instructions:  235000003 cycles:  406041096 heartbeat IPC: 0.76591 cumulative IPC: 0.57529 (Simulation time: 0 hr 42 min 6 sec) 
Heartbeat CPU  0 instructions:  236000000 cycles:  407192886 heartbeat IPC: 0.86821 cumulative IPC: 0.57612 (Simulation time: 0 hr 42 min 22 sec) 
Heartbeat CPU  0 instructions:  237000000 cycles:  408281807 heartbeat IPC: 0.91834 cumulative IPC: 0.57703 (Simulation time: 0 hr 42 min 36 sec) 
Heartbeat CPU  0 instructions:  238000001 cycles:  409427310 heartbeat IPC: 0.87298 cumulative IPC: 0.57786 (Simulation time: 0 hr 42 min 48 sec) 
Heartbeat CPU  0 instructions:  239000003 cycles:  410685679 heartbeat IPC: 0.79468 cumulative IPC: 0.57853 (Simulation time: 0 hr 43 min 0 sec) 
Heartbeat CPU  0 instructions:  240000000 cycles:  412351556 heartbeat IPC: 0.60028 cumulative IPC: 0.57862 (Simulation time: 0 hr 43 min 11 sec) 
Heartbeat CPU  0 instructions:  241000000 cycles:  413491932 heartbeat IPC: 0.87690 cumulative IPC: 0.57944 (Simulation time: 0 hr 43 min 23 sec) 
Heartbeat CPU  0 instructions:  242000003 cycles:  414612360 heartbeat IPC: 0.89252 cumulative IPC: 0.58029 (Simulation time: 0 hr 43 min 38 sec) 
Heartbeat CPU  0 instructions:  243000003 cycles:  415796002 heartbeat IPC: 0.84485 cumulative IPC: 0.58105 (Simulation time: 0 hr 43 min 53 sec) 
Heartbeat CPU  0 instructions:  244000000 cycles:  417116138 heartbeat IPC: 0.75750 cumulative IPC: 0.58161 (Simulation time: 0 hr 44 min 10 sec) 
Heartbeat CPU  0 instructions:  245000001 cycles:  418224697 heartbeat IPC: 0.90207 cumulative IPC: 0.58246 (Simulation time: 0 hr 44 min 26 sec) 
Heartbeat CPU  0 instructions:  246000003 cycles:  419313492 heartbeat IPC: 0.91845 cumulative IPC: 0.58333 (Simulation time: 0 hr 44 min 41 sec) 
Heartbeat CPU  0 instructions:  247000001 cycles:  420615876 heartbeat IPC: 0.76782 cumulative IPC: 0.58390 (Simulation time: 0 hr 44 min 56 sec) 
Heartbeat CPU  0 instructions:  248000000 cycles:  421812684 heartbeat IPC: 0.83556 cumulative IPC: 0.58462 (Simulation time: 0 hr 45 min 11 sec) 
Heartbeat CPU  0 instructions:  249000001 cycles:  422917908 heartbeat IPC: 0.90479 cumulative IPC: 0.58546 (Simulation time: 0 hr 45 min 22 sec) 
Heartbeat CPU  0 instructions:  250000001 cycles:  424082263 heartbeat IPC: 0.85884 cumulative IPC: 0.58621 (Simulation time: 0 hr 45 min 32 sec) 
Heartbeat CPU  0 instructions:  251000002 cycles:  425415122 heartbeat IPC: 0.75027 cumulative IPC: 0.58673 (Simulation time: 0 hr 45 min 41 sec) 
Heartbeat CPU  0 instructions:  252000000 cycles:  426582221 heartbeat IPC: 0.85682 cumulative IPC: 0.58747 (Simulation time: 0 hr 45 min 51 sec) 
Heartbeat CPU  0 instructions:  253000001 cycles:  427702363 heartbeat IPC: 0.89274 cumulative IPC: 0.58827 (Simulation time: 0 hr 46 min 1 sec) 
Heartbeat CPU  0 instructions:  254000000 cycles:  428982260 heartbeat IPC: 0.78131 cumulative IPC: 0.58885 (Simulation time: 0 hr 46 min 10 sec) 
Heartbeat CPU  0 instructions:  255000002 cycles:  430324522 heartbeat IPC: 0.74501 cumulative IPC: 0.58933 (Simulation time: 0 hr 46 min 23 sec) 
Heartbeat CPU  0 instructions:  256000000 cycles:  431599767 heartbeat IPC: 0.78416 cumulative IPC: 0.58991 (Simulation time: 0 hr 46 min 43 sec) 
Heartbeat CPU  0 instructions:  257000002 cycles:  432931064 heartbeat IPC: 0.75115 cumulative IPC: 0.59041 (Simulation time: 0 hr 46 min 59 sec) 
Heartbeat CPU  0 instructions:  258000000 cycles:  434045522 heartbeat IPC: 0.89730 cumulative IPC: 0.59120 (Simulation time: 0 hr 47 min 13 sec) 
Heartbeat CPU  0 instructions:  259000003 cycles:  435338950 heartbeat IPC: 0.77314 cumulative IPC: 0.59174 (Simulation time: 0 hr 47 min 29 sec) 
Heartbeat CPU  0 instructions:  260000000 cycles:  436552444 heartbeat IPC: 0.82406 cumulative IPC: 0.59239 (Simulation time: 0 hr 47 min 46 sec) 
Heartbeat CPU  0 instructions:  261000003 cycles:  437639226 heartbeat IPC: 0.92015 cumulative IPC: 0.59320 (Simulation time: 0 hr 48 min 0 sec) 
Heartbeat CPU  0 instructions:  262000000 cycles:  438766396 heartbeat IPC: 0.88717 cumulative IPC: 0.59396 (Simulation time: 0 hr 48 min 11 sec) 
Heartbeat CPU  0 instructions:  263000003 cycles:  440127397 heartbeat IPC: 0.73476 cumulative IPC: 0.59440 (Simulation time: 0 hr 48 min 21 sec) 
Heartbeat CPU  0 instructions:  264000000 cycles:  441283614 heartbeat IPC: 0.86489 cumulative IPC: 0.59511 (Simulation time: 0 hr 48 min 31 sec) 
Heartbeat CPU  0 instructions:  265000002 cycles:  442387186 heartbeat IPC: 0.90615 cumulative IPC: 0.59588 (Simulation time: 0 hr 48 min 38 sec) 
Heartbeat CPU  0 instructions:  266000000 cycles:  443622412 heartbeat IPC: 0.80957 cumulative IPC: 0.59648 (Simulation time: 0 hr 48 min 48 sec) 
Heartbeat CPU  0 instructions:  267000000 cycles:  444933533 heartbeat IPC: 0.76271 cumulative IPC: 0.59697 (Simulation time: 0 hr 48 min 57 sec) 
Heartbeat CPU  0 instructions:  268000000 cycles:  446091698 heartbeat IPC: 0.86343 cumulative IPC: 0.59767 (Simulation time: 0 hr 49 min 8 sec) 
Heartbeat CPU  0 instructions:  269000003 cycles:  447228829 heartbeat IPC: 0.87941 cumulative IPC: 0.59838 (Simulation time: 0 hr 49 min 24 sec) 
Heartbeat CPU  0 instructions:  270000003 cycles:  448554339 heartbeat IPC: 0.75443 cumulative IPC: 0.59885 (Simulation time: 0 hr 49 min 39 sec) 
Heartbeat CPU  0 instructions:  271000000 cycles:  449810068 heartbeat IPC: 0.79635 cumulative IPC: 0.59940 (Simulation time: 0 hr 49 min 54 sec) 
Heartbeat CPU  0 instructions:  272000000 cycles:  451096701 heartbeat IPC: 0.77722 cumulative IPC: 0.59991 (Simulation time: 0 hr 50 min 10 sec) 
Heartbeat CPU  0 instructions:  273000002 cycles:  452452809 heartbeat IPC: 0.73741 cumulative IPC: 0.60032 (Simulation time: 0 hr 50 min 25 sec) 
Heartbeat CPU  0 instructions:  274000000 cycles:  453768295 heartbeat IPC: 0.76017 cumulative IPC: 0.60078 (Simulation time: 0 hr 50 min 41 sec) 
Heartbeat CPU  0 instructions:  275000000 cycles:  455051882 heartbeat IPC: 0.77907 cumulative IPC: 0.60129 (Simulation time: 0 hr 50 min 53 sec) 
Heartbeat CPU  0 instructions:  276000000 cycles:  456334501 heartbeat IPC: 0.77965 cumulative IPC: 0.60179 (Simulation time: 0 hr 51 min 4 sec) 
Heartbeat CPU  0 instructions:  277000000 cycles:  457478670 heartbeat IPC: 0.87400 cumulative IPC: 0.60247 (Simulation time: 0 hr 51 min 15 sec) 
Heartbeat CPU  0 instructions:  278000003 cycles:  458773253 heartbeat IPC: 0.77245 cumulative IPC: 0.60295 (Simulation time: 0 hr 51 min 24 sec) 
Heartbeat CPU  0 instructions:  279000001 cycles:  460038038 heartbeat IPC: 0.79065 cumulative IPC: 0.60347 (Simulation time: 0 hr 51 min 36 sec) 
Heartbeat CPU  0 instructions:  280000000 cycles:  461230142 heartbeat IPC: 0.83885 cumulative IPC: 0.60408 (Simulation time: 0 hr 51 min 48 sec) 
Heartbeat CPU  0 instructions:  281000001 cycles:  462454125 heartbeat IPC: 0.81701 cumulative IPC: 0.60465 (Simulation time: 0 hr 52 min 3 sec) 
Heartbeat CPU  0 instructions:  282000000 cycles:  463671130 heartbeat IPC: 0.82169 cumulative IPC: 0.60522 (Simulation time: 0 hr 52 min 19 sec) 
Heartbeat CPU  0 instructions:  283000001 cycles:  464967521 heartbeat IPC: 0.77137 cumulative IPC: 0.60568 (Simulation time: 0 hr 52 min 33 sec) 
Heartbeat CPU  0 instructions:  284000000 cycles:  466096501 heartbeat IPC: 0.88575 cumulative IPC: 0.60636 (Simulation time: 0 hr 52 min 47 sec) 
Heartbeat CPU  0 instructions:  285000002 cycles:  467369992 heartbeat IPC: 0.78524 cumulative IPC: 0.60685 (Simulation time: 0 hr 52 min 59 sec) 
Heartbeat CPU  0 instructions:  286000002 cycles:  468611509 heartbeat IPC: 0.80547 cumulative IPC: 0.60738 (Simulation time: 0 hr 53 min 12 sec) 
Heartbeat CPU  0 instructions:  287000000 cycles:  469820122 heartbeat IPC: 0.82739 cumulative IPC: 0.60794 (Simulation time: 0 hr 53 min 26 sec) 
Heartbeat CPU  0 instructions:  288000000 cycles:  471011605 heartbeat IPC: 0.83929 cumulative IPC: 0.60853 (Simulation time: 0 hr 53 min 41 sec) 
Heartbeat CPU  0 instructions:  289000002 cycles:  472334668 heartbeat IPC: 0.75582 cumulative IPC: 0.60894 (Simulation time: 0 hr 53 min 53 sec) 
Heartbeat CPU  0 instructions:  290000001 cycles:  473908863 heartbeat IPC: 0.63524 cumulative IPC: 0.60903 (Simulation time: 0 hr 54 min 3 sec) 
Heartbeat CPU  0 instructions:  291000003 cycles:  475221370 heartbeat IPC: 0.76190 cumulative IPC: 0.60945 (Simulation time: 0 hr 54 min 12 sec) 
Heartbeat CPU  0 instructions:  292000000 cycles:  476408803 heartbeat IPC: 0.84215 cumulative IPC: 0.61004 (Simulation time: 0 hr 54 min 23 sec) 
Heartbeat CPU  0 instructions:  293000003 cycles:  477650909 heartbeat IPC: 0.80509 cumulative IPC: 0.61054 (Simulation time: 0 hr 54 min 33 sec) 
Heartbeat CPU  0 instructions:  294000001 cycles:  478862380 heartbeat IPC: 0.82544 cumulative IPC: 0.61109 (Simulation time: 0 hr 54 min 44 sec) 
Heartbeat CPU  0 instructions:  295000001 cycles:  480149457 heartbeat IPC: 0.77695 cumulative IPC: 0.61153 (Simulation time: 0 hr 54 min 58 sec) 
Heartbeat CPU  0 instructions:  296000000 cycles:  481308424 heartbeat IPC: 0.86284 cumulative IPC: 0.61214 (Simulation time: 0 hr 55 min 17 sec) 
Heartbeat CPU  0 instructions:  297000000 cycles:  482545480 heartbeat IPC: 0.80837 cumulative IPC: 0.61264 (Simulation time: 0 hr 55 min 30 sec) 
Heartbeat CPU  0 instructions:  298000002 cycles:  483770996 heartbeat IPC: 0.81598 cumulative IPC: 0.61316 (Simulation time: 0 hr 55 min 42 sec) 
Heartbeat CPU  0 instructions:  299000000 cycles:  484891916 heartbeat IPC: 0.89212 cumulative IPC: 0.61381 (Simulation time: 0 hr 55 min 57 sec) 
Heartbeat CPU  0 instructions:  300000000 cycles:  486143030 heartbeat IPC: 0.79929 cumulative IPC: 0.61429 (Simulation time: 0 hr 56 min 10 sec) 
Heartbeat CPU  0 instructions:  301000003 cycles:  487459793 heartbeat IPC: 0.75944 cumulative IPC: 0.61468 (Simulation time: 0 hr 56 min 23 sec) 
Heartbeat CPU  0 instructions:  302000001 cycles:  488634257 heartbeat IPC: 0.85145 cumulative IPC: 0.61525 (Simulation time: 0 hr 56 min 35 sec) 
Heartbeat CPU  0 instructions:  303000002 cycles:  489816303 heartbeat IPC: 0.84599 cumulative IPC: 0.61581 (Simulation time: 0 hr 56 min 42 sec) 
Heartbeat CPU  0 instructions:  304000000 cycles:  491069270 heartbeat IPC: 0.79810 cumulative IPC: 0.61627 (Simulation time: 0 hr 56 min 50 sec) 
Heartbeat CPU  0 instructions:  305000001 cycles:  492389310 heartbeat IPC: 0.75755 cumulative IPC: 0.61665 (Simulation time: 0 hr 56 min 57 sec) 
Heartbeat CPU  0 instructions:  306000001 cycles:  493695373 heartbeat IPC: 0.76566 cumulative IPC: 0.61705 (Simulation time: 0 hr 57 min 7 sec) 
Heartbeat CPU  0 instructions:  307000002 cycles:  494982627 heartbeat IPC: 0.77685 cumulative IPC: 0.61746 (Simulation time: 0 hr 57 min 18 sec) 
Heartbeat CPU  0 instructions:  308000000 cycles:  496225328 heartbeat IPC: 0.80470 cumulative IPC: 0.61793 (Simulation time: 0 hr 57 min 32 sec) 
Heartbeat CPU  0 instructions:  309000001 cycles:  497463611 heartbeat IPC: 0.80757 cumulative IPC: 0.61841 (Simulation time: 0 hr 57 min 46 sec) 
Heartbeat CPU  0 instructions:  310000000 cycles:  498693711 heartbeat IPC: 0.81294 cumulative IPC: 0.61889 (Simulation time: 0 hr 57 min 58 sec) 
Heartbeat CPU  0 instructions:  311000003 cycles:  499870537 heartbeat IPC: 0.84975 cumulative IPC: 0.61943 (Simulation time: 0 hr 58 min 11 sec) 
Heartbeat CPU  0 instructions:  312000000 cycles:  501068679 heartbeat IPC: 0.83462 cumulative IPC: 0.61995 (Simulation time: 0 hr 58 min 24 sec) 
Heartbeat CPU  0 instructions:  313000001 cycles:  502302360 heartbeat IPC: 0.81058 cumulative IPC: 0.62042 (Simulation time: 0 hr 58 min 38 sec) 
Heartbeat CPU  0 instructions:  314000001 cycles:  503570592 heartbeat IPC: 0.78850 cumulative IPC: 0.62084 (Simulation time: 0 hr 58 min 52 sec) 
Heartbeat CPU  0 instructions:  315000003 cycles:  504682237 heartbeat IPC: 0.89957 cumulative IPC: 0.62146 (Simulation time: 0 hr 59 min 2 sec) 
Heartbeat CPU  0 instructions:  316000000 cycles:  505818786 heartbeat IPC: 0.87985 cumulative IPC: 0.62204 (Simulation time: 0 hr 59 min 11 sec) 
Heartbeat CPU  0 instructions:  317000001 cycles:  507173620 heartbeat IPC: 0.73810 cumulative IPC: 0.62235 (Simulation time: 0 hr 59 min 23 sec) 
Heartbeat CPU  0 instructions:  318000000 cycles:  508361609 heartbeat IPC: 0.84176 cumulative IPC: 0.62286 (Simulation time: 0 hr 59 min 34 sec) 
Heartbeat CPU  0 instructions:  319000000 cycles:  509467053 heartbeat IPC: 0.90461 cumulative IPC: 0.62348 (Simulation time: 0 hr 59 min 42 sec) 
Heartbeat CPU  0 instructions:  320000000 cycles:  510653915 heartbeat IPC: 0.84256 cumulative IPC: 0.62399 (Simulation time: 0 hr 59 min 54 sec) 
Heartbeat CPU  0 instructions:  321000003 cycles:  512007620 heartbeat IPC: 0.73872 cumulative IPC: 0.62429 (Simulation time: 1 hr 0 min 9 sec) 
Heartbeat CPU  0 instructions:  322000001 cycles:  513227524 heartbeat IPC: 0.81973 cumulative IPC: 0.62475 (Simulation time: 1 hr 0 min 23 sec) 
Heartbeat CPU  0 instructions:  323000001 cycles:  514517434 heartbeat IPC: 0.77525 cumulative IPC: 0.62513 (Simulation time: 1 hr 0 min 35 sec) 
Heartbeat CPU  0 instructions:  324000000 cycles:  515758762 heartbeat IPC: 0.80559 cumulative IPC: 0.62557 (Simulation time: 1 hr 0 min 59 sec) 
Heartbeat CPU  0 instructions:  325000003 cycles:  517061501 heartbeat IPC: 0.76762 cumulative IPC: 0.62593 (Simulation time: 1 hr 1 min 13 sec) 
Heartbeat CPU  0 instructions:  326000003 cycles:  518364444 heartbeat IPC: 0.76749 cumulative IPC: 0.62628 (Simulation time: 1 hr 1 min 27 sec) 
Heartbeat CPU  0 instructions:  327000002 cycles:  519513970 heartbeat IPC: 0.86992 cumulative IPC: 0.62682 (Simulation time: 1 hr 1 min 41 sec) 
Heartbeat CPU  0 instructions:  328000000 cycles:  520698068 heartbeat IPC: 0.84452 cumulative IPC: 0.62732 (Simulation time: 1 hr 1 min 52 sec) 
Heartbeat CPU  0 instructions:  329000001 cycles:  521995263 heartbeat IPC: 0.77089 cumulative IPC: 0.62768 (Simulation time: 1 hr 2 min 1 sec) 
Heartbeat CPU  0 instructions:  330000003 cycles:  523262969 heartbeat IPC: 0.78883 cumulative IPC: 0.62807 (Simulation time: 1 hr 2 min 11 sec) 
Heartbeat CPU  0 instructions:  331000001 cycles:  524381404 heartbeat IPC: 0.89410 cumulative IPC: 0.62864 (Simulation time: 1 hr 2 min 20 sec) 
Heartbeat CPU  0 instructions:  332000000 cycles:  525594969 heartbeat IPC: 0.82402 cumulative IPC: 0.62909 (Simulation time: 1 hr 2 min 31 sec) 
Heartbeat CPU  0 instructions:  333000002 cycles:  526918049 heartbeat IPC: 0.75581 cumulative IPC: 0.62941 (Simulation time: 1 hr 2 min 44 sec) 
Heartbeat CPU  0 instructions:  334000003 cycles:  528117804 heartbeat IPC: 0.83350 cumulative IPC: 0.62987 (Simulation time: 1 hr 2 min 58 sec) 
Heartbeat CPU  0 instructions:  335000002 cycles:  529277625 heartbeat IPC: 0.86220 cumulative IPC: 0.63038 (Simulation time: 1 hr 3 min 13 sec) 
Heartbeat CPU  0 instructions:  336000000 cycles:  530578425 heartbeat IPC: 0.76876 cumulative IPC: 0.63072 (Simulation time: 1 hr 3 min 28 sec) 
Heartbeat CPU  0 instructions:  337000001 cycles:  531846074 heartbeat IPC: 0.78886 cumulative IPC: 0.63110 (Simulation time: 1 hr 3 min 44 sec) 
Heartbeat CPU  0 instructions:  338000001 cycles:  533088336 heartbeat IPC: 0.80498 cumulative IPC: 0.63151 (Simulation time: 1 hr 4 min 3 sec) 
Heartbeat CPU  0 instructions:  339000000 cycles:  534120007 heartbeat IPC: 0.96930 cumulative IPC: 0.63216 (Simulation time: 1 hr 4 min 17 sec) 
Heartbeat CPU  0 instructions:  340000000 cycles:  534753431 heartbeat IPC: 1.57872 cumulative IPC: 0.63328 (Simulation time: 1 hr 4 min 24 sec) 
Heartbeat CPU  0 instructions:  341000000 cycles:  535180385 heartbeat IPC: 2.34217 cumulative IPC: 0.63465 (Simulation time: 1 hr 4 min 27 sec) 
Heartbeat CPU  0 instructions:  342000001 cycles:  536206733 heartbeat IPC: 0.97433 cumulative IPC: 0.63530 (Simulation time: 1 hr 4 min 34 sec) 
Heartbeat CPU  0 instructions:  343000001 cycles:  537440587 heartbeat IPC: 0.81047 cumulative IPC: 0.63570 (Simulation time: 1 hr 4 min 43 sec) 
Heartbeat CPU  0 instructions:  344000000 cycles:  538301591 heartbeat IPC: 1.16143 cumulative IPC: 0.63655 (Simulation time: 1 hr 4 min 49 sec) 
Heartbeat CPU  0 instructions:  345000000 cycles:  539195360 heartbeat IPC: 1.11886 cumulative IPC: 0.63735 (Simulation time: 1 hr 4 min 56 sec) 
Heartbeat CPU  0 instructions:  346000001 cycles:  540087446 heartbeat IPC: 1.12097 cumulative IPC: 0.63815 (Simulation time: 1 hr 5 min 4 sec) 
Heartbeat CPU  0 instructions:  347000000 cycles:  540976860 heartbeat IPC: 1.12433 cumulative IPC: 0.63895 (Simulation time: 1 hr 5 min 12 sec) 
Heartbeat CPU  0 instructions:  348000000 cycles:  541876043 heartbeat IPC: 1.11212 cumulative IPC: 0.63973 (Simulation time: 1 hr 5 min 22 sec) 
Heartbeat CPU  0 instructions:  349000000 cycles:  542771787 heartbeat IPC: 1.11639 cumulative IPC: 0.64052 (Simulation time: 1 hr 5 min 31 sec) 
Heartbeat CPU  0 instructions:  350000000 cycles:  543674643 heartbeat IPC: 1.10760 cumulative IPC: 0.64130 (Simulation time: 1 hr 5 min 40 sec) 
Heartbeat CPU  0 instructions:  351000003 cycles:  544575268 heartbeat IPC: 1.11034 cumulative IPC: 0.64208 (Simulation time: 1 hr 5 min 56 sec) 
Heartbeat CPU  0 instructions:  352000000 cycles:  545467488 heartbeat IPC: 1.12080 cumulative IPC: 0.64286 (Simulation time: 1 hr 6 min 10 sec) 
Heartbeat CPU  0 instructions:  353000000 cycles:  546392956 heartbeat IPC: 1.08053 cumulative IPC: 0.64360 (Simulation time: 1 hr 6 min 24 sec) 
Heartbeat CPU  0 instructions:  354000000 cycles:  547598952 heartbeat IPC: 0.82919 cumulative IPC: 0.64401 (Simulation time: 1 hr 6 min 39 sec) 
Heartbeat CPU  0 instructions:  355000000 cycles:  548798621 heartbeat IPC: 0.83356 cumulative IPC: 0.64443 (Simulation time: 1 hr 6 min 45 sec) 
Heartbeat CPU  0 instructions:  356000000 cycles:  550004662 heartbeat IPC: 0.82916 cumulative IPC: 0.64483 (Simulation time: 1 hr 6 min 52 sec) 
Heartbeat CPU  0 instructions:  357000003 cycles:  551218783 heartbeat IPC: 0.82364 cumulative IPC: 0.64523 (Simulation time: 1 hr 6 min 59 sec) 
Heartbeat CPU  0 instructions:  358000001 cycles:  552431306 heartbeat IPC: 0.82472 cumulative IPC: 0.64562 (Simulation time: 1 hr 7 min 7 sec) 
Heartbeat CPU  0 instructions:  359000001 cycles:  553602031 heartbeat IPC: 0.85417 cumulative IPC: 0.64607 (Simulation time: 1 hr 7 min 15 sec) 
Heartbeat CPU  0 instructions:  360000000 cycles:  554808349 heartbeat IPC: 0.82897 cumulative IPC: 0.64646 (Simulation time: 1 hr 7 min 25 sec) 
Heartbeat CPU  0 instructions:  361000001 cycles:  556023546 heartbeat IPC: 0.82291 cumulative IPC: 0.64685 (Simulation time: 1 hr 7 min 34 sec) 
Heartbeat CPU  0 instructions:  362000001 cycles:  557223888 heartbeat IPC: 0.83310 cumulative IPC: 0.64725 (Simulation time: 1 hr 7 min 43 sec) 
Heartbeat CPU  0 instructions:  363000001 cycles:  558437920 heartbeat IPC: 0.82370 cumulative IPC: 0.64764 (Simulation time: 1 hr 7 min 53 sec) 
Heartbeat CPU  0 instructions:  364000000 cycles:  559656803 heartbeat IPC: 0.82042 cumulative IPC: 0.64801 (Simulation time: 1 hr 8 min 2 sec) 
Heartbeat CPU  0 instructions:  365000002 cycles:  560881100 heartbeat IPC: 0.81680 cumulative IPC: 0.64838 (Simulation time: 1 hr 8 min 13 sec) 
Heartbeat CPU  0 instructions:  366000001 cycles:  562103961 heartbeat IPC: 0.81775 cumulative IPC: 0.64875 (Simulation time: 1 hr 8 min 26 sec) 
Heartbeat CPU  0 instructions:  367000003 cycles:  563324759 heartbeat IPC: 0.81914 cumulative IPC: 0.64912 (Simulation time: 1 hr 8 min 36 sec) 
Heartbeat CPU  0 instructions:  368000000 cycles:  564528561 heartbeat IPC: 0.83070 cumulative IPC: 0.64951 (Simulation time: 1 hr 8 min 48 sec) 
Heartbeat CPU  0 instructions:  369000001 cycles:  565754461 heartbeat IPC: 0.81573 cumulative IPC: 0.64987 (Simulation time: 1 hr 9 min 1 sec) 
Heartbeat CPU  0 instructions:  370000002 cycles:  566924933 heartbeat IPC: 0.85436 cumulative IPC: 0.65029 (Simulation time: 1 hr 9 min 10 sec) 
Heartbeat CPU  0 instructions:  371000002 cycles:  568181978 heartbeat IPC: 0.79552 cumulative IPC: 0.65062 (Simulation time: 1 hr 9 min 23 sec) 
Heartbeat CPU  0 instructions:  372000000 cycles:  569388434 heartbeat IPC: 0.82887 cumulative IPC: 0.65099 (Simulation time: 1 hr 9 min 32 sec) 
Heartbeat CPU  0 instructions:  373000000 cycles:  570601533 heartbeat IPC: 0.82434 cumulative IPC: 0.65136 (Simulation time: 1 hr 9 min 38 sec) 
Heartbeat CPU  0 instructions:  374000002 cycles:  571816236 heartbeat IPC: 0.82325 cumulative IPC: 0.65173 (Simulation time: 1 hr 9 min 45 sec) 
Heartbeat CPU  0 instructions:  375000000 cycles:  573047943 heartbeat IPC: 0.81188 cumulative IPC: 0.65207 (Simulation time: 1 hr 9 min 51 sec) 
Heartbeat CPU  0 instructions:  376000000 cycles:  574266991 heartbeat IPC: 0.82031 cumulative IPC: 0.65243 (Simulation time: 1 hr 9 min 59 sec) 
Heartbeat CPU  0 instructions:  377000003 cycles:  575478860 heartbeat IPC: 0.82517 cumulative IPC: 0.65280 (Simulation time: 1 hr 10 min 7 sec) 
Heartbeat CPU  0 instructions:  378000002 cycles:  576684759 heartbeat IPC: 0.82926 cumulative IPC: 0.65317 (Simulation time: 1 hr 10 min 16 sec) 
Heartbeat CPU  0 instructions:  379000000 cycles:  577918041 heartbeat IPC: 0.81084 cumulative IPC: 0.65350 (Simulation time: 1 hr 10 min 26 sec) 
Heartbeat CPU  0 instructions:  380000000 cycles:  579132513 heartbeat IPC: 0.82340 cumulative IPC: 0.65386 (Simulation time: 1 hr 10 min 37 sec) 
Heartbeat CPU  0 instructions:  381000002 cycles:  580359284 heartbeat IPC: 0.81515 cumulative IPC: 0.65420 (Simulation time: 1 hr 10 min 47 sec) 
Heartbeat CPU  0 instructions:  382000002 cycles:  581586184 heartbeat IPC: 0.81506 cumulative IPC: 0.65454 (Simulation time: 1 hr 10 min 58 sec) 
Heartbeat CPU  0 instructions:  383000002 cycles:  582793312 heartbeat IPC: 0.82841 cumulative IPC: 0.65490 (Simulation time: 1 hr 11 min 7 sec) 
Heartbeat CPU  0 instructions:  384000000 cycles:  584000929 heartbeat IPC: 0.82808 cumulative IPC: 0.65526 (Simulation time: 1 hr 11 min 25 sec) 
Heartbeat CPU  0 instructions:  385000003 cycles:  585221527 heartbeat IPC: 0.81927 cumulative IPC: 0.65560 (Simulation time: 1 hr 11 min 37 sec) 
Heartbeat CPU  0 instructions:  386000002 cycles:  586426639 heartbeat IPC: 0.82980 cumulative IPC: 0.65596 (Simulation time: 1 hr 11 min 48 sec) 
Heartbeat CPU  0 instructions:  387000001 cycles:  587646345 heartbeat IPC: 0.81987 cumulative IPC: 0.65630 (Simulation time: 1 hr 11 min 58 sec) 
Heartbeat CPU  0 instructions:  388000000 cycles:  588846498 heartbeat IPC: 0.83323 cumulative IPC: 0.65666 (Simulation time: 1 hr 12 min 9 sec) 
Heartbeat CPU  0 instructions:  389000002 cycles:  590094922 heartbeat IPC: 0.80101 cumulative IPC: 0.65697 (Simulation time: 1 hr 12 min 21 sec) 
Heartbeat CPU  0 instructions:  390000001 cycles:  591335200 heartbeat IPC: 0.80627 cumulative IPC: 0.65728 (Simulation time: 1 hr 12 min 37 sec) 
Heartbeat CPU  0 instructions:  391000003 cycles:  592565523 heartbeat IPC: 0.81280 cumulative IPC: 0.65761 (Simulation time: 1 hr 12 min 46 sec) 
Heartbeat CPU  0 instructions:  392000000 cycles:  593805808 heartbeat IPC: 0.80626 cumulative IPC: 0.65792 (Simulation time: 1 hr 12 min 57 sec) 
Heartbeat CPU  0 instructions:  393000001 cycles:  595037273 heartbeat IPC: 0.81204 cumulative IPC: 0.65824 (Simulation time: 1 hr 13 min 14 sec) 
Heartbeat CPU  0 instructions:  394000000 cycles:  596258074 heartbeat IPC: 0.81913 cumulative IPC: 0.65857 (Simulation time: 1 hr 13 min 32 sec) 
Heartbeat CPU  0 instructions:  395000000 cycles:  597383699 heartbeat IPC: 0.88840 cumulative IPC: 0.65900 (Simulation time: 1 hr 13 min 44 sec) 
Heartbeat CPU  0 instructions:  396000000 cycles:  598435782 heartbeat IPC: 0.95050 cumulative IPC: 0.65951 (Simulation time: 1 hr 13 min 55 sec) 
Heartbeat CPU  0 instructions:  397000002 cycles:  599495759 heartbeat IPC: 0.94342 cumulative IPC: 0.66002 (Simulation time: 1 hr 14 min 3 sec) 
Heartbeat CPU  0 instructions:  398000001 cycles:  600545549 heartbeat IPC: 0.95257 cumulative IPC: 0.66053 (Simulation time: 1 hr 14 min 11 sec) 
Heartbeat CPU  0 instructions:  399000003 cycles:  601591829 heartbeat IPC: 0.95577 cumulative IPC: 0.66104 (Simulation time: 1 hr 14 min 20 sec) 
Heartbeat CPU  0 instructions:  400000000 cycles:  602651157 heartbeat IPC: 0.94399 cumulative IPC: 0.66154 (Simulation time: 1 hr 14 min 29 sec) 
Heartbeat CPU  0 instructions:  401000001 cycles:  603696044 heartbeat IPC: 0.95704 cumulative IPC: 0.66205 (Simulation time: 1 hr 14 min 42 sec) 
Heartbeat CPU  0 instructions:  402000003 cycles:  604742393 heartbeat IPC: 0.95571 cumulative IPC: 0.66256 (Simulation time: 1 hr 14 min 54 sec) 
Heartbeat CPU  0 instructions:  403000003 cycles:  605787775 heartbeat IPC: 0.95659 cumulative IPC: 0.66307 (Simulation time: 1 hr 15 min 6 sec) 
Heartbeat CPU  0 instructions:  404000000 cycles:  606837882 heartbeat IPC: 0.95228 cumulative IPC: 0.66357 (Simulation time: 1 hr 15 min 18 sec) 
Heartbeat CPU  0 instructions:  405000002 cycles:  607876091 heartbeat IPC: 0.96320 cumulative IPC: 0.66409 (Simulation time: 1 hr 15 min 28 sec) 
Heartbeat CPU  0 instructions:  406000002 cycles:  608923564 heartbeat IPC: 0.95468 cumulative IPC: 0.66459 (Simulation time: 1 hr 15 min 40 sec) 
Heartbeat CPU  0 instructions:  407000003 cycles:  609957359 heartbeat IPC: 0.96731 cumulative IPC: 0.66510 (Simulation time: 1 hr 15 min 51 sec) 
Heartbeat CPU  0 instructions:  408000000 cycles:  610993826 heartbeat IPC: 0.96481 cumulative IPC: 0.66561 (Simulation time: 1 hr 15 min 59 sec) 
Heartbeat CPU  0 instructions:  409000003 cycles:  612036429 heartbeat IPC: 0.95914 cumulative IPC: 0.66611 (Simulation time: 1 hr 16 min 7 sec) 
Heartbeat CPU  0 instructions:  410000003 cycles:  613038293 heartbeat IPC: 0.99814 cumulative IPC: 0.66665 (Simulation time: 1 hr 16 min 14 sec) 
Heartbeat CPU  0 instructions:  411000000 cycles:  614410717 heartbeat IPC: 0.72864 cumulative IPC: 0.66679 (Simulation time: 1 hr 16 min 21 sec) 
Heartbeat CPU  0 instructions:  412000000 cycles:  615640489 heartbeat IPC: 0.81316 cumulative IPC: 0.66709 (Simulation time: 1 hr 16 min 28 sec) 
Heartbeat CPU  0 instructions:  413000002 cycles:  616865447 heartbeat IPC: 0.81636 cumulative IPC: 0.66738 (Simulation time: 1 hr 16 min 36 sec) 
Heartbeat CPU  0 instructions:  414000003 cycles:  618073881 heartbeat IPC: 0.82752 cumulative IPC: 0.66770 (Simulation time: 1 hr 16 min 44 sec) 
Heartbeat CPU  0 instructions:  415000002 cycles:  619257348 heartbeat IPC: 0.84497 cumulative IPC: 0.66804 (Simulation time: 1 hr 16 min 52 sec) 
Heartbeat CPU  0 instructions:  416000000 cycles:  620450083 heartbeat IPC: 0.83841 cumulative IPC: 0.66836 (Simulation time: 1 hr 17 min 2 sec) 
Heartbeat CPU  0 instructions:  417000003 cycles:  621635648 heartbeat IPC: 0.84348 cumulative IPC: 0.66870 (Simulation time: 1 hr 17 min 12 sec) 
Heartbeat CPU  0 instructions:  418000001 cycles:  622822346 heartbeat IPC: 0.84267 cumulative IPC: 0.66903 (Simulation time: 1 hr 17 min 23 sec) 
Heartbeat CPU  0 instructions:  419000003 cycles:  624004841 heartbeat IPC: 0.84567 cumulative IPC: 0.66937 (Simulation time: 1 hr 17 min 33 sec) 
Heartbeat CPU  0 instructions:  420000000 cycles:  625218285 heartbeat IPC: 0.82410 cumulative IPC: 0.66967 (Simulation time: 1 hr 17 min 44 sec) 
Heartbeat CPU  0 instructions:  421000002 cycles:  626425104 heartbeat IPC: 0.82863 cumulative IPC: 0.66997 (Simulation time: 1 hr 17 min 55 sec) 
Heartbeat CPU  0 instructions:  422000001 cycles:  627626169 heartbeat IPC: 0.83259 cumulative IPC: 0.67028 (Simulation time: 1 hr 18 min 6 sec) 
Heartbeat CPU  0 instructions:  423000001 cycles:  628844302 heartbeat IPC: 0.82093 cumulative IPC: 0.67058 (Simulation time: 1 hr 18 min 15 sec) 
Heartbeat CPU  0 instructions:  424000000 cycles:  630035007 heartbeat IPC: 0.83984 cumulative IPC: 0.67090 (Simulation time: 1 hr 18 min 24 sec) 
Heartbeat CPU  0 instructions:  425000000 cycles:  631254982 heartbeat IPC: 0.81969 cumulative IPC: 0.67119 (Simulation time: 1 hr 18 min 33 sec) 
Heartbeat CPU  0 instructions:  426000001 cycles:  632465597 heartbeat IPC: 0.82603 cumulative IPC: 0.67148 (Simulation time: 1 hr 18 min 44 sec) 
Heartbeat CPU  0 instructions:  427000001 cycles:  633705003 heartbeat IPC: 0.80684 cumulative IPC: 0.67175 (Simulation time: 1 hr 18 min 55 sec) 
Heartbeat CPU  0 instructions:  428000000 cycles:  634933068 heartbeat IPC: 0.81429 cumulative IPC: 0.67202 (Simulation time: 1 hr 19 min 6 sec) 
Heartbeat CPU  0 instructions:  429000000 cycles:  636160032 heartbeat IPC: 0.81502 cumulative IPC: 0.67230 (Simulation time: 1 hr 19 min 17 sec) 
Heartbeat CPU  0 instructions:  430000003 cycles:  637398065 heartbeat IPC: 0.80774 cumulative IPC: 0.67256 (Simulation time: 1 hr 19 min 27 sec) 
Heartbeat CPU  0 instructions:  431000001 cycles:  638639196 heartbeat IPC: 0.80572 cumulative IPC: 0.67282 (Simulation time: 1 hr 19 min 36 sec) 
Heartbeat CPU  0 instructions:  432000000 cycles:  639858594 heartbeat IPC: 0.82008 cumulative IPC: 0.67310 (Simulation time: 1 hr 19 min 46 sec) 
Heartbeat CPU  0 instructions:  433000000 cycles:  641073250 heartbeat IPC: 0.82328 cumulative IPC: 0.67339 (Simulation time: 1 hr 19 min 55 sec) 
Heartbeat CPU  0 instructions:  434000002 cycles:  642328613 heartbeat IPC: 0.79658 cumulative IPC: 0.67363 (Simulation time: 1 hr 20 min 4 sec) 
Heartbeat CPU  0 instructions:  435000003 cycles:  643515790 heartbeat IPC: 0.84234 cumulative IPC: 0.67394 (Simulation time: 1 hr 20 min 13 sec) 
Heartbeat CPU  0 instructions:  436000000 cycles:  644708650 heartbeat IPC: 0.83832 cumulative IPC: 0.67425 (Simulation time: 1 hr 20 min 21 sec) 
Heartbeat CPU  0 instructions:  437000003 cycles:  645908570 heartbeat IPC: 0.83339 cumulative IPC: 0.67454 (Simulation time: 1 hr 20 min 31 sec) 
Heartbeat CPU  0 instructions:  438000003 cycles:  647108586 heartbeat IPC: 0.83332 cumulative IPC: 0.67484 (Simulation time: 1 hr 20 min 42 sec) 
Heartbeat CPU  0 instructions:  439000002 cycles:  648322440 heartbeat IPC: 0.82382 cumulative IPC: 0.67512 (Simulation time: 1 hr 20 min 52 sec) 
Heartbeat CPU  0 instructions:  440000000 cycles:  649552797 heartbeat IPC: 0.81277 cumulative IPC: 0.67538 (Simulation time: 1 hr 21 min 3 sec) 
Heartbeat CPU  0 instructions:  441000001 cycles:  650774253 heartbeat IPC: 0.81870 cumulative IPC: 0.67565 (Simulation time: 1 hr 21 min 14 sec) 
Heartbeat CPU  0 instructions:  442000001 cycles:  651974059 heartbeat IPC: 0.83347 cumulative IPC: 0.67594 (Simulation time: 1 hr 21 min 24 sec) 
Heartbeat CPU  0 instructions:  443000001 cycles:  653177442 heartbeat IPC: 0.83099 cumulative IPC: 0.67622 (Simulation time: 1 hr 21 min 36 sec) 
Heartbeat CPU  0 instructions:  444000000 cycles:  654383473 heartbeat IPC: 0.82917 cumulative IPC: 0.67651 (Simulation time: 1 hr 21 min 46 sec) 
Heartbeat CPU  0 instructions:  445000001 cycles:  655612284 heartbeat IPC: 0.81380 cumulative IPC: 0.67676 (Simulation time: 1 hr 21 min 55 sec) 
Heartbeat CPU  0 instructions:  446000000 cycles:  656827321 heartbeat IPC: 0.82302 cumulative IPC: 0.67704 (Simulation time: 1 hr 22 min 4 sec) 
Heartbeat CPU  0 instructions:  447000003 cycles:  658045923 heartbeat IPC: 0.82061 cumulative IPC: 0.67730 (Simulation time: 1 hr 22 min 13 sec) 
Heartbeat CPU  0 instructions:  448000000 cycles:  659251875 heartbeat IPC: 0.82922 cumulative IPC: 0.67758 (Simulation time: 1 hr 22 min 24 sec) 
Heartbeat CPU  0 instructions:  449000001 cycles:  660467895 heartbeat IPC: 0.82236 cumulative IPC: 0.67785 (Simulation time: 1 hr 22 min 32 sec) 
Heartbeat CPU  0 instructions:  450000002 cycles:  661701227 heartbeat IPC: 0.81081 cumulative IPC: 0.67809 (Simulation time: 1 hr 22 min 40 sec) 
Heartbeat CPU  0 instructions:  451000002 cycles:  662941681 heartbeat IPC: 0.80616 cumulative IPC: 0.67833 (Simulation time: 1 hr 22 min 48 sec) 
Heartbeat CPU  0 instructions:  452000000 cycles:  664190995 heartbeat IPC: 0.80044 cumulative IPC: 0.67856 (Simulation time: 1 hr 22 min 56 sec) 
Heartbeat CPU  0 instructions:  453000003 cycles:  665432598 heartbeat IPC: 0.80541 cumulative IPC: 0.67880 (Simulation time: 1 hr 23 min 4 sec) 
Heartbeat CPU  0 instructions:  454000001 cycles:  666692692 heartbeat IPC: 0.79359 cumulative IPC: 0.67902 (Simulation time: 1 hr 23 min 14 sec) 
Heartbeat CPU  0 instructions:  455000002 cycles:  667927640 heartbeat IPC: 0.80975 cumulative IPC: 0.67926 (Simulation time: 1 hr 23 min 25 sec) 
Heartbeat CPU  0 instructions:  456000000 cycles:  669155059 heartbeat IPC: 0.81472 cumulative IPC: 0.67951 (Simulation time: 1 hr 23 min 35 sec) 
Heartbeat CPU  0 instructions:  457000001 cycles:  670391568 heartbeat IPC: 0.80873 cumulative IPC: 0.67975 (Simulation time: 1 hr 23 min 46 sec) 
Heartbeat CPU  0 instructions:  458000002 cycles:  671632236 heartbeat IPC: 0.80602 cumulative IPC: 0.67998 (Simulation time: 1 hr 23 min 56 sec) 
Heartbeat CPU  0 instructions:  459000002 cycles:  672830448 heartbeat IPC: 0.83458 cumulative IPC: 0.68026 (Simulation time: 1 hr 24 min 6 sec) 
Heartbeat CPU  0 instructions:  460000000 cycles:  673877974 heartbeat IPC: 0.95463 cumulative IPC: 0.68069 (Simulation time: 1 hr 24 min 18 sec) 
Heartbeat CPU  0 instructions:  461000001 cycles:  674921504 heartbeat IPC: 0.95829 cumulative IPC: 0.68112 (Simulation time: 1 hr 24 min 32 sec) 
Heartbeat CPU  0 instructions:  462000002 cycles:  675946755 heartbeat IPC: 0.97537 cumulative IPC: 0.68156 (Simulation time: 1 hr 24 min 42 sec) 
Heartbeat CPU  0 instructions:  463000001 cycles:  676966434 heartbeat IPC: 0.98070 cumulative IPC: 0.68201 (Simulation time: 1 hr 24 min 51 sec) 
Heartbeat CPU  0 instructions:  464000000 cycles:  677998612 heartbeat IPC: 0.96882 cumulative IPC: 0.68245 (Simulation time: 1 hr 24 min 59 sec) 
Heartbeat CPU  0 instructions:  465000000 cycles:  679020716 heartbeat IPC: 0.97837 cumulative IPC: 0.68290 (Simulation time: 1 hr 25 min 7 sec) 
Heartbeat CPU  0 instructions:  466000000 cycles:  680046225 heartbeat IPC: 0.97513 cumulative IPC: 0.68334 (Simulation time: 1 hr 25 min 13 sec) 
Heartbeat CPU  0 instructions:  467000003 cycles:  681080283 heartbeat IPC: 0.96707 cumulative IPC: 0.68377 (Simulation time: 1 hr 25 min 19 sec) 
Heartbeat CPU  0 instructions:  468000000 cycles:  682105273 heartbeat IPC: 0.97562 cumulative IPC: 0.68421 (Simulation time: 1 hr 25 min 25 sec) 
Heartbeat CPU  0 instructions:  469000002 cycles:  683141346 heartbeat IPC: 0.96518 cumulative IPC: 0.68464 (Simulation time: 1 hr 25 min 32 sec) 
Heartbeat CPU  0 instructions:  470000003 cycles:  684187029 heartbeat IPC: 0.95631 cumulative IPC: 0.68505 (Simulation time: 1 hr 25 min 40 sec) 
Heartbeat CPU  0 instructions:  471000000 cycles:  685213847 heartbeat IPC: 0.97388 cumulative IPC: 0.68548 (Simulation time: 1 hr 25 min 49 sec) 
Heartbeat CPU  0 instructions:  472000000 cycles:  686232306 heartbeat IPC: 0.98188 cumulative IPC: 0.68593 (Simulation time: 1 hr 25 min 59 sec) 
Heartbeat CPU  0 instructions:  473000001 cycles:  687261704 heartbeat IPC: 0.97144 cumulative IPC: 0.68635 (Simulation time: 1 hr 26 min 9 sec) 
Heartbeat CPU  0 instructions:  474000002 cycles:  688284157 heartbeat IPC: 0.97804 cumulative IPC: 0.68679 (Simulation time: 1 hr 26 min 20 sec) 
Heartbeat CPU  0 instructions:  475000002 cycles:  688978589 heartbeat IPC: 1.44003 cumulative IPC: 0.68755 (Simulation time: 1 hr 26 min 25 sec) 
Heartbeat CPU  0 instructions:  476000000 cycles:  695268147 heartbeat IPC: 0.15899 cumulative IPC: 0.68276 (Simulation time: 1 hr 26 min 59 sec) 
Heartbeat CPU  0 instructions:  477000001 cycles:  703376427 heartbeat IPC: 0.12333 cumulative IPC: 0.67630 (Simulation time: 1 hr 27 min 25 sec) 
Heartbeat CPU  0 instructions:  478000002 cycles:  711576371 heartbeat IPC: 0.12195 cumulative IPC: 0.66990 (Simulation time: 1 hr 27 min 48 sec) 
Heartbeat CPU  0 instructions:  479000002 cycles:  719784949 heartbeat IPC: 0.12182 cumulative IPC: 0.66364 (Simulation time: 1 hr 28 min 10 sec) 
Heartbeat CPU  0 instructions:  480000000 cycles:  727405349 heartbeat IPC: 0.13123 cumulative IPC: 0.65806 (Simulation time: 1 hr 28 min 31 sec) 
Heartbeat CPU  0 instructions:  481000000 cycles:  730399344 heartbeat IPC: 0.33400 cumulative IPC: 0.65673 (Simulation time: 1 hr 28 min 43 sec) 
Heartbeat CPU  0 instructions:  482000000 cycles:  733231310 heartbeat IPC: 0.35311 cumulative IPC: 0.65555 (Simulation time: 1 hr 28 min 55 sec) 
Heartbeat CPU  0 instructions:  483000000 cycles:  736071085 heartbeat IPC: 0.35214 cumulative IPC: 0.65438 (Simulation time: 1 hr 29 min 5 sec) 
Heartbeat CPU  0 instructions:  484000000 cycles:  738857149 heartbeat IPC: 0.35893 cumulative IPC: 0.65327 (Simulation time: 1 hr 29 min 15 sec) 
Heartbeat CPU  0 instructions:  485000002 cycles:  741611290 heartbeat IPC: 0.36309 cumulative IPC: 0.65219 (Simulation time: 1 hr 29 min 24 sec) 
Heartbeat CPU  0 instructions:  486000000 cycles:  744379584 heartbeat IPC: 0.36123 cumulative IPC: 0.65110 (Simulation time: 1 hr 29 min 33 sec) 
Heartbeat CPU  0 instructions:  487000003 cycles:  747161432 heartbeat IPC: 0.35947 cumulative IPC: 0.65002 (Simulation time: 1 hr 29 min 43 sec) 
Heartbeat CPU  0 instructions:  488000000 cycles:  749890551 heartbeat IPC: 0.36642 cumulative IPC: 0.64898 (Simulation time: 1 hr 29 min 53 sec) 
Heartbeat CPU  0 instructions:  489000003 cycles:  752686338 heartbeat IPC: 0.35768 cumulative IPC: 0.64790 (Simulation time: 1 hr 30 min 5 sec) 
Heartbeat CPU  0 instructions:  490000000 cycles:  755525801 heartbeat IPC: 0.35218 cumulative IPC: 0.64679 (Simulation time: 1 hr 30 min 15 sec) 
Heartbeat CPU  0 instructions:  491000000 cycles:  758377401 heartbeat IPC: 0.35068 cumulative IPC: 0.64567 (Simulation time: 1 hr 30 min 24 sec) 
Heartbeat CPU  0 instructions:  492000000 cycles:  761202259 heartbeat IPC: 0.35400 cumulative IPC: 0.64459 (Simulation time: 1 hr 30 min 32 sec) 
Heartbeat CPU  0 instructions:  493000000 cycles:  763964433 heartbeat IPC: 0.36203 cumulative IPC: 0.64356 (Simulation time: 1 hr 30 min 40 sec) 
Heartbeat CPU  0 instructions:  494000000 cycles:  766775491 heartbeat IPC: 0.35574 cumulative IPC: 0.64251 (Simulation time: 1 hr 30 min 48 sec) 
Heartbeat CPU  0 instructions:  495000000 cycles:  769576193 heartbeat IPC: 0.35705 cumulative IPC: 0.64147 (Simulation time: 1 hr 30 min 57 sec) 
Heartbeat CPU  0 instructions:  496000000 cycles:  772345881 heartbeat IPC: 0.36105 cumulative IPC: 0.64046 (Simulation time: 1 hr 31 min 7 sec) 
Heartbeat CPU  0 instructions:  497000000 cycles:  775088991 heartbeat IPC: 0.36455 cumulative IPC: 0.63948 (Simulation time: 1 hr 31 min 17 sec) 
Heartbeat CPU  0 instructions:  498000001 cycles:  777853757 heartbeat IPC: 0.36169 cumulative IPC: 0.63849 (Simulation time: 1 hr 31 min 28 sec) 
Heartbeat CPU  0 instructions:  499000002 cycles:  780612129 heartbeat IPC: 0.36253 cumulative IPC: 0.63752 (Simulation time: 1 hr 31 min 40 sec) 
Heartbeat CPU  0 instructions:  500000000 cycles:  783343629 heartbeat IPC: 0.36610 cumulative IPC: 0.63657 (Simulation time: 1 hr 31 min 51 sec) 
Heartbeat CPU  0 instructions:  501000002 cycles:  786174760 heartbeat IPC: 0.35322 cumulative IPC: 0.63555 (Simulation time: 1 hr 32 min 2 sec) 
Heartbeat CPU  0 instructions:  502000002 cycles:  788903909 heartbeat IPC: 0.36641 cumulative IPC: 0.63462 (Simulation time: 1 hr 32 min 13 sec) 
Heartbeat CPU  0 instructions:  503000003 cycles:  791640967 heartbeat IPC: 0.36536 cumulative IPC: 0.63368 (Simulation time: 1 hr 32 min 25 sec) 
Heartbeat CPU  0 instructions:  504000000 cycles:  794560819 heartbeat IPC: 0.34248 cumulative IPC: 0.63261 (Simulation time: 1 hr 32 min 35 sec) 
Heartbeat CPU  0 instructions:  505000000 cycles:  797380230 heartbeat IPC: 0.35468 cumulative IPC: 0.63163 (Simulation time: 1 hr 32 min 44 sec) 
Heartbeat CPU  0 instructions:  506000003 cycles:  800203709 heartbeat IPC: 0.35417 cumulative IPC: 0.63065 (Simulation time: 1 hr 32 min 53 sec) 
Heartbeat CPU  0 instructions:  507000003 cycles:  803031342 heartbeat IPC: 0.35365 cumulative IPC: 0.62967 (Simulation time: 1 hr 33 min 1 sec) 
Heartbeat CPU  0 instructions:  508000000 cycles:  805818295 heartbeat IPC: 0.35881 cumulative IPC: 0.62873 (Simulation time: 1 hr 33 min 7 sec) 
Heartbeat CPU  0 instructions:  509000002 cycles:  808594769 heartbeat IPC: 0.36017 cumulative IPC: 0.62781 (Simulation time: 1 hr 33 min 14 sec) 
Heartbeat CPU  0 instructions:  510000002 cycles:  811436400 heartbeat IPC: 0.35191 cumulative IPC: 0.62684 (Simulation time: 1 hr 33 min 20 sec) 
Heartbeat CPU  0 instructions:  511000000 cycles:  814314543 heartbeat IPC: 0.34745 cumulative IPC: 0.62585 (Simulation time: 1 hr 33 min 28 sec) 
Heartbeat CPU  0 instructions:  512000000 cycles:  817031819 heartbeat IPC: 0.36802 cumulative IPC: 0.62500 (Simulation time: 1 hr 33 min 36 sec) 
Heartbeat CPU  0 instructions:  513000003 cycles:  819799740 heartbeat IPC: 0.36128 cumulative IPC: 0.62410 (Simulation time: 1 hr 33 min 47 sec) 
Heartbeat CPU  0 instructions:  514000002 cycles:  822574150 heartbeat IPC: 0.36044 cumulative IPC: 0.62321 (Simulation time: 1 hr 33 min 59 sec) 
Heartbeat CPU  0 instructions:  515000002 cycles:  825283612 heartbeat IPC: 0.36908 cumulative IPC: 0.62238 (Simulation time: 1 hr 34 min 10 sec) 
Heartbeat CPU  0 instructions:  516000000 cycles:  828026450 heartbeat IPC: 0.36459 cumulative IPC: 0.62152 (Simulation time: 1 hr 34 min 21 sec) 
Heartbeat CPU  0 instructions:  517000000 cycles:  830797788 heartbeat IPC: 0.36084 cumulative IPC: 0.62065 (Simulation time: 1 hr 34 min 32 sec) 
Heartbeat CPU  0 instructions:  518000001 cycles:  833526379 heartbeat IPC: 0.36649 cumulative IPC: 0.61982 (Simulation time: 1 hr 34 min 43 sec) 
Heartbeat CPU  0 instructions:  519000003 cycles:  836293497 heartbeat IPC: 0.36139 cumulative IPC: 0.61896 (Simulation time: 1 hr 34 min 53 sec) 
Heartbeat CPU  0 instructions:  520000000 cycles:  839064549 heartbeat IPC: 0.36087 cumulative IPC: 0.61811 (Simulation time: 1 hr 35 min 5 sec) 
Heartbeat CPU  0 instructions:  521000003 cycles:  841895259 heartbeat IPC: 0.35327 cumulative IPC: 0.61722 (Simulation time: 1 hr 35 min 15 sec) 
Heartbeat CPU  0 instructions:  522000003 cycles:  844757659 heartbeat IPC: 0.34936 cumulative IPC: 0.61631 (Simulation time: 1 hr 35 min 25 sec) 
Heartbeat CPU  0 instructions:  523000000 cycles:  847640368 heartbeat IPC: 0.34689 cumulative IPC: 0.61539 (Simulation time: 1 hr 35 min 35 sec) 
Heartbeat CPU  0 instructions:  524000000 cycles:  850496465 heartbeat IPC: 0.35013 cumulative IPC: 0.61450 (Simulation time: 1 hr 35 min 44 sec) 
Heartbeat CPU  0 instructions:  525000000 cycles:  853344350 heartbeat IPC: 0.35114 cumulative IPC: 0.61362 (Simulation time: 1 hr 35 min 52 sec) 
Heartbeat CPU  0 instructions:  526000000 cycles:  856142581 heartbeat IPC: 0.35737 cumulative IPC: 0.61278 (Simulation time: 1 hr 36 min 2 sec) 
Heartbeat CPU  0 instructions:  527000002 cycles:  858841307 heartbeat IPC: 0.37055 cumulative IPC: 0.61202 (Simulation time: 1 hr 36 min 12 sec) 
Heartbeat CPU  0 instructions:  528000000 cycles:  861615058 heartbeat IPC: 0.36052 cumulative IPC: 0.61121 (Simulation time: 1 hr 36 min 23 sec) 
Heartbeat CPU  0 instructions:  529000002 cycles:  864388937 heartbeat IPC: 0.36051 cumulative IPC: 0.61040 (Simulation time: 1 hr 36 min 36 sec) 
Heartbeat CPU  0 instructions:  530000000 cycles:  867122144 heartbeat IPC: 0.36587 cumulative IPC: 0.60963 (Simulation time: 1 hr 36 min 48 sec) 
Heartbeat CPU  0 instructions:  531000000 cycles:  869905541 heartbeat IPC: 0.35927 cumulative IPC: 0.60883 (Simulation time: 1 hr 36 min 58 sec) 
Heartbeat CPU  0 instructions:  532000000 cycles:  872770390 heartbeat IPC: 0.34906 cumulative IPC: 0.60798 (Simulation time: 1 hr 37 min 8 sec) 
[...]
Heartbeat CPU  0 instructions: 1889000002 cycles: 3013445810 heartbeat IPC: 0.36675 cumulative IPC: 0.62641 (Simulation time: 4 hr 56 min 58 sec) 
Heartbeat CPU  0 instructions: 1890000001 cycles: 3016198440 heartbeat IPC: 0.36329 cumulative IPC: 0.62617 (Simulation time: 4 hr 57 min 5 sec) 
Heartbeat CPU  0 instructions: 1891000003 cycles: 3018920136 heartbeat IPC: 0.36742 cumulative IPC: 0.62593 (Simulation time: 4 hr 57 min 11 sec) 
Heartbeat CPU  0 instructions: 1892000000 cycles: 3021764764 heartbeat IPC: 0.35154 cumulative IPC: 0.62567 (Simulation time: 4 hr 57 min 17 sec) 
Heartbeat CPU  0 instructions: 1893000000 cycles: 3024666545 heartbeat IPC: 0.34462 cumulative IPC: 0.62541 (Simulation time: 4 hr 57 min 23 sec) 
Heartbeat CPU  0 instructions: 1894000001 cycles: 3027439513 heartbeat IPC: 0.36062 cumulative IPC: 0.62516 (Simulation time: 4 hr 57 min 28 sec) 
Heartbeat CPU  0 instructions: 1895000000 cycles: 3030201845 heartbeat IPC: 0.36201 cumulative IPC: 0.62492 (Simulation time: 4 hr 57 min 33 sec) 
Heartbeat CPU  0 instructions: 1896000000 cycles: 3033051549 heartbeat IPC: 0.35091 cumulative IPC: 0.62467 (Simulation time: 4 hr 57 min 39 sec) 
Heartbeat CPU  0 instructions: 1897000000 cycles: 3035849626 heartbeat IPC: 0.35739 cumulative IPC: 0.62442 (Simulation time: 4 hr 57 min 44 sec) 
Heartbeat CPU  0 instructions: 1898000003 cycles: 3038684196 heartbeat IPC: 0.35279 cumulative IPC: 0.62417 (Simulation time: 4 hr 57 min 50 sec) 
Heartbeat CPU  0 instructions: 1899000003 cycles: 3041459249 heartbeat IPC: 0.36035 cumulative IPC: 0.62392 (Simulation time: 4 hr 58 min 0 sec) 
Heartbeat CPU  0 instructions: 1900000000 cycles: 3044308646 heartbeat IPC: 0.35095 cumulative IPC: 0.62367 (Simulation time: 4 hr 58 min 9 sec) 
Heartbeat CPU  0 instructions: 1901000001 cycles: 3047087880 heartbeat IPC: 0.35981 cumulative IPC: 0.62343 (Simulation time: 4 hr 58 min 17 sec) 
Heartbeat CPU  0 instructions: 1902000003 cycles: 3049898225 heartbeat IPC: 0.35583 cumulative IPC: 0.62318 (Simulation time: 4 hr 58 min 29 sec) 
Heartbeat CPU  0 instructions: 1903000000 cycles: 3052761034 heartbeat IPC: 0.34931 cumulative IPC: 0.62292 (Simulation time: 4 hr 58 min 35 sec) 
Heartbeat CPU  0 instructions: 1904000000 cycles: 3055587043 heartbeat IPC: 0.35386 cumulative IPC: 0.62268 (Simulation time: 4 hr 58 min 40 sec) 
Heartbeat CPU  0 instructions: 1905000003 cycles: 3058299892 heartbeat IPC: 0.36862 cumulative IPC: 0.62245 (Simulation time: 4 hr 58 min 45 sec) 
Heartbeat CPU  0 instructions: 1906000000 cycles: 3061221216 heartbeat IPC: 0.34231 cumulative IPC: 0.62218 (Simulation time: 4 hr 58 min 50 sec) 
Heartbeat CPU  0 instructions: 1907000001 cycles: 3064061195 heartbeat IPC: 0.35212 cumulative IPC: 0.62193 (Simulation time: 4 hr 58 min 55 sec) 
Heartbeat CPU  0 instructions: 1908000000 cycles: 3066801458 heartbeat IPC: 0.36493 cumulative IPC: 0.62170 (Simulation time: 4 hr 59 min 0 sec) 
Heartbeat CPU  0 instructions: 1909000001 cycles: 3069630838 heartbeat IPC: 0.35343 cumulative IPC: 0.62146 (Simulation time: 4 hr 59 min 5 sec) 
Heartbeat CPU  0 instructions: 1910000000 cycles: 3072481608 heartbeat IPC: 0.35078 cumulative IPC: 0.62120 (Simulation time: 4 hr 59 min 10 sec) 
Heartbeat CPU  0 instructions: 1911000001 cycles: 3075207209 heartbeat IPC: 0.36689 cumulative IPC: 0.62098 (Simulation time: 4 hr 59 min 16 sec) 
Heartbeat CPU  0 instructions: 1912000000 cycles: 3076637641 heartbeat IPC: 0.69909 cumulative IPC: 0.62101 (Simulation time: 4 hr 59 min 18 sec) 
Heartbeat CPU  0 instructions: 1913000001 cycles: 3077988160 heartbeat IPC: 0.74046 cumulative IPC: 0.62107 (Simulation time: 4 hr 59 min 23 sec) 
Heartbeat CPU  0 instructions: 1914000003 cycles: 3079032454 heartbeat IPC: 0.95759 cumulative IPC: 0.62118 (Simulation time: 4 hr 59 min 29 sec) 
Heartbeat CPU  0 instructions: 1915000001 cycles: 3080001969 heartbeat IPC: 1.03144 cumulative IPC: 0.62131 (Simulation time: 4 hr 59 min 34 sec) 
Heartbeat CPU  0 instructions: 1916000000 cycles: 3080865104 heartbeat IPC: 1.15857 cumulative IPC: 0.62146 (Simulation time: 4 hr 59 min 40 sec) 
Heartbeat CPU  0 instructions: 1917000000 cycles: 3081645751 heartbeat IPC: 1.28099 cumulative IPC: 0.62163 (Simulation time: 4 hr 59 min 46 sec) 
Heartbeat CPU  0 instructions: 1918000002 cycles: 3082604389 heartbeat IPC: 1.04315 cumulative IPC: 0.62176 (Simulation time: 4 hr 59 min 52 sec) 
Heartbeat CPU  0 instructions: 1919000000 cycles: 3083580866 heartbeat IPC: 1.02409 cumulative IPC: 0.62189 (Simulation time: 4 hr 59 min 58 sec) 
Heartbeat CPU  0 instructions: 1920000000 cycles: 3084573239 heartbeat IPC: 1.00769 cumulative IPC: 0.62201 (Simulation time: 5 hr 0 min 6 sec) 
Heartbeat CPU  0 instructions: 1921000002 cycles: 3085470924 heartbeat IPC: 1.11398 cumulative IPC: 0.62215 (Simulation time: 5 hr 0 min 15 sec) 
Heartbeat CPU  0 instructions: 1922000003 cycles: 3086243812 heartbeat IPC: 1.29385 cumulative IPC: 0.62232 (Simulation time: 5 hr 0 min 23 sec) 
Heartbeat CPU  0 instructions: 1923000003 cycles: 3087177381 heartbeat IPC: 1.07116 cumulative IPC: 0.62246 (Simulation time: 5 hr 0 min 30 sec) 
Heartbeat CPU  0 instructions: 1924000000 cycles: 3088257666 heartbeat IPC: 0.92568 cumulative IPC: 0.62256 (Simulation time: 5 hr 0 min 38 sec) 
Heartbeat CPU  0 instructions: 1925000002 cycles: 3089542303 heartbeat IPC: 0.77843 cumulative IPC: 0.62263 (Simulation time: 5 hr 0 min 46 sec) 
Heartbeat CPU  0 instructions: 1926000000 cycles: 3090799648 heartbeat IPC: 0.79533 cumulative IPC: 0.62270 (Simulation time: 5 hr 0 min 53 sec) 
Heartbeat CPU  0 instructions: 1927000000 cycles: 3091927721 heartbeat IPC: 0.88647 cumulative IPC: 0.62280 (Simulation time: 5 hr 1 min 1 sec) 
Heartbeat CPU  0 instructions: 1928000000 cycles: 3093113933 heartbeat IPC: 0.84302 cumulative IPC: 0.62288 (Simulation time: 5 hr 1 min 7 sec) 
Heartbeat CPU  0 instructions: 1929000000 cycles: 3094473267 heartbeat IPC: 0.73565 cumulative IPC: 0.62293 (Simulation time: 5 hr 1 min 15 sec) 
Heartbeat CPU  0 instructions: 1930000003 cycles: 3095651278 heartbeat IPC: 0.84889 cumulative IPC: 0.62302 (Simulation time: 5 hr 1 min 22 sec) 
Heartbeat CPU  0 instructions: 1931000003 cycles: 3096822411 heartbeat IPC: 0.85387 cumulative IPC: 0.62310 (Simulation time: 5 hr 1 min 29 sec) 
Heartbeat CPU  0 instructions: 1932000000 cycles: 3098134209 heartbeat IPC: 0.76231 cumulative IPC: 0.62316 (Simulation time: 5 hr 1 min 37 sec) 
Heartbeat CPU  0 instructions: 1933000000 cycles: 3099473829 heartbeat IPC: 0.74648 cumulative IPC: 0.62322 (Simulation time: 5 hr 1 min 44 sec) 
Heartbeat CPU  0 instructions: 1934000002 cycles: 3101025336 heartbeat IPC: 0.64454 cumulative IPC: 0.62323 (Simulation time: 5 hr 1 min 52 sec) 
Heartbeat CPU  0 instructions: 1935000001 cycles: 3102243587 heartbeat IPC: 0.82085 cumulative IPC: 0.62330 (Simulation time: 5 hr 2 min 1 sec) 
Heartbeat CPU  0 instructions: 1936000000 cycles: 3103427142 heartbeat IPC: 0.84491 cumulative IPC: 0.62339 (Simulation time: 5 hr 2 min 10 sec) 
Heartbeat CPU  0 instructions: 1937000001 cycles: 3104748376 heartbeat IPC: 0.75687 cumulative IPC: 0.62345 (Simulation time: 5 hr 2 min 21 sec) 
Heartbeat CPU  0 instructions: 1938000000 cycles: 3106008160 heartbeat IPC: 0.79379 cumulative IPC: 0.62351 (Simulation time: 5 hr 2 min 33 sec) 
Heartbeat CPU  0 instructions: 1939000003 cycles: 3107178754 heartbeat IPC: 0.85427 cumulative IPC: 0.62360 (Simulation time: 5 hr 2 min 44 sec) 
Heartbeat CPU  0 instructions: 1940000000 cycles: 3108432599 heartbeat IPC: 0.79754 cumulative IPC: 0.62367 (Simulation time: 5 hr 2 min 55 sec) 
Heartbeat CPU  0 instructions: 1941000002 cycles: 3109745904 heartbeat IPC: 0.76144 cumulative IPC: 0.62373 (Simulation time: 5 hr 3 min 6 sec) 
Heartbeat CPU  0 instructions: 1942000001 cycles: 3110986959 heartbeat IPC: 0.80577 cumulative IPC: 0.62380 (Simulation time: 5 hr 3 min 15 sec) 
Heartbeat CPU  0 instructions: 1943000001 cycles: 3112174774 heartbeat IPC: 0.84188 cumulative IPC: 0.62389 (Simulation time: 5 hr 3 min 22 sec) 
Heartbeat CPU  0 instructions: 1944000000 cycles: 3113458277 heartbeat IPC: 0.77912 cumulative IPC: 0.62395 (Simulation time: 5 hr 3 min 29 sec) 
Heartbeat CPU  0 instructions: 1945000002 cycles: 3114742762 heartbeat IPC: 0.77852 cumulative IPC: 0.62401 (Simulation time: 5 hr 3 min 36 sec) 
Heartbeat CPU  0 instructions: 1946000002 cycles: 3115935426 heartbeat IPC: 0.83846 cumulative IPC: 0.62410 (Simulation time: 5 hr 3 min 43 sec) 
Heartbeat CPU  0 instructions: 1947000000 cycles: 3117148300 heartbeat IPC: 0.82449 cumulative IPC: 0.62417 (Simulation time: 5 hr 3 min 50 sec) 
Heartbeat CPU  0 instructions: 1948000000 cycles: 3118452453 heartbeat IPC: 0.76678 cumulative IPC: 0.62423 (Simulation time: 5 hr 3 min 57 sec) 
Heartbeat CPU  0 instructions: 1949000003 cycles: 3119792087 heartbeat IPC: 0.74647 cumulative IPC: 0.62429 (Simulation time: 5 hr 4 min 6 sec) 
Heartbeat CPU  0 instructions: 1950000000 cycles: 3121172245 heartbeat IPC: 0.72455 cumulative IPC: 0.62433 (Simulation time: 5 hr 4 min 21 sec) 
Heartbeat CPU  0 instructions: 1951000003 cycles: 3122494449 heartbeat IPC: 0.75632 cumulative IPC: 0.62439 (Simulation time: 5 hr 4 min 37 sec) 
Heartbeat CPU  0 instructions: 1952000000 cycles: 3123742468 heartbeat IPC: 0.80127 cumulative IPC: 0.62446 (Simulation time: 5 hr 5 min 4 sec) 
Heartbeat CPU  0 instructions: 1953000000 cycles: 3125031146 heartbeat IPC: 0.77599 cumulative IPC: 0.62452 (Simulation time: 5 hr 5 min 40 sec) 
Heartbeat CPU  0 instructions: 1954000000 cycles: 3126281951 heartbeat IPC: 0.79949 cumulative IPC: 0.62459 (Simulation time: 5 hr 5 min 51 sec) 
Heartbeat CPU  0 instructions: 1955000003 cycles: 3127451489 heartbeat IPC: 0.85504 cumulative IPC: 0.62468 (Simulation time: 5 hr 6 min 0 sec) 
Heartbeat CPU  0 instructions: 1956000000 cycles: 3128738278 heartbeat IPC: 0.77713 cumulative IPC: 0.62474 (Simulation time: 5 hr 6 min 8 sec) 
Heartbeat CPU  0 instructions: 1957000003 cycles: 3130015308 heartbeat IPC: 0.78307 cumulative IPC: 0.62480 (Simulation time: 5 hr 6 min 15 sec) 
Heartbeat CPU  0 instructions: 1958000003 cycles: 3131243983 heartbeat IPC: 0.81388 cumulative IPC: 0.62488 (Simulation time: 5 hr 6 min 24 sec) 
Heartbeat CPU  0 instructions: 1959000003 cycles: 3132431065 heartbeat IPC: 0.84240 cumulative IPC: 0.62496 (Simulation time: 5 hr 6 min 33 sec) 
Heartbeat CPU  0 instructions: 1960000000 cycles: 3133754337 heartbeat IPC: 0.75570 cumulative IPC: 0.62501 (Simulation time: 5 hr 6 min 44 sec) 
Heartbeat CPU  0 instructions: 1961000000 cycles: 3134931611 heartbeat IPC: 0.84942 cumulative IPC: 0.62510 (Simulation time: 5 hr 6 min 53 sec) 
Heartbeat CPU  0 instructions: 1962000002 cycles: 3136124425 heartbeat IPC: 0.83836 cumulative IPC: 0.62518 (Simulation time: 5 hr 7 min 6 sec) 
Heartbeat CPU  0 instructions: 1963000002 cycles: 3137368752 heartbeat IPC: 0.80365 cumulative IPC: 0.62525 (Simulation time: 5 hr 7 min 20 sec) 
Heartbeat CPU  0 instructions: 1964000000 cycles: 3138605870 heartbeat IPC: 0.80833 cumulative IPC: 0.62532 (Simulation time: 5 hr 7 min 37 sec) 
Heartbeat CPU  0 instructions: 1965000002 cycles: 3139793809 heartbeat IPC: 0.84180 cumulative IPC: 0.62540 (Simulation time: 5 hr 7 min 50 sec) 
Heartbeat CPU  0 instructions: 1966000000 cycles: 3141090449 heartbeat IPC: 0.77122 cumulative IPC: 0.62546 (Simulation time: 5 hr 8 min 4 sec) 
Heartbeat CPU  0 instructions: 1967000003 cycles: 3142459053 heartbeat IPC: 0.73067 cumulative IPC: 0.62551 (Simulation time: 5 hr 8 min 19 sec) 
Heartbeat CPU  0 instructions: 1968000000 cycles: 3143799707 heartbeat IPC: 0.74590 cumulative IPC: 0.62556 (Simulation time: 5 hr 8 min 33 sec) 
Heartbeat CPU  0 instructions: 1969000003 cycles: 3144992905 heartbeat IPC: 0.83809 cumulative IPC: 0.62564 (Simulation time: 5 hr 8 min 45 sec) 
Heartbeat CPU  0 instructions: 1970000000 cycles: 3146185679 heartbeat IPC: 0.83838 cumulative IPC: 0.62572 (Simulation time: 5 hr 8 min 53 sec) 
Heartbeat CPU  0 instructions: 1971000002 cycles: 3147320263 heartbeat IPC: 0.88138 cumulative IPC: 0.62582 (Simulation time: 5 hr 9 min 2 sec) 
Heartbeat CPU  0 instructions: 1972000000 cycles: 3148666688 heartbeat IPC: 0.74271 cumulative IPC: 0.62587 (Simulation time: 5 hr 9 min 13 sec) 
Heartbeat CPU  0 instructions: 1973000002 cycles: 3149829277 heartbeat IPC: 0.86015 cumulative IPC: 0.62595 (Simulation time: 5 hr 9 min 23 sec) 
Heartbeat CPU  0 instructions: 1974000000 cycles: 3151019209 heartbeat IPC: 0.84038 cumulative IPC: 0.62603 (Simulation time: 5 hr 9 min 36 sec) 
Heartbeat CPU  0 instructions: 1975000001 cycles: 3152257423 heartbeat IPC: 0.80762 cumulative IPC: 0.62610 (Simulation time: 5 hr 9 min 50 sec) 
Heartbeat CPU  0 instructions: 1976000000 cycles: 3153508532 heartbeat IPC: 0.79929 cumulative IPC: 0.62617 (Simulation time: 5 hr 10 min 7 sec) 
Heartbeat CPU  0 instructions: 1977000001 cycles: 3154698327 heartbeat IPC: 0.84048 cumulative IPC: 0.62625 (Simulation time: 5 hr 10 min 20 sec) 
Heartbeat CPU  0 instructions: 1978000003 cycles: 3155858610 heartbeat IPC: 0.86186 cumulative IPC: 0.62634 (Simulation time: 5 hr 10 min 38 sec) 
Heartbeat CPU  0 instructions: 1979000003 cycles: 3157197876 heartbeat IPC: 0.74668 cumulative IPC: 0.62639 (Simulation time: 5 hr 10 min 51 sec) 
Heartbeat CPU  0 instructions: 1980000000 cycles: 3158374627 heartbeat IPC: 0.84979 cumulative IPC: 0.62648 (Simulation time: 5 hr 11 min 6 sec) 
Heartbeat CPU  0 instructions: 1981000002 cycles: 3159594852 heartbeat IPC: 0.81952 cumulative IPC: 0.62655 (Simulation time: 5 hr 11 min 19 sec) 
Heartbeat CPU  0 instructions: 1982000001 cycles: 3160830650 heartbeat IPC: 0.80919 cumulative IPC: 0.62662 (Simulation time: 5 hr 11 min 30 sec) 
Heartbeat CPU  0 instructions: 1983000002 cycles: 3162135633 heartbeat IPC: 0.76629 cumulative IPC: 0.62668 (Simulation time: 5 hr 11 min 39 sec) 
Heartbeat CPU  0 instructions: 1984000000 cycles: 3163688731 heartbeat IPC: 0.64387 cumulative IPC: 0.62669 (Simulation time: 5 hr 11 min 48 sec) 
Heartbeat CPU  0 instructions: 1985000002 cycles: 3164936684 heartbeat IPC: 0.80131 cumulative IPC: 0.62676 (Simulation time: 5 hr 11 min 56 sec) 
Heartbeat CPU  0 instructions: 1986000002 cycles: 3166182898 heartbeat IPC: 0.80243 cumulative IPC: 0.62683 (Simulation time: 5 hr 12 min 6 sec) 
Heartbeat CPU  0 instructions: 1987000000 cycles: 3167473329 heartbeat IPC: 0.77493 cumulative IPC: 0.62689 (Simulation time: 5 hr 12 min 16 sec) 
Heartbeat CPU  0 instructions: 1988000000 cycles: 3168742386 heartbeat IPC: 0.78799 cumulative IPC: 0.62695 (Simulation time: 5 hr 12 min 28 sec) 
Heartbeat CPU  0 instructions: 1989000002 cycles: 3169934420 heartbeat IPC: 0.83890 cumulative IPC: 0.62703 (Simulation time: 5 hr 12 min 46 sec) 
Heartbeat CPU  0 instructions: 1990000002 cycles: 3171144833 heartbeat IPC: 0.82616 cumulative IPC: 0.62711 (Simulation time: 5 hr 13 min 5 sec) 
Heartbeat CPU  0 instructions: 1991000003 cycles: 3172458669 heartbeat IPC: 0.76113 cumulative IPC: 0.62716 (Simulation time: 5 hr 13 min 25 sec) 
Heartbeat CPU  0 instructions: 1992000000 cycles: 3173652510 heartbeat IPC: 0.83763 cumulative IPC: 0.62724 (Simulation time: 5 hr 13 min 39 sec) 
Heartbeat CPU  0 instructions: 1993000003 cycles: 3174898872 heartbeat IPC: 0.80234 cumulative IPC: 0.62731 (Simulation time: 5 hr 13 min 54 sec) 
Heartbeat CPU  0 instructions: 1994000003 cycles: 3176134198 heartbeat IPC: 0.80950 cumulative IPC: 0.62738 (Simulation time: 5 hr 14 min 7 sec) 
Heartbeat CPU  0 instructions: 1995000003 cycles: 3177420050 heartbeat IPC: 0.77769 cumulative IPC: 0.62744 (Simulation time: 5 hr 14 min 18 sec) 
Heartbeat CPU  0 instructions: 1996000000 cycles: 3178692900 heartbeat IPC: 0.78564 cumulative IPC: 0.62750 (Simulation time: 5 hr 14 min 26 sec) 
Heartbeat CPU  0 instructions: 1997000001 cycles: 3179909188 heartbeat IPC: 0.82217 cumulative IPC: 0.62758 (Simulation time: 5 hr 14 min 34 sec) 
Heartbeat CPU  0 instructions: 1998000003 cycles: 3181209229 heartbeat IPC: 0.76921 cumulative IPC: 0.62764 (Simulation time: 5 hr 14 min 46 sec) 
Heartbeat CPU  0 instructions: 1999000001 cycles: 3182508238 heartbeat IPC: 0.76982 cumulative IPC: 0.62769 (Simulation time: 5 hr 14 min 56 sec) 
Heartbeat CPU  0 instructions: 2000000000 cycles: 3183888140 heartbeat IPC: 0.72469 cumulative IPC: 0.62774 (Simulation time: 5 hr 15 min 7 sec) 
Heartbeat CPU  0 instructions: 2001000003 cycles: 3185335457 heartbeat IPC: 0.69094 cumulative IPC: 0.62777 (Simulation time: 5 hr 15 min 18 sec) 
Heartbeat CPU  0 instructions: 2002000002 cycles: 3186618596 heartbeat IPC: 0.77934 cumulative IPC: 0.62783 (Simulation time: 5 hr 15 min 36 sec) 
Finished CPU 0 instructions: 2000000000 cycles: 3185591926 cumulative IPC: 0.62783 (Simulation time: 5 hr 15 min 36 sec) 

ChampSim completed all CPUs

[ROI Statistics]
Core_0_instructions 2000000000
Core_0_cycles 3185591926
Core_0_IPC 0.62783

Core_0_branch_prediction_accuracy 98.17303
Core_0_branch_MPKI 0.51587
Core_0_average_ROB_occupancy_at_mispredict 208.82156

Core_0_L1D_total_access 522483765
Core_0_L1D_total_hit 412928314
Core_0_L1D_total_miss 109555451
Core_0_L1D_loads 483980163
Core_0_L1D_load_hit 381144091
Core_0_L1D_load_miss 102836072
Core_0_L1D_RFOs 38503602
Core_0_L1D_RFO_hit 31784223
Core_0_L1D_RFO_miss 6719379
Core_0_L1D_prefetches 0
Core_0_L1D_prefetch_hit 0
Core_0_L1D_prefetch_miss 0
Core_0_L1D_writebacks 0
Core_0_L1D_writeback_hit 0
Core_0_L1D_writeback_miss 0
Core_0_L1D_prefetch_requested 0
Core_0_L1D_prefetch_issued 0
Core_0_L1D_prefetch_useful 0
Core_0_L1D_prefetch_useless 0
Core_0_L1D_prefetch_late 0
Core_0_L1D_average_miss_latency 62.42285

Core_0_L1I_total_access 650465515
Core_0_L1I_total_hit 650419011
Core_0_L1I_total_miss 46504
Core_0_L1I_loads 650465515
Core_0_L1I_load_hit 650419011
Core_0_L1I_load_miss 46504
Core_0_L1I_RFOs 0
Core_0_L1I_RFO_hit 0
Core_0_L1I_RFO_miss 0
Core_0_L1I_prefetches 0
Core_0_L1I_prefetch_hit 0
Core_0_L1I_prefetch_miss 0
Core_0_L1I_writebacks 0
Core_0_L1I_writeback_hit 0
Core_0_L1I_writeback_miss 0
Core_0_L1I_prefetch_requested 0
Core_0_L1I_prefetch_issued 0
Core_0_L1I_prefetch_useful 0
Core_0_L1I_prefetch_useless 0
Core_0_L1I_prefetch_late 0
Core_0_L1I_average_miss_latency 212.72187

Core_0_L2C_total_access 135676037
Core_0_L2C_total_hit 103853210
Core_0_L2C_total_miss 31822827
Core_0_L2C_loads 102882185
Core_0_L2C_load_hit 77548969
Core_0_L2C_load_miss 25333216
Core_0_L2C_RFOs 6719304
Core_0_L2C_RFO_hit 2938829
Core_0_L2C_RFO_miss 3780475
Core_0_L2C_prefetches 14267989
Core_0_L2C_prefetch_hit 11559585
Core_0_L2C_prefetch_miss 2708404
Core_0_L2C_writebacks 11806559
Core_0_L2C_writeback_hit 11805827
Core_0_L2C_writeback_miss 732
Core_0_L2C_prefetch_requested 20329348
Core_0_L2C_prefetch_issued 18139035
Core_0_L2C_prefetch_useful 2657072
Core_0_L2C_prefetch_useless 51724
Core_0_L2C_prefetch_late 426909
Core_0_L2C_average_miss_latency 180.88741

Core_0_LLC_total_access 41810703
Core_0_LLC_total_hit 23372565
Core_0_LLC_total_miss 18438138
Core_0_LLC_loads 24908671
Core_0_LLC_load_hit 13288931
Core_0_LLC_load_miss 11619740
Core_0_LLC_RFOs 3778116
Core_0_LLC_RFO_hit 14712
Core_0_LLC_RFO_miss 3763404
Core_0_LLC_prefetches 3135308
Core_0_LLC_prefetch_hit 81078
Core_0_LLC_prefetch_miss 3054230
Core_0_LLC_writebacks 9988608
Core_0_LLC_writeback_hit 9987844
Core_0_LLC_writeback_miss 764
Core_0_LLC_prefetch_requested 0
Core_0_LLC_prefetch_issued 0
Core_0_LLC_prefetch_useful 34164
Core_0_LLC_prefetch_useless 3019405
Core_0_LLC_prefetch_late 0
Core_0_LLC_average_miss_latency 261.84870

Core_0_major_page_fault 0
Core_0_minor_page_fault 21169

CPU 0 L2C next line prefetcher final stats
Channel_0_RQ_row_buffer_hit 4825071
Channel_0_RQ_row_buffer_miss 13612231
Channel_0_WQ_row_buffer_hit 2635178
Channel_0_WQ_row_buffer_miss 7096523
Channel_0_WQ_full 0
Channel_0_dbus_congested 9676359

avg_congested_cycle 11
