TRACE: [331000000][Pythia-70M]_[h8][s1024][d64] Warmup: 2000000 NumTraces: 331000000
L1:next_line:L2:029-TOP1_BF-L2-MultiMarkovDelta_ip_stride_v4
*************************************************
   ChampSim Multicore Out-of-Order Simulator
   Last compiled: Oct 26 2024 09:37:15
*************************************************

trace_0 777-FE_comparisonScript_memoryTraces/memTraces[331000000][Pythia-70M]_[h8][s1024][d64].champsim.xz
CPU 0 L1D next line prefetcher
MK1: Size: 128 TMAX: 64 TMIN: 32 MKPTHRESH: 30
MK2: Size: 256 TMAX: 32 TMIN: 16 MKPTHRESH: 20
MK3: Size: 384 TMAX: 16 TMIN: 8 MKPTHRESH: 25
MK4: Size: 512 TMAX: 8 TMIN: 0 MKPTHRESH: 20
Stride Size: 512 Prefetch Degree: 16

CPU 0 L2C prefetcher
MAIN.cc ln 751 stats print skipped
CPU 0 L2C prefetcher initialized


Cache Size: 256
number of cache lines: 4096
CPU  0 inst:    1000000 cyc:     503742 now IPC :1.98514: AVG IPC :1.98514: L2-Pf-HR :0.77960: L2-HR :0.75382: (Sim:0h0m4s) 
CPU  0 inst:    2000001 cyc:     979459 now IPC :2.10209: AVG IPC :2.04194: L2-Pf-HR :0.79584: L2-HR :0.77143: (Sim:0h0m9s) 

Warmup complete CPU  0 instructions:    2000001 cycles:     979459 (Simulation time: 0 hr 0 min 9 sec) 

CPU  0 inst:    3000000 cyc:    1560186 now IPC :1.72198: AVG IPC :1.72198: L2-Pf-HR :0.78764: L2-HR :0.77316: (Sim:0h0m14s) 
CPU  0 inst:    4000000 cyc:    2121887 now IPC :1.78031: AVG IPC :1.75066: L2-Pf-HR :0.79152: L2-HR :0.77606: (Sim:0h0m18s) 
CPU  0 inst:    5000003 cyc:    2685310 now IPC :1.77487: AVG IPC :1.75865: L2-Pf-HR :0.79876: L2-HR :0.78237: (Sim:0h0m23s) 
CPU  0 inst:    6000003 cyc:    3251852 now IPC :1.76509: AVG IPC :1.76026: L2-Pf-HR :0.81580: L2-HR :0.79655: (Sim:0h0m27s) 
CPU  0 inst:    7000000 cyc:    4010993 now IPC :1.31727: AVG IPC :1.64933: L2-Pf-HR :0.81746: L2-HR :0.79823: (Sim:0h0m32s) 
CPU  0 inst:    8000000 cyc:    4579804 now IPC :1.75805: AVG IPC :1.66651: L2-Pf-HR :0.81599: L2-HR :0.79706: (Sim:0h0m37s) 
CPU  0 inst:    9000002 cyc:    5139006 now IPC :1.78827: AVG IPC :1.68288: L2-Pf-HR :0.81470: L2-HR :0.79604: (Sim:0h0m41s) 
CPU  0 inst:   10000003 cyc:    5702478 now IPC :1.77471: AVG IPC :1.69383: L2-Pf-HR :0.81458: L2-HR :0.79604: (Sim:0h0m46s) 
CPU  0 inst:   11000001 cyc:    6263407 now IPC :1.78275: AVG IPC :1.70327: L2-Pf-HR :0.81525: L2-HR :0.79662: (Sim:0h0m51s) 
CPU  0 inst:   12000000 cyc:    6827993 now IPC :1.77121: AVG IPC :1.70983: L2-Pf-HR :0.82064: L2-HR :0.80115: (Sim:0h0m55s) 
CPU  0 inst:   13000001 cyc:    7504902 now IPC :1.47730: AVG IPC :1.68571: L2-Pf-HR :0.82290: L2-HR :0.80313: (Sim:0h1m0s) 
CPU  0 inst:   14000001 cyc:    8079193 now IPC :1.74128: AVG IPC :1.69020: L2-Pf-HR :0.82318: L2-HR :0.80334: (Sim:0h1m5s) 
CPU  0 inst:   15000001 cyc:    8647957 now IPC :1.75820: AVG IPC :1.69525: L2-Pf-HR :0.82431: L2-HR :0.80436: (Sim:0h1m9s) 
CPU  0 inst:   16000000 cyc:    9215299 now IPC :1.76260: AVG IPC :1.69989: L2-Pf-HR :0.82626: L2-HR :0.80599: (Sim:0h1m14s) 
CPU  0 inst:   17000003 cyc:    9999316 now IPC :1.27549: AVG IPC :1.66300: L2-Pf-HR :0.82707: L2-HR :0.80663: (Sim:0h1m19s) 
CPU  0 inst:   18000002 cyc:   10597690 now IPC :1.67119: AVG IPC :1.66351: L2-Pf-HR :0.82669: L2-HR :0.80621: (Sim:0h1m22s) 
CPU  0 inst:   19000002 cyc:   11194817 now IPC :1.67469: AVG IPC :1.66416: L2-Pf-HR :0.82607: L2-HR :0.80561: (Sim:0h1m25s) 
CPU  0 inst:   20000000 cyc:   11781372 now IPC :1.70487: AVG IPC :1.66637: L2-Pf-HR :0.82564: L2-HR :0.80520: (Sim:0h1m27s) 
CPU  0 inst:   21000001 cyc:   12369313 now IPC :1.70085: AVG IPC :1.66815: L2-Pf-HR :0.82535: L2-HR :0.80490: (Sim:0h1m30s) 
CPU  0 inst:   22000003 cyc:   12960297 now IPC :1.69210: AVG IPC :1.66933: L2-Pf-HR :0.82724: L2-HR :0.80649: (Sim:0h1m33s) 
CPU  0 inst:   23000003 cyc:   13706277 now IPC :1.34052: AVG IPC :1.65006: L2-Pf-HR :0.82828: L2-HR :0.80743: (Sim:0h1m36s) 
CPU  0 inst:   24000000 cyc:   14285215 now IPC :1.72730: AVG IPC :1.65342: L2-Pf-HR :0.82800: L2-HR :0.80719: (Sim:0h1m39s) 
CPU  0 inst:   25000003 cyc:   14860234 now IPC :1.73908: AVG IPC :1.65697: L2-Pf-HR :0.82788: L2-HR :0.80710: (Sim:0h1m41s) 
CPU  0 inst:   26000000 cyc:   15430729 now IPC :1.75286: AVG IPC :1.66075: L2-Pf-HR :0.82799: L2-HR :0.80723: (Sim:0h1m44s) 
CPU  0 inst:   27000002 cyc:   16006704 now IPC :1.73619: AVG IPC :1.66365: L2-Pf-HR :0.82801: L2-HR :0.80726: (Sim:0h1m48s) 
CPU  0 inst:   28000000 cyc:   16574315 now IPC :1.76177: AVG IPC :1.66722: L2-Pf-HR :0.82932: L2-HR :0.80838: (Sim:0h1m52s) 
CPU  0 inst:   29000003 cyc:   17239112 now IPC :1.50422: AVG IPC :1.66055: L2-Pf-HR :0.83067: L2-HR :0.80956: (Sim:0h1m57s) 
CPU  0 inst:   30000000 cyc:   17822218 now IPC :1.71495: AVG IPC :1.66244: L2-Pf-HR :0.83102: L2-HR :0.80987: (Sim:0h2m1s) 
CPU  0 inst:   31000000 cyc:   18393470 now IPC :1.75054: AVG IPC :1.66533: L2-Pf-HR :0.83137: L2-HR :0.81020: (Sim:0h2m6s) 
CPU  0 inst:   32000000 cyc:   18971056 now IPC :1.73134: AVG IPC :1.66745: L2-Pf-HR :0.83214: L2-HR :0.81087: (Sim:0h2m11s) 
CPU  0 inst:   33000003 cyc:   19742188 now IPC :1.29680: AVG IPC :1.65221: L2-Pf-HR :0.83260: L2-HR :0.81125: (Sim:0h2m15s) 
CPU  0 inst:   34000003 cyc:   20343135 now IPC :1.66404: AVG IPC :1.65258: L2-Pf-HR :0.83224: L2-HR :0.81089: (Sim:0h2m18s) 
CPU  0 inst:   35000003 cyc:   20939903 now IPC :1.67569: AVG IPC :1.65327: L2-Pf-HR :0.83189: L2-HR :0.81056: (Sim:0h2m21s) 
CPU  0 inst:   36000000 cyc:   21536231 now IPC :1.67692: AVG IPC :1.65396: L2-Pf-HR :0.83147: L2-HR :0.81017: (Sim:0h2m24s) 
CPU  0 inst:   37000001 cyc:   22126605 now IPC :1.69384: AVG IPC :1.65507: L2-Pf-HR :0.83125: L2-HR :0.80995: (Sim:0h2m27s) 
CPU  0 inst:   38000001 cyc:   22720486 now IPC :1.68384: AVG IPC :1.65586: L2-Pf-HR :0.83191: L2-HR :0.81050: (Sim:0h2m30s) 
CPU  0 inst:   39000003 cyc:   23458901 now IPC :1.35425: AVG IPC :1.64595: L2-Pf-HR :0.83284: L2-HR :0.81132: (Sim:0h2m33s) 
CPU  0 inst:   40000000 cyc:   24044767 now IPC :1.70687: AVG IPC :1.64750: L2-Pf-HR :0.83259: L2-HR :0.81110: (Sim:0h2m36s) 
CPU  0 inst:   41000003 cyc:   24613656 now IPC :1.75782: AVG IPC :1.65015: L2-Pf-HR :0.83240: L2-HR :0.81096: (Sim:0h2m39s) 
CPU  0 inst:   42000003 cyc:   25191507 now IPC :1.73055: AVG IPC :1.65207: L2-Pf-HR :0.83220: L2-HR :0.81080: (Sim:0h2m41s) 
CPU  0 inst:   43000000 cyc:   25770669 now IPC :1.72663: AVG IPC :1.65381: L2-Pf-HR :0.83217: L2-HR :0.81078: (Sim:0h2m44s) 
CPU  0 inst:   44000000 cyc:   26346704 now IPC :1.73601: AVG IPC :1.65568: L2-Pf-HR :0.83276: L2-HR :0.81129: (Sim:0h2m47s) 
CPU  0 inst:   45000003 cyc:   27015400 now IPC :1.49545: AVG IPC :1.65156: L2-Pf-HR :0.83377: L2-HR :0.81216: (Sim:0h2m50s) 
CPU  0 inst:   46000002 cyc:   27591982 now IPC :1.73436: AVG IPC :1.65336: L2-Pf-HR :0.83390: L2-HR :0.81228: (Sim:0h2m53s) 
CPU  0 inst:   47000001 cyc:   28166753 now IPC :1.73982: AVG IPC :1.65518: L2-Pf-HR :0.83407: L2-HR :0.81245: (Sim:0h2m55s) 
CPU  0 inst:   48000000 cyc:   28742899 now IPC :1.73567: AVG IPC :1.65686: L2-Pf-HR :0.83442: L2-HR :0.81276: (Sim:0h2m58s) 
CPU  0 inst:   49000000 cyc:   29506372 now IPC :1.30980: AVG IPC :1.64757: L2-Pf-HR :0.83478: L2-HR :0.81303: (Sim:0h3m1s) 
CPU  0 inst:   50000001 cyc:   30114996 now IPC :1.64305: AVG IPC :1.64747: L2-Pf-HR :0.83447: L2-HR :0.81272: (Sim:0h3m4s) 
CPU  0 inst:   51000000 cyc:   30709184 now IPC :1.68297: AVG IPC :1.64818: L2-Pf-HR :0.83422: L2-HR :0.81249: (Sim:0h3m7s) 
CPU  0 inst:   52000000 cyc:   31306028 now IPC :1.67548: AVG IPC :1.64872: L2-Pf-HR :0.83388: L2-HR :0.81217: (Sim:0h3m10s) 
CPU  0 inst:   53000003 cyc:   31900131 now IPC :1.68321: AVG IPC :1.64938: L2-Pf-HR :0.83360: L2-HR :0.81190: (Sim:0h3m13s) 
CPU  0 inst:   54000003 cyc:   32490009 now IPC :1.69527: AVG IPC :1.65024: L2-Pf-HR :0.83383: L2-HR :0.81210: (Sim:0h3m16s) 
CPU  0 inst:   55000003 cyc:   33231854 now IPC :1.34799: AVG IPC :1.64329: L2-Pf-HR :0.83454: L2-HR :0.81269: (Sim:0h3m19s) 
CPU  0 inst:   56000000 cyc:   33823227 now IPC :1.69098: AVG IPC :1.64415: L2-Pf-HR :0.83441: L2-HR :0.81258: (Sim:0h3m22s) 
CPU  0 inst:   57000002 cyc:   34399008 now IPC :1.73677: AVG IPC :1.64574: L2-Pf-HR :0.83427: L2-HR :0.81245: (Sim:0h3m25s) 
CPU  0 inst:   58000003 cyc:   34973844 now IPC :1.73963: AVG IPC :1.64733: L2-Pf-HR :0.83416: L2-HR :0.81238: (Sim:0h3m28s) 
CPU  0 inst:   59000001 cyc:   35550963 now IPC :1.73274: AVG IPC :1.64876: L2-Pf-HR :0.83408: L2-HR :0.81231: (Sim:0h3m30s) 
CPU  0 inst:   60000000 cyc:   36121140 now IPC :1.75384: AVG IPC :1.65046: L2-Pf-HR :0.83432: L2-HR :0.81251: (Sim:0h3m33s) 
CPU  0 inst:   61000001 cyc:   36789262 now IPC :1.49673: AVG IPC :1.64759: L2-Pf-HR :0.83513: L2-HR :0.81319: (Sim:0h3m37s) 
CPU  0 inst:   62000000 cyc:   37371820 now IPC :1.71657: AVG IPC :1.64870: L2-Pf-HR :0.83521: L2-HR :0.81328: (Sim:0h3m41s) 
CPU  0 inst:   63000003 cyc:   37948419 now IPC :1.73431: AVG IPC :1.65003: L2-Pf-HR :0.83531: L2-HR :0.81337: (Sim:0h3m46s) 
CPU  0 inst:   64000000 cyc:   38521627 now IPC :1.74456: AVG IPC :1.65148: L2-Pf-HR :0.83549: L2-HR :0.81354: (Sim:0h3m49s) 
CPU  0 inst:   65000001 cyc:   39274578 now IPC :1.32811: AVG IPC :1.64512: L2-Pf-HR :0.83590: L2-HR :0.81387: (Sim:0h3m52s) 
CPU  0 inst:   66000003 cyc:   39887245 now IPC :1.63221: AVG IPC :1.64491: L2-Pf-HR :0.83574: L2-HR :0.81371: (Sim:0h3m55s) 
CPU  0 inst:   67000001 cyc:   40488238 now IPC :1.66391: AVG IPC :1.64520: L2-Pf-HR :0.83553: L2-HR :0.81351: (Sim:0h3m59s) 
CPU  0 inst:   68000000 cyc:   41081211 now IPC :1.68642: AVG IPC :1.64581: L2-Pf-HR :0.83525: L2-HR :0.81324: (Sim:0h4m3s) 
CPU  0 inst:   69000000 cyc:   41673075 now IPC :1.68958: AVG IPC :1.64645: L2-Pf-HR :0.83502: L2-HR :0.81304: (Sim:0h4m6s) 
CPU  0 inst:   70000001 cyc:   42269847 now IPC :1.67568: AVG IPC :1.64687: L2-Pf-HR :0.83506: L2-HR :0.81307: (Sim:0h4m9s) 
CPU  0 inst:   71000003 cyc:   43000937 now IPC :1.36782: AVG IPC :1.64202: L2-Pf-HR :0.83562: L2-HR :0.81354: (Sim:0h4m12s) 
CPU  0 inst:   72000000 cyc:   43602369 now IPC :1.66269: AVG IPC :1.64231: L2-Pf-HR :0.83546: L2-HR :0.81341: (Sim:0h4m15s) 
CPU  0 inst:   73000003 cyc:   44172075 now IPC :1.75530: AVG IPC :1.64380: L2-Pf-HR :0.83531: L2-HR :0.81329: (Sim:0h4m17s) 
CPU  0 inst:   74000000 cyc:   44746779 now IPC :1.74002: AVG IPC :1.64506: L2-Pf-HR :0.83525: L2-HR :0.81325: (Sim:0h4m20s) 
CPU  0 inst:   75000002 cyc:   45316905 now IPC :1.75400: AVG IPC :1.64646: L2-Pf-HR :0.83518: L2-HR :0.81319: (Sim:0h4m23s) 
CPU  0 inst:   76000000 cyc:   45887923 now IPC :1.75125: AVG IPC :1.64780: L2-Pf-HR :0.83526: L2-HR :0.81327: (Sim:0h4m26s) 
CPU  0 inst:   77000000 cyc:   46544964 now IPC :1.52198: AVG IPC :1.64598: L2-Pf-HR :0.83594: L2-HR :0.81385: (Sim:0h4m29s) 
CPU  0 inst:   78000003 cyc:   47129808 now IPC :1.70986: AVG IPC :1.64679: L2-Pf-HR :0.83591: L2-HR :0.81383: (Sim:0h4m32s) 
CPU  0 inst:   79000002 cyc:   47706492 now IPC :1.73405: AVG IPC :1.64787: L2-Pf-HR :0.83599: L2-HR :0.81390: (Sim:0h4m35s) 
CPU  0 inst:   80000000 cyc:   48281311 now IPC :1.73967: AVG IPC :1.64898: L2-Pf-HR :0.83599: L2-HR :0.81392: (Sim:0h4m38s) 
CPU  0 inst:   81000000 cyc:   49021780 now IPC :1.35050: AVG IPC :1.64438: L2-Pf-HR :0.83627: L2-HR :0.81417: (Sim:0h4m42s) 
CPU  0 inst:   82000002 cyc:   49641004 now IPC :1.61493: AVG IPC :1.64401: L2-Pf-HR :0.83616: L2-HR :0.81404: (Sim:0h4m46s) 
CPU  0 inst:   83000002 cyc:   50242843 now IPC :1.66157: AVG IPC :1.64422: L2-Pf-HR :0.83607: L2-HR :0.81395: (Sim:0h4m48s) 
CPU  0 inst:   84000000 cyc:   50837450 now IPC :1.68178: AVG IPC :1.64467: L2-Pf-HR :0.83599: L2-HR :0.81388: (Sim:0h4m52s) 
CPU  0 inst:   85000002 cyc:   51435252 now IPC :1.67280: AVG IPC :1.64500: L2-Pf-HR :0.83589: L2-HR :0.81377: (Sim:0h4m55s) 
CPU  0 inst:   86000002 cyc:   52029716 now IPC :1.68219: AVG IPC :1.64544: L2-Pf-HR :0.83587: L2-HR :0.81375: (Sim:0h4m59s) 
CPU  0 inst:   87000000 cyc:   52732020 now IPC :1.42388: AVG IPC :1.64243: L2-Pf-HR :0.83637: L2-HR :0.81418: (Sim:0h5m1s) 
CPU  0 inst:   88000000 cyc:   53373676 now IPC :1.55847: AVG IPC :1.64140: L2-Pf-HR :0.83632: L2-HR :0.81413: (Sim:0h5m4s) 
CPU  0 inst:   89000002 cyc:   53952681 now IPC :1.72710: AVG IPC :1.64234: L2-Pf-HR :0.83623: L2-HR :0.81405: (Sim:0h5m7s) 
CPU  0 inst:   90000001 cyc:   54531603 now IPC :1.72735: AVG IPC :1.64326: L2-Pf-HR :0.83619: L2-HR :0.81403: (Sim:0h5m10s) 
CPU  0 inst:   91000000 cyc:   55107167 now IPC :1.73742: AVG IPC :1.64426: L2-Pf-HR :0.83615: L2-HR :0.81400: (Sim:0h5m13s) 
CPU  0 inst:   92000000 cyc:   55679234 now IPC :1.74805: AVG IPC :1.64534: L2-Pf-HR :0.83619: L2-HR :0.81404: (Sim:0h5m15s) 
CPU  0 inst:   93000003 cyc:   56325407 now IPC :1.54758: AVG IPC :1.64420: L2-Pf-HR :0.83673: L2-HR :0.81450: (Sim:0h5m18s) 
CPU  0 inst:   94000000 cyc:   56931635 now IPC :1.64954: AVG IPC :1.64426: L2-Pf-HR :0.83682: L2-HR :0.81458: (Sim:0h5m21s) 
CPU  0 inst:   95000002 cyc:   57513528 now IPC :1.71853: AVG IPC :1.64503: L2-Pf-HR :0.83688: L2-HR :0.81464: (Sim:0h5m24s) 
CPU  0 inst:   96000000 cyc:   58090032 now IPC :1.73459: AVG IPC :1.64593: L2-Pf-HR :0.83693: L2-HR :0.81468: (Sim:0h5m27s) 
CPU  0 inst:   97000001 cyc:   58782114 now IPC :1.44492: AVG IPC :1.64352: L2-Pf-HR :0.83723: L2-HR :0.81494: (Sim:0h5m30s) 
CPU  0 inst:   98000001 cyc:   59455771 now IPC :1.48443: AVG IPC :1.64169: L2-Pf-HR :0.83714: L2-HR :0.81484: (Sim:0h5m33s) 
CPU  0 inst:   99000003 cyc:   60053408 now IPC :1.67326: AVG IPC :1.64201: L2-Pf-HR :0.83705: L2-HR :0.81476: (Sim:0h5m36s) 
CPU  0 inst:  100000000 cyc:   60652893 now IPC :1.66809: AVG IPC :1.64227: L2-Pf-HR :0.83694: L2-HR :0.81465: (Sim:0h5m38s) 
CPU  0 inst:  101000002 cyc:   61248331 now IPC :1.67944: AVG IPC :1.64264: L2-Pf-HR :0.83680: L2-HR :0.81452: (Sim:0h5m41s) 
CPU  0 inst:  102000002 cyc:   61845862 now IPC :1.67355: AVG IPC :1.64294: L2-Pf-HR :0.83669: L2-HR :0.81442: (Sim:0h5m44s) 
CPU  0 inst:  103000000 cyc:   62443438 now IPC :1.67342: AVG IPC :1.64324: L2-Pf-HR :0.83718: L2-HR :0.81483: (Sim:0h5m47s) 
CPU  0 inst:  104000000 cyc:   63174763 now IPC :1.36738: AVG IPC :1.64000: L2-Pf-HR :0.83703: L2-HR :0.81471: (Sim:0h5m50s) 
CPU  0 inst:  105000002 cyc:   63750061 now IPC :1.73823: AVG IPC :1.64090: L2-Pf-HR :0.83690: L2-HR :0.81461: (Sim:0h5m53s) 
CPU  0 inst:  106000001 cyc:   64326865 now IPC :1.73369: AVG IPC :1.64174: L2-Pf-HR :0.83681: L2-HR :0.81453: (Sim:0h5m56s) 
CPU  0 inst:  107000001 cyc:   64896374 now IPC :1.75590: AVG IPC :1.64276: L2-Pf-HR :0.83672: L2-HR :0.81447: (Sim:0h5m58s) 
CPU  0 inst:  108000000 cyc:   65467992 now IPC :1.74942: AVG IPC :1.64370: L2-Pf-HR :0.83669: L2-HR :0.81444: (Sim:0h6m1s) 
CPU  0 inst:  109000003 cyc:   66033780 now IPC :1.76745: AVG IPC :1.64478: L2-Pf-HR :0.83717: L2-HR :0.81485: (Sim:0h6m4s) 
CPU  0 inst:  110000000 cyc:   66712900 now IPC :1.47249: AVG IPC :1.64300: L2-Pf-HR :0.83721: L2-HR :0.81489: (Sim:0h6m9s) 
CPU  0 inst:  111000001 cyc:   67288244 now IPC :1.73809: AVG IPC :1.64382: L2-Pf-HR :0.83728: L2-HR :0.81496: (Sim:0h6m14s) 
CPU  0 inst:  112000000 cyc:   67864356 now IPC :1.73577: AVG IPC :1.64462: L2-Pf-HR :0.83730: L2-HR :0.81498: (Sim:0h6m18s) 
CPU  0 inst:  113000000 cyc:   68432825 now IPC :1.75911: AVG IPC :1.64558: L2-Pf-HR :0.83763: L2-HR :0.81526: (Sim:0h6m23s) 
CPU  0 inst:  114000001 cyc:   69224786 now IPC :1.26269: AVG IPC :1.64114: L2-Pf-HR :0.83750: L2-HR :0.81515: (Sim:0h6m28s) 
CPU  0 inst:  115000000 cyc:   69839740 now IPC :1.62614: AVG IPC :1.64100: L2-Pf-HR :0.83741: L2-HR :0.81506: (Sim:0h6m33s) 
CPU  0 inst:  116000000 cyc:   70440780 now IPC :1.66378: AVG IPC :1.64120: L2-Pf-HR :0.83734: L2-HR :0.81498: (Sim:0h6m38s) 
CPU  0 inst:  117000001 cyc:   71039309 now IPC :1.67076: AVG IPC :1.64145: L2-Pf-HR :0.83721: L2-HR :0.81486: (Sim:0h6m42s) 
CPU  0 inst:  118000000 cyc:   71638240 now IPC :1.66964: AVG IPC :1.64169: L2-Pf-HR :0.83713: L2-HR :0.81479: (Sim:0h6m47s) 
CPU  0 inst:  119000003 cyc:   72231565 now IPC :1.68542: AVG IPC :1.64206: L2-Pf-HR :0.83745: L2-HR :0.81506: (Sim:0h6m52s) 
CPU  0 inst:  120000000 cyc:   72984974 now IPC :1.32730: AVG IPC :1.63876: L2-Pf-HR :0.83744: L2-HR :0.81505: (Sim:0h6m56s) 
CPU  0 inst:  121000002 cyc:   73569801 now IPC :1.70991: AVG IPC :1.63934: L2-Pf-HR :0.83738: L2-HR :0.81501: (Sim:0h7m1s) 
CPU  0 inst:  122000001 cyc:   74143930 now IPC :1.74177: AVG IPC :1.64014: L2-Pf-HR :0.83733: L2-HR :0.81497: (Sim:0h7m6s) 
CPU  0 inst:  123000000 cyc:   74731431 now IPC :1.70212: AVG IPC :1.64063: L2-Pf-HR :0.83730: L2-HR :0.81495: (Sim:0h7m10s) 
CPU  0 inst:  124000000 cyc:   75305149 now IPC :1.74302: AVG IPC :1.64142: L2-Pf-HR :0.83727: L2-HR :0.81493: (Sim:0h7m15s) 
CPU  0 inst:  125000000 cyc:   75874226 now IPC :1.75723: AVG IPC :1.64230: L2-Pf-HR :0.83761: L2-HR :0.81521: (Sim:0h7m20s) 
CPU  0 inst:  126000001 cyc:   76557840 now IPC :1.46282: AVG IPC :1.64068: L2-Pf-HR :0.83775: L2-HR :0.81533: (Sim:0h7m24s) 
CPU  0 inst:  127000002 cyc:   77132740 now IPC :1.73943: AVG IPC :1.64143: L2-Pf-HR :0.83778: L2-HR :0.81537: (Sim:0h7m29s) 
CPU  0 inst:  128000000 cyc:   77711622 now IPC :1.72746: AVG IPC :1.64208: L2-Pf-HR :0.83784: L2-HR :0.81542: (Sim:0h7m34s) 
CPU  0 inst:  129000001 cyc:   78289685 now IPC :1.72992: AVG IPC :1.64273: L2-Pf-HR :0.83804: L2-HR :0.81560: (Sim:0h7m38s) 
CPU  0 inst:  130000003 cyc:   83410782 now IPC :0.19527: AVG IPC :1.55281: L2-Pf-HR :0.83265: L2-HR :0.81191: (Sim:0h7m47s) 
CPU  0 inst:  131000002 cyc:   89838336 now IPC :0.15558: AVG IPC :1.45174: L2-Pf-HR :0.82582: L2-HR :0.80744: (Sim:0h7m56s) 
CPU  0 inst:  132000000 cyc:   96266700 now IPC :0.15556: AVG IPC :1.36430: L2-Pf-HR :0.81913: L2-HR :0.80311: (Sim:0h8m6s) 
CPU  0 inst:  133000000 cyc:  102695760 now IPC :0.15554: AVG IPC :1.28790: L2-Pf-HR :0.81258: L2-HR :0.79893: (Sim:0h8m15s) 
CPU  0 inst:  134000000 cyc:  109002111 now IPC :0.15857: AVG IPC :1.22197: L2-Pf-HR :0.80641: L2-HR :0.79498: (Sim:0h8m25s) 
CPU  0 inst:  135000000 cyc:  112554219 now IPC :0.28152: AVG IPC :1.19203: L2-Pf-HR :0.80662: L2-HR :0.79489: (Sim:0h8m30s) 
CPU  0 inst:  136000000 cyc:  116105237 now IPC :0.28161: AVG IPC :1.16394: L2-Pf-HR :0.80686: L2-HR :0.79483: (Sim:0h8m36s) 
CPU  0 inst:  137000000 cyc:  119653205 now IPC :0.28185: AVG IPC :1.13757: L2-Pf-HR :0.80721: L2-HR :0.79487: (Sim:0h8m42s) 
CPU  0 inst:  138000002 cyc:  123202907 now IPC :0.28171: AVG IPC :1.11272: L2-Pf-HR :0.80754: L2-HR :0.79490: (Sim:0h8m48s) 
CPU  0 inst:  139000000 cyc:  126751249 now IPC :0.28182: AVG IPC :1.08927: L2-Pf-HR :0.80792: L2-HR :0.79497: (Sim:0h8m53s) 
CPU  0 inst:  140000000 cyc:  130299709 now IPC :0.28181: AVG IPC :1.06712: L2-Pf-HR :0.80825: L2-HR :0.79501: (Sim:0h9m0s) 
CPU  0 inst:  141000003 cyc:  133846898 now IPC :0.28191: AVG IPC :1.04616: L2-Pf-HR :0.80859: L2-HR :0.79505: (Sim:0h9m7s) 
CPU  0 inst:  142000003 cyc:  137395448 now IPC :0.28181: AVG IPC :1.02627: L2-Pf-HR :0.80890: L2-HR :0.79507: (Sim:0h9m13s) 
CPU  0 inst:  143000000 cyc:  140941044 now IPC :0.28204: AVG IPC :1.00742: L2-Pf-HR :0.80928: L2-HR :0.79515: (Sim:0h9m19s) 
CPU  0 inst:  144000000 cyc:  144485847 now IPC :0.28210: AVG IPC :0.98950: L2-Pf-HR :0.80967: L2-HR :0.79525: (Sim:0h9m24s) 
CPU  0 inst:  145000002 cyc:  148036789 now IPC :0.28162: AVG IPC :0.97241: L2-Pf-HR :0.80990: L2-HR :0.79521: (Sim:0h9m30s) 
CPU  0 inst:  146000000 cyc:  151587882 now IPC :0.28160: AVG IPC :0.95612: L2-Pf-HR :0.81020: L2-HR :0.79522: (Sim:0h9m36s) 
CPU  0 inst:  147000000 cyc:  155137259 now IPC :0.28174: AVG IPC :0.94059: L2-Pf-HR :0.81049: L2-HR :0.79524: (Sim:0h9m41s) 
CPU  0 inst:  148000000 cyc:  158684653 now IPC :0.28190: AVG IPC :0.92578: L2-Pf-HR :0.81080: L2-HR :0.79528: (Sim:0h9m47s) 
CPU  0 inst:  149000002 cyc:  162232460 now IPC :0.28186: AVG IPC :0.91161: L2-Pf-HR :0.81110: L2-HR :0.79531: (Sim:0h9m53s) 
CPU  0 inst:  150000000 cyc:  165781368 now IPC :0.28178: AVG IPC :0.89805: L2-Pf-HR :0.81136: L2-HR :0.79530: (Sim:0h9m58s) 
CPU  0 inst:  151000000 cyc:  169329238 now IPC :0.28186: AVG IPC :0.88506: L2-Pf-HR :0.81163: L2-HR :0.79531: (Sim:0h10m4s) 
CPU  0 inst:  152000000 cyc:  172877550 now IPC :0.28182: AVG IPC :0.87261: L2-Pf-HR :0.81191: L2-HR :0.79533: (Sim:0h10m9s) 
CPU  0 inst:  153000002 cyc:  176427053 now IPC :0.28173: AVG IPC :0.86066: L2-Pf-HR :0.81221: L2-HR :0.79536: (Sim:0h10m15s) 
CPU  0 inst:  154000000 cyc:  179975613 now IPC :0.28180: AVG IPC :0.84918: L2-Pf-HR :0.81252: L2-HR :0.79541: (Sim:0h10m24s) 
CPU  0 inst:  155000000 cyc:  183520098 now IPC :0.28213: AVG IPC :0.83817: L2-Pf-HR :0.81288: L2-HR :0.79551: (Sim:0h10m33s) 
CPU  0 inst:  156000000 cyc:  187064320 now IPC :0.28215: AVG IPC :0.82758: L2-Pf-HR :0.81324: L2-HR :0.79560: (Sim:0h10m43s) 
CPU  0 inst:  157000002 cyc:  190610502 now IPC :0.28199: AVG IPC :0.81738: L2-Pf-HR :0.81353: L2-HR :0.79564: (Sim:0h10m51s) 
CPU  0 inst:  158000003 cyc:  194156698 now IPC :0.28199: AVG IPC :0.80755: L2-Pf-HR :0.81382: L2-HR :0.79568: (Sim:0h10m57s) 
CPU  0 inst:  159000003 cyc:  197700593 now IPC :0.28218: AVG IPC :0.79808: L2-Pf-HR :0.81419: L2-HR :0.79579: (Sim:0h11m2s) 
CPU  0 inst:  160000000 cyc:  201246544 now IPC :0.28201: AVG IPC :0.78895: L2-Pf-HR :0.81453: L2-HR :0.79588: (Sim:0h11m8s) 
CPU  0 inst:  161000000 cyc:  204794406 now IPC :0.28186: AVG IPC :0.78012: L2-Pf-HR :0.81486: L2-HR :0.79596: (Sim:0h11m14s) 
CPU  0 inst:  162000003 cyc:  208342981 now IPC :0.28180: AVG IPC :0.77159: L2-Pf-HR :0.81511: L2-HR :0.79597: (Sim:0h11m20s) 
CPU  0 inst:  163000003 cyc:  211887668 now IPC :0.28211: AVG IPC :0.76337: L2-Pf-HR :0.81542: L2-HR :0.79604: (Sim:0h11m25s) 
CPU  0 inst:  164000000 cyc:  215433889 now IPC :0.28199: AVG IPC :0.75541: L2-Pf-HR :0.81571: L2-HR :0.79609: (Sim:0h11m32s) 
CPU  0 inst:  165000001 cyc:  218982838 now IPC :0.28177: AVG IPC :0.74769: L2-Pf-HR :0.81594: L2-HR :0.79609: (Sim:0h11m38s) 
CPU  0 inst:  166000002 cyc:  222528665 now IPC :0.28202: AVG IPC :0.74024: L2-Pf-HR :0.81622: L2-HR :0.79614: (Sim:0h11m44s) 
CPU  0 inst:  167000001 cyc:  226078449 now IPC :0.28171: AVG IPC :0.73301: L2-Pf-HR :0.81643: L2-HR :0.79612: (Sim:0h11m49s) 
CPU  0 inst:  168000000 cyc:  229627715 now IPC :0.28175: AVG IPC :0.72601: L2-Pf-HR :0.81671: L2-HR :0.79617: (Sim:0h11m55s) 
CPU  0 inst:  169000001 cyc:  233176383 now IPC :0.28180: AVG IPC :0.71922: L2-Pf-HR :0.81696: L2-HR :0.79620: (Sim:0h12m1s) 
CPU  0 inst:  170000002 cyc:  236723285 now IPC :0.28194: AVG IPC :0.71264: L2-Pf-HR :0.81723: L2-HR :0.79624: (Sim:0h12m6s) 
CPU  0 inst:  171000000 cyc:  240268333 now IPC :0.28208: AVG IPC :0.70626: L2-Pf-HR :0.81752: L2-HR :0.79631: (Sim:0h12m12s) 
CPU  0 inst:  172000000 cyc:  243816837 now IPC :0.28181: AVG IPC :0.70006: L2-Pf-HR :0.81776: L2-HR :0.79632: (Sim:0h12m18s) 
CPU  0 inst:  173000000 cyc:  247365001 now IPC :0.28184: AVG IPC :0.69403: L2-Pf-HR :0.81800: L2-HR :0.79636: (Sim:0h12m23s) 
CPU  0 inst:  174000002 cyc:  250912539 now IPC :0.28189: AVG IPC :0.68818: L2-Pf-HR :0.81823: L2-HR :0.79636: (Sim:0h12m30s) 
CPU  0 inst:  175000000 cyc:  254462339 now IPC :0.28171: AVG IPC :0.68249: L2-Pf-HR :0.81843: L2-HR :0.79635: (Sim:0h12m35s) 
CPU  0 inst:  176000000 cyc:  258013670 now IPC :0.28158: AVG IPC :0.67695: L2-Pf-HR :0.81864: L2-HR :0.79636: (Sim:0h12m41s) 
CPU  0 inst:  177000000 cyc:  261559711 now IPC :0.28200: AVG IPC :0.67158: L2-Pf-HR :0.81892: L2-HR :0.79642: (Sim:0h12m47s) 
CPU  0 inst:  178000002 cyc:  265104107 now IPC :0.28214: AVG IPC :0.66635: L2-Pf-HR :0.81920: L2-HR :0.79649: (Sim:0h12m53s) 
CPU  0 inst:  179000003 cyc:  268647394 now IPC :0.28222: AVG IPC :0.66127: L2-Pf-HR :0.81951: L2-HR :0.79659: (Sim:0h13m3s) 
CPU  0 inst:  180000000 cyc:  272189929 now IPC :0.28228: AVG IPC :0.65632: L2-Pf-HR :0.81983: L2-HR :0.79670: (Sim:0h13m13s) 
CPU  0 inst:  181000000 cyc:  275735155 now IPC :0.28207: AVG IPC :0.65149: L2-Pf-HR :0.82012: L2-HR :0.79678: (Sim:0h13m22s) 
CPU  0 inst:  182000000 cyc:  279281772 now IPC :0.28196: AVG IPC :0.64678: L2-Pf-HR :0.82037: L2-HR :0.79683: (Sim:0h13m32s) 
CPU  0 inst:  183000000 cyc:  282833999 now IPC :0.28151: AVG IPC :0.64218: L2-Pf-HR :0.82054: L2-HR :0.79680: (Sim:0h13m41s) 
CPU  0 inst:  184000000 cyc:  286383672 now IPC :0.28172: AVG IPC :0.63769: L2-Pf-HR :0.82073: L2-HR :0.79679: (Sim:0h13m51s) 
CPU  0 inst:  185000000 cyc:  289931028 now IPC :0.28190: AVG IPC :0.63332: L2-Pf-HR :0.82095: L2-HR :0.79681: (Sim:0h14m0s) 
CPU  0 inst:  186000001 cyc:  293476914 now IPC :0.28202: AVG IPC :0.62907: L2-Pf-HR :0.82118: L2-HR :0.79685: (Sim:0h14m10s) 
CPU  0 inst:  187000002 cyc:  297021660 now IPC :0.28211: AVG IPC :0.62491: L2-Pf-HR :0.82145: L2-HR :0.79692: (Sim:0h14m20s) 
CPU  0 inst:  188000000 cyc:  300565732 now IPC :0.28216: AVG IPC :0.62086: L2-Pf-HR :0.82172: L2-HR :0.79700: (Sim:0h14m29s) 
CPU  0 inst:  189000000 cyc:  304112335 now IPC :0.28196: AVG IPC :0.61689: L2-Pf-HR :0.82195: L2-HR :0.79704: (Sim:0h14m39s) 
CPU  0 inst:  190000002 cyc:  307661484 now IPC :0.28176: AVG IPC :0.61301: L2-Pf-HR :0.82216: L2-HR :0.79706: (Sim:0h14m48s) 
CPU  0 inst:  191000000 cyc:  311210694 now IPC :0.28175: AVG IPC :0.60922: L2-Pf-HR :0.82239: L2-HR :0.79710: (Sim:0h14m58s) 
CPU  0 inst:  192000000 cyc:  314757154 now IPC :0.28197: AVG IPC :0.60552: L2-Pf-HR :0.82262: L2-HR :0.79715: (Sim:0h15m8s) 
CPU  0 inst:  193000000 cyc:  318303547 now IPC :0.28198: AVG IPC :0.60191: L2-Pf-HR :0.82284: L2-HR :0.79718: (Sim:0h15m17s) 
CPU  0 inst:  194000000 cyc:  321850886 now IPC :0.28190: AVG IPC :0.59837: L2-Pf-HR :0.82304: L2-HR :0.79720: (Sim:0h15m27s) 
CPU  0 inst:  195000002 cyc:  325396324 now IPC :0.28205: AVG IPC :0.59491: L2-Pf-HR :0.82328: L2-HR :0.79726: (Sim:0h15m36s) 
CPU  0 inst:  196000000 cyc:  328942914 now IPC :0.28196: AVG IPC :0.59153: L2-Pf-HR :0.82350: L2-HR :0.79730: (Sim:0h15m46s) 
CPU  0 inst:  197000002 cyc:  332490713 now IPC :0.28187: AVG IPC :0.58822: L2-Pf-HR :0.82370: L2-HR :0.79732: (Sim:0h15m55s) 
CPU  0 inst:  198000003 cyc:  335039564 now IPC :0.39233: AVG IPC :0.58672: L2-Pf-HR :0.82469: L2-HR :0.79831: (Sim:0h16m4s) 
CPU  0 inst:  199000000 cyc:  335783016 now IPC :1.34507: AVG IPC :0.58840: L2-Pf-HR :0.82711: L2-HR :0.80107: (Sim:0h16m10s) 
CPU  0 inst:  200000000 cyc:  336467231 now IPC :1.46153: AVG IPC :0.59019: L2-Pf-HR :0.82945: L2-HR :0.80373: (Sim:0h16m16s) 
CPU  0 inst:  201000000 cyc:  337134140 now IPC :1.49945: AVG IPC :0.59199: L2-Pf-HR :0.83166: L2-HR :0.80628: (Sim:0h16m22s) 
CPU  0 inst:  202000003 cyc:  337832007 now IPC :1.43294: AVG IPC :0.59373: L2-Pf-HR :0.83371: L2-HR :0.80866: (Sim:0h16m29s) 
CPU  0 inst:  203000002 cyc:  338463878 now IPC :1.58260: AVG IPC :0.59558: L2-Pf-HR :0.83584: L2-HR :0.81111: (Sim:0h16m35s) 
CPU  0 inst:  204000000 cyc:  339096409 now IPC :1.58095: AVG IPC :0.59743: L2-Pf-HR :0.83785: L2-HR :0.81344: (Sim:0h16m41s) 
CPU  0 inst:  205000003 cyc:  339724167 now IPC :1.59298: AVG IPC :0.59927: L2-Pf-HR :0.83983: L2-HR :0.81572: (Sim:0h16m47s) 
CPU  0 inst:  206000002 cyc:  340379377 now IPC :1.52623: AVG IPC :0.60106: L2-Pf-HR :0.84151: L2-HR :0.81772: (Sim:0h16m53s) 
CPU  0 inst:  207000002 cyc:  341009500 now IPC :1.58699: AVG IPC :0.60289: L2-Pf-HR :0.84345: L2-HR :0.81995: (Sim:0h16m59s) 
CPU  0 inst:  208000000 cyc:  341637260 now IPC :1.59296: AVG IPC :0.60471: L2-Pf-HR :0.84537: L2-HR :0.82214: (Sim:0h17m6s) 
CPU  0 inst:  209000002 cyc:  342262807 now IPC :1.59860: AVG IPC :0.60653: L2-Pf-HR :0.84725: L2-HR :0.82429: (Sim:0h17m12s) 
CPU  0 inst:  210000000 cyc:  342899642 now IPC :1.57026: AVG IPC :0.60833: L2-Pf-HR :0.84894: L2-HR :0.82625: (Sim:0h17m18s) 
CPU  0 inst:  211000003 cyc:  343555299 now IPC :1.52519: AVG IPC :0.61008: L2-Pf-HR :0.85062: L2-HR :0.82818: (Sim:0h17m24s) 
CPU  0 inst:  212000000 cyc:  344198980 now IPC :1.55356: AVG IPC :0.61185: L2-Pf-HR :0.85236: L2-HR :0.83016: (Sim:0h17m30s) 
CPU  0 inst:  213000001 cyc:  344849421 now IPC :1.53742: AVG IPC :0.61360: L2-Pf-HR :0.85404: L2-HR :0.83206: (Sim:0h17m36s) 
CPU  0 inst:  214000002 cyc:  345494296 now IPC :1.55069: AVG IPC :0.61536: L2-Pf-HR :0.85566: L2-HR :0.83391: (Sim:0h17m43s) 
CPU  0 inst:  215000002 cyc:  346185852 now IPC :1.44601: AVG IPC :0.61702: L2-Pf-HR :0.85702: L2-HR :0.83552: (Sim:0h17m49s) 
CPU  0 inst:  216000000 cyc:  346854670 now IPC :1.49517: AVG IPC :0.61872: L2-Pf-HR :0.85843: L2-HR :0.83717: (Sim:0h17m55s) 
CPU  0 inst:  217000001 cyc:  347522725 now IPC :1.49688: AVG IPC :0.62041: L2-Pf-HR :0.85975: L2-HR :0.83873: (Sim:0h18m1s) 
CPU  0 inst:  218000001 cyc:  348189416 now IPC :1.49995: AVG IPC :0.62210: L2-Pf-HR :0.86099: L2-HR :0.84022: (Sim:0h18m7s) 
CPU  0 inst:  219000000 cyc:  348861352 now IPC :1.48824: AVG IPC :0.62377: L2-Pf-HR :0.86211: L2-HR :0.84158: (Sim:0h18m13s) 
CPU  0 inst:  220000000 cyc:  349496578 now IPC :1.57424: AVG IPC :0.62551: L2-Pf-HR :0.86329: L2-HR :0.84301: (Sim:0h18m19s) 
CPU  0 inst:  221000002 cyc:  350132020 now IPC :1.57371: AVG IPC :0.62723: L2-Pf-HR :0.86448: L2-HR :0.84443: (Sim:0h18m26s) 
CPU  0 inst:  222000003 cyc:  350765253 now IPC :1.57920: AVG IPC :0.62896: L2-Pf-HR :0.86559: L2-HR :0.84576: (Sim:0h18m32s) 
CPU  0 inst:  223000002 cyc:  351411418 now IPC :1.54759: AVG IPC :0.63065: L2-Pf-HR :0.86661: L2-HR :0.84701: (Sim:0h18m38s) 
CPU  0 inst:  224000000 cyc:  352038958 now IPC :1.59352: AVG IPC :0.63237: L2-Pf-HR :0.86778: L2-HR :0.84839: (Sim:0h18m44s) 
CPU  0 inst:  225000001 cyc:  352675246 now IPC :1.57162: AVG IPC :0.63407: L2-Pf-HR :0.86890: L2-HR :0.84972: (Sim:0h18m50s) 
CPU  0 inst:  226000003 cyc:  353304677 now IPC :1.58874: AVG IPC :0.63578: L2-Pf-HR :0.86995: L2-HR :0.85098: (Sim:0h18m56s) 
CPU  0 inst:  227000003 cyc:  353942008 now IPC :1.56904: AVG IPC :0.63746: L2-Pf-HR :0.87093: L2-HR :0.85215: (Sim:0h19m2s) 
CPU  0 inst:  228000000 cyc:  354586049 now IPC :1.55269: AVG IPC :0.63913: L2-Pf-HR :0.87203: L2-HR :0.85343: (Sim:0h19m9s) 
CPU  0 inst:  229000001 cyc:  355241675 now IPC :1.52526: AVG IPC :0.64077: L2-Pf-HR :0.87310: L2-HR :0.85467: (Sim:0h19m15s) 
CPU  0 inst:  230000000 cyc:  355894260 now IPC :1.53237: AVG IPC :0.64241: L2-Pf-HR :0.87414: L2-HR :0.85589: (Sim:0h19m21s) 
CPU  0 inst:  231000000 cyc:  356553263 now IPC :1.51744: AVG IPC :0.64403: L2-Pf-HR :0.87508: L2-HR :0.85699: (Sim:0h19m27s) 
CPU  0 inst:  232000000 cyc:  357236395 now IPC :1.46385: AVG IPC :0.64560: L2-Pf-HR :0.87598: L2-HR :0.85807: (Sim:0h19m31s) 
CPU  0 inst:  233000002 cyc:  357906285 now IPC :1.49279: AVG IPC :0.64719: L2-Pf-HR :0.87686: L2-HR :0.85914: (Sim:0h19m35s) 
CPU  0 inst:  234000001 cyc:  358574543 now IPC :1.49643: AVG IPC :0.64878: L2-Pf-HR :0.87774: L2-HR :0.86019: (Sim:0h19m38s) 
CPU  0 inst:  235000000 cyc:  359250863 now IPC :1.47859: AVG IPC :0.65034: L2-Pf-HR :0.87855: L2-HR :0.86119: (Sim:0h19m42s) 
CPU  0 inst:  236000000 cyc:  359906937 now IPC :1.52422: AVG IPC :0.65194: L2-Pf-HR :0.87927: L2-HR :0.86209: (Sim:0h19m46s) 
CPU  0 inst:  237000002 cyc:  360537848 now IPC :1.58501: AVG IPC :0.65358: L2-Pf-HR :0.88004: L2-HR :0.86303: (Sim:0h19m49s) 
CPU  0 inst:  238000002 cyc:  361166545 now IPC :1.59059: AVG IPC :0.65522: L2-Pf-HR :0.88081: L2-HR :0.86398: (Sim:0h19m53s) 
CPU  0 inst:  239000001 cyc:  361796005 now IPC :1.58866: AVG IPC :0.65684: L2-Pf-HR :0.88155: L2-HR :0.86489: (Sim:0h19m56s) 
CPU  0 inst:  240000000 cyc:  362447594 now IPC :1.53471: AVG IPC :0.65843: L2-Pf-HR :0.88220: L2-HR :0.86571: (Sim:0h20m0s) 
CPU  0 inst:  241000003 cyc:  363081927 now IPC :1.57646: AVG IPC :0.66003: L2-Pf-HR :0.88299: L2-HR :0.86666: (Sim:0h20m3s) 
CPU  0 inst:  242000001 cyc:  363708900 now IPC :1.59496: AVG IPC :0.66165: L2-Pf-HR :0.88375: L2-HR :0.86757: (Sim:0h20m7s) 
CPU  0 inst:  243000001 cyc:  364333882 now IPC :1.60005: AVG IPC :0.66326: L2-Pf-HR :0.88447: L2-HR :0.86844: (Sim:0h20m10s) 
CPU  0 inst:  244000000 cyc:  364990123 now IPC :1.52383: AVG IPC :0.66482: L2-Pf-HR :0.88511: L2-HR :0.86923: (Sim:0h20m14s) 
CPU  0 inst:  245000000 cyc:  365633276 now IPC :1.55484: AVG IPC :0.66639: L2-Pf-HR :0.88589: L2-HR :0.87014: (Sim:0h20m18s) 
CPU  0 inst:  246000000 cyc:  366282882 now IPC :1.53939: AVG IPC :0.66794: L2-Pf-HR :0.88664: L2-HR :0.87102: (Sim:0h20m21s) 
CPU  0 inst:  247000000 cyc:  366929441 now IPC :1.54665: AVG IPC :0.66949: L2-Pf-HR :0.88738: L2-HR :0.87188: (Sim:0h20m25s) 
CPU  0 inst:  248000000 cyc:  367611483 now IPC :1.46619: AVG IPC :0.67097: L2-Pf-HR :0.88799: L2-HR :0.87263: (Sim:0h20m28s) 
CPU  0 inst:  249000000 cyc:  368281830 now IPC :1.49176: AVG IPC :0.67247: L2-Pf-HR :0.88864: L2-HR :0.87341: (Sim:0h20m32s) 
CPU  0 inst:  250000000 cyc:  368948445 now IPC :1.50012: AVG IPC :0.67397: L2-Pf-HR :0.88928: L2-HR :0.87418: (Sim:0h20m36s) 
CPU  0 inst:  251000003 cyc:  369615068 now IPC :1.50010: AVG IPC :0.67546: L2-Pf-HR :0.88990: L2-HR :0.87494: (Sim:0h20m39s) 
CPU  0 inst:  252000000 cyc:  370299281 now IPC :1.46153: AVG IPC :0.67692: L2-Pf-HR :0.89039: L2-HR :0.87556: (Sim:0h20m43s) 
CPU  0 inst:  253000002 cyc:  370935205 now IPC :1.57252: AVG IPC :0.67846: L2-Pf-HR :0.89096: L2-HR :0.87627: (Sim:0h20m47s) 
CPU  0 inst:  254000001 cyc:  371566645 now IPC :1.58368: AVG IPC :0.68000: L2-Pf-HR :0.89152: L2-HR :0.87697: (Sim:0h20m51s) 
CPU  0 inst:  255000003 cyc:  372198217 now IPC :1.58335: AVG IPC :0.68154: L2-Pf-HR :0.89207: L2-HR :0.87765: (Sim:0h20m55s) 
CPU  0 inst:  256000000 cyc:  372836569 now IPC :1.56653: AVG IPC :0.68306: L2-Pf-HR :0.89255: L2-HR :0.87826: (Sim:0h21m0s) 
CPU  0 inst:  257000003 cyc:  373476579 now IPC :1.56248: AVG IPC :0.68457: L2-Pf-HR :0.89310: L2-HR :0.87894: (Sim:0h21m3s) 
CPU  0 inst:  258000001 cyc:  374106484 now IPC :1.58754: AVG IPC :0.68609: L2-Pf-HR :0.89367: L2-HR :0.87963: (Sim:0h21m7s) 
CPU  0 inst:  259000001 cyc:  374735271 now IPC :1.59036: AVG IPC :0.68761: L2-Pf-HR :0.89423: L2-HR :0.88031: (Sim:0h21m11s) 
CPU  0 inst:  260000000 cyc:  375363194 now IPC :1.59255: AVG IPC :0.68913: L2-Pf-HR :0.89478: L2-HR :0.88097: (Sim:0h21m14s) 
CPU  0 inst:  261000001 cyc:  376014162 now IPC :1.53618: AVG IPC :0.69060: L2-Pf-HR :0.89530: L2-HR :0.88160: (Sim:0h21m18s) 
CPU  0 inst:  262000001 cyc:  376662572 now IPC :1.54223: AVG IPC :0.69207: L2-Pf-HR :0.89588: L2-HR :0.88228: (Sim:0h21m21s) 
CPU  0 inst:  263000001 cyc:  377313927 now IPC :1.53526: AVG IPC :0.69353: L2-Pf-HR :0.89644: L2-HR :0.88294: (Sim:0h21m25s) 
CPU  0 inst:  264000000 cyc:  377964416 now IPC :1.53730: AVG IPC :0.69499: L2-Pf-HR :0.89700: L2-HR :0.88359: (Sim:0h21m29s) 
CPU  0 inst:  265000000 cyc:  378640198 now IPC :1.47977: AVG IPC :0.69639: L2-Pf-HR :0.89744: L2-HR :0.88413: (Sim:0h21m32s) 
CPU  0 inst:  266000003 cyc:  379315179 now IPC :1.48153: AVG IPC :0.69779: L2-Pf-HR :0.89789: L2-HR :0.88470: (Sim:0h21m36s) 
CPU  0 inst:  267000001 cyc:  379981549 now IPC :1.50066: AVG IPC :0.69920: L2-Pf-HR :0.89834: L2-HR :0.88526: (Sim:0h21m39s) 
CPU  0 inst:  268000000 cyc:  380646333 now IPC :1.50425: AVG IPC :0.70061: L2-Pf-HR :0.89878: L2-HR :0.88580: (Sim:0h21m43s) 
CPU  0 inst:  269000002 cyc:  381320792 now IPC :1.48267: AVG IPC :0.70200: L2-Pf-HR :0.89912: L2-HR :0.88625: (Sim:0h21m47s) 
CPU  0 inst:  270000002 cyc:  381961542 now IPC :1.56067: AVG IPC :0.70345: L2-Pf-HR :0.89953: L2-HR :0.88677: (Sim:0h21m50s) 
CPU  0 inst:  271000000 cyc:  382594885 now IPC :1.57892: AVG IPC :0.70490: L2-Pf-HR :0.89993: L2-HR :0.88727: (Sim:0h21m54s) 
CPU  0 inst:  272000000 cyc:  383221519 now IPC :1.59583: AVG IPC :0.70636: L2-Pf-HR :0.90030: L2-HR :0.88775: (Sim:0h21m57s) 
CPU  0 inst:  273000003 cyc:  383874524 now IPC :1.53139: AVG IPC :0.70777: L2-Pf-HR :0.90062: L2-HR :0.88818: (Sim:0h22m1s) 
CPU  0 inst:  274000002 cyc:  384504461 now IPC :1.58746: AVG IPC :0.70921: L2-Pf-HR :0.90106: L2-HR :0.88872: (Sim:0h22m4s) 
CPU  0 inst:  275000002 cyc:  385131517 now IPC :1.59475: AVG IPC :0.71066: L2-Pf-HR :0.90148: L2-HR :0.88923: (Sim:0h22m8s) 
CPU  0 inst:  276000000 cyc:  385757874 now IPC :1.59653: AVG IPC :0.71210: L2-Pf-HR :0.90190: L2-HR :0.88975: (Sim:0h22m12s) 
CPU  0 inst:  277000001 cyc:  386407332 now IPC :1.53975: AVG IPC :0.71349: L2-Pf-HR :0.90223: L2-HR :0.89017: (Sim:0h22m15s) 
CPU  0 inst:  278000001 cyc:  387049737 now IPC :1.55665: AVG IPC :0.71490: L2-Pf-HR :0.90269: L2-HR :0.89071: (Sim:0h22m19s) 
CPU  0 inst:  279000002 cyc:  387698388 now IPC :1.54166: AVG IPC :0.71628: L2-Pf-HR :0.90312: L2-HR :0.89122: (Sim:0h22m22s) 
CPU  0 inst:  280000000 cyc:  388345570 now IPC :1.54516: AVG IPC :0.71767: L2-Pf-HR :0.90356: L2-HR :0.89173: (Sim:0h22m26s) 
CPU  0 inst:  281000002 cyc:  389002104 now IPC :1.52315: AVG IPC :0.71903: L2-Pf-HR :0.90396: L2-HR :0.89221: (Sim:0h22m30s) 
CPU  0 inst:  282000003 cyc:  389690834 now IPC :1.45195: AVG IPC :0.72033: L2-Pf-HR :0.90430: L2-HR :0.89264: (Sim:0h22m33s) 
CPU  0 inst:  283000001 cyc:  390358219 now IPC :1.49838: AVG IPC :0.72166: L2-Pf-HR :0.90467: L2-HR :0.89309: (Sim:0h22m37s) 
CPU  0 inst:  284000000 cyc:  391023077 now IPC :1.50408: AVG IPC :0.72300: L2-Pf-HR :0.90503: L2-HR :0.89353: (Sim:0h22m40s) 
CPU  0 inst:  285000000 cyc:  391691093 now IPC :1.49697: AVG IPC :0.72432: L2-Pf-HR :0.90538: L2-HR :0.89397: (Sim:0h22m44s) 
CPU  0 inst:  286000000 cyc:  392355523 now IPC :1.50505: AVG IPC :0.72564: L2-Pf-HR :0.90564: L2-HR :0.89432: (Sim:0h22m48s) 
CPU  0 inst:  287000002 cyc:  392989771 now IPC :1.57667: AVG IPC :0.72702: L2-Pf-HR :0.90594: L2-HR :0.89471: (Sim:0h22m51s) 
CPU  0 inst:  288000000 cyc:  393619197 now IPC :1.58875: AVG IPC :0.72840: L2-Pf-HR :0.90625: L2-HR :0.89511: (Sim:0h22m55s) 
CPU  0 inst:  289000003 cyc:  394245706 now IPC :1.59615: AVG IPC :0.72979: L2-Pf-HR :0.90656: L2-HR :0.89550: (Sim:0h22m58s) 
CPU  0 inst:  290000003 cyc:  394897639 now IPC :1.53390: AVG IPC :0.73112: L2-Pf-HR :0.90682: L2-HR :0.89585: (Sim:0h23m2s) 
CPU  0 inst:  291000003 cyc:  395528049 now IPC :1.58627: AVG IPC :0.73248: L2-Pf-HR :0.90717: L2-HR :0.89627: (Sim:0h23m6s) 
CPU  0 inst:  292000000 cyc:  396155725 now IPC :1.59317: AVG IPC :0.73385: L2-Pf-HR :0.90752: L2-HR :0.89670: (Sim:0h23m9s) 
CPU  0 inst:  293000002 cyc:  396783268 now IPC :1.59352: AVG IPC :0.73521: L2-Pf-HR :0.90786: L2-HR :0.89711: (Sim:0h23m14s) 
CPU  0 inst:  294000003 cyc:  397432734 now IPC :1.53973: AVG IPC :0.73653: L2-Pf-HR :0.90814: L2-HR :0.89747: (Sim:0h23m20s) 
CPU  0 inst:  295000001 cyc:  398075467 now IPC :1.55585: AVG IPC :0.73786: L2-Pf-HR :0.90850: L2-HR :0.89789: (Sim:0h23m26s) 
CPU  0 inst:  296000000 cyc:  398727056 now IPC :1.53471: AVG IPC :0.73916: L2-Pf-HR :0.90885: L2-HR :0.89830: (Sim:0h23m32s) 
CPU  0 inst:  297000002 cyc:  399378511 now IPC :1.53503: AVG IPC :0.74046: L2-Pf-HR :0.90920: L2-HR :0.89871: (Sim:0h23m39s) 
CPU  0 inst:  298000002 cyc:  400049353 now IPC :1.49066: AVG IPC :0.74172: L2-Pf-HR :0.90948: L2-HR :0.89905: (Sim:0h23m44s) 
CPU  0 inst:  299000001 cyc:  400720239 now IPC :1.49056: AVG IPC :0.74298: L2-Pf-HR :0.90977: L2-HR :0.89942: (Sim:0h23m48s) 
CPU  0 inst:  300000000 cyc:  401395838 now IPC :1.48017: AVG IPC :0.74423: L2-Pf-HR :0.91005: L2-HR :0.89976: (Sim:0h23m51s) 
CPU  0 inst:  301000003 cyc:  402067464 now IPC :1.48893: AVG IPC :0.74547: L2-Pf-HR :0.91032: L2-HR :0.90011: (Sim:0h23m56s) 
CPU  0 inst:  302000002 cyc:  402751076 now IPC :1.46282: AVG IPC :0.74669: L2-Pf-HR :0.91055: L2-HR :0.90041: (Sim:0h24m2s) 
CPU  0 inst:  303000003 cyc:  403390109 now IPC :1.56487: AVG IPC :0.74799: L2-Pf-HR :0.91079: L2-HR :0.90073: (Sim:0h24m8s) 
CPU  0 inst:  304000000 cyc:  404027027 now IPC :1.57006: AVG IPC :0.74929: L2-Pf-HR :0.91104: L2-HR :0.90104: (Sim:0h24m14s) 
CPU  0 inst:  305000003 cyc:  404657403 now IPC :1.58636: AVG IPC :0.75060: L2-Pf-HR :0.91127: L2-HR :0.90135: (Sim:0h24m20s) 
CPU  0 inst:  306000001 cyc:  405298559 now IPC :1.55968: AVG IPC :0.75188: L2-Pf-HR :0.91149: L2-HR :0.90164: (Sim:0h24m26s) 
CPU  0 inst:  307000000 cyc:  405939476 now IPC :1.56026: AVG IPC :0.75316: L2-Pf-HR :0.91172: L2-HR :0.90194: (Sim:0h24m32s) 
CPU  0 inst:  308000000 cyc:  406570146 now IPC :1.58562: AVG IPC :0.75446: L2-Pf-HR :0.91199: L2-HR :0.90227: (Sim:0h24m38s) 
CPU  0 inst:  309000000 cyc:  407197765 now IPC :1.59332: AVG IPC :0.75575: L2-Pf-HR :0.91226: L2-HR :0.90261: (Sim:0h24m44s) 
CPU  0 inst:  310000001 cyc:  407820915 now IPC :1.60475: AVG IPC :0.75705: L2-Pf-HR :0.91254: L2-HR :0.90295: (Sim:0h24m50s) 
CPU  0 inst:  311000001 cyc:  408481503 now IPC :1.51380: AVG IPC :0.75828: L2-Pf-HR :0.91277: L2-HR :0.90323: (Sim:0h24m57s) 
CPU  0 inst:  312000000 cyc:  409127214 now IPC :1.54868: AVG IPC :0.75953: L2-Pf-HR :0.91306: L2-HR :0.90357: (Sim:0h25m3s) 
CPU  0 inst:  313000000 cyc:  409777861 now IPC :1.53693: AVG IPC :0.76077: L2-Pf-HR :0.91334: L2-HR :0.90390: (Sim:0h25m9s) 
CPU  0 inst:  314000001 cyc:  410422403 now IPC :1.55149: AVG IPC :0.76201: L2-Pf-HR :0.91363: L2-HR :0.90424: (Sim:0h25m15s) 
CPU  0 inst:  315000002 cyc:  411107251 now IPC :1.46018: AVG IPC :0.76318: L2-Pf-HR :0.91382: L2-HR :0.90449: (Sim:0h25m21s) 
CPU  0 inst:  316000000 cyc:  411776946 now IPC :1.49321: AVG IPC :0.76437: L2-Pf-HR :0.91402: L2-HR :0.90475: (Sim:0h25m27s) 
CPU  0 inst:  317000000 cyc:  412448032 now IPC :1.49012: AVG IPC :0.76555: L2-Pf-HR :0.91423: L2-HR :0.90502: (Sim:0h25m33s) 
CPU  0 inst:  318000003 cyc:  413114455 now IPC :1.50055: AVG IPC :0.76674: L2-Pf-HR :0.91443: L2-HR :0.90528: (Sim:0h25m39s) 
CPU  0 inst:  319000001 cyc:  413793054 now IPC :1.47362: AVG IPC :0.76790: L2-Pf-HR :0.91457: L2-HR :0.90548: (Sim:0h25m46s) 
CPU  0 inst:  320000000 cyc:  414430830 now IPC :1.56795: AVG IPC :0.76914: L2-Pf-HR :0.91478: L2-HR :0.90575: (Sim:0h25m52s) 
CPU  0 inst:  321000003 cyc:  415064325 now IPC :1.57855: AVG IPC :0.77037: L2-Pf-HR :0.91498: L2-HR :0.90601: (Sim:0h25m58s) 
CPU  0 inst:  322000001 cyc:  415692363 now IPC :1.59226: AVG IPC :0.77162: L2-Pf-HR :0.91517: L2-HR :0.90627: (Sim:0h26m4s) 
CPU  0 inst:  323000000 cyc:  416343008 now IPC :1.53693: AVG IPC :0.77282: L2-Pf-HR :0.91531: L2-HR :0.90646: (Sim:0h26m10s) 
CPU  0 inst:  324000000 cyc:  416974961 now IPC :1.58240: AVG IPC :0.77405: L2-Pf-HR :0.91554: L2-HR :0.90675: (Sim:0h26m16s) 
CPU  0 inst:  325000003 cyc:  417602210 now IPC :1.59427: AVG IPC :0.77528: L2-Pf-HR :0.91577: L2-HR :0.90703: (Sim:0h26m22s) 
CPU  0 inst:  326000000 cyc:  418226302 now IPC :1.60232: AVG IPC :0.77652: L2-Pf-HR :0.91600: L2-HR :0.90732: (Sim:0h26m28s) 
CPU  0 inst:  327000003 cyc:  418860824 now IPC :1.57599: AVG IPC :0.77773: L2-Pf-HR :0.91620: L2-HR :0.90756: (Sim:0h26m34s) 
CPU  0 inst:  328000000 cyc:  419512920 now IPC :1.53351: AVG IPC :0.77891: L2-Pf-HR :0.91642: L2-HR :0.90783: (Sim:0h26m40s) 
Finished CPU 0 instr: 326000001 cyc: 418533469 AVG IPC: 0.77891 (Sim time: 0h26m40s)

ChampSim completed all CPUs

[ROI Statistics]
Core_0_instructions 326000001
Core_0_cycles 418533469
Core_0_IPC 0.77891

Core_0_branch_prediction_accuracy 99.57883
Core_0_branch_MPKI 0.12289
Core_0_average_ROB_occupancy_at_mispredict 237.10416

Core_0_L1D_total_access 222455668
Core_0_L1D_total_hit 203080911 L1D_total_Hit Ratio: 0.91291
Core_0_L1D_total_miss 19374757
Core_0_L1D_loads 89369272
Core_0_L1D_load_hit 80988361 L1D_load_Hit Ratio: 0.90622
Core_0_L1D_load_miss 8380911
Core_0_L1D_RFOs 8572409
Core_0_L1D_RFO_hit 8045787 L1D_RFO_Hit Ratio: 0.93857
Core_0_L1D_RFO_miss 526622
Core_0_L1D_prefetches 124513987
Core_0_L1D_prefetch_hit 114046763 L1D_prefetch_Hit Ratio: 0.91594
Core_0_L1D_prefetch_miss 10467224
Core_0_L1D_writebacks 0
Core_0_L1D_writeback_hit 0 L1D_writeback_Hit Ratio: -nan
Core_0_L1D_writeback_miss 0
Core_0_L1D_prefetch_requested 270914145
Core_0_L1D_prefetch_issued 142528886
Core_0_L1D_prefetch_useful 4184226 L1D_Useful Ratio: 0.02936
Core_0_L1D_prefetch_useless 6310832
Core_0_L1D_prefetch_late 1097723
Core_0_L1D_average_miss_latency 11790970.83379

Core_0_L1I_total_access 83040791
Core_0_L1I_total_hit 83035858 L1I_total_Hit Ratio: 0.99994
Core_0_L1I_total_miss 4933
Core_0_L1I_loads 83040791
Core_0_L1I_load_hit 83035858 L1I_load_Hit Ratio: 0.99994
Core_0_L1I_load_miss 4933
Core_0_L1I_RFOs 0
Core_0_L1I_RFO_hit 0 L1I_RFO_Hit Ratio: -nan
Core_0_L1I_RFO_miss 0
Core_0_L1I_prefetches 0
Core_0_L1I_prefetch_hit 0 L1I_prefetch_Hit Ratio: -nan
Core_0_L1I_prefetch_miss 0
Core_0_L1I_writebacks 0
Core_0_L1I_writeback_hit 0 L1I_writeback_Hit Ratio: -nan
Core_0_L1I_writeback_miss 0
Core_0_L1I_prefetch_requested 0
Core_0_L1I_prefetch_issued 0
Core_0_L1I_prefetch_useful 0 L1I_Useful Ratio: -nan
Core_0_L1I_prefetch_useless 0
Core_0_L1I_prefetch_late 0
Core_0_L1I_average_miss_latency 362.51997

Core_0_L2C_total_access 70698677
Core_0_L2C_total_hit 64182298 L2C_total_Hit Ratio: 0.90783
Core_0_L2C_total_miss 6516379
Core_0_L2C_loads 7288994
Core_0_L2C_load_hit 6375830 L2C_load_Hit Ratio: 0.87472
Core_0_L2C_load_miss 913164
Core_0_L2C_RFOs 526603
Core_0_L2C_RFO_hit 26709 L2C_RFO_Hit Ratio: 0.05072
Core_0_L2C_RFO_miss 499894
Core_0_L2C_prefetches 60945495
Core_0_L2C_prefetch_hit 55851559 L2C_prefetch_Hit Ratio: 0.91642
Core_0_L2C_prefetch_miss 5093936
Core_0_L2C_writebacks 1937585
Core_0_L2C_writeback_hit 1928200 L2C_writeback_Hit Ratio: 0.99516
Core_0_L2C_writeback_miss 9385
Core_0_L2C_prefetch_requested 127600101
Core_0_L2C_prefetch_issued 74978194
Core_0_L2C_prefetch_useful 386680 L2C_Useful Ratio: 0.00516
Core_0_L2C_prefetch_useless 4742788
Core_0_L2C_prefetch_late 9649
Core_0_L2C_average_miss_latency 181.07542

Core_0_LLC_total_access 8499150
Core_0_LLC_total_hit 5069679 LLC_total_Hit Ratio: 0.59649
Core_0_LLC_total_miss 3429471
Core_0_LLC_loads 903518
Core_0_LLC_load_hit 687382 LLC_load_Hit Ratio: 0.76078
Core_0_LLC_load_miss 216136
Core_0_LLC_RFOs 499894
Core_0_LLC_RFO_hit 44 LLC_RFO_Hit Ratio: 0.00009
Core_0_LLC_RFO_miss 499850
Core_0_LLC_prefetches 5167762
Core_0_LLC_prefetch_hit 2454427 LLC_prefetch_Hit Ratio: 0.47495
Core_0_LLC_prefetch_miss 2713335
Core_0_LLC_writebacks 1927976
Core_0_LLC_writeback_hit 1927826 LLC_writeback_Hit Ratio: 0.99992
Core_0_LLC_writeback_miss 150
Core_0_LLC_prefetch_requested 0
Core_0_LLC_prefetch_issued 0
Core_0_LLC_prefetch_useful 452430 LLC_Useful Ratio: inf
Core_0_LLC_prefetch_useless 2250905
Core_0_LLC_prefetch_late 4790
Core_0_LLC_average_miss_latency 298.43085

Core_0_major_page_fault 0
Core_0_minor_page_fault 19454

CPU 0 L1D next line prefetcher final stats
CPU 0 L2C PC-based stride prefetcher final stats
Stride Degree: 16
MK1  MARKOV_LRU_SIZE: 128
MK1  MARKOV_PREDICTION_PERCENTTHRESHOLD: 30.00000
MK1  OUTLIERS_THRESHOLD_Max: 64
MK1  OUTLIERS_THRESHOLD_Min: 32
MK2  MARKOV_LRU_SIZE: 256
MK2  MARKOV_PREDICTION_PERCENTTHRESHOLD: 20.00000
MK2  OUTLIERS_THRESHOLD_Max: 32
MK2  OUTLIERS_THRESHOLD_Min: 16
MK3  MARKOV_LRU_SIZE: 384
MK3  MARKOV_PREDICTION_PERCENTTHRESHOLD: 25.00000
MK3  OUTLIERS_THRESHOLD_Max: 16
MK3  OUTLIERS_THRESHOLD_Min: 8
MK4  MARKOV_LRU_SIZE: 512
MK4  MARKOV_PREDICTION_PERCENTTHRESHOLD: 20.00000
MK4  OUTLIERS_THRESHOLD_Max: 8
MK4  OUTLIERS_THRESHOLD_Min: 0
IPStride Degree/Access Ratio: 3.16771
MK1 IPDEltaMarkov  Degree/Access Ratio: 0.89582
MK2 IPDEltaMarkov  Degree/Access Ratio: 0.98252
MK3 IPDEltaMarkov  Degree/Access Ratio: 0.74789
MK4 IPDEltaMarkov  Degree/Access Ratio: 1.51497
Channel_0_RQ_row_buffer_hit 1786282
Channel_0_RQ_row_buffer_miss 1642946
Channel_0_WQ_row_buffer_hit 417259
Channel_0_WQ_row_buffer_miss 1272458
Channel_0_WQ_full 0
Channel_0_dbus_congested 3223393

avg_congested_cycle 10

EzSearch AVG IPC :0.77891: L2-Pf-HR :0.91642 : L2-HR :0.90783 Uful:0.00516
     > Finished combination: TraceType=777-FE Sim:326000000 Prefetcher=L2029-TOP1_BF-L2-MultiMarkovDelta_ip_stride_v4 L1=next_line
