TRACE: [331000000][Pythia-70M]_[h8][s1024][d64] Warmup: 2000000 NumTraces: 331000000
L1:next_line:L2:029-TOP1_BF-L2-MultiMarkovDelta_ip_stride_v4
*************************************************
   ChampSim Multicore Out-of-Order Simulator
   Last compiled: Oct 26 2024 09:42:25
*************************************************

trace_0 777-FE_comparisonScript_memoryTraces/memTraces[331000000][Pythia-70M]_[h8][s1024][d64].champsim.xz
CPU 0 L1D next line prefetcher
MK1: Size: 128 TMAX: 64 TMIN: 32 MKPTHRESH: 30
MK2: Size: 256 TMAX: 32 TMIN: 16 MKPTHRESH: 30
MK3: Size: 384 TMAX: 16 TMIN: 8 MKPTHRESH: 25
MK4: Size: 512 TMAX: 8 TMIN: 0 MKPTHRESH: 20
Stride Size: 512 Prefetch Degree: 16

CPU 0 L2C prefetcher
MAIN.cc ln 751 stats print skipped
CPU 0 L2C prefetcher initialized


Cache Size: 256
number of cache lines: 4096
CPU  0 inst:    1000000 cyc:     503742 now IPC :1.98514: AVG IPC :1.98514: L2-Pf-HR :0.77942: L2-HR :0.75366: (Sim:0h0m5s) 
CPU  0 inst:    2000001 cyc:     979459 now IPC :2.10209: AVG IPC :2.04194: L2-Pf-HR :0.79575: L2-HR :0.77135: (Sim:0h0m10s) 

Warmup complete CPU  0 instructions:    2000001 cycles:     979459 (Simulation time: 0 hr 0 min 10 sec) 

CPU  0 inst:    3000000 cyc:    1560488 now IPC :1.72108: AVG IPC :1.72108: L2-Pf-HR :0.78812: L2-HR :0.77356: (Sim:0h0m14s) 
CPU  0 inst:    4000000 cyc:    2122205 now IPC :1.78026: AVG IPC :1.75017: L2-Pf-HR :0.79211: L2-HR :0.77664: (Sim:0h0m19s) 
CPU  0 inst:    5000003 cyc:    2684734 now IPC :1.77769: AVG IPC :1.75925: L2-Pf-HR :0.79883: L2-HR :0.78248: (Sim:0h0m22s) 
CPU  0 inst:    6000003 cyc:    3250613 now IPC :1.76716: AVG IPC :1.76122: L2-Pf-HR :0.81530: L2-HR :0.79613: (Sim:0h0m26s) 
CPU  0 inst:    7000000 cyc:    4010568 now IPC :1.31586: AVG IPC :1.64956: L2-Pf-HR :0.81739: L2-HR :0.79813: (Sim:0h0m31s) 
CPU  0 inst:    8000000 cyc:    4580486 now IPC :1.75464: AVG IPC :1.66619: L2-Pf-HR :0.81577: L2-HR :0.79680: (Sim:0h0m36s) 
CPU  0 inst:    9000002 cyc:    5141463 now IPC :1.78261: AVG IPC :1.68188: L2-Pf-HR :0.81480: L2-HR :0.79602: (Sim:0h0m40s) 
CPU  0 inst:   10000003 cyc:    5707340 now IPC :1.76717: AVG IPC :1.69209: L2-Pf-HR :0.81479: L2-HR :0.79612: (Sim:0h0m45s) 
CPU  0 inst:   11000001 cyc:    6269734 now IPC :1.77811: AVG IPC :1.70123: L2-Pf-HR :0.81549: L2-HR :0.79673: (Sim:0h0m49s) 
CPU  0 inst:   12000000 cyc:    6834535 now IPC :1.77053: AVG IPC :1.70792: L2-Pf-HR :0.82081: L2-HR :0.80119: (Sim:0h0m53s) 
CPU  0 inst:   13000001 cyc:    7510951 now IPC :1.47838: AVG IPC :1.68415: L2-Pf-HR :0.82311: L2-HR :0.80321: (Sim:0h0m56s) 
CPU  0 inst:   14000001 cyc:    8087142 now IPC :1.73554: AVG IPC :1.68831: L2-Pf-HR :0.82341: L2-HR :0.80343: (Sim:0h0m59s) 
CPU  0 inst:   15000001 cyc:    8654969 now IPC :1.76110: AVG IPC :1.69370: L2-Pf-HR :0.82435: L2-HR :0.80429: (Sim:0h1m1s) 
CPU  0 inst:   16000000 cyc:    9222968 now IPC :1.76056: AVG IPC :1.69831: L2-Pf-HR :0.82626: L2-HR :0.80590: (Sim:0h1m4s) 
CPU  0 inst:   17000003 cyc:   10008821 now IPC :1.27251: AVG IPC :1.66125: L2-Pf-HR :0.82705: L2-HR :0.80652: (Sim:0h1m7s) 
CPU  0 inst:   18000002 cyc:   10607144 now IPC :1.67134: AVG IPC :1.66187: L2-Pf-HR :0.82656: L2-HR :0.80600: (Sim:0h1m10s) 
CPU  0 inst:   19000002 cyc:   11206007 now IPC :1.66983: AVG IPC :1.66234: L2-Pf-HR :0.82579: L2-HR :0.80524: (Sim:0h1m13s) 
CPU  0 inst:   20000000 cyc:   11793517 now IPC :1.70210: AVG IPC :1.66450: L2-Pf-HR :0.82534: L2-HR :0.80480: (Sim:0h1m16s) 
CPU  0 inst:   21000001 cyc:   12380050 now IPC :1.70494: AVG IPC :1.66658: L2-Pf-HR :0.82501: L2-HR :0.80448: (Sim:0h1m18s) 
CPU  0 inst:   22000003 cyc:   12969291 now IPC :1.69710: AVG IPC :1.66808: L2-Pf-HR :0.82692: L2-HR :0.80609: (Sim:0h1m21s) 
CPU  0 inst:   23000003 cyc:   13715702 now IPC :1.33974: AVG IPC :1.64884: L2-Pf-HR :0.82798: L2-HR :0.80705: (Sim:0h1m24s) 
CPU  0 inst:   24000000 cyc:   14297151 now IPC :1.71984: AVG IPC :1.65194: L2-Pf-HR :0.82761: L2-HR :0.80674: (Sim:0h1m27s) 
CPU  0 inst:   25000003 cyc:   14870555 now IPC :1.74398: AVG IPC :1.65574: L2-Pf-HR :0.82747: L2-HR :0.80663: (Sim:0h1m30s) 
CPU  0 inst:   26000000 cyc:   15440778 now IPC :1.75369: AVG IPC :1.65960: L2-Pf-HR :0.82745: L2-HR :0.80664: (Sim:0h1m33s) 
CPU  0 inst:   27000002 cyc:   16014464 now IPC :1.74312: AVG IPC :1.66279: L2-Pf-HR :0.82748: L2-HR :0.80669: (Sim:0h1m36s) 
CPU  0 inst:   28000000 cyc:   16579806 now IPC :1.76884: AVG IPC :1.66663: L2-Pf-HR :0.82881: L2-HR :0.80783: (Sim:0h1m40s) 
CPU  0 inst:   29000003 cyc:   17242712 now IPC :1.50851: AVG IPC :1.66018: L2-Pf-HR :0.83016: L2-HR :0.80901: (Sim:0h1m43s) 
CPU  0 inst:   30000000 cyc:   17826957 now IPC :1.71161: AVG IPC :1.66197: L2-Pf-HR :0.83051: L2-HR :0.80932: (Sim:0h1m46s) 
CPU  0 inst:   31000000 cyc:   18397178 now IPC :1.75371: AVG IPC :1.66497: L2-Pf-HR :0.83089: L2-HR :0.80968: (Sim:0h1m49s) 
CPU  0 inst:   32000000 cyc:   18977127 now IPC :1.72429: AVG IPC :1.66688: L2-Pf-HR :0.83168: L2-HR :0.81036: (Sim:0h1m52s) 
CPU  0 inst:   33000003 cyc:   19745578 now IPC :1.30132: AVG IPC :1.65191: L2-Pf-HR :0.83207: L2-HR :0.81069: (Sim:0h1m55s) 
CPU  0 inst:   34000003 cyc:   20345362 now IPC :1.66727: AVG IPC :1.65239: L2-Pf-HR :0.83176: L2-HR :0.81036: (Sim:0h1m57s) 
CPU  0 inst:   35000003 cyc:   20940777 now IPC :1.67950: AVG IPC :1.65320: L2-Pf-HR :0.83137: L2-HR :0.81000: (Sim:0h2m0s) 
CPU  0 inst:   36000000 cyc:   21538219 now IPC :1.67380: AVG IPC :1.65380: L2-Pf-HR :0.83098: L2-HR :0.80963: (Sim:0h2m3s) 
CPU  0 inst:   37000001 cyc:   22128173 now IPC :1.69505: AVG IPC :1.65495: L2-Pf-HR :0.83079: L2-HR :0.80944: (Sim:0h2m6s) 
CPU  0 inst:   38000001 cyc:   22722655 now IPC :1.68214: AVG IPC :1.65569: L2-Pf-HR :0.83146: L2-HR :0.81000: (Sim:0h2m9s) 
CPU  0 inst:   39000003 cyc:   23460499 now IPC :1.35530: AVG IPC :1.64583: L2-Pf-HR :0.83244: L2-HR :0.81085: (Sim:0h2m12s) 
CPU  0 inst:   40000000 cyc:   24047076 now IPC :1.70480: AVG IPC :1.64733: L2-Pf-HR :0.83221: L2-HR :0.81066: (Sim:0h2m15s) 
CPU  0 inst:   41000003 cyc:   24615360 now IPC :1.75969: AVG IPC :1.65003: L2-Pf-HR :0.83203: L2-HR :0.81052: (Sim:0h2m17s) 
CPU  0 inst:   42000003 cyc:   25192115 now IPC :1.73384: AVG IPC :1.65203: L2-Pf-HR :0.83188: L2-HR :0.81041: (Sim:0h2m20s) 
CPU  0 inst:   43000000 cyc:   25770609 now IPC :1.72862: AVG IPC :1.65382: L2-Pf-HR :0.83187: L2-HR :0.81041: (Sim:0h2m23s) 
CPU  0 inst:   44000000 cyc:   26348785 now IPC :1.72958: AVG IPC :1.65554: L2-Pf-HR :0.83243: L2-HR :0.81089: (Sim:0h2m26s) 
CPU  0 inst:   45000003 cyc:   27018971 now IPC :1.49213: AVG IPC :1.65134: L2-Pf-HR :0.83345: L2-HR :0.81176: (Sim:0h2m29s) 
CPU  0 inst:   46000002 cyc:   27592560 now IPC :1.74341: AVG IPC :1.65332: L2-Pf-HR :0.83352: L2-HR :0.81184: (Sim:0h2m32s) 
CPU  0 inst:   47000001 cyc:   28165090 now IPC :1.74663: AVG IPC :1.65529: L2-Pf-HR :0.83367: L2-HR :0.81199: (Sim:0h2m35s) 
CPU  0 inst:   48000000 cyc:   28740642 now IPC :1.73746: AVG IPC :1.65699: L2-Pf-HR :0.83399: L2-HR :0.81228: (Sim:0h2m37s) 
CPU  0 inst:   49000000 cyc:   29503646 now IPC :1.31061: AVG IPC :1.64772: L2-Pf-HR :0.83439: L2-HR :0.81259: (Sim:0h2m40s) 
CPU  0 inst:   50000001 cyc:   30110242 now IPC :1.64855: AVG IPC :1.64774: L2-Pf-HR :0.83406: L2-HR :0.81227: (Sim:0h2m43s) 
CPU  0 inst:   51000000 cyc:   30704185 now IPC :1.68366: AVG IPC :1.64846: L2-Pf-HR :0.83376: L2-HR :0.81199: (Sim:0h2m46s) 
CPU  0 inst:   52000000 cyc:   31300555 now IPC :1.67681: AVG IPC :1.64902: L2-Pf-HR :0.83349: L2-HR :0.81174: (Sim:0h2m49s) 
CPU  0 inst:   53000003 cyc:   31897801 now IPC :1.67436: AVG IPC :1.64951: L2-Pf-HR :0.83315: L2-HR :0.81142: (Sim:0h2m51s) 
CPU  0 inst:   54000003 cyc:   32487752 now IPC :1.69506: AVG IPC :1.65036: L2-Pf-HR :0.83341: L2-HR :0.81164: (Sim:0h2m54s) 
CPU  0 inst:   55000003 cyc:   33227393 now IPC :1.35201: AVG IPC :1.64352: L2-Pf-HR :0.83412: L2-HR :0.81225: (Sim:0h2m57s) 
CPU  0 inst:   56000000 cyc:   33818654 now IPC :1.69130: AVG IPC :1.64438: L2-Pf-HR :0.83392: L2-HR :0.81207: (Sim:0h3m0s) 
CPU  0 inst:   57000002 cyc:   34392265 now IPC :1.74335: AVG IPC :1.64608: L2-Pf-HR :0.83374: L2-HR :0.81192: (Sim:0h3m3s) 
CPU  0 inst:   58000003 cyc:   34965079 now IPC :1.74577: AVG IPC :1.64776: L2-Pf-HR :0.83364: L2-HR :0.81184: (Sim:0h3m6s) 
CPU  0 inst:   59000001 cyc:   35541984 now IPC :1.73338: AVG IPC :1.64919: L2-Pf-HR :0.83350: L2-HR :0.81174: (Sim:0h3m9s) 
CPU  0 inst:   60000000 cyc:   36109962 now IPC :1.76063: AVG IPC :1.65099: L2-Pf-HR :0.83372: L2-HR :0.81192: (Sim:0h3m11s) 
CPU  0 inst:   61000001 cyc:   36777082 now IPC :1.49898: AVG IPC :1.64815: L2-Pf-HR :0.83454: L2-HR :0.81261: (Sim:0h3m14s) 
CPU  0 inst:   62000000 cyc:   37363198 now IPC :1.70615: AVG IPC :1.64909: L2-Pf-HR :0.83458: L2-HR :0.81266: (Sim:0h3m17s) 
CPU  0 inst:   63000003 cyc:   37937165 now IPC :1.74227: AVG IPC :1.65054: L2-Pf-HR :0.83468: L2-HR :0.81275: (Sim:0h3m20s) 
CPU  0 inst:   64000000 cyc:   38508786 now IPC :1.74941: AVG IPC :1.65204: L2-Pf-HR :0.83484: L2-HR :0.81290: (Sim:0h3m22s) 
CPU  0 inst:   65000001 cyc:   39257253 now IPC :1.33607: AVG IPC :1.64586: L2-Pf-HR :0.83526: L2-HR :0.81325: (Sim:0h3m25s) 
CPU  0 inst:   66000003 cyc:   39871499 now IPC :1.62802: AVG IPC :1.64558: L2-Pf-HR :0.83504: L2-HR :0.81303: (Sim:0h3m28s) 
CPU  0 inst:   67000001 cyc:   40469909 now IPC :1.67109: AVG IPC :1.64597: L2-Pf-HR :0.83483: L2-HR :0.81283: (Sim:0h3m31s) 
CPU  0 inst:   68000000 cyc:   41065588 now IPC :1.67875: AVG IPC :1.64645: L2-Pf-HR :0.83452: L2-HR :0.81255: (Sim:0h3m33s) 
CPU  0 inst:   69000000 cyc:   41655435 now IPC :1.69535: AVG IPC :1.64716: L2-Pf-HR :0.83432: L2-HR :0.81237: (Sim:0h3m36s) 
CPU  0 inst:   70000001 cyc:   42250935 now IPC :1.67926: AVG IPC :1.64763: L2-Pf-HR :0.83431: L2-HR :0.81236: (Sim:0h3m39s) 
CPU  0 inst:   71000003 cyc:   42981163 now IPC :1.36944: AVG IPC :1.64279: L2-Pf-HR :0.83487: L2-HR :0.81284: (Sim:0h3m42s) 
CPU  0 inst:   72000000 cyc:   43581489 now IPC :1.66576: AVG IPC :1.64311: L2-Pf-HR :0.83474: L2-HR :0.81272: (Sim:0h3m45s) 
CPU  0 inst:   73000003 cyc:   44151627 now IPC :1.75397: AVG IPC :1.64458: L2-Pf-HR :0.83465: L2-HR :0.81265: (Sim:0h3m47s) 
CPU  0 inst:   74000000 cyc:   44727689 now IPC :1.73592: AVG IPC :1.64578: L2-Pf-HR :0.83456: L2-HR :0.81258: (Sim:0h3m50s) 
CPU  0 inst:   75000002 cyc:   45295379 now IPC :1.76153: AVG IPC :1.64726: L2-Pf-HR :0.83450: L2-HR :0.81254: (Sim:0h3m53s) 
CPU  0 inst:   76000000 cyc:   45867693 now IPC :1.74729: AVG IPC :1.64854: L2-Pf-HR :0.83462: L2-HR :0.81264: (Sim:0h3m57s) 
CPU  0 inst:   77000000 cyc:   46527279 now IPC :1.51610: AVG IPC :1.64662: L2-Pf-HR :0.83530: L2-HR :0.81322: (Sim:0h4m0s) 
CPU  0 inst:   78000003 cyc:   47113682 now IPC :1.70532: AVG IPC :1.64737: L2-Pf-HR :0.83524: L2-HR :0.81317: (Sim:0h4m2s) 
CPU  0 inst:   79000002 cyc:   47690875 now IPC :1.73252: AVG IPC :1.64842: L2-Pf-HR :0.83529: L2-HR :0.81322: (Sim:0h4m5s) 
CPU  0 inst:   80000000 cyc:   48262151 now IPC :1.75046: AVG IPC :1.64965: L2-Pf-HR :0.83531: L2-HR :0.81326: (Sim:0h4m8s) 
CPU  0 inst:   81000000 cyc:   49002493 now IPC :1.35073: AVG IPC :1.64504: L2-Pf-HR :0.83561: L2-HR :0.81351: (Sim:0h4m11s) 
CPU  0 inst:   82000002 cyc:   49619204 now IPC :1.62151: AVG IPC :1.64475: L2-Pf-HR :0.83552: L2-HR :0.81341: (Sim:0h4m14s) 
CPU  0 inst:   83000002 cyc:   50222176 now IPC :1.65845: AVG IPC :1.64491: L2-Pf-HR :0.83540: L2-HR :0.81329: (Sim:0h4m17s) 
CPU  0 inst:   84000000 cyc:   50816882 now IPC :1.68150: AVG IPC :1.64535: L2-Pf-HR :0.83527: L2-HR :0.81318: (Sim:0h4m20s) 
CPU  0 inst:   85000002 cyc:   51413284 now IPC :1.67672: AVG IPC :1.64572: L2-Pf-HR :0.83507: L2-HR :0.81300: (Sim:0h4m22s) 
CPU  0 inst:   86000002 cyc:   52005678 now IPC :1.68807: AVG IPC :1.64621: L2-Pf-HR :0.83506: L2-HR :0.81298: (Sim:0h4m25s) 
CPU  0 inst:   87000000 cyc:   52704864 now IPC :1.43023: AVG IPC :1.64329: L2-Pf-HR :0.83557: L2-HR :0.81341: (Sim:0h4m28s) 
CPU  0 inst:   88000000 cyc:   53346954 now IPC :1.55741: AVG IPC :1.64224: L2-Pf-HR :0.83546: L2-HR :0.81332: (Sim:0h4m31s) 
CPU  0 inst:   89000002 cyc:   53924773 now IPC :1.73065: AVG IPC :1.64320: L2-Pf-HR :0.83535: L2-HR :0.81322: (Sim:0h4m34s) 
CPU  0 inst:   90000001 cyc:   54497658 now IPC :1.74555: AVG IPC :1.64430: L2-Pf-HR :0.83534: L2-HR :0.81323: (Sim:0h4m36s) 
CPU  0 inst:   91000000 cyc:   55073550 now IPC :1.73643: AVG IPC :1.64528: L2-Pf-HR :0.83526: L2-HR :0.81316: (Sim:0h4m39s) 
CPU  0 inst:   92000000 cyc:   55646229 now IPC :1.74618: AVG IPC :1.64634: L2-Pf-HR :0.83530: L2-HR :0.81319: (Sim:0h4m42s) 
CPU  0 inst:   93000003 cyc:   56290054 now IPC :1.55322: AVG IPC :1.64525: L2-Pf-HR :0.83583: L2-HR :0.81365: (Sim:0h4m45s) 
CPU  0 inst:   94000000 cyc:   56896476 now IPC :1.64901: AVG IPC :1.64530: L2-Pf-HR :0.83591: L2-HR :0.81372: (Sim:0h4m48s) 
CPU  0 inst:   95000002 cyc:   57476675 now IPC :1.72355: AVG IPC :1.64610: L2-Pf-HR :0.83596: L2-HR :0.81377: (Sim:0h4m51s) 
CPU  0 inst:   96000000 cyc:   58050069 now IPC :1.74400: AVG IPC :1.64708: L2-Pf-HR :0.83601: L2-HR :0.81382: (Sim:0h4m54s) 
CPU  0 inst:   97000001 cyc:   58745360 now IPC :1.43825: AVG IPC :1.64457: L2-Pf-HR :0.83630: L2-HR :0.81407: (Sim:0h4m56s) 
CPU  0 inst:   98000001 cyc:   59419650 now IPC :1.48304: AVG IPC :1.64271: L2-Pf-HR :0.83620: L2-HR :0.81396: (Sim:0h4m59s) 
CPU  0 inst:   99000003 cyc:   60017412 now IPC :1.67291: AVG IPC :1.64301: L2-Pf-HR :0.83608: L2-HR :0.81384: (Sim:0h5m2s) 
CPU  0 inst:  100000000 cyc:   60614972 now IPC :1.67347: AVG IPC :1.64332: L2-Pf-HR :0.83592: L2-HR :0.81369: (Sim:0h5m5s) 
CPU  0 inst:  101000002 cyc:   61206367 now IPC :1.69092: AVG IPC :1.64378: L2-Pf-HR :0.83571: L2-HR :0.81351: (Sim:0h5m8s) 
CPU  0 inst:  102000002 cyc:   61802599 now IPC :1.67720: AVG IPC :1.64411: L2-Pf-HR :0.83565: L2-HR :0.81344: (Sim:0h5m10s) 
CPU  0 inst:  103000000 cyc:   62401977 now IPC :1.66839: AVG IPC :1.64435: L2-Pf-HR :0.83615: L2-HR :0.81386: (Sim:0h5m13s) 
CPU  0 inst:  104000000 cyc:   63132451 now IPC :1.36897: AVG IPC :1.64111: L2-Pf-HR :0.83600: L2-HR :0.81374: (Sim:0h5m16s) 
CPU  0 inst:  105000002 cyc:   63708028 now IPC :1.73739: AVG IPC :1.64200: L2-Pf-HR :0.83590: L2-HR :0.81366: (Sim:0h5m19s) 
CPU  0 inst:  106000001 cyc:   64284332 now IPC :1.73519: AVG IPC :1.64284: L2-Pf-HR :0.83582: L2-HR :0.81360: (Sim:0h5m22s) 
CPU  0 inst:  107000001 cyc:   64856378 now IPC :1.74811: AVG IPC :1.64379: L2-Pf-HR :0.83578: L2-HR :0.81357: (Sim:0h5m24s) 
CPU  0 inst:  108000000 cyc:   65430651 now IPC :1.74133: AVG IPC :1.64466: L2-Pf-HR :0.83579: L2-HR :0.81358: (Sim:0h5m27s) 
CPU  0 inst:  109000003 cyc:   65997170 now IPC :1.76517: AVG IPC :1.64571: L2-Pf-HR :0.83626: L2-HR :0.81398: (Sim:0h5m31s) 
CPU  0 inst:  110000000 cyc:   66673175 now IPC :1.47927: AVG IPC :1.64399: L2-Pf-HR :0.83630: L2-HR :0.81402: (Sim:0h5m34s) 
CPU  0 inst:  111000001 cyc:   67247959 now IPC :1.73979: AVG IPC :1.64482: L2-Pf-HR :0.83635: L2-HR :0.81407: (Sim:0h5m37s) 
CPU  0 inst:  112000000 cyc:   67824311 now IPC :1.73505: AVG IPC :1.64560: L2-Pf-HR :0.83636: L2-HR :0.81409: (Sim:0h5m40s) 
CPU  0 inst:  113000000 cyc:   68392654 now IPC :1.75950: AVG IPC :1.64656: L2-Pf-HR :0.83669: L2-HR :0.81437: (Sim:0h5m44s) 
CPU  0 inst:  114000001 cyc:   69182478 now IPC :1.26611: AVG IPC :1.64216: L2-Pf-HR :0.83659: L2-HR :0.81427: (Sim:0h5m47s) 
CPU  0 inst:  115000000 cyc:   69797472 now IPC :1.62603: AVG IPC :1.64201: L2-Pf-HR :0.83649: L2-HR :0.81417: (Sim:0h5m50s) 
CPU  0 inst:  116000000 cyc:   70400203 now IPC :1.65911: AVG IPC :1.64216: L2-Pf-HR :0.83640: L2-HR :0.81408: (Sim:0h5m53s) 
CPU  0 inst:  117000001 cyc:   70997698 now IPC :1.67366: AVG IPC :1.64243: L2-Pf-HR :0.83623: L2-HR :0.81393: (Sim:0h5m56s) 
CPU  0 inst:  118000000 cyc:   71595885 now IPC :1.67172: AVG IPC :1.64268: L2-Pf-HR :0.83614: L2-HR :0.81385: (Sim:0h5m59s) 
CPU  0 inst:  119000003 cyc:   72189136 now IPC :1.68563: AVG IPC :1.64304: L2-Pf-HR :0.83648: L2-HR :0.81413: (Sim:0h6m1s) 
CPU  0 inst:  120000000 cyc:   72943102 now IPC :1.32632: AVG IPC :1.63972: L2-Pf-HR :0.83647: L2-HR :0.81413: (Sim:0h6m4s) 
CPU  0 inst:  121000002 cyc:   73529245 now IPC :1.70607: AVG IPC :1.64025: L2-Pf-HR :0.83638: L2-HR :0.81405: (Sim:0h6m7s) 
CPU  0 inst:  122000001 cyc:   74102365 now IPC :1.74483: AVG IPC :1.64107: L2-Pf-HR :0.83630: L2-HR :0.81400: (Sim:0h6m10s) 
CPU  0 inst:  123000000 cyc:   74683866 now IPC :1.71969: AVG IPC :1.64169: L2-Pf-HR :0.83624: L2-HR :0.81395: (Sim:0h6m12s) 
CPU  0 inst:  124000000 cyc:   75254861 now IPC :1.75133: AVG IPC :1.64254: L2-Pf-HR :0.83622: L2-HR :0.81393: (Sim:0h6m15s) 
CPU  0 inst:  125000000 cyc:   75822072 now IPC :1.76301: AVG IPC :1.64345: L2-Pf-HR :0.83656: L2-HR :0.81423: (Sim:0h6m18s) 
CPU  0 inst:  126000001 cyc:   76501062 now IPC :1.47278: AVG IPC :1.64191: L2-Pf-HR :0.83670: L2-HR :0.81435: (Sim:0h6m21s) 
CPU  0 inst:  127000002 cyc:   77075978 now IPC :1.73939: AVG IPC :1.64265: L2-Pf-HR :0.83672: L2-HR :0.81437: (Sim:0h6m24s) 
CPU  0 inst:  128000000 cyc:   77654120 now IPC :1.72968: AVG IPC :1.64331: L2-Pf-HR :0.83677: L2-HR :0.81442: (Sim:0h6m27s) 
CPU  0 inst:  129000001 cyc:   78230465 now IPC :1.73507: AVG IPC :1.64399: L2-Pf-HR :0.83697: L2-HR :0.81460: (Sim:0h6m30s) 
CPU  0 inst:  130000003 cyc:   83366037 now IPC :0.19472: AVG IPC :1.55365: L2-Pf-HR :0.83152: L2-HR :0.81086: (Sim:0h6m37s) 
CPU  0 inst:  131000002 cyc:   89846003 now IPC :0.15432: AVG IPC :1.45161: L2-Pf-HR :0.82463: L2-HR :0.80636: (Sim:0h6m47s) 
CPU  0 inst:  132000000 cyc:   96331130 now IPC :0.15420: AVG IPC :1.36337: L2-Pf-HR :0.81787: L2-HR :0.80200: (Sim:0h6m56s) 
CPU  0 inst:  133000000 cyc:  102821495 now IPC :0.15407: AVG IPC :1.28631: L2-Pf-HR :0.81124: L2-HR :0.79777: (Sim:0h7m5s) 
CPU  0 inst:  134000000 cyc:  109172759 now IPC :0.15745: AVG IPC :1.22004: L2-Pf-HR :0.80501: L2-HR :0.79377: (Sim:0h7m14s) 
CPU  0 inst:  135000000 cyc:  112724867 now IPC :0.28152: AVG IPC :1.19021: L2-Pf-HR :0.80523: L2-HR :0.79369: (Sim:0h7m20s) 
CPU  0 inst:  136000000 cyc:  116275885 now IPC :0.28161: AVG IPC :1.16222: L2-Pf-HR :0.80548: L2-HR :0.79365: (Sim:0h7m25s) 
CPU  0 inst:  137000000 cyc:  119823854 now IPC :0.28185: AVG IPC :1.13594: L2-Pf-HR :0.80584: L2-HR :0.79369: (Sim:0h7m31s) 
CPU  0 inst:  138000002 cyc:  123373556 now IPC :0.28171: AVG IPC :1.11116: L2-Pf-HR :0.80619: L2-HR :0.79373: (Sim:0h7m36s) 
CPU  0 inst:  139000000 cyc:  126921898 now IPC :0.28182: AVG IPC :1.08780: L2-Pf-HR :0.80657: L2-HR :0.79381: (Sim:0h7m42s) 
CPU  0 inst:  140000000 cyc:  130470358 now IPC :0.28181: AVG IPC :1.06571: L2-Pf-HR :0.80692: L2-HR :0.79386: (Sim:0h7m48s) 
CPU  0 inst:  141000003 cyc:  134017547 now IPC :0.28191: AVG IPC :1.04481: L2-Pf-HR :0.80727: L2-HR :0.79391: (Sim:0h7m53s) 
CPU  0 inst:  142000003 cyc:  137566097 now IPC :0.28181: AVG IPC :1.02499: L2-Pf-HR :0.80760: L2-HR :0.79394: (Sim:0h7m59s) 
CPU  0 inst:  143000000 cyc:  141111693 now IPC :0.28204: AVG IPC :1.00619: L2-Pf-HR :0.80798: L2-HR :0.79404: (Sim:0h8m4s) 
CPU  0 inst:  144000000 cyc:  144656496 now IPC :0.28210: AVG IPC :0.98833: L2-Pf-HR :0.80839: L2-HR :0.79414: (Sim:0h8m10s) 
CPU  0 inst:  145000002 cyc:  148207438 now IPC :0.28162: AVG IPC :0.97128: L2-Pf-HR :0.80863: L2-HR :0.79411: (Sim:0h8m16s) 
CPU  0 inst:  146000000 cyc:  151758531 now IPC :0.28160: AVG IPC :0.95504: L2-Pf-HR :0.80894: L2-HR :0.79413: (Sim:0h8m22s) 
CPU  0 inst:  147000000 cyc:  155307908 now IPC :0.28174: AVG IPC :0.93955: L2-Pf-HR :0.80924: L2-HR :0.79415: (Sim:0h8m27s) 
CPU  0 inst:  148000000 cyc:  158855302 now IPC :0.28190: AVG IPC :0.92478: L2-Pf-HR :0.80956: L2-HR :0.79420: (Sim:0h8m33s) 
CPU  0 inst:  149000002 cyc:  162403109 now IPC :0.28186: AVG IPC :0.91065: L2-Pf-HR :0.80988: L2-HR :0.79424: (Sim:0h8m38s) 
CPU  0 inst:  150000000 cyc:  165952017 now IPC :0.28178: AVG IPC :0.89712: L2-Pf-HR :0.81014: L2-HR :0.79424: (Sim:0h8m44s) 
CPU  0 inst:  151000000 cyc:  169499887 now IPC :0.28186: AVG IPC :0.88417: L2-Pf-HR :0.81043: L2-HR :0.79426: (Sim:0h8m49s) 
CPU  0 inst:  152000000 cyc:  173048199 now IPC :0.28182: AVG IPC :0.87174: L2-Pf-HR :0.81072: L2-HR :0.79429: (Sim:0h8m55s) 
CPU  0 inst:  153000002 cyc:  176597702 now IPC :0.28173: AVG IPC :0.85982: L2-Pf-HR :0.81103: L2-HR :0.79433: (Sim:0h9m0s) 
CPU  0 inst:  154000000 cyc:  180146262 now IPC :0.28180: AVG IPC :0.84837: L2-Pf-HR :0.81135: L2-HR :0.79439: (Sim:0h9m6s) 
CPU  0 inst:  155000000 cyc:  183690747 now IPC :0.28213: AVG IPC :0.83739: L2-Pf-HR :0.81172: L2-HR :0.79449: (Sim:0h9m11s) 
CPU  0 inst:  156000000 cyc:  187234969 now IPC :0.28215: AVG IPC :0.82682: L2-Pf-HR :0.81209: L2-HR :0.79460: (Sim:0h9m17s) 
CPU  0 inst:  157000002 cyc:  190781151 now IPC :0.28199: AVG IPC :0.81664: L2-Pf-HR :0.81239: L2-HR :0.79464: (Sim:0h9m22s) 
CPU  0 inst:  158000003 cyc:  194327347 now IPC :0.28199: AVG IPC :0.80684: L2-Pf-HR :0.81269: L2-HR :0.79469: (Sim:0h9m28s) 
CPU  0 inst:  159000003 cyc:  197871242 now IPC :0.28218: AVG IPC :0.79739: L2-Pf-HR :0.81307: L2-HR :0.79481: (Sim:0h9m33s) 
CPU  0 inst:  160000000 cyc:  201417193 now IPC :0.28201: AVG IPC :0.78827: L2-Pf-HR :0.81341: L2-HR :0.79490: (Sim:0h9m38s) 
CPU  0 inst:  161000000 cyc:  204965055 now IPC :0.28186: AVG IPC :0.77947: L2-Pf-HR :0.81376: L2-HR :0.79500: (Sim:0h9m44s) 
CPU  0 inst:  162000003 cyc:  208513630 now IPC :0.28180: AVG IPC :0.77096: L2-Pf-HR :0.81402: L2-HR :0.79501: (Sim:0h9m49s) 
CPU  0 inst:  163000003 cyc:  212058317 now IPC :0.28211: AVG IPC :0.76275: L2-Pf-HR :0.81433: L2-HR :0.79509: (Sim:0h9m55s) 
CPU  0 inst:  164000000 cyc:  215604538 now IPC :0.28199: AVG IPC :0.75480: L2-Pf-HR :0.81464: L2-HR :0.79515: (Sim:0h10m0s) 
CPU  0 inst:  165000001 cyc:  219153487 now IPC :0.28177: AVG IPC :0.74711: L2-Pf-HR :0.81487: L2-HR :0.79515: (Sim:0h10m7s) 
CPU  0 inst:  166000002 cyc:  222699314 now IPC :0.28202: AVG IPC :0.73967: L2-Pf-HR :0.81517: L2-HR :0.79521: (Sim:0h10m14s) 
CPU  0 inst:  167000001 cyc:  226249098 now IPC :0.28171: AVG IPC :0.73246: L2-Pf-HR :0.81538: L2-HR :0.79520: (Sim:0h10m20s) 
CPU  0 inst:  168000000 cyc:  229798364 now IPC :0.28175: AVG IPC :0.72546: L2-Pf-HR :0.81567: L2-HR :0.79526: (Sim:0h10m25s) 
CPU  0 inst:  169000001 cyc:  233347032 now IPC :0.28180: AVG IPC :0.71869: L2-Pf-HR :0.81594: L2-HR :0.79529: (Sim:0h10m31s) 
CPU  0 inst:  170000002 cyc:  236893934 now IPC :0.28194: AVG IPC :0.71212: L2-Pf-HR :0.81621: L2-HR :0.79534: (Sim:0h10m36s) 
CPU  0 inst:  171000000 cyc:  240438982 now IPC :0.28208: AVG IPC :0.70576: L2-Pf-HR :0.81651: L2-HR :0.79542: (Sim:0h10m41s) 
CPU  0 inst:  172000000 cyc:  243987486 now IPC :0.28181: AVG IPC :0.69957: L2-Pf-HR :0.81675: L2-HR :0.79544: (Sim:0h10m47s) 
CPU  0 inst:  173000000 cyc:  247535650 now IPC :0.28184: AVG IPC :0.69355: L2-Pf-HR :0.81701: L2-HR :0.79548: (Sim:0h10m52s) 
CPU  0 inst:  174000002 cyc:  251083188 now IPC :0.28189: AVG IPC :0.68771: L2-Pf-HR :0.81724: L2-HR :0.79549: (Sim:0h10m57s) 
CPU  0 inst:  175000000 cyc:  254632988 now IPC :0.28171: AVG IPC :0.68203: L2-Pf-HR :0.81745: L2-HR :0.79549: (Sim:0h11m3s) 
CPU  0 inst:  176000000 cyc:  258184319 now IPC :0.28158: AVG IPC :0.67650: L2-Pf-HR :0.81767: L2-HR :0.79550: (Sim:0h11m8s) 
CPU  0 inst:  177000000 cyc:  261730360 now IPC :0.28200: AVG IPC :0.67114: L2-Pf-HR :0.81795: L2-HR :0.79556: (Sim:0h11m13s) 
CPU  0 inst:  178000002 cyc:  265274756 now IPC :0.28214: AVG IPC :0.66592: L2-Pf-HR :0.81824: L2-HR :0.79564: (Sim:0h11m19s) 
CPU  0 inst:  179000003 cyc:  268818043 now IPC :0.28222: AVG IPC :0.66085: L2-Pf-HR :0.81856: L2-HR :0.79575: (Sim:0h11m24s) 
CPU  0 inst:  180000000 cyc:  272360578 now IPC :0.28228: AVG IPC :0.65590: L2-Pf-HR :0.81890: L2-HR :0.79587: (Sim:0h11m30s) 
CPU  0 inst:  181000000 cyc:  275905804 now IPC :0.28207: AVG IPC :0.65108: L2-Pf-HR :0.81919: L2-HR :0.79595: (Sim:0h11m35s) 
CPU  0 inst:  182000000 cyc:  279452421 now IPC :0.28196: AVG IPC :0.64638: L2-Pf-HR :0.81945: L2-HR :0.79601: (Sim:0h11m41s) 
CPU  0 inst:  183000000 cyc:  283004648 now IPC :0.28151: AVG IPC :0.64179: L2-Pf-HR :0.81962: L2-HR :0.79598: (Sim:0h11m46s) 
CPU  0 inst:  184000000 cyc:  286554321 now IPC :0.28172: AVG IPC :0.63731: L2-Pf-HR :0.81982: L2-HR :0.79598: (Sim:0h11m52s) 
CPU  0 inst:  185000000 cyc:  290101677 now IPC :0.28190: AVG IPC :0.63295: L2-Pf-HR :0.82005: L2-HR :0.79601: (Sim:0h11m58s) 
CPU  0 inst:  186000001 cyc:  293647563 now IPC :0.28202: AVG IPC :0.62870: L2-Pf-HR :0.82029: L2-HR :0.79606: (Sim:0h12m3s) 
CPU  0 inst:  187000002 cyc:  297192309 now IPC :0.28211: AVG IPC :0.62455: L2-Pf-HR :0.82056: L2-HR :0.79614: (Sim:0h12m9s) 
CPU  0 inst:  188000000 cyc:  300736381 now IPC :0.28216: AVG IPC :0.62050: L2-Pf-HR :0.82084: L2-HR :0.79622: (Sim:0h12m14s) 
CPU  0 inst:  189000000 cyc:  304282984 now IPC :0.28196: AVG IPC :0.61654: L2-Pf-HR :0.82108: L2-HR :0.79627: (Sim:0h12m20s) 
CPU  0 inst:  190000002 cyc:  307832133 now IPC :0.28176: AVG IPC :0.61267: L2-Pf-HR :0.82130: L2-HR :0.79629: (Sim:0h12m26s) 
CPU  0 inst:  191000000 cyc:  311381343 now IPC :0.28175: AVG IPC :0.60889: L2-Pf-HR :0.82153: L2-HR :0.79633: (Sim:0h12m31s) 
CPU  0 inst:  192000000 cyc:  314927803 now IPC :0.28197: AVG IPC :0.60520: L2-Pf-HR :0.82177: L2-HR :0.79639: (Sim:0h12m38s) 
CPU  0 inst:  193000000 cyc:  318474196 now IPC :0.28198: AVG IPC :0.60158: L2-Pf-HR :0.82199: L2-HR :0.79643: (Sim:0h12m44s) 
CPU  0 inst:  194000000 cyc:  322021535 now IPC :0.28190: AVG IPC :0.59805: L2-Pf-HR :0.82221: L2-HR :0.79646: (Sim:0h12m50s) 
CPU  0 inst:  195000002 cyc:  325566973 now IPC :0.28205: AVG IPC :0.59460: L2-Pf-HR :0.82245: L2-HR :0.79651: (Sim:0h12m56s) 
CPU  0 inst:  196000000 cyc:  329113563 now IPC :0.28196: AVG IPC :0.59122: L2-Pf-HR :0.82268: L2-HR :0.79657: (Sim:0h13m1s) 
CPU  0 inst:  197000002 cyc:  332661362 now IPC :0.28187: AVG IPC :0.58791: L2-Pf-HR :0.82289: L2-HR :0.79659: (Sim:0h13m7s) 
CPU  0 inst:  198000003 cyc:  335213267 now IPC :0.39186: AVG IPC :0.58642: L2-Pf-HR :0.82383: L2-HR :0.79754: (Sim:0h13m12s) 
CPU  0 inst:  199000000 cyc:  335955608 now IPC :1.34709: AVG IPC :0.58810: L2-Pf-HR :0.82617: L2-HR :0.80022: (Sim:0h13m16s) 
CPU  0 inst:  200000000 cyc:  336637514 now IPC :1.46648: AVG IPC :0.58989: L2-Pf-HR :0.82847: L2-HR :0.80285: (Sim:0h13m20s) 
CPU  0 inst:  201000000 cyc:  337305645 now IPC :1.49671: AVG IPC :0.59169: L2-Pf-HR :0.83066: L2-HR :0.80537: (Sim:0h13m24s) 
CPU  0 inst:  202000003 cyc:  338000836 now IPC :1.43846: AVG IPC :0.59343: L2-Pf-HR :0.83264: L2-HR :0.80768: (Sim:0h13m28s) 
CPU  0 inst:  203000002 cyc:  338632155 now IPC :1.58398: AVG IPC :0.59529: L2-Pf-HR :0.83472: L2-HR :0.81008: (Sim:0h13m32s) 
CPU  0 inst:  204000000 cyc:  339264240 now IPC :1.58206: AVG IPC :0.59713: L2-Pf-HR :0.83668: L2-HR :0.81236: (Sim:0h13m35s) 
CPU  0 inst:  205000003 cyc:  339894302 now IPC :1.58715: AVG IPC :0.59897: L2-Pf-HR :0.83859: L2-HR :0.81458: (Sim:0h13m39s) 
CPU  0 inst:  206000002 cyc:  340549107 now IPC :1.52717: AVG IPC :0.60076: L2-Pf-HR :0.84025: L2-HR :0.81656: (Sim:0h13m43s) 
CPU  0 inst:  207000002 cyc:  341178195 now IPC :1.58960: AVG IPC :0.60259: L2-Pf-HR :0.84215: L2-HR :0.81875: (Sim:0h13m47s) 
CPU  0 inst:  208000000 cyc:  341805826 now IPC :1.59329: AVG IPC :0.60441: L2-Pf-HR :0.84403: L2-HR :0.82090: (Sim:0h13m51s) 
CPU  0 inst:  209000002 cyc:  342430948 now IPC :1.59969: AVG IPC :0.60624: L2-Pf-HR :0.84590: L2-HR :0.82304: (Sim:0h13m54s) 
CPU  0 inst:  210000000 cyc:  343066304 now IPC :1.57392: AVG IPC :0.60803: L2-Pf-HR :0.84758: L2-HR :0.82500: (Sim:0h13m58s) 
CPU  0 inst:  211000003 cyc:  343720299 now IPC :1.52907: AVG IPC :0.60979: L2-Pf-HR :0.84925: L2-HR :0.82691: (Sim:0h14m2s) 
CPU  0 inst:  212000000 cyc:  344363730 now IPC :1.55416: AVG IPC :0.61156: L2-Pf-HR :0.85099: L2-HR :0.82889: (Sim:0h14m6s) 
CPU  0 inst:  213000001 cyc:  345014950 now IPC :1.53558: AVG IPC :0.61331: L2-Pf-HR :0.85269: L2-HR :0.83081: (Sim:0h14m9s) 
CPU  0 inst:  214000002 cyc:  345659539 now IPC :1.55138: AVG IPC :0.61506: L2-Pf-HR :0.85433: L2-HR :0.83267: (Sim:0h14m13s) 
CPU  0 inst:  215000002 cyc:  346350358 now IPC :1.44756: AVG IPC :0.61673: L2-Pf-HR :0.85567: L2-HR :0.83426: (Sim:0h14m17s) 
CPU  0 inst:  216000000 cyc:  347020286 now IPC :1.49269: AVG IPC :0.61842: L2-Pf-HR :0.85707: L2-HR :0.83590: (Sim:0h14m21s) 
CPU  0 inst:  217000001 cyc:  347687525 now IPC :1.49871: AVG IPC :0.62012: L2-Pf-HR :0.85839: L2-HR :0.83747: (Sim:0h14m25s) 
CPU  0 inst:  218000001 cyc:  348355257 now IPC :1.49761: AVG IPC :0.62180: L2-Pf-HR :0.85965: L2-HR :0.83896: (Sim:0h14m28s) 
CPU  0 inst:  219000000 cyc:  349025758 now IPC :1.49142: AVG IPC :0.62348: L2-Pf-HR :0.86078: L2-HR :0.84034: (Sim:0h14m32s) 
CPU  0 inst:  220000000 cyc:  349661103 now IPC :1.57395: AVG IPC :0.62521: L2-Pf-HR :0.86197: L2-HR :0.84177: (Sim:0h14m36s) 
CPU  0 inst:  221000002 cyc:  350293587 now IPC :1.58107: AVG IPC :0.62694: L2-Pf-HR :0.86317: L2-HR :0.84319: (Sim:0h14m40s) 
CPU  0 inst:  222000001 cyc:  350926203 now IPC :1.58074: AVG IPC :0.62867: L2-Pf-HR :0.86428: L2-HR :0.84454: (Sim:0h14m43s) 
CPU  0 inst:  223000002 cyc:  351571935 now IPC :1.54863: AVG IPC :0.63036: L2-Pf-HR :0.86531: L2-HR :0.84579: (Sim:0h14m47s) 
CPU  0 inst:  224000000 cyc:  352199449 now IPC :1.59359: AVG IPC :0.63208: L2-Pf-HR :0.86651: L2-HR :0.84719: (Sim:0h14m51s) 
CPU  0 inst:  225000001 cyc:  352833345 now IPC :1.57755: AVG IPC :0.63379: L2-Pf-HR :0.86763: L2-HR :0.84853: (Sim:0h14m55s) 
CPU  0 inst:  226000003 cyc:  353461338 now IPC :1.59238: AVG IPC :0.63549: L2-Pf-HR :0.86869: L2-HR :0.84979: (Sim:0h14m58s) 
CPU  0 inst:  227000003 cyc:  354098960 now IPC :1.56833: AVG IPC :0.63718: L2-Pf-HR :0.86967: L2-HR :0.85098: (Sim:0h15m2s) 
CPU  0 inst:  228000000 cyc:  354741893 now IPC :1.55537: AVG IPC :0.63885: L2-Pf-HR :0.87079: L2-HR :0.85226: (Sim:0h15m6s) 
CPU  0 inst:  229000001 cyc:  355395970 now IPC :1.52887: AVG IPC :0.64049: L2-Pf-HR :0.87184: L2-HR :0.85349: (Sim:0h15m10s) 
CPU  0 inst:  230000000 cyc:  356048040 now IPC :1.53358: AVG IPC :0.64213: L2-Pf-HR :0.87289: L2-HR :0.85470: (Sim:0h15m13s) 
CPU  0 inst:  231000000 cyc:  356707750 now IPC :1.51582: AVG IPC :0.64375: L2-Pf-HR :0.87381: L2-HR :0.85580: (Sim:0h15m17s) 
CPU  0 inst:  232000000 cyc:  357389924 now IPC :1.46590: AVG IPC :0.64532: L2-Pf-HR :0.87470: L2-HR :0.85687: (Sim:0h15m21s) 
CPU  0 inst:  233000002 cyc:  358059642 now IPC :1.49317: AVG IPC :0.64691: L2-Pf-HR :0.87556: L2-HR :0.85792: (Sim:0h15m24s) 
CPU  0 inst:  234000001 cyc:  358727580 now IPC :1.49714: AVG IPC :0.64850: L2-Pf-HR :0.87642: L2-HR :0.85895: (Sim:0h15m28s) 
CPU  0 inst:  235000000 cyc:  359405619 now IPC :1.47484: AVG IPC :0.65006: L2-Pf-HR :0.87723: L2-HR :0.85994: (Sim:0h15m32s) 
CPU  0 inst:  236000000 cyc:  360059804 now IPC :1.52862: AVG IPC :0.65166: L2-Pf-HR :0.87793: L2-HR :0.86083: (Sim:0h15m35s) 
CPU  0 inst:  237000002 cyc:  360689685 now IPC :1.58760: AVG IPC :0.65330: L2-Pf-HR :0.87867: L2-HR :0.86174: (Sim:0h15m39s) 
CPU  0 inst:  238000002 cyc:  361316809 now IPC :1.59458: AVG IPC :0.65494: L2-Pf-HR :0.87942: L2-HR :0.86267: (Sim:0h15m43s) 
CPU  0 inst:  239000001 cyc:  361946307 now IPC :1.58857: AVG IPC :0.65657: L2-Pf-HR :0.88015: L2-HR :0.86357: (Sim:0h15m47s) 
CPU  0 inst:  240000000 cyc:  362597034 now IPC :1.53674: AVG IPC :0.65815: L2-Pf-HR :0.88081: L2-HR :0.86440: (Sim:0h15m50s) 
CPU  0 inst:  241000003 cyc:  363229748 now IPC :1.58050: AVG IPC :0.65976: L2-Pf-HR :0.88161: L2-HR :0.86535: (Sim:0h15m54s) 
CPU  0 inst:  242000001 cyc:  363855277 now IPC :1.59864: AVG IPC :0.66138: L2-Pf-HR :0.88238: L2-HR :0.86627: (Sim:0h15m57s) 
CPU  0 inst:  243000001 cyc:  364477934 now IPC :1.60602: AVG IPC :0.66300: L2-Pf-HR :0.88311: L2-HR :0.86716: (Sim:0h16m1s) 
CPU  0 inst:  244000000 cyc:  365134118 now IPC :1.52396: AVG IPC :0.66455: L2-Pf-HR :0.88377: L2-HR :0.86796: (Sim:0h16m5s) 
CPU  0 inst:  245000000 cyc:  365777302 now IPC :1.55476: AVG IPC :0.66612: L2-Pf-HR :0.88455: L2-HR :0.86888: (Sim:0h16m8s) 
CPU  0 inst:  246000000 cyc:  366425582 now IPC :1.54254: AVG IPC :0.66768: L2-Pf-HR :0.88532: L2-HR :0.86977: (Sim:0h16m12s) 
CPU  0 inst:  247000000 cyc:  367073246 now IPC :1.54401: AVG IPC :0.66923: L2-Pf-HR :0.88606: L2-HR :0.87063: (Sim:0h16m15s) 
CPU  0 inst:  248000000 cyc:  367755288 now IPC :1.46619: AVG IPC :0.67071: L2-Pf-HR :0.88668: L2-HR :0.87138: (Sim:0h16m19s) 
CPU  0 inst:  249000000 cyc:  368423872 now IPC :1.49570: AVG IPC :0.67221: L2-Pf-HR :0.88731: L2-HR :0.87216: (Sim:0h16m23s) 
CPU  0 inst:  250000000 cyc:  369090557 now IPC :1.49996: AVG IPC :0.67371: L2-Pf-HR :0.88793: L2-HR :0.87292: (Sim:0h16m26s) 
CPU  0 inst:  251000003 cyc:  369755692 now IPC :1.50346: AVG IPC :0.67521: L2-Pf-HR :0.88857: L2-HR :0.87368: (Sim:0h16m30s) 
CPU  0 inst:  252000000 cyc:  370444167 now IPC :1.45248: AVG IPC :0.67665: L2-Pf-HR :0.88907: L2-HR :0.87432: (Sim:0h16m33s) 
CPU  0 inst:  253000002 cyc:  371081381 now IPC :1.56933: AVG IPC :0.67819: L2-Pf-HR :0.88963: L2-HR :0.87502: (Sim:0h16m37s) 
CPU  0 inst:  254000001 cyc:  371713474 now IPC :1.58204: AVG IPC :0.67973: L2-Pf-HR :0.89019: L2-HR :0.87571: (Sim:0h16m41s) 
CPU  0 inst:  255000003 cyc:  372346144 now IPC :1.58061: AVG IPC :0.68127: L2-Pf-HR :0.89072: L2-HR :0.87637: (Sim:0h16m44s) 
CPU  0 inst:  256000000 cyc:  372983107 now IPC :1.56995: AVG IPC :0.68279: L2-Pf-HR :0.89117: L2-HR :0.87697: (Sim:0h16m48s) 
CPU  0 inst:  257000003 cyc:  373622443 now IPC :1.56413: AVG IPC :0.68430: L2-Pf-HR :0.89171: L2-HR :0.87763: (Sim:0h16m52s) 
CPU  0 inst:  258000001 cyc:  374251457 now IPC :1.58979: AVG IPC :0.68583: L2-Pf-HR :0.89228: L2-HR :0.87832: (Sim:0h16m55s) 
CPU  0 inst:  259000001 cyc:  374879476 now IPC :1.59231: AVG IPC :0.68735: L2-Pf-HR :0.89282: L2-HR :0.87897: (Sim:0h16m59s) 
CPU  0 inst:  260000000 cyc:  375505713 now IPC :1.59684: AVG IPC :0.68887: L2-Pf-HR :0.89335: L2-HR :0.87963: (Sim:0h17m3s) 
CPU  0 inst:  261000001 cyc:  376159842 now IPC :1.52875: AVG IPC :0.69033: L2-Pf-HR :0.89387: L2-HR :0.88025: (Sim:0h17m6s) 
CPU  0 inst:  262000001 cyc:  376807390 now IPC :1.54429: AVG IPC :0.69181: L2-Pf-HR :0.89445: L2-HR :0.88093: (Sim:0h17m10s) 
CPU  0 inst:  263000001 cyc:  377457897 now IPC :1.53726: AVG IPC :0.69327: L2-Pf-HR :0.89501: L2-HR :0.88159: (Sim:0h17m14s) 
CPU  0 inst:  264000000 cyc:  378107616 now IPC :1.53913: AVG IPC :0.69472: L2-Pf-HR :0.89557: L2-HR :0.88224: (Sim:0h17m18s) 
CPU  0 inst:  265000000 cyc:  378784817 now IPC :1.47667: AVG IPC :0.69613: L2-Pf-HR :0.89601: L2-HR :0.88278: (Sim:0h17m21s) 
CPU  0 inst:  266000003 cyc:  379457926 now IPC :1.48565: AVG IPC :0.69753: L2-Pf-HR :0.89645: L2-HR :0.88333: (Sim:0h17m25s) 
CPU  0 inst:  267000001 cyc:  380125248 now IPC :1.49852: AVG IPC :0.69894: L2-Pf-HR :0.89689: L2-HR :0.88389: (Sim:0h17m29s) 
CPU  0 inst:  268000000 cyc:  380790074 now IPC :1.50415: AVG IPC :0.70035: L2-Pf-HR :0.89734: L2-HR :0.88444: (Sim:0h17m32s) 
CPU  0 inst:  269000002 cyc:  381464295 now IPC :1.48320: AVG IPC :0.70174: L2-Pf-HR :0.89768: L2-HR :0.88490: (Sim:0h17m36s) 
CPU  0 inst:  270000002 cyc:  382100550 now IPC :1.57170: AVG IPC :0.70319: L2-Pf-HR :0.89809: L2-HR :0.88541: (Sim:0h17m40s) 
CPU  0 inst:  271000000 cyc:  382731633 now IPC :1.58457: AVG IPC :0.70465: L2-Pf-HR :0.89848: L2-HR :0.88591: (Sim:0h17m43s) 
CPU  0 inst:  272000000 cyc:  383359170 now IPC :1.59353: AVG IPC :0.70610: L2-Pf-HR :0.89886: L2-HR :0.88639: (Sim:0h17m47s) 
CPU  0 inst:  273000003 cyc:  384009651 now IPC :1.53733: AVG IPC :0.70752: L2-Pf-HR :0.89918: L2-HR :0.88682: (Sim:0h17m51s) 
CPU  0 inst:  274000002 cyc:  384639789 now IPC :1.58695: AVG IPC :0.70896: L2-Pf-HR :0.89962: L2-HR :0.88736: (Sim:0h17m54s) 
CPU  0 inst:  275000002 cyc:  385267037 now IPC :1.59427: AVG IPC :0.71041: L2-Pf-HR :0.90004: L2-HR :0.88788: (Sim:0h17m58s) 
CPU  0 inst:  276000000 cyc:  385892660 now IPC :1.59840: AVG IPC :0.71185: L2-Pf-HR :0.90046: L2-HR :0.88839: (Sim:0h18m2s) 
CPU  0 inst:  277000001 cyc:  386539442 now IPC :1.54612: AVG IPC :0.71325: L2-Pf-HR :0.90080: L2-HR :0.88883: (Sim:0h18m5s) 
CPU  0 inst:  278000001 cyc:  387180864 now IPC :1.55904: AVG IPC :0.71465: L2-Pf-HR :0.90127: L2-HR :0.88937: (Sim:0h18m9s) 
CPU  0 inst:  279000002 cyc:  387828099 now IPC :1.54504: AVG IPC :0.71604: L2-Pf-HR :0.90170: L2-HR :0.88988: (Sim:0h18m13s) 
CPU  0 inst:  280000000 cyc:  388474183 now IPC :1.54778: AVG IPC :0.71743: L2-Pf-HR :0.90213: L2-HR :0.89039: (Sim:0h18m16s) 
CPU  0 inst:  281000002 cyc:  389131693 now IPC :1.52089: AVG IPC :0.71879: L2-Pf-HR :0.90254: L2-HR :0.89087: (Sim:0h18m20s) 
CPU  0 inst:  282000003 cyc:  389819247 now IPC :1.45443: AVG IPC :0.72009: L2-Pf-HR :0.90287: L2-HR :0.89129: (Sim:0h18m24s) 
CPU  0 inst:  283000001 cyc:  390485737 now IPC :1.50039: AVG IPC :0.72143: L2-Pf-HR :0.90323: L2-HR :0.89174: (Sim:0h18m27s) 
CPU  0 inst:  284000000 cyc:  391149925 now IPC :1.50560: AVG IPC :0.72276: L2-Pf-HR :0.90358: L2-HR :0.89217: (Sim:0h18m31s) 
CPU  0 inst:  285000000 cyc:  391817567 now IPC :1.49781: AVG IPC :0.72408: L2-Pf-HR :0.90394: L2-HR :0.89262: (Sim:0h18m35s) 
CPU  0 inst:  286000000 cyc:  392481783 now IPC :1.50553: AVG IPC :0.72541: L2-Pf-HR :0.90420: L2-HR :0.89296: (Sim:0h18m41s) 
CPU  0 inst:  287000002 cyc:  393116188 now IPC :1.57628: AVG IPC :0.72679: L2-Pf-HR :0.90451: L2-HR :0.89336: (Sim:0h18m47s) 
CPU  0 inst:  288000000 cyc:  393746653 now IPC :1.58613: AVG IPC :0.72817: L2-Pf-HR :0.90482: L2-HR :0.89376: (Sim:0h18m53s) 
CPU  0 inst:  289000003 cyc:  394373021 now IPC :1.59651: AVG IPC :0.72955: L2-Pf-HR :0.90514: L2-HR :0.89416: (Sim:0h18m59s) 
CPU  0 inst:  290000003 cyc:  395023362 now IPC :1.53765: AVG IPC :0.73088: L2-Pf-HR :0.90540: L2-HR :0.89450: (Sim:0h19m5s) 
CPU  0 inst:  291000003 cyc:  395650274 now IPC :1.59512: AVG IPC :0.73226: L2-Pf-HR :0.90574: L2-HR :0.89493: (Sim:0h19m11s) 
CPU  0 inst:  292000000 cyc:  396276012 now IPC :1.59811: AVG IPC :0.73363: L2-Pf-HR :0.90610: L2-HR :0.89536: (Sim:0h19m16s) 
CPU  0 inst:  293000002 cyc:  396901639 now IPC :1.59840: AVG IPC :0.73499: L2-Pf-HR :0.90645: L2-HR :0.89578: (Sim:0h19m20s) 
CPU  0 inst:  294000003 cyc:  397550396 now IPC :1.54141: AVG IPC :0.73631: L2-Pf-HR :0.90674: L2-HR :0.89615: (Sim:0h19m23s) 
CPU  0 inst:  295000001 cyc:  398193117 now IPC :1.55588: AVG IPC :0.73764: L2-Pf-HR :0.90710: L2-HR :0.89657: (Sim:0h19m27s) 
CPU  0 inst:  296000000 cyc:  398844324 now IPC :1.53561: AVG IPC :0.73894: L2-Pf-HR :0.90746: L2-HR :0.89699: (Sim:0h19m31s) 
CPU  0 inst:  297000002 cyc:  399495787 now IPC :1.53501: AVG IPC :0.74025: L2-Pf-HR :0.90781: L2-HR :0.89741: (Sim:0h19m34s) 
CPU  0 inst:  298000002 cyc:  400166142 now IPC :1.49175: AVG IPC :0.74151: L2-Pf-HR :0.90809: L2-HR :0.89775: (Sim:0h19m38s) 
CPU  0 inst:  299000001 cyc:  400836518 now IPC :1.49170: AVG IPC :0.74277: L2-Pf-HR :0.90839: L2-HR :0.89812: (Sim:0h19m42s) 
CPU  0 inst:  300000000 cyc:  401512433 now IPC :1.47947: AVG IPC :0.74401: L2-Pf-HR :0.90866: L2-HR :0.89847: (Sim:0h19m45s) 
CPU  0 inst:  301000003 cyc:  402184296 now IPC :1.48840: AVG IPC :0.74526: L2-Pf-HR :0.90893: L2-HR :0.89881: (Sim:0h19m49s) 
CPU  0 inst:  302000002 cyc:  402867811 now IPC :1.46302: AVG IPC :0.74648: L2-Pf-HR :0.90916: L2-HR :0.89910: (Sim:0h19m53s) 
CPU  0 inst:  303000003 cyc:  403507915 now IPC :1.56225: AVG IPC :0.74777: L2-Pf-HR :0.90940: L2-HR :0.89941: (Sim:0h19m56s) 
CPU  0 inst:  304000000 cyc:  404144306 now IPC :1.57136: AVG IPC :0.74907: L2-Pf-HR :0.90964: L2-HR :0.89973: (Sim:0h20m0s) 
CPU  0 inst:  305000003 cyc:  404773028 now IPC :1.59053: AVG IPC :0.75038: L2-Pf-HR :0.90988: L2-HR :0.90004: (Sim:0h20m4s) 
CPU  0 inst:  306000001 cyc:  405413086 now IPC :1.56236: AVG IPC :0.75167: L2-Pf-HR :0.91010: L2-HR :0.90033: (Sim:0h20m7s) 
CPU  0 inst:  307000000 cyc:  406056126 now IPC :1.55511: AVG IPC :0.75294: L2-Pf-HR :0.91034: L2-HR :0.90065: (Sim:0h20m11s) 
CPU  0 inst:  308000000 cyc:  406687118 now IPC :1.58481: AVG IPC :0.75424: L2-Pf-HR :0.91062: L2-HR :0.90098: (Sim:0h20m15s) 
CPU  0 inst:  309000000 cyc:  407313913 now IPC :1.59542: AVG IPC :0.75554: L2-Pf-HR :0.91090: L2-HR :0.90133: (Sim:0h20m18s) 
CPU  0 inst:  310000001 cyc:  407936277 now IPC :1.60678: AVG IPC :0.75684: L2-Pf-HR :0.91119: L2-HR :0.90168: (Sim:0h20m22s) 
CPU  0 inst:  311000001 cyc:  408596556 now IPC :1.51451: AVG IPC :0.75806: L2-Pf-HR :0.91142: L2-HR :0.90197: (Sim:0h20m26s) 
CPU  0 inst:  312000000 cyc:  409241994 now IPC :1.54933: AVG IPC :0.75932: L2-Pf-HR :0.91171: L2-HR :0.90231: (Sim:0h20m29s) 
CPU  0 inst:  313000000 cyc:  409891968 now IPC :1.53852: AVG IPC :0.76055: L2-Pf-HR :0.91200: L2-HR :0.90265: (Sim:0h20m33s) 
CPU  0 inst:  314000001 cyc:  410536717 now IPC :1.55099: AVG IPC :0.76180: L2-Pf-HR :0.91229: L2-HR :0.90299: (Sim:0h20m37s) 
CPU  0 inst:  315000002 cyc:  411222148 now IPC :1.45894: AVG IPC :0.76296: L2-Pf-HR :0.91249: L2-HR :0.90324: (Sim:0h20m40s) 
CPU  0 inst:  316000000 cyc:  411891442 now IPC :1.49411: AVG IPC :0.76415: L2-Pf-HR :0.91269: L2-HR :0.90350: (Sim:0h20m45s) 
CPU  0 inst:  317000000 cyc:  412559457 now IPC :1.49697: AVG IPC :0.76534: L2-Pf-HR :0.91289: L2-HR :0.90377: (Sim:0h20m49s) 
CPU  0 inst:  318000003 cyc:  413221530 now IPC :1.51041: AVG IPC :0.76654: L2-Pf-HR :0.91309: L2-HR :0.90402: (Sim:0h20m53s) 
CPU  0 inst:  319000001 cyc:  413899271 now IPC :1.47549: AVG IPC :0.76770: L2-Pf-HR :0.91322: L2-HR :0.90422: (Sim:0h20m57s) 
CPU  0 inst:  320000000 cyc:  414536054 now IPC :1.57039: AVG IPC :0.76894: L2-Pf-HR :0.91342: L2-HR :0.90447: (Sim:0h21m0s) 
CPU  0 inst:  321000003 cyc:  415168729 now IPC :1.58060: AVG IPC :0.77018: L2-Pf-HR :0.91361: L2-HR :0.90473: (Sim:0h21m4s) 
CPU  0 inst:  322000001 cyc:  415796722 now IPC :1.59237: AVG IPC :0.77142: L2-Pf-HR :0.91381: L2-HR :0.90499: (Sim:0h21m8s) 
CPU  0 inst:  323000000 cyc:  416448862 now IPC :1.53341: AVG IPC :0.77262: L2-Pf-HR :0.91395: L2-HR :0.90519: (Sim:0h21m11s) 
CPU  0 inst:  324000000 cyc:  417081584 now IPC :1.58047: AVG IPC :0.77385: L2-Pf-HR :0.91419: L2-HR :0.90548: (Sim:0h21m15s) 
CPU  0 inst:  325000003 cyc:  417710598 now IPC :1.58979: AVG IPC :0.77508: L2-Pf-HR :0.91443: L2-HR :0.90578: (Sim:0h21m19s) 
CPU  0 inst:  326000000 cyc:  418334989 now IPC :1.60156: AVG IPC :0.77632: L2-Pf-HR :0.91467: L2-HR :0.90607: (Sim:0h21m22s) 
CPU  0 inst:  327000003 cyc:  418969414 now IPC :1.57624: AVG IPC :0.77753: L2-Pf-HR :0.91487: L2-HR :0.90632: (Sim:0h21m26s) 
CPU  0 inst:  328000000 cyc:  419622758 now IPC :1.53058: AVG IPC :0.77871: L2-Pf-HR :0.91510: L2-HR :0.90660: (Sim:0h21m30s) 
Finished CPU 0 instr: 326000001 cyc: 418643307 AVG IPC: 0.77871 (Sim time: 0h21m30s)

ChampSim completed all CPUs

[ROI Statistics]
Core_0_instructions 326000001
Core_0_cycles 418643307
Core_0_IPC 0.77871

Core_0_branch_prediction_accuracy 99.57883
Core_0_branch_MPKI 0.12289
Core_0_average_ROB_occupancy_at_mispredict 237.08689

Core_0_L1D_total_access 222448454
Core_0_L1D_total_hit 203071674 L1D_total_Hit Ratio: 0.91289
Core_0_L1D_total_miss 19376780
Core_0_L1D_loads 89368510
Core_0_L1D_load_hit 80984051 L1D_load_Hit Ratio: 0.90618
Core_0_L1D_load_miss 8384459
Core_0_L1D_RFOs 8572377
Core_0_L1D_RFO_hit 8045712 L1D_RFO_Hit Ratio: 0.93856
Core_0_L1D_RFO_miss 526665
Core_0_L1D_prefetches 124507567
Core_0_L1D_prefetch_hit 114041911 L1D_prefetch_Hit Ratio: 0.91594
Core_0_L1D_prefetch_miss 10465656
Core_0_L1D_writebacks 0
Core_0_L1D_writeback_hit 0 L1D_writeback_Hit Ratio: -nan
Core_0_L1D_writeback_miss 0
Core_0_L1D_prefetch_requested 270912036
Core_0_L1D_prefetch_issued 142536823
Core_0_L1D_prefetch_useful 4180636 L1D_Useful Ratio: 0.02933
Core_0_L1D_prefetch_useless 6312855
Core_0_L1D_prefetch_late 1101900
Core_0_L1D_average_miss_latency 11767671.27535

Core_0_L1I_total_access 83055006
Core_0_L1I_total_hit 83050072 L1I_total_Hit Ratio: 0.99994
Core_0_L1I_total_miss 4934
Core_0_L1I_loads 83055006
Core_0_L1I_load_hit 83050072 L1I_load_Hit Ratio: 0.99994
Core_0_L1I_load_miss 4934
Core_0_L1I_RFOs 0
Core_0_L1I_RFO_hit 0 L1I_RFO_Hit Ratio: -nan
Core_0_L1I_RFO_miss 0
Core_0_L1I_prefetches 0
Core_0_L1I_prefetch_hit 0 L1I_prefetch_Hit Ratio: -nan
Core_0_L1I_prefetch_miss 0
Core_0_L1I_writebacks 0
Core_0_L1I_writeback_hit 0 L1I_writeback_Hit Ratio: -nan
Core_0_L1I_writeback_miss 0
Core_0_L1I_prefetch_requested 0
Core_0_L1I_prefetch_issued 0
Core_0_L1I_prefetch_useful 0 L1I_Useful Ratio: -nan
Core_0_L1I_prefetch_useless 0
Core_0_L1I_prefetch_late 0
Core_0_L1I_average_miss_latency 367.03912

Core_0_L2C_total_access 69876614
Core_0_L2C_total_hit 63349951 L2C_total_Hit Ratio: 0.90660
Core_0_L2C_total_miss 6526663
Core_0_L2C_loads 7288365
Core_0_L2C_load_hit 6375675 L2C_load_Hit Ratio: 0.87477
Core_0_L2C_load_miss 912690
Core_0_L2C_RFOs 526646
Core_0_L2C_RFO_hit 26756 L2C_RFO_Hit Ratio: 0.05080
Core_0_L2C_RFO_miss 499890
Core_0_L2C_prefetches 60124018
Core_0_L2C_prefetch_hit 55019486 L2C_prefetch_Hit Ratio: 0.91510
Core_0_L2C_prefetch_miss 5104532
Core_0_L2C_writebacks 1937585
Core_0_L2C_writeback_hit 1928034 L2C_writeback_Hit Ratio: 0.99507
Core_0_L2C_writeback_miss 9551
Core_0_L2C_prefetch_requested 123342143
Core_0_L2C_prefetch_issued 73699186
Core_0_L2C_prefetch_useful 387071 L2C_Useful Ratio: 0.00525
Core_0_L2C_prefetch_useless 4752990
Core_0_L2C_prefetch_late 10345
Core_0_L2C_average_miss_latency 180.14457

Core_0_LLC_total_access 8503096
Core_0_LLC_total_hit 5070838 LLC_total_Hit Ratio: 0.59635
Core_0_LLC_total_miss 3432258
Core_0_LLC_loads 902348
Core_0_LLC_load_hit 687737 LLC_load_Hit Ratio: 0.76216
Core_0_LLC_load_miss 214611
Core_0_LLC_RFOs 499890
Core_0_LLC_RFO_hit 40 LLC_RFO_Hit Ratio: 0.00008
Core_0_LLC_RFO_miss 499850
Core_0_LLC_prefetches 5172875
Core_0_LLC_prefetch_hit 2455236 LLC_prefetch_Hit Ratio: 0.47464
Core_0_LLC_prefetch_miss 2717639
Core_0_LLC_writebacks 1927983
Core_0_LLC_writeback_hit 1927825 LLC_writeback_Hit Ratio: 0.99992
Core_0_LLC_writeback_miss 158
Core_0_LLC_prefetch_requested 0
Core_0_LLC_prefetch_issued 0
Core_0_LLC_prefetch_useful 452927 LLC_Useful Ratio: inf
Core_0_LLC_prefetch_useless 2254721
Core_0_LLC_prefetch_late 4684
Core_0_LLC_average_miss_latency 294.02313

Core_0_major_page_fault 0
Core_0_minor_page_fault 19454

CPU 0 L1D next line prefetcher final stats
CPU 0 L2C PC-based stride prefetcher final stats
Stride Degree: 16
MK1  MARKOV_LRU_SIZE: 128
MK1  MARKOV_PREDICTION_PERCENTTHRESHOLD: 30.00000
MK1  OUTLIERS_THRESHOLD_Max: 64
MK1  OUTLIERS_THRESHOLD_Min: 32
MK2  MARKOV_LRU_SIZE: 256
MK2  MARKOV_PREDICTION_PERCENTTHRESHOLD: 30.00000
MK2  OUTLIERS_THRESHOLD_Max: 32
MK2  OUTLIERS_THRESHOLD_Min: 16
MK3  MARKOV_LRU_SIZE: 384
MK3  MARKOV_PREDICTION_PERCENTTHRESHOLD: 25.00000
MK3  OUTLIERS_THRESHOLD_Max: 16
MK3  OUTLIERS_THRESHOLD_Min: 8
MK4  MARKOV_LRU_SIZE: 512
MK4  MARKOV_PREDICTION_PERCENTTHRESHOLD: 20.00000
MK4  OUTLIERS_THRESHOLD_Max: 8
MK4  OUTLIERS_THRESHOLD_Min: 0
IPStride Degree/Access Ratio: 3.16653
MK1 IPDEltaMarkov  Degree/Access Ratio: 0.89781
MK2 IPDEltaMarkov  Degree/Access Ratio: 0.68987
MK3 IPDEltaMarkov  Degree/Access Ratio: 0.77234
MK4 IPDEltaMarkov  Degree/Access Ratio: 1.53948
Channel_0_RQ_row_buffer_hit 1783861
Channel_0_RQ_row_buffer_miss 1648146
Channel_0_WQ_row_buffer_hit 414386
Channel_0_WQ_row_buffer_miss 1275525
Channel_0_WQ_full 0
Channel_0_dbus_congested 3228614

avg_congested_cycle 10

EzSearch AVG IPC :0.77871: L2-Pf-HR :0.91510 : L2-HR :0.90660 Uful:0.00525
     > Finished combination: TraceType=777-FE Sim:326000000 Prefetcher=L2029-TOP1_BF-L2-MultiMarkovDelta_ip_stride_v4 L1=next_line
