TRACE: [597000000][OPT-6_7B]_[h32][s512][d128] Warmup: 2000000 NumTraces: 597000000
L1:next_line:L2:029-TOP1_BF-L2-MultiMarkovDelta_ip_stride_v4
*************************************************
   ChampSim Multicore Out-of-Order Simulator
   Last compiled: Oct 26 2024 06:59:58
*************************************************

trace_0 777-FE_comparisonScript_memoryTraces/memTraces[597000000][OPT-6_7B]_[h32][s512][d128].champsim.xz
CPU 0 L1D next line prefetcher
MK1: Size: 128 TMAX: 64 TMIN: 32 MKPTHRESH: 30
MK2: Size: 256 TMAX: 32 TMIN: 16 MKPTHRESH: 20
MK3: Size: 384 TMAX: 16 TMIN: 8 MKPTHRESH: 25
MK4: Size: 512 TMAX: 8 TMIN: 0 MKPTHRESH: 20
Stride Size: 512 Prefetch Degree: 15

CPU 0 L2C prefetcher
MAIN.cc ln 751 stats print skipped
CPU 0 L2C prefetcher initialized


Cache Size: 256
number of cache lines: 4096
CPU  0 inst:    1000000 cyc:     503557 now IPC :1.98587: AVG IPC :1.98587: L2-Pf-HR :0.74108: L2-HR :0.72528: (Sim:0h0m5s) 
CPU  0 inst:    2000000 cyc:     980276 now IPC :2.09767: AVG IPC :2.04024: L2-Pf-HR :0.75700: L2-HR :0.74001: (Sim:0h0m9s) 

Warmup complete CPU  0 instructions:    2000001 cycles:     980277 (Simulation time: 0 hr 0 min 9 sec) 

CPU  0 inst:    3000002 cyc:    1523677 now IPC :1.84027: AVG IPC :1.84027: L2-Pf-HR :0.74286: L2-HR :0.73304: (Sim:0h0m14s) 
CPU  0 inst:    4000000 cyc:    2058265 now IPC :1.87060: AVG IPC :1.85531: L2-Pf-HR :0.74490: L2-HR :0.73550: (Sim:0h0m18s) 
CPU  0 inst:    5000000 cyc:    2595599 now IPC :1.86104: AVG IPC :1.85721: L2-Pf-HR :0.74721: L2-HR :0.73756: (Sim:0h0m22s) 
CPU  0 inst:    6000001 cyc:    3143037 now IPC :1.82669: AVG IPC :1.84949: L2-Pf-HR :0.74875: L2-HR :0.73933: (Sim:0h0m26s) 
CPU  0 inst:    7000003 cyc:    3715296 now IPC :1.74746: AVG IPC :1.82814: L2-Pf-HR :0.77025: L2-HR :0.76028: (Sim:0h0m31s) 
CPU  0 inst:    8000000 cyc:    4228092 now IPC :1.95009: AVG IPC :1.84740: L2-Pf-HR :0.79118: L2-HR :0.78028: (Sim:0h0m35s) 
CPU  0 inst:    9000001 cyc:    4892664 now IPC :1.50473: AVG IPC :1.78919: L2-Pf-HR :0.78906: L2-HR :0.77890: (Sim:0h0m40s) 
CPU  0 inst:   10000002 cyc:    5433151 now IPC :1.85019: AVG IPC :1.79659: L2-Pf-HR :0.78723: L2-HR :0.77683: (Sim:0h0m44s) 
CPU  0 inst:   11000002 cyc:    5976859 now IPC :1.83922: AVG IPC :1.80123: L2-Pf-HR :0.78460: L2-HR :0.77403: (Sim:0h0m48s) 
CPU  0 inst:   12000000 cyc:    6515565 now IPC :1.85630: AVG IPC :1.80659: L2-Pf-HR :0.78346: L2-HR :0.77274: (Sim:0h0m51s) 
CPU  0 inst:   13000002 cyc:    7063384 now IPC :1.82542: AVG IPC :1.80829: L2-Pf-HR :0.78276: L2-HR :0.77190: (Sim:0h0m53s) 
CPU  0 inst:   14000000 cyc:    7606005 now IPC :1.84290: AVG IPC :1.81112: L2-Pf-HR :0.78275: L2-HR :0.77177: (Sim:0h0m56s) 
CPU  0 inst:   15000002 cyc:    8208096 now IPC :1.66088: AVG IPC :1.79861: L2-Pf-HR :0.78745: L2-HR :0.77643: (Sim:0h0m59s) 
CPU  0 inst:   16000000 cyc:    8723219 now IPC :1.94128: AVG IPC :1.80810: L2-Pf-HR :0.79472: L2-HR :0.78343: (Sim:0h1m2s) 
CPU  0 inst:   17000001 cyc:    9419502 now IPC :1.43620: AVG IPC :1.77741: L2-Pf-HR :0.79374: L2-HR :0.78278: (Sim:0h1m5s) 
CPU  0 inst:   18000003 cyc:    9959627 now IPC :1.85143: AVG IPC :1.78187: L2-Pf-HR :0.79293: L2-HR :0.78187: (Sim:0h1m9s) 
CPU  0 inst:   19000002 cyc:   10497519 now IPC :1.85911: AVG IPC :1.78623: L2-Pf-HR :0.79122: L2-HR :0.78014: (Sim:0h1m12s) 
CPU  0 inst:   20000000 cyc:   11041777 now IPC :1.83736: AVG IPC :1.78900: L2-Pf-HR :0.79031: L2-HR :0.77916: (Sim:0h1m15s) 
CPU  0 inst:   21000002 cyc:   11582572 now IPC :1.84913: AVG IPC :1.79206: L2-Pf-HR :0.78974: L2-HR :0.77852: (Sim:0h1m18s) 
CPU  0 inst:   22000002 cyc:   12120919 now IPC :1.85754: AVG IPC :1.79523: L2-Pf-HR :0.79021: L2-HR :0.77887: (Sim:0h1m21s) 
CPU  0 inst:   23000000 cyc:   12718480 now IPC :1.67347: AVG IPC :1.78903: L2-Pf-HR :0.79267: L2-HR :0.78133: (Sim:0h1m24s) 
CPU  0 inst:   24000000 cyc:   13234412 now IPC :1.93824: AVG IPC :1.79531: L2-Pf-HR :0.79726: L2-HR :0.78571: (Sim:0h1m27s) 
CPU  0 inst:   25000001 cyc:   13945493 now IPC :1.40631: AVG IPC :1.77398: L2-Pf-HR :0.79715: L2-HR :0.78579: (Sim:0h1m30s) 
CPU  0 inst:   26000001 cyc:   14485618 now IPC :1.85142: AVG IPC :1.77707: L2-Pf-HR :0.79668: L2-HR :0.78523: (Sim:0h1m33s) 
CPU  0 inst:   27000002 cyc:   15021744 now IPC :1.86524: AVG IPC :1.78044: L2-Pf-HR :0.79592: L2-HR :0.78445: (Sim:0h1m36s) 
CPU  0 inst:   28000000 cyc:   15565073 now IPC :1.84050: AVG IPC :1.78268: L2-Pf-HR :0.79540: L2-HR :0.78388: (Sim:0h1m38s) 
CPU  0 inst:   29000003 cyc:   16111539 now IPC :1.82995: AVG IPC :1.78439: L2-Pf-HR :0.79473: L2-HR :0.78316: (Sim:0h1m41s) 
CPU  0 inst:   30000002 cyc:   16652691 now IPC :1.84791: AVG IPC :1.78658: L2-Pf-HR :0.79488: L2-HR :0.78324: (Sim:0h1m44s) 
CPU  0 inst:   31000002 cyc:   17251569 now IPC :1.66979: AVG IPC :1.78228: L2-Pf-HR :0.79662: L2-HR :0.78498: (Sim:0h1m47s) 
CPU  0 inst:   32000000 cyc:   17767497 now IPC :1.93825: AVG IPC :1.78707: L2-Pf-HR :0.79976: L2-HR :0.78801: (Sim:0h1m51s) 
CPU  0 inst:   33000002 cyc:   18472737 now IPC :1.41796: AVG IPC :1.77219: L2-Pf-HR :0.79980: L2-HR :0.78816: (Sim:0h1m56s) 
CPU  0 inst:   34000000 cyc:   19013269 now IPC :1.85003: AVG IPC :1.77453: L2-Pf-HR :0.79922: L2-HR :0.78754: (Sim:0h2m0s) 
CPU  0 inst:   35000002 cyc:   19551172 now IPC :1.85907: AVG IPC :1.77697: L2-Pf-HR :0.79865: L2-HR :0.78696: (Sim:0h2m5s) 
CPU  0 inst:   36000000 cyc:   20097319 now IPC :1.83101: AVG IPC :1.77852: L2-Pf-HR :0.79818: L2-HR :0.78645: (Sim:0h2m9s) 
CPU  0 inst:   37000002 cyc:   20637014 now IPC :1.85290: AVG IPC :1.78056: L2-Pf-HR :0.79773: L2-HR :0.78598: (Sim:0h2m13s) 
CPU  0 inst:   38000001 cyc:   21184447 now IPC :1.82671: AVG IPC :1.78181: L2-Pf-HR :0.79784: L2-HR :0.78602: (Sim:0h2m17s) 
CPU  0 inst:   39000001 cyc:   21780974 now IPC :1.67637: AVG IPC :1.77879: L2-Pf-HR :0.79876: L2-HR :0.78696: (Sim:0h2m22s) 
CPU  0 inst:   40000000 cyc:   22295968 now IPC :1.94177: AVG IPC :1.78272: L2-Pf-HR :0.80107: L2-HR :0.78918: (Sim:0h2m26s) 
CPU  0 inst:   41000003 cyc:   22995252 now IPC :1.43004: AVG IPC :1.77152: L2-Pf-HR :0.80110: L2-HR :0.78928: (Sim:0h2m31s) 
CPU  0 inst:   42000000 cyc:   23531110 now IPC :1.86616: AVG IPC :1.77377: L2-Pf-HR :0.80065: L2-HR :0.78884: (Sim:0h2m35s) 
CPU  0 inst:   43000001 cyc:   24073599 now IPC :1.84336: AVG IPC :1.77541: L2-Pf-HR :0.80027: L2-HR :0.78842: (Sim:0h2m39s) 
CPU  0 inst:   44000000 cyc:   24615543 now IPC :1.84521: AVG IPC :1.77701: L2-Pf-HR :0.79976: L2-HR :0.78787: (Sim:0h2m44s) 
CPU  0 inst:   45000002 cyc:   25154777 now IPC :1.85449: AVG IPC :1.77873: L2-Pf-HR :0.79933: L2-HR :0.78743: (Sim:0h2m48s) 
CPU  0 inst:   46000001 cyc:   25702975 now IPC :1.82416: AVG IPC :1.77974: L2-Pf-HR :0.79942: L2-HR :0.78747: (Sim:0h2m52s) 
CPU  0 inst:   47000002 cyc:   26300084 now IPC :1.67474: AVG IPC :1.77726: L2-Pf-HR :0.80020: L2-HR :0.78828: (Sim:0h2m57s) 
CPU  0 inst:   48000000 cyc:   26814848 now IPC :1.94263: AVG IPC :1.78056: L2-Pf-HR :0.80216: L2-HR :0.79019: (Sim:0h3m1s) 
CPU  0 inst:   49000000 cyc:   27498949 now IPC :1.46177: AVG IPC :1.77234: L2-Pf-HR :0.80228: L2-HR :0.79040: (Sim:0h3m5s) 
CPU  0 inst:   50000000 cyc:   28033632 now IPC :1.87027: AVG IPC :1.77427: L2-Pf-HR :0.80192: L2-HR :0.79004: (Sim:0h3m10s) 
CPU  0 inst:   51000002 cyc:   28576293 now IPC :1.84277: AVG IPC :1.77562: L2-Pf-HR :0.80148: L2-HR :0.78957: (Sim:0h3m14s) 
CPU  0 inst:   52000000 cyc:   29119509 now IPC :1.84088: AVG IPC :1.77688: L2-Pf-HR :0.80097: L2-HR :0.78904: (Sim:0h3m18s) 
CPU  0 inst:   53000002 cyc:   29657131 now IPC :1.86005: AVG IPC :1.77844: L2-Pf-HR :0.80070: L2-HR :0.78876: (Sim:0h3m23s) 
CPU  0 inst:   54000001 cyc:   30204282 now IPC :1.82765: AVG IPC :1.77936: L2-Pf-HR :0.80064: L2-HR :0.78865: (Sim:0h3m27s) 
CPU  0 inst:   55000003 cyc:   30804656 now IPC :1.66563: AVG IPC :1.77707: L2-Pf-HR :0.80114: L2-HR :0.78919: (Sim:0h3m31s) 
CPU  0 inst:   56000000 cyc:   31319102 now IPC :1.94383: AVG IPC :1.77990: L2-Pf-HR :0.80279: L2-HR :0.79080: (Sim:0h3m36s) 
CPU  0 inst:   57000002 cyc:   32019069 now IPC :1.42864: AVG IPC :1.77198: L2-Pf-HR :0.80284: L2-HR :0.79093: (Sim:0h3m40s) 
CPU  0 inst:   58000002 cyc:   32557498 now IPC :1.85726: AVG IPC :1.77343: L2-Pf-HR :0.80259: L2-HR :0.79067: (Sim:0h3m45s) 
CPU  0 inst:   59000000 cyc:   33097836 now IPC :1.85069: AVG IPC :1.77473: L2-Pf-HR :0.80224: L2-HR :0.79029: (Sim:0h3m49s) 
CPU  0 inst:   60000000 cyc:   33634851 now IPC :1.86215: AVG IPC :1.77617: L2-Pf-HR :0.80179: L2-HR :0.78983: (Sim:0h3m53s) 
CPU  0 inst:   61000003 cyc:   34181054 now IPC :1.83083: AVG IPC :1.77707: L2-Pf-HR :0.80149: L2-HR :0.78951: (Sim:0h3m58s) 
CPU  0 inst:   62000001 cyc:   34723801 now IPC :1.84248: AVG IPC :1.77812: L2-Pf-HR :0.80139: L2-HR :0.78937: (Sim:0h4m2s) 
CPU  0 inst:   63000003 cyc:   35322427 now IPC :1.67050: AVG IPC :1.77624: L2-Pf-HR :0.80181: L2-HR :0.78981: (Sim:0h4m5s) 
CPU  0 inst:   64000000 cyc:   35837104 now IPC :1.94296: AVG IPC :1.77870: L2-Pf-HR :0.80316: L2-HR :0.79109: (Sim:0h4m9s) 
CPU  0 inst:   65000002 cyc:   36537773 now IPC :1.42721: AVG IPC :1.77178: L2-Pf-HR :0.80314: L2-HR :0.79115: (Sim:0h4m13s) 
CPU  0 inst:   66000000 cyc:   37082851 now IPC :1.83460: AVG IPC :1.77273: L2-Pf-HR :0.80296: L2-HR :0.79095: (Sim:0h4m17s) 
CPU  0 inst:   67000003 cyc:   37622223 now IPC :1.85401: AVG IPC :1.77392: L2-Pf-HR :0.80260: L2-HR :0.79059: (Sim:0h4m22s) 
CPU  0 inst:   68000000 cyc:   38158961 now IPC :1.86310: AVG IPC :1.77521: L2-Pf-HR :0.80230: L2-HR :0.79028: (Sim:0h4m26s) 
CPU  0 inst:   69000003 cyc:   38703626 now IPC :1.83600: AVG IPC :1.77609: L2-Pf-HR :0.80208: L2-HR :0.79003: (Sim:0h4m30s) 
CPU  0 inst:   70000003 cyc:   39243195 now IPC :1.85333: AVG IPC :1.77718: L2-Pf-HR :0.80196: L2-HR :0.78989: (Sim:0h4m35s) 
CPU  0 inst:   71000003 cyc:   39844731 now IPC :1.66241: AVG IPC :1.77540: L2-Pf-HR :0.80243: L2-HR :0.79037: (Sim:0h4m39s) 
CPU  0 inst:   72000000 cyc:   40358880 now IPC :1.94496: AVG IPC :1.77762: L2-Pf-HR :0.80371: L2-HR :0.79162: (Sim:0h4m43s) 
CPU  0 inst:   73000003 cyc:   41047318 now IPC :1.45257: AVG IPC :1.77203: L2-Pf-HR :0.80382: L2-HR :0.79179: (Sim:0h4m48s) 
CPU  0 inst:   74000001 cyc:   41583242 now IPC :1.86593: AVG IPC :1.77327: L2-Pf-HR :0.80363: L2-HR :0.79159: (Sim:0h4m52s) 
CPU  0 inst:   75000003 cyc:   42129937 now IPC :1.82918: AVG IPC :1.77401: L2-Pf-HR :0.80332: L2-HR :0.79126: (Sim:0h4m57s) 
CPU  0 inst:   76000000 cyc:   42669115 now IPC :1.85467: AVG IPC :1.77506: L2-Pf-HR :0.80307: L2-HR :0.79100: (Sim:0h5m1s) 
CPU  0 inst:   77000001 cyc:   43210870 now IPC :1.84585: AVG IPC :1.77596: L2-Pf-HR :0.80285: L2-HR :0.79076: (Sim:0h5m5s) 
CPU  0 inst:   78000001 cyc:   43754260 now IPC :1.84030: AVG IPC :1.77678: L2-Pf-HR :0.80273: L2-HR :0.79063: (Sim:0h5m9s) 
CPU  0 inst:   79000002 cyc:   44360234 now IPC :1.65024: AVG IPC :1.77501: L2-Pf-HR :0.80301: L2-HR :0.79092: (Sim:0h5m14s) 
CPU  0 inst:   80000000 cyc:   44874432 now IPC :1.94477: AVG IPC :1.77700: L2-Pf-HR :0.80415: L2-HR :0.79202: (Sim:0h5m18s) 
CPU  0 inst:   81000000 cyc:   45560454 now IPC :1.45768: AVG IPC :1.77209: L2-Pf-HR :0.80434: L2-HR :0.79226: (Sim:0h5m23s) 
CPU  0 inst:   82000001 cyc:   46106138 now IPC :1.83256: AVG IPC :1.77282: L2-Pf-HR :0.80419: L2-HR :0.79210: (Sim:0h5m27s) 
CPU  0 inst:   83000002 cyc:   46642974 now IPC :1.86277: AVG IPC :1.77388: L2-Pf-HR :0.80387: L2-HR :0.79178: (Sim:0h5m30s) 
CPU  0 inst:   84000000 cyc:   47185253 now IPC :1.84407: AVG IPC :1.77470: L2-Pf-HR :0.80362: L2-HR :0.79151: (Sim:0h5m33s) 
CPU  0 inst:   85000002 cyc:   47731533 now IPC :1.83057: AVG IPC :1.77535: L2-Pf-HR :0.80335: L2-HR :0.79123: (Sim:0h5m36s) 
CPU  0 inst:   86000001 cyc:   48271621 now IPC :1.85155: AVG IPC :1.77622: L2-Pf-HR :0.80332: L2-HR :0.79119: (Sim:0h5m39s) 
CPU  0 inst:   87000002 cyc:   48875899 now IPC :1.65487: AVG IPC :1.77469: L2-Pf-HR :0.80349: L2-HR :0.79137: (Sim:0h5m42s) 
CPU  0 inst:   88000000 cyc:   49390166 now IPC :1.94451: AVG IPC :1.77650: L2-Pf-HR :0.80450: L2-HR :0.79236: (Sim:0h5m45s) 
CPU  0 inst:   89000002 cyc:   50078200 now IPC :1.45342: AVG IPC :1.77197: L2-Pf-HR :0.80467: L2-HR :0.79258: (Sim:0h5m48s) 
CPU  0 inst:   90000003 cyc:   50620910 now IPC :1.84261: AVG IPC :1.77274: L2-Pf-HR :0.80450: L2-HR :0.79239: (Sim:0h5m51s) 
CPU  0 inst:   91000002 cyc:   51156939 now IPC :1.86557: AVG IPC :1.77373: L2-Pf-HR :0.80426: L2-HR :0.79214: (Sim:0h5m54s) 
CPU  0 inst:   92000000 cyc:   51699707 now IPC :1.84240: AVG IPC :1.77447: L2-Pf-HR :0.80406: L2-HR :0.79192: (Sim:0h5m57s) 
CPU  0 inst:   93000002 cyc:   52246303 now IPC :1.82951: AVG IPC :1.77505: L2-Pf-HR :0.80380: L2-HR :0.79164: (Sim:0h6m0s) 
CPU  0 inst:   94000003 cyc:   52787659 now IPC :1.84722: AVG IPC :1.77581: L2-Pf-HR :0.80373: L2-HR :0.79157: (Sim:0h6m3s) 
CPU  0 inst:   95000003 cyc:   53390838 now IPC :1.65788: AVG IPC :1.77445: L2-Pf-HR :0.80388: L2-HR :0.79172: (Sim:0h6m6s) 
CPU  0 inst:   96000000 cyc:   53904076 now IPC :1.94841: AVG IPC :1.77614: L2-Pf-HR :0.80474: L2-HR :0.79253: (Sim:0h6m8s) 
CPU  0 inst:   97000000 cyc:   54598488 now IPC :1.44007: AVG IPC :1.77179: L2-Pf-HR :0.80495: L2-HR :0.79278: (Sim:0h6m12s) 
CPU  0 inst:   98000001 cyc:   55142206 now IPC :1.83919: AVG IPC :1.77246: L2-Pf-HR :0.80477: L2-HR :0.79259: (Sim:0h6m15s) 
CPU  0 inst:   99000003 cyc:   55677841 now IPC :1.86695: AVG IPC :1.77339: L2-Pf-HR :0.80456: L2-HR :0.79238: (Sim:0h6m18s) 
CPU  0 inst:  100000000 cyc:   56222065 now IPC :1.83747: AVG IPC :1.77402: L2-Pf-HR :0.80438: L2-HR :0.79218: (Sim:0h6m21s) 
CPU  0 inst:  101000002 cyc:   56758650 now IPC :1.86364: AVG IPC :1.77488: L2-Pf-HR :0.80415: L2-HR :0.79195: (Sim:0h6m24s) 
CPU  0 inst:  102000002 cyc:   57305805 now IPC :1.82764: AVG IPC :1.77539: L2-Pf-HR :0.80410: L2-HR :0.79189: (Sim:0h6m29s) 
CPU  0 inst:  103000001 cyc:   57910820 now IPC :1.65285: AVG IPC :1.77409: L2-Pf-HR :0.80417: L2-HR :0.79197: (Sim:0h6m33s) 
CPU  0 inst:  104000000 cyc:   58425699 now IPC :1.94220: AVG IPC :1.77560: L2-Pf-HR :0.80495: L2-HR :0.79271: (Sim:0h6m37s) 
CPU  0 inst:  105000000 cyc:   59124505 now IPC :1.43101: AVG IPC :1.77146: L2-Pf-HR :0.80519: L2-HR :0.79299: (Sim:0h6m42s) 
CPU  0 inst:  106000002 cyc:   59662221 now IPC :1.85972: AVG IPC :1.77227: L2-Pf-HR :0.80500: L2-HR :0.79280: (Sim:0h6m46s) 
CPU  0 inst:  107000002 cyc:   60202717 now IPC :1.85015: AVG IPC :1.77298: L2-Pf-HR :0.80483: L2-HR :0.79262: (Sim:0h6m51s) 
CPU  0 inst:  108000000 cyc:   60748336 now IPC :1.83278: AVG IPC :1.77352: L2-Pf-HR :0.80464: L2-HR :0.79241: (Sim:0h6m55s) 
CPU  0 inst:  109000002 cyc:   61287022 now IPC :1.85637: AVG IPC :1.77426: L2-Pf-HR :0.80444: L2-HR :0.79221: (Sim:0h6m59s) 
CPU  0 inst:  110000002 cyc:   61830376 now IPC :1.84042: AVG IPC :1.77485: L2-Pf-HR :0.80442: L2-HR :0.79217: (Sim:0h7m4s) 
CPU  0 inst:  111000002 cyc:   62438786 now IPC :1.64363: AVG IPC :1.77355: L2-Pf-HR :0.80447: L2-HR :0.79223: (Sim:0h7m8s) 
CPU  0 inst:  112000000 cyc:   62953240 now IPC :1.94380: AVG IPC :1.77497: L2-Pf-HR :0.80518: L2-HR :0.79292: (Sim:0h7m13s) 
CPU  0 inst:  113000002 cyc:   63642732 now IPC :1.45035: AVG IPC :1.77140: L2-Pf-HR :0.80540: L2-HR :0.79317: (Sim:0h7m18s) 
CPU  0 inst:  114000003 cyc:   64179434 now IPC :1.86323: AVG IPC :1.77218: L2-Pf-HR :0.80526: L2-HR :0.79303: (Sim:0h7m22s) 
CPU  0 inst:  115000003 cyc:   64719191 now IPC :1.85269: AVG IPC :1.77286: L2-Pf-HR :0.80512: L2-HR :0.79288: (Sim:0h7m26s) 
CPU  0 inst:  116000000 cyc:   65261869 now IPC :1.84271: AVG IPC :1.77345: L2-Pf-HR :0.80490: L2-HR :0.79265: (Sim:0h7m31s) 
CPU  0 inst:  117000003 cyc:   65800011 now IPC :1.85825: AVG IPC :1.77415: L2-Pf-HR :0.80473: L2-HR :0.79247: (Sim:0h7m35s) 
CPU  0 inst:  118000000 cyc:   66347303 now IPC :1.82717: AVG IPC :1.77460: L2-Pf-HR :0.80466: L2-HR :0.79239: (Sim:0h7m39s) 
CPU  0 inst:  119000003 cyc:   66957883 now IPC :1.63779: AVG IPC :1.77333: L2-Pf-HR :0.80473: L2-HR :0.79247: (Sim:0h7m44s) 
CPU  0 inst:  120000000 cyc:   67473638 now IPC :1.93890: AVG IPC :1.77461: L2-Pf-HR :0.80546: L2-HR :0.79317: (Sim:0h7m48s) 
CPU  0 inst:  121000003 cyc:   68164271 now IPC :1.44795: AVG IPC :1.77126: L2-Pf-HR :0.80568: L2-HR :0.79341: (Sim:0h7m53s) 
CPU  0 inst:  122000001 cyc:   68700782 now IPC :1.86389: AVG IPC :1.77199: L2-Pf-HR :0.80557: L2-HR :0.79330: (Sim:0h7m57s) 
CPU  0 inst:  123000001 cyc:   69239843 now IPC :1.85508: AVG IPC :1.77265: L2-Pf-HR :0.80541: L2-HR :0.79312: (Sim:0h8m1s) 
CPU  0 inst:  124000000 cyc:   69774152 now IPC :1.87157: AVG IPC :1.77341: L2-Pf-HR :0.80519: L2-HR :0.79290: (Sim:0h8m5s) 
CPU  0 inst:  125000001 cyc:   70321059 now IPC :1.82847: AVG IPC :1.77385: L2-Pf-HR :0.80505: L2-HR :0.79275: (Sim:0h8m9s) 
CPU  0 inst:  126000003 cyc:   70865917 now IPC :1.83534: AVG IPC :1.77433: L2-Pf-HR :0.80494: L2-HR :0.79263: (Sim:0h8m13s) 
CPU  0 inst:  127000000 cyc:   71475077 now IPC :1.64160: AVG IPC :1.77318: L2-Pf-HR :0.80496: L2-HR :0.79266: (Sim:0h8m18s) 
CPU  0 inst:  128000000 cyc:   71989114 now IPC :1.94539: AVG IPC :1.77443: L2-Pf-HR :0.80563: L2-HR :0.79332: (Sim:0h8m22s) 
CPU  0 inst:  129000001 cyc:   72670754 now IPC :1.46705: AVG IPC :1.77150: L2-Pf-HR :0.80587: L2-HR :0.79361: (Sim:0h8m26s) 
CPU  0 inst:  130000001 cyc:   73216782 now IPC :1.83141: AVG IPC :1.77196: L2-Pf-HR :0.80580: L2-HR :0.79352: (Sim:0h8m30s) 
CPU  0 inst:  131000001 cyc:   73758964 now IPC :1.84440: AVG IPC :1.77250: L2-Pf-HR :0.80563: L2-HR :0.79335: (Sim:0h8m33s) 
CPU  0 inst:  132000000 cyc:   74297872 now IPC :1.85560: AVG IPC :1.77311: L2-Pf-HR :0.80544: L2-HR :0.79315: (Sim:0h8m37s) 
CPU  0 inst:  133000002 cyc:   74846453 now IPC :1.82289: AVG IPC :1.77348: L2-Pf-HR :0.80531: L2-HR :0.79300: (Sim:0h8m42s) 
CPU  0 inst:  134000002 cyc:   75393512 now IPC :1.82796: AVG IPC :1.77388: L2-Pf-HR :0.80519: L2-HR :0.79288: (Sim:0h8m46s) 
CPU  0 inst:  135000002 cyc:   76001177 now IPC :1.64564: AVG IPC :1.77284: L2-Pf-HR :0.80520: L2-HR :0.79290: (Sim:0h8m50s) 
CPU  0 inst:  136000000 cyc:   76516408 now IPC :1.94087: AVG IPC :1.77399: L2-Pf-HR :0.80582: L2-HR :0.79350: (Sim:0h8m55s) 
CPU  0 inst:  137000001 cyc:   77195696 now IPC :1.47213: AVG IPC :1.77130: L2-Pf-HR :0.80607: L2-HR :0.79379: (Sim:0h8m59s) 
CPU  0 inst:  138000000 cyc:   77748168 now IPC :1.81004: AVG IPC :1.77157: L2-Pf-HR :0.80598: L2-HR :0.79370: (Sim:0h9m4s) 
CPU  0 inst:  139000001 cyc:   78288461 now IPC :1.85085: AVG IPC :1.77213: L2-Pf-HR :0.80581: L2-HR :0.79351: (Sim:0h9m8s) 
CPU  0 inst:  140000000 cyc:   78824900 now IPC :1.86414: AVG IPC :1.77276: L2-Pf-HR :0.80567: L2-HR :0.79337: (Sim:0h9m12s) 
CPU  0 inst:  141000002 cyc:   79369747 now IPC :1.83538: AVG IPC :1.77320: L2-Pf-HR :0.80552: L2-HR :0.79322: (Sim:0h9m16s) 
CPU  0 inst:  142000001 cyc:   79910665 now IPC :1.84871: AVG IPC :1.77371: L2-Pf-HR :0.80541: L2-HR :0.79310: (Sim:0h9m21s) 
CPU  0 inst:  143000002 cyc:   80523612 now IPC :1.63146: AVG IPC :1.77262: L2-Pf-HR :0.80540: L2-HR :0.79310: (Sim:0h9m25s) 
CPU  0 inst:  144000000 cyc:   81037803 now IPC :1.94480: AVG IPC :1.77372: L2-Pf-HR :0.80595: L2-HR :0.79363: (Sim:0h9m29s) 
CPU  0 inst:  145000000 cyc:   81706073 now IPC :1.49640: AVG IPC :1.77143: L2-Pf-HR :0.80618: L2-HR :0.79389: (Sim:0h9m34s) 
CPU  0 inst:  146000003 cyc:   82263735 now IPC :1.79321: AVG IPC :1.77158: L2-Pf-HR :0.80610: L2-HR :0.79380: (Sim:0h9m37s) 
CPU  0 inst:  147000003 cyc:   82803206 now IPC :1.85367: AVG IPC :1.77212: L2-Pf-HR :0.80593: L2-HR :0.79362: (Sim:0h9m40s) 
CPU  0 inst:  148000000 cyc:   83345610 now IPC :1.84364: AVG IPC :1.77259: L2-Pf-HR :0.80579: L2-HR :0.79347: (Sim:0h9m43s) 
CPU  0 inst:  149000002 cyc:   83894568 now IPC :1.82164: AVG IPC :1.77292: L2-Pf-HR :0.80565: L2-HR :0.79332: (Sim:0h9m46s) 
CPU  0 inst:  150000000 cyc:   84433333 now IPC :1.85609: AVG IPC :1.77345: L2-Pf-HR :0.80557: L2-HR :0.79324: (Sim:0h9m49s) 
CPU  0 inst:  151000001 cyc:   85048481 now IPC :1.62563: AVG IPC :1.77237: L2-Pf-HR :0.80554: L2-HR :0.79321: (Sim:0h9m52s) 
CPU  0 inst:  152000000 cyc:   85562590 now IPC :1.94511: AVG IPC :1.77342: L2-Pf-HR :0.80611: L2-HR :0.79377: (Sim:0h9m55s) 
CPU  0 inst:  153000000 cyc:   86230172 now IPC :1.49794: AVG IPC :1.77126: L2-Pf-HR :0.80636: L2-HR :0.79405: (Sim:0h9m58s) 
CPU  0 inst:  154000003 cyc:   86798771 now IPC :1.75871: AVG IPC :1.77118: L2-Pf-HR :0.80628: L2-HR :0.79396: (Sim:0h10m3s) 
CPU  0 inst:  155000002 cyc:   87335470 now IPC :1.86324: AVG IPC :1.77175: L2-Pf-HR :0.80612: L2-HR :0.79380: (Sim:0h10m7s) 
CPU  0 inst:  156000000 cyc:   87880609 now IPC :1.83439: AVG IPC :1.77215: L2-Pf-HR :0.80599: L2-HR :0.79366: (Sim:0h10m11s) 
CPU  0 inst:  157000001 cyc:   88427807 now IPC :1.82749: AVG IPC :1.77249: L2-Pf-HR :0.80581: L2-HR :0.79348: (Sim:0h10m16s) 
CPU  0 inst:  158000003 cyc:   88965533 now IPC :1.85969: AVG IPC :1.77302: L2-Pf-HR :0.80575: L2-HR :0.79341: (Sim:0h10m20s) 
CPU  0 inst:  159000002 cyc:   89574358 now IPC :1.64251: AVG IPC :1.77213: L2-Pf-HR :0.80570: L2-HR :0.79336: (Sim:0h10m24s) 
CPU  0 inst:  160000000 cyc:   90091864 now IPC :1.93234: AVG IPC :1.77306: L2-Pf-HR :0.80619: L2-HR :0.79383: (Sim:0h10m29s) 
CPU  0 inst:  161000000 cyc:   90750217 now IPC :1.51894: AVG IPC :1.77119: L2-Pf-HR :0.80644: L2-HR :0.79410: (Sim:0h10m33s) 
CPU  0 inst:  162000003 cyc:   91324909 now IPC :1.74007: AVG IPC :1.77100: L2-Pf-HR :0.80635: L2-HR :0.79400: (Sim:0h10m38s) 
CPU  0 inst:  163000000 cyc:   91861410 now IPC :1.86392: AVG IPC :1.77154: L2-Pf-HR :0.80622: L2-HR :0.79387: (Sim:0h10m43s) 
CPU  0 inst:  164000000 cyc:   92404599 now IPC :1.84098: AVG IPC :1.77196: L2-Pf-HR :0.80611: L2-HR :0.79375: (Sim:0h10m46s) 
CPU  0 inst:  165000003 cyc:   92942187 now IPC :1.86017: AVG IPC :1.77247: L2-Pf-HR :0.80594: L2-HR :0.79358: (Sim:0h10m49s) 
CPU  0 inst:  166000000 cyc:   93489212 now IPC :1.82806: AVG IPC :1.77280: L2-Pf-HR :0.80587: L2-HR :0.79350: (Sim:0h10m51s) 
CPU  0 inst:  167000003 cyc:   94096438 now IPC :1.64684: AVG IPC :1.77198: L2-Pf-HR :0.80581: L2-HR :0.79345: (Sim:0h10m55s) 
CPU  0 inst:  168000000 cyc:   94612207 now IPC :1.93885: AVG IPC :1.77290: L2-Pf-HR :0.80630: L2-HR :0.79393: (Sim:0h10m58s) 
CPU  0 inst:  169000003 cyc:   95256969 now IPC :1.55096: AVG IPC :1.77138: L2-Pf-HR :0.80657: L2-HR :0.79422: (Sim:0h11m1s) 
CPU  0 inst:  170000000 cyc:   95832059 now IPC :1.73885: AVG IPC :1.77118: L2-Pf-HR :0.80646: L2-HR :0.79411: (Sim:0h11m4s) 
CPU  0 inst:  171000002 cyc:   96374813 now IPC :1.84246: AVG IPC :1.77159: L2-Pf-HR :0.80634: L2-HR :0.79399: (Sim:0h11m7s) 
CPU  0 inst:  172000000 cyc:   96919756 now IPC :1.83505: AVG IPC :1.77195: L2-Pf-HR :0.80620: L2-HR :0.79384: (Sim:0h11m10s) 
CPU  0 inst:  173000001 cyc:   97456521 now IPC :1.86301: AVG IPC :1.77246: L2-Pf-HR :0.80605: L2-HR :0.79369: (Sim:0h11m14s) 
CPU  0 inst:  174000001 cyc:   98001784 now IPC :1.83398: AVG IPC :1.77280: L2-Pf-HR :0.80599: L2-HR :0.79362: (Sim:0h11m18s) 
CPU  0 inst:  175000002 cyc:   98611848 now IPC :1.63917: AVG IPC :1.77197: L2-Pf-HR :0.80585: L2-HR :0.79349: (Sim:0h11m23s) 
CPU  0 inst:  176000000 cyc:   99127557 now IPC :1.93907: AVG IPC :1.77285: L2-Pf-HR :0.80632: L2-HR :0.79395: (Sim:0h11m26s) 
CPU  0 inst:  177000001 cyc:   99753531 now IPC :1.59751: AVG IPC :1.77173: L2-Pf-HR :0.80663: L2-HR :0.79428: (Sim:0h11m29s) 
CPU  0 inst:  178000001 cyc:  100338560 now IPC :1.70932: AVG IPC :1.77137: L2-Pf-HR :0.80653: L2-HR :0.79418: (Sim:0h11m33s) 
CPU  0 inst:  179000002 cyc:  100875955 now IPC :1.86083: AVG IPC :1.77185: L2-Pf-HR :0.80643: L2-HR :0.79408: (Sim:0h11m38s) 
CPU  0 inst:  180000000 cyc:  101422994 now IPC :1.82802: AVG IPC :1.77215: L2-Pf-HR :0.80627: L2-HR :0.79392: (Sim:0h11m42s) 
CPU  0 inst:  181000002 cyc:  101959387 now IPC :1.86431: AVG IPC :1.77264: L2-Pf-HR :0.80616: L2-HR :0.79380: (Sim:0h11m46s) 
CPU  0 inst:  182000002 cyc:  102501492 now IPC :1.84466: AVG IPC :1.77303: L2-Pf-HR :0.80607: L2-HR :0.79371: (Sim:0h11m50s) 
CPU  0 inst:  183000003 cyc:  103117343 now IPC :1.62377: AVG IPC :1.77213: L2-Pf-HR :0.80596: L2-HR :0.79360: (Sim:0h11m54s) 
CPU  0 inst:  184000000 cyc:  103636363 now IPC :1.92670: AVG IPC :1.77291: L2-Pf-HR :0.80643: L2-HR :0.79405: (Sim:0h11m59s) 
CPU  0 inst:  185000003 cyc:  104270596 now IPC :1.57671: AVG IPC :1.77171: L2-Pf-HR :0.80674: L2-HR :0.79438: (Sim:0h12m3s) 
CPU  0 inst:  186000000 cyc:  104867317 now IPC :1.67582: AVG IPC :1.77115: L2-Pf-HR :0.80666: L2-HR :0.79430: (Sim:0h12m8s) 
CPU  0 inst:  187000002 cyc:  105412425 now IPC :1.83450: AVG IPC :1.77149: L2-Pf-HR :0.80656: L2-HR :0.79419: (Sim:0h12m12s) 
CPU  0 inst:  188000000 cyc:  105952199 now IPC :1.85262: AVG IPC :1.77190: L2-Pf-HR :0.80642: L2-HR :0.79405: (Sim:0h12m17s) 
CPU  0 inst:  189000002 cyc:  106500275 now IPC :1.82457: AVG IPC :1.77218: L2-Pf-HR :0.80633: L2-HR :0.79395: (Sim:0h12m21s) 
CPU  0 inst:  190000000 cyc:  107046954 now IPC :1.82922: AVG IPC :1.77247: L2-Pf-HR :0.80623: L2-HR :0.79384: (Sim:0h12m26s) 
CPU  0 inst:  191000003 cyc:  107647769 now IPC :1.66441: AVG IPC :1.77186: L2-Pf-HR :0.80613: L2-HR :0.79376: (Sim:0h12m30s) 
CPU  0 inst:  192000000 cyc:  108175653 now IPC :1.89435: AVG IPC :1.77246: L2-Pf-HR :0.80656: L2-HR :0.79418: (Sim:0h12m35s) 
CPU  0 inst:  193000002 cyc:  108791692 now IPC :1.62328: AVG IPC :1.77161: L2-Pf-HR :0.80686: L2-HR :0.79450: (Sim:0h12m39s) 
CPU  0 inst:  194000003 cyc:  109392727 now IPC :1.66380: AVG IPC :1.77101: L2-Pf-HR :0.80677: L2-HR :0.79441: (Sim:0h12m44s) 
CPU  0 inst:  195000001 cyc:  109937289 now IPC :1.83633: AVG IPC :1.77134: L2-Pf-HR :0.80667: L2-HR :0.79430: (Sim:0h12m47s) 
CPU  0 inst:  196000000 cyc:  110477786 now IPC :1.85015: AVG IPC :1.77173: L2-Pf-HR :0.80653: L2-HR :0.79417: (Sim:0h12m50s) 
CPU  0 inst:  197000002 cyc:  111024010 now IPC :1.83075: AVG IPC :1.77202: L2-Pf-HR :0.80644: L2-HR :0.79407: (Sim:0h12m53s) 
CPU  0 inst:  198000000 cyc:  111570924 now IPC :1.82844: AVG IPC :1.77230: L2-Pf-HR :0.80633: L2-HR :0.79395: (Sim:0h12m56s) 
CPU  0 inst:  199000003 cyc:  112166395 now IPC :1.67935: AVG IPC :1.77180: L2-Pf-HR :0.80620: L2-HR :0.79384: (Sim:0h12m59s) 
CPU  0 inst:  200000000 cyc:  112700454 now IPC :1.87245: AVG IPC :1.77229: L2-Pf-HR :0.80661: L2-HR :0.79423: (Sim:0h13m3s) 
CPU  0 inst:  201000001 cyc:  113277744 now IPC :1.73223: AVG IPC :1.77208: L2-Pf-HR :0.80696: L2-HR :0.79458: (Sim:0h13m8s) 
CPU  0 inst:  202000002 cyc:  113918433 now IPC :1.56082: AVG IPC :1.77088: L2-Pf-HR :0.80682: L2-HR :0.79445: (Sim:0h13m11s) 
CPU  0 inst:  203000002 cyc:  114462704 now IPC :1.83732: AVG IPC :1.77120: L2-Pf-HR :0.80671: L2-HR :0.79434: (Sim:0h13m14s) 
CPU  0 inst:  204000000 cyc:  114999254 now IPC :1.86376: AVG IPC :1.77163: L2-Pf-HR :0.80661: L2-HR :0.79423: (Sim:0h13m17s) 
CPU  0 inst:  205000001 cyc:  115541231 now IPC :1.84510: AVG IPC :1.77198: L2-Pf-HR :0.80651: L2-HR :0.79413: (Sim:0h13m20s) 
CPU  0 inst:  206000001 cyc:  116079726 now IPC :1.85703: AVG IPC :1.77238: L2-Pf-HR :0.80640: L2-HR :0.79402: (Sim:0h13m23s) 
CPU  0 inst:  207000003 cyc:  116645458 now IPC :1.76762: AVG IPC :1.77236: L2-Pf-HR :0.80632: L2-HR :0.79393: (Sim:0h13m26s) 
CPU  0 inst:  208000000 cyc:  117216504 now IPC :1.75117: AVG IPC :1.77225: L2-Pf-HR :0.80666: L2-HR :0.79427: (Sim:0h13m30s) 
CPU  0 inst:  209000002 cyc:  117759137 now IPC :1.84287: AVG IPC :1.77258: L2-Pf-HR :0.80705: L2-HR :0.79464: (Sim:0h13m33s) 
CPU  0 inst:  210000000 cyc:  118431558 now IPC :1.48716: AVG IPC :1.77095: L2-Pf-HR :0.80686: L2-HR :0.79448: (Sim:0h13m37s) 
CPU  0 inst:  211000003 cyc:  118967309 now IPC :1.86654: AVG IPC :1.77138: L2-Pf-HR :0.80676: L2-HR :0.79438: (Sim:0h13m41s) 
CPU  0 inst:  212000000 cyc:  119512874 now IPC :1.83296: AVG IPC :1.77166: L2-Pf-HR :0.80666: L2-HR :0.79427: (Sim:0h13m44s) 
CPU  0 inst:  213000001 cyc:  120055429 now IPC :1.84313: AVG IPC :1.77199: L2-Pf-HR :0.80654: L2-HR :0.79415: (Sim:0h13m47s) 
CPU  0 inst:  214000000 cyc:  120592206 now IPC :1.86297: AVG IPC :1.77240: L2-Pf-HR :0.80645: L2-HR :0.79405: (Sim:0h13m50s) 
CPU  0 inst:  215000001 cyc:  121151078 now IPC :1.78932: AVG IPC :1.77248: L2-Pf-HR :0.80637: L2-HR :0.79397: (Sim:0h13m53s) 
CPU  0 inst:  216000000 cyc:  121728224 now IPC :1.73266: AVG IPC :1.77229: L2-Pf-HR :0.80666: L2-HR :0.79426: (Sim:0h13m58s) 
CPU  0 inst:  217000002 cyc:  122247771 now IPC :1.92476: AVG IPC :1.77294: L2-Pf-HR :0.80707: L2-HR :0.79466: (Sim:0h14m1s) 
CPU  0 inst:  218000000 cyc:  122942900 now IPC :1.43858: AVG IPC :1.77103: L2-Pf-HR :0.80691: L2-HR :0.79453: (Sim:0h14m5s) 
CPU  0 inst:  219000001 cyc:  123476562 now IPC :1.87385: AVG IPC :1.77148: L2-Pf-HR :0.80681: L2-HR :0.79442: (Sim:0h14m10s) 
CPU  0 inst:  220000000 cyc:  124018650 now IPC :1.84472: AVG IPC :1.77180: L2-Pf-HR :0.80671: L2-HR :0.79431: (Sim:0h14m14s) 
CPU  0 inst:  221000002 cyc:  124563747 now IPC :1.83454: AVG IPC :1.77208: L2-Pf-HR :0.80659: L2-HR :0.79419: (Sim:0h14m18s) 
CPU  0 inst:  222000001 cyc:  125101791 now IPC :1.85858: AVG IPC :1.77246: L2-Pf-HR :0.80652: L2-HR :0.79412: (Sim:0h14m23s) 
CPU  0 inst:  223000002 cyc:  125655032 now IPC :1.80753: AVG IPC :1.77261: L2-Pf-HR :0.80646: L2-HR :0.79405: (Sim:0h14m26s) 
CPU  0 inst:  224000000 cyc:  126241073 now IPC :1.70636: AVG IPC :1.77230: L2-Pf-HR :0.80671: L2-HR :0.79431: (Sim:0h14m29s) 
CPU  0 inst:  225000001 cyc:  126757290 now IPC :1.93717: AVG IPC :1.77298: L2-Pf-HR :0.80711: L2-HR :0.79471: (Sim:0h14m32s) 
CPU  0 inst:  226000000 cyc:  127458300 now IPC :1.42651: AVG IPC :1.77106: L2-Pf-HR :0.80698: L2-HR :0.79460: (Sim:0h14m36s) 
CPU  0 inst:  227000001 cyc:  127994796 now IPC :1.86395: AVG IPC :1.77145: L2-Pf-HR :0.80689: L2-HR :0.79451: (Sim:0h14m38s) 
CPU  0 inst:  228000000 cyc:  128534950 now IPC :1.85132: AVG IPC :1.77179: L2-Pf-HR :0.80680: L2-HR :0.79441: (Sim:0h14m41s) 
CPU  0 inst:  229000002 cyc:  129076171 now IPC :1.84768: AVG IPC :1.77211: L2-Pf-HR :0.80669: L2-HR :0.79430: (Sim:0h14m44s) 
CPU  0 inst:  230000002 cyc:  129623635 now IPC :1.82660: AVG IPC :1.77234: L2-Pf-HR :0.80662: L2-HR :0.79422: (Sim:0h14m47s) 
CPU  0 inst:  231000002 cyc:  130170035 now IPC :1.83016: AVG IPC :1.77259: L2-Pf-HR :0.80658: L2-HR :0.79418: (Sim:0h14m50s) 
CPU  0 inst:  232000000 cyc:  130757055 now IPC :1.70352: AVG IPC :1.77227: L2-Pf-HR :0.80681: L2-HR :0.79441: (Sim:0h14m53s) 
CPU  0 inst:  233000002 cyc:  131271585 now IPC :1.94353: AVG IPC :1.77295: L2-Pf-HR :0.80720: L2-HR :0.79479: (Sim:0h14m55s) 
CPU  0 inst:  234000003 cyc:  131972277 now IPC :1.42716: AVG IPC :1.77110: L2-Pf-HR :0.80706: L2-HR :0.79468: (Sim:0h14m58s) 
CPU  0 inst:  235000001 cyc:  132508207 now IPC :1.86591: AVG IPC :1.77149: L2-Pf-HR :0.80699: L2-HR :0.79461: (Sim:0h15m1s) 
CPU  0 inst:  236000000 cyc:  133052990 now IPC :1.83559: AVG IPC :1.77175: L2-Pf-HR :0.80688: L2-HR :0.79449: (Sim:0h15m4s) 
CPU  0 inst:  237000001 cyc:  133589492 now IPC :1.86393: AVG IPC :1.77212: L2-Pf-HR :0.80678: L2-HR :0.79439: (Sim:0h15m7s) 
CPU  0 inst:  238000000 cyc:  134133655 now IPC :1.83768: AVG IPC :1.77239: L2-Pf-HR :0.80669: L2-HR :0.79430: (Sim:0h15m10s) 
CPU  0 inst:  239000002 cyc:  134678515 now IPC :1.83534: AVG IPC :1.77265: L2-Pf-HR :0.80664: L2-HR :0.79424: (Sim:0h15m13s) 
CPU  0 inst:  240000000 cyc:  135275422 now IPC :1.67530: AVG IPC :1.77222: L2-Pf-HR :0.80682: L2-HR :0.79442: (Sim:0h15m16s) 
CPU  0 inst:  241000002 cyc:  135790463 now IPC :1.94160: AVG IPC :1.77286: L2-Pf-HR :0.80719: L2-HR :0.79479: (Sim:0h15m19s) 
CPU  0 inst:  242000003 cyc:  136493144 now IPC :1.42312: AVG IPC :1.77105: L2-Pf-HR :0.80707: L2-HR :0.79469: (Sim:0h15m24s) 
CPU  0 inst:  243000000 cyc:  137034969 now IPC :1.84561: AVG IPC :1.77135: L2-Pf-HR :0.80700: L2-HR :0.79462: (Sim:0h15m28s) 
CPU  0 inst:  244000000 cyc:  137579218 now IPC :1.83739: AVG IPC :1.77161: L2-Pf-HR :0.80688: L2-HR :0.79450: (Sim:0h15m32s) 
CPU  0 inst:  245000001 cyc:  138116347 now IPC :1.86175: AVG IPC :1.77196: L2-Pf-HR :0.80678: L2-HR :0.79439: (Sim:0h15m36s) 
CPU  0 inst:  246000000 cyc:  138665791 now IPC :1.82002: AVG IPC :1.77215: L2-Pf-HR :0.80671: L2-HR :0.79432: (Sim:0h15m40s) 
CPU  0 inst:  247000002 cyc:  139208562 now IPC :1.84240: AVG IPC :1.77243: L2-Pf-HR :0.80667: L2-HR :0.79427: (Sim:0h15m44s) 
CPU  0 inst:  248000000 cyc:  139806329 now IPC :1.67289: AVG IPC :1.77200: L2-Pf-HR :0.80685: L2-HR :0.79446: (Sim:0h15m49s) 
CPU  0 inst:  249000002 cyc:  140320169 now IPC :1.94613: AVG IPC :1.77264: L2-Pf-HR :0.80720: L2-HR :0.79479: (Sim:0h15m53s) 
CPU  0 inst:  250000002 cyc:  141018822 now IPC :1.43133: AVG IPC :1.77094: L2-Pf-HR :0.80709: L2-HR :0.79472: (Sim:0h15m58s) 
CPU  0 inst:  251000000 cyc:  141562185 now IPC :1.84039: AVG IPC :1.77121: L2-Pf-HR :0.80702: L2-HR :0.79464: (Sim:0h16m2s) 
CPU  0 inst:  252000000 cyc:  142094412 now IPC :1.87890: AVG IPC :1.77162: L2-Pf-HR :0.80690: L2-HR :0.79452: (Sim:0h16m6s) 
CPU  0 inst:  253000002 cyc:  142639726 now IPC :1.83381: AVG IPC :1.77185: L2-Pf-HR :0.80681: L2-HR :0.79443: (Sim:0h16m11s) 
CPU  0 inst:  254000000 cyc:  143186527 now IPC :1.82882: AVG IPC :1.77207: L2-Pf-HR :0.80671: L2-HR :0.79433: (Sim:0h16m15s) 
CPU  0 inst:  255000001 cyc:  143721592 now IPC :1.86893: AVG IPC :1.77244: L2-Pf-HR :0.80669: L2-HR :0.79430: (Sim:0h16m19s) 
CPU  0 inst:  256000000 cyc:  144315248 now IPC :1.68448: AVG IPC :1.77207: L2-Pf-HR :0.80682: L2-HR :0.79444: (Sim:0h16m22s) 
CPU  0 inst:  257000002 cyc:  144829340 now IPC :1.94518: AVG IPC :1.77269: L2-Pf-HR :0.80714: L2-HR :0.79474: (Sim:0h16m25s) 
CPU  0 inst:  258000000 cyc:  149807886 now IPC :0.20086: AVG IPC :1.72011: L2-Pf-HR :0.80437: L2-HR :0.79282: (Sim:0h16m34s) 
CPU  0 inst:  259000000 cyc:  156285499 now IPC :0.15438: AVG IPC :1.65481: L2-Pf-HR :0.80081: L2-HR :0.79045: (Sim:0h16m50s) 
CPU  0 inst:  260000000 cyc:  162771313 now IPC :0.15418: AVG IPC :1.59465: L2-Pf-HR :0.79728: L2-HR :0.78812: (Sim:0h17m6s) 
CPU  0 inst:  261000001 cyc:  169256059 now IPC :0.15421: AVG IPC :1.53914: L2-Pf-HR :0.79379: L2-HR :0.78585: (Sim:0h17m19s) 
CPU  0 inst:  262000001 cyc:  175627959 now IPC :0.15694: AVG IPC :1.48871: L2-Pf-HR :0.79044: L2-HR :0.78363: (Sim:0h17m31s) 
CPU  0 inst:  263000000 cyc:  179145409 now IPC :0.28430: AVG IPC :1.46493: L2-Pf-HR :0.79049: L2-HR :0.78362: (Sim:0h17m40s) 
CPU  0 inst:  264000000 cyc:  182653828 now IPC :0.28503: AVG IPC :1.44215: L2-Pf-HR :0.79056: L2-HR :0.78363: (Sim:0h17m49s) 
CPU  0 inst:  265000002 cyc:  186161144 now IPC :0.28512: AVG IPC :1.42023: L2-Pf-HR :0.79065: L2-HR :0.78367: (Sim:0h17m58s) 
CPU  0 inst:  266000002 cyc:  189667808 now IPC :0.28517: AVG IPC :1.39914: L2-Pf-HR :0.79075: L2-HR :0.78370: (Sim:0h18m7s) 
CPU  0 inst:  267000002 cyc:  193174726 now IPC :0.28515: AVG IPC :1.37881: L2-Pf-HR :0.79085: L2-HR :0.78375: (Sim:0h18m15s) 
CPU  0 inst:  268000000 cyc:  196682167 now IPC :0.28511: AVG IPC :1.35921: L2-Pf-HR :0.79095: L2-HR :0.78378: (Sim:0h18m21s) 
CPU  0 inst:  269000001 cyc:  200188540 now IPC :0.28520: AVG IPC :1.34031: L2-Pf-HR :0.79105: L2-HR :0.78382: (Sim:0h18m28s) 
CPU  0 inst:  270000000 cyc:  203694500 now IPC :0.28523: AVG IPC :1.32206: L2-Pf-HR :0.79115: L2-HR :0.78386: (Sim:0h18m34s) 
CPU  0 inst:  271000001 cyc:  207200904 now IPC :0.28519: AVG IPC :1.30443: L2-Pf-HR :0.79124: L2-HR :0.78389: (Sim:0h18m40s) 
CPU  0 inst:  272000000 cyc:  210706326 now IPC :0.28527: AVG IPC :1.28739: L2-Pf-HR :0.79134: L2-HR :0.78393: (Sim:0h18m46s) 
CPU  0 inst:  273000002 cyc:  214212200 now IPC :0.28524: AVG IPC :1.27092: L2-Pf-HR :0.79143: L2-HR :0.78397: (Sim:0h18m54s) 
CPU  0 inst:  274000002 cyc:  217718583 now IPC :0.28519: AVG IPC :1.25497: L2-Pf-HR :0.79153: L2-HR :0.78401: (Sim:0h19m0s) 
CPU  0 inst:  275000002 cyc:  221226665 now IPC :0.28506: AVG IPC :1.23952: L2-Pf-HR :0.79163: L2-HR :0.78404: (Sim:0h19m6s) 
CPU  0 inst:  276000000 cyc:  224734215 now IPC :0.28510: AVG IPC :1.22456: L2-Pf-HR :0.79172: L2-HR :0.78408: (Sim:0h19m12s) 
CPU  0 inst:  277000001 cyc:  228241500 now IPC :0.28512: AVG IPC :1.21006: L2-Pf-HR :0.79181: L2-HR :0.78411: (Sim:0h19m18s) 
CPU  0 inst:  278000000 cyc:  231747689 now IPC :0.28521: AVG IPC :1.19601: L2-Pf-HR :0.79191: L2-HR :0.78415: (Sim:0h19m24s) 
CPU  0 inst:  279000000 cyc:  235254281 now IPC :0.28518: AVG IPC :1.18238: L2-Pf-HR :0.79200: L2-HR :0.78419: (Sim:0h19m32s) 
CPU  0 inst:  280000000 cyc:  238761683 now IPC :0.28511: AVG IPC :1.16914: L2-Pf-HR :0.79209: L2-HR :0.78422: (Sim:0h19m41s) 
CPU  0 inst:  281000001 cyc:  242267999 now IPC :0.28520: AVG IPC :1.15630: L2-Pf-HR :0.79219: L2-HR :0.78426: (Sim:0h19m50s) 
CPU  0 inst:  282000001 cyc:  245774873 now IPC :0.28515: AVG IPC :1.14382: L2-Pf-HR :0.79228: L2-HR :0.78429: (Sim:0h19m58s) 
CPU  0 inst:  283000002 cyc:  249281907 now IPC :0.28514: AVG IPC :1.13169: L2-Pf-HR :0.79237: L2-HR :0.78433: (Sim:0h20m7s) 
CPU  0 inst:  284000000 cyc:  252789299 now IPC :0.28511: AVG IPC :1.11990: L2-Pf-HR :0.79246: L2-HR :0.78436: (Sim:0h20m16s) 
CPU  0 inst:  285000001 cyc:  256296108 now IPC :0.28516: AVG IPC :1.10843: L2-Pf-HR :0.79255: L2-HR :0.78440: (Sim:0h20m25s) 
CPU  0 inst:  286000000 cyc:  259803873 now IPC :0.28508: AVG IPC :1.09727: L2-Pf-HR :0.79264: L2-HR :0.78443: (Sim:0h20m31s) 
CPU  0 inst:  287000000 cyc:  263309832 now IPC :0.28523: AVG IPC :1.08642: L2-Pf-HR :0.79273: L2-HR :0.78447: (Sim:0h20m36s) 
CPU  0 inst:  288000000 cyc:  266816156 now IPC :0.28520: AVG IPC :1.07585: L2-Pf-HR :0.79281: L2-HR :0.78450: (Sim:0h20m42s) 
CPU  0 inst:  289000001 cyc:  270323530 now IPC :0.28511: AVG IPC :1.06555: L2-Pf-HR :0.79290: L2-HR :0.78453: (Sim:0h20m51s) 
CPU  0 inst:  290000003 cyc:  273830310 now IPC :0.28516: AVG IPC :1.05552: L2-Pf-HR :0.79299: L2-HR :0.78457: (Sim:0h20m56s) 
CPU  0 inst:  291000001 cyc:  277337030 now IPC :0.28517: AVG IPC :1.04575: L2-Pf-HR :0.79308: L2-HR :0.78460: (Sim:0h21m2s) 
CPU  0 inst:  292000000 cyc:  280843891 now IPC :0.28516: AVG IPC :1.03622: L2-Pf-HR :0.79317: L2-HR :0.78464: (Sim:0h21m9s) 
CPU  0 inst:  293000001 cyc:  284350577 now IPC :0.28517: AVG IPC :1.02692: L2-Pf-HR :0.79326: L2-HR :0.78467: (Sim:0h21m17s) 
CPU  0 inst:  294000000 cyc:  287857132 now IPC :0.28518: AVG IPC :1.01786: L2-Pf-HR :0.79334: L2-HR :0.78470: (Sim:0h21m22s) 
CPU  0 inst:  295000000 cyc:  291363291 now IPC :0.28521: AVG IPC :1.00901: L2-Pf-HR :0.79343: L2-HR :0.78474: (Sim:0h21m28s) 
CPU  0 inst:  296000000 cyc:  294869961 now IPC :0.28517: AVG IPC :1.00038: L2-Pf-HR :0.79351: L2-HR :0.78477: (Sim:0h21m34s) 
CPU  0 inst:  297000001 cyc:  298376009 now IPC :0.28522: AVG IPC :0.99194: L2-Pf-HR :0.79359: L2-HR :0.78480: (Sim:0h21m40s) 
CPU  0 inst:  298000002 cyc:  301881716 now IPC :0.28525: AVG IPC :0.98371: L2-Pf-HR :0.79368: L2-HR :0.78483: (Sim:0h21m47s) 
CPU  0 inst:  299000002 cyc:  305387871 now IPC :0.28521: AVG IPC :0.97567: L2-Pf-HR :0.79376: L2-HR :0.78486: (Sim:0h21m53s) 
CPU  0 inst:  300000000 cyc:  308894289 now IPC :0.28519: AVG IPC :0.96780: L2-Pf-HR :0.79384: L2-HR :0.78489: (Sim:0h22m2s) 
CPU  0 inst:  301000001 cyc:  312399064 now IPC :0.28533: AVG IPC :0.96012: L2-Pf-HR :0.79393: L2-HR :0.78492: (Sim:0h22m9s) 
CPU  0 inst:  302000000 cyc:  315905098 now IPC :0.28522: AVG IPC :0.95261: L2-Pf-HR :0.79401: L2-HR :0.78496: (Sim:0h22m17s) 
CPU  0 inst:  303000000 cyc:  319411297 now IPC :0.28521: AVG IPC :0.94526: L2-Pf-HR :0.79409: L2-HR :0.78499: (Sim:0h22m26s) 
CPU  0 inst:  304000000 cyc:  322917625 now IPC :0.28520: AVG IPC :0.93807: L2-Pf-HR :0.79417: L2-HR :0.78502: (Sim:0h22m35s) 
CPU  0 inst:  305000001 cyc:  326424002 now IPC :0.28519: AVG IPC :0.93104: L2-Pf-HR :0.79426: L2-HR :0.78505: (Sim:0h22m43s) 
CPU  0 inst:  306000002 cyc:  329930704 now IPC :0.28517: AVG IPC :0.92415: L2-Pf-HR :0.79434: L2-HR :0.78508: (Sim:0h22m50s) 
CPU  0 inst:  307000002 cyc:  333437474 now IPC :0.28516: AVG IPC :0.91741: L2-Pf-HR :0.79442: L2-HR :0.78512: (Sim:0h22m56s) 
CPU  0 inst:  308000000 cyc:  336944293 now IPC :0.28516: AVG IPC :0.91081: L2-Pf-HR :0.79450: L2-HR :0.78515: (Sim:0h23m2s) 
CPU  0 inst:  309000000 cyc:  340451509 now IPC :0.28513: AVG IPC :0.90435: L2-Pf-HR :0.79458: L2-HR :0.78517: (Sim:0h23m8s) 
CPU  0 inst:  310000003 cyc:  343957773 now IPC :0.28520: AVG IPC :0.89802: L2-Pf-HR :0.79465: L2-HR :0.78520: (Sim:0h23m14s) 
CPU  0 inst:  311000002 cyc:  347463551 now IPC :0.28524: AVG IPC :0.89182: L2-Pf-HR :0.79473: L2-HR :0.78523: (Sim:0h23m20s) 
CPU  0 inst:  312000000 cyc:  350969672 now IPC :0.28521: AVG IPC :0.88574: L2-Pf-HR :0.79481: L2-HR :0.78526: (Sim:0h23m27s) 
CPU  0 inst:  313000001 cyc:  354476252 now IPC :0.28518: AVG IPC :0.87978: L2-Pf-HR :0.79488: L2-HR :0.78529: (Sim:0h23m35s) 
CPU  0 inst:  314000002 cyc:  357981860 now IPC :0.28526: AVG IPC :0.87395: L2-Pf-HR :0.79496: L2-HR :0.78532: (Sim:0h23m44s) 
CPU  0 inst:  315000002 cyc:  361488382 now IPC :0.28518: AVG IPC :0.86822: L2-Pf-HR :0.79504: L2-HR :0.78534: (Sim:0h23m53s) 
CPU  0 inst:  316000000 cyc:  364996014 now IPC :0.28509: AVG IPC :0.86260: L2-Pf-HR :0.79511: L2-HR :0.78537: (Sim:0h24m2s) 
CPU  0 inst:  317000000 cyc:  368502887 now IPC :0.28515: AVG IPC :0.85709: L2-Pf-HR :0.79519: L2-HR :0.78540: (Sim:0h24m11s) 
CPU  0 inst:  318000001 cyc:  372010296 now IPC :0.28511: AVG IPC :0.85168: L2-Pf-HR :0.79527: L2-HR :0.78543: (Sim:0h24m20s) 
CPU  0 inst:  319000000 cyc:  375517153 now IPC :0.28516: AVG IPC :0.84638: L2-Pf-HR :0.79534: L2-HR :0.78546: (Sim:0h24m29s) 
CPU  0 inst:  320000000 cyc:  379023615 now IPC :0.28519: AVG IPC :0.84117: L2-Pf-HR :0.79541: L2-HR :0.78549: (Sim:0h24m35s) 
CPU  0 inst:  321000000 cyc:  382530083 now IPC :0.28519: AVG IPC :0.83606: L2-Pf-HR :0.79549: L2-HR :0.78552: (Sim:0h24m40s) 
CPU  0 inst:  322000002 cyc:  386036950 now IPC :0.28516: AVG IPC :0.83105: L2-Pf-HR :0.79557: L2-HR :0.78555: (Sim:0h24m46s) 
CPU  0 inst:  323000002 cyc:  389542713 now IPC :0.28524: AVG IPC :0.82612: L2-Pf-HR :0.79565: L2-HR :0.78558: (Sim:0h24m52s) 
CPU  0 inst:  324000000 cyc:  393049043 now IPC :0.28520: AVG IPC :0.82128: L2-Pf-HR :0.79572: L2-HR :0.78561: (Sim:0h24m59s) 
CPU  0 inst:  325000000 cyc:  396556418 now IPC :0.28511: AVG IPC :0.81653: L2-Pf-HR :0.79579: L2-HR :0.78563: (Sim:0h25m5s) 
CPU  0 inst:  326000001 cyc:  400063006 now IPC :0.28518: AVG IPC :0.81186: L2-Pf-HR :0.79586: L2-HR :0.78566: (Sim:0h25m11s) 
CPU  0 inst:  327000001 cyc:  402065193 now IPC :0.49945: AVG IPC :0.81030: L2-Pf-HR :0.79554: L2-HR :0.78533: (Sim:0h25m16s) 
CPU  0 inst:  328000000 cyc:  402602267 now IPC :1.86194: AVG IPC :0.81171: L2-Pf-HR :0.79552: L2-HR :0.78533: (Sim:0h25m19s) 
CPU  0 inst:  329000003 cyc:  403249298 now IPC :1.54553: AVG IPC :0.81289: L2-Pf-HR :0.79549: L2-HR :0.78533: (Sim:0h25m22s) 
CPU  0 inst:  330000002 cyc:  403833677 now IPC :1.71122: AVG IPC :0.81419: L2-Pf-HR :0.79552: L2-HR :0.78538: (Sim:0h25m25s) 
CPU  0 inst:  331000001 cyc:  404347538 now IPC :1.94605: AVG IPC :0.81563: L2-Pf-HR :0.79542: L2-HR :0.78531: (Sim:0h25m28s) 
CPU  0 inst:  332000000 cyc:  404897955 now IPC :1.81680: AVG IPC :0.81700: L2-Pf-HR :0.79525: L2-HR :0.78518: (Sim:0h25m31s) 
CPU  0 inst:  333000003 cyc:  405464336 now IPC :1.76560: AVG IPC :0.81833: L2-Pf-HR :0.79533: L2-HR :0.78527: (Sim:0h25m34s) 
CPU  0 inst:  334000001 cyc:  405982897 now IPC :1.92841: AVG IPC :0.81975: L2-Pf-HR :0.79522: L2-HR :0.78517: (Sim:0h25m37s) 
CPU  0 inst:  335000001 cyc:  406730905 now IPC :1.33688: AVG IPC :0.82070: L2-Pf-HR :0.79511: L2-HR :0.78510: (Sim:0h25m40s) 
CPU  0 inst:  336000000 cyc:  407272017 now IPC :1.84804: AVG IPC :0.82207: L2-Pf-HR :0.79510: L2-HR :0.78510: (Sim:0h25m44s) 
CPU  0 inst:  337000001 cyc:  407810519 now IPC :1.85701: AVG IPC :0.82344: L2-Pf-HR :0.79504: L2-HR :0.78504: (Sim:0h25m48s) 
CPU  0 inst:  338000003 cyc:  408472534 now IPC :1.51054: AVG IPC :0.82456: L2-Pf-HR :0.79511: L2-HR :0.78515: (Sim:0h25m52s) 
CPU  0 inst:  339000000 cyc:  408990451 now IPC :1.93081: AVG IPC :0.82596: L2-Pf-HR :0.79504: L2-HR :0.78510: (Sim:0h25m57s) 
CPU  0 inst:  340000000 cyc:  409503300 now IPC :1.94989: AVG IPC :0.82737: L2-Pf-HR :0.79498: L2-HR :0.78506: (Sim:0h26m1s) 
CPU  0 inst:  341000000 cyc:  410060689 now IPC :1.79408: AVG IPC :0.82869: L2-Pf-HR :0.79517: L2-HR :0.78527: (Sim:0h26m5s) 
CPU  0 inst:  342000001 cyc:  410634085 now IPC :1.74400: AVG IPC :0.82997: L2-Pf-HR :0.79492: L2-HR :0.78503: (Sim:0h26m10s) 
CPU  0 inst:  343000002 cyc:  411175590 now IPC :1.84671: AVG IPC :0.83131: L2-Pf-HR :0.79488: L2-HR :0.78501: (Sim:0h26m14s) 
CPU  0 inst:  344000000 cyc:  411916092 now IPC :1.35043: AVG IPC :0.83225: L2-Pf-HR :0.79474: L2-HR :0.78491: (Sim:0h26m19s) 
CPU  0 inst:  345000003 cyc:  412439632 now IPC :1.91008: AVG IPC :0.83362: L2-Pf-HR :0.79469: L2-HR :0.78486: (Sim:0h26m23s) 
CPU  0 inst:  346000000 cyc:  413053912 now IPC :1.62792: AVG IPC :0.83480: L2-Pf-HR :0.79468: L2-HR :0.78488: (Sim:0h26m28s) 
CPU  0 inst:  347000000 cyc:  413647516 now IPC :1.68462: AVG IPC :0.83602: L2-Pf-HR :0.79467: L2-HR :0.78489: (Sim:0h26m32s) 
CPU  0 inst:  348000000 cyc:  414161640 now IPC :1.94506: AVG IPC :0.83740: L2-Pf-HR :0.79461: L2-HR :0.78485: (Sim:0h26m37s) 
CPU  0 inst:  349000003 cyc:  414727114 now IPC :1.76843: AVG IPC :0.83868: L2-Pf-HR :0.79450: L2-HR :0.78477: (Sim:0h26m41s) 
CPU  0 inst:  350000000 cyc:  415295203 now IPC :1.76028: AVG IPC :0.83994: L2-Pf-HR :0.79457: L2-HR :0.78485: (Sim:0h26m46s) 
CPU  0 inst:  351000001 cyc:  415820407 now IPC :1.90402: AVG IPC :0.84129: L2-Pf-HR :0.79446: L2-HR :0.78473: (Sim:0h26m50s) 
CPU  0 inst:  352000000 cyc:  416566051 now IPC :1.34112: AVG IPC :0.84218: L2-Pf-HR :0.79437: L2-HR :0.78470: (Sim:0h26m55s) 
CPU  0 inst:  353000000 cyc:  417105565 now IPC :1.85352: AVG IPC :0.84350: L2-Pf-HR :0.79430: L2-HR :0.78463: (Sim:0h26m59s) 
CPU  0 inst:  354000003 cyc:  417652462 now IPC :1.82850: AVG IPC :0.84479: L2-Pf-HR :0.79420: L2-HR :0.78455: (Sim:0h27m3s) 
CPU  0 inst:  355000002 cyc:  418314007 now IPC :1.51161: AVG IPC :0.84585: L2-Pf-HR :0.79427: L2-HR :0.78465: (Sim:0h27m8s) 
CPU  0 inst:  356000000 cyc:  418834376 now IPC :1.92171: AVG IPC :0.84719: L2-Pf-HR :0.79419: L2-HR :0.78459: (Sim:0h27m12s) 
CPU  0 inst:  357000002 cyc:  419351293 now IPC :1.93455: AVG IPC :0.84853: L2-Pf-HR :0.79412: L2-HR :0.78453: (Sim:0h27m17s) 
CPU  0 inst:  358000003 cyc:  419916360 now IPC :1.76970: AVG IPC :0.84977: L2-Pf-HR :0.79429: L2-HR :0.78473: (Sim:0h27m21s) 
CPU  0 inst:  359000000 cyc:  420473591 now IPC :1.79458: AVG IPC :0.85103: L2-Pf-HR :0.79408: L2-HR :0.78452: (Sim:0h27m25s) 
CPU  0 inst:  360000000 cyc:  421013698 now IPC :1.85149: AVG IPC :0.85231: L2-Pf-HR :0.79409: L2-HR :0.78455: (Sim:0h27m30s) 
CPU  0 inst:  361000003 cyc:  421759977 now IPC :1.33999: AVG IPC :0.85318: L2-Pf-HR :0.79393: L2-HR :0.78442: (Sim:0h27m35s) 
CPU  0 inst:  362000002 cyc:  422285713 now IPC :1.90209: AVG IPC :0.85449: L2-Pf-HR :0.79389: L2-HR :0.78439: (Sim:0h27m39s) 
CPU  0 inst:  363000001 cyc:  422896732 now IPC :1.63661: AVG IPC :0.85562: L2-Pf-HR :0.79394: L2-HR :0.78446: (Sim:0h27m43s) 
CPU  0 inst:  364000000 cyc:  423493982 now IPC :1.67434: AVG IPC :0.85678: L2-Pf-HR :0.79390: L2-HR :0.78445: (Sim:0h27m48s) 
CPU  0 inst:  365000000 cyc:  424008544 now IPC :1.94340: AVG IPC :0.85810: L2-Pf-HR :0.79382: L2-HR :0.78439: (Sim:0h27m52s) 
CPU  0 inst:  366000001 cyc:  424567553 now IPC :1.78888: AVG IPC :0.85933: L2-Pf-HR :0.79375: L2-HR :0.78434: (Sim:0h27m57s) 
CPU  0 inst:  367000001 cyc:  425137661 now IPC :1.75405: AVG IPC :0.86053: L2-Pf-HR :0.79378: L2-HR :0.78439: (Sim:0h28m1s) 
CPU  0 inst:  368000000 cyc:  425671088 now IPC :1.87467: AVG IPC :0.86180: L2-Pf-HR :0.79366: L2-HR :0.78426: (Sim:0h28m5s) 
CPU  0 inst:  369000000 cyc:  426416510 now IPC :1.34152: AVG IPC :0.86264: L2-Pf-HR :0.79365: L2-HR :0.78429: (Sim:0h28m10s) 
CPU  0 inst:  370000003 cyc:  426950604 now IPC :1.87234: AVG IPC :0.86391: L2-Pf-HR :0.79361: L2-HR :0.78425: (Sim:0h28m14s) 
CPU  0 inst:  371000002 cyc:  427561871 now IPC :1.63594: AVG IPC :0.86502: L2-Pf-HR :0.79346: L2-HR :0.78412: (Sim:0h28m19s) 
CPU  0 inst:  372000000 cyc:  428159973 now IPC :1.67195: AVG IPC :0.86615: L2-Pf-HR :0.79362: L2-HR :0.78430: (Sim:0h28m24s) 
CPU  0 inst:  373000002 cyc:  428681608 now IPC :1.91705: AVG IPC :0.86743: L2-Pf-HR :0.79358: L2-HR :0.78429: (Sim:0h28m28s) 
CPU  0 inst:  374000000 cyc:  429207667 now IPC :1.90092: AVG IPC :0.86870: L2-Pf-HR :0.79353: L2-HR :0.78424: (Sim:0h28m32s) 
CPU  0 inst:  375000002 cyc:  429805738 now IPC :1.67205: AVG IPC :0.86982: L2-Pf-HR :0.79363: L2-HR :0.78437: (Sim:0h28m37s) 
CPU  0 inst:  376000000 cyc:  430327547 now IPC :1.91641: AVG IPC :0.87109: L2-Pf-HR :0.79359: L2-HR :0.78431: (Sim:0h28m41s) 
CPU  0 inst:  377000001 cyc:  430869271 now IPC :1.84596: AVG IPC :0.87232: L2-Pf-HR :0.79370: L2-HR :0.78443: (Sim:0h28m45s) 
CPU  0 inst:  378000001 cyc:  431618147 now IPC :1.33533: AVG IPC :0.87312: L2-Pf-HR :0.79350: L2-HR :0.78425: (Sim:0h28m50s) 
CPU  0 inst:  379000001 cyc:  432142399 now IPC :1.90748: AVG IPC :0.87438: L2-Pf-HR :0.79348: L2-HR :0.78424: (Sim:0h28m54s) 
CPU  0 inst:  380000000 cyc:  432757173 now IPC :1.62661: AVG IPC :0.87545: L2-Pf-HR :0.79355: L2-HR :0.78433: (Sim:0h28m59s) 
CPU  0 inst:  381000001 cyc:  433349792 now IPC :1.68743: AVG IPC :0.87657: L2-Pf-HR :0.79347: L2-HR :0.78428: (Sim:0h29m3s) 
CPU  0 inst:  382000000 cyc:  433866300 now IPC :1.93608: AVG IPC :0.87783: L2-Pf-HR :0.79339: L2-HR :0.78420: (Sim:0h29m8s) 
CPU  0 inst:  383000000 cyc:  434423196 now IPC :1.79567: AVG IPC :0.87901: L2-Pf-HR :0.79337: L2-HR :0.78422: (Sim:0h29m11s) 
CPU  0 inst:  384000000 cyc:  434995429 now IPC :1.74754: AVG IPC :0.88015: L2-Pf-HR :0.79336: L2-HR :0.78421: (Sim:0h29m14s) 
CPU  0 inst:  385000003 cyc:  435541629 now IPC :1.83084: AVG IPC :0.88135: L2-Pf-HR :0.79319: L2-HR :0.78405: (Sim:0h29m17s) 
CPU  0 inst:  386000000 cyc:  436274641 now IPC :1.36423: AVG IPC :0.88216: L2-Pf-HR :0.79322: L2-HR :0.78411: (Sim:0h29m20s) 
CPU  0 inst:  387000001 cyc:  436803204 now IPC :1.89192: AVG IPC :0.88339: L2-Pf-HR :0.79318: L2-HR :0.78407: (Sim:0h29m23s) 
CPU  0 inst:  388000000 cyc:  437425462 now IPC :1.60705: AVG IPC :0.88442: L2-Pf-HR :0.79305: L2-HR :0.78397: (Sim:0h29m26s) 
CPU  0 inst:  389000003 cyc:  438015736 now IPC :1.69413: AVG IPC :0.88551: L2-Pf-HR :0.79318: L2-HR :0.78412: (Sim:0h29m29s) 
CPU  0 inst:  390000001 cyc:  438537346 now IPC :1.91714: AVG IPC :0.88674: L2-Pf-HR :0.79313: L2-HR :0.78409: (Sim:0h29m32s) 
CPU  0 inst:  391000002 cyc:  439072880 now IPC :1.86730: AVG IPC :0.88794: L2-Pf-HR :0.79303: L2-HR :0.78400: (Sim:0h29m35s) 
CPU  0 inst:  392000000 cyc:  439665545 now IPC :1.68729: AVG IPC :0.88902: L2-Pf-HR :0.79312: L2-HR :0.78411: (Sim:0h29m38s) 
CPU  0 inst:  393000002 cyc:  440188197 now IPC :1.91332: AVG IPC :0.89024: L2-Pf-HR :0.79305: L2-HR :0.78403: (Sim:0h29m41s) 
CPU  0 inst:  394000000 cyc:  440789875 now IPC :1.66202: AVG IPC :0.89129: L2-Pf-HR :0.79315: L2-HR :0.78415: (Sim:0h29m44s) 
CPU  0 inst:  395000003 cyc:  441491070 now IPC :1.42614: AVG IPC :0.89215: L2-Pf-HR :0.79297: L2-HR :0.78399: (Sim:0h29m47s) 
CPU  0 inst:  396000000 cyc:  442014444 now IPC :1.91067: AVG IPC :0.89335: L2-Pf-HR :0.79296: L2-HR :0.78398: (Sim:0h29m50s) 
CPU  0 inst:  397000002 cyc:  442622608 now IPC :1.64430: AVG IPC :0.89439: L2-Pf-HR :0.79307: L2-HR :0.78411: (Sim:0h29m53s) 
CPU  0 inst:  398000003 cyc:  443222791 now IPC :1.66616: AVG IPC :0.89544: L2-Pf-HR :0.79300: L2-HR :0.78406: (Sim:0h29m57s) 
CPU  0 inst:  399000002 cyc:  443742112 now IPC :1.92559: AVG IPC :0.89664: L2-Pf-HR :0.79296: L2-HR :0.78403: (Sim:0h30m1s) 
CPU  0 inst:  400000000 cyc:  444298479 now IPC :1.79737: AVG IPC :0.89777: L2-Pf-HR :0.79301: L2-HR :0.78410: (Sim:0h30m4s) 
CPU  0 inst:  401000003 cyc:  444865559 now IPC :1.76342: AVG IPC :0.89888: L2-Pf-HR :0.79300: L2-HR :0.78409: (Sim:0h30m7s) 
CPU  0 inst:  402000003 cyc:  445412382 now IPC :1.82875: AVG IPC :0.90003: L2-Pf-HR :0.79290: L2-HR :0.78400: (Sim:0h30m10s) 
CPU  0 inst:  403000002 cyc:  446156315 now IPC :1.34421: AVG IPC :0.90077: L2-Pf-HR :0.79294: L2-HR :0.78405: (Sim:0h30m13s) 
CPU  0 inst:  404000000 cyc:  446677536 now IPC :1.91857: AVG IPC :0.90196: L2-Pf-HR :0.79291: L2-HR :0.78403: (Sim:0h30m16s) 
CPU  0 inst:  405000000 cyc:  447299919 now IPC :1.60673: AVG IPC :0.90294: L2-Pf-HR :0.79281: L2-HR :0.78395: (Sim:0h30m19s) 
CPU  0 inst:  406000002 cyc:  447891084 now IPC :1.69158: AVG IPC :0.90398: L2-Pf-HR :0.79291: L2-HR :0.78408: (Sim:0h30m22s) 
CPU  0 inst:  407000002 cyc:  448410599 now IPC :1.92487: AVG IPC :0.90517: L2-Pf-HR :0.79285: L2-HR :0.78403: (Sim:0h30m25s) 
CPU  0 inst:  408000000 cyc:  448973054 now IPC :1.77792: AVG IPC :0.90626: L2-Pf-HR :0.79270: L2-HR :0.78390: (Sim:0h30m28s) 
CPU  0 inst:  409000002 cyc:  449541894 now IPC :1.75797: AVG IPC :0.90734: L2-Pf-HR :0.79284: L2-HR :0.78406: (Sim:0h30m31s) 
CPU  0 inst:  410000002 cyc:  450065410 now IPC :1.91016: AVG IPC :0.90851: L2-Pf-HR :0.79276: L2-HR :0.78396: (Sim:0h30m35s) 
CPU  0 inst:  411000000 cyc:  450766343 now IPC :1.42667: AVG IPC :0.90932: L2-Pf-HR :0.79271: L2-HR :0.78395: (Sim:0h30m40s) 
CPU  0 inst:  412000000 cyc:  451355411 now IPC :1.69760: AVG IPC :0.91035: L2-Pf-HR :0.79265: L2-HR :0.78390: (Sim:0h30m44s) 
CPU  0 inst:  413000003 cyc:  451880331 now IPC :1.90506: AVG IPC :0.91151: L2-Pf-HR :0.79263: L2-HR :0.78388: (Sim:0h30m47s) 
CPU  0 inst:  414000000 cyc:  452492392 now IPC :1.63382: AVG IPC :0.91249: L2-Pf-HR :0.79278: L2-HR :0.78405: (Sim:0h30m50s) 
CPU  0 inst:  415000000 cyc:  453090569 now IPC :1.67175: AVG IPC :0.91349: L2-Pf-HR :0.79263: L2-HR :0.78392: (Sim:0h30m53s) 
CPU  0 inst:  416000000 cyc:  453602625 now IPC :1.95291: AVG IPC :0.91467: L2-Pf-HR :0.79259: L2-HR :0.78388: (Sim:0h30m56s) 
CPU  0 inst:  417000002 cyc:  454163187 now IPC :1.78393: AVG IPC :0.91575: L2-Pf-HR :0.79266: L2-HR :0.78397: (Sim:0h30m59s) 
CPU  0 inst:  418000002 cyc:  454738595 now IPC :1.73790: AVG IPC :0.91679: L2-Pf-HR :0.79257: L2-HR :0.78390: (Sim:0h31m2s) 
CPU  0 inst:  419000000 cyc:  455284007 now IPC :1.83347: AVG IPC :0.91789: L2-Pf-HR :0.79246: L2-HR :0.78379: (Sim:0h31m5s) 
CPU  0 inst:  420000000 cyc:  456014599 now IPC :1.36875: AVG IPC :0.91861: L2-Pf-HR :0.79243: L2-HR :0.78379: (Sim:0h31m8s) 
CPU  0 inst:  421000001 cyc:  456537266 now IPC :1.91327: AVG IPC :0.91975: L2-Pf-HR :0.79241: L2-HR :0.78378: (Sim:0h31m12s) 
CPU  0 inst:  422000002 cyc:  457153453 now IPC :1.62289: AVG IPC :0.92070: L2-Pf-HR :0.79236: L2-HR :0.78374: (Sim:0h31m15s) 
CPU  0 inst:  423000001 cyc:  457739953 now IPC :1.70503: AVG IPC :0.92171: L2-Pf-HR :0.79244: L2-HR :0.78384: (Sim:0h31m19s) 
CPU  0 inst:  424000000 cyc:  458262419 now IPC :1.91400: AVG IPC :0.92284: L2-Pf-HR :0.79238: L2-HR :0.78379: (Sim:0h31m22s) 
CPU  0 inst:  425000002 cyc:  458825346 now IPC :1.77643: AVG IPC :0.92389: L2-Pf-HR :0.79224: L2-HR :0.78367: (Sim:0h31m25s) 
CPU  0 inst:  426000001 cyc:  459390888 now IPC :1.76821: AVG IPC :0.92493: L2-Pf-HR :0.79237: L2-HR :0.78382: (Sim:0h31m29s) 
CPU  0 inst:  427000001 cyc:  459914353 now IPC :1.91035: AVG IPC :0.92606: L2-Pf-HR :0.79228: L2-HR :0.78371: (Sim:0h31m34s) 
CPU  0 inst:  428000000 cyc:  460658065 now IPC :1.34461: AVG IPC :0.92674: L2-Pf-HR :0.79220: L2-HR :0.78366: (Sim:0h31m38s) 
CPU  0 inst:  429000003 cyc:  461205450 now IPC :1.82687: AVG IPC :0.92781: L2-Pf-HR :0.79218: L2-HR :0.78365: (Sim:0h31m43s) 
CPU  0 inst:  430000002 cyc:  461733709 now IPC :1.89301: AVG IPC :0.92891: L2-Pf-HR :0.79216: L2-HR :0.78363: (Sim:0h31m47s) 
CPU  0 inst:  431000000 cyc:  462349226 now IPC :1.62465: AVG IPC :0.92984: L2-Pf-HR :0.79234: L2-HR :0.78383: (Sim:0h31m51s) 
CPU  0 inst:  432000000 cyc:  462937165 now IPC :1.70086: AVG IPC :0.93082: L2-Pf-HR :0.79216: L2-HR :0.78367: (Sim:0h31m56s) 
CPU  0 inst:  433000003 cyc:  463450637 now IPC :1.94753: AVG IPC :0.93195: L2-Pf-HR :0.79210: L2-HR :0.78363: (Sim:0h32m0s) 
CPU  0 inst:  434000000 cyc:  464006833 now IPC :1.79792: AVG IPC :0.93299: L2-Pf-HR :0.79220: L2-HR :0.78375: (Sim:0h32m5s) 
CPU  0 inst:  435000002 cyc:  464583635 now IPC :1.73370: AVG IPC :0.93399: L2-Pf-HR :0.79209: L2-HR :0.78364: (Sim:0h32m9s) 
CPU  0 inst:  436000000 cyc:  465129638 now IPC :1.83149: AVG IPC :0.93504: L2-Pf-HR :0.79203: L2-HR :0.78359: (Sim:0h32m13s) 
CPU  0 inst:  437000001 cyc:  465864919 now IPC :1.36003: AVG IPC :0.93572: L2-Pf-HR :0.79201: L2-HR :0.78359: (Sim:0h32m18s) 
CPU  0 inst:  438000000 cyc:  466387134 now IPC :1.91492: AVG IPC :0.93681: L2-Pf-HR :0.79198: L2-HR :0.78357: (Sim:0h32m22s) 
CPU  0 inst:  439000000 cyc:  467009409 now IPC :1.60701: AVG IPC :0.93771: L2-Pf-HR :0.79196: L2-HR :0.78356: (Sim:0h32m27s) 
CPU  0 inst:  440000000 cyc:  467601362 now IPC :1.68932: AVG IPC :0.93866: L2-Pf-HR :0.79204: L2-HR :0.78364: (Sim:0h32m31s) 
CPU  0 inst:  441000003 cyc:  468116563 now IPC :1.94100: AVG IPC :0.93977: L2-Pf-HR :0.79207: L2-HR :0.78368: (Sim:0h32m36s) 
CPU  0 inst:  442000000 cyc:  468679791 now IPC :1.77547: AVG IPC :0.94077: L2-Pf-HR :0.79200: L2-HR :0.78363: (Sim:0h32m40s) 
CPU  0 inst:  443000003 cyc:  469244415 now IPC :1.77110: AVG IPC :0.94178: L2-Pf-HR :0.79219: L2-HR :0.78381: (Sim:0h32m45s) 
CPU  0 inst:  444000000 cyc:  469764294 now IPC :1.92352: AVG IPC :0.94286: L2-Pf-HR :0.79223: L2-HR :0.78384: (Sim:0h32m49s) 
CPU  0 inst:  445000003 cyc:  470511183 now IPC :1.33889: AVG IPC :0.94349: L2-Pf-HR :0.79221: L2-HR :0.78385: (Sim:0h32m54s) 
CPU  0 inst:  446000002 cyc:  471056295 now IPC :1.83448: AVG IPC :0.94453: L2-Pf-HR :0.79219: L2-HR :0.78383: (Sim:0h32m58s) 
CPU  0 inst:  447000003 cyc:  471595093 now IPC :1.85599: AVG IPC :0.94557: L2-Pf-HR :0.79215: L2-HR :0.78380: (Sim:0h33m2s) 
CPU  0 inst:  448000000 cyc:  472226792 now IPC :1.58303: AVG IPC :0.94643: L2-Pf-HR :0.79226: L2-HR :0.78393: (Sim:0h33m7s) 
CPU  0 inst:  449000000 cyc:  472791855 now IPC :1.76971: AVG IPC :0.94741: L2-Pf-HR :0.79222: L2-HR :0.78389: (Sim:0h33m11s) 
CPU  0 inst:  450000001 cyc:  473305932 now IPC :1.94524: AVG IPC :0.94850: L2-Pf-HR :0.79219: L2-HR :0.78388: (Sim:0h33m15s) 
CPU  0 inst:  451000002 cyc:  473860509 now IPC :1.80318: AVG IPC :0.94950: L2-Pf-HR :0.79236: L2-HR :0.78404: (Sim:0h33m19s) 
CPU  0 inst:  452000000 cyc:  474441789 now IPC :1.72034: AVG IPC :0.95045: L2-Pf-HR :0.79225: L2-HR :0.78394: (Sim:0h33m24s) 
CPU  0 inst:  453000000 cyc:  474983306 now IPC :1.84666: AVG IPC :0.95147: L2-Pf-HR :0.79227: L2-HR :0.78396: (Sim:0h33m28s) 
CPU  0 inst:  454000001 cyc:  475733644 now IPC :1.33273: AVG IPC :0.95207: L2-Pf-HR :0.79220: L2-HR :0.78391: (Sim:0h33m33s) 
CPU  0 inst:  455000001 cyc:  476257295 now IPC :1.90967: AVG IPC :0.95313: L2-Pf-HR :0.79218: L2-HR :0.78389: (Sim:0h33m37s) 
CPU  0 inst:  456000000 cyc:  476872571 now IPC :1.62529: AVG IPC :0.95400: L2-Pf-HR :0.79219: L2-HR :0.78391: (Sim:0h33m41s) 
CPU  0 inst:  457000002 cyc:  477467761 now IPC :1.68014: AVG IPC :0.95490: L2-Pf-HR :0.79219: L2-HR :0.78394: (Sim:0h33m46s) 
CPU  0 inst:  458000002 cyc:  477984268 now IPC :1.93608: AVG IPC :0.95597: L2-Pf-HR :0.79215: L2-HR :0.78391: (Sim:0h33m50s) 
CPU  0 inst:  459000001 cyc:  478547314 now IPC :1.77605: AVG IPC :0.95693: L2-Pf-HR :0.79206: L2-HR :0.78383: (Sim:0h33m54s) 
CPU  0 inst:  460000000 cyc:  479115736 now IPC :1.75925: AVG IPC :0.95789: L2-Pf-HR :0.79214: L2-HR :0.78392: (Sim:0h33m59s) 
CPU  0 inst:  461000001 cyc:  479635646 now IPC :1.92341: AVG IPC :0.95894: L2-Pf-HR :0.79206: L2-HR :0.78384: (Sim:0h34m3s) 
CPU  0 inst:  462000002 cyc:  480384786 now IPC :1.33487: AVG IPC :0.95952: L2-Pf-HR :0.79204: L2-HR :0.78384: (Sim:0h34m7s) 
CPU  0 inst:  463000000 cyc:  480926084 now IPC :1.84741: AVG IPC :0.96053: L2-Pf-HR :0.79202: L2-HR :0.78382: (Sim:0h34m11s) 
CPU  0 inst:  464000000 cyc:  481473179 now IPC :1.82784: AVG IPC :0.96151: L2-Pf-HR :0.79197: L2-HR :0.78377: (Sim:0h34m15s) 
CPU  0 inst:  465000002 cyc:  482137726 now IPC :1.50479: AVG IPC :0.96226: L2-Pf-HR :0.79204: L2-HR :0.78386: (Sim:0h34m19s) 
CPU  0 inst:  466000001 cyc:  482657373 now IPC :1.92438: AVG IPC :0.96330: L2-Pf-HR :0.79204: L2-HR :0.78387: (Sim:0h34m22s) 
CPU  0 inst:  467000001 cyc:  483173136 now IPC :1.93888: AVG IPC :0.96434: L2-Pf-HR :0.79203: L2-HR :0.78387: (Sim:0h34m26s) 
CPU  0 inst:  468000000 cyc:  483732820 now IPC :1.78672: AVG IPC :0.96530: L2-Pf-HR :0.79224: L2-HR :0.78408: (Sim:0h34m30s) 
CPU  0 inst:  469000001 cyc:  484300921 now IPC :1.76025: AVG IPC :0.96623: L2-Pf-HR :0.79210: L2-HR :0.78394: (Sim:0h34m34s) 
CPU  0 inst:  470000002 cyc:  484842974 now IPC :1.84484: AVG IPC :0.96722: L2-Pf-HR :0.79214: L2-HR :0.78398: (Sim:0h34m37s) 
CPU  0 inst:  471000002 cyc:  485592480 now IPC :1.33421: AVG IPC :0.96778: L2-Pf-HR :0.79204: L2-HR :0.78390: (Sim:0h34m41s) 
CPU  0 inst:  472000000 cyc:  486118425 now IPC :1.90134: AVG IPC :0.96880: L2-Pf-HR :0.79201: L2-HR :0.78388: (Sim:0h34m43s) 
CPU  0 inst:  473000000 cyc:  486733394 now IPC :1.62610: AVG IPC :0.96963: L2-Pf-HR :0.79205: L2-HR :0.78393: (Sim:0h34m46s) 
CPU  0 inst:  474000003 cyc:  487332832 now IPC :1.66823: AVG IPC :0.97049: L2-Pf-HR :0.79206: L2-HR :0.78395: (Sim:0h34m49s) 
CPU  0 inst:  475000003 cyc:  487849952 now IPC :1.93379: AVG IPC :0.97151: L2-Pf-HR :0.79206: L2-HR :0.78396: (Sim:0h34m52s) 
CPU  0 inst:  476000000 cyc:  488412990 now IPC :1.77607: AVG IPC :0.97244: L2-Pf-HR :0.79205: L2-HR :0.78396: (Sim:0h34m55s) 
CPU  0 inst:  477000001 cyc:  488985556 now IPC :1.74653: AVG IPC :0.97335: L2-Pf-HR :0.79214: L2-HR :0.78405: (Sim:0h34m59s) 
CPU  0 inst:  478000002 cyc:  489513966 now IPC :1.89247: AVG IPC :0.97434: L2-Pf-HR :0.79212: L2-HR :0.78402: (Sim:0h35m3s) 
CPU  0 inst:  479000003 cyc:  490257944 now IPC :1.34413: AVG IPC :0.97491: L2-Pf-HR :0.79210: L2-HR :0.78403: (Sim:0h35m7s) 
CPU  0 inst:  480000000 cyc:  490794131 now IPC :1.86502: AVG IPC :0.97588: L2-Pf-HR :0.79208: L2-HR :0.78401: (Sim:0h35m12s) 
CPU  0 inst:  481000000 cyc:  491370272 now IPC :1.73569: AVG IPC :0.97677: L2-Pf-HR :0.79201: L2-HR :0.78395: (Sim:0h35m16s) 
CPU  0 inst:  482000002 cyc:  492007274 now IPC :1.56986: AVG IPC :0.97754: L2-Pf-HR :0.79211: L2-HR :0.78407: (Sim:0h35m21s) 
CPU  0 inst:  483000001 cyc:  492530279 now IPC :1.91203: AVG IPC :0.97854: L2-Pf-HR :0.79206: L2-HR :0.78403: (Sim:0h35m25s) 
CPU  0 inst:  484000000 cyc:  493054473 now IPC :1.90769: AVG IPC :0.97953: L2-Pf-HR :0.79200: L2-HR :0.78397: (Sim:0h35m29s) 
CPU  0 inst:  485000003 cyc:  493637466 now IPC :1.71529: AVG IPC :0.98040: L2-Pf-HR :0.79212: L2-HR :0.78411: (Sim:0h35m33s) 
CPU  0 inst:  486000002 cyc:  494183004 now IPC :1.83305: AVG IPC :0.98134: L2-Pf-HR :0.79203: L2-HR :0.78401: (Sim:0h35m38s) 
CPU  0 inst:  487000001 cyc:  494725716 now IPC :1.84260: AVG IPC :0.98229: L2-Pf-HR :0.79209: L2-HR :0.78408: (Sim:0h35m42s) 
CPU  0 inst:  488000000 cyc:  495481739 now IPC :1.32271: AVG IPC :0.98281: L2-Pf-HR :0.79198: L2-HR :0.78399: (Sim:0h35m47s) 
CPU  0 inst:  489000002 cyc:  496012533 now IPC :1.88397: AVG IPC :0.98377: L2-Pf-HR :0.79195: L2-HR :0.78396: (Sim:0h35m51s) 
CPU  0 inst:  490000001 cyc:  496624445 now IPC :1.63422: AVG IPC :0.98458: L2-Pf-HR :0.79202: L2-HR :0.78403: (Sim:0h35m55s) 
CPU  0 inst:  491000000 cyc:  497226075 now IPC :1.66215: AVG IPC :0.98540: L2-Pf-HR :0.79199: L2-HR :0.78403: (Sim:0h36m0s) 
CPU  0 inst:  492000000 cyc:  497745566 now IPC :1.92496: AVG IPC :0.98638: L2-Pf-HR :0.79198: L2-HR :0.78401: (Sim:0h36m4s) 
CPU  0 inst:  493000002 cyc:  498305277 now IPC :1.78664: AVG IPC :0.98728: L2-Pf-HR :0.79200: L2-HR :0.78405: (Sim:0h36m8s) 
CPU  0 inst:  494000001 cyc:  498873621 now IPC :1.75950: AVG IPC :0.98816: L2-Pf-HR :0.79206: L2-HR :0.78411: (Sim:0h36m13s) 
CPU  0 inst:  495000000 cyc:  499413873 now IPC :1.85099: AVG IPC :0.98910: L2-Pf-HR :0.79201: L2-HR :0.78405: (Sim:0h36m17s) 
CPU  0 inst:  496000000 cyc:  500156105 now IPC :1.34729: AVG IPC :0.98963: L2-Pf-HR :0.79201: L2-HR :0.78408: (Sim:0h36m22s) 
CPU  0 inst:  497000000 cyc:  500689496 now IPC :1.87480: AVG IPC :0.99058: L2-Pf-HR :0.79197: L2-HR :0.78404: (Sim:0h36m26s) 
CPU  0 inst:  498000000 cyc:  501302818 now IPC :1.63046: AVG IPC :0.99136: L2-Pf-HR :0.79186: L2-HR :0.78395: (Sim:0h36m31s) 
CPU  0 inst:  499000000 cyc:  501895446 now IPC :1.68740: AVG IPC :0.99218: L2-Pf-HR :0.79198: L2-HR :0.78408: (Sim:0h36m35s) 
CPU  0 inst:  500000000 cyc:  502417549 now IPC :1.91533: AVG IPC :0.99315: L2-Pf-HR :0.79198: L2-HR :0.78408: (Sim:0h36m39s) 
CPU  0 inst:  501000001 cyc:  502950208 now IPC :1.87738: AVG IPC :0.99408: L2-Pf-HR :0.79195: L2-HR :0.78405: (Sim:0h36m44s) 
CPU  0 inst:  502000000 cyc:  503546289 now IPC :1.67762: AVG IPC :0.99489: L2-Pf-HR :0.79207: L2-HR :0.78418: (Sim:0h36m48s) 
CPU  0 inst:  503000003 cyc:  504070914 now IPC :1.90613: AVG IPC :0.99584: L2-Pf-HR :0.79205: L2-HR :0.78416: (Sim:0h36m52s) 
CPU  0 inst:  504000000 cyc:  504618483 now IPC :1.82625: AVG IPC :0.99675: L2-Pf-HR :0.79216: L2-HR :0.78427: (Sim:0h36m57s) 
CPU  0 inst:  505000003 cyc:  505365272 now IPC :1.33907: AVG IPC :0.99725: L2-Pf-HR :0.79198: L2-HR :0.78410: (Sim:0h37m1s) 
CPU  0 inst:  506000000 cyc:  505887480 now IPC :1.91494: AVG IPC :0.99820: L2-Pf-HR :0.79195: L2-HR :0.78408: (Sim:0h37m6s) 
CPU  0 inst:  507000001 cyc:  506497418 now IPC :1.63951: AVG IPC :0.99898: L2-Pf-HR :0.79203: L2-HR :0.78417: (Sim:0h37m10s) 
CPU  0 inst:  508000000 cyc:  507090663 now IPC :1.68564: AVG IPC :0.99978: L2-Pf-HR :0.79195: L2-HR :0.78412: (Sim:0h37m14s) 
CPU  0 inst:  509000002 cyc:  507608682 now IPC :1.93043: AVG IPC :1.00073: L2-Pf-HR :0.79189: L2-HR :0.78406: (Sim:0h37m17s) 
CPU  0 inst:  510000001 cyc:  508166318 now IPC :1.79328: AVG IPC :1.00160: L2-Pf-HR :0.79191: L2-HR :0.78409: (Sim:0h37m21s) 
CPU  0 inst:  511000000 cyc:  508735378 now IPC :1.75728: AVG IPC :1.00245: L2-Pf-HR :0.79188: L2-HR :0.78407: (Sim:0h37m24s) 
CPU  0 inst:  512000000 cyc:  509281643 now IPC :1.83061: AVG IPC :1.00334: L2-Pf-HR :0.79176: L2-HR :0.78396: (Sim:0h37m27s) 
CPU  0 inst:  513000002 cyc:  510025193 now IPC :1.34490: AVG IPC :1.00384: L2-Pf-HR :0.79180: L2-HR :0.78400: (Sim:0h37m30s) 
CPU  0 inst:  514000003 cyc:  510545069 now IPC :1.92354: AVG IPC :1.00478: L2-Pf-HR :0.79177: L2-HR :0.78398: (Sim:0h37m33s) 
CPU  0 inst:  515000002 cyc:  511161696 now IPC :1.62172: AVG IPC :1.00552: L2-Pf-HR :0.79168: L2-HR :0.78390: (Sim:0h37m36s) 
CPU  0 inst:  516000000 cyc:  511751741 now IPC :1.69478: AVG IPC :1.00632: L2-Pf-HR :0.79177: L2-HR :0.78401: (Sim:0h37m39s) 
CPU  0 inst:  517000002 cyc:  512274578 now IPC :1.91265: AVG IPC :1.00725: L2-Pf-HR :0.79175: L2-HR :0.78399: (Sim:0h37m43s) 
CPU  0 inst:  518000003 cyc:  512812167 now IPC :1.86016: AVG IPC :1.00814: L2-Pf-HR :0.79170: L2-HR :0.78396: (Sim:0h37m46s) 
CPU  0 inst:  519000002 cyc:  513397902 now IPC :1.70726: AVG IPC :1.00894: L2-Pf-HR :0.79183: L2-HR :0.78409: (Sim:0h37m49s) 
CPU  0 inst:  520000000 cyc:  513920504 now IPC :1.91350: AVG IPC :1.00986: L2-Pf-HR :0.79181: L2-HR :0.78406: (Sim:0h37m52s) 
CPU  0 inst:  521000001 cyc:  514566079 now IPC :1.54901: AVG IPC :1.01054: L2-Pf-HR :0.79186: L2-HR :0.78412: (Sim:0h37m55s) 
CPU  0 inst:  522000001 cyc:  515209711 now IPC :1.55368: AVG IPC :1.01122: L2-Pf-HR :0.79175: L2-HR :0.78402: (Sim:0h37m58s) 
CPU  0 inst:  523000000 cyc:  515736550 now IPC :1.89811: AVG IPC :1.01213: L2-Pf-HR :0.79172: L2-HR :0.78399: (Sim:0h38m1s) 
CPU  0 inst:  524000000 cyc:  516348454 now IPC :1.63424: AVG IPC :1.01287: L2-Pf-HR :0.79183: L2-HR :0.78411: (Sim:0h38m4s) 
CPU  0 inst:  525000001 cyc:  516940725 now IPC :1.68842: AVG IPC :1.01364: L2-Pf-HR :0.79173: L2-HR :0.78404: (Sim:0h38m8s) 
CPU  0 inst:  526000003 cyc:  517459454 now IPC :1.92779: AVG IPC :1.01456: L2-Pf-HR :0.79168: L2-HR :0.78399: (Sim:0h38m10s) 
CPU  0 inst:  527000003 cyc:  518017377 now IPC :1.79236: AVG IPC :1.01540: L2-Pf-HR :0.79173: L2-HR :0.78406: (Sim:0h38m13s) 
CPU  0 inst:  528000000 cyc:  518593219 now IPC :1.73658: AVG IPC :1.01620: L2-Pf-HR :0.79169: L2-HR :0.78402: (Sim:0h38m17s) 
CPU  0 inst:  529000000 cyc:  519138223 now IPC :1.83485: AVG IPC :1.01706: L2-Pf-HR :0.79160: L2-HR :0.78392: (Sim:0h38m20s) 
CPU  0 inst:  530000000 cyc:  519880308 now IPC :1.34755: AVG IPC :1.01754: L2-Pf-HR :0.79161: L2-HR :0.78395: (Sim:0h38m23s) 
CPU  0 inst:  531000001 cyc:  520399991 now IPC :1.92425: AVG IPC :1.01844: L2-Pf-HR :0.79159: L2-HR :0.78394: (Sim:0h38m26s) 
CPU  0 inst:  532000000 cyc:  521023351 now IPC :1.60421: AVG IPC :1.01915: L2-Pf-HR :0.79155: L2-HR :0.78391: (Sim:0h38m29s) 
CPU  0 inst:  533000000 cyc:  521608882 now IPC :1.70785: AVG IPC :1.01992: L2-Pf-HR :0.79163: L2-HR :0.78400: (Sim:0h38m32s) 
CPU  0 inst:  534000001 cyc:  522132560 now IPC :1.90957: AVG IPC :1.02081: L2-Pf-HR :0.79162: L2-HR :0.78399: (Sim:0h38m35s) 
CPU  0 inst:  535000002 cyc:  522696451 now IPC :1.77339: AVG IPC :1.02163: L2-Pf-HR :0.79154: L2-HR :0.78393: (Sim:0h38m39s) 
CPU  0 inst:  536000000 cyc:  523254013 now IPC :1.79352: AVG IPC :1.02245: L2-Pf-HR :0.79171: L2-HR :0.78409: (Sim:0h38m43s) 
CPU  0 inst:  537000003 cyc:  523776444 now IPC :1.91413: AVG IPC :1.02334: L2-Pf-HR :0.79170: L2-HR :0.78407: (Sim:0h38m47s) 
CPU  0 inst:  538000002 cyc:  524520261 now IPC :1.34442: AVG IPC :1.02380: L2-Pf-HR :0.79167: L2-HR :0.78406: (Sim:0h38m52s) 
CPU  0 inst:  539000003 cyc:  525072332 now IPC :1.81136: AVG IPC :1.02463: L2-Pf-HR :0.79165: L2-HR :0.78405: (Sim:0h38m56s) 
CPU  0 inst:  540000000 cyc:  525597042 now IPC :1.90581: AVG IPC :1.02551: L2-Pf-HR :0.79165: L2-HR :0.78405: (Sim:0h39m1s) 
CPU  0 inst:  541000001 cyc:  526204315 now IPC :1.64671: AVG IPC :1.02623: L2-Pf-HR :0.79180: L2-HR :0.78420: (Sim:0h39m5s) 
CPU  0 inst:  542000001 cyc:  526809432 now IPC :1.65257: AVG IPC :1.02695: L2-Pf-HR :0.79168: L2-HR :0.78409: (Sim:0h39m10s) 
CPU  0 inst:  543000000 cyc:  527323550 now IPC :1.94508: AVG IPC :1.02785: L2-Pf-HR :0.79167: L2-HR :0.78409: (Sim:0h39m14s) 
CPU  0 inst:  544000000 cyc:  527885138 now IPC :1.78066: AVG IPC :1.02865: L2-Pf-HR :0.79177: L2-HR :0.78420: (Sim:0h39m18s) 
CPU  0 inst:  545000002 cyc:  528461610 now IPC :1.73469: AVG IPC :1.02942: L2-Pf-HR :0.79173: L2-HR :0.78416: (Sim:0h39m23s) 
CPU  0 inst:  546000001 cyc:  529007388 now IPC :1.83224: AVG IPC :1.03025: L2-Pf-HR :0.79169: L2-HR :0.78412: (Sim:0h39m26s) 
CPU  0 inst:  547000003 cyc:  529760106 now IPC :1.32852: AVG IPC :1.03067: L2-Pf-HR :0.79169: L2-HR :0.78412: (Sim:0h39m29s) 
CPU  0 inst:  548000000 cyc:  530282779 now IPC :1.91324: AVG IPC :1.03155: L2-Pf-HR :0.79166: L2-HR :0.78411: (Sim:0h39m32s) 
CPU  0 inst:  549000000 cyc:  530902267 now IPC :1.61424: AVG IPC :1.03223: L2-Pf-HR :0.79162: L2-HR :0.78408: (Sim:0h39m35s) 
CPU  0 inst:  550000002 cyc:  531492839 now IPC :1.69328: AVG IPC :1.03296: L2-Pf-HR :0.79167: L2-HR :0.78414: (Sim:0h39m39s) 
CPU  0 inst:  551000000 cyc:  532014711 now IPC :1.91617: AVG IPC :1.03383: L2-Pf-HR :0.79165: L2-HR :0.78412: (Sim:0h39m42s) 
CPU  0 inst:  552000000 cyc:  532580917 now IPC :1.76614: AVG IPC :1.03461: L2-Pf-HR :0.79159: L2-HR :0.78407: (Sim:0h39m45s) 
CPU  0 inst:  553000000 cyc:  533141974 now IPC :1.78235: AVG IPC :1.03540: L2-Pf-HR :0.79173: L2-HR :0.78422: (Sim:0h39m48s) 
CPU  0 inst:  554000002 cyc:  533666286 now IPC :1.90727: AVG IPC :1.03626: L2-Pf-HR :0.79172: L2-HR :0.78419: (Sim:0h39m51s) 
CPU  0 inst:  555000002 cyc:  534411226 now IPC :1.34239: AVG IPC :1.03669: L2-Pf-HR :0.79169: L2-HR :0.78417: (Sim:0h39m54s) 
CPU  0 inst:  556000000 cyc:  534956300 now IPC :1.83461: AVG IPC :1.03750: L2-Pf-HR :0.79166: L2-HR :0.78415: (Sim:0h39m57s) 
CPU  0 inst:  557000000 cyc:  535491211 now IPC :1.86947: AVG IPC :1.03833: L2-Pf-HR :0.79162: L2-HR :0.78412: (Sim:0h40m0s) 
CPU  0 inst:  558000000 cyc:  536110245 now IPC :1.61542: AVG IPC :1.03900: L2-Pf-HR :0.79173: L2-HR :0.78424: (Sim:0h40m3s) 
CPU  0 inst:  559000002 cyc:  536691271 now IPC :1.72110: AVG IPC :1.03974: L2-Pf-HR :0.79166: L2-HR :0.78417: (Sim:0h40m6s) 
CPU  0 inst:  560000000 cyc:  537206169 now IPC :1.94213: AVG IPC :1.04061: L2-Pf-HR :0.79165: L2-HR :0.78417: (Sim:0h40m9s) 
CPU  0 inst:  561000002 cyc:  537762452 now IPC :1.79765: AVG IPC :1.04139: L2-Pf-HR :0.79177: L2-HR :0.78431: (Sim:0h40m12s) 
CPU  0 inst:  562000000 cyc:  538337535 now IPC :1.73888: AVG IPC :1.04214: L2-Pf-HR :0.79172: L2-HR :0.78425: (Sim:0h40m15s) 
CPU  0 inst:  563000001 cyc:  538882787 now IPC :1.83402: AVG IPC :1.04294: L2-Pf-HR :0.79171: L2-HR :0.78424: (Sim:0h40m18s) 
CPU  0 inst:  564000000 cyc:  539622559 now IPC :1.35177: AVG IPC :1.04336: L2-Pf-HR :0.79167: L2-HR :0.78422: (Sim:0h40m23s) 
CPU  0 inst:  565000000 cyc:  540141785 now IPC :1.92594: AVG IPC :1.04421: L2-Pf-HR :0.79166: L2-HR :0.78421: (Sim:0h40m27s) 
CPU  0 inst:  566000000 cyc:  540760315 now IPC :1.61674: AVG IPC :1.04487: L2-Pf-HR :0.79164: L2-HR :0.78420: (Sim:0h40m31s) 
CPU  0 inst:  567000003 cyc:  541358095 now IPC :1.67286: AVG IPC :1.04556: L2-Pf-HR :0.79166: L2-HR :0.78423: (Sim:0h40m36s) 
CPU  0 inst:  568000000 cyc:  541873937 now IPC :1.93857: AVG IPC :1.04642: L2-Pf-HR :0.79165: L2-HR :0.78423: (Sim:0h40m40s) 
CPU  0 inst:  569000001 cyc:  542437431 now IPC :1.77464: AVG IPC :1.04717: L2-Pf-HR :0.79161: L2-HR :0.78419: (Sim:0h40m44s) 
CPU  0 inst:  570000003 cyc:  542999553 now IPC :1.77898: AVG IPC :1.04793: L2-Pf-HR :0.79173: L2-HR :0.78431: (Sim:0h40m49s) 
CPU  0 inst:  571000001 cyc:  543520476 now IPC :1.91967: AVG IPC :1.04877: L2-Pf-HR :0.79171: L2-HR :0.78428: (Sim:0h40m53s) 
CPU  0 inst:  572000000 cyc:  544282524 now IPC :1.31225: AVG IPC :1.04914: L2-Pf-HR :0.79168: L2-HR :0.78427: (Sim:0h40m58s) 
CPU  0 inst:  573000002 cyc:  544823123 now IPC :1.84980: AVG IPC :1.04994: L2-Pf-HR :0.79166: L2-HR :0.78425: (Sim:0h41m2s) 
CPU  0 inst:  574000000 cyc:  545362794 now IPC :1.85298: AVG IPC :1.05073: L2-Pf-HR :0.79161: L2-HR :0.78421: (Sim:0h41m7s) 
CPU  0 inst:  575000003 cyc:  546033729 now IPC :1.49046: AVG IPC :1.05127: L2-Pf-HR :0.79166: L2-HR :0.78427: (Sim:0h41m12s) 
CPU  0 inst:  576000000 cyc:  546554775 now IPC :1.91921: AVG IPC :1.05210: L2-Pf-HR :0.79165: L2-HR :0.78427: (Sim:0h41m16s) 
CPU  0 inst:  577000003 cyc:  547067631 now IPC :1.94987: AVG IPC :1.05295: L2-Pf-HR :0.79162: L2-HR :0.78425: (Sim:0h41m20s) 
CPU  0 inst:  578000000 cyc:  547626162 now IPC :1.79041: AVG IPC :1.05370: L2-Pf-HR :0.79177: L2-HR :0.78440: (Sim:0h41m23s) 
CPU  0 inst:  579000001 cyc:  548201425 now IPC :1.73834: AVG IPC :1.05442: L2-Pf-HR :0.79164: L2-HR :0.78426: (Sim:0h41m27s) 
CPU  0 inst:  580000000 cyc:  548743141 now IPC :1.84598: AVG IPC :1.05520: L2-Pf-HR :0.79163: L2-HR :0.78426: (Sim:0h41m32s) 
CPU  0 inst:  581000002 cyc:  549492109 now IPC :1.33517: AVG IPC :1.05558: L2-Pf-HR :0.79155: L2-HR :0.78420: (Sim:0h41m36s) 
CPU  0 inst:  582000001 cyc:  550015555 now IPC :1.91041: AVG IPC :1.05640: L2-Pf-HR :0.79152: L2-HR :0.78417: (Sim:0h41m41s) 
CPU  0 inst:  583000001 cyc:  550630717 now IPC :1.62559: AVG IPC :1.05704: L2-Pf-HR :0.79153: L2-HR :0.78419: (Sim:0h41m45s) 
CPU  0 inst:  584000000 cyc:  551225401 now IPC :1.68156: AVG IPC :1.05771: L2-Pf-HR :0.79151: L2-HR :0.78419: (Sim:0h41m50s) 
CPU  0 inst:  585000003 cyc:  551742162 now IPC :1.93514: AVG IPC :1.05853: L2-Pf-HR :0.79147: L2-HR :0.78416: (Sim:0h41m54s) 
CPU  0 inst:  586000002 cyc:  552305174 now IPC :1.77616: AVG IPC :1.05927: L2-Pf-HR :0.79143: L2-HR :0.78413: (Sim:0h41m59s) 
CPU  0 inst:  587000002 cyc:  552876657 now IPC :1.74983: AVG IPC :1.05998: L2-Pf-HR :0.79150: L2-HR :0.78419: (Sim:0h42m3s) 
CPU  0 inst:  588000000 cyc:  553400330 now IPC :1.90958: AVG IPC :1.06079: L2-Pf-HR :0.79144: L2-HR :0.78413: (Sim:0h42m7s) 
CPU  0 inst:  589000000 cyc:  554151125 now IPC :1.33192: AVG IPC :1.06115: L2-Pf-HR :0.79141: L2-HR :0.78412: (Sim:0h42m12s) 
CPU  0 inst:  590000002 cyc:  554689058 now IPC :1.85897: AVG IPC :1.06193: L2-Pf-HR :0.79138: L2-HR :0.78408: (Sim:0h42m16s) 
CPU  0 inst:  591000003 cyc:  555236637 now IPC :1.82622: AVG IPC :1.06269: L2-Pf-HR :0.79135: L2-HR :0.78406: (Sim:0h42m20s) 
CPU  0 inst:  592000000 cyc:  555899142 now IPC :1.50942: AVG IPC :1.06322: L2-Pf-HR :0.79141: L2-HR :0.78414: (Sim:0h42m25s) 
CPU  0 inst:  593000001 cyc:  556418791 now IPC :1.92438: AVG IPC :1.06402: L2-Pf-HR :0.79140: L2-HR :0.78414: (Sim:0h42m29s) 
CPU  0 inst:  594000002 cyc:  556936967 now IPC :1.92985: AVG IPC :1.06483: L2-Pf-HR :0.79139: L2-HR :0.78412: (Sim:0h42m34s) 
Finished CPU 0 instr: 592000001 cyc: 555956690 AVG IPC: 1.06483 (Sim time: 0h42m34s)

ChampSim completed all CPUs

[ROI Statistics]
Core_0_instructions 592000001
Core_0_cycles 555956690
Core_0_IPC 1.06483

Core_0_branch_prediction_accuracy 98.24511
Core_0_branch_MPKI 0.42508
Core_0_average_ROB_occupancy_at_mispredict 249.31316

Core_0_L1D_total_access 351667211
Core_0_L1D_total_hit 338565342 L1D_total_Hit Ratio: 0.96274
Core_0_L1D_total_miss 13101869
Core_0_L1D_loads 135078857
Core_0_L1D_load_hit 129666666 L1D_load_Hit Ratio: 0.95993
Core_0_L1D_load_miss 5412191
Core_0_L1D_RFOs 11995277
Core_0_L1D_RFO_hit 11400910 L1D_RFO_Hit Ratio: 0.95045
Core_0_L1D_RFO_miss 594367
Core_0_L1D_prefetches 204593077
Core_0_L1D_prefetch_hit 197497766 L1D_prefetch_Hit Ratio: 0.96532
Core_0_L1D_prefetch_miss 7095311
Core_0_L1D_writebacks 0
Core_0_L1D_writeback_hit 0 L1D_writeback_Hit Ratio: -nan
Core_0_L1D_writeback_miss 0
Core_0_L1D_prefetch_requested 408254328
Core_0_L1D_prefetch_issued 245911601
Core_0_L1D_prefetch_useful 5686221 L1D_Useful Ratio: 0.02312
Core_0_L1D_prefetch_useless 1436795
Core_0_L1D_prefetch_late 1043412
Core_0_L1D_average_miss_latency 20018385.38575

Core_0_L1I_total_access 134244374
Core_0_L1I_total_hit 134239493 L1I_total_Hit Ratio: 0.99996
Core_0_L1I_total_miss 4881
Core_0_L1I_loads 134244374
Core_0_L1I_load_hit 134239493 L1I_load_Hit Ratio: 0.99996
Core_0_L1I_load_miss 4881
Core_0_L1I_RFOs 0
Core_0_L1I_RFO_hit 0 L1I_RFO_Hit Ratio: -nan
Core_0_L1I_RFO_miss 0
Core_0_L1I_prefetches 0
Core_0_L1I_prefetch_hit 0 L1I_prefetch_Hit Ratio: -nan
Core_0_L1I_prefetch_miss 0
Core_0_L1I_writebacks 0
Core_0_L1I_writeback_hit 0 L1I_writeback_Hit Ratio: -nan
Core_0_L1I_writeback_miss 0
Core_0_L1I_prefetch_requested 0
Core_0_L1I_prefetch_issued 0
Core_0_L1I_prefetch_useful 0 L1I_Useful Ratio: -nan
Core_0_L1I_prefetch_useless 0
Core_0_L1I_prefetch_late 0
Core_0_L1I_average_miss_latency 315.85106

Core_0_L2C_total_access 59132087
Core_0_L2C_total_hit 46366660 L2C_total_Hit Ratio: 0.78412
Core_0_L2C_total_miss 12765427
Core_0_L2C_loads 4374388
Core_0_L2C_load_hit 2805210 L2C_load_Hit Ratio: 0.64128
Core_0_L2C_load_miss 1569178
Core_0_L2C_RFOs 594227
Core_0_L2C_RFO_hit 196082 L2C_RFO_Hit Ratio: 0.32998
Core_0_L2C_RFO_miss 398145
Core_0_L2C_prefetches 50958418
Core_0_L2C_prefetch_hit 40327876 L2C_prefetch_Hit Ratio: 0.79139
Core_0_L2C_prefetch_miss 10630542
Core_0_L2C_writebacks 3205054
Core_0_L2C_writeback_hit 3037492 L2C_writeback_Hit Ratio: 0.94772
Core_0_L2C_writeback_miss 167562
Core_0_L2C_prefetch_requested 88928165
Core_0_L2C_prefetch_issued 70043009
Core_0_L2C_prefetch_useful 2289875 L2C_Useful Ratio: 0.03269
Core_0_L2C_prefetch_useless 8381282
Core_0_L2C_prefetch_late 80524
Core_0_L2C_average_miss_latency 112.27003

Core_0_LLC_total_access 16081288
Core_0_LLC_total_hit 12850620 LLC_total_Hit Ratio: 0.79910
Core_0_LLC_total_miss 3230668
Core_0_LLC_loads 1488654
Core_0_LLC_load_hit 1246672 LLC_load_Hit Ratio: 0.83745
Core_0_LLC_load_miss 241982
Core_0_LLC_RFOs 398145
Core_0_LLC_RFO_hit 78171 LLC_RFO_Hit Ratio: 0.19634
Core_0_LLC_RFO_miss 319974
Core_0_LLC_prefetches 11085975
Core_0_LLC_prefetch_hit 8417274 LLC_prefetch_Hit Ratio: 0.75927
Core_0_LLC_prefetch_miss 2668701
Core_0_LLC_writebacks 3108514
Core_0_LLC_writeback_hit 3108503 LLC_writeback_Hit Ratio: 1.00000
Core_0_LLC_writeback_miss 11
Core_0_LLC_prefetch_requested 0
Core_0_LLC_prefetch_issued 0
Core_0_LLC_prefetch_useful 707138 LLC_Useful Ratio: inf
Core_0_LLC_prefetch_useless 1961417
Core_0_LLC_prefetch_late 38778
Core_0_LLC_average_miss_latency 356.79983

Core_0_major_page_fault 0
Core_0_minor_page_fault 25625

CPU 0 L1D next line prefetcher final stats
CPU 0 L2C PC-based stride prefetcher final stats
Stride Degree: 15
MK1  MARKOV_LRU_SIZE: 128
MK1  MARKOV_PREDICTION_PERCENTTHRESHOLD: 30.00000
MK1  OUTLIERS_THRESHOLD_Max: 64
MK1  OUTLIERS_THRESHOLD_Min: 32
MK2  MARKOV_LRU_SIZE: 256
MK2  MARKOV_PREDICTION_PERCENTTHRESHOLD: 20.00000
MK2  OUTLIERS_THRESHOLD_Max: 32
MK2  OUTLIERS_THRESHOLD_Min: 16
MK3  MARKOV_LRU_SIZE: 384
MK3  MARKOV_PREDICTION_PERCENTTHRESHOLD: 25.00000
MK3  OUTLIERS_THRESHOLD_Max: 16
MK3  OUTLIERS_THRESHOLD_Min: 8
MK4  MARKOV_LRU_SIZE: 512
MK4  MARKOV_PREDICTION_PERCENTTHRESHOLD: 20.00000
MK4  OUTLIERS_THRESHOLD_Max: 8
MK4  OUTLIERS_THRESHOLD_Min: 0
IPStride Degree/Access Ratio: 4.99057
MK1 IPDEltaMarkov  Degree/Access Ratio: 0.23285
MK2 IPDEltaMarkov  Degree/Access Ratio: 0.40576
MK3 IPDEltaMarkov  Degree/Access Ratio: 0.48819
MK4 IPDEltaMarkov  Degree/Access Ratio: 1.55470
Channel_0_RQ_row_buffer_hit 1685560
Channel_0_RQ_row_buffer_miss 1544513
Channel_0_WQ_row_buffer_hit 497150
Channel_0_WQ_row_buffer_miss 1240757
Channel_0_WQ_full 0
Channel_0_dbus_congested 3502537

avg_congested_cycle 11

EzSearch AVG IPC :1.06483: L2-Pf-HR :0.79139 : L2-HR :0.78412 Uful:0.03269
     > Finished combination: TraceType=777-FE Sim:592000000 Prefetcher=L2029-TOP1_BF-L2-MultiMarkovDelta_ip_stride_v4 L1=next_line
