TRACE: [331000000][Pythia-70M]_[h8][s1024][d64] Warmup: 2000000 NumTraces: 331000000
L1:next_line:L2:029-TOP1_BF-L2-MultiMarkovDelta_ip_stride_v4
*************************************************
   ChampSim Multicore Out-of-Order Simulator
   Last compiled: Oct 26 2024 09:45:49
*************************************************

trace_0 777-FE_comparisonScript_memoryTraces/memTraces[331000000][Pythia-70M]_[h8][s1024][d64].champsim.xz
CPU 0 L1D next line prefetcher
MK1: Size: 128 TMAX: 64 TMIN: 32 MKPTHRESH: 30
MK2: Size: 256 TMAX: 32 TMIN: 16 MKPTHRESH: 40
MK3: Size: 384 TMAX: 16 TMIN: 8 MKPTHRESH: 25
MK4: Size: 512 TMAX: 8 TMIN: 0 MKPTHRESH: 20
Stride Size: 512 Prefetch Degree: 15

CPU 0 L2C prefetcher
MAIN.cc ln 751 stats print skipped
CPU 0 L2C prefetcher initialized


Cache Size: 256
number of cache lines: 4096
CPU  0 inst:    1000000 cyc:     503663 now IPC :1.98545: AVG IPC :1.98545: L2-Pf-HR :0.78125: L2-HR :0.75441: (Sim:0h0m4s) 
CPU  0 inst:    2000001 cyc:     979387 now IPC :2.10206: AVG IPC :2.04209: L2-Pf-HR :0.79734: L2-HR :0.77214: (Sim:0h0m9s) 

Warmup complete CPU  0 instructions:    2000001 cycles:     979387 (Simulation time: 0 hr 0 min 9 sec) 

CPU  0 inst:    3000000 cyc:    1561022 now IPC :1.71929: AVG IPC :1.71929: L2-Pf-HR :0.78593: L2-HR :0.77150: (Sim:0h0m13s) 
CPU  0 inst:    4000000 cyc:    2123777 now IPC :1.77697: AVG IPC :1.74766: L2-Pf-HR :0.79154: L2-HR :0.77593: (Sim:0h0m18s) 
CPU  0 inst:    5000003 cyc:    2689923 now IPC :1.76633: AVG IPC :1.75384: L2-Pf-HR :0.79839: L2-HR :0.78178: (Sim:0h0m22s) 
CPU  0 inst:    6000003 cyc:    3262079 now IPC :1.74778: AVG IPC :1.75232: L2-Pf-HR :0.81470: L2-HR :0.79532: (Sim:0h0m26s) 
CPU  0 inst:    7000000 cyc:    4021242 now IPC :1.31724: AVG IPC :1.64373: L2-Pf-HR :0.81649: L2-HR :0.79703: (Sim:0h0m31s) 
CPU  0 inst:    8000000 cyc:    4594075 now IPC :1.74571: AVG IPC :1.65989: L2-Pf-HR :0.81507: L2-HR :0.79589: (Sim:0h0m36s) 
CPU  0 inst:    9000002 cyc:    5155337 now IPC :1.78170: AVG IPC :1.67627: L2-Pf-HR :0.81433: L2-HR :0.79529: (Sim:0h0m40s) 
CPU  0 inst:   10000003 cyc:    5723097 now IPC :1.76131: AVG IPC :1.68644: L2-Pf-HR :0.81440: L2-HR :0.79542: (Sim:0h0m45s) 
CPU  0 inst:   11000001 cyc:    6291739 now IPC :1.75857: AVG IPC :1.69416: L2-Pf-HR :0.81476: L2-HR :0.79575: (Sim:0h0m49s) 
CPU  0 inst:   12000000 cyc:    6858632 now IPC :1.76400: AVG IPC :1.70090: L2-Pf-HR :0.81983: L2-HR :0.79997: (Sim:0h0m54s) 
CPU  0 inst:   13000001 cyc:    7535678 now IPC :1.47701: AVG IPC :1.67778: L2-Pf-HR :0.82203: L2-HR :0.80194: (Sim:0h0m58s) 
CPU  0 inst:   14000001 cyc:    8114661 now IPC :1.72717: AVG IPC :1.68179: L2-Pf-HR :0.82259: L2-HR :0.80236: (Sim:0h1m3s) 
CPU  0 inst:   15000001 cyc:    8692544 now IPC :1.73045: AVG IPC :1.68543: L2-Pf-HR :0.82362: L2-HR :0.80328: (Sim:0h1m7s) 
CPU  0 inst:   16000000 cyc:    9265553 now IPC :1.74517: AVG IPC :1.68956: L2-Pf-HR :0.82537: L2-HR :0.80473: (Sim:0h1m12s) 
CPU  0 inst:   17000003 cyc:   10049823 now IPC :1.27507: AVG IPC :1.65372: L2-Pf-HR :0.82645: L2-HR :0.80559: (Sim:0h1m16s) 
CPU  0 inst:   18000002 cyc:   10650599 now IPC :1.66451: AVG IPC :1.65439: L2-Pf-HR :0.82597: L2-HR :0.80509: (Sim:0h1m21s) 
CPU  0 inst:   19000002 cyc:   11251745 now IPC :1.66349: AVG IPC :1.65493: L2-Pf-HR :0.82547: L2-HR :0.80457: (Sim:0h1m26s) 
CPU  0 inst:   20000000 cyc:   11841684 now IPC :1.69509: AVG IPC :1.65711: L2-Pf-HR :0.82494: L2-HR :0.80406: (Sim:0h1m30s) 
CPU  0 inst:   21000001 cyc:   12433697 now IPC :1.68915: AVG IPC :1.65876: L2-Pf-HR :0.82463: L2-HR :0.80376: (Sim:0h1m35s) 
CPU  0 inst:   22000003 cyc:   13027083 now IPC :1.68525: AVG IPC :1.66007: L2-Pf-HR :0.82642: L2-HR :0.80526: (Sim:0h1m39s) 
CPU  0 inst:   23000003 cyc:   13771408 now IPC :1.34350: AVG IPC :1.64165: L2-Pf-HR :0.82749: L2-HR :0.80623: (Sim:0h1m44s) 
CPU  0 inst:   24000000 cyc:   14355105 now IPC :1.71321: AVG IPC :1.64477: L2-Pf-HR :0.82726: L2-HR :0.80604: (Sim:0h1m48s) 
CPU  0 inst:   25000003 cyc:   14931012 now IPC :1.73640: AVG IPC :1.64855: L2-Pf-HR :0.82709: L2-HR :0.80590: (Sim:0h1m53s) 
CPU  0 inst:   26000000 cyc:   15505850 now IPC :1.73962: AVG IPC :1.65216: L2-Pf-HR :0.82702: L2-HR :0.80586: (Sim:0h1m57s) 
CPU  0 inst:   27000002 cyc:   16083074 now IPC :1.73243: AVG IPC :1.65523: L2-Pf-HR :0.82710: L2-HR :0.80594: (Sim:0h2m2s) 
CPU  0 inst:   28000000 cyc:   16652077 now IPC :1.75746: AVG IPC :1.65894: L2-Pf-HR :0.82828: L2-HR :0.80694: (Sim:0h2m6s) 
CPU  0 inst:   29000003 cyc:   17315829 now IPC :1.50659: AVG IPC :1.65275: L2-Pf-HR :0.82963: L2-HR :0.80813: (Sim:0h2m11s) 
CPU  0 inst:   30000000 cyc:   17902477 now IPC :1.70459: AVG IPC :1.65454: L2-Pf-HR :0.82996: L2-HR :0.80842: (Sim:0h2m15s) 
CPU  0 inst:   31000000 cyc:   18478365 now IPC :1.73645: AVG IPC :1.65724: L2-Pf-HR :0.83028: L2-HR :0.80872: (Sim:0h2m20s) 
CPU  0 inst:   32000000 cyc:   19060708 now IPC :1.71720: AVG IPC :1.65917: L2-Pf-HR :0.83101: L2-HR :0.80935: (Sim:0h2m24s) 
CPU  0 inst:   33000003 cyc:   19828537 now IPC :1.30238: AVG IPC :1.64464: L2-Pf-HR :0.83144: L2-HR :0.80970: (Sim:0h2m29s) 
CPU  0 inst:   34000003 cyc:   20432299 now IPC :1.65628: AVG IPC :1.64500: L2-Pf-HR :0.83109: L2-HR :0.80934: (Sim:0h2m34s) 
CPU  0 inst:   35000003 cyc:   21033306 now IPC :1.66387: AVG IPC :1.64556: L2-Pf-HR :0.83070: L2-HR :0.80898: (Sim:0h2m38s) 
CPU  0 inst:   36000000 cyc:   21635021 now IPC :1.66191: AVG IPC :1.64604: L2-Pf-HR :0.83027: L2-HR :0.80857: (Sim:0h2m43s) 
CPU  0 inst:   37000001 cyc:   22228208 now IPC :1.68581: AVG IPC :1.64715: L2-Pf-HR :0.83002: L2-HR :0.80832: (Sim:0h2m47s) 
CPU  0 inst:   38000001 cyc:   22823949 now IPC :1.67858: AVG IPC :1.64801: L2-Pf-HR :0.83059: L2-HR :0.80879: (Sim:0h2m52s) 
CPU  0 inst:   39000003 cyc:   23565866 now IPC :1.34786: AVG IPC :1.63815: L2-Pf-HR :0.83157: L2-HR :0.80964: (Sim:0h2m56s) 
CPU  0 inst:   40000000 cyc:   24154188 now IPC :1.69974: AVG IPC :1.63971: L2-Pf-HR :0.83127: L2-HR :0.80939: (Sim:0h3m1s) 
CPU  0 inst:   41000003 cyc:   24728220 now IPC :1.74207: AVG IPC :1.64219: L2-Pf-HR :0.83116: L2-HR :0.80931: (Sim:0h3m5s) 
CPU  0 inst:   42000003 cyc:   25310094 now IPC :1.71859: AVG IPC :1.64401: L2-Pf-HR :0.83103: L2-HR :0.80921: (Sim:0h3m10s) 
CPU  0 inst:   43000000 cyc:   25892348 now IPC :1.71746: AVG IPC :1.64573: L2-Pf-HR :0.83104: L2-HR :0.80923: (Sim:0h3m14s) 
CPU  0 inst:   44000000 cyc:   26472983 now IPC :1.72225: AVG IPC :1.64747: L2-Pf-HR :0.83154: L2-HR :0.80966: (Sim:0h3m19s) 
CPU  0 inst:   45000003 cyc:   27141661 now IPC :1.49549: AVG IPC :1.64359: L2-Pf-HR :0.83258: L2-HR :0.81055: (Sim:0h3m23s) 
CPU  0 inst:   46000002 cyc:   27719186 now IPC :1.73153: AVG IPC :1.64549: L2-Pf-HR :0.83268: L2-HR :0.81065: (Sim:0h3m28s) 
CPU  0 inst:   47000001 cyc:   28297258 now IPC :1.72989: AVG IPC :1.64727: L2-Pf-HR :0.83285: L2-HR :0.81082: (Sim:0h3m32s) 
CPU  0 inst:   48000000 cyc:   28878364 now IPC :1.72085: AVG IPC :1.64881: L2-Pf-HR :0.83317: L2-HR :0.81110: (Sim:0h3m37s) 
CPU  0 inst:   49000000 cyc:   29643261 now IPC :1.30737: AVG IPC :1.63969: L2-Pf-HR :0.83355: L2-HR :0.81140: (Sim:0h3m41s) 
CPU  0 inst:   50000001 cyc:   30252619 now IPC :1.64107: AVG IPC :1.63972: L2-Pf-HR :0.83325: L2-HR :0.81110: (Sim:0h3m46s) 
CPU  0 inst:   51000000 cyc:   30846462 now IPC :1.68395: AVG IPC :1.64060: L2-Pf-HR :0.83293: L2-HR :0.81082: (Sim:0h3m50s) 
CPU  0 inst:   52000000 cyc:   31441656 now IPC :1.68012: AVG IPC :1.64137: L2-Pf-HR :0.83263: L2-HR :0.81054: (Sim:0h3m55s) 
CPU  0 inst:   53000003 cyc:   32040324 now IPC :1.67038: AVG IPC :1.64193: L2-Pf-HR :0.83229: L2-HR :0.81021: (Sim:0h3m59s) 
CPU  0 inst:   54000003 cyc:   32635933 now IPC :1.67895: AVG IPC :1.64263: L2-Pf-HR :0.83250: L2-HR :0.81038: (Sim:0h4m4s) 
CPU  0 inst:   55000003 cyc:   33378069 now IPC :1.34746: AVG IPC :1.63587: L2-Pf-HR :0.83322: L2-HR :0.81100: (Sim:0h4m9s) 
CPU  0 inst:   56000000 cyc:   33969574 now IPC :1.69060: AVG IPC :1.63685: L2-Pf-HR :0.83305: L2-HR :0.81084: (Sim:0h4m13s) 
CPU  0 inst:   57000002 cyc:   34550495 now IPC :1.72141: AVG IPC :1.63831: L2-Pf-HR :0.83287: L2-HR :0.81069: (Sim:0h4m18s) 
CPU  0 inst:   58000003 cyc:   35125701 now IPC :1.73851: AVG IPC :1.64000: L2-Pf-HR :0.83279: L2-HR :0.81064: (Sim:0h4m22s) 
CPU  0 inst:   59000001 cyc:   35706950 now IPC :1.72043: AVG IPC :1.64135: L2-Pf-HR :0.83264: L2-HR :0.81052: (Sim:0h4m27s) 
CPU  0 inst:   60000000 cyc:   36275991 now IPC :1.75734: AVG IPC :1.64322: L2-Pf-HR :0.83283: L2-HR :0.81068: (Sim:0h4m31s) 
CPU  0 inst:   61000001 cyc:   36941983 now IPC :1.50152: AVG IPC :1.64059: L2-Pf-HR :0.83365: L2-HR :0.81136: (Sim:0h4m35s) 
CPU  0 inst:   62000000 cyc:   37531351 now IPC :1.69673: AVG IPC :1.64150: L2-Pf-HR :0.83369: L2-HR :0.81141: (Sim:0h4m40s) 
CPU  0 inst:   63000003 cyc:   38107903 now IPC :1.73445: AVG IPC :1.64294: L2-Pf-HR :0.83377: L2-HR :0.81148: (Sim:0h4m44s) 
CPU  0 inst:   64000000 cyc:   38684086 now IPC :1.73555: AVG IPC :1.64436: L2-Pf-HR :0.83393: L2-HR :0.81163: (Sim:0h4m49s) 
CPU  0 inst:   65000001 cyc:   39435034 now IPC :1.33165: AVG IPC :1.63825: L2-Pf-HR :0.83434: L2-HR :0.81197: (Sim:0h4m54s) 
CPU  0 inst:   66000003 cyc:   40053548 now IPC :1.61678: AVG IPC :1.63791: L2-Pf-HR :0.83415: L2-HR :0.81178: (Sim:0h4m58s) 
CPU  0 inst:   67000001 cyc:   40655040 now IPC :1.66253: AVG IPC :1.63828: L2-Pf-HR :0.83400: L2-HR :0.81163: (Sim:0h5m3s) 
CPU  0 inst:   68000000 cyc:   41252772 now IPC :1.67299: AVG IPC :1.63880: L2-Pf-HR :0.83375: L2-HR :0.81139: (Sim:0h5m7s) 
CPU  0 inst:   69000000 cyc:   41847907 now IPC :1.68029: AVG IPC :1.63940: L2-Pf-HR :0.83350: L2-HR :0.81118: (Sim:0h5m12s) 
CPU  0 inst:   70000001 cyc:   42447603 now IPC :1.66751: AVG IPC :1.63981: L2-Pf-HR :0.83354: L2-HR :0.81121: (Sim:0h5m16s) 
CPU  0 inst:   71000003 cyc:   43181631 now IPC :1.36235: AVG IPC :1.63498: L2-Pf-HR :0.83410: L2-HR :0.81168: (Sim:0h5m21s) 
CPU  0 inst:   72000000 cyc:   43786218 now IPC :1.65402: AVG IPC :1.63525: L2-Pf-HR :0.83401: L2-HR :0.81160: (Sim:0h5m25s) 
CPU  0 inst:   73000003 cyc:   44363309 now IPC :1.73283: AVG IPC :1.63655: L2-Pf-HR :0.83389: L2-HR :0.81151: (Sim:0h5m30s) 
CPU  0 inst:   74000000 cyc:   44942082 now IPC :1.72779: AVG IPC :1.63775: L2-Pf-HR :0.83382: L2-HR :0.81146: (Sim:0h5m34s) 
CPU  0 inst:   75000002 cyc:   45515507 now IPC :1.74391: AVG IPC :1.63912: L2-Pf-HR :0.83373: L2-HR :0.81139: (Sim:0h5m39s) 
CPU  0 inst:   76000000 cyc:   46088121 now IPC :1.74637: AVG IPC :1.64048: L2-Pf-HR :0.83384: L2-HR :0.81148: (Sim:0h5m43s) 
CPU  0 inst:   77000000 cyc:   46745979 now IPC :1.52008: AVG IPC :1.63875: L2-Pf-HR :0.83453: L2-HR :0.81207: (Sim:0h5m48s) 
CPU  0 inst:   78000003 cyc:   47331703 now IPC :1.70729: AVG IPC :1.63962: L2-Pf-HR :0.83449: L2-HR :0.81204: (Sim:0h5m52s) 
CPU  0 inst:   79000002 cyc:   47912571 now IPC :1.72156: AVG IPC :1.64063: L2-Pf-HR :0.83458: L2-HR :0.81212: (Sim:0h5m57s) 
CPU  0 inst:   80000000 cyc:   48491314 now IPC :1.72788: AVG IPC :1.64169: L2-Pf-HR :0.83462: L2-HR :0.81217: (Sim:0h6m1s) 
CPU  0 inst:   81000000 cyc:   49232293 now IPC :1.34957: AVG IPC :1.63721: L2-Pf-HR :0.83489: L2-HR :0.81241: (Sim:0h6m5s) 
CPU  0 inst:   82000002 cyc:   49851124 now IPC :1.61595: AVG IPC :1.63694: L2-Pf-HR :0.83485: L2-HR :0.81236: (Sim:0h6m8s) 
CPU  0 inst:   83000002 cyc:   50456561 now IPC :1.65170: AVG IPC :1.63712: L2-Pf-HR :0.83472: L2-HR :0.81223: (Sim:0h6m11s) 
CPU  0 inst:   84000000 cyc:   51055621 now IPC :1.66928: AVG IPC :1.63750: L2-Pf-HR :0.83463: L2-HR :0.81215: (Sim:0h6m14s) 
CPU  0 inst:   85000002 cyc:   51657003 now IPC :1.66284: AVG IPC :1.63780: L2-Pf-HR :0.83446: L2-HR :0.81199: (Sim:0h6m16s) 
CPU  0 inst:   86000002 cyc:   52251633 now IPC :1.68172: AVG IPC :1.63831: L2-Pf-HR :0.83444: L2-HR :0.81197: (Sim:0h6m19s) 
CPU  0 inst:   87000000 cyc:   52948687 now IPC :1.43461: AVG IPC :1.63558: L2-Pf-HR :0.83495: L2-HR :0.81240: (Sim:0h6m22s) 
CPU  0 inst:   88000000 cyc:   53589910 now IPC :1.55952: AVG IPC :1.63465: L2-Pf-HR :0.83492: L2-HR :0.81237: (Sim:0h6m25s) 
CPU  0 inst:   89000002 cyc:   54174331 now IPC :1.71110: AVG IPC :1.63549: L2-Pf-HR :0.83486: L2-HR :0.81232: (Sim:0h6m28s) 
CPU  0 inst:   90000001 cyc:   54752208 now IPC :1.73047: AVG IPC :1.63651: L2-Pf-HR :0.83484: L2-HR :0.81231: (Sim:0h6m31s) 
CPU  0 inst:   91000000 cyc:   55332945 now IPC :1.72195: AVG IPC :1.63743: L2-Pf-HR :0.83478: L2-HR :0.81227: (Sim:0h6m33s) 
CPU  0 inst:   92000000 cyc:   55906087 now IPC :1.74477: AVG IPC :1.63855: L2-Pf-HR :0.83481: L2-HR :0.81229: (Sim:0h6m36s) 
CPU  0 inst:   93000003 cyc:   56553912 now IPC :1.54363: AVG IPC :1.63744: L2-Pf-HR :0.83534: L2-HR :0.81275: (Sim:0h6m39s) 
CPU  0 inst:   94000000 cyc:   57163562 now IPC :1.64028: AVG IPC :1.63747: L2-Pf-HR :0.83543: L2-HR :0.81283: (Sim:0h6m42s) 
CPU  0 inst:   95000002 cyc:   57751321 now IPC :1.70138: AVG IPC :1.63813: L2-Pf-HR :0.83549: L2-HR :0.81289: (Sim:0h6m44s) 
CPU  0 inst:   96000000 cyc:   58328772 now IPC :1.73175: AVG IPC :1.63908: L2-Pf-HR :0.83556: L2-HR :0.81296: (Sim:0h6m47s) 
CPU  0 inst:   97000001 cyc:   59024949 now IPC :1.43642: AVG IPC :1.63665: L2-Pf-HR :0.83584: L2-HR :0.81320: (Sim:0h6m50s) 
CPU  0 inst:   98000001 cyc:   59699979 now IPC :1.48142: AVG IPC :1.63486: L2-Pf-HR :0.83578: L2-HR :0.81313: (Sim:0h6m53s) 
CPU  0 inst:   99000003 cyc:   60303146 now IPC :1.65792: AVG IPC :1.63510: L2-Pf-HR :0.83571: L2-HR :0.81305: (Sim:0h6m56s) 
CPU  0 inst:  100000000 cyc:   60905036 now IPC :1.66143: AVG IPC :1.63536: L2-Pf-HR :0.83559: L2-HR :0.81294: (Sim:0h6m59s) 
CPU  0 inst:  101000002 cyc:   61503592 now IPC :1.67069: AVG IPC :1.63571: L2-Pf-HR :0.83543: L2-HR :0.81279: (Sim:0h7m1s) 
CPU  0 inst:  102000002 cyc:   62106237 now IPC :1.65935: AVG IPC :1.63594: L2-Pf-HR :0.83537: L2-HR :0.81274: (Sim:0h7m4s) 
CPU  0 inst:  103000000 cyc:   62708127 now IPC :1.66143: AVG IPC :1.63619: L2-Pf-HR :0.83586: L2-HR :0.81315: (Sim:0h7m7s) 
CPU  0 inst:  104000000 cyc:   63441829 now IPC :1.36295: AVG IPC :1.63298: L2-Pf-HR :0.83573: L2-HR :0.81304: (Sim:0h7m10s) 
CPU  0 inst:  105000002 cyc:   64020359 now IPC :1.72852: AVG IPC :1.63386: L2-Pf-HR :0.83567: L2-HR :0.81299: (Sim:0h7m14s) 
CPU  0 inst:  106000001 cyc:   64602203 now IPC :1.71867: AVG IPC :1.63463: L2-Pf-HR :0.83559: L2-HR :0.81293: (Sim:0h7m17s) 
CPU  0 inst:  107000001 cyc:   65180983 now IPC :1.72777: AVG IPC :1.63547: L2-Pf-HR :0.83556: L2-HR :0.81291: (Sim:0h7m20s) 
CPU  0 inst:  108000000 cyc:   65758873 now IPC :1.73043: AVG IPC :1.63632: L2-Pf-HR :0.83555: L2-HR :0.81291: (Sim:0h7m23s) 
CPU  0 inst:  109000003 cyc:   66328088 now IPC :1.75681: AVG IPC :1.63737: L2-Pf-HR :0.83601: L2-HR :0.81329: (Sim:0h7m26s) 
CPU  0 inst:  110000000 cyc:   67006799 now IPC :1.47338: AVG IPC :1.63568: L2-Pf-HR :0.83605: L2-HR :0.81333: (Sim:0h7m28s) 
CPU  0 inst:  111000001 cyc:   67586680 now IPC :1.72449: AVG IPC :1.63646: L2-Pf-HR :0.83608: L2-HR :0.81336: (Sim:0h7m31s) 
CPU  0 inst:  112000000 cyc:   68164155 now IPC :1.73167: AVG IPC :1.63728: L2-Pf-HR :0.83609: L2-HR :0.81338: (Sim:0h7m34s) 
CPU  0 inst:  113000000 cyc:   68736722 now IPC :1.74652: AVG IPC :1.63820: L2-Pf-HR :0.83640: L2-HR :0.81364: (Sim:0h7m37s) 
CPU  0 inst:  114000001 cyc:   69526512 now IPC :1.26616: AVG IPC :1.63391: L2-Pf-HR :0.83631: L2-HR :0.81355: (Sim:0h7m40s) 
CPU  0 inst:  115000000 cyc:   70146971 now IPC :1.61171: AVG IPC :1.63371: L2-Pf-HR :0.83621: L2-HR :0.81346: (Sim:0h7m43s) 
CPU  0 inst:  116000000 cyc:   70754566 now IPC :1.64583: AVG IPC :1.63382: L2-Pf-HR :0.83613: L2-HR :0.81337: (Sim:0h7m45s) 
CPU  0 inst:  117000001 cyc:   71354296 now IPC :1.66742: AVG IPC :1.63411: L2-Pf-HR :0.83597: L2-HR :0.81323: (Sim:0h7m48s) 
CPU  0 inst:  118000000 cyc:   71956715 now IPC :1.65997: AVG IPC :1.63432: L2-Pf-HR :0.83590: L2-HR :0.81317: (Sim:0h7m51s) 
CPU  0 inst:  119000003 cyc:   72551365 now IPC :1.68167: AVG IPC :1.63472: L2-Pf-HR :0.83622: L2-HR :0.81343: (Sim:0h7m54s) 
CPU  0 inst:  120000000 cyc:   73305928 now IPC :1.32527: AVG IPC :1.63149: L2-Pf-HR :0.83623: L2-HR :0.81344: (Sim:0h7m57s) 
CPU  0 inst:  121000002 cyc:   73898082 now IPC :1.68875: AVG IPC :1.63195: L2-Pf-HR :0.83616: L2-HR :0.81339: (Sim:0h7m59s) 
CPU  0 inst:  122000001 cyc:   74473686 now IPC :1.73730: AVG IPC :1.63278: L2-Pf-HR :0.83612: L2-HR :0.81335: (Sim:0h8m2s) 
CPU  0 inst:  123000000 cyc:   75064214 now IPC :1.69340: AVG IPC :1.63326: L2-Pf-HR :0.83607: L2-HR :0.81332: (Sim:0h8m5s) 
CPU  0 inst:  124000000 cyc:   75638884 now IPC :1.74013: AVG IPC :1.63409: L2-Pf-HR :0.83607: L2-HR :0.81332: (Sim:0h8m9s) 
CPU  0 inst:  125000000 cyc:   76210731 now IPC :1.74872: AVG IPC :1.63496: L2-Pf-HR :0.83639: L2-HR :0.81359: (Sim:0h8m13s) 
CPU  0 inst:  126000001 cyc:   76891158 now IPC :1.46967: AVG IPC :1.63348: L2-Pf-HR :0.83653: L2-HR :0.81372: (Sim:0h8m18s) 
CPU  0 inst:  127000002 cyc:   77472194 now IPC :1.72107: AVG IPC :1.63414: L2-Pf-HR :0.83656: L2-HR :0.81374: (Sim:0h8m22s) 
CPU  0 inst:  128000000 cyc:   78054088 now IPC :1.71852: AVG IPC :1.63478: L2-Pf-HR :0.83661: L2-HR :0.81379: (Sim:0h8m27s) 
CPU  0 inst:  129000001 cyc:   78634779 now IPC :1.72209: AVG IPC :1.63543: L2-Pf-HR :0.83680: L2-HR :0.81396: (Sim:0h8m31s) 
CPU  0 inst:  130000003 cyc:   83767404 now IPC :0.19483: AVG IPC :1.54612: L2-Pf-HR :0.83114: L2-HR :0.81013: (Sim:0h8m44s) 
CPU  0 inst:  131000000 cyc:   90238514 now IPC :0.15453: AVG IPC :1.44523: L2-Pf-HR :0.82397: L2-HR :0.80548: (Sim:0h9m0s) 
CPU  0 inst:  132000000 cyc:   96703321 now IPC :0.15468: AVG IPC :1.35807: L2-Pf-HR :0.81695: L2-HR :0.80099: (Sim:0h9m17s) 
CPU  0 inst:  133000003 cyc:  103164081 now IPC :0.15478: AVG IPC :1.28199: L2-Pf-HR :0.81006: L2-HR :0.79664: (Sim:0h9m33s) 
CPU  0 inst:  134000000 cyc:  109493239 now IPC :0.15800: AVG IPC :1.21643: L2-Pf-HR :0.80359: L2-HR :0.79254: (Sim:0h9m48s) 
CPU  0 inst:  135000000 cyc:  113045347 now IPC :0.28152: AVG IPC :1.18680: L2-Pf-HR :0.80378: L2-HR :0.79243: (Sim:0h9m57s) 
CPU  0 inst:  136000000 cyc:  116596367 now IPC :0.28161: AVG IPC :1.15900: L2-Pf-HR :0.80401: L2-HR :0.79236: (Sim:0h10m7s) 
CPU  0 inst:  137000000 cyc:  120144335 now IPC :0.28185: AVG IPC :1.13288: L2-Pf-HR :0.80435: L2-HR :0.79238: (Sim:0h10m16s) 
CPU  0 inst:  138000002 cyc:  123694037 now IPC :0.28171: AVG IPC :1.10826: L2-Pf-HR :0.80468: L2-HR :0.79240: (Sim:0h10m25s) 
CPU  0 inst:  139000000 cyc:  127242379 now IPC :0.28182: AVG IPC :1.08504: L2-Pf-HR :0.80505: L2-HR :0.79245: (Sim:0h10m34s) 
CPU  0 inst:  140000000 cyc:  130790839 now IPC :0.28181: AVG IPC :1.06308: L2-Pf-HR :0.80538: L2-HR :0.79248: (Sim:0h10m43s) 
CPU  0 inst:  141000003 cyc:  134338028 now IPC :0.28191: AVG IPC :1.04230: L2-Pf-HR :0.80571: L2-HR :0.79250: (Sim:0h10m52s) 
CPU  0 inst:  142000003 cyc:  137886578 now IPC :0.28181: AVG IPC :1.02259: L2-Pf-HR :0.80601: L2-HR :0.79251: (Sim:0h11m1s) 
CPU  0 inst:  143000000 cyc:  141432174 now IPC :0.28204: AVG IPC :1.00390: L2-Pf-HR :0.80638: L2-HR :0.79258: (Sim:0h11m10s) 
CPU  0 inst:  144000000 cyc:  144976977 now IPC :0.28210: AVG IPC :0.98613: L2-Pf-HR :0.80677: L2-HR :0.79267: (Sim:0h11m20s) 
CPU  0 inst:  145000002 cyc:  148527919 now IPC :0.28162: AVG IPC :0.96917: L2-Pf-HR :0.80699: L2-HR :0.79261: (Sim:0h11m29s) 
CPU  0 inst:  146000000 cyc:  152079012 now IPC :0.28160: AVG IPC :0.95301: L2-Pf-HR :0.80728: L2-HR :0.79261: (Sim:0h11m38s) 
CPU  0 inst:  147000000 cyc:  155628389 now IPC :0.28174: AVG IPC :0.93761: L2-Pf-HR :0.80756: L2-HR :0.79261: (Sim:0h11m47s) 
CPU  0 inst:  148000000 cyc:  159175783 now IPC :0.28190: AVG IPC :0.92290: L2-Pf-HR :0.80787: L2-HR :0.79264: (Sim:0h11m56s) 
CPU  0 inst:  149000002 cyc:  162723590 now IPC :0.28186: AVG IPC :0.90884: L2-Pf-HR :0.80817: L2-HR :0.79265: (Sim:0h12m5s) 
CPU  0 inst:  150000000 cyc:  166272498 now IPC :0.28178: AVG IPC :0.89538: L2-Pf-HR :0.80841: L2-HR :0.79263: (Sim:0h12m14s) 
CPU  0 inst:  151000000 cyc:  169820368 now IPC :0.28186: AVG IPC :0.88249: L2-Pf-HR :0.80868: L2-HR :0.79263: (Sim:0h12m23s) 
CPU  0 inst:  152000000 cyc:  173368680 now IPC :0.28182: AVG IPC :0.87012: L2-Pf-HR :0.80896: L2-HR :0.79263: (Sim:0h12m33s) 
CPU  0 inst:  153000002 cyc:  176918183 now IPC :0.28173: AVG IPC :0.85825: L2-Pf-HR :0.80925: L2-HR :0.79266: (Sim:0h12m42s) 
CPU  0 inst:  154000000 cyc:  180466743 now IPC :0.28180: AVG IPC :0.84686: L2-Pf-HR :0.80956: L2-HR :0.79270: (Sim:0h12m51s) 
CPU  0 inst:  155000000 cyc:  184011228 now IPC :0.28213: AVG IPC :0.83592: L2-Pf-HR :0.80991: L2-HR :0.79278: (Sim:0h13m0s) 
CPU  0 inst:  156000000 cyc:  187555450 now IPC :0.28215: AVG IPC :0.82540: L2-Pf-HR :0.81027: L2-HR :0.79286: (Sim:0h13m9s) 
CPU  0 inst:  157000002 cyc:  191101632 now IPC :0.28199: AVG IPC :0.81526: L2-Pf-HR :0.81055: L2-HR :0.79289: (Sim:0h13m18s) 
CPU  0 inst:  158000003 cyc:  194647828 now IPC :0.28199: AVG IPC :0.80550: L2-Pf-HR :0.81084: L2-HR :0.79292: (Sim:0h13m27s) 
CPU  0 inst:  159000003 cyc:  198191723 now IPC :0.28218: AVG IPC :0.79610: L2-Pf-HR :0.81120: L2-HR :0.79302: (Sim:0h13m36s) 
CPU  0 inst:  160000000 cyc:  201737674 now IPC :0.28201: AVG IPC :0.78702: L2-Pf-HR :0.81154: L2-HR :0.79310: (Sim:0h13m45s) 
CPU  0 inst:  161000000 cyc:  205285536 now IPC :0.28186: AVG IPC :0.77824: L2-Pf-HR :0.81187: L2-HR :0.79317: (Sim:0h13m55s) 
CPU  0 inst:  162000003 cyc:  208834111 now IPC :0.28180: AVG IPC :0.76977: L2-Pf-HR :0.81211: L2-HR :0.79317: (Sim:0h14m4s) 
CPU  0 inst:  163000003 cyc:  212378798 now IPC :0.28211: AVG IPC :0.76159: L2-Pf-HR :0.81241: L2-HR :0.79323: (Sim:0h14m13s) 
CPU  0 inst:  164000000 cyc:  215925019 now IPC :0.28199: AVG IPC :0.75368: L2-Pf-HR :0.81270: L2-HR :0.79327: (Sim:0h14m22s) 
CPU  0 inst:  165000001 cyc:  219473968 now IPC :0.28177: AVG IPC :0.74601: L2-Pf-HR :0.81292: L2-HR :0.79326: (Sim:0h14m31s) 
CPU  0 inst:  166000002 cyc:  223019795 now IPC :0.28202: AVG IPC :0.73860: L2-Pf-HR :0.81320: L2-HR :0.79330: (Sim:0h14m40s) 
CPU  0 inst:  167000001 cyc:  226569579 now IPC :0.28171: AVG IPC :0.73141: L2-Pf-HR :0.81340: L2-HR :0.79327: (Sim:0h14m49s) 
CPU  0 inst:  168000000 cyc:  230118845 now IPC :0.28175: AVG IPC :0.72445: L2-Pf-HR :0.81368: L2-HR :0.79331: (Sim:0h14m58s) 
CPU  0 inst:  169000001 cyc:  233667513 now IPC :0.28180: AVG IPC :0.71770: L2-Pf-HR :0.81393: L2-HR :0.79332: (Sim:0h15m7s) 
CPU  0 inst:  170000002 cyc:  237214415 now IPC :0.28194: AVG IPC :0.71116: L2-Pf-HR :0.81418: L2-HR :0.79335: (Sim:0h15m14s) 
CPU  0 inst:  171000000 cyc:  240759463 now IPC :0.28208: AVG IPC :0.70481: L2-Pf-HR :0.81448: L2-HR :0.79341: (Sim:0h15m23s) 
CPU  0 inst:  172000000 cyc:  244307967 now IPC :0.28181: AVG IPC :0.69864: L2-Pf-HR :0.81470: L2-HR :0.79342: (Sim:0h15m32s) 
CPU  0 inst:  173000000 cyc:  247856131 now IPC :0.28184: AVG IPC :0.69265: L2-Pf-HR :0.81495: L2-HR :0.79344: (Sim:0h15m41s) 
CPU  0 inst:  174000002 cyc:  251403669 now IPC :0.28189: AVG IPC :0.68683: L2-Pf-HR :0.81516: L2-HR :0.79343: (Sim:0h15m50s) 
CPU  0 inst:  175000000 cyc:  254953469 now IPC :0.28171: AVG IPC :0.68117: L2-Pf-HR :0.81536: L2-HR :0.79341: (Sim:0h15m59s) 
CPU  0 inst:  176000000 cyc:  258504800 now IPC :0.28158: AVG IPC :0.67566: L2-Pf-HR :0.81557: L2-HR :0.79341: (Sim:0h16m9s) 
CPU  0 inst:  177000000 cyc:  262050841 now IPC :0.28200: AVG IPC :0.67031: L2-Pf-HR :0.81584: L2-HR :0.79346: (Sim:0h16m18s) 
CPU  0 inst:  178000002 cyc:  265595237 now IPC :0.28214: AVG IPC :0.66512: L2-Pf-HR :0.81612: L2-HR :0.79352: (Sim:0h16m27s) 
CPU  0 inst:  179000003 cyc:  269138524 now IPC :0.28222: AVG IPC :0.66006: L2-Pf-HR :0.81643: L2-HR :0.79361: (Sim:0h16m36s) 
CPU  0 inst:  180000000 cyc:  272681059 now IPC :0.28228: AVG IPC :0.65513: L2-Pf-HR :0.81675: L2-HR :0.79372: (Sim:0h16m45s) 
CPU  0 inst:  181000000 cyc:  276226285 now IPC :0.28207: AVG IPC :0.65033: L2-Pf-HR :0.81703: L2-HR :0.79379: (Sim:0h16m54s) 
CPU  0 inst:  182000000 cyc:  279772902 now IPC :0.28196: AVG IPC :0.64564: L2-Pf-HR :0.81728: L2-HR :0.79383: (Sim:0h17m3s) 
CPU  0 inst:  183000000 cyc:  283325129 now IPC :0.28151: AVG IPC :0.64106: L2-Pf-HR :0.81744: L2-HR :0.79379: (Sim:0h17m12s) 
CPU  0 inst:  184000000 cyc:  286874802 now IPC :0.28172: AVG IPC :0.63660: L2-Pf-HR :0.81763: L2-HR :0.79377: (Sim:0h17m22s) 
CPU  0 inst:  185000000 cyc:  290422158 now IPC :0.28190: AVG IPC :0.63225: L2-Pf-HR :0.81784: L2-HR :0.79379: (Sim:0h17m31s) 
CPU  0 inst:  186000001 cyc:  293968044 now IPC :0.28202: AVG IPC :0.62801: L2-Pf-HR :0.81807: L2-HR :0.79382: (Sim:0h17m40s) 
CPU  0 inst:  187000002 cyc:  297512790 now IPC :0.28211: AVG IPC :0.62388: L2-Pf-HR :0.81834: L2-HR :0.79388: (Sim:0h17m49s) 
CPU  0 inst:  188000000 cyc:  301056862 now IPC :0.28216: AVG IPC :0.61984: L2-Pf-HR :0.81860: L2-HR :0.79395: (Sim:0h17m58s) 
CPU  0 inst:  189000000 cyc:  304603465 now IPC :0.28196: AVG IPC :0.61589: L2-Pf-HR :0.81884: L2-HR :0.79398: (Sim:0h18m6s) 
CPU  0 inst:  190000002 cyc:  308152614 now IPC :0.28176: AVG IPC :0.61203: L2-Pf-HR :0.81904: L2-HR :0.79399: (Sim:0h18m12s) 
CPU  0 inst:  191000000 cyc:  311701824 now IPC :0.28175: AVG IPC :0.60826: L2-Pf-HR :0.81926: L2-HR :0.79402: (Sim:0h18m18s) 
CPU  0 inst:  192000000 cyc:  315248284 now IPC :0.28197: AVG IPC :0.60458: L2-Pf-HR :0.81949: L2-HR :0.79406: (Sim:0h18m23s) 
CPU  0 inst:  193000000 cyc:  318794677 now IPC :0.28198: AVG IPC :0.60098: L2-Pf-HR :0.81970: L2-HR :0.79409: (Sim:0h18m29s) 
CPU  0 inst:  194000000 cyc:  322342016 now IPC :0.28190: AVG IPC :0.59746: L2-Pf-HR :0.81991: L2-HR :0.79410: (Sim:0h18m35s) 
CPU  0 inst:  195000002 cyc:  325887454 now IPC :0.28205: AVG IPC :0.59401: L2-Pf-HR :0.82014: L2-HR :0.79415: (Sim:0h18m40s) 
CPU  0 inst:  196000000 cyc:  329434044 now IPC :0.28196: AVG IPC :0.59064: L2-Pf-HR :0.82036: L2-HR :0.79418: (Sim:0h18m46s) 
CPU  0 inst:  197000002 cyc:  332981843 now IPC :0.28187: AVG IPC :0.58735: L2-Pf-HR :0.82056: L2-HR :0.79420: (Sim:0h18m52s) 
CPU  0 inst:  198000003 cyc:  335527700 now IPC :0.39280: AVG IPC :0.58586: L2-Pf-HR :0.82153: L2-HR :0.79517: (Sim:0h18m56s) 
CPU  0 inst:  199000000 cyc:  336266024 now IPC :1.35441: AVG IPC :0.58756: L2-Pf-HR :0.82387: L2-HR :0.79785: (Sim:0h19m0s) 
CPU  0 inst:  200000000 cyc:  336947136 now IPC :1.46819: AVG IPC :0.58934: L2-Pf-HR :0.82617: L2-HR :0.80048: (Sim:0h19m5s) 
CPU  0 inst:  201000000 cyc:  337610185 now IPC :1.50818: AVG IPC :0.59115: L2-Pf-HR :0.82839: L2-HR :0.80303: (Sim:0h19m9s) 
CPU  0 inst:  202000003 cyc:  338304338 now IPC :1.44061: AVG IPC :0.59290: L2-Pf-HR :0.83041: L2-HR :0.80538: (Sim:0h19m13s) 
CPU  0 inst:  203000002 cyc:  338935983 now IPC :1.58317: AVG IPC :0.59475: L2-Pf-HR :0.83254: L2-HR :0.80783: (Sim:0h19m16s) 
CPU  0 inst:  204000000 cyc:  339567214 now IPC :1.58420: AVG IPC :0.59660: L2-Pf-HR :0.83455: L2-HR :0.81016: (Sim:0h19m20s) 
CPU  0 inst:  205000003 cyc:  340196090 now IPC :1.59014: AVG IPC :0.59844: L2-Pf-HR :0.83650: L2-HR :0.81242: (Sim:0h19m23s) 
CPU  0 inst:  206000002 cyc:  340851365 now IPC :1.52608: AVG IPC :0.60023: L2-Pf-HR :0.83815: L2-HR :0.81439: (Sim:0h19m27s) 
CPU  0 inst:  207000002 cyc:  341479782 now IPC :1.59130: AVG IPC :0.60206: L2-Pf-HR :0.84010: L2-HR :0.81662: (Sim:0h19m31s) 
CPU  0 inst:  208000000 cyc:  342107344 now IPC :1.59346: AVG IPC :0.60388: L2-Pf-HR :0.84199: L2-HR :0.81879: (Sim:0h19m34s) 
CPU  0 inst:  209000002 cyc:  342731219 now IPC :1.60289: AVG IPC :0.60570: L2-Pf-HR :0.84383: L2-HR :0.82090: (Sim:0h19m38s) 
CPU  0 inst:  210000000 cyc:  343366935 now IPC :1.57303: AVG IPC :0.60750: L2-Pf-HR :0.84550: L2-HR :0.82285: (Sim:0h19m42s) 
CPU  0 inst:  211000003 cyc:  344020371 now IPC :1.53038: AVG IPC :0.60926: L2-Pf-HR :0.84717: L2-HR :0.82477: (Sim:0h19m45s) 
CPU  0 inst:  212000000 cyc:  344662225 now IPC :1.55798: AVG IPC :0.61103: L2-Pf-HR :0.84891: L2-HR :0.82674: (Sim:0h19m49s) 
CPU  0 inst:  213000001 cyc:  345311028 now IPC :1.54130: AVG IPC :0.61278: L2-Pf-HR :0.85060: L2-HR :0.82866: (Sim:0h19m53s) 
CPU  0 inst:  214000002 cyc:  345954310 now IPC :1.55453: AVG IPC :0.61454: L2-Pf-HR :0.85225: L2-HR :0.83052: (Sim:0h19m56s) 
CPU  0 inst:  215000002 cyc:  346644592 now IPC :1.44868: AVG IPC :0.61620: L2-Pf-HR :0.85363: L2-HR :0.83215: (Sim:0h20m0s) 
CPU  0 inst:  216000000 cyc:  347313123 now IPC :1.49581: AVG IPC :0.61790: L2-Pf-HR :0.85506: L2-HR :0.83383: (Sim:0h20m4s) 
CPU  0 inst:  217000001 cyc:  347979917 now IPC :1.49972: AVG IPC :0.61960: L2-Pf-HR :0.85641: L2-HR :0.83542: (Sim:0h20m7s) 
CPU  0 inst:  218000001 cyc:  348646711 now IPC :1.49971: AVG IPC :0.62128: L2-Pf-HR :0.85769: L2-HR :0.83694: (Sim:0h20m11s) 
CPU  0 inst:  219000000 cyc:  349317328 now IPC :1.49116: AVG IPC :0.62296: L2-Pf-HR :0.85881: L2-HR :0.83831: (Sim:0h20m15s) 
CPU  0 inst:  220000000 cyc:  349950846 now IPC :1.57849: AVG IPC :0.62469: L2-Pf-HR :0.86002: L2-HR :0.83976: (Sim:0h20m18s) 
CPU  0 inst:  221000002 cyc:  350582969 now IPC :1.58197: AVG IPC :0.62642: L2-Pf-HR :0.86121: L2-HR :0.84118: (Sim:0h20m22s) 
CPU  0 inst:  222000001 cyc:  351211746 now IPC :1.59039: AVG IPC :0.62815: L2-Pf-HR :0.86230: L2-HR :0.84250: (Sim:0h20m26s) 
CPU  0 inst:  223000002 cyc:  351856063 now IPC :1.55203: AVG IPC :0.62985: L2-Pf-HR :0.86333: L2-HR :0.84376: (Sim:0h20m30s) 
CPU  0 inst:  224000000 cyc:  352481102 now IPC :1.59990: AVG IPC :0.63158: L2-Pf-HR :0.86453: L2-HR :0.84517: (Sim:0h20m33s) 
CPU  0 inst:  225000001 cyc:  353112688 now IPC :1.58332: AVG IPC :0.63328: L2-Pf-HR :0.86568: L2-HR :0.84652: (Sim:0h20m37s) 
CPU  0 inst:  226000003 cyc:  353740886 now IPC :1.59186: AVG IPC :0.63499: L2-Pf-HR :0.86678: L2-HR :0.84782: (Sim:0h20m41s) 
CPU  0 inst:  227000003 cyc:  354378667 now IPC :1.56794: AVG IPC :0.63667: L2-Pf-HR :0.86778: L2-HR :0.84903: (Sim:0h20m44s) 
CPU  0 inst:  228000000 cyc:  355020515 now IPC :1.55800: AVG IPC :0.63834: L2-Pf-HR :0.86892: L2-HR :0.85034: (Sim:0h20m49s) 
CPU  0 inst:  229000001 cyc:  355674167 now IPC :1.52987: AVG IPC :0.63999: L2-Pf-HR :0.86999: L2-HR :0.85159: (Sim:0h20m53s) 
CPU  0 inst:  230000000 cyc:  356324962 now IPC :1.53658: AVG IPC :0.64163: L2-Pf-HR :0.87105: L2-HR :0.85282: (Sim:0h20m57s) 
CPU  0 inst:  231000003 cyc:  356983668 now IPC :1.51813: AVG IPC :0.64325: L2-Pf-HR :0.87200: L2-HR :0.85393: (Sim:0h21m1s) 
CPU  0 inst:  232000000 cyc:  357666258 now IPC :1.46500: AVG IPC :0.64482: L2-Pf-HR :0.87291: L2-HR :0.85503: (Sim:0h21m4s) 
CPU  0 inst:  233000002 cyc:  358336068 now IPC :1.49296: AVG IPC :0.64641: L2-Pf-HR :0.87381: L2-HR :0.85611: (Sim:0h21m8s) 
CPU  0 inst:  234000001 cyc:  359000449 now IPC :1.50516: AVG IPC :0.64801: L2-Pf-HR :0.87468: L2-HR :0.85716: (Sim:0h21m12s) 
CPU  0 inst:  235000000 cyc:  359673544 now IPC :1.48567: AVG IPC :0.64958: L2-Pf-HR :0.87549: L2-HR :0.85815: (Sim:0h21m16s) 
CPU  0 inst:  236000000 cyc:  360324902 now IPC :1.53525: AVG IPC :0.65118: L2-Pf-HR :0.87620: L2-HR :0.85905: (Sim:0h21m19s) 
CPU  0 inst:  237000002 cyc:  360955751 now IPC :1.58517: AVG IPC :0.65282: L2-Pf-HR :0.87694: L2-HR :0.85997: (Sim:0h21m23s) 
CPU  0 inst:  238000002 cyc:  361582381 now IPC :1.59584: AVG IPC :0.65446: L2-Pf-HR :0.87771: L2-HR :0.86091: (Sim:0h21m27s) 
CPU  0 inst:  239000001 cyc:  362209106 now IPC :1.59559: AVG IPC :0.65609: L2-Pf-HR :0.87845: L2-HR :0.86182: (Sim:0h21m30s) 
CPU  0 inst:  240000000 cyc:  362858590 now IPC :1.53968: AVG IPC :0.65768: L2-Pf-HR :0.87910: L2-HR :0.86265: (Sim:0h21m34s) 
CPU  0 inst:  241000003 cyc:  363489531 now IPC :1.58494: AVG IPC :0.65929: L2-Pf-HR :0.87990: L2-HR :0.86360: (Sim:0h21m38s) 
CPU  0 inst:  242000001 cyc:  364113985 now IPC :1.60140: AVG IPC :0.66091: L2-Pf-HR :0.88067: L2-HR :0.86453: (Sim:0h21m42s) 
CPU  0 inst:  243000001 cyc:  364739480 now IPC :1.59873: AVG IPC :0.66252: L2-Pf-HR :0.88142: L2-HR :0.86543: (Sim:0h21m47s) 
CPU  0 inst:  244000000 cyc:  365395342 now IPC :1.52471: AVG IPC :0.66408: L2-Pf-HR :0.88208: L2-HR :0.86624: (Sim:0h21m52s) 
CPU  0 inst:  245000000 cyc:  366038395 now IPC :1.55508: AVG IPC :0.66565: L2-Pf-HR :0.88287: L2-HR :0.86716: (Sim:0h21m56s) 
CPU  0 inst:  246000000 cyc:  366684830 now IPC :1.54695: AVG IPC :0.66720: L2-Pf-HR :0.88364: L2-HR :0.86805: (Sim:0h22m0s) 
CPU  0 inst:  247000000 cyc:  367331728 now IPC :1.54584: AVG IPC :0.66876: L2-Pf-HR :0.88437: L2-HR :0.86891: (Sim:0h22m3s) 
CPU  0 inst:  248000000 cyc:  368011938 now IPC :1.47013: AVG IPC :0.67024: L2-Pf-HR :0.88499: L2-HR :0.86966: (Sim:0h22m7s) 
CPU  0 inst:  249000000 cyc:  368680448 now IPC :1.49586: AVG IPC :0.67174: L2-Pf-HR :0.88565: L2-HR :0.87046: (Sim:0h22m11s) 
CPU  0 inst:  250000000 cyc:  369345226 now IPC :1.50426: AVG IPC :0.67324: L2-Pf-HR :0.88627: L2-HR :0.87123: (Sim:0h22m15s) 
CPU  0 inst:  251000003 cyc:  370009647 now IPC :1.50507: AVG IPC :0.67474: L2-Pf-HR :0.88690: L2-HR :0.87199: (Sim:0h22m18s) 
CPU  0 inst:  252000000 cyc:  370692399 now IPC :1.46466: AVG IPC :0.67620: L2-Pf-HR :0.88740: L2-HR :0.87263: (Sim:0h22m22s) 
CPU  0 inst:  253000002 cyc:  371328074 now IPC :1.57313: AVG IPC :0.67774: L2-Pf-HR :0.88798: L2-HR :0.87334: (Sim:0h22m26s) 
CPU  0 inst:  254000001 cyc:  371960113 now IPC :1.58218: AVG IPC :0.67928: L2-Pf-HR :0.88855: L2-HR :0.87404: (Sim:0h22m30s) 
CPU  0 inst:  255000003 cyc:  372589839 now IPC :1.58800: AVG IPC :0.68082: L2-Pf-HR :0.88907: L2-HR :0.87470: (Sim:0h22m33s) 
CPU  0 inst:  256000000 cyc:  373225411 now IPC :1.57338: AVG IPC :0.68234: L2-Pf-HR :0.88952: L2-HR :0.87529: (Sim:0h22m37s) 
CPU  0 inst:  257000003 cyc:  373864311 now IPC :1.56519: AVG IPC :0.68386: L2-Pf-HR :0.89007: L2-HR :0.87597: (Sim:0h22m41s) 
CPU  0 inst:  258000001 cyc:  374491783 now IPC :1.59369: AVG IPC :0.68539: L2-Pf-HR :0.89066: L2-HR :0.87667: (Sim:0h22m45s) 
CPU  0 inst:  259000001 cyc:  375121026 now IPC :1.58921: AVG IPC :0.68691: L2-Pf-HR :0.89121: L2-HR :0.87735: (Sim:0h22m48s) 
CPU  0 inst:  260000000 cyc:  375747063 now IPC :1.59735: AVG IPC :0.68843: L2-Pf-HR :0.89177: L2-HR :0.87802: (Sim:0h22m52s) 
CPU  0 inst:  261000001 cyc:  376398611 now IPC :1.53481: AVG IPC :0.68990: L2-Pf-HR :0.89230: L2-HR :0.87866: (Sim:0h22m56s) 
CPU  0 inst:  262000001 cyc:  377045287 now IPC :1.54637: AVG IPC :0.69137: L2-Pf-HR :0.89289: L2-HR :0.87935: (Sim:0h22m59s) 
CPU  0 inst:  263000001 cyc:  377694809 now IPC :1.53959: AVG IPC :0.69283: L2-Pf-HR :0.89346: L2-HR :0.88002: (Sim:0h23m3s) 
CPU  0 inst:  264000000 cyc:  378344187 now IPC :1.53993: AVG IPC :0.69429: L2-Pf-HR :0.89403: L2-HR :0.88069: (Sim:0h23m7s) 
CPU  0 inst:  265000000 cyc:  379019678 now IPC :1.48040: AVG IPC :0.69569: L2-Pf-HR :0.89448: L2-HR :0.88124: (Sim:0h23m11s) 
CPU  0 inst:  266000003 cyc:  379690478 now IPC :1.49076: AVG IPC :0.69710: L2-Pf-HR :0.89493: L2-HR :0.88180: (Sim:0h23m14s) 
CPU  0 inst:  267000001 cyc:  380357065 now IPC :1.50018: AVG IPC :0.69851: L2-Pf-HR :0.89538: L2-HR :0.88236: (Sim:0h23m18s) 
CPU  0 inst:  268000000 cyc:  381019657 now IPC :1.50922: AVG IPC :0.69993: L2-Pf-HR :0.89583: L2-HR :0.88292: (Sim:0h23m22s) 
CPU  0 inst:  269000002 cyc:  381696750 now IPC :1.47690: AVG IPC :0.70131: L2-Pf-HR :0.89618: L2-HR :0.88338: (Sim:0h23m26s) 
CPU  0 inst:  270000002 cyc:  382332262 now IPC :1.57353: AVG IPC :0.70276: L2-Pf-HR :0.89659: L2-HR :0.88390: (Sim:0h23m29s) 
CPU  0 inst:  271000000 cyc:  382964971 now IPC :1.58050: AVG IPC :0.70422: L2-Pf-HR :0.89699: L2-HR :0.88441: (Sim:0h23m33s) 
CPU  0 inst:  272000000 cyc:  383591278 now IPC :1.59666: AVG IPC :0.70568: L2-Pf-HR :0.89737: L2-HR :0.88490: (Sim:0h23m37s) 
CPU  0 inst:  273000003 cyc:  384242222 now IPC :1.53624: AVG IPC :0.70709: L2-Pf-HR :0.89770: L2-HR :0.88534: (Sim:0h23m40s) 
CPU  0 inst:  274000002 cyc:  384869972 now IPC :1.59299: AVG IPC :0.70854: L2-Pf-HR :0.89815: L2-HR :0.88589: (Sim:0h23m44s) 
CPU  0 inst:  275000002 cyc:  385495471 now IPC :1.59872: AVG IPC :0.70998: L2-Pf-HR :0.89858: L2-HR :0.88641: (Sim:0h23m48s) 
CPU  0 inst:  276000000 cyc:  386118714 now IPC :1.60451: AVG IPC :0.71143: L2-Pf-HR :0.89901: L2-HR :0.88694: (Sim:0h23m51s) 
CPU  0 inst:  277000001 cyc:  386768079 now IPC :1.53997: AVG IPC :0.71283: L2-Pf-HR :0.89936: L2-HR :0.88738: (Sim:0h23m55s) 
CPU  0 inst:  278000001 cyc:  387407869 now IPC :1.56301: AVG IPC :0.71423: L2-Pf-HR :0.89985: L2-HR :0.88794: (Sim:0h23m59s) 
CPU  0 inst:  279000001 cyc:  388054055 now IPC :1.54754: AVG IPC :0.71562: L2-Pf-HR :0.90029: L2-HR :0.88847: (Sim:0h24m3s) 
CPU  0 inst:  280000000 cyc:  388700168 now IPC :1.54772: AVG IPC :0.71701: L2-Pf-HR :0.90074: L2-HR :0.88899: (Sim:0h24m6s) 
CPU  0 inst:  281000002 cyc:  389356081 now IPC :1.52460: AVG IPC :0.71837: L2-Pf-HR :0.90115: L2-HR :0.88949: (Sim:0h24m10s) 
CPU  0 inst:  282000003 cyc:  390039674 now IPC :1.46286: AVG IPC :0.71968: L2-Pf-HR :0.90150: L2-HR :0.88991: (Sim:0h24m14s) 
CPU  0 inst:  283000001 cyc:  390704616 now IPC :1.50389: AVG IPC :0.72102: L2-Pf-HR :0.90186: L2-HR :0.89036: (Sim:0h24m17s) 
CPU  0 inst:  284000000 cyc:  391367113 now IPC :1.50944: AVG IPC :0.72236: L2-Pf-HR :0.90221: L2-HR :0.89080: (Sim:0h24m23s) 
CPU  0 inst:  285000000 cyc:  392033036 now IPC :1.50168: AVG IPC :0.72369: L2-Pf-HR :0.90257: L2-HR :0.89125: (Sim:0h24m28s) 
CPU  0 inst:  286000000 cyc:  392695363 now IPC :1.50983: AVG IPC :0.72502: L2-Pf-HR :0.90283: L2-HR :0.89160: (Sim:0h24m31s) 
CPU  0 inst:  287000002 cyc:  393329280 now IPC :1.57750: AVG IPC :0.72639: L2-Pf-HR :0.90314: L2-HR :0.89199: (Sim:0h24m35s) 
CPU  0 inst:  288000000 cyc:  393958971 now IPC :1.58808: AVG IPC :0.72777: L2-Pf-HR :0.90345: L2-HR :0.89239: (Sim:0h24m39s) 
CPU  0 inst:  289000003 cyc:  394584461 now IPC :1.59875: AVG IPC :0.72916: L2-Pf-HR :0.90376: L2-HR :0.89279: (Sim:0h24m43s) 
CPU  0 inst:  290000003 cyc:  395233830 now IPC :1.53996: AVG IPC :0.73049: L2-Pf-HR :0.90402: L2-HR :0.89314: (Sim:0h24m46s) 
CPU  0 inst:  291000003 cyc:  395860380 now IPC :1.59604: AVG IPC :0.73187: L2-Pf-HR :0.90438: L2-HR :0.89357: (Sim:0h24m50s) 
CPU  0 inst:  292000000 cyc:  396485543 now IPC :1.59958: AVG IPC :0.73324: L2-Pf-HR :0.90475: L2-HR :0.89401: (Sim:0h24m54s) 
CPU  0 inst:  293000002 cyc:  397111320 now IPC :1.59802: AVG IPC :0.73460: L2-Pf-HR :0.90509: L2-HR :0.89443: (Sim:0h24m57s) 
CPU  0 inst:  294000003 cyc:  397759211 now IPC :1.54347: AVG IPC :0.73592: L2-Pf-HR :0.90538: L2-HR :0.89480: (Sim:0h25m1s) 
CPU  0 inst:  295000001 cyc:  398400507 now IPC :1.55934: AVG IPC :0.73725: L2-Pf-HR :0.90574: L2-HR :0.89522: (Sim:0h25m5s) 
CPU  0 inst:  296000000 cyc:  399048704 now IPC :1.54274: AVG IPC :0.73856: L2-Pf-HR :0.90610: L2-HR :0.89565: (Sim:0h25m8s) 
CPU  0 inst:  297000002 cyc:  399698477 now IPC :1.53900: AVG IPC :0.73987: L2-Pf-HR :0.90646: L2-HR :0.89607: (Sim:0h25m12s) 
CPU  0 inst:  298000002 cyc:  400366917 now IPC :1.49602: AVG IPC :0.74113: L2-Pf-HR :0.90675: L2-HR :0.89642: (Sim:0h25m16s) 
CPU  0 inst:  299000001 cyc:  401034837 now IPC :1.49718: AVG IPC :0.74240: L2-Pf-HR :0.90705: L2-HR :0.89679: (Sim:0h25m20s) 
CPU  0 inst:  300000000 cyc:  401708647 now IPC :1.48410: AVG IPC :0.74364: L2-Pf-HR :0.90732: L2-HR :0.89714: (Sim:0h25m23s) 
CPU  0 inst:  301000003 cyc:  402376334 now IPC :1.49771: AVG IPC :0.74490: L2-Pf-HR :0.90760: L2-HR :0.89749: (Sim:0h25m27s) 
CPU  0 inst:  302000002 cyc:  403056104 now IPC :1.47108: AVG IPC :0.74613: L2-Pf-HR :0.90782: L2-HR :0.89778: (Sim:0h25m31s) 
CPU  0 inst:  303000003 cyc:  403692678 now IPC :1.57091: AVG IPC :0.74743: L2-Pf-HR :0.90807: L2-HR :0.89810: (Sim:0h25m34s) 
CPU  0 inst:  304000000 cyc:  404327027 now IPC :1.57641: AVG IPC :0.74873: L2-Pf-HR :0.90831: L2-HR :0.89842: (Sim:0h25m38s) 
CPU  0 inst:  305000003 cyc:  404954847 now IPC :1.59282: AVG IPC :0.75005: L2-Pf-HR :0.90855: L2-HR :0.89873: (Sim:0h25m42s) 
CPU  0 inst:  306000001 cyc:  405595836 now IPC :1.56009: AVG IPC :0.75133: L2-Pf-HR :0.90878: L2-HR :0.89903: (Sim:0h25m45s) 
CPU  0 inst:  307000000 cyc:  406235282 now IPC :1.56385: AVG IPC :0.75261: L2-Pf-HR :0.90903: L2-HR :0.89935: (Sim:0h25m49s) 
CPU  0 inst:  308000000 cyc:  406866860 now IPC :1.58334: AVG IPC :0.75390: L2-Pf-HR :0.90931: L2-HR :0.89969: (Sim:0h25m53s) 
CPU  0 inst:  309000000 cyc:  407491328 now IPC :1.60136: AVG IPC :0.75521: L2-Pf-HR :0.90959: L2-HR :0.90004: (Sim:0h25m57s) 
CPU  0 inst:  310000001 cyc:  408112171 now IPC :1.61071: AVG IPC :0.75651: L2-Pf-HR :0.90989: L2-HR :0.90040: (Sim:0h26m0s) 
CPU  0 inst:  311000001 cyc:  408771990 now IPC :1.51557: AVG IPC :0.75774: L2-Pf-HR :0.91013: L2-HR :0.90070: (Sim:0h26m4s) 
CPU  0 inst:  312000000 cyc:  409415775 now IPC :1.55331: AVG IPC :0.75899: L2-Pf-HR :0.91043: L2-HR :0.90105: (Sim:0h26m8s) 
CPU  0 inst:  313000000 cyc:  410064690 now IPC :1.54103: AVG IPC :0.76023: L2-Pf-HR :0.91072: L2-HR :0.90139: (Sim:0h26m11s) 
CPU  0 inst:  314000001 cyc:  410708298 now IPC :1.55374: AVG IPC :0.76148: L2-Pf-HR :0.91101: L2-HR :0.90174: (Sim:0h26m15s) 
CPU  0 inst:  315000002 cyc:  411392880 now IPC :1.46075: AVG IPC :0.76265: L2-Pf-HR :0.91121: L2-HR :0.90199: (Sim:0h26m19s) 
CPU  0 inst:  316000000 cyc:  412061069 now IPC :1.49658: AVG IPC :0.76384: L2-Pf-HR :0.91142: L2-HR :0.90226: (Sim:0h26m23s) 
CPU  0 inst:  317000000 cyc:  412730915 now IPC :1.49288: AVG IPC :0.76502: L2-Pf-HR :0.91162: L2-HR :0.90252: (Sim:0h26m26s) 
CPU  0 inst:  318000003 cyc:  413393974 now IPC :1.50817: AVG IPC :0.76622: L2-Pf-HR :0.91182: L2-HR :0.90278: (Sim:0h26m30s) 
CPU  0 inst:  319000001 cyc:  414072600 now IPC :1.47356: AVG IPC :0.76738: L2-Pf-HR :0.91196: L2-HR :0.90298: (Sim:0h26m34s) 
CPU  0 inst:  320000000 cyc:  414706807 now IPC :1.57677: AVG IPC :0.76862: L2-Pf-HR :0.91216: L2-HR :0.90325: (Sim:0h26m38s) 
CPU  0 inst:  321000003 cyc:  415336251 now IPC :1.58871: AVG IPC :0.76987: L2-Pf-HR :0.91236: L2-HR :0.90350: (Sim:0h26m41s) 
CPU  0 inst:  322000001 cyc:  415965460 now IPC :1.58929: AVG IPC :0.77111: L2-Pf-HR :0.91255: L2-HR :0.90376: (Sim:0h26m45s) 
CPU  0 inst:  323000000 cyc:  416614543 now IPC :1.54063: AVG IPC :0.77231: L2-Pf-HR :0.91269: L2-HR :0.90396: (Sim:0h26m49s) 
CPU  0 inst:  324000000 cyc:  417244796 now IPC :1.58666: AVG IPC :0.77354: L2-Pf-HR :0.91294: L2-HR :0.90426: (Sim:0h26m52s) 
CPU  0 inst:  325000003 cyc:  417871563 now IPC :1.59549: AVG IPC :0.77478: L2-Pf-HR :0.91319: L2-HR :0.90456: (Sim:0h26m58s) 
CPU  0 inst:  326000000 cyc:  418494476 now IPC :1.60536: AVG IPC :0.77602: L2-Pf-HR :0.91343: L2-HR :0.90486: (Sim:0h27m4s) 
CPU  0 inst:  327000003 cyc:  419128968 now IPC :1.57607: AVG IPC :0.77723: L2-Pf-HR :0.91363: L2-HR :0.90512: (Sim:0h27m10s) 
CPU  0 inst:  328000000 cyc:  419779888 now IPC :1.53628: AVG IPC :0.77841: L2-Pf-HR :0.91387: L2-HR :0.90540: (Sim:0h27m16s) 
Finished CPU 0 instr: 326000001 cyc: 418800509 AVG IPC: 0.77841 (Sim time: 0h27m16s)

ChampSim completed all CPUs

[ROI Statistics]
Core_0_instructions 326000001
Core_0_cycles 418800509
Core_0_IPC 0.77841

Core_0_branch_prediction_accuracy 99.57883
Core_0_branch_MPKI 0.12289
Core_0_average_ROB_occupancy_at_mispredict 237.09710

Core_0_L1D_total_access 222478845
Core_0_L1D_total_hit 203101477 L1D_total_Hit Ratio: 0.91290
Core_0_L1D_total_miss 19377368
Core_0_L1D_loads 89368901
Core_0_L1D_load_hit 80991467 L1D_load_Hit Ratio: 0.90626
Core_0_L1D_load_miss 8377434
Core_0_L1D_RFOs 8572380
Core_0_L1D_RFO_hit 8045674 L1D_RFO_Hit Ratio: 0.93856
Core_0_L1D_RFO_miss 526706
Core_0_L1D_prefetches 124537564
Core_0_L1D_prefetch_hit 114064336 L1D_prefetch_Hit Ratio: 0.91590
Core_0_L1D_prefetch_miss 10473228
Core_0_L1D_writebacks 0
Core_0_L1D_writeback_hit 0 L1D_writeback_Hit Ratio: -nan
Core_0_L1D_writeback_miss 0
Core_0_L1D_prefetch_requested 270912804
Core_0_L1D_prefetch_issued 142545117
Core_0_L1D_prefetch_useful 4187527 L1D_Useful Ratio: 0.02938
Core_0_L1D_prefetch_useless 6313524
Core_0_L1D_prefetch_late 1098518
Core_0_L1D_average_miss_latency 11753686.49023

Core_0_L1I_total_access 83061080
Core_0_L1I_total_hit 83056146 L1I_total_Hit Ratio: 0.99994
Core_0_L1I_total_miss 4934
Core_0_L1I_loads 83061080
Core_0_L1I_load_hit 83056146 L1I_load_Hit Ratio: 0.99994
Core_0_L1I_load_miss 4934
Core_0_L1I_RFOs 0
Core_0_L1I_RFO_hit 0 L1I_RFO_Hit Ratio: -nan
Core_0_L1I_RFO_miss 0
Core_0_L1I_prefetches 0
Core_0_L1I_prefetch_hit 0 L1I_prefetch_Hit Ratio: -nan
Core_0_L1I_prefetch_miss 0
Core_0_L1I_writebacks 0
Core_0_L1I_writeback_hit 0 L1I_writeback_Hit Ratio: -nan
Core_0_L1I_writeback_miss 0
Core_0_L1I_prefetch_requested 0
Core_0_L1I_prefetch_issued 0
Core_0_L1I_prefetch_useful 0 L1I_Useful Ratio: -nan
Core_0_L1I_prefetch_useless 0
Core_0_L1I_prefetch_late 0
Core_0_L1I_average_miss_latency 360.70308

Core_0_L2C_total_access 68277245
Core_0_L2C_total_hit 61818059 L2C_total_Hit Ratio: 0.90540
Core_0_L2C_total_miss 6459186
Core_0_L2C_loads 7284709
Core_0_L2C_load_hit 6375820 L2C_load_Hit Ratio: 0.87523
Core_0_L2C_load_miss 908889
Core_0_L2C_RFOs 526687
Core_0_L2C_RFO_hit 26797 L2C_RFO_Hit Ratio: 0.05088
Core_0_L2C_RFO_miss 499890
Core_0_L2C_prefetches 58528264
Core_0_L2C_prefetch_hit 53487142 L2C_prefetch_Hit Ratio: 0.91387
Core_0_L2C_prefetch_miss 5041122
Core_0_L2C_writebacks 1937585
Core_0_L2C_writeback_hit 1928300 L2C_writeback_Hit Ratio: 0.99521
Core_0_L2C_writeback_miss 9285
Core_0_L2C_prefetch_requested 116317265
Core_0_L2C_prefetch_issued 71396497
Core_0_L2C_prefetch_useful 381221 L2C_Useful Ratio: 0.00534
Core_0_L2C_prefetch_useless 4694451
Core_0_L2C_prefetch_late 9780
Core_0_L2C_average_miss_latency 180.13430

Core_0_LLC_total_access 8436280
Core_0_LLC_total_hit 5020893 LLC_total_Hit Ratio: 0.59515
Core_0_LLC_total_miss 3415387
Core_0_LLC_loads 899118
Core_0_LLC_load_hit 683769 LLC_load_Hit Ratio: 0.76049
Core_0_LLC_load_miss 215349
Core_0_LLC_RFOs 499890
Core_0_LLC_RFO_hit 39 LLC_RFO_Hit Ratio: 0.00008
Core_0_LLC_RFO_miss 499851
Core_0_LLC_prefetches 5109216
Core_0_LLC_prefetch_hit 2409180 LLC_prefetch_Hit Ratio: 0.47154
Core_0_LLC_prefetch_miss 2700036
Core_0_LLC_writebacks 1928056
Core_0_LLC_writeback_hit 1927905 LLC_writeback_Hit Ratio: 0.99992
Core_0_LLC_writeback_miss 151
Core_0_LLC_prefetch_requested 0
Core_0_LLC_prefetch_issued 0
Core_0_LLC_prefetch_useful 449463 LLC_Useful Ratio: inf
Core_0_LLC_prefetch_useless 2240175
Core_0_LLC_prefetch_late 4810
Core_0_LLC_average_miss_latency 294.16616

Core_0_major_page_fault 0
Core_0_minor_page_fault 19454

CPU 0 L1D next line prefetcher final stats
CPU 0 L2C PC-based stride prefetcher final stats
Stride Degree: 15
MK1  MARKOV_LRU_SIZE: 128
MK1  MARKOV_PREDICTION_PERCENTTHRESHOLD: 30.00000
MK1  OUTLIERS_THRESHOLD_Max: 64
MK1  OUTLIERS_THRESHOLD_Min: 32
MK2  MARKOV_LRU_SIZE: 256
MK2  MARKOV_PREDICTION_PERCENTTHRESHOLD: 40.00000
MK2  OUTLIERS_THRESHOLD_Max: 32
MK2  OUTLIERS_THRESHOLD_Min: 16
MK3  MARKOV_LRU_SIZE: 384
MK3  MARKOV_PREDICTION_PERCENTTHRESHOLD: 25.00000
MK3  OUTLIERS_THRESHOLD_Max: 16
MK3  OUTLIERS_THRESHOLD_Min: 8
MK4  MARKOV_LRU_SIZE: 512
MK4  MARKOV_PREDICTION_PERCENTTHRESHOLD: 20.00000
MK4  OUTLIERS_THRESHOLD_Max: 8
MK4  OUTLIERS_THRESHOLD_Min: 0
IPStride Degree/Access Ratio: 2.96818
MK1 IPDEltaMarkov  Degree/Access Ratio: 0.89799
MK2 IPDEltaMarkov  Degree/Access Ratio: 0.50895
MK3 IPDEltaMarkov  Degree/Access Ratio: 0.76394
MK4 IPDEltaMarkov  Degree/Access Ratio: 1.50978
Channel_0_RQ_row_buffer_hit 1763491
Channel_0_RQ_row_buffer_miss 1651659
Channel_0_WQ_row_buffer_hit 412869
Channel_0_WQ_row_buffer_miss 1276003
Channel_0_WQ_full 0
Channel_0_dbus_congested 3211380

avg_congested_cycle 10

EzSearch AVG IPC :0.77841: L2-Pf-HR :0.91387 : L2-HR :0.90540 Uful:0.00534
     > Finished combination: TraceType=777-FE Sim:326000000 Prefetcher=L2029-TOP1_BF-L2-MultiMarkovDelta_ip_stride_v4 L1=next_line
