TRACE: [103000000]_FE_[OPT-2_7B]_[h32]_[s256]_[d80] Warmup: 2000000 NumTraces: 103000000
L1:next_line:L2:029-TOP1_BF-L2-MultiMarkovDelta_ip_stride_v4
*************************************************
   ChampSim Multicore Out-of-Order Simulator
   Last compiled: Oct 26 2024 10:34:20
*************************************************

trace_0 777-FE_comparisonScript_memoryTraces/memTraces[103000000]_FE_[OPT-2_7B]_[h32]_[s256]_[d80].champsim.xz
CPU 0 L1D next line prefetcher
MK1: Size: 128 TMAX: 64 TMIN: 32 MKPTHRESH: 30
MK2: Size: 256 TMAX: 32 TMIN: 16 MKPTHRESH: 30
MK3: Size: 384 TMAX: 16 TMIN: 8 MKPTHRESH: 25
MK4: Size: 512 TMAX: 8 TMIN: 0 MKPTHRESH: 20
Stride Size: 512 Prefetch Degree: 15

CPU 0 L2C prefetcher
MAIN.cc ln 751 stats print skipped
CPU 0 L2C prefetcher initialized


Cache Size: 256
number of cache lines: 4096
CPU  0 inst:    1000001 cyc:     503388 now IPC :1.98654: AVG IPC :1.98654: L2-Pf-HR :0.79953: L2-HR :0.76570: (Sim:0h0m3s) 
CPU  0 inst:    2000002 cyc:     984000 now IPC :2.08068: AVG IPC :2.03252: L2-Pf-HR :0.82191: L2-HR :0.79392: (Sim:0h0m6s) 

Warmup complete CPU  0 instructions:    2000002 cycles:     984000 (Simulation time: 0 hr 0 min 6 sec) 

CPU  0 inst:    3000002 cyc:    1565175 now IPC :1.72065: AVG IPC :1.72065: L2-Pf-HR :0.83035: L2-HR :0.81322: (Sim:0h0m8s) 
CPU  0 inst:    4000000 cyc:    2092873 now IPC :1.89502: AVG IPC :1.80363: L2-Pf-HR :0.83205: L2-HR :0.81545: (Sim:0h0m11s) 
CPU  0 inst:    5000001 cyc:    2672067 now IPC :1.72654: AVG IPC :1.77718: L2-Pf-HR :0.82805: L2-HR :0.81174: (Sim:0h0m14s) 
CPU  0 inst:    6000002 cyc:    3258925 now IPC :1.70399: AVG IPC :1.75830: L2-Pf-HR :0.82719: L2-HR :0.81087: (Sim:0h0m16s) 
CPU  0 inst:    7000001 cyc:    3875019 now IPC :1.62313: AVG IPC :1.72949: L2-Pf-HR :0.82615: L2-HR :0.80974: (Sim:0h0m19s) 
CPU  0 inst:    8000000 cyc:    4463473 now IPC :1.69937: AVG IPC :1.72440: L2-Pf-HR :0.82629: L2-HR :0.80971: (Sim:0h0m22s) 
CPU  0 inst:    9000002 cyc:    5022723 now IPC :1.78811: AVG IPC :1.73322: L2-Pf-HR :0.82414: L2-HR :0.80767: (Sim:0h0m25s) 
CPU  0 inst:   10000002 cyc:    5645429 now IPC :1.60589: AVG IPC :1.71621: L2-Pf-HR :0.82352: L2-HR :0.80698: (Sim:0h0m27s) 
CPU  0 inst:   11000000 cyc:    6267995 now IPC :1.60625: AVG IPC :1.70326: L2-Pf-HR :0.82360: L2-HR :0.80697: (Sim:0h0m30s) 
CPU  0 inst:   12000000 cyc:    6885326 now IPC :1.61988: AVG IPC :1.69453: L2-Pf-HR :0.82344: L2-HR :0.80696: (Sim:0h0m33s) 
CPU  0 inst:   13000003 cyc:    7428201 now IPC :1.84205: AVG IPC :1.70696: L2-Pf-HR :0.82286: L2-HR :0.80639: (Sim:0h0m36s) 
CPU  0 inst:   14000000 cyc:    8044018 now IPC :1.62385: AVG IPC :1.69971: L2-Pf-HR :0.82227: L2-HR :0.80580: (Sim:0h0m38s) 
CPU  0 inst:   15000003 cyc:    8665512 now IPC :1.60903: AVG IPC :1.69238: L2-Pf-HR :0.82209: L2-HR :0.80549: (Sim:0h0m41s) 
CPU  0 inst:   16000000 cyc:    9285303 now IPC :1.61344: AVG IPC :1.68648: L2-Pf-HR :0.82252: L2-HR :0.80589: (Sim:0h0m44s) 
CPU  0 inst:   17000002 cyc:    9818958 now IPC :1.87387: AVG IPC :1.69780: L2-Pf-HR :0.82223: L2-HR :0.80567: (Sim:0h0m47s) 
CPU  0 inst:   18000003 cyc:   10438260 now IPC :1.61472: AVG IPC :1.69236: L2-Pf-HR :0.82158: L2-HR :0.80510: (Sim:0h0m50s) 
CPU  0 inst:   19000001 cyc:   11062450 now IPC :1.60207: AVG IPC :1.68677: L2-Pf-HR :0.82136: L2-HR :0.80494: (Sim:0h0m52s) 
CPU  0 inst:   20000000 cyc:   11684662 now IPC :1.60717: AVG IPC :1.68214: L2-Pf-HR :0.82165: L2-HR :0.80530: (Sim:0h0m55s) 
CPU  0 inst:   21000000 cyc:   12235971 now IPC :1.81386: AVG IPC :1.68859: L2-Pf-HR :0.82166: L2-HR :0.80523: (Sim:0h0m58s) 
CPU  0 inst:   22000003 cyc:   12840304 now IPC :1.65472: AVG IPC :1.68687: L2-Pf-HR :0.82116: L2-HR :0.80479: (Sim:0h1m1s) 
CPU  0 inst:   23000003 cyc:   13457002 now IPC :1.62154: AVG IPC :1.68364: L2-Pf-HR :0.82130: L2-HR :0.80490: (Sim:0h1m3s) 
CPU  0 inst:   24000000 cyc:   14083911 now IPC :1.59512: AVG IPC :1.67940: L2-Pf-HR :0.82120: L2-HR :0.80480: (Sim:0h1m6s) 
CPU  0 inst:   25000002 cyc:   14686706 now IPC :1.65894: AVG IPC :1.67850: L2-Pf-HR :0.82130: L2-HR :0.80489: (Sim:0h1m9s) 
CPU  0 inst:   26000003 cyc:   15240040 now IPC :1.80723: AVG IPC :1.68350: L2-Pf-HR :0.82116: L2-HR :0.80473: (Sim:0h1m12s) 
CPU  0 inst:   27000000 cyc:   15862591 now IPC :1.60629: AVG IPC :1.68027: L2-Pf-HR :0.82087: L2-HR :0.80442: (Sim:0h1m15s) 
CPU  0 inst:   28000000 cyc:   16483679 now IPC :1.61008: AVG IPC :1.67745: L2-Pf-HR :0.82084: L2-HR :0.80437: (Sim:0h1m17s) 
CPU  0 inst:   29000003 cyc:   17107483 now IPC :1.60307: AVG IPC :1.67458: L2-Pf-HR :0.82069: L2-HR :0.80427: (Sim:0h1m20s) 
CPU  0 inst:   30000001 cyc:   17643142 now IPC :1.86686: AVG IPC :1.68076: L2-Pf-HR :0.82054: L2-HR :0.80413: (Sim:0h1m23s) 
CPU  0 inst:   31000000 cyc:   18271022 now IPC :1.59266: AVG IPC :1.67756: L2-Pf-HR :0.82020: L2-HR :0.80381: (Sim:0h1m26s) 
CPU  0 inst:   32000000 cyc:   18896090 now IPC :1.59983: AVG IPC :1.67485: L2-Pf-HR :0.82006: L2-HR :0.80366: (Sim:0h1m28s) 
CPU  0 inst:   33000002 cyc:   19514411 now IPC :1.61729: AVG IPC :1.67293: L2-Pf-HR :0.82027: L2-HR :0.80382: (Sim:0h1m31s) 
CPU  0 inst:   34000000 cyc:   20049740 now IPC :1.86801: AVG IPC :1.67840: L2-Pf-HR :0.82026: L2-HR :0.80380: (Sim:0h1m34s) 
CPU  0 inst:   35000002 cyc:   20673810 now IPC :1.60239: AVG IPC :1.67599: L2-Pf-HR :0.82017: L2-HR :0.80371: (Sim:0h1m37s) 
CPU  0 inst:   36000000 cyc:   21308348 now IPC :1.57595: AVG IPC :1.67287: L2-Pf-HR :0.82014: L2-HR :0.80367: (Sim:0h1m40s) 
CPU  0 inst:   37000000 cyc:   21935667 now IPC :1.59409: AVG IPC :1.67051: L2-Pf-HR :0.82021: L2-HR :0.80372: (Sim:0h1m42s) 
CPU  0 inst:   38000002 cyc:   22522487 now IPC :1.70410: AVG IPC :1.67143: L2-Pf-HR :0.82031: L2-HR :0.80380: (Sim:0h1m45s) 
CPU  0 inst:   39000000 cyc:   23105855 now IPC :1.71418: AVG IPC :1.67255: L2-Pf-HR :0.82011: L2-HR :0.80360: (Sim:0h1m48s) 
CPU  0 inst:   40000000 cyc:   23734225 now IPC :1.59142: AVG IPC :1.67031: L2-Pf-HR :0.82014: L2-HR :0.80362: (Sim:0h1m51s) 
CPU  0 inst:   41000000 cyc:   24361962 now IPC :1.59302: AVG IPC :1.66824: L2-Pf-HR :0.82031: L2-HR :0.80380: (Sim:0h1m53s) 
CPU  0 inst:   42000001 cyc:   25439851 now IPC :0.92774: AVG IPC :1.63560: L2-Pf-HR :0.81862: L2-HR :0.80227: (Sim:0h1m57s) 
CPU  0 inst:   43000003 cyc:   31554781 now IPC :0.16353: AVG IPC :1.34115: L2-Pf-HR :0.79670: L2-HR :0.78799: (Sim:0h2m6s) 
CPU  0 inst:   44000000 cyc:   35362618 now IPC :0.26262: AVG IPC :1.22169: L2-Pf-HR :0.79325: L2-HR :0.78572: (Sim:0h2m12s) 
CPU  0 inst:   45000002 cyc:   38790994 now IPC :0.29168: AVG IPC :1.13736: L2-Pf-HR :0.79242: L2-HR :0.78537: (Sim:0h2m17s) 
CPU  0 inst:   46000002 cyc:   42214456 now IPC :0.29210: AVG IPC :1.06717: L2-Pf-HR :0.79191: L2-HR :0.78527: (Sim:0h2m22s) 
CPU  0 inst:   47000002 cyc:   45638373 now IPC :0.29206: AVG IPC :1.00774: L2-Pf-HR :0.79136: L2-HR :0.78514: (Sim:0h2m28s) 
CPU  0 inst:   48000000 cyc:   49062078 now IPC :0.29208: AVG IPC :0.95678: L2-Pf-HR :0.79075: L2-HR :0.78496: (Sim:0h2m33s) 
CPU  0 inst:   49000002 cyc:   52485377 now IPC :0.29212: AVG IPC :0.91260: L2-Pf-HR :0.79026: L2-HR :0.78486: (Sim:0h2m38s) 
CPU  0 inst:   50000002 cyc:   55908433 now IPC :0.29214: AVG IPC :0.87393: L2-Pf-HR :0.78976: L2-HR :0.78475: (Sim:0h2m43s) 
CPU  0 inst:   51000002 cyc:   59332176 now IPC :0.29208: AVG IPC :0.83979: L2-Pf-HR :0.78924: L2-HR :0.78460: (Sim:0h2m49s) 
CPU  0 inst:   52000000 cyc:   62754642 now IPC :0.29219: AVG IPC :0.80945: L2-Pf-HR :0.78881: L2-HR :0.78453: (Sim:0h2m54s) 
CPU  0 inst:   53000002 cyc:   66178684 now IPC :0.29205: AVG IPC :0.78227: L2-Pf-HR :0.78831: L2-HR :0.78439: (Sim:0h2m59s) 
CPU  0 inst:   54000002 cyc:   69602599 now IPC :0.29206: AVG IPC :0.75781: L2-Pf-HR :0.78782: L2-HR :0.78426: (Sim:0h3m4s) 
CPU  0 inst:   55000002 cyc:   73026196 now IPC :0.29209: AVG IPC :0.73568: L2-Pf-HR :0.78739: L2-HR :0.78416: (Sim:0h3m9s) 
CPU  0 inst:   56000000 cyc:   76449275 now IPC :0.29213: AVG IPC :0.71556: L2-Pf-HR :0.78692: L2-HR :0.78403: (Sim:0h3m15s) 
CPU  0 inst:   57000002 cyc:   79871783 now IPC :0.29218: AVG IPC :0.69719: L2-Pf-HR :0.78644: L2-HR :0.78388: (Sim:0h3m20s) 
CPU  0 inst:   58000002 cyc:   83294642 now IPC :0.29215: AVG IPC :0.68035: L2-Pf-HR :0.78598: L2-HR :0.78374: (Sim:0h3m25s) 
CPU  0 inst:   59000002 cyc:   86718040 now IPC :0.29211: AVG IPC :0.66485: L2-Pf-HR :0.78554: L2-HR :0.78361: (Sim:0h3m30s) 
CPU  0 inst:   60000000 cyc:   89363057 now IPC :0.37807: AVG IPC :0.65626: L2-Pf-HR :0.78487: L2-HR :0.78301: (Sim:0h3m35s) 
CPU  0 inst:   61000002 cyc:   89988681 now IPC :1.59841: AVG IPC :0.66289: L2-Pf-HR :0.78578: L2-HR :0.78391: (Sim:0h3m38s) 
CPU  0 inst:   62000003 cyc:   90616403 now IPC :1.59306: AVG IPC :0.66940: L2-Pf-HR :0.78691: L2-HR :0.78499: (Sim:0h3m41s) 
CPU  0 inst:   63000002 cyc:   91312829 now IPC :1.43590: AVG IPC :0.67531: L2-Pf-HR :0.78724: L2-HR :0.78537: (Sim:0h3m43s) 
CPU  0 inst:   64000000 cyc:   91966969 now IPC :1.52872: AVG IPC :0.68145: L2-Pf-HR :0.78747: L2-HR :0.78564: (Sim:0h3m46s) 
CPU  0 inst:   65000003 cyc:   92512884 now IPC :1.83179: AVG IPC :0.68831: L2-Pf-HR :0.78865: L2-HR :0.78676: (Sim:0h3m49s) 
CPU  0 inst:   66000002 cyc:   93146116 now IPC :1.57920: AVG IPC :0.69443: L2-Pf-HR :0.78907: L2-HR :0.78721: (Sim:0h3m52s) 
CPU  0 inst:   67000001 cyc:   93798461 now IPC :1.53293: AVG IPC :0.70032: L2-Pf-HR :0.78921: L2-HR :0.78739: (Sim:0h3m54s) 
CPU  0 inst:   68000000 cyc:   94428231 now IPC :1.58788: AVG IPC :0.70630: L2-Pf-HR :0.78947: L2-HR :0.78769: (Sim:0h3m57s) 
CPU  0 inst:   69000000 cyc:   94964778 now IPC :1.86377: AVG IPC :0.71291: L2-Pf-HR :0.79066: L2-HR :0.78884: (Sim:0h4m0s) 
CPU  0 inst:   70000003 cyc:   95615072 now IPC :1.53777: AVG IPC :0.71858: L2-Pf-HR :0.79085: L2-HR :0.78908: (Sim:0h4m3s) 
CPU  0 inst:   71000001 cyc:   96268578 now IPC :1.53020: AVG IPC :0.72415: L2-Pf-HR :0.79090: L2-HR :0.78918: (Sim:0h4m5s) 
CPU  0 inst:   72000000 cyc:   96853625 now IPC :1.70926: AVG IPC :0.73016: L2-Pf-HR :0.79137: L2-HR :0.78965: (Sim:0h4m8s) 
CPU  0 inst:   73000000 cyc:   97449055 now IPC :1.67946: AVG IPC :0.73602: L2-Pf-HR :0.79208: L2-HR :0.79034: (Sim:0h4m11s) 
CPU  0 inst:   74000003 cyc:   98090303 now IPC :1.55946: AVG IPC :0.74146: L2-Pf-HR :0.79217: L2-HR :0.79047: (Sim:0h4m14s) 
CPU  0 inst:   75000000 cyc:   98730776 now IPC :1.56134: AVG IPC :0.74683: L2-Pf-HR :0.79234: L2-HR :0.79069: (Sim:0h4m17s) 
CPU  0 inst:   76000000 cyc:   99275532 now IPC :1.83568: AVG IPC :0.75286: L2-Pf-HR :0.79321: L2-HR :0.79152: (Sim:0h4m19s) 
CPU  0 inst:   77000003 cyc:   99920359 now IPC :1.55081: AVG IPC :0.75806: L2-Pf-HR :0.79346: L2-HR :0.79180: (Sim:0h4m22s) 
CPU  0 inst:   78000001 cyc:  100567822 now IPC :1.54449: AVG IPC :0.76318: L2-Pf-HR :0.79346: L2-HR :0.79184: (Sim:0h4m25s) 
CPU  0 inst:   79000000 cyc:  101194240 now IPC :1.59638: AVG IPC :0.76838: L2-Pf-HR :0.79355: L2-HR :0.79196: (Sim:0h4m28s) 
CPU  0 inst:   80000000 cyc:  101732932 now IPC :1.85635: AVG IPC :0.77420: L2-Pf-HR :0.79448: L2-HR :0.79288: (Sim:0h4m30s) 
CPU  0 inst:   81000002 cyc:  102376403 now IPC :1.55407: AVG IPC :0.77915: L2-Pf-HR :0.79452: L2-HR :0.79296: (Sim:0h4m33s) 
CPU  0 inst:   82000002 cyc:  103019415 now IPC :1.55518: AVG IPC :0.78404: L2-Pf-HR :0.79462: L2-HR :0.79310: (Sim:0h4m36s) 
CPU  0 inst:   83000001 cyc:  103600565 now IPC :1.72072: AVG IPC :0.78935: L2-Pf-HR :0.79505: L2-HR :0.79352: (Sim:0h4m38s) 
CPU  0 inst:   84000000 cyc:  104198858 now IPC :1.67142: AVG IPC :0.79446: L2-Pf-HR :0.79571: L2-HR :0.79416: (Sim:0h4m41s) 
CPU  0 inst:   85000003 cyc:  104842107 now IPC :1.55461: AVG IPC :0.79917: L2-Pf-HR :0.79578: L2-HR :0.79426: (Sim:0h4m44s) 
CPU  0 inst:   86000000 cyc:  105473274 now IPC :1.58436: AVG IPC :0.80391: L2-Pf-HR :0.79591: L2-HR :0.79441: (Sim:0h4m47s) 
CPU  0 inst:   87000000 cyc:  106018733 now IPC :1.83332: AVG IPC :0.80926: L2-Pf-HR :0.79656: L2-HR :0.79504: (Sim:0h4m49s) 
CPU  0 inst:   88000000 cyc:  106655224 now IPC :1.57111: AVG IPC :0.81384: L2-Pf-HR :0.79675: L2-HR :0.79525: (Sim:0h4m52s) 
CPU  0 inst:   89000001 cyc:  107291484 now IPC :1.57169: AVG IPC :0.81838: L2-Pf-HR :0.79680: L2-HR :0.79533: (Sim:0h4m55s) 
CPU  0 inst:   90000003 cyc:  107927899 now IPC :1.57130: AVG IPC :0.82286: L2-Pf-HR :0.79689: L2-HR :0.79543: (Sim:0h4m58s) 
CPU  0 inst:   91000001 cyc:  108463292 now IPC :1.86778: AVG IPC :0.82807: L2-Pf-HR :0.79771: L2-HR :0.79623: (Sim:0h5m0s) 
CPU  0 inst:   92000000 cyc:  109116687 now IPC :1.53047: AVG IPC :0.83231: L2-Pf-HR :0.79774: L2-HR :0.79628: (Sim:0h5m3s) 
CPU  0 inst:   93000002 cyc:  109772797 now IPC :1.52414: AVG IPC :0.83648: L2-Pf-HR :0.79779: L2-HR :0.79636: (Sim:0h5m6s) 
CPU  0 inst:   94000003 cyc:  110346429 now IPC :1.74328: AVG IPC :0.84124: L2-Pf-HR :0.79810: L2-HR :0.79666: (Sim:0h5m9s) 
CPU  0 inst:   95000000 cyc:  110954846 now IPC :1.64360: AVG IPC :0.84568: L2-Pf-HR :0.79848: L2-HR :0.79704: (Sim:0h5m12s) 
CPU  0 inst:   96000000 cyc:  111591716 now IPC :1.57018: AVG IPC :0.84985: L2-Pf-HR :0.79845: L2-HR :0.79704: (Sim:0h5m14s) 
CPU  0 inst:   97000003 cyc:  112226966 now IPC :1.57419: AVG IPC :0.85399: L2-Pf-HR :0.79851: L2-HR :0.79712: (Sim:0h5m17s) 
CPU  0 inst:   98000000 cyc:  112772644 now IPC :1.83258: AVG IPC :0.85876: L2-Pf-HR :0.79919: L2-HR :0.79777: (Sim:0h5m20s) 
CPU  0 inst:   99000003 cyc:  113406505 now IPC :1.57764: AVG IPC :0.86282: L2-Pf-HR :0.79932: L2-HR :0.79791: (Sim:0h5m23s) 
CPU  0 inst:  100000000 cyc:  114063846 now IPC :1.52128: AVG IPC :0.86664: L2-Pf-HR :0.79939: L2-HR :0.79799: (Sim:0h5m25s) 
Finished CPU 0 instr: 98000002 cyc: 113079866 AVG IPC: 0.86664 (Sim time: 0h5m25s)

ChampSim completed all CPUs

[ROI Statistics]
Core_0_instructions 98000002
Core_0_cycles 113079866
Core_0_IPC 0.86664

Core_0_branch_prediction_accuracy 98.32538
Core_0_branch_MPKI 0.51239
Core_0_average_ROB_occupancy_at_mispredict 220.58665

Core_0_L1D_total_access 62510132
Core_0_L1D_total_hit 59904561 L1D_total_Hit Ratio: 0.95832
Core_0_L1D_total_miss 2605571
Core_0_L1D_loads 22982626
Core_0_L1D_load_hit 21805338 L1D_load_Hit Ratio: 0.94877
Core_0_L1D_load_miss 1177288
Core_0_L1D_RFOs 2939801
Core_0_L1D_RFO_hit 2800986 L1D_RFO_Hit Ratio: 0.95278
Core_0_L1D_RFO_miss 138815
Core_0_L1D_prefetches 36587705
Core_0_L1D_prefetch_hit 35298237 L1D_prefetch_Hit Ratio: 0.96476
Core_0_L1D_prefetch_miss 1289468
Core_0_L1D_writebacks 0
Core_0_L1D_writeback_hit 0 L1D_writeback_Hit Ratio: -nan
Core_0_L1D_writeback_miss 0
Core_0_L1D_prefetch_requested 71302284
Core_0_L1D_prefetch_issued 44254275
Core_0_L1D_prefetch_useful 1116585 L1D_Useful Ratio: 0.02523
Core_0_L1D_prefetch_useless 200406
Core_0_L1D_prefetch_late 338787
Core_0_L1D_average_miss_latency 9053658.17461

Core_0_L1I_total_access 23257850
Core_0_L1I_total_hit 23253073 L1I_total_Hit Ratio: 0.99979
Core_0_L1I_total_miss 4777
Core_0_L1I_loads 23257850
Core_0_L1I_load_hit 23253073 L1I_load_Hit Ratio: 0.99979
Core_0_L1I_load_miss 4777
Core_0_L1I_RFOs 0
Core_0_L1I_RFO_hit 0 L1I_RFO_Hit Ratio: -nan
Core_0_L1I_RFO_miss 0
Core_0_L1I_prefetches 0
Core_0_L1I_prefetch_hit 0 L1I_prefetch_Hit Ratio: -nan
Core_0_L1I_prefetch_miss 0
Core_0_L1I_writebacks 0
Core_0_L1I_writeback_hit 0 L1I_writeback_Hit Ratio: -nan
Core_0_L1I_writeback_miss 0
Core_0_L1I_prefetch_requested 0
Core_0_L1I_prefetch_issued 0
Core_0_L1I_prefetch_useful 0 L1I_Useful Ratio: -nan
Core_0_L1I_prefetch_useless 0
Core_0_L1I_prefetch_late 0
Core_0_L1I_average_miss_latency 323.56646

Core_0_L2C_total_access 11051717
Core_0_L2C_total_hit 8819214 L2C_total_Hit Ratio: 0.79799
Core_0_L2C_total_miss 2232503
Core_0_L2C_loads 844066
Core_0_L2C_load_hit 541655 L2C_load_Hit Ratio: 0.64172
Core_0_L2C_load_miss 302411
Core_0_L2C_RFOs 138786
Core_0_L2C_RFO_hit 97905 L2C_RFO_Hit Ratio: 0.70544
Core_0_L2C_RFO_miss 40881
Core_0_L2C_prefetches 9379613
Core_0_L2C_prefetch_hit 7497934 L2C_prefetch_Hit Ratio: 0.79939
Core_0_L2C_prefetch_miss 1881679
Core_0_L2C_writebacks 689252
Core_0_L2C_writeback_hit 681720 L2C_writeback_Hit Ratio: 0.98907
Core_0_L2C_writeback_miss 7532
Core_0_L2C_prefetch_requested 16309166
Core_0_L2C_prefetch_issued 12814126
Core_0_L2C_prefetch_useful 420651 L2C_Useful Ratio: 0.03283
Core_0_L2C_prefetch_useless 1490163
Core_0_L2C_prefetch_late 25256
Core_0_L2C_average_miss_latency 144.66137

Core_0_LLC_total_access 2950190
Core_0_LLC_total_hit 2140542 LLC_total_Hit Ratio: 0.72556
Core_0_LLC_total_miss 809648
Core_0_LLC_loads 277160
Core_0_LLC_load_hit 197003 LLC_load_Hit Ratio: 0.71079
Core_0_LLC_load_miss 80157
Core_0_LLC_RFOs 40881
Core_0_LLC_RFO_hit 11728 LLC_RFO_Hit Ratio: 0.28688
Core_0_LLC_RFO_miss 29153
Core_0_LLC_prefetches 1968138
Core_0_LLC_prefetch_hit 1268467 LLC_prefetch_Hit Ratio: 0.64450
Core_0_LLC_prefetch_miss 699671
Core_0_LLC_writebacks 664011
Core_0_LLC_writeback_hit 663344 LLC_writeback_Hit Ratio: 0.99900
Core_0_LLC_writeback_miss 667
Core_0_LLC_prefetch_requested 0
Core_0_LLC_prefetch_issued 0
Core_0_LLC_prefetch_useful 136419 LLC_Useful Ratio: inf
Core_0_LLC_prefetch_useless 556024
Core_0_LLC_prefetch_late 9628
Core_0_LLC_average_miss_latency 347.64196

Core_0_major_page_fault 0
Core_0_minor_page_fault 7592

CPU 0 L1D next line prefetcher final stats
CPU 0 L2C PC-based stride prefetcher final stats
Stride Degree: 15
MK1  MARKOV_LRU_SIZE: 128
MK1  MARKOV_PREDICTION_PERCENTTHRESHOLD: 30.00000
MK1  OUTLIERS_THRESHOLD_Max: 64
MK1  OUTLIERS_THRESHOLD_Min: 32
MK2  MARKOV_LRU_SIZE: 256
MK2  MARKOV_PREDICTION_PERCENTTHRESHOLD: 30.00000
MK2  OUTLIERS_THRESHOLD_Max: 32
MK2  OUTLIERS_THRESHOLD_Min: 16
MK3  MARKOV_LRU_SIZE: 384
MK3  MARKOV_PREDICTION_PERCENTTHRESHOLD: 25.00000
MK3  OUTLIERS_THRESHOLD_Max: 16
MK3  OUTLIERS_THRESHOLD_Min: 8
MK4  MARKOV_LRU_SIZE: 512
MK4  MARKOV_PREDICTION_PERCENTTHRESHOLD: 20.00000
MK4  OUTLIERS_THRESHOLD_Max: 8
MK4  OUTLIERS_THRESHOLD_Min: 0
IPStride Degree/Access Ratio: 4.59615
MK1 IPDEltaMarkov  Degree/Access Ratio: 0.20234
MK2 IPDEltaMarkov  Degree/Access Ratio: 0.33811
MK3 IPDEltaMarkov  Degree/Access Ratio: 0.66031
MK4 IPDEltaMarkov  Degree/Access Ratio: 1.42345
Channel_0_RQ_row_buffer_hit 446896
Channel_0_RQ_row_buffer_miss 362085
Channel_0_WQ_row_buffer_hit 147441
Channel_0_WQ_row_buffer_miss 281107
Channel_0_WQ_full 0
Channel_0_dbus_congested 950941

avg_congested_cycle 11

EzSearch AVG IPC :0.86664: L2-Pf-HR :0.79939 : L2-HR :0.79799 Uful:0.03283
     > Finished combination: TraceType=777-FE Sim:98000000 Prefetcher=L2029-TOP1_BF-L2-MultiMarkovDelta_ip_stride_v4 L1=next_line
