TRACE: [83000000][Pythia-70M]_[h8][s512][d64] Warmup: 2000000 NumTraces: 83000000
L1:next_line:L2:029-TOP1_BF-L2-MultiMarkovDelta_ip_stride_v4
*************************************************
   ChampSim Multicore Out-of-Order Simulator
   Last compiled: Oct 26 2024 08:52:23
*************************************************

trace_0 777-FE_comparisonScript_memoryTraces/memTraces[83000000][Pythia-70M]_[h8][s512][d64].champsim.xz
CPU 0 L1D next line prefetcher
MK1: Size: 128 TMAX: 64 TMIN: 32 MKPTHRESH: 30
MK2: Size: 256 TMAX: 32 TMIN: 16 MKPTHRESH: 40
MK3: Size: 384 TMAX: 16 TMIN: 8 MKPTHRESH: 25
MK4: Size: 512 TMAX: 8 TMIN: 0 MKPTHRESH: 20
Stride Size: 512 Prefetch Degree: 16

CPU 0 L2C prefetcher
MAIN.cc ln 751 stats print skipped
CPU 0 L2C prefetcher initialized


Cache Size: 256
number of cache lines: 4096
CPU  0 inst:    1000002 cyc:     502766 now IPC :1.98900: AVG IPC :1.98900: L2-Pf-HR :0.72299: L2-HR :0.69522: (Sim:0h0m3s) 
CPU  0 inst:    2000001 cyc:     976923 now IPC :2.10900: AVG IPC :2.04725: L2-Pf-HR :0.74194: L2-HR :0.71552: (Sim:0h0m5s) 

Warmup complete CPU  0 instructions:    2000001 cycles:     976923 (Simulation time: 0 hr 0 min 5 sec) 

CPU  0 inst:    3000002 cyc:    1518383 now IPC :1.84686: AVG IPC :1.84686: L2-Pf-HR :0.75483: L2-HR :0.74235: (Sim:0h0m8s) 
CPU  0 inst:    4000000 cyc:    2095976 now IPC :1.73132: AVG IPC :1.78722: L2-Pf-HR :0.79962: L2-HR :0.78676: (Sim:0h0m11s) 
CPU  0 inst:    5000000 cyc:    2734109 now IPC :1.56707: AVG IPC :1.70727: L2-Pf-HR :0.79102: L2-HR :0.77842: (Sim:0h0m14s) 
CPU  0 inst:    6000003 cyc:    3281967 now IPC :1.82530: AVG IPC :1.73533: L2-Pf-HR :0.78243: L2-HR :0.76996: (Sim:0h0m16s) 
CPU  0 inst:    7000000 cyc:    3834846 now IPC :1.80871: AVG IPC :1.74952: L2-Pf-HR :0.78190: L2-HR :0.76884: (Sim:0h0m19s) 
CPU  0 inst:    8000000 cyc:    4427987 now IPC :1.68594: AVG IPC :1.73859: L2-Pf-HR :0.79290: L2-HR :0.77968: (Sim:0h0m22s) 
CPU  0 inst:    9000002 cyc:    5122928 now IPC :1.43897: AVG IPC :1.68837: L2-Pf-HR :0.79350: L2-HR :0.78020: (Sim:0h0m25s) 
CPU  0 inst:   10000002 cyc:    5677603 now IPC :1.80286: AVG IPC :1.70188: L2-Pf-HR :0.78991: L2-HR :0.77655: (Sim:0h0m28s) 
CPU  0 inst:   11000002 cyc:    6231604 now IPC :1.80505: AVG IPC :1.71276: L2-Pf-HR :0.78883: L2-HR :0.77520: (Sim:0h0m30s) 
CPU  0 inst:   12000000 cyc:    6828272 now IPC :1.67597: AVG IPC :1.70901: L2-Pf-HR :0.79291: L2-HR :0.77923: (Sim:0h0m33s) 
CPU  0 inst:   13000003 cyc:    7511270 now IPC :1.46414: AVG IPC :1.68341: L2-Pf-HR :0.79469: L2-HR :0.78098: (Sim:0h0m36s) 
CPU  0 inst:   14000000 cyc:    8071840 now IPC :1.78389: AVG IPC :1.69135: L2-Pf-HR :0.79274: L2-HR :0.77887: (Sim:0h0m39s) 
CPU  0 inst:   15000000 cyc:    8622232 now IPC :1.81689: AVG IPC :1.70039: L2-Pf-HR :0.79165: L2-HR :0.77759: (Sim:0h0m42s) 
CPU  0 inst:   16000000 cyc:    9225121 now IPC :1.65868: AVG IPC :1.69734: L2-Pf-HR :0.79409: L2-HR :0.77979: (Sim:0h0m44s) 
CPU  0 inst:   17000003 cyc:    9909857 now IPC :1.46042: AVG IPC :1.67918: L2-Pf-HR :0.79581: L2-HR :0.78149: (Sim:0h0m47s) 
CPU  0 inst:   18000003 cyc:   10467546 now IPC :1.79311: AVG IPC :1.68587: L2-Pf-HR :0.79469: L2-HR :0.78022: (Sim:0h0m50s) 
CPU  0 inst:   19000002 cyc:   11028401 now IPC :1.78299: AVG IPC :1.69129: L2-Pf-HR :0.79438: L2-HR :0.77972: (Sim:0h0m53s) 
CPU  0 inst:   20000000 cyc:   11632159 now IPC :1.65629: AVG IPC :1.68931: L2-Pf-HR :0.79598: L2-HR :0.78116: (Sim:0h0m56s) 
CPU  0 inst:   21000000 cyc:   12315730 now IPC :1.46291: AVG IPC :1.67566: L2-Pf-HR :0.79779: L2-HR :0.78296: (Sim:0h0m59s) 
CPU  0 inst:   22000001 cyc:   12877356 now IPC :1.78055: AVG IPC :1.68061: L2-Pf-HR :0.79703: L2-HR :0.78208: (Sim:0h1m1s) 
CPU  0 inst:   23000000 cyc:   13435632 now IPC :1.79123: AVG IPC :1.68557: L2-Pf-HR :0.79649: L2-HR :0.78143: (Sim:0h1m4s) 
CPU  0 inst:   24000000 cyc:   14039063 now IPC :1.65719: AVG IPC :1.68426: L2-Pf-HR :0.79726: L2-HR :0.78209: (Sim:0h1m7s) 
CPU  0 inst:   25000002 cyc:   14711496 now IPC :1.48714: AVG IPC :1.67461: L2-Pf-HR :0.79908: L2-HR :0.78398: (Sim:0h1m10s) 
CPU  0 inst:   26000002 cyc:   15273782 now IPC :1.77845: AVG IPC :1.67869: L2-Pf-HR :0.79776: L2-HR :0.78264: (Sim:0h1m13s) 
CPU  0 inst:   27000002 cyc:   15827118 now IPC :1.80722: AVG IPC :1.68348: L2-Pf-HR :0.79679: L2-HR :0.78166: (Sim:0h1m15s) 
CPU  0 inst:   28000000 cyc:   16428899 now IPC :1.66173: AVG IPC :1.68263: L2-Pf-HR :0.79695: L2-HR :0.78174: (Sim:0h1m18s) 
CPU  0 inst:   29000003 cyc:   17071131 now IPC :1.55707: AVG IPC :1.67762: L2-Pf-HR :0.79880: L2-HR :0.78376: (Sim:0h1m21s) 
CPU  0 inst:   30000000 cyc:   17653216 now IPC :1.71796: AVG IPC :1.67903: L2-Pf-HR :0.79800: L2-HR :0.78289: (Sim:0h1m24s) 
CPU  0 inst:   31000001 cyc:   18209176 now IPC :1.79869: AVG IPC :1.68289: L2-Pf-HR :0.79744: L2-HR :0.78225: (Sim:0h1m27s) 
CPU  0 inst:   32000000 cyc:   18807138 now IPC :1.67235: AVG IPC :1.68254: L2-Pf-HR :0.79745: L2-HR :0.78214: (Sim:0h1m29s) 
CPU  0 inst:   33000000 cyc:   19465735 now IPC :1.51838: AVG IPC :1.67669: L2-Pf-HR :0.79951: L2-HR :0.78408: (Sim:0h1m32s) 
CPU  0 inst:   34000000 cyc:   25637598 now IPC :0.16203: AVG IPC :1.29761: L2-Pf-HR :0.77384: L2-HR :0.76748: (Sim:0h1m41s) 
CPU  0 inst:   35000001 cyc:   29766301 now IPC :0.24221: AVG IPC :1.14626: L2-Pf-HR :0.76906: L2-HR :0.76419: (Sim:0h1m47s) 
CPU  0 inst:   36000000 cyc:   33290819 now IPC :0.28373: AVG IPC :1.05218: L2-Pf-HR :0.76984: L2-HR :0.76457: (Sim:0h1m53s) 
CPU  0 inst:   37000002 cyc:   36814910 now IPC :0.28376: AVG IPC :0.97662: L2-Pf-HR :0.77091: L2-HR :0.76519: (Sim:0h1m58s) 
CPU  0 inst:   38000000 cyc:   40339080 now IPC :0.28375: AVG IPC :0.91458: L2-Pf-HR :0.77196: L2-HR :0.76581: (Sim:0h2m4s) 
CPU  0 inst:   39000000 cyc:   43863506 now IPC :0.28373: AVG IPC :0.86274: L2-Pf-HR :0.77293: L2-HR :0.76637: (Sim:0h2m9s) 
CPU  0 inst:   40000000 cyc:   47387705 now IPC :0.28375: AVG IPC :0.81878: L2-Pf-HR :0.77396: L2-HR :0.76699: (Sim:0h2m15s) 
CPU  0 inst:   41000001 cyc:   50911429 now IPC :0.28379: AVG IPC :0.78102: L2-Pf-HR :0.77493: L2-HR :0.76757: (Sim:0h2m20s) 
CPU  0 inst:   42000001 cyc:   54434680 now IPC :0.28383: AVG IPC :0.74825: L2-Pf-HR :0.77582: L2-HR :0.76809: (Sim:0h2m25s) 
CPU  0 inst:   43000001 cyc:   57958626 now IPC :0.28377: AVG IPC :0.71953: L2-Pf-HR :0.77671: L2-HR :0.76863: (Sim:0h2m31s) 
CPU  0 inst:   44000000 cyc:   61482830 now IPC :0.28375: AVG IPC :0.69415: L2-Pf-HR :0.77758: L2-HR :0.76915: (Sim:0h2m36s) 
CPU  0 inst:   45000002 cyc:   65007088 now IPC :0.28375: AVG IPC :0.67156: L2-Pf-HR :0.77843: L2-HR :0.76965: (Sim:0h2m42s) 
CPU  0 inst:   46000000 cyc:   68530912 now IPC :0.28378: AVG IPC :0.65133: L2-Pf-HR :0.77923: L2-HR :0.77014: (Sim:0h2m47s) 
CPU  0 inst:   47000000 cyc:   72054147 now IPC :0.28383: AVG IPC :0.63311: L2-Pf-HR :0.78002: L2-HR :0.77061: (Sim:0h2m53s) 
CPU  0 inst:   48000000 cyc:   75577691 now IPC :0.28381: AVG IPC :0.61662: L2-Pf-HR :0.78084: L2-HR :0.77111: (Sim:0h2m58s) 
CPU  0 inst:   49000000 cyc:   79101206 now IPC :0.28381: AVG IPC :0.60161: L2-Pf-HR :0.78154: L2-HR :0.77152: (Sim:0h3m3s) 
CPU  0 inst:   50000003 cyc:   82624992 now IPC :0.28379: AVG IPC :0.58789: L2-Pf-HR :0.78226: L2-HR :0.77195: (Sim:0h3m9s) 
CPU  0 inst:   51000001 cyc:   84408642 now IPC :0.56065: AVG IPC :0.58731: L2-Pf-HR :0.79178: L2-HR :0.78109: (Sim:0h3m13s) 
CPU  0 inst:   52000000 cyc:   85130152 now IPC :1.38598: AVG IPC :0.59415: L2-Pf-HR :0.80491: L2-HR :0.79408: (Sim:0h3m17s) 
CPU  0 inst:   53000003 cyc:   85803761 now IPC :1.48455: AVG IPC :0.60122: L2-Pf-HR :0.81642: L2-HR :0.80557: (Sim:0h3m20s) 
CPU  0 inst:   54000001 cyc:   86389171 now IPC :1.70820: AVG IPC :0.60881: L2-Pf-HR :0.82650: L2-HR :0.81572: (Sim:0h3m24s) 
CPU  0 inst:   55000001 cyc:   87087598 now IPC :1.43179: AVG IPC :0.61549: L2-Pf-HR :0.83526: L2-HR :0.82461: (Sim:0h3m28s) 
CPU  0 inst:   56000000 cyc:   87764964 now IPC :1.47631: AVG IPC :0.62221: L2-Pf-HR :0.84310: L2-HR :0.83262: (Sim:0h3m31s) 
CPU  0 inst:   57000001 cyc:   88401222 now IPC :1.57169: AVG IPC :0.62912: L2-Pf-HR :0.85010: L2-HR :0.83982: (Sim:0h3m35s) 
CPU  0 inst:   58000002 cyc:   88987532 now IPC :1.70558: AVG IPC :0.63629: L2-Pf-HR :0.85656: L2-HR :0.84649: (Sim:0h3m38s) 
CPU  0 inst:   59000000 cyc:   89621775 now IPC :1.57668: AVG IPC :0.64302: L2-Pf-HR :0.86231: L2-HR :0.85246: (Sim:0h3m42s) 
CPU  0 inst:   60000000 cyc:   90277580 now IPC :1.52484: AVG IPC :0.64949: L2-Pf-HR :0.86742: L2-HR :0.85780: (Sim:0h3m45s) 
CPU  0 inst:   61000000 cyc:   90931598 now IPC :1.52901: AVG IPC :0.65589: L2-Pf-HR :0.87197: L2-HR :0.86260: (Sim:0h3m49s) 
CPU  0 inst:   62000001 cyc:   91515683 now IPC :1.71208: AVG IPC :0.66270: L2-Pf-HR :0.87640: L2-HR :0.86725: (Sim:0h3m52s) 
CPU  0 inst:   63000002 cyc:   92130088 now IPC :1.62759: AVG IPC :0.66920: L2-Pf-HR :0.88041: L2-HR :0.87148: (Sim:0h3m56s) 
CPU  0 inst:   64000000 cyc:   92787456 now IPC :1.52121: AVG IPC :0.67530: L2-Pf-HR :0.88410: L2-HR :0.87539: (Sim:0h4m0s) 
CPU  0 inst:   65000001 cyc:   93455018 now IPC :1.49799: AVG IPC :0.68124: L2-Pf-HR :0.88735: L2-HR :0.87886: (Sim:0h4m3s) 
CPU  0 inst:   66000000 cyc:   94039649 now IPC :1.71048: AVG IPC :0.68771: L2-Pf-HR :0.89058: L2-HR :0.88230: (Sim:0h4m7s) 
CPU  0 inst:   67000003 cyc:   94624724 now IPC :1.70919: AVG IPC :0.69409: L2-Pf-HR :0.89366: L2-HR :0.88559: (Sim:0h4m10s) 
CPU  0 inst:   68000000 cyc:   95305165 now IPC :1.46963: AVG IPC :0.69968: L2-Pf-HR :0.89637: L2-HR :0.88848: (Sim:0h4m14s) 
CPU  0 inst:   69000000 cyc:   95961938 now IPC :1.52260: AVG IPC :0.70537: L2-Pf-HR :0.89887: L2-HR :0.89118: (Sim:0h4m17s) 
CPU  0 inst:   70000000 cyc:   96568961 now IPC :1.64738: AVG IPC :0.71136: L2-Pf-HR :0.90124: L2-HR :0.89373: (Sim:0h4m21s) 
CPU  0 inst:   71000002 cyc:   97153129 now IPC :1.71184: AVG IPC :0.71743: L2-Pf-HR :0.90357: L2-HR :0.89624: (Sim:0h4m24s) 
CPU  0 inst:   72000000 cyc:   97816162 now IPC :1.50822: AVG IPC :0.72285: L2-Pf-HR :0.90564: L2-HR :0.89848: (Sim:0h4m28s) 
CPU  0 inst:   73000000 cyc:   98471883 now IPC :1.52504: AVG IPC :0.72824: L2-Pf-HR :0.90760: L2-HR :0.90060: (Sim:0h4m32s) 
CPU  0 inst:   74000003 cyc:   99094101 now IPC :1.60716: AVG IPC :0.73382: L2-Pf-HR :0.90946: L2-HR :0.90262: (Sim:0h4m35s) 
CPU  0 inst:   75000000 cyc:   99678003 now IPC :1.71261: AVG IPC :0.73961: L2-Pf-HR :0.91132: L2-HR :0.90463: (Sim:0h4m39s) 
CPU  0 inst:   76000000 cyc:  100334954 now IPC :1.52218: AVG IPC :0.74478: L2-Pf-HR :0.91295: L2-HR :0.90641: (Sim:0h4m42s) 
CPU  0 inst:   77000001 cyc:  100991288 now IPC :1.52362: AVG IPC :0.74989: L2-Pf-HR :0.91453: L2-HR :0.90813: (Sim:0h4m46s) 
CPU  0 inst:   78000002 cyc:  101624206 now IPC :1.57999: AVG IPC :0.75511: L2-Pf-HR :0.91605: L2-HR :0.90978: (Sim:0h4m49s) 
CPU  0 inst:   79000000 cyc:  102208031 now IPC :1.71284: AVG IPC :0.76064: L2-Pf-HR :0.91755: L2-HR :0.91142: (Sim:0h4m53s) 
CPU  0 inst:   80000000 cyc:  102852398 now IPC :1.55191: AVG IPC :0.76564: L2-Pf-HR :0.91887: L2-HR :0.91286: (Sim:0h4m57s) 
Finished CPU 0 instr: 78000000 cyc: 101875513 AVG IPC: 0.76564 (Sim time: 0h4m57s)

ChampSim completed all CPUs

[ROI Statistics]
Core_0_instructions 78000000
Core_0_cycles 101875513
Core_0_IPC 0.76564

Core_0_branch_prediction_accuracy 99.16542
Core_0_branch_MPKI 0.25491
Core_0_average_ROB_occupancy_at_mispredict 230.99507

Core_0_L1D_total_access 53492827
Core_0_L1D_total_hit 49008539 L1D_total_Hit Ratio: 0.91617
Core_0_L1D_total_miss 4484288
Core_0_L1D_loads 21306840
Core_0_L1D_load_hit 19390302 L1D_load_Hit Ratio: 0.91005
Core_0_L1D_load_miss 1916538
Core_0_L1D_RFOs 2197478
Core_0_L1D_RFO_hit 2080265 L1D_RFO_Hit Ratio: 0.94666
Core_0_L1D_RFO_miss 117213
Core_0_L1D_prefetches 29988509
Core_0_L1D_prefetch_hit 27537972 L1D_prefetch_Hit Ratio: 0.91828
Core_0_L1D_prefetch_miss 2450537
Core_0_L1D_writebacks 0
Core_0_L1D_writeback_hit 0 L1D_writeback_Hit Ratio: -nan
Core_0_L1D_writeback_miss 0
Core_0_L1D_prefetch_requested 66145014
Core_0_L1D_prefetch_issued 34839236
Core_0_L1D_prefetch_useful 994205 L1D_Useful Ratio: 0.02854
Core_0_L1D_prefetch_useless 1483074
Core_0_L1D_prefetch_late 244705
Core_0_L1D_average_miss_latency 2919037.52378

Core_0_L1I_total_access 19638418
Core_0_L1I_total_hit 19633511 L1I_total_Hit Ratio: 0.99975
Core_0_L1I_total_miss 4907
Core_0_L1I_loads 19638418
Core_0_L1I_load_hit 19633511 L1I_load_Hit Ratio: 0.99975
Core_0_L1I_load_miss 4907
Core_0_L1I_RFOs 0
Core_0_L1I_RFO_hit 0 L1I_RFO_Hit Ratio: -nan
Core_0_L1I_RFO_miss 0
Core_0_L1I_prefetches 0
Core_0_L1I_prefetch_hit 0 L1I_prefetch_Hit Ratio: -nan
Core_0_L1I_prefetch_miss 0
Core_0_L1I_writebacks 0
Core_0_L1I_writeback_hit 0 L1I_writeback_Hit Ratio: -nan
Core_0_L1I_writeback_miss 0
Core_0_L1I_prefetch_requested 0
Core_0_L1I_prefetch_issued 0
Core_0_L1I_prefetch_useful 0 L1I_Useful Ratio: -nan
Core_0_L1I_prefetch_useless 0
Core_0_L1I_prefetch_late 0
Core_0_L1I_average_miss_latency 336.18667

Core_0_L2C_total_access 16350283
Core_0_L2C_total_hit 14925549 L2C_total_Hit Ratio: 0.91286
Core_0_L2C_total_miss 1424734
Core_0_L2C_loads 1677449
Core_0_L2C_load_hit 1477496 L2C_load_Hit Ratio: 0.88080
Core_0_L2C_load_miss 199953
Core_0_L2C_RFOs 117200
Core_0_L2C_RFO_hit 39199 L2C_RFO_Hit Ratio: 0.33446
Core_0_L2C_RFO_miss 78001
Core_0_L2C_prefetches 14064064
Core_0_L2C_prefetch_hit 12923020 L2C_prefetch_Hit Ratio: 0.91887
Core_0_L2C_prefetch_miss 1141044
Core_0_L2C_writebacks 491570
Core_0_L2C_writeback_hit 485834 L2C_writeback_Hit Ratio: 0.98833
Core_0_L2C_writeback_miss 5736
Core_0_L2C_prefetch_requested 30002833
Core_0_L2C_prefetch_issued 17500965
Core_0_L2C_prefetch_useful 178124 L2C_Useful Ratio: 0.01018
Core_0_L2C_prefetch_useless 1003964
Core_0_L2C_prefetch_late 6794
Core_0_L2C_average_miss_latency 184.30929

Core_0_LLC_total_access 1928690
Core_0_LLC_total_hit 1224934 LLC_total_Hit Ratio: 0.63511
Core_0_LLC_total_miss 703756
Core_0_LLC_loads 193176
Core_0_LLC_load_hit 141134 LLC_load_Hit Ratio: 0.73060
Core_0_LLC_load_miss 52042
Core_0_LLC_RFOs 78001
Core_0_LLC_RFO_hit 43 LLC_RFO_Hit Ratio: 0.00055
Core_0_LLC_RFO_miss 77958
Core_0_LLC_prefetches 1171860
Core_0_LLC_prefetch_hit 598122 LLC_prefetch_Hit Ratio: 0.51040
Core_0_LLC_prefetch_miss 573738
Core_0_LLC_writebacks 485653
Core_0_LLC_writeback_hit 485635 LLC_writeback_Hit Ratio: 0.99996
Core_0_LLC_writeback_miss 18
Core_0_LLC_prefetch_requested 0
Core_0_LLC_prefetch_issued 0
Core_0_LLC_prefetch_useful 110705 LLC_Useful Ratio: inf
Core_0_LLC_prefetch_useless 453043
Core_0_LLC_prefetch_late 2468
Core_0_LLC_average_miss_latency 324.84708

Core_0_major_page_fault 0
Core_0_minor_page_fault 6067

CPU 0 L1D next line prefetcher final stats
CPU 0 L2C PC-based stride prefetcher final stats
Stride Degree: 16
MK1  MARKOV_LRU_SIZE: 128
MK1  MARKOV_PREDICTION_PERCENTTHRESHOLD: 30.00000
MK1  OUTLIERS_THRESHOLD_Max: 64
MK1  OUTLIERS_THRESHOLD_Min: 32
MK2  MARKOV_LRU_SIZE: 256
MK2  MARKOV_PREDICTION_PERCENTTHRESHOLD: 40.00000
MK2  OUTLIERS_THRESHOLD_Max: 32
MK2  OUTLIERS_THRESHOLD_Min: 16
MK3  MARKOV_LRU_SIZE: 384
MK3  MARKOV_PREDICTION_PERCENTTHRESHOLD: 25.00000
MK3  OUTLIERS_THRESHOLD_Max: 16
MK3  OUTLIERS_THRESHOLD_Min: 8
MK4  MARKOV_LRU_SIZE: 512
MK4  MARKOV_PREDICTION_PERCENTTHRESHOLD: 20.00000
MK4  OUTLIERS_THRESHOLD_Max: 8
MK4  OUTLIERS_THRESHOLD_Min: 0
IPStride Degree/Access Ratio: 3.59910
MK1 IPDEltaMarkov  Degree/Access Ratio: 0.87698
MK2 IPDEltaMarkov  Degree/Access Ratio: 0.70917
MK3 IPDEltaMarkov  Degree/Access Ratio: 0.74704
MK4 IPDEltaMarkov  Degree/Access Ratio: 1.44528
Channel_0_RQ_row_buffer_hit 348721
Channel_0_RQ_row_buffer_miss 355017
Channel_0_WQ_row_buffer_hit 122109
Channel_0_WQ_row_buffer_miss 286851
Channel_0_WQ_full 0
Channel_0_dbus_congested 770369

avg_congested_cycle 11

EzSearch AVG IPC :0.76564: L2-Pf-HR :0.91887 : L2-HR :0.91286 Uful:0.01018
     > Finished combination: TraceType=777-FE Sim:78000000 Prefetcher=L2029-TOP1_BF-L2-MultiMarkovDelta_ip_stride_v4 L1=next_line
