TRACE: [103000000]_FE_[OPT-2_7B]_[h32]_[s256]_[d80] Warmup: 2000000 NumTraces: 103000000
L1:next_line:L2:029-TOP1_BF-L2-MultiMarkovDelta_ip_stride_v4
*************************************************
   ChampSim Multicore Out-of-Order Simulator
   Last compiled: Oct 26 2024 10:37:33
*************************************************

trace_0 777-FE_comparisonScript_memoryTraces/memTraces[103000000]_FE_[OPT-2_7B]_[h32]_[s256]_[d80].champsim.xz
CPU 0 L1D next line prefetcher
MK1: Size: 128 TMAX: 64 TMIN: 32 MKPTHRESH: 30
MK2: Size: 256 TMAX: 32 TMIN: 16 MKPTHRESH: 40
MK3: Size: 384 TMAX: 16 TMIN: 8 MKPTHRESH: 25
MK4: Size: 512 TMAX: 8 TMIN: 0 MKPTHRESH: 20
Stride Size: 512 Prefetch Degree: 15

CPU 0 L2C prefetcher
MAIN.cc ln 751 stats print skipped
CPU 0 L2C prefetcher initialized


Cache Size: 256
number of cache lines: 4096
CPU  0 inst:    1000001 cyc:     503408 now IPC :1.98646: AVG IPC :1.98646: L2-Pf-HR :0.79835: L2-HR :0.76468: (Sim:0h0m2s) 
CPU  0 inst:    2000002 cyc:     984041 now IPC :2.08059: AVG IPC :2.03244: L2-Pf-HR :0.82174: L2-HR :0.79357: (Sim:0h0m5s) 

Warmup complete CPU  0 instructions:    2000002 cycles:     984041 (Simulation time: 0 hr 0 min 5 sec) 

CPU  0 inst:    3000002 cyc:    1564993 now IPC :1.72131: AVG IPC :1.72131: L2-Pf-HR :0.83095: L2-HR :0.81394: (Sim:0h0m8s) 
CPU  0 inst:    4000000 cyc:    2092996 now IPC :1.89392: AVG IPC :1.80350: L2-Pf-HR :0.83251: L2-HR :0.81592: (Sim:0h0m10s) 
CPU  0 inst:    5000001 cyc:    2673312 now IPC :1.72320: AVG IPC :1.77591: L2-Pf-HR :0.82858: L2-HR :0.81219: (Sim:0h0m13s) 
CPU  0 inst:    6000002 cyc:    3259472 now IPC :1.70602: AVG IPC :1.75791: L2-Pf-HR :0.82754: L2-HR :0.81112: (Sim:0h0m16s) 
CPU  0 inst:    7000001 cyc:    3875986 now IPC :1.62202: AVG IPC :1.72894: L2-Pf-HR :0.82669: L2-HR :0.81012: (Sim:0h0m18s) 
CPU  0 inst:    8000000 cyc:    4465812 now IPC :1.69541: AVG IPC :1.72326: L2-Pf-HR :0.82680: L2-HR :0.81008: (Sim:0h0m21s) 
CPU  0 inst:    9000002 cyc:    5026584 now IPC :1.78326: AVG IPC :1.73158: L2-Pf-HR :0.82531: L2-HR :0.80861: (Sim:0h0m24s) 
CPU  0 inst:   10000002 cyc:    5652374 now IPC :1.59798: AVG IPC :1.71367: L2-Pf-HR :0.82483: L2-HR :0.80800: (Sim:0h0m26s) 
CPU  0 inst:   11000000 cyc:    6274603 now IPC :1.60712: AVG IPC :1.70114: L2-Pf-HR :0.82500: L2-HR :0.80811: (Sim:0h0m29s) 
CPU  0 inst:   12000000 cyc:    6890016 now IPC :1.62493: AVG IPC :1.69320: L2-Pf-HR :0.82509: L2-HR :0.80829: (Sim:0h0m32s) 
CPU  0 inst:   13000003 cyc:    7433098 now IPC :1.84135: AVG IPC :1.70568: L2-Pf-HR :0.82459: L2-HR :0.80776: (Sim:0h0m34s) 
CPU  0 inst:   14000000 cyc:    8050242 now IPC :1.62036: AVG IPC :1.69822: L2-Pf-HR :0.82407: L2-HR :0.80723: (Sim:0h0m37s) 
CPU  0 inst:   15000003 cyc:    8672970 now IPC :1.60584: AVG IPC :1.69074: L2-Pf-HR :0.82409: L2-HR :0.80714: (Sim:0h0m40s) 
CPU  0 inst:   16000000 cyc:    9295405 now IPC :1.60659: AVG IPC :1.68444: L2-Pf-HR :0.82453: L2-HR :0.80754: (Sim:0h0m43s) 
CPU  0 inst:   17000002 cyc:    9830392 now IPC :1.86921: AVG IPC :1.69561: L2-Pf-HR :0.82290: L2-HR :0.80605: (Sim:0h0m45s) 
CPU  0 inst:   18000003 cyc:   10449508 now IPC :1.61521: AVG IPC :1.69036: L2-Pf-HR :0.82116: L2-HR :0.80446: (Sim:0h0m48s) 
CPU  0 inst:   19000001 cyc:   11074165 now IPC :1.60088: AVG IPC :1.68482: L2-Pf-HR :0.81991: L2-HR :0.80337: (Sim:0h0m51s) 
CPU  0 inst:   20000000 cyc:   11696927 now IPC :1.60575: AVG IPC :1.68022: L2-Pf-HR :0.81975: L2-HR :0.80332: (Sim:0h0m54s) 
CPU  0 inst:   21000000 cyc:   12247142 now IPC :1.81747: AVG IPC :1.68692: L2-Pf-HR :0.81959: L2-HR :0.80307: (Sim:0h0m56s) 
CPU  0 inst:   22000003 cyc:   12853661 now IPC :1.64876: AVG IPC :1.68497: L2-Pf-HR :0.81899: L2-HR :0.80256: (Sim:0h0m59s) 
CPU  0 inst:   23000003 cyc:   13471793 now IPC :1.61778: AVG IPC :1.68165: L2-Pf-HR :0.81890: L2-HR :0.80249: (Sim:0h1m2s) 
CPU  0 inst:   24000000 cyc:   14099251 now IPC :1.59373: AVG IPC :1.67744: L2-Pf-HR :0.81865: L2-HR :0.80228: (Sim:0h1m5s) 
CPU  0 inst:   25000002 cyc:   14702686 now IPC :1.65718: AVG IPC :1.67655: L2-Pf-HR :0.81853: L2-HR :0.80219: (Sim:0h1m7s) 
CPU  0 inst:   26000003 cyc:   15255866 now IPC :1.80773: AVG IPC :1.68164: L2-Pf-HR :0.81819: L2-HR :0.80187: (Sim:0h1m10s) 
CPU  0 inst:   27000000 cyc:   15878480 now IPC :1.60613: AVG IPC :1.67848: L2-Pf-HR :0.81793: L2-HR :0.80159: (Sim:0h1m13s) 
CPU  0 inst:   28000000 cyc:   16499523 now IPC :1.61019: AVG IPC :1.67575: L2-Pf-HR :0.81800: L2-HR :0.80164: (Sim:0h1m15s) 
CPU  0 inst:   29000003 cyc:   17125169 now IPC :1.59835: AVG IPC :1.67275: L2-Pf-HR :0.81797: L2-HR :0.80164: (Sim:0h1m18s) 
CPU  0 inst:   30000001 cyc:   17659803 now IPC :1.87043: AVG IPC :1.67908: L2-Pf-HR :0.81786: L2-HR :0.80154: (Sim:0h1m21s) 
CPU  0 inst:   31000000 cyc:   18286898 now IPC :1.59465: AVG IPC :1.67602: L2-Pf-HR :0.81760: L2-HR :0.80129: (Sim:0h1m24s) 
CPU  0 inst:   32000000 cyc:   18910986 now IPC :1.60234: AVG IPC :1.67346: L2-Pf-HR :0.81756: L2-HR :0.80124: (Sim:0h1m26s) 
CPU  0 inst:   33000002 cyc:   19527963 now IPC :1.62081: AVG IPC :1.67171: L2-Pf-HR :0.81779: L2-HR :0.80142: (Sim:0h1m29s) 
CPU  0 inst:   34000000 cyc:   20061365 now IPC :1.87475: AVG IPC :1.67738: L2-Pf-HR :0.81784: L2-HR :0.80146: (Sim:0h1m32s) 
CPU  0 inst:   35000002 cyc:   20687321 now IPC :1.59756: AVG IPC :1.67485: L2-Pf-HR :0.81783: L2-HR :0.80145: (Sim:0h1m34s) 
CPU  0 inst:   36000000 cyc:   21323200 now IPC :1.57262: AVG IPC :1.67165: L2-Pf-HR :0.81787: L2-HR :0.80146: (Sim:0h1m37s) 
CPU  0 inst:   37000000 cyc:   21949212 now IPC :1.59741: AVG IPC :1.66944: L2-Pf-HR :0.81794: L2-HR :0.80153: (Sim:0h1m40s) 
CPU  0 inst:   38000002 cyc:   22538064 now IPC :1.69822: AVG IPC :1.67022: L2-Pf-HR :0.81812: L2-HR :0.80168: (Sim:0h1m43s) 
CPU  0 inst:   39000000 cyc:   23122471 now IPC :1.71113: AVG IPC :1.67130: L2-Pf-HR :0.81799: L2-HR :0.80155: (Sim:0h1m45s) 
CPU  0 inst:   40000000 cyc:   23748278 now IPC :1.59794: AVG IPC :1.66928: L2-Pf-HR :0.81816: L2-HR :0.80171: (Sim:0h1m48s) 
CPU  0 inst:   41000000 cyc:   24375198 now IPC :1.59510: AVG IPC :1.66730: L2-Pf-HR :0.81840: L2-HR :0.80195: (Sim:0h1m51s) 
CPU  0 inst:   42000002 cyc:   25448813 now IPC :0.93143: AVG IPC :1.63500: L2-Pf-HR :0.81675: L2-HR :0.80047: (Sim:0h1m54s) 
CPU  0 inst:   43000003 cyc:   31548423 now IPC :0.16395: AVG IPC :1.34143: L2-Pf-HR :0.79470: L2-HR :0.78621: (Sim:0h2m3s) 
CPU  0 inst:   44000000 cyc:   35357332 now IPC :0.26254: AVG IPC :1.22188: L2-Pf-HR :0.79124: L2-HR :0.78394: (Sim:0h2m9s) 
CPU  0 inst:   45000002 cyc:   38785708 now IPC :0.29168: AVG IPC :1.13752: L2-Pf-HR :0.79042: L2-HR :0.78361: (Sim:0h2m14s) 
CPU  0 inst:   46000002 cyc:   42209251 now IPC :0.29210: AVG IPC :1.06731: L2-Pf-HR :0.78994: L2-HR :0.78355: (Sim:0h2m19s) 
CPU  0 inst:   47000002 cyc:   45633010 now IPC :0.29208: AVG IPC :1.00786: L2-Pf-HR :0.78943: L2-HR :0.78346: (Sim:0h2m24s) 
CPU  0 inst:   48000000 cyc:   49056715 now IPC :0.29208: AVG IPC :0.95688: L2-Pf-HR :0.78885: L2-HR :0.78330: (Sim:0h2m30s) 
CPU  0 inst:   49000002 cyc:   52480014 now IPC :0.29212: AVG IPC :0.91269: L2-Pf-HR :0.78837: L2-HR :0.78321: (Sim:0h2m35s) 
CPU  0 inst:   50000002 cyc:   55903070 now IPC :0.29214: AVG IPC :0.87401: L2-Pf-HR :0.78790: L2-HR :0.78313: (Sim:0h2m40s) 
CPU  0 inst:   51000002 cyc:   59326813 now IPC :0.29208: AVG IPC :0.83986: L2-Pf-HR :0.78739: L2-HR :0.78301: (Sim:0h2m45s) 
CPU  0 inst:   52000000 cyc:   62749279 now IPC :0.29219: AVG IPC :0.80952: L2-Pf-HR :0.78698: L2-HR :0.78295: (Sim:0h2m50s) 
CPU  0 inst:   53000002 cyc:   66173376 now IPC :0.29205: AVG IPC :0.78234: L2-Pf-HR :0.78650: L2-HR :0.78284: (Sim:0h2m56s) 
CPU  0 inst:   54000002 cyc:   69597291 now IPC :0.29206: AVG IPC :0.75787: L2-Pf-HR :0.78604: L2-HR :0.78272: (Sim:0h3m1s) 
CPU  0 inst:   55000002 cyc:   73020833 now IPC :0.29210: AVG IPC :0.73574: L2-Pf-HR :0.78563: L2-HR :0.78265: (Sim:0h3m6s) 
CPU  0 inst:   56000000 cyc:   76443912 now IPC :0.29213: AVG IPC :0.71561: L2-Pf-HR :0.78518: L2-HR :0.78253: (Sim:0h3m11s) 
CPU  0 inst:   57000002 cyc:   79866420 now IPC :0.29218: AVG IPC :0.69724: L2-Pf-HR :0.78471: L2-HR :0.78240: (Sim:0h3m16s) 
CPU  0 inst:   58000002 cyc:   83289279 now IPC :0.29215: AVG IPC :0.68039: L2-Pf-HR :0.78427: L2-HR :0.78228: (Sim:0h3m22s) 
CPU  0 inst:   59000002 cyc:   86712677 now IPC :0.29211: AVG IPC :0.66489: L2-Pf-HR :0.78385: L2-HR :0.78217: (Sim:0h3m27s) 
CPU  0 inst:   60000000 cyc:   89359064 now IPC :0.37787: AVG IPC :0.65629: L2-Pf-HR :0.78317: L2-HR :0.78158: (Sim:0h3m31s) 
CPU  0 inst:   61000002 cyc:   89979635 now IPC :1.61142: AVG IPC :0.66295: L2-Pf-HR :0.78403: L2-HR :0.78245: (Sim:0h3m34s) 
CPU  0 inst:   62000003 cyc:   90605541 now IPC :1.59769: AVG IPC :0.66948: L2-Pf-HR :0.78520: L2-HR :0.78358: (Sim:0h3m37s) 
CPU  0 inst:   63000002 cyc:   91291797 now IPC :1.45718: AVG IPC :0.67547: L2-Pf-HR :0.78561: L2-HR :0.78405: (Sim:0h3m40s) 
CPU  0 inst:   64000000 cyc:   91947482 now IPC :1.52512: AVG IPC :0.68159: L2-Pf-HR :0.78591: L2-HR :0.78440: (Sim:0h3m43s) 
CPU  0 inst:   65000003 cyc:   92492683 now IPC :1.83419: AVG IPC :0.68846: L2-Pf-HR :0.78706: L2-HR :0.78549: (Sim:0h3m45s) 
CPU  0 inst:   66000002 cyc:   93125511 now IPC :1.58021: AVG IPC :0.69458: L2-Pf-HR :0.78750: L2-HR :0.78595: (Sim:0h3m48s) 
CPU  0 inst:   67000001 cyc:   93777606 now IPC :1.53352: AVG IPC :0.70048: L2-Pf-HR :0.78769: L2-HR :0.78618: (Sim:0h3m51s) 
CPU  0 inst:   68000000 cyc:   94405621 now IPC :1.59232: AVG IPC :0.70647: L2-Pf-HR :0.78796: L2-HR :0.78649: (Sim:0h3m54s) 
CPU  0 inst:   69000000 cyc:   94941360 now IPC :1.86658: AVG IPC :0.71309: L2-Pf-HR :0.78913: L2-HR :0.78762: (Sim:0h3m56s) 
CPU  0 inst:   70000003 cyc:   95591950 now IPC :1.53707: AVG IPC :0.71876: L2-Pf-HR :0.78934: L2-HR :0.78786: (Sim:0h3m59s) 
CPU  0 inst:   71000001 cyc:   96238872 now IPC :1.54578: AVG IPC :0.72437: L2-Pf-HR :0.78938: L2-HR :0.78795: (Sim:0h4m2s) 
CPU  0 inst:   72000000 cyc:   96823344 now IPC :1.71094: AVG IPC :0.73039: L2-Pf-HR :0.78987: L2-HR :0.78845: (Sim:0h4m5s) 
CPU  0 inst:   73000000 cyc:   97417342 now IPC :1.68351: AVG IPC :0.73626: L2-Pf-HR :0.79059: L2-HR :0.78914: (Sim:0h4m7s) 
CPU  0 inst:   74000003 cyc:   98061595 now IPC :1.55219: AVG IPC :0.74168: L2-Pf-HR :0.79068: L2-HR :0.78927: (Sim:0h4m10s) 
CPU  0 inst:   75000000 cyc:   98700466 now IPC :1.56526: AVG IPC :0.74706: L2-Pf-HR :0.79090: L2-HR :0.78953: (Sim:0h4m13s) 
CPU  0 inst:   76000000 cyc:   99245014 now IPC :1.83639: AVG IPC :0.75310: L2-Pf-HR :0.79180: L2-HR :0.79039: (Sim:0h4m16s) 
CPU  0 inst:   77000003 cyc:   99889748 now IPC :1.55103: AVG IPC :0.75830: L2-Pf-HR :0.79208: L2-HR :0.79069: (Sim:0h4m18s) 
CPU  0 inst:   78000001 cyc:  100536893 now IPC :1.54525: AVG IPC :0.76341: L2-Pf-HR :0.79210: L2-HR :0.79074: (Sim:0h4m21s) 
CPU  0 inst:   79000000 cyc:  101162932 now IPC :1.59734: AVG IPC :0.76862: L2-Pf-HR :0.79221: L2-HR :0.79089: (Sim:0h4m24s) 
CPU  0 inst:   80000000 cyc:  101700809 now IPC :1.85916: AVG IPC :0.77445: L2-Pf-HR :0.79316: L2-HR :0.79182: (Sim:0h4m26s) 
CPU  0 inst:   81000002 cyc:  102344089 now IPC :1.55454: AVG IPC :0.77940: L2-Pf-HR :0.79325: L2-HR :0.79194: (Sim:0h4m29s) 
CPU  0 inst:   82000002 cyc:  102982153 now IPC :1.56724: AVG IPC :0.78433: L2-Pf-HR :0.79337: L2-HR :0.79210: (Sim:0h4m32s) 
CPU  0 inst:   83000001 cyc:  103565450 now IPC :1.71439: AVG IPC :0.78962: L2-Pf-HR :0.79382: L2-HR :0.79254: (Sim:0h4m35s) 
CPU  0 inst:   84000000 cyc:  104163033 now IPC :1.67341: AVG IPC :0.79474: L2-Pf-HR :0.79449: L2-HR :0.79319: (Sim:0h4m37s) 
CPU  0 inst:   85000003 cyc:  104808142 now IPC :1.55013: AVG IPC :0.79943: L2-Pf-HR :0.79457: L2-HR :0.79330: (Sim:0h4m40s) 
CPU  0 inst:   86000000 cyc:  105441811 now IPC :1.57811: AVG IPC :0.80415: L2-Pf-HR :0.79470: L2-HR :0.79345: (Sim:0h4m43s) 
CPU  0 inst:   87000000 cyc:  105987583 now IPC :1.83227: AVG IPC :0.80950: L2-Pf-HR :0.79536: L2-HR :0.79409: (Sim:0h4m45s) 
CPU  0 inst:   88000000 cyc:  106626024 now IPC :1.56632: AVG IPC :0.81407: L2-Pf-HR :0.79552: L2-HR :0.79428: (Sim:0h4m48s) 
CPU  0 inst:   89000001 cyc:  107264828 now IPC :1.56543: AVG IPC :0.81859: L2-Pf-HR :0.79555: L2-HR :0.79434: (Sim:0h4m51s) 
CPU  0 inst:   90000003 cyc:  107903011 now IPC :1.56695: AVG IPC :0.82305: L2-Pf-HR :0.79563: L2-HR :0.79443: (Sim:0h4m54s) 
CPU  0 inst:   91000001 cyc:  108437951 now IPC :1.86936: AVG IPC :0.82826: L2-Pf-HR :0.79648: L2-HR :0.79526: (Sim:0h4m56s) 
CPU  0 inst:   92000000 cyc:  109087823 now IPC :1.53876: AVG IPC :0.83253: L2-Pf-HR :0.79653: L2-HR :0.79532: (Sim:0h4m59s) 
CPU  0 inst:   93000002 cyc:  109741259 now IPC :1.53037: AVG IPC :0.83673: L2-Pf-HR :0.79660: L2-HR :0.79542: (Sim:0h5m2s) 
CPU  0 inst:   94000003 cyc:  110314993 now IPC :1.74297: AVG IPC :0.84148: L2-Pf-HR :0.79693: L2-HR :0.79574: (Sim:0h5m5s) 
CPU  0 inst:   95000000 cyc:  110923481 now IPC :1.64341: AVG IPC :0.84592: L2-Pf-HR :0.79731: L2-HR :0.79611: (Sim:0h5m7s) 
CPU  0 inst:   96000000 cyc:  111561872 now IPC :1.56644: AVG IPC :0.85008: L2-Pf-HR :0.79728: L2-HR :0.79611: (Sim:0h5m10s) 
CPU  0 inst:   97000003 cyc:  112198133 now IPC :1.57169: AVG IPC :0.85421: L2-Pf-HR :0.79733: L2-HR :0.79619: (Sim:0h5m13s) 
CPU  0 inst:   98000000 cyc:  112743609 now IPC :1.83326: AVG IPC :0.85899: L2-Pf-HR :0.79801: L2-HR :0.79683: (Sim:0h5m16s) 
CPU  0 inst:   99000003 cyc:  113376325 now IPC :1.58049: AVG IPC :0.86305: L2-Pf-HR :0.79816: L2-HR :0.79699: (Sim:0h5m18s) 
CPU  0 inst:  100000000 cyc:  114031612 now IPC :1.52604: AVG IPC :0.86689: L2-Pf-HR :0.79823: L2-HR :0.79707: (Sim:0h5m21s) 
Finished CPU 0 instr: 98000002 cyc: 113047591 AVG IPC: 0.86689 (Sim time: 0h5m21s)

ChampSim completed all CPUs

[ROI Statistics]
Core_0_instructions 98000002
Core_0_cycles 113047591
Core_0_IPC 0.86689

Core_0_branch_prediction_accuracy 98.32538
Core_0_branch_MPKI 0.51239
Core_0_average_ROB_occupancy_at_mispredict 220.59545

Core_0_L1D_total_access 62507499
Core_0_L1D_total_hit 59901771 L1D_total_Hit Ratio: 0.95831
Core_0_L1D_total_miss 2605728
Core_0_L1D_loads 22982744
Core_0_L1D_load_hit 21804959 L1D_load_Hit Ratio: 0.94875
Core_0_L1D_load_miss 1177785
Core_0_L1D_RFOs 2939930
Core_0_L1D_RFO_hit 2801151 L1D_RFO_Hit Ratio: 0.95280
Core_0_L1D_RFO_miss 138779
Core_0_L1D_prefetches 36584825
Core_0_L1D_prefetch_hit 35295661 L1D_prefetch_Hit Ratio: 0.96476
Core_0_L1D_prefetch_miss 1289164
Core_0_L1D_writebacks 0
Core_0_L1D_writeback_hit 0 L1D_writeback_Hit Ratio: -nan
Core_0_L1D_writeback_miss 0
Core_0_L1D_prefetch_requested 71300535
Core_0_L1D_prefetch_issued 44251800
Core_0_L1D_prefetch_useful 1116232 L1D_Useful Ratio: 0.02522
Core_0_L1D_prefetch_useless 200464
Core_0_L1D_prefetch_late 339022
Core_0_L1D_average_miss_latency 9025464.97692

Core_0_L1I_total_access 23264984
Core_0_L1I_total_hit 23260206 L1I_total_Hit Ratio: 0.99979
Core_0_L1I_total_miss 4778
Core_0_L1I_loads 23264984
Core_0_L1I_load_hit 23260206 L1I_load_Hit Ratio: 0.99979
Core_0_L1I_load_miss 4778
Core_0_L1I_RFOs 0
Core_0_L1I_RFO_hit 0 L1I_RFO_Hit Ratio: -nan
Core_0_L1I_RFO_miss 0
Core_0_L1I_prefetches 0
Core_0_L1I_prefetch_hit 0 L1I_prefetch_Hit Ratio: -nan
Core_0_L1I_prefetch_miss 0
Core_0_L1I_writebacks 0
Core_0_L1I_writeback_hit 0 L1I_writeback_Hit Ratio: -nan
Core_0_L1I_writeback_miss 0
Core_0_L1I_prefetch_requested 0
Core_0_L1I_prefetch_issued 0
Core_0_L1I_prefetch_useful 0 L1I_Useful Ratio: -nan
Core_0_L1I_prefetch_useless 0
Core_0_L1I_prefetch_late 0
Core_0_L1I_average_miss_latency 323.34575

Core_0_L2C_total_access 10993904
Core_0_L2C_total_hit 8762953 L2C_total_Hit Ratio: 0.79707
Core_0_L2C_total_miss 2230951
Core_0_L2C_loads 844324
Core_0_L2C_load_hit 542630 L2C_load_Hit Ratio: 0.64268
Core_0_L2C_load_miss 301694
Core_0_L2C_RFOs 138750
Core_0_L2C_RFO_hit 97864 L2C_RFO_Hit Ratio: 0.70533
Core_0_L2C_RFO_miss 40886
Core_0_L2C_prefetches 9321577
Core_0_L2C_prefetch_hit 7440746 L2C_prefetch_Hit Ratio: 0.79823
Core_0_L2C_prefetch_miss 1880831
Core_0_L2C_writebacks 689253
Core_0_L2C_writeback_hit 681713 L2C_writeback_Hit Ratio: 0.98906
Core_0_L2C_writeback_miss 7540
Core_0_L2C_prefetch_requested 16192687
Core_0_L2C_prefetch_issued 12742278
Core_0_L2C_prefetch_useful 420922 L2C_Useful Ratio: 0.03303
Core_0_L2C_prefetch_useless 1489048
Core_0_L2C_prefetch_late 24871
Core_0_L2C_average_miss_latency 143.45338

Core_0_LLC_total_access 2949071
Core_0_LLC_total_hit 2139307 LLC_total_Hit Ratio: 0.72542
Core_0_LLC_total_miss 809764
Core_0_LLC_loads 276825
Core_0_LLC_load_hit 196730 LLC_load_Hit Ratio: 0.71067
Core_0_LLC_load_miss 80095
Core_0_LLC_RFOs 40883
Core_0_LLC_RFO_hit 11729 LLC_RFO_Hit Ratio: 0.28689
Core_0_LLC_RFO_miss 29154
Core_0_LLC_prefetches 1967204
Core_0_LLC_prefetch_hit 1267358 LLC_prefetch_Hit Ratio: 0.64424
Core_0_LLC_prefetch_miss 699846
Core_0_LLC_writebacks 664159
Core_0_LLC_writeback_hit 663490 LLC_writeback_Hit Ratio: 0.99899
Core_0_LLC_writeback_miss 669
Core_0_LLC_prefetch_requested 0
Core_0_LLC_prefetch_issued 0
Core_0_LLC_prefetch_useful 136121 LLC_Useful Ratio: inf
Core_0_LLC_prefetch_useless 556299
Core_0_LLC_prefetch_late 9963
Core_0_LLC_average_miss_latency 342.94111

Core_0_major_page_fault 0
Core_0_minor_page_fault 7592

CPU 0 L1D next line prefetcher final stats
CPU 0 L2C PC-based stride prefetcher final stats
Stride Degree: 15
MK1  MARKOV_LRU_SIZE: 128
MK1  MARKOV_PREDICTION_PERCENTTHRESHOLD: 30.00000
MK1  OUTLIERS_THRESHOLD_Max: 64
MK1  OUTLIERS_THRESHOLD_Min: 32
MK2  MARKOV_LRU_SIZE: 256
MK2  MARKOV_PREDICTION_PERCENTTHRESHOLD: 40.00000
MK2  OUTLIERS_THRESHOLD_Max: 32
MK2  OUTLIERS_THRESHOLD_Min: 16
MK3  MARKOV_LRU_SIZE: 384
MK3  MARKOV_PREDICTION_PERCENTTHRESHOLD: 25.00000
MK3  OUTLIERS_THRESHOLD_Max: 16
MK3  OUTLIERS_THRESHOLD_Min: 8
MK4  MARKOV_LRU_SIZE: 512
MK4  MARKOV_PREDICTION_PERCENTTHRESHOLD: 20.00000
MK4  OUTLIERS_THRESHOLD_Max: 8
MK4  OUTLIERS_THRESHOLD_Min: 0
IPStride Degree/Access Ratio: 4.59983
MK1 IPDEltaMarkov  Degree/Access Ratio: 0.19818
MK2 IPDEltaMarkov  Degree/Access Ratio: 0.27227
MK3 IPDEltaMarkov  Degree/Access Ratio: 0.64927
MK4 IPDEltaMarkov  Degree/Access Ratio: 1.44496
Channel_0_RQ_row_buffer_hit 447996
Channel_0_RQ_row_buffer_miss 361099
Channel_0_WQ_row_buffer_hit 147527
Channel_0_WQ_row_buffer_miss 281025
Channel_0_WQ_full 0
Channel_0_dbus_congested 951090

avg_congested_cycle 11

EzSearch AVG IPC :0.86689: L2-Pf-HR :0.79823 : L2-HR :0.79707 Uful:0.03303
     > Finished combination: TraceType=777-FE Sim:98000000 Prefetcher=L2029-TOP1_BF-L2-MultiMarkovDelta_ip_stride_v4 L1=next_line
