TRACE: [83000000][Pythia-70M]_[h8][s512][d64] Warmup: 2000000 NumTraces: 83000000
L1:next_line:L2:029-TOP1_BF-L2-MultiMarkovDelta_ip_stride_v4
*************************************************
   ChampSim Multicore Out-of-Order Simulator
   Last compiled: Oct 26 2024 09:10:05
*************************************************

trace_0 777-FE_comparisonScript_memoryTraces/memTraces[83000000][Pythia-70M]_[h8][s512][d64].champsim.xz
CPU 0 L1D next line prefetcher
MK1: Size: 128 TMAX: 64 TMIN: 32 MKPTHRESH: 40
MK2: Size: 256 TMAX: 32 TMIN: 16 MKPTHRESH: 30
MK3: Size: 384 TMAX: 16 TMIN: 8 MKPTHRESH: 25
MK4: Size: 512 TMAX: 8 TMIN: 0 MKPTHRESH: 20
Stride Size: 512 Prefetch Degree: 16

CPU 0 L2C prefetcher
MAIN.cc ln 751 stats print skipped
CPU 0 L2C prefetcher initialized


Cache Size: 256
number of cache lines: 4096
CPU  0 inst:    1000002 cyc:     502703 now IPC :1.98925: AVG IPC :1.98925: L2-Pf-HR :0.72504: L2-HR :0.69707: (Sim:0h0m2s) 
CPU  0 inst:    2000001 cyc:     976867 now IPC :2.10897: AVG IPC :2.04736: L2-Pf-HR :0.74332: L2-HR :0.71676: (Sim:0h0m5s) 

Warmup complete CPU  0 instructions:    2000001 cycles:     976867 (Simulation time: 0 hr 0 min 5 sec) 

CPU  0 inst:    3000002 cyc:    1517818 now IPC :1.84860: AVG IPC :1.84860: L2-Pf-HR :0.75447: L2-HR :0.74209: (Sim:0h0m8s) 
CPU  0 inst:    4000000 cyc:    2098439 now IPC :1.72229: AVG IPC :1.78321: L2-Pf-HR :0.79735: L2-HR :0.78483: (Sim:0h0m11s) 
CPU  0 inst:    5000000 cyc:    2739968 now IPC :1.55878: AVG IPC :1.70155: L2-Pf-HR :0.78769: L2-HR :0.77572: (Sim:0h0m13s) 
CPU  0 inst:    6000003 cyc:    3287980 now IPC :1.82478: AVG IPC :1.73077: L2-Pf-HR :0.77939: L2-HR :0.76749: (Sim:0h0m16s) 
CPU  0 inst:    7000000 cyc:    3840305 now IPC :1.81052: AVG IPC :1.74615: L2-Pf-HR :0.77917: L2-HR :0.76668: (Sim:0h0m19s) 
CPU  0 inst:    8000000 cyc:    4433256 now IPC :1.68648: AVG IPC :1.73592: L2-Pf-HR :0.79021: L2-HR :0.77755: (Sim:0h0m22s) 
CPU  0 inst:    9000002 cyc:    5126594 now IPC :1.44230: AVG IPC :1.68686: L2-Pf-HR :0.79084: L2-HR :0.77803: (Sim:0h0m25s) 
CPU  0 inst:   10000002 cyc:    5681319 now IPC :1.80270: AVG IPC :1.70052: L2-Pf-HR :0.78742: L2-HR :0.77450: (Sim:0h0m27s) 
CPU  0 inst:   11000002 cyc:    6235924 now IPC :1.80309: AVG IPC :1.71133: L2-Pf-HR :0.78606: L2-HR :0.77293: (Sim:0h0m30s) 
CPU  0 inst:   12000000 cyc:    6833715 now IPC :1.67282: AVG IPC :1.70740: L2-Pf-HR :0.79057: L2-HR :0.77733: (Sim:0h0m33s) 
CPU  0 inst:   13000003 cyc:    7516955 now IPC :1.46362: AVG IPC :1.68193: L2-Pf-HR :0.79253: L2-HR :0.77927: (Sim:0h0m36s) 
CPU  0 inst:   14000000 cyc:    8076994 now IPC :1.78558: AVG IPC :1.69011: L2-Pf-HR :0.79049: L2-HR :0.77709: (Sim:0h0m39s) 
CPU  0 inst:   15000000 cyc:    8630107 now IPC :1.80795: AVG IPC :1.69863: L2-Pf-HR :0.78931: L2-HR :0.77575: (Sim:0h0m41s) 
CPU  0 inst:   16000000 cyc:    9233142 now IPC :1.65828: AVG IPC :1.69568: L2-Pf-HR :0.79143: L2-HR :0.77768: (Sim:0h0m44s) 
CPU  0 inst:   17000003 cyc:    9916029 now IPC :1.46438: AVG IPC :1.67801: L2-Pf-HR :0.79289: L2-HR :0.77914: (Sim:0h0m47s) 
CPU  0 inst:   18000003 cyc:   10473057 now IPC :1.79524: AVG IPC :1.68489: L2-Pf-HR :0.79175: L2-HR :0.77786: (Sim:0h0m50s) 
CPU  0 inst:   19000002 cyc:   11031223 now IPC :1.79158: AVG IPC :1.69081: L2-Pf-HR :0.79113: L2-HR :0.77712: (Sim:0h0m53s) 
CPU  0 inst:   20000000 cyc:   11635488 now IPC :1.65490: AVG IPC :1.68877: L2-Pf-HR :0.79261: L2-HR :0.77845: (Sim:0h0m56s) 
CPU  0 inst:   21000000 cyc:   12318609 now IPC :1.46387: AVG IPC :1.67523: L2-Pf-HR :0.79455: L2-HR :0.78037: (Sim:0h0m59s) 
CPU  0 inst:   22000001 cyc:   12880421 now IPC :1.77996: AVG IPC :1.68017: L2-Pf-HR :0.79360: L2-HR :0.77931: (Sim:0h1m1s) 
CPU  0 inst:   23000000 cyc:   13437441 now IPC :1.79527: AVG IPC :1.68532: L2-Pf-HR :0.79287: L2-HR :0.77850: (Sim:0h1m4s) 
CPU  0 inst:   24000000 cyc:   14040199 now IPC :1.65904: AVG IPC :1.68410: L2-Pf-HR :0.79358: L2-HR :0.77910: (Sim:0h1m7s) 
CPU  0 inst:   25000002 cyc:   14717312 now IPC :1.47686: AVG IPC :1.67389: L2-Pf-HR :0.79527: L2-HR :0.78086: (Sim:0h1m10s) 
CPU  0 inst:   26000002 cyc:   15278716 now IPC :1.78125: AVG IPC :1.67810: L2-Pf-HR :0.79405: L2-HR :0.77959: (Sim:0h1m13s) 
CPU  0 inst:   27000002 cyc:   15833163 now IPC :1.80360: AVG IPC :1.68279: L2-Pf-HR :0.79297: L2-HR :0.77852: (Sim:0h1m15s) 
CPU  0 inst:   28000000 cyc:   16435699 now IPC :1.65965: AVG IPC :1.68189: L2-Pf-HR :0.79312: L2-HR :0.77860: (Sim:0h1m18s) 
CPU  0 inst:   29000003 cyc:   17076463 now IPC :1.56064: AVG IPC :1.67706: L2-Pf-HR :0.79485: L2-HR :0.78052: (Sim:0h1m21s) 
CPU  0 inst:   30000000 cyc:   17661421 now IPC :1.70952: AVG IPC :1.67820: L2-Pf-HR :0.79410: L2-HR :0.77967: (Sim:0h1m24s) 
CPU  0 inst:   31000001 cyc:   18217895 now IPC :1.79703: AVG IPC :1.68203: L2-Pf-HR :0.79336: L2-HR :0.77888: (Sim:0h1m27s) 
CPU  0 inst:   32000000 cyc:   18817155 now IPC :1.66872: AVG IPC :1.68159: L2-Pf-HR :0.79335: L2-HR :0.77876: (Sim:0h1m29s) 
CPU  0 inst:   33000000 cyc:   19476426 now IPC :1.51683: AVG IPC :1.67572: L2-Pf-HR :0.79557: L2-HR :0.78083: (Sim:0h1m32s) 
CPU  0 inst:   34000000 cyc:   25628817 now IPC :0.16254: AVG IPC :1.29807: L2-Pf-HR :0.77061: L2-HR :0.76488: (Sim:0h1m42s) 
CPU  0 inst:   35000001 cyc:   29753977 now IPC :0.24242: AVG IPC :1.14674: L2-Pf-HR :0.76591: L2-HR :0.76166: (Sim:0h1m48s) 
CPU  0 inst:   36000000 cyc:   33278495 now IPC :0.28373: AVG IPC :1.05258: L2-Pf-HR :0.76675: L2-HR :0.76208: (Sim:0h1m53s) 
CPU  0 inst:   37000002 cyc:   36802592 now IPC :0.28376: AVG IPC :0.97695: L2-Pf-HR :0.76786: L2-HR :0.76274: (Sim:0h1m59s) 
CPU  0 inst:   38000000 cyc:   40326762 now IPC :0.28375: AVG IPC :0.91487: L2-Pf-HR :0.76896: L2-HR :0.76340: (Sim:0h2m4s) 
CPU  0 inst:   39000000 cyc:   43851188 now IPC :0.28373: AVG IPC :0.86299: L2-Pf-HR :0.76998: L2-HR :0.76401: (Sim:0h2m10s) 
CPU  0 inst:   40000000 cyc:   47375387 now IPC :0.28375: AVG IPC :0.81899: L2-Pf-HR :0.77106: L2-HR :0.76467: (Sim:0h2m15s) 
CPU  0 inst:   41000001 cyc:   50899111 now IPC :0.28379: AVG IPC :0.78121: L2-Pf-HR :0.77208: L2-HR :0.76529: (Sim:0h2m21s) 
CPU  0 inst:   42000001 cyc:   54422362 now IPC :0.28383: AVG IPC :0.74843: L2-Pf-HR :0.77301: L2-HR :0.76585: (Sim:0h2m26s) 
CPU  0 inst:   43000001 cyc:   57946308 now IPC :0.28377: AVG IPC :0.71968: L2-Pf-HR :0.77395: L2-HR :0.76643: (Sim:0h2m32s) 
CPU  0 inst:   44000000 cyc:   61470512 now IPC :0.28375: AVG IPC :0.69429: L2-Pf-HR :0.77486: L2-HR :0.76698: (Sim:0h2m37s) 
CPU  0 inst:   45000002 cyc:   64994770 now IPC :0.28375: AVG IPC :0.67169: L2-Pf-HR :0.77575: L2-HR :0.76752: (Sim:0h2m43s) 
CPU  0 inst:   46000000 cyc:   68518594 now IPC :0.28378: AVG IPC :0.65145: L2-Pf-HR :0.77659: L2-HR :0.76804: (Sim:0h2m48s) 
CPU  0 inst:   47000000 cyc:   72041829 now IPC :0.28383: AVG IPC :0.63322: L2-Pf-HR :0.77742: L2-HR :0.76854: (Sim:0h2m53s) 
CPU  0 inst:   48000000 cyc:   75565373 now IPC :0.28381: AVG IPC :0.61672: L2-Pf-HR :0.77827: L2-HR :0.76907: (Sim:0h2m59s) 
CPU  0 inst:   49000000 cyc:   79088888 now IPC :0.28381: AVG IPC :0.60170: L2-Pf-HR :0.77901: L2-HR :0.76952: (Sim:0h3m4s) 
CPU  0 inst:   50000003 cyc:   82612674 now IPC :0.28379: AVG IPC :0.58798: L2-Pf-HR :0.77977: L2-HR :0.76998: (Sim:0h3m10s) 
CPU  0 inst:   51000001 cyc:   84397469 now IPC :0.56029: AVG IPC :0.58738: L2-Pf-HR :0.78945: L2-HR :0.77924: (Sim:0h3m14s) 
CPU  0 inst:   52000000 cyc:   85118672 now IPC :1.38657: AVG IPC :0.59423: L2-Pf-HR :0.80279: L2-HR :0.79241: (Sim:0h3m18s) 
CPU  0 inst:   53000003 cyc:   85789930 now IPC :1.48974: AVG IPC :0.60132: L2-Pf-HR :0.81444: L2-HR :0.80400: (Sim:0h3m21s) 
CPU  0 inst:   54000001 cyc:   86375535 now IPC :1.70763: AVG IPC :0.60891: L2-Pf-HR :0.82459: L2-HR :0.81421: (Sim:0h3m25s) 
CPU  0 inst:   55000001 cyc:   87076077 now IPC :1.42747: AVG IPC :0.61557: L2-Pf-HR :0.83329: L2-HR :0.82303: (Sim:0h3m29s) 
CPU  0 inst:   56000000 cyc:   87753678 now IPC :1.47579: AVG IPC :0.62229: L2-Pf-HR :0.84119: L2-HR :0.83108: (Sim:0h3m32s) 
CPU  0 inst:   57000001 cyc:   88390932 now IPC :1.56923: AVG IPC :0.62919: L2-Pf-HR :0.84826: L2-HR :0.83834: (Sim:0h3m36s) 
CPU  0 inst:   58000002 cyc:   88976988 now IPC :1.70632: AVG IPC :0.63636: L2-Pf-HR :0.85479: L2-HR :0.84505: (Sim:0h3m39s) 
CPU  0 inst:   59000000 cyc:   89611435 now IPC :1.57617: AVG IPC :0.64309: L2-Pf-HR :0.86056: L2-HR :0.85103: (Sim:0h3m43s) 
CPU  0 inst:   60000000 cyc:   90268255 now IPC :1.52249: AVG IPC :0.64956: L2-Pf-HR :0.86574: L2-HR :0.85643: (Sim:0h3m46s) 
CPU  0 inst:   61000000 cyc:   90920275 now IPC :1.53370: AVG IPC :0.65597: L2-Pf-HR :0.87033: L2-HR :0.86125: (Sim:0h3m50s) 
CPU  0 inst:   62000001 cyc:   91504365 now IPC :1.71207: AVG IPC :0.66278: L2-Pf-HR :0.87480: L2-HR :0.86594: (Sim:0h3m53s) 
CPU  0 inst:   63000002 cyc:   92119440 now IPC :1.62582: AVG IPC :0.66928: L2-Pf-HR :0.87884: L2-HR :0.87019: (Sim:0h3m57s) 
CPU  0 inst:   64000000 cyc:   92775409 now IPC :1.52446: AVG IPC :0.67539: L2-Pf-HR :0.88265: L2-HR :0.87419: (Sim:0h4m1s) 
CPU  0 inst:   65000001 cyc:   93444881 now IPC :1.49372: AVG IPC :0.68132: L2-Pf-HR :0.88592: L2-HR :0.87768: (Sim:0h4m4s) 
CPU  0 inst:   66000000 cyc:   94029962 now IPC :1.70916: AVG IPC :0.68778: L2-Pf-HR :0.88917: L2-HR :0.88113: (Sim:0h4m8s) 
CPU  0 inst:   67000003 cyc:   94614864 now IPC :1.70969: AVG IPC :0.69416: L2-Pf-HR :0.89229: L2-HR :0.88445: (Sim:0h4m11s) 
CPU  0 inst:   68000000 cyc:   95292314 now IPC :1.47612: AVG IPC :0.69978: L2-Pf-HR :0.89503: L2-HR :0.88736: (Sim:0h4m15s) 
CPU  0 inst:   69000000 cyc:   95945804 now IPC :1.53025: AVG IPC :0.70549: L2-Pf-HR :0.89755: L2-HR :0.89008: (Sim:0h4m18s) 
CPU  0 inst:   70000000 cyc:   96552775 now IPC :1.64753: AVG IPC :0.71148: L2-Pf-HR :0.89996: L2-HR :0.89267: (Sim:0h4m22s) 
CPU  0 inst:   71000002 cyc:   97136838 now IPC :1.71215: AVG IPC :0.71755: L2-Pf-HR :0.90232: L2-HR :0.89520: (Sim:0h4m25s) 
CPU  0 inst:   72000000 cyc:   97803515 now IPC :1.49997: AVG IPC :0.72294: L2-Pf-HR :0.90445: L2-HR :0.89748: (Sim:0h4m29s) 
CPU  0 inst:   73000000 cyc:   98461194 now IPC :1.52050: AVG IPC :0.72832: L2-Pf-HR :0.90645: L2-HR :0.89964: (Sim:0h4m33s) 
CPU  0 inst:   74000003 cyc:   99084289 now IPC :1.60490: AVG IPC :0.73389: L2-Pf-HR :0.90833: L2-HR :0.90168: (Sim:0h4m36s) 
CPU  0 inst:   75000000 cyc:   99668238 now IPC :1.71247: AVG IPC :0.73968: L2-Pf-HR :0.91022: L2-HR :0.90371: (Sim:0h4m40s) 
CPU  0 inst:   76000000 cyc:  100325473 now IPC :1.52153: AVG IPC :0.74485: L2-Pf-HR :0.91190: L2-HR :0.90553: (Sim:0h4m43s) 
CPU  0 inst:   77000001 cyc:  100979896 now IPC :1.52807: AVG IPC :0.74998: L2-Pf-HR :0.91348: L2-HR :0.90725: (Sim:0h4m47s) 
CPU  0 inst:   78000002 cyc:  101612502 now IPC :1.58076: AVG IPC :0.75520: L2-Pf-HR :0.91500: L2-HR :0.90890: (Sim:0h4m50s) 
CPU  0 inst:   79000000 cyc:  102196734 now IPC :1.71165: AVG IPC :0.76072: L2-Pf-HR :0.91653: L2-HR :0.91057: (Sim:0h4m54s) 
CPU  0 inst:   80000000 cyc:  102840896 now IPC :1.55240: AVG IPC :0.76573: L2-Pf-HR :0.91787: L2-HR :0.91203: (Sim:0h4m57s) 
Finished CPU 0 instr: 78000000 cyc: 101864067 AVG IPC: 0.76573 (Sim time: 0h4m57s)

ChampSim completed all CPUs

[ROI Statistics]
Core_0_instructions 78000000
Core_0_cycles 101864067
Core_0_IPC 0.76573

Core_0_branch_prediction_accuracy 99.16542
Core_0_branch_MPKI 0.25491
Core_0_average_ROB_occupancy_at_mispredict 230.98979

Core_0_L1D_total_access 53496709
Core_0_L1D_total_hit 49012376 L1D_total_Hit Ratio: 0.91618
Core_0_L1D_total_miss 4484333
Core_0_L1D_loads 21307335
Core_0_L1D_load_hit 19392641 L1D_load_Hit Ratio: 0.91014
Core_0_L1D_load_miss 1914694
Core_0_L1D_RFOs 2197459
Core_0_L1D_RFO_hit 2080244 L1D_RFO_Hit Ratio: 0.94666
Core_0_L1D_RFO_miss 117215
Core_0_L1D_prefetches 29991915
Core_0_L1D_prefetch_hit 27539491 L1D_prefetch_Hit Ratio: 0.91823
Core_0_L1D_prefetch_miss 2452424
Core_0_L1D_writebacks 0
Core_0_L1D_writeback_hit 0 L1D_writeback_Hit Ratio: -nan
Core_0_L1D_writeback_miss 0
Core_0_L1D_prefetch_requested 66147420
Core_0_L1D_prefetch_issued 34838210
Core_0_L1D_prefetch_useful 996120 L1D_Useful Ratio: 0.02859
Core_0_L1D_prefetch_useless 1483128
Core_0_L1D_prefetch_late 242979
Core_0_L1D_average_miss_latency 2910364.48614

Core_0_L1I_total_access 19624059
Core_0_L1I_total_hit 19619152 L1I_total_Hit Ratio: 0.99975
Core_0_L1I_total_miss 4907
Core_0_L1I_loads 19624059
Core_0_L1I_load_hit 19619152 L1I_load_Hit Ratio: 0.99975
Core_0_L1I_load_miss 4907
Core_0_L1I_RFOs 0
Core_0_L1I_RFO_hit 0 L1I_RFO_Hit Ratio: -nan
Core_0_L1I_RFO_miss 0
Core_0_L1I_prefetches 0
Core_0_L1I_prefetch_hit 0 L1I_prefetch_Hit Ratio: -nan
Core_0_L1I_prefetch_miss 0
Core_0_L1I_writebacks 0
Core_0_L1I_writeback_hit 0 L1I_writeback_Hit Ratio: -nan
Core_0_L1I_writeback_miss 0
Core_0_L1I_prefetch_requested 0
Core_0_L1I_prefetch_issued 0
Core_0_L1I_prefetch_useful 0 L1I_Useful Ratio: -nan
Core_0_L1I_prefetch_useless 0
Core_0_L1I_prefetch_late 0
Core_0_L1I_average_miss_latency 333.75097

Core_0_L2C_total_access 16374911
Core_0_L2C_total_hit 14934364 L2C_total_Hit Ratio: 0.91203
Core_0_L2C_total_miss 1440547
Core_0_L2C_loads 1677300
Core_0_L2C_load_hit 1477628 L2C_load_Hit Ratio: 0.88096
Core_0_L2C_load_miss 199672
Core_0_L2C_RFOs 117200
Core_0_L2C_RFO_hit 39190 L2C_RFO_Hit Ratio: 0.33439
Core_0_L2C_RFO_miss 78010
Core_0_L2C_prefetches 14088841
Core_0_L2C_prefetch_hit 12931780 L2C_prefetch_Hit Ratio: 0.91787
Core_0_L2C_prefetch_miss 1157061
Core_0_L2C_writebacks 491570
Core_0_L2C_writeback_hit 485766 L2C_writeback_Hit Ratio: 0.98819
Core_0_L2C_writeback_miss 5804
Core_0_L2C_prefetch_requested 29821078
Core_0_L2C_prefetch_issued 17509208
Core_0_L2C_prefetch_useful 178769 L2C_Useful Ratio: 0.01021
Core_0_L2C_prefetch_useless 1018903
Core_0_L2C_prefetch_late 6578
Core_0_L2C_average_miss_latency 184.18271

Core_0_LLC_total_access 1947874
Core_0_LLC_total_hit 1244275 LLC_total_Hit Ratio: 0.63879
Core_0_LLC_total_miss 703599
Core_0_LLC_loads 193112
Core_0_LLC_load_hit 141115 LLC_load_Hit Ratio: 0.73074
Core_0_LLC_load_miss 51997
Core_0_LLC_RFOs 78010
Core_0_LLC_RFO_hit 48 LLC_RFO_Hit Ratio: 0.00062
Core_0_LLC_RFO_miss 77962
Core_0_LLC_prefetches 1191001
Core_0_LLC_prefetch_hit 617379 LLC_prefetch_Hit Ratio: 0.51837
Core_0_LLC_prefetch_miss 573622
Core_0_LLC_writebacks 485751
Core_0_LLC_writeback_hit 485733 LLC_writeback_Hit Ratio: 0.99996
Core_0_LLC_writeback_miss 18
Core_0_LLC_prefetch_requested 0
Core_0_LLC_prefetch_issued 0
Core_0_LLC_prefetch_useful 110737 LLC_Useful Ratio: inf
Core_0_LLC_prefetch_useless 452849
Core_0_LLC_prefetch_late 2562
Core_0_LLC_average_miss_latency 330.65605

Core_0_major_page_fault 0
Core_0_minor_page_fault 6067

CPU 0 L1D next line prefetcher final stats
CPU 0 L2C PC-based stride prefetcher final stats
Stride Degree: 16
MK1  MARKOV_LRU_SIZE: 128
MK1  MARKOV_PREDICTION_PERCENTTHRESHOLD: 40.00000
MK1  OUTLIERS_THRESHOLD_Max: 64
MK1  OUTLIERS_THRESHOLD_Min: 32
MK2  MARKOV_LRU_SIZE: 256
MK2  MARKOV_PREDICTION_PERCENTTHRESHOLD: 30.00000
MK2  OUTLIERS_THRESHOLD_Max: 32
MK2  OUTLIERS_THRESHOLD_Min: 16
MK3  MARKOV_LRU_SIZE: 384
MK3  MARKOV_PREDICTION_PERCENTTHRESHOLD: 25.00000
MK3  OUTLIERS_THRESHOLD_Max: 16
MK3  OUTLIERS_THRESHOLD_Min: 8
MK4  MARKOV_LRU_SIZE: 512
MK4  MARKOV_PREDICTION_PERCENTTHRESHOLD: 20.00000
MK4  OUTLIERS_THRESHOLD_Max: 8
MK4  OUTLIERS_THRESHOLD_Min: 0
IPStride Degree/Access Ratio: 3.60098
MK1 IPDEltaMarkov  Degree/Access Ratio: 0.68213
MK2 IPDEltaMarkov  Degree/Access Ratio: 0.86094
MK3 IPDEltaMarkov  Degree/Access Ratio: 0.74474
MK4 IPDEltaMarkov  Degree/Access Ratio: 1.44527
Channel_0_RQ_row_buffer_hit 348670
Channel_0_RQ_row_buffer_miss 354911
Channel_0_WQ_row_buffer_hit 122403
Channel_0_WQ_row_buffer_miss 286569
Channel_0_WQ_full 0
Channel_0_dbus_congested 771006

avg_congested_cycle 11

EzSearch AVG IPC :0.76573: L2-Pf-HR :0.91787 : L2-HR :0.91203 Uful:0.01021
     > Finished combination: TraceType=777-FE Sim:78000000 Prefetcher=L2029-TOP1_BF-L2-MultiMarkovDelta_ip_stride_v4 L1=next_line
