TRACE: [597000000][OPT-6_7B]_[h32][s512][d128] Warmup: 2000000 NumTraces: 597000000
L1:next_line:L2:029-TOP1_BF-L2-MultiMarkovDelta_ip_stride_v4
*************************************************
   ChampSim Multicore Out-of-Order Simulator
   Last compiled: Oct 26 2024 07:04:13
*************************************************

trace_0 777-FE_comparisonScript_memoryTraces/memTraces[597000000][OPT-6_7B]_[h32][s512][d128].champsim.xz
CPU 0 L1D next line prefetcher
MK1: Size: 128 TMAX: 64 TMIN: 32 MKPTHRESH: 30
MK2: Size: 256 TMAX: 32 TMIN: 16 MKPTHRESH: 30
MK3: Size: 384 TMAX: 16 TMIN: 8 MKPTHRESH: 25
MK4: Size: 512 TMAX: 8 TMIN: 0 MKPTHRESH: 20
Stride Size: 512 Prefetch Degree: 16

CPU 0 L2C prefetcher
MAIN.cc ln 751 stats print skipped
CPU 0 L2C prefetcher initialized


Cache Size: 256
number of cache lines: 4096
CPU  0 inst:    1000000 cyc:     503480 now IPC :1.98618: AVG IPC :1.98618: L2-Pf-HR :0.74489: L2-HR :0.72898: (Sim:0h0m5s) 
CPU  0 inst:    2000000 cyc:     980185 now IPC :2.09773: AVG IPC :2.04043: L2-Pf-HR :0.76241: L2-HR :0.74502: (Sim:0h0m8s) 

Warmup complete CPU  0 instructions:    2000001 cycles:     980186 (Simulation time: 0 hr 0 min 8 sec) 

CPU  0 inst:    3000002 cyc:    1522399 now IPC :1.84429: AVG IPC :1.84430: L2-Pf-HR :0.74683: L2-HR :0.73675: (Sim:0h0m13s) 
CPU  0 inst:    4000000 cyc:    2057109 now IPC :1.87017: AVG IPC :1.85714: L2-Pf-HR :0.74881: L2-HR :0.73915: (Sim:0h0m18s) 
CPU  0 inst:    5000000 cyc:    2592461 now IPC :1.86793: AVG IPC :1.86072: L2-Pf-HR :0.75134: L2-HR :0.74138: (Sim:0h0m22s) 
CPU  0 inst:    6000001 cyc:    3139389 now IPC :1.82840: AVG IPC :1.85254: L2-Pf-HR :0.75274: L2-HR :0.74297: (Sim:0h0m25s) 
CPU  0 inst:    7000003 cyc:    3712941 now IPC :1.74352: AVG IPC :1.82966: L2-Pf-HR :0.77405: L2-HR :0.76380: (Sim:0h0m28s) 
CPU  0 inst:    8000000 cyc:    4226156 now IPC :1.94850: AVG IPC :1.84845: L2-Pf-HR :0.79484: L2-HR :0.78370: (Sim:0h0m31s) 
CPU  0 inst:    9000001 cyc:    4890964 now IPC :1.50420: AVG IPC :1.78993: L2-Pf-HR :0.79280: L2-HR :0.78242: (Sim:0h0m34s) 
CPU  0 inst:   10000002 cyc:    5432199 now IPC :1.84763: AVG IPC :1.79694: L2-Pf-HR :0.79062: L2-HR :0.78003: (Sim:0h0m38s) 
CPU  0 inst:   11000002 cyc:    5979623 now IPC :1.82674: AVG IPC :1.80020: L2-Pf-HR :0.78808: L2-HR :0.77732: (Sim:0h0m42s) 
CPU  0 inst:   12000000 cyc:    6518694 now IPC :1.85504: AVG IPC :1.80554: L2-Pf-HR :0.78681: L2-HR :0.77596: (Sim:0h0m47s) 
CPU  0 inst:   13000002 cyc:    7065874 now IPC :1.82756: AVG IPC :1.80752: L2-Pf-HR :0.78630: L2-HR :0.77528: (Sim:0h0m51s) 
CPU  0 inst:   14000000 cyc:    7608451 now IPC :1.84305: AVG IPC :1.81043: L2-Pf-HR :0.78642: L2-HR :0.77529: (Sim:0h0m56s) 
CPU  0 inst:   15000002 cyc:    8208882 now IPC :1.66547: AVG IPC :1.79839: L2-Pf-HR :0.79095: L2-HR :0.77979: (Sim:0h1m0s) 
CPU  0 inst:   16000000 cyc:    8724225 now IPC :1.94045: AVG IPC :1.80784: L2-Pf-HR :0.79801: L2-HR :0.78661: (Sim:0h1m5s) 
CPU  0 inst:   17000001 cyc:    9421386 now IPC :1.43439: AVG IPC :1.77700: L2-Pf-HR :0.79713: L2-HR :0.78604: (Sim:0h1m9s) 
CPU  0 inst:   18000003 cyc:    9964163 now IPC :1.84238: AVG IPC :1.78095: L2-Pf-HR :0.79639: L2-HR :0.78517: (Sim:0h1m14s) 
CPU  0 inst:   19000002 cyc:   10501931 now IPC :1.85954: AVG IPC :1.78539: L2-Pf-HR :0.79482: L2-HR :0.78356: (Sim:0h1m18s) 
CPU  0 inst:   20000000 cyc:   11047675 now IPC :1.83236: AVG IPC :1.78793: L2-Pf-HR :0.79391: L2-HR :0.78258: (Sim:0h1m23s) 
CPU  0 inst:   21000002 cyc:   11590124 now IPC :1.84350: AVG IPC :1.79077: L2-Pf-HR :0.79330: L2-HR :0.78191: (Sim:0h1m27s) 
CPU  0 inst:   22000002 cyc:   12129789 now IPC :1.85300: AVG IPC :1.79379: L2-Pf-HR :0.79390: L2-HR :0.78238: (Sim:0h1m32s) 
CPU  0 inst:   23000000 cyc:   12728301 now IPC :1.67081: AVG IPC :1.78752: L2-Pf-HR :0.79629: L2-HR :0.78477: (Sim:0h1m36s) 
CPU  0 inst:   24000000 cyc:   13244167 now IPC :1.93849: AVG IPC :1.79387: L2-Pf-HR :0.80080: L2-HR :0.78908: (Sim:0h1m40s) 
CPU  0 inst:   25000001 cyc:   13949786 now IPC :1.41720: AVG IPC :1.77338: L2-Pf-HR :0.80059: L2-HR :0.78907: (Sim:0h1m45s) 
CPU  0 inst:   26000001 cyc:   14490398 now IPC :1.84976: AVG IPC :1.77643: L2-Pf-HR :0.80009: L2-HR :0.78849: (Sim:0h1m50s) 
CPU  0 inst:   27000002 cyc:   15025982 now IPC :1.86712: AVG IPC :1.77989: L2-Pf-HR :0.79941: L2-HR :0.78779: (Sim:0h1m54s) 
CPU  0 inst:   28000000 cyc:   15571144 now IPC :1.83431: AVG IPC :1.78193: L2-Pf-HR :0.79893: L2-HR :0.78725: (Sim:0h1m59s) 
CPU  0 inst:   29000003 cyc:   16118820 now IPC :1.82590: AVG IPC :1.78352: L2-Pf-HR :0.79834: L2-HR :0.78661: (Sim:0h2m3s) 
CPU  0 inst:   30000002 cyc:   16661648 now IPC :1.84220: AVG IPC :1.78555: L2-Pf-HR :0.79850: L2-HR :0.78670: (Sim:0h2m7s) 
CPU  0 inst:   31000002 cyc:   17259238 now IPC :1.67339: AVG IPC :1.78143: L2-Pf-HR :0.80016: L2-HR :0.78836: (Sim:0h2m12s) 
CPU  0 inst:   32000000 cyc:   17774946 now IPC :1.93908: AVG IPC :1.78627: L2-Pf-HR :0.80323: L2-HR :0.79132: (Sim:0h2m16s) 
CPU  0 inst:   33000002 cyc:   18475184 now IPC :1.42809: AVG IPC :1.77194: L2-Pf-HR :0.80321: L2-HR :0.79142: (Sim:0h2m21s) 
CPU  0 inst:   34000000 cyc:   19017767 now IPC :1.84303: AVG IPC :1.77407: L2-Pf-HR :0.80262: L2-HR :0.79078: (Sim:0h2m26s) 
CPU  0 inst:   35000002 cyc:   19555337 now IPC :1.86023: AVG IPC :1.77657: L2-Pf-HR :0.80203: L2-HR :0.79018: (Sim:0h2m30s) 
CPU  0 inst:   36000000 cyc:   20102703 now IPC :1.82693: AVG IPC :1.77801: L2-Pf-HR :0.80158: L2-HR :0.78968: (Sim:0h2m35s) 
CPU  0 inst:   37000002 cyc:   20642769 now IPC :1.85163: AVG IPC :1.78003: L2-Pf-HR :0.80108: L2-HR :0.78917: (Sim:0h2m39s) 
CPU  0 inst:   38000001 cyc:   21190756 now IPC :1.82486: AVG IPC :1.78125: L2-Pf-HR :0.80118: L2-HR :0.78921: (Sim:0h2m44s) 
CPU  0 inst:   39000001 cyc:   21789009 now IPC :1.67153: AVG IPC :1.77809: L2-Pf-HR :0.80208: L2-HR :0.79014: (Sim:0h2m48s) 
CPU  0 inst:   40000000 cyc:   22305070 now IPC :1.93775: AVG IPC :1.78196: L2-Pf-HR :0.80448: L2-HR :0.79244: (Sim:0h2m53s) 
CPU  0 inst:   41000003 cyc:   22997581 now IPC :1.44402: AVG IPC :1.77133: L2-Pf-HR :0.80447: L2-HR :0.79252: (Sim:0h2m58s) 
CPU  0 inst:   42000000 cyc:   23534924 now IPC :1.86100: AVG IPC :1.77346: L2-Pf-HR :0.80403: L2-HR :0.79208: (Sim:0h3m2s) 
CPU  0 inst:   43000001 cyc:   24077775 now IPC :1.84213: AVG IPC :1.77508: L2-Pf-HR :0.80358: L2-HR :0.79161: (Sim:0h3m7s) 
CPU  0 inst:   44000000 cyc:   24620969 now IPC :1.84096: AVG IPC :1.77659: L2-Pf-HR :0.80308: L2-HR :0.79106: (Sim:0h3m11s) 
CPU  0 inst:   45000002 cyc:   25159705 now IPC :1.85620: AVG IPC :1.77836: L2-Pf-HR :0.80264: L2-HR :0.79063: (Sim:0h3m16s) 
CPU  0 inst:   46000001 cyc:   25709179 now IPC :1.81992: AVG IPC :1.77929: L2-Pf-HR :0.80268: L2-HR :0.79062: (Sim:0h3m20s) 
CPU  0 inst:   47000002 cyc:   26306571 now IPC :1.67394: AVG IPC :1.77680: L2-Pf-HR :0.80336: L2-HR :0.79134: (Sim:0h3m25s) 
CPU  0 inst:   48000000 cyc:   26821514 now IPC :1.94196: AVG IPC :1.78009: L2-Pf-HR :0.80519: L2-HR :0.79314: (Sim:0h3m29s) 
CPU  0 inst:   49000000 cyc:   27507726 now IPC :1.45728: AVG IPC :1.77174: L2-Pf-HR :0.80526: L2-HR :0.79329: (Sim:0h3m34s) 
CPU  0 inst:   50000000 cyc:   28043899 now IPC :1.86507: AVG IPC :1.77359: L2-Pf-HR :0.80492: L2-HR :0.79295: (Sim:0h3m38s) 
CPU  0 inst:   51000002 cyc:   28589918 now IPC :1.83144: AVG IPC :1.77474: L2-Pf-HR :0.80451: L2-HR :0.79250: (Sim:0h3m43s) 
CPU  0 inst:   52000000 cyc:   29134386 now IPC :1.83665: AVG IPC :1.77593: L2-Pf-HR :0.80399: L2-HR :0.79196: (Sim:0h3m47s) 
CPU  0 inst:   53000002 cyc:   29672313 now IPC :1.85899: AVG IPC :1.77749: L2-Pf-HR :0.80374: L2-HR :0.79170: (Sim:0h3m52s) 
CPU  0 inst:   54000001 cyc:   30221033 now IPC :1.82242: AVG IPC :1.77833: L2-Pf-HR :0.80369: L2-HR :0.79161: (Sim:0h3m55s) 
CPU  0 inst:   55000003 cyc:   30819528 now IPC :1.67086: AVG IPC :1.77618: L2-Pf-HR :0.80421: L2-HR :0.79217: (Sim:0h3m58s) 
CPU  0 inst:   56000000 cyc:   31334665 now IPC :1.94123: AVG IPC :1.77898: L2-Pf-HR :0.80582: L2-HR :0.79375: (Sim:0h4m1s) 
CPU  0 inst:   57000002 cyc:   32029552 now IPC :1.43909: AVG IPC :1.77137: L2-Pf-HR :0.80582: L2-HR :0.79383: (Sim:0h4m4s) 
CPU  0 inst:   58000002 cyc:   32567464 now IPC :1.85904: AVG IPC :1.77287: L2-Pf-HR :0.80556: L2-HR :0.79356: (Sim:0h4m8s) 
CPU  0 inst:   59000000 cyc:   33108866 now IPC :1.84705: AVG IPC :1.77412: L2-Pf-HR :0.80523: L2-HR :0.79320: (Sim:0h4m11s) 
CPU  0 inst:   60000000 cyc:   33645982 now IPC :1.86180: AVG IPC :1.77556: L2-Pf-HR :0.80480: L2-HR :0.79276: (Sim:0h4m14s) 
CPU  0 inst:   61000003 cyc:   34194705 now IPC :1.82242: AVG IPC :1.77633: L2-Pf-HR :0.80451: L2-HR :0.79245: (Sim:0h4m17s) 
CPU  0 inst:   62000001 cyc:   34741504 now IPC :1.82882: AVG IPC :1.77718: L2-Pf-HR :0.80443: L2-HR :0.79233: (Sim:0h4m22s) 
CPU  0 inst:   63000003 cyc:   35339881 now IPC :1.67119: AVG IPC :1.77534: L2-Pf-HR :0.80486: L2-HR :0.79276: (Sim:0h4m27s) 
CPU  0 inst:   64000000 cyc:   35854762 now IPC :1.94219: AVG IPC :1.77780: L2-Pf-HR :0.80616: L2-HR :0.79401: (Sim:0h4m31s) 
CPU  0 inst:   65000002 cyc:   36553952 now IPC :1.43023: AVG IPC :1.77097: L2-Pf-HR :0.80612: L2-HR :0.79404: (Sim:0h4m36s) 
CPU  0 inst:   66000000 cyc:   37101330 now IPC :1.82689: AVG IPC :1.77182: L2-Pf-HR :0.80596: L2-HR :0.79386: (Sim:0h4m41s) 
CPU  0 inst:   67000003 cyc:   37639680 now IPC :1.85753: AVG IPC :1.77307: L2-Pf-HR :0.80559: L2-HR :0.79348: (Sim:0h4m45s) 
CPU  0 inst:   68000000 cyc:   38178142 now IPC :1.85714: AVG IPC :1.77429: L2-Pf-HR :0.80527: L2-HR :0.79315: (Sim:0h4m49s) 
CPU  0 inst:   69000003 cyc:   38724867 now IPC :1.82908: AVG IPC :1.77508: L2-Pf-HR :0.80507: L2-HR :0.79292: (Sim:0h4m54s) 
CPU  0 inst:   70000001 cyc:   39264966 now IPC :1.85151: AVG IPC :1.77616: L2-Pf-HR :0.80495: L2-HR :0.79278: (Sim:0h4m59s) 
CPU  0 inst:   71000003 cyc:   39868020 now IPC :1.65823: AVG IPC :1.77433: L2-Pf-HR :0.80536: L2-HR :0.79320: (Sim:0h5m3s) 
CPU  0 inst:   72000000 cyc:   40381886 now IPC :1.94603: AVG IPC :1.77657: L2-Pf-HR :0.80659: L2-HR :0.79442: (Sim:0h5m8s) 
CPU  0 inst:   73000003 cyc:   41067447 now IPC :1.45866: AVG IPC :1.77114: L2-Pf-HR :0.80670: L2-HR :0.79459: (Sim:0h5m12s) 
CPU  0 inst:   74000001 cyc:   41602893 now IPC :1.86760: AVG IPC :1.77241: L2-Pf-HR :0.80653: L2-HR :0.79440: (Sim:0h5m17s) 
CPU  0 inst:   75000003 cyc:   42150931 now IPC :1.82469: AVG IPC :1.77310: L2-Pf-HR :0.80622: L2-HR :0.79407: (Sim:0h5m22s) 
CPU  0 inst:   76000000 cyc:   42689476 now IPC :1.85685: AVG IPC :1.77419: L2-Pf-HR :0.80600: L2-HR :0.79383: (Sim:0h5m26s) 
CPU  0 inst:   77000001 cyc:   43231485 now IPC :1.84499: AVG IPC :1.77509: L2-Pf-HR :0.80578: L2-HR :0.79360: (Sim:0h5m31s) 
CPU  0 inst:   78000001 cyc:   43774060 now IPC :1.84306: AVG IPC :1.77596: L2-Pf-HR :0.80567: L2-HR :0.79348: (Sim:0h5m35s) 
CPU  0 inst:   79000002 cyc:   44377968 now IPC :1.65588: AVG IPC :1.77428: L2-Pf-HR :0.80596: L2-HR :0.79377: (Sim:0h5m39s) 
CPU  0 inst:   80000000 cyc:   44892210 now IPC :1.94461: AVG IPC :1.77628: L2-Pf-HR :0.80704: L2-HR :0.79482: (Sim:0h5m44s) 
CPU  0 inst:   81000000 cyc:   45574823 now IPC :1.46496: AVG IPC :1.77151: L2-Pf-HR :0.80721: L2-HR :0.79505: (Sim:0h5m48s) 
CPU  0 inst:   82000001 cyc:   46120014 now IPC :1.83422: AVG IPC :1.77227: L2-Pf-HR :0.80709: L2-HR :0.79491: (Sim:0h5m53s) 
CPU  0 inst:   83000002 cyc:   46657855 now IPC :1.85929: AVG IPC :1.77330: L2-Pf-HR :0.80677: L2-HR :0.79459: (Sim:0h5m57s) 
CPU  0 inst:   84000000 cyc:   47200583 now IPC :1.84254: AVG IPC :1.77411: L2-Pf-HR :0.80651: L2-HR :0.79432: (Sim:0h6m2s) 
CPU  0 inst:   85000002 cyc:   47749841 now IPC :1.82064: AVG IPC :1.77465: L2-Pf-HR :0.80627: L2-HR :0.79407: (Sim:0h6m6s) 
CPU  0 inst:   86000001 cyc:   48291704 now IPC :1.84548: AVG IPC :1.77547: L2-Pf-HR :0.80626: L2-HR :0.79404: (Sim:0h6m11s) 
CPU  0 inst:   87000002 cyc:   48895016 now IPC :1.65752: AVG IPC :1.77398: L2-Pf-HR :0.80642: L2-HR :0.79422: (Sim:0h6m15s) 
CPU  0 inst:   88000000 cyc:   49408956 now IPC :1.94575: AVG IPC :1.77580: L2-Pf-HR :0.80741: L2-HR :0.79518: (Sim:0h6m20s) 
CPU  0 inst:   89000002 cyc:   50100248 now IPC :1.44657: AVG IPC :1.77117: L2-Pf-HR :0.80757: L2-HR :0.79539: (Sim:0h6m24s) 
CPU  0 inst:   90000003 cyc:   50645787 now IPC :1.83305: AVG IPC :1.77185: L2-Pf-HR :0.80741: L2-HR :0.79523: (Sim:0h6m28s) 
CPU  0 inst:   91000002 cyc:   51183467 now IPC :1.85984: AVG IPC :1.77279: L2-Pf-HR :0.80718: L2-HR :0.79499: (Sim:0h6m31s) 
CPU  0 inst:   92000000 cyc:   51727667 now IPC :1.83756: AVG IPC :1.77349: L2-Pf-HR :0.80698: L2-HR :0.79477: (Sim:0h6m34s) 
CPU  0 inst:   93000002 cyc:   52273470 now IPC :1.83217: AVG IPC :1.77411: L2-Pf-HR :0.80673: L2-HR :0.79449: (Sim:0h6m37s) 
CPU  0 inst:   94000003 cyc:   52813443 now IPC :1.85195: AVG IPC :1.77492: L2-Pf-HR :0.80667: L2-HR :0.79443: (Sim:0h6m40s) 
CPU  0 inst:   95000003 cyc:   53411802 now IPC :1.67124: AVG IPC :1.77374: L2-Pf-HR :0.80680: L2-HR :0.79457: (Sim:0h6m43s) 
CPU  0 inst:   96000000 cyc:   53924481 now IPC :1.95053: AVG IPC :1.77545: L2-Pf-HR :0.80766: L2-HR :0.79539: (Sim:0h6m46s) 
CPU  0 inst:   97000000 cyc:   54615394 now IPC :1.44736: AVG IPC :1.77122: L2-Pf-HR :0.80787: L2-HR :0.79563: (Sim:0h6m49s) 
CPU  0 inst:   98000001 cyc:   55160529 now IPC :1.83441: AVG IPC :1.77186: L2-Pf-HR :0.80769: L2-HR :0.79544: (Sim:0h6m53s) 
CPU  0 inst:   99000003 cyc:   55696336 now IPC :1.86635: AVG IPC :1.77279: L2-Pf-HR :0.80748: L2-HR :0.79523: (Sim:0h6m58s) 
CPU  0 inst:  100000000 cyc:   56241284 now IPC :1.83503: AVG IPC :1.77340: L2-Pf-HR :0.80732: L2-HR :0.79505: (Sim:0h7m1s) 
CPU  0 inst:  101000002 cyc:   56779207 now IPC :1.85901: AVG IPC :1.77422: L2-Pf-HR :0.80708: L2-HR :0.79481: (Sim:0h7m4s) 
CPU  0 inst:  102000002 cyc:   57326580 now IPC :1.82691: AVG IPC :1.77474: L2-Pf-HR :0.80704: L2-HR :0.79475: (Sim:0h7m8s) 
CPU  0 inst:  103000001 cyc:   57932127 now IPC :1.65140: AVG IPC :1.77343: L2-Pf-HR :0.80709: L2-HR :0.79482: (Sim:0h7m13s) 
CPU  0 inst:  104000000 cyc:   58447110 now IPC :1.94181: AVG IPC :1.77493: L2-Pf-HR :0.80785: L2-HR :0.79554: (Sim:0h7m17s) 
CPU  0 inst:  105000000 cyc:   59146249 now IPC :1.43033: AVG IPC :1.77079: L2-Pf-HR :0.80807: L2-HR :0.79579: (Sim:0h7m22s) 
CPU  0 inst:  106000002 cyc:   59683346 now IPC :1.86186: AVG IPC :1.77163: L2-Pf-HR :0.80787: L2-HR :0.79560: (Sim:0h7m27s) 
CPU  0 inst:  107000002 cyc:   60225229 now IPC :1.84542: AVG IPC :1.77230: L2-Pf-HR :0.80769: L2-HR :0.79541: (Sim:0h7m30s) 
CPU  0 inst:  108000000 cyc:   60771662 now IPC :1.83005: AVG IPC :1.77283: L2-Pf-HR :0.80750: L2-HR :0.79520: (Sim:0h7m33s) 
CPU  0 inst:  109000002 cyc:   61309437 now IPC :1.85952: AVG IPC :1.77360: L2-Pf-HR :0.80730: L2-HR :0.79500: (Sim:0h7m36s) 
CPU  0 inst:  110000002 cyc:   61851512 now IPC :1.84476: AVG IPC :1.77423: L2-Pf-HR :0.80727: L2-HR :0.79495: (Sim:0h7m40s) 
CPU  0 inst:  111000002 cyc:   62459583 now IPC :1.64454: AVG IPC :1.77295: L2-Pf-HR :0.80729: L2-HR :0.79499: (Sim:0h7m43s) 
CPU  0 inst:  112000000 cyc:   62974561 now IPC :1.94183: AVG IPC :1.77435: L2-Pf-HR :0.80803: L2-HR :0.79570: (Sim:0h7m46s) 
CPU  0 inst:  113000002 cyc:   63663770 now IPC :1.45094: AVG IPC :1.77080: L2-Pf-HR :0.80823: L2-HR :0.79593: (Sim:0h7m50s) 
CPU  0 inst:  114000003 cyc:   64200981 now IPC :1.86147: AVG IPC :1.77157: L2-Pf-HR :0.80809: L2-HR :0.79579: (Sim:0h7m54s) 
CPU  0 inst:  115000003 cyc:   64744672 now IPC :1.83928: AVG IPC :1.77215: L2-Pf-HR :0.80796: L2-HR :0.79564: (Sim:0h7m59s) 
CPU  0 inst:  116000000 cyc:   65288770 now IPC :1.83790: AVG IPC :1.77270: L2-Pf-HR :0.80774: L2-HR :0.79541: (Sim:0h8m3s) 
CPU  0 inst:  117000003 cyc:   65826102 now IPC :1.86105: AVG IPC :1.77343: L2-Pf-HR :0.80757: L2-HR :0.79524: (Sim:0h8m7s) 
CPU  0 inst:  118000000 cyc:   66373203 now IPC :1.82781: AVG IPC :1.77389: L2-Pf-HR :0.80750: L2-HR :0.79516: (Sim:0h8m12s) 
CPU  0 inst:  119000003 cyc:   66981973 now IPC :1.64266: AVG IPC :1.77268: L2-Pf-HR :0.80756: L2-HR :0.79522: (Sim:0h8m16s) 
CPU  0 inst:  120000000 cyc:   67497843 now IPC :1.93847: AVG IPC :1.77397: L2-Pf-HR :0.80826: L2-HR :0.79590: (Sim:0h8m19s) 
CPU  0 inst:  121000003 cyc:   68187361 now IPC :1.45029: AVG IPC :1.77064: L2-Pf-HR :0.80847: L2-HR :0.79613: (Sim:0h8m22s) 
CPU  0 inst:  122000001 cyc:   68724603 now IPC :1.86135: AVG IPC :1.77136: L2-Pf-HR :0.80835: L2-HR :0.79601: (Sim:0h8m25s) 
CPU  0 inst:  123000001 cyc:   69264364 now IPC :1.85267: AVG IPC :1.77201: L2-Pf-HR :0.80820: L2-HR :0.79584: (Sim:0h8m28s) 
CPU  0 inst:  124000000 cyc:   69799476 now IPC :1.86877: AVG IPC :1.77276: L2-Pf-HR :0.80799: L2-HR :0.79563: (Sim:0h8m32s) 
CPU  0 inst:  125000001 cyc:   70347389 now IPC :1.82511: AVG IPC :1.77317: L2-Pf-HR :0.80787: L2-HR :0.79550: (Sim:0h8m35s) 
CPU  0 inst:  126000003 cyc:   70894670 now IPC :1.82722: AVG IPC :1.77360: L2-Pf-HR :0.80775: L2-HR :0.79537: (Sim:0h8m38s) 
CPU  0 inst:  127000000 cyc:   71504593 now IPC :1.63955: AVG IPC :1.77244: L2-Pf-HR :0.80777: L2-HR :0.79540: (Sim:0h8m41s) 
CPU  0 inst:  128000000 cyc:   72019089 now IPC :1.94365: AVG IPC :1.77368: L2-Pf-HR :0.80843: L2-HR :0.79605: (Sim:0h8m43s) 
CPU  0 inst:  129000001 cyc:   72698069 now IPC :1.47280: AVG IPC :1.77083: L2-Pf-HR :0.80867: L2-HR :0.79633: (Sim:0h8m48s) 
CPU  0 inst:  130000001 cyc:   73243821 now IPC :1.83233: AVG IPC :1.77129: L2-Pf-HR :0.80859: L2-HR :0.79624: (Sim:0h8m53s) 
CPU  0 inst:  131000001 cyc:   73785748 now IPC :1.84527: AVG IPC :1.77184: L2-Pf-HR :0.80842: L2-HR :0.79606: (Sim:0h8m57s) 
CPU  0 inst:  132000000 cyc:   74324038 now IPC :1.85773: AVG IPC :1.77247: L2-Pf-HR :0.80824: L2-HR :0.79588: (Sim:0h9m2s) 
CPU  0 inst:  133000002 cyc:   74871363 now IPC :1.82707: AVG IPC :1.77288: L2-Pf-HR :0.80811: L2-HR :0.79574: (Sim:0h9m6s) 
CPU  0 inst:  134000002 cyc:   75417248 now IPC :1.83189: AVG IPC :1.77331: L2-Pf-HR :0.80800: L2-HR :0.79562: (Sim:0h9m11s) 
CPU  0 inst:  135000002 cyc:   76026828 now IPC :1.64047: AVG IPC :1.77223: L2-Pf-HR :0.80800: L2-HR :0.79563: (Sim:0h9m15s) 
CPU  0 inst:  136000000 cyc:   76542221 now IPC :1.94026: AVG IPC :1.77338: L2-Pf-HR :0.80861: L2-HR :0.79622: (Sim:0h9m20s) 
CPU  0 inst:  137000001 cyc:   77223192 now IPC :1.46849: AVG IPC :1.77065: L2-Pf-HR :0.80885: L2-HR :0.79651: (Sim:0h9m25s) 
CPU  0 inst:  138000000 cyc:   77778064 now IPC :1.80222: AVG IPC :1.77088: L2-Pf-HR :0.80876: L2-HR :0.79641: (Sim:0h9m29s) 
CPU  0 inst:  139000001 cyc:   78318804 now IPC :1.84932: AVG IPC :1.77143: L2-Pf-HR :0.80858: L2-HR :0.79622: (Sim:0h9m34s) 
CPU  0 inst:  140000000 cyc:   78857193 now IPC :1.85739: AVG IPC :1.77202: L2-Pf-HR :0.80846: L2-HR :0.79609: (Sim:0h9m38s) 
CPU  0 inst:  141000002 cyc:   79403329 now IPC :1.83105: AVG IPC :1.77244: L2-Pf-HR :0.80831: L2-HR :0.79593: (Sim:0h9m43s) 
CPU  0 inst:  142000001 cyc:   79945891 now IPC :1.84311: AVG IPC :1.77292: L2-Pf-HR :0.80819: L2-HR :0.79581: (Sim:0h9m48s) 
CPU  0 inst:  143000002 cyc:   80560732 now IPC :1.62644: AVG IPC :1.77179: L2-Pf-HR :0.80818: L2-HR :0.79581: (Sim:0h9m52s) 
CPU  0 inst:  144000000 cyc:   81076013 now IPC :1.94068: AVG IPC :1.77288: L2-Pf-HR :0.80874: L2-HR :0.79634: (Sim:0h9m57s) 
CPU  0 inst:  145000000 cyc:   81736754 now IPC :1.51345: AVG IPC :1.77075: L2-Pf-HR :0.80897: L2-HR :0.79660: (Sim:0h10m1s) 
CPU  0 inst:  146000003 cyc:   82293893 now IPC :1.79489: AVG IPC :1.77092: L2-Pf-HR :0.80888: L2-HR :0.79651: (Sim:0h10m6s) 
CPU  0 inst:  147000003 cyc:   82833047 now IPC :1.85476: AVG IPC :1.77147: L2-Pf-HR :0.80872: L2-HR :0.79635: (Sim:0h10m11s) 
CPU  0 inst:  148000000 cyc:   83376287 now IPC :1.84080: AVG IPC :1.77193: L2-Pf-HR :0.80859: L2-HR :0.79620: (Sim:0h10m15s) 
CPU  0 inst:  149000002 cyc:   83924203 now IPC :1.82510: AVG IPC :1.77228: L2-Pf-HR :0.80844: L2-HR :0.79604: (Sim:0h10m18s) 
CPU  0 inst:  150000000 cyc:   84462422 now IPC :1.85798: AVG IPC :1.77283: L2-Pf-HR :0.80837: L2-HR :0.79596: (Sim:0h10m21s) 
CPU  0 inst:  151000001 cyc:   85080269 now IPC :1.61853: AVG IPC :1.77170: L2-Pf-HR :0.80831: L2-HR :0.79591: (Sim:0h10m25s) 
CPU  0 inst:  152000000 cyc:   85595295 now IPC :1.94165: AVG IPC :1.77273: L2-Pf-HR :0.80888: L2-HR :0.79646: (Sim:0h10m29s) 
CPU  0 inst:  153000000 cyc:   86254715 now IPC :1.51648: AVG IPC :1.77075: L2-Pf-HR :0.80912: L2-HR :0.79673: (Sim:0h10m32s) 
CPU  0 inst:  154000003 cyc:   86820125 now IPC :1.76863: AVG IPC :1.77074: L2-Pf-HR :0.80904: L2-HR :0.79665: (Sim:0h10m35s) 
CPU  0 inst:  155000002 cyc:   87357064 now IPC :1.86241: AVG IPC :1.77131: L2-Pf-HR :0.80889: L2-HR :0.79649: (Sim:0h10m38s) 
CPU  0 inst:  156000000 cyc:   87902192 now IPC :1.83443: AVG IPC :1.77170: L2-Pf-HR :0.80875: L2-HR :0.79635: (Sim:0h10m41s) 
CPU  0 inst:  157000001 cyc:   88451108 now IPC :1.82177: AVG IPC :1.77202: L2-Pf-HR :0.80858: L2-HR :0.79617: (Sim:0h10m44s) 
CPU  0 inst:  158000003 cyc:   88988981 now IPC :1.85918: AVG IPC :1.77255: L2-Pf-HR :0.80852: L2-HR :0.79611: (Sim:0h10m48s) 
CPU  0 inst:  159000002 cyc:   89597109 now IPC :1.64439: AVG IPC :1.77167: L2-Pf-HR :0.80846: L2-HR :0.79605: (Sim:0h10m52s) 
CPU  0 inst:  160000000 cyc:   90114137 now IPC :1.93413: AVG IPC :1.77261: L2-Pf-HR :0.80895: L2-HR :0.79652: (Sim:0h10m55s) 
CPU  0 inst:  161000000 cyc:   90767057 now IPC :1.53158: AVG IPC :1.77086: L2-Pf-HR :0.80920: L2-HR :0.79679: (Sim:0h10m58s) 
CPU  0 inst:  162000003 cyc:   91342413 now IPC :1.73806: AVG IPC :1.77065: L2-Pf-HR :0.80910: L2-HR :0.79669: (Sim:0h11m2s) 
CPU  0 inst:  163000000 cyc:   91877912 now IPC :1.86741: AVG IPC :1.77122: L2-Pf-HR :0.80898: L2-HR :0.79656: (Sim:0h11m5s) 
CPU  0 inst:  164000000 cyc:   92420079 now IPC :1.84445: AVG IPC :1.77166: L2-Pf-HR :0.80887: L2-HR :0.79645: (Sim:0h11m8s) 
CPU  0 inst:  165000003 cyc:   92956537 now IPC :1.86408: AVG IPC :1.77219: L2-Pf-HR :0.80872: L2-HR :0.79629: (Sim:0h11m11s) 
CPU  0 inst:  166000000 cyc:   93503491 now IPC :1.82830: AVG IPC :1.77253: L2-Pf-HR :0.80864: L2-HR :0.79621: (Sim:0h11m14s) 
CPU  0 inst:  167000003 cyc:   94111344 now IPC :1.64514: AVG IPC :1.77169: L2-Pf-HR :0.80856: L2-HR :0.79614: (Sim:0h11m17s) 
CPU  0 inst:  168000000 cyc:   94626958 now IPC :1.93943: AVG IPC :1.77262: L2-Pf-HR :0.80904: L2-HR :0.79660: (Sim:0h11m20s) 
CPU  0 inst:  169000003 cyc:   95265174 now IPC :1.56687: AVG IPC :1.77123: L2-Pf-HR :0.80930: L2-HR :0.79689: (Sim:0h11m23s) 
CPU  0 inst:  170000000 cyc:   95842378 now IPC :1.73248: AVG IPC :1.77099: L2-Pf-HR :0.80917: L2-HR :0.79676: (Sim:0h11m26s) 
CPU  0 inst:  171000002 cyc:   96387339 now IPC :1.83500: AVG IPC :1.77136: L2-Pf-HR :0.80905: L2-HR :0.79663: (Sim:0h11m30s) 
CPU  0 inst:  172000000 cyc:   96933592 now IPC :1.83065: AVG IPC :1.77169: L2-Pf-HR :0.80890: L2-HR :0.79648: (Sim:0h11m34s) 
CPU  0 inst:  173000001 cyc:   97470537 now IPC :1.86239: AVG IPC :1.77220: L2-Pf-HR :0.80875: L2-HR :0.79633: (Sim:0h11m38s) 
CPU  0 inst:  174000001 cyc:   98016990 now IPC :1.82998: AVG IPC :1.77252: L2-Pf-HR :0.80867: L2-HR :0.79624: (Sim:0h11m41s) 
CPU  0 inst:  175000002 cyc:   98628942 now IPC :1.63412: AVG IPC :1.77166: L2-Pf-HR :0.80853: L2-HR :0.79611: (Sim:0h11m44s) 
CPU  0 inst:  176000000 cyc:   99144920 now IPC :1.93806: AVG IPC :1.77253: L2-Pf-HR :0.80897: L2-HR :0.79655: (Sim:0h11m47s) 
CPU  0 inst:  177000001 cyc:   99773447 now IPC :1.59102: AVG IPC :1.77138: L2-Pf-HR :0.80927: L2-HR :0.79687: (Sim:0h11m51s) 
CPU  0 inst:  178000001 cyc:  100359188 now IPC :1.70724: AVG IPC :1.77100: L2-Pf-HR :0.80916: L2-HR :0.79676: (Sim:0h11m54s) 
CPU  0 inst:  179000002 cyc:  100897715 now IPC :1.85692: AVG IPC :1.77146: L2-Pf-HR :0.80905: L2-HR :0.79664: (Sim:0h11m57s) 
CPU  0 inst:  180000000 cyc:  101444256 now IPC :1.82969: AVG IPC :1.77178: L2-Pf-HR :0.80889: L2-HR :0.79648: (Sim:0h12m1s) 
CPU  0 inst:  181000002 cyc:  101983077 now IPC :1.85591: AVG IPC :1.77223: L2-Pf-HR :0.80877: L2-HR :0.79635: (Sim:0h12m6s) 
CPU  0 inst:  182000002 cyc:  102525930 now IPC :1.84212: AVG IPC :1.77260: L2-Pf-HR :0.80868: L2-HR :0.79626: (Sim:0h12m10s) 
CPU  0 inst:  183000003 cyc:  103140633 now IPC :1.62680: AVG IPC :1.77172: L2-Pf-HR :0.80855: L2-HR :0.79614: (Sim:0h12m13s) 
CPU  0 inst:  184000000 cyc:  103660194 now IPC :1.92470: AVG IPC :1.77250: L2-Pf-HR :0.80899: L2-HR :0.79656: (Sim:0h12m16s) 
CPU  0 inst:  185000003 cyc:  104289801 now IPC :1.58830: AVG IPC :1.77137: L2-Pf-HR :0.80926: L2-HR :0.79685: (Sim:0h12m19s) 
CPU  0 inst:  186000000 cyc:  104887095 now IPC :1.67421: AVG IPC :1.77082: L2-Pf-HR :0.80916: L2-HR :0.79676: (Sim:0h12m22s) 
CPU  0 inst:  187000002 cyc:  105430884 now IPC :1.83895: AVG IPC :1.77117: L2-Pf-HR :0.80905: L2-HR :0.79664: (Sim:0h12m25s) 
CPU  0 inst:  188000000 cyc:  105970782 now IPC :1.85220: AVG IPC :1.77159: L2-Pf-HR :0.80890: L2-HR :0.79649: (Sim:0h12m28s) 
CPU  0 inst:  189000002 cyc:  106518367 now IPC :1.82620: AVG IPC :1.77187: L2-Pf-HR :0.80879: L2-HR :0.79637: (Sim:0h12m31s) 
CPU  0 inst:  190000000 cyc:  107066586 now IPC :1.82408: AVG IPC :1.77214: L2-Pf-HR :0.80868: L2-HR :0.79626: (Sim:0h12m34s) 
CPU  0 inst:  191000003 cyc:  107666035 now IPC :1.66820: AVG IPC :1.77156: L2-Pf-HR :0.80856: L2-HR :0.79616: (Sim:0h12m37s) 
CPU  0 inst:  192000000 cyc:  108194203 now IPC :1.89333: AVG IPC :1.77216: L2-Pf-HR :0.80899: L2-HR :0.79657: (Sim:0h12m40s) 
CPU  0 inst:  193000002 cyc:  108814167 now IPC :1.61300: AVG IPC :1.77124: L2-Pf-HR :0.80927: L2-HR :0.79688: (Sim:0h12m43s) 
CPU  0 inst:  194000003 cyc:  109416751 now IPC :1.65952: AVG IPC :1.77062: L2-Pf-HR :0.80918: L2-HR :0.79678: (Sim:0h12m47s) 
CPU  0 inst:  195000001 cyc:  109960929 now IPC :1.83763: AVG IPC :1.77096: L2-Pf-HR :0.80906: L2-HR :0.79666: (Sim:0h12m50s) 
CPU  0 inst:  196000000 cyc:  110500638 now IPC :1.85285: AVG IPC :1.77136: L2-Pf-HR :0.80892: L2-HR :0.79652: (Sim:0h12m53s) 
CPU  0 inst:  197000002 cyc:  111046517 now IPC :1.83191: AVG IPC :1.77166: L2-Pf-HR :0.80881: L2-HR :0.79641: (Sim:0h12m55s) 
CPU  0 inst:  198000000 cyc:  111591652 now IPC :1.83440: AVG IPC :1.77197: L2-Pf-HR :0.80871: L2-HR :0.79630: (Sim:0h12m58s) 
CPU  0 inst:  199000003 cyc:  112187192 now IPC :1.67915: AVG IPC :1.77147: L2-Pf-HR :0.80857: L2-HR :0.79617: (Sim:0h13m1s) 
CPU  0 inst:  200000000 cyc:  112721215 now IPC :1.87257: AVG IPC :1.77195: L2-Pf-HR :0.80896: L2-HR :0.79655: (Sim:0h13m4s) 
CPU  0 inst:  201000001 cyc:  113296843 now IPC :1.73723: AVG IPC :1.77178: L2-Pf-HR :0.80931: L2-HR :0.79690: (Sim:0h13m8s) 
CPU  0 inst:  202000002 cyc:  113936675 now IPC :1.56291: AVG IPC :1.77059: L2-Pf-HR :0.80917: L2-HR :0.79677: (Sim:0h13m11s) 
CPU  0 inst:  203000002 cyc:  114479693 now IPC :1.84156: AVG IPC :1.77093: L2-Pf-HR :0.80905: L2-HR :0.79665: (Sim:0h13m15s) 
CPU  0 inst:  204000000 cyc:  115015709 now IPC :1.86561: AVG IPC :1.77138: L2-Pf-HR :0.80893: L2-HR :0.79653: (Sim:0h13m18s) 
CPU  0 inst:  205000001 cyc:  115559500 now IPC :1.83894: AVG IPC :1.77170: L2-Pf-HR :0.80883: L2-HR :0.79642: (Sim:0h13m20s) 
CPU  0 inst:  206000001 cyc:  116099362 now IPC :1.85233: AVG IPC :1.77208: L2-Pf-HR :0.80871: L2-HR :0.79631: (Sim:0h13m23s) 
CPU  0 inst:  207000003 cyc:  116665282 now IPC :1.76704: AVG IPC :1.77205: L2-Pf-HR :0.80862: L2-HR :0.79621: (Sim:0h13m26s) 
CPU  0 inst:  208000000 cyc:  117235104 now IPC :1.75493: AVG IPC :1.77197: L2-Pf-HR :0.80895: L2-HR :0.79653: (Sim:0h13m29s) 
CPU  0 inst:  209000002 cyc:  117777966 now IPC :1.84209: AVG IPC :1.77229: L2-Pf-HR :0.80933: L2-HR :0.79690: (Sim:0h13m32s) 
CPU  0 inst:  210000000 cyc:  118453930 now IPC :1.47937: AVG IPC :1.77061: L2-Pf-HR :0.80916: L2-HR :0.79675: (Sim:0h13m36s) 
CPU  0 inst:  211000003 cyc:  118989862 now IPC :1.86591: AVG IPC :1.77104: L2-Pf-HR :0.80904: L2-HR :0.79664: (Sim:0h13m38s) 
CPU  0 inst:  212000000 cyc:  119532953 now IPC :1.84131: AVG IPC :1.77136: L2-Pf-HR :0.80894: L2-HR :0.79653: (Sim:0h13m41s) 
CPU  0 inst:  213000001 cyc:  120079786 now IPC :1.82871: AVG IPC :1.77163: L2-Pf-HR :0.80881: L2-HR :0.79640: (Sim:0h13m45s) 
CPU  0 inst:  214000000 cyc:  120617408 now IPC :1.86004: AVG IPC :1.77202: L2-Pf-HR :0.80871: L2-HR :0.79629: (Sim:0h13m48s) 
CPU  0 inst:  215000001 cyc:  121176425 now IPC :1.78886: AVG IPC :1.77210: L2-Pf-HR :0.80863: L2-HR :0.79621: (Sim:0h13m51s) 
CPU  0 inst:  216000000 cyc:  121753696 now IPC :1.73229: AVG IPC :1.77191: L2-Pf-HR :0.80891: L2-HR :0.79649: (Sim:0h13m54s) 
CPU  0 inst:  217000002 cyc:  122272975 now IPC :1.92575: AVG IPC :1.77257: L2-Pf-HR :0.80931: L2-HR :0.79688: (Sim:0h13m57s) 
CPU  0 inst:  218000000 cyc:  122964886 now IPC :1.44527: AVG IPC :1.77071: L2-Pf-HR :0.80914: L2-HR :0.79674: (Sim:0h14m0s) 
CPU  0 inst:  219000001 cyc:  123500062 now IPC :1.86855: AVG IPC :1.77114: L2-Pf-HR :0.80903: L2-HR :0.79662: (Sim:0h14m3s) 
CPU  0 inst:  220000000 cyc:  124043404 now IPC :1.84046: AVG IPC :1.77145: L2-Pf-HR :0.80891: L2-HR :0.79651: (Sim:0h14m6s) 
CPU  0 inst:  221000002 cyc:  124590875 now IPC :1.82658: AVG IPC :1.77169: L2-Pf-HR :0.80878: L2-HR :0.79637: (Sim:0h14m9s) 
CPU  0 inst:  222000001 cyc:  125130158 now IPC :1.85431: AVG IPC :1.77205: L2-Pf-HR :0.80871: L2-HR :0.79630: (Sim:0h14m12s) 
CPU  0 inst:  223000002 cyc:  125683443 now IPC :1.80739: AVG IPC :1.77221: L2-Pf-HR :0.80863: L2-HR :0.79622: (Sim:0h14m15s) 
CPU  0 inst:  224000000 cyc:  126269530 now IPC :1.70623: AVG IPC :1.77190: L2-Pf-HR :0.80886: L2-HR :0.79646: (Sim:0h14m18s) 
CPU  0 inst:  225000001 cyc:  126786205 now IPC :1.93545: AVG IPC :1.77257: L2-Pf-HR :0.80923: L2-HR :0.79682: (Sim:0h14m21s) 
CPU  0 inst:  226000000 cyc:  127486090 now IPC :1.42880: AVG IPC :1.77067: L2-Pf-HR :0.80908: L2-HR :0.79670: (Sim:0h14m24s) 
CPU  0 inst:  227000001 cyc:  128019941 now IPC :1.87318: AVG IPC :1.77110: L2-Pf-HR :0.80898: L2-HR :0.79660: (Sim:0h14m26s) 
CPU  0 inst:  228000000 cyc:  128559608 now IPC :1.85299: AVG IPC :1.77145: L2-Pf-HR :0.80888: L2-HR :0.79650: (Sim:0h14m29s) 
CPU  0 inst:  229000002 cyc:  129101053 now IPC :1.84691: AVG IPC :1.77176: L2-Pf-HR :0.80876: L2-HR :0.79637: (Sim:0h14m34s) 
CPU  0 inst:  230000002 cyc:  129649213 now IPC :1.82428: AVG IPC :1.77199: L2-Pf-HR :0.80867: L2-HR :0.79629: (Sim:0h14m38s) 
CPU  0 inst:  231000002 cyc:  130196460 now IPC :1.82733: AVG IPC :1.77222: L2-Pf-HR :0.80863: L2-HR :0.79623: (Sim:0h14m43s) 
CPU  0 inst:  232000000 cyc:  130781589 now IPC :1.70902: AVG IPC :1.77194: L2-Pf-HR :0.80882: L2-HR :0.79644: (Sim:0h14m47s) 
CPU  0 inst:  233000002 cyc:  131295861 now IPC :1.94450: AVG IPC :1.77262: L2-Pf-HR :0.80917: L2-HR :0.79678: (Sim:0h14m52s) 
CPU  0 inst:  234000003 cyc:  131993420 now IPC :1.43357: AVG IPC :1.77081: L2-Pf-HR :0.80904: L2-HR :0.79668: (Sim:0h14m56s) 
CPU  0 inst:  235000001 cyc:  132532895 now IPC :1.85365: AVG IPC :1.77115: L2-Pf-HR :0.80896: L2-HR :0.79660: (Sim:0h15m1s) 
CPU  0 inst:  236000000 cyc:  133076619 now IPC :1.83917: AVG IPC :1.77143: L2-Pf-HR :0.80886: L2-HR :0.79649: (Sim:0h15m5s) 
CPU  0 inst:  237000001 cyc:  133615945 now IPC :1.85417: AVG IPC :1.77177: L2-Pf-HR :0.80875: L2-HR :0.79638: (Sim:0h15m10s) 
CPU  0 inst:  238000000 cyc:  134161341 now IPC :1.83353: AVG IPC :1.77202: L2-Pf-HR :0.80866: L2-HR :0.79628: (Sim:0h15m14s) 
CPU  0 inst:  239000002 cyc:  134706457 now IPC :1.83448: AVG IPC :1.77228: L2-Pf-HR :0.80859: L2-HR :0.79622: (Sim:0h15m19s) 
CPU  0 inst:  240000000 cyc:  135300304 now IPC :1.68393: AVG IPC :1.77189: L2-Pf-HR :0.80876: L2-HR :0.79639: (Sim:0h15m23s) 
CPU  0 inst:  241000002 cyc:  135815869 now IPC :1.93962: AVG IPC :1.77253: L2-Pf-HR :0.80911: L2-HR :0.79674: (Sim:0h15m27s) 
CPU  0 inst:  242000003 cyc:  136510187 now IPC :1.44026: AVG IPC :1.77083: L2-Pf-HR :0.80900: L2-HR :0.79665: (Sim:0h15m31s) 
CPU  0 inst:  243000000 cyc:  137054161 now IPC :1.83832: AVG IPC :1.77110: L2-Pf-HR :0.80892: L2-HR :0.79657: (Sim:0h15m35s) 
CPU  0 inst:  244000000 cyc:  137598823 now IPC :1.83600: AVG IPC :1.77135: L2-Pf-HR :0.80881: L2-HR :0.79645: (Sim:0h15m38s) 
CPU  0 inst:  245000001 cyc:  138136360 now IPC :1.86034: AVG IPC :1.77170: L2-Pf-HR :0.80870: L2-HR :0.79635: (Sim:0h15m42s) 
CPU  0 inst:  246000000 cyc:  138686278 now IPC :1.81845: AVG IPC :1.77189: L2-Pf-HR :0.80863: L2-HR :0.79627: (Sim:0h15m45s) 
CPU  0 inst:  247000002 cyc:  139227640 now IPC :1.84720: AVG IPC :1.77218: L2-Pf-HR :0.80858: L2-HR :0.79622: (Sim:0h15m49s) 
CPU  0 inst:  248000000 cyc:  139825139 now IPC :1.67364: AVG IPC :1.77176: L2-Pf-HR :0.80874: L2-HR :0.79638: (Sim:0h15m53s) 
CPU  0 inst:  249000002 cyc:  140340221 now IPC :1.94144: AVG IPC :1.77239: L2-Pf-HR :0.80907: L2-HR :0.79670: (Sim:0h15m57s) 
CPU  0 inst:  250000002 cyc:  141032449 now IPC :1.44461: AVG IPC :1.77077: L2-Pf-HR :0.80897: L2-HR :0.79662: (Sim:0h16m1s) 
CPU  0 inst:  251000000 cyc:  141577435 now IPC :1.83491: AVG IPC :1.77102: L2-Pf-HR :0.80889: L2-HR :0.79655: (Sim:0h16m4s) 
CPU  0 inst:  252000000 cyc:  142110735 now IPC :1.87512: AVG IPC :1.77141: L2-Pf-HR :0.80877: L2-HR :0.79643: (Sim:0h16m7s) 
CPU  0 inst:  253000002 cyc:  142655778 now IPC :1.83472: AVG IPC :1.77165: L2-Pf-HR :0.80868: L2-HR :0.79633: (Sim:0h16m10s) 
CPU  0 inst:  254000000 cyc:  143203081 now IPC :1.82714: AVG IPC :1.77187: L2-Pf-HR :0.80859: L2-HR :0.79624: (Sim:0h16m13s) 
CPU  0 inst:  255000001 cyc:  143737799 now IPC :1.87015: AVG IPC :1.77223: L2-Pf-HR :0.80856: L2-HR :0.79621: (Sim:0h16m16s) 
CPU  0 inst:  256000000 cyc:  144332514 now IPC :1.68148: AVG IPC :1.77186: L2-Pf-HR :0.80869: L2-HR :0.79634: (Sim:0h16m18s) 
CPU  0 inst:  257000002 cyc:  144846718 now IPC :1.94476: AVG IPC :1.77248: L2-Pf-HR :0.80900: L2-HR :0.79663: (Sim:0h16m21s) 
CPU  0 inst:  258000001 cyc:  149838439 now IPC :0.20033: AVG IPC :1.71976: L2-Pf-HR :0.80626: L2-HR :0.79472: (Sim:0h16m30s) 
CPU  0 inst:  259000003 cyc:  156371953 now IPC :0.15306: AVG IPC :1.65388: L2-Pf-HR :0.80274: L2-HR :0.79235: (Sim:0h16m40s) 
CPU  0 inst:  260000000 cyc:  162911837 now IPC :0.15291: AVG IPC :1.59326: L2-Pf-HR :0.79926: L2-HR :0.79002: (Sim:0h16m50s) 
CPU  0 inst:  261000001 cyc:  169461893 now IPC :0.15267: AVG IPC :1.53726: L2-Pf-HR :0.79580: L2-HR :0.78773: (Sim:0h17m1s) 
CPU  0 inst:  262000001 cyc:  175879925 now IPC :0.15581: AVG IPC :1.48657: L2-Pf-HR :0.79249: L2-HR :0.78552: (Sim:0h17m12s) 
CPU  0 inst:  263000000 cyc:  179397243 now IPC :0.28431: AVG IPC :1.46286: L2-Pf-HR :0.79254: L2-HR :0.78551: (Sim:0h17m20s) 
CPU  0 inst:  264000000 cyc:  182905823 now IPC :0.28502: AVG IPC :1.44015: L2-Pf-HR :0.79261: L2-HR :0.78553: (Sim:0h17m30s) 
CPU  0 inst:  265000002 cyc:  186415615 now IPC :0.28492: AVG IPC :1.41828: L2-Pf-HR :0.79270: L2-HR :0.78557: (Sim:0h17m38s) 
CPU  0 inst:  266000002 cyc:  189924587 now IPC :0.28498: AVG IPC :1.39724: L2-Pf-HR :0.79280: L2-HR :0.78562: (Sim:0h17m44s) 
CPU  0 inst:  267000002 cyc:  193433932 now IPC :0.28495: AVG IPC :1.37695: L2-Pf-HR :0.79291: L2-HR :0.78567: (Sim:0h17m50s) 
CPU  0 inst:  268000000 cyc:  196942802 now IPC :0.28499: AVG IPC :1.35740: L2-Pf-HR :0.79301: L2-HR :0.78571: (Sim:0h17m56s) 
CPU  0 inst:  269000001 cyc:  200452010 now IPC :0.28496: AVG IPC :1.33853: L2-Pf-HR :0.79311: L2-HR :0.78575: (Sim:0h18m2s) 
CPU  0 inst:  270000000 cyc:  203960680 now IPC :0.28501: AVG IPC :1.32032: L2-Pf-HR :0.79320: L2-HR :0.78580: (Sim:0h18m8s) 
CPU  0 inst:  271000001 cyc:  207469276 now IPC :0.28501: AVG IPC :1.30273: L2-Pf-HR :0.79330: L2-HR :0.78584: (Sim:0h18m14s) 
CPU  0 inst:  272000000 cyc:  210976965 now IPC :0.28509: AVG IPC :1.28573: L2-Pf-HR :0.79340: L2-HR :0.78588: (Sim:0h18m20s) 
CPU  0 inst:  273000002 cyc:  214485232 now IPC :0.28504: AVG IPC :1.26929: L2-Pf-HR :0.79350: L2-HR :0.78593: (Sim:0h18m26s) 
CPU  0 inst:  274000002 cyc:  217994083 now IPC :0.28499: AVG IPC :1.25338: L2-Pf-HR :0.79360: L2-HR :0.78597: (Sim:0h18m33s) 
CPU  0 inst:  275000002 cyc:  221503550 now IPC :0.28494: AVG IPC :1.23796: L2-Pf-HR :0.79369: L2-HR :0.78602: (Sim:0h18m40s) 
CPU  0 inst:  276000000 cyc:  225012656 now IPC :0.28497: AVG IPC :1.22304: L2-Pf-HR :0.79378: L2-HR :0.78606: (Sim:0h18m47s) 
CPU  0 inst:  277000001 cyc:  228521494 now IPC :0.28499: AVG IPC :1.20857: L2-Pf-HR :0.79388: L2-HR :0.78610: (Sim:0h18m53s) 
CPU  0 inst:  278000000 cyc:  232030876 now IPC :0.28495: AVG IPC :1.19454: L2-Pf-HR :0.79397: L2-HR :0.78614: (Sim:0h18m59s) 
CPU  0 inst:  279000000 cyc:  235540301 now IPC :0.28495: AVG IPC :1.18093: L2-Pf-HR :0.79407: L2-HR :0.78619: (Sim:0h19m5s) 
CPU  0 inst:  280000000 cyc:  239049538 now IPC :0.28496: AVG IPC :1.16773: L2-Pf-HR :0.79416: L2-HR :0.78622: (Sim:0h19m12s) 
CPU  0 inst:  281000001 cyc:  242557445 now IPC :0.28507: AVG IPC :1.15491: L2-Pf-HR :0.79425: L2-HR :0.78626: (Sim:0h19m18s) 
CPU  0 inst:  282000001 cyc:  246065516 now IPC :0.28506: AVG IPC :1.14246: L2-Pf-HR :0.79434: L2-HR :0.78630: (Sim:0h19m24s) 
CPU  0 inst:  283000002 cyc:  249574267 now IPC :0.28500: AVG IPC :1.13036: L2-Pf-HR :0.79444: L2-HR :0.78635: (Sim:0h19m29s) 
CPU  0 inst:  284000000 cyc:  253083017 now IPC :0.28500: AVG IPC :1.11859: L2-Pf-HR :0.79453: L2-HR :0.78639: (Sim:0h19m35s) 
CPU  0 inst:  285000001 cyc:  256592413 now IPC :0.28495: AVG IPC :1.10715: L2-Pf-HR :0.79462: L2-HR :0.78643: (Sim:0h19m42s) 
CPU  0 inst:  286000000 cyc:  260101611 now IPC :0.28497: AVG IPC :1.09601: L2-Pf-HR :0.79471: L2-HR :0.78647: (Sim:0h19m49s) 
CPU  0 inst:  287000000 cyc:  263610604 now IPC :0.28498: AVG IPC :1.08518: L2-Pf-HR :0.79480: L2-HR :0.78651: (Sim:0h19m59s) 
CPU  0 inst:  288000000 cyc:  267119442 now IPC :0.28499: AVG IPC :1.07463: L2-Pf-HR :0.79489: L2-HR :0.78655: (Sim:0h20m8s) 
CPU  0 inst:  289000001 cyc:  270628896 now IPC :0.28494: AVG IPC :1.06435: L2-Pf-HR :0.79498: L2-HR :0.78659: (Sim:0h20m14s) 
CPU  0 inst:  290000003 cyc:  274137547 now IPC :0.28501: AVG IPC :1.05434: L2-Pf-HR :0.79507: L2-HR :0.78663: (Sim:0h20m24s) 
CPU  0 inst:  291000001 cyc:  277645376 now IPC :0.28508: AVG IPC :1.04458: L2-Pf-HR :0.79515: L2-HR :0.78666: (Sim:0h20m33s) 
CPU  0 inst:  292000000 cyc:  281153715 now IPC :0.28503: AVG IPC :1.03507: L2-Pf-HR :0.79524: L2-HR :0.78670: (Sim:0h20m43s) 
CPU  0 inst:  293000001 cyc:  284663166 now IPC :0.28495: AVG IPC :1.02579: L2-Pf-HR :0.79533: L2-HR :0.78674: (Sim:0h20m52s) 
CPU  0 inst:  294000000 cyc:  288172320 now IPC :0.28497: AVG IPC :1.01674: L2-Pf-HR :0.79541: L2-HR :0.78678: (Sim:0h21m2s) 
CPU  0 inst:  295000000 cyc:  291681067 now IPC :0.28500: AVG IPC :1.00791: L2-Pf-HR :0.79550: L2-HR :0.78682: (Sim:0h21m11s) 
CPU  0 inst:  296000000 cyc:  295190374 now IPC :0.28496: AVG IPC :0.99929: L2-Pf-HR :0.79559: L2-HR :0.78686: (Sim:0h21m21s) 
CPU  0 inst:  297000001 cyc:  298699180 now IPC :0.28500: AVG IPC :0.99087: L2-Pf-HR :0.79567: L2-HR :0.78689: (Sim:0h21m31s) 
CPU  0 inst:  298000002 cyc:  302208876 now IPC :0.28493: AVG IPC :0.98264: L2-Pf-HR :0.79576: L2-HR :0.78693: (Sim:0h21m40s) 
CPU  0 inst:  299000002 cyc:  305718151 now IPC :0.28496: AVG IPC :0.97461: L2-Pf-HR :0.79584: L2-HR :0.78697: (Sim:0h21m50s) 
CPU  0 inst:  300000000 cyc:  309227477 now IPC :0.28495: AVG IPC :0.96676: L2-Pf-HR :0.79593: L2-HR :0.78701: (Sim:0h22m0s) 
CPU  0 inst:  301000001 cyc:  312734642 now IPC :0.28513: AVG IPC :0.95909: L2-Pf-HR :0.79601: L2-HR :0.78704: (Sim:0h22m9s) 
CPU  0 inst:  302000000 cyc:  316243263 now IPC :0.28501: AVG IPC :0.95159: L2-Pf-HR :0.79609: L2-HR :0.78708: (Sim:0h22m18s) 
CPU  0 inst:  303000000 cyc:  319751939 now IPC :0.28501: AVG IPC :0.94425: L2-Pf-HR :0.79618: L2-HR :0.78712: (Sim:0h22m28s) 
CPU  0 inst:  304000000 cyc:  323260941 now IPC :0.28498: AVG IPC :0.93707: L2-Pf-HR :0.79626: L2-HR :0.78716: (Sim:0h22m37s) 
CPU  0 inst:  305000001 cyc:  326769833 now IPC :0.28499: AVG IPC :0.93005: L2-Pf-HR :0.79634: L2-HR :0.78719: (Sim:0h22m47s) 
CPU  0 inst:  306000002 cyc:  330278802 now IPC :0.28498: AVG IPC :0.92317: L2-Pf-HR :0.79643: L2-HR :0.78723: (Sim:0h22m56s) 
CPU  0 inst:  307000002 cyc:  333788163 now IPC :0.28495: AVG IPC :0.91644: L2-Pf-HR :0.79651: L2-HR :0.78727: (Sim:0h23m6s) 
CPU  0 inst:  308000000 cyc:  337297377 now IPC :0.28496: AVG IPC :0.90986: L2-Pf-HR :0.79659: L2-HR :0.78730: (Sim:0h23m13s) 
CPU  0 inst:  309000000 cyc:  340806823 now IPC :0.28495: AVG IPC :0.90340: L2-Pf-HR :0.79667: L2-HR :0.78733: (Sim:0h23m23s) 
CPU  0 inst:  310000003 cyc:  344316118 now IPC :0.28496: AVG IPC :0.89708: L2-Pf-HR :0.79675: L2-HR :0.78737: (Sim:0h23m33s) 
CPU  0 inst:  311000002 cyc:  347824364 now IPC :0.28504: AVG IPC :0.89089: L2-Pf-HR :0.79683: L2-HR :0.78740: (Sim:0h23m42s) 
CPU  0 inst:  312000000 cyc:  351333077 now IPC :0.28500: AVG IPC :0.88482: L2-Pf-HR :0.79690: L2-HR :0.78744: (Sim:0h23m52s) 
CPU  0 inst:  313000001 cyc:  354841580 now IPC :0.28502: AVG IPC :0.87888: L2-Pf-HR :0.79698: L2-HR :0.78747: (Sim:0h23m59s) 
CPU  0 inst:  314000002 cyc:  358350786 now IPC :0.28497: AVG IPC :0.87304: L2-Pf-HR :0.79706: L2-HR :0.78751: (Sim:0h24m9s) 
CPU  0 inst:  315000002 cyc:  361859895 now IPC :0.28497: AVG IPC :0.86733: L2-Pf-HR :0.79714: L2-HR :0.78754: (Sim:0h24m18s) 
CPU  0 inst:  316000000 cyc:  365368711 now IPC :0.28500: AVG IPC :0.86172: L2-Pf-HR :0.79722: L2-HR :0.78758: (Sim:0h24m26s) 
CPU  0 inst:  317000000 cyc:  368877656 now IPC :0.28499: AVG IPC :0.85622: L2-Pf-HR :0.79730: L2-HR :0.78761: (Sim:0h24m32s) 
CPU  0 inst:  318000001 cyc:  372386456 now IPC :0.28500: AVG IPC :0.85082: L2-Pf-HR :0.79737: L2-HR :0.78764: (Sim:0h24m38s) 
CPU  0 inst:  319000000 cyc:  375895297 now IPC :0.28499: AVG IPC :0.84552: L2-Pf-HR :0.79745: L2-HR :0.78768: (Sim:0h24m44s) 
CPU  0 inst:  320000000 cyc:  379403195 now IPC :0.28507: AVG IPC :0.84033: L2-Pf-HR :0.79752: L2-HR :0.78771: (Sim:0h24m50s) 
CPU  0 inst:  321000000 cyc:  382911326 now IPC :0.28505: AVG IPC :0.83523: L2-Pf-HR :0.79760: L2-HR :0.78774: (Sim:0h24m56s) 
CPU  0 inst:  322000002 cyc:  386420571 now IPC :0.28496: AVG IPC :0.83022: L2-Pf-HR :0.79768: L2-HR :0.78778: (Sim:0h25m4s) 
CPU  0 inst:  323000002 cyc:  389929991 now IPC :0.28495: AVG IPC :0.82530: L2-Pf-HR :0.79775: L2-HR :0.78781: (Sim:0h25m10s) 
CPU  0 inst:  324000000 cyc:  393439141 now IPC :0.28497: AVG IPC :0.82047: L2-Pf-HR :0.79783: L2-HR :0.78784: (Sim:0h25m16s) 
CPU  0 inst:  325000000 cyc:  396948302 now IPC :0.28497: AVG IPC :0.81572: L2-Pf-HR :0.79790: L2-HR :0.78788: (Sim:0h25m22s) 
CPU  0 inst:  326000001 cyc:  400456799 now IPC :0.28502: AVG IPC :0.81106: L2-Pf-HR :0.79797: L2-HR :0.78791: (Sim:0h25m28s) 
CPU  0 inst:  327000001 cyc:  402463357 now IPC :0.49837: AVG IPC :0.80950: L2-Pf-HR :0.79766: L2-HR :0.78759: (Sim:0h25m33s) 
CPU  0 inst:  328000000 cyc:  403004272 now IPC :1.84872: AVG IPC :0.81090: L2-Pf-HR :0.79766: L2-HR :0.78760: (Sim:0h25m36s) 
CPU  0 inst:  329000003 cyc:  403652000 now IPC :1.54386: AVG IPC :0.81208: L2-Pf-HR :0.79763: L2-HR :0.78760: (Sim:0h25m39s) 
CPU  0 inst:  330000002 cyc:  404238752 now IPC :1.70430: AVG IPC :0.81337: L2-Pf-HR :0.79767: L2-HR :0.78766: (Sim:0h25m42s) 
CPU  0 inst:  331000001 cyc:  404752847 now IPC :1.94516: AVG IPC :0.81481: L2-Pf-HR :0.79759: L2-HR :0.78760: (Sim:0h25m45s) 
CPU  0 inst:  332000000 cyc:  405303150 now IPC :1.81718: AVG IPC :0.81618: L2-Pf-HR :0.79745: L2-HR :0.78750: (Sim:0h25m48s) 
CPU  0 inst:  333000003 cyc:  405866294 now IPC :1.77575: AVG IPC :0.81751: L2-Pf-HR :0.79755: L2-HR :0.78761: (Sim:0h25m51s) 
CPU  0 inst:  334000001 cyc:  406384811 now IPC :1.92857: AVG IPC :0.81893: L2-Pf-HR :0.79747: L2-HR :0.78752: (Sim:0h25m53s) 
CPU  0 inst:  335000001 cyc:  407132962 now IPC :1.33663: AVG IPC :0.81989: L2-Pf-HR :0.79737: L2-HR :0.78747: (Sim:0h25m57s) 
CPU  0 inst:  336000000 cyc:  407673341 now IPC :1.85055: AVG IPC :0.82126: L2-Pf-HR :0.79737: L2-HR :0.78747: (Sim:0h26m0s) 
CPU  0 inst:  337000001 cyc:  408213554 now IPC :1.85112: AVG IPC :0.82262: L2-Pf-HR :0.79734: L2-HR :0.78745: (Sim:0h26m3s) 
CPU  0 inst:  338000003 cyc:  408876330 now IPC :1.50881: AVG IPC :0.82374: L2-Pf-HR :0.79740: L2-HR :0.78755: (Sim:0h26m8s) 
CPU  0 inst:  339000000 cyc:  409394171 now IPC :1.93109: AVG IPC :0.82514: L2-Pf-HR :0.79734: L2-HR :0.78751: (Sim:0h26m12s) 
CPU  0 inst:  340000000 cyc:  409907340 now IPC :1.94868: AVG IPC :0.82655: L2-Pf-HR :0.79730: L2-HR :0.78748: (Sim:0h26m17s) 
CPU  0 inst:  341000000 cyc:  410462532 now IPC :1.80118: AVG IPC :0.82787: L2-Pf-HR :0.79749: L2-HR :0.78769: (Sim:0h26m21s) 
CPU  0 inst:  342000001 cyc:  411035941 now IPC :1.74396: AVG IPC :0.82916: L2-Pf-HR :0.79726: L2-HR :0.78747: (Sim:0h26m24s) 
CPU  0 inst:  343000002 cyc:  411577146 now IPC :1.84773: AVG IPC :0.83050: L2-Pf-HR :0.79724: L2-HR :0.78746: (Sim:0h26m27s) 
CPU  0 inst:  344000000 cyc:  412318969 now IPC :1.34803: AVG IPC :0.83143: L2-Pf-HR :0.79711: L2-HR :0.78737: (Sim:0h26m31s) 
CPU  0 inst:  345000003 cyc:  412842062 now IPC :1.91171: AVG IPC :0.83280: L2-Pf-HR :0.79707: L2-HR :0.78733: (Sim:0h26m35s) 
CPU  0 inst:  346000000 cyc:  413458037 now IPC :1.62344: AVG IPC :0.83398: L2-Pf-HR :0.79708: L2-HR :0.78736: (Sim:0h26m40s) 
CPU  0 inst:  347000000 cyc:  414053775 now IPC :1.67859: AVG IPC :0.83520: L2-Pf-HR :0.79707: L2-HR :0.78738: (Sim:0h26m44s) 
CPU  0 inst:  348000000 cyc:  414569684 now IPC :1.93833: AVG IPC :0.83658: L2-Pf-HR :0.79702: L2-HR :0.78736: (Sim:0h26m49s) 
CPU  0 inst:  349000003 cyc:  415130455 now IPC :1.78326: AVG IPC :0.83786: L2-Pf-HR :0.79694: L2-HR :0.78730: (Sim:0h26m53s) 
CPU  0 inst:  350000000 cyc:  415696844 now IPC :1.76557: AVG IPC :0.83913: L2-Pf-HR :0.79700: L2-HR :0.78738: (Sim:0h26m58s) 
CPU  0 inst:  351000001 cyc:  416222703 now IPC :1.90165: AVG IPC :0.84047: L2-Pf-HR :0.79692: L2-HR :0.78727: (Sim:0h27m2s) 
CPU  0 inst:  352000000 cyc:  416973871 now IPC :1.33126: AVG IPC :0.84136: L2-Pf-HR :0.79683: L2-HR :0.78723: (Sim:0h27m6s) 
CPU  0 inst:  353000000 cyc:  417512702 now IPC :1.85587: AVG IPC :0.84267: L2-Pf-HR :0.79677: L2-HR :0.78718: (Sim:0h27m9s) 
CPU  0 inst:  354000003 cyc:  418060169 now IPC :1.82660: AVG IPC :0.84396: L2-Pf-HR :0.79669: L2-HR :0.78711: (Sim:0h27m12s) 
CPU  0 inst:  355000002 cyc:  418715280 now IPC :1.52646: AVG IPC :0.84503: L2-Pf-HR :0.79677: L2-HR :0.78722: (Sim:0h27m15s) 
CPU  0 inst:  356000000 cyc:  419236223 now IPC :1.91959: AVG IPC :0.84637: L2-Pf-HR :0.79671: L2-HR :0.78718: (Sim:0h27m17s) 
CPU  0 inst:  357000002 cyc:  419753224 now IPC :1.93424: AVG IPC :0.84771: L2-Pf-HR :0.79665: L2-HR :0.78714: (Sim:0h27m20s) 
CPU  0 inst:  358000003 cyc:  420320392 now IPC :1.76315: AVG IPC :0.84895: L2-Pf-HR :0.79683: L2-HR :0.78734: (Sim:0h27m23s) 
CPU  0 inst:  359000000 cyc:  420875295 now IPC :1.80211: AVG IPC :0.85021: L2-Pf-HR :0.79663: L2-HR :0.78714: (Sim:0h27m26s) 
CPU  0 inst:  360000000 cyc:  421416467 now IPC :1.84784: AVG IPC :0.85150: L2-Pf-HR :0.79665: L2-HR :0.78718: (Sim:0h27m29s) 
CPU  0 inst:  361000003 cyc:  422171751 now IPC :1.32401: AVG IPC :0.85234: L2-Pf-HR :0.79650: L2-HR :0.78706: (Sim:0h27m32s) 
CPU  0 inst:  362000002 cyc:  422697762 now IPC :1.90110: AVG IPC :0.85365: L2-Pf-HR :0.79648: L2-HR :0.78704: (Sim:0h27m35s) 
CPU  0 inst:  363000001 cyc:  423311011 now IPC :1.63066: AVG IPC :0.85478: L2-Pf-HR :0.79654: L2-HR :0.78711: (Sim:0h27m38s) 
CPU  0 inst:  364000000 cyc:  423903121 now IPC :1.68887: AVG IPC :0.85595: L2-Pf-HR :0.79649: L2-HR :0.78710: (Sim:0h27m41s) 
CPU  0 inst:  365000000 cyc:  424418489 now IPC :1.94036: AVG IPC :0.85727: L2-Pf-HR :0.79642: L2-HR :0.78705: (Sim:0h27m44s) 
CPU  0 inst:  366000001 cyc:  424978833 now IPC :1.78462: AVG IPC :0.85849: L2-Pf-HR :0.79636: L2-HR :0.78700: (Sim:0h27m47s) 
CPU  0 inst:  367000001 cyc:  425547472 now IPC :1.75858: AVG IPC :0.85970: L2-Pf-HR :0.79638: L2-HR :0.78705: (Sim:0h27m50s) 
CPU  0 inst:  368000000 cyc:  426081838 now IPC :1.87137: AVG IPC :0.86097: L2-Pf-HR :0.79629: L2-HR :0.78694: (Sim:0h27m53s) 
CPU  0 inst:  369000000 cyc:  426831106 now IPC :1.33464: AVG IPC :0.86180: L2-Pf-HR :0.79627: L2-HR :0.78696: (Sim:0h27m56s) 
CPU  0 inst:  370000003 cyc:  427365088 now IPC :1.87273: AVG IPC :0.86307: L2-Pf-HR :0.79626: L2-HR :0.78695: (Sim:0h27m59s) 
CPU  0 inst:  371000002 cyc:  427976488 now IPC :1.63559: AVG IPC :0.86418: L2-Pf-HR :0.79614: L2-HR :0.78685: (Sim:0h28m2s) 
CPU  0 inst:  372000000 cyc:  428573762 now IPC :1.67427: AVG IPC :0.86531: L2-Pf-HR :0.79631: L2-HR :0.78703: (Sim:0h28m5s) 
CPU  0 inst:  373000002 cyc:  429096759 now IPC :1.91206: AVG IPC :0.86659: L2-Pf-HR :0.79628: L2-HR :0.78702: (Sim:0h28m8s) 
CPU  0 inst:  374000000 cyc:  429622627 now IPC :1.90161: AVG IPC :0.86786: L2-Pf-HR :0.79624: L2-HR :0.78698: (Sim:0h28m11s) 
CPU  0 inst:  375000002 cyc:  430217700 now IPC :1.68047: AVG IPC :0.86898: L2-Pf-HR :0.79632: L2-HR :0.78710: (Sim:0h28m14s) 
CPU  0 inst:  376000000 cyc:  430742089 now IPC :1.90698: AVG IPC :0.87025: L2-Pf-HR :0.79629: L2-HR :0.78705: (Sim:0h28m17s) 
CPU  0 inst:  377000001 cyc:  431284078 now IPC :1.84506: AVG IPC :0.87148: L2-Pf-HR :0.79641: L2-HR :0.78717: (Sim:0h28m20s) 
CPU  0 inst:  378000001 cyc:  432039346 now IPC :1.32403: AVG IPC :0.87227: L2-Pf-HR :0.79621: L2-HR :0.78700: (Sim:0h28m23s) 
CPU  0 inst:  379000001 cyc:  432562788 now IPC :1.91043: AVG IPC :0.87353: L2-Pf-HR :0.79619: L2-HR :0.78699: (Sim:0h28m26s) 
CPU  0 inst:  380000000 cyc:  433174889 now IPC :1.63372: AVG IPC :0.87461: L2-Pf-HR :0.79628: L2-HR :0.78710: (Sim:0h28m30s) 
CPU  0 inst:  381000001 cyc:  433769854 now IPC :1.68077: AVG IPC :0.87571: L2-Pf-HR :0.79621: L2-HR :0.78706: (Sim:0h28m34s) 
CPU  0 inst:  382000000 cyc:  434289024 now IPC :1.92615: AVG IPC :0.87697: L2-Pf-HR :0.79615: L2-HR :0.78700: (Sim:0h28m39s) 
CPU  0 inst:  383000000 cyc:  434845874 now IPC :1.79582: AVG IPC :0.87815: L2-Pf-HR :0.79613: L2-HR :0.78701: (Sim:0h28m42s) 
CPU  0 inst:  384000000 cyc:  435416639 now IPC :1.75203: AVG IPC :0.87930: L2-Pf-HR :0.79611: L2-HR :0.78699: (Sim:0h28m45s) 
CPU  0 inst:  385000003 cyc:  435963205 now IPC :1.82961: AVG IPC :0.88049: L2-Pf-HR :0.79594: L2-HR :0.78683: (Sim:0h28m50s) 
CPU  0 inst:  386000000 cyc:  436706265 now IPC :1.34578: AVG IPC :0.88129: L2-Pf-HR :0.79597: L2-HR :0.78689: (Sim:0h28m55s) 
CPU  0 inst:  387000001 cyc:  437236411 now IPC :1.88627: AVG IPC :0.88251: L2-Pf-HR :0.79594: L2-HR :0.78686: (Sim:0h28m59s) 
CPU  0 inst:  388000000 cyc:  437858755 now IPC :1.60683: AVG IPC :0.88354: L2-Pf-HR :0.79583: L2-HR :0.78677: (Sim:0h29m4s) 
CPU  0 inst:  389000003 cyc:  438444304 now IPC :1.70780: AVG IPC :0.88464: L2-Pf-HR :0.79596: L2-HR :0.78692: (Sim:0h29m8s) 
CPU  0 inst:  390000001 cyc:  438968156 now IPC :1.90893: AVG IPC :0.88587: L2-Pf-HR :0.79591: L2-HR :0.78689: (Sim:0h29m13s) 
CPU  0 inst:  391000002 cyc:  439503181 now IPC :1.86907: AVG IPC :0.88707: L2-Pf-HR :0.79583: L2-HR :0.78681: (Sim:0h29m17s) 
CPU  0 inst:  392000000 cyc:  440093774 now IPC :1.69321: AVG IPC :0.88815: L2-Pf-HR :0.79591: L2-HR :0.78692: (Sim:0h29m22s) 
CPU  0 inst:  393000002 cyc:  440616712 now IPC :1.91228: AVG IPC :0.88937: L2-Pf-HR :0.79585: L2-HR :0.78685: (Sim:0h29m26s) 
CPU  0 inst:  394000000 cyc:  441219600 now IPC :1.65868: AVG IPC :0.89042: L2-Pf-HR :0.79595: L2-HR :0.78697: (Sim:0h29m31s) 
CPU  0 inst:  395000003 cyc:  441916469 now IPC :1.43499: AVG IPC :0.89129: L2-Pf-HR :0.79579: L2-HR :0.78682: (Sim:0h29m36s) 
CPU  0 inst:  396000000 cyc:  442440466 now IPC :1.90840: AVG IPC :0.89249: L2-Pf-HR :0.79577: L2-HR :0.78681: (Sim:0h29m40s) 
CPU  0 inst:  397000002 cyc:  443049910 now IPC :1.64084: AVG IPC :0.89352: L2-Pf-HR :0.79590: L2-HR :0.78695: (Sim:0h29m45s) 
CPU  0 inst:  398000003 cyc:  443646356 now IPC :1.67660: AVG IPC :0.89458: L2-Pf-HR :0.79583: L2-HR :0.78691: (Sim:0h29m49s) 
CPU  0 inst:  399000002 cyc:  444164399 now IPC :1.93034: AVG IPC :0.89579: L2-Pf-HR :0.79582: L2-HR :0.78689: (Sim:0h29m53s) 
CPU  0 inst:  400000000 cyc:  444720982 now IPC :1.79667: AVG IPC :0.89692: L2-Pf-HR :0.79588: L2-HR :0.78697: (Sim:0h29m56s) 
CPU  0 inst:  401000003 cyc:  445287958 now IPC :1.76375: AVG IPC :0.89803: L2-Pf-HR :0.79586: L2-HR :0.78696: (Sim:0h29m59s) 
CPU  0 inst:  402000003 cyc:  445834251 now IPC :1.83052: AVG IPC :0.89917: L2-Pf-HR :0.79577: L2-HR :0.78687: (Sim:0h30m2s) 
CPU  0 inst:  403000002 cyc:  446584126 now IPC :1.33355: AVG IPC :0.89990: L2-Pf-HR :0.79581: L2-HR :0.78692: (Sim:0h30m5s) 
CPU  0 inst:  404000000 cyc:  447105688 now IPC :1.91731: AVG IPC :0.90109: L2-Pf-HR :0.79579: L2-HR :0.78692: (Sim:0h30m8s) 
CPU  0 inst:  405000000 cyc:  447727577 now IPC :1.60800: AVG IPC :0.90208: L2-Pf-HR :0.79570: L2-HR :0.78684: (Sim:0h30m11s) 
CPU  0 inst:  406000002 cyc:  448313692 now IPC :1.70615: AVG IPC :0.90313: L2-Pf-HR :0.79581: L2-HR :0.78697: (Sim:0h30m14s) 
CPU  0 inst:  407000002 cyc:  448833814 now IPC :1.92263: AVG IPC :0.90431: L2-Pf-HR :0.79578: L2-HR :0.78695: (Sim:0h30m17s) 
CPU  0 inst:  408000000 cyc:  449392670 now IPC :1.78937: AVG IPC :0.90542: L2-Pf-HR :0.79564: L2-HR :0.78683: (Sim:0h30m20s) 
CPU  0 inst:  409000002 cyc:  449960446 now IPC :1.76126: AVG IPC :0.90650: L2-Pf-HR :0.79577: L2-HR :0.78697: (Sim:0h30m24s) 
CPU  0 inst:  410000002 cyc:  450486087 now IPC :1.90244: AVG IPC :0.90766: L2-Pf-HR :0.79570: L2-HR :0.78689: (Sim:0h30m26s) 
CPU  0 inst:  411000000 cyc:  451198062 now IPC :1.40454: AVG IPC :0.90845: L2-Pf-HR :0.79564: L2-HR :0.78687: (Sim:0h30m30s) 
CPU  0 inst:  412000000 cyc:  451788943 now IPC :1.69239: AVG IPC :0.90948: L2-Pf-HR :0.79559: L2-HR :0.78682: (Sim:0h30m33s) 
CPU  0 inst:  413000003 cyc:  452314428 now IPC :1.90301: AVG IPC :0.91063: L2-Pf-HR :0.79557: L2-HR :0.78681: (Sim:0h30m36s) 
CPU  0 inst:  414000000 cyc:  452930112 now IPC :1.62420: AVG IPC :0.91161: L2-Pf-HR :0.79573: L2-HR :0.78698: (Sim:0h30m39s) 
CPU  0 inst:  415000000 cyc:  453527402 now IPC :1.67423: AVG IPC :0.91261: L2-Pf-HR :0.79559: L2-HR :0.78686: (Sim:0h30m42s) 
CPU  0 inst:  416000000 cyc:  454039735 now IPC :1.95186: AVG IPC :0.91379: L2-Pf-HR :0.79556: L2-HR :0.78684: (Sim:0h30m45s) 
CPU  0 inst:  417000002 cyc:  454597817 now IPC :1.79185: AVG IPC :0.91487: L2-Pf-HR :0.79564: L2-HR :0.78694: (Sim:0h30m49s) 
CPU  0 inst:  418000002 cyc:  455174086 now IPC :1.73530: AVG IPC :0.91591: L2-Pf-HR :0.79556: L2-HR :0.78687: (Sim:0h30m53s) 
CPU  0 inst:  419000000 cyc:  455719103 now IPC :1.83480: AVG IPC :0.91701: L2-Pf-HR :0.79546: L2-HR :0.78676: (Sim:0h30m58s) 
CPU  0 inst:  420000000 cyc:  456451043 now IPC :1.36623: AVG IPC :0.91773: L2-Pf-HR :0.79544: L2-HR :0.78677: (Sim:0h31m2s) 
CPU  0 inst:  421000001 cyc:  456973355 now IPC :1.91457: AVG IPC :0.91887: L2-Pf-HR :0.79543: L2-HR :0.78677: (Sim:0h31m5s) 
CPU  0 inst:  422000002 cyc:  457591622 now IPC :1.61743: AVG IPC :0.91982: L2-Pf-HR :0.79538: L2-HR :0.78674: (Sim:0h31m8s) 
CPU  0 inst:  423000001 cyc:  458177197 now IPC :1.70772: AVG IPC :0.92083: L2-Pf-HR :0.79546: L2-HR :0.78684: (Sim:0h31m11s) 
CPU  0 inst:  424000000 cyc:  458704316 now IPC :1.89710: AVG IPC :0.92195: L2-Pf-HR :0.79543: L2-HR :0.78680: (Sim:0h31m14s) 
CPU  0 inst:  425000002 cyc:  459267672 now IPC :1.77508: AVG IPC :0.92300: L2-Pf-HR :0.79530: L2-HR :0.78670: (Sim:0h31m17s) 
CPU  0 inst:  426000001 cyc:  459834244 now IPC :1.76500: AVG IPC :0.92404: L2-Pf-HR :0.79543: L2-HR :0.78685: (Sim:0h31m21s) 
CPU  0 inst:  427000001 cyc:  460356513 now IPC :1.91472: AVG IPC :0.92517: L2-Pf-HR :0.79536: L2-HR :0.78676: (Sim:0h31m24s) 
CPU  0 inst:  428000000 cyc:  461104689 now IPC :1.33658: AVG IPC :0.92584: L2-Pf-HR :0.79529: L2-HR :0.78672: (Sim:0h31m27s) 
CPU  0 inst:  429000003 cyc:  461655553 now IPC :1.81534: AVG IPC :0.92690: L2-Pf-HR :0.79528: L2-HR :0.78672: (Sim:0h31m30s) 
CPU  0 inst:  430000002 cyc:  462184883 now IPC :1.88918: AVG IPC :0.92800: L2-Pf-HR :0.79527: L2-HR :0.78670: (Sim:0h31m34s) 
CPU  0 inst:  431000003 cyc:  462800786 now IPC :1.62363: AVG IPC :0.92893: L2-Pf-HR :0.79545: L2-HR :0.78690: (Sim:0h31m37s) 
CPU  0 inst:  432000000 cyc:  463386158 now IPC :1.70831: AVG IPC :0.92992: L2-Pf-HR :0.79528: L2-HR :0.78675: (Sim:0h31m40s) 
CPU  0 inst:  433000003 cyc:  463899566 now IPC :1.94777: AVG IPC :0.93105: L2-Pf-HR :0.79524: L2-HR :0.78673: (Sim:0h31m43s) 
CPU  0 inst:  434000000 cyc:  464455047 now IPC :1.80024: AVG IPC :0.93209: L2-Pf-HR :0.79535: L2-HR :0.78685: (Sim:0h31m46s) 
CPU  0 inst:  435000002 cyc:  465031158 now IPC :1.73578: AVG IPC :0.93309: L2-Pf-HR :0.79524: L2-HR :0.78675: (Sim:0h31m49s) 
CPU  0 inst:  436000000 cyc:  465576685 now IPC :1.83309: AVG IPC :0.93414: L2-Pf-HR :0.79520: L2-HR :0.78670: (Sim:0h31m52s) 
CPU  0 inst:  437000001 cyc:  466319017 now IPC :1.34711: AVG IPC :0.93480: L2-Pf-HR :0.79517: L2-HR :0.78670: (Sim:0h31m55s) 
CPU  0 inst:  438000000 cyc:  466842071 now IPC :1.91185: AVG IPC :0.93590: L2-Pf-HR :0.79515: L2-HR :0.78668: (Sim:0h31m58s) 
CPU  0 inst:  439000000 cyc:  467463565 now IPC :1.60903: AVG IPC :0.93680: L2-Pf-HR :0.79513: L2-HR :0.78668: (Sim:0h32m1s) 
CPU  0 inst:  440000000 cyc:  468055749 now IPC :1.68866: AVG IPC :0.93775: L2-Pf-HR :0.79521: L2-HR :0.78676: (Sim:0h32m5s) 
CPU  0 inst:  441000003 cyc:  468571744 now IPC :1.93801: AVG IPC :0.93885: L2-Pf-HR :0.79525: L2-HR :0.78681: (Sim:0h32m7s) 
CPU  0 inst:  442000000 cyc:  469134080 now IPC :1.77829: AVG IPC :0.93986: L2-Pf-HR :0.79519: L2-HR :0.78677: (Sim:0h32m11s) 
CPU  0 inst:  443000003 cyc:  469699072 now IPC :1.76994: AVG IPC :0.94086: L2-Pf-HR :0.79536: L2-HR :0.78694: (Sim:0h32m14s) 
CPU  0 inst:  444000000 cyc:  470218271 now IPC :1.92604: AVG IPC :0.94195: L2-Pf-HR :0.79540: L2-HR :0.78696: (Sim:0h32m17s) 
CPU  0 inst:  445000003 cyc:  470967171 now IPC :1.33530: AVG IPC :0.94258: L2-Pf-HR :0.79538: L2-HR :0.78697: (Sim:0h32m20s) 
CPU  0 inst:  446000002 cyc:  471513306 now IPC :1.83105: AVG IPC :0.94361: L2-Pf-HR :0.79537: L2-HR :0.78696: (Sim:0h32m23s) 
CPU  0 inst:  447000003 cyc:  472050827 now IPC :1.86039: AVG IPC :0.94466: L2-Pf-HR :0.79534: L2-HR :0.78693: (Sim:0h32m27s) 
CPU  0 inst:  448000000 cyc:  472685707 now IPC :1.57510: AVG IPC :0.94551: L2-Pf-HR :0.79544: L2-HR :0.78706: (Sim:0h32m33s) 
CPU  0 inst:  449000000 cyc:  473250178 now IPC :1.77157: AVG IPC :0.94649: L2-Pf-HR :0.79542: L2-HR :0.78703: (Sim:0h32m38s) 
CPU  0 inst:  450000001 cyc:  473764209 now IPC :1.94541: AVG IPC :0.94758: L2-Pf-HR :0.79542: L2-HR :0.78704: (Sim:0h32m42s) 
CPU  0 inst:  451000002 cyc:  474317140 now IPC :1.80855: AVG IPC :0.94858: L2-Pf-HR :0.79559: L2-HR :0.78721: (Sim:0h32m45s) 
CPU  0 inst:  452000000 cyc:  474901601 now IPC :1.71097: AVG IPC :0.94952: L2-Pf-HR :0.79548: L2-HR :0.78711: (Sim:0h32m49s) 
CPU  0 inst:  453000000 cyc:  475443096 now IPC :1.84674: AVG IPC :0.95055: L2-Pf-HR :0.79550: L2-HR :0.78713: (Sim:0h32m53s) 
CPU  0 inst:  454000001 cyc:  476200628 now IPC :1.32008: AVG IPC :0.95114: L2-Pf-HR :0.79544: L2-HR :0.78709: (Sim:0h32m58s) 
CPU  0 inst:  455000001 cyc:  476723162 now IPC :1.91375: AVG IPC :0.95219: L2-Pf-HR :0.79543: L2-HR :0.78707: (Sim:0h33m3s) 
CPU  0 inst:  456000000 cyc:  477337401 now IPC :1.62803: AVG IPC :0.95307: L2-Pf-HR :0.79545: L2-HR :0.78710: (Sim:0h33m7s) 
CPU  0 inst:  457000002 cyc:  477928073 now IPC :1.69299: AVG IPC :0.95398: L2-Pf-HR :0.79545: L2-HR :0.78712: (Sim:0h33m12s) 
CPU  0 inst:  458000002 cyc:  478447364 now IPC :1.92570: AVG IPC :0.95504: L2-Pf-HR :0.79541: L2-HR :0.78710: (Sim:0h33m16s) 
CPU  0 inst:  459000001 cyc:  479011439 now IPC :1.77281: AVG IPC :0.95600: L2-Pf-HR :0.79533: L2-HR :0.78703: (Sim:0h33m21s) 
CPU  0 inst:  460000000 cyc:  479575993 now IPC :1.77131: AVG IPC :0.95697: L2-Pf-HR :0.79541: L2-HR :0.78712: (Sim:0h33m25s) 
CPU  0 inst:  461000001 cyc:  480097050 now IPC :1.91918: AVG IPC :0.95801: L2-Pf-HR :0.79535: L2-HR :0.78705: (Sim:0h33m29s) 
CPU  0 inst:  462000002 cyc:  480849957 now IPC :1.32819: AVG IPC :0.95859: L2-Pf-HR :0.79533: L2-HR :0.78705: (Sim:0h33m34s) 
CPU  0 inst:  463000000 cyc:  481388315 now IPC :1.85750: AVG IPC :0.95960: L2-Pf-HR :0.79531: L2-HR :0.78704: (Sim:0h33m39s) 
CPU  0 inst:  464000000 cyc:  481934412 now IPC :1.83118: AVG IPC :0.96059: L2-Pf-HR :0.79527: L2-HR :0.78700: (Sim:0h33m43s) 
CPU  0 inst:  465000002 cyc:  482600572 now IPC :1.50114: AVG IPC :0.96134: L2-Pf-HR :0.79533: L2-HR :0.78709: (Sim:0h33m48s) 
CPU  0 inst:  466000001 cyc:  483125389 now IPC :1.90542: AVG IPC :0.96237: L2-Pf-HR :0.79535: L2-HR :0.78710: (Sim:0h33m52s) 
CPU  0 inst:  467000001 cyc:  483639844 now IPC :1.94380: AVG IPC :0.96341: L2-Pf-HR :0.79535: L2-HR :0.78712: (Sim:0h33m57s) 
CPU  0 inst:  468000000 cyc:  484195734 now IPC :1.79892: AVG IPC :0.96437: L2-Pf-HR :0.79557: L2-HR :0.78733: (Sim:0h34m1s) 
CPU  0 inst:  469000002 cyc:  484766148 now IPC :1.75312: AVG IPC :0.96530: L2-Pf-HR :0.79542: L2-HR :0.78719: (Sim:0h34m6s) 
CPU  0 inst:  470000002 cyc:  485306993 now IPC :1.84896: AVG IPC :0.96629: L2-Pf-HR :0.79547: L2-HR :0.78724: (Sim:0h34m10s) 
CPU  0 inst:  471000002 cyc:  486055386 now IPC :1.33620: AVG IPC :0.96686: L2-Pf-HR :0.79538: L2-HR :0.78717: (Sim:0h34m15s) 
CPU  0 inst:  472000000 cyc:  486582020 now IPC :1.89885: AVG IPC :0.96787: L2-Pf-HR :0.79536: L2-HR :0.78714: (Sim:0h34m19s) 
CPU  0 inst:  473000000 cyc:  487196859 now IPC :1.62644: AVG IPC :0.96870: L2-Pf-HR :0.79540: L2-HR :0.78720: (Sim:0h34m24s) 
CPU  0 inst:  474000003 cyc:  487792949 now IPC :1.67760: AVG IPC :0.96957: L2-Pf-HR :0.79541: L2-HR :0.78722: (Sim:0h34m29s) 
CPU  0 inst:  475000003 cyc:  488309694 now IPC :1.93519: AVG IPC :0.97060: L2-Pf-HR :0.79542: L2-HR :0.78724: (Sim:0h34m33s) 
CPU  0 inst:  476000000 cyc:  488872635 now IPC :1.77638: AVG IPC :0.97153: L2-Pf-HR :0.79540: L2-HR :0.78723: (Sim:0h34m37s) 
CPU  0 inst:  477000001 cyc:  489441834 now IPC :1.75686: AVG IPC :0.97244: L2-Pf-HR :0.79548: L2-HR :0.78732: (Sim:0h34m42s) 
CPU  0 inst:  478000002 cyc:  489971798 now IPC :1.88692: AVG IPC :0.97343: L2-Pf-HR :0.79547: L2-HR :0.78729: (Sim:0h34m46s) 
CPU  0 inst:  479000003 cyc:  490717055 now IPC :1.34182: AVG IPC :0.97399: L2-Pf-HR :0.79545: L2-HR :0.78729: (Sim:0h34m51s) 
CPU  0 inst:  480000000 cyc:  491256409 now IPC :1.85406: AVG IPC :0.97496: L2-Pf-HR :0.79544: L2-HR :0.78728: (Sim:0h34m56s) 
CPU  0 inst:  481000002 cyc:  491834525 now IPC :1.72976: AVG IPC :0.97585: L2-Pf-HR :0.79537: L2-HR :0.78722: (Sim:0h35m0s) 
CPU  0 inst:  482000002 cyc:  492468503 now IPC :1.57734: AVG IPC :0.97663: L2-Pf-HR :0.79547: L2-HR :0.78734: (Sim:0h35m5s) 
CPU  0 inst:  483000001 cyc:  492991469 now IPC :1.91217: AVG IPC :0.97762: L2-Pf-HR :0.79542: L2-HR :0.78731: (Sim:0h35m9s) 
CPU  0 inst:  484000000 cyc:  493513521 now IPC :1.91552: AVG IPC :0.97861: L2-Pf-HR :0.79537: L2-HR :0.78726: (Sim:0h35m14s) 
CPU  0 inst:  485000000 cyc:  494097340 now IPC :1.71286: AVG IPC :0.97948: L2-Pf-HR :0.79549: L2-HR :0.78740: (Sim:0h35m18s) 
CPU  0 inst:  486000002 cyc:  494642900 now IPC :1.83298: AVG IPC :0.98043: L2-Pf-HR :0.79541: L2-HR :0.78731: (Sim:0h35m23s) 
CPU  0 inst:  487000001 cyc:  495185965 now IPC :1.84140: AVG IPC :0.98137: L2-Pf-HR :0.79547: L2-HR :0.78737: (Sim:0h35m27s) 
CPU  0 inst:  488000000 cyc:  495944572 now IPC :1.31820: AVG IPC :0.98189: L2-Pf-HR :0.79536: L2-HR :0.78728: (Sim:0h35m32s) 
CPU  0 inst:  489000002 cyc:  496477609 now IPC :1.87605: AVG IPC :0.98285: L2-Pf-HR :0.79534: L2-HR :0.78726: (Sim:0h35m36s) 
CPU  0 inst:  490000001 cyc:  497092441 now IPC :1.62646: AVG IPC :0.98365: L2-Pf-HR :0.79540: L2-HR :0.78733: (Sim:0h35m41s) 
CPU  0 inst:  491000000 cyc:  497690931 now IPC :1.67087: AVG IPC :0.98448: L2-Pf-HR :0.79538: L2-HR :0.78733: (Sim:0h35m45s) 
CPU  0 inst:  492000000 cyc:  498209562 now IPC :1.92815: AVG IPC :0.98546: L2-Pf-HR :0.79537: L2-HR :0.78732: (Sim:0h35m50s) 
CPU  0 inst:  493000002 cyc:  498768091 now IPC :1.79042: AVG IPC :0.98636: L2-Pf-HR :0.79540: L2-HR :0.78736: (Sim:0h35m54s) 
CPU  0 inst:  494000001 cyc:  499338241 now IPC :1.75392: AVG IPC :0.98724: L2-Pf-HR :0.79545: L2-HR :0.78742: (Sim:0h35m59s) 
CPU  0 inst:  495000000 cyc:  499877508 now IPC :1.85437: AVG IPC :0.98818: L2-Pf-HR :0.79541: L2-HR :0.78737: (Sim:0h36m3s) 
CPU  0 inst:  496000000 cyc:  500632802 now IPC :1.32399: AVG IPC :0.98869: L2-Pf-HR :0.79540: L2-HR :0.78738: (Sim:0h36m8s) 
CPU  0 inst:  497000000 cyc:  501163696 now IPC :1.88362: AVG IPC :0.98964: L2-Pf-HR :0.79537: L2-HR :0.78735: (Sim:0h36m13s) 
CPU  0 inst:  498000000 cyc:  501780506 now IPC :1.62124: AVG IPC :0.99041: L2-Pf-HR :0.79527: L2-HR :0.78726: (Sim:0h36m17s) 
CPU  0 inst:  499000000 cyc:  502373063 now IPC :1.68760: AVG IPC :0.99124: L2-Pf-HR :0.79539: L2-HR :0.78740: (Sim:0h36m22s) 
CPU  0 inst:  500000000 cyc:  502893298 now IPC :1.92221: AVG IPC :0.99220: L2-Pf-HR :0.79540: L2-HR :0.78741: (Sim:0h36m26s) 
CPU  0 inst:  501000001 cyc:  503424739 now IPC :1.88168: AVG IPC :0.99314: L2-Pf-HR :0.79538: L2-HR :0.78740: (Sim:0h36m31s) 
CPU  0 inst:  502000000 cyc:  504018621 now IPC :1.68383: AVG IPC :0.99396: L2-Pf-HR :0.79550: L2-HR :0.78752: (Sim:0h36m35s) 
CPU  0 inst:  503000003 cyc:  504543071 now IPC :1.90677: AVG IPC :0.99491: L2-Pf-HR :0.79549: L2-HR :0.78750: (Sim:0h36m40s) 
CPU  0 inst:  504000000 cyc:  505090956 now IPC :1.82520: AVG IPC :0.99581: L2-Pf-HR :0.79560: L2-HR :0.78762: (Sim:0h36m44s) 
CPU  0 inst:  505000003 cyc:  505840011 now IPC :1.33502: AVG IPC :0.99632: L2-Pf-HR :0.79542: L2-HR :0.78745: (Sim:0h36m49s) 
CPU  0 inst:  506000000 cyc:  506364866 now IPC :1.90528: AVG IPC :0.99726: L2-Pf-HR :0.79540: L2-HR :0.78744: (Sim:0h36m53s) 
CPU  0 inst:  507000001 cyc:  506978531 now IPC :1.62956: AVG IPC :0.99803: L2-Pf-HR :0.79548: L2-HR :0.78753: (Sim:0h36m58s) 
CPU  0 inst:  508000000 cyc:  507575148 now IPC :1.67612: AVG IPC :0.99883: L2-Pf-HR :0.79541: L2-HR :0.78748: (Sim:0h37m3s) 
CPU  0 inst:  509000002 cyc:  508092845 now IPC :1.93164: AVG IPC :0.99978: L2-Pf-HR :0.79536: L2-HR :0.78743: (Sim:0h37m7s) 
CPU  0 inst:  510000001 cyc:  508648037 now IPC :1.80118: AVG IPC :1.00065: L2-Pf-HR :0.79538: L2-HR :0.78747: (Sim:0h37m11s) 
CPU  0 inst:  511000000 cyc:  509217384 now IPC :1.75640: AVG IPC :1.00150: L2-Pf-HR :0.79537: L2-HR :0.78746: (Sim:0h37m16s) 
CPU  0 inst:  512000000 cyc:  509763935 now IPC :1.82966: AVG IPC :1.00239: L2-Pf-HR :0.79526: L2-HR :0.78735: (Sim:0h37m20s) 
CPU  0 inst:  513000002 cyc:  510505813 now IPC :1.34793: AVG IPC :1.00289: L2-Pf-HR :0.79529: L2-HR :0.78739: (Sim:0h37m25s) 
CPU  0 inst:  514000003 cyc:  511026927 now IPC :1.91897: AVG IPC :1.00383: L2-Pf-HR :0.79527: L2-HR :0.78738: (Sim:0h37m29s) 
CPU  0 inst:  515000002 cyc:  511648263 now IPC :1.60943: AVG IPC :1.00457: L2-Pf-HR :0.79518: L2-HR :0.78730: (Sim:0h37m33s) 
CPU  0 inst:  516000000 cyc:  512236574 now IPC :1.69978: AVG IPC :1.00537: L2-Pf-HR :0.79527: L2-HR :0.78741: (Sim:0h37m37s) 
CPU  0 inst:  517000002 cyc:  512761878 now IPC :1.90366: AVG IPC :1.00629: L2-Pf-HR :0.79526: L2-HR :0.78740: (Sim:0h37m40s) 
CPU  0 inst:  518000003 cyc:  513300018 now IPC :1.85825: AVG IPC :1.00718: L2-Pf-HR :0.79522: L2-HR :0.78737: (Sim:0h37m43s) 
CPU  0 inst:  519000002 cyc:  513883695 now IPC :1.71327: AVG IPC :1.00799: L2-Pf-HR :0.79534: L2-HR :0.78750: (Sim:0h37m47s) 
CPU  0 inst:  520000000 cyc:  514406804 now IPC :1.91164: AVG IPC :1.00891: L2-Pf-HR :0.79533: L2-HR :0.78747: (Sim:0h37m49s) 
CPU  0 inst:  521000001 cyc:  515053752 now IPC :1.54572: AVG IPC :1.00958: L2-Pf-HR :0.79537: L2-HR :0.78753: (Sim:0h37m53s) 
CPU  0 inst:  522000001 cyc:  515707566 now IPC :1.52949: AVG IPC :1.01024: L2-Pf-HR :0.79527: L2-HR :0.78743: (Sim:0h37m56s) 
CPU  0 inst:  523000000 cyc:  516235444 now IPC :1.89438: AVG IPC :1.01115: L2-Pf-HR :0.79524: L2-HR :0.78741: (Sim:0h37m59s) 
CPU  0 inst:  524000000 cyc:  516851041 now IPC :1.62444: AVG IPC :1.01188: L2-Pf-HR :0.79535: L2-HR :0.78753: (Sim:0h38m2s) 
CPU  0 inst:  525000001 cyc:  517441912 now IPC :1.69242: AVG IPC :1.01266: L2-Pf-HR :0.79527: L2-HR :0.78746: (Sim:0h38m5s) 
CPU  0 inst:  526000003 cyc:  517961630 now IPC :1.92412: AVG IPC :1.01358: L2-Pf-HR :0.79522: L2-HR :0.78742: (Sim:0h38m8s) 
CPU  0 inst:  527000003 cyc:  518518046 now IPC :1.79722: AVG IPC :1.01442: L2-Pf-HR :0.79528: L2-HR :0.78749: (Sim:0h38m11s) 
CPU  0 inst:  528000000 cyc:  519096112 now IPC :1.72990: AVG IPC :1.01522: L2-Pf-HR :0.79523: L2-HR :0.78745: (Sim:0h38m14s) 
CPU  0 inst:  529000000 cyc:  519641790 now IPC :1.83258: AVG IPC :1.01608: L2-Pf-HR :0.79514: L2-HR :0.78736: (Sim:0h38m18s) 
CPU  0 inst:  530000000 cyc:  520383663 now IPC :1.34794: AVG IPC :1.01655: L2-Pf-HR :0.79515: L2-HR :0.78738: (Sim:0h38m23s) 
CPU  0 inst:  531000001 cyc:  520903373 now IPC :1.92415: AVG IPC :1.01746: L2-Pf-HR :0.79514: L2-HR :0.78738: (Sim:0h38m27s) 
CPU  0 inst:  532000000 cyc:  521529052 now IPC :1.59826: AVG IPC :1.01816: L2-Pf-HR :0.79510: L2-HR :0.78735: (Sim:0h38m32s) 
CPU  0 inst:  533000000 cyc:  522116313 now IPC :1.70282: AVG IPC :1.01893: L2-Pf-HR :0.79519: L2-HR :0.78745: (Sim:0h38m37s) 
CPU  0 inst:  534000001 cyc:  522645007 now IPC :1.89146: AVG IPC :1.01981: L2-Pf-HR :0.79518: L2-HR :0.78744: (Sim:0h38m41s) 
CPU  0 inst:  535000002 cyc:  523206272 now IPC :1.78169: AVG IPC :1.02063: L2-Pf-HR :0.79511: L2-HR :0.78738: (Sim:0h38m45s) 
CPU  0 inst:  536000000 cyc:  523762387 now IPC :1.79819: AVG IPC :1.02146: L2-Pf-HR :0.79526: L2-HR :0.78754: (Sim:0h38m50s) 
CPU  0 inst:  537000003 cyc:  524286537 now IPC :1.90786: AVG IPC :1.02235: L2-Pf-HR :0.79526: L2-HR :0.78752: (Sim:0h38m54s) 
CPU  0 inst:  538000002 cyc:  525039289 now IPC :1.32846: AVG IPC :1.02279: L2-Pf-HR :0.79522: L2-HR :0.78750: (Sim:0h38m59s) 
CPU  0 inst:  539000003 cyc:  525590923 now IPC :1.81280: AVG IPC :1.02362: L2-Pf-HR :0.79521: L2-HR :0.78750: (Sim:0h39m4s) 
CPU  0 inst:  540000000 cyc:  526117127 now IPC :1.90040: AVG IPC :1.02449: L2-Pf-HR :0.79521: L2-HR :0.78750: (Sim:0h39m8s) 
CPU  0 inst:  541000001 cyc:  526726923 now IPC :1.63989: AVG IPC :1.02521: L2-Pf-HR :0.79535: L2-HR :0.78764: (Sim:0h39m13s) 
CPU  0 inst:  542000001 cyc:  527331132 now IPC :1.65506: AVG IPC :1.02593: L2-Pf-HR :0.79522: L2-HR :0.78753: (Sim:0h39m17s) 
CPU  0 inst:  543000000 cyc:  527845268 now IPC :1.94501: AVG IPC :1.02683: L2-Pf-HR :0.79522: L2-HR :0.78753: (Sim:0h39m21s) 
CPU  0 inst:  544000000 cyc:  528404996 now IPC :1.78658: AVG IPC :1.02763: L2-Pf-HR :0.79532: L2-HR :0.78764: (Sim:0h39m26s) 
CPU  0 inst:  545000002 cyc:  528980938 now IPC :1.73629: AVG IPC :1.02841: L2-Pf-HR :0.79528: L2-HR :0.78760: (Sim:0h39m30s) 
CPU  0 inst:  546000001 cyc:  529526699 now IPC :1.83230: AVG IPC :1.02924: L2-Pf-HR :0.79524: L2-HR :0.78756: (Sim:0h39m34s) 
CPU  0 inst:  547000003 cyc:  530282846 now IPC :1.32250: AVG IPC :1.02966: L2-Pf-HR :0.79524: L2-HR :0.78756: (Sim:0h39m37s) 
CPU  0 inst:  548000000 cyc:  530805355 now IPC :1.91384: AVG IPC :1.03053: L2-Pf-HR :0.79522: L2-HR :0.78755: (Sim:0h39m40s) 
CPU  0 inst:  549000000 cyc:  531426399 now IPC :1.61019: AVG IPC :1.03121: L2-Pf-HR :0.79517: L2-HR :0.78752: (Sim:0h39m43s) 
CPU  0 inst:  550000002 cyc:  532017489 now IPC :1.69179: AVG IPC :1.03194: L2-Pf-HR :0.79522: L2-HR :0.78758: (Sim:0h39m46s) 
CPU  0 inst:  551000000 cyc:  532540078 now IPC :1.91355: AVG IPC :1.03281: L2-Pf-HR :0.79521: L2-HR :0.78757: (Sim:0h39m49s) 
CPU  0 inst:  552000000 cyc:  533105140 now IPC :1.76972: AVG IPC :1.03359: L2-Pf-HR :0.79515: L2-HR :0.78752: (Sim:0h39m52s) 
CPU  0 inst:  553000000 cyc:  533667570 now IPC :1.77800: AVG IPC :1.03438: L2-Pf-HR :0.79529: L2-HR :0.78766: (Sim:0h39m55s) 
CPU  0 inst:  554000002 cyc:  534189909 now IPC :1.91447: AVG IPC :1.03524: L2-Pf-HR :0.79528: L2-HR :0.78764: (Sim:0h39m58s) 
CPU  0 inst:  555000002 cyc:  534938183 now IPC :1.33641: AVG IPC :1.03566: L2-Pf-HR :0.79525: L2-HR :0.78763: (Sim:0h40m2s) 
CPU  0 inst:  556000000 cyc:  535484415 now IPC :1.83072: AVG IPC :1.03647: L2-Pf-HR :0.79522: L2-HR :0.78760: (Sim:0h40m5s) 
CPU  0 inst:  557000000 cyc:  536020528 now IPC :1.86528: AVG IPC :1.03730: L2-Pf-HR :0.79519: L2-HR :0.78757: (Sim:0h40m8s) 
CPU  0 inst:  558000001 cyc:  536640686 now IPC :1.61249: AVG IPC :1.03797: L2-Pf-HR :0.79531: L2-HR :0.78770: (Sim:0h40m12s) 
CPU  0 inst:  559000002 cyc:  537223407 now IPC :1.71609: AVG IPC :1.03871: L2-Pf-HR :0.79523: L2-HR :0.78763: (Sim:0h40m16s) 
CPU  0 inst:  560000000 cyc:  537737712 now IPC :1.94437: AVG IPC :1.03958: L2-Pf-HR :0.79523: L2-HR :0.78763: (Sim:0h40m19s) 
CPU  0 inst:  561000002 cyc:  538292040 now IPC :1.80399: AVG IPC :1.04036: L2-Pf-HR :0.79536: L2-HR :0.78777: (Sim:0h40m22s) 
CPU  0 inst:  562000000 cyc:  538868897 now IPC :1.73353: AVG IPC :1.04111: L2-Pf-HR :0.79530: L2-HR :0.78771: (Sim:0h40m25s) 
CPU  0 inst:  563000001 cyc:  539413169 now IPC :1.83732: AVG IPC :1.04191: L2-Pf-HR :0.79530: L2-HR :0.78770: (Sim:0h40m28s) 
CPU  0 inst:  564000000 cyc:  540157572 now IPC :1.34336: AVG IPC :1.04233: L2-Pf-HR :0.79526: L2-HR :0.78768: (Sim:0h40m31s) 
CPU  0 inst:  565000000 cyc:  540678028 now IPC :1.92139: AVG IPC :1.04318: L2-Pf-HR :0.79524: L2-HR :0.78767: (Sim:0h40m35s) 
CPU  0 inst:  566000000 cyc:  541297726 now IPC :1.61369: AVG IPC :1.04383: L2-Pf-HR :0.79524: L2-HR :0.78767: (Sim:0h40m38s) 
CPU  0 inst:  567000003 cyc:  541891777 now IPC :1.68336: AVG IPC :1.04453: L2-Pf-HR :0.79526: L2-HR :0.78770: (Sim:0h40m41s) 
CPU  0 inst:  568000000 cyc:  542408386 now IPC :1.93569: AVG IPC :1.04538: L2-Pf-HR :0.79526: L2-HR :0.78771: (Sim:0h40m44s) 
CPU  0 inst:  569000001 cyc:  542972118 now IPC :1.77389: AVG IPC :1.04614: L2-Pf-HR :0.79522: L2-HR :0.78767: (Sim:0h40m47s) 
CPU  0 inst:  570000003 cyc:  543532721 now IPC :1.78380: AVG IPC :1.04690: L2-Pf-HR :0.79533: L2-HR :0.78779: (Sim:0h40m50s) 
CPU  0 inst:  571000001 cyc:  544053960 now IPC :1.91850: AVG IPC :1.04774: L2-Pf-HR :0.79532: L2-HR :0.78777: (Sim:0h40m53s) 
CPU  0 inst:  572000000 cyc:  544816174 now IPC :1.31197: AVG IPC :1.04811: L2-Pf-HR :0.79529: L2-HR :0.78775: (Sim:0h40m56s) 
CPU  0 inst:  573000002 cyc:  545355513 now IPC :1.85413: AVG IPC :1.04891: L2-Pf-HR :0.79527: L2-HR :0.78774: (Sim:0h41m0s) 
CPU  0 inst:  574000000 cyc:  545896202 now IPC :1.84949: AVG IPC :1.04970: L2-Pf-HR :0.79523: L2-HR :0.78770: (Sim:0h41m5s) 
CPU  0 inst:  575000003 cyc:  546566663 now IPC :1.49152: AVG IPC :1.05025: L2-Pf-HR :0.79528: L2-HR :0.78776: (Sim:0h41m9s) 
CPU  0 inst:  576000000 cyc:  547083844 now IPC :1.93355: AVG IPC :1.05108: L2-Pf-HR :0.79527: L2-HR :0.78776: (Sim:0h41m14s) 
CPU  0 inst:  577000003 cyc:  547597396 now IPC :1.94723: AVG IPC :1.05192: L2-Pf-HR :0.79523: L2-HR :0.78773: (Sim:0h41m18s) 
CPU  0 inst:  578000000 cyc:  548154878 now IPC :1.79377: AVG IPC :1.05268: L2-Pf-HR :0.79538: L2-HR :0.78788: (Sim:0h41m22s) 
CPU  0 inst:  579000001 cyc:  548728005 now IPC :1.74482: AVG IPC :1.05340: L2-Pf-HR :0.79525: L2-HR :0.78775: (Sim:0h41m27s) 
CPU  0 inst:  580000000 cyc:  549269391 now IPC :1.84711: AVG IPC :1.05419: L2-Pf-HR :0.79524: L2-HR :0.78774: (Sim:0h41m31s) 
CPU  0 inst:  581000002 cyc:  550022290 now IPC :1.32820: AVG IPC :1.05456: L2-Pf-HR :0.79517: L2-HR :0.78769: (Sim:0h41m36s) 
CPU  0 inst:  582000001 cyc:  550546867 now IPC :1.90630: AVG IPC :1.05538: L2-Pf-HR :0.79514: L2-HR :0.78766: (Sim:0h41m40s) 
CPU  0 inst:  583000001 cyc:  551165118 now IPC :1.61747: AVG IPC :1.05601: L2-Pf-HR :0.79515: L2-HR :0.78768: (Sim:0h41m45s) 
CPU  0 inst:  584000000 cyc:  551759400 now IPC :1.68270: AVG IPC :1.05668: L2-Pf-HR :0.79516: L2-HR :0.78770: (Sim:0h41m49s) 
CPU  0 inst:  585000003 cyc:  552275819 now IPC :1.93642: AVG IPC :1.05751: L2-Pf-HR :0.79515: L2-HR :0.78770: (Sim:0h41m54s) 
CPU  0 inst:  586000002 cyc:  552836468 now IPC :1.78365: AVG IPC :1.05825: L2-Pf-HR :0.79514: L2-HR :0.78769: (Sim:0h41m58s) 
CPU  0 inst:  587000002 cyc:  553408521 now IPC :1.74809: AVG IPC :1.05896: L2-Pf-HR :0.79522: L2-HR :0.78778: (Sim:0h42m2s) 
CPU  0 inst:  588000000 cyc:  553934605 now IPC :1.90083: AVG IPC :1.05976: L2-Pf-HR :0.79521: L2-HR :0.78775: (Sim:0h42m7s) 
CPU  0 inst:  589000000 cyc:  554696052 now IPC :1.31329: AVG IPC :1.06011: L2-Pf-HR :0.79518: L2-HR :0.78775: (Sim:0h42m12s) 
CPU  0 inst:  590000002 cyc:  555234736 now IPC :1.85638: AVG IPC :1.06088: L2-Pf-HR :0.79516: L2-HR :0.78772: (Sim:0h42m16s) 
CPU  0 inst:  591000003 cyc:  555783345 now IPC :1.82279: AVG IPC :1.06164: L2-Pf-HR :0.79512: L2-HR :0.78769: (Sim:0h42m20s) 
CPU  0 inst:  592000000 cyc:  556446757 now IPC :1.50735: AVG IPC :1.06217: L2-Pf-HR :0.79518: L2-HR :0.78777: (Sim:0h42m25s) 
CPU  0 inst:  593000001 cyc:  556968077 now IPC :1.91821: AVG IPC :1.06297: L2-Pf-HR :0.79518: L2-HR :0.78777: (Sim:0h42m29s) 
CPU  0 inst:  594000002 cyc:  557487081 now IPC :1.92677: AVG IPC :1.06378: L2-Pf-HR :0.79517: L2-HR :0.78776: (Sim:0h42m34s) 
Finished CPU 0 instr: 592000001 cyc: 556506895 AVG IPC: 1.06378 (Sim time: 0h42m34s)

ChampSim completed all CPUs

[ROI Statistics]
Core_0_instructions 592000001
Core_0_cycles 556506895
Core_0_IPC 1.06378

Core_0_branch_prediction_accuracy 98.24511
Core_0_branch_MPKI 0.42508
Core_0_average_ROB_occupancy_at_mispredict 249.31438

Core_0_L1D_total_access 351682531
Core_0_L1D_total_hit 338580845 L1D_total_Hit Ratio: 0.96275
Core_0_L1D_total_miss 13101686
Core_0_L1D_loads 135081197
Core_0_L1D_load_hit 129663829 L1D_load_Hit Ratio: 0.95990
Core_0_L1D_load_miss 5417368
Core_0_L1D_RFOs 12000175
Core_0_L1D_RFO_hit 11405797 L1D_RFO_Hit Ratio: 0.95047
Core_0_L1D_RFO_miss 594378
Core_0_L1D_prefetches 204601159
Core_0_L1D_prefetch_hit 197511219 L1D_prefetch_Hit Ratio: 0.96535
Core_0_L1D_prefetch_miss 7089940
Core_0_L1D_writebacks 0
Core_0_L1D_writeback_hit 0 L1D_writeback_Hit Ratio: -nan
Core_0_L1D_writeback_miss 0
Core_0_L1D_prefetch_requested 408250323
Core_0_L1D_prefetch_issued 245909241
Core_0_L1D_prefetch_useful 5681161 L1D_Useful Ratio: 0.02310
Core_0_L1D_prefetch_useless 1436451
Core_0_L1D_prefetch_late 1048220
Core_0_L1D_average_miss_latency 19976052.65135

Core_0_L1I_total_access 134289797
Core_0_L1I_total_hit 134284918 L1I_total_Hit Ratio: 0.99996
Core_0_L1I_total_miss 4879
Core_0_L1I_loads 134289797
Core_0_L1I_load_hit 134284918 L1I_load_Hit Ratio: 0.99996
Core_0_L1I_load_miss 4879
Core_0_L1I_RFOs 0
Core_0_L1I_RFO_hit 0 L1I_RFO_Hit Ratio: -nan
Core_0_L1I_RFO_miss 0
Core_0_L1I_prefetches 0
Core_0_L1I_prefetch_hit 0 L1I_prefetch_Hit Ratio: -nan
Core_0_L1I_prefetch_miss 0
Core_0_L1I_writebacks 0
Core_0_L1I_writeback_hit 0 L1I_writeback_Hit Ratio: -nan
Core_0_L1I_writeback_miss 0
Core_0_L1I_prefetch_requested 0
Core_0_L1I_prefetch_issued 0
Core_0_L1I_prefetch_useful 0 L1I_Useful Ratio: -nan
Core_0_L1I_prefetch_useless 0
Core_0_L1I_prefetch_late 0
Core_0_L1I_average_miss_latency 316.38287

Core_0_L2C_total_access 60510317
Core_0_L2C_total_hit 47667631 L2C_total_Hit Ratio: 0.78776
Core_0_L2C_total_miss 12842686
Core_0_L2C_loads 4374769
Core_0_L2C_load_hit 2810584 L2C_load_Hit Ratio: 0.64245
Core_0_L2C_load_miss 1564185
Core_0_L2C_RFOs 594234
Core_0_L2C_RFO_hit 204471 L2C_RFO_Hit Ratio: 0.34409
Core_0_L2C_RFO_miss 389763
Core_0_L2C_prefetches 52336239
Core_0_L2C_prefetch_hit 41616424 L2C_prefetch_Hit Ratio: 0.79517
Core_0_L2C_prefetch_miss 10719815
Core_0_L2C_writebacks 3205075
Core_0_L2C_writeback_hit 3036152 L2C_writeback_Hit Ratio: 0.94730
Core_0_L2C_writeback_miss 168923
Core_0_L2C_prefetch_requested 91930563
Core_0_L2C_prefetch_issued 71675507
Core_0_L2C_prefetch_useful 2307585 L2C_Useful Ratio: 0.03219
Core_0_L2C_prefetch_useless 8452299
Core_0_L2C_prefetch_late 78358
Core_0_L2C_average_miss_latency 112.54968

Core_0_LLC_total_access 16139006
Core_0_LLC_total_hit 12905806 LLC_total_Hit Ratio: 0.79967
Core_0_LLC_total_miss 3233200
Core_0_LLC_loads 1485833
Core_0_LLC_load_hit 1242300 LLC_load_Hit Ratio: 0.83610
Core_0_LLC_load_miss 243533
Core_0_LLC_RFOs 389763
Core_0_LLC_RFO_hit 78002 LLC_RFO_Hit Ratio: 0.20013
Core_0_LLC_RFO_miss 311761
Core_0_LLC_prefetches 11153743
Core_0_LLC_prefetch_hit 8475848 LLC_prefetch_Hit Ratio: 0.75991
Core_0_LLC_prefetch_miss 2677895
Core_0_LLC_writebacks 3109667
Core_0_LLC_writeback_hit 3109656 LLC_writeback_Hit Ratio: 1.00000
Core_0_LLC_writeback_miss 11
Core_0_LLC_prefetch_requested 0
Core_0_LLC_prefetch_issued 0
Core_0_LLC_prefetch_useful 704958 LLC_Useful Ratio: inf
Core_0_LLC_prefetch_useless 1972592
Core_0_LLC_prefetch_late 38962
Core_0_LLC_average_miss_latency 354.50184

Core_0_major_page_fault 0
Core_0_minor_page_fault 25625

CPU 0 L1D next line prefetcher final stats
CPU 0 L2C PC-based stride prefetcher final stats
Stride Degree: 16
MK1  MARKOV_LRU_SIZE: 128
MK1  MARKOV_PREDICTION_PERCENTTHRESHOLD: 30.00000
MK1  OUTLIERS_THRESHOLD_Max: 64
MK1  OUTLIERS_THRESHOLD_Min: 32
MK2  MARKOV_LRU_SIZE: 256
MK2  MARKOV_PREDICTION_PERCENTTHRESHOLD: 30.00000
MK2  OUTLIERS_THRESHOLD_Max: 32
MK2  OUTLIERS_THRESHOLD_Min: 16
MK3  MARKOV_LRU_SIZE: 384
MK3  MARKOV_PREDICTION_PERCENTTHRESHOLD: 25.00000
MK3  OUTLIERS_THRESHOLD_Max: 16
MK3  OUTLIERS_THRESHOLD_Min: 8
MK4  MARKOV_LRU_SIZE: 512
MK4  MARKOV_PREDICTION_PERCENTTHRESHOLD: 20.00000
MK4  OUTLIERS_THRESHOLD_Max: 8
MK4  OUTLIERS_THRESHOLD_Min: 0
IPStride Degree/Access Ratio: 5.34013
MK1 IPDEltaMarkov  Degree/Access Ratio: 0.23414
MK2 IPDEltaMarkov  Degree/Access Ratio: 0.33019
MK3 IPDEltaMarkov  Degree/Access Ratio: 0.49825
MK4 IPDEltaMarkov  Degree/Access Ratio: 1.53049
Channel_0_RQ_row_buffer_hit 1694825
Channel_0_RQ_row_buffer_miss 1537762
Channel_0_WQ_row_buffer_hit 500263
Channel_0_WQ_row_buffer_miss 1239056
Channel_0_WQ_full 0
Channel_0_dbus_congested 3522413

avg_congested_cycle 11

EzSearch AVG IPC :1.06378: L2-Pf-HR :0.79517 : L2-HR :0.78776 Uful:0.03219
     > Finished combination: TraceType=777-FE Sim:592000000 Prefetcher=L2029-TOP1_BF-L2-MultiMarkovDelta_ip_stride_v4 L1=next_line
