TRACE: [331000000][Pythia-70M]_[h8][s1024][d64] Warmup: 2000000 NumTraces: 331000000
L1:next_line:L2:029-TOP1_BF-L2-MultiMarkovDelta_ip_stride_v4
*************************************************
   ChampSim Multicore Out-of-Order Simulator
   Last compiled: Oct 26 2024 09:56:01
*************************************************

trace_0 777-FE_comparisonScript_memoryTraces/memTraces[331000000][Pythia-70M]_[h8][s1024][d64].champsim.xz
CPU 0 L1D next line prefetcher
MK1: Size: 128 TMAX: 64 TMIN: 32 MKPTHRESH: 40
MK2: Size: 256 TMAX: 32 TMIN: 16 MKPTHRESH: 20
MK3: Size: 384 TMAX: 16 TMIN: 8 MKPTHRESH: 25
MK4: Size: 512 TMAX: 8 TMIN: 0 MKPTHRESH: 20
Stride Size: 512 Prefetch Degree: 15

CPU 0 L2C prefetcher
MAIN.cc ln 751 stats print skipped
CPU 0 L2C prefetcher initialized


Cache Size: 256
number of cache lines: 4096
CPU  0 inst:    1000000 cyc:     503572 now IPC :1.98581: AVG IPC :1.98581: L2-Pf-HR :0.78050: L2-HR :0.75380: (Sim:0h0m5s) 
CPU  0 inst:    2000001 cyc:     979287 now IPC :2.10210: AVG IPC :2.04230: L2-Pf-HR :0.79649: L2-HR :0.77136: (Sim:0h0m10s) 

Warmup complete CPU  0 instructions:    2000001 cycles:     979287 (Simulation time: 0 hr 0 min 10 sec) 

CPU  0 inst:    3000000 cyc:    1560691 now IPC :1.71997: AVG IPC :1.71997: L2-Pf-HR :0.78852: L2-HR :0.77362: (Sim:0h0m15s) 
CPU  0 inst:    4000000 cyc:    2124139 now IPC :1.77479: AVG IPC :1.74695: L2-Pf-HR :0.79175: L2-HR :0.77600: (Sim:0h0m19s) 
CPU  0 inst:    5000003 cyc:    2690155 now IPC :1.76674: AVG IPC :1.75350: L2-Pf-HR :0.79855: L2-HR :0.78189: (Sim:0h0m21s) 
CPU  0 inst:    6000003 cyc:    3258679 now IPC :1.75894: AVG IPC :1.75485: L2-Pf-HR :0.81463: L2-HR :0.79516: (Sim:0h0m24s) 
CPU  0 inst:    7000000 cyc:    4015754 now IPC :1.32087: AVG IPC :1.64665: L2-Pf-HR :0.81700: L2-HR :0.79734: (Sim:0h0m27s) 
CPU  0 inst:    8000000 cyc:    4589543 now IPC :1.74280: AVG IPC :1.66193: L2-Pf-HR :0.81581: L2-HR :0.79639: (Sim:0h0m30s) 
CPU  0 inst:    9000002 cyc:    5151659 now IPC :1.77900: AVG IPC :1.67770: L2-Pf-HR :0.81527: L2-HR :0.79602: (Sim:0h0m33s) 
CPU  0 inst:   10000003 cyc:    5722212 now IPC :1.75269: AVG IPC :1.68672: L2-Pf-HR :0.81563: L2-HR :0.79644: (Sim:0h0m36s) 
CPU  0 inst:   11000001 cyc:    6286919 now IPC :1.77083: AVG IPC :1.69567: L2-Pf-HR :0.81619: L2-HR :0.79693: (Sim:0h0m39s) 
CPU  0 inst:   12000000 cyc:    6855236 now IPC :1.75958: AVG IPC :1.70185: L2-Pf-HR :0.82120: L2-HR :0.80113: (Sim:0h0m42s) 
CPU  0 inst:   13000001 cyc:    7531271 now IPC :1.47921: AVG IPC :1.67888: L2-Pf-HR :0.82348: L2-HR :0.80313: (Sim:0h0m45s) 
CPU  0 inst:   14000001 cyc:    8111166 now IPC :1.72445: AVG IPC :1.68259: L2-Pf-HR :0.82403: L2-HR :0.80356: (Sim:0h0m48s) 
CPU  0 inst:   15000001 cyc:    8687538 now IPC :1.73499: AVG IPC :1.68650: L2-Pf-HR :0.82488: L2-HR :0.80436: (Sim:0h0m50s) 
CPU  0 inst:   16000000 cyc:    9258575 now IPC :1.75120: AVG IPC :1.69097: L2-Pf-HR :0.82657: L2-HR :0.80576: (Sim:0h0m53s) 
CPU  0 inst:   17000003 cyc:   10039614 now IPC :1.28035: AVG IPC :1.65557: L2-Pf-HR :0.82747: L2-HR :0.80646: (Sim:0h0m56s) 
CPU  0 inst:   18000002 cyc:   10641046 now IPC :1.66270: AVG IPC :1.65601: L2-Pf-HR :0.82671: L2-HR :0.80573: (Sim:0h0m59s) 
CPU  0 inst:   19000002 cyc:   11240226 now IPC :1.66895: AVG IPC :1.65677: L2-Pf-HR :0.82641: L2-HR :0.80538: (Sim:0h1m2s) 
CPU  0 inst:   20000000 cyc:   11831757 now IPC :1.69053: AVG IPC :1.65861: L2-Pf-HR :0.82585: L2-HR :0.80487: (Sim:0h1m5s) 
CPU  0 inst:   21000001 cyc:   12424425 now IPC :1.68729: AVG IPC :1.66009: L2-Pf-HR :0.82558: L2-HR :0.80459: (Sim:0h1m8s) 
CPU  0 inst:   22000003 cyc:   13016658 now IPC :1.68853: AVG IPC :1.66149: L2-Pf-HR :0.82730: L2-HR :0.80603: (Sim:0h1m11s) 
CPU  0 inst:   23000003 cyc:   13760231 now IPC :1.34486: AVG IPC :1.64307: L2-Pf-HR :0.82848: L2-HR :0.80707: (Sim:0h1m14s) 
CPU  0 inst:   24000000 cyc:   14344969 now IPC :1.71016: AVG IPC :1.64601: L2-Pf-HR :0.82816: L2-HR :0.80680: (Sim:0h1m17s) 
CPU  0 inst:   25000003 cyc:   14924283 now IPC :1.72618: AVG IPC :1.64934: L2-Pf-HR :0.82797: L2-HR :0.80665: (Sim:0h1m19s) 
CPU  0 inst:   26000000 cyc:   15498768 now IPC :1.74068: AVG IPC :1.65295: L2-Pf-HR :0.82798: L2-HR :0.80669: (Sim:0h1m22s) 
CPU  0 inst:   27000002 cyc:   16076697 now IPC :1.73032: AVG IPC :1.65591: L2-Pf-HR :0.82795: L2-HR :0.80669: (Sim:0h1m25s) 
CPU  0 inst:   28000000 cyc:   16646739 now IPC :1.75425: AVG IPC :1.65949: L2-Pf-HR :0.82919: L2-HR :0.80774: (Sim:0h1m28s) 
CPU  0 inst:   29000003 cyc:   17309494 now IPC :1.50886: AVG IPC :1.65338: L2-Pf-HR :0.83056: L2-HR :0.80894: (Sim:0h1m31s) 
CPU  0 inst:   30000000 cyc:   17895985 now IPC :1.70505: AVG IPC :1.65517: L2-Pf-HR :0.83089: L2-HR :0.80923: (Sim:0h1m34s) 
CPU  0 inst:   31000000 cyc:   18473276 now IPC :1.73223: AVG IPC :1.65771: L2-Pf-HR :0.83126: L2-HR :0.80959: (Sim:0h1m37s) 
CPU  0 inst:   32000000 cyc:   19055552 now IPC :1.71740: AVG IPC :1.65963: L2-Pf-HR :0.83198: L2-HR :0.81020: (Sim:0h1m40s) 
CPU  0 inst:   33000003 cyc:   19826103 now IPC :1.29778: AVG IPC :1.64484: L2-Pf-HR :0.83242: L2-HR :0.81058: (Sim:0h1m43s) 
CPU  0 inst:   34000003 cyc:   20429116 now IPC :1.65834: AVG IPC :1.64526: L2-Pf-HR :0.83197: L2-HR :0.81015: (Sim:0h1m46s) 
CPU  0 inst:   35000003 cyc:   21026430 now IPC :1.67416: AVG IPC :1.64612: L2-Pf-HR :0.83161: L2-HR :0.80982: (Sim:0h1m49s) 
CPU  0 inst:   36000000 cyc:   21626612 now IPC :1.66616: AVG IPC :1.64670: L2-Pf-HR :0.83128: L2-HR :0.80950: (Sim:0h1m52s) 
CPU  0 inst:   37000001 cyc:   22221898 now IPC :1.67987: AVG IPC :1.64763: L2-Pf-HR :0.83100: L2-HR :0.80924: (Sim:0h1m55s) 
CPU  0 inst:   38000001 cyc:   22818249 now IPC :1.67686: AVG IPC :1.64843: L2-Pf-HR :0.83160: L2-HR :0.80974: (Sim:0h1m58s) 
CPU  0 inst:   39000003 cyc:   23557078 now IPC :1.35350: AVG IPC :1.63878: L2-Pf-HR :0.83253: L2-HR :0.81055: (Sim:0h2m2s) 
CPU  0 inst:   40000000 cyc:   24145885 now IPC :1.69834: AVG IPC :1.64029: L2-Pf-HR :0.83226: L2-HR :0.81032: (Sim:0h2m5s) 
CPU  0 inst:   41000003 cyc:   24718319 now IPC :1.74693: AVG IPC :1.64286: L2-Pf-HR :0.83213: L2-HR :0.81023: (Sim:0h2m8s) 
CPU  0 inst:   42000003 cyc:   25300194 now IPC :1.71858: AVG IPC :1.64468: L2-Pf-HR :0.83200: L2-HR :0.81013: (Sim:0h2m10s) 
CPU  0 inst:   43000000 cyc:   25883637 now IPC :1.71396: AVG IPC :1.64630: L2-Pf-HR :0.83187: L2-HR :0.81003: (Sim:0h2m13s) 
CPU  0 inst:   44000000 cyc:   26460714 now IPC :1.73287: AVG IPC :1.64826: L2-Pf-HR :0.83237: L2-HR :0.81046: (Sim:0h2m16s) 
CPU  0 inst:   45000003 cyc:   27130442 now IPC :1.49315: AVG IPC :1.64429: L2-Pf-HR :0.83336: L2-HR :0.81132: (Sim:0h2m19s) 
CPU  0 inst:   46000002 cyc:   27704022 now IPC :1.74343: AVG IPC :1.64641: L2-Pf-HR :0.83345: L2-HR :0.81141: (Sim:0h2m22s) 
CPU  0 inst:   47000001 cyc:   28280729 now IPC :1.73398: AVG IPC :1.64826: L2-Pf-HR :0.83353: L2-HR :0.81151: (Sim:0h2m25s) 
CPU  0 inst:   48000000 cyc:   28858325 now IPC :1.73131: AVG IPC :1.64999: L2-Pf-HR :0.83386: L2-HR :0.81180: (Sim:0h2m28s) 
CPU  0 inst:   49000000 cyc:   29623229 now IPC :1.30735: AVG IPC :1.64084: L2-Pf-HR :0.83422: L2-HR :0.81208: (Sim:0h2m31s) 
CPU  0 inst:   50000001 cyc:   30232429 now IPC :1.64150: AVG IPC :1.64085: L2-Pf-HR :0.83402: L2-HR :0.81187: (Sim:0h2m34s) 
CPU  0 inst:   51000000 cyc:   30831605 now IPC :1.66896: AVG IPC :1.64141: L2-Pf-HR :0.83371: L2-HR :0.81158: (Sim:0h2m36s) 
CPU  0 inst:   52000000 cyc:   31430838 now IPC :1.66880: AVG IPC :1.64195: L2-Pf-HR :0.83348: L2-HR :0.81136: (Sim:0h2m39s) 
CPU  0 inst:   53000003 cyc:   32029757 now IPC :1.66968: AVG IPC :1.64249: L2-Pf-HR :0.83321: L2-HR :0.81110: (Sim:0h2m42s) 
CPU  0 inst:   54000003 cyc:   32627248 now IPC :1.67367: AVG IPC :1.64308: L2-Pf-HR :0.83341: L2-HR :0.81127: (Sim:0h2m45s) 
CPU  0 inst:   55000003 cyc:   33367600 now IPC :1.35071: AVG IPC :1.63639: L2-Pf-HR :0.83413: L2-HR :0.81188: (Sim:0h2m48s) 
CPU  0 inst:   56000000 cyc:   33962915 now IPC :1.67978: AVG IPC :1.63718: L2-Pf-HR :0.83403: L2-HR :0.81179: (Sim:0h2m51s) 
CPU  0 inst:   57000002 cyc:   34542625 now IPC :1.72500: AVG IPC :1.63869: L2-Pf-HR :0.83393: L2-HR :0.81169: (Sim:0h2m54s) 
CPU  0 inst:   58000003 cyc:   35118324 now IPC :1.73702: AVG IPC :1.64035: L2-Pf-HR :0.83384: L2-HR :0.81164: (Sim:0h2m57s) 
CPU  0 inst:   59000001 cyc:   35698064 now IPC :1.72491: AVG IPC :1.64176: L2-Pf-HR :0.83372: L2-HR :0.81153: (Sim:0h2m59s) 
CPU  0 inst:   60000000 cyc:   36269051 now IPC :1.75135: AVG IPC :1.64354: L2-Pf-HR :0.83391: L2-HR :0.81169: (Sim:0h3m2s) 
CPU  0 inst:   61000001 cyc:   36937076 now IPC :1.49695: AVG IPC :1.64081: L2-Pf-HR :0.83471: L2-HR :0.81237: (Sim:0h3m5s) 
CPU  0 inst:   62000000 cyc:   37527240 now IPC :1.69444: AVG IPC :1.64168: L2-Pf-HR :0.83477: L2-HR :0.81243: (Sim:0h3m8s) 
CPU  0 inst:   63000003 cyc:   38104492 now IPC :1.73235: AVG IPC :1.64309: L2-Pf-HR :0.83484: L2-HR :0.81249: (Sim:0h3m12s) 
CPU  0 inst:   64000000 cyc:   38679983 now IPC :1.73764: AVG IPC :1.64453: L2-Pf-HR :0.83498: L2-HR :0.81262: (Sim:0h3m16s) 
CPU  0 inst:   65000001 cyc:   39430649 now IPC :1.33215: AVG IPC :1.63843: L2-Pf-HR :0.83535: L2-HR :0.81294: (Sim:0h3m21s) 
CPU  0 inst:   66000003 cyc:   40047664 now IPC :1.62071: AVG IPC :1.63815: L2-Pf-HR :0.83514: L2-HR :0.81274: (Sim:0h3m26s) 
CPU  0 inst:   67000001 cyc:   40648053 now IPC :1.66558: AVG IPC :1.63857: L2-Pf-HR :0.83496: L2-HR :0.81256: (Sim:0h3m31s) 
CPU  0 inst:   68000000 cyc:   41246034 now IPC :1.67229: AVG IPC :1.63907: L2-Pf-HR :0.83471: L2-HR :0.81232: (Sim:0h3m35s) 
CPU  0 inst:   69000000 cyc:   41842201 now IPC :1.67738: AVG IPC :1.63963: L2-Pf-HR :0.83449: L2-HR :0.81212: (Sim:0h3m40s) 
CPU  0 inst:   70000001 cyc:   42440865 now IPC :1.67039: AVG IPC :1.64007: L2-Pf-HR :0.83452: L2-HR :0.81214: (Sim:0h3m45s) 
CPU  0 inst:   71000003 cyc:   43175683 now IPC :1.36088: AVG IPC :1.63521: L2-Pf-HR :0.83505: L2-HR :0.81260: (Sim:0h3m50s) 
CPU  0 inst:   72000000 cyc:   43777369 now IPC :1.66199: AVG IPC :1.63559: L2-Pf-HR :0.83501: L2-HR :0.81256: (Sim:0h3m54s) 
CPU  0 inst:   73000003 cyc:   44355606 now IPC :1.72940: AVG IPC :1.63684: L2-Pf-HR :0.83490: L2-HR :0.81248: (Sim:0h3m59s) 
CPU  0 inst:   74000000 cyc:   44934638 now IPC :1.72702: AVG IPC :1.63803: L2-Pf-HR :0.83489: L2-HR :0.81248: (Sim:0h4m4s) 
CPU  0 inst:   75000002 cyc:   45509500 now IPC :1.73955: AVG IPC :1.63934: L2-Pf-HR :0.83480: L2-HR :0.81241: (Sim:0h4m8s) 
CPU  0 inst:   76000000 cyc:   46083095 now IPC :1.74339: AVG IPC :1.64066: L2-Pf-HR :0.83490: L2-HR :0.81249: (Sim:0h4m13s) 
CPU  0 inst:   77000000 cyc:   46741625 now IPC :1.51853: AVG IPC :1.63890: L2-Pf-HR :0.83556: L2-HR :0.81306: (Sim:0h4m18s) 
CPU  0 inst:   78000002 cyc:   47327285 now IPC :1.70748: AVG IPC :1.63977: L2-Pf-HR :0.83554: L2-HR :0.81304: (Sim:0h4m22s) 
CPU  0 inst:   79000002 cyc:   47908254 now IPC :1.72126: AVG IPC :1.64078: L2-Pf-HR :0.83562: L2-HR :0.81312: (Sim:0h4m27s) 
CPU  0 inst:   80000000 cyc:   48484841 now IPC :1.73434: AVG IPC :1.64191: L2-Pf-HR :0.83565: L2-HR :0.81316: (Sim:0h4m32s) 
CPU  0 inst:   81000000 cyc:   49225009 now IPC :1.35104: AVG IPC :1.63745: L2-Pf-HR :0.83591: L2-HR :0.81339: (Sim:0h4m37s) 
CPU  0 inst:   82000002 cyc:   49847644 now IPC :1.60608: AVG IPC :1.63705: L2-Pf-HR :0.83584: L2-HR :0.81330: (Sim:0h4m41s) 
CPU  0 inst:   83000002 cyc:   50452807 now IPC :1.65245: AVG IPC :1.63724: L2-Pf-HR :0.83570: L2-HR :0.81316: (Sim:0h4m46s) 
CPU  0 inst:   84000000 cyc:   51049416 now IPC :1.67614: AVG IPC :1.63770: L2-Pf-HR :0.83559: L2-HR :0.81307: (Sim:0h4m51s) 
CPU  0 inst:   85000002 cyc:   51647924 now IPC :1.67082: AVG IPC :1.63809: L2-Pf-HR :0.83545: L2-HR :0.81294: (Sim:0h4m56s) 
CPU  0 inst:   86000002 cyc:   52243530 now IPC :1.67896: AVG IPC :1.63857: L2-Pf-HR :0.83543: L2-HR :0.81291: (Sim:0h5m0s) 
CPU  0 inst:   87000000 cyc:   52946311 now IPC :1.42292: AVG IPC :1.63565: L2-Pf-HR :0.83592: L2-HR :0.81333: (Sim:0h5m3s) 
CPU  0 inst:   88000000 cyc:   53589001 now IPC :1.55596: AVG IPC :1.63468: L2-Pf-HR :0.83588: L2-HR :0.81329: (Sim:0h5m6s) 
CPU  0 inst:   89000002 cyc:   54173461 now IPC :1.71098: AVG IPC :1.63552: L2-Pf-HR :0.83579: L2-HR :0.81322: (Sim:0h5m9s) 
CPU  0 inst:   90000001 cyc:   54750396 now IPC :1.73330: AVG IPC :1.63657: L2-Pf-HR :0.83579: L2-HR :0.81323: (Sim:0h5m12s) 
CPU  0 inst:   91000000 cyc:   55332090 now IPC :1.71912: AVG IPC :1.63745: L2-Pf-HR :0.83573: L2-HR :0.81318: (Sim:0h5m15s) 
CPU  0 inst:   92000000 cyc:   55904352 now IPC :1.74745: AVG IPC :1.63860: L2-Pf-HR :0.83575: L2-HR :0.81320: (Sim:0h5m18s) 
CPU  0 inst:   93000003 cyc:   56553129 now IPC :1.54137: AVG IPC :1.63746: L2-Pf-HR :0.83628: L2-HR :0.81365: (Sim:0h5m20s) 
CPU  0 inst:   94000000 cyc:   57162707 now IPC :1.64047: AVG IPC :1.63749: L2-Pf-HR :0.83636: L2-HR :0.81372: (Sim:0h5m23s) 
CPU  0 inst:   95000002 cyc:   57749778 now IPC :1.70337: AVG IPC :1.63818: L2-Pf-HR :0.83642: L2-HR :0.81379: (Sim:0h5m26s) 
CPU  0 inst:   96000000 cyc:   58328397 now IPC :1.72825: AVG IPC :1.63908: L2-Pf-HR :0.83648: L2-HR :0.81385: (Sim:0h5m29s) 
CPU  0 inst:   97000001 cyc:   59025802 now IPC :1.43389: AVG IPC :1.63662: L2-Pf-HR :0.83676: L2-HR :0.81409: (Sim:0h5m32s) 
CPU  0 inst:   98000001 cyc:   59701098 now IPC :1.48083: AVG IPC :1.63483: L2-Pf-HR :0.83669: L2-HR :0.81401: (Sim:0h5m34s) 
CPU  0 inst:   99000003 cyc:   60303189 now IPC :1.66088: AVG IPC :1.63509: L2-Pf-HR :0.83665: L2-HR :0.81395: (Sim:0h5m37s) 
CPU  0 inst:  100000000 cyc:   60907588 now IPC :1.65453: AVG IPC :1.63529: L2-Pf-HR :0.83648: L2-HR :0.81381: (Sim:0h5m40s) 
CPU  0 inst:  101000002 cyc:   61506836 now IPC :1.66876: AVG IPC :1.63562: L2-Pf-HR :0.83632: L2-HR :0.81366: (Sim:0h5m43s) 
CPU  0 inst:  102000002 cyc:   62106800 now IPC :1.66677: AVG IPC :1.63592: L2-Pf-HR :0.83624: L2-HR :0.81358: (Sim:0h5m46s) 
CPU  0 inst:  103000000 cyc:   62707283 now IPC :1.66532: AVG IPC :1.63621: L2-Pf-HR :0.83671: L2-HR :0.81398: (Sim:0h5m48s) 
CPU  0 inst:  104000000 cyc:   63438025 now IPC :1.36847: AVG IPC :1.63308: L2-Pf-HR :0.83658: L2-HR :0.81387: (Sim:0h5m51s) 
CPU  0 inst:  105000002 cyc:   64016672 now IPC :1.72817: AVG IPC :1.63395: L2-Pf-HR :0.83652: L2-HR :0.81382: (Sim:0h5m54s) 
CPU  0 inst:  106000001 cyc:   64596835 now IPC :1.72365: AVG IPC :1.63477: L2-Pf-HR :0.83644: L2-HR :0.81377: (Sim:0h5m57s) 
CPU  0 inst:  107000001 cyc:   65174682 now IPC :1.73056: AVG IPC :1.63563: L2-Pf-HR :0.83640: L2-HR :0.81373: (Sim:0h6m0s) 
CPU  0 inst:  108000000 cyc:   65749394 now IPC :1.74000: AVG IPC :1.63656: L2-Pf-HR :0.83634: L2-HR :0.81369: (Sim:0h6m2s) 
CPU  0 inst:  109000003 cyc:   66317577 now IPC :1.76000: AVG IPC :1.63763: L2-Pf-HR :0.83680: L2-HR :0.81408: (Sim:0h6m5s) 
CPU  0 inst:  110000000 cyc:   66994767 now IPC :1.47669: AVG IPC :1.63598: L2-Pf-HR :0.83682: L2-HR :0.81410: (Sim:0h6m8s) 
CPU  0 inst:  111000001 cyc:   67574803 now IPC :1.72403: AVG IPC :1.63675: L2-Pf-HR :0.83689: L2-HR :0.81416: (Sim:0h6m11s) 
CPU  0 inst:  112000000 cyc:   68152391 now IPC :1.73134: AVG IPC :1.63756: L2-Pf-HR :0.83688: L2-HR :0.81416: (Sim:0h6m14s) 
CPU  0 inst:  113000000 cyc:   68721516 now IPC :1.75708: AVG IPC :1.63856: L2-Pf-HR :0.83718: L2-HR :0.81442: (Sim:0h6m16s) 
CPU  0 inst:  114000001 cyc:   69512179 now IPC :1.26476: AVG IPC :1.63425: L2-Pf-HR :0.83707: L2-HR :0.81431: (Sim:0h6m19s) 
CPU  0 inst:  115000000 cyc:   70128418 now IPC :1.62275: AVG IPC :1.63415: L2-Pf-HR :0.83697: L2-HR :0.81421: (Sim:0h6m22s) 
CPU  0 inst:  116000000 cyc:   70733735 now IPC :1.65203: AVG IPC :1.63430: L2-Pf-HR :0.83689: L2-HR :0.81413: (Sim:0h6m25s) 
CPU  0 inst:  117000001 cyc:   71336573 now IPC :1.65882: AVG IPC :1.63451: L2-Pf-HR :0.83678: L2-HR :0.81403: (Sim:0h6m28s) 
CPU  0 inst:  118000000 cyc:   71940075 now IPC :1.65699: AVG IPC :1.63471: L2-Pf-HR :0.83669: L2-HR :0.81395: (Sim:0h6m31s) 
CPU  0 inst:  119000003 cyc:   72536838 now IPC :1.67571: AVG IPC :1.63505: L2-Pf-HR :0.83700: L2-HR :0.81421: (Sim:0h6m34s) 
CPU  0 inst:  120000000 cyc:   73292074 now IPC :1.32409: AVG IPC :1.63180: L2-Pf-HR :0.83699: L2-HR :0.81420: (Sim:0h6m37s) 
CPU  0 inst:  121000002 cyc:   73882302 now IPC :1.69426: AVG IPC :1.63231: L2-Pf-HR :0.83694: L2-HR :0.81416: (Sim:0h6m39s) 
CPU  0 inst:  122000001 cyc:   74457088 now IPC :1.73978: AVG IPC :1.63315: L2-Pf-HR :0.83688: L2-HR :0.81411: (Sim:0h6m42s) 
CPU  0 inst:  123000000 cyc:   75045890 now IPC :1.69836: AVG IPC :1.63366: L2-Pf-HR :0.83684: L2-HR :0.81409: (Sim:0h6m45s) 
CPU  0 inst:  124000000 cyc:   75623541 now IPC :1.73115: AVG IPC :1.63442: L2-Pf-HR :0.83685: L2-HR :0.81410: (Sim:0h6m48s) 
CPU  0 inst:  125000000 cyc:   76196268 now IPC :1.74603: AVG IPC :1.63527: L2-Pf-HR :0.83717: L2-HR :0.81437: (Sim:0h6m50s) 
CPU  0 inst:  126000001 cyc:   76879655 now IPC :1.46330: AVG IPC :1.63372: L2-Pf-HR :0.83732: L2-HR :0.81450: (Sim:0h6m53s) 
CPU  0 inst:  127000002 cyc:   77459283 now IPC :1.72525: AVG IPC :1.63441: L2-Pf-HR :0.83736: L2-HR :0.81455: (Sim:0h6m56s) 
CPU  0 inst:  128000000 cyc:   78041096 now IPC :1.71876: AVG IPC :1.63505: L2-Pf-HR :0.83743: L2-HR :0.81461: (Sim:0h6m59s) 
CPU  0 inst:  129000001 cyc:   78624383 now IPC :1.71442: AVG IPC :1.63565: L2-Pf-HR :0.83763: L2-HR :0.81478: (Sim:0h7m2s) 
CPU  0 inst:  130000003 cyc:   83736493 now IPC :0.19561: AVG IPC :1.54669: L2-Pf-HR :0.83211: L2-HR :0.81104: (Sim:0h7m9s) 
CPU  0 inst:  131000001 cyc:   90192760 now IPC :0.15489: AVG IPC :1.44597: L2-Pf-HR :0.82508: L2-HR :0.80648: (Sim:0h7m20s) 
CPU  0 inst:  132000000 cyc:   96632620 now IPC :0.15528: AVG IPC :1.35907: L2-Pf-HR :0.81823: L2-HR :0.80210: (Sim:0h7m29s) 
CPU  0 inst:  133000000 cyc:  103078704 now IPC :0.15513: AVG IPC :1.28306: L2-Pf-HR :0.81149: L2-HR :0.79784: (Sim:0h7m39s) 
CPU  0 inst:  134000000 cyc:  109390845 now IPC :0.15842: AVG IPC :1.21758: L2-Pf-HR :0.80517: L2-HR :0.79382: (Sim:0h7m48s) 
CPU  0 inst:  135000000 cyc:  112942953 now IPC :0.28152: AVG IPC :1.18789: L2-Pf-HR :0.80535: L2-HR :0.79370: (Sim:0h7m54s) 
CPU  0 inst:  136000000 cyc:  116493973 now IPC :0.28161: AVG IPC :1.16003: L2-Pf-HR :0.80557: L2-HR :0.79362: (Sim:0h8m0s) 
CPU  0 inst:  137000000 cyc:  120041941 now IPC :0.28185: AVG IPC :1.13386: L2-Pf-HR :0.80589: L2-HR :0.79363: (Sim:0h8m6s) 
CPU  0 inst:  138000002 cyc:  123591643 now IPC :0.28171: AVG IPC :1.10919: L2-Pf-HR :0.80620: L2-HR :0.79364: (Sim:0h8m11s) 
CPU  0 inst:  139000000 cyc:  127139985 now IPC :0.28182: AVG IPC :1.08592: L2-Pf-HR :0.80656: L2-HR :0.79368: (Sim:0h8m17s) 
CPU  0 inst:  140000000 cyc:  130688445 now IPC :0.28181: AVG IPC :1.06392: L2-Pf-HR :0.80687: L2-HR :0.79369: (Sim:0h8m23s) 
CPU  0 inst:  141000003 cyc:  134235634 now IPC :0.28191: AVG IPC :1.04310: L2-Pf-HR :0.80718: L2-HR :0.79371: (Sim:0h8m28s) 
CPU  0 inst:  142000003 cyc:  137784184 now IPC :0.28181: AVG IPC :1.02336: L2-Pf-HR :0.80747: L2-HR :0.79371: (Sim:0h8m34s) 
CPU  0 inst:  143000000 cyc:  141329780 now IPC :0.28204: AVG IPC :1.00463: L2-Pf-HR :0.80783: L2-HR :0.79376: (Sim:0h8m40s) 
CPU  0 inst:  144000000 cyc:  144874583 now IPC :0.28210: AVG IPC :0.98683: L2-Pf-HR :0.80820: L2-HR :0.79384: (Sim:0h8m47s) 
CPU  0 inst:  145000002 cyc:  148425525 now IPC :0.28162: AVG IPC :0.96985: L2-Pf-HR :0.80840: L2-HR :0.79377: (Sim:0h8m53s) 
CPU  0 inst:  146000000 cyc:  151976618 now IPC :0.28160: AVG IPC :0.95366: L2-Pf-HR :0.80868: L2-HR :0.79376: (Sim:0h8m58s) 
CPU  0 inst:  147000000 cyc:  155525995 now IPC :0.28174: AVG IPC :0.93823: L2-Pf-HR :0.80895: L2-HR :0.79375: (Sim:0h9m4s) 
CPU  0 inst:  148000000 cyc:  159073389 now IPC :0.28190: AVG IPC :0.92350: L2-Pf-HR :0.80924: L2-HR :0.79377: (Sim:0h9m10s) 
CPU  0 inst:  149000002 cyc:  162621196 now IPC :0.28186: AVG IPC :0.90942: L2-Pf-HR :0.80952: L2-HR :0.79377: (Sim:0h9m15s) 
CPU  0 inst:  150000000 cyc:  166170104 now IPC :0.28178: AVG IPC :0.89593: L2-Pf-HR :0.80976: L2-HR :0.79374: (Sim:0h9m21s) 
CPU  0 inst:  151000000 cyc:  169717974 now IPC :0.28186: AVG IPC :0.88302: L2-Pf-HR :0.81001: L2-HR :0.79373: (Sim:0h9m27s) 
CPU  0 inst:  152000000 cyc:  173266286 now IPC :0.28182: AVG IPC :0.87064: L2-Pf-HR :0.81027: L2-HR :0.79372: (Sim:0h9m32s) 
CPU  0 inst:  153000002 cyc:  176815789 now IPC :0.28173: AVG IPC :0.85875: L2-Pf-HR :0.81055: L2-HR :0.79373: (Sim:0h9m38s) 
CPU  0 inst:  154000000 cyc:  180364349 now IPC :0.28180: AVG IPC :0.84734: L2-Pf-HR :0.81084: L2-HR :0.79376: (Sim:0h9m44s) 
CPU  0 inst:  155000000 cyc:  183908834 now IPC :0.28213: AVG IPC :0.83639: L2-Pf-HR :0.81118: L2-HR :0.79383: (Sim:0h9m50s) 
CPU  0 inst:  156000000 cyc:  187453056 now IPC :0.28215: AVG IPC :0.82585: L2-Pf-HR :0.81153: L2-HR :0.79391: (Sim:0h9m55s) 
CPU  0 inst:  157000002 cyc:  190999238 now IPC :0.28199: AVG IPC :0.81570: L2-Pf-HR :0.81180: L2-HR :0.79393: (Sim:0h10m2s) 
CPU  0 inst:  158000003 cyc:  194545434 now IPC :0.28199: AVG IPC :0.80593: L2-Pf-HR :0.81207: L2-HR :0.79395: (Sim:0h10m8s) 
CPU  0 inst:  159000003 cyc:  198089329 now IPC :0.28218: AVG IPC :0.79651: L2-Pf-HR :0.81242: L2-HR :0.79404: (Sim:0h10m13s) 
CPU  0 inst:  160000000 cyc:  201635280 now IPC :0.28201: AVG IPC :0.78742: L2-Pf-HR :0.81274: L2-HR :0.79410: (Sim:0h10m19s) 
CPU  0 inst:  161000000 cyc:  205183142 now IPC :0.28186: AVG IPC :0.77863: L2-Pf-HR :0.81306: L2-HR :0.79417: (Sim:0h10m26s) 
CPU  0 inst:  162000003 cyc:  208731717 now IPC :0.28180: AVG IPC :0.77015: L2-Pf-HR :0.81329: L2-HR :0.79416: (Sim:0h10m32s) 
CPU  0 inst:  163000003 cyc:  212276404 now IPC :0.28211: AVG IPC :0.76196: L2-Pf-HR :0.81358: L2-HR :0.79420: (Sim:0h10m38s) 
CPU  0 inst:  164000000 cyc:  215822625 now IPC :0.28199: AVG IPC :0.75404: L2-Pf-HR :0.81386: L2-HR :0.79424: (Sim:0h10m44s) 
CPU  0 inst:  165000001 cyc:  219371574 now IPC :0.28177: AVG IPC :0.74636: L2-Pf-HR :0.81407: L2-HR :0.79422: (Sim:0h10m49s) 
CPU  0 inst:  166000002 cyc:  222917401 now IPC :0.28202: AVG IPC :0.73894: L2-Pf-HR :0.81434: L2-HR :0.79425: (Sim:0h10m55s) 
CPU  0 inst:  167000001 cyc:  226467185 now IPC :0.28171: AVG IPC :0.73175: L2-Pf-HR :0.81453: L2-HR :0.79421: (Sim:0h11m1s) 
CPU  0 inst:  168000000 cyc:  230016451 now IPC :0.28175: AVG IPC :0.72477: L2-Pf-HR :0.81479: L2-HR :0.79424: (Sim:0h11m7s) 
CPU  0 inst:  169000001 cyc:  233565119 now IPC :0.28180: AVG IPC :0.71801: L2-Pf-HR :0.81503: L2-HR :0.79425: (Sim:0h11m13s) 
CPU  0 inst:  170000002 cyc:  237112021 now IPC :0.28194: AVG IPC :0.71146: L2-Pf-HR :0.81527: L2-HR :0.79427: (Sim:0h11m19s) 
CPU  0 inst:  171000000 cyc:  240657069 now IPC :0.28208: AVG IPC :0.70511: L2-Pf-HR :0.81555: L2-HR :0.79432: (Sim:0h11m25s) 
CPU  0 inst:  172000000 cyc:  244205573 now IPC :0.28181: AVG IPC :0.69894: L2-Pf-HR :0.81577: L2-HR :0.79432: (Sim:0h11m30s) 
CPU  0 inst:  173000000 cyc:  247753737 now IPC :0.28184: AVG IPC :0.69294: L2-Pf-HR :0.81600: L2-HR :0.79433: (Sim:0h11m37s) 
CPU  0 inst:  174000002 cyc:  251301275 now IPC :0.28189: AVG IPC :0.68712: L2-Pf-HR :0.81621: L2-HR :0.79432: (Sim:0h11m42s) 
CPU  0 inst:  175000000 cyc:  254851075 now IPC :0.28171: AVG IPC :0.68145: L2-Pf-HR :0.81639: L2-HR :0.79429: (Sim:0h11m48s) 
CPU  0 inst:  176000000 cyc:  258402406 now IPC :0.28158: AVG IPC :0.67593: L2-Pf-HR :0.81659: L2-HR :0.79427: (Sim:0h11m54s) 
CPU  0 inst:  177000000 cyc:  261948447 now IPC :0.28200: AVG IPC :0.67058: L2-Pf-HR :0.81685: L2-HR :0.79432: (Sim:0h12m0s) 
CPU  0 inst:  178000002 cyc:  265492843 now IPC :0.28214: AVG IPC :0.66537: L2-Pf-HR :0.81712: L2-HR :0.79437: (Sim:0h12m6s) 
CPU  0 inst:  179000003 cyc:  269036130 now IPC :0.28222: AVG IPC :0.66031: L2-Pf-HR :0.81742: L2-HR :0.79445: (Sim:0h12m11s) 
CPU  0 inst:  180000000 cyc:  272578665 now IPC :0.28228: AVG IPC :0.65538: L2-Pf-HR :0.81773: L2-HR :0.79455: (Sim:0h12m17s) 
CPU  0 inst:  181000000 cyc:  276123891 now IPC :0.28207: AVG IPC :0.65057: L2-Pf-HR :0.81800: L2-HR :0.79461: (Sim:0h12m23s) 
CPU  0 inst:  182000000 cyc:  279670508 now IPC :0.28196: AVG IPC :0.64588: L2-Pf-HR :0.81824: L2-HR :0.79464: (Sim:0h12m29s) 
CPU  0 inst:  183000000 cyc:  283222735 now IPC :0.28151: AVG IPC :0.64129: L2-Pf-HR :0.81839: L2-HR :0.79460: (Sim:0h12m35s) 
CPU  0 inst:  184000000 cyc:  286772408 now IPC :0.28172: AVG IPC :0.63682: L2-Pf-HR :0.81857: L2-HR :0.79457: (Sim:0h12m40s) 
CPU  0 inst:  185000000 cyc:  290319764 now IPC :0.28190: AVG IPC :0.63247: L2-Pf-HR :0.81877: L2-HR :0.79458: (Sim:0h12m46s) 
CPU  0 inst:  186000001 cyc:  293865650 now IPC :0.28202: AVG IPC :0.62823: L2-Pf-HR :0.81899: L2-HR :0.79460: (Sim:0h12m52s) 
CPU  0 inst:  187000002 cyc:  297410396 now IPC :0.28211: AVG IPC :0.62409: L2-Pf-HR :0.81925: L2-HR :0.79466: (Sim:0h12m58s) 
CPU  0 inst:  188000000 cyc:  300954468 now IPC :0.28216: AVG IPC :0.62005: L2-Pf-HR :0.81951: L2-HR :0.79472: (Sim:0h13m4s) 
CPU  0 inst:  189000000 cyc:  304501071 now IPC :0.28196: AVG IPC :0.61610: L2-Pf-HR :0.81973: L2-HR :0.79475: (Sim:0h13m9s) 
CPU  0 inst:  190000002 cyc:  308050220 now IPC :0.28176: AVG IPC :0.61224: L2-Pf-HR :0.81993: L2-HR :0.79475: (Sim:0h13m15s) 
CPU  0 inst:  191000000 cyc:  311599430 now IPC :0.28175: AVG IPC :0.60846: L2-Pf-HR :0.82014: L2-HR :0.79477: (Sim:0h13m21s) 
CPU  0 inst:  192000000 cyc:  315145890 now IPC :0.28197: AVG IPC :0.60477: L2-Pf-HR :0.82036: L2-HR :0.79480: (Sim:0h13m27s) 
CPU  0 inst:  193000000 cyc:  318692283 now IPC :0.28198: AVG IPC :0.60117: L2-Pf-HR :0.82056: L2-HR :0.79482: (Sim:0h13m33s) 
CPU  0 inst:  194000000 cyc:  322239622 now IPC :0.28190: AVG IPC :0.59765: L2-Pf-HR :0.82075: L2-HR :0.79483: (Sim:0h13m38s) 
CPU  0 inst:  195000002 cyc:  325785060 now IPC :0.28205: AVG IPC :0.59420: L2-Pf-HR :0.82098: L2-HR :0.79487: (Sim:0h13m44s) 
CPU  0 inst:  196000000 cyc:  329331650 now IPC :0.28196: AVG IPC :0.59083: L2-Pf-HR :0.82119: L2-HR :0.79490: (Sim:0h13m50s) 
CPU  0 inst:  197000002 cyc:  332879449 now IPC :0.28187: AVG IPC :0.58753: L2-Pf-HR :0.82138: L2-HR :0.79490: (Sim:0h13m56s) 
CPU  0 inst:  198000003 cyc:  335428520 now IPC :0.39230: AVG IPC :0.58604: L2-Pf-HR :0.82239: L2-HR :0.79591: (Sim:0h14m1s) 
CPU  0 inst:  199000000 cyc:  336165575 now IPC :1.35675: AVG IPC :0.58773: L2-Pf-HR :0.82485: L2-HR :0.79870: (Sim:0h14m4s) 
CPU  0 inst:  200000000 cyc:  336848284 now IPC :1.46475: AVG IPC :0.58952: L2-Pf-HR :0.82723: L2-HR :0.80141: (Sim:0h14m8s) 
CPU  0 inst:  201000000 cyc:  337515524 now IPC :1.49871: AVG IPC :0.59132: L2-Pf-HR :0.82950: L2-HR :0.80400: (Sim:0h14m12s) 
CPU  0 inst:  202000003 cyc:  338214023 now IPC :1.43165: AVG IPC :0.59306: L2-Pf-HR :0.83155: L2-HR :0.80638: (Sim:0h14m16s) 
CPU  0 inst:  203000002 cyc:  338845173 now IPC :1.58441: AVG IPC :0.59491: L2-Pf-HR :0.83375: L2-HR :0.80890: (Sim:0h14m20s) 
CPU  0 inst:  204000000 cyc:  339479000 now IPC :1.57771: AVG IPC :0.59675: L2-Pf-HR :0.83582: L2-HR :0.81128: (Sim:0h14m24s) 
CPU  0 inst:  205000003 cyc:  340106538 now IPC :1.59353: AVG IPC :0.59860: L2-Pf-HR :0.83783: L2-HR :0.81360: (Sim:0h14m28s) 
CPU  0 inst:  206000002 cyc:  340759803 now IPC :1.53077: AVG IPC :0.60039: L2-Pf-HR :0.83954: L2-HR :0.81564: (Sim:0h14m31s) 
CPU  0 inst:  207000002 cyc:  341388223 now IPC :1.59129: AVG IPC :0.60222: L2-Pf-HR :0.84152: L2-HR :0.81790: (Sim:0h14m35s) 
CPU  0 inst:  208000000 cyc:  342017137 now IPC :1.59004: AVG IPC :0.60404: L2-Pf-HR :0.84348: L2-HR :0.82013: (Sim:0h14m39s) 
CPU  0 inst:  209000002 cyc:  342641524 now IPC :1.60157: AVG IPC :0.60586: L2-Pf-HR :0.84538: L2-HR :0.82230: (Sim:0h14m43s) 
CPU  0 inst:  210000000 cyc:  343274814 now IPC :1.57905: AVG IPC :0.60766: L2-Pf-HR :0.84710: L2-HR :0.82430: (Sim:0h14m46s) 
CPU  0 inst:  211000003 cyc:  343930651 now IPC :1.52477: AVG IPC :0.60942: L2-Pf-HR :0.84881: L2-HR :0.82626: (Sim:0h14m50s) 
CPU  0 inst:  212000000 cyc:  344573662 now IPC :1.55518: AVG IPC :0.61119: L2-Pf-HR :0.85058: L2-HR :0.82826: (Sim:0h14m54s) 
CPU  0 inst:  213000001 cyc:  345223002 now IPC :1.54003: AVG IPC :0.61294: L2-Pf-HR :0.85229: L2-HR :0.83019: (Sim:0h14m58s) 
CPU  0 inst:  214000002 cyc:  345866840 now IPC :1.55319: AVG IPC :0.61469: L2-Pf-HR :0.85394: L2-HR :0.83207: (Sim:0h15m1s) 
CPU  0 inst:  215000002 cyc:  346558130 now IPC :1.44657: AVG IPC :0.61636: L2-Pf-HR :0.85534: L2-HR :0.83372: (Sim:0h15m7s) 
CPU  0 inst:  216000000 cyc:  347226503 now IPC :1.49617: AVG IPC :0.61806: L2-Pf-HR :0.85679: L2-HR :0.83541: (Sim:0h15m13s) 
CPU  0 inst:  217000001 cyc:  347892928 now IPC :1.50055: AVG IPC :0.61975: L2-Pf-HR :0.85815: L2-HR :0.83701: (Sim:0h15m19s) 
CPU  0 inst:  218000001 cyc:  348558920 now IPC :1.50152: AVG IPC :0.62144: L2-Pf-HR :0.85941: L2-HR :0.83852: (Sim:0h15m25s) 
CPU  0 inst:  219000000 cyc:  349229814 now IPC :1.49055: AVG IPC :0.62311: L2-Pf-HR :0.86056: L2-HR :0.83991: (Sim:0h15m32s) 
CPU  0 inst:  220000000 cyc:  349864043 now IPC :1.57672: AVG IPC :0.62485: L2-Pf-HR :0.86178: L2-HR :0.84137: (Sim:0h15m38s) 
CPU  0 inst:  221000002 cyc:  350498954 now IPC :1.57503: AVG IPC :0.62657: L2-Pf-HR :0.86298: L2-HR :0.84281: (Sim:0h15m44s) 
CPU  0 inst:  222000001 cyc:  351130042 now IPC :1.58456: AVG IPC :0.62830: L2-Pf-HR :0.86412: L2-HR :0.84418: (Sim:0h15m50s) 
CPU  0 inst:  223000002 cyc:  351774110 now IPC :1.55263: AVG IPC :0.63000: L2-Pf-HR :0.86517: L2-HR :0.84545: (Sim:0h15m56s) 
CPU  0 inst:  224000000 cyc:  352398152 now IPC :1.60245: AVG IPC :0.63172: L2-Pf-HR :0.86638: L2-HR :0.84687: (Sim:0h16m2s) 
CPU  0 inst:  225000001 cyc:  353033386 now IPC :1.57422: AVG IPC :0.63343: L2-Pf-HR :0.86751: L2-HR :0.84821: (Sim:0h16m9s) 
CPU  0 inst:  226000003 cyc:  353662102 now IPC :1.59055: AVG IPC :0.63513: L2-Pf-HR :0.86856: L2-HR :0.84947: (Sim:0h16m15s) 
CPU  0 inst:  227000003 cyc:  354299855 now IPC :1.56801: AVG IPC :0.63682: L2-Pf-HR :0.86954: L2-HR :0.85066: (Sim:0h16m21s) 
CPU  0 inst:  228000000 cyc:  354942800 now IPC :1.55534: AVG IPC :0.63848: L2-Pf-HR :0.87067: L2-HR :0.85196: (Sim:0h16m27s) 
CPU  0 inst:  229000001 cyc:  355596738 now IPC :1.52920: AVG IPC :0.64013: L2-Pf-HR :0.87176: L2-HR :0.85322: (Sim:0h16m33s) 
CPU  0 inst:  230000000 cyc:  356246942 now IPC :1.53798: AVG IPC :0.64177: L2-Pf-HR :0.87284: L2-HR :0.85447: (Sim:0h16m39s) 
CPU  0 inst:  231000000 cyc:  356905603 now IPC :1.51823: AVG IPC :0.64339: L2-Pf-HR :0.87377: L2-HR :0.85558: (Sim:0h16m46s) 
CPU  0 inst:  232000000 cyc:  357586010 now IPC :1.46971: AVG IPC :0.64497: L2-Pf-HR :0.87470: L2-HR :0.85669: (Sim:0h16m52s) 
CPU  0 inst:  233000002 cyc:  358254312 now IPC :1.49633: AVG IPC :0.64656: L2-Pf-HR :0.87562: L2-HR :0.85779: (Sim:0h16m58s) 
CPU  0 inst:  234000001 cyc:  358920845 now IPC :1.50030: AVG IPC :0.64815: L2-Pf-HR :0.87653: L2-HR :0.85888: (Sim:0h17m4s) 
CPU  0 inst:  235000000 cyc:  359597158 now IPC :1.47860: AVG IPC :0.64972: L2-Pf-HR :0.87737: L2-HR :0.85990: (Sim:0h17m10s) 
CPU  0 inst:  236000000 cyc:  360249427 now IPC :1.53311: AVG IPC :0.65132: L2-Pf-HR :0.87810: L2-HR :0.86081: (Sim:0h17m17s) 
CPU  0 inst:  237000002 cyc:  360878567 now IPC :1.58947: AVG IPC :0.65296: L2-Pf-HR :0.87888: L2-HR :0.86177: (Sim:0h17m23s) 
CPU  0 inst:  238000002 cyc:  361505197 now IPC :1.59584: AVG IPC :0.65460: L2-Pf-HR :0.87967: L2-HR :0.86273: (Sim:0h17m29s) 
CPU  0 inst:  239000001 cyc:  362133981 now IPC :1.59037: AVG IPC :0.65623: L2-Pf-HR :0.88042: L2-HR :0.86365: (Sim:0h17m34s) 
CPU  0 inst:  240000000 cyc:  362783973 now IPC :1.53848: AVG IPC :0.65781: L2-Pf-HR :0.88108: L2-HR :0.86448: (Sim:0h17m38s) 
CPU  0 inst:  241000003 cyc:  363416075 now IPC :1.58203: AVG IPC :0.65943: L2-Pf-HR :0.88188: L2-HR :0.86545: (Sim:0h17m42s) 
CPU  0 inst:  242000001 cyc:  364041438 now IPC :1.59907: AVG IPC :0.66104: L2-Pf-HR :0.88265: L2-HR :0.86637: (Sim:0h17m46s) 
CPU  0 inst:  243000001 cyc:  364667083 now IPC :1.59835: AVG IPC :0.66266: L2-Pf-HR :0.88339: L2-HR :0.86726: (Sim:0h17m49s) 
CPU  0 inst:  244000000 cyc:  365322799 now IPC :1.52505: AVG IPC :0.66421: L2-Pf-HR :0.88404: L2-HR :0.86806: (Sim:0h17m53s) 
CPU  0 inst:  245000000 cyc:  365965504 now IPC :1.55592: AVG IPC :0.66578: L2-Pf-HR :0.88482: L2-HR :0.86898: (Sim:0h17m57s) 
CPU  0 inst:  246000000 cyc:  366613530 now IPC :1.54315: AVG IPC :0.66733: L2-Pf-HR :0.88559: L2-HR :0.86988: (Sim:0h18m2s) 
CPU  0 inst:  247000000 cyc:  367260662 now IPC :1.54528: AVG IPC :0.66888: L2-Pf-HR :0.88632: L2-HR :0.87073: (Sim:0h18m8s) 
CPU  0 inst:  248000000 cyc:  367940805 now IPC :1.47028: AVG IPC :0.67037: L2-Pf-HR :0.88694: L2-HR :0.87148: (Sim:0h18m14s) 
CPU  0 inst:  249000000 cyc:  368609057 now IPC :1.49644: AVG IPC :0.67187: L2-Pf-HR :0.88760: L2-HR :0.87228: (Sim:0h18m21s) 
CPU  0 inst:  250000000 cyc:  369276041 now IPC :1.49929: AVG IPC :0.67337: L2-Pf-HR :0.88826: L2-HR :0.87308: (Sim:0h18m27s) 
CPU  0 inst:  251000003 cyc:  369941853 now IPC :1.50193: AVG IPC :0.67487: L2-Pf-HR :0.88891: L2-HR :0.87386: (Sim:0h18m33s) 
CPU  0 inst:  252000000 cyc:  370625480 now IPC :1.46278: AVG IPC :0.67632: L2-Pf-HR :0.88942: L2-HR :0.87451: (Sim:0h18m39s) 
CPU  0 inst:  253000002 cyc:  371260648 now IPC :1.57439: AVG IPC :0.67786: L2-Pf-HR :0.88999: L2-HR :0.87521: (Sim:0h18m45s) 
CPU  0 inst:  254000001 cyc:  371892748 now IPC :1.58203: AVG IPC :0.67940: L2-Pf-HR :0.89056: L2-HR :0.87592: (Sim:0h18m51s) 
CPU  0 inst:  255000003 cyc:  372521924 now IPC :1.58938: AVG IPC :0.68094: L2-Pf-HR :0.89109: L2-HR :0.87659: (Sim:0h18m57s) 
CPU  0 inst:  256000000 cyc:  373157649 now IPC :1.57300: AVG IPC :0.68247: L2-Pf-HR :0.89156: L2-HR :0.87719: (Sim:0h19m3s) 
CPU  0 inst:  257000003 cyc:  373795428 now IPC :1.56795: AVG IPC :0.68398: L2-Pf-HR :0.89211: L2-HR :0.87787: (Sim:0h19m6s) 
CPU  0 inst:  258000001 cyc:  374424283 now IPC :1.59019: AVG IPC :0.68551: L2-Pf-HR :0.89268: L2-HR :0.87856: (Sim:0h19m10s) 
CPU  0 inst:  259000001 cyc:  375052450 now IPC :1.59193: AVG IPC :0.68703: L2-Pf-HR :0.89322: L2-HR :0.87922: (Sim:0h19m14s) 
CPU  0 inst:  260000000 cyc:  375678310 now IPC :1.59780: AVG IPC :0.68855: L2-Pf-HR :0.89377: L2-HR :0.87988: (Sim:0h19m18s) 
CPU  0 inst:  261000001 cyc:  376330591 now IPC :1.53308: AVG IPC :0.69002: L2-Pf-HR :0.89429: L2-HR :0.88051: (Sim:0h19m22s) 
CPU  0 inst:  262000001 cyc:  376977273 now IPC :1.54636: AVG IPC :0.69149: L2-Pf-HR :0.89487: L2-HR :0.88119: (Sim:0h19m25s) 
CPU  0 inst:  263000001 cyc:  377626352 now IPC :1.54064: AVG IPC :0.69296: L2-Pf-HR :0.89543: L2-HR :0.88185: (Sim:0h19m29s) 
CPU  0 inst:  264000000 cyc:  378274278 now IPC :1.54338: AVG IPC :0.69442: L2-Pf-HR :0.89599: L2-HR :0.88251: (Sim:0h19m33s) 
CPU  0 inst:  265000000 cyc:  378948830 now IPC :1.48247: AVG IPC :0.69582: L2-Pf-HR :0.89644: L2-HR :0.88307: (Sim:0h19m37s) 
CPU  0 inst:  266000003 cyc:  379622411 now IPC :1.48461: AVG IPC :0.69723: L2-Pf-HR :0.89690: L2-HR :0.88364: (Sim:0h19m40s) 
CPU  0 inst:  267000001 cyc:  380288076 now IPC :1.50225: AVG IPC :0.69864: L2-Pf-HR :0.89736: L2-HR :0.88421: (Sim:0h19m44s) 
CPU  0 inst:  268000000 cyc:  380951771 now IPC :1.50671: AVG IPC :0.70005: L2-Pf-HR :0.89781: L2-HR :0.88476: (Sim:0h19m50s) 
CPU  0 inst:  269000002 cyc:  381627338 now IPC :1.48024: AVG IPC :0.70144: L2-Pf-HR :0.89816: L2-HR :0.88522: (Sim:0h19m56s) 
CPU  0 inst:  270000002 cyc:  382264234 now IPC :1.57012: AVG IPC :0.70289: L2-Pf-HR :0.89857: L2-HR :0.88574: (Sim:0h20m2s) 
CPU  0 inst:  271000000 cyc:  382897126 now IPC :1.58005: AVG IPC :0.70434: L2-Pf-HR :0.89897: L2-HR :0.88625: (Sim:0h20m9s) 
CPU  0 inst:  272000000 cyc:  383522300 now IPC :1.59955: AVG IPC :0.70580: L2-Pf-HR :0.89935: L2-HR :0.88674: (Sim:0h20m15s) 
CPU  0 inst:  273000003 cyc:  384174711 now IPC :1.53278: AVG IPC :0.70721: L2-Pf-HR :0.89968: L2-HR :0.88718: (Sim:0h20m21s) 
CPU  0 inst:  274000002 cyc:  384803357 now IPC :1.59072: AVG IPC :0.70866: L2-Pf-HR :0.90012: L2-HR :0.88772: (Sim:0h20m27s) 
CPU  0 inst:  275000002 cyc:  385430347 now IPC :1.59492: AVG IPC :0.71010: L2-Pf-HR :0.90054: L2-HR :0.88824: (Sim:0h20m33s) 
CPU  0 inst:  276000000 cyc:  386054454 now IPC :1.60229: AVG IPC :0.71155: L2-Pf-HR :0.90096: L2-HR :0.88875: (Sim:0h20m39s) 
CPU  0 inst:  277000001 cyc:  386704487 now IPC :1.53839: AVG IPC :0.71294: L2-Pf-HR :0.90130: L2-HR :0.88919: (Sim:0h20m45s) 
CPU  0 inst:  278000001 cyc:  387346688 now IPC :1.55714: AVG IPC :0.71435: L2-Pf-HR :0.90177: L2-HR :0.88974: (Sim:0h20m52s) 
CPU  0 inst:  279000002 cyc:  387992908 now IPC :1.54746: AVG IPC :0.71574: L2-Pf-HR :0.90221: L2-HR :0.89025: (Sim:0h20m58s) 
CPU  0 inst:  280000000 cyc:  388639269 now IPC :1.54712: AVG IPC :0.71712: L2-Pf-HR :0.90264: L2-HR :0.89076: (Sim:0h21m2s) 
CPU  0 inst:  281000002 cyc:  389294862 now IPC :1.52534: AVG IPC :0.71849: L2-Pf-HR :0.90305: L2-HR :0.89125: (Sim:0h21m6s) 
CPU  0 inst:  282000003 cyc:  389980408 now IPC :1.45869: AVG IPC :0.71979: L2-Pf-HR :0.90339: L2-HR :0.89167: (Sim:0h21m10s) 
CPU  0 inst:  283000001 cyc:  390648442 now IPC :1.49693: AVG IPC :0.72112: L2-Pf-HR :0.90377: L2-HR :0.89214: (Sim:0h21m13s) 
CPU  0 inst:  284000000 cyc:  391311790 now IPC :1.50750: AVG IPC :0.72246: L2-Pf-HR :0.90414: L2-HR :0.89260: (Sim:0h21m17s) 
CPU  0 inst:  285000000 cyc:  391978141 now IPC :1.50071: AVG IPC :0.72379: L2-Pf-HR :0.90450: L2-HR :0.89304: (Sim:0h21m21s) 
CPU  0 inst:  286000000 cyc:  392642181 now IPC :1.50593: AVG IPC :0.72511: L2-Pf-HR :0.90476: L2-HR :0.89339: (Sim:0h21m24s) 
CPU  0 inst:  287000002 cyc:  393276724 now IPC :1.57594: AVG IPC :0.72649: L2-Pf-HR :0.90508: L2-HR :0.89380: (Sim:0h21m28s) 
CPU  0 inst:  288000000 cyc:  393907766 now IPC :1.58468: AVG IPC :0.72787: L2-Pf-HR :0.90539: L2-HR :0.89419: (Sim:0h21m32s) 
CPU  0 inst:  289000003 cyc:  394533945 now IPC :1.59699: AVG IPC :0.72925: L2-Pf-HR :0.90569: L2-HR :0.89459: (Sim:0h21m35s) 
CPU  0 inst:  290000003 cyc:  395183586 now IPC :1.53931: AVG IPC :0.73059: L2-Pf-HR :0.90595: L2-HR :0.89493: (Sim:0h21m39s) 
CPU  0 inst:  291000003 cyc:  395810563 now IPC :1.59495: AVG IPC :0.73196: L2-Pf-HR :0.90630: L2-HR :0.89535: (Sim:0h21m43s) 
CPU  0 inst:  292000000 cyc:  396436738 now IPC :1.59699: AVG IPC :0.73333: L2-Pf-HR :0.90665: L2-HR :0.89578: (Sim:0h21m46s) 
CPU  0 inst:  293000002 cyc:  397062985 now IPC :1.59682: AVG IPC :0.73469: L2-Pf-HR :0.90698: L2-HR :0.89619: (Sim:0h21m50s) 
CPU  0 inst:  294000003 cyc:  397711101 now IPC :1.54294: AVG IPC :0.73601: L2-Pf-HR :0.90727: L2-HR :0.89655: (Sim:0h21m53s) 
CPU  0 inst:  295000001 cyc:  398352548 now IPC :1.55897: AVG IPC :0.73734: L2-Pf-HR :0.90762: L2-HR :0.89697: (Sim:0h21m57s) 
CPU  0 inst:  296000000 cyc:  399002088 now IPC :1.53955: AVG IPC :0.73865: L2-Pf-HR :0.90798: L2-HR :0.89739: (Sim:0h22m1s) 
CPU  0 inst:  297000002 cyc:  399653180 now IPC :1.53588: AVG IPC :0.73995: L2-Pf-HR :0.90833: L2-HR :0.89780: (Sim:0h22m4s) 
CPU  0 inst:  298000002 cyc:  400323256 now IPC :1.49237: AVG IPC :0.74122: L2-Pf-HR :0.90861: L2-HR :0.89815: (Sim:0h22m8s) 
CPU  0 inst:  299000001 cyc:  400993387 now IPC :1.49224: AVG IPC :0.74247: L2-Pf-HR :0.90892: L2-HR :0.89852: (Sim:0h22m12s) 
CPU  0 inst:  300000000 cyc:  401668308 now IPC :1.48165: AVG IPC :0.74372: L2-Pf-HR :0.90919: L2-HR :0.89887: (Sim:0h22m15s) 
CPU  0 inst:  301000003 cyc:  402340186 now IPC :1.48837: AVG IPC :0.74497: L2-Pf-HR :0.90948: L2-HR :0.89923: (Sim:0h22m19s) 
CPU  0 inst:  302000001 cyc:  403020173 now IPC :1.47061: AVG IPC :0.74619: L2-Pf-HR :0.90971: L2-HR :0.89953: (Sim:0h22m23s) 
CPU  0 inst:  303000003 cyc:  403657913 now IPC :1.56804: AVG IPC :0.74749: L2-Pf-HR :0.90995: L2-HR :0.89985: (Sim:0h22m27s) 
CPU  0 inst:  304000000 cyc:  404295278 now IPC :1.56895: AVG IPC :0.74879: L2-Pf-HR :0.91019: L2-HR :0.90016: (Sim:0h22m30s) 
CPU  0 inst:  305000003 cyc:  404921999 now IPC :1.59561: AVG IPC :0.75011: L2-Pf-HR :0.91043: L2-HR :0.90048: (Sim:0h22m34s) 
CPU  0 inst:  306000001 cyc:  405564819 now IPC :1.55564: AVG IPC :0.75139: L2-Pf-HR :0.91066: L2-HR :0.90077: (Sim:0h22m37s) 
CPU  0 inst:  307000000 cyc:  406204342 now IPC :1.56366: AVG IPC :0.75267: L2-Pf-HR :0.91090: L2-HR :0.90108: (Sim:0h22m41s) 
CPU  0 inst:  308000000 cyc:  406836809 now IPC :1.58111: AVG IPC :0.75396: L2-Pf-HR :0.91117: L2-HR :0.90142: (Sim:0h22m45s) 
CPU  0 inst:  309000000 cyc:  407464138 now IPC :1.59406: AVG IPC :0.75526: L2-Pf-HR :0.91145: L2-HR :0.90176: (Sim:0h22m48s) 
CPU  0 inst:  310000001 cyc:  408086567 now IPC :1.60661: AVG IPC :0.75656: L2-Pf-HR :0.91173: L2-HR :0.90210: (Sim:0h22m52s) 
CPU  0 inst:  311000001 cyc:  408747069 now IPC :1.51400: AVG IPC :0.75778: L2-Pf-HR :0.91196: L2-HR :0.90239: (Sim:0h22m55s) 
CPU  0 inst:  312000000 cyc:  409391402 now IPC :1.55199: AVG IPC :0.75904: L2-Pf-HR :0.91225: L2-HR :0.90274: (Sim:0h22m59s) 
CPU  0 inst:  313000000 cyc:  410041044 now IPC :1.53931: AVG IPC :0.76028: L2-Pf-HR :0.91254: L2-HR :0.90307: (Sim:0h23m3s) 
CPU  0 inst:  314000001 cyc:  410685168 now IPC :1.55250: AVG IPC :0.76152: L2-Pf-HR :0.91282: L2-HR :0.90341: (Sim:0h23m6s) 
CPU  0 inst:  315000002 cyc:  411371787 now IPC :1.45641: AVG IPC :0.76268: L2-Pf-HR :0.91302: L2-HR :0.90367: (Sim:0h23m11s) 
CPU  0 inst:  316000000 cyc:  412041392 now IPC :1.49341: AVG IPC :0.76387: L2-Pf-HR :0.91324: L2-HR :0.90394: (Sim:0h23m15s) 
CPU  0 inst:  317000000 cyc:  412709760 now IPC :1.49618: AVG IPC :0.76506: L2-Pf-HR :0.91345: L2-HR :0.90421: (Sim:0h23m19s) 
CPU  0 inst:  318000003 cyc:  413373996 now IPC :1.50549: AVG IPC :0.76626: L2-Pf-HR :0.91365: L2-HR :0.90447: (Sim:0h23m22s) 
CPU  0 inst:  319000001 cyc:  414052821 now IPC :1.47313: AVG IPC :0.76742: L2-Pf-HR :0.91379: L2-HR :0.90467: (Sim:0h23m26s) 
CPU  0 inst:  320000000 cyc:  414688529 now IPC :1.57305: AVG IPC :0.76866: L2-Pf-HR :0.91401: L2-HR :0.90495: (Sim:0h23m30s) 
CPU  0 inst:  321000003 cyc:  415318653 now IPC :1.58699: AVG IPC :0.76990: L2-Pf-HR :0.91421: L2-HR :0.90521: (Sim:0h23m33s) 
CPU  0 inst:  322000001 cyc:  415945790 now IPC :1.59454: AVG IPC :0.77115: L2-Pf-HR :0.91441: L2-HR :0.90547: (Sim:0h23m37s) 
CPU  0 inst:  323000000 cyc:  416595005 now IPC :1.54032: AVG IPC :0.77235: L2-Pf-HR :0.91455: L2-HR :0.90567: (Sim:0h23m41s) 
CPU  0 inst:  324000000 cyc:  417226419 now IPC :1.58375: AVG IPC :0.77358: L2-Pf-HR :0.91478: L2-HR :0.90596: (Sim:0h23m44s) 
CPU  0 inst:  325000003 cyc:  417853912 now IPC :1.59365: AVG IPC :0.77481: L2-Pf-HR :0.91501: L2-HR :0.90625: (Sim:0h23m48s) 
CPU  0 inst:  326000000 cyc:  418477639 now IPC :1.60326: AVG IPC :0.77605: L2-Pf-HR :0.91524: L2-HR :0.90653: (Sim:0h23m51s) 
CPU  0 inst:  327000003 cyc:  419111422 now IPC :1.57783: AVG IPC :0.77727: L2-Pf-HR :0.91544: L2-HR :0.90678: (Sim:0h23m57s) 
CPU  0 inst:  328000000 cyc:  419764416 now IPC :1.53140: AVG IPC :0.77844: L2-Pf-HR :0.91567: L2-HR :0.90706: (Sim:0h24m1s) 
Finished CPU 0 instr: 326000001 cyc: 418785137 AVG IPC: 0.77844 (Sim time: 0h24m1s)

ChampSim completed all CPUs

[ROI Statistics]
Core_0_instructions 326000001
Core_0_cycles 418785137
Core_0_IPC 0.77844

Core_0_branch_prediction_accuracy 99.57883
Core_0_branch_MPKI 0.12289
Core_0_average_ROB_occupancy_at_mispredict 237.08824

Core_0_L1D_total_access 222482810
Core_0_L1D_total_hit 203106456 L1D_total_Hit Ratio: 0.91291
Core_0_L1D_total_miss 19376354
Core_0_L1D_loads 89368758
Core_0_L1D_load_hit 80996677 L1D_load_Hit Ratio: 0.90632
Core_0_L1D_load_miss 8372081
Core_0_L1D_RFOs 8572412
Core_0_L1D_RFO_hit 8045744 L1D_RFO_Hit Ratio: 0.93856
Core_0_L1D_RFO_miss 526668
Core_0_L1D_prefetches 124541640
Core_0_L1D_prefetch_hit 114064035 L1D_prefetch_Hit Ratio: 0.91587
Core_0_L1D_prefetch_miss 10477605
Core_0_L1D_writebacks 0
Core_0_L1D_writeback_hit 0 L1D_writeback_Hit Ratio: -nan
Core_0_L1D_writeback_miss 0
Core_0_L1D_prefetch_requested 270912939
Core_0_L1D_prefetch_issued 142536749
Core_0_L1D_prefetch_useful 4193021 L1D_Useful Ratio: 0.02942
Core_0_L1D_prefetch_useless 6312428
Core_0_L1D_prefetch_late 1090687
Core_0_L1D_average_miss_latency 11756014.35302

Core_0_L1I_total_access 83030947
Core_0_L1I_total_hit 83026013 L1I_total_Hit Ratio: 0.99994
Core_0_L1I_total_miss 4934
Core_0_L1I_loads 83030947
Core_0_L1I_load_hit 83026013 L1I_load_Hit Ratio: 0.99994
Core_0_L1I_load_miss 4934
Core_0_L1I_RFOs 0
Core_0_L1I_RFO_hit 0 L1I_RFO_Hit Ratio: -nan
Core_0_L1I_RFO_miss 0
Core_0_L1I_prefetches 0
Core_0_L1I_prefetch_hit 0 L1I_prefetch_Hit Ratio: -nan
Core_0_L1I_prefetch_miss 0
Core_0_L1I_writebacks 0
Core_0_L1I_writeback_hit 0 L1I_writeback_Hit Ratio: -nan
Core_0_L1I_writeback_miss 0
Core_0_L1I_prefetch_requested 0
Core_0_L1I_prefetch_issued 0
Core_0_L1I_prefetch_useful 0 L1I_Useful Ratio: -nan
Core_0_L1I_prefetch_useless 0
Core_0_L1I_prefetch_late 0
Core_0_L1I_average_miss_latency 361.72315

Core_0_L2C_total_access 69424389
Core_0_L2C_total_hit 62971750 L2C_total_Hit Ratio: 0.90706
Core_0_L2C_total_miss 6452639
Core_0_L2C_loads 7287185
Core_0_L2C_load_hit 6376081 L2C_load_Hit Ratio: 0.87497
Core_0_L2C_load_miss 911104
Core_0_L2C_RFOs 526649
Core_0_L2C_RFO_hit 26759 L2C_RFO_Hit Ratio: 0.05081
Core_0_L2C_RFO_miss 499890
Core_0_L2C_prefetches 59672970
Core_0_L2C_prefetch_hit 54640467 L2C_prefetch_Hit Ratio: 0.91567
Core_0_L2C_prefetch_miss 5032503
Core_0_L2C_writebacks 1937585
Core_0_L2C_writeback_hit 1928443 L2C_writeback_Hit Ratio: 0.99528
Core_0_L2C_writeback_miss 9142
Core_0_L2C_prefetch_requested 120395843
Core_0_L2C_prefetch_issued 72996193
Core_0_L2C_prefetch_useful 381713 L2C_Useful Ratio: 0.00523
Core_0_L2C_prefetch_useless 4685349
Core_0_L2C_prefetch_late 9872
Core_0_L2C_average_miss_latency 180.19805

Core_0_LLC_total_access 8437236
Core_0_LLC_total_hit 5025995 LLC_total_Hit Ratio: 0.59569
Core_0_LLC_total_miss 3411241
Core_0_LLC_loads 901236
Core_0_LLC_load_hit 683965 LLC_load_Hit Ratio: 0.75892
Core_0_LLC_load_miss 217271
Core_0_LLC_RFOs 499890
Core_0_LLC_RFO_hit 39 LLC_RFO_Hit Ratio: 0.00008
Core_0_LLC_RFO_miss 499851
Core_0_LLC_prefetches 5108100
Core_0_LLC_prefetch_hit 2414139 LLC_prefetch_Hit Ratio: 0.47261
Core_0_LLC_prefetch_miss 2693961
Core_0_LLC_writebacks 1928010
Core_0_LLC_writeback_hit 1927852 LLC_writeback_Hit Ratio: 0.99992
Core_0_LLC_writeback_miss 158
Core_0_LLC_prefetch_requested 0
Core_0_LLC_prefetch_issued 0
Core_0_LLC_prefetch_useful 449309 LLC_Useful Ratio: inf
Core_0_LLC_prefetch_useless 2234260
Core_0_LLC_prefetch_late 4842
Core_0_LLC_average_miss_latency 296.49615

Core_0_major_page_fault 0
Core_0_minor_page_fault 19454

CPU 0 L1D next line prefetcher final stats
CPU 0 L2C PC-based stride prefetcher final stats
Stride Degree: 15
MK1  MARKOV_LRU_SIZE: 128
MK1  MARKOV_PREDICTION_PERCENTTHRESHOLD: 40.00000
MK1  OUTLIERS_THRESHOLD_Max: 64
MK1  OUTLIERS_THRESHOLD_Min: 32
MK2  MARKOV_LRU_SIZE: 256
MK2  MARKOV_PREDICTION_PERCENTTHRESHOLD: 20.00000
MK2  OUTLIERS_THRESHOLD_Max: 32
MK2  OUTLIERS_THRESHOLD_Min: 16
MK3  MARKOV_LRU_SIZE: 384
MK3  MARKOV_PREDICTION_PERCENTTHRESHOLD: 25.00000
MK3  OUTLIERS_THRESHOLD_Max: 16
MK3  OUTLIERS_THRESHOLD_Min: 8
MK4  MARKOV_LRU_SIZE: 512
MK4  MARKOV_PREDICTION_PERCENTTHRESHOLD: 20.00000
MK4  OUTLIERS_THRESHOLD_Max: 8
MK4  OUTLIERS_THRESHOLD_Min: 0
IPStride Degree/Access Ratio: 2.97212
MK1 IPDEltaMarkov  Degree/Access Ratio: 0.70295
MK2 IPDEltaMarkov  Degree/Access Ratio: 0.97475
MK3 IPDEltaMarkov  Degree/Access Ratio: 0.74509
MK4 IPDEltaMarkov  Degree/Access Ratio: 1.49056
Channel_0_RQ_row_buffer_hit 1762855
Channel_0_RQ_row_buffer_miss 1648138
Channel_0_WQ_row_buffer_hit 420050
Channel_0_WQ_row_buffer_miss 1268669
Channel_0_WQ_full 0
Channel_0_dbus_congested 3192597

avg_congested_cycle 10

EzSearch AVG IPC :0.77844: L2-Pf-HR :0.91567 : L2-HR :0.90706 Uful:0.00523
     > Finished combination: TraceType=777-FE Sim:326000000 Prefetcher=L2029-TOP1_BF-L2-MultiMarkovDelta_ip_stride_v4 L1=next_line
