TRACE: [103000000]_FE_[OPT-2_7B]_[h32]_[s256]_[d80] Warmup: 2000000 NumTraces: 103000000
L1:next_line:L2:029-TOP1_BF-L2-MultiMarkovDelta_ip_stride_v4
*************************************************
   ChampSim Multicore Out-of-Order Simulator
   Last compiled: Oct 26 2024 10:44:32
*************************************************

trace_0 777-FE_comparisonScript_memoryTraces/memTraces[103000000]_FE_[OPT-2_7B]_[h32]_[s256]_[d80].champsim.xz
CPU 0 L1D next line prefetcher
MK1: Size: 128 TMAX: 64 TMIN: 32 MKPTHRESH: 40
MK2: Size: 256 TMAX: 32 TMIN: 16 MKPTHRESH: 20
MK3: Size: 384 TMAX: 16 TMIN: 8 MKPTHRESH: 25
MK4: Size: 512 TMAX: 8 TMIN: 0 MKPTHRESH: 20
Stride Size: 512 Prefetch Degree: 16

CPU 0 L2C prefetcher
MAIN.cc ln 751 stats print skipped
CPU 0 L2C prefetcher initialized


Cache Size: 256
number of cache lines: 4096
CPU  0 inst:    1000001 cyc:     503334 now IPC :1.98675: AVG IPC :1.98675: L2-Pf-HR :0.80676: L2-HR :0.77158: (Sim:0h0m3s) 
CPU  0 inst:    2000002 cyc:     984015 now IPC :2.08038: AVG IPC :2.03249: L2-Pf-HR :0.82911: L2-HR :0.80027: (Sim:0h0m6s) 

Warmup complete CPU  0 instructions:    2000002 cycles:     984015 (Simulation time: 0 hr 0 min 6 sec) 

CPU  0 inst:    3000002 cyc:    1569395 now IPC :1.70829: AVG IPC :1.70829: L2-Pf-HR :0.83783: L2-HR :0.82005: (Sim:0h0m9s) 
CPU  0 inst:    4000000 cyc:    2101604 now IPC :1.87896: AVG IPC :1.78956: L2-Pf-HR :0.84212: L2-HR :0.82467: (Sim:0h0m11s) 
CPU  0 inst:    5000001 cyc:    2688037 now IPC :1.70523: AVG IPC :1.76054: L2-Pf-HR :0.83936: L2-HR :0.82199: (Sim:0h0m14s) 
CPU  0 inst:    6000002 cyc:    3279536 now IPC :1.69062: AVG IPC :1.74252: L2-Pf-HR :0.83796: L2-HR :0.82063: (Sim:0h0m17s) 
CPU  0 inst:    7000001 cyc:    3904839 now IPC :1.59922: AVG IPC :1.71185: L2-Pf-HR :0.83712: L2-HR :0.81964: (Sim:0h0m19s) 
CPU  0 inst:    8000000 cyc:    4505680 now IPC :1.66433: AVG IPC :1.70374: L2-Pf-HR :0.83724: L2-HR :0.81962: (Sim:0h0m22s) 
CPU  0 inst:    9000002 cyc:    5077726 now IPC :1.74811: AVG IPC :1.70994: L2-Pf-HR :0.83607: L2-HR :0.81845: (Sim:0h0m25s) 
CPU  0 inst:   10000001 cyc:    5709466 now IPC :1.58293: AVG IPC :1.69296: L2-Pf-HR :0.83562: L2-HR :0.81788: (Sim:0h0m28s) 
CPU  0 inst:   11000000 cyc:    6335509 now IPC :1.59733: AVG IPC :1.68177: L2-Pf-HR :0.83552: L2-HR :0.81771: (Sim:0h0m30s) 
CPU  0 inst:   12000000 cyc:    6962189 now IPC :1.59571: AVG IPC :1.67275: L2-Pf-HR :0.83550: L2-HR :0.81779: (Sim:0h0m33s) 
CPU  0 inst:   13000003 cyc:    7518159 now IPC :1.79866: AVG IPC :1.68346: L2-Pf-HR :0.83535: L2-HR :0.81761: (Sim:0h0m36s) 
CPU  0 inst:   14000000 cyc:    8146666 now IPC :1.59107: AVG IPC :1.67536: L2-Pf-HR :0.83474: L2-HR :0.81700: (Sim:0h0m38s) 
CPU  0 inst:   15000003 cyc:    8773625 now IPC :1.59501: AVG IPC :1.66889: L2-Pf-HR :0.83451: L2-HR :0.81667: (Sim:0h0m41s) 
CPU  0 inst:   16000000 cyc:    9399597 now IPC :1.59751: AVG IPC :1.66358: L2-Pf-HR :0.83457: L2-HR :0.81672: (Sim:0h0m44s) 
CPU  0 inst:   17000002 cyc:    9942163 now IPC :1.84310: AVG IPC :1.67445: L2-Pf-HR :0.83308: L2-HR :0.81534: (Sim:0h0m47s) 
CPU  0 inst:   18000003 cyc:   10567383 now IPC :1.59944: AVG IPC :1.66956: L2-Pf-HR :0.83155: L2-HR :0.81395: (Sim:0h0m49s) 
CPU  0 inst:   19000001 cyc:   11196077 now IPC :1.59060: AVG IPC :1.66470: L2-Pf-HR :0.83033: L2-HR :0.81288: (Sim:0h0m52s) 
CPU  0 inst:   20000000 cyc:   11819141 now IPC :1.60497: AVG IPC :1.66126: L2-Pf-HR :0.83005: L2-HR :0.81271: (Sim:0h0m55s) 
CPU  0 inst:   21000000 cyc:   12376468 now IPC :1.79428: AVG IPC :1.66777: L2-Pf-HR :0.82978: L2-HR :0.81239: (Sim:0h0m57s) 
CPU  0 inst:   22000003 cyc:   12991302 now IPC :1.62646: AVG IPC :1.66566: L2-Pf-HR :0.82927: L2-HR :0.81195: (Sim:0h1m0s) 
CPU  0 inst:   23000003 cyc:   13616833 now IPC :1.59864: AVG IPC :1.66234: L2-Pf-HR :0.82919: L2-HR :0.81188: (Sim:0h1m3s) 
CPU  0 inst:   24000000 cyc:   14248945 now IPC :1.58199: AVG IPC :1.65851: L2-Pf-HR :0.82879: L2-HR :0.81153: (Sim:0h1m6s) 
CPU  0 inst:   25000002 cyc:   14858746 now IPC :1.63988: AVG IPC :1.65769: L2-Pf-HR :0.82862: L2-HR :0.81140: (Sim:0h1m8s) 
CPU  0 inst:   26000003 cyc:   15421950 now IPC :1.77556: AVG IPC :1.66229: L2-Pf-HR :0.82832: L2-HR :0.81112: (Sim:0h1m11s) 
CPU  0 inst:   27000000 cyc:   16048818 now IPC :1.59523: AVG IPC :1.65950: L2-Pf-HR :0.82792: L2-HR :0.81073: (Sim:0h1m14s) 
CPU  0 inst:   28000000 cyc:   16674221 now IPC :1.59897: AVG IPC :1.65708: L2-Pf-HR :0.82791: L2-HR :0.81070: (Sim:0h1m17s) 
CPU  0 inst:   29000003 cyc:   17304589 now IPC :1.58638: AVG IPC :1.65435: L2-Pf-HR :0.82775: L2-HR :0.81060: (Sim:0h1m20s) 
CPU  0 inst:   30000001 cyc:   17843309 now IPC :1.85625: AVG IPC :1.66080: L2-Pf-HR :0.82757: L2-HR :0.81043: (Sim:0h1m22s) 
CPU  0 inst:   31000000 cyc:   18474011 now IPC :1.58553: AVG IPC :1.65809: L2-Pf-HR :0.82725: L2-HR :0.81015: (Sim:0h1m25s) 
CPU  0 inst:   32000000 cyc:   19101415 now IPC :1.59387: AVG IPC :1.65587: L2-Pf-HR :0.82714: L2-HR :0.81003: (Sim:0h1m28s) 
CPU  0 inst:   33000002 cyc:   19722614 now IPC :1.60979: AVG IPC :1.65434: L2-Pf-HR :0.82729: L2-HR :0.81015: (Sim:0h1m30s) 
CPU  0 inst:   34000000 cyc:   20259230 now IPC :1.86353: AVG IPC :1.66016: L2-Pf-HR :0.82726: L2-HR :0.81012: (Sim:0h1m33s) 
CPU  0 inst:   35000002 cyc:   20883285 now IPC :1.60243: AVG IPC :1.65835: L2-Pf-HR :0.82705: L2-HR :0.80993: (Sim:0h1m36s) 
CPU  0 inst:   36000000 cyc:   21514131 now IPC :1.58517: AVG IPC :1.65610: L2-Pf-HR :0.82685: L2-HR :0.80974: (Sim:0h1m38s) 
CPU  0 inst:   37000000 cyc:   22139577 now IPC :1.59886: AVG IPC :1.65441: L2-Pf-HR :0.82672: L2-HR :0.80962: (Sim:0h1m41s) 
CPU  0 inst:   38000002 cyc:   22725053 now IPC :1.70802: AVG IPC :1.65585: L2-Pf-HR :0.82683: L2-HR :0.80971: (Sim:0h1m44s) 
CPU  0 inst:   39000000 cyc:   23309791 now IPC :1.71016: AVG IPC :1.65728: L2-Pf-HR :0.82669: L2-HR :0.80958: (Sim:0h1m47s) 
CPU  0 inst:   40000000 cyc:   23938468 now IPC :1.59064: AVG IPC :1.65545: L2-Pf-HR :0.82680: L2-HR :0.80969: (Sim:0h1m49s) 
CPU  0 inst:   41000000 cyc:   24569817 now IPC :1.58391: AVG IPC :1.65354: L2-Pf-HR :0.82691: L2-HR :0.80981: (Sim:0h1m52s) 
CPU  0 inst:   42000001 cyc:   25649156 now IPC :0.92649: AVG IPC :1.62172: L2-Pf-HR :0.82523: L2-HR :0.80828: (Sim:0h1m55s) 
CPU  0 inst:   43000001 cyc:   31655256 now IPC :0.16650: AVG IPC :1.33676: L2-Pf-HR :0.80360: L2-HR :0.79408: (Sim:0h2m5s) 
CPU  0 inst:   44000000 cyc:   35450119 now IPC :0.26351: AVG IPC :1.21859: L2-Pf-HR :0.80017: L2-HR :0.79177: (Sim:0h2m10s) 
CPU  0 inst:   45000002 cyc:   38876985 now IPC :0.29181: AVG IPC :1.13478: L2-Pf-HR :0.79931: L2-HR :0.79138: (Sim:0h2m16s) 
CPU  0 inst:   46000002 cyc:   42300404 now IPC :0.29211: AVG IPC :1.06495: L2-Pf-HR :0.79867: L2-HR :0.79118: (Sim:0h2m21s) 
CPU  0 inst:   47000002 cyc:   45723857 now IPC :0.29210: AVG IPC :1.00581: L2-Pf-HR :0.79807: L2-HR :0.79099: (Sim:0h2m26s) 
CPU  0 inst:   48000000 cyc:   49147445 now IPC :0.29209: AVG IPC :0.95508: L2-Pf-HR :0.79745: L2-HR :0.79078: (Sim:0h2m31s) 
CPU  0 inst:   49000002 cyc:   52569656 now IPC :0.29221: AVG IPC :0.91111: L2-Pf-HR :0.79693: L2-HR :0.79065: (Sim:0h2m36s) 
CPU  0 inst:   50000002 cyc:   55992232 now IPC :0.29218: AVG IPC :0.87260: L2-Pf-HR :0.79639: L2-HR :0.79050: (Sim:0h2m42s) 
CPU  0 inst:   51000002 cyc:   59415540 now IPC :0.29212: AVG IPC :0.83859: L2-Pf-HR :0.79584: L2-HR :0.79032: (Sim:0h2m47s) 
CPU  0 inst:   52000000 cyc:   62836668 now IPC :0.29230: AVG IPC :0.80837: L2-Pf-HR :0.79540: L2-HR :0.79023: (Sim:0h2m52s) 
CPU  0 inst:   53000002 cyc:   66260739 now IPC :0.29205: AVG IPC :0.78129: L2-Pf-HR :0.79487: L2-HR :0.79006: (Sim:0h2m57s) 
CPU  0 inst:   54000002 cyc:   69683875 now IPC :0.29213: AVG IPC :0.75692: L2-Pf-HR :0.79437: L2-HR :0.78990: (Sim:0h3m2s) 
CPU  0 inst:   55000002 cyc:   73105918 now IPC :0.29222: AVG IPC :0.73487: L2-Pf-HR :0.79394: L2-HR :0.78980: (Sim:0h3m8s) 
CPU  0 inst:   56000000 cyc:   76529941 now IPC :0.29205: AVG IPC :0.71480: L2-Pf-HR :0.79340: L2-HR :0.78960: (Sim:0h3m13s) 
CPU  0 inst:   57000002 cyc:   79954507 now IPC :0.29201: AVG IPC :0.69646: L2-Pf-HR :0.79284: L2-HR :0.78937: (Sim:0h3m18s) 
CPU  0 inst:   58000002 cyc:   83378618 now IPC :0.29205: AVG IPC :0.67966: L2-Pf-HR :0.79232: L2-HR :0.78918: (Sim:0h3m23s) 
CPU  0 inst:   59000002 cyc:   86802236 now IPC :0.29209: AVG IPC :0.66419: L2-Pf-HR :0.79188: L2-HR :0.78904: (Sim:0h3m28s) 
CPU  0 inst:   60000000 cyc:   89449802 now IPC :0.37770: AVG IPC :0.65562: L2-Pf-HR :0.79120: L2-HR :0.78842: (Sim:0h3m33s) 
CPU  0 inst:   61000002 cyc:   90071543 now IPC :1.60839: AVG IPC :0.66227: L2-Pf-HR :0.79199: L2-HR :0.78922: (Sim:0h3m36s) 
CPU  0 inst:   62000003 cyc:   90698525 now IPC :1.59494: AVG IPC :0.66879: L2-Pf-HR :0.79313: L2-HR :0.79033: (Sim:0h3m38s) 
CPU  0 inst:   63000002 cyc:   91391556 now IPC :1.44294: AVG IPC :0.67472: L2-Pf-HR :0.79345: L2-HR :0.79071: (Sim:0h3m41s) 
CPU  0 inst:   64000000 cyc:   92045642 now IPC :1.52885: AVG IPC :0.68086: L2-Pf-HR :0.79367: L2-HR :0.79098: (Sim:0h3m44s) 
CPU  0 inst:   65000003 cyc:   92592454 now IPC :1.82879: AVG IPC :0.68771: L2-Pf-HR :0.79481: L2-HR :0.79208: (Sim:0h3m47s) 
CPU  0 inst:   66000002 cyc:   93217867 now IPC :1.59894: AVG IPC :0.69389: L2-Pf-HR :0.79525: L2-HR :0.79256: (Sim:0h3m50s) 
CPU  0 inst:   67000001 cyc:   93873093 now IPC :1.52619: AVG IPC :0.69976: L2-Pf-HR :0.79541: L2-HR :0.79276: (Sim:0h3m52s) 
CPU  0 inst:   68000000 cyc:   94501598 now IPC :1.59108: AVG IPC :0.70575: L2-Pf-HR :0.79568: L2-HR :0.79307: (Sim:0h3m55s) 
CPU  0 inst:   69000000 cyc:   95038937 now IPC :1.86102: AVG IPC :0.71235: L2-Pf-HR :0.79688: L2-HR :0.79424: (Sim:0h3m58s) 
CPU  0 inst:   70000003 cyc:   95687609 now IPC :1.54162: AVG IPC :0.71803: L2-Pf-HR :0.79712: L2-HR :0.79452: (Sim:0h4m1s) 
CPU  0 inst:   71000001 cyc:   96334738 now IPC :1.54528: AVG IPC :0.72364: L2-Pf-HR :0.79714: L2-HR :0.79460: (Sim:0h4m3s) 
CPU  0 inst:   72000000 cyc:   96917217 now IPC :1.71680: AVG IPC :0.72967: L2-Pf-HR :0.79759: L2-HR :0.79506: (Sim:0h4m6s) 
CPU  0 inst:   73000000 cyc:   97508684 now IPC :1.69071: AVG IPC :0.73556: L2-Pf-HR :0.79826: L2-HR :0.79572: (Sim:0h4m9s) 
CPU  0 inst:   74000003 cyc:   98147542 now IPC :1.56530: AVG IPC :0.74102: L2-Pf-HR :0.79833: L2-HR :0.79585: (Sim:0h4m12s) 
CPU  0 inst:   75000000 cyc:   98777748 now IPC :1.58678: AVG IPC :0.74647: L2-Pf-HR :0.79855: L2-HR :0.79613: (Sim:0h4m14s) 
CPU  0 inst:   76000000 cyc:   99322094 now IPC :1.83707: AVG IPC :0.75251: L2-Pf-HR :0.79941: L2-HR :0.79695: (Sim:0h4m17s) 
CPU  0 inst:   77000003 cyc:   99961110 now IPC :1.56491: AVG IPC :0.75775: L2-Pf-HR :0.79967: L2-HR :0.79725: (Sim:0h4m20s) 
CPU  0 inst:   78000001 cyc:  100606002 now IPC :1.55064: AVG IPC :0.76288: L2-Pf-HR :0.79969: L2-HR :0.79730: (Sim:0h4m23s) 
CPU  0 inst:   79000000 cyc:  101230239 now IPC :1.60195: AVG IPC :0.76811: L2-Pf-HR :0.79980: L2-HR :0.79746: (Sim:0h4m25s) 
CPU  0 inst:   80000000 cyc:  101768522 now IPC :1.85776: AVG IPC :0.77393: L2-Pf-HR :0.80073: L2-HR :0.79838: (Sim:0h4m28s) 
CPU  0 inst:   81000002 cyc:  102409605 now IPC :1.55986: AVG IPC :0.77890: L2-Pf-HR :0.80076: L2-HR :0.79845: (Sim:0h4m31s) 
CPU  0 inst:   82000002 cyc:  103050269 now IPC :1.56088: AVG IPC :0.78380: L2-Pf-HR :0.80087: L2-HR :0.79861: (Sim:0h4m34s) 
CPU  0 inst:   83000000 cyc:  103630600 now IPC :1.72315: AVG IPC :0.78912: L2-Pf-HR :0.80128: L2-HR :0.79902: (Sim:0h4m36s) 
CPU  0 inst:   84000000 cyc:  104228505 now IPC :1.67251: AVG IPC :0.79423: L2-Pf-HR :0.80194: L2-HR :0.79967: (Sim:0h4m39s) 
CPU  0 inst:   85000003 cyc:  104869136 now IPC :1.56097: AVG IPC :0.79896: L2-Pf-HR :0.80201: L2-HR :0.79977: (Sim:0h4m42s) 
CPU  0 inst:   86000000 cyc:  105498906 now IPC :1.58788: AVG IPC :0.80371: L2-Pf-HR :0.80212: L2-HR :0.79991: (Sim:0h4m45s) 
CPU  0 inst:   87000000 cyc:  106044038 now IPC :1.83442: AVG IPC :0.80906: L2-Pf-HR :0.80278: L2-HR :0.80055: (Sim:0h4m47s) 
CPU  0 inst:   88000000 cyc:  106678175 now IPC :1.57695: AVG IPC :0.81367: L2-Pf-HR :0.80296: L2-HR :0.80075: (Sim:0h4m50s) 
CPU  0 inst:   89000001 cyc:  107312650 now IPC :1.57611: AVG IPC :0.81822: L2-Pf-HR :0.80299: L2-HR :0.80082: (Sim:0h4m53s) 
CPU  0 inst:   90000003 cyc:  107946505 now IPC :1.57765: AVG IPC :0.82272: L2-Pf-HR :0.80303: L2-HR :0.80088: (Sim:0h4m56s) 
CPU  0 inst:   91000001 cyc:  108480587 now IPC :1.87237: AVG IPC :0.82793: L2-Pf-HR :0.80386: L2-HR :0.80169: (Sim:0h4m58s) 
CPU  0 inst:   92000000 cyc:  109127030 now IPC :1.54693: AVG IPC :0.83223: L2-Pf-HR :0.80388: L2-HR :0.80173: (Sim:0h5m1s) 
CPU  0 inst:   93000002 cyc:  109774820 now IPC :1.54371: AVG IPC :0.83647: L2-Pf-HR :0.80393: L2-HR :0.80182: (Sim:0h5m4s) 
CPU  0 inst:   94000003 cyc:  110346198 now IPC :1.75016: AVG IPC :0.84124: L2-Pf-HR :0.80422: L2-HR :0.80211: (Sim:0h5m6s) 
CPU  0 inst:   95000000 cyc:  110952599 now IPC :1.64907: AVG IPC :0.84570: L2-Pf-HR :0.80459: L2-HR :0.80248: (Sim:0h5m9s) 
CPU  0 inst:   96000000 cyc:  111588956 now IPC :1.57144: AVG IPC :0.84987: L2-Pf-HR :0.80455: L2-HR :0.80247: (Sim:0h5m11s) 
CPU  0 inst:   97000003 cyc:  112220412 now IPC :1.58365: AVG IPC :0.85404: L2-Pf-HR :0.80459: L2-HR :0.80254: (Sim:0h5m14s) 
CPU  0 inst:   98000000 cyc:  112764866 now IPC :1.83670: AVG IPC :0.85882: L2-Pf-HR :0.80522: L2-HR :0.80315: (Sim:0h5m17s) 
CPU  0 inst:   99000003 cyc:  113394148 now IPC :1.58912: AVG IPC :0.86291: L2-Pf-HR :0.80532: L2-HR :0.80327: (Sim:0h5m19s) 
CPU  0 inst:  100000000 cyc:  114052089 now IPC :1.51989: AVG IPC :0.86673: L2-Pf-HR :0.80535: L2-HR :0.80332: (Sim:0h5m22s) 
Finished CPU 0 instr: 98000002 cyc: 113068094 AVG IPC: 0.86673 (Sim time: 0h5m22s)

ChampSim completed all CPUs

[ROI Statistics]
Core_0_instructions 98000002
Core_0_cycles 113068094
Core_0_IPC 0.86673

Core_0_branch_prediction_accuracy 98.32538
Core_0_branch_MPKI 0.51239
Core_0_average_ROB_occupancy_at_mispredict 220.60304

Core_0_L1D_total_access 62529092
Core_0_L1D_total_hit 59923170 L1D_total_Hit Ratio: 0.95832
Core_0_L1D_total_miss 2605922
Core_0_L1D_loads 22986129
Core_0_L1D_load_hit 21811846 L1D_load_Hit Ratio: 0.94891
Core_0_L1D_load_miss 1174283
Core_0_L1D_RFOs 2939946
Core_0_L1D_RFO_hit 2801148 L1D_RFO_Hit Ratio: 0.95279
Core_0_L1D_RFO_miss 138798
Core_0_L1D_prefetches 36603017
Core_0_L1D_prefetch_hit 35310176 L1D_prefetch_Hit Ratio: 0.96468
Core_0_L1D_prefetch_miss 1292841
Core_0_L1D_writebacks 0
Core_0_L1D_writeback_hit 0 L1D_writeback_Hit Ratio: -nan
Core_0_L1D_writeback_miss 0
Core_0_L1D_prefetch_requested 71304150
Core_0_L1D_prefetch_issued 44254300
Core_0_L1D_prefetch_useful 1119608 L1D_Useful Ratio: 0.02530
Core_0_L1D_prefetch_useless 200692
Core_0_L1D_prefetch_late 335976
Core_0_L1D_average_miss_latency 9021977.89981

Core_0_L1I_total_access 23255750
Core_0_L1I_total_hit 23250973 L1I_total_Hit Ratio: 0.99979
Core_0_L1I_total_miss 4777
Core_0_L1I_loads 23255750
Core_0_L1I_load_hit 23250973 L1I_load_Hit Ratio: 0.99979
Core_0_L1I_load_miss 4777
Core_0_L1I_RFOs 0
Core_0_L1I_RFO_hit 0 L1I_RFO_Hit Ratio: -nan
Core_0_L1I_RFO_miss 0
Core_0_L1I_prefetches 0
Core_0_L1I_prefetch_hit 0 L1I_prefetch_Hit Ratio: -nan
Core_0_L1I_prefetch_miss 0
Core_0_L1I_writebacks 0
Core_0_L1I_writeback_hit 0 L1I_writeback_Hit Ratio: -nan
Core_0_L1I_writeback_miss 0
Core_0_L1I_prefetch_requested 0
Core_0_L1I_prefetch_issued 0
Core_0_L1I_prefetch_useful 0 L1I_Useful Ratio: -nan
Core_0_L1I_prefetch_useless 0
Core_0_L1I_prefetch_late 0
Core_0_L1I_average_miss_latency 325.46159

Core_0_L2C_total_access 11290365
Core_0_L2C_total_hit 9069792 L2C_total_Hit Ratio: 0.80332
Core_0_L2C_total_miss 2220573
Core_0_L2C_loads 843891
Core_0_L2C_load_hit 543971 L2C_load_Hit Ratio: 0.64460
Core_0_L2C_load_miss 299920
Core_0_L2C_RFOs 138769
Core_0_L2C_RFO_hit 97892 L2C_RFO_Hit Ratio: 0.70543
Core_0_L2C_RFO_miss 40877
Core_0_L2C_prefetches 9618453
Core_0_L2C_prefetch_hit 7746226 L2C_prefetch_Hit Ratio: 0.80535
Core_0_L2C_prefetch_miss 1872227
Core_0_L2C_writebacks 689252
Core_0_L2C_writeback_hit 681703 L2C_writeback_Hit Ratio: 0.98905
Core_0_L2C_writeback_miss 7549
Core_0_L2C_prefetch_requested 17083041
Core_0_L2C_prefetch_issued 13238829
Core_0_L2C_prefetch_useful 420461 L2C_Useful Ratio: 0.03176
Core_0_L2C_prefetch_useless 1480426
Core_0_L2C_prefetch_late 25442
Core_0_L2C_average_miss_latency 144.77907

Core_0_LLC_total_access 2940849
Core_0_LLC_total_hit 2130933 LLC_total_Hit Ratio: 0.72460
Core_0_LLC_total_miss 809916
Core_0_LLC_loads 274484
Core_0_LLC_load_hit 194675 LLC_load_Hit Ratio: 0.70924
Core_0_LLC_load_miss 79809
Core_0_LLC_RFOs 40874
Core_0_LLC_RFO_hit 11728 LLC_RFO_Hit Ratio: 0.28693
Core_0_LLC_RFO_miss 29146
Core_0_LLC_prefetches 1961552
Core_0_LLC_prefetch_hit 1261266 LLC_prefetch_Hit Ratio: 0.64299
Core_0_LLC_prefetch_miss 700286
Core_0_LLC_writebacks 663939
Core_0_LLC_writeback_hit 663264 LLC_writeback_Hit Ratio: 0.99898
Core_0_LLC_writeback_miss 675
Core_0_LLC_prefetch_requested 0
Core_0_LLC_prefetch_issued 0
Core_0_LLC_prefetch_useful 134590 LLC_Useful Ratio: inf
Core_0_LLC_prefetch_useless 558344
Core_0_LLC_prefetch_late 9880
Core_0_LLC_average_miss_latency 351.27257

Core_0_major_page_fault 0
Core_0_minor_page_fault 7592

CPU 0 L1D next line prefetcher final stats
CPU 0 L2C PC-based stride prefetcher final stats
Stride Degree: 16
MK1  MARKOV_LRU_SIZE: 128
MK1  MARKOV_PREDICTION_PERCENTTHRESHOLD: 40.00000
MK1  OUTLIERS_THRESHOLD_Max: 64
MK1  OUTLIERS_THRESHOLD_Min: 32
MK2  MARKOV_LRU_SIZE: 256
MK2  MARKOV_PREDICTION_PERCENTTHRESHOLD: 20.00000
MK2  OUTLIERS_THRESHOLD_Max: 32
MK2  OUTLIERS_THRESHOLD_Min: 16
MK3  MARKOV_LRU_SIZE: 384
MK3  MARKOV_PREDICTION_PERCENTTHRESHOLD: 25.00000
MK3  OUTLIERS_THRESHOLD_Max: 16
MK3  OUTLIERS_THRESHOLD_Min: 8
MK4  MARKOV_LRU_SIZE: 512
MK4  MARKOV_PREDICTION_PERCENTTHRESHOLD: 20.00000
MK4  OUTLIERS_THRESHOLD_Max: 8
MK4  OUTLIERS_THRESHOLD_Min: 0
IPStride Degree/Access Ratio: 4.91663
MK1 IPDEltaMarkov  Degree/Access Ratio: 0.16396
MK2 IPDEltaMarkov  Degree/Access Ratio: 0.41309
MK3 IPDEltaMarkov  Degree/Access Ratio: 0.65836
MK4 IPDEltaMarkov  Degree/Access Ratio: 1.41378
Channel_0_RQ_row_buffer_hit 454726
Channel_0_RQ_row_buffer_miss 354515
Channel_0_WQ_row_buffer_hit 150855
Channel_0_WQ_row_buffer_miss 277708
Channel_0_WQ_full 0
Channel_0_dbus_congested 955819

avg_congested_cycle 11

EzSearch AVG IPC :0.86673: L2-Pf-HR :0.80535 : L2-HR :0.80332 Uful:0.03176
     > Finished combination: TraceType=777-FE Sim:98000000 Prefetcher=L2029-TOP1_BF-L2-MultiMarkovDelta_ip_stride_v4 L1=next_line
