TRACE: [597000000][OPT-6_7B]_[h32][s512][d128] Warmup: 2000000 NumTraces: 597000000
L1:next_line:L2:029-TOP1_BF-L2-MultiMarkovDelta_ip_stride_v4
*************************************************
   ChampSim Multicore Out-of-Order Simulator
   Last compiled: Oct 26 2024 07:34:58
*************************************************

trace_0 777-FE_comparisonScript_memoryTraces/memTraces[597000000][OPT-6_7B]_[h32][s512][d128].champsim.xz
CPU 0 L1D next line prefetcher
MK1: Size: 128 TMAX: 64 TMIN: 32 MKPTHRESH: 40
MK2: Size: 256 TMAX: 32 TMIN: 16 MKPTHRESH: 30
MK3: Size: 384 TMAX: 16 TMIN: 8 MKPTHRESH: 25
MK4: Size: 512 TMAX: 8 TMIN: 0 MKPTHRESH: 20
Stride Size: 512 Prefetch Degree: 16

CPU 0 L2C prefetcher
MAIN.cc ln 751 stats print skipped
CPU 0 L2C prefetcher initialized


Cache Size: 256
number of cache lines: 4096
CPU  0 inst:    1000000 cyc:     503467 now IPC :1.98623: AVG IPC :1.98623: L2-Pf-HR :0.74424: L2-HR :0.72847: (Sim:0h0m5s) 
CPU  0 inst:    2000000 cyc:     980160 now IPC :2.09779: AVG IPC :2.04048: L2-Pf-HR :0.76196: L2-HR :0.74461: (Sim:0h0m9s) 

Warmup complete CPU  0 instructions:    2000001 cycles:     980161 (Simulation time: 0 hr 0 min 9 sec) 

CPU  0 inst:    3000002 cyc:    1522245 now IPC :1.84473: AVG IPC :1.84473: L2-Pf-HR :0.74699: L2-HR :0.73703: (Sim:0h0m13s) 
CPU  0 inst:    4000000 cyc:    2059491 now IPC :1.86134: AVG IPC :1.85300: L2-Pf-HR :0.74990: L2-HR :0.74014: (Sim:0h0m16s) 
CPU  0 inst:    5000000 cyc:    2600064 now IPC :1.84989: AVG IPC :1.85196: L2-Pf-HR :0.75194: L2-HR :0.74188: (Sim:0h0m20s) 
CPU  0 inst:    6000001 cyc:    3146113 now IPC :1.83134: AVG IPC :1.84676: L2-Pf-HR :0.75305: L2-HR :0.74325: (Sim:0h0m24s) 
CPU  0 inst:    7000003 cyc:    3720018 now IPC :1.74245: AVG IPC :1.82491: L2-Pf-HR :0.77385: L2-HR :0.76360: (Sim:0h0m28s) 
CPU  0 inst:    8000000 cyc:    4233135 now IPC :1.94887: AVG IPC :1.84447: L2-Pf-HR :0.79442: L2-HR :0.78331: (Sim:0h0m33s) 
CPU  0 inst:    9000001 cyc:    4894628 now IPC :1.51173: AVG IPC :1.78824: L2-Pf-HR :0.79223: L2-HR :0.78188: (Sim:0h0m37s) 
CPU  0 inst:   10000002 cyc:    5433797 now IPC :1.85471: AVG IPC :1.79629: L2-Pf-HR :0.79024: L2-HR :0.77969: (Sim:0h0m40s) 
CPU  0 inst:   11000002 cyc:    5980889 now IPC :1.82785: AVG IPC :1.79974: L2-Pf-HR :0.78768: L2-HR :0.77695: (Sim:0h0m43s) 
CPU  0 inst:   12000000 cyc:    6520874 now IPC :1.85190: AVG IPC :1.80482: L2-Pf-HR :0.78643: L2-HR :0.77559: (Sim:0h0m46s) 
CPU  0 inst:   13000002 cyc:    7067296 now IPC :1.83009: AVG IPC :1.80709: L2-Pf-HR :0.78589: L2-HR :0.77490: (Sim:0h0m49s) 
CPU  0 inst:   14000000 cyc:    7608891 now IPC :1.84639: AVG IPC :1.81030: L2-Pf-HR :0.78594: L2-HR :0.77483: (Sim:0h0m52s) 
CPU  0 inst:   15000002 cyc:    8209790 now IPC :1.66418: AVG IPC :1.79816: L2-Pf-HR :0.79041: L2-HR :0.77929: (Sim:0h0m57s) 
CPU  0 inst:   16000000 cyc:    8725241 now IPC :1.94004: AVG IPC :1.80760: L2-Pf-HR :0.79746: L2-HR :0.78609: (Sim:0h1m1s) 
CPU  0 inst:   17000001 cyc:    9421656 now IPC :1.43593: AVG IPC :1.77694: L2-Pf-HR :0.79657: L2-HR :0.78551: (Sim:0h1m5s) 
CPU  0 inst:   18000003 cyc:    9965064 now IPC :1.84024: AVG IPC :1.78077: L2-Pf-HR :0.79581: L2-HR :0.78464: (Sim:0h1m8s) 
CPU  0 inst:   19000002 cyc:   10502593 now IPC :1.86036: AVG IPC :1.78526: L2-Pf-HR :0.79424: L2-HR :0.78305: (Sim:0h1m11s) 
CPU  0 inst:   20000000 cyc:   11047452 now IPC :1.83533: AVG IPC :1.78797: L2-Pf-HR :0.79350: L2-HR :0.78221: (Sim:0h1m15s) 
CPU  0 inst:   21000002 cyc:   11589024 now IPC :1.84648: AVG IPC :1.79096: L2-Pf-HR :0.79287: L2-HR :0.78152: (Sim:0h1m19s) 
CPU  0 inst:   22000002 cyc:   12128240 now IPC :1.85454: AVG IPC :1.79403: L2-Pf-HR :0.79334: L2-HR :0.78187: (Sim:0h1m23s) 
CPU  0 inst:   23000000 cyc:   12726919 now IPC :1.67034: AVG IPC :1.78773: L2-Pf-HR :0.79572: L2-HR :0.78426: (Sim:0h1m27s) 
CPU  0 inst:   24000000 cyc:   13243156 now IPC :1.93709: AVG IPC :1.79402: L2-Pf-HR :0.80020: L2-HR :0.78853: (Sim:0h1m32s) 
CPU  0 inst:   25000001 cyc:   13955594 now IPC :1.40363: AVG IPC :1.77258: L2-Pf-HR :0.80000: L2-HR :0.78853: (Sim:0h1m36s) 
CPU  0 inst:   26000001 cyc:   14497152 now IPC :1.84652: AVG IPC :1.77554: L2-Pf-HR :0.79950: L2-HR :0.78795: (Sim:0h1m40s) 
CPU  0 inst:   27000002 cyc:   15032642 now IPC :1.86745: AVG IPC :1.77905: L2-Pf-HR :0.79885: L2-HR :0.78727: (Sim:0h1m45s) 
CPU  0 inst:   28000000 cyc:   15578379 now IPC :1.83238: AVG IPC :1.78104: L2-Pf-HR :0.79835: L2-HR :0.78671: (Sim:0h1m49s) 
CPU  0 inst:   29000003 cyc:   16127061 now IPC :1.82255: AVG IPC :1.78254: L2-Pf-HR :0.79775: L2-HR :0.78606: (Sim:0h1m53s) 
CPU  0 inst:   30000002 cyc:   16670405 now IPC :1.84045: AVG IPC :1.78455: L2-Pf-HR :0.79788: L2-HR :0.78613: (Sim:0h1m57s) 
CPU  0 inst:   31000002 cyc:   17267183 now IPC :1.67567: AVG IPC :1.78056: L2-Pf-HR :0.79950: L2-HR :0.78776: (Sim:0h2m2s) 
CPU  0 inst:   32000000 cyc:   17782905 now IPC :1.93903: AVG IPC :1.78542: L2-Pf-HR :0.80254: L2-HR :0.79068: (Sim:0h2m6s) 
CPU  0 inst:   33000002 cyc:   18485038 now IPC :1.42423: AVG IPC :1.77094: L2-Pf-HR :0.80251: L2-HR :0.79078: (Sim:0h2m10s) 
CPU  0 inst:   34000000 cyc:   19026836 now IPC :1.84570: AVG IPC :1.77318: L2-Pf-HR :0.80187: L2-HR :0.79011: (Sim:0h2m15s) 
CPU  0 inst:   35000002 cyc:   19565918 now IPC :1.85501: AVG IPC :1.77555: L2-Pf-HR :0.80136: L2-HR :0.78958: (Sim:0h2m19s) 
CPU  0 inst:   36000000 cyc:   20111882 now IPC :1.83162: AVG IPC :1.77715: L2-Pf-HR :0.80089: L2-HR :0.78907: (Sim:0h2m24s) 
CPU  0 inst:   37000002 cyc:   20650815 now IPC :1.85552: AVG IPC :1.77930: L2-Pf-HR :0.80044: L2-HR :0.78860: (Sim:0h2m28s) 
CPU  0 inst:   38000001 cyc:   21198454 now IPC :1.82602: AVG IPC :1.78057: L2-Pf-HR :0.80055: L2-HR :0.78865: (Sim:0h2m32s) 
CPU  0 inst:   39000001 cyc:   21796550 now IPC :1.67197: AVG IPC :1.77745: L2-Pf-HR :0.80150: L2-HR :0.78962: (Sim:0h2m37s) 
CPU  0 inst:   40000000 cyc:   22311879 now IPC :1.94051: AVG IPC :1.78138: L2-Pf-HR :0.80380: L2-HR :0.79183: (Sim:0h2m41s) 
CPU  0 inst:   41000003 cyc:   23000441 now IPC :1.45231: AVG IPC :1.77109: L2-Pf-HR :0.80378: L2-HR :0.79190: (Sim:0h2m46s) 
CPU  0 inst:   42000000 cyc:   23536483 now IPC :1.86552: AVG IPC :1.77334: L2-Pf-HR :0.80333: L2-HR :0.79144: (Sim:0h2m50s) 
CPU  0 inst:   43000001 cyc:   24080387 now IPC :1.83856: AVG IPC :1.77487: L2-Pf-HR :0.80293: L2-HR :0.79101: (Sim:0h2m55s) 
CPU  0 inst:   44000000 cyc:   24624288 now IPC :1.83857: AVG IPC :1.77634: L2-Pf-HR :0.80244: L2-HR :0.79048: (Sim:0h2m59s) 
CPU  0 inst:   45000002 cyc:   25165442 now IPC :1.84791: AVG IPC :1.77794: L2-Pf-HR :0.80201: L2-HR :0.79005: (Sim:0h3m3s) 
CPU  0 inst:   46000001 cyc:   25714318 now IPC :1.82190: AVG IPC :1.77892: L2-Pf-HR :0.80205: L2-HR :0.79003: (Sim:0h3m8s) 
CPU  0 inst:   47000002 cyc:   26313669 now IPC :1.66847: AVG IPC :1.77630: L2-Pf-HR :0.80274: L2-HR :0.79076: (Sim:0h3m12s) 
CPU  0 inst:   48000000 cyc:   26828552 now IPC :1.94218: AVG IPC :1.77961: L2-Pf-HR :0.80466: L2-HR :0.79264: (Sim:0h3m17s) 
CPU  0 inst:   49000000 cyc:   27515000 now IPC :1.45677: AVG IPC :1.77126: L2-Pf-HR :0.80474: L2-HR :0.79281: (Sim:0h3m21s) 
CPU  0 inst:   50000000 cyc:   28049739 now IPC :1.87007: AVG IPC :1.77321: L2-Pf-HR :0.80443: L2-HR :0.79249: (Sim:0h3m25s) 
CPU  0 inst:   51000002 cyc:   28595230 now IPC :1.83321: AVG IPC :1.77439: L2-Pf-HR :0.80404: L2-HR :0.79206: (Sim:0h3m30s) 
CPU  0 inst:   52000000 cyc:   29140542 now IPC :1.83381: AVG IPC :1.77554: L2-Pf-HR :0.80357: L2-HR :0.79157: (Sim:0h3m34s) 
CPU  0 inst:   53000002 cyc:   29681972 now IPC :1.84696: AVG IPC :1.77689: L2-Pf-HR :0.80328: L2-HR :0.79128: (Sim:0h3m38s) 
CPU  0 inst:   54000001 cyc:   30231231 now IPC :1.82063: AVG IPC :1.77771: L2-Pf-HR :0.80326: L2-HR :0.79120: (Sim:0h3m43s) 
CPU  0 inst:   55000003 cyc:   30828577 now IPC :1.67408: AVG IPC :1.77564: L2-Pf-HR :0.80376: L2-HR :0.79174: (Sim:0h3m47s) 
CPU  0 inst:   56000000 cyc:   31343767 now IPC :1.94103: AVG IPC :1.77844: L2-Pf-HR :0.80539: L2-HR :0.79334: (Sim:0h3m51s) 
CPU  0 inst:   57000002 cyc:   32036154 now IPC :1.44428: AVG IPC :1.77099: L2-Pf-HR :0.80540: L2-HR :0.79343: (Sim:0h3m56s) 
CPU  0 inst:   58000002 cyc:   32574051 now IPC :1.85909: AVG IPC :1.77249: L2-Pf-HR :0.80514: L2-HR :0.79317: (Sim:0h4m0s) 
CPU  0 inst:   59000000 cyc:   33114030 now IPC :1.85192: AVG IPC :1.77383: L2-Pf-HR :0.80480: L2-HR :0.79280: (Sim:0h4m5s) 
CPU  0 inst:   60000000 cyc:   33651107 now IPC :1.86193: AVG IPC :1.77528: L2-Pf-HR :0.80438: L2-HR :0.79238: (Sim:0h4m9s) 
CPU  0 inst:   61000003 cyc:   34198157 now IPC :1.82799: AVG IPC :1.77615: L2-Pf-HR :0.80413: L2-HR :0.79209: (Sim:0h4m13s) 
CPU  0 inst:   62000001 cyc:   34744394 now IPC :1.83070: AVG IPC :1.77703: L2-Pf-HR :0.80403: L2-HR :0.79196: (Sim:0h4m18s) 
CPU  0 inst:   63000003 cyc:   35344409 now IPC :1.66663: AVG IPC :1.77510: L2-Pf-HR :0.80446: L2-HR :0.79240: (Sim:0h4m22s) 
CPU  0 inst:   64000000 cyc:   35859270 now IPC :1.94227: AVG IPC :1.77757: L2-Pf-HR :0.80576: L2-HR :0.79364: (Sim:0h4m26s) 
CPU  0 inst:   65000002 cyc:   36561827 now IPC :1.42337: AVG IPC :1.77057: L2-Pf-HR :0.80572: L2-HR :0.79368: (Sim:0h4m31s) 
CPU  0 inst:   66000000 cyc:   37109470 now IPC :1.82600: AVG IPC :1.77141: L2-Pf-HR :0.80555: L2-HR :0.79349: (Sim:0h4m35s) 
CPU  0 inst:   67000003 cyc:   37648096 now IPC :1.85658: AVG IPC :1.77267: L2-Pf-HR :0.80521: L2-HR :0.79314: (Sim:0h4m40s) 
CPU  0 inst:   68000000 cyc:   38185893 now IPC :1.85943: AVG IPC :1.77392: L2-Pf-HR :0.80489: L2-HR :0.79281: (Sim:0h4m44s) 
CPU  0 inst:   69000003 cyc:   38732374 now IPC :1.82990: AVG IPC :1.77473: L2-Pf-HR :0.80468: L2-HR :0.79256: (Sim:0h4m48s) 
CPU  0 inst:   70000001 cyc:   39270224 now IPC :1.85925: AVG IPC :1.77592: L2-Pf-HR :0.80455: L2-HR :0.79243: (Sim:0h4m52s) 
CPU  0 inst:   71000003 cyc:   39874541 now IPC :1.65476: AVG IPC :1.77404: L2-Pf-HR :0.80497: L2-HR :0.79286: (Sim:0h4m57s) 
CPU  0 inst:   72000000 cyc:   40389064 now IPC :1.94354: AVG IPC :1.77625: L2-Pf-HR :0.80627: L2-HR :0.79413: (Sim:0h5m1s) 
CPU  0 inst:   73000003 cyc:   41076232 now IPC :1.45525: AVG IPC :1.77075: L2-Pf-HR :0.80638: L2-HR :0.79430: (Sim:0h5m6s) 
CPU  0 inst:   74000001 cyc:   41611479 now IPC :1.86829: AVG IPC :1.77203: L2-Pf-HR :0.80620: L2-HR :0.79410: (Sim:0h5m10s) 
CPU  0 inst:   75000003 cyc:   42159775 now IPC :1.82384: AVG IPC :1.77272: L2-Pf-HR :0.80590: L2-HR :0.79378: (Sim:0h5m14s) 
CPU  0 inst:   76000000 cyc:   42699140 now IPC :1.85403: AVG IPC :1.77377: L2-Pf-HR :0.80566: L2-HR :0.79353: (Sim:0h5m19s) 
CPU  0 inst:   77000001 cyc:   43239144 now IPC :1.85184: AVG IPC :1.77477: L2-Pf-HR :0.80546: L2-HR :0.79330: (Sim:0h5m23s) 
CPU  0 inst:   78000001 cyc:   43782563 now IPC :1.84020: AVG IPC :1.77560: L2-Pf-HR :0.80535: L2-HR :0.79318: (Sim:0h5m27s) 
CPU  0 inst:   79000002 cyc:   44385628 now IPC :1.65820: AVG IPC :1.77397: L2-Pf-HR :0.80562: L2-HR :0.79346: (Sim:0h5m32s) 
CPU  0 inst:   80000000 cyc:   44899830 now IPC :1.94476: AVG IPC :1.77597: L2-Pf-HR :0.80670: L2-HR :0.79452: (Sim:0h5m36s) 
CPU  0 inst:   81000000 cyc:   45584412 now IPC :1.46075: AVG IPC :1.77113: L2-Pf-HR :0.80688: L2-HR :0.79474: (Sim:0h5m40s) 
CPU  0 inst:   82000001 cyc:   46130597 now IPC :1.83088: AVG IPC :1.77185: L2-Pf-HR :0.80675: L2-HR :0.79460: (Sim:0h5m45s) 
CPU  0 inst:   83000002 cyc:   46668661 now IPC :1.85852: AVG IPC :1.77288: L2-Pf-HR :0.80645: L2-HR :0.79429: (Sim:0h5m49s) 
CPU  0 inst:   84000000 cyc:   47211258 now IPC :1.84298: AVG IPC :1.77370: L2-Pf-HR :0.80622: L2-HR :0.79404: (Sim:0h5m53s) 
CPU  0 inst:   85000002 cyc:   47758505 now IPC :1.82733: AVG IPC :1.77433: L2-Pf-HR :0.80597: L2-HR :0.79378: (Sim:0h5m58s) 
CPU  0 inst:   86000001 cyc:   48298547 now IPC :1.85171: AVG IPC :1.77521: L2-Pf-HR :0.80596: L2-HR :0.79376: (Sim:0h6m2s) 
CPU  0 inst:   87000002 cyc:   48901491 now IPC :1.65853: AVG IPC :1.77374: L2-Pf-HR :0.80612: L2-HR :0.79393: (Sim:0h6m6s) 
CPU  0 inst:   88000000 cyc:   49415086 now IPC :1.94706: AVG IPC :1.77558: L2-Pf-HR :0.80712: L2-HR :0.79491: (Sim:0h6m11s) 
CPU  0 inst:   89000002 cyc:   50105438 now IPC :1.44854: AVG IPC :1.77098: L2-Pf-HR :0.80728: L2-HR :0.79513: (Sim:0h6m15s) 
CPU  0 inst:   90000003 cyc:   50649899 now IPC :1.83668: AVG IPC :1.77170: L2-Pf-HR :0.80713: L2-HR :0.79496: (Sim:0h6m20s) 
CPU  0 inst:   91000002 cyc:   51186480 now IPC :1.86365: AVG IPC :1.77269: L2-Pf-HR :0.80689: L2-HR :0.79471: (Sim:0h6m24s) 
CPU  0 inst:   92000000 cyc:   51728205 now IPC :1.84595: AVG IPC :1.77347: L2-Pf-HR :0.80671: L2-HR :0.79450: (Sim:0h6m28s) 
CPU  0 inst:   93000002 cyc:   52274100 now IPC :1.83186: AVG IPC :1.77409: L2-Pf-HR :0.80645: L2-HR :0.79423: (Sim:0h6m32s) 
CPU  0 inst:   94000003 cyc:   52815811 now IPC :1.84600: AVG IPC :1.77484: L2-Pf-HR :0.80641: L2-HR :0.79418: (Sim:0h6m35s) 
CPU  0 inst:   95000003 cyc:   53417790 now IPC :1.66119: AVG IPC :1.77354: L2-Pf-HR :0.80656: L2-HR :0.79433: (Sim:0h6m39s) 
CPU  0 inst:   96000000 cyc:   53930520 now IPC :1.95034: AVG IPC :1.77525: L2-Pf-HR :0.80742: L2-HR :0.79515: (Sim:0h6m42s) 
CPU  0 inst:   97000000 cyc:   54620486 now IPC :1.44935: AVG IPC :1.77106: L2-Pf-HR :0.80762: L2-HR :0.79539: (Sim:0h6m45s) 
CPU  0 inst:   98000001 cyc:   55163336 now IPC :1.84213: AVG IPC :1.77177: L2-Pf-HR :0.80745: L2-HR :0.79521: (Sim:0h6m49s) 
CPU  0 inst:   99000003 cyc:   55697371 now IPC :1.87254: AVG IPC :1.77275: L2-Pf-HR :0.80724: L2-HR :0.79500: (Sim:0h6m52s) 
CPU  0 inst:  100000000 cyc:   56241443 now IPC :1.83799: AVG IPC :1.77339: L2-Pf-HR :0.80709: L2-HR :0.79483: (Sim:0h6m55s) 
CPU  0 inst:  101000002 cyc:   56778553 now IPC :1.86182: AVG IPC :1.77424: L2-Pf-HR :0.80687: L2-HR :0.79460: (Sim:0h6m57s) 
CPU  0 inst:  102000002 cyc:   57324984 now IPC :1.83006: AVG IPC :1.77479: L2-Pf-HR :0.80682: L2-HR :0.79453: (Sim:0h7m0s) 
CPU  0 inst:  103000001 cyc:   57930326 now IPC :1.65196: AVG IPC :1.77348: L2-Pf-HR :0.80688: L2-HR :0.79461: (Sim:0h7m4s) 
CPU  0 inst:  104000000 cyc:   58445324 now IPC :1.94175: AVG IPC :1.77499: L2-Pf-HR :0.80763: L2-HR :0.79533: (Sim:0h7m8s) 
CPU  0 inst:  105000000 cyc:   59141681 now IPC :1.43605: AVG IPC :1.77093: L2-Pf-HR :0.80785: L2-HR :0.79559: (Sim:0h7m12s) 
CPU  0 inst:  106000002 cyc:   59679919 now IPC :1.85792: AVG IPC :1.77173: L2-Pf-HR :0.80766: L2-HR :0.79540: (Sim:0h7m15s) 
CPU  0 inst:  107000002 cyc:   60221969 now IPC :1.84485: AVG IPC :1.77240: L2-Pf-HR :0.80749: L2-HR :0.79522: (Sim:0h7m18s) 
CPU  0 inst:  108000000 cyc:   60767764 now IPC :1.83219: AVG IPC :1.77294: L2-Pf-HR :0.80731: L2-HR :0.79501: (Sim:0h7m22s) 
CPU  0 inst:  109000002 cyc:   61307892 now IPC :1.85142: AVG IPC :1.77365: L2-Pf-HR :0.80711: L2-HR :0.79482: (Sim:0h7m26s) 
CPU  0 inst:  110000002 cyc:   61850523 now IPC :1.84287: AVG IPC :1.77426: L2-Pf-HR :0.80708: L2-HR :0.79477: (Sim:0h7m30s) 
CPU  0 inst:  111000002 cyc:   62460271 now IPC :1.64002: AVG IPC :1.77293: L2-Pf-HR :0.80711: L2-HR :0.79481: (Sim:0h7m34s) 
CPU  0 inst:  112000000 cyc:   62974853 now IPC :1.94332: AVG IPC :1.77435: L2-Pf-HR :0.80783: L2-HR :0.79551: (Sim:0h7m37s) 
CPU  0 inst:  113000002 cyc:   63663984 now IPC :1.45111: AVG IPC :1.77079: L2-Pf-HR :0.80805: L2-HR :0.79575: (Sim:0h7m40s) 
CPU  0 inst:  114000003 cyc:   64200776 now IPC :1.86292: AVG IPC :1.77157: L2-Pf-HR :0.80790: L2-HR :0.79560: (Sim:0h7m43s) 
CPU  0 inst:  115000003 cyc:   64742854 now IPC :1.84475: AVG IPC :1.77220: L2-Pf-HR :0.80777: L2-HR :0.79545: (Sim:0h7m46s) 
CPU  0 inst:  116000000 cyc:   65284197 now IPC :1.84725: AVG IPC :1.77283: L2-Pf-HR :0.80756: L2-HR :0.79523: (Sim:0h7m49s) 
CPU  0 inst:  117000003 cyc:   65821495 now IPC :1.86117: AVG IPC :1.77356: L2-Pf-HR :0.80739: L2-HR :0.79506: (Sim:0h7m52s) 
CPU  0 inst:  118000000 cyc:   66369284 now IPC :1.82551: AVG IPC :1.77400: L2-Pf-HR :0.80734: L2-HR :0.79499: (Sim:0h7m55s) 
CPU  0 inst:  119000003 cyc:   66979310 now IPC :1.63928: AVG IPC :1.77275: L2-Pf-HR :0.80740: L2-HR :0.79506: (Sim:0h7m58s) 
CPU  0 inst:  120000000 cyc:   67494700 now IPC :1.94027: AVG IPC :1.77405: L2-Pf-HR :0.80812: L2-HR :0.79574: (Sim:0h8m1s) 
CPU  0 inst:  121000003 cyc:   68186795 now IPC :1.44489: AVG IPC :1.77066: L2-Pf-HR :0.80832: L2-HR :0.79597: (Sim:0h8m4s) 
CPU  0 inst:  122000001 cyc:   68724191 now IPC :1.86082: AVG IPC :1.77137: L2-Pf-HR :0.80821: L2-HR :0.79586: (Sim:0h8m7s) 
CPU  0 inst:  123000001 cyc:   69264303 now IPC :1.85147: AVG IPC :1.77201: L2-Pf-HR :0.80805: L2-HR :0.79569: (Sim:0h8m11s) 
CPU  0 inst:  124000000 cyc:   69800817 now IPC :1.86388: AVG IPC :1.77272: L2-Pf-HR :0.80785: L2-HR :0.79549: (Sim:0h8m14s) 
CPU  0 inst:  125000001 cyc:   70348525 now IPC :1.82579: AVG IPC :1.77314: L2-Pf-HR :0.80774: L2-HR :0.79535: (Sim:0h8m18s) 
CPU  0 inst:  126000003 cyc:   70894495 now IPC :1.83161: AVG IPC :1.77360: L2-Pf-HR :0.80763: L2-HR :0.79523: (Sim:0h8m23s) 
CPU  0 inst:  127000000 cyc:   71500348 now IPC :1.65056: AVG IPC :1.77254: L2-Pf-HR :0.80764: L2-HR :0.79525: (Sim:0h8m27s) 
CPU  0 inst:  128000000 cyc:   72014977 now IPC :1.94315: AVG IPC :1.77378: L2-Pf-HR :0.80829: L2-HR :0.79590: (Sim:0h8m32s) 
CPU  0 inst:  129000001 cyc:   72701822 now IPC :1.45593: AVG IPC :1.77073: L2-Pf-HR :0.80852: L2-HR :0.79617: (Sim:0h8m36s) 
CPU  0 inst:  130000001 cyc:   73248232 now IPC :1.83013: AVG IPC :1.77118: L2-Pf-HR :0.80844: L2-HR :0.79608: (Sim:0h8m41s) 
CPU  0 inst:  131000001 cyc:   73790282 now IPC :1.84485: AVG IPC :1.77173: L2-Pf-HR :0.80827: L2-HR :0.79590: (Sim:0h8m45s) 
CPU  0 inst:  132000000 cyc:   74329661 now IPC :1.85398: AVG IPC :1.77234: L2-Pf-HR :0.80809: L2-HR :0.79571: (Sim:0h8m49s) 
CPU  0 inst:  133000002 cyc:   74875681 now IPC :1.83144: AVG IPC :1.77277: L2-Pf-HR :0.80796: L2-HR :0.79557: (Sim:0h8m53s) 
CPU  0 inst:  134000002 cyc:   75422992 now IPC :1.82711: AVG IPC :1.77317: L2-Pf-HR :0.80785: L2-HR :0.79545: (Sim:0h8m58s) 
CPU  0 inst:  135000002 cyc:   76032687 now IPC :1.64016: AVG IPC :1.77209: L2-Pf-HR :0.80786: L2-HR :0.79547: (Sim:0h9m2s) 
CPU  0 inst:  136000000 cyc:   76548172 now IPC :1.93992: AVG IPC :1.77324: L2-Pf-HR :0.80847: L2-HR :0.79607: (Sim:0h9m6s) 
CPU  0 inst:  137000001 cyc:   77223237 now IPC :1.48134: AVG IPC :1.77065: L2-Pf-HR :0.80871: L2-HR :0.79634: (Sim:0h9m11s) 
CPU  0 inst:  138000000 cyc:   77776657 now IPC :1.80694: AVG IPC :1.77091: L2-Pf-HR :0.80862: L2-HR :0.79624: (Sim:0h9m15s) 
CPU  0 inst:  139000001 cyc:   78317489 now IPC :1.84900: AVG IPC :1.77146: L2-Pf-HR :0.80844: L2-HR :0.79606: (Sim:0h9m20s) 
CPU  0 inst:  140000000 cyc:   78854362 now IPC :1.86264: AVG IPC :1.77209: L2-Pf-HR :0.80832: L2-HR :0.79593: (Sim:0h9m24s) 
CPU  0 inst:  141000002 cyc:   79398805 now IPC :1.83674: AVG IPC :1.77254: L2-Pf-HR :0.80818: L2-HR :0.79578: (Sim:0h9m28s) 
CPU  0 inst:  142000001 cyc:   79943319 now IPC :1.83650: AVG IPC :1.77298: L2-Pf-HR :0.80806: L2-HR :0.79567: (Sim:0h9m33s) 
CPU  0 inst:  143000002 cyc:   80555013 now IPC :1.63481: AVG IPC :1.77192: L2-Pf-HR :0.80808: L2-HR :0.79568: (Sim:0h9m37s) 
CPU  0 inst:  144000000 cyc:   81070152 now IPC :1.94122: AVG IPC :1.77301: L2-Pf-HR :0.80863: L2-HR :0.79622: (Sim:0h9m41s) 
CPU  0 inst:  145000000 cyc:   81732052 now IPC :1.51080: AVG IPC :1.77086: L2-Pf-HR :0.80886: L2-HR :0.79647: (Sim:0h9m46s) 
CPU  0 inst:  146000003 cyc:   82290618 now IPC :1.79030: AVG IPC :1.77099: L2-Pf-HR :0.80878: L2-HR :0.79639: (Sim:0h9m50s) 
CPU  0 inst:  147000003 cyc:   82829508 now IPC :1.85567: AVG IPC :1.77155: L2-Pf-HR :0.80862: L2-HR :0.79622: (Sim:0h9m54s) 
CPU  0 inst:  148000000 cyc:   83372332 now IPC :1.84221: AVG IPC :1.77201: L2-Pf-HR :0.80848: L2-HR :0.79607: (Sim:0h9m59s) 
CPU  0 inst:  149000002 cyc:   83920085 now IPC :1.82564: AVG IPC :1.77237: L2-Pf-HR :0.80834: L2-HR :0.79592: (Sim:0h10m3s) 
CPU  0 inst:  150000000 cyc:   84457049 now IPC :1.86232: AVG IPC :1.77295: L2-Pf-HR :0.80827: L2-HR :0.79585: (Sim:0h10m7s) 
CPU  0 inst:  151000001 cyc:   85072904 now IPC :1.62376: AVG IPC :1.77185: L2-Pf-HR :0.80822: L2-HR :0.79581: (Sim:0h10m12s) 
CPU  0 inst:  152000000 cyc:   85587959 now IPC :1.94154: AVG IPC :1.77289: L2-Pf-HR :0.80877: L2-HR :0.79634: (Sim:0h10m16s) 
CPU  0 inst:  153000000 cyc:   86249011 now IPC :1.51274: AVG IPC :1.77087: L2-Pf-HR :0.80902: L2-HR :0.79662: (Sim:0h10m20s) 
CPU  0 inst:  154000003 cyc:   86815240 now IPC :1.76608: AVG IPC :1.77084: L2-Pf-HR :0.80893: L2-HR :0.79652: (Sim:0h10m25s) 
CPU  0 inst:  155000002 cyc:   87351989 now IPC :1.86307: AVG IPC :1.77141: L2-Pf-HR :0.80878: L2-HR :0.79637: (Sim:0h10m29s) 
CPU  0 inst:  156000000 cyc:   87895933 now IPC :1.83842: AVG IPC :1.77183: L2-Pf-HR :0.80864: L2-HR :0.79622: (Sim:0h10m34s) 
CPU  0 inst:  157000001 cyc:   88443360 now IPC :1.82673: AVG IPC :1.77217: L2-Pf-HR :0.80847: L2-HR :0.79604: (Sim:0h10m38s) 
CPU  0 inst:  158000003 cyc:   88981116 now IPC :1.85958: AVG IPC :1.77271: L2-Pf-HR :0.80841: L2-HR :0.79598: (Sim:0h10m42s) 
CPU  0 inst:  159000002 cyc:   89593039 now IPC :1.63419: AVG IPC :1.77175: L2-Pf-HR :0.80834: L2-HR :0.79592: (Sim:0h10m45s) 
CPU  0 inst:  160000000 cyc:   90110051 now IPC :1.93419: AVG IPC :1.77269: L2-Pf-HR :0.80883: L2-HR :0.79638: (Sim:0h10m49s) 
CPU  0 inst:  161000000 cyc:   90765585 now IPC :1.52547: AVG IPC :1.77089: L2-Pf-HR :0.80907: L2-HR :0.79665: (Sim:0h10m54s) 
CPU  0 inst:  162000003 cyc:   91341592 now IPC :1.73610: AVG IPC :1.77067: L2-Pf-HR :0.80898: L2-HR :0.79655: (Sim:0h10m58s) 
CPU  0 inst:  163000000 cyc:   91877764 now IPC :1.86507: AVG IPC :1.77122: L2-Pf-HR :0.80886: L2-HR :0.79642: (Sim:0h11m3s) 
CPU  0 inst:  164000000 cyc:   92420507 now IPC :1.84249: AVG IPC :1.77165: L2-Pf-HR :0.80875: L2-HR :0.79630: (Sim:0h11m7s) 
CPU  0 inst:  165000003 cyc:   92958160 now IPC :1.85994: AVG IPC :1.77216: L2-Pf-HR :0.80859: L2-HR :0.79614: (Sim:0h11m11s) 
CPU  0 inst:  166000000 cyc:   93506319 now IPC :1.82428: AVG IPC :1.77247: L2-Pf-HR :0.80852: L2-HR :0.79606: (Sim:0h11m14s) 
CPU  0 inst:  167000003 cyc:   94115008 now IPC :1.64288: AVG IPC :1.77162: L2-Pf-HR :0.80843: L2-HR :0.79599: (Sim:0h11m17s) 
CPU  0 inst:  168000000 cyc:   94631125 now IPC :1.93754: AVG IPC :1.77254: L2-Pf-HR :0.80892: L2-HR :0.79646: (Sim:0h11m20s) 
CPU  0 inst:  169000003 cyc:   95267643 now IPC :1.57105: AVG IPC :1.77118: L2-Pf-HR :0.80920: L2-HR :0.79677: (Sim:0h11m24s) 
CPU  0 inst:  170000000 cyc:   95847143 now IPC :1.72562: AVG IPC :1.77090: L2-Pf-HR :0.80909: L2-HR :0.79666: (Sim:0h11m29s) 
CPU  0 inst:  171000002 cyc:   96393412 now IPC :1.83060: AVG IPC :1.77124: L2-Pf-HR :0.80898: L2-HR :0.79654: (Sim:0h11m33s) 
CPU  0 inst:  172000000 cyc:   96937662 now IPC :1.83739: AVG IPC :1.77162: L2-Pf-HR :0.80885: L2-HR :0.79641: (Sim:0h11m38s) 
CPU  0 inst:  173000001 cyc:   97474823 now IPC :1.86164: AVG IPC :1.77212: L2-Pf-HR :0.80872: L2-HR :0.79627: (Sim:0h11m42s) 
CPU  0 inst:  174000001 cyc:   98022129 now IPC :1.82713: AVG IPC :1.77243: L2-Pf-HR :0.80865: L2-HR :0.79620: (Sim:0h11m46s) 
CPU  0 inst:  175000002 cyc:   98632282 now IPC :1.63893: AVG IPC :1.77159: L2-Pf-HR :0.80853: L2-HR :0.79608: (Sim:0h11m51s) 
CPU  0 inst:  176000000 cyc:   99148033 now IPC :1.93892: AVG IPC :1.77247: L2-Pf-HR :0.80899: L2-HR :0.79653: (Sim:0h11m55s) 
CPU  0 inst:  177000001 cyc:   99774785 now IPC :1.59553: AVG IPC :1.77135: L2-Pf-HR :0.80930: L2-HR :0.79686: (Sim:0h11m59s) 
CPU  0 inst:  178000001 cyc:  100360438 now IPC :1.70750: AVG IPC :1.77098: L2-Pf-HR :0.80921: L2-HR :0.79677: (Sim:0h12m2s) 
CPU  0 inst:  179000002 cyc:  100898701 now IPC :1.85783: AVG IPC :1.77144: L2-Pf-HR :0.80911: L2-HR :0.79667: (Sim:0h12m5s) 
CPU  0 inst:  180000000 cyc:  101444573 now IPC :1.83193: AVG IPC :1.77177: L2-Pf-HR :0.80896: L2-HR :0.79651: (Sim:0h12m8s) 
CPU  0 inst:  181000002 cyc:  101983076 now IPC :1.85700: AVG IPC :1.77223: L2-Pf-HR :0.80886: L2-HR :0.79640: (Sim:0h12m11s) 
CPU  0 inst:  182000002 cyc:  102526270 now IPC :1.84096: AVG IPC :1.77259: L2-Pf-HR :0.80878: L2-HR :0.79632: (Sim:0h12m14s) 
CPU  0 inst:  183000003 cyc:  103140954 now IPC :1.62685: AVG IPC :1.77172: L2-Pf-HR :0.80868: L2-HR :0.79623: (Sim:0h12m17s) 
CPU  0 inst:  184000000 cyc:  103660623 now IPC :1.92430: AVG IPC :1.77249: L2-Pf-HR :0.80914: L2-HR :0.79667: (Sim:0h12m20s) 
CPU  0 inst:  185000003 cyc:  104284950 now IPC :1.60173: AVG IPC :1.77146: L2-Pf-HR :0.80942: L2-HR :0.79697: (Sim:0h12m23s) 
CPU  0 inst:  186000000 cyc:  104882099 now IPC :1.67462: AVG IPC :1.77090: L2-Pf-HR :0.80934: L2-HR :0.79688: (Sim:0h12m26s) 
CPU  0 inst:  187000002 cyc:  105426309 now IPC :1.83753: AVG IPC :1.77125: L2-Pf-HR :0.80924: L2-HR :0.79678: (Sim:0h12m29s) 
CPU  0 inst:  188000000 cyc:  105966913 now IPC :1.84978: AVG IPC :1.77165: L2-Pf-HR :0.80911: L2-HR :0.79665: (Sim:0h12m32s) 
CPU  0 inst:  189000002 cyc:  106515598 now IPC :1.82254: AVG IPC :1.77192: L2-Pf-HR :0.80902: L2-HR :0.79655: (Sim:0h12m35s) 
CPU  0 inst:  190000000 cyc:  107062642 now IPC :1.82800: AVG IPC :1.77221: L2-Pf-HR :0.80893: L2-HR :0.79645: (Sim:0h12m37s) 
CPU  0 inst:  191000003 cyc:  107662908 now IPC :1.66593: AVG IPC :1.77161: L2-Pf-HR :0.80882: L2-HR :0.79635: (Sim:0h12m40s) 
CPU  0 inst:  192000000 cyc:  108190686 now IPC :1.89473: AVG IPC :1.77221: L2-Pf-HR :0.80925: L2-HR :0.79677: (Sim:0h12m43s) 
CPU  0 inst:  193000002 cyc:  108810675 now IPC :1.61294: AVG IPC :1.77130: L2-Pf-HR :0.80955: L2-HR :0.79709: (Sim:0h12m46s) 
CPU  0 inst:  194000003 cyc:  109414480 now IPC :1.65617: AVG IPC :1.77066: L2-Pf-HR :0.80946: L2-HR :0.79700: (Sim:0h12m49s) 
CPU  0 inst:  195000001 cyc:  109958597 now IPC :1.83784: AVG IPC :1.77099: L2-Pf-HR :0.80935: L2-HR :0.79689: (Sim:0h12m52s) 
CPU  0 inst:  196000000 cyc:  110498339 now IPC :1.85274: AVG IPC :1.77140: L2-Pf-HR :0.80922: L2-HR :0.79676: (Sim:0h12m55s) 
CPU  0 inst:  197000002 cyc:  111044092 now IPC :1.83233: AVG IPC :1.77170: L2-Pf-HR :0.80914: L2-HR :0.79666: (Sim:0h12m58s) 
CPU  0 inst:  198000000 cyc:  111590469 now IPC :1.83023: AVG IPC :1.77199: L2-Pf-HR :0.80903: L2-HR :0.79655: (Sim:0h13m1s) 
CPU  0 inst:  199000003 cyc:  112184750 now IPC :1.68271: AVG IPC :1.77151: L2-Pf-HR :0.80890: L2-HR :0.79643: (Sim:0h13m4s) 
CPU  0 inst:  200000000 cyc:  112718570 now IPC :1.87329: AVG IPC :1.77200: L2-Pf-HR :0.80930: L2-HR :0.79682: (Sim:0h13m6s) 
CPU  0 inst:  201000001 cyc:  113293636 now IPC :1.73893: AVG IPC :1.77183: L2-Pf-HR :0.80964: L2-HR :0.79716: (Sim:0h13m9s) 
CPU  0 inst:  202000002 cyc:  113933383 now IPC :1.56312: AVG IPC :1.77064: L2-Pf-HR :0.80952: L2-HR :0.79704: (Sim:0h13m12s) 
CPU  0 inst:  203000002 cyc:  114478032 now IPC :1.83604: AVG IPC :1.77096: L2-Pf-HR :0.80940: L2-HR :0.79693: (Sim:0h13m16s) 
CPU  0 inst:  204000000 cyc:  115013198 now IPC :1.86858: AVG IPC :1.77142: L2-Pf-HR :0.80930: L2-HR :0.79682: (Sim:0h13m19s) 
CPU  0 inst:  205000001 cyc:  115555910 now IPC :1.84260: AVG IPC :1.77175: L2-Pf-HR :0.80921: L2-HR :0.79672: (Sim:0h13m22s) 
CPU  0 inst:  206000001 cyc:  116094473 now IPC :1.85679: AVG IPC :1.77215: L2-Pf-HR :0.80910: L2-HR :0.79661: (Sim:0h13m25s) 
CPU  0 inst:  207000003 cyc:  116660250 now IPC :1.76748: AVG IPC :1.77213: L2-Pf-HR :0.80901: L2-HR :0.79652: (Sim:0h13m28s) 
CPU  0 inst:  208000000 cyc:  117229655 now IPC :1.75621: AVG IPC :1.77205: L2-Pf-HR :0.80934: L2-HR :0.79685: (Sim:0h13m31s) 
CPU  0 inst:  209000002 cyc:  117772782 now IPC :1.84119: AVG IPC :1.77237: L2-Pf-HR :0.80973: L2-HR :0.79722: (Sim:0h13m34s) 
CPU  0 inst:  210000000 cyc:  118443907 now IPC :1.49003: AVG IPC :1.77076: L2-Pf-HR :0.80956: L2-HR :0.79707: (Sim:0h13m37s) 
CPU  0 inst:  211000003 cyc:  118978508 now IPC :1.87056: AVG IPC :1.77121: L2-Pf-HR :0.80945: L2-HR :0.79697: (Sim:0h13m40s) 
CPU  0 inst:  212000000 cyc:  119522103 now IPC :1.83960: AVG IPC :1.77152: L2-Pf-HR :0.80936: L2-HR :0.79686: (Sim:0h13m42s) 
CPU  0 inst:  213000001 cyc:  120069061 now IPC :1.82830: AVG IPC :1.77179: L2-Pf-HR :0.80925: L2-HR :0.79675: (Sim:0h13m45s) 
CPU  0 inst:  214000000 cyc:  120606150 now IPC :1.86189: AVG IPC :1.77219: L2-Pf-HR :0.80916: L2-HR :0.79666: (Sim:0h13m48s) 
CPU  0 inst:  215000001 cyc:  121165553 now IPC :1.78762: AVG IPC :1.77226: L2-Pf-HR :0.80909: L2-HR :0.79658: (Sim:0h13m51s) 
CPU  0 inst:  216000000 cyc:  121744969 now IPC :1.72587: AVG IPC :1.77204: L2-Pf-HR :0.80937: L2-HR :0.79686: (Sim:0h13m54s) 
CPU  0 inst:  217000002 cyc:  122263768 now IPC :1.92753: AVG IPC :1.77270: L2-Pf-HR :0.80976: L2-HR :0.79724: (Sim:0h13m57s) 
CPU  0 inst:  218000000 cyc:  122954914 now IPC :1.44687: AVG IPC :1.77086: L2-Pf-HR :0.80959: L2-HR :0.79710: (Sim:0h14m0s) 
CPU  0 inst:  219000001 cyc:  123489207 now IPC :1.87163: AVG IPC :1.77130: L2-Pf-HR :0.80949: L2-HR :0.79700: (Sim:0h14m2s) 
CPU  0 inst:  220000000 cyc:  124031767 now IPC :1.84311: AVG IPC :1.77161: L2-Pf-HR :0.80938: L2-HR :0.79689: (Sim:0h14m6s) 
CPU  0 inst:  221000002 cyc:  124578658 now IPC :1.82852: AVG IPC :1.77187: L2-Pf-HR :0.80925: L2-HR :0.79676: (Sim:0h14m11s) 
CPU  0 inst:  222000001 cyc:  125119857 now IPC :1.84775: AVG IPC :1.77220: L2-Pf-HR :0.80918: L2-HR :0.79668: (Sim:0h14m15s) 
CPU  0 inst:  223000002 cyc:  125672399 now IPC :1.80982: AVG IPC :1.77236: L2-Pf-HR :0.80911: L2-HR :0.79660: (Sim:0h14m19s) 
CPU  0 inst:  224000000 cyc:  126259011 now IPC :1.70470: AVG IPC :1.77205: L2-Pf-HR :0.80934: L2-HR :0.79684: (Sim:0h14m24s) 
CPU  0 inst:  225000001 cyc:  126775926 now IPC :1.93456: AVG IPC :1.77271: L2-Pf-HR :0.80972: L2-HR :0.79722: (Sim:0h14m28s) 
CPU  0 inst:  226000000 cyc:  127474224 now IPC :1.43205: AVG IPC :1.77083: L2-Pf-HR :0.80959: L2-HR :0.79711: (Sim:0h14m32s) 
CPU  0 inst:  227000001 cyc:  128010181 now IPC :1.86582: AVG IPC :1.77123: L2-Pf-HR :0.80949: L2-HR :0.79702: (Sim:0h14m37s) 
CPU  0 inst:  228000000 cyc:  128550434 now IPC :1.85098: AVG IPC :1.77157: L2-Pf-HR :0.80940: L2-HR :0.79691: (Sim:0h14m41s) 
CPU  0 inst:  229000002 cyc:  129091989 now IPC :1.84654: AVG IPC :1.77189: L2-Pf-HR :0.80928: L2-HR :0.79680: (Sim:0h14m45s) 
CPU  0 inst:  230000002 cyc:  129637826 now IPC :1.83205: AVG IPC :1.77214: L2-Pf-HR :0.80920: L2-HR :0.79672: (Sim:0h14m50s) 
CPU  0 inst:  231000002 cyc:  130185232 now IPC :1.82680: AVG IPC :1.77238: L2-Pf-HR :0.80917: L2-HR :0.79667: (Sim:0h14m54s) 
CPU  0 inst:  232000000 cyc:  130770742 now IPC :1.70791: AVG IPC :1.77209: L2-Pf-HR :0.80937: L2-HR :0.79689: (Sim:0h14m59s) 
CPU  0 inst:  233000002 cyc:  131285101 now IPC :1.94417: AVG IPC :1.77276: L2-Pf-HR :0.80974: L2-HR :0.79724: (Sim:0h15m3s) 
CPU  0 inst:  234000003 cyc:  131979963 now IPC :1.43914: AVG IPC :1.77100: L2-Pf-HR :0.80961: L2-HR :0.79714: (Sim:0h15m8s) 
CPU  0 inst:  235000001 cyc:  132518465 now IPC :1.85700: AVG IPC :1.77135: L2-Pf-HR :0.80954: L2-HR :0.79707: (Sim:0h15m13s) 
CPU  0 inst:  236000000 cyc:  133061634 now IPC :1.84105: AVG IPC :1.77163: L2-Pf-HR :0.80944: L2-HR :0.79696: (Sim:0h15m17s) 
CPU  0 inst:  237000001 cyc:  133599932 now IPC :1.85771: AVG IPC :1.77198: L2-Pf-HR :0.80934: L2-HR :0.79686: (Sim:0h15m21s) 
CPU  0 inst:  238000000 cyc:  134145182 now IPC :1.83402: AVG IPC :1.77224: L2-Pf-HR :0.80925: L2-HR :0.79677: (Sim:0h15m25s) 
CPU  0 inst:  239000002 cyc:  134690498 now IPC :1.83380: AVG IPC :1.77249: L2-Pf-HR :0.80919: L2-HR :0.79671: (Sim:0h15m28s) 
CPU  0 inst:  240000000 cyc:  135286224 now IPC :1.67862: AVG IPC :1.77207: L2-Pf-HR :0.80937: L2-HR :0.79689: (Sim:0h15m31s) 
CPU  0 inst:  241000002 cyc:  135801332 now IPC :1.94134: AVG IPC :1.77272: L2-Pf-HR :0.80973: L2-HR :0.79725: (Sim:0h15m34s) 
CPU  0 inst:  242000003 cyc:  136498322 now IPC :1.43474: AVG IPC :1.77098: L2-Pf-HR :0.80962: L2-HR :0.79716: (Sim:0h15m39s) 
CPU  0 inst:  243000000 cyc:  137040686 now IPC :1.84377: AVG IPC :1.77127: L2-Pf-HR :0.80955: L2-HR :0.79708: (Sim:0h15m43s) 
CPU  0 inst:  244000000 cyc:  137585433 now IPC :1.83571: AVG IPC :1.77153: L2-Pf-HR :0.80943: L2-HR :0.79697: (Sim:0h15m48s) 
CPU  0 inst:  245000001 cyc:  138122317 now IPC :1.86260: AVG IPC :1.77188: L2-Pf-HR :0.80933: L2-HR :0.79686: (Sim:0h15m52s) 
CPU  0 inst:  246000000 cyc:  138674205 now IPC :1.81196: AVG IPC :1.77204: L2-Pf-HR :0.80927: L2-HR :0.79679: (Sim:0h15m56s) 
CPU  0 inst:  247000002 cyc:  139215870 now IPC :1.84616: AVG IPC :1.77234: L2-Pf-HR :0.80923: L2-HR :0.79676: (Sim:0h16m0s) 
CPU  0 inst:  248000000 cyc:  139813824 now IPC :1.67237: AVG IPC :1.77190: L2-Pf-HR :0.80941: L2-HR :0.79693: (Sim:0h16m3s) 
CPU  0 inst:  249000002 cyc:  140328252 now IPC :1.94391: AVG IPC :1.77254: L2-Pf-HR :0.80974: L2-HR :0.79725: (Sim:0h16m6s) 
CPU  0 inst:  250000002 cyc:  141025079 now IPC :1.43508: AVG IPC :1.77086: L2-Pf-HR :0.80964: L2-HR :0.79718: (Sim:0h16m9s) 
CPU  0 inst:  251000000 cyc:  141566662 now IPC :1.84644: AVG IPC :1.77115: L2-Pf-HR :0.80957: L2-HR :0.79710: (Sim:0h16m14s) 
CPU  0 inst:  252000000 cyc:  142099527 now IPC :1.87665: AVG IPC :1.77155: L2-Pf-HR :0.80945: L2-HR :0.79699: (Sim:0h16m18s) 
CPU  0 inst:  253000002 cyc:  142644542 now IPC :1.83482: AVG IPC :1.77179: L2-Pf-HR :0.80936: L2-HR :0.79689: (Sim:0h16m22s) 
CPU  0 inst:  254000000 cyc:  143192296 now IPC :1.82563: AVG IPC :1.77200: L2-Pf-HR :0.80928: L2-HR :0.79680: (Sim:0h16m27s) 
CPU  0 inst:  255000001 cyc:  143726560 now IPC :1.87174: AVG IPC :1.77237: L2-Pf-HR :0.80925: L2-HR :0.79678: (Sim:0h16m31s) 
CPU  0 inst:  256000000 cyc:  144320364 now IPC :1.68406: AVG IPC :1.77201: L2-Pf-HR :0.80938: L2-HR :0.79691: (Sim:0h16m35s) 
CPU  0 inst:  257000002 cyc:  144834304 now IPC :1.94576: AVG IPC :1.77263: L2-Pf-HR :0.80968: L2-HR :0.79720: (Sim:0h16m39s) 
CPU  0 inst:  258000001 cyc:  149824720 now IPC :0.20038: AVG IPC :1.71992: L2-Pf-HR :0.80693: L2-HR :0.79527: (Sim:0h16m48s) 
CPU  0 inst:  259000003 cyc:  156338824 now IPC :0.15351: AVG IPC :1.65424: L2-Pf-HR :0.80340: L2-HR :0.79291: (Sim:0h16m59s) 
CPU  0 inst:  260000000 cyc:  162857082 now IPC :0.15341: AVG IPC :1.59380: L2-Pf-HR :0.79990: L2-HR :0.79058: (Sim:0h17m16s) 
CPU  0 inst:  261000001 cyc:  169370797 now IPC :0.15352: AVG IPC :1.53809: L2-Pf-HR :0.79644: L2-HR :0.78829: (Sim:0h17m28s) 
CPU  0 inst:  262000001 cyc:  175776058 now IPC :0.15612: AVG IPC :1.48745: L2-Pf-HR :0.79312: L2-HR :0.78609: (Sim:0h17m41s) 
CPU  0 inst:  263000000 cyc:  179293948 now IPC :0.28426: AVG IPC :1.46371: L2-Pf-HR :0.79317: L2-HR :0.78608: (Sim:0h17m47s) 
CPU  0 inst:  264000000 cyc:  182802528 now IPC :0.28502: AVG IPC :1.44097: L2-Pf-HR :0.79324: L2-HR :0.78610: (Sim:0h17m54s) 
CPU  0 inst:  265000002 cyc:  186312320 now IPC :0.28492: AVG IPC :1.41907: L2-Pf-HR :0.79333: L2-HR :0.78614: (Sim:0h18m2s) 
CPU  0 inst:  266000002 cyc:  189821292 now IPC :0.28498: AVG IPC :1.39800: L2-Pf-HR :0.79343: L2-HR :0.78618: (Sim:0h18m11s) 
CPU  0 inst:  267000002 cyc:  193330637 now IPC :0.28495: AVG IPC :1.37769: L2-Pf-HR :0.79354: L2-HR :0.78623: (Sim:0h18m19s) 
CPU  0 inst:  268000000 cyc:  196839507 now IPC :0.28499: AVG IPC :1.35812: L2-Pf-HR :0.79363: L2-HR :0.78627: (Sim:0h18m25s) 
CPU  0 inst:  269000001 cyc:  200348715 now IPC :0.28496: AVG IPC :1.33923: L2-Pf-HR :0.79373: L2-HR :0.78631: (Sim:0h18m31s) 
CPU  0 inst:  270000000 cyc:  203857385 now IPC :0.28501: AVG IPC :1.32100: L2-Pf-HR :0.79383: L2-HR :0.78636: (Sim:0h18m37s) 
CPU  0 inst:  271000001 cyc:  207365981 now IPC :0.28501: AVG IPC :1.30338: L2-Pf-HR :0.79392: L2-HR :0.78640: (Sim:0h18m45s) 
CPU  0 inst:  272000000 cyc:  210873670 now IPC :0.28509: AVG IPC :1.28637: L2-Pf-HR :0.79402: L2-HR :0.78644: (Sim:0h18m54s) 
CPU  0 inst:  273000002 cyc:  214381937 now IPC :0.28504: AVG IPC :1.26991: L2-Pf-HR :0.79411: L2-HR :0.78648: (Sim:0h19m2s) 
CPU  0 inst:  274000002 cyc:  217890788 now IPC :0.28499: AVG IPC :1.25397: L2-Pf-HR :0.79421: L2-HR :0.78653: (Sim:0h19m8s) 
CPU  0 inst:  275000002 cyc:  221400255 now IPC :0.28494: AVG IPC :1.23854: L2-Pf-HR :0.79431: L2-HR :0.78657: (Sim:0h19m17s) 
CPU  0 inst:  276000000 cyc:  224909361 now IPC :0.28497: AVG IPC :1.22360: L2-Pf-HR :0.79440: L2-HR :0.78661: (Sim:0h19m26s) 
CPU  0 inst:  277000001 cyc:  228418199 now IPC :0.28499: AVG IPC :1.20912: L2-Pf-HR :0.79449: L2-HR :0.78664: (Sim:0h19m36s) 
CPU  0 inst:  278000000 cyc:  231927581 now IPC :0.28495: AVG IPC :1.19508: L2-Pf-HR :0.79458: L2-HR :0.78669: (Sim:0h19m45s) 
CPU  0 inst:  279000000 cyc:  235437006 now IPC :0.28495: AVG IPC :1.18145: L2-Pf-HR :0.79468: L2-HR :0.78673: (Sim:0h19m54s) 
CPU  0 inst:  280000000 cyc:  238946243 now IPC :0.28496: AVG IPC :1.16823: L2-Pf-HR :0.79477: L2-HR :0.78676: (Sim:0h20m3s) 
CPU  0 inst:  281000001 cyc:  242454150 now IPC :0.28507: AVG IPC :1.15540: L2-Pf-HR :0.79486: L2-HR :0.78681: (Sim:0h20m12s) 
CPU  0 inst:  282000001 cyc:  245962221 now IPC :0.28506: AVG IPC :1.14294: L2-Pf-HR :0.79495: L2-HR :0.78684: (Sim:0h20m22s) 
CPU  0 inst:  283000002 cyc:  249470972 now IPC :0.28500: AVG IPC :1.13083: L2-Pf-HR :0.79504: L2-HR :0.78689: (Sim:0h20m29s) 
CPU  0 inst:  284000000 cyc:  252979722 now IPC :0.28500: AVG IPC :1.11905: L2-Pf-HR :0.79513: L2-HR :0.78692: (Sim:0h20m35s) 
CPU  0 inst:  285000001 cyc:  256489118 now IPC :0.28495: AVG IPC :1.10759: L2-Pf-HR :0.79522: L2-HR :0.78696: (Sim:0h20m42s) 
CPU  0 inst:  286000000 cyc:  259998316 now IPC :0.28497: AVG IPC :1.09645: L2-Pf-HR :0.79531: L2-HR :0.78700: (Sim:0h20m52s) 
CPU  0 inst:  287000000 cyc:  263507309 now IPC :0.28498: AVG IPC :1.08560: L2-Pf-HR :0.79540: L2-HR :0.78704: (Sim:0h21m1s) 
CPU  0 inst:  288000000 cyc:  267016147 now IPC :0.28499: AVG IPC :1.07504: L2-Pf-HR :0.79549: L2-HR :0.78708: (Sim:0h21m10s) 
CPU  0 inst:  289000001 cyc:  270525601 now IPC :0.28494: AVG IPC :1.06476: L2-Pf-HR :0.79557: L2-HR :0.78712: (Sim:0h21m19s) 
CPU  0 inst:  290000003 cyc:  274034252 now IPC :0.28501: AVG IPC :1.05474: L2-Pf-HR :0.79566: L2-HR :0.78715: (Sim:0h21m28s) 
CPU  0 inst:  291000001 cyc:  277542081 now IPC :0.28508: AVG IPC :1.04497: L2-Pf-HR :0.79574: L2-HR :0.78719: (Sim:0h21m38s) 
CPU  0 inst:  292000000 cyc:  281050420 now IPC :0.28503: AVG IPC :1.03545: L2-Pf-HR :0.79583: L2-HR :0.78723: (Sim:0h21m47s) 
CPU  0 inst:  293000001 cyc:  284559871 now IPC :0.28495: AVG IPC :1.02617: L2-Pf-HR :0.79592: L2-HR :0.78727: (Sim:0h21m56s) 
CPU  0 inst:  294000000 cyc:  288069025 now IPC :0.28497: AVG IPC :1.01711: L2-Pf-HR :0.79600: L2-HR :0.78730: (Sim:0h22m4s) 
CPU  0 inst:  295000000 cyc:  291577772 now IPC :0.28500: AVG IPC :1.00827: L2-Pf-HR :0.79609: L2-HR :0.78734: (Sim:0h22m12s) 
CPU  0 inst:  296000000 cyc:  295087079 now IPC :0.28496: AVG IPC :0.99964: L2-Pf-HR :0.79617: L2-HR :0.78738: (Sim:0h22m18s) 
CPU  0 inst:  297000001 cyc:  298595885 now IPC :0.28500: AVG IPC :0.99121: L2-Pf-HR :0.79625: L2-HR :0.78741: (Sim:0h22m24s) 
CPU  0 inst:  298000002 cyc:  302105581 now IPC :0.28493: AVG IPC :0.98298: L2-Pf-HR :0.79634: L2-HR :0.78745: (Sim:0h22m30s) 
CPU  0 inst:  299000002 cyc:  305614856 now IPC :0.28496: AVG IPC :0.97494: L2-Pf-HR :0.79642: L2-HR :0.78748: (Sim:0h22m36s) 
CPU  0 inst:  300000000 cyc:  309124182 now IPC :0.28495: AVG IPC :0.96708: L2-Pf-HR :0.79651: L2-HR :0.78752: (Sim:0h22m42s) 
CPU  0 inst:  301000001 cyc:  312631347 now IPC :0.28513: AVG IPC :0.95941: L2-Pf-HR :0.79659: L2-HR :0.78756: (Sim:0h22m48s) 
CPU  0 inst:  302000000 cyc:  316139968 now IPC :0.28501: AVG IPC :0.95190: L2-Pf-HR :0.79667: L2-HR :0.78759: (Sim:0h22m54s) 
CPU  0 inst:  303000000 cyc:  319648644 now IPC :0.28501: AVG IPC :0.94456: L2-Pf-HR :0.79675: L2-HR :0.78763: (Sim:0h23m1s) 
CPU  0 inst:  304000000 cyc:  323157646 now IPC :0.28498: AVG IPC :0.93737: L2-Pf-HR :0.79683: L2-HR :0.78766: (Sim:0h23m8s) 
CPU  0 inst:  305000001 cyc:  326666538 now IPC :0.28499: AVG IPC :0.93034: L2-Pf-HR :0.79692: L2-HR :0.78770: (Sim:0h23m14s) 
CPU  0 inst:  306000002 cyc:  330175507 now IPC :0.28498: AVG IPC :0.92346: L2-Pf-HR :0.79700: L2-HR :0.78773: (Sim:0h23m20s) 
CPU  0 inst:  307000002 cyc:  333684868 now IPC :0.28495: AVG IPC :0.91673: L2-Pf-HR :0.79708: L2-HR :0.78777: (Sim:0h23m26s) 
CPU  0 inst:  308000000 cyc:  337194082 now IPC :0.28496: AVG IPC :0.91013: L2-Pf-HR :0.79716: L2-HR :0.78781: (Sim:0h23m35s) 
CPU  0 inst:  309000000 cyc:  340703528 now IPC :0.28495: AVG IPC :0.90368: L2-Pf-HR :0.79723: L2-HR :0.78784: (Sim:0h23m45s) 
CPU  0 inst:  310000003 cyc:  344212823 now IPC :0.28496: AVG IPC :0.89735: L2-Pf-HR :0.79731: L2-HR :0.78787: (Sim:0h23m52s) 
CPU  0 inst:  311000002 cyc:  347721069 now IPC :0.28504: AVG IPC :0.89116: L2-Pf-HR :0.79739: L2-HR :0.78790: (Sim:0h24m1s) 
CPU  0 inst:  312000000 cyc:  351229782 now IPC :0.28500: AVG IPC :0.88508: L2-Pf-HR :0.79747: L2-HR :0.78794: (Sim:0h24m10s) 
CPU  0 inst:  313000001 cyc:  354738285 now IPC :0.28502: AVG IPC :0.87913: L2-Pf-HR :0.79754: L2-HR :0.78797: (Sim:0h24m19s) 
CPU  0 inst:  314000002 cyc:  358247491 now IPC :0.28497: AVG IPC :0.87330: L2-Pf-HR :0.79762: L2-HR :0.78801: (Sim:0h24m28s) 
CPU  0 inst:  315000002 cyc:  361756600 now IPC :0.28497: AVG IPC :0.86757: L2-Pf-HR :0.79770: L2-HR :0.78804: (Sim:0h24m37s) 
CPU  0 inst:  316000000 cyc:  365265416 now IPC :0.28500: AVG IPC :0.86196: L2-Pf-HR :0.79777: L2-HR :0.78807: (Sim:0h24m44s) 
CPU  0 inst:  317000000 cyc:  368774361 now IPC :0.28499: AVG IPC :0.85646: L2-Pf-HR :0.79785: L2-HR :0.78810: (Sim:0h24m53s) 
CPU  0 inst:  318000001 cyc:  372283161 now IPC :0.28500: AVG IPC :0.85106: L2-Pf-HR :0.79793: L2-HR :0.78814: (Sim:0h25m2s) 
CPU  0 inst:  319000000 cyc:  375792002 now IPC :0.28499: AVG IPC :0.84576: L2-Pf-HR :0.79800: L2-HR :0.78817: (Sim:0h25m12s) 
CPU  0 inst:  320000000 cyc:  379299900 now IPC :0.28507: AVG IPC :0.84056: L2-Pf-HR :0.79807: L2-HR :0.78820: (Sim:0h25m21s) 
CPU  0 inst:  321000000 cyc:  382808031 now IPC :0.28505: AVG IPC :0.83546: L2-Pf-HR :0.79815: L2-HR :0.78823: (Sim:0h25m30s) 
CPU  0 inst:  322000002 cyc:  386317276 now IPC :0.28496: AVG IPC :0.83044: L2-Pf-HR :0.79823: L2-HR :0.78826: (Sim:0h25m40s) 
CPU  0 inst:  323000002 cyc:  389826696 now IPC :0.28495: AVG IPC :0.82552: L2-Pf-HR :0.79830: L2-HR :0.78830: (Sim:0h25m49s) 
CPU  0 inst:  324000000 cyc:  393335846 now IPC :0.28497: AVG IPC :0.82068: L2-Pf-HR :0.79837: L2-HR :0.78833: (Sim:0h25m58s) 
CPU  0 inst:  325000000 cyc:  396845007 now IPC :0.28497: AVG IPC :0.81594: L2-Pf-HR :0.79845: L2-HR :0.78836: (Sim:0h26m5s) 
CPU  0 inst:  326000001 cyc:  400353504 now IPC :0.28502: AVG IPC :0.81127: L2-Pf-HR :0.79852: L2-HR :0.78839: (Sim:0h26m11s) 
CPU  0 inst:  327000001 cyc:  402364403 now IPC :0.49729: AVG IPC :0.80970: L2-Pf-HR :0.79821: L2-HR :0.78807: (Sim:0h26m15s) 
CPU  0 inst:  328000000 cyc:  402902884 now IPC :1.85707: AVG IPC :0.81110: L2-Pf-HR :0.79820: L2-HR :0.78807: (Sim:0h26m18s) 
CPU  0 inst:  329000003 cyc:  403552460 now IPC :1.53947: AVG IPC :0.81228: L2-Pf-HR :0.79817: L2-HR :0.78807: (Sim:0h26m21s) 
CPU  0 inst:  330000002 cyc:  404135690 now IPC :1.71459: AVG IPC :0.81358: L2-Pf-HR :0.79820: L2-HR :0.78813: (Sim:0h26m24s) 
CPU  0 inst:  331000001 cyc:  404650326 now IPC :1.94312: AVG IPC :0.81502: L2-Pf-HR :0.79811: L2-HR :0.78806: (Sim:0h26m26s) 
CPU  0 inst:  332000000 cyc:  405198688 now IPC :1.82361: AVG IPC :0.81639: L2-Pf-HR :0.79797: L2-HR :0.78795: (Sim:0h26m29s) 
CPU  0 inst:  333000003 cyc:  405761151 now IPC :1.77790: AVG IPC :0.81773: L2-Pf-HR :0.79807: L2-HR :0.78807: (Sim:0h26m32s) 
CPU  0 inst:  334000001 cyc:  406281493 now IPC :1.92181: AVG IPC :0.81914: L2-Pf-HR :0.79799: L2-HR :0.78797: (Sim:0h26m35s) 
CPU  0 inst:  335000001 cyc:  407031502 now IPC :1.33332: AVG IPC :0.82009: L2-Pf-HR :0.79789: L2-HR :0.78792: (Sim:0h26m38s) 
CPU  0 inst:  336000000 cyc:  407573749 now IPC :1.84418: AVG IPC :0.82146: L2-Pf-HR :0.79789: L2-HR :0.78793: (Sim:0h26m41s) 
CPU  0 inst:  337000001 cyc:  408112725 now IPC :1.85537: AVG IPC :0.82283: L2-Pf-HR :0.79784: L2-HR :0.78788: (Sim:0h26m43s) 
CPU  0 inst:  338000003 cyc:  408773646 now IPC :1.51304: AVG IPC :0.82395: L2-Pf-HR :0.79791: L2-HR :0.78799: (Sim:0h26m46s) 
CPU  0 inst:  339000000 cyc:  409293167 now IPC :1.92484: AVG IPC :0.82535: L2-Pf-HR :0.79786: L2-HR :0.78795: (Sim:0h26m49s) 
CPU  0 inst:  340000000 cyc:  409806345 now IPC :1.94864: AVG IPC :0.82676: L2-Pf-HR :0.79781: L2-HR :0.78793: (Sim:0h26m52s) 
CPU  0 inst:  341000000 cyc:  410362793 now IPC :1.79711: AVG IPC :0.82808: L2-Pf-HR :0.79800: L2-HR :0.78813: (Sim:0h26m54s) 
CPU  0 inst:  342000001 cyc:  410935623 now IPC :1.74572: AVG IPC :0.82936: L2-Pf-HR :0.79778: L2-HR :0.78791: (Sim:0h26m57s) 
CPU  0 inst:  343000002 cyc:  411476906 now IPC :1.84746: AVG IPC :0.83070: L2-Pf-HR :0.79775: L2-HR :0.78790: (Sim:0h27m0s) 
CPU  0 inst:  344000000 cyc:  412221066 now IPC :1.34379: AVG IPC :0.83163: L2-Pf-HR :0.79763: L2-HR :0.78782: (Sim:0h27m3s) 
CPU  0 inst:  345000003 cyc:  412744501 now IPC :1.91046: AVG IPC :0.83300: L2-Pf-HR :0.79759: L2-HR :0.78778: (Sim:0h27m6s) 
CPU  0 inst:  346000000 cyc:  413361895 now IPC :1.61971: AVG IPC :0.83418: L2-Pf-HR :0.79759: L2-HR :0.78781: (Sim:0h27m9s) 
CPU  0 inst:  347000000 cyc:  413950097 now IPC :1.70010: AVG IPC :0.83541: L2-Pf-HR :0.79759: L2-HR :0.78783: (Sim:0h27m12s) 
CPU  0 inst:  348000000 cyc:  414465290 now IPC :1.94102: AVG IPC :0.83679: L2-Pf-HR :0.79755: L2-HR :0.78781: (Sim:0h27m15s) 
CPU  0 inst:  349000003 cyc:  415026495 now IPC :1.78189: AVG IPC :0.83807: L2-Pf-HR :0.79747: L2-HR :0.78775: (Sim:0h27m18s) 
CPU  0 inst:  350000000 cyc:  415591584 now IPC :1.76963: AVG IPC :0.83934: L2-Pf-HR :0.79753: L2-HR :0.78783: (Sim:0h27m20s) 
CPU  0 inst:  351000001 cyc:  416116771 now IPC :1.90409: AVG IPC :0.84069: L2-Pf-HR :0.79744: L2-HR :0.78772: (Sim:0h27m24s) 
CPU  0 inst:  352000000 cyc:  416869555 now IPC :1.32840: AVG IPC :0.84157: L2-Pf-HR :0.79735: L2-HR :0.78768: (Sim:0h27m29s) 
CPU  0 inst:  353000000 cyc:  417407280 now IPC :1.85969: AVG IPC :0.84288: L2-Pf-HR :0.79728: L2-HR :0.78762: (Sim:0h27m33s) 
CPU  0 inst:  354000003 cyc:  417955300 now IPC :1.82476: AVG IPC :0.84418: L2-Pf-HR :0.79719: L2-HR :0.78755: (Sim:0h27m37s) 
CPU  0 inst:  355000001 cyc:  418615265 now IPC :1.51523: AVG IPC :0.84524: L2-Pf-HR :0.79726: L2-HR :0.78765: (Sim:0h27m42s) 
CPU  0 inst:  356000000 cyc:  419134792 now IPC :1.92483: AVG IPC :0.84658: L2-Pf-HR :0.79719: L2-HR :0.78760: (Sim:0h27m46s) 
CPU  0 inst:  357000002 cyc:  419651691 now IPC :1.93462: AVG IPC :0.84792: L2-Pf-HR :0.79714: L2-HR :0.78755: (Sim:0h27m51s) 
CPU  0 inst:  358000003 cyc:  420214958 now IPC :1.77536: AVG IPC :0.84917: L2-Pf-HR :0.79731: L2-HR :0.78775: (Sim:0h27m55s) 
CPU  0 inst:  359000000 cyc:  420769833 now IPC :1.80220: AVG IPC :0.85043: L2-Pf-HR :0.79711: L2-HR :0.78755: (Sim:0h27m59s) 
CPU  0 inst:  360000000 cyc:  421309301 now IPC :1.85368: AVG IPC :0.85171: L2-Pf-HR :0.79714: L2-HR :0.78759: (Sim:0h28m4s) 
CPU  0 inst:  361000003 cyc:  422065321 now IPC :1.32272: AVG IPC :0.85256: L2-Pf-HR :0.79699: L2-HR :0.78747: (Sim:0h28m9s) 
CPU  0 inst:  362000002 cyc:  422592227 now IPC :1.89787: AVG IPC :0.85387: L2-Pf-HR :0.79696: L2-HR :0.78745: (Sim:0h28m13s) 
CPU  0 inst:  363000001 cyc:  423205778 now IPC :1.62985: AVG IPC :0.85499: L2-Pf-HR :0.79702: L2-HR :0.78753: (Sim:0h28m17s) 
CPU  0 inst:  364000000 cyc:  423798650 now IPC :1.68670: AVG IPC :0.85616: L2-Pf-HR :0.79698: L2-HR :0.78752: (Sim:0h28m22s) 
CPU  0 inst:  365000000 cyc:  424316468 now IPC :1.93118: AVG IPC :0.85747: L2-Pf-HR :0.79692: L2-HR :0.78747: (Sim:0h28m25s) 
CPU  0 inst:  366000001 cyc:  424875389 now IPC :1.78916: AVG IPC :0.85870: L2-Pf-HR :0.79686: L2-HR :0.78743: (Sim:0h28m28s) 
CPU  0 inst:  367000001 cyc:  425441872 now IPC :1.76528: AVG IPC :0.85991: L2-Pf-HR :0.79689: L2-HR :0.78747: (Sim:0h28m30s) 
CPU  0 inst:  368000000 cyc:  425975557 now IPC :1.87376: AVG IPC :0.86119: L2-Pf-HR :0.79680: L2-HR :0.78738: (Sim:0h28m33s) 
CPU  0 inst:  369000000 cyc:  426721290 now IPC :1.34096: AVG IPC :0.86203: L2-Pf-HR :0.79678: L2-HR :0.78740: (Sim:0h28m36s) 
CPU  0 inst:  370000003 cyc:  427256556 now IPC :1.86824: AVG IPC :0.86329: L2-Pf-HR :0.79676: L2-HR :0.78738: (Sim:0h28m39s) 
CPU  0 inst:  371000002 cyc:  427867103 now IPC :1.63787: AVG IPC :0.86440: L2-Pf-HR :0.79664: L2-HR :0.78727: (Sim:0h28m42s) 
CPU  0 inst:  372000000 cyc:  428463887 now IPC :1.67564: AVG IPC :0.86553: L2-Pf-HR :0.79681: L2-HR :0.78746: (Sim:0h28m45s) 
CPU  0 inst:  373000002 cyc:  428985840 now IPC :1.91589: AVG IPC :0.86681: L2-Pf-HR :0.79679: L2-HR :0.78745: (Sim:0h28m48s) 
CPU  0 inst:  374000000 cyc:  429512933 now IPC :1.89719: AVG IPC :0.86808: L2-Pf-HR :0.79674: L2-HR :0.78741: (Sim:0h28m51s) 
CPU  0 inst:  375000002 cyc:  430109200 now IPC :1.67710: AVG IPC :0.86920: L2-Pf-HR :0.79683: L2-HR :0.78753: (Sim:0h28m53s) 
CPU  0 inst:  376000000 cyc:  430634756 now IPC :1.90274: AVG IPC :0.87047: L2-Pf-HR :0.79681: L2-HR :0.78749: (Sim:0h28m56s) 
CPU  0 inst:  377000001 cyc:  431176262 now IPC :1.84670: AVG IPC :0.87170: L2-Pf-HR :0.79692: L2-HR :0.78761: (Sim:0h28m59s) 
CPU  0 inst:  378000001 cyc:  431932220 now IPC :1.32282: AVG IPC :0.87249: L2-Pf-HR :0.79672: L2-HR :0.78744: (Sim:0h29m2s) 
CPU  0 inst:  379000001 cyc:  432455462 now IPC :1.91116: AVG IPC :0.87375: L2-Pf-HR :0.79671: L2-HR :0.78743: (Sim:0h29m5s) 
CPU  0 inst:  380000000 cyc:  433068559 now IPC :1.63106: AVG IPC :0.87482: L2-Pf-HR :0.79680: L2-HR :0.78754: (Sim:0h29m8s) 
CPU  0 inst:  381000001 cyc:  433659681 now IPC :1.69170: AVG IPC :0.87594: L2-Pf-HR :0.79672: L2-HR :0.78749: (Sim:0h29m11s) 
CPU  0 inst:  382000000 cyc:  434180212 now IPC :1.92111: AVG IPC :0.87719: L2-Pf-HR :0.79666: L2-HR :0.78743: (Sim:0h29m14s) 
CPU  0 inst:  383000000 cyc:  434736714 now IPC :1.79694: AVG IPC :0.87837: L2-Pf-HR :0.79665: L2-HR :0.78745: (Sim:0h29m17s) 
CPU  0 inst:  384000000 cyc:  435307597 now IPC :1.75167: AVG IPC :0.87952: L2-Pf-HR :0.79662: L2-HR :0.78743: (Sim:0h29m20s) 
CPU  0 inst:  385000003 cyc:  435853378 now IPC :1.83224: AVG IPC :0.88072: L2-Pf-HR :0.79647: L2-HR :0.78728: (Sim:0h29m23s) 
CPU  0 inst:  386000000 cyc:  436594646 now IPC :1.34904: AVG IPC :0.88151: L2-Pf-HR :0.79649: L2-HR :0.78733: (Sim:0h29m26s) 
CPU  0 inst:  387000001 cyc:  437124655 now IPC :1.88676: AVG IPC :0.88273: L2-Pf-HR :0.79646: L2-HR :0.78730: (Sim:0h29m29s) 
CPU  0 inst:  388000000 cyc:  437748595 now IPC :1.60272: AVG IPC :0.88376: L2-Pf-HR :0.79634: L2-HR :0.78721: (Sim:0h29m32s) 
CPU  0 inst:  389000003 cyc:  438336052 now IPC :1.70226: AVG IPC :0.88486: L2-Pf-HR :0.79647: L2-HR :0.78736: (Sim:0h29m35s) 
CPU  0 inst:  390000001 cyc:  438858375 now IPC :1.91452: AVG IPC :0.88609: L2-Pf-HR :0.79642: L2-HR :0.78733: (Sim:0h29m37s) 
CPU  0 inst:  391000002 cyc:  439393689 now IPC :1.86806: AVG IPC :0.88729: L2-Pf-HR :0.79633: L2-HR :0.78725: (Sim:0h29m40s) 
CPU  0 inst:  392000000 cyc:  439981903 now IPC :1.70006: AVG IPC :0.88838: L2-Pf-HR :0.79640: L2-HR :0.78735: (Sim:0h29m43s) 
CPU  0 inst:  393000002 cyc:  440507919 now IPC :1.90109: AVG IPC :0.88959: L2-Pf-HR :0.79634: L2-HR :0.78728: (Sim:0h29m46s) 
CPU  0 inst:  394000000 cyc:  441113260 now IPC :1.65196: AVG IPC :0.89064: L2-Pf-HR :0.79644: L2-HR :0.78739: (Sim:0h29m49s) 
CPU  0 inst:  395000003 cyc:  441811698 now IPC :1.43177: AVG IPC :0.89150: L2-Pf-HR :0.79628: L2-HR :0.78724: (Sim:0h29m52s) 
CPU  0 inst:  396000000 cyc:  442336676 now IPC :1.90484: AVG IPC :0.89270: L2-Pf-HR :0.79626: L2-HR :0.78723: (Sim:0h29m55s) 
CPU  0 inst:  397000002 cyc:  442949304 now IPC :1.63232: AVG IPC :0.89373: L2-Pf-HR :0.79638: L2-HR :0.78737: (Sim:0h29m58s) 
CPU  0 inst:  398000003 cyc:  443543418 now IPC :1.68318: AVG IPC :0.89479: L2-Pf-HR :0.79631: L2-HR :0.78732: (Sim:0h30m1s) 
CPU  0 inst:  399000002 cyc:  444060205 now IPC :1.93503: AVG IPC :0.89600: L2-Pf-HR :0.79630: L2-HR :0.78731: (Sim:0h30m4s) 
CPU  0 inst:  400000000 cyc:  444614378 now IPC :1.80449: AVG IPC :0.89714: L2-Pf-HR :0.79636: L2-HR :0.78739: (Sim:0h30m7s) 
CPU  0 inst:  401000003 cyc:  445181944 now IPC :1.76191: AVG IPC :0.89824: L2-Pf-HR :0.79634: L2-HR :0.78738: (Sim:0h30m12s) 
CPU  0 inst:  402000003 cyc:  445728561 now IPC :1.82943: AVG IPC :0.89938: L2-Pf-HR :0.79625: L2-HR :0.78729: (Sim:0h30m16s) 
CPU  0 inst:  403000002 cyc:  446483243 now IPC :1.32506: AVG IPC :0.90011: L2-Pf-HR :0.79629: L2-HR :0.78734: (Sim:0h30m21s) 
CPU  0 inst:  404000000 cyc:  447006657 now IPC :1.91053: AVG IPC :0.90129: L2-Pf-HR :0.79627: L2-HR :0.78733: (Sim:0h30m25s) 
CPU  0 inst:  405000000 cyc:  447628943 now IPC :1.60698: AVG IPC :0.90227: L2-Pf-HR :0.79618: L2-HR :0.78725: (Sim:0h30m30s) 
CPU  0 inst:  406000002 cyc:  448214492 now IPC :1.70780: AVG IPC :0.90333: L2-Pf-HR :0.79628: L2-HR :0.78738: (Sim:0h30m34s) 
CPU  0 inst:  407000002 cyc:  448737454 now IPC :1.91218: AVG IPC :0.90451: L2-Pf-HR :0.79626: L2-HR :0.78736: (Sim:0h30m38s) 
CPU  0 inst:  408000000 cyc:  449295713 now IPC :1.79128: AVG IPC :0.90561: L2-Pf-HR :0.79612: L2-HR :0.78724: (Sim:0h30m43s) 
CPU  0 inst:  409000002 cyc:  449860693 now IPC :1.76998: AVG IPC :0.90670: L2-Pf-HR :0.79624: L2-HR :0.78738: (Sim:0h30m47s) 
CPU  0 inst:  410000002 cyc:  450388054 now IPC :1.89623: AVG IPC :0.90786: L2-Pf-HR :0.79617: L2-HR :0.78730: (Sim:0h30m52s) 
CPU  0 inst:  411000000 cyc:  451098088 now IPC :1.40838: AVG IPC :0.90865: L2-Pf-HR :0.79613: L2-HR :0.78729: (Sim:0h30m56s) 
CPU  0 inst:  412000000 cyc:  451691226 now IPC :1.68595: AVG IPC :0.90967: L2-Pf-HR :0.79608: L2-HR :0.78724: (Sim:0h31m1s) 
CPU  0 inst:  413000003 cyc:  452216720 now IPC :1.90298: AVG IPC :0.91083: L2-Pf-HR :0.79605: L2-HR :0.78723: (Sim:0h31m5s) 
CPU  0 inst:  414000000 cyc:  452829864 now IPC :1.63093: AVG IPC :0.91181: L2-Pf-HR :0.79621: L2-HR :0.78739: (Sim:0h31m7s) 
CPU  0 inst:  415000000 cyc:  453426936 now IPC :1.67484: AVG IPC :0.91281: L2-Pf-HR :0.79607: L2-HR :0.78727: (Sim:0h31m10s) 
CPU  0 inst:  416000000 cyc:  453941316 now IPC :1.94409: AVG IPC :0.91399: L2-Pf-HR :0.79603: L2-HR :0.78725: (Sim:0h31m13s) 
CPU  0 inst:  417000002 cyc:  454498773 now IPC :1.79386: AVG IPC :0.91507: L2-Pf-HR :0.79611: L2-HR :0.78735: (Sim:0h31m16s) 
CPU  0 inst:  418000002 cyc:  455072941 now IPC :1.74165: AVG IPC :0.91611: L2-Pf-HR :0.79603: L2-HR :0.78727: (Sim:0h31m19s) 
CPU  0 inst:  419000000 cyc:  455617770 now IPC :1.83543: AVG IPC :0.91721: L2-Pf-HR :0.79592: L2-HR :0.78717: (Sim:0h31m22s) 
CPU  0 inst:  420000000 cyc:  456354493 now IPC :1.35736: AVG IPC :0.91793: L2-Pf-HR :0.79590: L2-HR :0.78717: (Sim:0h31m26s) 
CPU  0 inst:  421000001 cyc:  456877308 now IPC :1.91272: AVG IPC :0.91907: L2-Pf-HR :0.79588: L2-HR :0.78716: (Sim:0h31m29s) 
CPU  0 inst:  422000002 cyc:  457495454 now IPC :1.61774: AVG IPC :0.92001: L2-Pf-HR :0.79583: L2-HR :0.78712: (Sim:0h31m32s) 
CPU  0 inst:  423000001 cyc:  458083377 now IPC :1.70090: AVG IPC :0.92102: L2-Pf-HR :0.79591: L2-HR :0.78723: (Sim:0h31m35s) 
CPU  0 inst:  424000000 cyc:  458606221 now IPC :1.91261: AVG IPC :0.92215: L2-Pf-HR :0.79587: L2-HR :0.78719: (Sim:0h31m38s) 
CPU  0 inst:  425000002 cyc:  459169155 now IPC :1.77641: AVG IPC :0.92320: L2-Pf-HR :0.79574: L2-HR :0.78708: (Sim:0h31m40s) 
CPU  0 inst:  426000001 cyc:  459733549 now IPC :1.77181: AVG IPC :0.92424: L2-Pf-HR :0.79587: L2-HR :0.78723: (Sim:0h31m43s) 
CPU  0 inst:  427000001 cyc:  460260304 now IPC :1.89842: AVG IPC :0.92536: L2-Pf-HR :0.79580: L2-HR :0.78714: (Sim:0h31m46s) 
CPU  0 inst:  428000000 cyc:  461004998 now IPC :1.34283: AVG IPC :0.92604: L2-Pf-HR :0.79572: L2-HR :0.78709: (Sim:0h31m49s) 
CPU  0 inst:  429000003 cyc:  461553961 now IPC :1.82162: AVG IPC :0.92710: L2-Pf-HR :0.79571: L2-HR :0.78709: (Sim:0h31m52s) 
CPU  0 inst:  430000002 cyc:  462083639 now IPC :1.88794: AVG IPC :0.92821: L2-Pf-HR :0.79569: L2-HR :0.78707: (Sim:0h31m55s) 
CPU  0 inst:  431000003 cyc:  462698323 now IPC :1.62685: AVG IPC :0.92914: L2-Pf-HR :0.79587: L2-HR :0.78726: (Sim:0h31m59s) 
CPU  0 inst:  432000000 cyc:  463286449 now IPC :1.70031: AVG IPC :0.93012: L2-Pf-HR :0.79571: L2-HR :0.78712: (Sim:0h32m2s) 
CPU  0 inst:  433000003 cyc:  463800930 now IPC :1.94371: AVG IPC :0.93125: L2-Pf-HR :0.79566: L2-HR :0.78709: (Sim:0h32m5s) 
CPU  0 inst:  434000000 cyc:  464353751 now IPC :1.80890: AVG IPC :0.93229: L2-Pf-HR :0.79577: L2-HR :0.78721: (Sim:0h32m8s) 
CPU  0 inst:  435000002 cyc:  464929549 now IPC :1.73672: AVG IPC :0.93329: L2-Pf-HR :0.79566: L2-HR :0.78711: (Sim:0h32m12s) 
CPU  0 inst:  436000000 cyc:  465474823 now IPC :1.83394: AVG IPC :0.93435: L2-Pf-HR :0.79561: L2-HR :0.78706: (Sim:0h32m16s) 
CPU  0 inst:  437000001 cyc:  466221429 now IPC :1.33940: AVG IPC :0.93500: L2-Pf-HR :0.79559: L2-HR :0.78706: (Sim:0h32m20s) 
CPU  0 inst:  438000000 cyc:  466743359 now IPC :1.91596: AVG IPC :0.93610: L2-Pf-HR :0.79557: L2-HR :0.78705: (Sim:0h32m22s) 
CPU  0 inst:  439000000 cyc:  467366684 now IPC :1.60430: AVG IPC :0.93699: L2-Pf-HR :0.79555: L2-HR :0.78703: (Sim:0h32m25s) 
CPU  0 inst:  440000000 cyc:  467956640 now IPC :1.69504: AVG IPC :0.93795: L2-Pf-HR :0.79562: L2-HR :0.78711: (Sim:0h32m28s) 
CPU  0 inst:  441000003 cyc:  468471755 now IPC :1.94132: AVG IPC :0.93905: L2-Pf-HR :0.79566: L2-HR :0.78716: (Sim:0h32m31s) 
CPU  0 inst:  442000000 cyc:  469035167 now IPC :1.77489: AVG IPC :0.94006: L2-Pf-HR :0.79560: L2-HR :0.78712: (Sim:0h32m33s) 
CPU  0 inst:  443000003 cyc:  469599034 now IPC :1.77347: AVG IPC :0.94106: L2-Pf-HR :0.79577: L2-HR :0.78729: (Sim:0h32m38s) 
CPU  0 inst:  444000000 cyc:  470119042 now IPC :1.92304: AVG IPC :0.94215: L2-Pf-HR :0.79582: L2-HR :0.78731: (Sim:0h32m42s) 
CPU  0 inst:  445000003 cyc:  470876047 now IPC :1.32100: AVG IPC :0.94276: L2-Pf-HR :0.79580: L2-HR :0.78732: (Sim:0h32m47s) 
CPU  0 inst:  446000002 cyc:  471421285 now IPC :1.83406: AVG IPC :0.94380: L2-Pf-HR :0.79578: L2-HR :0.78731: (Sim:0h32m51s) 
CPU  0 inst:  447000003 cyc:  471959135 now IPC :1.85926: AVG IPC :0.94484: L2-Pf-HR :0.79576: L2-HR :0.78728: (Sim:0h32m54s) 
CPU  0 inst:  448000000 cyc:  472592935 now IPC :1.57778: AVG IPC :0.94569: L2-Pf-HR :0.79586: L2-HR :0.78741: (Sim:0h32m59s) 
CPU  0 inst:  449000000 cyc:  473155314 now IPC :1.77816: AVG IPC :0.94668: L2-Pf-HR :0.79581: L2-HR :0.78737: (Sim:0h33m3s) 
CPU  0 inst:  450000001 cyc:  473669561 now IPC :1.94459: AVG IPC :0.94777: L2-Pf-HR :0.79577: L2-HR :0.78734: (Sim:0h33m8s) 
CPU  0 inst:  451000002 cyc:  474223377 now IPC :1.80566: AVG IPC :0.94877: L2-Pf-HR :0.79591: L2-HR :0.78749: (Sim:0h33m12s) 
CPU  0 inst:  452000000 cyc:  474808317 now IPC :1.70957: AVG IPC :0.94971: L2-Pf-HR :0.79577: L2-HR :0.78734: (Sim:0h33m17s) 
CPU  0 inst:  453000000 cyc:  475349511 now IPC :1.84777: AVG IPC :0.95074: L2-Pf-HR :0.79575: L2-HR :0.78733: (Sim:0h33m20s) 
CPU  0 inst:  454000001 cyc:  476104696 now IPC :1.32418: AVG IPC :0.95133: L2-Pf-HR :0.79568: L2-HR :0.78728: (Sim:0h33m23s) 
CPU  0 inst:  455000001 cyc:  476625441 now IPC :1.92033: AVG IPC :0.95239: L2-Pf-HR :0.79567: L2-HR :0.78726: (Sim:0h33m25s) 
CPU  0 inst:  456000000 cyc:  477242661 now IPC :1.62017: AVG IPC :0.95326: L2-Pf-HR :0.79568: L2-HR :0.78730: (Sim:0h33m28s) 
CPU  0 inst:  457000002 cyc:  477836794 now IPC :1.68313: AVG IPC :0.95417: L2-Pf-HR :0.79568: L2-HR :0.78731: (Sim:0h33m31s) 
CPU  0 inst:  458000002 cyc:  478353047 now IPC :1.93703: AVG IPC :0.95523: L2-Pf-HR :0.79565: L2-HR :0.78729: (Sim:0h33m34s) 
CPU  0 inst:  459000001 cyc:  478914589 now IPC :1.78081: AVG IPC :0.95620: L2-Pf-HR :0.79556: L2-HR :0.78722: (Sim:0h33m37s) 
CPU  0 inst:  460000000 cyc:  479478146 now IPC :1.77444: AVG IPC :0.95716: L2-Pf-HR :0.79564: L2-HR :0.78731: (Sim:0h33m39s) 
CPU  0 inst:  461000001 cyc:  480000035 now IPC :1.91612: AVG IPC :0.95821: L2-Pf-HR :0.79558: L2-HR :0.78724: (Sim:0h33m42s) 
CPU  0 inst:  462000002 cyc:  480753464 now IPC :1.32727: AVG IPC :0.95879: L2-Pf-HR :0.79556: L2-HR :0.78724: (Sim:0h33m45s) 
CPU  0 inst:  463000000 cyc:  481295258 now IPC :1.84572: AVG IPC :0.95979: L2-Pf-HR :0.79554: L2-HR :0.78723: (Sim:0h33m48s) 
CPU  0 inst:  464000000 cyc:  481841426 now IPC :1.83094: AVG IPC :0.96078: L2-Pf-HR :0.79550: L2-HR :0.78719: (Sim:0h33m50s) 
CPU  0 inst:  465000002 cyc:  482509658 now IPC :1.49649: AVG IPC :0.96152: L2-Pf-HR :0.79557: L2-HR :0.78728: (Sim:0h33m53s) 
CPU  0 inst:  466000001 cyc:  483033071 now IPC :1.91054: AVG IPC :0.96255: L2-Pf-HR :0.79558: L2-HR :0.78729: (Sim:0h33m56s) 
CPU  0 inst:  467000001 cyc:  483547601 now IPC :1.94352: AVG IPC :0.96360: L2-Pf-HR :0.79558: L2-HR :0.78730: (Sim:0h33m58s) 
CPU  0 inst:  468000000 cyc:  484107293 now IPC :1.78670: AVG IPC :0.96455: L2-Pf-HR :0.79579: L2-HR :0.78751: (Sim:0h34m1s) 
CPU  0 inst:  469000001 cyc:  484675304 now IPC :1.76053: AVG IPC :0.96548: L2-Pf-HR :0.79565: L2-HR :0.78737: (Sim:0h34m4s) 
CPU  0 inst:  470000002 cyc:  485216577 now IPC :1.84750: AVG IPC :0.96647: L2-Pf-HR :0.79569: L2-HR :0.78742: (Sim:0h34m7s) 
CPU  0 inst:  471000002 cyc:  485964056 now IPC :1.33783: AVG IPC :0.96704: L2-Pf-HR :0.79560: L2-HR :0.78734: (Sim:0h34m10s) 
CPU  0 inst:  472000000 cyc:  486489735 now IPC :1.90230: AVG IPC :0.96806: L2-Pf-HR :0.79558: L2-HR :0.78732: (Sim:0h34m12s) 
CPU  0 inst:  473000000 cyc:  487105261 now IPC :1.62463: AVG IPC :0.96889: L2-Pf-HR :0.79562: L2-HR :0.78737: (Sim:0h34m15s) 
CPU  0 inst:  474000003 cyc:  487698276 now IPC :1.68630: AVG IPC :0.96976: L2-Pf-HR :0.79563: L2-HR :0.78740: (Sim:0h34m18s) 
CPU  0 inst:  475000003 cyc:  488216127 now IPC :1.93106: AVG IPC :0.97078: L2-Pf-HR :0.79564: L2-HR :0.78742: (Sim:0h34m20s) 
CPU  0 inst:  476000000 cyc:  488775888 now IPC :1.78647: AVG IPC :0.97172: L2-Pf-HR :0.79564: L2-HR :0.78742: (Sim:0h34m23s) 
CPU  0 inst:  477000001 cyc:  489343415 now IPC :1.76203: AVG IPC :0.97264: L2-Pf-HR :0.79573: L2-HR :0.78751: (Sim:0h34m26s) 
CPU  0 inst:  478000002 cyc:  489873161 now IPC :1.88770: AVG IPC :0.97363: L2-Pf-HR :0.79572: L2-HR :0.78748: (Sim:0h34m29s) 
CPU  0 inst:  479000003 cyc:  490618086 now IPC :1.34242: AVG IPC :0.97419: L2-Pf-HR :0.79569: L2-HR :0.78749: (Sim:0h34m32s) 
CPU  0 inst:  480000000 cyc:  491153704 now IPC :1.86700: AVG IPC :0.97516: L2-Pf-HR :0.79568: L2-HR :0.78747: (Sim:0h34m34s) 
CPU  0 inst:  481000002 cyc:  491733267 now IPC :1.72544: AVG IPC :0.97605: L2-Pf-HR :0.79561: L2-HR :0.78741: (Sim:0h34m37s) 
CPU  0 inst:  482000002 cyc:  492367205 now IPC :1.57744: AVG IPC :0.97683: L2-Pf-HR :0.79571: L2-HR :0.78753: (Sim:0h34m40s) 
CPU  0 inst:  483000001 cyc:  492891850 now IPC :1.90605: AVG IPC :0.97782: L2-Pf-HR :0.79567: L2-HR :0.78750: (Sim:0h34m42s) 
CPU  0 inst:  484000000 cyc:  493416199 now IPC :1.90712: AVG IPC :0.97881: L2-Pf-HR :0.79561: L2-HR :0.78745: (Sim:0h34m45s) 
CPU  0 inst:  485000000 cyc:  494001505 now IPC :1.70851: AVG IPC :0.97967: L2-Pf-HR :0.79572: L2-HR :0.78757: (Sim:0h34m48s) 
CPU  0 inst:  486000002 cyc:  494545372 now IPC :1.83869: AVG IPC :0.98062: L2-Pf-HR :0.79564: L2-HR :0.78749: (Sim:0h34m51s) 
CPU  0 inst:  487000001 cyc:  495089259 now IPC :1.83862: AVG IPC :0.98156: L2-Pf-HR :0.79570: L2-HR :0.78755: (Sim:0h34m53s) 
CPU  0 inst:  488000000 cyc:  495845276 now IPC :1.32272: AVG IPC :0.98209: L2-Pf-HR :0.79558: L2-HR :0.78746: (Sim:0h34m56s) 
CPU  0 inst:  489000002 cyc:  496376762 now IPC :1.88152: AVG IPC :0.98305: L2-Pf-HR :0.79556: L2-HR :0.78743: (Sim:0h34m59s) 
CPU  0 inst:  490000001 cyc:  496991686 now IPC :1.62622: AVG IPC :0.98385: L2-Pf-HR :0.79563: L2-HR :0.78751: (Sim:0h35m2s) 
CPU  0 inst:  491000000 cyc:  497589291 now IPC :1.67334: AVG IPC :0.98468: L2-Pf-HR :0.79560: L2-HR :0.78750: (Sim:0h35m5s) 
CPU  0 inst:  492000000 cyc:  498109767 now IPC :1.92132: AVG IPC :0.98566: L2-Pf-HR :0.79558: L2-HR :0.78748: (Sim:0h35m7s) 
CPU  0 inst:  493000002 cyc:  498668296 now IPC :1.79042: AVG IPC :0.98656: L2-Pf-HR :0.79559: L2-HR :0.78751: (Sim:0h35m10s) 
CPU  0 inst:  494000001 cyc:  499235736 now IPC :1.76230: AVG IPC :0.98745: L2-Pf-HR :0.79564: L2-HR :0.78756: (Sim:0h35m13s) 
CPU  0 inst:  495000000 cyc:  499775317 now IPC :1.85329: AVG IPC :0.98838: L2-Pf-HR :0.79561: L2-HR :0.78751: (Sim:0h35m15s) 
CPU  0 inst:  496000000 cyc:  500521608 now IPC :1.33996: AVG IPC :0.98891: L2-Pf-HR :0.79560: L2-HR :0.78754: (Sim:0h35m18s) 
CPU  0 inst:  497000000 cyc:  501056120 now IPC :1.87087: AVG IPC :0.98985: L2-Pf-HR :0.79557: L2-HR :0.78750: (Sim:0h35m21s) 
CPU  0 inst:  498000000 cyc:  501671742 now IPC :1.62437: AVG IPC :0.99063: L2-Pf-HR :0.79547: L2-HR :0.78742: (Sim:0h35m24s) 
CPU  0 inst:  499000000 cyc:  502268380 now IPC :1.67606: AVG IPC :0.99145: L2-Pf-HR :0.79559: L2-HR :0.78755: (Sim:0h35m27s) 
CPU  0 inst:  500000000 cyc:  502789954 now IPC :1.91727: AVG IPC :0.99241: L2-Pf-HR :0.79560: L2-HR :0.78756: (Sim:0h35m30s) 
CPU  0 inst:  501000001 cyc:  503321413 now IPC :1.88161: AVG IPC :0.99335: L2-Pf-HR :0.79558: L2-HR :0.78755: (Sim:0h35m32s) 
CPU  0 inst:  502000000 cyc:  503917194 now IPC :1.67847: AVG IPC :0.99416: L2-Pf-HR :0.79569: L2-HR :0.78767: (Sim:0h35m35s) 
CPU  0 inst:  503000003 cyc:  504439965 now IPC :1.91289: AVG IPC :0.99511: L2-Pf-HR :0.79569: L2-HR :0.78765: (Sim:0h35m38s) 
CPU  0 inst:  504000000 cyc:  504987702 now IPC :1.82569: AVG IPC :0.99602: L2-Pf-HR :0.79580: L2-HR :0.78776: (Sim:0h35m41s) 
CPU  0 inst:  505000003 cyc:  505736985 now IPC :1.33461: AVG IPC :0.99652: L2-Pf-HR :0.79562: L2-HR :0.78761: (Sim:0h35m44s) 
CPU  0 inst:  506000000 cyc:  506262345 now IPC :1.90345: AVG IPC :0.99746: L2-Pf-HR :0.79561: L2-HR :0.78760: (Sim:0h35m47s) 
CPU  0 inst:  507000001 cyc:  506876058 now IPC :1.62943: AVG IPC :0.99823: L2-Pf-HR :0.79569: L2-HR :0.78769: (Sim:0h35m50s) 
CPU  0 inst:  508000000 cyc:  507470223 now IPC :1.68303: AVG IPC :0.99903: L2-Pf-HR :0.79562: L2-HR :0.78764: (Sim:0h35m53s) 
CPU  0 inst:  509000002 cyc:  507992177 now IPC :1.91588: AVG IPC :0.99998: L2-Pf-HR :0.79557: L2-HR :0.78759: (Sim:0h35m55s) 
CPU  0 inst:  510000001 cyc:  508546470 now IPC :1.80410: AVG IPC :1.00085: L2-Pf-HR :0.79558: L2-HR :0.78763: (Sim:0h35m58s) 
CPU  0 inst:  511000000 cyc:  509116035 now IPC :1.75572: AVG IPC :1.00170: L2-Pf-HR :0.79556: L2-HR :0.78761: (Sim:0h36m1s) 
CPU  0 inst:  512000000 cyc:  509664104 now IPC :1.82459: AVG IPC :1.00259: L2-Pf-HR :0.79545: L2-HR :0.78750: (Sim:0h36m4s) 
CPU  0 inst:  513000002 cyc:  510410716 now IPC :1.33939: AVG IPC :1.00308: L2-Pf-HR :0.79549: L2-HR :0.78754: (Sim:0h36m7s) 
CPU  0 inst:  514000003 cyc:  510932339 now IPC :1.91710: AVG IPC :1.00402: L2-Pf-HR :0.79547: L2-HR :0.78753: (Sim:0h36m9s) 
CPU  0 inst:  515000002 cyc:  511552382 now IPC :1.61279: AVG IPC :1.00476: L2-Pf-HR :0.79538: L2-HR :0.78746: (Sim:0h36m12s) 
CPU  0 inst:  516000000 cyc:  512140109 now IPC :1.70147: AVG IPC :1.00556: L2-Pf-HR :0.79547: L2-HR :0.78756: (Sim:0h36m15s) 
CPU  0 inst:  517000002 cyc:  512666048 now IPC :1.90137: AVG IPC :1.00648: L2-Pf-HR :0.79546: L2-HR :0.78755: (Sim:0h36m18s) 
CPU  0 inst:  518000003 cyc:  513205149 now IPC :1.85494: AVG IPC :1.00737: L2-Pf-HR :0.79541: L2-HR :0.78752: (Sim:0h36m21s) 
CPU  0 inst:  519000002 cyc:  513787229 now IPC :1.71798: AVG IPC :1.00818: L2-Pf-HR :0.79554: L2-HR :0.78765: (Sim:0h36m23s) 
CPU  0 inst:  520000000 cyc:  514310509 now IPC :1.91102: AVG IPC :1.00910: L2-Pf-HR :0.79553: L2-HR :0.78762: (Sim:0h36m26s) 
CPU  0 inst:  521000001 cyc:  514960426 now IPC :1.53866: AVG IPC :1.00977: L2-Pf-HR :0.79557: L2-HR :0.78768: (Sim:0h36m29s) 
CPU  0 inst:  522000001 cyc:  515608017 now IPC :1.54418: AVG IPC :1.01044: L2-Pf-HR :0.79547: L2-HR :0.78759: (Sim:0h36m32s) 
CPU  0 inst:  523000000 cyc:  516135039 now IPC :1.89745: AVG IPC :1.01135: L2-Pf-HR :0.79544: L2-HR :0.78757: (Sim:0h36m35s) 
CPU  0 inst:  524000000 cyc:  516749824 now IPC :1.62658: AVG IPC :1.01208: L2-Pf-HR :0.79555: L2-HR :0.78768: (Sim:0h36m38s) 
CPU  0 inst:  525000001 cyc:  517339301 now IPC :1.69642: AVG IPC :1.01286: L2-Pf-HR :0.79546: L2-HR :0.78761: (Sim:0h36m40s) 
CPU  0 inst:  526000003 cyc:  517858621 now IPC :1.92560: AVG IPC :1.01378: L2-Pf-HR :0.79541: L2-HR :0.78757: (Sim:0h36m43s) 
CPU  0 inst:  527000003 cyc:  518416450 now IPC :1.79266: AVG IPC :1.01462: L2-Pf-HR :0.79547: L2-HR :0.78764: (Sim:0h36m46s) 
CPU  0 inst:  528000000 cyc:  518994028 now IPC :1.73136: AVG IPC :1.01542: L2-Pf-HR :0.79543: L2-HR :0.78760: (Sim:0h36m49s) 
CPU  0 inst:  529000000 cyc:  519539376 now IPC :1.83369: AVG IPC :1.01628: L2-Pf-HR :0.79534: L2-HR :0.78751: (Sim:0h36m52s) 
CPU  0 inst:  530000000 cyc:  520281735 now IPC :1.34706: AVG IPC :1.01675: L2-Pf-HR :0.79535: L2-HR :0.78754: (Sim:0h36m54s) 
CPU  0 inst:  531000001 cyc:  520803031 now IPC :1.91830: AVG IPC :1.01765: L2-Pf-HR :0.79535: L2-HR :0.78754: (Sim:0h36m57s) 
CPU  0 inst:  532000000 cyc:  521423836 now IPC :1.61081: AVG IPC :1.01836: L2-Pf-HR :0.79531: L2-HR :0.78751: (Sim:0h37m0s) 
CPU  0 inst:  533000000 cyc:  522010444 now IPC :1.70472: AVG IPC :1.01913: L2-Pf-HR :0.79539: L2-HR :0.78760: (Sim:0h37m3s) 
CPU  0 inst:  534000001 cyc:  522538673 now IPC :1.89312: AVG IPC :1.02002: L2-Pf-HR :0.79538: L2-HR :0.78760: (Sim:0h37m5s) 
CPU  0 inst:  535000002 cyc:  523102870 now IPC :1.77243: AVG IPC :1.02083: L2-Pf-HR :0.79530: L2-HR :0.78752: (Sim:0h37m8s) 
CPU  0 inst:  536000000 cyc:  523657548 now IPC :1.80284: AVG IPC :1.02166: L2-Pf-HR :0.79545: L2-HR :0.78768: (Sim:0h37m11s) 
CPU  0 inst:  537000003 cyc:  524185258 now IPC :1.89499: AVG IPC :1.02254: L2-Pf-HR :0.79545: L2-HR :0.78766: (Sim:0h37m14s) 
CPU  0 inst:  538000002 cyc:  524935289 now IPC :1.33328: AVG IPC :1.02299: L2-Pf-HR :0.79541: L2-HR :0.78764: (Sim:0h37m17s) 
CPU  0 inst:  539000003 cyc:  525487045 now IPC :1.81240: AVG IPC :1.02382: L2-Pf-HR :0.79540: L2-HR :0.78764: (Sim:0h37m19s) 
CPU  0 inst:  540000000 cyc:  526012323 now IPC :1.90375: AVG IPC :1.02470: L2-Pf-HR :0.79540: L2-HR :0.78764: (Sim:0h37m22s) 
CPU  0 inst:  541000001 cyc:  526622958 now IPC :1.63764: AVG IPC :1.02541: L2-Pf-HR :0.79556: L2-HR :0.78779: (Sim:0h37m25s) 
CPU  0 inst:  542000001 cyc:  527225044 now IPC :1.66089: AVG IPC :1.02614: L2-Pf-HR :0.79543: L2-HR :0.78769: (Sim:0h37m28s) 
CPU  0 inst:  543000000 cyc:  527738503 now IPC :1.94757: AVG IPC :1.02704: L2-Pf-HR :0.79543: L2-HR :0.78769: (Sim:0h37m30s) 
CPU  0 inst:  544000000 cyc:  528298717 now IPC :1.78503: AVG IPC :1.02784: L2-Pf-HR :0.79553: L2-HR :0.78780: (Sim:0h37m33s) 
CPU  0 inst:  545000002 cyc:  528874909 now IPC :1.73554: AVG IPC :1.02861: L2-Pf-HR :0.79550: L2-HR :0.78777: (Sim:0h37m36s) 
CPU  0 inst:  546000001 cyc:  529420877 now IPC :1.83161: AVG IPC :1.02944: L2-Pf-HR :0.79546: L2-HR :0.78773: (Sim:0h37m38s) 
CPU  0 inst:  547000003 cyc:  530174194 now IPC :1.32747: AVG IPC :1.02987: L2-Pf-HR :0.79546: L2-HR :0.78773: (Sim:0h37m41s) 
CPU  0 inst:  548000000 cyc:  530696829 now IPC :1.91338: AVG IPC :1.03074: L2-Pf-HR :0.79544: L2-HR :0.78772: (Sim:0h37m44s) 
CPU  0 inst:  549000000 cyc:  531318449 now IPC :1.60870: AVG IPC :1.03142: L2-Pf-HR :0.79540: L2-HR :0.78769: (Sim:0h37m46s) 
CPU  0 inst:  550000002 cyc:  531906484 now IPC :1.70058: AVG IPC :1.03216: L2-Pf-HR :0.79544: L2-HR :0.78775: (Sim:0h37m49s) 
CPU  0 inst:  551000000 cyc:  532433924 now IPC :1.89595: AVG IPC :1.03302: L2-Pf-HR :0.79543: L2-HR :0.78774: (Sim:0h37m52s) 
CPU  0 inst:  552000000 cyc:  532997931 now IPC :1.77303: AVG IPC :1.03380: L2-Pf-HR :0.79536: L2-HR :0.78768: (Sim:0h37m54s) 
CPU  0 inst:  553000000 cyc:  533560234 now IPC :1.77840: AVG IPC :1.03459: L2-Pf-HR :0.79550: L2-HR :0.78782: (Sim:0h37m57s) 
CPU  0 inst:  554000002 cyc:  534084604 now IPC :1.90705: AVG IPC :1.03544: L2-Pf-HR :0.79549: L2-HR :0.78780: (Sim:0h38m0s) 
CPU  0 inst:  555000002 cyc:  534835550 now IPC :1.33165: AVG IPC :1.03586: L2-Pf-HR :0.79546: L2-HR :0.78778: (Sim:0h38m3s) 
CPU  0 inst:  556000000 cyc:  535381728 now IPC :1.83090: AVG IPC :1.03667: L2-Pf-HR :0.79543: L2-HR :0.78776: (Sim:0h38m5s) 
CPU  0 inst:  557000000 cyc:  535916214 now IPC :1.87096: AVG IPC :1.03751: L2-Pf-HR :0.79540: L2-HR :0.78773: (Sim:0h38m8s) 
CPU  0 inst:  558000003 cyc:  536534856 now IPC :1.61645: AVG IPC :1.03818: L2-Pf-HR :0.79552: L2-HR :0.78786: (Sim:0h38m11s) 
CPU  0 inst:  559000002 cyc:  537115252 now IPC :1.72296: AVG IPC :1.03892: L2-Pf-HR :0.79544: L2-HR :0.78779: (Sim:0h38m13s) 
CPU  0 inst:  560000000 cyc:  537630094 now IPC :1.94234: AVG IPC :1.03978: L2-Pf-HR :0.79542: L2-HR :0.78778: (Sim:0h38m16s) 
CPU  0 inst:  561000002 cyc:  538186611 now IPC :1.79689: AVG IPC :1.04057: L2-Pf-HR :0.79555: L2-HR :0.78791: (Sim:0h38m18s) 
CPU  0 inst:  562000000 cyc:  538768385 now IPC :1.71888: AVG IPC :1.04130: L2-Pf-HR :0.79549: L2-HR :0.78785: (Sim:0h38m21s) 
CPU  0 inst:  563000001 cyc:  539314578 now IPC :1.83086: AVG IPC :1.04210: L2-Pf-HR :0.79549: L2-HR :0.78785: (Sim:0h38m24s) 
CPU  0 inst:  564000000 cyc:  540058665 now IPC :1.34393: AVG IPC :1.04252: L2-Pf-HR :0.79545: L2-HR :0.78782: (Sim:0h38m27s) 
CPU  0 inst:  565000000 cyc:  540577750 now IPC :1.92647: AVG IPC :1.04337: L2-Pf-HR :0.79544: L2-HR :0.78781: (Sim:0h38m29s) 
CPU  0 inst:  566000000 cyc:  541196480 now IPC :1.61621: AVG IPC :1.04403: L2-Pf-HR :0.79543: L2-HR :0.78781: (Sim:0h38m32s) 
CPU  0 inst:  567000003 cyc:  541787230 now IPC :1.69277: AVG IPC :1.04473: L2-Pf-HR :0.79545: L2-HR :0.78785: (Sim:0h38m35s) 
CPU  0 inst:  568000000 cyc:  542304465 now IPC :1.93335: AVG IPC :1.04558: L2-Pf-HR :0.79545: L2-HR :0.78784: (Sim:0h38m37s) 
CPU  0 inst:  569000001 cyc:  542867189 now IPC :1.77707: AVG IPC :1.04634: L2-Pf-HR :0.79540: L2-HR :0.78781: (Sim:0h38m40s) 
CPU  0 inst:  570000003 cyc:  543427013 now IPC :1.78628: AVG IPC :1.04711: L2-Pf-HR :0.79552: L2-HR :0.78793: (Sim:0h38m42s) 
CPU  0 inst:  571000001 cyc:  543947271 now IPC :1.92212: AVG IPC :1.04795: L2-Pf-HR :0.79551: L2-HR :0.78791: (Sim:0h38m45s) 
CPU  0 inst:  572000000 cyc:  544711610 now IPC :1.30832: AVG IPC :1.04831: L2-Pf-HR :0.79548: L2-HR :0.78789: (Sim:0h38m48s) 
CPU  0 inst:  573000002 cyc:  545251666 now IPC :1.85166: AVG IPC :1.04911: L2-Pf-HR :0.79546: L2-HR :0.78788: (Sim:0h38m51s) 
CPU  0 inst:  574000000 cyc:  545791994 now IPC :1.85072: AVG IPC :1.04990: L2-Pf-HR :0.79542: L2-HR :0.78784: (Sim:0h38m53s) 
CPU  0 inst:  575000003 cyc:  546460504 now IPC :1.49587: AVG IPC :1.05045: L2-Pf-HR :0.79547: L2-HR :0.78790: (Sim:0h38m56s) 
CPU  0 inst:  576000000 cyc:  546983584 now IPC :1.91175: AVG IPC :1.05128: L2-Pf-HR :0.79543: L2-HR :0.78787: (Sim:0h38m58s) 
CPU  0 inst:  577000003 cyc:  547497507 now IPC :1.94582: AVG IPC :1.05212: L2-Pf-HR :0.79540: L2-HR :0.78785: (Sim:0h39m1s) 
CPU  0 inst:  578000000 cyc:  548055000 now IPC :1.79374: AVG IPC :1.05287: L2-Pf-HR :0.79554: L2-HR :0.78799: (Sim:0h39m3s) 
CPU  0 inst:  579000001 cyc:  548627121 now IPC :1.74788: AVG IPC :1.05360: L2-Pf-HR :0.79541: L2-HR :0.78786: (Sim:0h39m6s) 
CPU  0 inst:  580000000 cyc:  549169217 now IPC :1.84469: AVG IPC :1.05438: L2-Pf-HR :0.79540: L2-HR :0.78785: (Sim:0h39m9s) 
CPU  0 inst:  581000002 cyc:  549923349 now IPC :1.32603: AVG IPC :1.05475: L2-Pf-HR :0.79533: L2-HR :0.78780: (Sim:0h39m11s) 
CPU  0 inst:  582000001 cyc:  550446328 now IPC :1.91212: AVG IPC :1.05557: L2-Pf-HR :0.79530: L2-HR :0.78777: (Sim:0h39m14s) 
CPU  0 inst:  583000003 cyc:  551063019 now IPC :1.62156: AVG IPC :1.05620: L2-Pf-HR :0.79531: L2-HR :0.78780: (Sim:0h39m17s) 
CPU  0 inst:  584000000 cyc:  551657336 now IPC :1.68260: AVG IPC :1.05688: L2-Pf-HR :0.79531: L2-HR :0.78781: (Sim:0h39m19s) 
CPU  0 inst:  585000003 cyc:  552173996 now IPC :1.93551: AVG IPC :1.05770: L2-Pf-HR :0.79531: L2-HR :0.78782: (Sim:0h39m22s) 
CPU  0 inst:  586000002 cyc:  552735419 now IPC :1.78119: AVG IPC :1.05844: L2-Pf-HR :0.79530: L2-HR :0.78781: (Sim:0h39m25s) 
CPU  0 inst:  587000002 cyc:  553307307 now IPC :1.74859: AVG IPC :1.05915: L2-Pf-HR :0.79539: L2-HR :0.78789: (Sim:0h39m27s) 
CPU  0 inst:  588000000 cyc:  553832937 now IPC :1.90248: AVG IPC :1.05996: L2-Pf-HR :0.79537: L2-HR :0.78787: (Sim:0h39m30s) 
CPU  0 inst:  589000000 cyc:  554595693 now IPC :1.31104: AVG IPC :1.06030: L2-Pf-HR :0.79535: L2-HR :0.78786: (Sim:0h39m33s) 
CPU  0 inst:  590000002 cyc:  555137618 now IPC :1.84528: AVG IPC :1.06107: L2-Pf-HR :0.79532: L2-HR :0.78784: (Sim:0h39m35s) 
CPU  0 inst:  591000003 cyc:  555685955 now IPC :1.82370: AVG IPC :1.06182: L2-Pf-HR :0.79529: L2-HR :0.78781: (Sim:0h39m38s) 
CPU  0 inst:  592000000 cyc:  556343702 now IPC :1.52034: AVG IPC :1.06237: L2-Pf-HR :0.79535: L2-HR :0.78788: (Sim:0h39m41s) 
CPU  0 inst:  593000001 cyc:  556865422 now IPC :1.91674: AVG IPC :1.06317: L2-Pf-HR :0.79535: L2-HR :0.78789: (Sim:0h39m43s) 
CPU  0 inst:  594000002 cyc:  557384994 now IPC :1.92466: AVG IPC :1.06397: L2-Pf-HR :0.79534: L2-HR :0.78787: (Sim:0h39m46s) 
Finished CPU 0 instr: 592000001 cyc: 556404833 AVG IPC: 1.06397 (Sim time: 0h39m46s)

ChampSim completed all CPUs

[ROI Statistics]
Core_0_instructions 592000001
Core_0_cycles 556404833
Core_0_IPC 1.06397

Core_0_branch_prediction_accuracy 98.24511
Core_0_branch_MPKI 0.42508
Core_0_average_ROB_occupancy_at_mispredict 249.31342

Core_0_L1D_total_access 351682960
Core_0_L1D_total_hit 338581280 L1D_total_Hit Ratio: 0.96275
Core_0_L1D_total_miss 13101680
Core_0_L1D_loads 135080114
Core_0_L1D_load_hit 129663446 L1D_load_Hit Ratio: 0.95990
Core_0_L1D_load_miss 5416668
Core_0_L1D_RFOs 11999661
Core_0_L1D_RFO_hit 11405245 L1D_RFO_Hit Ratio: 0.95046
Core_0_L1D_RFO_miss 594416
Core_0_L1D_prefetches 204603185
Core_0_L1D_prefetch_hit 197512589 L1D_prefetch_Hit Ratio: 0.96534
Core_0_L1D_prefetch_miss 7090596
Core_0_L1D_writebacks 0
Core_0_L1D_writeback_hit 0 L1D_writeback_Hit Ratio: -nan
Core_0_L1D_writeback_miss 0
Core_0_L1D_prefetch_requested 408250179
Core_0_L1D_prefetch_issued 245908248
Core_0_L1D_prefetch_useful 5681812 L1D_Useful Ratio: 0.02311
Core_0_L1D_prefetch_useless 1436468
Core_0_L1D_prefetch_late 1049077
Core_0_L1D_average_miss_latency 20003126.59261

Core_0_L1I_total_access 134284748
Core_0_L1I_total_hit 134279869 L1I_total_Hit Ratio: 0.99996
Core_0_L1I_total_miss 4879
Core_0_L1I_loads 134284748
Core_0_L1I_load_hit 134279869 L1I_load_Hit Ratio: 0.99996
Core_0_L1I_load_miss 4879
Core_0_L1I_RFOs 0
Core_0_L1I_RFO_hit 0 L1I_RFO_Hit Ratio: -nan
Core_0_L1I_RFO_miss 0
Core_0_L1I_prefetches 0
Core_0_L1I_prefetch_hit 0 L1I_prefetch_Hit Ratio: -nan
Core_0_L1I_prefetch_miss 0
Core_0_L1I_writebacks 0
Core_0_L1I_writeback_hit 0 L1I_writeback_Hit Ratio: -nan
Core_0_L1I_writeback_miss 0
Core_0_L1I_prefetch_requested 0
Core_0_L1I_prefetch_issued 0
Core_0_L1I_prefetch_useful 0 L1I_Useful Ratio: -nan
Core_0_L1I_prefetch_useless 0
Core_0_L1I_prefetch_late 0
Core_0_L1I_average_miss_latency 316.24308

Core_0_L2C_total_access 60391394
Core_0_L2C_total_hit 47580782 L2C_total_Hit Ratio: 0.78787
Core_0_L2C_total_miss 12810612
Core_0_L2C_loads 4373201
Core_0_L2C_load_hit 2808588 L2C_load_Hit Ratio: 0.64223
Core_0_L2C_load_miss 1564613
Core_0_L2C_RFOs 594273
Core_0_L2C_RFO_hit 204612 L2C_RFO_Hit Ratio: 0.34431
Core_0_L2C_RFO_miss 389661
Core_0_L2C_prefetches 52218842
Core_0_L2C_prefetch_hit 41531522 L2C_prefetch_Hit Ratio: 0.79534
Core_0_L2C_prefetch_miss 10687320
Core_0_L2C_writebacks 3205078
Core_0_L2C_writeback_hit 3036060 L2C_writeback_Hit Ratio: 0.94727
Core_0_L2C_writeback_miss 169018
Core_0_L2C_prefetch_requested 91516653
Core_0_L2C_prefetch_issued 71416591
Core_0_L2C_prefetch_useful 2304409 L2C_Useful Ratio: 0.03227
Core_0_L2C_prefetch_useless 8423042
Core_0_L2C_prefetch_late 79670
Core_0_L2C_average_miss_latency 112.72552

Core_0_LLC_total_access 16100767
Core_0_LLC_total_hit 12867543 LLC_total_Hit Ratio: 0.79919
Core_0_LLC_total_miss 3233224
Core_0_LLC_loads 1484949
Core_0_LLC_load_hit 1243333 LLC_load_Hit Ratio: 0.83729
Core_0_LLC_load_miss 241616
Core_0_LLC_RFOs 389661
Core_0_LLC_RFO_hit 77900 LLC_RFO_Hit Ratio: 0.19992
Core_0_LLC_RFO_miss 311761
Core_0_LLC_prefetches 11116508
Core_0_LLC_prefetch_hit 8436672 LLC_prefetch_Hit Ratio: 0.75893
Core_0_LLC_prefetch_miss 2679836
Core_0_LLC_writebacks 3109649
Core_0_LLC_writeback_hit 3109638 LLC_writeback_Hit Ratio: 1.00000
Core_0_LLC_writeback_miss 11
Core_0_LLC_prefetch_requested 0
Core_0_LLC_prefetch_issued 0
Core_0_LLC_prefetch_useful 705537 LLC_Useful Ratio: inf
Core_0_LLC_prefetch_useless 1974006
Core_0_LLC_prefetch_late 39027
Core_0_LLC_average_miss_latency 353.96054

Core_0_major_page_fault 0
Core_0_minor_page_fault 25625

CPU 0 L1D next line prefetcher final stats
CPU 0 L2C PC-based stride prefetcher final stats
Stride Degree: 16
MK1  MARKOV_LRU_SIZE: 128
MK1  MARKOV_PREDICTION_PERCENTTHRESHOLD: 40.00000
MK1  OUTLIERS_THRESHOLD_Max: 64
MK1  OUTLIERS_THRESHOLD_Min: 32
MK2  MARKOV_LRU_SIZE: 256
MK2  MARKOV_PREDICTION_PERCENTTHRESHOLD: 30.00000
MK2  OUTLIERS_THRESHOLD_Max: 32
MK2  OUTLIERS_THRESHOLD_Min: 16
MK3  MARKOV_LRU_SIZE: 384
MK3  MARKOV_PREDICTION_PERCENTTHRESHOLD: 25.00000
MK3  OUTLIERS_THRESHOLD_Max: 16
MK3  OUTLIERS_THRESHOLD_Min: 8
MK4  MARKOV_LRU_SIZE: 512
MK4  MARKOV_PREDICTION_PERCENTTHRESHOLD: 20.00000
MK4  OUTLIERS_THRESHOLD_Max: 8
MK4  OUTLIERS_THRESHOLD_Min: 0
IPStride Degree/Access Ratio: 5.34018
MK1 IPDEltaMarkov  Degree/Access Ratio: 0.21592
MK2 IPDEltaMarkov  Degree/Access Ratio: 0.32790
MK3 IPDEltaMarkov  Degree/Access Ratio: 0.49274
MK4 IPDEltaMarkov  Degree/Access Ratio: 1.51850
Channel_0_RQ_row_buffer_hit 1697093
Channel_0_RQ_row_buffer_miss 1535519
Channel_0_WQ_row_buffer_hit 506908
Channel_0_WQ_row_buffer_miss 1232291
Channel_0_WQ_full 0
Channel_0_dbus_congested 3517446

avg_congested_cycle 11

EzSearch AVG IPC :1.06397: L2-Pf-HR :0.79534 : L2-HR :0.78787 Uful:0.03227
     > Finished combination: TraceType=777-FE Sim:592000000 Prefetcher=L2029-TOP1_BF-L2-MultiMarkovDelta_ip_stride_v4 L1=next_line
