TRACE: [103000000]_FE_[OPT-2_7B]_[h32]_[s256]_[d80] Warmup: 2000000 NumTraces: 103000000
L1:next_line:L2:029-TOP1_BF-L2-MultiMarkovDelta_ip_stride_v4
*************************************************
   ChampSim Multicore Out-of-Order Simulator
   Last compiled: Oct 26 2024 10:48:17
*************************************************

trace_0 777-FE_comparisonScript_memoryTraces/memTraces[103000000]_FE_[OPT-2_7B]_[h32]_[s256]_[d80].champsim.xz
CPU 0 L1D next line prefetcher
MK1: Size: 128 TMAX: 64 TMIN: 32 MKPTHRESH: 40
MK2: Size: 256 TMAX: 32 TMIN: 16 MKPTHRESH: 30
MK3: Size: 384 TMAX: 16 TMIN: 8 MKPTHRESH: 25
MK4: Size: 512 TMAX: 8 TMIN: 0 MKPTHRESH: 20
Stride Size: 512 Prefetch Degree: 16

CPU 0 L2C prefetcher
MAIN.cc ln 751 stats print skipped
CPU 0 L2C prefetcher initialized


Cache Size: 256
number of cache lines: 4096
CPU  0 inst:    1000001 cyc:     503319 now IPC :1.98681: AVG IPC :1.98681: L2-Pf-HR :0.80719: L2-HR :0.77191: (Sim:0h0m3s) 
CPU  0 inst:    2000002 cyc:     983999 now IPC :2.08039: AVG IPC :2.03252: L2-Pf-HR :0.82934: L2-HR :0.80045: (Sim:0h0m6s) 

Warmup complete CPU  0 instructions:    2000002 cycles:     983999 (Simulation time: 0 hr 0 min 6 sec) 

CPU  0 inst:    3000002 cyc:    1568972 now IPC :1.70948: AVG IPC :1.70948: L2-Pf-HR :0.83812: L2-HR :0.82027: (Sim:0h0m8s) 
CPU  0 inst:    4000000 cyc:    2101805 now IPC :1.87676: AVG IPC :1.78922: L2-Pf-HR :0.84299: L2-HR :0.82540: (Sim:0h0m11s) 
CPU  0 inst:    5000001 cyc:    2687945 now IPC :1.70608: AVG IPC :1.76062: L2-Pf-HR :0.83966: L2-HR :0.82227: (Sim:0h0m14s) 
CPU  0 inst:    6000002 cyc:    3278584 now IPC :1.69308: AVG IPC :1.74323: L2-Pf-HR :0.83802: L2-HR :0.82069: (Sim:0h0m17s) 
CPU  0 inst:    7000001 cyc:    3904889 now IPC :1.59666: AVG IPC :1.71181: L2-Pf-HR :0.83697: L2-HR :0.81950: (Sim:0h0m19s) 
CPU  0 inst:    8000000 cyc:    4504841 now IPC :1.66680: AVG IPC :1.70414: L2-Pf-HR :0.83705: L2-HR :0.81947: (Sim:0h0m22s) 
CPU  0 inst:    9000002 cyc:    5076607 now IPC :1.74897: AVG IPC :1.71040: L2-Pf-HR :0.83587: L2-HR :0.81828: (Sim:0h0m25s) 
CPU  0 inst:   10000001 cyc:    5709906 now IPC :1.57903: AVG IPC :1.69280: L2-Pf-HR :0.83529: L2-HR :0.81755: (Sim:0h0m28s) 
CPU  0 inst:   11000000 cyc:    6337592 now IPC :1.59315: AVG IPC :1.68111: L2-Pf-HR :0.83525: L2-HR :0.81741: (Sim:0h0m30s) 
CPU  0 inst:   12000000 cyc:    6962442 now IPC :1.60038: AVG IPC :1.67268: L2-Pf-HR :0.83524: L2-HR :0.81750: (Sim:0h0m33s) 
CPU  0 inst:   13000003 cyc:    7518309 now IPC :1.79900: AVG IPC :1.68342: L2-Pf-HR :0.83491: L2-HR :0.81715: (Sim:0h0m36s) 
CPU  0 inst:   14000000 cyc:    8147235 now IPC :1.59001: AVG IPC :1.67522: L2-Pf-HR :0.83439: L2-HR :0.81662: (Sim:0h0m39s) 
CPU  0 inst:   15000003 cyc:    8775170 now IPC :1.59253: AVG IPC :1.66856: L2-Pf-HR :0.83421: L2-HR :0.81633: (Sim:0h0m42s) 
CPU  0 inst:   16000000 cyc:    9400836 now IPC :1.59829: AVG IPC :1.66333: L2-Pf-HR :0.83442: L2-HR :0.81653: (Sim:0h0m44s) 
CPU  0 inst:   17000002 cyc:    9944356 now IPC :1.83986: AVG IPC :1.67404: L2-Pf-HR :0.83318: L2-HR :0.81540: (Sim:0h0m47s) 
CPU  0 inst:   18000003 cyc:   10567312 now IPC :1.60525: AVG IPC :1.66957: L2-Pf-HR :0.83144: L2-HR :0.81380: (Sim:0h0m50s) 
CPU  0 inst:   19000001 cyc:   11197485 now IPC :1.58686: AVG IPC :1.66447: L2-Pf-HR :0.83012: L2-HR :0.81263: (Sim:0h0m53s) 
CPU  0 inst:   20000000 cyc:   11823394 now IPC :1.59767: AVG IPC :1.66061: L2-Pf-HR :0.82991: L2-HR :0.81253: (Sim:0h0m55s) 
CPU  0 inst:   21000000 cyc:   12380957 now IPC :1.79352: AVG IPC :1.66711: L2-Pf-HR :0.82974: L2-HR :0.81229: (Sim:0h0m58s) 
CPU  0 inst:   22000003 cyc:   12993476 now IPC :1.63261: AVG IPC :1.66535: L2-Pf-HR :0.82926: L2-HR :0.81188: (Sim:0h1m1s) 
CPU  0 inst:   23000003 cyc:   13618030 now IPC :1.60114: AVG IPC :1.66218: L2-Pf-HR :0.82929: L2-HR :0.81190: (Sim:0h1m4s) 
CPU  0 inst:   24000000 cyc:   14251140 now IPC :1.57950: AVG IPC :1.65823: L2-Pf-HR :0.82914: L2-HR :0.81177: (Sim:0h1m7s) 
CPU  0 inst:   25000002 cyc:   14859542 now IPC :1.64365: AVG IPC :1.65759: L2-Pf-HR :0.82915: L2-HR :0.81178: (Sim:0h1m9s) 
CPU  0 inst:   26000003 cyc:   15421786 now IPC :1.77859: AVG IPC :1.66230: L2-Pf-HR :0.82905: L2-HR :0.81167: (Sim:0h1m12s) 
CPU  0 inst:   27000000 cyc:   16046663 now IPC :1.60031: AVG IPC :1.65973: L2-Pf-HR :0.82878: L2-HR :0.81138: (Sim:0h1m15s) 
CPU  0 inst:   28000000 cyc:   16673947 now IPC :1.59417: AVG IPC :1.65711: L2-Pf-HR :0.82878: L2-HR :0.81135: (Sim:0h1m18s) 
CPU  0 inst:   29000003 cyc:   17305631 now IPC :1.58307: AVG IPC :1.65425: L2-Pf-HR :0.82866: L2-HR :0.81127: (Sim:0h1m20s) 
CPU  0 inst:   30000001 cyc:   17845681 now IPC :1.85168: AVG IPC :1.66057: L2-Pf-HR :0.82847: L2-HR :0.81111: (Sim:0h1m23s) 
CPU  0 inst:   31000000 cyc:   18474844 now IPC :1.58941: AVG IPC :1.65801: L2-Pf-HR :0.82811: L2-HR :0.81078: (Sim:0h1m26s) 
CPU  0 inst:   32000000 cyc:   19102006 now IPC :1.59448: AVG IPC :1.65581: L2-Pf-HR :0.82790: L2-HR :0.81057: (Sim:0h1m29s) 
CPU  0 inst:   33000002 cyc:   19723915 now IPC :1.60796: AVG IPC :1.65422: L2-Pf-HR :0.82807: L2-HR :0.81071: (Sim:0h1m32s) 
CPU  0 inst:   34000000 cyc:   20262274 now IPC :1.85749: AVG IPC :1.65990: L2-Pf-HR :0.82802: L2-HR :0.81065: (Sim:0h1m34s) 
CPU  0 inst:   35000002 cyc:   20888550 now IPC :1.59674: AVG IPC :1.65791: L2-Pf-HR :0.82778: L2-HR :0.81046: (Sim:0h1m37s) 
CPU  0 inst:   36000000 cyc:   21519826 now IPC :1.58409: AVG IPC :1.65564: L2-Pf-HR :0.82754: L2-HR :0.81023: (Sim:0h1m40s) 
CPU  0 inst:   37000000 cyc:   22146876 now IPC :1.59477: AVG IPC :1.65384: L2-Pf-HR :0.82742: L2-HR :0.81012: (Sim:0h1m43s) 
CPU  0 inst:   38000002 cyc:   22735552 now IPC :1.69873: AVG IPC :1.65505: L2-Pf-HR :0.82749: L2-HR :0.81019: (Sim:0h1m45s) 
CPU  0 inst:   39000000 cyc:   23322085 now IPC :1.70493: AVG IPC :1.65636: L2-Pf-HR :0.82735: L2-HR :0.81006: (Sim:0h1m48s) 
CPU  0 inst:   40000000 cyc:   23953091 now IPC :1.58477: AVG IPC :1.65440: L2-Pf-HR :0.82740: L2-HR :0.81011: (Sim:0h1m51s) 
CPU  0 inst:   41000000 cyc:   24584979 now IPC :1.58256: AVG IPC :1.65247: L2-Pf-HR :0.82746: L2-HR :0.81019: (Sim:0h1m54s) 
CPU  0 inst:   42000002 cyc:   25662617 now IPC :0.92796: AVG IPC :1.62084: L2-Pf-HR :0.82572: L2-HR :0.80861: (Sim:0h1m57s) 
CPU  0 inst:   43000001 cyc:   31722062 now IPC :0.16503: AVG IPC :1.33385: L2-Pf-HR :0.80377: L2-HR :0.79407: (Sim:0h2m6s) 
CPU  0 inst:   44000000 cyc:   35523361 now IPC :0.26307: AVG IPC :1.21600: L2-Pf-HR :0.80030: L2-HR :0.79175: (Sim:0h2m12s) 
CPU  0 inst:   45000002 cyc:   38950186 now IPC :0.29182: AVG IPC :1.13259: L2-Pf-HR :0.79951: L2-HR :0.79142: (Sim:0h2m17s) 
CPU  0 inst:   46000002 cyc:   42373605 now IPC :0.29211: AVG IPC :1.06307: L2-Pf-HR :0.79894: L2-HR :0.79128: (Sim:0h2m22s) 
CPU  0 inst:   47000002 cyc:   45797058 now IPC :0.29210: AVG IPC :1.00417: L2-Pf-HR :0.79840: L2-HR :0.79115: (Sim:0h2m27s) 
CPU  0 inst:   48000000 cyc:   49220646 now IPC :0.29209: AVG IPC :0.95363: L2-Pf-HR :0.79784: L2-HR :0.79100: (Sim:0h2m33s) 
CPU  0 inst:   49000002 cyc:   52642857 now IPC :0.29221: AVG IPC :0.90981: L2-Pf-HR :0.79739: L2-HR :0.79092: (Sim:0h2m38s) 
CPU  0 inst:   50000002 cyc:   56065433 now IPC :0.29218: AVG IPC :0.87144: L2-Pf-HR :0.79691: L2-HR :0.79082: (Sim:0h2m43s) 
CPU  0 inst:   51000002 cyc:   59488741 now IPC :0.29212: AVG IPC :0.83754: L2-Pf-HR :0.79642: L2-HR :0.79070: (Sim:0h2m48s) 
CPU  0 inst:   52000000 cyc:   62909869 now IPC :0.29230: AVG IPC :0.80742: L2-Pf-HR :0.79604: L2-HR :0.79066: (Sim:0h2m53s) 
CPU  0 inst:   53000002 cyc:   66333940 now IPC :0.29205: AVG IPC :0.78041: L2-Pf-HR :0.79556: L2-HR :0.79054: (Sim:0h2m59s) 
CPU  0 inst:   54000002 cyc:   69757076 now IPC :0.29213: AVG IPC :0.75611: L2-Pf-HR :0.79512: L2-HR :0.79043: (Sim:0h3m4s) 
CPU  0 inst:   55000002 cyc:   73179119 now IPC :0.29222: AVG IPC :0.73412: L2-Pf-HR :0.79474: L2-HR :0.79037: (Sim:0h3m9s) 
CPU  0 inst:   56000000 cyc:   76603142 now IPC :0.29205: AVG IPC :0.71410: L2-Pf-HR :0.79426: L2-HR :0.79022: (Sim:0h3m14s) 
CPU  0 inst:   57000002 cyc:   80027708 now IPC :0.29201: AVG IPC :0.69582: L2-Pf-HR :0.79376: L2-HR :0.79005: (Sim:0h3m19s) 
CPU  0 inst:   58000002 cyc:   83451819 now IPC :0.29205: AVG IPC :0.67905: L2-Pf-HR :0.79330: L2-HR :0.78991: (Sim:0h3m25s) 
CPU  0 inst:   59000002 cyc:   86875437 now IPC :0.29209: AVG IPC :0.66363: L2-Pf-HR :0.79291: L2-HR :0.78981: (Sim:0h3m30s) 
CPU  0 inst:   60000000 cyc:   89526137 now IPC :0.37726: AVG IPC :0.65506: L2-Pf-HR :0.79222: L2-HR :0.78919: (Sim:0h3m34s) 
CPU  0 inst:   61000002 cyc:   90149913 now IPC :1.60314: AVG IPC :0.66169: L2-Pf-HR :0.79297: L2-HR :0.78996: (Sim:0h3m37s) 
CPU  0 inst:   62000003 cyc:   90777545 now IPC :1.59329: AVG IPC :0.66820: L2-Pf-HR :0.79409: L2-HR :0.79106: (Sim:0h3m40s) 
CPU  0 inst:   63000002 cyc:   91473124 now IPC :1.43765: AVG IPC :0.67411: L2-Pf-HR :0.79438: L2-HR :0.79142: (Sim:0h3m43s) 
CPU  0 inst:   64000000 cyc:   92127202 now IPC :1.52887: AVG IPC :0.68025: L2-Pf-HR :0.79454: L2-HR :0.79164: (Sim:0h3m45s) 
CPU  0 inst:   65000003 cyc:   92672128 now IPC :1.83512: AVG IPC :0.68711: L2-Pf-HR :0.79564: L2-HR :0.79271: (Sim:0h3m48s) 
CPU  0 inst:   66000002 cyc:   93304404 now IPC :1.58159: AVG IPC :0.69324: L2-Pf-HR :0.79602: L2-HR :0.79313: (Sim:0h3m51s) 
CPU  0 inst:   67000001 cyc:   93962364 now IPC :1.51985: AVG IPC :0.69909: L2-Pf-HR :0.79611: L2-HR :0.79328: (Sim:0h3m54s) 
CPU  0 inst:   68000000 cyc:   94594364 now IPC :1.58228: AVG IPC :0.70505: L2-Pf-HR :0.79633: L2-HR :0.79355: (Sim:0h3m57s) 
CPU  0 inst:   69000000 cyc:   95132013 now IPC :1.85995: AVG IPC :0.71165: L2-Pf-HR :0.79750: L2-HR :0.79470: (Sim:0h3m59s) 
CPU  0 inst:   70000003 cyc:   95783791 now IPC :1.53427: AVG IPC :0.71730: L2-Pf-HR :0.79768: L2-HR :0.79492: (Sim:0h4m2s) 
CPU  0 inst:   71000001 cyc:   96435983 now IPC :1.53329: AVG IPC :0.72288: L2-Pf-HR :0.79767: L2-HR :0.79498: (Sim:0h4m5s) 
CPU  0 inst:   72000000 cyc:   97021392 now IPC :1.70821: AVG IPC :0.72888: L2-Pf-HR :0.79807: L2-HR :0.79541: (Sim:0h4m7s) 
CPU  0 inst:   73000000 cyc:   97616993 now IPC :1.67898: AVG IPC :0.73474: L2-Pf-HR :0.79872: L2-HR :0.79605: (Sim:0h4m10s) 
CPU  0 inst:   74000003 cyc:   98258980 now IPC :1.55767: AVG IPC :0.74017: L2-Pf-HR :0.79875: L2-HR :0.79613: (Sim:0h4m13s) 
CPU  0 inst:   75000000 cyc:   98895512 now IPC :1.57101: AVG IPC :0.74557: L2-Pf-HR :0.79892: L2-HR :0.79637: (Sim:0h4m16s) 
CPU  0 inst:   76000000 cyc:   99439727 now IPC :1.83751: AVG IPC :0.75161: L2-Pf-HR :0.79981: L2-HR :0.79722: (Sim:0h4m18s) 
CPU  0 inst:   77000003 cyc:  100082549 now IPC :1.55565: AVG IPC :0.75682: L2-Pf-HR :0.80001: L2-HR :0.79746: (Sim:0h4m21s) 
CPU  0 inst:   78000001 cyc:  100729732 now IPC :1.54515: AVG IPC :0.76194: L2-Pf-HR :0.80000: L2-HR :0.79749: (Sim:0h4m24s) 
CPU  0 inst:   79000000 cyc:  101356501 now IPC :1.59548: AVG IPC :0.76714: L2-Pf-HR :0.80006: L2-HR :0.79760: (Sim:0h4m27s) 
CPU  0 inst:   80000000 cyc:  101893689 now IPC :1.86155: AVG IPC :0.77297: L2-Pf-HR :0.80098: L2-HR :0.79851: (Sim:0h4m29s) 
CPU  0 inst:   81000002 cyc:  102536660 now IPC :1.55528: AVG IPC :0.77792: L2-Pf-HR :0.80099: L2-HR :0.79857: (Sim:0h4m32s) 
CPU  0 inst:   82000002 cyc:  103178571 now IPC :1.55785: AVG IPC :0.78282: L2-Pf-HR :0.80108: L2-HR :0.79871: (Sim:0h4m35s) 
CPU  0 inst:   83000000 cyc:  103760744 now IPC :1.71770: AVG IPC :0.78812: L2-Pf-HR :0.80148: L2-HR :0.79912: (Sim:0h4m38s) 
CPU  0 inst:   84000000 cyc:  104358339 now IPC :1.67337: AVG IPC :0.79323: L2-Pf-HR :0.80210: L2-HR :0.79973: (Sim:0h4m40s) 
CPU  0 inst:   85000003 cyc:  105000321 now IPC :1.55768: AVG IPC :0.79795: L2-Pf-HR :0.80215: L2-HR :0.79981: (Sim:0h4m43s) 
CPU  0 inst:   86000000 cyc:  105632014 now IPC :1.58304: AVG IPC :0.80269: L2-Pf-HR :0.80226: L2-HR :0.79995: (Sim:0h4m46s) 
CPU  0 inst:   87000000 cyc:  106177860 now IPC :1.83202: AVG IPC :0.80803: L2-Pf-HR :0.80289: L2-HR :0.80056: (Sim:0h4m49s) 
CPU  0 inst:   88000000 cyc:  106815399 now IPC :1.56853: AVG IPC :0.81261: L2-Pf-HR :0.80306: L2-HR :0.80076: (Sim:0h4m52s) 
CPU  0 inst:   89000001 cyc:  107451873 now IPC :1.57116: AVG IPC :0.81715: L2-Pf-HR :0.80309: L2-HR :0.80082: (Sim:0h4m54s) 
CPU  0 inst:   90000003 cyc:  108088666 now IPC :1.57037: AVG IPC :0.82163: L2-Pf-HR :0.80312: L2-HR :0.80089: (Sim:0h4m57s) 
CPU  0 inst:   91000001 cyc:  108623130 now IPC :1.87103: AVG IPC :0.82684: L2-Pf-HR :0.80395: L2-HR :0.80170: (Sim:0h5m0s) 
CPU  0 inst:   92000000 cyc:  109272770 now IPC :1.53931: AVG IPC :0.83111: L2-Pf-HR :0.80398: L2-HR :0.80175: (Sim:0h5m2s) 
CPU  0 inst:   93000002 cyc:  109929283 now IPC :1.52320: AVG IPC :0.83528: L2-Pf-HR :0.80401: L2-HR :0.80182: (Sim:0h5m5s) 
CPU  0 inst:   94000003 cyc:  110501387 now IPC :1.74794: AVG IPC :0.84005: L2-Pf-HR :0.80427: L2-HR :0.80208: (Sim:0h5m8s) 
CPU  0 inst:   95000000 cyc:  111107782 now IPC :1.64909: AVG IPC :0.84450: L2-Pf-HR :0.80460: L2-HR :0.80242: (Sim:0h5m10s) 
CPU  0 inst:   96000000 cyc:  111748330 now IPC :1.56116: AVG IPC :0.84865: L2-Pf-HR :0.80454: L2-HR :0.80239: (Sim:0h5m13s) 
CPU  0 inst:   97000003 cyc:  112381916 now IPC :1.57832: AVG IPC :0.85280: L2-Pf-HR :0.80454: L2-HR :0.80243: (Sim:0h5m16s) 
CPU  0 inst:   98000000 cyc:  112927087 now IPC :1.83428: AVG IPC :0.85758: L2-Pf-HR :0.80514: L2-HR :0.80302: (Sim:0h5m19s) 
CPU  0 inst:   99000003 cyc:  113560252 now IPC :1.57937: AVG IPC :0.86164: L2-Pf-HR :0.80524: L2-HR :0.80313: (Sim:0h5m21s) 
CPU  0 inst:  100000000 cyc:  114219493 now IPC :1.51689: AVG IPC :0.86545: L2-Pf-HR :0.80527: L2-HR :0.80319: (Sim:0h5m24s) 
Finished CPU 0 instr: 98000002 cyc: 113235514 AVG IPC: 0.86545 (Sim time: 0h5m24s)

ChampSim completed all CPUs

[ROI Statistics]
Core_0_instructions 98000002
Core_0_cycles 113235514
Core_0_IPC 0.86545

Core_0_branch_prediction_accuracy 98.32538
Core_0_branch_MPKI 0.51239
Core_0_average_ROB_occupancy_at_mispredict 220.59898

Core_0_L1D_total_access 62516669
Core_0_L1D_total_hit 59910875 L1D_total_Hit Ratio: 0.95832
Core_0_L1D_total_miss 2605794
Core_0_L1D_loads 22984598
Core_0_L1D_load_hit 21806017 L1D_load_Hit Ratio: 0.94872
Core_0_L1D_load_miss 1178581
Core_0_L1D_RFOs 2939860
Core_0_L1D_RFO_hit 2801067 L1D_RFO_Hit Ratio: 0.95279
Core_0_L1D_RFO_miss 138793
Core_0_L1D_prefetches 36592211
Core_0_L1D_prefetch_hit 35303791 L1D_prefetch_Hit Ratio: 0.96479
Core_0_L1D_prefetch_miss 1288420
Core_0_L1D_writebacks 0
Core_0_L1D_writeback_hit 0 L1D_writeback_Hit Ratio: -nan
Core_0_L1D_writeback_miss 0
Core_0_L1D_prefetch_requested 71305548
Core_0_L1D_prefetch_issued 44256481
Core_0_L1D_prefetch_useful 1115273 L1D_Useful Ratio: 0.02520
Core_0_L1D_prefetch_useless 200613
Core_0_L1D_prefetch_late 339989
Core_0_L1D_average_miss_latency 9081422.60117

Core_0_L1I_total_access 23269506
Core_0_L1I_total_hit 23264729 L1I_total_Hit Ratio: 0.99979
Core_0_L1I_total_miss 4777
Core_0_L1I_loads 23269506
Core_0_L1I_load_hit 23264729 L1I_load_Hit Ratio: 0.99979
Core_0_L1I_load_miss 4777
Core_0_L1I_RFOs 0
Core_0_L1I_RFO_hit 0 L1I_RFO_Hit Ratio: -nan
Core_0_L1I_RFO_miss 0
Core_0_L1I_prefetches 0
Core_0_L1I_prefetch_hit 0 L1I_prefetch_Hit Ratio: -nan
Core_0_L1I_prefetch_miss 0
Core_0_L1I_writebacks 0
Core_0_L1I_writeback_hit 0 L1I_writeback_Hit Ratio: -nan
Core_0_L1I_writeback_miss 0
Core_0_L1I_prefetch_requested 0
Core_0_L1I_prefetch_issued 0
Core_0_L1I_prefetch_useful 0 L1I_Useful Ratio: -nan
Core_0_L1I_prefetch_useless 0
Core_0_L1I_prefetch_late 0
Core_0_L1I_average_miss_latency 327.77873

Core_0_L2C_total_access 11261881
Core_0_L2C_total_hit 9045404 L2C_total_Hit Ratio: 0.80319
Core_0_L2C_total_miss 2216477
Core_0_L2C_loads 844174
Core_0_L2C_load_hit 543497 L2C_load_Hit Ratio: 0.64382
Core_0_L2C_load_miss 300677
Core_0_L2C_RFOs 138763
Core_0_L2C_RFO_hit 97904 L2C_RFO_Hit Ratio: 0.70555
Core_0_L2C_RFO_miss 40859
Core_0_L2C_prefetches 9589689
Core_0_L2C_prefetch_hit 7722299 L2C_prefetch_Hit Ratio: 0.80527
Core_0_L2C_prefetch_miss 1867390
Core_0_L2C_writebacks 689255
Core_0_L2C_writeback_hit 681704 L2C_writeback_Hit Ratio: 0.98904
Core_0_L2C_writeback_miss 7551
Core_0_L2C_prefetch_requested 17044397
Core_0_L2C_prefetch_issued 13242991
Core_0_L2C_prefetch_useful 419865 L2C_Useful Ratio: 0.03170
Core_0_L2C_prefetch_useless 1476156
Core_0_L2C_prefetch_late 25579
Core_0_L2C_average_miss_latency 145.24109

Core_0_LLC_total_access 2931181
Core_0_LLC_total_hit 2121190 LLC_total_Hit Ratio: 0.72366
Core_0_LLC_total_miss 809991
Core_0_LLC_loads 275104
Core_0_LLC_load_hit 194329 LLC_load_Hit Ratio: 0.70638
Core_0_LLC_load_miss 80775
Core_0_LLC_RFOs 40859
Core_0_LLC_RFO_hit 11713 LLC_RFO_Hit Ratio: 0.28667
Core_0_LLC_RFO_miss 29146
Core_0_LLC_prefetches 1951318
Core_0_LLC_prefetch_hit 1251923 LLC_prefetch_Hit Ratio: 0.64158
Core_0_LLC_prefetch_miss 699395
Core_0_LLC_writebacks 663900
Core_0_LLC_writeback_hit 663225 LLC_writeback_Hit Ratio: 0.99898
Core_0_LLC_writeback_miss 675
Core_0_LLC_prefetch_requested 0
Core_0_LLC_prefetch_issued 0
Core_0_LLC_prefetch_useful 134385 LLC_Useful Ratio: inf
Core_0_LLC_prefetch_useless 557595
Core_0_LLC_prefetch_late 9569
Core_0_LLC_average_miss_latency 346.19758

Core_0_major_page_fault 0
Core_0_minor_page_fault 7592

CPU 0 L1D next line prefetcher final stats
CPU 0 L2C PC-based stride prefetcher final stats
Stride Degree: 16
MK1  MARKOV_LRU_SIZE: 128
MK1  MARKOV_PREDICTION_PERCENTTHRESHOLD: 40.00000
MK1  OUTLIERS_THRESHOLD_Max: 64
MK1  OUTLIERS_THRESHOLD_Min: 32
MK2  MARKOV_LRU_SIZE: 256
MK2  MARKOV_PREDICTION_PERCENTTHRESHOLD: 30.00000
MK2  OUTLIERS_THRESHOLD_Max: 32
MK2  OUTLIERS_THRESHOLD_Min: 16
MK3  MARKOV_LRU_SIZE: 384
MK3  MARKOV_PREDICTION_PERCENTTHRESHOLD: 25.00000
MK3  OUTLIERS_THRESHOLD_Max: 16
MK3  OUTLIERS_THRESHOLD_Min: 8
MK4  MARKOV_LRU_SIZE: 512
MK4  MARKOV_PREDICTION_PERCENTTHRESHOLD: 20.00000
MK4  OUTLIERS_THRESHOLD_Max: 8
MK4  OUTLIERS_THRESHOLD_Min: 0
IPStride Degree/Access Ratio: 4.90901
MK1 IPDEltaMarkov  Degree/Access Ratio: 0.16587
MK2 IPDEltaMarkov  Degree/Access Ratio: 0.33467
MK3 IPDEltaMarkov  Degree/Access Ratio: 0.64879
MK4 IPDEltaMarkov  Degree/Access Ratio: 1.47596
Channel_0_RQ_row_buffer_hit 448313
Channel_0_RQ_row_buffer_miss 361003
Channel_0_WQ_row_buffer_hit 144923
Channel_0_WQ_row_buffer_miss 283647
Channel_0_WQ_full 0
Channel_0_dbus_congested 957299

avg_congested_cycle 11

EzSearch AVG IPC :0.86545: L2-Pf-HR :0.80527 : L2-HR :0.80319 Uful:0.03170
     > Finished combination: TraceType=777-FE Sim:98000000 Prefetcher=L2029-TOP1_BF-L2-MultiMarkovDelta_ip_stride_v4 L1=next_line
