TRACE: [83000000][Pythia-70M]_[h8][s512][d64] Warmup: 2000000 NumTraces: 83000000
L1:next_line:L2:029-TOP1_BF-L2-MultiMarkovDelta_ip_stride_v4
*************************************************
   ChampSim Multicore Out-of-Order Simulator
   Last compiled: Oct 26 2024 08:52:55
*************************************************

trace_0 777-FE_comparisonScript_memoryTraces/memTraces[83000000][Pythia-70M]_[h8][s512][d64].champsim.xz
CPU 0 L1D next line prefetcher
MK1: Size: 128 TMAX: 64 TMIN: 32 MKPTHRESH: 30
MK2: Size: 256 TMAX: 32 TMIN: 16 MKPTHRESH: 40
MK3: Size: 384 TMAX: 16 TMIN: 8 MKPTHRESH: 25
MK4: Size: 512 TMAX: 8 TMIN: 0 MKPTHRESH: 20
Stride Size: 512 Prefetch Degree: 15

CPU 0 L2C prefetcher
MAIN.cc ln 751 stats print skipped
CPU 0 L2C prefetcher initialized


Cache Size: 256
number of cache lines: 4096
CPU  0 inst:    1000002 cyc:     502615 now IPC :1.98960: AVG IPC :1.98960: L2-Pf-HR :0.71890: L2-HR :0.69134: (Sim:0h0m2s) 
CPU  0 inst:    2000001 cyc:     976758 now IPC :2.10907: AVG IPC :2.04759: L2-Pf-HR :0.73754: L2-HR :0.71134: (Sim:0h0m5s) 

Warmup complete CPU  0 instructions:    2000001 cycles:     976758 (Simulation time: 0 hr 0 min 5 sec) 

CPU  0 inst:    3000002 cyc:    1517373 now IPC :1.84975: AVG IPC :1.84975: L2-Pf-HR :0.74984: L2-HR :0.73798: (Sim:0h0m8s) 
CPU  0 inst:    4000000 cyc:    2093056 now IPC :1.73706: AVG IPC :1.79164: L2-Pf-HR :0.79417: L2-HR :0.78190: (Sim:0h0m11s) 
CPU  0 inst:    5000000 cyc:    2733682 now IPC :1.56097: AVG IPC :1.70753: L2-Pf-HR :0.78615: L2-HR :0.77421: (Sim:0h0m13s) 
CPU  0 inst:    6000003 cyc:    3280904 now IPC :1.82742: AVG IPC :1.73600: L2-Pf-HR :0.77819: L2-HR :0.76624: (Sim:0h0m16s) 
CPU  0 inst:    7000000 cyc:    3833916 now IPC :1.80827: AVG IPC :1.74999: L2-Pf-HR :0.77794: L2-HR :0.76535: (Sim:0h0m19s) 
CPU  0 inst:    8000000 cyc:    4426976 now IPC :1.68617: AVG IPC :1.73902: L2-Pf-HR :0.78893: L2-HR :0.77616: (Sim:0h0m21s) 
CPU  0 inst:    9000002 cyc:    5119431 now IPC :1.44414: AVG IPC :1.68973: L2-Pf-HR :0.78961: L2-HR :0.77676: (Sim:0h0m24s) 
CPU  0 inst:   10000002 cyc:    5675748 now IPC :1.79754: AVG IPC :1.70249: L2-Pf-HR :0.78591: L2-HR :0.77300: (Sim:0h0m27s) 
CPU  0 inst:   11000002 cyc:    6230302 now IPC :1.80325: AVG IPC :1.71313: L2-Pf-HR :0.78461: L2-HR :0.77146: (Sim:0h0m29s) 
CPU  0 inst:   12000000 cyc:    6826363 now IPC :1.67768: AVG IPC :1.70952: L2-Pf-HR :0.78885: L2-HR :0.77565: (Sim:0h0m32s) 
CPU  0 inst:   13000003 cyc:    7508147 now IPC :1.46674: AVG IPC :1.68418: L2-Pf-HR :0.79076: L2-HR :0.77750: (Sim:0h0m35s) 
CPU  0 inst:   14000000 cyc:    8069614 now IPC :1.78104: AVG IPC :1.69184: L2-Pf-HR :0.78883: L2-HR :0.77542: (Sim:0h0m37s) 
CPU  0 inst:   15000000 cyc:    8622055 now IPC :1.81015: AVG IPC :1.70039: L2-Pf-HR :0.78764: L2-HR :0.77405: (Sim:0h0m40s) 
CPU  0 inst:   16000000 cyc:    9224741 now IPC :1.65924: AVG IPC :1.69738: L2-Pf-HR :0.79003: L2-HR :0.77620: (Sim:0h0m43s) 
CPU  0 inst:   17000003 cyc:    9907846 now IPC :1.46391: AVG IPC :1.67953: L2-Pf-HR :0.79163: L2-HR :0.77776: (Sim:0h0m45s) 
CPU  0 inst:   18000003 cyc:   10465500 now IPC :1.79323: AVG IPC :1.68621: L2-Pf-HR :0.79050: L2-HR :0.77648: (Sim:0h0m48s) 
CPU  0 inst:   19000002 cyc:   11026357 now IPC :1.78298: AVG IPC :1.69161: L2-Pf-HR :0.79004: L2-HR :0.77587: (Sim:0h0m51s) 
CPU  0 inst:   20000000 cyc:   11626331 now IPC :1.66674: AVG IPC :1.69021: L2-Pf-HR :0.79158: L2-HR :0.77724: (Sim:0h0m53s) 
CPU  0 inst:   21000000 cyc:   12308354 now IPC :1.46623: AVG IPC :1.67673: L2-Pf-HR :0.79341: L2-HR :0.77906: (Sim:0h0m56s) 
CPU  0 inst:   22000001 cyc:   12869418 now IPC :1.78233: AVG IPC :1.68171: L2-Pf-HR :0.79268: L2-HR :0.77820: (Sim:0h0m59s) 
CPU  0 inst:   23000000 cyc:   13427343 now IPC :1.79235: AVG IPC :1.68667: L2-Pf-HR :0.79201: L2-HR :0.77744: (Sim:0h1m2s) 
CPU  0 inst:   24000000 cyc:   14030247 now IPC :1.65864: AVG IPC :1.68537: L2-Pf-HR :0.79274: L2-HR :0.77805: (Sim:0h1m4s) 
CPU  0 inst:   25000002 cyc:   14704707 now IPC :1.48267: AVG IPC :1.67541: L2-Pf-HR :0.79445: L2-HR :0.77985: (Sim:0h1m7s) 
CPU  0 inst:   26000002 cyc:   15264160 now IPC :1.78746: AVG IPC :1.67980: L2-Pf-HR :0.79317: L2-HR :0.77853: (Sim:0h1m10s) 
CPU  0 inst:   27000002 cyc:   15818903 now IPC :1.80264: AVG IPC :1.68439: L2-Pf-HR :0.79223: L2-HR :0.77759: (Sim:0h1m13s) 
CPU  0 inst:   28000000 cyc:   16423143 now IPC :1.65497: AVG IPC :1.68324: L2-Pf-HR :0.79253: L2-HR :0.77778: (Sim:0h1m15s) 
CPU  0 inst:   29000003 cyc:   17066039 now IPC :1.55547: AVG IPC :1.67814: L2-Pf-HR :0.79436: L2-HR :0.77979: (Sim:0h1m18s) 
CPU  0 inst:   30000000 cyc:   17650852 now IPC :1.70994: AVG IPC :1.67925: L2-Pf-HR :0.79377: L2-HR :0.77908: (Sim:0h1m21s) 
CPU  0 inst:   31000001 cyc:   18208223 now IPC :1.79414: AVG IPC :1.68297: L2-Pf-HR :0.79332: L2-HR :0.77854: (Sim:0h1m24s) 
CPU  0 inst:   32000000 cyc:   18808905 now IPC :1.66477: AVG IPC :1.68235: L2-Pf-HR :0.79342: L2-HR :0.77850: (Sim:0h1m26s) 
CPU  0 inst:   33000000 cyc:   19466798 now IPC :1.52000: AVG IPC :1.67658: L2-Pf-HR :0.79551: L2-HR :0.78046: (Sim:0h1m29s) 
CPU  0 inst:   34000002 cyc:   25635932 now IPC :0.16210: AVG IPC :1.29769: L2-Pf-HR :0.76944: L2-HR :0.76390: (Sim:0h1m38s) 
CPU  0 inst:   35000001 cyc:   29766353 now IPC :0.24211: AVG IPC :1.14625: L2-Pf-HR :0.76443: L2-HR :0.76044: (Sim:0h1m44s) 
CPU  0 inst:   36000000 cyc:   33289910 now IPC :0.28380: AVG IPC :1.05220: L2-Pf-HR :0.76492: L2-HR :0.76052: (Sim:0h1m50s) 
CPU  0 inst:   37000002 cyc:   36812160 now IPC :0.28391: AVG IPC :0.97669: L2-Pf-HR :0.76579: L2-HR :0.76094: (Sim:0h1m55s) 
CPU  0 inst:   38000000 cyc:   40333218 now IPC :0.28400: AVG IPC :0.91472: L2-Pf-HR :0.76657: L2-HR :0.76130: (Sim:0h2m0s) 
CPU  0 inst:   39000000 cyc:   43854881 now IPC :0.28396: AVG IPC :0.86291: L2-Pf-HR :0.76729: L2-HR :0.76161: (Sim:0h2m6s) 
CPU  0 inst:   40000000 cyc:   47376658 now IPC :0.28395: AVG IPC :0.81897: L2-Pf-HR :0.76827: L2-HR :0.76215: (Sim:0h2m11s) 
CPU  0 inst:   41000001 cyc:   50896142 now IPC :0.28413: AVG IPC :0.78126: L2-Pf-HR :0.76917: L2-HR :0.76263: (Sim:0h2m17s) 
CPU  0 inst:   42000001 cyc:   54417390 now IPC :0.28399: AVG IPC :0.74849: L2-Pf-HR :0.76991: L2-HR :0.76299: (Sim:0h2m22s) 
CPU  0 inst:   43000001 cyc:   57937023 now IPC :0.28412: AVG IPC :0.71980: L2-Pf-HR :0.77064: L2-HR :0.76335: (Sim:0h2m27s) 
CPU  0 inst:   44000000 cyc:   61458971 now IPC :0.28393: AVG IPC :0.69442: L2-Pf-HR :0.77144: L2-HR :0.76377: (Sim:0h2m33s) 
CPU  0 inst:   45000002 cyc:   64980849 now IPC :0.28394: AVG IPC :0.67183: L2-Pf-HR :0.77215: L2-HR :0.76413: (Sim:0h2m38s) 
CPU  0 inst:   46000000 cyc:   68503442 now IPC :0.28388: AVG IPC :0.65159: L2-Pf-HR :0.77274: L2-HR :0.76440: (Sim:0h2m43s) 
CPU  0 inst:   47000000 cyc:   72024898 now IPC :0.28397: AVG IPC :0.63337: L2-Pf-HR :0.77333: L2-HR :0.76468: (Sim:0h2m49s) 
CPU  0 inst:   48000000 cyc:   75545423 now IPC :0.28405: AVG IPC :0.61688: L2-Pf-HR :0.77404: L2-HR :0.76505: (Sim:0h2m54s) 
CPU  0 inst:   49000000 cyc:   79068394 now IPC :0.28385: AVG IPC :0.60186: L2-Pf-HR :0.77446: L2-HR :0.76520: (Sim:0h2m59s) 
CPU  0 inst:   50000003 cyc:   82591294 now IPC :0.28386: AVG IPC :0.58813: L2-Pf-HR :0.77500: L2-HR :0.76545: (Sim:0h3m5s) 
CPU  0 inst:   51000001 cyc:   84375147 now IPC :0.56058: AVG IPC :0.58754: L2-Pf-HR :0.78516: L2-HR :0.77509: (Sim:0h3m9s) 
CPU  0 inst:   52000000 cyc:   85097989 now IPC :1.38343: AVG IPC :0.59438: L2-Pf-HR :0.79912: L2-HR :0.78877: (Sim:0h3m13s) 
CPU  0 inst:   53000003 cyc:   85772214 now IPC :1.48319: AVG IPC :0.60145: L2-Pf-HR :0.81132: L2-HR :0.80082: (Sim:0h3m16s) 
CPU  0 inst:   54000001 cyc:   86358076 now IPC :1.70688: AVG IPC :0.60903: L2-Pf-HR :0.82201: L2-HR :0.81150: (Sim:0h3m20s) 
CPU  0 inst:   55000001 cyc:   87058811 now IPC :1.42707: AVG IPC :0.61569: L2-Pf-HR :0.83119: L2-HR :0.82075: (Sim:0h3m23s) 
CPU  0 inst:   56000000 cyc:   87735014 now IPC :1.47884: AVG IPC :0.62242: L2-Pf-HR :0.83935: L2-HR :0.82903: (Sim:0h3m27s) 
CPU  0 inst:   57000001 cyc:   88371249 now IPC :1.57175: AVG IPC :0.62933: L2-Pf-HR :0.84666: L2-HR :0.83650: (Sim:0h3m30s) 
CPU  0 inst:   58000002 cyc:   88957037 now IPC :1.70710: AVG IPC :0.63651: L2-Pf-HR :0.85341: L2-HR :0.84343: (Sim:0h3m34s) 
CPU  0 inst:   59000000 cyc:   89589432 now IPC :1.58129: AVG IPC :0.64325: L2-Pf-HR :0.85937: L2-HR :0.84958: (Sim:0h3m37s) 
CPU  0 inst:   60000000 cyc:   90246213 now IPC :1.52258: AVG IPC :0.64972: L2-Pf-HR :0.86472: L2-HR :0.85514: (Sim:0h3m41s) 
CPU  0 inst:   61000000 cyc:   90899245 now IPC :1.53132: AVG IPC :0.65612: L2-Pf-HR :0.86948: L2-HR :0.86013: (Sim:0h3m44s) 
CPU  0 inst:   62000001 cyc:   91483351 now IPC :1.71202: AVG IPC :0.66294: L2-Pf-HR :0.87413: L2-HR :0.86499: (Sim:0h3m48s) 
CPU  0 inst:   63000002 cyc:   92097486 now IPC :1.62831: AVG IPC :0.66944: L2-Pf-HR :0.87832: L2-HR :0.86938: (Sim:0h3m51s) 
CPU  0 inst:   64000000 cyc:   92751913 now IPC :1.52805: AVG IPC :0.67556: L2-Pf-HR :0.88215: L2-HR :0.87342: (Sim:0h3m55s) 
CPU  0 inst:   65000000 cyc:   93418762 now IPC :1.49959: AVG IPC :0.68151: L2-Pf-HR :0.88552: L2-HR :0.87700: (Sim:0h3m58s) 
CPU  0 inst:   66000000 cyc:   94003273 now IPC :1.71083: AVG IPC :0.68798: L2-Pf-HR :0.88882: L2-HR :0.88051: (Sim:0h4m2s) 
CPU  0 inst:   67000003 cyc:   94588162 now IPC :1.70973: AVG IPC :0.69436: L2-Pf-HR :0.89200: L2-HR :0.88389: (Sim:0h4m5s) 
CPU  0 inst:   68000000 cyc:   95265435 now IPC :1.47651: AVG IPC :0.69998: L2-Pf-HR :0.89476: L2-HR :0.88683: (Sim:0h4m9s) 
CPU  0 inst:   69000000 cyc:   95922156 now IPC :1.52272: AVG IPC :0.70567: L2-Pf-HR :0.89733: L2-HR :0.88961: (Sim:0h4m12s) 
CPU  0 inst:   70000000 cyc:   96527940 now IPC :1.65075: AVG IPC :0.71166: L2-Pf-HR :0.89975: L2-HR :0.89220: (Sim:0h4m16s) 
CPU  0 inst:   71000002 cyc:   97112070 now IPC :1.71195: AVG IPC :0.71774: L2-Pf-HR :0.90214: L2-HR :0.89477: (Sim:0h4m19s) 
CPU  0 inst:   72000000 cyc:   97775738 now IPC :1.50677: AVG IPC :0.72315: L2-Pf-HR :0.90428: L2-HR :0.89707: (Sim:0h4m23s) 
CPU  0 inst:   73000000 cyc:   98431047 now IPC :1.52600: AVG IPC :0.72855: L2-Pf-HR :0.90632: L2-HR :0.89927: (Sim:0h4m26s) 
CPU  0 inst:   74000003 cyc:   99053578 now IPC :1.60635: AVG IPC :0.73412: L2-Pf-HR :0.90823: L2-HR :0.90134: (Sim:0h4m30s) 
CPU  0 inst:   75000000 cyc:   99637412 now IPC :1.71281: AVG IPC :0.73991: L2-Pf-HR :0.91016: L2-HR :0.90342: (Sim:0h4m33s) 
CPU  0 inst:   76000000 cyc:  100294473 now IPC :1.52193: AVG IPC :0.74508: L2-Pf-HR :0.91184: L2-HR :0.90524: (Sim:0h4m37s) 
CPU  0 inst:   77000001 cyc:  100951580 now IPC :1.52182: AVG IPC :0.75019: L2-Pf-HR :0.91345: L2-HR :0.90699: (Sim:0h4m40s) 
CPU  0 inst:   78000002 cyc:  101584365 now IPC :1.58032: AVG IPC :0.75541: L2-Pf-HR :0.91499: L2-HR :0.90867: (Sim:0h4m44s) 
CPU  0 inst:   79000000 cyc:  102168429 now IPC :1.71214: AVG IPC :0.76093: L2-Pf-HR :0.91655: L2-HR :0.91036: (Sim:0h4m47s) 
CPU  0 inst:   80000000 cyc:  102812076 now IPC :1.55365: AVG IPC :0.76594: L2-Pf-HR :0.91790: L2-HR :0.91184: (Sim:0h4m51s) 
Finished CPU 0 instr: 78000000 cyc: 101835356 AVG IPC: 0.76594 (Sim time: 0h4m51s)

ChampSim completed all CPUs

[ROI Statistics]
Core_0_instructions 78000000
Core_0_cycles 101835356
Core_0_IPC 0.76594

Core_0_branch_prediction_accuracy 99.16542
Core_0_branch_MPKI 0.25491
Core_0_average_ROB_occupancy_at_mispredict 230.99195

Core_0_L1D_total_access 53499678
Core_0_L1D_total_hit 49015363 L1D_total_Hit Ratio: 0.91618
Core_0_L1D_total_miss 4484315
Core_0_L1D_loads 21306748
Core_0_L1D_load_hit 19392640 L1D_load_Hit Ratio: 0.91016
Core_0_L1D_load_miss 1914108
Core_0_L1D_RFOs 2196348
Core_0_L1D_RFO_hit 2079136 L1D_RFO_Hit Ratio: 0.94663
Core_0_L1D_RFO_miss 117212
Core_0_L1D_prefetches 29996582
Core_0_L1D_prefetch_hit 27543587 L1D_prefetch_Hit Ratio: 0.91822
Core_0_L1D_prefetch_miss 2452995
Core_0_L1D_writebacks 0
Core_0_L1D_writeback_hit 0 L1D_writeback_Hit Ratio: -nan
Core_0_L1D_writeback_miss 0
Core_0_L1D_prefetch_requested 66146229
Core_0_L1D_prefetch_issued 34840203
Core_0_L1D_prefetch_useful 996643 L1D_Useful Ratio: 0.02861
Core_0_L1D_prefetch_useless 1483110
Core_0_L1D_prefetch_late 242417
Core_0_L1D_average_miss_latency 2901990.31987

Core_0_L1I_total_access 19628745
Core_0_L1I_total_hit 19623837 L1I_total_Hit Ratio: 0.99975
Core_0_L1I_total_miss 4908
Core_0_L1I_loads 19628745
Core_0_L1I_load_hit 19623837 L1I_load_Hit Ratio: 0.99975
Core_0_L1I_load_miss 4908
Core_0_L1I_RFOs 0
Core_0_L1I_RFO_hit 0 L1I_RFO_Hit Ratio: -nan
Core_0_L1I_RFO_miss 0
Core_0_L1I_prefetches 0
Core_0_L1I_prefetch_hit 0 L1I_prefetch_Hit Ratio: -nan
Core_0_L1I_prefetch_miss 0
Core_0_L1I_writebacks 0
Core_0_L1I_writeback_hit 0 L1I_writeback_Hit Ratio: -nan
Core_0_L1I_writeback_miss 0
Core_0_L1I_prefetch_requested 0
Core_0_L1I_prefetch_issued 0
Core_0_L1I_prefetch_useful 0 L1I_Useful Ratio: -nan
Core_0_L1I_prefetch_useless 0
Core_0_L1I_prefetch_late 0
Core_0_L1I_average_miss_latency 331.17624

Core_0_L2C_total_access 16114601
Core_0_L2C_total_hit 14693887 L2C_total_Hit Ratio: 0.91184
Core_0_L2C_total_miss 1420714
Core_0_L2C_loads 1677324
Core_0_L2C_load_hit 1477537 L2C_load_Hit Ratio: 0.88089
Core_0_L2C_load_miss 199787
Core_0_L2C_RFOs 117200
Core_0_L2C_RFO_hit 37160 L2C_RFO_Hit Ratio: 0.31706
Core_0_L2C_RFO_miss 80040
Core_0_L2C_prefetches 13828507
Core_0_L2C_prefetch_hit 12693189 L2C_prefetch_Hit Ratio: 0.91790
Core_0_L2C_prefetch_miss 1135318
Core_0_L2C_writebacks 491570
Core_0_L2C_writeback_hit 486001 L2C_writeback_Hit Ratio: 0.98867
Core_0_L2C_writeback_miss 5569
Core_0_L2C_prefetch_requested 28944527
Core_0_L2C_prefetch_issued 17209523
Core_0_L2C_prefetch_useful 174665 L2C_Useful Ratio: 0.01015
Core_0_L2C_prefetch_useless 1001523
Core_0_L2C_prefetch_late 6684
Core_0_L2C_average_miss_latency 183.80398

Core_0_LLC_total_access 1926784
Core_0_LLC_total_hit 1223243 LLC_total_Hit Ratio: 0.63486
Core_0_LLC_total_miss 703541
Core_0_LLC_loads 193118
Core_0_LLC_load_hit 141188 LLC_load_Hit Ratio: 0.73110
Core_0_LLC_load_miss 51930
Core_0_LLC_RFOs 80040
Core_0_LLC_RFO_hit 47 LLC_RFO_Hit Ratio: 0.00059
Core_0_LLC_RFO_miss 79993
Core_0_LLC_prefetches 1168026
Core_0_LLC_prefetch_hit 596427 LLC_prefetch_Hit Ratio: 0.51063
Core_0_LLC_prefetch_miss 571599
Core_0_LLC_writebacks 485600
Core_0_LLC_writeback_hit 485581 LLC_writeback_Hit Ratio: 0.99996
Core_0_LLC_writeback_miss 19
Core_0_LLC_prefetch_requested 0
Core_0_LLC_prefetch_issued 0
Core_0_LLC_prefetch_useful 110821 LLC_Useful Ratio: inf
Core_0_LLC_prefetch_useless 450684
Core_0_LLC_prefetch_late 2576
Core_0_LLC_average_miss_latency 324.71990

Core_0_major_page_fault 0
Core_0_minor_page_fault 6067

CPU 0 L1D next line prefetcher final stats
CPU 0 L2C PC-based stride prefetcher final stats
Stride Degree: 15
MK1  MARKOV_LRU_SIZE: 128
MK1  MARKOV_PREDICTION_PERCENTTHRESHOLD: 30.00000
MK1  OUTLIERS_THRESHOLD_Max: 64
MK1  OUTLIERS_THRESHOLD_Min: 32
MK2  MARKOV_LRU_SIZE: 256
MK2  MARKOV_PREDICTION_PERCENTTHRESHOLD: 40.00000
MK2  OUTLIERS_THRESHOLD_Max: 32
MK2  OUTLIERS_THRESHOLD_Min: 16
MK3  MARKOV_LRU_SIZE: 384
MK3  MARKOV_PREDICTION_PERCENTTHRESHOLD: 25.00000
MK3  OUTLIERS_THRESHOLD_Max: 16
MK3  OUTLIERS_THRESHOLD_Min: 8
MK4  MARKOV_LRU_SIZE: 512
MK4  MARKOV_PREDICTION_PERCENTTHRESHOLD: 20.00000
MK4  OUTLIERS_THRESHOLD_Max: 8
MK4  OUTLIERS_THRESHOLD_Min: 0
IPStride Degree/Access Ratio: 3.34985
MK1 IPDEltaMarkov  Degree/Access Ratio: 0.87514
MK2 IPDEltaMarkov  Degree/Access Ratio: 0.71275
MK3 IPDEltaMarkov  Degree/Access Ratio: 0.76557
MK4 IPDEltaMarkov  Degree/Access Ratio: 1.39561
Channel_0_RQ_row_buffer_hit 348537
Channel_0_RQ_row_buffer_miss 354985
Channel_0_WQ_row_buffer_hit 118702
Channel_0_WQ_row_buffer_miss 290262
Channel_0_WQ_full 0
Channel_0_dbus_congested 757960

avg_congested_cycle 11

EzSearch AVG IPC :0.76594: L2-Pf-HR :0.91790 : L2-HR :0.91184 Uful:0.01015
     > Finished combination: TraceType=777-FE Sim:78000000 Prefetcher=L2029-TOP1_BF-L2-MultiMarkovDelta_ip_stride_v4 L1=next_line
