TRACE: [1319000000]_FE_[Pythia-70M]_[h8]_[s2048]_[d64] Warmup: 2000000 NumTraces: 1319000000
L1:bingo_dpc3:L2:bingo_dpc3
*************************************************
   ChampSim Multicore Out-of-Order Simulator
   Last compiled: Oct 30 2024 04:04:27
*************************************************

trace_0 770-tot_memTraces_v4_2048/memTraces[1319000000]_FE_[Pythia-70M]_[h8]_[s2048]_[d64].champsim.9SSize.xz
trace_1 770-tot_memTraces_v4_2048/memTraces[1319000000]_FE_[Pythia-70M]_[h8]_[s2048]_[d64].champsim.9SSize.xz
trace_2 770-tot_memTraces_v4_2048/memTraces[1319000000]_FE_[Pythia-70M]_[h8]_[s2048]_[d64].champsim.9SSize.xz
trace_3 770-tot_memTraces_v4_2048/memTraces[1319000000]_FE_[Pythia-70M]_[h8]_[s2048]_[d64].champsim.9SSize.xz
Bingo PHT WAYS: 16 and PHT_SIZE: 16384
Bingo2 PHT WAYS: 16 and PHT_SIZE: 16384
Bingo PHT WAYS: 16 and PHT_SIZE: 16384
Bingo2 PHT WAYS: 16 and PHT_SIZE: 16384
Bingo PHT WAYS: 16 and PHT_SIZE: 16384
Bingo2 PHT WAYS: 16 and PHT_SIZE: 16384
Bingo PHT WAYS: 16 and PHT_SIZE: 16384
Bingo2 PHT WAYS: 16 and PHT_SIZE: 16384
MAIN.cc ln 751 stats print skipped
CPU  2 inst:    1000002 cyc:     497699 now IPC :2.00925: AVG IPC :2.00925: L2-Pf-HR :0.68225: L2-HR :0.58949: (Sim:0h0m46s) 
CPU  3 inst:    1000002 cyc:     497929 now IPC :2.00832: AVG IPC :2.00832: L2-Pf-HR :0.67083: L2-HR :0.60412: (Sim:0h0m46s) 
CPU  1 inst:    1000002 cyc:     498074 now IPC :2.00774: AVG IPC :2.00774: L2-Pf-HR :0.66155: L2-HR :0.58571: (Sim:0h0m47s) 
CPU  0 inst:    1000002 cyc:     498127 now IPC :2.00752: AVG IPC :2.00752: L2-Pf-HR :0.67902: L2-HR :0.58843: (Sim:0h0m47s) 
CPU  2 inst:    2000005 cyc:     979738 now IPC :2.07453: AVG IPC :2.04137: L2-Pf-HR :0.72187: L2-HR :0.67164: (Sim:0h1m37s) 
CPU  3 inst:    2000005 cyc:     979915 now IPC :2.07476: AVG IPC :2.04100: L2-Pf-HR :0.72910: L2-HR :0.68361: (Sim:0h1m37s) 
CPU  1 inst:    2000005 cyc:     980115 now IPC :2.07452: AVG IPC :2.04058: L2-Pf-HR :0.70122: L2-HR :0.66541: (Sim:0h1m37s) 
CPU  0 inst:    2000005 cyc:     980157 now IPC :2.07457: AVG IPC :2.04049: L2-Pf-HR :0.66149: L2-HR :0.63656: (Sim:0h1m37s) 

Warmup complete CPU  0 instructions:    2000005 cycles:     980157 (Simulation time: 0 hr 1 min 37 sec) 
Warmup complete CPU  1 instructions:    2000136 cycles:     980156 (Simulation time: 0 hr 1 min 37 sec) 
Warmup complete CPU  2 instructions:    2000914 cycles:     980156 (Simulation time: 0 hr 1 min 37 sec) 
Warmup complete CPU  3 instructions:    2000468 cycles:     980156 (Simulation time: 0 hr 1 min 37 sec) 

CPU  3 inst:    3000001 cyc:    1810106 now IPC :1.20454: AVG IPC :1.20433: L2-Pf-HR :0.88732: L2-HR :0.76372: (Sim:0h2m26s) 
CPU  1 inst:    3000001 cyc:    1810310 now IPC :1.20453: AVG IPC :1.20443: L2-Pf-HR :0.88028: L2-HR :0.76508: (Sim:0h2m26s) 
CPU  2 inst:    3000001 cyc:    1810918 now IPC :1.20310: AVG IPC :1.20262: L2-Pf-HR :0.88512: L2-HR :0.76664: (Sim:0h2m26s) 
CPU  0 inst:    3000001 cyc:    1817310 now IPC :1.19452: AVG IPC :1.19452: L2-Pf-HR :0.84308: L2-HR :0.73422: (Sim:0h2m26s) 
CPU  2 inst:    4000004 cyc:    2579677 now IPC :1.30080: AVG IPC :1.24981: L2-Pf-HR :0.85112: L2-HR :0.76963: (Sim:0h3m14s) 
CPU  1 inst:    4000004 cyc:    2580982 now IPC :1.29757: AVG IPC :1.24927: L2-Pf-HR :0.85407: L2-HR :0.76765: (Sim:0h3m14s) 
CPU  3 inst:    4000004 cyc:    2582534 now IPC :1.29462: AVG IPC :1.24786: L2-Pf-HR :0.86386: L2-HR :0.77089: (Sim:0h3m14s) 
CPU  0 inst:    4000004 cyc:    2599917 now IPC :1.27778: AVG IPC :1.23475: L2-Pf-HR :0.80561: L2-HR :0.74188: (Sim:0h3m16s) 
CPU  2 inst:    5000002 cyc:    3324343 now IPC :1.34288: AVG IPC :1.27937: L2-Pf-HR :0.83574: L2-HR :0.77645: (Sim:0h4m1s) 
CPU  3 inst:    5000002 cyc:    3372440 now IPC :1.26597: AVG IPC :1.25384: L2-Pf-HR :0.86455: L2-HR :0.78724: (Sim:0h4m4s) 
CPU  0 inst:    5000002 cyc:    3387546 now IPC :1.26963: AVG IPC :1.24616: L2-Pf-HR :0.79332: L2-HR :0.75085: (Sim:0h4m5s) 
CPU  1 inst:    5000002 cyc:    3388586 now IPC :1.23823: AVG IPC :1.24557: L2-Pf-HR :0.84373: L2-HR :0.77072: (Sim:0h4m5s) 
CPU  2 inst:    6000002 cyc:    3988316 now IPC :1.50609: AVG IPC :1.32941: L2-Pf-HR :0.82561: L2-HR :0.77493: (Sim:0h4m45s) 
CPU  0 inst:    6000002 cyc:    4096801 now IPC :1.40993: AVG IPC :1.28343: L2-Pf-HR :0.78503: L2-HR :0.75010: (Sim:0h4m52s) 
CPU  1 inst:    6000002 cyc:    4110913 now IPC :1.38441: AVG IPC :1.27760: L2-Pf-HR :0.83623: L2-HR :0.77229: (Sim:0h4m53s) 
CPU  3 inst:    6000002 cyc:    4117621 now IPC :1.34196: AVG IPC :1.27477: L2-Pf-HR :0.86428: L2-HR :0.78620: (Sim:0h4m54s) 
CPU  2 inst:    7000002 cyc:    4691703 now IPC :1.42169: AVG IPC :1.34690: L2-Pf-HR :0.81629: L2-HR :0.77056: (Sim:0h5m29s) 
CPU  0 inst:    7000002 cyc:    4819173 now IPC :1.38433: AVG IPC :1.30242: L2-Pf-HR :0.78861: L2-HR :0.75120: (Sim:0h5m35s) 
CPU  1 inst:    7000002 cyc:    4850903 now IPC :1.35137: AVG IPC :1.29171: L2-Pf-HR :0.83521: L2-HR :0.77322: (Sim:0h5m36s) 
CPU  3 inst:    7000002 cyc:    4864914 now IPC :1.33816: AVG IPC :1.28696: L2-Pf-HR :0.85898: L2-HR :0.78587: (Sim:0h5m37s) 
CPU  2 inst:    8000003 cyc:    5362595 now IPC :1.49055: AVG IPC :1.36889: L2-Pf-HR :0.81347: L2-HR :0.76761: (Sim:0h5m58s) 
CPU  0 inst:    8000003 cyc:    5479451 now IPC :1.51452: AVG IPC :1.33354: L2-Pf-HR :0.78015: L2-HR :0.74950: (Sim:0h6m3s) 
CPU  1 inst:    8000003 cyc:    5550647 now IPC :1.42910: AVG IPC :1.31274: L2-Pf-HR :0.83372: L2-HR :0.77439: (Sim:0h6m7s) 
CPU  3 inst:    8000003 cyc:    5567074 now IPC :1.42418: AVG IPC :1.30797: L2-Pf-HR :0.85662: L2-HR :0.78528: (Sim:0h6m8s) 
CPU  2 inst:    9000003 cyc:    6018225 now IPC :1.52525: AVG IPC :1.38924: L2-Pf-HR :0.81143: L2-HR :0.76555: (Sim:0h6m28s) 
CPU  0 inst:    9000003 cyc:    6135507 now IPC :1.52426: AVG IPC :1.35781: L2-Pf-HR :0.78274: L2-HR :0.75081: (Sim:0h6m33s) 
CPU  1 inst:    9000003 cyc:    6235650 now IPC :1.45985: AVG IPC :1.33191: L2-Pf-HR :0.83394: L2-HR :0.77371: (Sim:0h6m37s) 
CPU  3 inst:    9000003 cyc:    6259938 now IPC :1.44328: AVG IPC :1.32572: L2-Pf-HR :0.85512: L2-HR :0.78415: (Sim:0h6m38s) 
CPU  2 inst:   10000002 cyc:    6657058 now IPC :1.56535: AVG IPC :1.40906: L2-Pf-HR :0.80468: L2-HR :0.76253: (Sim:0h6m56s) 
CPU  0 inst:   10000002 cyc:    6804510 now IPC :1.49476: AVG IPC :1.37354: L2-Pf-HR :0.78326: L2-HR :0.75125: (Sim:0h7m3s) 
CPU  1 inst:   10000002 cyc:    6915415 now IPC :1.47110: AVG IPC :1.34785: L2-Pf-HR :0.82733: L2-HR :0.76999: (Sim:0h7m8s) 
CPU  3 inst:   10000002 cyc:    6959169 now IPC :1.43014: AVG IPC :1.33794: L2-Pf-HR :0.85542: L2-HR :0.78294: (Sim:0h7m10s) 
CPU  2 inst:   11000004 cyc:    7297069 now IPC :1.56248: AVG IPC :1.42460: L2-Pf-HR :0.80367: L2-HR :0.76202: (Sim:0h7m25s) 
CPU  0 inst:   11000004 cyc:    7470960 now IPC :1.50049: AVG IPC :1.38658: L2-Pf-HR :0.78033: L2-HR :0.74935: (Sim:0h7m33s) 
CPU  1 inst:   11000004 cyc:    7586806 now IPC :1.48945: AVG IPC :1.36224: L2-Pf-HR :0.82641: L2-HR :0.76883: (Sim:0h7m38s) 
CPU  3 inst:   11000004 cyc:    7657801 now IPC :1.43137: AVG IPC :1.34771: L2-Pf-HR :0.85705: L2-HR :0.78283: (Sim:0h7m41s) 
CPU  2 inst:   12000004 cyc:    7923746 now IPC :1.59572: AVG IPC :1.44005: L2-Pf-HR :0.80103: L2-HR :0.76111: (Sim:0h7m53s) 
CPU  0 inst:   12000004 cyc:    8132266 now IPC :1.51216: AVG IPC :1.39819: L2-Pf-HR :0.78126: L2-HR :0.74998: (Sim:0h8m3s) 
CPU  1 inst:   12000004 cyc:    8258510 now IPC :1.48875: AVG IPC :1.37392: L2-Pf-HR :0.82546: L2-HR :0.76794: (Sim:0h8m8s) 
CPU  3 inst:   12000004 cyc:    8340481 now IPC :1.46482: AVG IPC :1.35857: L2-Pf-HR :0.85605: L2-HR :0.78180: (Sim:0h8m11s) 
CPU  2 inst:   13000005 cyc:    8598789 now IPC :1.48139: AVG IPC :1.44371: L2-Pf-HR :0.79691: L2-HR :0.76049: (Sim:0h8m22s) 
CPU  0 inst:   13000005 cyc:    8806316 now IPC :1.48357: AVG IPC :1.40554: L2-Pf-HR :0.78045: L2-HR :0.75065: (Sim:0h8m31s) 
CPU  1 inst:   13000005 cyc:    8953239 now IPC :1.43941: AVG IPC :1.37963: L2-Pf-HR :0.82020: L2-HR :0.76704: (Sim:0h8m38s) 
CPU  3 inst:   13000005 cyc:    9064855 now IPC :1.38050: AVG IPC :1.36054: L2-Pf-HR :0.85291: L2-HR :0.78063: (Sim:0h8m44s) 
CPU  2 inst:   14000003 cyc:    9228079 now IPC :1.58909: AVG IPC :1.45480: L2-Pf-HR :0.79972: L2-HR :0.76310: (Sim:0h8m51s) 
CPU  0 inst:   14000003 cyc:    9360054 now IPC :1.80590: AVG IPC :1.43200: L2-Pf-HR :0.77944: L2-HR :0.75192: (Sim:0h8m58s) 
CPU  1 inst:   14000003 cyc:    9555427 now IPC :1.66061: AVG IPC :1.39936: L2-Pf-HR :0.82112: L2-HR :0.76857: (Sim:0h9m7s) 
CPU  3 inst:   14000003 cyc:    9718611 now IPC :1.52962: AVG IPC :1.37319: L2-Pf-HR :0.85462: L2-HR :0.78106: (Sim:0h9m15s) 
CPU  2 inst:   15000003 cyc:    9837495 now IPC :1.64092: AVG IPC :1.46761: L2-Pf-HR :0.80147: L2-HR :0.76469: (Sim:0h9m21s) 
CPU  0 inst:   15000003 cyc:    9939161 now IPC :1.72680: AVG IPC :1.45105: L2-Pf-HR :0.77839: L2-HR :0.75104: (Sim:0h9m26s) 
CPU  1 inst:   15000003 cyc:   10155964 now IPC :1.66518: AVG IPC :1.41675: L2-Pf-HR :0.82158: L2-HR :0.76930: (Sim:0h9m36s) 
CPU  3 inst:   15000002 cyc:   10365980 now IPC :1.54471: AVG IPC :1.38502: L2-Pf-HR :0.85646: L2-HR :0.78100: (Sim:0h9m46s) 
CPU  2 inst:   16000000 cyc:   10432018 now IPC :1.68202: AVG IPC :1.48109: L2-Pf-HR :0.80286: L2-HR :0.76753: (Sim:0h9m49s) 
CPU  0 inst:   16000000 cyc:   10547609 now IPC :1.64352: AVG IPC :1.46329: L2-Pf-HR :0.77654: L2-HR :0.75193: (Sim:0h9m55s) 
CPU  1 inst:   16000000 cyc:   10733466 now IPC :1.73159: AVG IPC :1.43540: L2-Pf-HR :0.82027: L2-HR :0.77156: (Sim:0h10m4s) 
CPU  3 inst:   16000000 cyc:   10998110 now IPC :1.58195: AVG IPC :1.39744: L2-Pf-HR :0.85792: L2-HR :0.78327: (Sim:0h10m17s) 
CPU  2 inst:   17000003 cyc:   11028689 now IPC :1.67597: AVG IPC :1.49266: L2-Pf-HR :0.80820: L2-HR :0.77095: (Sim:0h10m18s) 
CPU  0 inst:   17000003 cyc:   11150464 now IPC :1.65878: AVG IPC :1.47488: L2-Pf-HR :0.78023: L2-HR :0.75449: (Sim:0h10m24s) 
CPU  1 inst:   17000003 cyc:   11317066 now IPC :1.71351: AVG IPC :1.45110: L2-Pf-HR :0.82327: L2-HR :0.77432: (Sim:0h10m32s) 
CPU  3 inst:   17000003 cyc:   11629213 now IPC :1.58453: AVG IPC :1.40853: L2-Pf-HR :0.86158: L2-HR :0.78578: (Sim:0h10m47s) 
CPU  2 inst:   18000003 cyc:   11648821 now IPC :1.61256: AVG IPC :1.49963: L2-Pf-HR :0.81025: L2-HR :0.77149: (Sim:0h10m48s) 
CPU  0 inst:   18000003 cyc:   11764067 now IPC :1.62972: AVG IPC :1.48369: L2-Pf-HR :0.78138: L2-HR :0.75466: (Sim:0h10m53s) 
CPU  1 inst:   18000003 cyc:   11905339 now IPC :1.69989: AVG IPC :1.46449: L2-Pf-HR :0.82392: L2-HR :0.77467: (Sim:0h10m59s) 
CPU  3 inst:   18000003 cyc:   12276802 now IPC :1.54419: AVG IPC :1.41631: L2-Pf-HR :0.86363: L2-HR :0.78623: (Sim:0h11m26s) 
CPU  2 inst:   19000003 cyc:   12308690 now IPC :1.51545: AVG IPC :1.50056: L2-Pf-HR :0.81407: L2-HR :0.77246: (Sim:0h11m28s) 
CPU  0 inst:   19000003 cyc:   12424627 now IPC :1.51387: AVG IPC :1.48543: L2-Pf-HR :0.78245: L2-HR :0.75486: (Sim:0h11m36s) 
CPU  1 inst:   19000003 cyc:   12537257 now IPC :1.58248: AVG IPC :1.47095: L2-Pf-HR :0.82750: L2-HR :0.77567: (Sim:0h11m44s) 
CPU  2 inst:   20000004 cyc:   12933268 now IPC :1.60108: AVG IPC :1.50581: L2-Pf-HR :0.81631: L2-HR :0.77212: (Sim:0h12m13s) 
CPU  3 inst:   19000003 cyc:   12966634 now IPC :1.44963: AVG IPC :1.41823: L2-Pf-HR :0.86640: L2-HR :0.78694: (Sim:0h12m15s) 
CPU  0 inst:   20000004 cyc:   13066480 now IPC :1.55799: AVG IPC :1.48929: L2-Pf-HR :0.78220: L2-HR :0.75453: (Sim:0h12m22s) 
CPU  1 inst:   20000004 cyc:   13204059 now IPC :1.49970: AVG IPC :1.47251: L2-Pf-HR :0.82750: L2-HR :0.77461: (Sim:0h12m32s) 
CPU  2 inst:   21000003 cyc:   13535236 now IPC :1.66122: AVG IPC :1.51326: L2-Pf-HR :0.81813: L2-HR :0.77280: (Sim:0h12m57s) 
CPU  3 inst:   20000004 cyc:   13626476 now IPC :1.51552: AVG IPC :1.42330: L2-Pf-HR :0.86805: L2-HR :0.78694: (Sim:0h13m3s) 
CPU  0 inst:   21000003 cyc:   13695045 now IPC :1.59092: AVG IPC :1.49431: L2-Pf-HR :0.78425: L2-HR :0.75570: (Sim:0h13m8s) 
CPU  1 inst:   21000003 cyc:   13855902 now IPC :1.53411: AVG IPC :1.47563: L2-Pf-HR :0.82994: L2-HR :0.77586: (Sim:0h13m20s) 
CPU  2 inst:   22000001 cyc:   14110489 now IPC :1.73836: AVG IPC :1.52312: L2-Pf-HR :0.81800: L2-HR :0.77332: (Sim:0h13m40s) 
CPU  3 inst:   21000003 cyc:   14271982 now IPC :1.54917: AVG IPC :1.42941: L2-Pf-HR :0.86896: L2-HR :0.78714: (Sim:0h13m52s) 
CPU  0 inst:   22000001 cyc:   14293572 now IPC :1.67077: AVG IPC :1.50224: L2-Pf-HR :0.78378: L2-HR :0.75573: (Sim:0h13m54s) 
CPU  1 inst:   22000001 cyc:   14496799 now IPC :1.56031: AVG IPC :1.47965: L2-Pf-HR :0.82805: L2-HR :0.77559: (Sim:0h14m9s) 
CPU  2 inst:   23000001 cyc:   14733957 now IPC :1.60393: AVG IPC :1.52678: L2-Pf-HR :0.81910: L2-HR :0.77364: (Sim:0h14m26s) 
CPU  0 inst:   23000001 cyc:   14898325 now IPC :1.65357: AVG IPC :1.50882: L2-Pf-HR :0.78431: L2-HR :0.75628: (Sim:0h14m38s) 
CPU  3 inst:   22000001 cyc:   14900863 now IPC :1.59012: AVG IPC :1.43668: L2-Pf-HR :0.86815: L2-HR :0.78754: (Sim:0h14m39s) 
CPU  1 inst:   23000001 cyc:   15137566 now IPC :1.56063: AVG IPC :1.48331: L2-Pf-HR :0.82764: L2-HR :0.77578: (Sim:0h14m57s) 
CPU  2 inst:   24000001 cyc:   15345567 now IPC :1.63503: AVG IPC :1.53139: L2-Pf-HR :0.82126: L2-HR :0.77486: (Sim:0h15m12s) 
CPU  0 inst:   24000001 cyc:   15480508 now IPC :1.71767: AVG IPC :1.51720: L2-Pf-HR :0.78691: L2-HR :0.75799: (Sim:0h15m22s) 
CPU  3 inst:   23000001 cyc:   15518997 now IPC :1.61777: AVG IPC :1.44437: L2-Pf-HR :0.86958: L2-HR :0.78871: (Sim:0h15m25s) 
CPU  1 inst:   24000001 cyc:   15805814 now IPC :1.49645: AVG IPC :1.48390: L2-Pf-HR :0.82914: L2-HR :0.77609: (Sim:0h15m43s) 
CPU  2 inst:   25000000 cyc:   16074003 now IPC :1.37280: AVG IPC :1.52374: L2-Pf-HR :0.82152: L2-HR :0.77482: (Sim:0h16m1s) 
CPU  3 inst:   24000001 cyc:   16206918 now IPC :1.45366: AVG IPC :1.44479: L2-Pf-HR :0.87103: L2-HR :0.78925: (Sim:0h16m10s) 
CPU  0 inst:   25000005 cyc:   16239951 now IPC :1.31676: AVG IPC :1.50723: L2-Pf-HR :0.78937: L2-HR :0.75870: (Sim:0h16m12s) 
CPU  1 inst:   25000005 cyc:   16657122 now IPC :1.17467: AVG IPC :1.46711: L2-Pf-HR :0.82807: L2-HR :0.77582: (Sim:0h16m37s) 
CPU  2 inst:   26000004 cyc:   16872742 now IPC :1.25198: AVG IPC :1.51008: L2-Pf-HR :0.82304: L2-HR :0.77575: (Sim:0h16m50s) 
CPU  0 inst:   26000003 cyc:   16973176 now IPC :1.36384: AVG IPC :1.50065: L2-Pf-HR :0.78989: L2-HR :0.75868: (Sim:0h16m57s) 
CPU  3 inst:   25000005 cyc:   17030084 now IPC :1.21483: AVG IPC :1.43300: L2-Pf-HR :0.86944: L2-HR :0.78817: (Sim:0h17m0s) 
CPU  1 inst:   26000004 cyc:   17501104 now IPC :1.18486: AVG IPC :1.45269: L2-Pf-HR :0.82997: L2-HR :0.77651: (Sim:0h17m29s) 
CPU  2 inst:   27000002 cyc:   17667833 now IPC :1.25772: AVG IPC :1.49806: L2-Pf-HR :0.82382: L2-HR :0.77597: (Sim:0h17m40s) 
CPU  0 inst:   27000001 cyc:   17731522 now IPC :1.31866: AVG IPC :1.49242: L2-Pf-HR :0.78884: L2-HR :0.75862: (Sim:0h17m44s) 
CPU  3 inst:   26000004 cyc:   17789732 now IPC :1.31640: AVG IPC :1.42773: L2-Pf-HR :0.87010: L2-HR :0.78814: (Sim:0h17m47s) 
CPU  1 inst:   27000001 cyc:   18260426 now IPC :1.31696: AVG IPC :1.44673: L2-Pf-HR :0.82915: L2-HR :0.77673: (Sim:0h18m18s) 
CPU  2 inst:   28000002 cyc:   18405634 now IPC :1.35538: AVG IPC :1.49202: L2-Pf-HR :0.82441: L2-HR :0.77703: (Sim:0h18m27s) 
CPU  0 inst:   28000002 cyc:   18505364 now IPC :1.29225: AVG IPC :1.48358: L2-Pf-HR :0.78805: L2-HR :0.75883: (Sim:0h18m33s) 
CPU  3 inst:   27000001 cyc:   18537480 now IPC :1.33734: AVG IPC :1.42388: L2-Pf-HR :0.86993: L2-HR :0.78777: (Sim:0h18m35s) 
CPU  1 inst:   28000002 cyc:   19062028 now IPC :1.24750: AVG IPC :1.43790: L2-Pf-HR :0.82936: L2-HR :0.77768: (Sim:0h19m8s) 
CPU  2 inst:   29000001 cyc:   19175816 now IPC :1.29839: AVG IPC :1.48382: L2-Pf-HR :0.82769: L2-HR :0.77837: (Sim:0h19m16s) 
CPU  3 inst:   28000002 cyc:   19266816 now IPC :1.37111: AVG IPC :1.42178: L2-Pf-HR :0.86952: L2-HR :0.78878: (Sim:0h19m21s) 
CPU  0 inst:   29000001 cyc:   19298490 now IPC :1.26083: AVG IPC :1.47393: L2-Pf-HR :0.79011: L2-HR :0.75929: (Sim:0h19m23s) 
CPU  1 inst:   29000001 cyc:   19874811 now IPC :1.23034: AVG IPC :1.42897: L2-Pf-HR :0.83197: L2-HR :0.77881: (Sim:0h20m1s) 
CPU  2 inst:   30000001 cyc:   19927948 now IPC :1.32955: AVG IPC :1.47770: L2-Pf-HR :0.82889: L2-HR :0.77857: (Sim:0h20m4s) 
CPU  3 inst:   29000001 cyc:   20020818 now IPC :1.32626: AVG IPC :1.41799: L2-Pf-HR :0.87204: L2-HR :0.78997: (Sim:0h20m10s) 
CPU  0 inst:   30000001 cyc:   20029534 now IPC :1.36791: AVG IPC :1.46986: L2-Pf-HR :0.79028: L2-HR :0.75947: (Sim:0h20m11s) 
CPU  1 inst:   30000001 cyc:   20718286 now IPC :1.18557: AVG IPC :1.41857: L2-Pf-HR :0.83191: L2-HR :0.77859: (Sim:0h20m51s) 
CPU  2 inst:   31000002 cyc:   20808674 now IPC :1.13543: AVG IPC :1.46249: L2-Pf-HR :0.83076: L2-HR :0.77898: (Sim:0h20m56s) 
CPU  3 inst:   30000001 cyc:   20851373 now IPC :1.20401: AVG IPC :1.40905: L2-Pf-HR :0.87295: L2-HR :0.78993: (Sim:0h20m59s) 
CPU  0 inst:   31000002 cyc:   20935810 now IPC :1.10342: AVG IPC :1.45322: L2-Pf-HR :0.79163: L2-HR :0.75980: (Sim:0h21m4s) 
CPU  1 inst:   31000002 cyc:   21678709 now IPC :1.04121: AVG IPC :1.40106: L2-Pf-HR :0.83422: L2-HR :0.77935: (Sim:0h21m44s) 
CPU  2 inst:   32000005 cyc:   21713952 now IPC :1.10464: AVG IPC :1.44687: L2-Pf-HR :0.83236: L2-HR :0.77891: (Sim:0h21m46s) 
CPU  3 inst:   31000002 cyc:   21779539 now IPC :1.07739: AVG IPC :1.39425: L2-Pf-HR :0.87416: L2-HR :0.79042: (Sim:0h21m50s) 
CPU  0 inst:   32000003 cyc:   21899809 now IPC :1.03735: AVG IPC :1.43406: L2-Pf-HR :0.79171: L2-HR :0.75945: (Sim:0h21m56s) 
CPU  2 inst:   33000002 cyc:   22565515 now IPC :1.17431: AVG IPC :1.43612: L2-Pf-HR :0.83282: L2-HR :0.77910: (Sim:0h22m34s) 
CPU  1 inst:   32000003 cyc:   22708144 now IPC :0.97141: AVG IPC :1.38070: L2-Pf-HR :0.83479: L2-HR :0.77885: (Sim:0h22m41s) 
CPU  3 inst:   32000004 cyc:   22796931 now IPC :0.98291: AVG IPC :1.37507: L2-Pf-HR :0.87454: L2-HR :0.79025: (Sim:0h22m46s) 
CPU  0 inst:   33000002 cyc:   22834621 now IPC :1.06973: AVG IPC :1.41847: L2-Pf-HR :0.79308: L2-HR :0.76023: (Sim:0h22m49s) 
CPU  2 inst:   34000000 cyc:   23399460 now IPC :1.19912: AVG IPC :1.42730: L2-Pf-HR :0.83235: L2-HR :0.77924: (Sim:0h23m21s) 
CPU  1 inst:   33000002 cyc:   23593016 now IPC :1.13011: AVG IPC :1.37090: L2-Pf-HR :0.83606: L2-HR :0.77975: (Sim:0h23m32s) 
CPU  0 inst:   34000000 cyc:   23725882 now IPC :1.12200: AVG IPC :1.40686: L2-Pf-HR :0.79222: L2-HR :0.76056: (Sim:0h23m40s) 
CPU  3 inst:   33000002 cyc:   23735838 now IPC :1.06507: AVG IPC :1.36228: L2-Pf-HR :0.87500: L2-HR :0.79064: (Sim:0h23m41s) 
CPU  2 inst:   35000000 cyc:   24298465 now IPC :1.11234: AVG IPC :1.41516: L2-Pf-HR :0.83344: L2-HR :0.77924: (Sim:0h24m11s) 
CPU  1 inst:   34000000 cyc:   24574202 now IPC :1.01917: AVG IPC :1.35627: L2-Pf-HR :0.83473: L2-HR :0.77962: (Sim:0h24m26s) 
CPU  3 inst:   34000000 cyc:   24661894 now IPC :1.07985: AVG IPC :1.35123: L2-Pf-HR :0.87388: L2-HR :0.79106: (Sim:0h24m31s) 
CPU  0 inst:   35000000 cyc:   24788768 now IPC :0.94083: AVG IPC :1.38605: L2-Pf-HR :0.79280: L2-HR :0.76057: (Sim:0h24m38s) 
CPU  2 inst:   36000003 cyc:   25212465 now IPC :1.09410: AVG IPC :1.40305: L2-Pf-HR :0.83485: L2-HR :0.77937: (Sim:0h25m1s) 
CPU  1 inst:   35000000 cyc:   25585271 now IPC :0.98905: AVG IPC :1.34118: L2-Pf-HR :0.83617: L2-HR :0.77988: (Sim:0h25m20s) 
CPU  3 inst:   35000000 cyc:   25715473 now IPC :0.94915: AVG IPC :1.33411: L2-Pf-HR :0.87553: L2-HR :0.79136: (Sim:0h25m26s) 
CPU  0 inst:   36000003 cyc:   25789433 now IPC :0.99934: AVG IPC :1.37046: L2-Pf-HR :0.79508: L2-HR :0.76111: (Sim:0h25m30s) 
CPU  2 inst:   37000000 cyc:   26267671 now IPC :0.94768: AVG IPC :1.38405: L2-Pf-HR :0.83415: L2-HR :0.77946: (Sim:0h25m54s) 
CPU  1 inst:   36000003 cyc:   26723205 now IPC :0.87879: AVG IPC :1.32074: L2-Pf-HR :0.83747: L2-HR :0.77940: (Sim:0h26m17s) 
CPU  3 inst:   36000003 cyc:   26870360 now IPC :0.86589: AVG IPC :1.31322: L2-Pf-HR :0.87680: L2-HR :0.79144: (Sim:0h26m24s) 
CPU  0 inst:   37000000 cyc:   26989405 now IPC :0.83335: AVG IPC :1.34567: L2-Pf-HR :0.79572: L2-HR :0.76175: (Sim:0h26m30s) 
CPU  2 inst:   38000002 cyc:   27476310 now IPC :0.82738: AVG IPC :1.35865: L2-Pf-HR :0.83471: L2-HR :0.78018: (Sim:0h26m51s) 
CPU  1 inst:   37000005 cyc:   27894962 now IPC :0.85342: AVG IPC :1.30039: L2-Pf-HR :0.83593: L2-HR :0.77919: (Sim:0h27m14s) 
CPU  3 inst:   37000005 cyc:   28043781 now IPC :0.85221: AVG IPC :1.29323: L2-Pf-HR :0.87567: L2-HR :0.79084: (Sim:0h27m23s) 
CPU  0 inst:   38000002 cyc:   28061081 now IPC :0.93312: AVG IPC :1.32935: L2-Pf-HR :0.79543: L2-HR :0.76204: (Sim:0h27m24s) 
CPU  2 inst:   39000001 cyc:   28498235 now IPC :0.97854: AVG IPC :1.34454: L2-Pf-HR :0.83518: L2-HR :0.78023: (Sim:0h27m46s) 
CPU  1 inst:   38000003 cyc:   28973208 now IPC :0.92743: AVG IPC :1.28603: L2-Pf-HR :0.83606: L2-HR :0.77970: (Sim:0h28m10s) 
CPU  3 inst:   38000000 cyc:   29066860 now IPC :0.97744: AVG IPC :1.28173: L2-Pf-HR :0.87592: L2-HR :0.79073: (Sim:0h28m15s) 
CPU  0 inst:   39000001 cyc:   29226113 now IPC :0.85834: AVG IPC :1.30992: L2-Pf-HR :0.79582: L2-HR :0.76161: (Sim:0h28m22s) 
CPU  2 inst:   40000001 cyc:   29617273 now IPC :0.89362: AVG IPC :1.32692: L2-Pf-HR :0.83524: L2-HR :0.78088: (Sim:0h28m41s) 
CPU  1 inst:   39000001 cyc:   30097319 now IPC :0.88959: AVG IPC :1.27072: L2-Pf-HR :0.83677: L2-HR :0.77960: (Sim:0h28m56s) 
CPU  3 inst:   39000001 cyc:   30184879 now IPC :0.89444: AVG IPC :1.26690: L2-Pf-HR :0.87604: L2-HR :0.79052: (Sim:0h28m59s) 
CPU  0 inst:   40000001 cyc:   30363444 now IPC :0.87925: AVG IPC :1.29325: L2-Pf-HR :0.79460: L2-HR :0.76156: (Sim:0h29m4s) 
CPU  2 inst:   41000002 cyc:   30744792 now IPC :0.88690: AVG IPC :1.31025: L2-Pf-HR :0.83711: L2-HR :0.78192: (Sim:0h29m17s) 
CPU  1 inst:   40000001 cyc:   31017064 now IPC :1.08726: AVG IPC :1.26511: L2-Pf-HR :0.83663: L2-HR :0.78025: (Sim:0h29m26s) 
CPU  3 inst:   40000001 cyc:   31203532 now IPC :0.98169: AVG IPC :1.25729: L2-Pf-HR :0.87581: L2-HR :0.79109: (Sim:0h29m32s) 
CPU  0 inst:   41000002 cyc:   31422142 now IPC :0.94456: AVG IPC :1.28113: L2-Pf-HR :0.79616: L2-HR :0.76238: (Sim:0h29m39s) 
CPU  2 inst:   42000001 cyc:   31821695 now IPC :0.92859: AVG IPC :1.29692: L2-Pf-HR :0.83773: L2-HR :0.78195: (Sim:0h29m52s) 
CPU  1 inst:   41000002 cyc:   31943959 now IPC :1.07887: AVG IPC :1.25953: L2-Pf-HR :0.83797: L2-HR :0.78118: (Sim:0h29m56s) 
CPU  3 inst:   41000002 cyc:   32297289 now IPC :0.91428: AVG IPC :1.24531: L2-Pf-HR :0.87659: L2-HR :0.79165: (Sim:0h30m7s) 
CPU  0 inst:   42000001 cyc:   32566788 now IPC :0.87363: AVG IPC :1.26636: L2-Pf-HR :0.79687: L2-HR :0.76213: (Sim:0h30m15s) 
CPU  1 inst:   42000001 cyc:   32870892 now IPC :1.07883: AVG IPC :1.25428: L2-Pf-HR :0.83794: L2-HR :0.78090: (Sim:0h30m24s) 
CPU  2 inst:   43000001 cyc:   32956624 now IPC :0.88111: AVG IPC :1.28216: L2-Pf-HR :0.83789: L2-HR :0.78201: (Sim:0h30m28s) 
CPU  3 inst:   42000001 cyc:   33484873 now IPC :0.84204: AVG IPC :1.23058: L2-Pf-HR :0.87703: L2-HR :0.79174: (Sim:0h30m43s) 
CPU  0 inst:   43000004 cyc:   33665897 now IPC :0.90983: AVG IPC :1.25437: L2-Pf-HR :0.79751: L2-HR :0.76246: (Sim:0h30m49s) 
CPU  1 inst:   43000004 cyc:   33883961 now IPC :0.98710: AVG IPC :1.24605: L2-Pf-HR :0.83869: L2-HR :0.78138: (Sim:0h30m55s) 
CPU  2 inst:   44000000 cyc:   34160429 now IPC :0.83070: AVG IPC :1.26578: L2-Pf-HR :0.83828: L2-HR :0.78184: (Sim:0h31m3s) 
CPU  3 inst:   43000004 cyc:   34677860 now IPC :0.83823: AVG IPC :1.21669: L2-Pf-HR :0.87734: L2-HR :0.79205: (Sim:0h31m18s) 
CPU  0 inst:   44000000 cyc:   34814206 now IPC :0.87084: AVG IPC :1.24135: L2-Pf-HR :0.79734: L2-HR :0.76234: (Sim:0h31m23s) 
CPU  1 inst:   44000000 cyc:   35014573 now IPC :0.88447: AVG IPC :1.23404: L2-Pf-HR :0.83842: L2-HR :0.78124: (Sim:0h31m29s) 
CPU  2 inst:   45000000 cyc:   35303274 now IPC :0.87501: AVG IPC :1.25277: L2-Pf-HR :0.83907: L2-HR :0.78189: (Sim:0h31m37s) 
CPU  3 inst:   44000000 cyc:   35891111 now IPC :0.82423: AVG IPC :1.20305: L2-Pf-HR :0.87745: L2-HR :0.79219: (Sim:0h31m55s) 
CPU  0 inst:   45000000 cyc:   35903938 now IPC :0.91766: AVG IPC :1.23125: L2-Pf-HR :0.79873: L2-HR :0.76244: (Sim:0h31m55s) 
CPU  1 inst:   45000000 cyc:   36182628 now IPC :0.85612: AVG IPC :1.22150: L2-Pf-HR :0.83967: L2-HR :0.78161: (Sim:0h32m3s) 
CPU  2 inst:   46000000 cyc:   36483844 now IPC :0.84705: AVG IPC :1.23928: L2-Pf-HR :0.83901: L2-HR :0.78190: (Sim:0h32m12s) 
CPU  0 inst:   46000000 cyc:   36834663 now IPC :1.07443: AVG IPC :1.22718: L2-Pf-HR :0.79866: L2-HR :0.76238: (Sim:0h32m23s) 
CPU  3 inst:   45000000 cyc:   37160307 now IPC :0.78790: AVG IPC :1.18848: L2-Pf-HR :0.87774: L2-HR :0.79231: (Sim:0h32m33s) 
CPU  1 inst:   46000000 cyc:   37347762 now IPC :0.85827: AVG IPC :1.20986: L2-Pf-HR :0.83918: L2-HR :0.78129: (Sim:0h32m38s) 
CPU  2 inst:   47000000 cyc:   37906360 now IPC :0.70298: AVG IPC :1.21862: L2-Pf-HR :0.83974: L2-HR :0.78178: (Sim:0h32m53s) 
CPU  0 inst:   47000000 cyc:   37935769 now IPC :0.90818: AVG IPC :1.21768: L2-Pf-HR :0.79887: L2-HR :0.76240: (Sim:0h32m53s) 
CPU  3 inst:   46000000 cyc:   38428044 now IPC :0.78881: AVG IPC :1.17495: L2-Pf-HR :0.87753: L2-HR :0.79240: (Sim:0h33m7s) 
CPU  1 inst:   47000000 cyc:   38639202 now IPC :0.77433: AVG IPC :1.19493: L2-Pf-HR :0.83938: L2-HR :0.78130: (Sim:0h33m13s) 
CPU  2 inst:   48000005 cyc:   39172673 now IPC :0.78970: AVG IPC :1.20440: L2-Pf-HR :0.84021: L2-HR :0.78180: (Sim:0h33m29s) 
CPU  0 inst:   48000005 cyc:   39218372 now IPC :0.77967: AVG IPC :1.20299: L2-Pf-HR :0.80003: L2-HR :0.76292: (Sim:0h33m30s) 
CPU  3 inst:   47000000 cyc:   39725955 now IPC :0.77047: AVG IPC :1.16140: L2-Pf-HR :0.87781: L2-HR :0.79252: (Sim:0h33m44s) 
CPU  1 inst:   48000005 cyc:   39739785 now IPC :0.90861: AVG IPC :1.18680: L2-Pf-HR :0.83925: L2-HR :0.78117: (Sim:0h33m45s) 
CPU  2 inst:   49000003 cyc:   40475513 now IPC :0.76755: AVG IPC :1.18999: L2-Pf-HR :0.83980: L2-HR :0.78149: (Sim:0h34m6s) 
CPU  0 inst:   49000003 cyc:   40520099 now IPC :0.76821: AVG IPC :1.18867: L2-Pf-HR :0.80054: L2-HR :0.76317: (Sim:0h34m8s) 
CPU  1 inst:   49000005 cyc:   40892157 now IPC :0.86778: AVG IPC :1.17759: L2-Pf-HR :0.83871: L2-HR :0.78091: (Sim:0h34m19s) 
CPU  3 inst:   48000005 cyc:   40894526 now IPC :0.85575: AVG IPC :1.15246: L2-Pf-HR :0.87816: L2-HR :0.79260: (Sim:0h34m19s) 
CPU  2 inst:   50000002 cyc:   41640974 now IPC :0.85803: AVG IPC :1.18048: L2-Pf-HR :0.83970: L2-HR :0.78175: (Sim:0h34m41s) 
CPU  0 inst:   50000001 cyc:   41718203 now IPC :0.83465: AVG IPC :1.17826: L2-Pf-HR :0.79971: L2-HR :0.76331: (Sim:0h34m42s) 
CPU  1 inst:   50000001 cyc:   41860507 now IPC :1.03268: AVG IPC :1.17415: L2-Pf-HR :0.83889: L2-HR :0.78131: (Sim:0h34m46s) 
CPU  3 inst:   49000003 cyc:   42422703 now IPC :0.65437: AVG IPC :1.13409: L2-Pf-HR :0.87738: L2-HR :0.79220: (Sim:0h35m1s) 
CPU  2 inst:   51000000 cyc:   42813415 now IPC :0.85292: AVG IPC :1.17129: L2-Pf-HR :0.83948: L2-HR :0.78209: (Sim:0h35m12s) 
CPU  1 inst:   51000000 cyc:   43118174 now IPC :0.79512: AVG IPC :1.16284: L2-Pf-HR :0.83860: L2-HR :0.78145: (Sim:0h35m21s) 
CPU  0 inst:   51000000 cyc:   43148658 now IPC :0.69908: AVG IPC :1.16200: L2-Pf-HR :0.79896: L2-HR :0.76311: (Sim:0h35m21s) 
CPU  3 inst:   50000000 cyc:   43752327 now IPC :0.75209: AVG IPC :1.12221: L2-Pf-HR :0.87779: L2-HR :0.79230: (Sim:0h35m39s) 
CPU  2 inst:   52000000 cyc:   43778331 now IPC :1.03636: AVG IPC :1.16825: L2-Pf-HR :0.83920: L2-HR :0.78240: (Sim:0h35m40s) 
CPU  1 inst:   52000000 cyc:   44386610 now IPC :0.78837: AVG IPC :1.15190: L2-Pf-HR :0.83781: L2-HR :0.78169: (Sim:0h35m58s) 
CPU  0 inst:   52000000 cyc:   44497552 now IPC :0.74135: AVG IPC :1.14897: L2-Pf-HR :0.79776: L2-HR :0.76314: (Sim:0h36m1s) 
CPU  2 inst:   53000000 cyc:   44846059 now IPC :0.93657: AVG IPC :1.16261: L2-Pf-HR :0.83982: L2-HR :0.78294: (Sim:0h36m11s) 
CPU  3 inst:   51000000 cyc:   45082638 now IPC :0.75170: AVG IPC :1.11104: L2-Pf-HR :0.87740: L2-HR :0.79216: (Sim:0h36m17s) 
CPU  1 inst:   53000000 cyc:   45681081 now IPC :0.77252: AVG IPC :1.14091: L2-Pf-HR :0.83900: L2-HR :0.78253: (Sim:0h36m34s) 
CPU  0 inst:   53000000 cyc:   45793357 now IPC :0.77172: AVG IPC :1.13806: L2-Pf-HR :0.79808: L2-HR :0.76341: (Sim:0h36m37s) 
CPU  2 inst:   54000004 cyc:   46106781 now IPC :0.79320: AVG IPC :1.15229: L2-Pf-HR :0.83993: L2-HR :0.78300: (Sim:0h36m46s) 
CPU  3 inst:   52000000 cyc:   46263596 now IPC :0.84677: AVG IPC :1.10415: L2-Pf-HR :0.87746: L2-HR :0.79271: (Sim:0h36m50s) 
CPU  1 inst:   54000004 cyc:   46924340 now IPC :0.80434: AVG IPC :1.13181: L2-Pf-HR :0.83862: L2-HR :0.78243: (Sim:0h37m9s) 
CPU  0 inst:   54000004 cyc:   47043975 now IPC :0.79961: AVG IPC :1.12887: L2-Pf-HR :0.79765: L2-HR :0.76321: (Sim:0h37m14s) 
CPU  2 inst:   55000002 cyc:   47372974 now IPC :0.78977: AVG IPC :1.14240: L2-Pf-HR :0.83996: L2-HR :0.78281: (Sim:0h37m28s) 
CPU  3 inst:   53000000 cyc:   47496092 now IPC :0.81136: AVG IPC :1.09639: L2-Pf-HR :0.87797: L2-HR :0.79312: (Sim:0h37m34s) 
CPU  1 inst:   55000002 cyc:   48287263 now IPC :0.73372: AVG IPC :1.12034: L2-Pf-HR :0.83970: L2-HR :0.78284: (Sim:0h38m10s) 
CPU  0 inst:   55000002 cyc:   48360141 now IPC :0.75978: AVG IPC :1.11862: L2-Pf-HR :0.79815: L2-HR :0.76314: (Sim:0h38m13s) 
CPU  2 inst:   56000001 cyc:   48601553 now IPC :0.81395: AVG IPC :1.13392: L2-Pf-HR :0.84029: L2-HR :0.78243: (Sim:0h38m25s) 
CPU  3 inst:   54000004 cyc:   48618243 now IPC :0.89115: AVG IPC :1.09155: L2-Pf-HR :0.87797: L2-HR :0.79324: (Sim:0h38m26s) 
CPU  1 inst:   56000001 cyc:   49496970 now IPC :0.82665: AVG IPC :1.11301: L2-Pf-HR :0.84011: L2-HR :0.78258: (Sim:0h39m7s) 
CPU  0 inst:   56000001 cyc:   49583253 now IPC :0.81759: AVG IPC :1.11104: L2-Pf-HR :0.79819: L2-HR :0.76278: (Sim:0h39m12s) 
CPU  2 inst:   57000004 cyc:   49713332 now IPC :0.89946: AVG IPC :1.12858: L2-Pf-HR :0.84025: L2-HR :0.78222: (Sim:0h39m19s) 
CPU  3 inst:   55000002 cyc:   49717278 now IPC :0.90989: AVG IPC :1.08746: L2-Pf-HR :0.87881: L2-HR :0.79351: (Sim:0h39m19s) 
CPU  1 inst:   57000004 cyc:   50576754 now IPC :0.92611: AVG IPC :1.10894: L2-Pf-HR :0.84084: L2-HR :0.78286: (Sim:0h40m3s) 
CPU  0 inst:   57000004 cyc:   50669264 now IPC :0.92080: AVG IPC :1.10688: L2-Pf-HR :0.79811: L2-HR :0.76293: (Sim:0h40m7s) 
CPU  2 inst:   58000004 cyc:   50825370 now IPC :0.89925: AVG IPC :1.12346: L2-Pf-HR :0.83942: L2-HR :0.78207: (Sim:0h40m13s) 
CPU  3 inst:   56000001 cyc:   50950664 now IPC :0.81078: AVG IPC :1.08063: L2-Pf-HR :0.87959: L2-HR :0.79354: (Sim:0h40m19s) 
CPU  1 inst:   58000004 cyc:   51831961 now IPC :0.79668: AVG IPC :1.10124: L2-Pf-HR :0.83998: L2-HR :0.78279: (Sim:0h41m0s) 
CPU  0 inst:   58000004 cyc:   51869587 now IPC :0.83311: AVG IPC :1.10043: L2-Pf-HR :0.79728: L2-HR :0.76302: (Sim:0h41m2s) 
CPU  2 inst:   59000004 cyc:   52092464 now IPC :0.78921: AVG IPC :1.11517: L2-Pf-HR :0.83973: L2-HR :0.78180: (Sim:0h41m12s) 
CPU  3 inst:   57000004 cyc:   52167268 now IPC :0.82196: AVG IPC :1.07448: L2-Pf-HR :0.88022: L2-HR :0.79344: (Sim:0h41m16s) 
CPU  1 inst:   59000004 cyc:   53136337 now IPC :0.76665: AVG IPC :1.09287: L2-Pf-HR :0.84067: L2-HR :0.78267: (Sim:0h42m3s) 
CPU  3 inst:   58000004 cyc:   53158522 now IPC :1.00882: AVG IPC :1.07323: L2-Pf-HR :0.87990: L2-HR :0.79366: (Sim:0h42m4s) 
CPU  2 inst:   60000005 cyc:   53176964 now IPC :0.92208: AVG IPC :1.11116: L2-Pf-HR :0.83952: L2-HR :0.78182: (Sim:0h42m5s) 
CPU  0 inst:   59000004 cyc:   53184564 now IPC :0.76047: AVG IPC :1.09186: L2-Pf-HR :0.79794: L2-HR :0.76285: (Sim:0h42m5s) 
CPU  1 inst:   60000000 cyc:   54229775 now IPC :0.91454: AVG IPC :1.08921: L2-Pf-HR :0.84061: L2-HR :0.78258: (Sim:0h42m57s) 
CPU  3 inst:   59000004 cyc:   54263051 now IPC :0.90536: AVG IPC :1.06975: L2-Pf-HR :0.88062: L2-HR :0.79367: (Sim:0h42m59s) 
CPU  2 inst:   61000002 cyc:   54293418 now IPC :0.89569: AVG IPC :1.10665: L2-Pf-HR :0.83715: L2-HR :0.78041: (Sim:0h43m0s) 
CPU  0 inst:   60000003 cyc:   54332911 now IPC :0.87082: AVG IPC :1.08710: L2-Pf-HR :0.79888: L2-HR :0.76334: (Sim:0h43m3s) 
CPU  2 inst:   62000000 cyc:   55337749 now IPC :0.95755: AVG IPC :1.10378: L2-Pf-HR :0.83473: L2-HR :0.77971: (Sim:0h43m53s) 
CPU  1 inst:   61000000 cyc:   55345624 now IPC :0.89618: AVG IPC :1.08525: L2-Pf-HR :0.83937: L2-HR :0.78190: (Sim:0h43m53s) 
CPU  0 inst:   61000000 cyc:   55400075 now IPC :0.93706: AVG IPC :1.08416: L2-Pf-HR :0.79688: L2-HR :0.76219: (Sim:0h43m56s) 
CPU  3 inst:   60000004 cyc:   55416359 now IPC :0.86707: AVG IPC :1.06546: L2-Pf-HR :0.88098: L2-HR :0.79387: (Sim:0h43m57s) 
CPU  2 inst:   63000000 cyc:   56212228 now IPC :1.14354: AVG IPC :1.10441: L2-Pf-HR :0.83181: L2-HR :0.77967: (Sim:0h44m38s) 
CPU  1 inst:   62000003 cyc:   56450516 now IPC :0.90507: AVG IPC :1.08166: L2-Pf-HR :0.83709: L2-HR :0.78142: (Sim:0h44m49s) 
CPU  0 inst:   62000003 cyc:   56484019 now IPC :0.92256: AVG IPC :1.08101: L2-Pf-HR :0.79458: L2-HR :0.76164: (Sim:0h44m50s) 
CPU  3 inst:   61000003 cyc:   56835922 now IPC :0.70444: AVG IPC :1.05628: L2-Pf-HR :0.87970: L2-HR :0.79297: (Sim:0h45m7s) 
CPU  2 inst:   64000004 cyc:   57151466 now IPC :1.06470: AVG IPC :1.10375: L2-Pf-HR :0.82941: L2-HR :0.77970: (Sim:0h45m23s) 
CPU  1 inst:   63000000 cyc:   57485216 now IPC :0.96646: AVG IPC :1.07955: L2-Pf-HR :0.83416: L2-HR :0.78114: (Sim:0h45m41s) 
CPU  0 inst:   63000004 cyc:   57496046 now IPC :0.98812: AVG IPC :1.07934: L2-Pf-HR :0.79177: L2-HR :0.76163: (Sim:0h45m41s) 
CPU  3 inst:   62000000 cyc:   58108016 now IPC :0.78610: AVG IPC :1.05027: L2-Pf-HR :0.87825: L2-HR :0.79275: (Sim:0h46m11s) 
CPU  2 inst:   65000000 cyc:   58371580 now IPC :0.81959: AVG IPC :1.09771: L2-Pf-HR :0.82808: L2-HR :0.77965: (Sim:0h46m25s) 
CPU  0 inst:   64000002 cyc:   58459697 now IPC :1.03772: AVG IPC :1.07864: L2-Pf-HR :0.78925: L2-HR :0.76196: (Sim:0h46m29s) 
CPU  1 inst:   64000001 cyc:   58465522 now IPC :1.02009: AVG IPC :1.07853: L2-Pf-HR :0.83169: L2-HR :0.78111: (Sim:0h46m30s) 
CPU  3 inst:   63000002 cyc:   59177026 now IPC :0.93545: AVG IPC :1.04816: L2-Pf-HR :0.87597: L2-HR :0.79310: (Sim:0h47m1s) 
CPU  2 inst:   66000005 cyc:   59562600 now IPC :0.83962: AVG IPC :1.09246: L2-Pf-HR :0.82872: L2-HR :0.78053: (Sim:0h47m18s) 
CPU  3 inst:   64000004 cyc:   59975373 now IPC :1.25259: AVG IPC :1.05092: L2-Pf-HR :0.87291: L2-HR :0.79328: (Sim:0h47m39s) 
CPU  0 inst:   65000000 cyc:   60068257 now IPC :0.62167: AVG IPC :1.06620: L2-Pf-HR :0.78823: L2-HR :0.76189: (Sim:0h47m43s) 
CPU  1 inst:   65000000 cyc:   60118957 now IPC :0.60480: AVG IPC :1.06529: L2-Pf-HR :0.83034: L2-HR :0.78094: (Sim:0h47m46s) 
CPU  2 inst:   67000001 cyc:   60864877 now IPC :0.76788: AVG IPC :1.08540: L2-Pf-HR :0.82877: L2-HR :0.78068: (Sim:0h48m19s) 
CPU  0 inst:   66000005 cyc:   61281631 now IPC :0.82415: AVG IPC :1.06133: L2-Pf-HR :0.78895: L2-HR :0.76287: (Sim:0h48m38s) 
CPU  3 inst:   65000000 cyc:   61324938 now IPC :0.74098: AVG IPC :1.04399: L2-Pf-HR :0.87125: L2-HR :0.79321: (Sim:0h48m40s) 
CPU  1 inst:   66000000 cyc:   61482775 now IPC :0.73324: AVG IPC :1.05780: L2-Pf-HR :0.83102: L2-HR :0.78177: (Sim:0h48m48s) 
CPU  2 inst:   68000004 cyc:   61980882 now IPC :0.89606: AVG IPC :1.08194: L2-Pf-HR :0.82767: L2-HR :0.78117: (Sim:0h49m13s) 
CPU  3 inst:   66000001 cyc:   62378616 now IPC :0.94906: AVG IPC :1.04236: L2-Pf-HR :0.87031: L2-HR :0.79375: (Sim:0h49m32s) 
CPU  0 inst:   67000001 cyc:   62418477 now IPC :0.87962: AVG IPC :1.05797: L2-Pf-HR :0.78892: L2-HR :0.76330: (Sim:0h49m34s) 
CPU  1 inst:   67000001 cyc:   62862268 now IPC :0.72490: AVG IPC :1.05038: L2-Pf-HR :0.83183: L2-HR :0.78236: (Sim:0h49m53s) 
CPU  0 inst:   68000002 cyc:   63443490 now IPC :0.97560: AVG IPC :1.05662: L2-Pf-HR :0.78682: L2-HR :0.76338: (Sim:0h50m21s) 
CPU  2 inst:   69000000 cyc:   63499330 now IPC :0.65856: AVG IPC :1.07166: L2-Pf-HR :0.82860: L2-HR :0.78195: (Sim:0h50m24s) 
CPU  3 inst:   67000001 cyc:   63578263 now IPC :0.83358: AVG IPC :1.03836: L2-Pf-HR :0.87035: L2-HR :0.79446: (Sim:0h50m28s) 
CPU  1 inst:   68000004 cyc:   64052557 now IPC :0.84013: AVG IPC :1.04641: L2-Pf-HR :0.83017: L2-HR :0.78271: (Sim:0h50m52s) 
CPU  0 inst:   69000000 cyc:   64443395 now IPC :1.00009: AVG IPC :1.05573: L2-Pf-HR :0.78833: L2-HR :0.76468: (Sim:0h51m12s) 
CPU  3 inst:   68000002 cyc:   64560296 now IPC :1.01830: AVG IPC :1.03805: L2-Pf-HR :0.86868: L2-HR :0.79486: (Sim:0h51m18s) 
CPU  2 inst:   70000002 cyc:   64760094 now IPC :0.79317: AVG IPC :1.06615: L2-Pf-HR :0.82898: L2-HR :0.78217: (Sim:0h51m28s) 
CPU  1 inst:   69000000 cyc:   65098826 now IPC :0.95577: AVG IPC :1.04494: L2-Pf-HR :0.83107: L2-HR :0.78370: (Sim:0h51m45s) 
CPU  3 inst:   69000000 cyc:   65613090 now IPC :0.94985: AVG IPC :1.03662: L2-Pf-HR :0.86882: L2-HR :0.79563: (Sim:0h52m9s) 
CPU  0 inst:   70000002 cyc:   65698251 now IPC :0.79691: AVG IPC :1.05071: L2-Pf-HR :0.78849: L2-HR :0.76482: (Sim:0h52m13s) 
CPU  2 inst:   71000002 cyc:   66034345 now IPC :0.78477: AVG IPC :1.06064: L2-Pf-HR :0.82919: L2-HR :0.78212: (Sim:0h52m30s) 
CPU  1 inst:   70000002 cyc:   66218508 now IPC :0.89311: AVG IPC :1.04233: L2-Pf-HR :0.83110: L2-HR :0.78381: (Sim:0h52m38s) 
CPU  3 inst:   70000002 cyc:   66723759 now IPC :0.90036: AVG IPC :1.03431: L2-Pf-HR :0.86894: L2-HR :0.79632: (Sim:0h53m2s) 
CPU  0 inst:   71000002 cyc:   67005600 now IPC :0.76491: AVG IPC :1.04505: L2-Pf-HR :0.78939: L2-HR :0.76494: (Sim:0h53m15s) 
CPU  1 inst:   71000002 cyc:   67293770 now IPC :0.93001: AVG IPC :1.04051: L2-Pf-HR :0.83193: L2-HR :0.78395: (Sim:0h53m27s) 
CPU  2 inst:   72000003 cyc:   67493598 now IPC :0.68528: AVG IPC :1.05241: L2-Pf-HR :0.82957: L2-HR :0.78203: (Sim:0h53m36s) 
CPU  3 inst:   71000002 cyc:   68178047 now IPC :0.68762: AVG IPC :1.02681: L2-Pf-HR :0.86967: L2-HR :0.79635: (Sim:0h54m6s) 
CPU  0 inst:   72000003 cyc:   68360487 now IPC :0.73807: AVG IPC :1.03888: L2-Pf-HR :0.79000: L2-HR :0.76497: (Sim:0h54m14s) 
CPU  1 inst:   72000003 cyc:   68601801 now IPC :0.76451: AVG IPC :1.03517: L2-Pf-HR :0.83242: L2-HR :0.78409: (Sim:0h54m25s) 
CPU  2 inst:   73000002 cyc:   68900270 now IPC :0.71090: AVG IPC :1.04533: L2-Pf-HR :0.82970: L2-HR :0.78172: (Sim:0h54m38s) 
CPU  0 inst:   73000002 cyc:   69541055 now IPC :0.84705: AVG IPC :1.03558: L2-Pf-HR :0.79023: L2-HR :0.76502: (Sim:0h55m6s) 
CPU  3 inst:   72000003 cyc:   69652729 now IPC :0.67811: AVG IPC :1.01932: L2-Pf-HR :0.86993: L2-HR :0.79631: (Sim:0h55m12s) 
CPU  1 inst:   73000002 cyc:   70114650 now IPC :0.66100: AVG IPC :1.02698: L2-Pf-HR :0.83299: L2-HR :0.78413: (Sim:0h55m33s) 
CPU  2 inst:   74000002 cyc:   70124046 now IPC :0.81714: AVG IPC :1.04129: L2-Pf-HR :0.82812: L2-HR :0.78150: (Sim:0h55m33s) 
CPU  0 inst:   74000002 cyc:   70634023 now IPC :0.91494: AVG IPC :1.03368: L2-Pf-HR :0.78959: L2-HR :0.76531: (Sim:0h55m56s) 
CPU  3 inst:   73000001 cyc:   71111700 now IPC :0.68541: AVG IPC :1.01238: L2-Pf-HR :0.87018: L2-HR :0.79611: (Sim:0h56m21s) 
CPU  2 inst:   75000005 cyc:   71207117 now IPC :0.92330: AVG IPC :1.03947: L2-Pf-HR :0.82860: L2-HR :0.78172: (Sim:0h56m26s) 
CPU  1 inst:   74000002 cyc:   71290149 now IPC :0.85070: AVG IPC :1.02403: L2-Pf-HR :0.83128: L2-HR :0.78384: (Sim:0h56m29s) 
CPU  0 inst:   75000005 cyc:   71809366 now IPC :0.85082: AVG IPC :1.03065: L2-Pf-HR :0.78980: L2-HR :0.76541: (Sim:0h56m54s) 
CPU  3 inst:   74000002 cyc:   72285562 now IPC :0.85189: AVG IPC :1.00973: L2-Pf-HR :0.86899: L2-HR :0.79595: (Sim:0h57m17s) 
CPU  2 inst:   76000004 cyc:   72392490 now IPC :0.84362: AVG IPC :1.03622: L2-Pf-HR :0.82841: L2-HR :0.78137: (Sim:0h57m22s) 
CPU  1 inst:   75000005 cyc:   72459460 now IPC :0.85521: AVG IPC :1.02127: L2-Pf-HR :0.83163: L2-HR :0.78406: (Sim:0h57m26s) 
CPU  0 inst:   76000004 cyc:   73010495 now IPC :0.83255: AVG IPC :1.02734: L2-Pf-HR :0.78995: L2-HR :0.76530: (Sim:0h57m51s) 
CPU  3 inst:   75000005 cyc:   73565330 now IPC :0.78139: AVG IPC :1.00571: L2-Pf-HR :0.86948: L2-HR :0.79628: (Sim:0h58m17s) 
CPU  2 inst:   77000003 cyc:   73585460 now IPC :0.83824: AVG IPC :1.03297: L2-Pf-HR :0.82711: L2-HR :0.78090: (Sim:0h58m18s) 
CPU  1 inst:   76000004 cyc:   73770727 now IPC :0.76262: AVG IPC :1.01661: L2-Pf-HR :0.83123: L2-HR :0.78368: (Sim:0h58m26s) 
CPU  0 inst:   77000004 cyc:   74216967 now IPC :0.82886: AVG IPC :1.02408: L2-Pf-HR :0.78944: L2-HR :0.76523: (Sim:0h58m49s) 
CPU  2 inst:   78000002 cyc:   74712936 now IPC :0.88694: AVG IPC :1.03074: L2-Pf-HR :0.82730: L2-HR :0.78111: (Sim:0h59m9s) 
CPU  3 inst:   76000004 cyc:   74996151 now IPC :0.69890: AVG IPC :0.99978: L2-Pf-HR :0.86928: L2-HR :0.79593: (Sim:0h59m21s) 
CPU  1 inst:   77000001 cyc:   75314516 now IPC :0.64775: AVG IPC :1.00895: L2-Pf-HR :0.83018: L2-HR :0.78335: (Sim:0h59m34s) 
CPU  0 inst:   78000002 cyc:   75609260 now IPC :0.71824: AVG IPC :1.01837: L2-Pf-HR :0.78875: L2-HR :0.76500: (Sim:0h59m47s) 
CPU  2 inst:   79000000 cyc:   76031605 now IPC :0.75834: AVG IPC :1.02595: L2-Pf-HR :0.82727: L2-HR :0.78124: (Sim:1h0m6s) 
CPU  3 inst:   77000004 cyc:   76455070 now IPC :0.68544: AVG IPC :0.99370: L2-Pf-HR :0.86847: L2-HR :0.79561: (Sim:1h0m24s) 
CPU  1 inst:   78000002 cyc:   76697987 now IPC :0.72282: AVG IPC :1.00372: L2-Pf-HR :0.83010: L2-HR :0.78332: (Sim:1h0m35s) 
CPU  0 inst:   79000000 cyc:   76812662 now IPC :0.83098: AVG IPC :1.01540: L2-Pf-HR :0.78798: L2-HR :0.76481: (Sim:1h0m42s) 
CPU  2 inst:   80000001 cyc:   77181893 now IPC :0.86935: AVG IPC :1.02359: L2-Pf-HR :0.82620: L2-HR :0.78140: (Sim:1h0m59s) 
CPU  3 inst:   78000002 cyc:   77671542 now IPC :0.82205: AVG IPC :0.99098: L2-Pf-HR :0.86882: L2-HR :0.79529: (Sim:1h1m25s) 
CPU  0 inst:   80000001 cyc:   77763275 now IPC :1.05195: AVG IPC :1.01585: L2-Pf-HR :0.78605: L2-HR :0.76460: (Sim:1h1m30s) 
CPU  1 inst:   79000000 cyc:   77837076 now IPC :0.87789: AVG IPC :1.00186: L2-Pf-HR :0.82987: L2-HR :0.78326: (Sim:1h1m34s) 
CPU  2 inst:   81000002 cyc:   78305230 now IPC :0.89021: AVG IPC :1.02165: L2-Pf-HR :0.82711: L2-HR :0.78190: (Sim:1h1m56s) 
CPU  3 inst:   79000000 cyc:   78756669 now IPC :0.92155: AVG IPC :0.99001: L2-Pf-HR :0.86917: L2-HR :0.79509: (Sim:1h2m21s) 
CPU  0 inst:   81000002 cyc:   78763956 now IPC :0.99932: AVG IPC :1.01564: L2-Pf-HR :0.78667: L2-HR :0.76489: (Sim:1h2m21s) 
CPU  1 inst:   80000001 cyc:   78876230 now IPC :0.96232: AVG IPC :1.00133: L2-Pf-HR :0.82846: L2-HR :0.78321: (Sim:1h2m27s) 
CPU  2 inst:   82000005 cyc:   79537293 now IPC :0.81165: AVG IPC :1.01836: L2-Pf-HR :0.82784: L2-HR :0.78209: (Sim:1h2m59s) 
CPU  0 inst:   82000005 cyc:   79734226 now IPC :1.03064: AVG IPC :1.01582: L2-Pf-HR :0.78705: L2-HR :0.76496: (Sim:1h3m8s) 
CPU  3 inst:   80000001 cyc:   79839748 now IPC :0.92329: AVG IPC :0.98909: L2-Pf-HR :0.86767: L2-HR :0.79498: (Sim:1h3m14s) 
CPU  1 inst:   81000002 cyc:   80251630 now IPC :0.72706: AVG IPC :0.99657: L2-Pf-HR :0.82912: L2-HR :0.78370: (Sim:1h3m31s) 
CPU  2 inst:   83000000 cyc:   80943827 now IPC :0.71096: AVG IPC :1.01295: L2-Pf-HR :0.82786: L2-HR :0.78184: (Sim:1h4m2s) 
CPU  0 inst:   83000000 cyc:   80966438 now IPC :0.81154: AVG IPC :1.01267: L2-Pf-HR :0.78710: L2-HR :0.76469: (Sim:1h4m3s) 
CPU  3 inst:   81000002 cyc:   81086802 now IPC :0.80189: AVG IPC :0.98618: L2-Pf-HR :0.86840: L2-HR :0.79545: (Sim:1h4m8s) 
CPU  1 inst:   82000000 cyc:   81556215 now IPC :0.76653: AVG IPC :0.99285: L2-Pf-HR :0.82916: L2-HR :0.78366: (Sim:1h4m30s) 
CPU  2 inst:   84000000 cyc:   82182453 now IPC :0.80735: AVG IPC :1.00981: L2-Pf-HR :0.82808: L2-HR :0.78198: (Sim:1h5m0s) 
CPU  0 inst:   84000000 cyc:   82226421 now IPC :0.79366: AVG IPC :1.00928: L2-Pf-HR :0.78701: L2-HR :0.76468: (Sim:1h5m2s) 
CPU  3 inst:   82000000 cyc:   82254645 now IPC :0.85628: AVG IPC :0.98431: L2-Pf-HR :0.86881: L2-HR :0.79547: (Sim:1h5m3s) 
CPU  1 inst:   83000000 cyc:   82744148 now IPC :0.84180: AVG IPC :0.99065: L2-Pf-HR :0.82935: L2-HR :0.78359: (Sim:1h5m26s) 
CPU  2 inst:   85000000 cyc:   83361209 now IPC :0.84835: AVG IPC :1.00750: L2-Pf-HR :0.82824: L2-HR :0.78177: (Sim:1h5m56s) 
CPU  3 inst:   83000000 cyc:   83401517 now IPC :0.87194: AVG IPC :0.98275: L2-Pf-HR :0.86914: L2-HR :0.79528: (Sim:1h5m58s) 
CPU  0 inst:   85000000 cyc:   83450184 now IPC :0.81715: AVG IPC :1.00643: L2-Pf-HR :0.78757: L2-HR :0.76459: (Sim:1h6m1s) 
CPU  1 inst:   84000000 cyc:   84029256 now IPC :0.77814: AVG IPC :0.98737: L2-Pf-HR :0.82955: L2-HR :0.78356: (Sim:1h6m26s) 
CPU  2 inst:   86000000 cyc:   84476514 now IPC :0.89662: AVG IPC :1.00602: L2-Pf-HR :0.82708: L2-HR :0.78169: (Sim:1h6m50s) 
CPU  3 inst:   84000000 cyc:   84563250 now IPC :0.86078: AVG IPC :0.98105: L2-Pf-HR :0.86932: L2-HR :0.79531: (Sim:1h6m54s) 
CPU  0 inst:   86000000 cyc:   84570826 now IPC :0.89235: AVG IPC :1.00490: L2-Pf-HR :0.78624: L2-HR :0.76444: (Sim:1h6m55s) 
CPU  1 inst:   85000000 cyc:   85128263 now IPC :0.90991: AVG IPC :0.98635: L2-Pf-HR :0.83010: L2-HR :0.78355: (Sim:1h7m24s) 
CPU  2 inst:   87000000 cyc:   85565570 now IPC :0.91823: AVG IPC :1.00489: L2-Pf-HR :0.82751: L2-HR :0.78190: (Sim:1h7m44s) 
CPU  3 inst:   85000000 cyc:   85669115 now IPC :0.90427: AVG IPC :0.98005: L2-Pf-HR :0.86950: L2-HR :0.79521: (Sim:1h7m50s) 
CPU  0 inst:   87000000 cyc:   85676705 now IPC :0.90426: AVG IPC :1.00358: L2-Pf-HR :0.78666: L2-HR :0.76476: (Sim:1h7m50s) 
CPU  1 inst:   86000000 cyc:   86201267 now IPC :0.93196: AVG IPC :0.98567: L2-Pf-HR :0.82859: L2-HR :0.78330: (Sim:1h8m17s) 
CPU  3 inst:   86000000 cyc:   86589223 now IPC :1.08683: AVG IPC :0.98120: L2-Pf-HR :0.86844: L2-HR :0.79515: (Sim:1h8m39s) 
CPU  2 inst:   88000001 cyc:   86712538 now IPC :0.87186: AVG IPC :1.00311: L2-Pf-HR :0.82773: L2-HR :0.78179: (Sim:1h8m45s) 
CPU  0 inst:   88000001 cyc:   86829623 now IPC :0.86737: AVG IPC :1.00175: L2-Pf-HR :0.78694: L2-HR :0.76469: (Sim:1h8m51s) 
CPU  1 inst:   87000000 cyc:   87183961 now IPC :1.01761: AVG IPC :0.98603: L2-Pf-HR :0.82911: L2-HR :0.78369: (Sim:1h9m10s) 
CPU  3 inst:   87000000 cyc:   87601291 now IPC :0.98808: AVG IPC :0.98128: L2-Pf-HR :0.86911: L2-HR :0.79561: (Sim:1h9m29s) 
CPU  2 inst:   89000002 cyc:   87890004 now IPC :0.84928: AVG IPC :1.00103: L2-Pf-HR :0.82827: L2-HR :0.78212: (Sim:1h9m44s) 
CPU  0 inst:   89000004 cyc:   88010627 now IPC :0.84674: AVG IPC :0.99965: L2-Pf-HR :0.78784: L2-HR :0.76500: (Sim:1h9m50s) 
CPU  1 inst:   88000004 cyc:   88366593 now IPC :0.84557: AVG IPC :0.98413: L2-Pf-HR :0.82920: L2-HR :0.78336: (Sim:1h10m8s) 
CPU  3 inst:   88000001 cyc:   88697064 now IPC :0.91260: AVG IPC :0.98042: L2-Pf-HR :0.86932: L2-HR :0.79549: (Sim:1h10m25s) 
CPU  2 inst:   90000000 cyc:   88954047 now IPC :0.93981: AVG IPC :1.00029: L2-Pf-HR :0.82828: L2-HR :0.78224: (Sim:1h10m38s) 
CPU  0 inst:   90000000 cyc:   89036925 now IPC :0.97437: AVG IPC :0.99936: L2-Pf-HR :0.78725: L2-HR :0.76492: (Sim:1h10m42s) 
CPU  1 inst:   89000003 cyc:   89640571 now IPC :0.78494: AVG IPC :0.98127: L2-Pf-HR :0.82930: L2-HR :0.78349: (Sim:1h11m11s) 
CPU  3 inst:   89000005 cyc:   89852203 now IPC :0.86570: AVG IPC :0.97893: L2-Pf-HR :0.86941: L2-HR :0.79561: (Sim:1h11m21s) 
CPU  2 inst:   91000005 cyc:   90017237 now IPC :0.94057: AVG IPC :0.99957: L2-Pf-HR :0.82848: L2-HR :0.78245: (Sim:1h11m30s) 
CPU  0 inst:   91000005 cyc:   90129939 now IPC :0.91491: AVG IPC :0.99832: L2-Pf-HR :0.78712: L2-HR :0.76495: (Sim:1h11m36s) 
CPU  1 inst:   90000000 cyc:   90745178 now IPC :0.90530: AVG IPC :0.98034: L2-Pf-HR :0.82910: L2-HR :0.78349: (Sim:1h12m7s) 
CPU  3 inst:   90000000 cyc:   90880218 now IPC :0.97274: AVG IPC :0.97886: L2-Pf-HR :0.86941: L2-HR :0.79542: (Sim:1h12m15s) 
CPU  2 inst:   92000000 cyc:   90924687 now IPC :1.10198: AVG IPC :1.00061: L2-Pf-HR :0.82785: L2-HR :0.78264: (Sim:1h12m17s) 
CPU  0 inst:   92000000 cyc:   91184474 now IPC :0.94828: AVG IPC :0.99773: L2-Pf-HR :0.78592: L2-HR :0.76478: (Sim:1h12m32s) 
CPU  1 inst:   91000005 cyc:   91744702 now IPC :1.00048: AVG IPC :0.98056: L2-Pf-HR :0.82891: L2-HR :0.78358: (Sim:1h13m2s) 
CPU  2 inst:   93000001 cyc:   91795894 now IPC :1.14783: AVG IPC :1.00202: L2-Pf-HR :0.82844: L2-HR :0.78304: (Sim:1h13m4s) 
CPU  3 inst:   91000005 cyc:   91861712 now IPC :1.01886: AVG IPC :0.97929: L2-Pf-HR :0.86943: L2-HR :0.79554: (Sim:1h13m7s) 
CPU  0 inst:   93000000 cyc:   92416241 now IPC :0.81184: AVG IPC :0.99523: L2-Pf-HR :0.78643: L2-HR :0.76507: (Sim:1h13m32s) 
CPU  1 inst:   92000000 cyc:   92759375 now IPC :0.98553: AVG IPC :0.98061: L2-Pf-HR :0.82824: L2-HR :0.78364: (Sim:1h13m53s) 
CPU  2 inst:   94000000 cyc:   92780053 now IPC :1.01609: AVG IPC :1.00217: L2-Pf-HR :0.82886: L2-HR :0.78330: (Sim:1h13m54s) 
CPU  3 inst:   92000000 cyc:   92941692 now IPC :0.92594: AVG IPC :0.97866: L2-Pf-HR :0.86848: L2-HR :0.79557: (Sim:1h14m2s) 
CPU  0 inst:   94000000 cyc:   93445506 now IPC :0.97157: AVG IPC :0.99497: L2-Pf-HR :0.78682: L2-HR :0.76529: (Sim:1h14m28s) 
CPU  1 inst:   93000002 cyc:   93648970 now IPC :1.12411: AVG IPC :0.98199: L2-Pf-HR :0.82887: L2-HR :0.78420: (Sim:1h14m39s) 
CPU  2 inst:   95000004 cyc:   93849149 now IPC :0.93537: AVG IPC :1.00140: L2-Pf-HR :0.82914: L2-HR :0.78324: (Sim:1h14m49s) 
CPU  3 inst:   93000000 cyc:   93975084 now IPC :0.96769: AVG IPC :0.97854: L2-Pf-HR :0.86905: L2-HR :0.79595: (Sim:1h14m56s) 
CPU  1 inst:   94000000 cyc:   94517118 now IPC :1.15188: AVG IPC :0.98357: L2-Pf-HR :0.82897: L2-HR :0.78430: (Sim:1h15m23s) 
CPU  0 inst:   95000004 cyc:   94655300 now IPC :0.82659: AVG IPC :0.99279: L2-Pf-HR :0.78711: L2-HR :0.76506: (Sim:1h15m29s) 
CPU  2 inst:   96000004 cyc:   94972229 now IPC :0.89041: AVG IPC :1.00007: L2-Pf-HR :0.82957: L2-HR :0.78330: (Sim:1h15m44s) 
CPU  3 inst:   94000000 cyc:   95019937 now IPC :0.95707: AVG IPC :0.97830: L2-Pf-HR :0.86938: L2-HR :0.79615: (Sim:1h15m47s) 
CPU  1 inst:   95000004 cyc:   95625450 now IPC :0.90226: AVG IPC :0.98261: L2-Pf-HR :0.82930: L2-HR :0.78429: (Sim:1h16m16s) 
CPU  0 inst:   96000004 cyc:   95788949 now IPC :0.88211: AVG IPC :0.99147: L2-Pf-HR :0.78741: L2-HR :0.76515: (Sim:1h16m25s) 
CPU  2 inst:   97000002 cyc:   95994813 now IPC :0.97791: AVG IPC :0.99984: L2-Pf-HR :0.82961: L2-HR :0.78318: (Sim:1h16m36s) 
CPU  3 inst:   95000004 cyc:   96112310 now IPC :0.91544: AVG IPC :0.97758: L2-Pf-HR :0.86971: L2-HR :0.79616: (Sim:1h16m42s) 
CPU  1 inst:   96000004 cyc:   96684606 now IPC :0.94415: AVG IPC :0.98219: L2-Pf-HR :0.82957: L2-HR :0.78422: (Sim:1h17m10s) 
CPU  0 inst:   97000002 cyc:   96901526 now IPC :0.89881: AVG IPC :0.99039: L2-Pf-HR :0.78757: L2-HR :0.76520: (Sim:1h17m20s) 
CPU  2 inst:   98000004 cyc:   97107816 now IPC :0.89847: AVG IPC :0.99866: L2-Pf-HR :0.82885: L2-HR :0.78324: (Sim:1h17m29s) 
CPU  3 inst:   96000004 cyc:   97438191 now IPC :0.75422: AVG IPC :0.97451: L2-Pf-HR :0.87002: L2-HR :0.79628: (Sim:1h17m44s) 
CPU  1 inst:   97000002 cyc:   97883303 now IPC :0.83424: AVG IPC :0.98036: L2-Pf-HR :0.82994: L2-HR :0.78426: (Sim:1h18m3s) 
CPU  0 inst:   98000004 cyc:   98050523 now IPC :0.87033: AVG IPC :0.98897: L2-Pf-HR :0.78672: L2-HR :0.76511: (Sim:1h18m11s) 
CPU  2 inst:   99000003 cyc:   98601264 now IPC :0.66959: AVG IPC :0.99363: L2-Pf-HR :0.82942: L2-HR :0.78341: (Sim:1h18m34s) 
CPU  3 inst:   97000002 cyc:   98858877 now IPC :0.70388: AVG IPC :0.97058: L2-Pf-HR :0.87018: L2-HR :0.79619: (Sim:1h18m46s) 
CPU  1 inst:   98000004 cyc:   99041747 now IPC :0.86323: AVG IPC :0.97898: L2-Pf-HR :0.82917: L2-HR :0.78408: (Sim:1h18m55s) 
CPU  0 inst:   99000000 cyc:   99229088 now IPC :0.84849: AVG IPC :0.98729: L2-Pf-HR :0.78721: L2-HR :0.76542: (Sim:1h19m4s) 
CPU  2 inst:  100000003 cyc:   99740445 now IPC :0.87782: AVG IPC :0.99229: L2-Pf-HR :0.82931: L2-HR :0.78330: (Sim:1h19m30s) 
CPU  3 inst:   98000004 cyc:   99915648 now IPC :0.94628: AVG IPC :0.97032: L2-Pf-HR :0.86935: L2-HR :0.79620: (Sim:1h19m39s) 
CPU  1 inst:   99000003 cyc:  100054957 now IPC :0.98696: AVG IPC :0.97906: L2-Pf-HR :0.82963: L2-HR :0.78445: (Sim:1h19m47s) 
CPU  0 inst:  100000000 cyc:  100305403 now IPC :0.92910: AVG IPC :0.98666: L2-Pf-HR :0.78744: L2-HR :0.76554: (Sim:1h19m58s) 
CPU  2 inst:  101000000 cyc:  100818209 now IPC :0.92784: AVG IPC :0.99160: L2-Pf-HR :0.82951: L2-HR :0.78345: (Sim:1h20m24s) 
CPU  3 inst:   99000003 cyc:  101049506 now IPC :0.88194: AVG IPC :0.96932: L2-Pf-HR :0.87002: L2-HR :0.79651: (Sim:1h20m34s) 
CPU  1 inst:  100000005 cyc:  101222256 now IPC :0.85668: AVG IPC :0.97763: L2-Pf-HR :0.82946: L2-HR :0.78424: (Sim:1h20m42s) 
CPU  0 inst:  101000000 cyc:  101525153 now IPC :0.81984: AVG IPC :0.98463: L2-Pf-HR :0.78843: L2-HR :0.76596: (Sim:1h20m57s) 
CPU  2 inst:  102000003 cyc:  102024030 now IPC :0.82931: AVG IPC :0.98966: L2-Pf-HR :0.82977: L2-HR :0.78358: (Sim:1h21m17s) 
CPU  3 inst:  100000004 cyc:  102412510 now IPC :0.73367: AVG IPC :0.96616: L2-Pf-HR :0.87003: L2-HR :0.79643: (Sim:1h21m34s) 
CPU  1 inst:  101000000 cyc:  102597152 now IPC :0.72732: AVG IPC :0.97425: L2-Pf-HR :0.82980: L2-HR :0.78442: (Sim:1h21m43s) 
CPU  0 inst:  102000003 cyc:  102874579 now IPC :0.74106: AVG IPC :0.98141: L2-Pf-HR :0.78845: L2-HR :0.76590: (Sim:1h21m55s) 
CPU  2 inst:  103000003 cyc:  103349670 now IPC :0.75435: AVG IPC :0.98661: L2-Pf-HR :0.82992: L2-HR :0.78359: (Sim:1h22m16s) 
CPU  3 inst:  101000000 cyc:  103743574 now IPC :0.75128: AVG IPC :0.96337: L2-Pf-HR :0.87005: L2-HR :0.79655: (Sim:1h22m33s) 
CPU  1 inst:  102000003 cyc:  103943839 now IPC :0.74257: AVG IPC :0.97121: L2-Pf-HR :0.83027: L2-HR :0.78444: (Sim:1h22m42s) 
CPU  0 inst:  103000003 cyc:  104204772 now IPC :0.75177: AVG IPC :0.97845: L2-Pf-HR :0.78852: L2-HR :0.76570: (Sim:1h22m56s) 
CPU  2 inst:  104000002 cyc:  104371619 now IPC :0.97852: AVG IPC :0.98653: L2-Pf-HR :0.82929: L2-HR :0.78381: (Sim:1h23m4s) 
CPU  3 inst:  102000003 cyc:  104877426 now IPC :0.88195: AVG IPC :0.96248: L2-Pf-HR :0.87009: L2-HR :0.79640: (Sim:1h23m29s) 
CPU  1 inst:  103000003 cyc:  105045326 now IPC :0.90786: AVG IPC :0.97054: L2-Pf-HR :0.83031: L2-HR :0.78441: (Sim:1h23m38s) 
CPU  0 inst:  104000005 cyc:  105258275 now IPC :0.94922: AVG IPC :0.97815: L2-Pf-HR :0.78743: L2-HR :0.76560: (Sim:1h23m48s) 
CPU  2 inst:  105000002 cyc:  105593792 now IPC :0.81821: AVG IPC :0.98457: L2-Pf-HR :0.83003: L2-HR :0.78416: (Sim:1h24m4s) 
CPU  3 inst:  103000003 cyc:  105985547 now IPC :0.90243: AVG IPC :0.96185: L2-Pf-HR :0.87023: L2-HR :0.79631: (Sim:1h24m23s) 
CPU  1 inst:  104000005 cyc:  106136492 now IPC :0.91645: AVG IPC :0.96998: L2-Pf-HR :0.82967: L2-HR :0.78457: (Sim:1h24m30s) 
CPU  0 inst:  105000002 cyc:  106590297 now IPC :0.75074: AVG IPC :0.97529: L2-Pf-HR :0.78823: L2-HR :0.76587: (Sim:1h24m50s) 
CPU  2 inst:  106000001 cyc:  106776138 now IPC :0.84578: AVG IPC :0.98302: L2-Pf-HR :0.83036: L2-HR :0.78436: (Sim:1h24m59s) 
CPU  3 inst:  104000002 cyc:  107107924 now IPC :0.89097: AVG IPC :0.96110: L2-Pf-HR :0.86940: L2-HR :0.79642: (Sim:1h25m14s) 
CPU  1 inst:  105000002 cyc:  107487577 now IPC :0.74014: AVG IPC :0.96707: L2-Pf-HR :0.83027: L2-HR :0.78496: (Sim:1h25m30s) 
CPU  0 inst:  106000001 cyc:  107832909 now IPC :0.80476: AVG IPC :0.97330: L2-Pf-HR :0.78834: L2-HR :0.76591: (Sim:1h25m44s) 
CPU  2 inst:  107000001 cyc:  108219502 now IPC :0.69283: AVG IPC :0.97911: L2-Pf-HR :0.83064: L2-HR :0.78429: (Sim:1h26m1s) 
CPU  3 inst:  105000002 cyc:  108646917 now IPC :0.64978: AVG IPC :0.95665: L2-Pf-HR :0.87001: L2-HR :0.79671: (Sim:1h26m17s) 
CPU  1 inst:  106000001 cyc:  108798270 now IPC :0.76295: AVG IPC :0.96459: L2-Pf-HR :0.83053: L2-HR :0.78506: (Sim:1h26m24s) 
CPU  0 inst:  107000001 cyc:  109172111 now IPC :0.74671: AVG IPC :0.97050: L2-Pf-HR :0.78873: L2-HR :0.76593: (Sim:1h26m42s) 
CPU  2 inst:  108000001 cyc:  109642324 now IPC :0.70283: AVG IPC :0.97549: L2-Pf-HR :0.83104: L2-HR :0.78423: (Sim:1h27m2s) 
CPU  3 inst:  106000001 cyc:  109985789 now IPC :0.74690: AVG IPC :0.95407: L2-Pf-HR :0.87033: L2-HR :0.79684: (Sim:1h27m18s) 
CPU  1 inst:  107000001 cyc:  110137866 now IPC :0.74649: AVG IPC :0.96191: L2-Pf-HR :0.83085: L2-HR :0.78505: (Sim:1h27m24s) 
CPU  0 inst:  108000001 cyc:  110363690 now IPC :0.83922: AVG IPC :0.96907: L2-Pf-HR :0.78891: L2-HR :0.76589: (Sim:1h27m36s) 
CPU  2 inst:  109000000 cyc:  110801990 now IPC :0.86232: AVG IPC :0.97430: L2-Pf-HR :0.83104: L2-HR :0.78410: (Sim:1h27m57s) 
CPU  3 inst:  107000001 cyc:  111188454 now IPC :0.83149: AVG IPC :0.95274: L2-Pf-HR :0.87059: L2-HR :0.79676: (Sim:1h28m15s) 
CPU  1 inst:  108000001 cyc:  111331198 now IPC :0.83799: AVG IPC :0.96057: L2-Pf-HR :0.83108: L2-HR :0.78497: (Sim:1h28m23s) 
CPU  0 inst:  109000000 cyc:  111468057 now IPC :0.90550: AVG IPC :0.96843: L2-Pf-HR :0.78903: L2-HR :0.76571: (Sim:1h28m29s) 
CPU  2 inst:  110000004 cyc:  111857326 now IPC :0.94757: AVG IPC :0.97404: L2-Pf-HR :0.83014: L2-HR :0.78406: (Sim:1h28m48s) 
CPU  3 inst:  108000001 cyc:  112252656 now IPC :0.93967: AVG IPC :0.95261: L2-Pf-HR :0.87089: L2-HR :0.79674: (Sim:1h29m10s) 
CPU  0 inst:  110000003 cyc:  112458227 now IPC :1.00993: AVG IPC :0.96880: L2-Pf-HR :0.78801: L2-HR :0.76557: (Sim:1h29m20s) 
CPU  1 inst:  109000000 cyc:  112478820 now IPC :0.87137: AVG IPC :0.95965: L2-Pf-HR :0.83142: L2-HR :0.78493: (Sim:1h29m22s) 
CPU  2 inst:  111000001 cyc:  112897833 now IPC :0.96107: AVG IPC :0.97392: L2-Pf-HR :0.83056: L2-HR :0.78436: (Sim:1h29m43s) 
CPU  3 inst:  109000000 cyc:  113321382 now IPC :0.93569: AVG IPC :0.95245: L2-Pf-HR :0.87108: L2-HR :0.79668: (Sim:1h30m6s) 
CPU  0 inst:  111000000 cyc:  113377228 now IPC :1.08813: AVG IPC :0.96978: L2-Pf-HR :0.78858: L2-HR :0.76593: (Sim:1h30m9s) 
CPU  1 inst:  110000003 cyc:  113477241 now IPC :1.00158: AVG IPC :0.96002: L2-Pf-HR :0.83041: L2-HR :0.78471: (Sim:1h30m14s) 
CPU  2 inst:  112000005 cyc:  114085715 now IPC :0.84184: AVG IPC :0.97253: L2-Pf-HR :0.83080: L2-HR :0.78417: (Sim:1h30m44s) 
CPU  3 inst:  110000003 cyc:  114332674 now IPC :0.98884: AVG IPC :0.95278: L2-Pf-HR :0.87013: L2-HR :0.79663: (Sim:1h30m57s) 
CPU  0 inst:  112000005 cyc:  114361073 now IPC :1.01643: AVG IPC :0.97018: L2-Pf-HR :0.78919: L2-HR :0.76591: (Sim:1h30m59s) 
CPU  1 inst:  111000000 cyc:  114623189 now IPC :0.87264: AVG IPC :0.95914: L2-Pf-HR :0.83102: L2-HR :0.78509: (Sim:1h31m11s) 
CPU  2 inst:  113000001 cyc:  115332685 now IPC :0.80194: AVG IPC :0.97067: L2-Pf-HR :0.83069: L2-HR :0.78422: (Sim:1h31m44s) 
CPU  0 inst:  113000001 cyc:  115434211 now IPC :0.93184: AVG IPC :0.96982: L2-Pf-HR :0.78951: L2-HR :0.76610: (Sim:1h31m49s) 
CPU  3 inst:  111000000 cyc:  115637230 now IPC :0.76654: AVG IPC :0.95066: L2-Pf-HR :0.87052: L2-HR :0.79698: (Sim:1h31m58s) 
CPU  1 inst:  112000005 cyc:  116025981 now IPC :0.71287: AVG IPC :0.95614: L2-Pf-HR :0.83117: L2-HR :0.78487: (Sim:1h32m15s) 
CPU  0 inst:  114000001 cyc:  116642555 now IPC :0.82758: AVG IPC :0.96834: L2-Pf-HR :0.78889: L2-HR :0.76600: (Sim:1h32m40s) 
CPU  2 inst:  114000001 cyc:  116753169 now IPC :0.70399: AVG IPC :0.96740: L2-Pf-HR :0.83093: L2-HR :0.78436: (Sim:1h32m45s) 
CPU  3 inst:  112000005 cyc:  117137950 now IPC :0.66635: AVG IPC :0.94698: L2-Pf-HR :0.87075: L2-HR :0.79687: (Sim:1h33m1s) 
CPU  1 inst:  113000001 cyc:  117435787 now IPC :0.70931: AVG IPC :0.95315: L2-Pf-HR :0.83088: L2-HR :0.78482: (Sim:1h33m15s) 
CPU  0 inst:  115000004 cyc:  117907231 now IPC :0.79072: AVG IPC :0.96641: L2-Pf-HR :0.78861: L2-HR :0.76595: (Sim:1h33m37s) 
CPU  2 inst:  115000004 cyc:  118053258 now IPC :0.76918: AVG IPC :0.96520: L2-Pf-HR :0.83098: L2-HR :0.78443: (Sim:1h33m44s) 
CPU  3 inst:  113000001 cyc:  118539478 now IPC :0.71350: AVG IPC :0.94420: L2-Pf-HR :0.87084: L2-HR :0.79692: (Sim:1h34m5s) 
CPU  1 inst:  114000001 cyc:  118684218 now IPC :0.80101: AVG IPC :0.95154: L2-Pf-HR :0.83093: L2-HR :0.78490: (Sim:1h34m13s) 
CPU  0 inst:  116000005 cyc:  118959520 now IPC :0.95031: AVG IPC :0.96627: L2-Pf-HR :0.78745: L2-HR :0.76571: (Sim:1h34m28s) 
CPU  2 inst:  116000005 cyc:  119132498 now IPC :0.92658: AVG IPC :0.96485: L2-Pf-HR :0.83044: L2-HR :0.78456: (Sim:1h34m38s) 
CPU  3 inst:  114000001 cyc:  119557929 now IPC :0.98188: AVG IPC :0.94452: L2-Pf-HR :0.87093: L2-HR :0.79675: (Sim:1h35m0s) 
CPU  1 inst:  115000004 cyc:  119678314 now IPC :1.00594: AVG IPC :0.95199: L2-Pf-HR :0.83077: L2-HR :0.78492: (Sim:1h35m7s) 
CPU  0 inst:  117000001 cyc:  119953197 now IPC :1.00636: AVG IPC :0.96661: L2-Pf-HR :0.78802: L2-HR :0.76607: (Sim:1h35m20s) 
CPU  2 inst:  117000001 cyc:  120278122 now IPC :0.87288: AVG IPC :0.96397: L2-Pf-HR :0.83091: L2-HR :0.78490: (Sim:1h35m36s) 
CPU  3 inst:  115000004 cyc:  120611380 now IPC :0.94926: AVG IPC :0.94457: L2-Pf-HR :0.87101: L2-HR :0.79674: (Sim:1h35m54s) 
CPU  1 inst:  116000005 cyc:  120726835 now IPC :0.95373: AVG IPC :0.95201: L2-Pf-HR :0.83078: L2-HR :0.78515: (Sim:1h36m0s) 
CPU  0 inst:  118000005 cyc:  121050981 now IPC :0.91093: AVG IPC :0.96610: L2-Pf-HR :0.78833: L2-HR :0.76614: (Sim:1h36m14s) 
CPU  2 inst:  118000005 cyc:  121423532 now IPC :0.87305: AVG IPC :0.96310: L2-Pf-HR :0.83126: L2-HR :0.78504: (Sim:1h36m33s) 
CPU  3 inst:  116000005 cyc:  121653329 now IPC :0.95974: AVG IPC :0.94470: L2-Pf-HR :0.87019: L2-HR :0.79678: (Sim:1h36m45s) 
CPU  1 inst:  117000001 cyc:  121865621 now IPC :0.87812: AVG IPC :0.95131: L2-Pf-HR :0.83101: L2-HR :0.78531: (Sim:1h36m55s) 
CPU  0 inst:  119000001 cyc:  122107948 now IPC :0.94610: AVG IPC :0.96592: L2-Pf-HR :0.78860: L2-HR :0.76605: (Sim:1h37m7s) 
CPU  2 inst:  119000001 cyc:  122604281 now IPC :0.84692: AVG IPC :0.96197: L2-Pf-HR :0.83150: L2-HR :0.78497: (Sim:1h37m32s) 
CPU  3 inst:  117000001 cyc:  122810774 now IPC :0.86397: AVG IPC :0.94393: L2-Pf-HR :0.87064: L2-HR :0.79706: (Sim:1h37m42s) 
CPU  1 inst:  118000005 cyc:  122963805 now IPC :0.91060: AVG IPC :0.95095: L2-Pf-HR :0.83123: L2-HR :0.78542: (Sim:1h37m50s) 
CPU  0 inst:  120000001 cyc:  123070910 now IPC :1.03846: AVG IPC :0.96649: L2-Pf-HR :0.78852: L2-HR :0.76603: (Sim:1h37m55s) 
CPU  2 inst:  120000001 cyc:  123869766 now IPC :0.79021: AVG IPC :0.96020: L2-Pf-HR :0.83164: L2-HR :0.78490: (Sim:1h38m32s) 
CPU  3 inst:  118000005 cyc:  124090749 now IPC :0.78127: AVG IPC :0.94224: L2-Pf-HR :0.87097: L2-HR :0.79711: (Sim:1h38m43s) 
CPU  0 inst:  121000001 cyc:  124147873 now IPC :0.92854: AVG IPC :0.96616: L2-Pf-HR :0.78869: L2-HR :0.76609: (Sim:1h38m45s) 
CPU  1 inst:  119000001 cyc:  124208908 now IPC :0.80314: AVG IPC :0.94945: L2-Pf-HR :0.83156: L2-HR :0.78536: (Sim:1h38m48s) 
CPU  2 inst:  121000001 cyc:  125128875 now IPC :0.79421: AVG IPC :0.95852: L2-Pf-HR :0.83175: L2-HR :0.78481: (Sim:1h39m31s) 
CPU  0 inst:  122000003 cyc:  125254464 now IPC :0.90368: AVG IPC :0.96561: L2-Pf-HR :0.78851: L2-HR :0.76602: (Sim:1h39m37s) 
CPU  1 inst:  120000001 cyc:  125313635 now IPC :0.90520: AVG IPC :0.94906: L2-Pf-HR :0.83152: L2-HR :0.78522: (Sim:1h39m40s) 
CPU  3 inst:  119000001 cyc:  125479720 now IPC :0.71995: AVG IPC :0.93976: L2-Pf-HR :0.87126: L2-HR :0.79707: (Sim:1h39m48s) 
CPU  2 inst:  122000003 cyc:  126193461 now IPC :0.93933: AVG IPC :0.95836: L2-Pf-HR :0.83113: L2-HR :0.78476: (Sim:1h40m25s) 
CPU  1 inst:  121000001 cyc:  126292069 now IPC :1.02204: AVG IPC :0.94963: L2-Pf-HR :0.83193: L2-HR :0.78538: (Sim:1h40m31s) 
CPU  0 inst:  123000002 cyc:  126320063 now IPC :0.93844: AVG IPC :0.96537: L2-Pf-HR :0.78878: L2-HR :0.76605: (Sim:1h40m32s) 
CPU  3 inst:  120000001 cyc:  126551789 now IPC :0.93278: AVG IPC :0.93970: L2-Pf-HR :0.87130: L2-HR :0.79707: (Sim:1h40m44s) 
CPU  1 inst:  122000004 cyc:  127233331 now IPC :1.06241: AVG IPC :0.95047: L2-Pf-HR :0.83166: L2-HR :0.78529: (Sim:1h41m19s) 
CPU  2 inst:  123000002 cyc:  127246633 now IPC :0.94951: AVG IPC :0.95828: L2-Pf-HR :0.83162: L2-HR :0.78495: (Sim:1h41m20s) 
CPU  0 inst:  124000003 cyc:  127477681 now IPC :0.86384: AVG IPC :0.96445: L2-Pf-HR :0.78898: L2-HR :0.76602: (Sim:1h41m31s) 
CPU  3 inst:  121000001 cyc:  127638274 now IPC :0.92040: AVG IPC :0.93953: L2-Pf-HR :0.87144: L2-HR :0.79711: (Sim:1h41m40s) 
CPU  1 inst:  123000002 cyc:  128336567 now IPC :0.90642: AVG IPC :0.95009: L2-Pf-HR :0.83202: L2-HR :0.78538: (Sim:1h42m12s) 
CPU  2 inst:  124000003 cyc:  128555171 now IPC :0.76421: AVG IPC :0.95629: L2-Pf-HR :0.83177: L2-HR :0.78475: (Sim:1h42m21s) 
CPU  0 inst:  125000000 cyc:  128656304 now IPC :0.84845: AVG IPC :0.96337: L2-Pf-HR :0.78887: L2-HR :0.76587: (Sim:1h42m27s) 
CPU  3 inst:  122000004 cyc:  128869322 now IPC :0.81232: AVG IPC :0.93831: L2-Pf-HR :0.87078: L2-HR :0.79704: (Sim:1h42m36s) 
CPU  1 inst:  124000003 cyc:  129570767 now IPC :0.81024: AVG IPC :0.94875: L2-Pf-HR :0.83201: L2-HR :0.78512: (Sim:1h43m10s) 
CPU  0 inst:  126000001 cyc:  129669962 now IPC :0.98653: AVG IPC :0.96356: L2-Pf-HR :0.78767: L2-HR :0.76563: (Sim:1h43m16s) 
CPU  2 inst:  125000000 cyc:  129711447 now IPC :0.86484: AVG IPC :0.95547: L2-Pf-HR :0.83154: L2-HR :0.78457: (Sim:1h43m18s) 
CPU  3 inst:  123000002 cyc:  130164182 now IPC :0.77228: AVG IPC :0.93664: L2-Pf-HR :0.87145: L2-HR :0.79732: (Sim:1h43m38s) 
CPU  0 inst:  127000002 cyc:  130570563 now IPC :1.11037: AVG IPC :0.96458: L2-Pf-HR :0.78631: L2-HR :0.76560: (Sim:1h43m59s) 
CPU  2 inst:  126000001 cyc:  130775360 now IPC :0.93993: AVG IPC :0.95534: L2-Pf-HR :0.83037: L2-HR :0.78431: (Sim:1h44m9s) 
CPU  1 inst:  125000000 cyc:  130813400 now IPC :0.80474: AVG IPC :0.94737: L2-Pf-HR :0.83139: L2-HR :0.78477: (Sim:1h44m11s) 
CPU  0 inst:  128000005 cyc:  131465902 now IPC :1.11690: AVG IPC :0.96562: L2-Pf-HR :0.78524: L2-HR :0.76581: (Sim:1h44m44s) 
CPU  3 inst:  124000003 cyc:  131520371 now IPC :0.73736: AVG IPC :0.93457: L2-Pf-HR :0.87173: L2-HR :0.79717: (Sim:1h44m47s) 
CPU  2 inst:  127000002 cyc:  131715160 now IPC :1.06406: AVG IPC :0.95613: L2-Pf-HR :0.82922: L2-HR :0.78427: (Sim:1h44m57s) 
CPU  1 inst:  126000001 cyc:  131972501 now IPC :0.86274: AVG IPC :0.94662: L2-Pf-HR :0.83005: L2-HR :0.78443: (Sim:1h45m8s) 
CPU  2 inst:  128000005 cyc:  132653556 now IPC :1.06565: AVG IPC :0.95691: L2-Pf-HR :0.82792: L2-HR :0.78429: (Sim:1h45m39s) 
CPU  0 inst:  129000000 cyc:  132813312 now IPC :0.74216: AVG IPC :0.96334: L2-Pf-HR :0.78522: L2-HR :0.76595: (Sim:1h45m48s) 
CPU  3 inst:  125000000 cyc:  132890234 now IPC :0.73000: AVG IPC :0.93245: L2-Pf-HR :0.87147: L2-HR :0.79702: (Sim:1h45m52s) 
CPU  1 inst:  127000002 cyc:  133084950 now IPC :0.89892: AVG IPC :0.94622: L2-Pf-HR :0.82884: L2-HR :0.78427: (Sim:1h46m1s) 
CPU  2 inst:  129000000 cyc:  133944025 now IPC :0.77491: AVG IPC :0.95514: L2-Pf-HR :0.82706: L2-HR :0.78416: (Sim:1h46m43s) 
CPU  1 inst:  128000005 cyc:  133950803 now IPC :1.15493: AVG IPC :0.94758: L2-Pf-HR :0.82739: L2-HR :0.78423: (Sim:1h46m44s) 
CPU  3 inst:  126000001 cyc:  134027115 now IPC :0.87960: AVG IPC :0.93200: L2-Pf-HR :0.87071: L2-HR :0.79685: (Sim:1h46m48s) 
CPU  0 inst:  130000002 cyc:  134061443 now IPC :0.80120: AVG IPC :0.96182: L2-Pf-HR :0.78545: L2-HR :0.76616: (Sim:1h46m50s) 
CPU  2 inst:  130000001 cyc:  135062531 now IPC :0.89405: AVG IPC :0.95463: L2-Pf-HR :0.82723: L2-HR :0.78456: (Sim:1h47m36s) 
CPU  3 inst:  127000002 cyc:  135127476 now IPC :0.90879: AVG IPC :0.93181: L2-Pf-HR :0.86967: L2-HR :0.79686: (Sim:1h47m40s) 
CPU  1 inst:  129000000 cyc:  135154453 now IPC :0.83080: AVG IPC :0.94653: L2-Pf-HR :0.82684: L2-HR :0.78430: (Sim:1h47m41s) 
CPU  0 inst:  131000001 cyc:  135376368 now IPC :0.76050: AVG IPC :0.95985: L2-Pf-HR :0.78564: L2-HR :0.76631: (Sim:1h47m53s) 
CPU  3 inst:  128000005 cyc:  136033641 now IPC :1.10356: AVG IPC :0.93296: L2-Pf-HR :0.86818: L2-HR :0.79686: (Sim:1h48m24s) 
CPU  2 inst:  131000001 cyc:  136250174 now IPC :0.84200: AVG IPC :0.95364: L2-Pf-HR :0.82739: L2-HR :0.78500: (Sim:1h48m37s) 
CPU  1 inst:  130000002 cyc:  136254869 now IPC :0.90875: AVG IPC :0.94622: L2-Pf-HR :0.82701: L2-HR :0.78466: (Sim:1h48m37s) 
CPU  0 inst:  132000001 cyc:  136791489 now IPC :0.70665: AVG IPC :0.95721: L2-Pf-HR :0.78480: L2-HR :0.76631: (Sim:1h48m59s) 
CPU  3 inst:  129000000 cyc:  137328829 now IPC :0.77208: AVG IPC :0.93143: L2-Pf-HR :0.86758: L2-HR :0.79692: (Sim:1h49m27s) 
CPU  1 inst:  131000001 cyc:  137335798 now IPC :0.92513: AVG IPC :0.94605: L2-Pf-HR :0.82733: L2-HR :0.78521: (Sim:1h49m27s) 
CPU  2 inst:  132000001 cyc:  137387581 now IPC :0.87919: AVG IPC :0.95302: L2-Pf-HR :0.82679: L2-HR :0.78518: (Sim:1h49m30s) 
CPU  0 inst:  133000000 cyc:  137903520 now IPC :0.89925: AVG IPC :0.95674: L2-Pf-HR :0.78542: L2-HR :0.76687: (Sim:1h49m54s) 
CPU  1 inst:  132000005 cyc:  138358402 now IPC :0.97790: AVG IPC :0.94629: L2-Pf-HR :0.82692: L2-HR :0.78553: (Sim:1h50m18s) 
CPU  3 inst:  130000001 cyc:  138550962 now IPC :0.81824: AVG IPC :0.93043: L2-Pf-HR :0.86723: L2-HR :0.79690: (Sim:1h50m27s) 
CPU  2 inst:  133000000 cyc:  138628007 now IPC :0.80617: AVG IPC :0.95170: L2-Pf-HR :0.82734: L2-HR :0.78579: (Sim:1h50m31s) 
CPU  0 inst:  134000003 cyc:  139070795 now IPC :0.85670: AVG IPC :0.95589: L2-Pf-HR :0.78565: L2-HR :0.76707: (Sim:1h50m52s) 
CPU  1 inst:  133000000 cyc:  139487082 now IPC :0.88599: AVG IPC :0.94580: L2-Pf-HR :0.82727: L2-HR :0.78600: (Sim:1h51m14s) 
CPU  3 inst:  131000001 cyc:  139569669 now IPC :0.98164: AVG IPC :0.93080: L2-Pf-HR :0.86724: L2-HR :0.79718: (Sim:1h51m18s) 
CPU  2 inst:  134000003 cyc:  139723104 now IPC :0.91316: AVG IPC :0.95139: L2-Pf-HR :0.82730: L2-HR :0.78595: (Sim:1h51m25s) 
CPU  0 inst:  135000002 cyc:  140294924 now IPC :0.81691: AVG IPC :0.95467: L2-Pf-HR :0.78629: L2-HR :0.76721: (Sim:1h51m53s) 
CPU  3 inst:  132000000 cyc:  140612098 now IPC :0.95930: AVG IPC :0.93102: L2-Pf-HR :0.86662: L2-HR :0.79726: (Sim:1h52m9s) 
CPU  1 inst:  134000003 cyc:  140623546 now IPC :0.87992: AVG IPC :0.94526: L2-Pf-HR :0.82707: L2-HR :0.78607: (Sim:1h52m10s) 
CPU  2 inst:  135000002 cyc:  140953097 now IPC :0.81301: AVG IPC :0.95018: L2-Pf-HR :0.82760: L2-HR :0.78602: (Sim:1h52m27s) 
CPU  0 inst:  136000004 cyc:  141433510 now IPC :0.87828: AVG IPC :0.95405: L2-Pf-HR :0.78662: L2-HR :0.76726: (Sim:1h52m48s) 
CPU  3 inst:  133000000 cyc:  141606123 now IPC :1.00601: AVG IPC :0.93155: L2-Pf-HR :0.86697: L2-HR :0.79758: (Sim:1h52m56s) 
CPU  1 inst:  135000002 cyc:  141966977 now IPC :0.74436: AVG IPC :0.94335: L2-Pf-HR :0.82758: L2-HR :0.78622: (Sim:1h53m13s) 
CPU  2 inst:  136000004 cyc:  142382662 now IPC :0.69951: AVG IPC :0.94764: L2-Pf-HR :0.82789: L2-HR :0.78600: (Sim:1h53m31s) 
CPU  0 inst:  137000000 cyc:  142835828 now IPC :0.71310: AVG IPC :0.95167: L2-Pf-HR :0.78672: L2-HR :0.76720: (Sim:1h53m50s) 
CPU  3 inst:  134000003 cyc:  142919090 now IPC :0.76164: AVG IPC :0.92997: L2-Pf-HR :0.86725: L2-HR :0.79776: (Sim:1h53m53s) 
CPU  1 inst:  136000004 cyc:  143587930 now IPC :0.61692: AVG IPC :0.93964: L2-Pf-HR :0.82804: L2-HR :0.78631: (Sim:1h54m20s) 
CPU  0 inst:  138000002 cyc:  143971916 now IPC :0.88022: AVG IPC :0.95110: L2-Pf-HR :0.78632: L2-HR :0.76732: (Sim:1h54m37s) 
CPU  2 inst:  137000000 cyc:  143976562 now IPC :0.62739: AVG IPC :0.94407: L2-Pf-HR :0.82796: L2-HR :0.78577: (Sim:1h54m37s) 
CPU  3 inst:  135000002 cyc:  144461846 now IPC :0.64819: AVG IPC :0.92694: L2-Pf-HR :0.86750: L2-HR :0.79770: (Sim:1h54m59s) 
CPU  2 inst:  138000002 cyc:  145044699 now IPC :0.93621: AVG IPC :0.94401: L2-Pf-HR :0.82720: L2-HR :0.78571: (Sim:1h55m27s) 
CPU  1 inst:  137000005 cyc:  145048289 now IPC :0.68476: AVG IPC :0.93706: L2-Pf-HR :0.82810: L2-HR :0.78616: (Sim:1h55m27s) 
CPU  0 inst:  139000002 cyc:  145065001 now IPC :0.91484: AVG IPC :0.95083: L2-Pf-HR :0.78635: L2-HR :0.76735: (Sim:1h55m28s) 
CPU  3 inst:  136000003 cyc:  145891907 now IPC :0.69927: AVG IPC :0.92470: L2-Pf-HR :0.86767: L2-HR :0.79761: (Sim:1h56m8s) 
CPU  1 inst:  138000002 cyc:  146079313 now IPC :0.96991: AVG IPC :0.93729: L2-Pf-HR :0.82752: L2-HR :0.78616: (Sim:1h56m17s) 
CPU  2 inst:  139000001 cyc:  146193898 now IPC :0.87017: AVG IPC :0.94343: L2-Pf-HR :0.82737: L2-HR :0.78572: (Sim:1h56m22s) 
CPU  0 inst:  140000004 cyc:  146288409 now IPC :0.81739: AVG IPC :0.94971: L2-Pf-HR :0.78668: L2-HR :0.76743: (Sim:1h56m27s) 
CPU  3 inst:  137000005 cyc:  147195751 now IPC :0.76696: AVG IPC :0.92329: L2-Pf-HR :0.86770: L2-HR :0.79747: (Sim:1h57m8s) 
CPU  1 inst:  139000001 cyc:  147246184 now IPC :0.85699: AVG IPC :0.93665: L2-Pf-HR :0.82777: L2-HR :0.78617: (Sim:1h57m10s) 
CPU  2 inst:  140000004 cyc:  147416166 now IPC :0.81815: AVG IPC :0.94238: L2-Pf-HR :0.82738: L2-HR :0.78567: (Sim:1h57m18s) 
CPU  0 inst:  141000003 cyc:  147825534 now IPC :0.65056: AVG IPC :0.94657: L2-Pf-HR :0.78643: L2-HR :0.76726: (Sim:1h57m36s) 
CPU  3 inst:  138000002 cyc:  148260877 now IPC :0.93885: AVG IPC :0.92340: L2-Pf-HR :0.86687: L2-HR :0.79729: (Sim:1h57m57s) 
CPU  1 inst:  140000004 cyc:  148689342 now IPC :0.69293: AVG IPC :0.93427: L2-Pf-HR :0.82788: L2-HR :0.78613: (Sim:1h58m16s) 
CPU  2 inst:  141000003 cyc:  148897207 now IPC :0.67520: AVG IPC :0.93971: L2-Pf-HR :0.82671: L2-HR :0.78533: (Sim:1h58m25s) 
CPU  0 inst:  142000003 cyc:  148976207 now IPC :0.86906: AVG IPC :0.94597: L2-Pf-HR :0.78621: L2-HR :0.76722: (Sim:1h58m29s) 
CPU  3 inst:  139000000 cyc:  149500401 now IPC :0.80676: AVG IPC :0.92243: L2-Pf-HR :0.86711: L2-HR :0.79741: (Sim:1h58m53s) 
CPU  2 inst:  142000003 cyc:  149937665 now IPC :0.96112: AVG IPC :0.93986: L2-Pf-HR :0.82666: L2-HR :0.78539: (Sim:1h59m15s) 
CPU  1 inst:  141000003 cyc:  150055025 now IPC :0.73223: AVG IPC :0.93242: L2-Pf-HR :0.82725: L2-HR :0.78577: (Sim:1h59m20s) 
CPU  0 inst:  143000003 cyc:  150140208 now IPC :0.85911: AVG IPC :0.94529: L2-Pf-HR :0.78596: L2-HR :0.76705: (Sim:1h59m24s) 
CPU  3 inst:  140000004 cyc:  150806686 now IPC :0.76553: AVG IPC :0.92106: L2-Pf-HR :0.86704: L2-HR :0.79725: (Sim:1h59m57s) 
CPU  2 inst:  143000005 cyc:  151017729 now IPC :0.92587: AVG IPC :0.93976: L2-Pf-HR :0.82663: L2-HR :0.78529: (Sim:2h0m7s) 
CPU  1 inst:  142000003 cyc:  151190766 now IPC :0.88048: AVG IPC :0.93202: L2-Pf-HR :0.82712: L2-HR :0.78569: (Sim:2h0m16s) 
CPU  0 inst:  144000004 cyc:  151215476 now IPC :0.93000: AVG IPC :0.94518: L2-Pf-HR :0.78492: L2-HR :0.76680: (Sim:2h0m17s) 
CPU  2 inst:  144000004 cyc:  152087619 now IPC :0.93467: AVG IPC :0.93972: L2-Pf-HR :0.82601: L2-HR :0.78526: (Sim:2h0m59s) 
CPU  3 inst:  141000003 cyc:  152183042 now IPC :0.72656: AVG IPC :0.91929: L2-Pf-HR :0.86660: L2-HR :0.79695: (Sim:2h1m3s) 
CPU  1 inst:  143000003 cyc:  152283466 now IPC :0.91516: AVG IPC :0.93190: L2-Pf-HR :0.82703: L2-HR :0.78561: (Sim:2h1m8s) 
CPU  0 inst:  145000004 cyc:  152466756 now IPC :0.79918: AVG IPC :0.94398: L2-Pf-HR :0.78538: L2-HR :0.76709: (Sim:2h1m17s) 
CPU  1 inst:  144000004 cyc:  153227290 now IPC :1.05952: AVG IPC :0.93269: L2-Pf-HR :0.82652: L2-HR :0.78565: (Sim:2h1m54s) 
CPU  2 inst:  145000004 cyc:  153236992 now IPC :0.87004: AVG IPC :0.93920: L2-Pf-HR :0.82673: L2-HR :0.78566: (Sim:2h1m54s) 
CPU  3 inst:  142000003 cyc:  153405229 now IPC :0.81821: AVG IPC :0.91848: L2-Pf-HR :0.86660: L2-HR :0.79681: (Sim:2h2m2s) 
CPU  0 inst:  146000001 cyc:  153773436 now IPC :0.76530: AVG IPC :0.94245: L2-Pf-HR :0.78521: L2-HR :0.76695: (Sim:2h2m20s) 
CPU  1 inst:  145000004 cyc:  154416359 now IPC :0.84099: AVG IPC :0.93198: L2-Pf-HR :0.82685: L2-HR :0.78591: (Sim:2h2m50s) 
CPU  2 inst:  146000001 cyc:  154421737 now IPC :0.84406: AVG IPC :0.93846: L2-Pf-HR :0.82674: L2-HR :0.78557: (Sim:2h2m50s) 
CPU  3 inst:  143000005 cyc:  154585231 now IPC :0.84746: AVG IPC :0.91794: L2-Pf-HR :0.86646: L2-HR :0.79674: (Sim:2h2m58s) 
CPU  0 inst:  147000001 cyc:  154986527 now IPC :0.82434: AVG IPC :0.94152: L2-Pf-HR :0.78553: L2-HR :0.76702: (Sim:2h3m18s) 
CPU  2 inst:  147000001 cyc:  155564837 now IPC :0.87481: AVG IPC :0.93799: L2-Pf-HR :0.82691: L2-HR :0.78563: (Sim:2h3m46s) 
CPU  1 inst:  146000001 cyc:  155568215 now IPC :0.86816: AVG IPC :0.93151: L2-Pf-HR :0.82665: L2-HR :0.78579: (Sim:2h3m46s) 
CPU  3 inst:  144000004 cyc:  155681216 now IPC :0.91242: AVG IPC :0.91790: L2-Pf-HR :0.86574: L2-HR :0.79655: (Sim:2h3m52s) 
CPU  0 inst:  148000004 cyc:  156113195 now IPC :0.88758: AVG IPC :0.94113: L2-Pf-HR :0.78575: L2-HR :0.76689: (Sim:2h4m13s) 
CPU  1 inst:  147000001 cyc:  156654872 now IPC :0.92025: AVG IPC :0.93143: L2-Pf-HR :0.82692: L2-HR :0.78589: (Sim:2h4m39s) 
CPU  2 inst:  148000004 cyc:  156753107 now IPC :0.84156: AVG IPC :0.93726: L2-Pf-HR :0.82705: L2-HR :0.78550: (Sim:2h4m44s) 
CPU  3 inst:  145000004 cyc:  156811772 now IPC :0.88452: AVG IPC :0.91765: L2-Pf-HR :0.86637: L2-HR :0.79691: (Sim:2h4m47s) 
CPU  0 inst:  149000003 cyc:  157254292 now IPC :0.87635: AVG IPC :0.94065: L2-Pf-HR :0.78572: L2-HR :0.76675: (Sim:2h5m7s) 
CPU  1 inst:  148000004 cyc:  157954652 now IPC :0.76936: AVG IPC :0.93009: L2-Pf-HR :0.82708: L2-HR :0.78577: (Sim:2h5m37s) 
CPU  2 inst:  149000003 cyc:  158118410 now IPC :0.73244: AVG IPC :0.93548: L2-Pf-HR :0.82726: L2-HR :0.78541: (Sim:2h5m45s) 
CPU  3 inst:  146000001 cyc:  158149410 now IPC :0.74758: AVG IPC :0.91621: L2-Pf-HR :0.86639: L2-HR :0.79682: (Sim:2h5m46s) 
CPU  0 inst:  150000004 cyc:  158509940 now IPC :0.79640: AVG IPC :0.93950: L2-Pf-HR :0.78512: L2-HR :0.76670: (Sim:2h6m4s) 
CPU  1 inst:  149000003 cyc:  159179191 now IPC :0.81663: AVG IPC :0.92921: L2-Pf-HR :0.82705: L2-HR :0.78565: (Sim:2h6m33s) 
CPU  2 inst:  150000005 cyc:  159295067 now IPC :0.84987: AVG IPC :0.93484: L2-Pf-HR :0.82668: L2-HR :0.78531: (Sim:2h6m39s) 
CPU  3 inst:  147000001 cyc:  159364977 now IPC :0.82266: AVG IPC :0.91549: L2-Pf-HR :0.86658: L2-HR :0.79689: (Sim:2h6m43s) 
CPU  0 inst:  151000002 cyc:  159842951 now IPC :0.75018: AVG IPC :0.93792: L2-Pf-HR :0.78535: L2-HR :0.76683: (Sim:2h7m4s) 
CPU  1 inst:  150000005 cyc:  160241768 now IPC :0.94111: AVG IPC :0.92929: L2-Pf-HR :0.82655: L2-HR :0.78569: (Sim:2h7m24s) 
CPU  2 inst:  151000002 cyc:  160492590 now IPC :0.83505: AVG IPC :0.93409: L2-Pf-HR :0.82697: L2-HR :0.78542: (Sim:2h7m36s) 
CPU  3 inst:  148000004 cyc:  160588942 now IPC :0.81702: AVG IPC :0.91473: L2-Pf-HR :0.86676: L2-HR :0.79684: (Sim:2h7m42s) 
CPU  0 inst:  152000000 cyc:  160945457 now IPC :0.90702: AVG IPC :0.93770: L2-Pf-HR :0.78577: L2-HR :0.76694: (Sim:2h7m58s) 
CPU  1 inst:  151000002 cyc:  161417822 now IPC :0.85030: AVG IPC :0.92871: L2-Pf-HR :0.82662: L2-HR :0.78570: (Sim:2h8m20s) 
CPU  2 inst:  152000000 cyc:  161755191 now IPC :0.79201: AVG IPC :0.93297: L2-Pf-HR :0.82730: L2-HR :0.78544: (Sim:2h8m35s) 
CPU  3 inst:  149000003 cyc:  161849114 now IPC :0.79354: AVG IPC :0.91378: L2-Pf-HR :0.86689: L2-HR :0.79679: (Sim:2h8m39s) 
CPU  0 inst:  153000001 cyc:  162124325 now IPC :0.84827: AVG IPC :0.93705: L2-Pf-HR :0.78612: L2-HR :0.76711: (Sim:2h8m52s) 
CPU  1 inst:  152000000 cyc:  162889018 now IPC :0.67972: AVG IPC :0.92645: L2-Pf-HR :0.82671: L2-HR :0.78566: (Sim:2h9m24s) 
CPU  3 inst:  150000005 cyc:  163161598 now IPC :0.76192: AVG IPC :0.91256: L2-Pf-HR :0.86631: L2-HR :0.79667: (Sim:2h9m37s) 
CPU  2 inst:  153000001 cyc:  163215865 now IPC :0.68462: AVG IPC :0.93074: L2-Pf-HR :0.82711: L2-HR :0.78533: (Sim:2h9m39s) 
CPU  0 inst:  154000001 cyc:  163335606 now IPC :0.82557: AVG IPC :0.93622: L2-Pf-HR :0.78602: L2-HR :0.76716: (Sim:2h9m45s) 
CPU  1 inst:  153000001 cyc:  164170869 now IPC :0.78012: AVG IPC :0.92530: L2-Pf-HR :0.82651: L2-HR :0.78555: (Sim:2h10m22s) 
CPU  2 inst:  154000001 cyc:  164489155 now IPC :0.78537: AVG IPC :0.92961: L2-Pf-HR :0.82712: L2-HR :0.78537: (Sim:2h10m36s) 
CPU  3 inst:  151000002 cyc:  164507341 now IPC :0.74308: AVG IPC :0.91116: L2-Pf-HR :0.86673: L2-HR :0.79690: (Sim:2h10m37s) 
CPU  0 inst:  155000001 cyc:  164715886 now IPC :0.72449: AVG IPC :0.93443: L2-Pf-HR :0.78613: L2-HR :0.76707: (Sim:2h10m46s) 
CPU  1 inst:  154000001 cyc:  165566025 now IPC :0.71677: AVG IPC :0.92353: L2-Pf-HR :0.82651: L2-HR :0.78557: (Sim:2h11m22s) 
CPU  0 inst:  156000001 cyc:  165789572 now IPC :0.93137: AVG IPC :0.93441: L2-Pf-HR :0.78510: L2-HR :0.76680: (Sim:2h11m33s) 
CPU  2 inst:  155000001 cyc:  165870849 now IPC :0.72375: AVG IPC :0.92788: L2-Pf-HR :0.82734: L2-HR :0.78538: (Sim:2h11m38s) 
CPU  3 inst:  152000000 cyc:  165934069 now IPC :0.70090: AVG IPC :0.90934: L2-Pf-HR :0.86701: L2-HR :0.79694: (Sim:2h11m41s) 
CPU  0 inst:  157000001 cyc:  166759464 now IPC :1.03104: AVG IPC :0.93498: L2-Pf-HR :0.78566: L2-HR :0.76720: (Sim:2h12m19s) 
CPU  1 inst:  155000001 cyc:  166923662 now IPC :0.73657: AVG IPC :0.92200: L2-Pf-HR :0.82677: L2-HR :0.78555: (Sim:2h12m27s) 
[...]
CPU  2 inst:  755000003 cyc: 1747566252 now IPC :0.27987: AVG IPC :0.43113: L2-Pf-HR :0.55147: L2-HR :0.61965: (Sim:15h59m50s) 
CPU  1 inst:  755000003 cyc: 1749472392 now IPC :0.28765: AVG IPC :0.43066: L2-Pf-HR :0.54837: L2-HR :0.61934: (Sim:16h0m49s) 
CPU  3 inst:  750000003 cyc: 1749587755 now IPC :0.28427: AVG IPC :0.42777: L2-Pf-HR :0.59755: L2-HR :0.63257: (Sim:16h0m53s) 
CPU  0 inst:  758000001 cyc: 1749587992 now IPC :0.28559: AVG IPC :0.43234: L2-Pf-HR :0.50284: L2-HR :0.60436: (Sim:16h0m53s) 
CPU  2 inst:  756000003 cyc: 1751052731 now IPC :0.28682: AVG IPC :0.43084: L2-Pf-HR :0.55088: L2-HR :0.61933: (Sim:16h1m41s) 
CPU  1 inst:  756000003 cyc: 1752948611 now IPC :0.28767: AVG IPC :0.43037: L2-Pf-HR :0.54779: L2-HR :0.61902: (Sim:16h2m43s) 
CPU  3 inst:  751000002 cyc: 1753060515 now IPC :0.28796: AVG IPC :0.42749: L2-Pf-HR :0.59695: L2-HR :0.63224: (Sim:16h2m47s) 
CPU  0 inst:  759000003 cyc: 1753073084 now IPC :0.28694: AVG IPC :0.43205: L2-Pf-HR :0.50229: L2-HR :0.60406: (Sim:16h2m47s) 
CPU  2 inst:  757000003 cyc: 1754534771 now IPC :0.28719: AVG IPC :0.43055: L2-Pf-HR :0.55030: L2-HR :0.61901: (Sim:16h3m34s) 
CPU  1 inst:  757000003 cyc: 1756455591 now IPC :0.28515: AVG IPC :0.43008: L2-Pf-HR :0.54720: L2-HR :0.61869: (Sim:16h4m33s) 
CPU  3 inst:  752000002 cyc: 1756529220 now IPC :0.28829: AVG IPC :0.42722: L2-Pf-HR :0.59635: L2-HR :0.63190: (Sim:16h4m34s) 
CPU  0 inst:  760000003 cyc: 1756557216 now IPC :0.28702: AVG IPC :0.43177: L2-Pf-HR :0.50173: L2-HR :0.60374: (Sim:16h4m34s) 
CPU  2 inst:  758000001 cyc: 1758059423 now IPC :0.28372: AVG IPC :0.43026: L2-Pf-HR :0.54973: L2-HR :0.61868: (Sim:16h5m1s) 
CPU  1 inst:  758000001 cyc: 1760017978 now IPC :0.28071: AVG IPC :0.42978: L2-Pf-HR :0.54663: L2-HR :0.61838: (Sim:16h5m35s) 
CPU  3 inst:  753000002 cyc: 1760030146 now IPC :0.28564: AVG IPC :0.42693: L2-Pf-HR :0.59576: L2-HR :0.63157: (Sim:16h5m35s) 
CPU  0 inst:  761000003 cyc: 1760108381 now IPC :0.28160: AVG IPC :0.43146: L2-Pf-HR :0.50117: L2-HR :0.60344: (Sim:16h5m36s) 
CPU  2 inst:  759000003 cyc: 1761626416 now IPC :0.28035: AVG IPC :0.42996: L2-Pf-HR :0.54915: L2-HR :0.61837: (Sim:16h6m3s) 
CPU  1 inst:  759000003 cyc: 1763612805 now IPC :0.27818: AVG IPC :0.42947: L2-Pf-HR :0.54606: L2-HR :0.61806: (Sim:16h6m37s) 
CPU  3 inst:  754000001 cyc: 1763619779 now IPC :0.27858: AVG IPC :0.42663: L2-Pf-HR :0.59518: L2-HR :0.63125: (Sim:16h6m37s) 
CPU  0 inst:  762000002 cyc: 1763723810 now IPC :0.27659: AVG IPC :0.43115: L2-Pf-HR :0.50061: L2-HR :0.60314: (Sim:16h6m39s) 
CPU  2 inst:  760000003 cyc: 1765345806 now IPC :0.26886: AVG IPC :0.42962: L2-Pf-HR :0.54858: L2-HR :0.61804: (Sim:16h7m6s) 
CPU  3 inst:  755000003 cyc: 1767234500 now IPC :0.27665: AVG IPC :0.42633: L2-Pf-HR :0.59460: L2-HR :0.63093: (Sim:16h7m39s) 
CPU  1 inst:  760000003 cyc: 1767243752 now IPC :0.27541: AVG IPC :0.42915: L2-Pf-HR :0.54548: L2-HR :0.61774: (Sim:16h7m39s) 
CPU  0 inst:  763000001 cyc: 1767341066 now IPC :0.27645: AVG IPC :0.43083: L2-Pf-HR :0.50006: L2-HR :0.60283: (Sim:16h7m41s) 
CPU  2 inst:  761000003 cyc: 1768871048 now IPC :0.28367: AVG IPC :0.42932: L2-Pf-HR :0.54800: L2-HR :0.61773: (Sim:16h8m8s) 
CPU  1 inst:  761000003 cyc: 1770760466 now IPC :0.28436: AVG IPC :0.42887: L2-Pf-HR :0.54490: L2-HR :0.61742: (Sim:16h8m41s) 
CPU  3 inst:  756000003 cyc: 1770761962 now IPC :0.28349: AVG IPC :0.42604: L2-Pf-HR :0.59400: L2-HR :0.63060: (Sim:16h8m41s) 
CPU  0 inst:  764000001 cyc: 1770893732 now IPC :0.28148: AVG IPC :0.43053: L2-Pf-HR :0.49951: L2-HR :0.60252: (Sim:16h8m43s) 
CPU  2 inst:  762000002 cyc: 1772385880 now IPC :0.28451: AVG IPC :0.42904: L2-Pf-HR :0.54743: L2-HR :0.61741: (Sim:16h9m10s) 
CPU  1 inst:  762000002 cyc: 1774250066 now IPC :0.28657: AVG IPC :0.42859: L2-Pf-HR :0.54433: L2-HR :0.61711: (Sim:16h9m43s) 
CPU  3 inst:  757000003 cyc: 1774250948 now IPC :0.28662: AVG IPC :0.42577: L2-Pf-HR :0.59340: L2-HR :0.63028: (Sim:16h9m43s) 
CPU  0 inst:  765000001 cyc: 1774389489 now IPC :0.28606: AVG IPC :0.43024: L2-Pf-HR :0.49896: L2-HR :0.60222: (Sim:16h9m45s) 
CPU  2 inst:  763000001 cyc: 1775928217 now IPC :0.28230: AVG IPC :0.42874: L2-Pf-HR :0.54686: L2-HR :0.61709: (Sim:16h10m21s) 
CPU  3 inst:  758000001 cyc: 1777833199 now IPC :0.27915: AVG IPC :0.42547: L2-Pf-HR :0.59282: L2-HR :0.62995: (Sim:16h11m23s) 
CPU  1 inst:  763000001 cyc: 1777896791 now IPC :0.27422: AVG IPC :0.42827: L2-Pf-HR :0.54376: L2-HR :0.61678: (Sim:16h11m25s) 
CPU  0 inst:  766000001 cyc: 1778032778 now IPC :0.27448: AVG IPC :0.42993: L2-Pf-HR :0.49842: L2-HR :0.60191: (Sim:16h11m30s) 
CPU  2 inst:  764000001 cyc: 1779547204 now IPC :0.27632: AVG IPC :0.42843: L2-Pf-HR :0.54629: L2-HR :0.61677: (Sim:16h12m14s) 
CPU  3 inst:  759000003 cyc: 1781383923 now IPC :0.28163: AVG IPC :0.42518: L2-Pf-HR :0.59224: L2-HR :0.62963: (Sim:16h13m15s) 
CPU  1 inst:  764000001 cyc: 1781423073 now IPC :0.28358: AVG IPC :0.42798: L2-Pf-HR :0.54318: L2-HR :0.61647: (Sim:16h13m16s) 
CPU  0 inst:  767000003 cyc: 1781579234 now IPC :0.28197: AVG IPC :0.42963: L2-Pf-HR :0.49787: L2-HR :0.60161: (Sim:16h13m22s) 
CPU  2 inst:  765000001 cyc: 1783054460 now IPC :0.28512: AVG IPC :0.42815: L2-Pf-HR :0.54571: L2-HR :0.61646: (Sim:16h14m11s) 
CPU  3 inst:  760000003 cyc: 1784936434 now IPC :0.28149: AVG IPC :0.42490: L2-Pf-HR :0.59166: L2-HR :0.62931: (Sim:16h15m13s) 
CPU  1 inst:  765000001 cyc: 1784981874 now IPC :0.28099: AVG IPC :0.42769: L2-Pf-HR :0.54261: L2-HR :0.61615: (Sim:16h15m14s) 
CPU  0 inst:  768000000 cyc: 1785121227 now IPC :0.28233: AVG IPC :0.42934: L2-Pf-HR :0.49733: L2-HR :0.60130: (Sim:16h15m19s) 
CPU  2 inst:  766000001 cyc: 1786680757 now IPC :0.27576: AVG IPC :0.42784: L2-Pf-HR :0.54514: L2-HR :0.61615: (Sim:16h16m10s) 
CPU  3 inst:  761000003 cyc: 1788452110 now IPC :0.28444: AVG IPC :0.42462: L2-Pf-HR :0.59107: L2-HR :0.62899: (Sim:16h17m7s) 
CPU  1 inst:  766000001 cyc: 1788547564 now IPC :0.28045: AVG IPC :0.42740: L2-Pf-HR :0.54205: L2-HR :0.61584: (Sim:16h17m11s) 
CPU  0 inst:  769000000 cyc: 1788656019 now IPC :0.28290: AVG IPC :0.42905: L2-Pf-HR :0.49678: L2-HR :0.60101: (Sim:16h17m14s) 
CPU  2 inst:  767000003 cyc: 1790176976 now IPC :0.28602: AVG IPC :0.42757: L2-Pf-HR :0.54458: L2-HR :0.61584: (Sim:16h18m4s) 
CPU  3 inst:  762000002 cyc: 1791973718 now IPC :0.28396: AVG IPC :0.42435: L2-Pf-HR :0.59050: L2-HR :0.62866: (Sim:16h19m2s) 
CPU  1 inst:  767000003 cyc: 1792096587 now IPC :0.28177: AVG IPC :0.42711: L2-Pf-HR :0.54148: L2-HR :0.61552: (Sim:16h19m6s) 
CPU  0 inst:  770000000 cyc: 1792169865 now IPC :0.28459: AVG IPC :0.42877: L2-Pf-HR :0.49624: L2-HR :0.60070: (Sim:16h19m8s) 
CPU  2 inst:  768000000 cyc: 1793815123 now IPC :0.27486: AVG IPC :0.42726: L2-Pf-HR :0.54401: L2-HR :0.61552: (Sim:16h20m1s) 
CPU  3 inst:  763000001 cyc: 1795557708 now IPC :0.27902: AVG IPC :0.42405: L2-Pf-HR :0.58992: L2-HR :0.62835: (Sim:16h20m57s) 
CPU  1 inst:  768000000 cyc: 1795748624 now IPC :0.27382: AVG IPC :0.42680: L2-Pf-HR :0.54092: L2-HR :0.61521: (Sim:16h21m4s) 
CPU  0 inst:  771000001 cyc: 1795784292 now IPC :0.27667: AVG IPC :0.42846: L2-Pf-HR :0.49571: L2-HR :0.60040: (Sim:16h21m5s) 
CPU  2 inst:  769000000 cyc: 1797383228 now IPC :0.28026: AVG IPC :0.42696: L2-Pf-HR :0.54344: L2-HR :0.61521: (Sim:16h21m54s) 
CPU  3 inst:  764000001 cyc: 1799122332 now IPC :0.28053: AVG IPC :0.42377: L2-Pf-HR :0.58935: L2-HR :0.62803: (Sim:16h22m51s) 
CPU  1 inst:  769000000 cyc: 1799345696 now IPC :0.27800: AVG IPC :0.42650: L2-Pf-HR :0.54035: L2-HR :0.61490: (Sim:16h22m58s) 
CPU  0 inst:  772000000 cyc: 1799363348 now IPC :0.27940: AVG IPC :0.42816: L2-Pf-HR :0.49517: L2-HR :0.60010: (Sim:16h22m59s) 
CPU  2 inst:  770000000 cyc: 1800921610 now IPC :0.28262: AVG IPC :0.42668: L2-Pf-HR :0.54288: L2-HR :0.61490: (Sim:16h23m51s) 
CPU  3 inst:  765000001 cyc: 1802549842 now IPC :0.29176: AVG IPC :0.42352: L2-Pf-HR :0.58876: L2-HR :0.62771: (Sim:16h24m28s) 
CPU  1 inst:  770000000 cyc: 1802817187 now IPC :0.28806: AVG IPC :0.42623: L2-Pf-HR :0.53978: L2-HR :0.61459: (Sim:16h24m34s) 
CPU  0 inst:  773000000 cyc: 1802835609 now IPC :0.28800: AVG IPC :0.42789: L2-Pf-HR :0.49461: L2-HR :0.59979: (Sim:16h24m35s) 
CPU  2 inst:  771000001 cyc: 1804412553 now IPC :0.28646: AVG IPC :0.42641: L2-Pf-HR :0.54232: L2-HR :0.61459: (Sim:16h25m23s) 
CPU  3 inst:  766000001 cyc: 1806001477 now IPC :0.28972: AVG IPC :0.42326: L2-Pf-HR :0.58817: L2-HR :0.62739: (Sim:16h26m16s) 
CPU  1 inst:  771000001 cyc: 1806327174 now IPC :0.28490: AVG IPC :0.42596: L2-Pf-HR :0.53922: L2-HR :0.61428: (Sim:16h26m27s) 
CPU  0 inst:  774000000 cyc: 1806392580 now IPC :0.28114: AVG IPC :0.42760: L2-Pf-HR :0.49406: L2-HR :0.59950: (Sim:16h26m29s) 
CPU  2 inst:  772000000 cyc: 1807986576 now IPC :0.27980: AVG IPC :0.42612: L2-Pf-HR :0.54175: L2-HR :0.61428: (Sim:16h27m21s) 
CPU  3 inst:  767000003 cyc: 1809590249 now IPC :0.27865: AVG IPC :0.42298: L2-Pf-HR :0.58761: L2-HR :0.62707: (Sim:16h27m57s) 
CPU  1 inst:  772000000 cyc: 1809971770 now IPC :0.27438: AVG IPC :0.42565: L2-Pf-HR :0.53866: L2-HR :0.61396: (Sim:16h28m5s) 
CPU  0 inst:  775000002 cyc: 1809986027 now IPC :0.27828: AVG IPC :0.42731: L2-Pf-HR :0.49352: L2-HR :0.59919: (Sim:16h28m6s) 
CPU  2 inst:  773000000 cyc: 1811665368 now IPC :0.27183: AVG IPC :0.42581: L2-Pf-HR :0.54119: L2-HR :0.61397: (Sim:16h28m42s) 
CPU  3 inst:  768000000 cyc: 1813234776 now IPC :0.27438: AVG IPC :0.42268: L2-Pf-HR :0.58704: L2-HR :0.62675: (Sim:16h29m9s) 
CPU  0 inst:  776000000 cyc: 1813596552 now IPC :0.27697: AVG IPC :0.42701: L2-Pf-HR :0.49300: L2-HR :0.59890: (Sim:16h29m15s) 
CPU  1 inst:  773000000 cyc: 1813628478 now IPC :0.27347: AVG IPC :0.42534: L2-Pf-HR :0.53810: L2-HR :0.61366: (Sim:16h29m16s) 
CPU  2 inst:  774000000 cyc: 1815286219 now IPC :0.27618: AVG IPC :0.42551: L2-Pf-HR :0.54063: L2-HR :0.61366: (Sim:16h29m45s) 
CPU  3 inst:  769000000 cyc: 1816847906 now IPC :0.27677: AVG IPC :0.42239: L2-Pf-HR :0.58647: L2-HR :0.62644: (Sim:16h30m12s) 
CPU  0 inst:  777000000 cyc: 1817187402 now IPC :0.27849: AVG IPC :0.42671: L2-Pf-HR :0.49246: L2-HR :0.59861: (Sim:16h30m18s) 
CPU  1 inst:  774000000 cyc: 1817231910 now IPC :0.27751: AVG IPC :0.42505: L2-Pf-HR :0.53754: L2-HR :0.61335: (Sim:16h30m19s) 
CPU  2 inst:  775000002 cyc: 1818866820 now IPC :0.27928: AVG IPC :0.42522: L2-Pf-HR :0.54009: L2-HR :0.61336: (Sim:16h30m48s) 
CPU  3 inst:  770000000 cyc: 1820316456 now IPC :0.28830: AVG IPC :0.42213: L2-Pf-HR :0.58589: L2-HR :0.62612: (Sim:16h31m29s) 
CPU  0 inst:  778000000 cyc: 1820653739 now IPC :0.28849: AVG IPC :0.42645: L2-Pf-HR :0.49193: L2-HR :0.59831: (Sim:16h31m40s) 
CPU  1 inst:  775000002 cyc: 1820694736 now IPC :0.28878: AVG IPC :0.42479: L2-Pf-HR :0.53698: L2-HR :0.61304: (Sim:16h31m41s) 
CPU  2 inst:  776000000 cyc: 1822333292 now IPC :0.28848: AVG IPC :0.42496: L2-Pf-HR :0.53953: L2-HR :0.61305: (Sim:16h32m32s) 
CPU  3 inst:  771000001 cyc: 1823883105 now IPC :0.28038: AVG IPC :0.42185: L2-Pf-HR :0.58533: L2-HR :0.62581: (Sim:16h33m5s) 
CPU  0 inst:  779000000 cyc: 1824238889 now IPC :0.27893: AVG IPC :0.42616: L2-Pf-HR :0.49140: L2-HR :0.59802: (Sim:16h33m17s) 
CPU  1 inst:  776000000 cyc: 1824304211 now IPC :0.27705: AVG IPC :0.42450: L2-Pf-HR :0.53643: L2-HR :0.61273: (Sim:16h33m19s) 
CPU  2 inst:  777000000 cyc: 1825925826 now IPC :0.27836: AVG IPC :0.42467: L2-Pf-HR :0.53897: L2-HR :0.61274: (Sim:16h34m12s) 
CPU  3 inst:  772000000 cyc: 1827365600 now IPC :0.28715: AVG IPC :0.42160: L2-Pf-HR :0.58475: L2-HR :0.62550: (Sim:16h35m0s) 
CPU  0 inst:  780000003 cyc: 1827712499 now IPC :0.28789: AVG IPC :0.42590: L2-Pf-HR :0.49087: L2-HR :0.59773: (Sim:16h35m11s) 
CPU  1 inst:  777000000 cyc: 1827757643 now IPC :0.28957: AVG IPC :0.42424: L2-Pf-HR :0.53587: L2-HR :0.61243: (Sim:16h35m13s) 
CPU  2 inst:  778000000 cyc: 1829409015 now IPC :0.28709: AVG IPC :0.42441: L2-Pf-HR :0.53841: L2-HR :0.61243: (Sim:16h36m7s) 
CPU  3 inst:  773000000 cyc: 1830840486 now IPC :0.28778: AVG IPC :0.42134: L2-Pf-HR :0.58417: L2-HR :0.62518: (Sim:16h36m54s) 
CPU  0 inst:  781000001 cyc: 1831226974 now IPC :0.28454: AVG IPC :0.42563: L2-Pf-HR :0.49035: L2-HR :0.59743: (Sim:16h37m6s) 
CPU  1 inst:  778000000 cyc: 1831269984 now IPC :0.28471: AVG IPC :0.42398: L2-Pf-HR :0.53531: L2-HR :0.61212: (Sim:16h37m8s) 
CPU  2 inst:  779000000 cyc: 1832946229 now IPC :0.28271: AVG IPC :0.42413: L2-Pf-HR :0.53786: L2-HR :0.61213: (Sim:16h38m3s) 
CPU  3 inst:  774000000 cyc: 1834348887 now IPC :0.28503: AVG IPC :0.42108: L2-Pf-HR :0.58360: L2-HR :0.62487: (Sim:16h38m44s) 
CPU  0 inst:  782000001 cyc: 1834773026 now IPC :0.28200: AVG IPC :0.42535: L2-Pf-HR :0.48984: L2-HR :0.59714: (Sim:16h38m58s) 
CPU  1 inst:  779000000 cyc: 1834792684 now IPC :0.28387: AVG IPC :0.42371: L2-Pf-HR :0.53476: L2-HR :0.61182: (Sim:16h38m59s) 
CPU  2 inst:  780000003 cyc: 1836610855 now IPC :0.27288: AVG IPC :0.42383: L2-Pf-HR :0.53732: L2-HR :0.61183: (Sim:16h39m57s) 
CPU  3 inst:  775000002 cyc: 1837937939 now IPC :0.27863: AVG IPC :0.42080: L2-Pf-HR :0.58304: L2-HR :0.62456: (Sim:16h40m41s) 
CPU  0 inst:  783000001 cyc: 1838354319 now IPC :0.27923: AVG IPC :0.42506: L2-Pf-HR :0.48933: L2-HR :0.59685: (Sim:16h40m54s) 
CPU  1 inst:  780000003 cyc: 1838391771 now IPC :0.27785: AVG IPC :0.42342: L2-Pf-HR :0.53421: L2-HR :0.61151: (Sim:16h40m55s) 
CPU  2 inst:  781000001 cyc: 1840154472 now IPC :0.28220: AVG IPC :0.42356: L2-Pf-HR :0.53677: L2-HR :0.61152: (Sim:16h41m50s) 
CPU  3 inst:  776000000 cyc: 1841514217 now IPC :0.27962: AVG IPC :0.42053: L2-Pf-HR :0.58249: L2-HR :0.62425: (Sim:16h42m14s) 
CPU  0 inst:  784000001 cyc: 1841913395 now IPC :0.28097: AVG IPC :0.42478: L2-Pf-HR :0.48883: L2-HR :0.59657: (Sim:16h42m23s) 
CPU  1 inst:  781000001 cyc: 1841990306 now IPC :0.27789: AVG IPC :0.42314: L2-Pf-HR :0.53365: L2-HR :0.61121: (Sim:16h42m24s) 
CPU  2 inst:  782000001 cyc: 1843732712 now IPC :0.27947: AVG IPC :0.42328: L2-Pf-HR :0.53622: L2-HR :0.61122: (Sim:16h42m57s) 
CPU  3 inst:  777000000 cyc: 1845072635 now IPC :0.28102: AVG IPC :0.42026: L2-Pf-HR :0.58192: L2-HR :0.62394: (Sim:16h43m28s) 
CPU  1 inst:  782000001 cyc: 1845504685 now IPC :0.28455: AVG IPC :0.42287: L2-Pf-HR :0.53310: L2-HR :0.61090: (Sim:16h43m42s) 
CPU  0 inst:  785000001 cyc: 1845538480 now IPC :0.27586: AVG IPC :0.42449: L2-Pf-HR :0.48832: L2-HR :0.59627: (Sim:16h43m43s) 
CPU  0 inst:  786000000 cyc: 1846458136 now IPC :1.08736: AVG IPC :0.42482: L2-Pf-HR :0.48889: L2-HR :0.59644: (Sim:16h44m19s) 
CPU  0 inst:  787000005 cyc: 1847268431 now IPC :1.23412: AVG IPC :0.42518: L2-Pf-HR :0.48939: L2-HR :0.59663: (Sim:16h44m38s) 
CPU  2 inst:  783000001 cyc: 1847334347 now IPC :0.27765: AVG IPC :0.42300: L2-Pf-HR :0.53568: L2-HR :0.61091: (Sim:16h44m40s) 
CPU  0 inst:  788000001 cyc: 1848066980 now IPC :1.25227: AVG IPC :0.42553: L2-Pf-HR :0.48992: L2-HR :0.59685: (Sim:16h44m58s) 
CPU  3 inst:  778000000 cyc: 1848674331 now IPC :0.27765: AVG IPC :0.41998: L2-Pf-HR :0.58137: L2-HR :0.62363: (Sim:16h45m19s) 
CPU  0 inst:  789000004 cyc: 1848833183 now IPC :1.30514: AVG IPC :0.42590: L2-Pf-HR :0.49048: L2-HR :0.59710: (Sim:16h45m23s) 
CPU  1 inst:  783000001 cyc: 1849175039 now IPC :0.27245: AVG IPC :0.42257: L2-Pf-HR :0.53256: L2-HR :0.61060: (Sim:16h45m32s) 
CPU  0 inst:  790000000 cyc: 1849584594 now IPC :1.33082: AVG IPC :0.42627: L2-Pf-HR :0.49107: L2-HR :0.59736: (Sim:16h45m42s) 
CPU  0 inst:  791000000 cyc: 1850342108 now IPC :1.32011: AVG IPC :0.42663: L2-Pf-HR :0.49167: L2-HR :0.59761: (Sim:16h46m9s) 
CPU  2 inst:  784000001 cyc: 1850958719 now IPC :0.27591: AVG IPC :0.42271: L2-Pf-HR :0.53513: L2-HR :0.61061: (Sim:16h46m37s) 
CPU  0 inst:  792000003 cyc: 1851085300 now IPC :1.34555: AVG IPC :0.42700: L2-Pf-HR :0.49224: L2-HR :0.59786: (Sim:16h46m43s) 
CPU  0 inst:  793000005 cyc: 1851813566 now IPC :1.37313: AVG IPC :0.42738: L2-Pf-HR :0.49283: L2-HR :0.59811: (Sim:16h47m16s) 
CPU  3 inst:  779000000 cyc: 1852268107 now IPC :0.27826: AVG IPC :0.41971: L2-Pf-HR :0.58081: L2-HR :0.62332: (Sim:16h47m32s) 
CPU  0 inst:  794000000 cyc: 1852687359 now IPC :1.14443: AVG IPC :0.42771: L2-Pf-HR :0.49341: L2-HR :0.59834: (Sim:16h47m42s) 
CPU  1 inst:  784000001 cyc: 1852764736 now IPC :0.27858: AVG IPC :0.42230: L2-Pf-HR :0.53202: L2-HR :0.61030: (Sim:16h47m44s) 
CPU  0 inst:  795000000 cyc: 1853422500 now IPC :1.36028: AVG IPC :0.42808: L2-Pf-HR :0.49407: L2-HR :0.59861: (Sim:16h48m7s) 
CPU  0 inst:  796000003 cyc: 1854166273 now IPC :1.34450: AVG IPC :0.42845: L2-Pf-HR :0.49468: L2-HR :0.59888: (Sim:16h48m34s) 
CPU  2 inst:  785000001 cyc: 1854611413 now IPC :0.27377: AVG IPC :0.42241: L2-Pf-HR :0.53458: L2-HR :0.61030: (Sim:16h48m53s) 
CPU  0 inst:  797000005 cyc: 1854931129 now IPC :1.30744: AVG IPC :0.42881: L2-Pf-HR :0.49528: L2-HR :0.59915: (Sim:16h49m9s) 
CPU  2 inst:  786000000 cyc: 1855623473 now IPC :0.98808: AVG IPC :0.42272: L2-Pf-HR :0.53499: L2-HR :0.61045: (Sim:16h49m47s) 
CPU  0 inst:  798000002 cyc: 1855719328 now IPC :1.26871: AVG IPC :0.42917: L2-Pf-HR :0.49593: L2-HR :0.59945: (Sim:16h49m52s) 
CPU  3 inst:  780000003 cyc: 1855852814 now IPC :0.27896: AVG IPC :0.41944: L2-Pf-HR :0.58026: L2-HR :0.62301: (Sim:16h49m58s) 
CPU  1 inst:  785000001 cyc: 1856392006 now IPC :0.27569: AVG IPC :0.42201: L2-Pf-HR :0.53147: L2-HR :0.60998: (Sim:16h50m29s) 
CPU  2 inst:  787000005 cyc: 1856453963 now IPC :1.20411: AVG IPC :0.42307: L2-Pf-HR :0.53537: L2-HR :0.61063: (Sim:16h50m31s) 
CPU  0 inst:  799000002 cyc: 1856504568 now IPC :1.27350: AVG IPC :0.42953: L2-Pf-HR :0.49656: L2-HR :0.59972: (Sim:16h50m34s) 
CPU  2 inst:  788000001 cyc: 1857239098 now IPC :1.27366: AVG IPC :0.42343: L2-Pf-HR :0.53579: L2-HR :0.61085: (Sim:16h51m21s) 
CPU  0 inst:  800000001 cyc: 1857283175 now IPC :1.28434: AVG IPC :0.42989: L2-Pf-HR :0.49720: L2-HR :0.60000: (Sim:16h51m23s) 
CPU  1 inst:  786000000 cyc: 1857360475 now IPC :1.03256: AVG IPC :0.42233: L2-Pf-HR :0.53190: L2-HR :0.61013: (Sim:16h51m26s) 
CPU  2 inst:  789000004 cyc: 1857966448 now IPC :1.37486: AVG IPC :0.42380: L2-Pf-HR :0.53622: L2-HR :0.61107: (Sim:16h52m8s) 
CPU  0 inst:  801000000 cyc: 1858006170 now IPC :1.38313: AVG IPC :0.43026: L2-Pf-HR :0.49781: L2-HR :0.60028: (Sim:16h52m11s) 
CPU  1 inst:  787000005 cyc: 1858126032 now IPC :1.30624: AVG IPC :0.42269: L2-Pf-HR :0.53227: L2-HR :0.61031: (Sim:16h52m20s) 
CPU  2 inst:  790000000 cyc: 1858658235 now IPC :1.44553: AVG IPC :0.42418: L2-Pf-HR :0.53667: L2-HR :0.61131: (Sim:16h52m57s) 
CPU  0 inst:  802000000 cyc: 1858775311 now IPC :1.30015: AVG IPC :0.43062: L2-Pf-HR :0.49839: L2-HR :0.60052: (Sim:16h53m5s) 
CPU  1 inst:  788000001 cyc: 1858811548 now IPC :1.45875: AVG IPC :0.42307: L2-Pf-HR :0.53270: L2-HR :0.61052: (Sim:16h53m8s) 
CPU  2 inst:  791000000 cyc: 1859336711 now IPC :1.47389: AVG IPC :0.42457: L2-Pf-HR :0.53714: L2-HR :0.61156: (Sim:16h53m48s) 
CPU  3 inst:  781000001 cyc: 1859410127 now IPC :0.28111: AVG IPC :0.41917: L2-Pf-HR :0.57970: L2-HR :0.62270: (Sim:16h53m53s) 
CPU  0 inst:  803000001 cyc: 1859428496 now IPC :1.53096: AVG IPC :0.43100: L2-Pf-HR :0.49903: L2-HR :0.60078: (Sim:16h53m54s) 
CPU  1 inst:  789000004 cyc: 1859518151 now IPC :1.41523: AVG IPC :0.42345: L2-Pf-HR :0.53315: L2-HR :0.61075: (Sim:16h54m0s) 
CPU  2 inst:  792000001 cyc: 1860026897 now IPC :1.44889: AVG IPC :0.42495: L2-Pf-HR :0.53761: L2-HR :0.61181: (Sim:16h54m38s) 
CPU  0 inst:  804000000 cyc: 1860105419 now IPC :1.47727: AVG IPC :0.43139: L2-Pf-HR :0.49965: L2-HR :0.60102: (Sim:16h54m44s) 
CPU  1 inst:  790000000 cyc: 1860165542 now IPC :1.54466: AVG IPC :0.42384: L2-Pf-HR :0.53363: L2-HR :0.61099: (Sim:16h54m49s) 
CPU  2 inst:  793000005 cyc: 1860671950 now IPC :1.55027: AVG IPC :0.42534: L2-Pf-HR :0.53810: L2-HR :0.61206: (Sim:16h55m27s) 
CPU  0 inst:  805000001 cyc: 1860776982 now IPC :1.48907: AVG IPC :0.43177: L2-Pf-HR :0.50022: L2-HR :0.60127: (Sim:16h55m35s) 
Caught signal: 2
     > Finished combination: TraceType=770-tot Sim:1314000000 Prefetcher=L2bingo_dpc3 L1=bingo_dpc3
