TRACE: [1979000000]_FE_[GPT-Neo-125M]_[h12]_[s2048]_[d64] Warmup: 2000000 NumTraces: 1979000000
L1:ipcp:L2:ipcp
*************************************************
   ChampSim Multicore Out-of-Order Simulator
   Last compiled: Oct 30 2024 03:48:09
*************************************************

trace_0 770-tot_memTraces_v4_2048/memTraces[1979000000]_FE_[GPT-Neo-125M]_[h12]_[s2048]_[d64].champsim.9.xz
trace_1 770-tot_memTraces_v4_2048/memTraces[1979000000]_FE_[GPT-Neo-125M]_[h12]_[s2048]_[d64].champsim.9.xz
trace_2 770-tot_memTraces_v4_2048/memTraces[1979000000]_FE_[GPT-Neo-125M]_[h12]_[s2048]_[d64].champsim.9.xz
trace_3 770-tot_memTraces_v4_2048/memTraces[1979000000]_FE_[GPT-Neo-125M]_[h12]_[s2048]_[d64].champsim.9.xz
MAIN.cc ln 751 stats print skipped
CPU  0 inst:    1000003 cyc:     499224 now IPC :2.00311: AVG IPC :2.00311: L2-Pf-HR :0.75104: L2-HR :0.70936: (Sim:0h0m27s) 
CPU  3 inst:    1000003 cyc:     499428 now IPC :2.00230: AVG IPC :2.00230: L2-Pf-HR :0.75414: L2-HR :0.67743: (Sim:0h0m27s) 
CPU  1 inst:    1000003 cyc:     499496 now IPC :2.00202: AVG IPC :2.00202: L2-Pf-HR :0.74427: L2-HR :0.68247: (Sim:0h0m27s) 
CPU  2 inst:    1000003 cyc:     499576 now IPC :2.00170: AVG IPC :2.00170: L2-Pf-HR :0.74176: L2-HR :0.68435: (Sim:0h0m27s) 
CPU  0 inst:    2000000 cyc:     982080 now IPC :2.07100: AVG IPC :2.03649: L2-Pf-HR :0.82887: L2-HR :0.78380: (Sim:0h0m57s) 
CPU  3 inst:    2000000 cyc:     982401 now IPC :2.07050: AVG IPC :2.03583: L2-Pf-HR :0.84775: L2-HR :0.75255: (Sim:0h0m57s) 
CPU  1 inst:    2000000 cyc:     982451 now IPC :2.07058: AVG IPC :2.03572: L2-Pf-HR :0.82691: L2-HR :0.75320: (Sim:0h0m57s) 
CPU  2 inst:    2000000 cyc:     982562 now IPC :2.07045: AVG IPC :2.03550: L2-Pf-HR :0.82443: L2-HR :0.75307: (Sim:0h0m57s) 

Warmup complete CPU  0 instructions:    2000935 cycles:     982563 (Simulation time: 0 hr 0 min 57 sec) 
Warmup complete CPU  1 instructions:    2000282 cycles:     982563 (Simulation time: 0 hr 0 min 57 sec) 
Warmup complete CPU  2 instructions:    2000002 cycles:     982563 (Simulation time: 0 hr 0 min 57 sec) 
Warmup complete CPU  3 instructions:    2000282 cycles:     982562 (Simulation time: 0 hr 0 min 57 sec) 

CPU  3 inst:    3000002 cyc:    1761543 now IPC :1.28347: AVG IPC :1.28337: L2-Pf-HR :0.91346: L2-HR :0.81136: (Sim:0h1m24s) 
CPU  0 inst:    3000003 cyc:    1762874 now IPC :1.28075: AVG IPC :1.28035: L2-Pf-HR :0.91299: L2-HR :0.83234: (Sim:0h1m24s) 
CPU  2 inst:    3000003 cyc:    1766711 now IPC :1.27527: AVG IPC :1.27527: L2-Pf-HR :0.89920: L2-HR :0.83315: (Sim:0h1m24s) 
CPU  1 inst:    3000003 cyc:    1780594 now IPC :1.25291: AVG IPC :1.25273: L2-Pf-HR :0.92994: L2-HR :0.81674: (Sim:0h1m25s) 
CPU  3 inst:    4000000 cyc:    2622363 now IPC :1.16168: AVG IPC :1.21949: L2-Pf-HR :0.92025: L2-HR :0.80842: (Sim:0h1m52s) 
CPU  0 inst:    4000000 cyc:    2635845 now IPC :1.14551: AVG IPC :1.20915: L2-Pf-HR :0.91422: L2-HR :0.82812: (Sim:0h1m52s) 
CPU  2 inst:    4000000 cyc:    2644253 now IPC :1.13954: AVG IPC :1.20359: L2-Pf-HR :0.89992: L2-HR :0.82936: (Sim:0h1m53s) 
CPU  1 inst:    4000000 cyc:    2656636 now IPC :1.14149: AVG IPC :1.19452: L2-Pf-HR :0.93336: L2-HR :0.81603: (Sim:0h1m53s) 
CPU  3 inst:    5000003 cyc:    3416371 now IPC :1.25944: AVG IPC :1.23252: L2-Pf-HR :0.91931: L2-HR :0.80510: (Sim:0h2m19s) 
CPU  0 inst:    5000003 cyc:    3454577 now IPC :1.22140: AVG IPC :1.21321: L2-Pf-HR :0.91422: L2-HR :0.83104: (Sim:0h2m20s) 
CPU  2 inst:    5000003 cyc:    3476530 now IPC :1.20153: AVG IPC :1.20290: L2-Pf-HR :0.88925: L2-HR :0.81965: (Sim:0h2m21s) 
CPU  1 inst:    5000003 cyc:    3486845 now IPC :1.20452: AVG IPC :1.19784: L2-Pf-HR :0.93312: L2-HR :0.81912: (Sim:0h2m21s) 
CPU  3 inst:    6000001 cyc:    4173446 now IPC :1.32087: AVG IPC :1.25348: L2-Pf-HR :0.92100: L2-HR :0.80464: (Sim:0h2m47s) 
CPU  0 inst:    6000001 cyc:    4228336 now IPC :1.29239: AVG IPC :1.23208: L2-Pf-HR :0.91295: L2-HR :0.82861: (Sim:0h2m49s) 
CPU  2 inst:    6000001 cyc:    4253700 now IPC :1.28672: AVG IPC :1.22282: L2-Pf-HR :0.88478: L2-HR :0.81331: (Sim:0h2m49s) 
CPU  1 inst:    6000001 cyc:    4263304 now IPC :1.28790: AVG IPC :1.21915: L2-Pf-HR :0.93299: L2-HR :0.81639: (Sim:0h2m50s) 
CPU  3 inst:    7000000 cyc:    4923293 now IPC :1.33360: AVG IPC :1.26873: L2-Pf-HR :0.92140: L2-HR :0.80408: (Sim:0h3m14s) 
CPU  0 inst:    7000001 cyc:    5005010 now IPC :1.28754: AVG IPC :1.24279: L2-Pf-HR :0.91170: L2-HR :0.82537: (Sim:0h3m17s) 
CPU  2 inst:    7000001 cyc:    5023973 now IPC :1.29824: AVG IPC :1.23719: L2-Pf-HR :0.88323: L2-HR :0.81090: (Sim:0h3m18s) 
CPU  1 inst:    7000001 cyc:    5033213 now IPC :1.29885: AVG IPC :1.23430: L2-Pf-HR :0.93218: L2-HR :0.81504: (Sim:0h3m18s) 
CPU  3 inst:    8000000 cyc:    5633523 now IPC :1.40799: AVG IPC :1.29000: L2-Pf-HR :0.92327: L2-HR :0.80588: (Sim:0h3m42s) 
CPU  0 inst:    8000000 cyc:    5742566 now IPC :1.35583: AVG IPC :1.26031: L2-Pf-HR :0.91057: L2-HR :0.82258: (Sim:0h3m46s) 
CPU  2 inst:    8000000 cyc:    5756392 now IPC :1.36534: AVG IPC :1.25685: L2-Pf-HR :0.87931: L2-HR :0.80668: (Sim:0h3m46s) 
CPU  1 inst:    8000000 cyc:    5767128 now IPC :1.36255: AVG IPC :1.25397: L2-Pf-HR :0.93204: L2-HR :0.81389: (Sim:0h3m47s) 
CPU  3 inst:    9000002 cyc:    6333886 now IPC :1.42783: AVG IPC :1.30804: L2-Pf-HR :0.92466: L2-HR :0.80748: (Sim:0h4m9s) 
CPU  0 inst:    9000002 cyc:    6475609 now IPC :1.36418: AVG IPC :1.27417: L2-Pf-HR :0.91100: L2-HR :0.82141: (Sim:0h4m14s) 
CPU  2 inst:    9000002 cyc:    6502433 now IPC :1.34041: AVG IPC :1.26815: L2-Pf-HR :0.87621: L2-HR :0.80425: (Sim:0h4m15s) 
CPU  1 inst:    9000002 cyc:    6511218 now IPC :1.34393: AVG IPC :1.26608: L2-Pf-HR :0.93108: L2-HR :0.81247: (Sim:0h4m16s) 
CPU  3 inst:   10000004 cyc:    7013634 now IPC :1.47114: AVG IPC :1.32642: L2-Pf-HR :0.92410: L2-HR :0.80682: (Sim:0h4m37s) 
CPU  0 inst:   10000004 cyc:    7196788 now IPC :1.38662: AVG IPC :1.28722: L2-Pf-HR :0.90978: L2-HR :0.82042: (Sim:0h4m45s) 
CPU  2 inst:   10000003 cyc:    7233645 now IPC :1.36759: AVG IPC :1.27978: L2-Pf-HR :0.87454: L2-HR :0.80253: (Sim:0h4m46s) 
CPU  1 inst:   10000004 cyc:    7243163 now IPC :1.36623: AVG IPC :1.27779: L2-Pf-HR :0.92975: L2-HR :0.81179: (Sim:0h4m46s) 
CPU  3 inst:   11000000 cyc:    7680849 now IPC :1.49876: AVG IPC :1.34359: L2-Pf-HR :0.92341: L2-HR :0.80659: (Sim:0h5m3s) 
CPU  0 inst:   11000000 cyc:    7914403 now IPC :1.39350: AVG IPC :1.29822: L2-Pf-HR :0.90932: L2-HR :0.81996: (Sim:0h5m12s) 
CPU  2 inst:   11000000 cyc:    7963563 now IPC :1.37001: AVG IPC :1.28921: L2-Pf-HR :0.87509: L2-HR :0.80321: (Sim:0h5m14s) 
CPU  1 inst:   11000000 cyc:    7980328 now IPC :1.35654: AVG IPC :1.28608: L2-Pf-HR :0.92890: L2-HR :0.80975: (Sim:0h5m15s) 
CPU  3 inst:   12000004 cyc:    8349801 now IPC :1.49488: AVG IPC :1.35732: L2-Pf-HR :0.92413: L2-HR :0.80754: (Sim:0h5m29s) 
CPU  0 inst:   12000004 cyc:    8632480 now IPC :1.39261: AVG IPC :1.30708: L2-Pf-HR :0.90927: L2-HR :0.81976: (Sim:0h5m40s) 
CPU  2 inst:   12000004 cyc:    8691977 now IPC :1.37285: AVG IPC :1.29712: L2-Pf-HR :0.87382: L2-HR :0.80205: (Sim:0h5m42s) 
CPU  1 inst:   12000004 cyc:    8710549 now IPC :1.36945: AVG IPC :1.29396: L2-Pf-HR :0.92874: L2-HR :0.80991: (Sim:0h5m43s) 
CPU  3 inst:   13000005 cyc:    9083477 now IPC :1.36300: AVG IPC :1.35784: L2-Pf-HR :0.92187: L2-HR :0.80717: (Sim:0h5m57s) 
CPU  0 inst:   13000001 cyc:    9377027 now IPC :1.34309: AVG IPC :1.31028: L2-Pf-HR :0.90975: L2-HR :0.81922: (Sim:0h6m9s) 
CPU  2 inst:   13000005 cyc:    9439625 now IPC :1.33753: AVG IPC :1.30069: L2-Pf-HR :0.87417: L2-HR :0.80241: (Sim:0h6m11s) 
CPU  1 inst:   13000000 cyc:    9457945 now IPC :1.33797: AVG IPC :1.29784: L2-Pf-HR :0.92424: L2-HR :0.80716: (Sim:0h6m12s) 
CPU  3 inst:   14000002 cyc:    9693003 now IPC :1.64061: AVG IPC :1.37762: L2-Pf-HR :0.92145: L2-HR :0.80882: (Sim:0h6m22s) 
CPU  0 inst:   14000002 cyc:   10075361 now IPC :1.43198: AVG IPC :1.31962: L2-Pf-HR :0.91576: L2-HR :0.82300: (Sim:0h6m37s) 
CPU  2 inst:   14000002 cyc:   10132349 now IPC :1.44357: AVG IPC :1.31151: L2-Pf-HR :0.87759: L2-HR :0.80546: (Sim:0h6m40s) 
CPU  1 inst:   14000001 cyc:   10148100 now IPC :1.44895: AVG IPC :1.30922: L2-Pf-HR :0.92567: L2-HR :0.81033: (Sim:0h6m40s) 
CPU  3 inst:   15000000 cyc:   10361857 now IPC :1.49509: AVG IPC :1.38600: L2-Pf-HR :0.92194: L2-HR :0.81000: (Sim:0h6m49s) 
CPU  0 inst:   15000000 cyc:   10771984 now IPC :1.43549: AVG IPC :1.32787: L2-Pf-HR :0.91954: L2-HR :0.82465: (Sim:0h7m5s) 
CPU  2 inst:   15000000 cyc:   10844444 now IPC :1.40430: AVG IPC :1.31821: L2-Pf-HR :0.88102: L2-HR :0.80789: (Sim:0h7m8s) 
CPU  1 inst:   15000000 cyc:   10853514 now IPC :1.41761: AVG IPC :1.31697: L2-Pf-HR :0.92729: L2-HR :0.81139: (Sim:0h7m8s) 
CPU  3 inst:   16000000 cyc:   11061027 now IPC :1.43027: AVG IPC :1.38907: L2-Pf-HR :0.92340: L2-HR :0.81184: (Sim:0h7m16s) 
CPU  0 inst:   16000000 cyc:   11446942 now IPC :1.48157: AVG IPC :1.33778: L2-Pf-HR :0.92202: L2-HR :0.82588: (Sim:0h7m32s) 
CPU  2 inst:   16000000 cyc:   11542464 now IPC :1.43262: AVG IPC :1.32577: L2-Pf-HR :0.88492: L2-HR :0.81129: (Sim:0h7m36s) 
CPU  1 inst:   16000000 cyc:   11550552 now IPC :1.43464: AVG IPC :1.32473: L2-Pf-HR :0.92955: L2-HR :0.81239: (Sim:0h7m36s) 
CPU  3 inst:   17000003 cyc:   11755468 now IPC :1.44001: AVG IPC :1.39236: L2-Pf-HR :0.92387: L2-HR :0.81215: (Sim:0h7m44s) 
CPU  0 inst:   17000000 cyc:   12112241 now IPC :1.50308: AVG IPC :1.34766: L2-Pf-HR :0.92546: L2-HR :0.82719: (Sim:0h7m59s) 
CPU  2 inst:   17000000 cyc:   12238425 now IPC :1.43686: AVG IPC :1.33264: L2-Pf-HR :0.88566: L2-HR :0.81141: (Sim:0h8m4s) 
CPU  1 inst:   17000000 cyc:   12243963 now IPC :1.44215: AVG IPC :1.33196: L2-Pf-HR :0.93048: L2-HR :0.81307: (Sim:0h8m4s) 
CPU  3 inst:   18000000 cyc:   12442507 now IPC :1.45552: AVG IPC :1.39614: L2-Pf-HR :0.92404: L2-HR :0.81281: (Sim:0h8m12s) 
CPU  0 inst:   18000000 cyc:   12765809 now IPC :1.53006: AVG IPC :1.35778: L2-Pf-HR :0.92813: L2-HR :0.82798: (Sim:0h8m26s) 
CPU  2 inst:   18000000 cyc:   12926447 now IPC :1.45344: AVG IPC :1.33960: L2-Pf-HR :0.88679: L2-HR :0.81164: (Sim:0h8m32s) 
CPU  1 inst:   18000000 cyc:   12936329 now IPC :1.44432: AVG IPC :1.33847: L2-Pf-HR :0.93123: L2-HR :0.81436: (Sim:0h8m32s) 
CPU  3 inst:   19000000 cyc:   13166630 now IPC :1.38098: AVG IPC :1.39524: L2-Pf-HR :0.92534: L2-HR :0.81328: (Sim:0h8m41s) 
CPU  0 inst:   19000000 cyc:   13436208 now IPC :1.49165: AVG IPC :1.36499: L2-Pf-HR :0.93009: L2-HR :0.82869: (Sim:0h8m52s) 
CPU  2 inst:   19000000 cyc:   13667162 now IPC :1.35005: AVG IPC :1.34021: L2-Pf-HR :0.88797: L2-HR :0.81237: (Sim:0h9m1s) 
CPU  1 inst:   19000000 cyc:   13682004 now IPC :1.34107: AVG IPC :1.33862: L2-Pf-HR :0.93187: L2-HR :0.81523: (Sim:0h9m2s) 
CPU  3 inst:   20000003 cyc:   13877335 now IPC :1.40706: AVG IPC :1.39589: L2-Pf-HR :0.92562: L2-HR :0.81345: (Sim:0h9m10s) 
CPU  0 inst:   20000003 cyc:   14063167 now IPC :1.59501: AVG IPC :1.37601: L2-Pf-HR :0.93177: L2-HR :0.82867: (Sim:0h9m18s) 
CPU  2 inst:   20000003 cyc:   14376792 now IPC :1.40919: AVG IPC :1.34386: L2-Pf-HR :0.88889: L2-HR :0.81247: (Sim:0h9m33s) 
CPU  1 inst:   20000003 cyc:   14397105 now IPC :1.39841: AVG IPC :1.34181: L2-Pf-HR :0.93199: L2-HR :0.81542: (Sim:0h9m35s) 
CPU  3 inst:   21000004 cyc:   14571955 now IPC :1.43964: AVG IPC :1.39813: L2-Pf-HR :0.92666: L2-HR :0.81531: (Sim:0h9m47s) 
CPU  0 inst:   21000004 cyc:   14694411 now IPC :1.58418: AVG IPC :1.38560: L2-Pf-HR :0.93412: L2-HR :0.82978: (Sim:0h9m56s) 
CPU  2 inst:   21000004 cyc:   15076732 now IPC :1.42870: AVG IPC :1.34808: L2-Pf-HR :0.88874: L2-HR :0.81239: (Sim:0h10m22s) 
CPU  1 inst:   21000004 cyc:   15108032 now IPC :1.40662: AVG IPC :1.34507: L2-Pf-HR :0.93290: L2-HR :0.81612: (Sim:0h10m24s) 
CPU  3 inst:   22000001 cyc:   15279104 now IPC :1.41412: AVG IPC :1.39892: L2-Pf-HR :0.92775: L2-HR :0.81581: (Sim:0h10m35s) 
CPU  0 inst:   22000001 cyc:   15366660 now IPC :1.48754: AVG IPC :1.39036: L2-Pf-HR :0.93588: L2-HR :0.83026: (Sim:0h10m41s) 
CPU  2 inst:   22000001 cyc:   15794857 now IPC :1.39251: AVG IPC :1.35023: L2-Pf-HR :0.88960: L2-HR :0.81276: (Sim:0h11m10s) 
CPU  1 inst:   22000001 cyc:   15837167 now IPC :1.37148: AVG IPC :1.34636: L2-Pf-HR :0.93354: L2-HR :0.81728: (Sim:0h11m13s) 
CPU  3 inst:   23000001 cyc:   15998247 now IPC :1.39054: AVG IPC :1.39852: L2-Pf-HR :0.92860: L2-HR :0.81658: (Sim:0h11m23s) 
CPU  0 inst:   23000001 cyc:   16076351 now IPC :1.40906: AVG IPC :1.39124: L2-Pf-HR :0.93773: L2-HR :0.83100: (Sim:0h11m28s) 
CPU  2 inst:   23000001 cyc:   16515021 now IPC :1.38857: AVG IPC :1.35201: L2-Pf-HR :0.89115: L2-HR :0.81380: (Sim:0h11m58s) 
CPU  1 inst:   23000001 cyc:   16575008 now IPC :1.35531: AVG IPC :1.34679: L2-Pf-HR :0.93385: L2-HR :0.81779: (Sim:0h12m2s) 
CPU  3 inst:   24000005 cyc:   16714624 now IPC :1.39592: AVG IPC :1.39840: L2-Pf-HR :0.93005: L2-HR :0.81748: (Sim:0h12m11s) 
CPU  0 inst:   24000000 cyc:   16788776 now IPC :1.40366: AVG IPC :1.39180: L2-Pf-HR :0.93941: L2-HR :0.83179: (Sim:0h12m16s) 
CPU  2 inst:   24000000 cyc:   17193697 now IPC :1.47346: AVG IPC :1.35709: L2-Pf-HR :0.89180: L2-HR :0.81370: (Sim:0h12m43s) 
CPU  1 inst:   24000000 cyc:   17302739 now IPC :1.37413: AVG IPC :1.34801: L2-Pf-HR :0.93515: L2-HR :0.81901: (Sim:0h12m50s) 
CPU  3 inst:   25000004 cyc:   17557058 now IPC :1.18704: AVG IPC :1.38766: L2-Pf-HR :0.92970: L2-HR :0.81752: (Sim:0h13m4s) 
CPU  0 inst:   25000004 cyc:   17613622 now IPC :1.21235: AVG IPC :1.38290: L2-Pf-HR :0.93920: L2-HR :0.83132: (Sim:0h13m7s) 
CPU  2 inst:   25000004 cyc:   18096922 now IPC :1.10715: AVG IPC :1.34390: L2-Pf-HR :0.89218: L2-HR :0.81363: (Sim:0h13m33s) 
CPU  1 inst:   25000003 cyc:   18324757 now IPC :0.97846: AVG IPC :1.32623: L2-Pf-HR :0.93399: L2-HR :0.81836: (Sim:0h13m46s) 
CPU  3 inst:   26000004 cyc:   18468037 now IPC :1.09772: AVG IPC :1.37255: L2-Pf-HR :0.93010: L2-HR :0.81844: (Sim:0h13m56s) 
CPU  0 inst:   26000004 cyc:   18570815 now IPC :1.04472: AVG IPC :1.36449: L2-Pf-HR :0.94130: L2-HR :0.83303: (Sim:0h14m2s) 
CPU  2 inst:   26000004 cyc:   18851179 now IPC :1.32581: AVG IPC :1.34314: L2-Pf-HR :0.89369: L2-HR :0.81496: (Sim:0h14m18s) 
CPU  1 inst:   26000004 cyc:   19196257 now IPC :1.14745: AVG IPC :1.31767: L2-Pf-HR :0.93431: L2-HR :0.81946: (Sim:0h14m40s) 
CPU  3 inst:   27000005 cyc:   19286829 now IPC :1.22131: AVG IPC :1.36579: L2-Pf-HR :0.93025: L2-HR :0.81875: (Sim:0h14m45s) 
CPU  0 inst:   27000005 cyc:   19411254 now IPC :1.18986: AVG IPC :1.35653: L2-Pf-HR :0.94241: L2-HR :0.83399: (Sim:0h14m53s) 
CPU  2 inst:   27000005 cyc:   19601600 now IPC :1.33259: AVG IPC :1.34271: L2-Pf-HR :0.89580: L2-HR :0.81631: (Sim:0h15m5s) 
CPU  3 inst:   28000005 cyc:   19996830 now IPC :1.40845: AVG IPC :1.36738: L2-Pf-HR :0.93073: L2-HR :0.81967: (Sim:0h15m30s) 
CPU  1 inst:   27000005 cyc:   20076531 now IPC :1.13601: AVG IPC :1.30930: L2-Pf-HR :0.93511: L2-HR :0.81970: (Sim:0h15m34s) 
CPU  0 inst:   28000002 cyc:   20286941 now IPC :1.14196: AVG IPC :1.34680: L2-Pf-HR :0.94392: L2-HR :0.83460: (Sim:0h15m42s) 
CPU  2 inst:   28000005 cyc:   20390493 now IPC :1.26760: AVG IPC :1.33966: L2-Pf-HR :0.89769: L2-HR :0.81783: (Sim:0h15m46s) 
CPU  3 inst:   29000000 cyc:   20725819 now IPC :1.37176: AVG IPC :1.36754: L2-Pf-HR :0.93191: L2-HR :0.82027: (Sim:0h15m57s) 
CPU  1 inst:   28000005 cyc:   21025044 now IPC :1.05428: AVG IPC :1.29723: L2-Pf-HR :0.93604: L2-HR :0.82001: (Sim:0h16m13s) 
CPU  0 inst:   29000000 cyc:   21178099 now IPC :1.12213: AVG IPC :1.33688: L2-Pf-HR :0.94484: L2-HR :0.83513: (Sim:0h16m22s) 
CPU  2 inst:   29000000 cyc:   21311665 now IPC :1.08557: AVG IPC :1.32815: L2-Pf-HR :0.89741: L2-HR :0.81759: (Sim:0h16m29s) 
CPU  3 inst:   30000002 cyc:   21613623 now IPC :1.12638: AVG IPC :1.35716: L2-Pf-HR :0.93245: L2-HR :0.82039: (Sim:0h16m46s) 
CPU  1 inst:   29000000 cyc:   22006536 now IPC :1.01885: AVG IPC :1.28423: L2-Pf-HR :0.93592: L2-HR :0.82024: (Sim:0h17m8s) 
CPU  0 inst:   30000002 cyc:   22035151 now IPC :1.16679: AVG IPC :1.32996: L2-Pf-HR :0.94613: L2-HR :0.83556: (Sim:0h17m10s) 
CPU  2 inst:   30000002 cyc:   22266353 now IPC :1.04746: AVG IPC :1.31556: L2-Pf-HR :0.89746: L2-HR :0.81733: (Sim:0h17m22s) 
CPU  3 inst:   31000002 cyc:   22601225 now IPC :1.01255: AVG IPC :1.34142: L2-Pf-HR :0.93324: L2-HR :0.82064: (Sim:0h17m40s) 
CPU  0 inst:   31000002 cyc:   22918867 now IPC :1.13159: AVG IPC :1.32197: L2-Pf-HR :0.94727: L2-HR :0.83612: (Sim:0h17m57s) 
CPU  1 inst:   30000002 cyc:   23055924 now IPC :0.95294: AVG IPC :1.26848: L2-Pf-HR :0.93685: L2-HR :0.82097: (Sim:0h18m4s) 
CPU  2 inst:   31000002 cyc:   23325937 now IPC :0.94377: AVG IPC :1.29792: L2-Pf-HR :0.89817: L2-HR :0.81777: (Sim:0h18m15s) 
CPU  3 inst:   32000003 cyc:   23681686 now IPC :0.92553: AVG IPC :1.32162: L2-Pf-HR :0.93428: L2-HR :0.82101: (Sim:0h18m27s) 
CPU  0 inst:   32000000 cyc:   23805896 now IPC :1.12736: AVG IPC :1.31440: L2-Pf-HR :0.94825: L2-HR :0.83618: (Sim:0h18m31s) 
CPU  1 inst:   31000002 cyc:   24174707 now IPC :0.89383: AVG IPC :1.25041: L2-Pf-HR :0.93685: L2-HR :0.82132: (Sim:0h18m42s) 
CPU  2 inst:   32000003 cyc:   24496931 now IPC :0.85398: AVG IPC :1.27582: L2-Pf-HR :0.89834: L2-HR :0.81762: (Sim:0h18m53s) 
CPU  3 inst:   33000000 cyc:   24835217 now IPC :0.86690: AVG IPC :1.29963: L2-Pf-HR :0.93425: L2-HR :0.82187: (Sim:0h19m2s) 
CPU  0 inst:   33000000 cyc:   24921387 now IPC :0.89647: AVG IPC :1.29493: L2-Pf-HR :0.94895: L2-HR :0.83666: (Sim:0h19m4s) 
CPU  1 inst:   32000000 cyc:   25496035 now IPC :0.75681: AVG IPC :1.22381: L2-Pf-HR :0.93694: L2-HR :0.82154: (Sim:0h19m20s) 
CPU  2 inst:   33000000 cyc:   25852874 now IPC :0.73749: AVG IPC :1.24647: L2-Pf-HR :0.89856: L2-HR :0.81764: (Sim:0h19m29s) 
CPU  3 inst:   34000003 cyc:   26178892 now IPC :0.74423: AVG IPC :1.27002: L2-Pf-HR :0.93516: L2-HR :0.82220: (Sim:0h19m38s) 
CPU  0 inst:   34000003 cyc:   26258332 now IPC :0.74798: AVG IPC :1.26600: L2-Pf-HR :0.95008: L2-HR :0.83711: (Sim:0h19m40s) 
CPU  1 inst:   33000000 cyc:   26866922 now IPC :0.72945: AVG IPC :1.19762: L2-Pf-HR :0.93718: L2-HR :0.82205: (Sim:0h19m56s) 
CPU  2 inst:   34000003 cyc:   27260695 now IPC :0.71032: AVG IPC :1.21774: L2-Pf-HR :0.89922: L2-HR :0.81788: (Sim:0h20m6s) 
CPU  3 inst:   35000001 cyc:   27536150 now IPC :0.73678: AVG IPC :1.24276: L2-Pf-HR :0.93486: L2-HR :0.82227: (Sim:0h20m14s) 
CPU  0 inst:   35000000 cyc:   27621615 now IPC :0.73352: AVG IPC :1.23875: L2-Pf-HR :0.95078: L2-HR :0.83735: (Sim:0h20m16s) 
CPU  1 inst:   34000003 cyc:   28273576 now IPC :0.71091: AVG IPC :1.17254: L2-Pf-HR :0.93784: L2-HR :0.82251: (Sim:0h20m41s) 
CPU  2 inst:   35000002 cyc:   28589768 now IPC :0.75240: AVG IPC :1.19534: L2-Pf-HR :0.90021: L2-HR :0.81854: (Sim:0h20m53s) 
CPU  3 inst:   36000000 cyc:   28864315 now IPC :0.75292: AVG IPC :1.21943: L2-Pf-HR :0.93557: L2-HR :0.82293: (Sim:0h21m0s) 
CPU  0 inst:   36000000 cyc:   28960046 now IPC :0.74714: AVG IPC :1.21523: L2-Pf-HR :0.95139: L2-HR :0.83766: (Sim:0h21m3s) 
CPU  1 inst:   35000001 cyc:   29673151 now IPC :0.71450: AVG IPC :1.15019: L2-Pf-HR :0.93792: L2-HR :0.82254: (Sim:0h21m24s) 
CPU  2 inst:   36000000 cyc:   29838122 now IPC :0.80105: AVG IPC :1.17828: L2-Pf-HR :0.90062: L2-HR :0.81851: (Sim:0h21m29s) 
CPU  3 inst:   37000001 cyc:   30375962 now IPC :0.66153: AVG IPC :1.19073: L2-Pf-HR :0.93519: L2-HR :0.82256: (Sim:0h21m43s) 
CPU  0 inst:   37000001 cyc:   30408593 now IPC :0.69035: AVG IPC :1.18939: L2-Pf-HR :0.95065: L2-HR :0.83725: (Sim:0h21m44s) 
CPU  2 inst:   37000001 cyc:   30947081 now IPC :0.90175: AVG IPC :1.16805: L2-Pf-HR :0.90061: L2-HR :0.81809: (Sim:0h22m0s) 
CPU  1 inst:   36000000 cyc:   31090999 now IPC :0.70529: AVG IPC :1.12924: L2-Pf-HR :0.93862: L2-HR :0.82304: (Sim:0h22m4s) 
CPU  3 inst:   38000001 cyc:   31770400 now IPC :0.71713: AVG IPC :1.16928: L2-Pf-HR :0.93521: L2-HR :0.82287: (Sim:0h22m33s) 
CPU  0 inst:   38000001 cyc:   31812487 now IPC :0.71230: AVG IPC :1.16767: L2-Pf-HR :0.95152: L2-HR :0.83815: (Sim:0h22m35s) 
CPU  2 inst:   38000001 cyc:   31927609 now IPC :1.01986: AVG IPC :1.16335: L2-Pf-HR :0.90183: L2-HR :0.81896: (Sim:0h22m39s) 
CPU  1 inst:   37000001 cyc:   32585299 now IPC :0.66921: AVG IPC :1.10749: L2-Pf-HR :0.93858: L2-HR :0.82286: (Sim:0h23m10s) 
CPU  3 inst:   39000001 cyc:   32819663 now IPC :0.95305: AVG IPC :1.16216: L2-Pf-HR :0.93575: L2-HR :0.82327: (Sim:0h23m21s) 
CPU  0 inst:   39000001 cyc:   33148802 now IPC :0.74833: AVG IPC :1.15025: L2-Pf-HR :0.95206: L2-HR :0.83851: (Sim:0h23m37s) 
CPU  2 inst:   39000004 cyc:   33188421 now IPC :0.79314: AVG IPC :1.14886: L2-Pf-HR :0.90271: L2-HR :0.81973: (Sim:0h23m39s) 
CPU  3 inst:   40000000 cyc:   33721789 now IPC :1.10849: AVG IPC :1.16068: L2-Pf-HR :0.93548: L2-HR :0.82363: (Sim:0h24m3s) 
CPU  1 inst:   38000001 cyc:   33979519 now IPC :0.71725: AVG IPC :1.09100: L2-Pf-HR :0.93907: L2-HR :0.82322: (Sim:0h24m14s) 
CPU  2 inst:   40000004 cyc:   34719041 now IPC :0.65333: AVG IPC :1.12638: L2-Pf-HR :0.90399: L2-HR :0.82081: (Sim:0h24m43s) 
CPU  0 inst:   40000003 cyc:   34723293 now IPC :0.63513: AVG IPC :1.12621: L2-Pf-HR :0.95227: L2-HR :0.83883: (Sim:0h24m44s) 
CPU  3 inst:   41000001 cyc:   35210478 now IPC :0.67173: AVG IPC :1.13941: L2-Pf-HR :0.93591: L2-HR :0.82396: (Sim:0h25m3s) 
CPU  1 inst:   39000004 cyc:   35492320 now IPC :0.66103: AVG IPC :1.07215: L2-Pf-HR :0.93962: L2-HR :0.82357: (Sim:0h25m15s) 
CPU  2 inst:   41000001 cyc:   36291037 now IPC :0.63613: AVG IPC :1.10455: L2-Pf-HR :0.90417: L2-HR :0.82078: (Sim:0h25m46s) 
CPU  0 inst:   41000001 cyc:   36322133 now IPC :0.62545: AVG IPC :1.10355: L2-Pf-HR :0.95286: L2-HR :0.83916: (Sim:0h25m48s) 
CPU  3 inst:   42000005 cyc:   36739518 now IPC :0.65401: AVG IPC :1.11866: L2-Pf-HR :0.93636: L2-HR :0.82402: (Sim:0h26m5s) 
CPU  1 inst:   40000004 cyc:   36883762 now IPC :0.71868: AVG IPC :1.05845: L2-Pf-HR :0.93985: L2-HR :0.82376: (Sim:0h26m12s) 
CPU  2 inst:   42000005 cyc:   37685597 now IPC :0.71707: AVG IPC :1.08983: L2-Pf-HR :0.90442: L2-HR :0.82065: (Sim:0h26m48s) 
CPU  0 inst:   42000005 cyc:   37723943 now IPC :0.71337: AVG IPC :1.08867: L2-Pf-HR :0.95356: L2-HR :0.83931: (Sim:0h26m50s) 
CPU  1 inst:   41000001 cyc:   37908674 now IPC :0.97569: AVG IPC :1.05616: L2-Pf-HR :0.94054: L2-HR :0.82406: (Sim:0h26m59s) 
CPU  3 inst:   43000005 cyc:   38068481 now IPC :0.75247: AVG IPC :1.10553: L2-Pf-HR :0.93663: L2-HR :0.82406: (Sim:0h27m5s) 
CPU  1 inst:   42000004 cyc:   38921279 now IPC :0.98755: AVG IPC :1.05432: L2-Pf-HR :0.94093: L2-HR :0.82432: (Sim:0h27m44s) 
CPU  2 inst:   43000005 cyc:   39024607 now IPC :0.74682: AVG IPC :1.07775: L2-Pf-HR :0.90519: L2-HR :0.82104: (Sim:0h27m49s) 
CPU  0 inst:   43000002 cyc:   39090313 now IPC :0.73186: AVG IPC :1.07587: L2-Pf-HR :0.95409: L2-HR :0.83959: (Sim:0h27m52s) 
CPU  3 inst:   44000002 cyc:   39410692 now IPC :0.74504: AVG IPC :1.09294: L2-Pf-HR :0.93705: L2-HR :0.82441: (Sim:0h28m5s) 
CPU  1 inst:   43000002 cyc:   40236675 now IPC :0.76023: AVG IPC :1.04447: L2-Pf-HR :0.94115: L2-HR :0.82466: (Sim:0h28m40s) 
CPU  2 inst:   44000002 cyc:   40470153 now IPC :0.69178: AVG IPC :1.06363: L2-Pf-HR :0.90532: L2-HR :0.82086: (Sim:0h28m49s) 
CPU  0 inst:   44000004 cyc:   40577834 now IPC :0.67226: AVG IPC :1.06071: L2-Pf-HR :0.95452: L2-HR :0.83955: (Sim:0h28m53s) 
CPU  3 inst:   45000002 cyc:   40975014 now IPC :0.63925: AVG IPC :1.07520: L2-Pf-HR :0.93726: L2-HR :0.82485: (Sim:0h29m11s) 
CPU  2 inst:   45000002 cyc:   41514160 now IPC :0.95785: AVG IPC :1.06090: L2-Pf-HR :0.90572: L2-HR :0.82086: (Sim:0h29m35s) 
CPU  1 inst:   44000004 cyc:   41656861 now IPC :0.70413: AVG IPC :1.03259: L2-Pf-HR :0.94164: L2-HR :0.82486: (Sim:0h29m42s) 
CPU  0 inst:   45000002 cyc:   42028815 now IPC :0.68919: AVG IPC :1.04758: L2-Pf-HR :0.95511: L2-HR :0.83987: (Sim:0h29m58s) 
CPU  3 inst:   46000004 cyc:   42372944 now IPC :0.71534: AVG IPC :1.06304: L2-Pf-HR :0.93728: L2-HR :0.82478: (Sim:0h30m13s) 
CPU  2 inst:   46000003 cyc:   42534723 now IPC :0.97985: AVG IPC :1.05891: L2-Pf-HR :0.90637: L2-HR :0.82103: (Sim:0h30m20s) 
CPU  1 inst:   45000002 cyc:   43258765 now IPC :0.62426: AVG IPC :1.01711: L2-Pf-HR :0.94216: L2-HR :0.82492: (Sim:0h30m45s) 
CPU  0 inst:   46000004 cyc:   43635678 now IPC :0.62233: AVG IPC :1.03156: L2-Pf-HR :0.95535: L2-HR :0.83997: (Sim:0h30m55s) 
CPU  3 inst:   47000003 cyc:   43782156 now IPC :0.70962: AVG IPC :1.05141: L2-Pf-HR :0.93730: L2-HR :0.82505: (Sim:0h30m59s) 
CPU  2 inst:   47000003 cyc:   43955609 now IPC :0.70379: AVG IPC :1.04717: L2-Pf-HR :0.90694: L2-HR :0.82134: (Sim:0h31m3s) 
CPU  1 inst:   46000001 cyc:   44685465 now IPC :0.70092: AVG IPC :1.00679: L2-Pf-HR :0.94237: L2-HR :0.82524: (Sim:0h31m33s) 
CPU  3 inst:   48000000 cyc:   44844755 now IPC :0.94109: AVG IPC :1.04873: L2-Pf-HR :0.93795: L2-HR :0.82549: (Sim:0h31m40s) 
CPU  0 inst:   47000003 cyc:   44964611 now IPC :0.75248: AVG IPC :1.02312: L2-Pf-HR :0.95523: L2-HR :0.84002: (Sim:0h31m45s) 
CPU  2 inst:   48000003 cyc:   45243477 now IPC :0.77648: AVG IPC :1.03929: L2-Pf-HR :0.90718: L2-HR :0.82140: (Sim:0h31m57s) 
CPU  3 inst:   49000005 cyc:   46053522 now IPC :0.82729: AVG IPC :1.04279: L2-Pf-HR :0.93721: L2-HR :0.82501: (Sim:0h32m31s) 
CPU  1 inst:   47000003 cyc:   46071759 now IPC :0.72135: AVG IPC :0.99802: L2-Pf-HR :0.94215: L2-HR :0.82508: (Sim:0h32m32s) 
CPU  0 inst:   48000003 cyc:   46417891 now IPC :0.68810: AVG IPC :1.01241: L2-Pf-HR :0.95541: L2-HR :0.84031: (Sim:0h32m48s) 
CPU  2 inst:   49000005 cyc:   46763933 now IPC :0.65770: AVG IPC :1.02662: L2-Pf-HR :0.90721: L2-HR :0.82129: (Sim:0h33m2s) 
CPU  3 inst:   50000000 cyc:   47315277 now IPC :0.79254: AVG IPC :1.03598: L2-Pf-HR :0.93758: L2-HR :0.82539: (Sim:0h33m22s) 
CPU  1 inst:   48000003 cyc:   47621686 now IPC :0.64519: AVG IPC :0.98629: L2-Pf-HR :0.94262: L2-HR :0.82563: (Sim:0h33m34s) 
CPU  0 inst:   49000005 cyc:   48094196 now IPC :0.59655: AVG IPC :0.99761: L2-Pf-HR :0.95499: L2-HR :0.84002: (Sim:0h33m52s) 
CPU  2 inst:   50000000 cyc:   48450853 now IPC :0.59279: AVG IPC :1.01120: L2-Pf-HR :0.90786: L2-HR :0.82189: (Sim:0h34m5s) 
CPU  3 inst:   51000002 cyc:   49011533 now IPC :0.58953: AVG IPC :1.02021: L2-Pf-HR :0.93796: L2-HR :0.82546: (Sim:0h34m26s) 
CPU  1 inst:   49000005 cyc:   49370501 now IPC :0.57182: AVG IPC :0.97131: L2-Pf-HR :0.94178: L2-HR :0.82516: (Sim:0h34m40s) 
CPU  0 inst:   50000000 cyc:   49590150 now IPC :0.66847: AVG IPC :0.98748: L2-Pf-HR :0.95554: L2-HR :0.84064: (Sim:0h34m50s) 
CPU  2 inst:   51000002 cyc:   49923919 now IPC :0.67886: AVG IPC :1.00120: L2-Pf-HR :0.90870: L2-HR :0.82256: (Sim:0h35m4s) 
CPU  3 inst:   52000000 cyc:   50458655 now IPC :0.69103: AVG IPC :1.01058: L2-Pf-HR :0.93794: L2-HR :0.82563: (Sim:0h35m26s) 
CPU  1 inst:   50000003 cyc:   50782980 now IPC :0.70797: AVG IPC :0.96384: L2-Pf-HR :0.94217: L2-HR :0.82570: (Sim:0h35m41s) 
CPU  0 inst:   51000002 cyc:   51008119 now IPC :0.70524: AVG IPC :0.97948: L2-Pf-HR :0.95608: L2-HR :0.84094: (Sim:0h35m51s) 
CPU  2 inst:   52000000 cyc:   51061046 now IPC :0.87941: AVG IPC :0.99843: L2-Pf-HR :0.90962: L2-HR :0.82319: (Sim:0h35m54s) 
CPU  3 inst:   53000003 cyc:   51729124 now IPC :0.78711: AVG IPC :1.00499: L2-Pf-HR :0.93848: L2-HR :0.82603: (Sim:0h36m24s) 
CPU  2 inst:   53000003 cyc:   52006332 now IPC :1.05788: AVG IPC :0.99953: L2-Pf-HR :0.90997: L2-HR :0.82329: (Sim:0h36m36s) 
CPU  1 inst:   51000002 cyc:   52128509 now IPC :0.74320: AVG IPC :0.95804: L2-Pf-HR :0.94284: L2-HR :0.82586: (Sim:0h36m42s) 
CPU  0 inst:   52000002 cyc:   52395198 now IPC :0.72094: AVG IPC :0.97251: L2-Pf-HR :0.95664: L2-HR :0.84110: (Sim:0h36m53s) 
CPU  3 inst:   54000000 cyc:   53193176 now IPC :0.68303: AVG IPC :0.99596: L2-Pf-HR :0.93880: L2-HR :0.82596: (Sim:0h37m25s) 
CPU  2 inst:   54000000 cyc:   53322319 now IPC :0.75988: AVG IPC :0.99351: L2-Pf-HR :0.90995: L2-HR :0.82299: (Sim:0h37m30s) 
CPU  1 inst:   52000002 cyc:   53656350 now IPC :0.65452: AVG IPC :0.94923: L2-Pf-HR :0.94312: L2-HR :0.82589: (Sim:0h37m43s) 
CPU  0 inst:   53000003 cyc:   53940906 now IPC :0.64695: AVG IPC :0.96300: L2-Pf-HR :0.95679: L2-HR :0.84130: (Sim:0h37m54s) 
CPU  3 inst:   55000001 cyc:   54733108 now IPC :0.64938: AVG IPC :0.98603: L2-Pf-HR :0.93860: L2-HR :0.82612: (Sim:0h38m25s) 
CPU  2 inst:   55000001 cyc:   54839357 now IPC :0.65918: AVG IPC :0.98409: L2-Pf-HR :0.91035: L2-HR :0.82316: (Sim:0h38m29s) 
CPU  1 inst:   53000003 cyc:   55214815 now IPC :0.64166: AVG IPC :0.94039: L2-Pf-HR :0.94285: L2-HR :0.82609: (Sim:0h38m43s) 
CPU  0 inst:   54000000 cyc:   55643055 now IPC :0.58749: AVG IPC :0.95131: L2-Pf-HR :0.95711: L2-HR :0.84135: (Sim:0h38m58s) 
CPU  3 inst:   56000001 cyc:   56434970 now IPC :0.58759: AVG IPC :0.97380: L2-Pf-HR :0.93870: L2-HR :0.82638: (Sim:0h39m27s) 
CPU  2 inst:   56000001 cyc:   56530946 now IPC :0.59116: AVG IPC :0.97213: L2-Pf-HR :0.91050: L2-HR :0.82305: (Sim:0h39m31s) 
CPU  1 inst:   54000000 cyc:   56917477 now IPC :0.58731: AVG IPC :0.92965: L2-Pf-HR :0.94330: L2-HR :0.82643: (Sim:0h39m45s) 
CPU  0 inst:   55000000 cyc:   57371837 now IPC :0.57844: AVG IPC :0.93988: L2-Pf-HR :0.95732: L2-HR :0.84155: (Sim:0h40m3s) 
CPU  3 inst:   57000005 cyc:   57730724 now IPC :0.77175: AVG IPC :0.96919: L2-Pf-HR :0.93923: L2-HR :0.82674: (Sim:0h40m19s) 
CPU  2 inst:   57000005 cyc:   57974049 now IPC :0.69295: AVG IPC :0.96506: L2-Pf-HR :0.91059: L2-HR :0.82298: (Sim:0h40m30s) 
CPU  1 inst:   55000000 cyc:   58399999 now IPC :0.67453: AVG IPC :0.92306: L2-Pf-HR :0.94338: L2-HR :0.82643: (Sim:0h40m49s) 
CPU  0 inst:   56000001 cyc:   58718136 now IPC :0.74278: AVG IPC :0.93528: L2-Pf-HR :0.95768: L2-HR :0.84156: (Sim:0h41m5s) 
CPU  3 inst:   58000001 cyc:   58750295 now IPC :0.98080: AVG IPC :0.96939: L2-Pf-HR :0.93947: L2-HR :0.82671: (Sim:0h41m6s) 
CPU  2 inst:   58000001 cyc:   59049921 now IPC :0.92947: AVG IPC :0.96440: L2-Pf-HR :0.91089: L2-HR :0.82311: (Sim:0h41m21s) 
CPU  1 inst:   56000004 cyc:   59603539 now IPC :0.83089: AVG IPC :0.92117: L2-Pf-HR :0.94377: L2-HR :0.82660: (Sim:0h41m48s) 
CPU  3 inst:   59000001 cyc:   59788234 now IPC :0.96345: AVG IPC :0.96929: L2-Pf-HR :0.93975: L2-HR :0.82682: (Sim:0h41m57s) 
CPU  0 inst:   57000003 cyc:   59936536 now IPC :0.82075: AVG IPC :0.93292: L2-Pf-HR :0.95798: L2-HR :0.84168: (Sim:0h42m4s) 
CPU  2 inst:   59000001 cyc:   60030833 now IPC :1.01946: AVG IPC :0.96531: L2-Pf-HR :0.91137: L2-HR :0.82333: (Sim:0h42m8s) 
CPU  1 inst:   57000000 cyc:   61051370 now IPC :0.69069: AVG IPC :0.91561: L2-Pf-HR :0.94371: L2-HR :0.82659: (Sim:0h42m40s) 
CPU  2 inst:   60000001 cyc:   61172747 now IPC :0.87572: AVG IPC :0.96361: L2-Pf-HR :0.91135: L2-HR :0.82325: (Sim:0h42m44s) 
CPU  3 inst:   60000001 cyc:   61173543 now IPC :0.72186: AVG IPC :0.96359: L2-Pf-HR :0.94025: L2-HR :0.82707: (Sim:0h42m44s) 
CPU  0 inst:   58000001 cyc:   61184939 now IPC :0.80102: AVG IPC :0.93018: L2-Pf-HR :0.95826: L2-HR :0.84182: (Sim:0h42m44s) 
CPU  1 inst:   58000001 cyc:   62243566 now IPC :0.83879: AVG IPC :0.91412: L2-Pf-HR :0.94386: L2-HR :0.82692: (Sim:0h43m14s) 
CPU  0 inst:   59000001 cyc:   62370095 now IPC :0.84377: AVG IPC :0.92851: L2-Pf-HR :0.95819: L2-HR :0.84172: (Sim:0h43m18s) 
CPU  2 inst:   61000002 cyc:   62471041 now IPC :0.77024: AVG IPC :0.95953: L2-Pf-HR :0.91027: L2-HR :0.82222: (Sim:0h43m21s) 
CPU  3 inst:   61000001 cyc:   62483444 now IPC :0.76342: AVG IPC :0.95933: L2-Pf-HR :0.93974: L2-HR :0.82641: (Sim:0h43m21s) 
CPU  1 inst:   59000003 cyc:   63410670 now IPC :0.85682: AVG IPC :0.91305: L2-Pf-HR :0.94418: L2-HR :0.82682: (Sim:0h43m47s) 
CPU  0 inst:   60000001 cyc:   63504352 now IPC :0.88163: AVG IPC :0.92766: L2-Pf-HR :0.95842: L2-HR :0.84194: (Sim:0h43m50s) 
CPU  2 inst:   62000002 cyc:   63665719 now IPC :0.83705: AVG IPC :0.95719: L2-Pf-HR :0.90953: L2-HR :0.82144: (Sim:0h43m55s) 
CPU  3 inst:   62000002 cyc:   63692538 now IPC :0.82707: AVG IPC :0.95678: L2-Pf-HR :0.93949: L2-HR :0.82593: (Sim:0h43m55s) 
CPU  0 inst:   61000002 cyc:   64590183 now IPC :0.92095: AVG IPC :0.92755: L2-Pf-HR :0.95798: L2-HR :0.84117: (Sim:0h44m23s) 
CPU  1 inst:   60000001 cyc:   64611795 now IPC :0.83255: AVG IPC :0.91153: L2-Pf-HR :0.94467: L2-HR :0.82720: (Sim:0h44m23s) 
CPU  2 inst:   63000003 cyc:   64726648 now IPC :0.94257: AVG IPC :0.95695: L2-Pf-HR :0.90908: L2-HR :0.82068: (Sim:0h44m27s) 
CPU  3 inst:   63000003 cyc:   64829564 now IPC :0.87949: AVG IPC :0.95540: L2-Pf-HR :0.93941: L2-HR :0.82509: (Sim:0h44m30s) 
CPU  0 inst:   62000002 cyc:   65723587 now IPC :0.88230: AVG IPC :0.92676: L2-Pf-HR :0.95802: L2-HR :0.84068: (Sim:0h44m57s) 
CPU  1 inst:   61000002 cyc:   65785671 now IPC :0.85188: AVG IPC :0.91045: L2-Pf-HR :0.94363: L2-HR :0.82627: (Sim:0h44m59s) 
CPU  2 inst:   64000005 cyc:   65805306 now IPC :0.92708: AVG IPC :0.95645: L2-Pf-HR :0.90861: L2-HR :0.81996: (Sim:0h44m59s) 
CPU  3 inst:   64000005 cyc:   65885058 now IPC :0.94743: AVG IPC :0.95527: L2-Pf-HR :0.93938: L2-HR :0.82445: (Sim:0h45m2s) 
CPU  0 inst:   63000002 cyc:   66965531 now IPC :0.80519: AVG IPC :0.92447: L2-Pf-HR :0.95811: L2-HR :0.84054: (Sim:0h45m30s) 
CPU  1 inst:   62000002 cyc:   66993016 now IPC :0.82826: AVG IPC :0.90894: L2-Pf-HR :0.94320: L2-HR :0.82552: (Sim:0h45m31s) 
CPU  2 inst:   65000001 cyc:   67284523 now IPC :0.67603: AVG IPC :0.95020: L2-Pf-HR :0.90823: L2-HR :0.81965: (Sim:0h45m39s) 
CPU  3 inst:   65000005 cyc:   67345919 now IPC :0.68453: AVG IPC :0.94931: L2-Pf-HR :0.93889: L2-HR :0.82394: (Sim:0h45m41s) 
CPU  0 inst:   64000002 cyc:   68197110 now IPC :0.81197: AVG IPC :0.92241: L2-Pf-HR :0.95843: L2-HR :0.84049: (Sim:0h46m4s) 
CPU  1 inst:   63000002 cyc:   68240625 now IPC :0.80153: AVG IPC :0.90695: L2-Pf-HR :0.94320: L2-HR :0.82500: (Sim:0h46m5s) 
CPU  2 inst:   66000000 cyc:   68575476 now IPC :0.77462: AVG IPC :0.94684: L2-Pf-HR :0.90871: L2-HR :0.82013: (Sim:0h46m14s) 
CPU  3 inst:   66000000 cyc:   68714278 now IPC :0.73080: AVG IPC :0.94490: L2-Pf-HR :0.93934: L2-HR :0.82417: (Sim:0h46m18s) 
CPU  1 inst:   64000005 cyc:   69486439 now IPC :0.80269: AVG IPC :0.90505: L2-Pf-HR :0.94346: L2-HR :0.82456: (Sim:0h46m40s) 
CPU  0 inst:   65000001 cyc:   69512785 now IPC :0.76007: AVG IPC :0.91929: L2-Pf-HR :0.95753: L2-HR :0.84012: (Sim:0h46m41s) 
CPU  2 inst:   67000005 cyc:   69901145 now IPC :0.75434: AVG IPC :0.94314: L2-Pf-HR :0.90919: L2-HR :0.82051: (Sim:0h46m51s) 
CPU  3 inst:   67000005 cyc:   69989760 now IPC :0.78402: AVG IPC :0.94193: L2-Pf-HR :0.93914: L2-HR :0.82418: (Sim:0h46m53s) 
CPU  0 inst:   66000000 cyc:   70739046 now IPC :0.81549: AVG IPC :0.91746: L2-Pf-HR :0.95745: L2-HR :0.84060: (Sim:0h47m15s) 
CPU  1 inst:   65000001 cyc:   70858374 now IPC :0.72889: AVG IPC :0.90160: L2-Pf-HR :0.94309: L2-HR :0.82406: (Sim:0h47m19s) 
CPU  2 inst:   68000000 cyc:   71059230 now IPC :0.86349: AVG IPC :0.94183: L2-Pf-HR :0.90983: L2-HR :0.82110: (Sim:0h47m29s) 
CPU  3 inst:   68000000 cyc:   71259400 now IPC :0.78762: AVG IPC :0.93914: L2-Pf-HR :0.93935: L2-HR :0.82445: (Sim:0h47m39s) 
CPU  0 inst:   67000000 cyc:   71982073 now IPC :0.80449: AVG IPC :0.91549: L2-Pf-HR :0.95738: L2-HR :0.84081: (Sim:0h48m14s) 
CPU  1 inst:   66000000 cyc:   71999316 now IPC :0.87647: AVG IPC :0.90119: L2-Pf-HR :0.94364: L2-HR :0.82448: (Sim:0h48m14s) 
CPU  2 inst:   69000003 cyc:   72169905 now IPC :0.90036: AVG IPC :0.94118: L2-Pf-HR :0.90995: L2-HR :0.82100: (Sim:0h48m23s) 
CPU  3 inst:   69000003 cyc:   72571610 now IPC :0.76208: AVG IPC :0.93589: L2-Pf-HR :0.93962: L2-HR :0.82435: (Sim:0h48m42s) 
CPU  1 inst:   67000005 cyc:   73183301 now IPC :0.84461: AVG IPC :0.90026: L2-Pf-HR :0.94401: L2-HR :0.82458: (Sim:0h49m11s) 
CPU  0 inst:   68000005 cyc:   73198156 now IPC :0.82232: AVG IPC :0.91392: L2-Pf-HR :0.95708: L2-HR :0.84087: (Sim:0h49m12s) 
CPU  2 inst:   70000001 cyc:   73292390 now IPC :0.89088: AVG IPC :0.94040: L2-Pf-HR :0.91016: L2-HR :0.82105: (Sim:0h49m16s) 
CPU  3 inst:   70000001 cyc:   73824977 now IPC :0.79785: AVG IPC :0.93352: L2-Pf-HR :0.93980: L2-HR :0.82430: (Sim:0h49m42s) 
CPU  0 inst:   69000003 cyc:   74366144 now IPC :0.85617: AVG IPC :0.91300: L2-Pf-HR :0.95701: L2-HR :0.84090: (Sim:0h50m7s) 
CPU  1 inst:   68000005 cyc:   74399641 now IPC :0.82214: AVG IPC :0.89897: L2-Pf-HR :0.94436: L2-HR :0.82466: (Sim:0h50m9s) 
CPU  2 inst:   71000002 cyc:   74472922 now IPC :0.84708: AVG IPC :0.93890: L2-Pf-HR :0.91042: L2-HR :0.82107: (Sim:0h50m13s) 
CPU  3 inst:   71000002 cyc:   75044309 now IPC :0.82012: AVG IPC :0.93165: L2-Pf-HR :0.93999: L2-HR :0.82432: (Sim:0h50m40s) 
CPU  0 inst:   70000001 cyc:   75556200 now IPC :0.84029: AVG IPC :0.91184: L2-Pf-HR :0.95690: L2-HR :0.84096: (Sim:0h51m5s) 
CPU  2 inst:   72000001 cyc:   75686631 now IPC :0.82392: AVG IPC :0.93703: L2-Pf-HR :0.91040: L2-HR :0.82093: (Sim:0h51m10s) 
CPU  1 inst:   69000003 cyc:   75689678 now IPC :0.77517: AVG IPC :0.89683: L2-Pf-HR :0.94470: L2-HR :0.82474: (Sim:0h51m10s) 
CPU  3 inst:   72000001 cyc:   76255348 now IPC :0.82574: AVG IPC :0.92995: L2-Pf-HR :0.94020: L2-HR :0.82455: (Sim:0h51m37s) 
CPU  0 inst:   71000002 cyc:   76764182 now IPC :0.82783: AVG IPC :0.91050: L2-Pf-HR :0.95658: L2-HR :0.84090: (Sim:0h52m2s) 
CPU  2 inst:   73000003 cyc:   76912721 now IPC :0.81560: AVG IPC :0.93507: L2-Pf-HR :0.91039: L2-HR :0.82086: (Sim:0h52m9s) 
CPU  1 inst:   70000001 cyc:   76949222 now IPC :0.79394: AVG IPC :0.89513: L2-Pf-HR :0.94507: L2-HR :0.82497: (Sim:0h52m11s) 
CPU  3 inst:   73000000 cyc:   77419616 now IPC :0.85891: AVG IPC :0.92887: L2-Pf-HR :0.94023: L2-HR :0.82482: (Sim:0h52m33s) 
CPU  0 inst:   72000001 cyc:   77927004 now IPC :0.85998: AVG IPC :0.90974: L2-Pf-HR :0.95633: L2-HR :0.84077: (Sim:0h52m58s) 
CPU  2 inst:   74000001 cyc:   78089272 now IPC :0.84994: AVG IPC :0.93377: L2-Pf-HR :0.91036: L2-HR :0.82074: (Sim:0h53m5s) 
CPU  1 inst:   71000002 cyc:   78219295 now IPC :0.78736: AVG IPC :0.89335: L2-Pf-HR :0.94538: L2-HR :0.82500: (Sim:0h53m12s) 
CPU  3 inst:   74000000 cyc:   78670984 now IPC :0.79913: AVG IPC :0.92678: L2-Pf-HR :0.94029: L2-HR :0.82466: (Sim:0h53m33s) 
CPU  0 inst:   73000003 cyc:   79064335 now IPC :0.87925: AVG IPC :0.90929: L2-Pf-HR :0.95583: L2-HR :0.84072: (Sim:0h53m53s) 
CPU  2 inst:   75000003 cyc:   79229844 now IPC :0.87675: AVG IPC :0.93294: L2-Pf-HR :0.91016: L2-HR :0.82066: (Sim:0h54m1s) 
CPU  1 inst:   72000001 cyc:   79437002 now IPC :0.82121: AVG IPC :0.89223: L2-Pf-HR :0.94572: L2-HR :0.82513: (Sim:0h54m10s) 
CPU  3 inst:   75000000 cyc:   79856946 now IPC :0.84320: AVG IPC :0.92552: L2-Pf-HR :0.94028: L2-HR :0.82460: (Sim:0h54m31s) 
CPU  0 inst:   74000005 cyc:   80224018 now IPC :0.86231: AVG IPC :0.90860: L2-Pf-HR :0.95553: L2-HR :0.84064: (Sim:0h54m49s) 
CPU  2 inst:   76000001 cyc:   80342170 now IPC :0.89902: AVG IPC :0.93246: L2-Pf-HR :0.90986: L2-HR :0.82033: (Sim:0h54m55s) 
CPU  1 inst:   73000003 cyc:   80659497 now IPC :0.81800: AVG IPC :0.89110: L2-Pf-HR :0.94583: L2-HR :0.82505: (Sim:0h55m10s) 
CPU  3 inst:   76000001 cyc:   81075977 now IPC :0.82032: AVG IPC :0.92392: L2-Pf-HR :0.94026: L2-HR :0.82464: (Sim:0h55m29s) 
CPU  0 inst:   75000003 cyc:   81432631 now IPC :0.82739: AVG IPC :0.90738: L2-Pf-HR :0.95505: L2-HR :0.84048: (Sim:0h55m47s) 
CPU  2 inst:   77000001 cyc:   81567644 now IPC :0.81601: AVG IPC :0.93069: L2-Pf-HR :0.90923: L2-HR :0.82008: (Sim:0h55m53s) 
CPU  1 inst:   74000001 cyc:   82005402 now IPC :0.74299: AVG IPC :0.88863: L2-Pf-HR :0.94584: L2-HR :0.82496: (Sim:0h56m13s) 
CPU  3 inst:   77000001 cyc:   82414677 now IPC :0.74699: AVG IPC :0.92101: L2-Pf-HR :0.93951: L2-HR :0.82435: (Sim:0h56m32s) 
CPU  0 inst:   76000001 cyc:   82641844 now IPC :0.82698: AVG IPC :0.90619: L2-Pf-HR :0.95427: L2-HR :0.84019: (Sim:0h56m43s) 
CPU  2 inst:   78000001 cyc:   82729736 now IPC :0.86052: AVG IPC :0.92970: L2-Pf-HR :0.90936: L2-HR :0.82019: (Sim:0h56m47s) 
CPU  1 inst:   75000003 cyc:   83254092 now IPC :0.80084: AVG IPC :0.88730: L2-Pf-HR :0.94579: L2-HR :0.82478: (Sim:0h57m11s) 
CPU  3 inst:   78000001 cyc:   83635145 now IPC :0.81936: AVG IPC :0.91951: L2-Pf-HR :0.93927: L2-HR :0.82439: (Sim:0h57m30s) 
CPU  0 inst:   77000001 cyc:   83905804 now IPC :0.79116: AVG IPC :0.90444: L2-Pf-HR :0.95356: L2-HR :0.83988: (Sim:0h57m43s) 
CPU  2 inst:   79000000 cyc:   83921262 now IPC :0.83926: AVG IPC :0.92840: L2-Pf-HR :0.90963: L2-HR :0.82048: (Sim:0h57m44s) 
CPU  1 inst:   76000001 cyc:   84406326 now IPC :0.86788: AVG IPC :0.88703: L2-Pf-HR :0.94577: L2-HR :0.82469: (Sim:0h58m8s) 
CPU  3 inst:   79000000 cyc:   84786276 now IPC :0.86871: AVG IPC :0.91881: L2-Pf-HR :0.93891: L2-HR :0.82436: (Sim:0h58m26s) 
CPU  2 inst:   80000005 cyc:   85074794 now IPC :0.86691: AVG IPC :0.92755: L2-Pf-HR :0.90996: L2-HR :0.82090: (Sim:0h58m39s) 
CPU  0 inst:   78000001 cyc:   85188406 now IPC :0.77967: AVG IPC :0.90254: L2-Pf-HR :0.95384: L2-HR :0.84007: (Sim:0h58m43s) 
CPU  1 inst:   77000001 cyc:   85671084 now IPC :0.79067: AVG IPC :0.88559: L2-Pf-HR :0.94481: L2-HR :0.82438: (Sim:0h59m7s) 
CPU  3 inst:   80000005 cyc:   86009053 now IPC :0.81781: AVG IPC :0.91736: L2-Pf-HR :0.93880: L2-HR :0.82444: (Sim:0h59m22s) 
CPU  2 inst:   81000005 cyc:   86255877 now IPC :0.84668: AVG IPC :0.92643: L2-Pf-HR :0.90986: L2-HR :0.82078: (Sim:0h59m34s) 
CPU  0 inst:   79000000 cyc:   86484758 now IPC :0.77139: AVG IPC :0.90055: L2-Pf-HR :0.95390: L2-HR :0.84019: (Sim:0h59m45s) 
CPU  1 inst:   78000001 cyc:   86749364 now IPC :0.92740: AVG IPC :0.88612: L2-Pf-HR :0.94509: L2-HR :0.82444: (Sim:0h59m57s) 
CPU  3 inst:   81000005 cyc:   87264919 now IPC :0.79626: AVG IPC :0.91560: L2-Pf-HR :0.93907: L2-HR :0.82444: (Sim:1h0m22s) 
CPU  2 inst:   82000004 cyc:   87491555 now IPC :0.80927: AVG IPC :0.92476: L2-Pf-HR :0.90978: L2-HR :0.82071: (Sim:1h0m32s) 
CPU  1 inst:   79000000 cyc:   87756264 now IPC :0.99315: AVG IPC :0.88736: L2-Pf-HR :0.94523: L2-HR :0.82450: (Sim:1h0m44s) 
CPU  0 inst:   80000005 cyc:   87852274 now IPC :0.73126: AVG IPC :0.89789: L2-Pf-HR :0.95398: L2-HR :0.84026: (Sim:1h0m49s) 
CPU  3 inst:   82000004 cyc:   88621679 now IPC :0.73705: AVG IPC :0.91283: L2-Pf-HR :0.93890: L2-HR :0.82440: (Sim:1h1m22s) 
CPU  2 inst:   83000005 cyc:   88803014 now IPC :0.76251: AVG IPC :0.92234: L2-Pf-HR :0.90996: L2-HR :0.82067: (Sim:1h1m31s) 
CPU  1 inst:   80000005 cyc:   89013599 now IPC :0.79534: AVG IPC :0.88605: L2-Pf-HR :0.94514: L2-HR :0.82443: (Sim:1h1m41s) 
CPU  0 inst:   81000005 cyc:   89328669 now IPC :0.67733: AVG IPC :0.89420: L2-Pf-HR :0.95414: L2-HR :0.84022: (Sim:1h1m49s) 
CPU  2 inst:   84000005 cyc:   89748308 now IPC :1.05787: AVG IPC :0.92378: L2-Pf-HR :0.90997: L2-HR :0.82067: (Sim:1h2m1s) 
CPU  3 inst:   83000005 cyc:   90119063 now IPC :0.66783: AVG IPC :0.90872: L2-Pf-HR :0.93897: L2-HR :0.82433: (Sim:1h2m10s) 
CPU  1 inst:   81000005 cyc:   90483133 now IPC :0.68049: AVG IPC :0.88267: L2-Pf-HR :0.94501: L2-HR :0.82440: (Sim:1h2m20s) 
CPU  0 inst:   82000004 cyc:   90733127 now IPC :0.71202: AVG IPC :0.89135: L2-Pf-HR :0.95425: L2-HR :0.84033: (Sim:1h2m26s) 
CPU  2 inst:   85000005 cyc:   90948776 now IPC :0.83301: AVG IPC :0.92257: L2-Pf-HR :0.91005: L2-HR :0.82055: (Sim:1h2m31s) 
CPU  3 inst:   84000005 cyc:   91712625 now IPC :0.62753: AVG IPC :0.90378: L2-Pf-HR :0.93920: L2-HR :0.82452: (Sim:1h2m50s) 
CPU  1 inst:   82000005 cyc:   92006032 now IPC :0.65664: AVG IPC :0.87889: L2-Pf-HR :0.94525: L2-HR :0.82470: (Sim:1h2m58s) 
CPU  0 inst:   83000005 cyc:   92069540 now IPC :0.74827: AVG IPC :0.88925: L2-Pf-HR :0.95450: L2-HR :0.84031: (Sim:1h3m0s) 
CPU  2 inst:   86000002 cyc:   92357460 now IPC :0.70988: AVG IPC :0.91929: L2-Pf-HR :0.91014: L2-HR :0.82063: (Sim:1h3m7s) 
CPU  3 inst:   85000001 cyc:   93082585 now IPC :0.72995: AVG IPC :0.90119: L2-Pf-HR :0.93923: L2-HR :0.82471: (Sim:1h3m28s) 
CPU  0 inst:   84000005 cyc:   93104970 now IPC :0.96578: AVG IPC :0.89011: L2-Pf-HR :0.95462: L2-HR :0.84031: (Sim:1h3m28s) 
CPU  1 inst:   83000005 cyc:   93416331 now IPC :0.70907: AVG IPC :0.87630: L2-Pf-HR :0.94530: L2-HR :0.82459: (Sim:1h3m37s) 
CPU  2 inst:   87000003 cyc:   93488434 now IPC :0.88419: AVG IPC :0.91886: L2-Pf-HR :0.91025: L2-HR :0.82079: (Sim:1h3m40s) 
CPU  0 inst:   85000001 cyc:   94215192 now IPC :0.90072: AVG IPC :0.89024: L2-Pf-HR :0.95471: L2-HR :0.84036: (Sim:1h4m2s) 
CPU  3 inst:   86000003 cyc:   94352785 now IPC :0.78728: AVG IPC :0.89964: L2-Pf-HR :0.93942: L2-HR :0.82476: (Sim:1h4m6s) 
CPU  2 inst:   88000002 cyc:   94452269 now IPC :1.03752: AVG IPC :0.92008: L2-Pf-HR :0.91025: L2-HR :0.82068: (Sim:1h4m8s) 
CPU  1 inst:   84000005 cyc:   94683468 now IPC :0.78918: AVG IPC :0.87512: L2-Pf-HR :0.94529: L2-HR :0.82484: (Sim:1h4m15s) 
CPU  0 inst:   86000004 cyc:   95502474 now IPC :0.77683: AVG IPC :0.88869: L2-Pf-HR :0.95472: L2-HR :0.84048: (Sim:1h4m48s) 
CPU  2 inst:   89000000 cyc:   95577009 now IPC :0.88909: AVG IPC :0.91972: L2-Pf-HR :0.91014: L2-HR :0.82063: (Sim:1h4m51s) 
CPU  3 inst:   87000003 cyc:   95795949 now IPC :0.69292: AVG IPC :0.89649: L2-Pf-HR :0.93944: L2-HR :0.82476: (Sim:1h5m1s) 
CPU  1 inst:   85000005 cyc:   96019263 now IPC :0.74862: AVG IPC :0.87334: L2-Pf-HR :0.94513: L2-HR :0.82483: (Sim:1h5m10s) 
CPU  2 inst:   90000000 cyc:   96838239 now IPC :0.79288: AVG IPC :0.91805: L2-Pf-HR :0.91046: L2-HR :0.82086: (Sim:1h5m49s) 
CPU  0 inst:   87000003 cyc:   96862388 now IPC :0.73534: AVG IPC :0.88652: L2-Pf-HR :0.95490: L2-HR :0.84051: (Sim:1h5m51s) 
CPU  1 inst:   86000005 cyc:   97005011 now IPC :1.01446: AVG IPC :0.87479: L2-Pf-HR :0.94515: L2-HR :0.82498: (Sim:1h5m58s) 
CPU  3 inst:   88000002 cyc:   97046146 now IPC :0.79987: AVG IPC :0.89524: L2-Pf-HR :0.93925: L2-HR :0.82489: (Sim:1h5m59s) 
CPU  1 inst:   87000003 cyc:   98035508 now IPC :0.97040: AVG IPC :0.87581: L2-Pf-HR :0.94522: L2-HR :0.82500: (Sim:1h6m45s) 
CPU  2 inst:   91000000 cyc:   98177537 now IPC :0.74666: AVG IPC :0.91569: L2-Pf-HR :0.91072: L2-HR :0.82115: (Sim:1h6m51s) 
CPU  0 inst:   88000002 cyc:   98266217 now IPC :0.71234: AVG IPC :0.88400: L2-Pf-HR :0.95508: L2-HR :0.84051: (Sim:1h6m55s) 
CPU  3 inst:   89000000 cyc:   98373160 now IPC :0.75357: AVG IPC :0.89331: L2-Pf-HR :0.93905: L2-HR :0.82492: (Sim:1h7m0s) 
CPU  1 inst:   88000003 cyc:   99250096 now IPC :0.82332: AVG IPC :0.87516: L2-Pf-HR :0.94525: L2-HR :0.82508: (Sim:1h7m41s) 
CPU  2 inst:   92000003 cyc:   99387940 now IPC :0.82617: AVG IPC :0.91458: L2-Pf-HR :0.91129: L2-HR :0.82165: (Sim:1h7m48s) 
CPU  3 inst:   90000000 cyc:   99429813 now IPC :0.94638: AVG IPC :0.89388: L2-Pf-HR :0.93923: L2-HR :0.82496: (Sim:1h7m51s) 
CPU  0 inst:   89000000 cyc:   99567464 now IPC :0.76849: AVG IPC :0.88248: L2-Pf-HR :0.95493: L2-HR :0.84040: (Sim:1h7m57s) 
CPU  2 inst:   93000003 cyc:  100377565 now IPC :1.01048: AVG IPC :0.91554: L2-Pf-HR :0.91136: L2-HR :0.82160: (Sim:1h8m22s) 
CPU  3 inst:   91000004 cyc:  100415596 now IPC :1.01443: AVG IPC :0.89507: L2-Pf-HR :0.93919: L2-HR :0.82505: (Sim:1h8m24s) 
CPU  1 inst:   89000000 cyc:  100441005 now IPC :0.83969: AVG IPC :0.87473: L2-Pf-HR :0.94487: L2-HR :0.82511: (Sim:1h8m24s) 
CPU  0 inst:   90000000 cyc:  100703481 now IPC :0.88027: AVG IPC :0.88245: L2-Pf-HR :0.95528: L2-HR :0.84064: (Sim:1h8m33s) 
CPU  2 inst:   94000005 cyc:  101282204 now IPC :1.10542: AVG IPC :0.91725: L2-Pf-HR :0.91148: L2-HR :0.82165: (Sim:1h8m51s) 
CPU  3 inst:   92000003 cyc:  101431340 now IPC :0.98450: AVG IPC :0.89598: L2-Pf-HR :0.93952: L2-HR :0.82521: (Sim:1h8m56s) 
CPU  1 inst:   90000000 cyc:  101499904 now IPC :0.94438: AVG IPC :0.87547: L2-Pf-HR :0.94508: L2-HR :0.82535: (Sim:1h8m58s) 
CPU  0 inst:   91000002 cyc:  101866858 now IPC :0.85957: AVG IPC :0.88219: L2-Pf-HR :0.95561: L2-HR :0.84084: (Sim:1h9m9s) 
CPU  2 inst:   95000004 cyc:  102366708 now IPC :0.92208: AVG IPC :0.91730: L2-Pf-HR :0.91165: L2-HR :0.82160: (Sim:1h9m23s) 
CPU  3 inst:   93000000 cyc:  102569472 now IPC :0.87863: AVG IPC :0.89578: L2-Pf-HR :0.93970: L2-HR :0.82525: (Sim:1h9m29s) 
CPU  1 inst:   91000004 cyc:  102598271 now IPC :0.91045: AVG IPC :0.87585: L2-Pf-HR :0.94536: L2-HR :0.82543: (Sim:1h9m30s) 
CPU  0 inst:   92000003 cyc:  103191046 now IPC :0.75518: AVG IPC :0.88054: L2-Pf-HR :0.95589: L2-HR :0.84097: (Sim:1h9m47s) 
CPU  1 inst:   92000003 cyc:  103536871 now IPC :1.06542: AVG IPC :0.87758: L2-Pf-HR :0.94562: L2-HR :0.82549: (Sim:1h9m57s) 
CPU  2 inst:   96000002 cyc:  103561741 now IPC :0.83680: AVG IPC :0.91637: L2-Pf-HR :0.91172: L2-HR :0.82166: (Sim:1h9m58s) 
CPU  3 inst:   94000005 cyc:  103857985 now IPC :0.77609: AVG IPC :0.89428: L2-Pf-HR :0.93991: L2-HR :0.82540: (Sim:1h10m6s) 
CPU  0 inst:   93000003 cyc:  104509738 now IPC :0.75833: AVG IPC :0.87899: L2-Pf-HR :0.95600: L2-HR :0.84101: (Sim:1h10m23s) 
CPU  1 inst:   93000003 cyc:  104677770 now IPC :0.87650: AVG IPC :0.87757: L2-Pf-HR :0.94578: L2-HR :0.82547: (Sim:1h10m28s) 
CPU  2 inst:   97000003 cyc:  104975510 now IPC :0.70733: AVG IPC :0.91352: L2-Pf-HR :0.91170: L2-HR :0.82158: (Sim:1h10m35s) 
CPU  3 inst:   95000004 cyc:  105351451 now IPC :0.66958: AVG IPC :0.89107: L2-Pf-HR :0.94012: L2-HR :0.82535: (Sim:1h10m46s) 
CPU  0 inst:   94000005 cyc:  105660756 now IPC :0.86880: AVG IPC :0.87888: L2-Pf-HR :0.95619: L2-HR :0.84116: (Sim:1h10m54s) 
CPU  1 inst:   94000005 cyc:  105961572 now IPC :0.77894: AVG IPC :0.87636: L2-Pf-HR :0.94595: L2-HR :0.82576: (Sim:1h11m3s) 
CPU  2 inst:   98000003 cyc:  106301952 now IPC :0.75390: AVG IPC :0.91151: L2-Pf-HR :0.91183: L2-HR :0.82169: (Sim:1h11m12s) 
CPU  3 inst:   96000002 cyc:  106636839 now IPC :0.77797: AVG IPC :0.88969: L2-Pf-HR :0.94035: L2-HR :0.82551: (Sim:1h11m21s) 
CPU  0 inst:   95000004 cyc:  106675520 now IPC :0.98545: AVG IPC :0.87990: L2-Pf-HR :0.95644: L2-HR :0.84117: (Sim:1h11m22s) 
CPU  1 inst:   95000004 cyc:  107382345 now IPC :0.70384: AVG IPC :0.87406: L2-Pf-HR :0.94619: L2-HR :0.82573: (Sim:1h11m42s) 
CPU  2 inst:   99000001 cyc:  107477822 now IPC :0.85043: AVG IPC :0.91084: L2-Pf-HR :0.91192: L2-HR :0.82185: (Sim:1h11m44s) 
CPU  0 inst:   96000000 cyc:  107799016 now IPC :0.89008: AVG IPC :0.88001: L2-Pf-HR :0.95664: L2-HR :0.84122: (Sim:1h11m54s) 
CPU  3 inst:   97000003 cyc:  107892986 now IPC :0.79609: AVG IPC :0.88859: L2-Pf-HR :0.94060: L2-HR :0.82573: (Sim:1h11m57s) 
CPU  2 inst:  100000001 cyc:  108430170 now IPC :1.05004: AVG IPC :0.91207: L2-Pf-HR :0.91198: L2-HR :0.82175: (Sim:1h12m23s) 
CPU  1 inst:   96000002 cyc:  108583135 now IPC :0.83278: AVG IPC :0.87360: L2-Pf-HR :0.94625: L2-HR :0.82592: (Sim:1h12m31s) 
CPU  3 inst:   98000003 cyc:  108981846 now IPC :0.91839: AVG IPC :0.88889: L2-Pf-HR :0.94084: L2-HR :0.82575: (Sim:1h12m50s) 
CPU  0 inst:   97000003 cyc:  108983923 now IPC :0.84395: AVG IPC :0.87961: L2-Pf-HR :0.95685: L2-HR :0.84131: (Sim:1h12m50s) 
CPU  2 inst:  101000002 cyc:  109505066 now IPC :0.93032: AVG IPC :0.91225: L2-Pf-HR :0.91191: L2-HR :0.82173: (Sim:1h13m16s) 
CPU  1 inst:   97000003 cyc:  109750827 now IPC :0.85639: AVG IPC :0.87341: L2-Pf-HR :0.94622: L2-HR :0.82586: (Sim:1h13m29s) 
CPU  3 inst:   99000001 cyc:  109956180 now IPC :1.02634: AVG IPC :0.89012: L2-Pf-HR :0.94058: L2-HR :0.82569: (Sim:1h13m40s) 
CPU  0 inst:   98000003 cyc:  110127755 now IPC :0.87425: AVG IPC :0.87955: L2-Pf-HR :0.95709: L2-HR :0.84139: (Sim:1h13m48s) 
CPU  2 inst:  102000001 cyc:  110503172 now IPC :1.00190: AVG IPC :0.91307: L2-Pf-HR :0.91217: L2-HR :0.82194: (Sim:1h14m8s) 
CPU  1 inst:   98000003 cyc:  110759352 now IPC :0.99155: AVG IPC :0.87450: L2-Pf-HR :0.94623: L2-HR :0.82603: (Sim:1h14m22s) 
CPU  3 inst:  100000001 cyc:  110918260 now IPC :1.03941: AVG IPC :0.89143: L2-Pf-HR :0.94067: L2-HR :0.82587: (Sim:1h14m31s) 
CPU  0 inst:   99000001 cyc:  111187450 now IPC :0.94367: AVG IPC :0.88017: L2-Pf-HR :0.95715: L2-HR :0.84147: (Sim:1h14m45s) 
CPU  2 inst:  103000002 cyc:  111539786 now IPC :0.96468: AVG IPC :0.91355: L2-Pf-HR :0.91239: L2-HR :0.82222: (Sim:1h15m3s) 
CPU  1 inst:   99000001 cyc:  111712363 now IPC :1.04930: AVG IPC :0.87600: L2-Pf-HR :0.94621: L2-HR :0.82602: (Sim:1h15m12s) 
CPU  3 inst:  101000005 cyc:  111964127 now IPC :0.95615: AVG IPC :0.89204: L2-Pf-HR :0.94049: L2-HR :0.82586: (Sim:1h15m26s) 
CPU  0 inst:  100000001 cyc:  112208836 now IPC :0.97906: AVG IPC :0.88108: L2-Pf-HR :0.95729: L2-HR :0.84153: (Sim:1h15m39s) 
CPU  2 inst:  104000005 cyc:  112508257 now IPC :1.03256: AVG IPC :0.91459: L2-Pf-HR :0.91283: L2-HR :0.82268: (Sim:1h15m55s) 
CPU  1 inst:  100000001 cyc:  112724351 now IPC :0.98815: AVG IPC :0.87702: L2-Pf-HR :0.94643: L2-HR :0.82614: (Sim:1h16m5s) 
CPU  3 inst:  102000000 cyc:  113005833 now IPC :0.95996: AVG IPC :0.89267: L2-Pf-HR :0.94057: L2-HR :0.82589: (Sim:1h16m19s) 
CPU  0 inst:  101000005 cyc:  113408056 now IPC :0.83388: AVG IPC :0.88057: L2-Pf-HR :0.95701: L2-HR :0.84145: (Sim:1h16m38s) 
CPU  2 inst:  105000001 cyc:  113624449 now IPC :0.89590: AVG IPC :0.91440: L2-Pf-HR :0.91288: L2-HR :0.82260: (Sim:1h16m50s) 
CPU  1 inst:  101000002 cyc:  113808247 now IPC :0.92260: AVG IPC :0.87746: L2-Pf-HR :0.94624: L2-HR :0.82617: (Sim:1h17m0s) 
CPU  3 inst:  103000004 cyc:  114066816 now IPC :0.94253: AVG IPC :0.89314: L2-Pf-HR :0.94075: L2-HR :0.82602: (Sim:1h17m13s) 
CPU  0 inst:  102000001 cyc:  114451140 now IPC :0.95869: AVG IPC :0.88129: L2-Pf-HR :0.95730: L2-HR :0.84171: (Sim:1h17m34s) 
CPU  2 inst:  106000000 cyc:  114553430 now IPC :1.07645: AVG IPC :0.91573: L2-Pf-HR :0.91294: L2-HR :0.82266: (Sim:1h17m40s) 
CPU  1 inst:  102000001 cyc:  114728145 now IPC :1.08708: AVG IPC :0.87915: L2-Pf-HR :0.94613: L2-HR :0.82628: (Sim:1h17m45s) 
CPU  3 inst:  104000002 cyc:  115091873 now IPC :0.97555: AVG IPC :0.89388: L2-Pf-HR :0.94078: L2-HR :0.82609: (Sim:1h17m57s) 
CPU  0 inst:  103000003 cyc:  115447019 now IPC :1.00414: AVG IPC :0.88236: L2-Pf-HR :0.95762: L2-HR :0.84191: (Sim:1h18m9s) 
CPU  2 inst:  107000000 cyc:  115494604 now IPC :1.06250: AVG IPC :0.91693: L2-Pf-HR :0.91310: L2-HR :0.82263: (Sim:1h18m11s) 
CPU  1 inst:  103000002 cyc:  115715345 now IPC :1.01297: AVG IPC :0.88030: L2-Pf-HR :0.94625: L2-HR :0.82638: (Sim:1h18m18s) 
CPU  3 inst:  105000001 cyc:  116163340 now IPC :0.93330: AVG IPC :0.89424: L2-Pf-HR :0.94078: L2-HR :0.82610: (Sim:1h18m32s) 
CPU  2 inst:  108000003 cyc:  116393395 now IPC :1.11261: AVG IPC :0.91846: L2-Pf-HR :0.91314: L2-HR :0.82264: (Sim:1h18m40s) 
CPU  0 inst:  104000000 cyc:  116414512 now IPC :1.03360: AVG IPC :0.88363: L2-Pf-HR :0.95777: L2-HR :0.84201: (Sim:1h18m41s) 
CPU  1 inst:  104000000 cyc:  116822311 now IPC :0.90337: AVG IPC :0.88052: L2-Pf-HR :0.94637: L2-HR :0.82642: (Sim:1h18m54s) 
CPU  3 inst:  106000000 cyc:  117138186 now IPC :1.02580: AVG IPC :0.89535: L2-Pf-HR :0.94091: L2-HR :0.82622: (Sim:1h19m4s) 
CPU  0 inst:  105000001 cyc:  117361283 now IPC :1.05622: AVG IPC :0.88503: L2-Pf-HR :0.95772: L2-HR :0.84197: (Sim:1h19m11s) 
CPU  2 inst:  109000003 cyc:  117398288 now IPC :0.99513: AVG IPC :0.91912: L2-Pf-HR :0.91311: L2-HR :0.82258: (Sim:1h19m12s) 
CPU  1 inst:  105000001 cyc:  117931645 now IPC :0.90144: AVG IPC :0.88072: L2-Pf-HR :0.94638: L2-HR :0.82642: (Sim:1h19m29s) 
CPU  3 inst:  107000000 cyc:  118166289 now IPC :0.97267: AVG IPC :0.89603: L2-Pf-HR :0.94102: L2-HR :0.82616: (Sim:1h19m37s) 
CPU  0 inst:  106000000 cyc:  118326246 now IPC :1.03631: AVG IPC :0.88628: L2-Pf-HR :0.95798: L2-HR :0.84220: (Sim:1h19m46s) 
CPU  2 inst:  110000000 cyc:  118382458 now IPC :1.01608: AVG IPC :0.91993: L2-Pf-HR :0.91324: L2-HR :0.82266: (Sim:1h19m49s) 
CPU  1 inst:  106000000 cyc:  118944149 now IPC :0.98765: AVG IPC :0.88164: L2-Pf-HR :0.94659: L2-HR :0.82668: (Sim:1h20m19s) 
CPU  3 inst:  108000003 cyc:  119078411 now IPC :1.09635: AVG IPC :0.89757: L2-Pf-HR :0.94118: L2-HR :0.82629: (Sim:1h20m27s) 
CPU  2 inst:  111000003 cyc:  119277386 now IPC :1.11741: AVG IPC :0.92143: L2-Pf-HR :0.91336: L2-HR :0.82279: (Sim:1h20m38s) 
CPU  0 inst:  107000000 cyc:  119365670 now IPC :0.96207: AVG IPC :0.88694: L2-Pf-HR :0.95829: L2-HR :0.84227: (Sim:1h20m42s) 
CPU  1 inst:  107000000 cyc:  119937934 now IPC :1.00625: AVG IPC :0.88268: L2-Pf-HR :0.94655: L2-HR :0.82658: (Sim:1h21m13s) 
CPU  3 inst:  109000003 cyc:  120047178 now IPC :1.03224: AVG IPC :0.89867: L2-Pf-HR :0.94144: L2-HR :0.82647: (Sim:1h21m19s) 
CPU  2 inst:  112000003 cyc:  120214288 now IPC :1.06735: AVG IPC :0.92257: L2-Pf-HR :0.91338: L2-HR :0.82270: (Sim:1h21m28s) 
CPU  0 inst:  108000003 cyc:  120357538 now IPC :1.00820: AVG IPC :0.88795: L2-Pf-HR :0.95848: L2-HR :0.84230: (Sim:1h21m36s) 
CPU  1 inst:  108000003 cyc:  120988756 now IPC :0.95164: AVG IPC :0.88329: L2-Pf-HR :0.94666: L2-HR :0.82673: (Sim:1h22m7s) 
CPU  3 inst:  110000000 cyc:  121110276 now IPC :0.94064: AVG IPC :0.89904: L2-Pf-HR :0.94143: L2-HR :0.82641: (Sim:1h22m13s) 
CPU  2 inst:  113000003 cyc:  121310279 now IPC :0.91242: AVG IPC :0.92248: L2-Pf-HR :0.91313: L2-HR :0.82260: (Sim:1h22m24s) 
CPU  0 inst:  109000003 cyc:  121434291 now IPC :0.92872: AVG IPC :0.88831: L2-Pf-HR :0.95869: L2-HR :0.84237: (Sim:1h22m30s) 
CPU  1 inst:  109000003 cyc:  122020965 now IPC :0.96880: AVG IPC :0.88401: L2-Pf-HR :0.94658: L2-HR :0.82664: (Sim:1h23m1s) 
CPU  3 inst:  111000003 cyc:  122118081 now IPC :0.99226: AVG IPC :0.89982: L2-Pf-HR :0.94135: L2-HR :0.82646: (Sim:1h23m7s) 
CPU  2 inst:  114000005 cyc:  122278463 now IPC :1.03286: AVG IPC :0.92336: L2-Pf-HR :0.91337: L2-HR :0.82282: (Sim:1h23m15s) 
CPU  0 inst:  110000000 cyc:  122532912 now IPC :0.91023: AVG IPC :0.88851: L2-Pf-HR :0.95893: L2-HR :0.84244: (Sim:1h23m24s) 
CPU  1 inst:  110000000 cyc:  122980447 now IPC :1.04223: AVG IPC :0.88526: L2-Pf-HR :0.94651: L2-HR :0.82680: (Sim:1h23m39s) 
CPU  3 inst:  112000000 cyc:  123160594 now IPC :0.95922: AVG IPC :0.90032: L2-Pf-HR :0.94125: L2-HR :0.82658: (Sim:1h23m45s) 
CPU  2 inst:  115000004 cyc:  123263533 now IPC :1.01516: AVG IPC :0.92410: L2-Pf-HR :0.91357: L2-HR :0.82301: (Sim:1h23m48s) 
CPU  0 inst:  111000000 cyc:  123675143 now IPC :0.87548: AVG IPC :0.88839: L2-Pf-HR :0.95888: L2-HR :0.84248: (Sim:1h24m0s) 
CPU  1 inst:  111000000 cyc:  124048658 now IPC :0.93614: AVG IPC :0.88570: L2-Pf-HR :0.94651: L2-HR :0.82676: (Sim:1h24m11s) 
CPU  2 inst:  116000004 cyc:  124430309 now IPC :0.85706: AVG IPC :0.92347: L2-Pf-HR :0.91382: L2-HR :0.82336: (Sim:1h24m24s) 
CPU  3 inst:  113000003 cyc:  124451408 now IPC :0.77471: AVG IPC :0.89901: L2-Pf-HR :0.94099: L2-HR :0.82651: (Sim:1h24m25s) 
CPU  0 inst:  112000003 cyc:  124694228 now IPC :0.98128: AVG IPC :0.88916: L2-Pf-HR :0.95904: L2-HR :0.84245: (Sim:1h24m37s) 
CPU  1 inst:  112000003 cyc:  125241450 now IPC :0.83837: AVG IPC :0.88525: L2-Pf-HR :0.94662: L2-HR :0.82679: (Sim:1h25m3s) 
CPU  2 inst:  117000001 cyc:  125569972 now IPC :0.87745: AVG IPC :0.92305: L2-Pf-HR :0.91386: L2-HR :0.82329: (Sim:1h25m20s) 
CPU  3 inst:  114000000 cyc:  125696713 now IPC :0.80301: AVG IPC :0.89805: L2-Pf-HR :0.94120: L2-HR :0.82653: (Sim:1h25m25s) 
CPU  0 inst:  113000003 cyc:  125876474 now IPC :0.84585: AVG IPC :0.88875: L2-Pf-HR :0.95873: L2-HR :0.84237: (Sim:1h25m34s) 
CPU  1 inst:  113000002 cyc:  126391175 now IPC :0.86977: AVG IPC :0.88510: L2-Pf-HR :0.94637: L2-HR :0.82679: (Sim:1h26m1s) 
CPU  2 inst:  118000002 cyc:  126578687 now IPC :0.99136: AVG IPC :0.92360: L2-Pf-HR :0.91385: L2-HR :0.82328: (Sim:1h26m10s) 
CPU  3 inst:  115000004 cyc:  126779151 now IPC :0.92384: AVG IPC :0.89827: L2-Pf-HR :0.94136: L2-HR :0.82657: (Sim:1h26m21s) 
CPU  0 inst:  114000005 cyc:  126916925 now IPC :0.96112: AVG IPC :0.88934: L2-Pf-HR :0.95901: L2-HR :0.84258: (Sim:1h26m28s) 
CPU  1 inst:  114000003 cyc:  127448580 now IPC :0.94571: AVG IPC :0.88561: L2-Pf-HR :0.94617: L2-HR :0.82683: (Sim:1h26m55s) 
CPU  2 inst:  119000002 cyc:  127623896 now IPC :0.95675: AVG IPC :0.92387: L2-Pf-HR :0.91400: L2-HR :0.82327: (Sim:1h27m4s) 
CPU  3 inst:  116000004 cyc:  127841760 now IPC :0.94108: AVG IPC :0.89863: L2-Pf-HR :0.94144: L2-HR :0.82672: (Sim:1h27m15s) 
CPU  0 inst:  115000004 cyc:  128032121 now IPC :0.89670: AVG IPC :0.88941: L2-Pf-HR :0.95919: L2-HR :0.84270: (Sim:1h27m25s) 
CPU  1 inst:  115000004 cyc:  128503872 now IPC :0.94761: AVG IPC :0.88612: L2-Pf-HR :0.94644: L2-HR :0.82691: (Sim:1h27m48s) 
CPU  2 inst:  120000005 cyc:  128701802 now IPC :0.92773: AVG IPC :0.92390: L2-Pf-HR :0.91395: L2-HR :0.82324: (Sim:1h27m59s) 
CPU  3 inst:  117000001 cyc:  128888743 now IPC :0.95512: AVG IPC :0.89909: L2-Pf-HR :0.94140: L2-HR :0.82670: (Sim:1h28m7s) 
CPU  0 inst:  116000004 cyc:  129271233 now IPC :0.80703: AVG IPC :0.88861: L2-Pf-HR :0.95930: L2-HR :0.84277: (Sim:1h28m25s) 
CPU  1 inst:  116000004 cyc:  129539147 now IPC :0.96593: AVG IPC :0.88677: L2-Pf-HR :0.94653: L2-HR :0.82697: (Sim:1h28m32s) 
CPU  2 inst:  121000002 cyc:  129938709 now IPC :0.80847: AVG IPC :0.92279: L2-Pf-HR :0.91392: L2-HR :0.82319: (Sim:1h28m44s) 
CPU  3 inst:  118000002 cyc:  130094296 now IPC :0.82950: AVG IPC :0.89844: L2-Pf-HR :0.94144: L2-HR :0.82674: (Sim:1h28m48s) 
CPU  0 inst:  117000001 cyc:  130562605 now IPC :0.77437: AVG IPC :0.88748: L2-Pf-HR :0.95937: L2-HR :0.84275: (Sim:1h29m1s) 
CPU  1 inst:  117000001 cyc:  130701320 now IPC :0.86045: AVG IPC :0.88653: L2-Pf-HR :0.94660: L2-HR :0.82691: (Sim:1h29m4s) 
CPU  2 inst:  122000005 cyc:  131134090 now IPC :0.83656: AVG IPC :0.92200: L2-Pf-HR :0.91406: L2-HR :0.82323: (Sim:1h29m16s) 
CPU  3 inst:  119000002 cyc:  131397950 now IPC :0.76707: AVG IPC :0.89713: L2-Pf-HR :0.94143: L2-HR :0.82674: (Sim:1h29m24s) 
CPU  0 inst:  118000002 cyc:  131894883 now IPC :0.75059: AVG IPC :0.88608: L2-Pf-HR :0.95959: L2-HR :0.84290: (Sim:1h29m38s) 
CPU  1 inst:  118000002 cyc:  131985201 now IPC :0.77889: AVG IPC :0.88548: L2-Pf-HR :0.94676: L2-HR :0.82721: (Sim:1h29m41s) 
CPU  2 inst:  123000005 cyc:  132090118 now IPC :1.04599: AVG IPC :0.92291: L2-Pf-HR :0.91420: L2-HR :0.82336: (Sim:1h29m43s) 
CPU  3 inst:  120000000 cyc:  132679674 now IPC :0.78020: AVG IPC :0.89599: L2-Pf-HR :0.94174: L2-HR :0.82685: (Sim:1h30m6s) 
CPU  2 inst:  124000001 cyc:  133229417 now IPC :0.87773: AVG IPC :0.92252: L2-Pf-HR :0.91422: L2-HR :0.82326: (Sim:1h30m29s) 
CPU  0 inst:  119000002 cyc:  133264750 now IPC :0.73000: AVG IPC :0.88447: L2-Pf-HR :0.95978: L2-HR :0.84292: (Sim:1h30m31s) 
CPU  1 inst:  119000002 cyc:  133450444 now IPC :0.68248: AVG IPC :0.88323: L2-Pf-HR :0.94673: L2-HR :0.82719: (Sim:1h30m40s) 
CPU  3 inst:  121000002 cyc:  134017731 now IPC :0.74735: AVG IPC :0.89450: L2-Pf-HR :0.94182: L2-HR :0.82708: (Sim:1h31m6s) 
CPU  2 inst:  125000004 cyc:  134401687 now IPC :0.85305: AVG IPC :0.92191: L2-Pf-HR :0.91384: L2-HR :0.82294: (Sim:1h31m25s) 
CPU  0 inst:  120000000 cyc:  134419456 now IPC :0.86602: AVG IPC :0.88431: L2-Pf-HR :0.95995: L2-HR :0.84295: (Sim:1h31m25s) 
CPU  1 inst:  120000000 cyc:  134723671 now IPC :0.78540: AVG IPC :0.88230: L2-Pf-HR :0.94683: L2-HR :0.82728: (Sim:1h31m40s) 
CPU  3 inst:  122000002 cyc:  135270783 now IPC :0.79805: AVG IPC :0.89360: L2-Pf-HR :0.94186: L2-HR :0.82705: (Sim:1h32m6s) 
CPU  2 inst:  126000005 cyc:  135512500 now IPC :0.90024: AVG IPC :0.92173: L2-Pf-HR :0.91333: L2-HR :0.82245: (Sim:1h32m18s) 
CPU  0 inst:  121000002 cyc:  135526321 now IPC :0.90345: AVG IPC :0.88446: L2-Pf-HR :0.96015: L2-HR :0.84302: (Sim:1h32m19s) 
CPU  1 inst:  121000002 cyc:  135961644 now IPC :0.80777: AVG IPC :0.88162: L2-Pf-HR :0.94671: L2-HR :0.82721: (Sim:1h32m39s) 
CPU  3 inst:  123000005 cyc:  136512618 now IPC :0.80526: AVG IPC :0.89279: L2-Pf-HR :0.94195: L2-HR :0.82713: (Sim:1h33m6s) 
CPU  0 inst:  122000002 cyc:  136597841 now IPC :0.93325: AVG IPC :0.88485: L2-Pf-HR :0.96027: L2-HR :0.84303: (Sim:1h33m10s) 
CPU  2 inst:  127000001 cyc:  136614003 now IPC :0.90785: AVG IPC :0.92162: L2-Pf-HR :0.91305: L2-HR :0.82209: (Sim:1h33m11s) 
CPU  1 inst:  122000002 cyc:  137166034 now IPC :0.83030: AVG IPC :0.88116: L2-Pf-HR :0.94673: L2-HR :0.82730: (Sim:1h33m38s) 
CPU  0 inst:  123000005 cyc:  137671737 now IPC :0.93119: AVG IPC :0.88521: L2-Pf-HR :0.96035: L2-HR :0.84308: (Sim:1h34m2s) 
CPU  2 inst:  128000005 cyc:  137708212 now IPC :0.91391: AVG IPC :0.92155: L2-Pf-HR :0.91278: L2-HR :0.82176: (Sim:1h34m4s) 
CPU  3 inst:  124000002 cyc:  137784865 now IPC :0.78601: AVG IPC :0.89180: L2-Pf-HR :0.94219: L2-HR :0.82720: (Sim:1h34m7s) 
CPU  1 inst:  123000001 cyc:  138605497 now IPC :0.69470: AVG IPC :0.87921: L2-Pf-HR :0.94684: L2-HR :0.82734: (Sim:1h34m42s) 
CPU  0 inst:  124000002 cyc:  139063178 now IPC :0.71868: AVG IPC :0.88354: L2-Pf-HR :0.96042: L2-HR :0.84307: (Sim:1h35m3s) 
CPU  3 inst:  125000005 cyc:  139067470 now IPC :0.77967: AVG IPC :0.89075: L2-Pf-HR :0.94205: L2-HR :0.82694: (Sim:1h35m3s) 
CPU  2 inst:  129000005 cyc:  139165304 now IPC :0.68630: AVG IPC :0.91907: L2-Pf-HR :0.91252: L2-HR :0.82151: (Sim:1h35m6s) 
CPU  1 inst:  124000001 cyc:  139993635 now IPC :0.72039: AVG IPC :0.87763: L2-Pf-HR :0.94687: L2-HR :0.82735: (Sim:1h35m45s) 
CPU  3 inst:  126000000 cyc:  140319157 now IPC :0.79892: AVG IPC :0.88993: L2-Pf-HR :0.94206: L2-HR :0.82666: (Sim:1h36m0s) 
CPU  0 inst:  125000005 cyc:  140346839 now IPC :0.77902: AVG IPC :0.88257: L2-Pf-HR :0.96017: L2-HR :0.84278: (Sim:1h36m2s) 
CPU  2 inst:  130000000 cyc:  140382601 now IPC :0.82149: AVG IPC :0.91822: L2-Pf-HR :0.91272: L2-HR :0.82170: (Sim:1h36m4s) 
CPU  1 inst:  125000003 cyc:  141359969 now IPC :0.73189: AVG IPC :0.87621: L2-Pf-HR :0.94665: L2-HR :0.82707: (Sim:1h36m47s) 
CPU  2 inst:  131000002 cyc:  141527238 now IPC :0.87364: AVG IPC :0.91786: L2-Pf-HR :0.91301: L2-HR :0.82195: (Sim:1h36m55s) 
CPU  3 inst:  127000005 cyc:  141621359 now IPC :0.76793: AVG IPC :0.88880: L2-Pf-HR :0.94201: L2-HR :0.82626: (Sim:1h36m59s) 
CPU  0 inst:  126000001 cyc:  141698729 now IPC :0.73970: AVG IPC :0.88120: L2-Pf-HR :0.96011: L2-HR :0.84241: (Sim:1h37m3s) 
CPU  1 inst:  126000000 cyc:  142511425 now IPC :0.86846: AVG IPC :0.87614: L2-Pf-HR :0.94638: L2-HR :0.82672: (Sim:1h37m43s) 
CPU  3 inst:  128000005 cyc:  142679166 now IPC :0.94535: AVG IPC :0.88922: L2-Pf-HR :0.94203: L2-HR :0.82592: (Sim:1h37m51s) 
CPU  2 inst:  132000002 cyc:  142679332 now IPC :0.86798: AVG IPC :0.91745: L2-Pf-HR :0.91331: L2-HR :0.82226: (Sim:1h37m51s) 
CPU  0 inst:  127000001 cyc:  142817862 now IPC :0.89355: AVG IPC :0.88130: L2-Pf-HR :0.96021: L2-HR :0.84234: (Sim:1h37m59s) 
CPU  1 inst:  127000001 cyc:  143700010 now IPC :0.84134: AVG IPC :0.87585: L2-Pf-HR :0.94635: L2-HR :0.82639: (Sim:1h38m40s) 
CPU  2 inst:  133000003 cyc:  143834369 now IPC :0.86577: AVG IPC :0.91703: L2-Pf-HR :0.91336: L2-HR :0.82226: (Sim:1h38m46s) 
CPU  3 inst:  129000005 cyc:  143928011 now IPC :0.80074: AVG IPC :0.88845: L2-Pf-HR :0.94177: L2-HR :0.82570: (Sim:1h38m50s) 
CPU  0 inst:  128000002 cyc:  144039408 now IPC :0.81864: AVG IPC :0.88076: L2-Pf-HR :0.96022: L2-HR :0.84237: (Sim:1h38m56s) 
CPU  1 inst:  128000002 cyc:  144932983 now IPC :0.81105: AVG IPC :0.87530: L2-Pf-HR :0.94649: L2-HR :0.82620: (Sim:1h39m37s) 
CPU  2 inst:  134000005 cyc:  145047016 now IPC :0.82464: AVG IPC :0.91626: L2-Pf-HR :0.91356: L2-HR :0.82236: (Sim:1h39m43s) 
CPU  3 inst:  130000000 cyc:  145070542 now IPC :0.87525: AVG IPC :0.88834: L2-Pf-HR :0.94192: L2-HR :0.82573: (Sim:1h39m44s) 
CPU  0 inst:  129000005 cyc:  145500462 now IPC :0.68444: AVG IPC :0.87878: L2-Pf-HR :0.95986: L2-HR :0.84221: (Sim:1h40m3s) 
CPU  3 inst:  131000000 cyc:  146297752 now IPC :0.81486: AVG IPC :0.88772: L2-Pf-HR :0.94203: L2-HR :0.82581: (Sim:1h40m38s) 
CPU  1 inst:  129000005 cyc:  146357262 now IPC :0.70211: AVG IPC :0.87360: L2-Pf-HR :0.94631: L2-HR :0.82599: (Sim:1h40m40s) 
CPU  2 inst:  135000002 cyc:  146495589 now IPC :0.69033: AVG IPC :0.91401: L2-Pf-HR :0.91368: L2-HR :0.82238: (Sim:1h40m46s) 
CPU  0 inst:  130000000 cyc:  146924213 now IPC :0.70237: AVG IPC :0.87706: L2-Pf-HR :0.95990: L2-HR :0.84239: (Sim:1h41m6s) 
CPU  1 inst:  130000000 cyc:  147507697 now IPC :0.86923: AVG IPC :0.87357: L2-Pf-HR :0.94650: L2-HR :0.82613: (Sim:1h41m33s) 
CPU  3 inst:  132000002 cyc:  147684255 now IPC :0.72124: AVG IPC :0.88615: L2-Pf-HR :0.94222: L2-HR :0.82587: (Sim:1h41m41s) 
CPU  2 inst:  136000000 cyc:  147900939 now IPC :0.71157: AVG IPC :0.91207: L2-Pf-HR :0.91372: L2-HR :0.82243: (Sim:1h41m51s) 
CPU  0 inst:  131000003 cyc:  148328070 now IPC :0.71233: AVG IPC :0.87549: L2-Pf-HR :0.95978: L2-HR :0.84244: (Sim:1h42m10s) 
CPU  1 inst:  131000002 cyc:  148612515 now IPC :0.90513: AVG IPC :0.87380: L2-Pf-HR :0.94664: L2-HR :0.82615: (Sim:1h42m20s) 
CPU  3 inst:  133000003 cyc:  149093587 now IPC :0.70956: AVG IPC :0.88447: L2-Pf-HR :0.94213: L2-HR :0.82584: (Sim:1h42m33s) 
CPU  2 inst:  137000001 cyc:  149456977 now IPC :0.64266: AVG IPC :0.90925: L2-Pf-HR :0.91364: L2-HR :0.82232: (Sim:1h42m42s) 
CPU  0 inst:  132000002 cyc:  149700151 now IPC :0.72882: AVG IPC :0.87413: L2-Pf-HR :0.95965: L2-HR :0.84243: (Sim:1h42m48s) 
CPU  1 inst:  132000002 cyc:  149980665 now IPC :0.73091: AVG IPC :0.87249: L2-Pf-HR :0.94682: L2-HR :0.82618: (Sim:1h42m55s) 
CPU  3 inst:  134000005 cyc:  150654071 now IPC :0.64083: AVG IPC :0.88193: L2-Pf-HR :0.94210: L2-HR :0.82588: (Sim:1h43m13s) 
CPU  0 inst:  133000003 cyc:  150824341 now IPC :0.88953: AVG IPC :0.87425: L2-Pf-HR :0.95947: L2-HR :0.84242: (Sim:1h43m18s) 
CPU  2 inst:  138000005 cyc:  150858062 now IPC :0.71374: AVG IPC :0.90742: L2-Pf-HR :0.91357: L2-HR :0.82231: (Sim:1h43m19s) 
CPU  1 inst:  133000003 cyc:  151393486 now IPC :0.70780: AVG IPC :0.87095: L2-Pf-HR :0.94701: L2-HR :0.82622: (Sim:1h43m34s) 
CPU  0 inst:  134000005 cyc:  151923671 now IPC :0.90965: AVG IPC :0.87451: L2-Pf-HR :0.95941: L2-HR :0.84248: (Sim:1h43m49s) 
CPU  3 inst:  135000002 cyc:  152075564 now IPC :0.70348: AVG IPC :0.88025: L2-Pf-HR :0.94197: L2-HR :0.82584: (Sim:1h43m53s) 
CPU  2 inst:  139000000 cyc:  152076439 now IPC :0.82076: AVG IPC :0.90672: L2-Pf-HR :0.91344: L2-HR :0.82221: (Sim:1h43m53s) 
CPU  1 inst:  134000005 cyc:  152707781 now IPC :0.76087: AVG IPC :0.86999: L2-Pf-HR :0.94715: L2-HR :0.82635: (Sim:1h44m11s) 
CPU  2 inst:  140000001 cyc:  153137865 now IPC :0.94213: AVG IPC :0.90697: L2-Pf-HR :0.91330: L2-HR :0.82213: (Sim:1h44m23s) 
CPU  0 inst:  135000002 cyc:  153235385 now IPC :0.76236: AVG IPC :0.87354: L2-Pf-HR :0.95931: L2-HR :0.84239: (Sim:1h44m26s) 
CPU  3 inst:  136000000 cyc:  153411614 now IPC :0.74847: AVG IPC :0.87910: L2-Pf-HR :0.94198: L2-HR :0.82590: (Sim:1h44m31s) 
CPU  1 inst:  135000002 cyc:  154263995 now IPC :0.64258: AVG IPC :0.86768: L2-Pf-HR :0.94727: L2-HR :0.82633: (Sim:1h44m53s) 
CPU  2 inst:  141000001 cyc:  154342645 now IPC :0.83003: AVG IPC :0.90636: L2-Pf-HR :0.91300: L2-HR :0.82194: (Sim:1h44m55s) 
CPU  0 inst:  136000000 cyc:  154623327 now IPC :0.72049: AVG IPC :0.87216: L2-Pf-HR :0.95903: L2-HR :0.84235: (Sim:1h45m2s) 
CPU  3 inst:  137000003 cyc:  155015132 now IPC :0.62363: AVG IPC :0.87644: L2-Pf-HR :0.94187: L2-HR :0.82594: (Sim:1h45m11s) 
CPU  2 inst:  142000005 cyc:  155767328 now IPC :0.70191: AVG IPC :0.90448: L2-Pf-HR :0.91301: L2-HR :0.82201: (Sim:1h45m29s) 
CPU  1 inst:  136000000 cyc:  155982463 now IPC :0.58191: AVG IPC :0.86451: L2-Pf-HR :0.94738: L2-HR :0.82638: (Sim:1h45m33s) 
CPU  0 inst:  137000003 cyc:  156382570 now IPC :0.56843: AVG IPC :0.86872: L2-Pf-HR :0.95887: L2-HR :0.84229: (Sim:1h45m42s) 
CPU  3 inst:  138000005 cyc:  156702479 now IPC :0.59265: AVG IPC :0.87336: L2-Pf-HR :0.94152: L2-HR :0.82590: (Sim:1h45m50s) 
CPU  2 inst:  143000000 cyc:  157396996 now IPC :0.61362: AVG IPC :0.90145: L2-Pf-HR :0.91311: L2-HR :0.82213: (Sim:1h46m6s) 
CPU  1 inst:  137000003 cyc:  157600100 now IPC :0.61819: AVG IPC :0.86197: L2-Pf-HR :0.94743: L2-HR :0.82632: (Sim:1h46m11s) 
CPU  0 inst:  138000005 cyc:  157973441 now IPC :0.62859: AVG IPC :0.86629: L2-Pf-HR :0.95861: L2-HR :0.84227: (Sim:1h46m20s) 
CPU  3 inst:  139000000 cyc:  158377052 now IPC :0.59716: AVG IPC :0.87042: L2-Pf-HR :0.94122: L2-HR :0.82574: (Sim:1h46m30s) 
CPU  2 inst:  144000000 cyc:  158945349 now IPC :0.64585: AVG IPC :0.89895: L2-Pf-HR :0.91333: L2-HR :0.82237: (Sim:1h46m44s) 
CPU  1 inst:  138000005 cyc:  159172857 now IPC :0.63583: AVG IPC :0.85972: L2-Pf-HR :0.94747: L2-HR :0.82630: (Sim:1h46m49s) 
CPU  0 inst:  139000000 cyc:  159532577 now IPC :0.64138: AVG IPC :0.86407: L2-Pf-HR :0.95817: L2-HR :0.84214: (Sim:1h46m59s) 
CPU  3 inst:  140000003 cyc:  159927565 now IPC :0.64495: AVG IPC :0.86822: L2-Pf-HR :0.94106: L2-HR :0.82572: (Sim:1h47m9s) 
CPU  2 inst:  145000000 cyc:  160091973 now IPC :0.87213: AVG IPC :0.89875: L2-Pf-HR :0.91332: L2-HR :0.82237: (Sim:1h47m13s) 
CPU  1 inst:  139000000 cyc:  160645856 now IPC :0.67888: AVG IPC :0.85805: L2-Pf-HR :0.94738: L2-HR :0.82614: (Sim:1h47m29s) 
CPU  0 inst:  140000001 cyc:  160948417 now IPC :0.70630: AVG IPC :0.86268: L2-Pf-HR :0.95781: L2-HR :0.84207: (Sim:1h47m37s) 
CPU  2 inst:  146000000 cyc:  161212618 now IPC :0.89234: AVG IPC :0.89871: L2-Pf-HR :0.91338: L2-HR :0.82229: (Sim:1h47m44s) 
CPU  3 inst:  141000002 cyc:  161417723 now IPC :0.67107: AVG IPC :0.86639: L2-Pf-HR :0.94053: L2-HR :0.82550: (Sim:1h47m49s) 
CPU  1 inst:  140000003 cyc:  162102926 now IPC :0.68631: AVG IPC :0.85650: L2-Pf-HR :0.94727: L2-HR :0.82613: (Sim:1h48m6s) 
CPU  0 inst:  141000004 cyc:  162448890 now IPC :0.66646: AVG IPC :0.86085: L2-Pf-HR :0.95730: L2-HR :0.84181: (Sim:1h48m14s) 
CPU  2 inst:  147000004 cyc:  162627556 now IPC :0.70675: AVG IPC :0.89703: L2-Pf-HR :0.91348: L2-HR :0.82233: (Sim:1h48m19s) 
CPU  3 inst:  142000000 cyc:  163046740 now IPC :0.61387: AVG IPC :0.86385: L2-Pf-HR :0.94065: L2-HR :0.82558: (Sim:1h48m28s) 
CPU  1 inst:  141000004 cyc:  163885858 now IPC :0.56087: AVG IPC :0.85327: L2-Pf-HR :0.94680: L2-HR :0.82592: (Sim:1h48m47s) 
CPU  0 inst:  142000000 cyc:  164331223 now IPC :0.53125: AVG IPC :0.85706: L2-Pf-HR :0.95745: L2-HR :0.84197: (Sim:1h48m57s) 
CPU  2 inst:  148000005 cyc:  164400851 now IPC :0.56392: AVG IPC :0.89341: L2-Pf-HR :0.91350: L2-HR :0.82229: (Sim:1h48m58s) 
CPU  3 inst:  143000000 cyc:  164756873 now IPC :0.58475: AVG IPC :0.86094: L2-Pf-HR :0.94051: L2-HR :0.82553: (Sim:1h49m6s) 
CPU  1 inst:  142000001 cyc:  165669765 now IPC :0.56057: AVG IPC :0.85009: L2-Pf-HR :0.94664: L2-HR :0.82592: (Sim:1h49m37s) 
CPU  0 inst:  143000000 cyc:  166026345 now IPC :0.58993: AVG IPC :0.85431: L2-Pf-HR :0.95752: L2-HR :0.84207: (Sim:1h49m50s) 
CPU  2 inst:  149000005 cyc:  166174918 now IPC :0.56368: AVG IPC :0.88987: L2-Pf-HR :0.91346: L2-HR :0.82225: (Sim:1h49m56s) 
CPU  3 inst:  144000000 cyc:  166495201 now IPC :0.57527: AVG IPC :0.85794: L2-Pf-HR :0.94053: L2-HR :0.82558: (Sim:1h50m8s) 
CPU  1 inst:  143000000 cyc:  167367664 now IPC :0.58896: AVG IPC :0.84743: L2-Pf-HR :0.94667: L2-HR :0.82591: (Sim:1h50m41s) 
CPU  0 inst:  144000000 cyc:  167776300 now IPC :0.57144: AVG IPC :0.85135: L2-Pf-HR :0.95758: L2-HR :0.84207: (Sim:1h50m57s) 
CPU  2 inst:  150000000 cyc:  167916869 now IPC :0.57407: AVG IPC :0.88658: L2-Pf-HR :0.91353: L2-HR :0.82229: (Sim:1h51m2s) 
CPU  3 inst:  145000000 cyc:  168262533 now IPC :0.56582: AVG IPC :0.85485: L2-Pf-HR :0.94056: L2-HR :0.82562: (Sim:1h51m16s) 
CPU  1 inst:  144000005 cyc:  169005250 now IPC :0.61066: AVG IPC :0.84512: L2-Pf-HR :0.94659: L2-HR :0.82595: (Sim:1h51m44s) 
CPU  0 inst:  145000000 cyc:  169526711 now IPC :0.57129: AVG IPC :0.84844: L2-Pf-HR :0.95763: L2-HR :0.84208: (Sim:1h52m4s) 
CPU  2 inst:  151000005 cyc:  169571965 now IPC :0.60420: AVG IPC :0.88380: L2-Pf-HR :0.91356: L2-HR :0.82231: (Sim:1h52m6s) 
CPU  3 inst:  146000000 cyc:  169896561 now IPC :0.61198: AVG IPC :0.85250: L2-Pf-HR :0.94057: L2-HR :0.82559: (Sim:1h52m18s) 
CPU  1 inst:  145000000 cyc:  170750810 now IPC :0.57288: AVG IPC :0.84232: L2-Pf-HR :0.94650: L2-HR :0.82598: (Sim:1h52m51s) 
CPU  0 inst:  146000005 cyc:  171259709 now IPC :0.57704: AVG IPC :0.84567: L2-Pf-HR :0.95772: L2-HR :0.84208: (Sim:1h53m10s) 
CPU  2 inst:  152000004 cyc:  171283090 now IPC :0.58441: AVG IPC :0.88080: L2-Pf-HR :0.91354: L2-HR :0.82233: (Sim:1h53m11s) 
CPU  3 inst:  147000003 cyc:  171641579 now IPC :0.57306: AVG IPC :0.84965: L2-Pf-HR :0.94066: L2-HR :0.82564: (Sim:1h53m25s) 
CPU  1 inst:  146000000 cyc:  172511691 now IPC :0.56790: AVG IPC :0.83951: L2-Pf-HR :0.94657: L2-HR :0.82608: (Sim:1h53m57s) 
CPU  0 inst:  147000004 cyc:  172996222 now IPC :0.57587: AVG IPC :0.84295: L2-Pf-HR :0.95774: L2-HR :0.84211: (Sim:1h54m16s) 
CPU  2 inst:  153000002 cyc:  172996436 now IPC :0.58365: AVG IPC :0.87784: L2-Pf-HR :0.91346: L2-HR :0.82223: (Sim:1h54m16s) 
CPU  3 inst:  148000005 cyc:  173360595 now IPC :0.58173: AVG IPC :0.84697: L2-Pf-HR :0.94082: L2-HR :0.82568: (Sim:1h54m30s) 
CPU  1 inst:  147000003 cyc:  174272151 now IPC :0.56804: AVG IPC :0.83675: L2-Pf-HR :0.94663: L2-HR :0.82608: (Sim:1h55m5s) 
CPU  2 inst:  154000000 cyc:  174599814 now IPC :0.62368: AVG IPC :0.87549: L2-Pf-HR :0.91355: L2-HR :0.82236: (Sim:1h55m18s) 
CPU  0 inst:  148000005 cyc:  174679519 now IPC :0.59407: AVG IPC :0.84054: L2-Pf-HR :0.95784: L2-HR :0.84208: (Sim:1h55m21s) 
CPU  3 inst:  149000005 cyc:  175004895 now IPC :0.60816: AVG IPC :0.84472: L2-Pf-HR :0.94073: L2-HR :0.82578: (Sim:1h55m34s) 
CPU  1 inst:  148000005 cyc:  175932962 now IPC :0.60212: AVG IPC :0.83452: L2-Pf-HR :0.94662: L2-HR :0.82610: (Sim:1h56m11s) 
CPU  2 inst:  155000004 cyc:  176191055 now IPC :0.62844: AVG IPC :0.87325: L2-Pf-HR :0.91369: L2-HR :0.82252: (Sim:1h56m22s) 
CPU  0 inst:  149000005 cyc:  176227406 now IPC :0.64604: AVG IPC :0.83882: L2-Pf-HR :0.95798: L2-HR :0.84215: (Sim:1h56m24s) 
CPU  3 inst:  150000000 cyc:  176434774 now IPC :0.69936: AVG IPC :0.84353: L2-Pf-HR :0.94067: L2-HR :0.82584: (Sim:1h56m33s) 
CPU  1 inst:  149000005 cyc:  177297093 now IPC :0.73307: AVG IPC :0.83374: L2-Pf-HR :0.94655: L2-HR :0.82608: (Sim:1h57m12s) 
CPU  3 inst:  151000005 cyc:  177462293 now IPC :0.97322: AVG IPC :0.84429: L2-Pf-HR :0.94064: L2-HR :0.82584: (Sim:1h57m20s) 
CPU  2 inst:  156000004 cyc:  177548863 now IPC :0.73648: AVG IPC :0.87219: L2-Pf-HR :0.91395: L2-HR :0.82278: (Sim:1h57m24s) 
CPU  0 inst:  150000000 cyc:  177640472 now IPC :0.70768: AVG IPC :0.83777: L2-Pf-HR :0.95814: L2-HR :0.84220: (Sim:1h57m28s) 
CPU  3 inst:  152000004 cyc:  178440337 now IPC :1.02245: AVG IPC :0.84527: L2-Pf-HR :0.94078: L2-HR :0.82603: (Sim:1h58m7s) 
CPU  1 inst:  150000000 cyc:  178628011 now IPC :0.75136: AVG IPC :0.83312: L2-Pf-HR :0.94658: L2-HR :0.82613: (Sim:1h58m15s) 
CPU  2 inst:  157000004 cyc:  178689298 now IPC :0.87686: AVG IPC :0.87222: L2-Pf-HR :0.91394: L2-HR :0.82280: (Sim:1h58m18s) 
CPU  0 inst:  151000005 cyc:  178978473 now IPC :0.74739: AVG IPC :0.83709: L2-Pf-HR :0.95822: L2-HR :0.84218: (Sim:1h58m32s) 
CPU  2 inst:  158000000 cyc:  179690011 now IPC :0.99928: AVG IPC :0.87294: L2-Pf-HR :0.91392: L2-HR :0.82269: (Sim:1h59m6s) 
CPU  3 inst:  153000000 cyc:  179730757 now IPC :0.77494: AVG IPC :0.84476: L2-Pf-HR :0.94059: L2-HR :0.82588: (Sim:1h59m8s) 
CPU  1 inst:  151000005 cyc:  179901140 now IPC :0.78547: AVG IPC :0.83278: L2-Pf-HR :0.94657: L2-HR :0.82611: (Sim:1h59m16s) 
CPU  0 inst:  152000004 cyc:  180186947 now IPC :0.82749: AVG IPC :0.83703: L2-Pf-HR :0.95815: L2-HR :0.84221: (Sim:1h59m30s) 
CPU  2 inst:  159000002 cyc:  180733691 now IPC :0.95815: AVG IPC :0.87343: L2-Pf-HR :0.91399: L2-HR :0.82272: (Sim:1h59m56s) 
CPU  3 inst:  154000003 cyc:  180972404 now IPC :0.80538: AVG IPC :0.84449: L2-Pf-HR :0.94077: L2-HR :0.82594: (Sim:2h0m6s) 
CPU  1 inst:  152000004 cyc:  181082064 now IPC :0.84679: AVG IPC :0.83287: L2-Pf-HR :0.94653: L2-HR :0.82617: (Sim:2h0m11s) 
CPU  0 inst:  153000001 cyc:  181596446 now IPC :0.70947: AVG IPC :0.83603: L2-Pf-HR :0.95806: L2-HR :0.84211: (Sim:2h0m35s) 
CPU  2 inst:  160000002 cyc:  182082583 now IPC :0.74135: AVG IPC :0.87245: L2-Pf-HR :0.91409: L2-HR :0.82270: (Sim:2h0m56s) 
CPU  1 inst:  153000002 cyc:  182240026 now IPC :0.86358: AVG IPC :0.83307: L2-Pf-HR :0.94640: L2-HR :0.82611: (Sim:2h1m3s) 
CPU  3 inst:  155000004 cyc:  182355461 now IPC :0.72304: AVG IPC :0.84356: L2-Pf-HR :0.94073: L2-HR :0.82598: (Sim:2h1m9s) 
CPU  0 inst:  154000004 cyc:  182921763 now IPC :0.75454: AVG IPC :0.83544: L2-Pf-HR :0.95812: L2-HR :0.84223: (Sim:2h1m36s) 
[...]
CPU  0 inst:  829000001 cyc: 1664448157 now IPC :0.27020: AVG IPC :0.49715: L2-Pf-HR :0.87711: L2-HR :0.75748: (Sim:16h2m44s) 
CPU  2 inst:  851000001 cyc: 1665421085 now IPC :0.26962: AVG IPC :0.51008: L2-Pf-HR :0.80808: L2-HR :0.72591: (Sim:16h3m12s) 
CPU  1 inst:  831000001 cyc: 1666812682 now IPC :0.26907: AVG IPC :0.49765: L2-Pf-HR :0.85531: L2-HR :0.73911: (Sim:16h3m52s) 
CPU  3 inst:  836000002 cyc: 1668127706 now IPC :0.26687: AVG IPC :0.50026: L2-Pf-HR :0.84592: L2-HR :0.73627: (Sim:16h4m22s) 
CPU  0 inst:  830000001 cyc: 1668211482 now IPC :0.26572: AVG IPC :0.49663: L2-Pf-HR :0.87655: L2-HR :0.75713: (Sim:16h4m23s) 
CPU  2 inst:  852000001 cyc: 1669200480 now IPC :0.26459: AVG IPC :0.50953: L2-Pf-HR :0.80749: L2-HR :0.72556: (Sim:16h4m49s) 
CPU  1 inst:  832000000 cyc: 1670641388 now IPC :0.26118: AVG IPC :0.49711: L2-Pf-HR :0.85471: L2-HR :0.73876: (Sim:16h5m34s) 
CPU  3 inst:  837000002 cyc: 1671989101 now IPC :0.25897: AVG IPC :0.49970: L2-Pf-HR :0.84531: L2-HR :0.73592: (Sim:16h5m57s) 
CPU  0 inst:  831000001 cyc: 1672070574 now IPC :0.25913: AVG IPC :0.49608: L2-Pf-HR :0.87599: L2-HR :0.75678: (Sim:16h5m58s) 
CPU  2 inst:  853000000 cyc: 1673046987 now IPC :0.25998: AVG IPC :0.50895: L2-Pf-HR :0.80691: L2-HR :0.72522: (Sim:16h6m14s) 
CPU  1 inst:  833000002 cyc: 1674447053 now IPC :0.26277: AVG IPC :0.49657: L2-Pf-HR :0.85410: L2-HR :0.73841: (Sim:16h6m50s) 
CPU  3 inst:  838000002 cyc: 1675800539 now IPC :0.26237: AVG IPC :0.49916: L2-Pf-HR :0.84469: L2-HR :0.73556: (Sim:16h7m22s) 
CPU  0 inst:  832000000 cyc: 1675840264 now IPC :0.26527: AVG IPC :0.49556: L2-Pf-HR :0.87544: L2-HR :0.75643: (Sim:16h7m23s) 
CPU  2 inst:  854000000 cyc: 1676837845 now IPC :0.26379: AVG IPC :0.50840: L2-Pf-HR :0.80633: L2-HR :0.72487: (Sim:16h7m53s) 
CPU  1 inst:  834000002 cyc: 1678244377 now IPC :0.26334: AVG IPC :0.49605: L2-Pf-HR :0.85349: L2-HR :0.73805: (Sim:16h8m31s) 
CPU  3 inst:  839000002 cyc: 1679631190 now IPC :0.26105: AVG IPC :0.49862: L2-Pf-HR :0.84408: L2-HR :0.73521: (Sim:16h8m57s) 
CPU  0 inst:  833000002 cyc: 1679659094 now IPC :0.26186: AVG IPC :0.49503: L2-Pf-HR :0.87489: L2-HR :0.75608: (Sim:16h8m58s) 
CPU  2 inst:  855000000 cyc: 1680613486 now IPC :0.26486: AVG IPC :0.50785: L2-Pf-HR :0.80574: L2-HR :0.72452: (Sim:16h9m25s) 
CPU  1 inst:  835000002 cyc: 1682021107 now IPC :0.26478: AVG IPC :0.49553: L2-Pf-HR :0.85288: L2-HR :0.73769: (Sim:16h10m10s) 
CPU  3 inst:  840000000 cyc: 1683352543 now IPC :0.26872: AVG IPC :0.49811: L2-Pf-HR :0.84346: L2-HR :0.73486: (Sim:16h10m52s) 
CPU  0 inst:  834000002 cyc: 1683394766 now IPC :0.26769: AVG IPC :0.49453: L2-Pf-HR :0.87433: L2-HR :0.75574: (Sim:16h10m53s) 
CPU  2 inst:  856000000 cyc: 1684369216 now IPC :0.26626: AVG IPC :0.50731: L2-Pf-HR :0.80516: L2-HR :0.72418: (Sim:16h11m24s) 
CPU  1 inst:  836000002 cyc: 1685765986 now IPC :0.26703: AVG IPC :0.49502: L2-Pf-HR :0.85228: L2-HR :0.73734: (Sim:16h12m8s) 
CPU  3 inst:  841000002 cyc: 1687109497 now IPC :0.26617: AVG IPC :0.49759: L2-Pf-HR :0.84286: L2-HR :0.73451: (Sim:16h12m50s) 
CPU  0 inst:  835000002 cyc: 1687139964 now IPC :0.26701: AVG IPC :0.49402: L2-Pf-HR :0.87377: L2-HR :0.75539: (Sim:16h12m51s) 
CPU  2 inst:  857000000 cyc: 1688106465 now IPC :0.26758: AVG IPC :0.50678: L2-Pf-HR :0.80458: L2-HR :0.72384: (Sim:16h13m21s) 
CPU  1 inst:  837000002 cyc: 1689607645 now IPC :0.26030: AVG IPC :0.49448: L2-Pf-HR :0.85168: L2-HR :0.73699: (Sim:16h14m8s) 
CPU  3 inst:  842000003 cyc: 1690943892 now IPC :0.26080: AVG IPC :0.49705: L2-Pf-HR :0.84225: L2-HR :0.73415: (Sim:16h14m50s) 
CPU  0 inst:  836000002 cyc: 1690997620 now IPC :0.25922: AVG IPC :0.49349: L2-Pf-HR :0.87323: L2-HR :0.75504: (Sim:16h14m52s) 
CPU  2 inst:  858000002 cyc: 1691980433 now IPC :0.25813: AVG IPC :0.50621: L2-Pf-HR :0.80400: L2-HR :0.72349: (Sim:16h15m22s) 
CPU  1 inst:  838000002 cyc: 1693436968 now IPC :0.26114: AVG IPC :0.49396: L2-Pf-HR :0.85107: L2-HR :0.73664: (Sim:16h16m8s) 
CPU  3 inst:  843000003 cyc: 1694803559 now IPC :0.25909: AVG IPC :0.49651: L2-Pf-HR :0.84164: L2-HR :0.73380: (Sim:16h16m51s) 
CPU  0 inst:  837000002 cyc: 1694818436 now IPC :0.26172: AVG IPC :0.49296: L2-Pf-HR :0.87267: L2-HR :0.75470: (Sim:16h16m51s) 
CPU  2 inst:  859000000 cyc: 1695756168 now IPC :0.26485: AVG IPC :0.50567: L2-Pf-HR :0.80342: L2-HR :0.72315: (Sim:16h17m21s) 
CPU  1 inst:  839000002 cyc: 1697174740 now IPC :0.26754: AVG IPC :0.49346: L2-Pf-HR :0.85047: L2-HR :0.73628: (Sim:16h18m5s) 
CPU  3 inst:  844000003 cyc: 1698548311 now IPC :0.26704: AVG IPC :0.49600: L2-Pf-HR :0.84103: L2-HR :0.73345: (Sim:16h18m49s) 
CPU  0 inst:  838000002 cyc: 1698560010 now IPC :0.26727: AVG IPC :0.49247: L2-Pf-HR :0.87212: L2-HR :0.75435: (Sim:16h18m49s) 
CPU  2 inst:  860000000 cyc: 1699504884 now IPC :0.26676: AVG IPC :0.50514: L2-Pf-HR :0.80284: L2-HR :0.72281: (Sim:16h19m19s) 
CPU  1 inst:  840000000 cyc: 1700868772 now IPC :0.27071: AVG IPC :0.49297: L2-Pf-HR :0.84986: L2-HR :0.73593: (Sim:16h20m3s) 
CPU  0 inst:  839000002 cyc: 1702243466 now IPC :0.27148: AVG IPC :0.49199: L2-Pf-HR :0.87157: L2-HR :0.75400: (Sim:16h20m43s) 
CPU  3 inst:  845000000 cyc: 1702263922 now IPC :0.26913: AVG IPC :0.49551: L2-Pf-HR :0.84043: L2-HR :0.73310: (Sim:16h20m43s) 
CPU  2 inst:  861000000 cyc: 1703226017 now IPC :0.26874: AVG IPC :0.50463: L2-Pf-HR :0.80226: L2-HR :0.72247: (Sim:16h21m14s) 
CPU  1 inst:  841000002 cyc: 1704617803 now IPC :0.26674: AVG IPC :0.49248: L2-Pf-HR :0.84927: L2-HR :0.73558: (Sim:16h21m58s) 
CPU  0 inst:  840000000 cyc: 1706028379 now IPC :0.26421: AVG IPC :0.49148: L2-Pf-HR :0.87102: L2-HR :0.75366: (Sim:16h22m42s) 
CPU  3 inst:  846000003 cyc: 1706033312 now IPC :0.26530: AVG IPC :0.49500: L2-Pf-HR :0.83983: L2-HR :0.73275: (Sim:16h22m42s) 
CPU  2 inst:  862000000 cyc: 1706970468 now IPC :0.26706: AVG IPC :0.50411: L2-Pf-HR :0.80169: L2-HR :0.72213: (Sim:16h23m11s) 
CPU  1 inst:  842000003 cyc: 1708364275 now IPC :0.26692: AVG IPC :0.49198: L2-Pf-HR :0.84867: L2-HR :0.73523: (Sim:16h23m56s) 
CPU  3 inst:  847000003 cyc: 1709749202 now IPC :0.26911: AVG IPC :0.49451: L2-Pf-HR :0.83922: L2-HR :0.73241: (Sim:16h24m36s) 
CPU  0 inst:  841000002 cyc: 1709757127 now IPC :0.26819: AVG IPC :0.49099: L2-Pf-HR :0.87047: L2-HR :0.75331: (Sim:16h24m37s) 
CPU  2 inst:  863000000 cyc: 1710720557 now IPC :0.26666: AVG IPC :0.50359: L2-Pf-HR :0.80112: L2-HR :0.72179: (Sim:16h25m7s) 
CPU  1 inst:  843000003 cyc: 1712157004 now IPC :0.26366: AVG IPC :0.49148: L2-Pf-HR :0.84807: L2-HR :0.73488: (Sim:16h25m33s) 
CPU  0 inst:  842000003 cyc: 1713538595 now IPC :0.26445: AVG IPC :0.49049: L2-Pf-HR :0.86992: L2-HR :0.75297: (Sim:16h26m5s) 
CPU  3 inst:  848000003 cyc: 1713564276 now IPC :0.26212: AVG IPC :0.49399: L2-Pf-HR :0.83861: L2-HR :0.73206: (Sim:16h26m6s) 
CPU  2 inst:  864000000 cyc: 1714560595 now IPC :0.26041: AVG IPC :0.50304: L2-Pf-HR :0.80054: L2-HR :0.72145: (Sim:16h26m33s) 
CPU  1 inst:  844000003 cyc: 1715957750 now IPC :0.26311: AVG IPC :0.49097: L2-Pf-HR :0.84747: L2-HR :0.73453: (Sim:16h27m7s) 
CPU  0 inst:  843000003 cyc: 1717318800 now IPC :0.26454: AVG IPC :0.49000: L2-Pf-HR :0.86937: L2-HR :0.75263: (Sim:16h27m49s) 
CPU  3 inst:  849000000 cyc: 1717363048 now IPC :0.26324: AVG IPC :0.49348: L2-Pf-HR :0.83802: L2-HR :0.73171: (Sim:16h27m50s) 
CPU  2 inst:  865000000 cyc: 1718349977 now IPC :0.26390: AVG IPC :0.50251: L2-Pf-HR :0.79996: L2-HR :0.72111: (Sim:16h28m6s) 
CPU  1 inst:  845000000 cyc: 1719729199 now IPC :0.26515: AVG IPC :0.49047: L2-Pf-HR :0.84688: L2-HR :0.73419: (Sim:16h28m29s) 
CPU  0 inst:  844000003 cyc: 1721111496 now IPC :0.26366: AVG IPC :0.48950: L2-Pf-HR :0.86882: L2-HR :0.75229: (Sim:16h29m2s) 
CPU  3 inst:  850000001 cyc: 1721164574 now IPC :0.26305: AVG IPC :0.49297: L2-Pf-HR :0.83742: L2-HR :0.73137: (Sim:16h29m4s) 
CPU  2 inst:  866000000 cyc: 1722124671 now IPC :0.26492: AVG IPC :0.50199: L2-Pf-HR :0.79939: L2-HR :0.72077: (Sim:16h29m34s) 
CPU  1 inst:  846000003 cyc: 1723516373 now IPC :0.26405: AVG IPC :0.48998: L2-Pf-HR :0.84628: L2-HR :0.73384: (Sim:16h30m10s) 
CPU  0 inst:  845000000 cyc: 1724908253 now IPC :0.26338: AVG IPC :0.48900: L2-Pf-HR :0.86828: L2-HR :0.75195: (Sim:16h30m33s) 
CPU  3 inst:  851000001 cyc: 1724970607 now IPC :0.26274: AVG IPC :0.49246: L2-Pf-HR :0.83681: L2-HR :0.73102: (Sim:16h30m34s) 
CPU  2 inst:  867000001 cyc: 1725890704 now IPC :0.26553: AVG IPC :0.50148: L2-Pf-HR :0.79882: L2-HR :0.72043: (Sim:16h30m49s) 
CPU  1 inst:  847000003 cyc: 1727298394 now IPC :0.26441: AVG IPC :0.48948: L2-Pf-HR :0.84568: L2-HR :0.73349: (Sim:16h31m13s) 
CPU  0 inst:  846000003 cyc: 1728640289 now IPC :0.26795: AVG IPC :0.48852: L2-Pf-HR :0.86774: L2-HR :0.75161: (Sim:16h31m48s) 
CPU  3 inst:  852000001 cyc: 1728715842 now IPC :0.26701: AVG IPC :0.49197: L2-Pf-HR :0.83621: L2-HR :0.73067: (Sim:16h31m51s) 
CPU  2 inst:  868000001 cyc: 1729635431 now IPC :0.26704: AVG IPC :0.50097: L2-Pf-HR :0.79825: L2-HR :0.72009: (Sim:16h32m20s) 
CPU  1 inst:  848000003 cyc: 1731067514 now IPC :0.26531: AVG IPC :0.48899: L2-Pf-HR :0.84508: L2-HR :0.73314: (Sim:16h32m59s) 
CPU  0 inst:  847000003 cyc: 1732445652 now IPC :0.26279: AVG IPC :0.48803: L2-Pf-HR :0.86719: L2-HR :0.75127: (Sim:16h33m33s) 
CPU  3 inst:  853000000 cyc: 1732502865 now IPC :0.26406: AVG IPC :0.49148: L2-Pf-HR :0.83561: L2-HR :0.73033: (Sim:16h33m34s) 
CPU  2 inst:  869000000 cyc: 1733436194 now IPC :0.26310: AVG IPC :0.50045: L2-Pf-HR :0.79767: L2-HR :0.71975: (Sim:16h33m54s) 
CPU  1 inst:  849000000 cyc: 1734818751 now IPC :0.26658: AVG IPC :0.48851: L2-Pf-HR :0.84450: L2-HR :0.73280: (Sim:16h34m20s) 
CPU  0 inst:  848000003 cyc: 1736161973 now IPC :0.26908: AVG IPC :0.48756: L2-Pf-HR :0.86665: L2-HR :0.75093: (Sim:16h34m46s) 
CPU  3 inst:  854000000 cyc: 1736238077 now IPC :0.26772: AVG IPC :0.49099: L2-Pf-HR :0.83502: L2-HR :0.72999: (Sim:16h34m47s) 
CPU  2 inst:  870000004 cyc: 1737159452 now IPC :0.26858: AVG IPC :0.49995: L2-Pf-HR :0.79710: L2-HR :0.71942: (Sim:16h35m10s) 
CPU  1 inst:  850000001 cyc: 1738588891 now IPC :0.26524: AVG IPC :0.48803: L2-Pf-HR :0.84391: L2-HR :0.73246: (Sim:16h35m55s) 
CPU  0 inst:  849000000 cyc: 1739949146 now IPC :0.26405: AVG IPC :0.48707: L2-Pf-HR :0.86611: L2-HR :0.75059: (Sim:16h36m38s) 
CPU  3 inst:  855000000 cyc: 1740004585 now IPC :0.26550: AVG IPC :0.49051: L2-Pf-HR :0.83442: L2-HR :0.72964: (Sim:16h36m40s) 
CPU  2 inst:  871000002 cyc: 1740936125 now IPC :0.26478: AVG IPC :0.49944: L2-Pf-HR :0.79654: L2-HR :0.71908: (Sim:16h37m10s) 
CPU  1 inst:  851000001 cyc: 1742362368 now IPC :0.26501: AVG IPC :0.48754: L2-Pf-HR :0.84331: L2-HR :0.73211: (Sim:16h37m55s) 
CPU  0 inst:  850000001 cyc: 1743700811 now IPC :0.26655: AVG IPC :0.48660: L2-Pf-HR :0.86556: L2-HR :0.75025: (Sim:16h38m38s) 
CPU  3 inst:  856000000 cyc: 1743768922 now IPC :0.26565: AVG IPC :0.49002: L2-Pf-HR :0.83383: L2-HR :0.72930: (Sim:16h38m40s) 
CPU  2 inst:  872000002 cyc: 1744698143 now IPC :0.26581: AVG IPC :0.49893: L2-Pf-HR :0.79597: L2-HR :0.71875: (Sim:16h39m5s) 
CPU  1 inst:  852000001 cyc: 1746153648 now IPC :0.26376: AVG IPC :0.48706: L2-Pf-HR :0.84272: L2-HR :0.73177: (Sim:16h39m38s) 
CPU  0 inst:  851000001 cyc: 1747536752 now IPC :0.26069: AVG IPC :0.48610: L2-Pf-HR :0.86502: L2-HR :0.74991: (Sim:16h40m22s) 
CPU  3 inst:  857000000 cyc: 1747601624 now IPC :0.26091: AVG IPC :0.48952: L2-Pf-HR :0.83323: L2-HR :0.72896: (Sim:16h40m24s) 
CPU  2 inst:  873000002 cyc: 1748525066 now IPC :0.26131: AVG IPC :0.49841: L2-Pf-HR :0.79540: L2-HR :0.71841: (Sim:16h40m53s) 
CPU  1 inst:  853000000 cyc: 1749919069 now IPC :0.26557: AVG IPC :0.48658: L2-Pf-HR :0.84213: L2-HR :0.73143: (Sim:16h41m37s) 
CPU  0 inst:  852000001 cyc: 1751270010 now IPC :0.26786: AVG IPC :0.48563: L2-Pf-HR :0.86448: L2-HR :0.74957: (Sim:16h42m20s) 
CPU  3 inst:  858000002 cyc: 1751342152 now IPC :0.26734: AVG IPC :0.48904: L2-Pf-HR :0.83264: L2-HR :0.72862: (Sim:16h42m22s) 
CPU  2 inst:  874000002 cyc: 1752299191 now IPC :0.26496: AVG IPC :0.49791: L2-Pf-HR :0.79483: L2-HR :0.71808: (Sim:16h42m52s) 
CPU  1 inst:  854000000 cyc: 1753752614 now IPC :0.26086: AVG IPC :0.48609: L2-Pf-HR :0.84155: L2-HR :0.73109: (Sim:16h43m38s) 
CPU  0 inst:  853000000 cyc: 1755128757 now IPC :0.25915: AVG IPC :0.48514: L2-Pf-HR :0.86394: L2-HR :0.74924: (Sim:16h44m21s) 
CPU  3 inst:  859000000 cyc: 1755181875 now IPC :0.26043: AVG IPC :0.48854: L2-Pf-HR :0.83204: L2-HR :0.72828: (Sim:16h44m23s) 
CPU  2 inst:  875000001 cyc: 1756126736 now IPC :0.26126: AVG IPC :0.49740: L2-Pf-HR :0.79427: L2-HR :0.71775: (Sim:16h44m53s) 
CPU  1 inst:  855000000 cyc: 1757536670 now IPC :0.26427: AVG IPC :0.48561: L2-Pf-HR :0.84096: L2-HR :0.73074: (Sim:16h45m38s) 
CPU  0 inst:  854000000 cyc: 1758911412 now IPC :0.26436: AVG IPC :0.48466: L2-Pf-HR :0.86340: L2-HR :0.74890: (Sim:16h46m21s) 
CPU  3 inst:  860000000 cyc: 1758948497 now IPC :0.26549: AVG IPC :0.48806: L2-Pf-HR :0.83145: L2-HR :0.72794: (Sim:16h46m22s) 
CPU  2 inst:  876000002 cyc: 1759910462 now IPC :0.26429: AVG IPC :0.49689: L2-Pf-HR :0.79371: L2-HR :0.71742: (Sim:16h46m53s) 
CPU  1 inst:  856000000 cyc: 1761295780 now IPC :0.26602: AVG IPC :0.48514: L2-Pf-HR :0.84037: L2-HR :0.73040: (Sim:16h47m31s) 
CPU  0 inst:  855000000 cyc: 1762637091 now IPC :0.26841: AVG IPC :0.48420: L2-Pf-HR :0.86286: L2-HR :0.74856: (Sim:16h48m0s) 
CPU  3 inst:  861000000 cyc: 1762689916 now IPC :0.26728: AVG IPC :0.48760: L2-Pf-HR :0.83086: L2-HR :0.72759: (Sim:16h48m1s) 
CPU  2 inst:  877000002 cyc: 1763632107 now IPC :0.26870: AVG IPC :0.49641: L2-Pf-HR :0.79314: L2-HR :0.71708: (Sim:16h48m24s) 
CPU  1 inst:  857000000 cyc: 1764955306 now IPC :0.27326: AVG IPC :0.48470: L2-Pf-HR :0.83978: L2-HR :0.73006: (Sim:16h49m6s) 
CPU  0 inst:  856000000 cyc: 1766291940 now IPC :0.27361: AVG IPC :0.48377: L2-Pf-HR :0.86232: L2-HR :0.74823: (Sim:16h49m49s) 
CPU  3 inst:  862000000 cyc: 1766347741 now IPC :0.27339: AVG IPC :0.48715: L2-Pf-HR :0.83028: L2-HR :0.72726: (Sim:16h49m50s) 
CPU  2 inst:  878000002 cyc: 1767294197 now IPC :0.27307: AVG IPC :0.49595: L2-Pf-HR :0.79258: L2-HR :0.71675: (Sim:16h50m20s) 
CPU  1 inst:  858000002 cyc: 1768655446 now IPC :0.27026: AVG IPC :0.48425: L2-Pf-HR :0.83920: L2-HR :0.72972: (Sim:16h51m3s) 
CPU  0 inst:  857000000 cyc: 1770044676 now IPC :0.26647: AVG IPC :0.48331: L2-Pf-HR :0.86178: L2-HR :0.74790: (Sim:16h51m47s) 
CPU  3 inst:  863000000 cyc: 1770092888 now IPC :0.26701: AVG IPC :0.48669: L2-Pf-HR :0.82968: L2-HR :0.72692: (Sim:16h51m48s) 
CPU  2 inst:  879000000 cyc: 1771022235 now IPC :0.26824: AVG IPC :0.49547: L2-Pf-HR :0.79202: L2-HR :0.71642: (Sim:16h52m18s) 
CPU  1 inst:  859000000 cyc: 1772459615 now IPC :0.26287: AVG IPC :0.48378: L2-Pf-HR :0.83861: L2-HR :0.72938: (Sim:16h53m3s) 
CPU  0 inst:  858000002 cyc: 1773803380 now IPC :0.26605: AVG IPC :0.48285: L2-Pf-HR :0.86125: L2-HR :0.74756: (Sim:16h53m45s) 
CPU  3 inst:  864000000 cyc: 1773859143 now IPC :0.26552: AVG IPC :0.48622: L2-Pf-HR :0.82909: L2-HR :0.72658: (Sim:16h53m47s) 
CPU  2 inst:  880000003 cyc: 1774837357 now IPC :0.26212: AVG IPC :0.49497: L2-Pf-HR :0.79146: L2-HR :0.71609: (Sim:16h54m18s) 
CPU  1 inst:  860000000 cyc: 1776261108 now IPC :0.26305: AVG IPC :0.48330: L2-Pf-HR :0.83803: L2-HR :0.72905: (Sim:16h55m2s) 
CPU  0 inst:  859000000 cyc: 1777609447 now IPC :0.26274: AVG IPC :0.48237: L2-Pf-HR :0.86072: L2-HR :0.74723: (Sim:16h55m40s) 
CPU  3 inst:  865000000 cyc: 1777647638 now IPC :0.26396: AVG IPC :0.48574: L2-Pf-HR :0.82850: L2-HR :0.72624: (Sim:16h55m41s) 
CPU  2 inst:  881000003 cyc: 1778655121 now IPC :0.26193: AVG IPC :0.49447: L2-Pf-HR :0.79090: L2-HR :0.71576: (Sim:16h56m3s) 
CPU  1 inst:  861000000 cyc: 1780097948 now IPC :0.26063: AVG IPC :0.48282: L2-Pf-HR :0.83745: L2-HR :0.72871: (Sim:16h56m48s) 
CPU  0 inst:  860000000 cyc: 1781454564 now IPC :0.26007: AVG IPC :0.48189: L2-Pf-HR :0.86018: L2-HR :0.74690: (Sim:16h57m31s) 
CPU  3 inst:  866000000 cyc: 1781490331 now IPC :0.26023: AVG IPC :0.48525: L2-Pf-HR :0.82792: L2-HR :0.72591: (Sim:16h57m32s) 
CPU  2 inst:  882000003 cyc: 1782493103 now IPC :0.26055: AVG IPC :0.49396: L2-Pf-HR :0.79034: L2-HR :0.71543: (Sim:16h58m3s) 
CPU  1 inst:  862000000 cyc: 1783920767 now IPC :0.26159: AVG IPC :0.48235: L2-Pf-HR :0.83687: L2-HR :0.72837: (Sim:16h58m48s) 
CPU  0 inst:  861000000 cyc: 1785268409 now IPC :0.26220: AVG IPC :0.48142: L2-Pf-HR :0.85964: L2-HR :0.74656: (Sim:16h59m30s) 
CPU  3 inst:  867000001 cyc: 1785306757 now IPC :0.26203: AVG IPC :0.48478: L2-Pf-HR :0.82734: L2-HR :0.72557: (Sim:16h59m32s) 
CPU  2 inst:  883000001 cyc: 1786277534 now IPC :0.26424: AVG IPC :0.49348: L2-Pf-HR :0.78978: L2-HR :0.71511: (Sim:17h0m2s) 
CPU  1 inst:  863000000 cyc: 1787653927 now IPC :0.26787: AVG IPC :0.48190: L2-Pf-HR :0.83629: L2-HR :0.72803: (Sim:17h0m46s) 
CPU  0 inst:  862000000 cyc: 1788979731 now IPC :0.26945: AVG IPC :0.48098: L2-Pf-HR :0.85912: L2-HR :0.74623: (Sim:17h1m28s) 
CPU  3 inst:  868000001 cyc: 1789031310 now IPC :0.26849: AVG IPC :0.48433: L2-Pf-HR :0.82675: L2-HR :0.72524: (Sim:17h1m29s) 
CPU  2 inst:  884000003 cyc: 1789989225 now IPC :0.26942: AVG IPC :0.49301: L2-Pf-HR :0.78923: L2-HR :0.71478: (Sim:17h2m0s) 
CPU  1 inst:  864000000 cyc: 1791414572 now IPC :0.26591: AVG IPC :0.48145: L2-Pf-HR :0.83571: L2-HR :0.72770: (Sim:17h2m32s) 
CPU  0 inst:  863000000 cyc: 1792712993 now IPC :0.26786: AVG IPC :0.48054: L2-Pf-HR :0.85858: L2-HR :0.74591: (Sim:17h3m12s) 
CPU  3 inst:  869000000 cyc: 1792753632 now IPC :0.26865: AVG IPC :0.48388: L2-Pf-HR :0.82617: L2-HR :0.72491: (Sim:17h3m12s) 
CPU  2 inst:  885000003 cyc: 1793715393 now IPC :0.26837: AVG IPC :0.49254: L2-Pf-HR :0.78867: L2-HR :0.71445: (Sim:17h3m34s) 
CPU  1 inst:  865000000 cyc: 1795199579 now IPC :0.26420: AVG IPC :0.48099: L2-Pf-HR :0.83512: L2-HR :0.72736: (Sim:17h4m21s) 
CPU  0 inst:  864000000 cyc: 1796467055 now IPC :0.26638: AVG IPC :0.48009: L2-Pf-HR :0.85805: L2-HR :0.74557: (Sim:17h5m1s) 
CPU  3 inst:  870000004 cyc: 1796533730 now IPC :0.26454: AVG IPC :0.48342: L2-Pf-HR :0.82558: L2-HR :0.72457: (Sim:17h5m3s) 
CPU  2 inst:  886000003 cyc: 1797489500 now IPC :0.26496: AVG IPC :0.49207: L2-Pf-HR :0.78811: L2-HR :0.71412: (Sim:17h5m33s) 
CPU  1 inst:  866000000 cyc: 1799017375 now IPC :0.26193: AVG IPC :0.48052: L2-Pf-HR :0.83455: L2-HR :0.72703: (Sim:17h6m21s) 
CPU  0 inst:  865000000 cyc: 1800273609 now IPC :0.26270: AVG IPC :0.47963: L2-Pf-HR :0.85751: L2-HR :0.74524: (Sim:17h7m1s) 
CPU  3 inst:  871000002 cyc: 1800322549 now IPC :0.26393: AVG IPC :0.48295: L2-Pf-HR :0.82500: L2-HR :0.72423: (Sim:17h7m2s) 
CPU  2 inst:  887000003 cyc: 1801301344 now IPC :0.26234: AVG IPC :0.49158: L2-Pf-HR :0.78755: L2-HR :0.71380: (Sim:17h7m33s) 
CPU  1 inst:  867000001 cyc: 1802807873 now IPC :0.26382: AVG IPC :0.48007: L2-Pf-HR :0.83397: L2-HR :0.72669: (Sim:17h8m20s) 
CPU  0 inst:  866000000 cyc: 1804058541 now IPC :0.26421: AVG IPC :0.47918: L2-Pf-HR :0.85699: L2-HR :0.74491: (Sim:17h9m0s) 
CPU  3 inst:  872000002 cyc: 1804104235 now IPC :0.26443: AVG IPC :0.48250: L2-Pf-HR :0.82442: L2-HR :0.72390: (Sim:17h9m1s) 
CPU  2 inst:  888000002 cyc: 1805062510 now IPC :0.26587: AVG IPC :0.49111: L2-Pf-HR :0.78700: L2-HR :0.71347: (Sim:17h9m31s) 
CPU  1 inst:  868000001 cyc: 1806623989 now IPC :0.26205: AVG IPC :0.47961: L2-Pf-HR :0.83339: L2-HR :0.72636: (Sim:17h10m19s) 
CPU  0 inst:  867000001 cyc: 1807846985 now IPC :0.26396: AVG IPC :0.47873: L2-Pf-HR :0.85646: L2-HR :0.74458: (Sim:17h10m57s) 
CPU  3 inst:  873000002 cyc: 1807913100 now IPC :0.26255: AVG IPC :0.48203: L2-Pf-HR :0.82384: L2-HR :0.72357: (Sim:17h10m59s) 
CPU  2 inst:  889000001 cyc: 1808860287 now IPC :0.26331: AVG IPC :0.49063: L2-Pf-HR :0.78645: L2-HR :0.71315: (Sim:17h11m29s) 
CPU  1 inst:  869000000 cyc: 1810292838 now IPC :0.27256: AVG IPC :0.47919: L2-Pf-HR :0.83281: L2-HR :0.72602: (Sim:17h12m14s) 
Caught signal: 2
     > Finished combination: TraceType=770-tot Sim:1974000000 Prefetcher=L2ipcp L1=ipcp
