TRACE: [1319000000]_FE_[Pythia-70M]_[h8]_[s2048]_[d64] Warmup: 2000000 NumTraces: 1319000000
L1:ipcp:L2:ipcp
*************************************************
   ChampSim Multicore Out-of-Order Simulator
   Last compiled: Oct 30 2024 04:05:27
*************************************************

trace_0 770-tot_memTraces_v4_2048/memTraces[1319000000]_FE_[Pythia-70M]_[h8]_[s2048]_[d64].champsim.9SSize.xz
trace_1 770-tot_memTraces_v4_2048/memTraces[1319000000]_FE_[Pythia-70M]_[h8]_[s2048]_[d64].champsim.9SSize.xz
trace_2 770-tot_memTraces_v4_2048/memTraces[1319000000]_FE_[Pythia-70M]_[h8]_[s2048]_[d64].champsim.9SSize.xz
trace_3 770-tot_memTraces_v4_2048/memTraces[1319000000]_FE_[Pythia-70M]_[h8]_[s2048]_[d64].champsim.9SSize.xz
MAIN.cc ln 751 stats print skipped
CPU  0 inst:    1000002 cyc:     499822 now IPC :2.00072: AVG IPC :2.00072: L2-Pf-HR :0.74763: L2-HR :0.70735: (Sim:0h0m47s) 
CPU  1 inst:    1000002 cyc:     499881 now IPC :2.00048: AVG IPC :2.00048: L2-Pf-HR :0.77029: L2-HR :0.70410: (Sim:0h0m47s) 
CPU  2 inst:    1000002 cyc:     499989 now IPC :2.00005: AVG IPC :2.00005: L2-Pf-HR :0.79703: L2-HR :0.73571: (Sim:0h0m47s) 
CPU  3 inst:    1000002 cyc:     500058 now IPC :1.99977: AVG IPC :1.99977: L2-Pf-HR :0.77253: L2-HR :0.69188: (Sim:0h0m47s) 
CPU  0 inst:    2000005 cyc:     982743 now IPC :2.07074: AVG IPC :2.03513: L2-Pf-HR :0.79541: L2-HR :0.75542: (Sim:0h1m37s) 
CPU  1 inst:    2000005 cyc:     982867 now IPC :2.07046: AVG IPC :2.03487: L2-Pf-HR :0.83119: L2-HR :0.75575: (Sim:0h1m37s) 
CPU  2 inst:    2000005 cyc:     983133 now IPC :2.06978: AVG IPC :2.03432: L2-Pf-HR :0.86341: L2-HR :0.79679: (Sim:0h1m37s) 
CPU  3 inst:    2000005 cyc:     983179 now IPC :2.06988: AVG IPC :2.03422: L2-Pf-HR :0.85456: L2-HR :0.75986: (Sim:0h1m37s) 

Warmup complete CPU  0 instructions:    2000914 cycles:     983179 (Simulation time: 0 hr 1 min 37 sec) 
Warmup complete CPU  1 instructions:    2000659 cycles:     983179 (Simulation time: 0 hr 1 min 37 sec) 
Warmup complete CPU  2 instructions:    2000144 cycles:     983179 (Simulation time: 0 hr 1 min 37 sec) 
Warmup complete CPU  3 instructions:    2000005 cycles:     983179 (Simulation time: 0 hr 1 min 37 sec) 

CPU  1 inst:    3000004 cyc:    1760845 now IPC :1.28538: AVG IPC :1.28506: L2-Pf-HR :0.93470: L2-HR :0.82581: (Sim:0h2m25s) 
CPU  3 inst:    3000004 cyc:    1761510 now IPC :1.28480: AVG IPC :1.28480: L2-Pf-HR :0.94088: L2-HR :0.83558: (Sim:0h2m25s) 
CPU  0 inst:    3000004 cyc:    1761714 now IPC :1.28374: AVG IPC :1.28329: L2-Pf-HR :0.90714: L2-HR :0.81320: (Sim:0h2m25s) 
CPU  2 inst:    3000004 cyc:    1767336 now IPC :1.27518: AVG IPC :1.27508: L2-Pf-HR :0.91863: L2-HR :0.85177: (Sim:0h2m26s) 
CPU  0 inst:    4000004 cyc:    2597266 now IPC :1.19681: AVG IPC :1.23853: L2-Pf-HR :0.90793: L2-HR :0.81520: (Sim:0h3m15s) 
CPU  1 inst:    4000004 cyc:    2598889 now IPC :1.19325: AVG IPC :1.23744: L2-Pf-HR :0.93477: L2-HR :0.82205: (Sim:0h3m15s) 
CPU  3 inst:    4000004 cyc:    2607749 now IPC :1.18170: AVG IPC :1.23109: L2-Pf-HR :0.94363: L2-HR :0.83657: (Sim:0h3m15s) 
CPU  2 inst:    4000004 cyc:    2611440 now IPC :1.18469: AVG IPC :1.22822: L2-Pf-HR :0.91946: L2-HR :0.85095: (Sim:0h3m15s) 
CPU  0 inst:    5000002 cyc:    3435572 now IPC :1.19288: AVG IPC :1.22292: L2-Pf-HR :0.90984: L2-HR :0.81775: (Sim:0h4m3s) 
CPU  1 inst:    5000002 cyc:    3463232 now IPC :1.15695: AVG IPC :1.20939: L2-Pf-HR :0.93693: L2-HR :0.82477: (Sim:0h4m5s) 
CPU  2 inst:    5000002 cyc:    3473712 now IPC :1.15972: AVG IPC :1.20450: L2-Pf-HR :0.91964: L2-HR :0.85291: (Sim:0h4m5s) 
CPU  3 inst:    5000002 cyc:    3477659 now IPC :1.14954: AVG IPC :1.20265: L2-Pf-HR :0.93937: L2-HR :0.83201: (Sim:0h4m6s) 
CPU  0 inst:    6000002 cyc:    4194787 now IPC :1.31715: AVG IPC :1.24520: L2-Pf-HR :0.90736: L2-HR :0.81336: (Sim:0h4m49s) 
CPU  1 inst:    6000002 cyc:    4284690 now IPC :1.21735: AVG IPC :1.21137: L2-Pf-HR :0.93538: L2-HR :0.82084: (Sim:0h4m55s) 
CPU  2 inst:    6000001 cyc:    4293046 now IPC :1.22050: AVG IPC :1.20846: L2-Pf-HR :0.91897: L2-HR :0.85163: (Sim:0h4m56s) 
CPU  3 inst:    6000001 cyc:    4296780 now IPC :1.22082: AVG IPC :1.20714: L2-Pf-HR :0.93680: L2-HR :0.82770: (Sim:0h4m56s) 
CPU  0 inst:    7000002 cyc:    4906910 now IPC :1.40425: AVG IPC :1.27406: L2-Pf-HR :0.90824: L2-HR :0.81392: (Sim:0h5m34s) 
CPU  1 inst:    7000002 cyc:    5056602 now IPC :1.29548: AVG IPC :1.22731: L2-Pf-HR :0.93415: L2-HR :0.81880: (Sim:0h5m44s) 
CPU  2 inst:    7000002 cyc:    5063928 now IPC :1.29722: AVG IPC :1.22523: L2-Pf-HR :0.91890: L2-HR :0.85066: (Sim:0h5m44s) 
CPU  3 inst:    7000002 cyc:    5068661 now IPC :1.29554: AVG IPC :1.22385: L2-Pf-HR :0.93533: L2-HR :0.82584: (Sim:0h5m44s) 
CPU  0 inst:    8000003 cyc:    5553156 now IPC :1.54740: AVG IPC :1.31272: L2-Pf-HR :0.90507: L2-HR :0.81080: (Sim:0h6m16s) 
CPU  1 inst:    8000003 cyc:    5822636 now IPC :1.30543: AVG IPC :1.23967: L2-Pf-HR :0.93468: L2-HR :0.81937: (Sim:0h6m34s) 
CPU  2 inst:    8000003 cyc:    5825756 now IPC :1.31263: AVG IPC :1.23898: L2-Pf-HR :0.91825: L2-HR :0.85040: (Sim:0h6m34s) 
CPU  3 inst:    8000003 cyc:    5839184 now IPC :1.29782: AVG IPC :1.23558: L2-Pf-HR :0.93428: L2-HR :0.82409: (Sim:0h6m35s) 
CPU  0 inst:    9000003 cyc:    6190174 now IPC :1.56981: AVG IPC :1.34417: L2-Pf-HR :0.90364: L2-HR :0.80984: (Sim:0h6m58s) 
CPU  1 inst:    9000003 cyc:    6610906 now IPC :1.26860: AVG IPC :1.24372: L2-Pf-HR :0.93418: L2-HR :0.81819: (Sim:0h7m25s) 
CPU  2 inst:    9000003 cyc:    6616371 now IPC :1.26484: AVG IPC :1.24261: L2-Pf-HR :0.91751: L2-HR :0.85005: (Sim:0h7m25s) 
CPU  3 inst:    9000002 cyc:    6628891 now IPC :1.26629: AVG IPC :1.23988: L2-Pf-HR :0.93421: L2-HR :0.82443: (Sim:0h7m26s) 
CPU  0 inst:   10000002 cyc:    6901391 now IPC :1.40604: AVG IPC :1.35161: L2-Pf-HR :0.90164: L2-HR :0.80781: (Sim:0h7m42s) 
CPU  1 inst:   10000002 cyc:    7427869 now IPC :1.22404: AVG IPC :1.24123: L2-Pf-HR :0.93462: L2-HR :0.81847: (Sim:0h8m14s) 
CPU  2 inst:   10000002 cyc:    7444896 now IPC :1.20696: AVG IPC :1.23804: L2-Pf-HR :0.91737: L2-HR :0.85005: (Sim:0h8m15s) 
CPU  3 inst:   10000002 cyc:    7463505 now IPC :1.19816: AVG IPC :1.23451: L2-Pf-HR :0.93373: L2-HR :0.82321: (Sim:0h8m16s) 
CPU  0 inst:   11000004 cyc:    7704104 now IPC :1.24578: AVG IPC :1.33897: L2-Pf-HR :0.89835: L2-HR :0.80580: (Sim:0h8m30s) 
CPU  1 inst:   11000004 cyc:    8268698 now IPC :1.18930: AVG IPC :1.23524: L2-Pf-HR :0.93508: L2-HR :0.81895: (Sim:0h9m4s) 
CPU  2 inst:   11000004 cyc:    8297262 now IPC :1.17321: AVG IPC :1.23048: L2-Pf-HR :0.91723: L2-HR :0.84988: (Sim:0h9m5s) 
CPU  3 inst:   11000004 cyc:    8315022 now IPC :1.17438: AVG IPC :1.22752: L2-Pf-HR :0.93375: L2-HR :0.82280: (Sim:0h9m6s) 
CPU  0 inst:   12000004 cyc:    8537915 now IPC :1.19931: AVG IPC :1.32355: L2-Pf-HR :0.89752: L2-HR :0.80458: (Sim:0h9m20s) 
CPU  1 inst:   12000004 cyc:    9072579 now IPC :1.24397: AVG IPC :1.23610: L2-Pf-HR :0.93399: L2-HR :0.81747: (Sim:0h9m52s) 
CPU  2 inst:   12000004 cyc:    9114012 now IPC :1.22436: AVG IPC :1.22987: L2-Pf-HR :0.91761: L2-HR :0.84972: (Sim:0h9m55s) 
CPU  3 inst:   12000004 cyc:    9132130 now IPC :1.22383: AVG IPC :1.22715: L2-Pf-HR :0.93378: L2-HR :0.82235: (Sim:0h9m56s) 
CPU  0 inst:   13000005 cyc:    9329685 now IPC :1.26299: AVG IPC :1.31781: L2-Pf-HR :0.89896: L2-HR :0.80501: (Sim:0h10m9s) 
CPU  1 inst:   13000005 cyc:    9870653 now IPC :1.25302: AVG IPC :1.23762: L2-Pf-HR :0.93199: L2-HR :0.81753: (Sim:0h10m41s) 
CPU  2 inst:   13000005 cyc:    9914163 now IPC :1.24977: AVG IPC :1.23165: L2-Pf-HR :0.91632: L2-HR :0.84855: (Sim:0h10m44s) 
CPU  3 inst:   13000005 cyc:    9929953 now IPC :1.25341: AVG IPC :1.22949: L2-Pf-HR :0.93013: L2-HR :0.82015: (Sim:0h10m45s) 
CPU  0 inst:   14000003 cyc:   10084803 now IPC :1.32429: AVG IPC :1.31835: L2-Pf-HR :0.90250: L2-HR :0.80643: (Sim:0h10m55s) 
CPU  1 inst:   14000003 cyc:   10609753 now IPC :1.35299: AVG IPC :1.24648: L2-Pf-HR :0.93356: L2-HR :0.81948: (Sim:0h11m29s) 
CPU  2 inst:   14000003 cyc:   10637711 now IPC :1.38208: AVG IPC :1.24292: L2-Pf-HR :0.91750: L2-HR :0.84978: (Sim:0h11m31s) 
CPU  3 inst:   14000003 cyc:   10652696 now IPC :1.38361: AVG IPC :1.24101: L2-Pf-HR :0.93123: L2-HR :0.82071: (Sim:0h11m32s) 
CPU  0 inst:   15000005 cyc:   10832260 now IPC :1.33787: AVG IPC :1.31983: L2-Pf-HR :0.90538: L2-HR :0.80681: (Sim:0h11m43s) 
CPU  1 inst:   15000001 cyc:   11382245 now IPC :1.29451: AVG IPC :1.25005: L2-Pf-HR :0.93370: L2-HR :0.81963: (Sim:0h12m18s) 
CPU  2 inst:   15000001 cyc:   11403433 now IPC :1.30595: AVG IPC :1.24756: L2-Pf-HR :0.91944: L2-HR :0.85100: (Sim:0h12m19s) 
CPU  3 inst:   15000002 cyc:   11414750 now IPC :1.31224: AVG IPC :1.24622: L2-Pf-HR :0.93196: L2-HR :0.82118: (Sim:0h12m20s) 
CPU  0 inst:   16000000 cyc:   11586826 now IPC :1.32526: AVG IPC :1.32021: L2-Pf-HR :0.90728: L2-HR :0.80879: (Sim:0h12m31s) 
CPU  1 inst:   16000000 cyc:   12161418 now IPC :1.28341: AVG IPC :1.25237: L2-Pf-HR :0.93436: L2-HR :0.82104: (Sim:0h13m7s) 
CPU  2 inst:   16000000 cyc:   12170578 now IPC :1.30353: AVG IPC :1.25140: L2-Pf-HR :0.92110: L2-HR :0.85248: (Sim:0h13m7s) 
CPU  3 inst:   16000000 cyc:   12176717 now IPC :1.31239: AVG IPC :1.25072: L2-Pf-HR :0.93228: L2-HR :0.82291: (Sim:0h13m8s) 
CPU  0 inst:   17000003 cyc:   12345294 now IPC :1.31845: AVG IPC :1.32010: L2-Pf-HR :0.91079: L2-HR :0.81119: (Sim:0h13m18s) 
CPU  1 inst:   17000003 cyc:   12954895 now IPC :1.26028: AVG IPC :1.25290: L2-Pf-HR :0.93616: L2-HR :0.82303: (Sim:0h13m55s) 
CPU  2 inst:   17000003 cyc:   12962804 now IPC :1.26227: AVG IPC :1.25211: L2-Pf-HR :0.92234: L2-HR :0.85360: (Sim:0h13m56s) 
CPU  3 inst:   17000003 cyc:   12967704 now IPC :1.26425: AVG IPC :1.25161: L2-Pf-HR :0.93293: L2-HR :0.82311: (Sim:0h13m56s) 
CPU  0 inst:   18000003 cyc:   13128071 now IPC :1.27750: AVG IPC :1.31735: L2-Pf-HR :0.91257: L2-HR :0.81121: (Sim:0h14m6s) 
CPU  1 inst:   18000003 cyc:   13738982 now IPC :1.27537: AVG IPC :1.25428: L2-Pf-HR :0.93658: L2-HR :0.82374: (Sim:0h14m43s) 
CPU  2 inst:   18000003 cyc:   13746927 now IPC :1.27531: AVG IPC :1.25354: L2-Pf-HR :0.92411: L2-HR :0.85474: (Sim:0h14m44s) 
CPU  3 inst:   18000000 cyc:   13751657 now IPC :1.27558: AVG IPC :1.25309: L2-Pf-HR :0.93444: L2-HR :0.82442: (Sim:0h14m44s) 
CPU  0 inst:   19000002 cyc:   13927191 now IPC :1.25138: AVG IPC :1.31328: L2-Pf-HR :0.91659: L2-HR :0.81370: (Sim:0h14m54s) 
CPU  1 inst:   19000002 cyc:   14551660 now IPC :1.23050: AVG IPC :1.25286: L2-Pf-HR :0.93669: L2-HR :0.82405: (Sim:0h15m32s) 
CPU  2 inst:   19000002 cyc:   14555430 now IPC :1.23685: AVG IPC :1.25255: L2-Pf-HR :0.92575: L2-HR :0.85585: (Sim:0h15m32s) 
CPU  3 inst:   19000003 cyc:   14565381 now IPC :1.22892: AVG IPC :1.25164: L2-Pf-HR :0.93570: L2-HR :0.82572: (Sim:0h15m33s) 
CPU  0 inst:   20000004 cyc:   14721091 now IPC :1.25961: AVG IPC :1.31018: L2-Pf-HR :0.91851: L2-HR :0.81362: (Sim:0h15m42s) 
CPU  1 inst:   20000001 cyc:   15367849 now IPC :1.22521: AVG IPC :1.25129: L2-Pf-HR :0.93804: L2-HR :0.82561: (Sim:0h16m21s) 
CPU  2 inst:   20000001 cyc:   15372453 now IPC :1.22395: AVG IPC :1.25092: L2-Pf-HR :0.92696: L2-HR :0.85659: (Sim:0h16m21s) 
CPU  3 inst:   20000004 cyc:   15380298 now IPC :1.22712: AVG IPC :1.25025: L2-Pf-HR :0.93702: L2-HR :0.82619: (Sim:0h16m22s) 
CPU  0 inst:   21000002 cyc:   15490024 now IPC :1.30050: AVG IPC :1.30966: L2-Pf-HR :0.92062: L2-HR :0.81485: (Sim:0h16m29s) 
CPU  1 inst:   21000003 cyc:   16140243 now IPC :1.29468: AVG IPC :1.25350: L2-Pf-HR :0.93921: L2-HR :0.82657: (Sim:0h17m9s) 
CPU  2 inst:   21000003 cyc:   16145695 now IPC :1.29326: AVG IPC :1.25308: L2-Pf-HR :0.92814: L2-HR :0.85767: (Sim:0h17m9s) 
CPU  3 inst:   21000003 cyc:   16152195 now IPC :1.29551: AVG IPC :1.25255: L2-Pf-HR :0.93841: L2-HR :0.82786: (Sim:0h17m10s) 
CPU  0 inst:   22000001 cyc:   16245379 now IPC :1.32388: AVG IPC :1.31037: L2-Pf-HR :0.92046: L2-HR :0.81467: (Sim:0h17m16s) 
CPU  1 inst:   22000004 cyc:   16879824 now IPC :1.35212: AVG IPC :1.25809: L2-Pf-HR :0.93969: L2-HR :0.82708: (Sim:0h17m57s) 
CPU  2 inst:   22000004 cyc:   16882839 now IPC :1.35659: AVG IPC :1.25788: L2-Pf-HR :0.92921: L2-HR :0.85838: (Sim:0h17m58s) 
CPU  3 inst:   22000004 cyc:   16887065 now IPC :1.36079: AVG IPC :1.25755: L2-Pf-HR :0.93865: L2-HR :0.82855: (Sim:0h17m58s) 
CPU  0 inst:   23000001 cyc:   16925303 now IPC :1.47075: AVG IPC :1.31721: L2-Pf-HR :0.92173: L2-HR :0.81439: (Sim:0h18m1s) 
CPU  1 inst:   23000001 cyc:   17565701 now IPC :1.45798: AVG IPC :1.26635: L2-Pf-HR :0.94003: L2-HR :0.82845: (Sim:0h18m44s) 
CPU  2 inst:   23000001 cyc:   17569914 now IPC :1.45544: AVG IPC :1.26606: L2-Pf-HR :0.92997: L2-HR :0.85908: (Sim:0h18m45s) 
CPU  3 inst:   23000001 cyc:   17573409 now IPC :1.45699: AVG IPC :1.26581: L2-Pf-HR :0.93959: L2-HR :0.82958: (Sim:0h18m45s) 
CPU  0 inst:   24000004 cyc:   17581831 now IPC :1.52317: AVG IPC :1.32535: L2-Pf-HR :0.92290: L2-HR :0.81429: (Sim:0h18m45s) 
CPU  1 inst:   24000001 cyc:   18279844 now IPC :1.40028: AVG IPC :1.27188: L2-Pf-HR :0.93974: L2-HR :0.82837: (Sim:0h19m31s) 
CPU  2 inst:   24000004 cyc:   18283906 now IPC :1.40058: AVG IPC :1.27161: L2-Pf-HR :0.93074: L2-HR :0.85959: (Sim:0h19m31s) 
CPU  3 inst:   24000001 cyc:   18288224 now IPC :1.39896: AVG IPC :1.27131: L2-Pf-HR :0.94097: L2-HR :0.83033: (Sim:0h19m32s) 
CPU  0 inst:   25000000 cyc:   18328851 now IPC :1.33865: AVG IPC :1.32593: L2-Pf-HR :0.92361: L2-HR :0.81480: (Sim:0h19m34s) 
CPU  0 inst:   26000004 cyc:   19101530 now IPC :1.29420: AVG IPC :1.32457: L2-Pf-HR :0.92526: L2-HR :0.81542: (Sim:0h20m16s) 
CPU  1 inst:   25000005 cyc:   19327967 now IPC :0.95409: AVG IPC :1.25373: L2-Pf-HR :0.93857: L2-HR :0.82828: (Sim:0h20m27s) 
CPU  2 inst:   25000005 cyc:   19349633 now IPC :0.93833: AVG IPC :1.25228: L2-Pf-HR :0.93041: L2-HR :0.85910: (Sim:0h20m28s) 
CPU  3 inst:   25000000 cyc:   19351666 now IPC :0.94034: AVG IPC :1.25214: L2-Pf-HR :0.93986: L2-HR :0.82960: (Sim:0h20m28s) 
CPU  0 inst:   27000005 cyc:   20037521 now IPC :1.06839: AVG IPC :1.31199: L2-Pf-HR :0.92627: L2-HR :0.81553: (Sim:0h21m2s) 
CPU  1 inst:   26000003 cyc:   20481502 now IPC :0.86690: AVG IPC :1.23084: L2-Pf-HR :0.93873: L2-HR :0.82862: (Sim:0h21m23s) 
CPU  2 inst:   26000002 cyc:   20534420 now IPC :0.84403: AVG IPC :1.22754: L2-Pf-HR :0.93082: L2-HR :0.85965: (Sim:0h21m25s) 
CPU  3 inst:   26000002 cyc:   20538041 now IPC :0.84291: AVG IPC :1.22732: L2-Pf-HR :0.94073: L2-HR :0.82984: (Sim:0h21m26s) 
CPU  0 inst:   28000002 cyc:   21110525 now IPC :0.93196: AVG IPC :1.29173: L2-Pf-HR :0.92746: L2-HR :0.81660: (Sim:0h21m54s) 
CPU  1 inst:   27000001 cyc:   21459350 now IPC :1.02265: AVG IPC :1.22090: L2-Pf-HR :0.93914: L2-HR :0.82915: (Sim:0h22m11s) 
CPU  2 inst:   27000000 cyc:   21634254 now IPC :0.90923: AVG IPC :1.21058: L2-Pf-HR :0.93154: L2-HR :0.86007: (Sim:0h22m20s) 
CPU  3 inst:   27000001 cyc:   21654575 now IPC :0.89563: AVG IPC :1.20940: L2-Pf-HR :0.94107: L2-HR :0.82970: (Sim:0h22m21s) 
CPU  0 inst:   29000001 cyc:   22164502 now IPC :0.94879: AVG IPC :1.27466: L2-Pf-HR :0.92933: L2-HR :0.81781: (Sim:0h22m48s) 
CPU  1 inst:   28000002 cyc:   22291469 now IPC :1.20175: AVG IPC :1.22015: L2-Pf-HR :0.93958: L2-HR :0.82930: (Sim:0h22m55s) 
CPU  2 inst:   28000002 cyc:   22695705 now IPC :0.94211: AVG IPC :1.19746: L2-Pf-HR :0.93209: L2-HR :0.86058: (Sim:0h23m16s) 
CPU  3 inst:   28000002 cyc:   22720979 now IPC :0.93773: AVG IPC :1.19607: L2-Pf-HR :0.94136: L2-HR :0.83042: (Sim:0h23m17s) 
CPU  1 inst:   29000001 cyc:   23130213 now IPC :1.19226: AVG IPC :1.21910: L2-Pf-HR :0.94015: L2-HR :0.83025: (Sim:0h23m38s) 
CPU  0 inst:   30000001 cyc:   23265377 now IPC :0.90837: AVG IPC :1.25657: L2-Pf-HR :0.93034: L2-HR :0.81788: (Sim:0h23m44s) 
CPU  2 inst:   29000001 cyc:   23794056 now IPC :0.91045: AVG IPC :1.18364: L2-Pf-HR :0.93263: L2-HR :0.86102: (Sim:0h24m10s) 
CPU  3 inst:   29000001 cyc:   23879842 now IPC :0.86291: AVG IPC :1.17921: L2-Pf-HR :0.94096: L2-HR :0.83043: (Sim:0h24m14s) 
CPU  1 inst:   30000001 cyc:   24200396 now IPC :0.93442: AVG IPC :1.20597: L2-Pf-HR :0.94065: L2-HR :0.83048: (Sim:0h24m31s) 
CPU  0 inst:   31000002 cyc:   24416780 now IPC :0.86851: AVG IPC :1.23750: L2-Pf-HR :0.93219: L2-HR :0.81915: (Sim:0h24m43s) 
CPU  2 inst:   30000001 cyc:   24684147 now IPC :1.12348: AVG IPC :1.18138: L2-Pf-HR :0.93332: L2-HR :0.86137: (Sim:0h24m56s) 
CPU  3 inst:   30000001 cyc:   24972451 now IPC :0.91524: AVG IPC :1.16719: L2-Pf-HR :0.94145: L2-HR :0.83112: (Sim:0h25m10s) 
CPU  1 inst:   31000002 cyc:   25318170 now IPC :0.89464: AVG IPC :1.19167: L2-Pf-HR :0.94098: L2-HR :0.83064: (Sim:0h25m28s) 
CPU  0 inst:   32000005 cyc:   25560950 now IPC :0.87400: AVG IPC :1.22058: L2-Pf-HR :0.93322: L2-HR :0.81898: (Sim:0h25m40s) 
CPU  2 inst:   31000002 cyc:   25572189 now IPC :1.12607: AVG IPC :1.17938: L2-Pf-HR :0.93383: L2-HR :0.86169: (Sim:0h25m40s) 
CPU  3 inst:   31000002 cyc:   26269917 now IPC :0.77073: AVG IPC :1.14685: L2-Pf-HR :0.94103: L2-HR :0.83139: (Sim:0h26m13s) 
CPU  1 inst:   32000005 cyc:   26635890 now IPC :0.75889: AVG IPC :1.16944: L2-Pf-HR :0.94171: L2-HR :0.83125: (Sim:0h26m30s) 
CPU  2 inst:   32000004 cyc:   26682948 now IPC :0.90029: AVG IPC :1.16732: L2-Pf-HR :0.93437: L2-HR :0.86190: (Sim:0h26m32s) 
CPU  0 inst:   33000002 cyc:   26719228 now IPC :0.86335: AVG IPC :1.20450: L2-Pf-HR :0.93459: L2-HR :0.81952: (Sim:0h26m34s) 
CPU  3 inst:   32000004 cyc:   27517115 now IPC :0.80180: AVG IPC :1.13063: L2-Pf-HR :0.94137: L2-HR :0.83200: (Sim:0h27m14s) 
CPU  0 inst:   34000000 cyc:   27617926 now IPC :1.11272: AVG IPC :1.20140: L2-Pf-HR :0.93479: L2-HR :0.81918: (Sim:0h27m18s) 
CPU  1 inst:   33000002 cyc:   27798480 now IPC :0.86015: AVG IPC :1.15603: L2-Pf-HR :0.94146: L2-HR :0.83158: (Sim:0h27m28s) 
CPU  2 inst:   33000002 cyc:   27867976 now IPC :0.84386: AVG IPC :1.15306: L2-Pf-HR :0.93467: L2-HR :0.86232: (Sim:0h27m31s) 
CPU  0 inst:   35000000 cyc:   28583547 now IPC :1.03560: AVG IPC :1.19560: L2-Pf-HR :0.93547: L2-HR :0.81886: (Sim:0h28m6s) 
CPU  3 inst:   33000002 cyc:   28725544 now IPC :0.82752: AVG IPC :1.11742: L2-Pf-HR :0.94208: L2-HR :0.83291: (Sim:0h28m13s) 
CPU  1 inst:   34000000 cyc:   29030904 now IPC :0.81141: AVG IPC :1.14089: L2-Pf-HR :0.94194: L2-HR :0.83207: (Sim:0h28m26s) 
CPU  2 inst:   34000000 cyc:   29074856 now IPC :0.82858: AVG IPC :1.13912: L2-Pf-HR :0.93517: L2-HR :0.86270: (Sim:0h28m29s) 
CPU  0 inst:   36000003 cyc:   29815903 now IPC :0.81146: AVG IPC :1.17918: L2-Pf-HR :0.93531: L2-HR :0.81892: (Sim:0h29m1s) 
CPU  3 inst:   34000000 cyc:   30142550 now IPC :0.70571: AVG IPC :1.09742: L2-Pf-HR :0.94223: L2-HR :0.83320: (Sim:0h29m15s) 
CPU  1 inst:   35000000 cyc:   30410229 now IPC :0.72499: AVG IPC :1.12139: L2-Pf-HR :0.94274: L2-HR :0.83295: (Sim:0h29m26s) 
CPU  2 inst:   35000003 cyc:   30464590 now IPC :0.71956: AVG IPC :1.11934: L2-Pf-HR :0.93553: L2-HR :0.86299: (Sim:0h29m29s) 
CPU  0 inst:   37000004 cyc:   31118084 now IPC :0.76794: AVG IPC :1.16141: L2-Pf-HR :0.93515: L2-HR :0.81895: (Sim:0h29m59s) 
CPU  3 inst:   35000000 cyc:   31370206 now IPC :0.81456: AVG IPC :1.08599: L2-Pf-HR :0.94260: L2-HR :0.83381: (Sim:0h30m12s) 
CPU  1 inst:   36000003 cyc:   31492763 now IPC :0.92376: AVG IPC :1.11438: L2-Pf-HR :0.94230: L2-HR :0.83256: (Sim:0h30m18s) 
CPU  2 inst:   36000003 cyc:   31674913 now IPC :0.82623: AVG IPC :1.10779: L2-Pf-HR :0.93599: L2-HR :0.86340: (Sim:0h30m27s) 
CPU  0 inst:   38000000 cyc:   32348122 now IPC :0.81298: AVG IPC :1.14775: L2-Pf-HR :0.93606: L2-HR :0.81932: (Sim:0h30m57s) 
CPU  3 inst:   36000003 cyc:   32612708 now IPC :0.80483: AVG IPC :1.07494: L2-Pf-HR :0.94287: L2-HR :0.83439: (Sim:0h31m10s) 
CPU  1 inst:   37000000 cyc:   32731129 now IPC :0.80751: AVG IPC :1.10241: L2-Pf-HR :0.94152: L2-HR :0.83244: (Sim:0h31m15s) 
CPU  2 inst:   37000003 cyc:   32928282 now IPC :0.79785: AVG IPC :1.09563: L2-Pf-HR :0.93576: L2-HR :0.86296: (Sim:0h31m25s) 
CPU  0 inst:   39000001 cyc:   33560322 now IPC :0.82495: AVG IPC :1.13574: L2-Pf-HR :0.93680: L2-HR :0.81944: (Sim:0h31m56s) 
CPU  1 inst:   38000000 cyc:   33680084 now IPC :1.05379: AVG IPC :1.10100: L2-Pf-HR :0.94231: L2-HR :0.83274: (Sim:0h32m3s) 
CPU  3 inst:   37000000 cyc:   33863639 now IPC :0.79940: AVG IPC :1.06446: L2-Pf-HR :0.94221: L2-HR :0.83386: (Sim:0h32m12s) 
CPU  2 inst:   38000003 cyc:   33934224 now IPC :0.99409: AVG IPC :1.09253: L2-Pf-HR :0.93619: L2-HR :0.86324: (Sim:0h32m16s) 
CPU  1 inst:   39000001 cyc:   34593855 now IPC :1.09437: AVG IPC :1.10082: L2-Pf-HR :0.94242: L2-HR :0.83280: (Sim:0h32m52s) 
CPU  0 inst:   40000001 cyc:   34636571 now IPC :0.92915: AVG IPC :1.12913: L2-Pf-HR :0.93807: L2-HR :0.82002: (Sim:0h32m54s) 
CPU  2 inst:   39000001 cyc:   34833804 now IPC :1.11163: AVG IPC :1.09303: L2-Pf-HR :0.93664: L2-HR :0.86342: (Sim:0h33m4s) 
CPU  3 inst:   38000003 cyc:   34935344 now IPC :0.93310: AVG IPC :1.06032: L2-Pf-HR :0.94254: L2-HR :0.83389: (Sim:0h33m10s) 
CPU  1 inst:   40000001 cyc:   35619260 now IPC :0.97522: AVG IPC :1.09710: L2-Pf-HR :0.94237: L2-HR :0.83297: (Sim:0h33m45s) 
CPU  2 inst:   40000001 cyc:   35729076 now IPC :1.11698: AVG IPC :1.09365: L2-Pf-HR :0.93705: L2-HR :0.86371: (Sim:0h33m50s) 
CPU  0 inst:   41000002 cyc:   35755545 now IPC :0.89368: AVG IPC :1.12155: L2-Pf-HR :0.93917: L2-HR :0.82081: (Sim:0h33m52s) 
CPU  3 inst:   39000001 cyc:   36107847 now IPC :0.85287: AVG IPC :1.05339: L2-Pf-HR :0.94227: L2-HR :0.83399: (Sim:0h34m8s) 
CPU  1 inst:   41000002 cyc:   36844256 now IPC :0.81633: AVG IPC :1.08751: L2-Pf-HR :0.94297: L2-HR :0.83361: (Sim:0h34m42s) 
CPU  2 inst:   41000002 cyc:   36868206 now IPC :0.87786: AVG IPC :1.08680: L2-Pf-HR :0.93734: L2-HR :0.86397: (Sim:0h34m44s) 
CPU  0 inst:   42000001 cyc:   37003040 now IPC :0.80161: AVG IPC :1.11047: L2-Pf-HR :0.93917: L2-HR :0.82067: (Sim:0h34m49s) 
CPU  3 inst:   40000001 cyc:   37406441 now IPC :0.77006: AVG IPC :1.04329: L2-Pf-HR :0.94233: L2-HR :0.83456: (Sim:0h35m7s) 
CPU  2 inst:   42000001 cyc:   38138111 now IPC :0.78746: AVG IPC :1.07657: L2-Pf-HR :0.93779: L2-HR :0.86418: (Sim:0h35m41s) 
CPU  0 inst:   43000001 cyc:   38154537 now IPC :0.86843: AVG IPC :1.10298: L2-Pf-HR :0.94027: L2-HR :0.82158: (Sim:0h35m42s) 
CPU  1 inst:   42000001 cyc:   38156158 now IPC :0.76225: AVG IPC :1.07603: L2-Pf-HR :0.94340: L2-HR :0.83389: (Sim:0h35m42s) 
CPU  3 inst:   41000002 cyc:   38585404 now IPC :0.84820: AVG IPC :1.03717: L2-Pf-HR :0.94217: L2-HR :0.83458: (Sim:0h36m3s) 
CPU  0 inst:   44000000 cyc:   39130843 now IPC :1.02427: AVG IPC :1.10096: L2-Pf-HR :0.94106: L2-HR :0.82149: (Sim:0h36m29s) 
CPU  2 inst:   43000001 cyc:   39294433 now IPC :0.86481: AVG IPC :1.07018: L2-Pf-HR :0.93821: L2-HR :0.86455: (Sim:0h36m38s) 
CPU  1 inst:   43000001 cyc:   39347182 now IPC :0.83961: AVG IPC :1.06869: L2-Pf-HR :0.94376: L2-HR :0.83404: (Sim:0h36m41s) 
CPU  3 inst:   42000001 cyc:   39760479 now IPC :0.85101: AVG IPC :1.03153: L2-Pf-HR :0.94261: L2-HR :0.83498: (Sim:0h37m1s) 
CPU  0 inst:   45000000 cyc:   40127675 now IPC :1.00318: AVG IPC :1.09847: L2-Pf-HR :0.94159: L2-HR :0.82176: (Sim:0h37m18s) 
CPU  2 inst:   44000000 cyc:   40545171 now IPC :0.79953: AVG IPC :1.06162: L2-Pf-HR :0.93855: L2-HR :0.86475: (Sim:0h37m37s) 
CPU  1 inst:   44000000 cyc:   40605638 now IPC :0.79462: AVG IPC :1.05999: L2-Pf-HR :0.94416: L2-HR :0.83451: (Sim:0h37m40s) 
CPU  3 inst:   43000004 cyc:   40993842 now IPC :0.81079: AVG IPC :1.02473: L2-Pf-HR :0.94305: L2-HR :0.83528: (Sim:0h37m59s) 
CPU  0 inst:   46000000 cyc:   41289241 now IPC :0.86091: AVG IPC :1.09162: L2-Pf-HR :0.94176: L2-HR :0.82156: (Sim:0h38m12s) 
CPU  2 inst:   45000000 cyc:   41775846 now IPC :0.81256: AVG IPC :1.05411: L2-Pf-HR :0.93896: L2-HR :0.86505: (Sim:0h38m35s) 
CPU  1 inst:   45000000 cyc:   41872835 now IPC :0.78914: AVG IPC :1.05159: L2-Pf-HR :0.94426: L2-HR :0.83468: (Sim:0h38m39s) 
CPU  3 inst:   44000000 cyc:   42117473 now IPC :0.88997: AVG IPC :1.02105: L2-Pf-HR :0.94379: L2-HR :0.83557: (Sim:0h38m51s) 
CPU  0 inst:   47000005 cyc:   42536354 now IPC :0.80186: AVG IPC :1.08293: L2-Pf-HR :0.94208: L2-HR :0.82134: (Sim:0h39m11s) 
CPU  2 inst:   46000005 cyc:   42855947 now IPC :0.92584: AVG IPC :1.05080: L2-Pf-HR :0.93933: L2-HR :0.86529: (Sim:0h39m28s) 
CPU  1 inst:   46000005 cyc:   43046100 now IPC :0.85233: AVG IPC :1.04604: L2-Pf-HR :0.94501: L2-HR :0.83504: (Sim:0h39m38s) 
CPU  3 inst:   45000000 cyc:   43093110 now IPC :1.02497: AVG IPC :1.02114: L2-Pf-HR :0.94436: L2-HR :0.83615: (Sim:0h39m40s) 
CPU  0 inst:   48000005 cyc:   43665150 now IPC :0.88590: AVG IPC :1.07772: L2-Pf-HR :0.94205: L2-HR :0.82130: (Sim:0h40m10s) 
CPU  2 inst:   47000005 cyc:   43852999 now IPC :1.00296: AVG IPC :1.04969: L2-Pf-HR :0.93955: L2-HR :0.86540: (Sim:0h40m19s) 
CPU  3 inst:   46000005 cyc:   44144663 now IPC :0.95098: AVG IPC :1.01943: L2-Pf-HR :0.94410: L2-HR :0.83628: (Sim:0h40m32s) 
CPU  1 inst:   47000000 cyc:   44235205 now IPC :0.84096: AVG IPC :1.04040: L2-Pf-HR :0.94519: L2-HR :0.83548: (Sim:0h40m37s) 
CPU  2 inst:   48000005 cyc:   44878071 now IPC :0.97554: AVG IPC :1.04795: L2-Pf-HR :0.93986: L2-HR :0.86562: (Sim:0h41m9s) 
CPU  0 inst:   49000005 cyc:   45019223 now IPC :0.73851: AVG IPC :1.06729: L2-Pf-HR :0.94188: L2-HR :0.82130: (Sim:0h41m16s) 
CPU  1 inst:   48000005 cyc:   45272846 now IPC :0.96373: AVG IPC :1.03860: L2-Pf-HR :0.94528: L2-HR :0.83546: (Sim:0h41m28s) 
CPU  3 inst:   47000005 cyc:   45290557 now IPC :0.87268: AVG IPC :1.01563: L2-Pf-HR :0.94401: L2-HR :0.83674: (Sim:0h41m29s) 
CPU  2 inst:   49000004 cyc:   46082460 now IPC :0.83030: AVG IPC :1.04214: L2-Pf-HR :0.93958: L2-HR :0.86522: (Sim:0h42m7s) 
CPU  0 inst:   50000005 cyc:   46201305 now IPC :0.84597: AVG IPC :1.06150: L2-Pf-HR :0.94214: L2-HR :0.82142: (Sim:0h42m14s) 
CPU  1 inst:   49000002 cyc:   46379008 now IPC :0.90402: AVG IPC :1.03532: L2-Pf-HR :0.94465: L2-HR :0.83532: (Sim:0h42m22s) 
CPU  3 inst:   48000005 cyc:   46435737 now IPC :0.87323: AVG IPC :1.01204: L2-Pf-HR :0.94448: L2-HR :0.83704: (Sim:0h42m26s) 
CPU  2 inst:   50000000 cyc:   47245820 now IPC :0.85958: AVG IPC :1.03755: L2-Pf-HR :0.93974: L2-HR :0.86531: (Sim:0h43m2s) 
CPU  1 inst:   50000000 cyc:   47424356 now IPC :0.95662: AVG IPC :1.03355: L2-Pf-HR :0.94461: L2-HR :0.83533: (Sim:0h43m9s) 
CPU  0 inst:   51000000 cyc:   47732726 now IPC :0.65299: AVG IPC :1.04812: L2-Pf-HR :0.94275: L2-HR :0.82151: (Sim:0h43m22s) 
CPU  3 inst:   49000005 cyc:   48068583 now IPC :0.61243: AVG IPC :0.99819: L2-Pf-HR :0.94382: L2-HR :0.83638: (Sim:0h43m36s) 
CPU  2 inst:   51000000 cyc:   48399806 now IPC :0.86656: AVG IPC :1.03339: L2-Pf-HR :0.94010: L2-HR :0.86550: (Sim:0h43m52s) 
CPU  1 inst:   51000000 cyc:   48740418 now IPC :0.75984: AVG IPC :1.02601: L2-Pf-HR :0.94488: L2-HR :0.83566: (Sim:0h44m7s) 
CPU  0 inst:   52000000 cyc:   49230767 now IPC :0.66754: AVG IPC :1.03630: L2-Pf-HR :0.94340: L2-HR :0.82183: (Sim:0h44m30s) 
CPU  2 inst:   52000000 cyc:   49358711 now IPC :1.04286: AVG IPC :1.03358: L2-Pf-HR :0.94042: L2-HR :0.86565: (Sim:0h44m35s) 
CPU  3 inst:   50000000 cyc:   49471698 now IPC :0.71270: AVG IPC :0.98992: L2-Pf-HR :0.94351: L2-HR :0.83631: (Sim:0h44m40s) 
CPU  1 inst:   52000000 cyc:   50287796 now IPC :0.64625: AVG IPC :1.01409: L2-Pf-HR :0.94509: L2-HR :0.83576: (Sim:0h45m15s) 
CPU  3 inst:   51000000 cyc:   50555758 now IPC :0.92246: AVG IPC :0.98845: L2-Pf-HR :0.94323: L2-HR :0.83647: (Sim:0h45m27s) 
CPU  2 inst:   53000000 cyc:   50761853 now IPC :0.71269: AVG IPC :1.02453: L2-Pf-HR :0.94061: L2-HR :0.86583: (Sim:0h45m36s) 
CPU  0 inst:   53000000 cyc:   50770178 now IPC :0.64960: AVG IPC :1.02435: L2-Pf-HR :0.94385: L2-HR :0.82247: (Sim:0h45m36s) 
CPU  1 inst:   53000000 cyc:   51617556 now IPC :0.75202: AVG IPC :1.00721: L2-Pf-HR :0.94544: L2-HR :0.83632: (Sim:0h46m14s) 
CPU  3 inst:   52000000 cyc:   51632002 now IPC :0.92916: AVG IPC :0.98719: L2-Pf-HR :0.94330: L2-HR :0.83667: (Sim:0h46m15s) 
CPU  2 inst:   54000004 cyc:   52175634 now IPC :0.70733: AVG IPC :1.01577: L2-Pf-HR :0.94094: L2-HR :0.86598: (Sim:0h46m40s) 
CPU  0 inst:   54000004 cyc:   52242382 now IPC :0.67926: AVG IPC :1.01443: L2-Pf-HR :0.94419: L2-HR :0.82229: (Sim:0h46m43s) 
CPU  1 inst:   54000004 cyc:   52628348 now IPC :0.98933: AVG IPC :1.00686: L2-Pf-HR :0.94544: L2-HR :0.83629: (Sim:0h46m58s) 
CPU  3 inst:   53000000 cyc:   52939542 now IPC :0.76479: AVG IPC :0.98159: L2-Pf-HR :0.94340: L2-HR :0.83679: (Sim:0h47m7s) 
CPU  2 inst:   55000002 cyc:   53269758 now IPC :0.91397: AVG IPC :1.01364: L2-Pf-HR :0.94127: L2-HR :0.86619: (Sim:0h47m17s) 
CPU  0 inst:   55000002 cyc:   53530678 now IPC :0.77622: AVG IPC :1.00859: L2-Pf-HR :0.94472: L2-HR :0.82287: (Sim:0h47m25s) 
CPU  1 inst:   55000002 cyc:   53689592 now IPC :0.94229: AVG IPC :1.00556: L2-Pf-HR :0.94540: L2-HR :0.83633: (Sim:0h47m30s) 
CPU  3 inst:   54000004 cyc:   54254466 now IPC :0.76050: AVG IPC :0.97614: L2-Pf-HR :0.94334: L2-HR :0.83687: (Sim:0h47m47s) 
CPU  2 inst:   56000001 cyc:   54261314 now IPC :1.00851: AVG IPC :1.01355: L2-Pf-HR :0.94151: L2-HR :0.86630: (Sim:0h47m47s) 
CPU  0 inst:   56000001 cyc:   54884290 now IPC :0.73876: AVG IPC :1.00182: L2-Pf-HR :0.94502: L2-HR :0.82283: (Sim:0h48m3s) 
CPU  1 inst:   56000001 cyc:   55054869 now IPC :0.73245: AVG IPC :0.99866: L2-Pf-HR :0.94565: L2-HR :0.83665: (Sim:0h48m8s) 
CPU  2 inst:   57000004 cyc:   55519314 now IPC :0.79491: AVG IPC :1.00850: L2-Pf-HR :0.94178: L2-HR :0.86646: (Sim:0h48m20s) 
CPU  0 inst:   57000004 cyc:   55886979 now IPC :0.99732: AVG IPC :1.00174: L2-Pf-HR :0.94532: L2-HR :0.82291: (Sim:0h48m30s) 
CPU  3 inst:   55000002 cyc:   55901121 now IPC :0.60729: AVG IPC :0.96508: L2-Pf-HR :0.94348: L2-HR :0.83712: (Sim:0h48m31s) 
CPU  1 inst:   57000004 cyc:   56630711 now IPC :0.63458: AVG IPC :0.98835: L2-Pf-HR :0.94591: L2-HR :0.83685: (Sim:0h48m49s) 
CPU  2 inst:   58000004 cyc:   57150889 now IPC :0.61290: AVG IPC :0.99701: L2-Pf-HR :0.94187: L2-HR :0.86663: (Sim:0h49m1s) 
CPU  0 inst:   58000004 cyc:   57220591 now IPC :0.74984: AVG IPC :0.99576: L2-Pf-HR :0.94513: L2-HR :0.82268: (Sim:0h49m3s) 
CPU  3 inst:   56000001 cyc:   57600567 now IPC :0.58843: AVG IPC :0.95377: L2-Pf-HR :0.94376: L2-HR :0.83732: (Sim:0h49m11s) 
CPU  1 inst:   58000004 cyc:   58296462 now IPC :0.60033: AVG IPC :0.97707: L2-Pf-HR :0.94606: L2-HR :0.83724: (Sim:0h49m27s) 
CPU  0 inst:   59000004 cyc:   58928518 now IPC :0.58551: AVG IPC :0.98367: L2-Pf-HR :0.94492: L2-HR :0.82238: (Sim:0h49m42s) 
CPU  2 inst:   59000004 cyc:   58939357 now IPC :0.55914: AVG IPC :0.98350: L2-Pf-HR :0.94193: L2-HR :0.86666: (Sim:0h49m43s) 
CPU  3 inst:   57000004 cyc:   59296844 now IPC :0.58953: AVG IPC :0.94318: L2-Pf-HR :0.94387: L2-HR :0.83769: (Sim:0h49m52s) 
CPU  1 inst:   59000004 cyc:   59443086 now IPC :0.87213: AVG IPC :0.97502: L2-Pf-HR :0.94664: L2-HR :0.83754: (Sim:0h49m56s) 
CPU  2 inst:   60000004 cyc:   60620085 now IPC :0.59498: AVG IPC :0.97255: L2-Pf-HR :0.94205: L2-HR :0.86680: (Sim:0h50m24s) 
CPU  0 inst:   60000000 cyc:   60630004 now IPC :0.58772: AVG IPC :0.97238: L2-Pf-HR :0.94485: L2-HR :0.82226: (Sim:0h50m24s) 
CPU  1 inst:   60000003 cyc:   60667400 now IPC :0.81678: AVG IPC :0.97177: L2-Pf-HR :0.94657: L2-HR :0.83735: (Sim:0h50m25s) 
CPU  3 inst:   58000004 cyc:   61018393 now IPC :0.58087: AVG IPC :0.93279: L2-Pf-HR :0.94376: L2-HR :0.83785: (Sim:0h50m33s) 
CPU  0 inst:   61000002 cyc:   61989374 now IPC :0.73564: AVG IPC :0.96710: L2-Pf-HR :0.94432: L2-HR :0.82140: (Sim:0h51m1s) 
CPU  2 inst:   61000000 cyc:   62011941 now IPC :0.71846: AVG IPC :0.96675: L2-Pf-HR :0.94146: L2-HR :0.86593: (Sim:0h51m2s) 
CPU  1 inst:   61000000 cyc:   62041344 now IPC :0.72783: AVG IPC :0.96628: L2-Pf-HR :0.94653: L2-HR :0.83699: (Sim:0h51m2s) 
CPU  3 inst:   59000004 cyc:   62266041 now IPC :0.80151: AVG IPC :0.93011: L2-Pf-HR :0.94415: L2-HR :0.83806: (Sim:0h51m8s) 
CPU  0 inst:   62000004 cyc:   63403865 now IPC :0.70697: AVG IPC :0.96121: L2-Pf-HR :0.94414: L2-HR :0.82052: (Sim:0h51m39s) 
CPU  2 inst:   62000004 cyc:   63413650 now IPC :0.71342: AVG IPC :0.96107: L2-Pf-HR :0.94123: L2-HR :0.86554: (Sim:0h51m39s) 
CPU  1 inst:   62000004 cyc:   63427748 now IPC :0.72129: AVG IPC :0.96084: L2-Pf-HR :0.94637: L2-HR :0.83618: (Sim:0h51m39s) 
CPU  3 inst:   60000005 cyc:   63431972 now IPC :0.85768: AVG IPC :0.92876: L2-Pf-HR :0.94428: L2-HR :0.83820: (Sim:0h51m39s) 
CPU  3 inst:   61000002 cyc:   64650251 now IPC :0.82083: AVG IPC :0.92670: L2-Pf-HR :0.94373: L2-HR :0.83738: (Sim:0h52m11s) 
CPU  2 inst:   63000004 cyc:   64791567 now IPC :0.72573: AVG IPC :0.95598: L2-Pf-HR :0.94120: L2-HR :0.86520: (Sim:0h52m15s) 
CPU  1 inst:   63000003 cyc:   64865165 now IPC :0.69569: AVG IPC :0.95488: L2-Pf-HR :0.94624: L2-HR :0.83534: (Sim:0h52m18s) 
CPU  0 inst:   63000002 cyc:   64901794 now IPC :0.66759: AVG IPC :0.95432: L2-Pf-HR :0.94406: L2-HR :0.81974: (Sim:0h52m19s) 
CPU  2 inst:   64000004 cyc:   65835398 now IPC :0.95801: AVG IPC :0.95602: L2-Pf-HR :0.94109: L2-HR :0.86480: (Sim:0h52m47s) 
CPU  3 inst:   62000004 cyc:   65850785 now IPC :0.83296: AVG IPC :0.92496: L2-Pf-HR :0.94331: L2-HR :0.83650: (Sim:0h52m48s) 
CPU  1 inst:   64000002 cyc:   65889508 now IPC :0.97623: AVG IPC :0.95521: L2-Pf-HR :0.94586: L2-HR :0.83450: (Sim:0h52m49s) 
CPU  0 inst:   64000004 cyc:   66010800 now IPC :0.90171: AVG IPC :0.95343: L2-Pf-HR :0.94417: L2-HR :0.81896: (Sim:0h52m53s) 
CPU  3 inst:   63000005 cyc:   67206748 now IPC :0.73748: AVG IPC :0.92112: L2-Pf-HR :0.94330: L2-HR :0.83563: (Sim:0h53m22s) 
CPU  2 inst:   65000000 cyc:   67318508 now IPC :0.67426: AVG IPC :0.94972: L2-Pf-HR :0.94067: L2-HR :0.86411: (Sim:0h53m25s) 
CPU  1 inst:   65000000 cyc:   67491546 now IPC :0.62420: AVG IPC :0.94724: L2-Pf-HR :0.94553: L2-HR :0.83415: (Sim:0h53m30s) 
CPU  0 inst:   65000005 cyc:   67517241 now IPC :0.66382: AVG IPC :0.94687: L2-Pf-HR :0.94311: L2-HR :0.81875: (Sim:0h53m30s) 
CPU  2 inst:   66000003 cyc:   68415289 now IPC :0.91176: AVG IPC :0.94910: L2-Pf-HR :0.94081: L2-HR :0.86415: (Sim:0h53m55s) 
CPU  3 inst:   64000004 cyc:   68459648 now IPC :0.79815: AVG IPC :0.91884: L2-Pf-HR :0.94334: L2-HR :0.83478: (Sim:0h53m57s) 
CPU  0 inst:   66000005 cyc:   68909427 now IPC :0.71829: AVG IPC :0.94218: L2-Pf-HR :0.94293: L2-HR :0.81904: (Sim:0h54m8s) 
CPU  1 inst:   66000005 cyc:   68921509 now IPC :0.69932: AVG IPC :0.94202: L2-Pf-HR :0.94573: L2-HR :0.83413: (Sim:0h54m8s) 
CPU  2 inst:   67000001 cyc:   69594713 now IPC :0.84787: AVG IPC :0.94736: L2-Pf-HR :0.94100: L2-HR :0.86413: (Sim:0h54m27s) 
CPU  3 inst:   65000000 cyc:   69868713 now IPC :0.70969: AVG IPC :0.91456: L2-Pf-HR :0.94292: L2-HR :0.83432: (Sim:0h54m34s) 
CPU  0 inst:   67000001 cyc:   70259289 now IPC :0.74081: AVG IPC :0.93826: L2-Pf-HR :0.94278: L2-HR :0.81919: (Sim:0h54m45s) 
CPU  1 inst:   67000001 cyc:   70333714 now IPC :0.70811: AVG IPC :0.93726: L2-Pf-HR :0.94606: L2-HR :0.83409: (Sim:0h54m47s) 
CPU  2 inst:   68000004 cyc:   70878805 now IPC :0.77876: AVG IPC :0.94426: L2-Pf-HR :0.94119: L2-HR :0.86430: (Sim:0h55m2s) 
CPU  3 inst:   66000003 cyc:   71220666 now IPC :0.73967: AVG IPC :0.91119: L2-Pf-HR :0.94322: L2-HR :0.83459: (Sim:0h55m12s) 
CPU  0 inst:   68000002 cyc:   71392506 now IPC :0.88244: AVG IPC :0.93736: L2-Pf-HR :0.94297: L2-HR :0.81972: (Sim:0h55m17s) 
CPU  1 inst:   68000002 cyc:   71571726 now IPC :0.80775: AVG IPC :0.93499: L2-Pf-HR :0.94627: L2-HR :0.83418: (Sim:0h55m23s) 
CPU  2 inst:   69000000 cyc:   72162191 now IPC :0.77919: AVG IPC :0.94129: L2-Pf-HR :0.94133: L2-HR :0.86441: (Sim:0h55m40s) 
CPU  0 inst:   69000000 cyc:   72481915 now IPC :0.91793: AVG IPC :0.93707: L2-Pf-HR :0.94301: L2-HR :0.82015: (Sim:0h55m49s) 
CPU  3 inst:   67000001 cyc:   72493081 now IPC :0.78591: AVG IPC :0.90896: L2-Pf-HR :0.94352: L2-HR :0.83471: (Sim:0h55m50s) 
CPU  1 inst:   69000000 cyc:   72743708 now IPC :0.85325: AVG IPC :0.93365: L2-Pf-HR :0.94672: L2-HR :0.83436: (Sim:0h55m57s) 
CPU  2 inst:   70000002 cyc:   73452389 now IPC :0.77508: AVG IPC :0.93833: L2-Pf-HR :0.94142: L2-HR :0.86447: (Sim:0h56m19s) 
CPU  0 inst:   70000002 cyc:   73623281 now IPC :0.87614: AVG IPC :0.93611: L2-Pf-HR :0.94305: L2-HR :0.82045: (Sim:0h56m23s) 
CPU  3 inst:   68000004 cyc:   73845328 now IPC :0.73951: AVG IPC :0.90582: L2-Pf-HR :0.94375: L2-HR :0.83519: (Sim:0h56m30s) 
CPU  1 inst:   70000002 cyc:   73855692 now IPC :0.89930: AVG IPC :0.93313: L2-Pf-HR :0.94703: L2-HR :0.83432: (Sim:0h56m30s) 
CPU  2 inst:   71000002 cyc:   74894375 now IPC :0.69349: AVG IPC :0.93355: L2-Pf-HR :0.94157: L2-HR :0.86448: (Sim:0h56m57s) 
CPU  0 inst:   71000002 cyc:   75050827 now IPC :0.70050: AVG IPC :0.93157: L2-Pf-HR :0.94319: L2-HR :0.82080: (Sim:0h57m1s) 
CPU  1 inst:   71000002 cyc:   75073647 now IPC :0.82105: AVG IPC :0.93129: L2-Pf-HR :0.94705: L2-HR :0.83416: (Sim:0h57m2s) 
CPU  3 inst:   69000000 cyc:   75378868 now IPC :0.65208: AVG IPC :0.90059: L2-Pf-HR :0.94408: L2-HR :0.83528: (Sim:0h57m9s) 
CPU  2 inst:   72000003 cyc:   76100499 now IPC :0.82910: AVG IPC :0.93187: L2-Pf-HR :0.94171: L2-HR :0.86453: (Sim:0h57m29s) 
CPU  1 inst:   72000003 cyc:   76589267 now IPC :0.65980: AVG IPC :0.92584: L2-Pf-HR :0.94733: L2-HR :0.83431: (Sim:0h57m42s) 
CPU  0 inst:   72000003 cyc:   76605573 now IPC :0.64319: AVG IPC :0.92564: L2-Pf-HR :0.94286: L2-HR :0.82082: (Sim:0h57m42s) 
CPU  3 inst:   70000002 cyc:   76823518 now IPC :0.69221: AVG IPC :0.89662: L2-Pf-HR :0.94434: L2-HR :0.83529: (Sim:0h57m49s) 
CPU  2 inst:   73000002 cyc:   77189056 now IPC :0.91865: AVG IPC :0.93168: L2-Pf-HR :0.94177: L2-HR :0.86449: (Sim:0h57m59s) 
CPU  1 inst:   73000001 cyc:   78033445 now IPC :0.69243: AVG IPC :0.92147: L2-Pf-HR :0.94739: L2-HR :0.83429: (Sim:0h58m27s) 
CPU  0 inst:   73000002 cyc:   78061786 now IPC :0.68671: AVG IPC :0.92113: L2-Pf-HR :0.94247: L2-HR :0.82086: (Sim:0h58m28s) 
CPU  3 inst:   71000002 cyc:   78145775 now IPC :0.75628: AVG IPC :0.89422: L2-Pf-HR :0.94461: L2-HR :0.83536: (Sim:0h58m32s) 
CPU  2 inst:   74000002 cyc:   78570223 now IPC :0.72403: AVG IPC :0.92799: L2-Pf-HR :0.94176: L2-HR :0.86443: (Sim:0h58m51s) 
CPU  3 inst:   72000003 cyc:   79253994 now IPC :0.90235: AVG IPC :0.89433: L2-Pf-HR :0.94473: L2-HR :0.83536: (Sim:0h59m20s) 
CPU  0 inst:   74000002 cyc:   79719145 now IPC :0.60337: AVG IPC :0.91444: L2-Pf-HR :0.94223: L2-HR :0.82073: (Sim:0h59m38s) 
CPU  1 inst:   74000002 cyc:   79772150 now IPC :0.57514: AVG IPC :0.91383: L2-Pf-HR :0.94760: L2-HR :0.83425: (Sim:0h59m40s) 
CPU  2 inst:   75000002 cyc:   80237473 now IPC :0.59979: AVG IPC :0.92108: L2-Pf-HR :0.94174: L2-HR :0.86440: (Sim:0h59m58s) 
CPU  3 inst:   73000002 cyc:   80820701 now IPC :0.63828: AVG IPC :0.88931: L2-Pf-HR :0.94500: L2-HR :0.83556: (Sim:1h0m20s) 
CPU  0 inst:   75000005 cyc:   81533441 now IPC :0.55118: AVG IPC :0.90626: L2-Pf-HR :0.94175: L2-HR :0.82054: (Sim:1h0m49s) 
CPU  1 inst:   75000005 cyc:   81616674 now IPC :0.54215: AVG IPC :0.90532: L2-Pf-HR :0.94779: L2-HR :0.83431: (Sim:1h0m52s) 
CPU  2 inst:   76000004 cyc:   81707083 now IPC :0.68045: AVG IPC :0.91670: L2-Pf-HR :0.94161: L2-HR :0.86416: (Sim:1h0m56s) 
CPU  3 inst:   74000002 cyc:   82406742 now IPC :0.63050: AVG IPC :0.88426: L2-Pf-HR :0.94477: L2-HR :0.83539: (Sim:1h1m25s) 
CPU  2 inst:   77000004 cyc:   83004881 now IPC :0.77054: AVG IPC :0.91439: L2-Pf-HR :0.94125: L2-HR :0.86389: (Sim:1h1m51s) 
CPU  0 inst:   76000004 cyc:   83086483 now IPC :0.64390: AVG IPC :0.90129: L2-Pf-HR :0.94113: L2-HR :0.82025: (Sim:1h1m55s) 
CPU  1 inst:   76000004 cyc:   83165015 now IPC :0.64585: AVG IPC :0.90043: L2-Pf-HR :0.94756: L2-HR :0.83399: (Sim:1h1m58s) 
CPU  3 inst:   75000004 cyc:   83981718 now IPC :0.63493: AVG IPC :0.87953: L2-Pf-HR :0.94457: L2-HR :0.83547: (Sim:1h2m33s) 
CPU  2 inst:   78000001 cyc:   84165026 now IPC :0.86196: AVG IPC :0.91366: L2-Pf-HR :0.94141: L2-HR :0.86386: (Sim:1h2m40s) 
CPU  0 inst:   77000004 cyc:   84860909 now IPC :0.56356: AVG IPC :0.89415: L2-Pf-HR :0.94048: L2-HR :0.82020: (Sim:1h3m9s) 
CPU  1 inst:   77000003 cyc:   84876450 now IPC :0.58430: AVG IPC :0.89399: L2-Pf-HR :0.94704: L2-HR :0.83385: (Sim:1h3m10s) 
CPU  3 inst:   76000004 cyc:   85195536 now IPC :0.82385: AVG IPC :0.87873: L2-Pf-HR :0.94449: L2-HR :0.83529: (Sim:1h3m24s) 
CPU  2 inst:   79000000 cyc:   85499166 now IPC :0.74955: AVG IPC :0.91107: L2-Pf-HR :0.94148: L2-HR :0.86391: (Sim:1h3m37s) 
CPU  0 inst:   78000001 cyc:   86378969 now IPC :0.65873: AVG IPC :0.88996: L2-Pf-HR :0.94079: L2-HR :0.82020: (Sim:1h4m17s) 
CPU  1 inst:   78000001 cyc:   86395334 now IPC :0.65838: AVG IPC :0.88980: L2-Pf-HR :0.94676: L2-HR :0.83366: (Sim:1h4m18s) 
CPU  3 inst:   77000000 cyc:   86401278 now IPC :0.82936: AVG IPC :0.87803: L2-Pf-HR :0.94382: L2-HR :0.83494: (Sim:1h4m18s) 
CPU  2 inst:   80000001 cyc:   86577177 now IPC :0.92764: AVG IPC :0.91128: L2-Pf-HR :0.94162: L2-HR :0.86404: (Sim:1h4m27s) 
CPU  3 inst:   78000001 cyc:   87619404 now IPC :0.82093: AVG IPC :0.87723: L2-Pf-HR :0.94356: L2-HR :0.83472: (Sim:1h5m14s) 
CPU  2 inst:   81000002 cyc:   87663218 now IPC :0.92078: AVG IPC :0.91140: L2-Pf-HR :0.94173: L2-HR :0.86409: (Sim:1h5m16s) 
CPU  1 inst:   79000000 cyc:   87804079 now IPC :0.70985: AVG IPC :0.88688: L2-Pf-HR :0.94672: L2-HR :0.83375: (Sim:1h5m22s) 
CPU  0 inst:   79000000 cyc:   87880441 now IPC :0.66601: AVG IPC :0.88609: L2-Pf-HR :0.94098: L2-HR :0.82015: (Sim:1h5m25s) 
CPU  3 inst:   79000000 cyc:   89076094 now IPC :0.68649: AVG IPC :0.87408: L2-Pf-HR :0.94323: L2-HR :0.83464: (Sim:1h6m14s) 
CPU  2 inst:   82000005 cyc:   89144401 now IPC :0.67514: AVG IPC :0.90743: L2-Pf-HR :0.94184: L2-HR :0.86423: (Sim:1h6m17s) 
CPU  1 inst:   80000001 cyc:   89169848 now IPC :0.73219: AVG IPC :0.88448: L2-Pf-HR :0.94661: L2-HR :0.83381: (Sim:1h6m19s) 
CPU  0 inst:   80000001 cyc:   89528015 now IPC :0.60695: AVG IPC :0.88090: L2-Pf-HR :0.94119: L2-HR :0.82032: (Sim:1h6m34s) 
CPU  1 inst:   81000002 cyc:   90168561 now IPC :1.00129: AVG IPC :0.88579: L2-Pf-HR :0.94657: L2-HR :0.83404: (Sim:1h7m3s) 
CPU  3 inst:   80000001 cyc:   90450561 now IPC :0.72756: AVG IPC :0.87183: L2-Pf-HR :0.94332: L2-HR :0.83481: (Sim:1h7m15s) 
CPU  2 inst:   83000000 cyc:   90694184 now IPC :0.64525: AVG IPC :0.90290: L2-Pf-HR :0.94190: L2-HR :0.86418: (Sim:1h7m26s) 
CPU  0 inst:   81000002 cyc:   91083621 now IPC :0.64284: AVG IPC :0.87679: L2-Pf-HR :0.94121: L2-HR :0.82065: (Sim:1h7m43s) 
CPU  1 inst:   82000003 cyc:   91478569 now IPC :0.76335: AVG IPC :0.88402: L2-Pf-HR :0.94654: L2-HR :0.83430: (Sim:1h8m1s) 
CPU  3 inst:   81000002 cyc:   91529007 now IPC :0.92726: AVG IPC :0.87249: L2-Pf-HR :0.94350: L2-HR :0.83474: (Sim:1h8m4s) 
CPU  2 inst:   84000000 cyc:   91923896 now IPC :0.81320: AVG IPC :0.90168: L2-Pf-HR :0.94206: L2-HR :0.86438: (Sim:1h8m23s) 
CPU  0 inst:   82000000 cyc:   92453236 now IPC :0.73013: AVG IPC :0.87459: L2-Pf-HR :0.94125: L2-HR :0.82069: (Sim:1h8m48s) 
CPU  3 inst:   82000005 cyc:   92565638 now IPC :0.96467: AVG IPC :0.87353: L2-Pf-HR :0.94348: L2-HR :0.83491: (Sim:1h8m54s) 
CPU  1 inst:   83000000 cyc:   92871975 now IPC :0.71766: AVG IPC :0.88149: L2-Pf-HR :0.94654: L2-HR :0.83415: (Sim:1h9m7s) 
CPU  2 inst:   85000000 cyc:   92930827 now IPC :0.99312: AVG IPC :0.90269: L2-Pf-HR :0.94215: L2-HR :0.86439: (Sim:1h9m11s) 
CPU  0 inst:   83000000 cyc:   94010083 now IPC :0.64232: AVG IPC :0.87071: L2-Pf-HR :0.94173: L2-HR :0.82095: (Sim:1h9m52s) 
CPU  3 inst:   83000000 cyc:   94079541 now IPC :0.66054: AVG IPC :0.87007: L2-Pf-HR :0.94361: L2-HR :0.83493: (Sim:1h9m53s) 
CPU  2 inst:   86000005 cyc:   94099206 now IPC :0.85589: AVG IPC :0.90210: L2-Pf-HR :0.94231: L2-HR :0.86449: (Sim:1h9m54s) 
CPU  1 inst:   84000000 cyc:   94254894 now IPC :0.72311: AVG IPC :0.87914: L2-Pf-HR :0.94663: L2-HR :0.83448: (Sim:1h9m58s) 
CPU  2 inst:   87000000 cyc:   95392676 now IPC :0.77311: AVG IPC :0.90033: L2-Pf-HR :0.94238: L2-HR :0.86458: (Sim:1h10m28s) 
CPU  0 inst:   84000000 cyc:   95459875 now IPC :0.68975: AVG IPC :0.86793: L2-Pf-HR :0.94172: L2-HR :0.82104: (Sim:1h10m30s) 
CPU  3 inst:   84000000 cyc:   95510949 now IPC :0.69861: AVG IPC :0.86747: L2-Pf-HR :0.94379: L2-HR :0.83509: (Sim:1h10m31s) 
CPU  1 inst:   85000005 cyc:   95616328 now IPC :0.73452: AVG IPC :0.87706: L2-Pf-HR :0.94682: L2-HR :0.83458: (Sim:1h10m33s) 
CPU  2 inst:   88000000 cyc:   96644155 now IPC :0.79905: AVG IPC :0.89901: L2-Pf-HR :0.94238: L2-HR :0.86459: (Sim:1h11m2s) 
CPU  1 inst:   86000005 cyc:   96808004 now IPC :0.83915: AVG IPC :0.87659: L2-Pf-HR :0.94700: L2-HR :0.83466: (Sim:1h11m7s) 
CPU  0 inst:   85000000 cyc:   96817711 now IPC :0.73647: AVG IPC :0.86607: L2-Pf-HR :0.94200: L2-HR :0.82111: (Sim:1h11m7s) 
CPU  3 inst:   85000002 cyc:   96844325 now IPC :0.74998: AVG IPC :0.86584: L2-Pf-HR :0.94396: L2-HR :0.83537: (Sim:1h11m8s) 
CPU  1 inst:   87000000 cyc:   97854988 now IPC :0.95512: AVG IPC :0.87744: L2-Pf-HR :0.94702: L2-HR :0.83491: (Sim:1h11m36s) 
CPU  2 inst:   89000003 cyc:   97911649 now IPC :0.78896: AVG IPC :0.89757: L2-Pf-HR :0.94228: L2-HR :0.86453: (Sim:1h11m38s) 
CPU  0 inst:   86000000 cyc:   98175264 now IPC :0.73662: AVG IPC :0.86426: L2-Pf-HR :0.94203: L2-HR :0.82097: (Sim:1h11m46s) 
CPU  3 inst:   86000005 cyc:   98193580 now IPC :0.74115: AVG IPC :0.86411: L2-Pf-HR :0.94422: L2-HR :0.83549: (Sim:1h11m46s) 
CPU  2 inst:   90000000 cyc:   98882391 now IPC :1.03014: AVG IPC :0.89888: L2-Pf-HR :0.94240: L2-HR :0.86454: (Sim:1h12m6s) 
CPU  1 inst:   88000005 cyc:   99003804 now IPC :0.87047: AVG IPC :0.87736: L2-Pf-HR :0.94691: L2-HR :0.83481: (Sim:1h12m9s) 
CPU  0 inst:   87000000 cyc:   99431602 now IPC :0.79596: AVG IPC :0.86339: L2-Pf-HR :0.94196: L2-HR :0.82077: (Sim:1h12m22s) 
CPU  3 inst:   87000000 cyc:   99532890 now IPC :0.74665: AVG IPC :0.86251: L2-Pf-HR :0.94448: L2-HR :0.83573: (Sim:1h12m25s) 
CPU  2 inst:   91000005 cyc:   99959945 now IPC :0.92803: AVG IPC :0.89920: L2-Pf-HR :0.94255: L2-HR :0.86467: (Sim:1h12m37s) 
CPU  1 inst:   89000004 cyc:  100279986 now IPC :0.78359: AVG IPC :0.87615: L2-Pf-HR :0.94674: L2-HR :0.83486: (Sim:1h12m47s) 
CPU  0 inst:   88000001 cyc:  100539447 now IPC :0.90265: AVG IPC :0.86382: L2-Pf-HR :0.94206: L2-HR :0.82068: (Sim:1h12m54s) 
CPU  3 inst:   88000001 cyc:  100743473 now IPC :0.82605: AVG IPC :0.86207: L2-Pf-HR :0.94457: L2-HR :0.83576: (Sim:1h13m0s) 
CPU  2 inst:   92000000 cyc:  101195904 now IPC :0.80908: AVG IPC :0.89809: L2-Pf-HR :0.94263: L2-HR :0.86480: (Sim:1h13m13s) 
CPU  1 inst:   90000000 cyc:  101561552 now IPC :0.78029: AVG IPC :0.87493: L2-Pf-HR :0.94659: L2-HR :0.83481: (Sim:1h13m22s) 
CPU  0 inst:   89000003 cyc:  101686200 now IPC :0.87203: AVG IPC :0.86392: L2-Pf-HR :0.94199: L2-HR :0.82075: (Sim:1h13m27s) 
CPU  3 inst:   89000005 cyc:  102084634 now IPC :0.74563: AVG IPC :0.86052: L2-Pf-HR :0.94408: L2-HR :0.83558: (Sim:1h13m38s) 
CPU  2 inst:   93000005 cyc:  102546217 now IPC :0.74057: AVG IPC :0.89599: L2-Pf-HR :0.94271: L2-HR :0.86488: (Sim:1h13m51s) 
CPU  0 inst:   90000000 cyc:  102670914 now IPC :1.01552: AVG IPC :0.86539: L2-Pf-HR :0.94208: L2-HR :0.82080: (Sim:1h13m54s) 
CPU  1 inst:   91000005 cyc:  102815661 now IPC :0.79738: AVG IPC :0.87398: L2-Pf-HR :0.94646: L2-HR :0.83478: (Sim:1h13m59s) 
CPU  3 inst:   90000000 cyc:  103334394 now IPC :0.80015: AVG IPC :0.85978: L2-Pf-HR :0.94393: L2-HR :0.83557: (Sim:1h14m13s) 
CPU  2 inst:   94000000 cyc:  103798654 now IPC :0.79844: AVG IPC :0.89481: L2-Pf-HR :0.94278: L2-HR :0.86505: (Sim:1h14m26s) 
CPU  0 inst:   91000000 cyc:  103844896 now IPC :0.85180: AVG IPC :0.86523: L2-Pf-HR :0.94235: L2-HR :0.82083: (Sim:1h14m28s) 
CPU  1 inst:   92000000 cyc:  104078033 now IPC :0.79216: AVG IPC :0.87298: L2-Pf-HR :0.94666: L2-HR :0.83500: (Sim:1h14m34s) 
CPU  3 inst:   91000000 cyc:  104428721 now IPC :0.91380: AVG IPC :0.86036: L2-Pf-HR :0.94392: L2-HR :0.83553: (Sim:1h14m44s) 
CPU  0 inst:   92000000 cyc:  105077526 now IPC :0.81127: AVG IPC :0.86459: L2-Pf-HR :0.94260: L2-HR :0.82107: (Sim:1h15m3s) 
CPU  2 inst:   95000004 cyc:  105106188 now IPC :0.76480: AVG IPC :0.89317: L2-Pf-HR :0.94295: L2-HR :0.86509: (Sim:1h15m4s) 
CPU  1 inst:   93000001 cyc:  105342218 now IPC :0.79102: AVG IPC :0.87198: L2-Pf-HR :0.94681: L2-HR :0.83516: (Sim:1h15m11s) 
CPU  3 inst:   92000000 cyc:  105344471 now IPC :1.09200: AVG IPC :0.86239: L2-Pf-HR :0.94389: L2-HR :0.83568: (Sim:1h15m11s) 
CPU  2 inst:   96000004 cyc:  106325068 now IPC :0.82043: AVG IPC :0.89233: L2-Pf-HR :0.94308: L2-HR :0.86525: (Sim:1h15m46s) 
CPU  0 inst:   93000002 cyc:  106392068 now IPC :0.76072: AVG IPC :0.86330: L2-Pf-HR :0.94307: L2-HR :0.82133: (Sim:1h15m49s) 
CPU  1 inst:   94000000 cyc:  106404542 now IPC :0.94133: AVG IPC :0.87268: L2-Pf-HR :0.94700: L2-HR :0.83544: (Sim:1h15m49s) 
CPU  3 inst:   93000000 cyc:  106446277 now IPC :0.90760: AVG IPC :0.86286: L2-Pf-HR :0.94393: L2-HR :0.83570: (Sim:1h15m51s) 
CPU  2 inst:   97000002 cyc:  107377477 now IPC :0.95020: AVG IPC :0.89290: L2-Pf-HR :0.94327: L2-HR :0.86536: (Sim:1h16m38s) 
CPU  1 inst:   95000004 cyc:  107417845 now IPC :0.98688: AVG IPC :0.87377: L2-Pf-HR :0.94724: L2-HR :0.83538: (Sim:1h16m40s) 
CPU  0 inst:   94000000 cyc:  107572855 now IPC :0.84689: AVG IPC :0.86311: L2-Pf-HR :0.94337: L2-HR :0.82145: (Sim:1h16m48s) 
CPU  3 inst:   94000000 cyc:  107594413 now IPC :0.87098: AVG IPC :0.86295: L2-Pf-HR :0.94400: L2-HR :0.83590: (Sim:1h16m49s) 
CPU  2 inst:   98000004 cyc:  108323097 now IPC :1.05751: AVG IPC :0.89435: L2-Pf-HR :0.94335: L2-HR :0.86543: (Sim:1h17m26s) 
CPU  1 inst:   96000004 cyc:  108437936 now IPC :0.98030: AVG IPC :0.87478: L2-Pf-HR :0.94750: L2-HR :0.83572: (Sim:1h17m32s) 
CPU  3 inst:   95000004 cyc:  108742139 now IPC :0.87129: AVG IPC :0.86304: L2-Pf-HR :0.94405: L2-HR :0.83593: (Sim:1h17m47s) 
CPU  0 inst:   95000004 cyc:  108746548 now IPC :0.85201: AVG IPC :0.86299: L2-Pf-HR :0.94371: L2-HR :0.82159: (Sim:1h17m47s) 
CPU  2 inst:   99000000 cyc:  109358955 now IPC :0.96538: AVG IPC :0.89503: L2-Pf-HR :0.94348: L2-HR :0.86555: (Sim:1h18m16s) 
CPU  1 inst:   97000002 cyc:  109623823 now IPC :0.84325: AVG IPC :0.87444: L2-Pf-HR :0.94766: L2-HR :0.83587: (Sim:1h18m28s) 
CPU  3 inst:   96000004 cyc:  110049509 now IPC :0.76489: AVG IPC :0.86186: L2-Pf-HR :0.94423: L2-HR :0.83614: (Sim:1h18m47s) 
CPU  0 inst:   96000004 cyc:  110058323 now IPC :0.76233: AVG IPC :0.86178: L2-Pf-HR :0.94398: L2-HR :0.82172: (Sim:1h18m47s) 
CPU  2 inst:  100000005 cyc:  110704685 now IPC :0.74309: AVG IPC :0.89317: L2-Pf-HR :0.94366: L2-HR :0.86563: (Sim:1h19m14s) 
CPU  1 inst:   98000004 cyc:  111000098 now IPC :0.72660: AVG IPC :0.87259: L2-Pf-HR :0.94789: L2-HR :0.83597: (Sim:1h19m27s) 
CPU  3 inst:   97000002 cyc:  111379307 now IPC :0.75199: AVG IPC :0.86054: L2-Pf-HR :0.94430: L2-HR :0.83635: (Sim:1h19m44s) 
CPU  0 inst:   97000002 cyc:  111499188 now IPC :0.69403: AVG IPC :0.85960: L2-Pf-HR :0.94422: L2-HR :0.82182: (Sim:1h19m50s) 
CPU  2 inst:  101000000 cyc:  111926232 now IPC :0.81863: AVG IPC :0.89235: L2-Pf-HR :0.94346: L2-HR :0.86552: (Sim:1h20m12s) 
CPU  1 inst:   99000000 cyc:  112222759 now IPC :0.81788: AVG IPC :0.87199: L2-Pf-HR :0.94833: L2-HR :0.83626: (Sim:1h20m23s) 
CPU  3 inst:   98000004 cyc:  112367053 now IPC :1.01241: AVG IPC :0.86188: L2-Pf-HR :0.94465: L2-HR :0.83646: (Sim:1h20m27s) 
CPU  0 inst:   98000004 cyc:  112606983 now IPC :0.90270: AVG IPC :0.86002: L2-Pf-HR :0.94439: L2-HR :0.82179: (Sim:1h20m35s) 
CPU  2 inst:  102000003 cyc:  113033988 now IPC :0.90273: AVG IPC :0.89245: L2-Pf-HR :0.94351: L2-HR :0.86555: (Sim:1h20m48s) 
CPU  3 inst:   99000003 cyc:  113328404 now IPC :1.04020: AVG IPC :0.86341: L2-Pf-HR :0.94491: L2-HR :0.83664: (Sim:1h20m57s) 
CPU  1 inst:  100000001 cyc:  113389578 now IPC :0.85703: AVG IPC :0.87183: L2-Pf-HR :0.94818: L2-HR :0.83608: (Sim:1h20m59s) 
CPU  0 inst:   99000003 cyc:  113843164 now IPC :0.80894: AVG IPC :0.85946: L2-Pf-HR :0.94457: L2-HR :0.82175: (Sim:1h21m12s) 
CPU  2 inst:  103000002 cyc:  114212325 now IPC :0.84865: AVG IPC :0.89200: L2-Pf-HR :0.94357: L2-HR :0.86560: (Sim:1h21m22s) 
CPU  3 inst:  100000005 cyc:  114416685 now IPC :0.91888: AVG IPC :0.86394: L2-Pf-HR :0.94521: L2-HR :0.83668: (Sim:1h21m28s) 
CPU  1 inst:  101000000 cyc:  114645255 now IPC :0.79638: AVG IPC :0.87100: L2-Pf-HR :0.94802: L2-HR :0.83611: (Sim:1h21m35s) 
CPU  0 inst:  100000005 cyc:  115001832 now IPC :0.86306: AVG IPC :0.85950: L2-Pf-HR :0.94464: L2-HR :0.82159: (Sim:1h21m46s) 
CPU  2 inst:  104000002 cyc:  115289676 now IPC :0.92820: AVG IPC :0.89234: L2-Pf-HR :0.94363: L2-HR :0.86570: (Sim:1h21m55s) 
CPU  3 inst:  101000000 cyc:  115580031 now IPC :0.85959: AVG IPC :0.86390: L2-Pf-HR :0.94502: L2-HR :0.83658: (Sim:1h22m3s) 
CPU  1 inst:  102000003 cyc:  115743134 now IPC :0.91085: AVG IPC :0.87138: L2-Pf-HR :0.94803: L2-HR :0.83615: (Sim:1h22m8s) 
CPU  0 inst:  101000002 cyc:  116249251 now IPC :0.80165: AVG IPC :0.85887: L2-Pf-HR :0.94449: L2-HR :0.82167: (Sim:1h22m24s) 
CPU  2 inst:  105000002 cyc:  116310957 now IPC :0.97916: AVG IPC :0.89311: L2-Pf-HR :0.94377: L2-HR :0.86576: (Sim:1h22m26s) 
CPU  3 inst:  102000003 cyc:  116670842 now IPC :0.91675: AVG IPC :0.86440: L2-Pf-HR :0.94498: L2-HR :0.83652: (Sim:1h22m37s) 
CPU  1 inst:  103000002 cyc:  116908579 now IPC :0.85804: AVG IPC :0.87124: L2-Pf-HR :0.94813: L2-HR :0.83622: (Sim:1h22m44s) 
CPU  2 inst:  106000001 cyc:  117209951 now IPC :1.11235: AVG IPC :0.89480: L2-Pf-HR :0.94387: L2-HR :0.86588: (Sim:1h22m53s) 
CPU  0 inst:  102000003 cyc:  117535360 now IPC :0.77754: AVG IPC :0.85798: L2-Pf-HR :0.94474: L2-HR :0.82169: (Sim:1h23m2s) 
CPU  3 inst:  103000002 cyc:  117952178 now IPC :0.78043: AVG IPC :0.86348: L2-Pf-HR :0.94491: L2-HR :0.83663: (Sim:1h23m13s) 
CPU  1 inst:  104000002 cyc:  118289921 now IPC :0.72393: AVG IPC :0.86951: L2-Pf-HR :0.94807: L2-HR :0.83628: (Sim:1h23m21s) 
CPU  2 inst:  107000000 cyc:  118399326 now IPC :0.84078: AVG IPC :0.89425: L2-Pf-HR :0.94404: L2-HR :0.86590: (Sim:1h23m24s) 
CPU  0 inst:  103000002 cyc:  119106627 now IPC :0.63643: AVG IPC :0.85503: L2-Pf-HR :0.94498: L2-HR :0.82174: (Sim:1h23m41s) 
CPU  3 inst:  104000002 cyc:  119419647 now IPC :0.68145: AVG IPC :0.86122: L2-Pf-HR :0.94494: L2-HR :0.83678: (Sim:1h23m48s) 
CPU  1 inst:  105000002 cyc:  119909940 now IPC :0.61728: AVG IPC :0.86607: L2-Pf-HR :0.94816: L2-HR :0.83638: (Sim:1h24m0s) 
CPU  2 inst:  108000001 cyc:  119914544 now IPC :0.65997: AVG IPC :0.89127: L2-Pf-HR :0.94412: L2-HR :0.86602: (Sim:1h24m0s) 
CPU  0 inst:  104000002 cyc:  120616530 now IPC :0.66229: AVG IPC :0.85260: L2-Pf-HR :0.94526: L2-HR :0.82192: (Sim:1h24m18s) 
CPU  3 inst:  105000002 cyc:  120922351 now IPC :0.66547: AVG IPC :0.85877: L2-Pf-HR :0.94491: L2-HR :0.83673: (Sim:1h24m26s) 
CPU  2 inst:  109000000 cyc:  121216430 now IPC :0.76812: AVG IPC :0.88994: L2-Pf-HR :0.94424: L2-HR :0.86611: (Sim:1h24m33s) 
CPU  1 inst:  106000001 cyc:  121346645 now IPC :0.69604: AVG IPC :0.86404: L2-Pf-HR :0.94807: L2-HR :0.83654: (Sim:1h24m37s) 
CPU  0 inst:  105000002 cyc:  121986786 now IPC :0.72979: AVG IPC :0.85121: L2-Pf-HR :0.94549: L2-HR :0.82214: (Sim:1h24m54s) 
CPU  2 inst:  110000004 cyc:  122215051 now IPC :1.00138: AVG IPC :0.89085: L2-Pf-HR :0.94438: L2-HR :0.86617: (Sim:1h25m2s) 
CPU  3 inst:  106000001 cyc:  122286812 now IPC :0.73289: AVG IPC :0.85735: L2-Pf-HR :0.94491: L2-HR :0.83690: (Sim:1h25m4s) 
CPU  1 inst:  107000000 cyc:  122668860 now IPC :0.75631: AVG IPC :0.86287: L2-Pf-HR :0.94806: L2-HR :0.83644: (Sim:1h25m15s) 
CPU  2 inst:  111000003 cyc:  123178039 now IPC :1.03843: AVG IPC :0.89202: L2-Pf-HR :0.94452: L2-HR :0.86627: (Sim:1h25m28s) 
CPU  0 inst:  106000001 cyc:  123420570 now IPC :0.69745: AVG IPC :0.84941: L2-Pf-HR :0.94572: L2-HR :0.82224: (Sim:1h25m33s) 
CPU  3 inst:  107000000 cyc:  123828900 now IPC :0.64847: AVG IPC :0.85473: L2-Pf-HR :0.94511: L2-HR :0.83697: (Sim:1h25m43s) 
CPU  1 inst:  108000001 cyc:  124153570 now IPC :0.67353: AVG IPC :0.86059: L2-Pf-HR :0.94835: L2-HR :0.83673: (Sim:1h25m51s) 
CPU  2 inst:  112000005 cyc:  124698585 now IPC :0.65766: AVG IPC :0.88914: L2-Pf-HR :0.94460: L2-HR :0.86630: (Sim:1h26m4s) 
CPU  0 inst:  107000000 cyc:  125023194 now IPC :0.62398: AVG IPC :0.84649: L2-Pf-HR :0.94593: L2-HR :0.82234: (Sim:1h26m12s) 
CPU  3 inst:  108000001 cyc:  125376038 now IPC :0.64636: AVG IPC :0.85214: L2-Pf-HR :0.94531: L2-HR :0.83710: (Sim:1h26m21s) 
CPU  1 inst:  109000000 cyc:  125528347 now IPC :0.72739: AVG IPC :0.85912: L2-Pf-HR :0.94851: L2-HR :0.83680: (Sim:1h26m24s) 
CPU  2 inst:  113000001 cyc:  126080409 now IPC :0.72368: AVG IPC :0.88731: L2-Pf-HR :0.94435: L2-HR :0.86616: (Sim:1h26m49s) 
CPU  0 inst:  108000001 cyc:  126400323 now IPC :0.72615: AVG IPC :0.84517: L2-Pf-HR :0.94609: L2-HR :0.82240: (Sim:1h27m5s) 
CPU  1 inst:  110000000 cyc:  126507100 now IPC :1.02171: AVG IPC :0.86039: L2-Pf-HR :0.94869: L2-HR :0.83687: (Sim:1h27m9s) 
CPU  3 inst:  109000000 cyc:  126661841 now IPC :0.77772: AVG IPC :0.85138: L2-Pf-HR :0.94561: L2-HR :0.83735: (Sim:1h27m17s) 
CPU  2 inst:  114000001 cyc:  127420985 now IPC :0.74595: AVG IPC :0.88581: L2-Pf-HR :0.94439: L2-HR :0.86618: (Sim:1h27m51s) 
CPU  1 inst:  111000001 cyc:  127540706 now IPC :0.96749: AVG IPC :0.86126: L2-Pf-HR :0.94875: L2-HR :0.83704: (Sim:1h27m56s) 
CPU  0 inst:  109000000 cyc:  127831837 now IPC :0.69856: AVG IPC :0.84352: L2-Pf-HR :0.94603: L2-HR :0.82250: (Sim:1h28m7s) 
CPU  3 inst:  110000004 cyc:  128157586 now IPC :0.66857: AVG IPC :0.84923: L2-Pf-HR :0.94586: L2-HR :0.83737: (Sim:1h28m20s) 
CPU  2 inst:  115000004 cyc:  129035686 now IPC :0.61931: AVG IPC :0.88245: L2-Pf-HR :0.94444: L2-HR :0.86623: (Sim:1h28m58s) 
CPU  1 inst:  112000005 cyc:  129078264 now IPC :0.65038: AVG IPC :0.85873: L2-Pf-HR :0.94872: L2-HR :0.83691: (Sim:1h28m59s) 
CPU  3 inst:  111000002 cyc:  129245589 now IPC :0.91911: AVG IPC :0.84982: L2-Pf-HR :0.94612: L2-HR :0.83757: (Sim:1h29m7s) 
CPU  0 inst:  110000005 cyc:  129418012 now IPC :0.63045: AVG IPC :0.84089: L2-Pf-HR :0.94622: L2-HR :0.82244: (Sim:1h29m15s) 
CPU  3 inst:  112000000 cyc:  130394039 now IPC :0.87074: AVG IPC :0.85001: L2-Pf-HR :0.94600: L2-HR :0.83762: (Sim:1h29m56s) 
CPU  2 inst:  116000005 cyc:  130480181 now IPC :0.69228: AVG IPC :0.88033: L2-Pf-HR :0.94444: L2-HR :0.86630: (Sim:1h30m1s) 
CPU  1 inst:  113000001 cyc:  130597652 now IPC :0.65816: AVG IPC :0.85638: L2-Pf-HR :0.94853: L2-HR :0.83694: (Sim:1h30m6s) 
CPU  0 inst:  111000002 cyc:  130969470 now IPC :0.64455: AVG IPC :0.83854: L2-Pf-HR :0.94636: L2-HR :0.82237: (Sim:1h30m21s) 
CPU  2 inst:  117000001 cyc:  131680950 now IPC :0.83280: AVG IPC :0.87989: L2-Pf-HR :0.94447: L2-HR :0.86631: (Sim:1h30m54s) 
CPU  3 inst:  113000001 cyc:  131718848 now IPC :0.75483: AVG IPC :0.84904: L2-Pf-HR :0.94560: L2-HR :0.83748: (Sim:1h30m56s) 
CPU  1 inst:  114000001 cyc:  131916339 now IPC :0.75833: AVG IPC :0.85539: L2-Pf-HR :0.94831: L2-HR :0.83692: (Sim:1h31m5s) 
CPU  0 inst:  112000000 cyc:  132362222 now IPC :0.71800: AVG IPC :0.83727: L2-Pf-HR :0.94642: L2-HR :0.82221: (Sim:1h31m26s) 
CPU  2 inst:  118000005 cyc:  132641813 now IPC :1.04074: AVG IPC :0.88107: L2-Pf-HR :0.94465: L2-HR :0.86646: (Sim:1h31m39s) 
CPU  3 inst:  114000001 cyc:  133037204 now IPC :0.75852: AVG IPC :0.84814: L2-Pf-HR :0.94549: L2-HR :0.83746: (Sim:1h31m57s) 
CPU  1 inst:  115000004 cyc:  133204815 now IPC :0.77611: AVG IPC :0.85462: L2-Pf-HR :0.94820: L2-HR :0.83691: (Sim:1h32m4s) 
CPU  0 inst:  113000001 cyc:  133863670 now IPC :0.66602: AVG IPC :0.83533: L2-Pf-HR :0.94619: L2-HR :0.82220: (Sim:1h32m35s) 
CPU  2 inst:  119000001 cyc:  133868245 now IPC :0.81537: AVG IPC :0.88046: L2-Pf-HR :0.94481: L2-HR :0.86650: (Sim:1h32m35s) 
CPU  1 inst:  116000005 cyc:  134178689 now IPC :1.02683: AVG IPC :0.85588: L2-Pf-HR :0.94816: L2-HR :0.83702: (Sim:1h32m50s) 
CPU  3 inst:  115000004 cyc:  134311203 now IPC :0.78493: AVG IPC :0.84753: L2-Pf-HR :0.94567: L2-HR :0.83745: (Sim:1h32m57s) 
CPU  2 inst:  120000001 cyc:  135044646 now IPC :0.85005: AVG IPC :0.88019: L2-Pf-HR :0.94489: L2-HR :0.86659: (Sim:1h33m32s) 
CPU  0 inst:  114000001 cyc:  135159234 now IPC :0.77186: AVG IPC :0.83472: L2-Pf-HR :0.94635: L2-HR :0.82221: (Sim:1h33m38s) 
CPU  1 inst:  117000001 cyc:  135289011 now IPC :0.90064: AVG IPC :0.85625: L2-Pf-HR :0.94836: L2-HR :0.83715: (Sim:1h33m44s) 
CPU  3 inst:  116000005 cyc:  135365237 now IPC :0.94874: AVG IPC :0.84833: L2-Pf-HR :0.94557: L2-HR :0.83754: (Sim:1h33m48s) 
CPU  2 inst:  121000000 cyc:  136048662 now IPC :0.99600: AVG IPC :0.88105: L2-Pf-HR :0.94500: L2-HR :0.86666: (Sim:1h34m22s) 
CPU  0 inst:  115000004 cyc:  136448236 now IPC :0.77580: AVG IPC :0.83416: L2-Pf-HR :0.94651: L2-HR :0.82222: (Sim:1h34m41s) 
CPU  3 inst:  117000001 cyc:  136466141 now IPC :0.90834: AVG IPC :0.84882: L2-Pf-HR :0.94553: L2-HR :0.83750: (Sim:1h34m42s) 
CPU  1 inst:  118000005 cyc:  136534953 now IPC :0.80261: AVG IPC :0.85576: L2-Pf-HR :0.94858: L2-HR :0.83731: (Sim:1h34m45s) 
CPU  2 inst:  122000001 cyc:  137153574 now IPC :0.90505: AVG IPC :0.88125: L2-Pf-HR :0.94513: L2-HR :0.86673: (Sim:1h35m14s) 
CPU  0 inst:  116000005 cyc:  137602616 now IPC :0.86627: AVG IPC :0.83443: L2-Pf-HR :0.94671: L2-HR :0.82239: (Sim:1h35m36s) 
CPU  3 inst:  118000005 cyc:  137651310 now IPC :0.84376: AVG IPC :0.84877: L2-Pf-HR :0.94568: L2-HR :0.83771: (Sim:1h35m38s) 
CPU  1 inst:  119000001 cyc:  137811812 now IPC :0.78317: AVG IPC :0.85508: L2-Pf-HR :0.94855: L2-HR :0.83718: (Sim:1h35m45s) 
CPU  2 inst:  123000002 cyc:  138343069 now IPC :0.84069: AVG IPC :0.88090: L2-Pf-HR :0.94522: L2-HR :0.86685: (Sim:1h36m11s) 
CPU  0 inst:  117000001 cyc:  138676928 now IPC :0.93082: AVG IPC :0.83518: L2-Pf-HR :0.94693: L2-HR :0.82253: (Sim:1h36m27s) 
CPU  1 inst:  120000001 cyc:  138861358 now IPC :0.95279: AVG IPC :0.85582: L2-Pf-HR :0.94866: L2-HR :0.83736: (Sim:1h36m37s) 
CPU  3 inst:  119000001 cyc:  138939209 now IPC :0.77646: AVG IPC :0.84810: L2-Pf-HR :0.94579: L2-HR :0.83775: (Sim:1h36m40s) 
CPU  2 inst:  124000003 cyc:  139463907 now IPC :0.89219: AVG IPC :0.88099: L2-Pf-HR :0.94525: L2-HR :0.86688: (Sim:1h36m56s) 
CPU  0 inst:  118000005 cyc:  139722782 now IPC :0.95616: AVG IPC :0.83609: L2-Pf-HR :0.94697: L2-HR :0.82256: (Sim:1h37m4s) 
CPU  1 inst:  121000004 cyc:  139906547 now IPC :0.95677: AVG IPC :0.85658: L2-Pf-HR :0.94875: L2-HR :0.83748: (Sim:1h37m9s) 
CPU  3 inst:  120000001 cyc:  140055023 now IPC :0.89621: AVG IPC :0.84848: L2-Pf-HR :0.94592: L2-HR :0.83785: (Sim:1h37m14s) 
CPU  2 inst:  125000000 cyc:  140561280 now IPC :0.91126: AVG IPC :0.88123: L2-Pf-HR :0.94496: L2-HR :0.86655: (Sim:1h37m32s) 
CPU  0 inst:  119000000 cyc:  140997589 now IPC :0.78443: AVG IPC :0.83562: L2-Pf-HR :0.94709: L2-HR :0.82269: (Sim:1h37m53s) 
CPU  1 inst:  122000003 cyc:  141109480 now IPC :0.83130: AVG IPC :0.85637: L2-Pf-HR :0.94879: L2-HR :0.83751: (Sim:1h37m59s) 
CPU  3 inst:  121000000 cyc:  141144303 now IPC :0.91804: AVG IPC :0.84902: L2-Pf-HR :0.94616: L2-HR :0.83799: (Sim:1h38m1s) 
CPU  2 inst:  126000001 cyc:  141676453 now IPC :0.89672: AVG IPC :0.88135: L2-Pf-HR :0.94477: L2-HR :0.86628: (Sim:1h38m26s) 
CPU  3 inst:  122000004 cyc:  142225650 now IPC :0.92478: AVG IPC :0.84960: L2-Pf-HR :0.94631: L2-HR :0.83804: (Sim:1h38m52s) 
CPU  0 inst:  120000001 cyc:  142298390 now IPC :0.76876: AVG IPC :0.83501: L2-Pf-HR :0.94719: L2-HR :0.82271: (Sim:1h38m56s) 
CPU  1 inst:  123000002 cyc:  142391387 now IPC :0.78009: AVG IPC :0.85567: L2-Pf-HR :0.94907: L2-HR :0.83782: (Sim:1h39m0s) 
CPU  2 inst:  127000002 cyc:  142829764 now IPC :0.86707: AVG IPC :0.88123: L2-Pf-HR :0.94471: L2-HR :0.86608: (Sim:1h39m20s) 
CPU  3 inst:  123000002 cyc:  143505652 now IPC :0.78125: AVG IPC :0.84899: L2-Pf-HR :0.94644: L2-HR :0.83822: (Sim:1h39m49s) 
CPU  0 inst:  121000001 cyc:  143833360 now IPC :0.65148: AVG IPC :0.83303: L2-Pf-HR :0.94738: L2-HR :0.82274: (Sim:1h40m3s) 
CPU  1 inst:  124000003 cyc:  143907507 now IPC :0.65958: AVG IPC :0.85359: L2-Pf-HR :0.94904: L2-HR :0.83768: (Sim:1h40m6s) 
CPU  2 inst:  128000005 cyc:  143986965 now IPC :0.86416: AVG IPC :0.88109: L2-Pf-HR :0.94465: L2-HR :0.86590: (Sim:1h40m9s) 
CPU  3 inst:  124000003 cyc:  145142038 now IPC :0.61110: AVG IPC :0.84629: L2-Pf-HR :0.94661: L2-HR :0.83827: (Sim:1h40m57s) 
CPU  1 inst:  125000000 cyc:  145280785 now IPC :0.72818: AVG IPC :0.85240: L2-Pf-HR :0.94899: L2-HR :0.83755: (Sim:1h41m4s) 
CPU  0 inst:  122000001 cyc:  145377973 now IPC :0.64741: AVG IPC :0.83105: L2-Pf-HR :0.94739: L2-HR :0.82263: (Sim:1h41m8s) 
CPU  2 inst:  129000000 cyc:  145463063 now IPC :0.67746: AVG IPC :0.87901: L2-Pf-HR :0.94441: L2-HR :0.86555: (Sim:1h41m11s) 
CPU  3 inst:  125000000 cyc:  146387702 now IPC :0.80278: AVG IPC :0.84592: L2-Pf-HR :0.94634: L2-HR :0.83793: (Sim:1h41m55s) 
CPU  1 inst:  126000001 cyc:  146489636 now IPC :0.82723: AVG IPC :0.85219: L2-Pf-HR :0.94886: L2-HR :0.83716: (Sim:1h42m0s) 
CPU  0 inst:  123000002 cyc:  146735351 now IPC :0.73672: AVG IPC :0.83017: L2-Pf-HR :0.94736: L2-HR :0.82255: (Sim:1h42m11s) 
CPU  2 inst:  130000001 cyc:  146742891 now IPC :0.78136: AVG IPC :0.87816: L2-Pf-HR :0.94445: L2-HR :0.86553: (Sim:1h42m11s) 
CPU  3 inst:  126000001 cyc:  147577072 now IPC :0.84078: AVG IPC :0.84587: L2-Pf-HR :0.94629: L2-HR :0.83748: (Sim:1h42m50s) 
CPU  1 inst:  127000002 cyc:  147658969 now IPC :0.85519: AVG IPC :0.85222: L2-Pf-HR :0.94880: L2-HR :0.83677: (Sim:1h42m54s) 
CPU  2 inst:  131000001 cyc:  147990155 now IPC :0.80175: AVG IPC :0.87751: L2-Pf-HR :0.94448: L2-HR :0.86554: (Sim:1h43m10s) 
CPU  0 inst:  124000003 cyc:  148054764 now IPC :0.75791: AVG IPC :0.82952: L2-Pf-HR :0.94733: L2-HR :0.82243: (Sim:1h43m13s) 
CPU  3 inst:  127000002 cyc:  148837624 now IPC :0.79330: AVG IPC :0.84543: L2-Pf-HR :0.94627: L2-HR :0.83705: (Sim:1h43m49s) 
CPU  1 inst:  128000005 cyc:  148852485 now IPC :0.83786: AVG IPC :0.85210: L2-Pf-HR :0.94868: L2-HR :0.83638: (Sim:1h43m49s) 
CPU  2 inst:  132000000 cyc:  149254818 now IPC :0.79072: AVG IPC :0.87677: L2-Pf-HR :0.94456: L2-HR :0.86561: (Sim:1h44m9s) 
CPU  0 inst:  125000000 cyc:  149255654 now IPC :0.83271: AVG IPC :0.82955: L2-Pf-HR :0.94704: L2-HR :0.82205: (Sim:1h44m9s) 
CPU  3 inst:  128000005 cyc:  150045886 now IPC :0.82764: AVG IPC :0.84528: L2-Pf-HR :0.94626: L2-HR :0.83665: (Sim:1h44m44s) 
CPU  1 inst:  129000000 cyc:  150330738 now IPC :0.67647: AVG IPC :0.85036: L2-Pf-HR :0.94842: L2-HR :0.83610: (Sim:1h44m58s) 
CPU  0 inst:  126000001 cyc:  150424853 now IPC :0.85529: AVG IPC :0.82975: L2-Pf-HR :0.94685: L2-HR :0.82157: (Sim:1h45m3s) 
CPU  2 inst:  133000000 cyc:  150656297 now IPC :0.71353: AVG IPC :0.87524: L2-Pf-HR :0.94459: L2-HR :0.86565: (Sim:1h45m11s) 
CPU  3 inst:  129000000 cyc:  151539175 now IPC :0.66966: AVG IPC :0.84354: L2-Pf-HR :0.94601: L2-HR :0.83637: (Sim:1h45m50s) 
CPU  0 inst:  127000002 cyc:  151749939 now IPC :0.75467: AVG IPC :0.82909: L2-Pf-HR :0.94686: L2-HR :0.82117: (Sim:1h45m59s) 
CPU  1 inst:  130000000 cyc:  151791558 now IPC :0.68455: AVG IPC :0.84875: L2-Pf-HR :0.94841: L2-HR :0.83613: (Sim:1h46m1s) 
CPU  2 inst:  134000003 cyc:  152080659 now IPC :0.70207: AVG IPC :0.87361: L2-Pf-HR :0.94462: L2-HR :0.86568: (Sim:1h46m14s) 
CPU  3 inst:  130000002 cyc:  152963911 now IPC :0.70189: AVG IPC :0.84221: L2-Pf-HR :0.94614: L2-HR :0.83651: (Sim:1h46m52s) 
CPU  0 inst:  128000005 cyc:  153009002 now IPC :0.79424: AVG IPC :0.82880: L2-Pf-HR :0.94689: L2-HR :0.82080: (Sim:1h46m54s) 
CPU  1 inst:  131000001 cyc:  153240709 now IPC :0.69006: AVG IPC :0.84724: L2-Pf-HR :0.94848: L2-HR :0.83619: (Sim:1h47m4s) 
CPU  2 inst:  135000002 cyc:  153599042 now IPC :0.65859: AVG IPC :0.87147: L2-Pf-HR :0.94466: L2-HR :0.86565: (Sim:1h47m18s) 
CPU  0 inst:  129000000 cyc:  154360048 now IPC :0.74016: AVG IPC :0.82802: L2-Pf-HR :0.94649: L2-HR :0.82062: (Sim:1h47m53s) 
CPU  3 inst:  131000001 cyc:  154423586 now IPC :0.68508: AVG IPC :0.84072: L2-Pf-HR :0.94621: L2-HR :0.83666: (Sim:1h47m55s) 
CPU  1 inst:  132000004 cyc:  154749217 now IPC :0.66291: AVG IPC :0.84544: L2-Pf-HR :0.94864: L2-HR :0.83630: (Sim:1h48m10s) 
CPU  2 inst:  136000004 cyc:  154957636 now IPC :0.73606: AVG IPC :0.87027: L2-Pf-HR :0.94467: L2-HR :0.86570: (Sim:1h48m20s) 
CPU  0 inst:  130000002 cyc:  155410000 now IPC :0.95243: AVG IPC :0.82887: L2-Pf-HR :0.94638: L2-HR :0.82076: (Sim:1h48m41s) 
CPU  3 inst:  132000000 cyc:  155838766 now IPC :0.70662: AVG IPC :0.83949: L2-Pf-HR :0.94632: L2-HR :0.83690: (Sim:1h49m1s) 
CPU  2 inst:  137000004 cyc:  156098558 now IPC :0.87648: AVG IPC :0.87032: L2-Pf-HR :0.94465: L2-HR :0.86566: (Sim:1h49m13s) 
CPU  1 inst:  133000000 cyc:  156196276 now IPC :0.69105: AVG IPC :0.84400: L2-Pf-HR :0.94883: L2-HR :0.83636: (Sim:1h49m17s) 
CPU  0 inst:  131000001 cyc:  156691795 now IPC :0.78016: AVG IPC :0.82846: L2-Pf-HR :0.94624: L2-HR :0.82081: (Sim:1h49m40s) 
CPU  2 inst:  138000002 cyc:  157114043 now IPC :0.98475: AVG IPC :0.87106: L2-Pf-HR :0.94466: L2-HR :0.86566: (Sim:1h49m59s) 
CPU  3 inst:  133000000 cyc:  157409992 now IPC :0.63645: AVG IPC :0.83745: L2-Pf-HR :0.94640: L2-HR :0.83695: (Sim:1h50m11s) 
CPU  1 inst:  134000003 cyc:  157689586 now IPC :0.66966: AVG IPC :0.84234: L2-Pf-HR :0.94898: L2-HR :0.83641: (Sim:1h50m22s) 
CPU  0 inst:  132000000 cyc:  158219425 now IPC :0.65461: AVG IPC :0.82678: L2-Pf-HR :0.94621: L2-HR :0.82103: (Sim:1h50m45s) 
CPU  2 inst:  139000005 cyc:  158552472 now IPC :0.69520: AVG IPC :0.86946: L2-Pf-HR :0.94460: L2-HR :0.86557: (Sim:1h50m58s) 
CPU  3 inst:  134000003 cyc:  159035556 now IPC :0.61517: AVG IPC :0.83517: L2-Pf-HR :0.94650: L2-HR :0.83700: (Sim:1h51m18s) 
CPU  1 inst:  135000002 cyc:  159132087 now IPC :0.69324: AVG IPC :0.84098: L2-Pf-HR :0.94910: L2-HR :0.83634: (Sim:1h51m23s) 
CPU  0 inst:  133000000 cyc:  159690999 now IPC :0.67954: AVG IPC :0.82541: L2-Pf-HR :0.94618: L2-HR :0.82125: (Sim:1h51m47s) 
CPU  2 inst:  140000001 cyc:  159943251 now IPC :0.71902: AVG IPC :0.86814: L2-Pf-HR :0.94451: L2-HR :0.86554: (Sim:1h51m59s) 
CPU  1 inst:  136000003 cyc:  160348814 now IPC :0.82188: AVG IPC :0.84083: L2-Pf-HR :0.94930: L2-HR :0.83645: (Sim:1h52m18s) 
CPU  3 inst:  135000002 cyc:  160465133 now IPC :0.69951: AVG IPC :0.83395: L2-Pf-HR :0.94662: L2-HR :0.83698: (Sim:1h52m23s) 
CPU  0 inst:  134000003 cyc:  161031897 now IPC :0.74577: AVG IPC :0.82474: L2-Pf-HR :0.94595: L2-HR :0.82135: (Sim:1h52m48s) 
CPU  2 inst:  141000003 cyc:  161390389 now IPC :0.69102: AVG IPC :0.86654: L2-Pf-HR :0.94421: L2-HR :0.86531: (Sim:1h53m5s) 
CPU  1 inst:  137000004 cyc:  161481495 now IPC :0.88286: AVG IPC :0.84113: L2-Pf-HR :0.94938: L2-HR :0.83641: (Sim:1h53m10s) 
CPU  3 inst:  136000003 cyc:  161837122 now IPC :0.72887: AVG IPC :0.83305: L2-Pf-HR :0.94657: L2-HR :0.83699: (Sim:1h53m25s) 
CPU  0 inst:  135000002 cyc:  162398158 now IPC :0.73192: AVG IPC :0.82396: L2-Pf-HR :0.94589: L2-HR :0.82153: (Sim:1h53m50s) 
CPU  1 inst:  138000002 cyc:  162663163 now IPC :0.84626: AVG IPC :0.84116: L2-Pf-HR :0.94939: L2-HR :0.83637: (Sim:1h54m2s) 
CPU  2 inst:  142000003 cyc:  162778816 now IPC :0.72024: AVG IPC :0.86529: L2-Pf-HR :0.94417: L2-HR :0.86530: (Sim:1h54m7s) 
CPU  3 inst:  137000000 cyc:  163323115 now IPC :0.67295: AVG IPC :0.83159: L2-Pf-HR :0.94662: L2-HR :0.83707: (Sim:1h54m32s) 
CPU  0 inst:  136000003 cyc:  163520703 now IPC :0.89083: AVG IPC :0.82442: L2-Pf-HR :0.94573: L2-HR :0.82158: (Sim:1h54m42s) 
CPU  2 inst:  143000002 cyc:  163981235 now IPC :0.83166: AVG IPC :0.86504: L2-Pf-HR :0.94418: L2-HR :0.86532: (Sim:1h55m4s) 
CPU  1 inst:  139000005 cyc:  163997123 now IPC :0.74965: AVG IPC :0.84041: L2-Pf-HR :0.94950: L2-HR :0.83640: (Sim:1h55m5s) 
CPU  3 inst:  138000002 cyc:  164517014 now IPC :0.83759: AVG IPC :0.83163: L2-Pf-HR :0.94660: L2-HR :0.83704: (Sim:1h55m31s) 
CPU  0 inst:  137000004 cyc:  164604443 now IPC :0.92273: AVG IPC :0.82507: L2-Pf-HR :0.94553: L2-HR :0.82158: (Sim:1h55m35s) 
CPU  2 inst:  144000004 cyc:  165056831 now IPC :0.92972: AVG IPC :0.86546: L2-Pf-HR :0.94417: L2-HR :0.86535: (Sim:1h55m58s) 
CPU  1 inst:  140000001 cyc:  165244132 now IPC :0.80192: AVG IPC :0.84012: L2-Pf-HR :0.94939: L2-HR :0.83619: (Sim:1h56m7s) 
CPU  0 inst:  138000002 cyc:  165669718 now IPC :0.93872: AVG IPC :0.82581: L2-Pf-HR :0.94530: L2-HR :0.82161: (Sim:1h56m28s) 
CPU  3 inst:  139000002 cyc:  165689864 now IPC :0.85262: AVG IPC :0.83178: L2-Pf-HR :0.94646: L2-HR :0.83701: (Sim:1h56m29s) 
CPU  2 inst:  145000004 cyc:  166155278 now IPC :0.91038: AVG IPC :0.86576: L2-Pf-HR :0.94413: L2-HR :0.86538: (Sim:1h56m50s) 
CPU  1 inst:  141000003 cyc:  166723722 now IPC :0.67586: AVG IPC :0.83866: L2-Pf-HR :0.94907: L2-HR :0.83599: (Sim:1h57m16s) 
CPU  3 inst:  140000004 cyc:  166797667 now IPC :0.90269: AVG IPC :0.83226: L2-Pf-HR :0.94626: L2-HR :0.83695: (Sim:1h57m20s) 
CPU  0 inst:  139000001 cyc:  167021987 now IPC :0.73950: AVG IPC :0.82510: L2-Pf-HR :0.94505: L2-HR :0.82145: (Sim:1h57m30s) 
CPU  2 inst:  146000001 cyc:  167548853 now IPC :0.71758: AVG IPC :0.86452: L2-Pf-HR :0.94413: L2-HR :0.86538: (Sim:1h57m53s) 
CPU  3 inst:  141000003 cyc:  168019826 now IPC :0.81822: AVG IPC :0.83215: L2-Pf-HR :0.94583: L2-HR :0.83673: (Sim:1h58m16s) 
CPU  1 inst:  142000003 cyc:  168140035 now IPC :0.70606: AVG IPC :0.83753: L2-Pf-HR :0.94914: L2-HR :0.83599: (Sim:1h58m22s) 
CPU  0 inst:  140000004 cyc:  168141998 now IPC :0.89285: AVG IPC :0.82556: L2-Pf-HR :0.94465: L2-HR :0.82138: (Sim:1h58m22s) 
CPU  2 inst:  147000000 cyc:  168937904 now IPC :0.71992: AVG IPC :0.86333: L2-Pf-HR :0.94420: L2-HR :0.86545: (Sim:1h58m56s) 
CPU  3 inst:  142000003 cyc:  169312492 now IPC :0.77360: AVG IPC :0.83170: L2-Pf-HR :0.94577: L2-HR :0.83666: (Sim:1h59m14s) 
CPU  0 inst:  141000003 cyc:  169328370 now IPC :0.84291: AVG IPC :0.82568: L2-Pf-HR :0.94424: L2-HR :0.82125: (Sim:1h59m14s) 
CPU  1 inst:  143000002 cyc:  169617160 now IPC :0.67699: AVG IPC :0.83613: L2-Pf-HR :0.94902: L2-HR :0.83589: (Sim:1h59m28s) 
CPU  2 inst:  148000001 cyc:  170204116 now IPC :0.78976: AVG IPC :0.86278: L2-Pf-HR :0.94420: L2-HR :0.86549: (Sim:1h59m55s) 
CPU  0 inst:  142000003 cyc:  170416293 now IPC :0.91918: AVG IPC :0.82628: L2-Pf-HR :0.94422: L2-HR :0.82123: (Sim:2h0m5s) 
CPU  3 inst:  143000005 cyc:  170603199 now IPC :0.77477: AVG IPC :0.83127: L2-Pf-HR :0.94568: L2-HR :0.83660: (Sim:2h0m14s) 
CPU  1 inst:  144000004 cyc:  170877416 now IPC :0.79349: AVG IPC :0.83581: L2-Pf-HR :0.94892: L2-HR :0.83592: (Sim:2h0m27s) 
CPU  2 inst:  149000002 cyc:  171256026 now IPC :0.95065: AVG IPC :0.86332: L2-Pf-HR :0.94427: L2-HR :0.86555: (Sim:2h0m46s) 
CPU  0 inst:  143000003 cyc:  171619422 now IPC :0.83117: AVG IPC :0.82631: L2-Pf-HR :0.94424: L2-HR :0.82116: (Sim:2h1m3s) 
CPU  3 inst:  144000004 cyc:  171865224 now IPC :0.79238: AVG IPC :0.83098: L2-Pf-HR :0.94574: L2-HR :0.83668: (Sim:2h1m15s) 
CPU  1 inst:  145000004 cyc:  172063290 now IPC :0.84326: AVG IPC :0.83586: L2-Pf-HR :0.94880: L2-HR :0.83600: (Sim:2h1m25s) 
CPU  2 inst:  150000003 cyc:  172252577 now IPC :1.00346: AVG IPC :0.86413: L2-Pf-HR :0.94430: L2-HR :0.86558: (Sim:2h1m34s) 
CPU  0 inst:  144000004 cyc:  172840751 now IPC :0.81878: AVG IPC :0.82626: L2-Pf-HR :0.94426: L2-HR :0.82121: (Sim:2h2m3s) 
CPU  3 inst:  145000004 cyc:  173141133 now IPC :0.78375: AVG IPC :0.83063: L2-Pf-HR :0.94565: L2-HR :0.83660: (Sim:2h2m18s) 
CPU  1 inst:  146000003 cyc:  173165527 now IPC :0.90724: AVG IPC :0.83632: L2-Pf-HR :0.94873: L2-HR :0.83604: (Sim:2h2m19s) 
CPU  2 inst:  151000002 cyc:  173336402 now IPC :0.92266: AVG IPC :0.86450: L2-Pf-HR :0.94438: L2-HR :0.86563: (Sim:2h2m26s) 
CPU  0 inst:  145000004 cyc:  174168949 now IPC :0.75290: AVG IPC :0.82570: L2-Pf-HR :0.94432: L2-HR :0.82140: (Sim:2h3m6s) 
CPU  1 inst:  147000000 cyc:  174216804 now IPC :0.95122: AVG IPC :0.83702: L2-Pf-HR :0.94863: L2-HR :0.83596: (Sim:2h3m8s) 
CPU  3 inst:  146000003 cyc:  174407341 now IPC :0.78976: AVG IPC :0.83033: L2-Pf-HR :0.94557: L2-HR :0.83665: (Sim:2h3m17s) 
CPU  2 inst:  152000000 cyc:  174565538 now IPC :0.81358: AVG IPC :0.86414: L2-Pf-HR :0.94444: L2-HR :0.86571: (Sim:2h3m25s) 
CPU  1 inst:  148000001 cyc:  175353734 now IPC :0.87956: AVG IPC :0.83729: L2-Pf-HR :0.94881: L2-HR :0.83612: (Sim:2h4m0s) 
CPU  0 inst:  146000003 cyc:  175546855 now IPC :0.72574: AVG IPC :0.82491: L2-Pf-HR :0.94435: L2-HR :0.82138: (Sim:2h4m8s) 
CPU  3 inst:  147000001 cyc:  175627187 now IPC :0.81977: AVG IPC :0.83026: L2-Pf-HR :0.94556: L2-HR :0.83670: (Sim:2h4m12s) 
CPU  2 inst:  153000001 cyc:  175977911 now IPC :0.70803: AVG IPC :0.86288: L2-Pf-HR :0.94430: L2-HR :0.86558: (Sim:2h4m29s) 
CPU  1 inst:  149000002 cyc:  176642183 now IPC :0.77613: AVG IPC :0.83684: L2-Pf-HR :0.94884: L2-HR :0.83621: (Sim:2h5m0s) 
CPU  3 inst:  148000001 cyc:  176658019 now IPC :0.97009: AVG IPC :0.83108: L2-Pf-HR :0.94576: L2-HR :0.83672: (Sim:2h5m0s) 
CPU  0 inst:  147000001 cyc:  176965797 now IPC :0.70475: AVG IPC :0.82394: L2-Pf-HR :0.94453: L2-HR :0.82151: (Sim:2h5m15s) 
CPU  2 inst:  154000001 cyc:  177252096 now IPC :0.78482: AVG IPC :0.86232: L2-Pf-HR :0.94436: L2-HR :0.86562: (Sim:2h5m27s) 
CPU  3 inst:  149000002 cyc:  177817522 now IPC :0.86244: AVG IPC :0.83129: L2-Pf-HR :0.94599: L2-HR :0.83687: (Sim:2h5m52s) 
CPU  1 inst:  150000003 cyc:  178078581 now IPC :0.69619: AVG IPC :0.83570: L2-Pf-HR :0.94886: L2-HR :0.83627: (Sim:2h6m4s) 
CPU  2 inst:  155000001 cyc:  178329939 now IPC :0.92778: AVG IPC :0.86272: L2-Pf-HR :0.94442: L2-HR :0.86565: (Sim:2h6m15s) 
CPU  0 inst:  148000001 cyc:  178468230 now IPC :0.66559: AVG IPC :0.82260: L2-Pf-HR :0.94464: L2-HR :0.82149: (Sim:2h6m22s) 
CPU  3 inst:  150000005 cyc:  179195358 now IPC :0.72578: AVG IPC :0.83047: L2-Pf-HR :0.94604: L2-HR :0.83688: (Sim:2h6m55s) 
CPU  2 inst:  156000001 cyc:  179292014 now IPC :1.03942: AVG IPC :0.86367: L2-Pf-HR :0.94453: L2-HR :0.86570: (Sim:2h6m59s) 
CPU  1 inst:  151000002 cyc:  179505411 now IPC :0.70085: AVG IPC :0.83463: L2-Pf-HR :0.94909: L2-HR :0.83642: (Sim:2h7m8s) 
CPU  0 inst:  149000002 cyc:  179960506 now IPC :0.67012: AVG IPC :0.82133: L2-Pf-HR :0.94479: L2-HR :0.82154: (Sim:2h7m27s) 
CPU  2 inst:  157000001 cyc:  180629184 now IPC :0.74785: AVG IPC :0.86281: L2-Pf-HR :0.94461: L2-HR :0.86581: (Sim:2h7m58s) 
CPU  3 inst:  151000002 cyc:  180656640 now IPC :0.68433: AVG IPC :0.82928: L2-Pf-HR :0.94590: L2-HR :0.83693: (Sim:2h7m59s) 
CPU  1 inst:  152000000 cyc:  180661590 now IPC :0.86492: AVG IPC :0.83482: L2-Pf-HR :0.94909: L2-HR :0.83635: (Sim:2h7m59s) 
CPU  0 inst:  150000004 cyc:  181355669 now IPC :0.71676: AVG IPC :0.82052: L2-Pf-HR :0.94467: L2-HR :0.82150: (Sim:2h8m30s) 
CPU  1 inst:  153000001 cyc:  181794675 now IPC :0.88255: AVG IPC :0.83512: L2-Pf-HR :0.94895: L2-HR :0.83629: (Sim:2h8m50s) 
CPU  3 inst:  152000000 cyc:  182051017 now IPC :0.71716: AVG IPC :0.82842: L2-Pf-HR :0.94575: L2-HR :0.83701: (Sim:2h9m2s) 
CPU  2 inst:  158000000 cyc:  182055344 now IPC :0.70118: AVG IPC :0.86153: L2-Pf-HR :0.94464: L2-HR :0.86583: (Sim:2h9m2s) 
CPU  0 inst:  151000002 cyc:  182859992 now IPC :0.66475: AVG IPC :0.81923: L2-Pf-HR :0.94464: L2-HR :0.82140: (Sim:2h9m37s) 
CPU  1 inst:  154000001 cyc:  182881550 now IPC :0.92007: AVG IPC :0.83563: L2-Pf-HR :0.94895: L2-HR :0.83628: (Sim:2h9m38s) 
CPU  2 inst:  159000000 cyc:  183320855 now IPC :0.79019: AVG IPC :0.86104: L2-Pf-HR :0.94476: L2-HR :0.86591: (Sim:2h9m57s) 
CPU  3 inst:  153000001 cyc:  183623339 now IPC :0.63600: AVG IPC :0.82676: L2-Pf-HR :0.94560: L2-HR :0.83694: (Sim:2h10m11s) 
CPU  2 inst:  160000005 cyc:  184280896 now IPC :1.04163: AVG IPC :0.86198: L2-Pf-HR :0.94486: L2-HR :0.86596: (Sim:2h10m40s) 
CPU  1 inst:  155000001 cyc:  184329511 now IPC :0.69063: AVG IPC :0.83448: L2-Pf-HR :0.94896: L2-HR :0.83629: (Sim:2h10m42s) 
CPU  0 inst:  152000000 cyc:  184356180 now IPC :0.66836: AVG IPC :0.81800: L2-Pf-HR :0.94468: L2-HR :0.82136: (Sim:2h10m44s) 
CPU  3 inst:  154000001 cyc:  185245069 now IPC :0.61663: AVG IPC :0.82491: L2-Pf-HR :0.94551: L2-HR :0.83688: (Sim:2h11m19s) 
CPU  2 inst:  161000004 cyc:  185761756 now IPC :0.67528: AVG IPC :0.86049: L2-Pf-HR :0.94495: L2-HR :0.86601: (Sim:2h11m39s) 
[...]
CPU  1 inst:  732000001 cyc: 1783720309 now IPC :0.27169: AVG IPC :0.40948: L2-Pf-HR :0.73422: L2-HR :0.67272: (Sim:15h45m45s) 
CPU  3 inst:  732000001 cyc: 1784520751 now IPC :0.27321: AVG IPC :0.40930: L2-Pf-HR :0.73702: L2-HR :0.67552: (Sim:15h46m10s) 
CPU  0 inst:  732000001 cyc: 1784678074 now IPC :0.27146: AVG IPC :0.40926: L2-Pf-HR :0.70787: L2-HR :0.65661: (Sim:15h46m15s) 
CPU  2 inst:  743000001 cyc: 1786096525 now IPC :0.26868: AVG IPC :0.41510: L2-Pf-HR :0.77292: L2-HR :0.70776: (Sim:15h47m0s) 
CPU  1 inst:  733000000 cyc: 1787467120 now IPC :0.26689: AVG IPC :0.40918: L2-Pf-HR :0.73362: L2-HR :0.67238: (Sim:15h47m39s) 
CPU  3 inst:  733000000 cyc: 1788289887 now IPC :0.26531: AVG IPC :0.40900: L2-Pf-HR :0.73643: L2-HR :0.67518: (Sim:15h48m5s) 
CPU  0 inst:  733000000 cyc: 1788440842 now IPC :0.26576: AVG IPC :0.40896: L2-Pf-HR :0.70723: L2-HR :0.65627: (Sim:15h48m10s) 
CPU  2 inst:  744000001 cyc: 1789849935 now IPC :0.26642: AVG IPC :0.41479: L2-Pf-HR :0.77242: L2-HR :0.70743: (Sim:15h48m54s) 
CPU  1 inst:  734000000 cyc: 1791293623 now IPC :0.26134: AVG IPC :0.40887: L2-Pf-HR :0.73302: L2-HR :0.67203: (Sim:15h49m37s) 
CPU  3 inst:  734000000 cyc: 1792112340 now IPC :0.26161: AVG IPC :0.40868: L2-Pf-HR :0.73584: L2-HR :0.67483: (Sim:15h49m50s) 
CPU  0 inst:  734000000 cyc: 1792265374 now IPC :0.26147: AVG IPC :0.40865: L2-Pf-HR :0.70658: L2-HR :0.65592: (Sim:15h49m53s) 
CPU  2 inst:  745000001 cyc: 1793708799 now IPC :0.25914: AVG IPC :0.41445: L2-Pf-HR :0.77193: L2-HR :0.70710: (Sim:15h50m17s) 
CPU  1 inst:  735000000 cyc: 1795129896 now IPC :0.26067: AVG IPC :0.40855: L2-Pf-HR :0.73241: L2-HR :0.67169: (Sim:15h50m41s) 
CPU  3 inst:  735000000 cyc: 1795969339 now IPC :0.25927: AVG IPC :0.40836: L2-Pf-HR :0.73524: L2-HR :0.67449: (Sim:15h50m56s) 
CPU  0 inst:  735000000 cyc: 1796111587 now IPC :0.26000: AVG IPC :0.40833: L2-Pf-HR :0.70594: L2-HR :0.65558: (Sim:15h50m58s) 
CPU  2 inst:  746000002 cyc: 1797562779 now IPC :0.25947: AVG IPC :0.41412: L2-Pf-HR :0.77144: L2-HR :0.70676: (Sim:15h51m23s) 
CPU  1 inst:  736000001 cyc: 1798952460 now IPC :0.26160: AVG IPC :0.40824: L2-Pf-HR :0.73181: L2-HR :0.67134: (Sim:15h51m50s) 
CPU  3 inst:  736000001 cyc: 1799792449 now IPC :0.26157: AVG IPC :0.40805: L2-Pf-HR :0.73466: L2-HR :0.67415: (Sim:15h52m14s) 
CPU  0 inst:  736000001 cyc: 1799922538 now IPC :0.26240: AVG IPC :0.40802: L2-Pf-HR :0.70529: L2-HR :0.65524: (Sim:15h52m16s) 
CPU  2 inst:  747000002 cyc: 1801340558 now IPC :0.26471: AVG IPC :0.41381: L2-Pf-HR :0.77095: L2-HR :0.70643: (Sim:15h52m53s) 
CPU  1 inst:  737000003 cyc: 1802720549 now IPC :0.26539: AVG IPC :0.40794: L2-Pf-HR :0.73122: L2-HR :0.67100: (Sim:15h53m37s) 
CPU  3 inst:  737000003 cyc: 1803534834 now IPC :0.26721: AVG IPC :0.40776: L2-Pf-HR :0.73408: L2-HR :0.67381: (Sim:15h54m3s) 
CPU  0 inst:  737000003 cyc: 1803650652 now IPC :0.26823: AVG IPC :0.40773: L2-Pf-HR :0.70466: L2-HR :0.65490: (Sim:15h54m7s) 
CPU  2 inst:  748000002 cyc: 1805106040 now IPC :0.26557: AVG IPC :0.41350: L2-Pf-HR :0.77046: L2-HR :0.70610: (Sim:15h54m53s) 
CPU  1 inst:  738000000 cyc: 1806492379 now IPC :0.26512: AVG IPC :0.40764: L2-Pf-HR :0.73062: L2-HR :0.67066: (Sim:15h55m36s) 
CPU  3 inst:  738000000 cyc: 1807312954 now IPC :0.26468: AVG IPC :0.40746: L2-Pf-HR :0.73349: L2-HR :0.67346: (Sim:15h56m2s) 
CPU  0 inst:  738000000 cyc: 1807415306 now IPC :0.26563: AVG IPC :0.40743: L2-Pf-HR :0.70401: L2-HR :0.65456: (Sim:15h56m6s) 
CPU  2 inst:  749000002 cyc: 1808813220 now IPC :0.26975: AVG IPC :0.41320: L2-Pf-HR :0.76996: L2-HR :0.70577: (Sim:15h56m50s) 
CPU  1 inst:  739000000 cyc: 1810173823 now IPC :0.27163: AVG IPC :0.40736: L2-Pf-HR :0.73002: L2-HR :0.67032: (Sim:15h57m34s) 
CPU  3 inst:  739000000 cyc: 1811018409 now IPC :0.26987: AVG IPC :0.40717: L2-Pf-HR :0.73290: L2-HR :0.67313: (Sim:15h58m0s) 
CPU  0 inst:  739000000 cyc: 1811139188 now IPC :0.26854: AVG IPC :0.40715: L2-Pf-HR :0.70337: L2-HR :0.65422: (Sim:15h58m4s) 
CPU  2 inst:  750000003 cyc: 1812633343 now IPC :0.26177: AVG IPC :0.41288: L2-Pf-HR :0.76948: L2-HR :0.70544: (Sim:15h58m50s) 
CPU  1 inst:  740000000 cyc: 1814030860 now IPC :0.25927: AVG IPC :0.40705: L2-Pf-HR :0.72942: L2-HR :0.66998: (Sim:15h59m34s) 
CPU  3 inst:  740000000 cyc: 1814876288 now IPC :0.25921: AVG IPC :0.40686: L2-Pf-HR :0.73231: L2-HR :0.67279: (Sim:16h0m1s) 
CPU  0 inst:  740000000 cyc: 1815013985 now IPC :0.25808: AVG IPC :0.40683: L2-Pf-HR :0.70273: L2-HR :0.65388: (Sim:16h0m5s) 
CPU  2 inst:  751000002 cyc: 1816447393 now IPC :0.26219: AVG IPC :0.41257: L2-Pf-HR :0.76899: L2-HR :0.70511: (Sim:16h0m51s) 
CPU  1 inst:  741000001 cyc: 1817781883 now IPC :0.26659: AVG IPC :0.40676: L2-Pf-HR :0.72883: L2-HR :0.66964: (Sim:16h1m33s) 
CPU  3 inst:  741000001 cyc: 1818643293 now IPC :0.26546: AVG IPC :0.40657: L2-Pf-HR :0.73173: L2-HR :0.67245: (Sim:16h1m51s) 
CPU  0 inst:  741000001 cyc: 1818787090 now IPC :0.26503: AVG IPC :0.40653: L2-Pf-HR :0.70210: L2-HR :0.65354: (Sim:16h1m53s) 
CPU  2 inst:  752000002 cyc: 1820240275 now IPC :0.26365: AVG IPC :0.41226: L2-Pf-HR :0.76850: L2-HR :0.70478: (Sim:16h2m27s) 
CPU  1 inst:  742000001 cyc: 1821534515 now IPC :0.26648: AVG IPC :0.40647: L2-Pf-HR :0.72824: L2-HR :0.66930: (Sim:16h3m9s) 
CPU  3 inst:  742000001 cyc: 1822379195 now IPC :0.26767: AVG IPC :0.40628: L2-Pf-HR :0.73115: L2-HR :0.67211: (Sim:16h3m36s) 
CPU  0 inst:  742000001 cyc: 1822563499 now IPC :0.26480: AVG IPC :0.40624: L2-Pf-HR :0.70146: L2-HR :0.65321: (Sim:16h3m41s) 
CPU  2 inst:  753000002 cyc: 1824014476 now IPC :0.26496: AVG IPC :0.41195: L2-Pf-HR :0.76801: L2-HR :0.70445: (Sim:16h4m28s) 
CPU  1 inst:  743000001 cyc: 1825298137 now IPC :0.26570: AVG IPC :0.40618: L2-Pf-HR :0.72765: L2-HR :0.66896: (Sim:16h5m9s) 
CPU  3 inst:  743000001 cyc: 1826159800 now IPC :0.26451: AVG IPC :0.40599: L2-Pf-HR :0.73056: L2-HR :0.67177: (Sim:16h5m36s) 
CPU  0 inst:  743000001 cyc: 1826309043 now IPC :0.26698: AVG IPC :0.40595: L2-Pf-HR :0.70082: L2-HR :0.65287: (Sim:16h5m41s) 
CPU  2 inst:  754000001 cyc: 1827794360 now IPC :0.26456: AVG IPC :0.41165: L2-Pf-HR :0.76753: L2-HR :0.70412: (Sim:16h6m28s) 
CPU  1 inst:  744000001 cyc: 1829103954 now IPC :0.26276: AVG IPC :0.40588: L2-Pf-HR :0.72706: L2-HR :0.66863: (Sim:16h7m10s) 
CPU  3 inst:  744000001 cyc: 1829945528 now IPC :0.26415: AVG IPC :0.40569: L2-Pf-HR :0.72998: L2-HR :0.67144: (Sim:16h7m37s) 
CPU  0 inst:  744000001 cyc: 1830109343 now IPC :0.26314: AVG IPC :0.40566: L2-Pf-HR :0.70019: L2-HR :0.65254: (Sim:16h7m42s) 
CPU  2 inst:  755000003 cyc: 1831586029 now IPC :0.26374: AVG IPC :0.41134: L2-Pf-HR :0.76704: L2-HR :0.70380: (Sim:16h8m29s) 
CPU  1 inst:  745000001 cyc: 1832919477 now IPC :0.26209: AVG IPC :0.40558: L2-Pf-HR :0.72647: L2-HR :0.66829: (Sim:16h9m10s) 
CPU  3 inst:  745000001 cyc: 1833774822 now IPC :0.26114: AVG IPC :0.40539: L2-Pf-HR :0.72941: L2-HR :0.67110: (Sim:16h9m30s) 
CPU  0 inst:  745000001 cyc: 1833941779 now IPC :0.26093: AVG IPC :0.40536: L2-Pf-HR :0.69957: L2-HR :0.65220: (Sim:16h9m33s) 
CPU  2 inst:  756000003 cyc: 1835459814 now IPC :0.25815: AVG IPC :0.41102: L2-Pf-HR :0.76656: L2-HR :0.70347: (Sim:16h10m14s) 
CPU  1 inst:  746000002 cyc: 1836763282 now IPC :0.26016: AVG IPC :0.40528: L2-Pf-HR :0.72588: L2-HR :0.66795: (Sim:16h10m55s) 
CPU  3 inst:  746000002 cyc: 1837657873 now IPC :0.25753: AVG IPC :0.40508: L2-Pf-HR :0.72883: L2-HR :0.67077: (Sim:16h11m23s) 
CPU  0 inst:  746000002 cyc: 1837826989 now IPC :0.25739: AVG IPC :0.40504: L2-Pf-HR :0.69894: L2-HR :0.65187: (Sim:16h11m28s) 
CPU  2 inst:  757000003 cyc: 1839326916 now IPC :0.25859: AVG IPC :0.41070: L2-Pf-HR :0.76607: L2-HR :0.70314: (Sim:16h12m15s) 
CPU  1 inst:  747000002 cyc: 1840625252 now IPC :0.25894: AVG IPC :0.40497: L2-Pf-HR :0.72529: L2-HR :0.66762: (Sim:16h12m48s) 
CPU  3 inst:  747000002 cyc: 1841469285 now IPC :0.26237: AVG IPC :0.40478: L2-Pf-HR :0.72825: L2-HR :0.67044: (Sim:16h13m3s) 
CPU  0 inst:  747000002 cyc: 1841638216 now IPC :0.26238: AVG IPC :0.40475: L2-Pf-HR :0.69831: L2-HR :0.65154: (Sim:16h13m6s) 
CPU  2 inst:  758000001 cyc: 1843077035 now IPC :0.26666: AVG IPC :0.41040: L2-Pf-HR :0.76559: L2-HR :0.70281: (Sim:16h13m40s) 
CPU  1 inst:  748000002 cyc: 1844369212 now IPC :0.26710: AVG IPC :0.40469: L2-Pf-HR :0.72470: L2-HR :0.66728: (Sim:16h14m22s) 
CPU  3 inst:  748000002 cyc: 1845224527 now IPC :0.26629: AVG IPC :0.40450: L2-Pf-HR :0.72767: L2-HR :0.67010: (Sim:16h14m49s) 
CPU  0 inst:  748000002 cyc: 1845398470 now IPC :0.26594: AVG IPC :0.40446: L2-Pf-HR :0.69768: L2-HR :0.65121: (Sim:16h14m54s) 
CPU  2 inst:  759000003 cyc: 1846801385 now IPC :0.26850: AVG IPC :0.41012: L2-Pf-HR :0.76511: L2-HR :0.70249: (Sim:16h15m40s) 
CPU  1 inst:  749000002 cyc: 1848066861 now IPC :0.27044: AVG IPC :0.40442: L2-Pf-HR :0.72412: L2-HR :0.66695: (Sim:16h16m21s) 
CPU  3 inst:  749000002 cyc: 1848927231 now IPC :0.27007: AVG IPC :0.40423: L2-Pf-HR :0.72710: L2-HR :0.66977: (Sim:16h16m48s) 
CPU  0 inst:  749000002 cyc: 1849082540 now IPC :0.27144: AVG IPC :0.40420: L2-Pf-HR :0.69705: L2-HR :0.65088: (Sim:16h16m53s) 
CPU  2 inst:  760000003 cyc: 1850547113 now IPC :0.26697: AVG IPC :0.40983: L2-Pf-HR :0.76463: L2-HR :0.70217: (Sim:16h17m38s) 
CPU  1 inst:  750000003 cyc: 1851813774 now IPC :0.26689: AVG IPC :0.40414: L2-Pf-HR :0.72354: L2-HR :0.66662: (Sim:16h18m4s) 
CPU  3 inst:  750000003 cyc: 1852710230 now IPC :0.26434: AVG IPC :0.40395: L2-Pf-HR :0.72653: L2-HR :0.66944: (Sim:16h18m26s) 
CPU  0 inst:  750000003 cyc: 1852845267 now IPC :0.26576: AVG IPC :0.40392: L2-Pf-HR :0.69643: L2-HR :0.65055: (Sim:16h18m30s) 
CPU  2 inst:  761000003 cyc: 1854363002 now IPC :0.26206: AVG IPC :0.40952: L2-Pf-HR :0.76414: L2-HR :0.70184: (Sim:16h19m19s) 
CPU  1 inst:  751000002 cyc: 1855706959 now IPC :0.25686: AVG IPC :0.40383: L2-Pf-HR :0.72295: L2-HR :0.66628: (Sim:16h20m1s) 
CPU  3 inst:  751000002 cyc: 1856589757 now IPC :0.25776: AVG IPC :0.40364: L2-Pf-HR :0.72595: L2-HR :0.66911: (Sim:16h20m29s) 
CPU  0 inst:  751000002 cyc: 1856747752 now IPC :0.25625: AVG IPC :0.40361: L2-Pf-HR :0.69581: L2-HR :0.65022: (Sim:16h20m33s) 
CPU  2 inst:  762000002 cyc: 1858284341 now IPC :0.25501: AVG IPC :0.40920: L2-Pf-HR :0.76366: L2-HR :0.70152: (Sim:16h21m10s) 
CPU  1 inst:  752000002 cyc: 1859555716 now IPC :0.25982: AVG IPC :0.40354: L2-Pf-HR :0.72237: L2-HR :0.66595: (Sim:16h21m50s) 
CPU  3 inst:  752000002 cyc: 1860486766 now IPC :0.25661: AVG IPC :0.40333: L2-Pf-HR :0.72537: L2-HR :0.66878: (Sim:16h22m20s) 
CPU  0 inst:  752000002 cyc: 1860562405 now IPC :0.26215: AVG IPC :0.40332: L2-Pf-HR :0.69518: L2-HR :0.64989: (Sim:16h22m22s) 
CPU  2 inst:  763000001 cyc: 1862071037 now IPC :0.26408: AVG IPC :0.40890: L2-Pf-HR :0.76318: L2-HR :0.70120: (Sim:16h23m10s) 
CPU  1 inst:  753000002 cyc: 1863387037 now IPC :0.26101: AVG IPC :0.40324: L2-Pf-HR :0.72178: L2-HR :0.66562: (Sim:16h23m52s) 
CPU  3 inst:  753000002 cyc: 1864243980 now IPC :0.26615: AVG IPC :0.40306: L2-Pf-HR :0.72480: L2-HR :0.66845: (Sim:16h24m13s) 
CPU  0 inst:  753000002 cyc: 1864315907 now IPC :0.26642: AVG IPC :0.40304: L2-Pf-HR :0.69456: L2-HR :0.64956: (Sim:16h24m14s) 
CPU  2 inst:  764000001 cyc: 1865826330 now IPC :0.26629: AVG IPC :0.40861: L2-Pf-HR :0.76270: L2-HR :0.70088: (Sim:16h24m40s) 
CPU  1 inst:  754000001 cyc: 1867140823 now IPC :0.26640: AVG IPC :0.40297: L2-Pf-HR :0.72121: L2-HR :0.66529: (Sim:16h25m4s) 
CPU  3 inst:  754000001 cyc: 1868014078 now IPC :0.26524: AVG IPC :0.40278: L2-Pf-HR :0.72424: L2-HR :0.66812: (Sim:16h25m18s) 
CPU  0 inst:  754000001 cyc: 1868092226 now IPC :0.26481: AVG IPC :0.40276: L2-Pf-HR :0.69395: L2-HR :0.64923: (Sim:16h25m20s) 
CPU  2 inst:  765000001 cyc: 1869556395 now IPC :0.26809: AVG IPC :0.40833: L2-Pf-HR :0.76222: L2-HR :0.70055: (Sim:16h26m1s) 
CPU  1 inst:  755000003 cyc: 1870919430 now IPC :0.26465: AVG IPC :0.40269: L2-Pf-HR :0.72063: L2-HR :0.66497: (Sim:16h26m44s) 
CPU  3 inst:  755000003 cyc: 1871790060 now IPC :0.26483: AVG IPC :0.40250: L2-Pf-HR :0.72367: L2-HR :0.66779: (Sim:16h26m59s) 
CPU  0 inst:  755000003 cyc: 1871879088 now IPC :0.26407: AVG IPC :0.40248: L2-Pf-HR :0.69333: L2-HR :0.64891: (Sim:16h27m0s) 
CPU  2 inst:  766000001 cyc: 1873368825 now IPC :0.26230: AVG IPC :0.40804: L2-Pf-HR :0.76174: L2-HR :0.70023: (Sim:16h27m47s) 
CPU  1 inst:  756000003 cyc: 1874729995 now IPC :0.26243: AVG IPC :0.40240: L2-Pf-HR :0.72005: L2-HR :0.66463: (Sim:16h28m30s) 
CPU  3 inst:  756000003 cyc: 1875620172 now IPC :0.26109: AVG IPC :0.40221: L2-Pf-HR :0.72310: L2-HR :0.66746: (Sim:16h28m58s) 
CPU  0 inst:  756000003 cyc: 1875687080 now IPC :0.26261: AVG IPC :0.40220: L2-Pf-HR :0.69271: L2-HR :0.64858: (Sim:16h29m0s) 
CPU  2 inst:  767000003 cyc: 1877144522 now IPC :0.26485: AVG IPC :0.40775: L2-Pf-HR :0.76127: L2-HR :0.69991: (Sim:16h29m47s) 
CPU  1 inst:  757000003 cyc: 1878497036 now IPC :0.26546: AVG IPC :0.40213: L2-Pf-HR :0.71947: L2-HR :0.66430: (Sim:16h30m30s) 
CPU  3 inst:  757000003 cyc: 1879361879 now IPC :0.26726: AVG IPC :0.40194: L2-Pf-HR :0.72253: L2-HR :0.66714: (Sim:16h30m58s) 
CPU  0 inst:  757000003 cyc: 1879446413 now IPC :0.26600: AVG IPC :0.40192: L2-Pf-HR :0.69209: L2-HR :0.64826: (Sim:16h31m0s) 
CPU  2 inst:  768000000 cyc: 1880892216 now IPC :0.26683: AVG IPC :0.40747: L2-Pf-HR :0.76079: L2-HR :0.69959: (Sim:16h31m42s) 
CPU  1 inst:  758000001 cyc: 1882210826 now IPC :0.26927: AVG IPC :0.40186: L2-Pf-HR :0.71890: L2-HR :0.66398: (Sim:16h32m24s) 
CPU  3 inst:  758000001 cyc: 1883104067 now IPC :0.26722: AVG IPC :0.40167: L2-Pf-HR :0.72197: L2-HR :0.66681: (Sim:16h32m50s) 
CPU  0 inst:  758000001 cyc: 1883206813 now IPC :0.26593: AVG IPC :0.40165: L2-Pf-HR :0.69148: L2-HR :0.64794: (Sim:16h32m53s) 
CPU  2 inst:  769000000 cyc: 1884687161 now IPC :0.26351: AVG IPC :0.40718: L2-Pf-HR :0.76031: L2-HR :0.69927: (Sim:16h33m40s) 
CPU  1 inst:  759000003 cyc: 1886029685 now IPC :0.26186: AVG IPC :0.40158: L2-Pf-HR :0.71832: L2-HR :0.66366: (Sim:16h34m20s) 
CPU  3 inst:  759000003 cyc: 1886890125 now IPC :0.26413: AVG IPC :0.40140: L2-Pf-HR :0.72140: L2-HR :0.66648: (Sim:16h34m35s) 
CPU  0 inst:  759000003 cyc: 1886981571 now IPC :0.26492: AVG IPC :0.40138: L2-Pf-HR :0.69087: L2-HR :0.64761: (Sim:16h34m36s) 
CPU  2 inst:  770000000 cyc: 1888426172 now IPC :0.26745: AVG IPC :0.40690: L2-Pf-HR :0.75984: L2-HR :0.69895: (Sim:16h35m1s) 
CPU  1 inst:  760000003 cyc: 1889728155 now IPC :0.27038: AVG IPC :0.40132: L2-Pf-HR :0.71775: L2-HR :0.66333: (Sim:16h35m24s) 
CPU  3 inst:  760000003 cyc: 1890612578 now IPC :0.26864: AVG IPC :0.40114: L2-Pf-HR :0.72083: L2-HR :0.66616: (Sim:16h35m51s) 
CPU  0 inst:  760000003 cyc: 1890676734 now IPC :0.27062: AVG IPC :0.40112: L2-Pf-HR :0.69025: L2-HR :0.64729: (Sim:16h35m53s) 
CPU  2 inst:  771000001 cyc: 1892102127 now IPC :0.27204: AVG IPC :0.40664: L2-Pf-HR :0.75936: L2-HR :0.69863: (Sim:16h36m39s) 
CPU  1 inst:  761000003 cyc: 1893490651 now IPC :0.26578: AVG IPC :0.40105: L2-Pf-HR :0.71717: L2-HR :0.66300: (Sim:16h37m23s) 
CPU  3 inst:  761000003 cyc: 1894358678 now IPC :0.26694: AVG IPC :0.40087: L2-Pf-HR :0.72027: L2-HR :0.66583: (Sim:16h37m51s) 
CPU  0 inst:  761000003 cyc: 1894457994 now IPC :0.26446: AVG IPC :0.40085: L2-Pf-HR :0.68964: L2-HR :0.64696: (Sim:16h37m54s) 
CPU  2 inst:  772000000 cyc: 1895953411 now IPC :0.25965: AVG IPC :0.40634: L2-Pf-HR :0.75889: L2-HR :0.69832: (Sim:16h38m42s) 
CPU  1 inst:  762000002 cyc: 1897335113 now IPC :0.26011: AVG IPC :0.40077: L2-Pf-HR :0.71660: L2-HR :0.66268: (Sim:16h39m26s) 
CPU  3 inst:  762000002 cyc: 1898195412 now IPC :0.26064: AVG IPC :0.40059: L2-Pf-HR :0.71970: L2-HR :0.66551: (Sim:16h39m54s) 
CPU  0 inst:  762000002 cyc: 1898286417 now IPC :0.26120: AVG IPC :0.40057: L2-Pf-HR :0.68903: L2-HR :0.64664: (Sim:16h39m56s) 
CPU  2 inst:  773000000 cyc: 1899748763 now IPC :0.26348: AVG IPC :0.40605: L2-Pf-HR :0.75841: L2-HR :0.69800: (Sim:16h40m44s) 
CPU  1 inst:  763000001 cyc: 1901081375 now IPC :0.26693: AVG IPC :0.40051: L2-Pf-HR :0.71604: L2-HR :0.66236: (Sim:16h41m26s) 
CPU  3 inst:  763000001 cyc: 1901922839 now IPC :0.26828: AVG IPC :0.40033: L2-Pf-HR :0.71915: L2-HR :0.66519: (Sim:16h41m52s) 
CPU  0 inst:  763000001 cyc: 1902020991 now IPC :0.26777: AVG IPC :0.40031: L2-Pf-HR :0.68843: L2-HR :0.64632: (Sim:16h41m56s) 
CPU  2 inst:  774000000 cyc: 1903486803 now IPC :0.26752: AVG IPC :0.40578: L2-Pf-HR :0.75794: L2-HR :0.69768: (Sim:16h42m40s) 
CPU  1 inst:  764000001 cyc: 1904850613 now IPC :0.26531: AVG IPC :0.40024: L2-Pf-HR :0.71546: L2-HR :0.66203: (Sim:16h43m23s) 
CPU  3 inst:  764000001 cyc: 1905693255 now IPC :0.26522: AVG IPC :0.40006: L2-Pf-HR :0.71858: L2-HR :0.66486: (Sim:16h43m50s) 
CPU  0 inst:  764000001 cyc: 1905809280 now IPC :0.26397: AVG IPC :0.40004: L2-Pf-HR :0.68782: L2-HR :0.64600: (Sim:16h43m54s) 
CPU  2 inst:  775000002 cyc: 1907259838 now IPC :0.26504: AVG IPC :0.40550: L2-Pf-HR :0.75747: L2-HR :0.69737: (Sim:16h44m39s) 
CPU  1 inst:  765000001 cyc: 1908646545 now IPC :0.26344: AVG IPC :0.39997: L2-Pf-HR :0.71489: L2-HR :0.66171: (Sim:16h45m3s) 
CPU  3 inst:  765000001 cyc: 1909489013 now IPC :0.26345: AVG IPC :0.39979: L2-Pf-HR :0.71802: L2-HR :0.66454: (Sim:16h45m20s) 
CPU  0 inst:  765000001 cyc: 1909583918 now IPC :0.26493: AVG IPC :0.39977: L2-Pf-HR :0.68721: L2-HR :0.64568: (Sim:16h45m23s) 
CPU  2 inst:  776000000 cyc: 1911059514 now IPC :0.26318: AVG IPC :0.40522: L2-Pf-HR :0.75700: L2-HR :0.69705: (Sim:16h46m9s) 
CPU  1 inst:  766000001 cyc: 1912430305 now IPC :0.26429: AVG IPC :0.39970: L2-Pf-HR :0.71432: L2-HR :0.66139: (Sim:16h46m32s) 
CPU  3 inst:  766000001 cyc: 1913263004 now IPC :0.26497: AVG IPC :0.39952: L2-Pf-HR :0.71746: L2-HR :0.66422: (Sim:16h46m47s) 
CPU  0 inst:  766000001 cyc: 1913366355 now IPC :0.26438: AVG IPC :0.39950: L2-Pf-HR :0.68660: L2-HR :0.64537: (Sim:16h46m48s) 
CPU  2 inst:  777000000 cyc: 1914841958 now IPC :0.26438: AVG IPC :0.40494: L2-Pf-HR :0.75653: L2-HR :0.69674: (Sim:16h47m14s) 
CPU  1 inst:  767000003 cyc: 1916198726 now IPC :0.26536: AVG IPC :0.39943: L2-Pf-HR :0.71376: L2-HR :0.66106: (Sim:16h47m57s) 
CPU  3 inst:  767000003 cyc: 1917032257 now IPC :0.26531: AVG IPC :0.39926: L2-Pf-HR :0.71691: L2-HR :0.66391: (Sim:16h48m22s) 
CPU  0 inst:  767000003 cyc: 1917112758 now IPC :0.26692: AVG IPC :0.39924: L2-Pf-HR :0.68600: L2-HR :0.64505: (Sim:16h48m25s) 
CPU  2 inst:  778000000 cyc: 1918615409 now IPC :0.26501: AVG IPC :0.40467: L2-Pf-HR :0.75605: L2-HR :0.69643: (Sim:16h49m11s) 
CPU  1 inst:  768000000 cyc: 1920007620 now IPC :0.26254: AVG IPC :0.39916: L2-Pf-HR :0.71319: L2-HR :0.66075: (Sim:16h49m54s) 
CPU  3 inst:  768000000 cyc: 1920821325 now IPC :0.26392: AVG IPC :0.39899: L2-Pf-HR :0.71636: L2-HR :0.66359: (Sim:16h50m20s) 
CPU  0 inst:  768000000 cyc: 1920924651 now IPC :0.26234: AVG IPC :0.39897: L2-Pf-HR :0.68539: L2-HR :0.64473: (Sim:16h50m23s) 
CPU  2 inst:  779000000 cyc: 1922367363 now IPC :0.26653: AVG IPC :0.40440: L2-Pf-HR :0.75558: L2-HR :0.69611: (Sim:16h51m9s) 
CPU  1 inst:  769000000 cyc: 1923760105 now IPC :0.26649: AVG IPC :0.39890: L2-Pf-HR :0.71262: L2-HR :0.66043: (Sim:16h51m53s) 
CPU  3 inst:  769000000 cyc: 1924623729 now IPC :0.26299: AVG IPC :0.39872: L2-Pf-HR :0.71580: L2-HR :0.66326: (Sim:16h52m20s) 
CPU  0 inst:  769000000 cyc: 1924721585 now IPC :0.26337: AVG IPC :0.39870: L2-Pf-HR :0.68479: L2-HR :0.64441: (Sim:16h52m23s) 
CPU  2 inst:  780000003 cyc: 1926211767 now IPC :0.26012: AVG IPC :0.40411: L2-Pf-HR :0.75512: L2-HR :0.69580: (Sim:16h53m9s) 
CPU  1 inst:  770000000 cyc: 1927629759 now IPC :0.25842: AVG IPC :0.39862: L2-Pf-HR :0.71206: L2-HR :0.66010: (Sim:16h53m52s) 
CPU  3 inst:  770000000 cyc: 1928472999 now IPC :0.25979: AVG IPC :0.39845: L2-Pf-HR :0.71524: L2-HR :0.66295: (Sim:16h54m19s) 
CPU  0 inst:  770000000 cyc: 1928574288 now IPC :0.25956: AVG IPC :0.39842: L2-Pf-HR :0.68419: L2-HR :0.64409: (Sim:16h54m22s) 
Caught signal: 2
     > Finished combination: TraceType=770-tot Sim:1314000000 Prefetcher=L2ipcp L1=ipcp
