TRACE: [1979000000]_FE_[GPT-Neo-125M]_[h12]_[s2048]_[d64] Warmup: 2000000 NumTraces: 1979000000
L1:no:L2:spp_berti_src
Initialize SIGNATURE TABLE
ST_SET: 1
ST_WAY: 256
ST_TAG_BIT: 16
ST_TAG_MASK: ffff

Initialize PATTERN TABLE
PT_SET: 512
PT_WAY: 4
SIG_DELTA_BIT: 7
C_SIG_BIT: 4
C_DELTA_BIT: 4

Initialize PREFETCH FILTER
FILTER_SET: 1024
*************************************************
   ChampSim Multicore Out-of-Order Simulator
   Last compiled: Oct 30 2024 03:51:49
*************************************************

trace_0 770-tot_memTraces_v4_2048/memTraces[1979000000]_FE_[GPT-Neo-125M]_[h12]_[s2048]_[d64].champsim.9.xz
trace_1 770-tot_memTraces_v4_2048/memTraces[1979000000]_FE_[GPT-Neo-125M]_[h12]_[s2048]_[d64].champsim.9.xz
trace_2 770-tot_memTraces_v4_2048/memTraces[1979000000]_FE_[GPT-Neo-125M]_[h12]_[s2048]_[d64].champsim.9.xz
trace_3 770-tot_memTraces_v4_2048/memTraces[1979000000]_FE_[GPT-Neo-125M]_[h12]_[s2048]_[d64].champsim.9.xz
ST_WAYS: 256
PT_SETS: 512
ST_WAYS: 256
PT_SETS: 512
ST_WAYS: 256
PT_SETS: 512
ST_WAYS: 256
PT_SETS: 512
MAIN.cc ln 751 stats print skipped
CPU  2 inst:    1000003 cyc:     498388 now IPC :2.00647: AVG IPC :2.00647: L2-Pf-HR :0.97569: L2-HR :0.87712: (Sim:0h0m45s) 
CPU  0 inst:    1000003 cyc:     498479 now IPC :2.00611: AVG IPC :2.00611: L2-Pf-HR :0.96229: L2-HR :0.83048: (Sim:0h0m45s) 
CPU  1 inst:    1000003 cyc:     498510 now IPC :2.00598: AVG IPC :2.00598: L2-Pf-HR :0.95684: L2-HR :0.81625: (Sim:0h0m45s) 
CPU  3 inst:    1000003 cyc:     498681 now IPC :2.00530: AVG IPC :2.00530: L2-Pf-HR :0.96103: L2-HR :0.82753: (Sim:0h0m45s) 
CPU  0 inst:    2000000 cyc:     980917 now IPC :2.07280: AVG IPC :2.03891: L2-Pf-HR :0.95914: L2-HR :0.86507: (Sim:0h1m33s) 
CPU  2 inst:    2000000 cyc:     980919 now IPC :2.07240: AVG IPC :2.03890: L2-Pf-HR :0.97386: L2-HR :0.90425: (Sim:0h1m33s) 
CPU  1 inst:    2000000 cyc:     980962 now IPC :2.07274: AVG IPC :2.03882: L2-Pf-HR :0.95610: L2-HR :0.85805: (Sim:0h1m33s) 
CPU  3 inst:    2000000 cyc:     981193 now IPC :2.07248: AVG IPC :2.03833: L2-Pf-HR :0.96233: L2-HR :0.87300: (Sim:0h1m33s) 

Warmup complete CPU  0 instructions:    2000469 cycles:     981194 (Simulation time: 0 hr 1 min 33 sec) 
Warmup complete CPU  1 instructions:    2000400 cycles:     981194 (Simulation time: 0 hr 1 min 33 sec) 
Warmup complete CPU  2 instructions:    2000469 cycles:     981194 (Simulation time: 0 hr 1 min 33 sec) 
Warmup complete CPU  3 instructions:    2000002 cycles:     981194 (Simulation time: 0 hr 1 min 33 sec) 

CPU  0 inst:    3000004 cyc:    1551392 now IPC :1.75293: AVG IPC :1.75296: L2-Pf-HR :0.95472: L2-HR :0.90386: (Sim:0h2m17s) 
CPU  2 inst:    3000004 cyc:    1552562 now IPC :1.74935: AVG IPC :1.74937: L2-Pf-HR :0.96286: L2-HR :0.91677: (Sim:0h2m17s) 
CPU  1 inst:    3000000 cyc:    1553663 now IPC :1.74611: AVG IPC :1.74612: L2-Pf-HR :0.94123: L2-HR :0.88355: (Sim:0h2m17s) 
CPU  3 inst:    3000001 cyc:    1554847 now IPC :1.74321: AVG IPC :1.74321: L2-Pf-HR :0.94853: L2-HR :0.89244: (Sim:0h2m17s) 
CPU  1 inst:    4000005 cyc:    2169070 now IPC :1.62495: AVG IPC :1.68334: L2-Pf-HR :0.94343: L2-HR :0.88392: (Sim:0h3m2s) 
CPU  3 inst:    4000005 cyc:    2169888 now IPC :1.62591: AVG IPC :1.68252: L2-Pf-HR :0.94849: L2-HR :0.88614: (Sim:0h3m2s) 
CPU  2 inst:    4000005 cyc:    2172613 now IPC :1.61277: AVG IPC :1.67828: L2-Pf-HR :0.96121: L2-HR :0.91092: (Sim:0h3m3s) 
CPU  0 inst:    4000005 cyc:    2175698 now IPC :1.60178: AVG IPC :1.67395: L2-Pf-HR :0.95452: L2-HR :0.90379: (Sim:0h3m3s) 
CPU  3 inst:    5000003 cyc:    2778955 now IPC :1.64185: AVG IPC :1.66874: L2-Pf-HR :0.94106: L2-HR :0.87557: (Sim:0h3m48s) 
CPU  0 inst:    5000003 cyc:    2779146 now IPC :1.65714: AVG IPC :1.66831: L2-Pf-HR :0.94945: L2-HR :0.89666: (Sim:0h3m48s) 
CPU  2 inst:    5000003 cyc:    2779863 now IPC :1.64676: AVG IPC :1.66764: L2-Pf-HR :0.95734: L2-HR :0.90566: (Sim:0h3m48s) 
CPU  1 inst:    5000003 cyc:    2779911 now IPC :1.63708: AVG IPC :1.66763: L2-Pf-HR :0.93991: L2-HR :0.87969: (Sim:0h3m48s) 
CPU  1 inst:    6000004 cyc:    3397301 now IPC :1.61972: AVG IPC :1.65539: L2-Pf-HR :0.93322: L2-HR :0.87607: (Sim:0h4m33s) 
CPU  0 inst:    6000004 cyc:    3398860 now IPC :1.61365: AVG IPC :1.65430: L2-Pf-HR :0.94347: L2-HR :0.89268: (Sim:0h4m33s) 
CPU  2 inst:    6000004 cyc:    3400818 now IPC :1.61042: AVG IPC :1.65296: L2-Pf-HR :0.95519: L2-HR :0.90487: (Sim:0h4m33s) 
CPU  3 inst:    6000004 cyc:    3400894 now IPC :1.60788: AVG IPC :1.65310: L2-Pf-HR :0.93477: L2-HR :0.86963: (Sim:0h4m33s) 
CPU  1 inst:    7000005 cyc:    4019652 now IPC :1.60681: AVG IPC :1.64544: L2-Pf-HR :0.94056: L2-HR :0.88338: (Sim:0h5m17s) 
CPU  0 inst:    7000005 cyc:    4020126 now IPC :1.60962: AVG IPC :1.64516: L2-Pf-HR :0.94693: L2-HR :0.89485: (Sim:0h5m17s) 
CPU  3 inst:    7000005 cyc:    4021152 now IPC :1.61223: AVG IPC :1.64476: L2-Pf-HR :0.94061: L2-HR :0.87615: (Sim:0h5m17s) 
CPU  2 inst:    7000002 cyc:    4021673 now IPC :1.61068: AVG IPC :1.64432: L2-Pf-HR :0.95854: L2-HR :0.90847: (Sim:0h5m17s) 
CPU  1 inst:    8000000 cyc:    4672004 now IPC :1.53291: AVG IPC :1.62555: L2-Pf-HR :0.93960: L2-HR :0.88343: (Sim:0h6m3s) 
CPU  0 inst:    8000000 cyc:    4672510 now IPC :1.53283: AVG IPC :1.62531: L2-Pf-HR :0.94597: L2-HR :0.89488: (Sim:0h6m3s) 
CPU  3 inst:    8000000 cyc:    4673536 now IPC :1.53283: AVG IPC :1.62498: L2-Pf-HR :0.93954: L2-HR :0.87570: (Sim:0h6m3s) 
CPU  2 inst:    8000000 cyc:    4673893 now IPC :1.53322: AVG IPC :1.62470: L2-Pf-HR :0.95633: L2-HR :0.90572: (Sim:0h6m3s) 
CPU  0 inst:    9000001 cyc:    5320723 now IPC :1.54270: AVG IPC :1.61297: L2-Pf-HR :0.94311: L2-HR :0.89281: (Sim:0h6m49s) 
CPU  1 inst:    9000002 cyc:    5322253 now IPC :1.53788: AVG IPC :1.61242: L2-Pf-HR :0.93697: L2-HR :0.88239: (Sim:0h6m49s) 
CPU  2 inst:    9000001 cyc:    5323297 now IPC :1.53988: AVG IPC :1.61201: L2-Pf-HR :0.95384: L2-HR :0.90305: (Sim:0h6m49s) 
CPU  3 inst:    9000001 cyc:    5323773 now IPC :1.53790: AVG IPC :1.61195: L2-Pf-HR :0.93637: L2-HR :0.87296: (Sim:0h6m49s) 
CPU  3 inst:   10000005 cyc:    5983043 now IPC :1.51684: AVG IPC :1.59941: L2-Pf-HR :0.93558: L2-HR :0.87307: (Sim:0h7m35s) 
CPU  0 inst:   10000004 cyc:    5983977 now IPC :1.50772: AVG IPC :1.59902: L2-Pf-HR :0.94263: L2-HR :0.89344: (Sim:0h7m35s) 
CPU  1 inst:   10000005 cyc:    5984854 now IPC :1.50921: AVG IPC :1.59875: L2-Pf-HR :0.93594: L2-HR :0.88234: (Sim:0h7m35s) 
CPU  2 inst:   10000005 cyc:    5986027 now IPC :1.50892: AVG IPC :1.59836: L2-Pf-HR :0.95207: L2-HR :0.90146: (Sim:0h7m35s) 
CPU  0 inst:   11000000 cyc:    6616638 now IPC :1.58062: AVG IPC :1.59695: L2-Pf-HR :0.94224: L2-HR :0.89316: (Sim:0h8m20s) 
CPU  1 inst:   11000000 cyc:    6616787 now IPC :1.58244: AVG IPC :1.59692: L2-Pf-HR :0.93576: L2-HR :0.88266: (Sim:0h8m20s) 
CPU  3 inst:   11000000 cyc:    6621382 now IPC :1.56656: AVG IPC :1.59569: L2-Pf-HR :0.93498: L2-HR :0.87331: (Sim:0h8m21s) 
CPU  2 inst:   11000000 cyc:    6624808 now IPC :1.56547: AVG IPC :1.59464: L2-Pf-HR :0.95094: L2-HR :0.90082: (Sim:0h8m21s) 
CPU  0 inst:   12000004 cyc:    7263323 now IPC :1.54635: AVG IPC :1.59174: L2-Pf-HR :0.94181: L2-HR :0.89293: (Sim:0h9m6s) 
CPU  1 inst:   12000004 cyc:    7267983 now IPC :1.53564: AVG IPC :1.59057: L2-Pf-HR :0.93601: L2-HR :0.88341: (Sim:0h9m6s) 
CPU  3 inst:   12000004 cyc:    7268591 now IPC :1.54510: AVG IPC :1.59048: L2-Pf-HR :0.93564: L2-HR :0.87527: (Sim:0h9m6s) 
CPU  2 inst:   12000004 cyc:    7268795 now IPC :1.55283: AVG IPC :1.59036: L2-Pf-HR :0.95138: L2-HR :0.90236: (Sim:0h9m6s) 
CPU  0 inst:   13000001 cyc:    7960261 now IPC :1.43484: AVG IPC :1.57607: L2-Pf-HR :0.94259: L2-HR :0.89107: (Sim:0h9m52s) 
CPU  1 inst:   13000001 cyc:    7964385 now IPC :1.43595: AVG IPC :1.57515: L2-Pf-HR :0.93750: L2-HR :0.88272: (Sim:0h9m53s) 
CPU  3 inst:   13000001 cyc:    7965476 now IPC :1.43495: AVG IPC :1.57496: L2-Pf-HR :0.93724: L2-HR :0.87502: (Sim:0h9m53s) 
CPU  2 inst:   13000001 cyc:    7969232 now IPC :1.42768: AVG IPC :1.57405: L2-Pf-HR :0.95319: L2-HR :0.90308: (Sim:0h9m53s) 
CPU  1 inst:   14000001 cyc:    8506581 now IPC :1.84435: AVG IPC :1.59455: L2-Pf-HR :0.93589: L2-HR :0.88274: (Sim:0h10m37s) 
CPU  0 inst:   14000002 cyc:    8506588 now IPC :1.83041: AVG IPC :1.59454: L2-Pf-HR :0.94116: L2-HR :0.89140: (Sim:0h10m37s) 
CPU  3 inst:   14000000 cyc:    8511468 now IPC :1.83153: AVG IPC :1.59357: L2-Pf-HR :0.93621: L2-HR :0.87609: (Sim:0h10m37s) 
CPU  2 inst:   14000000 cyc:    8513522 now IPC :1.83725: AVG IPC :1.59307: L2-Pf-HR :0.95306: L2-HR :0.90480: (Sim:0h10m37s) 
CPU  1 inst:   15000000 cyc:    9080485 now IPC :1.74245: AVG IPC :1.60503: L2-Pf-HR :0.93345: L2-HR :0.88231: (Sim:0h11m21s) 
CPU  3 inst:   15000000 cyc:    9087360 now IPC :1.73644: AVG IPC :1.60372: L2-Pf-HR :0.93436: L2-HR :0.87634: (Sim:0h11m22s) 
CPU  2 inst:   15000000 cyc:    9088059 now IPC :1.74053: AVG IPC :1.60352: L2-Pf-HR :0.95201: L2-HR :0.90546: (Sim:0h11m22s) 
CPU  0 inst:   15000000 cyc:    9088562 now IPC :1.71829: AVG IPC :1.60342: L2-Pf-HR :0.93935: L2-HR :0.89116: (Sim:0h11m22s) 
CPU  2 inst:   16000000 cyc:    9639442 now IPC :1.81362: AVG IPC :1.61690: L2-Pf-HR :0.95062: L2-HR :0.90558: (Sim:0h12m6s) 
CPU  3 inst:   16000000 cyc:    9651214 now IPC :1.77351: AVG IPC :1.61476: L2-Pf-HR :0.93239: L2-HR :0.87631: (Sim:0h12m7s) 
CPU  1 inst:   16000000 cyc:    9651446 now IPC :1.75143: AVG IPC :1.61467: L2-Pf-HR :0.93110: L2-HR :0.88190: (Sim:0h12m7s) 
CPU  0 inst:   16000000 cyc:    9652770 now IPC :1.77240: AVG IPC :1.61442: L2-Pf-HR :0.93792: L2-HR :0.89168: (Sim:0h12m7s) 
CPU  2 inst:   17000000 cyc:   10217309 now IPC :1.73050: AVG IPC :1.62401: L2-Pf-HR :0.94954: L2-HR :0.90536: (Sim:0h12m52s) 
CPU  1 inst:   17000000 cyc:   10218634 now IPC :1.76308: AVG IPC :1.62378: L2-Pf-HR :0.92980: L2-HR :0.88188: (Sim:0h12m52s) 
CPU  0 inst:   17000000 cyc:   10219184 now IPC :1.76549: AVG IPC :1.62368: L2-Pf-HR :0.93643: L2-HR :0.89132: (Sim:0h12m52s) 
CPU  3 inst:   17000000 cyc:   10226394 now IPC :1.73859: AVG IPC :1.62246: L2-Pf-HR :0.93045: L2-HR :0.87532: (Sim:0h12m53s) 
CPU  1 inst:   18000000 cyc:   10750960 now IPC :1.87855: AVG IPC :1.63766: L2-Pf-HR :0.92938: L2-HR :0.88209: (Sim:0h13m36s) 
CPU  0 inst:   18000000 cyc:   10751107 now IPC :1.87997: AVG IPC :1.63763: L2-Pf-HR :0.93574: L2-HR :0.89131: (Sim:0h13m36s) 
CPU  3 inst:   18000000 cyc:   10754638 now IPC :1.89306: AVG IPC :1.63709: L2-Pf-HR :0.92966: L2-HR :0.87537: (Sim:0h13m37s) 
CPU  2 inst:   18000000 cyc:   10755162 now IPC :1.85924: AVG IPC :1.63695: L2-Pf-HR :0.94986: L2-HR :0.90645: (Sim:0h13m37s) 
CPU  1 inst:   19000003 cyc:   11323478 now IPC :1.74668: AVG IPC :1.64370: L2-Pf-HR :0.93072: L2-HR :0.88378: (Sim:0h14m19s) 
CPU  0 inst:   19000000 cyc:   11326457 now IPC :1.73807: AVG IPC :1.64322: L2-Pf-HR :0.93664: L2-HR :0.89259: (Sim:0h14m19s) 
CPU  3 inst:   19000003 cyc:   11327978 now IPC :1.74417: AVG IPC :1.64302: L2-Pf-HR :0.93069: L2-HR :0.87717: (Sim:0h14m19s) 
CPU  2 inst:   19000000 cyc:   11330092 now IPC :1.73934: AVG IPC :1.64264: L2-Pf-HR :0.95096: L2-HR :0.90814: (Sim:0h14m19s) 
CPU  1 inst:   20000004 cyc:   11847661 now IPC :1.90773: AVG IPC :1.65644: L2-Pf-HR :0.93122: L2-HR :0.88454: (Sim:0h15m2s) 
CPU  3 inst:   20000004 cyc:   11861176 now IPC :1.87548: AVG IPC :1.65441: L2-Pf-HR :0.93108: L2-HR :0.87796: (Sim:0h15m3s) 
CPU  2 inst:   20000004 cyc:   11864494 now IPC :1.87126: AVG IPC :1.65387: L2-Pf-HR :0.95059: L2-HR :0.90789: (Sim:0h15m3s) 
CPU  0 inst:   20000004 cyc:   11864644 now IPC :1.85810: AVG IPC :1.65384: L2-Pf-HR :0.93705: L2-HR :0.89319: (Sim:0h15m3s) 
CPU  2 inst:   21000004 cyc:   12462916 now IPC :1.67106: AVG IPC :1.65476: L2-Pf-HR :0.94991: L2-HR :0.90758: (Sim:0h15m48s) 
CPU  0 inst:   21000004 cyc:   12477577 now IPC :1.63150: AVG IPC :1.65265: L2-Pf-HR :0.93668: L2-HR :0.89347: (Sim:0h15m50s) 
CPU  1 inst:   21000004 cyc:   12478440 now IPC :1.58534: AVG IPC :1.65254: L2-Pf-HR :0.93085: L2-HR :0.88476: (Sim:0h15m50s) 
CPU  3 inst:   21000004 cyc:   12480842 now IPC :1.61377: AVG IPC :1.65222: L2-Pf-HR :0.93034: L2-HR :0.87776: (Sim:0h15m50s) 
CPU  0 inst:   22000001 cyc:   13096588 now IPC :1.61548: AVG IPC :1.65075: L2-Pf-HR :0.93643: L2-HR :0.89412: (Sim:0h16m35s) 
CPU  3 inst:   22000001 cyc:   13096761 now IPC :1.62359: AVG IPC :1.65077: L2-Pf-HR :0.92966: L2-HR :0.87762: (Sim:0h16m35s) 
CPU  2 inst:   22000001 cyc:   13097664 now IPC :1.57542: AVG IPC :1.65061: L2-Pf-HR :0.94920: L2-HR :0.90702: (Sim:0h16m35s) 
CPU  1 inst:   22000001 cyc:   13097800 now IPC :1.61457: AVG IPC :1.65059: L2-Pf-HR :0.93009: L2-HR :0.88478: (Sim:0h16m35s) 
CPU  2 inst:   23000004 cyc:   13633815 now IPC :1.86515: AVG IPC :1.65970: L2-Pf-HR :0.94836: L2-HR :0.90686: (Sim:0h17m4s) 
CPU  0 inst:   23000001 cyc:   13637644 now IPC :1.84824: AVG IPC :1.65920: L2-Pf-HR :0.93569: L2-HR :0.89423: (Sim:0h17m5s) 
CPU  1 inst:   23000004 cyc:   13642411 now IPC :1.83618: AVG IPC :1.65858: L2-Pf-HR :0.92902: L2-HR :0.88458: (Sim:0h17m5s) 
CPU  3 inst:   23000001 cyc:   13645660 now IPC :1.82183: AVG IPC :1.65818: L2-Pf-HR :0.92875: L2-HR :0.87748: (Sim:0h17m5s) 
CPU  0 inst:   24000004 cyc:   14188421 now IPC :1.81562: AVG IPC :1.66572: L2-Pf-HR :0.93528: L2-HR :0.89433: (Sim:0h17m49s) 
CPU  1 inst:   24000000 cyc:   14196441 now IPC :1.80495: AVG IPC :1.66471: L2-Pf-HR :0.92861: L2-HR :0.88464: (Sim:0h17m50s) 
CPU  3 inst:   24000000 cyc:   14214817 now IPC :1.75698: AVG IPC :1.66243: L2-Pf-HR :0.92884: L2-HR :0.87763: (Sim:0h17m51s) 
CPU  2 inst:   24000000 cyc:   14216652 now IPC :1.71574: AVG IPC :1.66217: L2-Pf-HR :0.94839: L2-HR :0.90732: (Sim:0h17m51s) 
CPU  1 inst:   25000004 cyc:   15079878 now IPC :1.13195: AVG IPC :1.63133: L2-Pf-HR :0.93166: L2-HR :0.88523: (Sim:0h18m39s) 
CPU  0 inst:   25000004 cyc:   15085457 now IPC :1.11478: AVG IPC :1.63068: L2-Pf-HR :0.93765: L2-HR :0.89441: (Sim:0h18m40s) 
CPU  3 inst:   25000005 cyc:   15091818 now IPC :1.14026: AVG IPC :1.62998: L2-Pf-HR :0.93171: L2-HR :0.87819: (Sim:0h18m40s) 
CPU  2 inst:   25000005 cyc:   15094403 now IPC :1.13928: AVG IPC :1.62965: L2-Pf-HR :0.95063: L2-HR :0.90802: (Sim:0h18m41s) 
CPU  1 inst:   26000004 cyc:   15901107 now IPC :1.21769: AVG IPC :1.60856: L2-Pf-HR :0.93386: L2-HR :0.88581: (Sim:0h19m31s) 
CPU  0 inst:   26000004 cyc:   15901126 now IPC :1.22599: AVG IPC :1.60856: L2-Pf-HR :0.93971: L2-HR :0.89506: (Sim:0h19m31s) 
CPU  3 inst:   26000004 cyc:   15901410 now IPC :1.23519: AVG IPC :1.60856: L2-Pf-HR :0.93454: L2-HR :0.87983: (Sim:0h19m31s) 
CPU  2 inst:   26000002 cyc:   15903541 now IPC :1.23588: AVG IPC :1.60829: L2-Pf-HR :0.95299: L2-HR :0.90968: (Sim:0h19m31s) 
CPU  0 inst:   27000002 cyc:   16699949 now IPC :1.25184: AVG IPC :1.59043: L2-Pf-HR :0.94094: L2-HR :0.89522: (Sim:0h20m22s) 
CPU  1 inst:   27000002 cyc:   16701835 now IPC :1.24886: AVG IPC :1.59024: L2-Pf-HR :0.93506: L2-HR :0.88565: (Sim:0h20m23s) 
CPU  2 inst:   27000002 cyc:   16707363 now IPC :1.24406: AVG IPC :1.58968: L2-Pf-HR :0.95420: L2-HR :0.91010: (Sim:0h20m23s) 
CPU  3 inst:   27000002 cyc:   16715791 now IPC :1.22792: AVG IPC :1.58886: L2-Pf-HR :0.93606: L2-HR :0.88018: (Sim:0h20m24s) 
CPU  1 inst:   28000002 cyc:   17452147 now IPC :1.33278: AVG IPC :1.57851: L2-Pf-HR :0.93569: L2-HR :0.88506: (Sim:0h21m13s) 
CPU  0 inst:   28000005 cyc:   17454347 now IPC :1.32556: AVG IPC :1.57830: L2-Pf-HR :0.94199: L2-HR :0.89530: (Sim:0h21m13s) 
CPU  2 inst:   28000002 cyc:   17460590 now IPC :1.32762: AVG IPC :1.57770: L2-Pf-HR :0.95487: L2-HR :0.90995: (Sim:0h21m14s) 
CPU  3 inst:   28000005 cyc:   17523500 now IPC :1.23807: AVG IPC :1.57173: L2-Pf-HR :0.93716: L2-HR :0.87982: (Sim:0h21m17s) 
CPU  0 inst:   29000000 cyc:   18257702 now IPC :1.24477: AVG IPC :1.56279: L2-Pf-HR :0.94228: L2-HR :0.89505: (Sim:0h22m6s) 
CPU  1 inst:   29000000 cyc:   18267804 now IPC :1.22600: AVG IPC :1.56188: L2-Pf-HR :0.93617: L2-HR :0.88473: (Sim:0h22m7s) 
CPU  2 inst:   29000000 cyc:   18268848 now IPC :1.23723: AVG IPC :1.56178: L2-Pf-HR :0.95516: L2-HR :0.90944: (Sim:0h22m7s) 
CPU  3 inst:   29000000 cyc:   18287788 now IPC :1.30840: AVG IPC :1.56010: L2-Pf-HR :0.93742: L2-HR :0.87909: (Sim:0h22m8s) 
CPU  0 inst:   30000002 cyc:   19093709 now IPC :1.19616: AVG IPC :1.54587: L2-Pf-HR :0.94369: L2-HR :0.89533: (Sim:0h22m58s) 
CPU  1 inst:   30000002 cyc:   19093890 now IPC :1.21053: AVG IPC :1.54586: L2-Pf-HR :0.93780: L2-HR :0.88501: (Sim:0h22m58s) 
CPU  3 inst:   30000002 cyc:   19095206 now IPC :1.23852: AVG IPC :1.54576: L2-Pf-HR :0.93885: L2-HR :0.87906: (Sim:0h22m59s) 
CPU  2 inst:   30000002 cyc:   19095839 now IPC :1.20921: AVG IPC :1.54568: L2-Pf-HR :0.95673: L2-HR :0.91030: (Sim:0h22m59s) 
CPU  1 inst:   31000002 cyc:   20082801 now IPC :1.01121: AVG IPC :1.51818: L2-Pf-HR :0.93775: L2-HR :0.88529: (Sim:0h23m51s) 
CPU  0 inst:   31000002 cyc:   20108412 now IPC :0.98551: AVG IPC :1.51614: L2-Pf-HR :0.94340: L2-HR :0.89532: (Sim:0h23m52s) 
CPU  3 inst:   31000002 cyc:   20130784 now IPC :0.96564: AVG IPC :1.51439: L2-Pf-HR :0.93870: L2-HR :0.87920: (Sim:0h23m53s) 
CPU  2 inst:   31000002 cyc:   20141121 now IPC :0.95668: AVG IPC :1.51355: L2-Pf-HR :0.95676: L2-HR :0.91062: (Sim:0h23m54s) 
CPU  0 inst:   32000000 cyc:   21300054 now IPC :0.83918: AVG IPC :1.47644: L2-Pf-HR :0.94227: L2-HR :0.89488: (Sim:0h24m52s) 
CPU  3 inst:   32000000 cyc:   21314764 now IPC :0.84461: AVG IPC :1.47539: L2-Pf-HR :0.93794: L2-HR :0.87860: (Sim:0h24m53s) 
CPU  1 inst:   32000000 cyc:   21317905 now IPC :0.80965: AVG IPC :1.47515: L2-Pf-HR :0.93672: L2-HR :0.88468: (Sim:0h24m53s) 
CPU  2 inst:   32000000 cyc:   21317947 now IPC :0.84974: AVG IPC :1.47514: L2-Pf-HR :0.95593: L2-HR :0.90973: (Sim:0h24m53s) 
CPU  1 inst:   33000000 cyc:   22473500 now IPC :0.86536: AVG IPC :1.44236: L2-Pf-HR :0.93634: L2-HR :0.88435: (Sim:0h25m53s) 
CPU  0 inst:   33000000 cyc:   22487872 now IPC :0.84188: AVG IPC :1.44139: L2-Pf-HR :0.94174: L2-HR :0.89450: (Sim:0h25m53s) 
CPU  2 inst:   33000000 cyc:   22517887 now IPC :0.83337: AVG IPC :1.43938: L2-Pf-HR :0.95549: L2-HR :0.90897: (Sim:0h25m55s) 
CPU  3 inst:   33000000 cyc:   22521143 now IPC :0.82893: AVG IPC :1.43919: L2-Pf-HR :0.93741: L2-HR :0.87783: (Sim:0h25m55s) 
CPU  0 inst:   34000003 cyc:   23629958 now IPC :0.87559: AVG IPC :1.41286: L2-Pf-HR :0.94112: L2-HR :0.89434: (Sim:0h26m52s) 
CPU  1 inst:   34000003 cyc:   23651702 now IPC :0.84875: AVG IPC :1.41151: L2-Pf-HR :0.93558: L2-HR :0.88393: (Sim:0h26m53s) 
CPU  2 inst:   34000003 cyc:   23651917 now IPC :0.88181: AVG IPC :1.41149: L2-Pf-HR :0.95473: L2-HR :0.90810: (Sim:0h26m53s) 
CPU  3 inst:   34000003 cyc:   23654376 now IPC :0.88243: AVG IPC :1.41136: L2-Pf-HR :0.93670: L2-HR :0.87727: (Sim:0h26m54s) 
CPU  0 inst:   35000005 cyc:   24862175 now IPC :0.81155: AVG IPC :1.38183: L2-Pf-HR :0.94042: L2-HR :0.89399: (Sim:0h27m54s) 
CPU  3 inst:   35000005 cyc:   24865451 now IPC :0.82571: AVG IPC :1.38166: L2-Pf-HR :0.93597: L2-HR :0.87654: (Sim:0h27m54s) 
CPU  1 inst:   35000002 cyc:   24867454 now IPC :0.82254: AVG IPC :1.38153: L2-Pf-HR :0.93496: L2-HR :0.88347: (Sim:0h27m54s) 
CPU  2 inst:   35000005 cyc:   24880427 now IPC :0.81400: AVG IPC :1.38078: L2-Pf-HR :0.95407: L2-HR :0.90729: (Sim:0h27m55s) 
CPU  0 inst:   36000000 cyc:   25988358 now IPC :0.88795: AVG IPC :1.35959: L2-Pf-HR :0.93960: L2-HR :0.89358: (Sim:0h28m53s) 
CPU  3 inst:   36000000 cyc:   25999265 now IPC :0.88197: AVG IPC :1.35902: L2-Pf-HR :0.93527: L2-HR :0.87593: (Sim:0h28m54s) 
CPU  2 inst:   36000000 cyc:   26005835 now IPC :0.88856: AVG IPC :1.35864: L2-Pf-HR :0.95355: L2-HR :0.90709: (Sim:0h28m55s) 
CPU  1 inst:   36000000 cyc:   26015524 now IPC :0.87103: AVG IPC :1.35812: L2-Pf-HR :0.93419: L2-HR :0.88298: (Sim:0h28m55s) 
CPU  1 inst:   37000004 cyc:   27394417 now IPC :0.72522: AVG IPC :1.32508: L2-Pf-HR :0.93519: L2-HR :0.88299: (Sim:0h29m56s) 
CPU  0 inst:   37000004 cyc:   27431399 now IPC :0.69298: AVG IPC :1.32322: L2-Pf-HR :0.94056: L2-HR :0.89350: (Sim:0h29m58s) 
CPU  3 inst:   37000004 cyc:   27432737 now IPC :0.69761: AVG IPC :1.32317: L2-Pf-HR :0.93607: L2-HR :0.87590: (Sim:0h29m58s) 
CPU  2 inst:   37000004 cyc:   27440762 now IPC :0.69690: AVG IPC :1.32276: L2-Pf-HR :0.95421: L2-HR :0.90712: (Sim:0h29m58s) 
CPU  1 inst:   38000004 cyc:   28619449 now IPC :0.81631: AVG IPC :1.30253: L2-Pf-HR :0.93444: L2-HR :0.88245: (Sim:0h30m58s) 
CPU  2 inst:   38000004 cyc:   28620206 now IPC :0.84786: AVG IPC :1.30249: L2-Pf-HR :0.95376: L2-HR :0.90698: (Sim:0h30m58s) 
CPU  0 inst:   38000004 cyc:   28620831 now IPC :0.84074: AVG IPC :1.30246: L2-Pf-HR :0.93993: L2-HR :0.89319: (Sim:0h30m58s) 
CPU  3 inst:   38000004 cyc:   28623218 now IPC :0.84000: AVG IPC :1.30236: L2-Pf-HR :0.93556: L2-HR :0.87555: (Sim:0h30m58s) 
CPU  1 inst:   39000004 cyc:   29878314 now IPC :0.79437: AVG IPC :1.28039: L2-Pf-HR :0.93355: L2-HR :0.88203: (Sim:0h32m0s) 
CPU  2 inst:   39000004 cyc:   29902768 now IPC :0.77969: AVG IPC :1.27931: L2-Pf-HR :0.95335: L2-HR :0.90668: (Sim:0h32m2s) 
CPU  0 inst:   39000004 cyc:   29907072 now IPC :0.77746: AVG IPC :1.27912: L2-Pf-HR :0.93906: L2-HR :0.89286: (Sim:0h32m2s) 
CPU  3 inst:   39000004 cyc:   29927473 now IPC :0.76672: AVG IPC :1.27823: L2-Pf-HR :0.93508: L2-HR :0.87512: (Sim:0h32m3s) 
CPU  1 inst:   40000003 cyc:   31125518 now IPC :0.80179: AVG IPC :1.26059: L2-Pf-HR :0.93283: L2-HR :0.88157: (Sim:0h33m2s) 
CPU  2 inst:   40000003 cyc:   31128396 now IPC :0.81591: AVG IPC :1.26047: L2-Pf-HR :0.95285: L2-HR :0.90619: (Sim:0h33m2s) 
CPU  0 inst:   40000003 cyc:   31132215 now IPC :0.81623: AVG IPC :1.26031: L2-Pf-HR :0.93854: L2-HR :0.89259: (Sim:0h33m3s) 
CPU  3 inst:   40000002 cyc:   31154875 now IPC :0.81473: AVG IPC :1.25938: L2-Pf-HR :0.93440: L2-HR :0.87451: (Sim:0h33m4s) 
CPU  0 inst:   41000001 cyc:   32297959 now IPC :0.85782: AVG IPC :1.24532: L2-Pf-HR :0.93780: L2-HR :0.89214: (Sim:0h34m2s) 
CPU  1 inst:   41000001 cyc:   32350779 now IPC :0.81615: AVG IPC :1.24323: L2-Pf-HR :0.93209: L2-HR :0.88110: (Sim:0h34m5s) 
CPU  3 inst:   41000001 cyc:   32361348 now IPC :0.82886: AVG IPC :1.24282: L2-Pf-HR :0.93372: L2-HR :0.87391: (Sim:0h34m5s) 
CPU  2 inst:   41000004 cyc:   32383398 now IPC :0.79681: AVG IPC :1.24194: L2-Pf-HR :0.95233: L2-HR :0.90566: (Sim:0h34m6s) 
CPU  3 inst:   42000005 cyc:   33593573 now IPC :0.81154: AVG IPC :1.22653: L2-Pf-HR :0.93322: L2-HR :0.87312: (Sim:0h35m7s) 
CPU  2 inst:   42000004 cyc:   33625299 now IPC :0.80522: AVG IPC :1.22532: L2-Pf-HR :0.95208: L2-HR :0.90540: (Sim:0h35m8s) 
CPU  0 inst:   42000004 cyc:   33653444 now IPC :0.73775: AVG IPC :1.22427: L2-Pf-HR :0.93738: L2-HR :0.89155: (Sim:0h35m9s) 
CPU  1 inst:   42000005 cyc:   33658957 now IPC :0.76443: AVG IPC :1.22406: L2-Pf-HR :0.93155: L2-HR :0.88050: (Sim:0h35m9s) 
CPU  2 inst:   43000005 cyc:   34823373 now IPC :0.83467: AVG IPC :1.21149: L2-Pf-HR :0.95235: L2-HR :0.90581: (Sim:0h36m5s) 
CPU  1 inst:   43000005 cyc:   34850337 now IPC :0.83936: AVG IPC :1.21053: L2-Pf-HR :0.93186: L2-HR :0.88105: (Sim:0h36m6s) 
CPU  0 inst:   43000005 cyc:   34860412 now IPC :0.82852: AVG IPC :1.21017: L2-Pf-HR :0.93753: L2-HR :0.89184: (Sim:0h36m6s) 
CPU  3 inst:   43000005 cyc:   34872751 now IPC :0.78175: AVG IPC :1.20974: L2-Pf-HR :0.93361: L2-HR :0.87361: (Sim:0h36m7s) 
CPU  1 inst:   44000002 cyc:   36144420 now IPC :0.77275: AVG IPC :1.19442: L2-Pf-HR :0.93201: L2-HR :0.88084: (Sim:0h37m8s) 
CPU  0 inst:   44000002 cyc:   36146372 now IPC :0.77763: AVG IPC :1.19435: L2-Pf-HR :0.93779: L2-HR :0.89187: (Sim:0h37m8s) 
CPU  2 inst:   44000002 cyc:   36156328 now IPC :0.75021: AVG IPC :1.19401: L2-Pf-HR :0.95237: L2-HR :0.90535: (Sim:0h37m9s) 
CPU  3 inst:   44000002 cyc:   36180099 now IPC :0.76490: AVG IPC :1.19322: L2-Pf-HR :0.93372: L2-HR :0.87322: (Sim:0h37m11s) 
CPU  0 inst:   45000002 cyc:   37313290 now IPC :0.85696: AVG IPC :1.18351: L2-Pf-HR :0.93854: L2-HR :0.89205: (Sim:0h38m7s) 
CPU  2 inst:   45000002 cyc:   37346172 now IPC :0.84045: AVG IPC :1.18244: L2-Pf-HR :0.95292: L2-HR :0.90528: (Sim:0h38m9s) 
CPU  3 inst:   45000002 cyc:   37364135 now IPC :0.84457: AVG IPC :1.18187: L2-Pf-HR :0.93459: L2-HR :0.87342: (Sim:0h38m10s) 
CPU  1 inst:   45000002 cyc:   37392868 now IPC :0.80099: AVG IPC :1.18093: L2-Pf-HR :0.93286: L2-HR :0.88111: (Sim:0h38m12s) 
CPU  0 inst:   46000005 cyc:   38605914 now IPC :0.77362: AVG IPC :1.16943: L2-Pf-HR :0.93908: L2-HR :0.89228: (Sim:0h39m11s) 
CPU  1 inst:   46000001 cyc:   38613020 now IPC :0.81957: AVG IPC :1.16921: L2-Pf-HR :0.93312: L2-HR :0.88100: (Sim:0h39m11s) 
CPU  2 inst:   46000005 cyc:   38623657 now IPC :0.78279: AVG IPC :1.16888: L2-Pf-HR :0.95312: L2-HR :0.90494: (Sim:0h39m12s) 
CPU  3 inst:   46000003 cyc:   38629664 now IPC :0.79018: AVG IPC :1.16871: L2-Pf-HR :0.93492: L2-HR :0.87330: (Sim:0h39m12s) 
CPU  2 inst:   47000002 cyc:   39920137 now IPC :0.77132: AVG IPC :1.15564: L2-Pf-HR :0.95344: L2-HR :0.90479: (Sim:0h40m13s) 
CPU  1 inst:   47000003 cyc:   39934054 now IPC :0.75698: AVG IPC :1.15523: L2-Pf-HR :0.93381: L2-HR :0.88117: (Sim:0h40m14s) 
CPU  0 inst:   47000003 cyc:   39935223 now IPC :0.75227: AVG IPC :1.15520: L2-Pf-HR :0.93983: L2-HR :0.89247: (Sim:0h40m14s) 
CPU  3 inst:   47000003 cyc:   39961370 now IPC :0.75092: AVG IPC :1.15443: L2-Pf-HR :0.93546: L2-HR :0.87322: (Sim:0h40m16s) 
CPU  0 inst:   48000003 cyc:   40997161 now IPC :0.94167: AVG IPC :1.14953: L2-Pf-HR :0.93996: L2-HR :0.89233: (Sim:0h41m10s) 
CPU  2 inst:   48000003 cyc:   41012073 now IPC :0.91581: AVG IPC :1.14910: L2-Pf-HR :0.95379: L2-HR :0.90494: (Sim:0h41m11s) 
CPU  3 inst:   48000002 cyc:   41025886 now IPC :0.93939: AVG IPC :1.14872: L2-Pf-HR :0.93588: L2-HR :0.87315: (Sim:0h41m12s) 
CPU  1 inst:   48000002 cyc:   41042045 now IPC :0.90253: AVG IPC :1.14824: L2-Pf-HR :0.93416: L2-HR :0.88110: (Sim:0h41m13s) 
CPU  2 inst:   49000003 cyc:   42684129 now IPC :0.59807: AVG IPC :1.12701: L2-Pf-HR :0.95433: L2-HR :0.90489: (Sim:0h42m20s) 
CPU  0 inst:   49000003 cyc:   42690191 now IPC :0.59066: AVG IPC :1.12684: L2-Pf-HR :0.94072: L2-HR :0.89224: (Sim:0h42m20s) 
CPU  1 inst:   49000003 cyc:   42697697 now IPC :0.60399: AVG IPC :1.12664: L2-Pf-HR :0.93486: L2-HR :0.88094: (Sim:0h42m21s) 
CPU  3 inst:   49000003 cyc:   42701741 now IPC :0.59671: AVG IPC :1.12654: L2-Pf-HR :0.93683: L2-HR :0.87342: (Sim:0h42m21s) 
CPU  0 inst:   50000003 cyc:   44055106 now IPC :0.73265: AVG IPC :1.11435: L2-Pf-HR :0.94028: L2-HR :0.89194: (Sim:0h43m25s) 
CPU  1 inst:   50000003 cyc:   44056590 now IPC :0.73589: AVG IPC :1.11432: L2-Pf-HR :0.93432: L2-HR :0.88055: (Sim:0h43m25s) 
CPU  2 inst:   50000003 cyc:   44060190 now IPC :0.72671: AVG IPC :1.11422: L2-Pf-HR :0.95414: L2-HR :0.90485: (Sim:0h43m25s) 
CPU  3 inst:   50000003 cyc:   44073332 now IPC :0.72908: AVG IPC :1.11389: L2-Pf-HR :0.93646: L2-HR :0.87331: (Sim:0h43m26s) 
CPU  0 inst:   51000004 cyc:   45523909 now IPC :0.68083: AVG IPC :1.10006: L2-Pf-HR :0.94007: L2-HR :0.89163: (Sim:0h44m28s) 
CPU  1 inst:   51000004 cyc:   45561132 now IPC :0.66465: AVG IPC :1.09914: L2-Pf-HR :0.93394: L2-HR :0.88017: (Sim:0h44m29s) 
CPU  2 inst:   51000004 cyc:   45567327 now IPC :0.66351: AVG IPC :1.09899: L2-Pf-HR :0.95403: L2-HR :0.90470: (Sim:0h44m29s) 
CPU  3 inst:   51000004 cyc:   45582431 now IPC :0.66265: AVG IPC :1.09862: L2-Pf-HR :0.93628: L2-HR :0.87302: (Sim:0h44m29s) 
CPU  1 inst:   52000003 cyc:   46942884 now IPC :0.72372: AVG IPC :1.08785: L2-Pf-HR :0.93345: L2-HR :0.87974: (Sim:0h45m8s) 
CPU  2 inst:   52000003 cyc:   46947501 now IPC :0.72455: AVG IPC :1.08774: L2-Pf-HR :0.95381: L2-HR :0.90442: (Sim:0h45m8s) 
CPU  3 inst:   52000002 cyc:   46950649 now IPC :0.73088: AVG IPC :1.08768: L2-Pf-HR :0.93595: L2-HR :0.87261: (Sim:0h45m8s) 
CPU  0 inst:   52000001 cyc:   46951359 now IPC :0.70055: AVG IPC :1.08765: L2-Pf-HR :0.93965: L2-HR :0.89141: (Sim:0h45m8s) 
CPU  3 inst:   53000003 cyc:   48324786 now IPC :0.72773: AVG IPC :1.07723: L2-Pf-HR :0.93538: L2-HR :0.87215: (Sim:0h45m46s) 
CPU  0 inst:   53000003 cyc:   48343461 now IPC :0.71834: AVG IPC :1.07680: L2-Pf-HR :0.93912: L2-HR :0.89116: (Sim:0h45m47s) 
CPU  2 inst:   53000003 cyc:   48379992 now IPC :0.69808: AVG IPC :1.07597: L2-Pf-HR :0.95346: L2-HR :0.90406: (Sim:0h45m47s) 
CPU  1 inst:   53000003 cyc:   48383720 now IPC :0.69404: AVG IPC :1.07588: L2-Pf-HR :0.93295: L2-HR :0.87936: (Sim:0h45m47s) 
CPU  3 inst:   54000000 cyc:   49737140 now IPC :0.70804: AVG IPC :1.06654: L2-Pf-HR :0.93495: L2-HR :0.87154: (Sim:0h46m25s) 
CPU  1 inst:   54000000 cyc:   49742325 now IPC :0.73605: AVG IPC :1.06641: L2-Pf-HR :0.93234: L2-HR :0.87878: (Sim:0h46m25s) 
CPU  0 inst:   54000000 cyc:   49749110 now IPC :0.71141: AVG IPC :1.06627: L2-Pf-HR :0.93852: L2-HR :0.89070: (Sim:0h46m26s) 
CPU  2 inst:   54000005 cyc:   49762047 now IPC :0.72356: AVG IPC :1.06598: L2-Pf-HR :0.95336: L2-HR :0.90384: (Sim:0h46m26s) 
CPU  1 inst:   55000004 cyc:   50938275 now IPC :0.83616: AVG IPC :1.06090: L2-Pf-HR :0.93239: L2-HR :0.87921: (Sim:0h46m59s) 
CPU  0 inst:   55000001 cyc:   50997749 now IPC :0.80087: AVG IPC :1.05964: L2-Pf-HR :0.93860: L2-HR :0.89093: (Sim:0h47m1s) 
CPU  3 inst:   55000004 cyc:   51004753 now IPC :0.78889: AVG IPC :1.05950: L2-Pf-HR :0.93499: L2-HR :0.87179: (Sim:0h47m1s) 
CPU  2 inst:   55000001 cyc:   51004864 now IPC :0.80462: AVG IPC :1.05949: L2-Pf-HR :0.95356: L2-HR :0.90420: (Sim:0h47m1s) 
CPU  1 inst:   56000004 cyc:   52421520 now IPC :0.67420: AVG IPC :1.04975: L2-Pf-HR :0.93197: L2-HR :0.87897: (Sim:0h47m41s) 
CPU  0 inst:   56000001 cyc:   52429263 now IPC :0.69856: AVG IPC :1.04959: L2-Pf-HR :0.93810: L2-HR :0.89070: (Sim:0h47m41s) 
CPU  2 inst:   56000001 cyc:   52451374 now IPC :0.69132: AVG IPC :1.04914: L2-Pf-HR :0.95314: L2-HR :0.90376: (Sim:0h47m42s) 
CPU  3 inst:   56000004 cyc:   52457896 now IPC :0.68816: AVG IPC :1.04902: L2-Pf-HR :0.93441: L2-HR :0.87141: (Sim:0h47m43s) 
CPU  2 inst:   57000001 cyc:   53913546 now IPC :0.68391: AVG IPC :1.03905: L2-Pf-HR :0.95274: L2-HR :0.90345: (Sim:0h48m21s) 
CPU  0 inst:   57000001 cyc:   53945188 now IPC :0.65966: AVG IPC :1.03843: L2-Pf-HR :0.93770: L2-HR :0.89049: (Sim:0h48m22s) 
CPU  1 inst:   57000000 cyc:   53952757 now IPC :0.65306: AVG IPC :1.03829: L2-Pf-HR :0.93163: L2-HR :0.87872: (Sim:0h48m22s) 
CPU  3 inst:   57000001 cyc:   53974706 now IPC :0.65928: AVG IPC :1.03786: L2-Pf-HR :0.93386: L2-HR :0.87102: (Sim:0h48m22s) 
CPU  1 inst:   58000001 cyc:   55344994 now IPC :0.71827: AVG IPC :1.03009: L2-Pf-HR :0.93113: L2-HR :0.87856: (Sim:0h49m0s) 
CPU  0 inst:   58000001 cyc:   55401419 now IPC :0.68670: AVG IPC :1.02902: L2-Pf-HR :0.93740: L2-HR :0.89050: (Sim:0h49m1s) 
CPU  3 inst:   58000001 cyc:   55420162 now IPC :0.69182: AVG IPC :1.02867: L2-Pf-HR :0.93332: L2-HR :0.87076: (Sim:0h49m2s) 
CPU  2 inst:   58000001 cyc:   55423180 now IPC :0.66241: AVG IPC :1.02861: L2-Pf-HR :0.95221: L2-HR :0.90303: (Sim:0h49m2s) 
CPU  1 inst:   59000003 cyc:   56877726 now IPC :0.65243: AVG IPC :1.01973: L2-Pf-HR :0.93058: L2-HR :0.87832: (Sim:0h49m42s) 
CPU  0 inst:   59000002 cyc:   56896277 now IPC :0.66896: AVG IPC :1.01939: L2-Pf-HR :0.93690: L2-HR :0.89034: (Sim:0h49m42s) 
CPU  2 inst:   59000002 cyc:   56922311 now IPC :0.66705: AVG IPC :1.01892: L2-Pf-HR :0.95181: L2-HR :0.90265: (Sim:0h49m43s) 
CPU  3 inst:   59000003 cyc:   56936728 now IPC :0.65939: AVG IPC :1.01867: L2-Pf-HR :0.93276: L2-HR :0.87043: (Sim:0h49m43s) 
CPU  0 inst:   60000001 cyc:   58248834 now IPC :0.73934: AVG IPC :1.01278: L2-Pf-HR :0.93671: L2-HR :0.89015: (Sim:0h50m20s) 
CPU  1 inst:   60000001 cyc:   58252229 now IPC :0.72753: AVG IPC :1.01272: L2-Pf-HR :0.93035: L2-HR :0.87829: (Sim:0h50m20s) 
CPU  2 inst:   60000001 cyc:   58255172 now IPC :0.75027: AVG IPC :1.01267: L2-Pf-HR :0.95174: L2-HR :0.90265: (Sim:0h50m20s) 
CPU  3 inst:   60000001 cyc:   58316670 now IPC :0.72467: AVG IPC :1.01159: L2-Pf-HR :0.93248: L2-HR :0.87016: (Sim:0h50m21s) 
CPU  2 inst:   61000001 cyc:   59560353 now IPC :0.76618: AVG IPC :1.00718: L2-Pf-HR :0.95165: L2-HR :0.90234: (Sim:0h50m55s) 
CPU  1 inst:   61000001 cyc:   59607253 now IPC :0.73799: AVG IPC :1.00637: L2-Pf-HR :0.93015: L2-HR :0.87784: (Sim:0h50m56s) 
CPU  0 inst:   61000001 cyc:   59689253 now IPC :0.69424: AVG IPC :1.00496: L2-Pf-HR :0.93688: L2-HR :0.88996: (Sim:0h50m59s) 
CPU  3 inst:   61000001 cyc:   59816016 now IPC :0.66696: AVG IPC :1.00281: L2-Pf-HR :0.93212: L2-HR :0.86973: (Sim:0h51m3s) 
CPU  2 inst:   62000003 cyc:   60442915 now IPC :1.13307: AVG IPC :1.00904: L2-Pf-HR :0.95109: L2-HR :0.90213: (Sim:0h51m23s) 
CPU  1 inst:   62000002 cyc:   60686450 now IPC :0.92662: AVG IPC :1.00493: L2-Pf-HR :0.92885: L2-HR :0.87693: (Sim:0h51m31s) 
CPU  0 inst:   62000002 cyc:   60824827 now IPC :0.88061: AVG IPC :1.00261: L2-Pf-HR :0.93585: L2-HR :0.88914: (Sim:0h51m36s) 
CPU  3 inst:   62000002 cyc:   60878147 now IPC :0.94150: AVG IPC :1.00172: L2-Pf-HR :0.93077: L2-HR :0.86879: (Sim:0h51m38s) 
CPU  1 inst:   63000003 cyc:   61606996 now IPC :1.08631: AVG IPC :1.00617: L2-Pf-HR :0.92847: L2-HR :0.87625: (Sim:0h52m2s) 
CPU  2 inst:   63000000 cyc:   61608243 now IPC :0.85812: AVG IPC :1.00614: L2-Pf-HR :0.95130: L2-HR :0.90219: (Sim:0h52m2s) 
CPU  0 inst:   63000003 cyc:   61840923 now IPC :0.98416: AVG IPC :1.00230: L2-Pf-HR :0.93583: L2-HR :0.88846: (Sim:0h52m10s) 
CPU  3 inst:   63000000 cyc:   61847047 now IPC :1.03210: AVG IPC :1.00220: L2-Pf-HR :0.93117: L2-HR :0.86866: (Sim:0h52m10s) 
CPU  2 inst:   64000005 cyc:   62548993 now IPC :1.06299: AVG IPC :1.00701: L2-Pf-HR :0.95257: L2-HR :0.90290: (Sim:0h52m34s) 
CPU  1 inst:   64000005 cyc:   62563900 now IPC :1.04504: AVG IPC :1.00677: L2-Pf-HR :0.92894: L2-HR :0.87563: (Sim:0h52m35s) 
CPU  3 inst:   64000005 cyc:   62754125 now IPC :1.10245: AVG IPC :1.00368: L2-Pf-HR :0.93166: L2-HR :0.86811: (Sim:0h52m41s) 
CPU  0 inst:   64000002 cyc:   62756514 now IPC :1.09219: AVG IPC :1.00363: L2-Pf-HR :0.93652: L2-HR :0.88819: (Sim:0h52m41s) 
CPU  1 inst:   65000001 cyc:   64232505 now IPC :0.59930: AVG IPC :0.99602: L2-Pf-HR :0.92993: L2-HR :0.87539: (Sim:0h53m16s) 
CPU  2 inst:   65000002 cyc:   64309425 now IPC :0.56804: AVG IPC :0.99481: L2-Pf-HR :0.95350: L2-HR :0.90306: (Sim:0h53m18s) 
CPU  0 inst:   65000001 cyc:   64331075 now IPC :0.63510: AVG IPC :0.99447: L2-Pf-HR :0.93717: L2-HR :0.88790: (Sim:0h53m19s) 
CPU  3 inst:   65000001 cyc:   64350084 now IPC :0.62658: AVG IPC :0.99418: L2-Pf-HR :0.93255: L2-HR :0.86808: (Sim:0h53m20s) 
CPU  0 inst:   66000000 cyc:   65639102 now IPC :0.76451: AVG IPC :0.98982: L2-Pf-HR :0.93803: L2-HR :0.88804: (Sim:0h53m56s) 
CPU  1 inst:   66000000 cyc:   65650052 now IPC :0.70544: AVG IPC :0.98965: L2-Pf-HR :0.93106: L2-HR :0.87561: (Sim:0h53m56s) 
CPU  3 inst:   66000000 cyc:   65708412 now IPC :0.73620: AVG IPC :0.98876: L2-Pf-HR :0.93355: L2-HR :0.86847: (Sim:0h53m58s) 
CPU  2 inst:   66000000 cyc:   65713433 now IPC :0.71225: AVG IPC :0.98868: L2-Pf-HR :0.95433: L2-HR :0.90342: (Sim:0h53m58s) 
CPU  0 inst:   67000005 cyc:   67167592 now IPC :0.65424: AVG IPC :0.98207: L2-Pf-HR :0.93909: L2-HR :0.88814: (Sim:0h54m36s) 
CPU  2 inst:   67000000 cyc:   67174146 now IPC :0.68460: AVG IPC :0.98197: L2-Pf-HR :0.95515: L2-HR :0.90367: (Sim:0h54m36s) 
CPU  3 inst:   67000000 cyc:   67175740 now IPC :0.68151: AVG IPC :0.98195: L2-Pf-HR :0.93496: L2-HR :0.86897: (Sim:0h54m36s) 
CPU  1 inst:   67000000 cyc:   67176517 now IPC :0.65511: AVG IPC :0.98194: L2-Pf-HR :0.93207: L2-HR :0.87571: (Sim:0h54m36s) 
CPU  1 inst:   68000005 cyc:   68574249 now IPC :0.71545: AVG IPC :0.97643: L2-Pf-HR :0.93267: L2-HR :0.87558: (Sim:0h55m15s) 
CPU  0 inst:   68000005 cyc:   68587781 now IPC :0.70413: AVG IPC :0.97623: L2-Pf-HR :0.93987: L2-HR :0.88830: (Sim:0h55m15s) 
CPU  3 inst:   68000005 cyc:   68648746 now IPC :0.67889: AVG IPC :0.97536: L2-Pf-HR :0.93579: L2-HR :0.86902: (Sim:0h55m16s) 
CPU  2 inst:   68000005 cyc:   68654911 now IPC :0.67533: AVG IPC :0.97526: L2-Pf-HR :0.95566: L2-HR :0.90362: (Sim:0h55m17s) 
CPU  0 inst:   69000003 cyc:   70021970 now IPC :0.69726: AVG IPC :0.97043: L2-Pf-HR :0.94046: L2-HR :0.88833: (Sim:0h55m56s) 
CPU  1 inst:   69000003 cyc:   70022101 now IPC :0.69068: AVG IPC :0.97043: L2-Pf-HR :0.93329: L2-HR :0.87552: (Sim:0h55m56s) 
CPU  2 inst:   69000003 cyc:   70026337 now IPC :0.72917: AVG IPC :0.97037: L2-Pf-HR :0.95610: L2-HR :0.90353: (Sim:0h55m56s) 
CPU  3 inst:   69000003 cyc:   70036649 now IPC :0.72051: AVG IPC :0.97023: L2-Pf-HR :0.93640: L2-HR :0.86885: (Sim:0h55m57s) 
CPU  0 inst:   70000001 cyc:   71510516 now IPC :0.67180: AVG IPC :0.96413: L2-Pf-HR :0.94123: L2-HR :0.88848: (Sim:0h57m1s) 
CPU  1 inst:   70000004 cyc:   71544329 now IPC :0.65693: AVG IPC :0.96367: L2-Pf-HR :0.93402: L2-HR :0.87543: (Sim:0h57m4s) 
CPU  2 inst:   70000004 cyc:   71549548 now IPC :0.65651: AVG IPC :0.96360: L2-Pf-HR :0.95671: L2-HR :0.90364: (Sim:0h57m4s) 
CPU  3 inst:   70000001 cyc:   71583439 now IPC :0.64650: AVG IPC :0.96314: L2-Pf-HR :0.93686: L2-HR :0.86847: (Sim:0h57m5s) 
CPU  0 inst:   71000002 cyc:   72799223 now IPC :0.77597: AVG IPC :0.96076: L2-Pf-HR :0.94200: L2-HR :0.88882: (Sim:0h58m1s) 
CPU  1 inst:   71000002 cyc:   72840628 now IPC :0.77143: AVG IPC :0.96020: L2-Pf-HR :0.93485: L2-HR :0.87580: (Sim:0h58m4s) 
CPU  2 inst:   71000002 cyc:   72860260 now IPC :0.76294: AVG IPC :0.95994: L2-Pf-HR :0.95725: L2-HR :0.90391: (Sim:0h58m5s) 
CPU  3 inst:   71000002 cyc:   72861247 now IPC :0.78259: AVG IPC :0.95993: L2-Pf-HR :0.93758: L2-HR :0.86884: (Sim:0h58m5s) 
CPU  0 inst:   72000001 cyc:   74308201 now IPC :0.66270: AVG IPC :0.95462: L2-Pf-HR :0.94348: L2-HR :0.88954: (Sim:0h59m7s) 
CPU  1 inst:   72000001 cyc:   74308403 now IPC :0.68130: AVG IPC :0.95462: L2-Pf-HR :0.93658: L2-HR :0.87675: (Sim:0h59m7s) 
CPU  2 inst:   72000001 cyc:   74323034 now IPC :0.68363: AVG IPC :0.95443: L2-Pf-HR :0.95825: L2-HR :0.90442: (Sim:0h59m8s) 
CPU  3 inst:   72000001 cyc:   74350467 now IPC :0.67149: AVG IPC :0.95408: L2-Pf-HR :0.93932: L2-HR :0.86986: (Sim:0h59m9s) 
CPU  1 inst:   73000001 cyc:   75684268 now IPC :0.72682: AVG IPC :0.95042: L2-Pf-HR :0.93766: L2-HR :0.87710: (Sim:1h0m10s) 
CPU  0 inst:   73000001 cyc:   75688607 now IPC :0.72442: AVG IPC :0.95037: L2-Pf-HR :0.94445: L2-HR :0.88983: (Sim:1h0m10s) 
CPU  3 inst:   73000001 cyc:   75700551 now IPC :0.74069: AVG IPC :0.95022: L2-Pf-HR :0.94031: L2-HR :0.87009: (Sim:1h0m11s) 
CPU  2 inst:   73000001 cyc:   75703589 now IPC :0.72435: AVG IPC :0.95018: L2-Pf-HR :0.95885: L2-HR :0.90446: (Sim:1h0m11s) 
CPU  3 inst:   74000002 cyc:   77114965 now IPC :0.70701: AVG IPC :0.94570: L2-Pf-HR :0.94119: L2-HR :0.87031: (Sim:1h1m14s) 
CPU  1 inst:   74000002 cyc:   77115484 now IPC :0.69871: AVG IPC :0.94569: L2-Pf-HR :0.93869: L2-HR :0.87742: (Sim:1h1m14s) 
CPU  2 inst:   74000002 cyc:   77115589 now IPC :0.70822: AVG IPC :0.94569: L2-Pf-HR :0.95929: L2-HR :0.90429: (Sim:1h1m14s) 
CPU  0 inst:   74000002 cyc:   77232055 now IPC :0.64790: AVG IPC :0.94425: L2-Pf-HR :0.94547: L2-HR :0.89020: (Sim:1h1m19s) 
CPU  1 inst:   75000000 cyc:   78488640 now IPC :0.72825: AVG IPC :0.94184: L2-Pf-HR :0.94007: L2-HR :0.87798: (Sim:1h2m16s) 
CPU  2 inst:   75000003 cyc:   78553559 now IPC :0.69543: AVG IPC :0.94105: L2-Pf-HR :0.95997: L2-HR :0.90445: (Sim:1h2m20s) 
CPU  3 inst:   75000000 cyc:   78562109 now IPC :0.69101: AVG IPC :0.94095: L2-Pf-HR :0.94260: L2-HR :0.87100: (Sim:1h2m21s) 
CPU  0 inst:   75000003 cyc:   78562441 now IPC :0.75166: AVG IPC :0.94094: L2-Pf-HR :0.94664: L2-HR :0.89068: (Sim:1h2m21s) 
CPU  1 inst:   76000003 cyc:   79961850 now IPC :0.67879: AVG IPC :0.93693: L2-Pf-HR :0.94103: L2-HR :0.87816: (Sim:1h3m22s) 
CPU  2 inst:   76000001 cyc:   79962154 now IPC :0.70993: AVG IPC :0.93693: L2-Pf-HR :0.96073: L2-HR :0.90476: (Sim:1h3m22s) 
CPU  0 inst:   76000001 cyc:   79975858 now IPC :0.70750: AVG IPC :0.93677: L2-Pf-HR :0.94744: L2-HR :0.89076: (Sim:1h3m23s) 
CPU  3 inst:   76000001 cyc:   80087753 now IPC :0.65546: AVG IPC :0.93545: L2-Pf-HR :0.94382: L2-HR :0.87144: (Sim:1h3m28s) 
CPU  3 inst:   77000004 cyc:   81368627 now IPC :0.78072: AVG IPC :0.93298: L2-Pf-HR :0.94433: L2-HR :0.87167: (Sim:1h4m28s) 
CPU  2 inst:   77000004 cyc:   81370619 now IPC :0.70999: AVG IPC :0.93295: L2-Pf-HR :0.96098: L2-HR :0.90473: (Sim:1h4m28s) 
CPU  1 inst:   77000004 cyc:   81371996 now IPC :0.70915: AVG IPC :0.93294: L2-Pf-HR :0.94150: L2-HR :0.87832: (Sim:1h4m28s) 
CPU  0 inst:   77000004 cyc:   81382742 now IPC :0.71079: AVG IPC :0.93281: L2-Pf-HR :0.94777: L2-HR :0.89061: (Sim:1h4m28s) 
CPU  0 inst:   78000004 cyc:   82826430 now IPC :0.69267: AVG IPC :0.92858: L2-Pf-HR :0.94738: L2-HR :0.89039: (Sim:1h5m34s) 
CPU  2 inst:   78000004 cyc:   82826787 now IPC :0.68673: AVG IPC :0.92857: L2-Pf-HR :0.96071: L2-HR :0.90463: (Sim:1h5m34s) 
CPU  1 inst:   78000004 cyc:   82851773 now IPC :0.67578: AVG IPC :0.92829: L2-Pf-HR :0.94096: L2-HR :0.87800: (Sim:1h5m35s) 
CPU  3 inst:   78000004 cyc:   82878180 now IPC :0.66245: AVG IPC :0.92800: L2-Pf-HR :0.94388: L2-HR :0.87145: (Sim:1h5m36s) 
CPU  0 inst:   79000000 cyc:   84309707 now IPC :0.67418: AVG IPC :0.92405: L2-Pf-HR :0.94690: L2-HR :0.89019: (Sim:1h6m39s) 
CPU  2 inst:   79000000 cyc:   84317614 now IPC :0.67077: AVG IPC :0.92396: L2-Pf-HR :0.96043: L2-HR :0.90448: (Sim:1h6m39s) 
CPU  1 inst:   79000000 cyc:   84323127 now IPC :0.67964: AVG IPC :0.92390: L2-Pf-HR :0.94045: L2-HR :0.87768: (Sim:1h6m39s) 
CPU  3 inst:   79000000 cyc:   84337953 now IPC :0.68504: AVG IPC :0.92374: L2-Pf-HR :0.94350: L2-HR :0.87133: (Sim:1h6m40s) 
CPU  1 inst:   80000004 cyc:   85779892 now IPC :0.68646: AVG IPC :0.91982: L2-Pf-HR :0.93979: L2-HR :0.87732: (Sim:1h7m45s) 
CPU  2 inst:   80000004 cyc:   85783814 now IPC :0.68204: AVG IPC :0.91978: L2-Pf-HR :0.96001: L2-HR :0.90416: (Sim:1h7m45s) 
CPU  0 inst:   80000004 cyc:   85788989 now IPC :0.67601: AVG IPC :0.91972: L2-Pf-HR :0.94636: L2-HR :0.89000: (Sim:1h7m46s) 
CPU  3 inst:   80000004 cyc:   85797810 now IPC :0.68500: AVG IPC :0.91963: L2-Pf-HR :0.94290: L2-HR :0.87102: (Sim:1h7m46s) 
CPU  2 inst:   81000004 cyc:   87238595 now IPC :0.68739: AVG IPC :0.91586: L2-Pf-HR :0.95967: L2-HR :0.90386: (Sim:1h8m50s) 
CPU  0 inst:   81000005 cyc:   87246259 now IPC :0.68622: AVG IPC :0.91578: L2-Pf-HR :0.94586: L2-HR :0.88969: (Sim:1h8m50s) 
CPU  3 inst:   81000005 cyc:   87303892 now IPC :0.66398: AVG IPC :0.91517: L2-Pf-HR :0.94241: L2-HR :0.87063: (Sim:1h8m52s) 
CPU  1 inst:   81000005 cyc:   87323424 now IPC :0.64787: AVG IPC :0.91496: L2-Pf-HR :0.93933: L2-HR :0.87702: (Sim:1h8m53s) 
CPU  0 inst:   82000004 cyc:   88750042 now IPC :0.66499: AVG IPC :0.91148: L2-Pf-HR :0.94553: L2-HR :0.88955: (Sim:1h9m53s) 
CPU  1 inst:   82000004 cyc:   88777208 now IPC :0.68786: AVG IPC :0.91120: L2-Pf-HR :0.93887: L2-HR :0.87674: (Sim:1h9m55s) 
CPU  3 inst:   82000004 cyc:   88795982 now IPC :0.67020: AVG IPC :0.91101: L2-Pf-HR :0.94197: L2-HR :0.87030: (Sim:1h9m57s) 
CPU  2 inst:   82000004 cyc:   88804735 now IPC :0.63851: AVG IPC :0.91091: L2-Pf-HR :0.95940: L2-HR :0.90376: (Sim:1h9m57s) 
CPU  0 inst:   83000005 cyc:   89911302 now IPC :0.86113: AVG IPC :0.91082: L2-Pf-HR :0.94543: L2-HR :0.88954: (Sim:1h10m50s) 
CPU  2 inst:   83000002 cyc:   89991156 now IPC :0.84287: AVG IPC :0.91001: L2-Pf-HR :0.95934: L2-HR :0.90378: (Sim:1h10m53s) 
CPU  1 inst:   83000005 cyc:   90028962 now IPC :0.79888: AVG IPC :0.90962: L2-Pf-HR :0.93876: L2-HR :0.87675: (Sim:1h10m54s) 
CPU  3 inst:   83000002 cyc:   90064563 now IPC :0.78828: AVG IPC :0.90926: L2-Pf-HR :0.94175: L2-HR :0.87024: (Sim:1h10m56s) 
CPU  2 inst:   84000002 cyc:   91551505 now IPC :0.64088: AVG IPC :0.90537: L2-Pf-HR :0.95906: L2-HR :0.90368: (Sim:1h11m58s) 
CPU  1 inst:   84000002 cyc:   91557420 now IPC :0.65425: AVG IPC :0.90531: L2-Pf-HR :0.93856: L2-HR :0.87690: (Sim:1h11m59s) 
CPU  0 inst:   84000002 cyc:   91589910 now IPC :0.59573: AVG IPC :0.90499: L2-Pf-HR :0.94520: L2-HR :0.88963: (Sim:1h12m0s) 
CPU  3 inst:   84000005 cyc:   91601054 now IPC :0.65084: AVG IPC :0.90488: L2-Pf-HR :0.94151: L2-HR :0.87039: (Sim:1h12m1s) 
CPU  0 inst:   85000000 cyc:   92928785 now IPC :0.74689: AVG IPC :0.90268: L2-Pf-HR :0.94480: L2-HR :0.88948: (Sim:1h12m44s) 
CPU  2 inst:   85000002 cyc:   92936486 now IPC :0.72203: AVG IPC :0.90261: L2-Pf-HR :0.95877: L2-HR :0.90333: (Sim:1h12m44s) 
CPU  3 inst:   85000004 cyc:   92940421 now IPC :0.74662: AVG IPC :0.90257: L2-Pf-HR :0.94118: L2-HR :0.87006: (Sim:1h12m44s) 
CPU  1 inst:   85000002 cyc:   92942052 now IPC :0.72221: AVG IPC :0.90255: L2-Pf-HR :0.93826: L2-HR :0.87673: (Sim:1h12m44s) 
CPU  1 inst:   86000002 cyc:   94319833 now IPC :0.72580: AVG IPC :0.89994: L2-Pf-HR :0.93789: L2-HR :0.87658: (Sim:1h13m23s) 
CPU  2 inst:   86000005 cyc:   94320408 now IPC :0.72259: AVG IPC :0.89994: L2-Pf-HR :0.95839: L2-HR :0.90302: (Sim:1h13m23s) 
CPU  0 inst:   86000001 cyc:   94333194 now IPC :0.71204: AVG IPC :0.89982: L2-Pf-HR :0.94442: L2-HR :0.88935: (Sim:1h13m23s) 
CPU  3 inst:   86000001 cyc:   94336684 now IPC :0.71620: AVG IPC :0.89979: L2-Pf-HR :0.94073: L2-HR :0.86978: (Sim:1h13m23s) 
CPU  0 inst:   87000002 cyc:   95701316 now IPC :0.73093: AVG IPC :0.89738: L2-Pf-HR :0.94405: L2-HR :0.88920: (Sim:1h14m0s) 
CPU  1 inst:   87000002 cyc:   95755420 now IPC :0.69658: AVG IPC :0.89686: L2-Pf-HR :0.93747: L2-HR :0.87634: (Sim:1h14m1s) 
CPU  2 inst:   87000002 cyc:   95765963 now IPC :0.69177: AVG IPC :0.89676: L2-Pf-HR :0.95802: L2-HR :0.90268: (Sim:1h14m2s) 
CPU  3 inst:   87000003 cyc:   95776380 now IPC :0.69459: AVG IPC :0.89667: L2-Pf-HR :0.94029: L2-HR :0.86950: (Sim:1h14m2s) 
CPU  0 inst:   88000002 cyc:   97167520 now IPC :0.68203: AVG IPC :0.89409: L2-Pf-HR :0.94367: L2-HR :0.88895: (Sim:1h14m40s) 
CPU  2 inst:   88000003 cyc:   97190969 now IPC :0.70175: AVG IPC :0.89388: L2-Pf-HR :0.95782: L2-HR :0.90253: (Sim:1h14m41s) 
CPU  3 inst:   88000003 cyc:   97202832 now IPC :0.70104: AVG IPC :0.89377: L2-Pf-HR :0.94000: L2-HR :0.86914: (Sim:1h14m41s) 
CPU  1 inst:   88000003 cyc:   97234029 now IPC :0.67631: AVG IPC :0.89348: L2-Pf-HR :0.93714: L2-HR :0.87603: (Sim:1h14m42s) 
CPU  1 inst:   89000000 cyc:   98689623 now IPC :0.68700: AVG IPC :0.89040: L2-Pf-HR :0.93737: L2-HR :0.87618: (Sim:1h15m19s) 
CPU  0 inst:   89000000 cyc:   98706156 now IPC :0.64992: AVG IPC :0.89025: L2-Pf-HR :0.94375: L2-HR :0.88892: (Sim:1h15m19s) 
CPU  2 inst:   89000003 cyc:   98723241 now IPC :0.65263: AVG IPC :0.89009: L2-Pf-HR :0.95784: L2-HR :0.90260: (Sim:1h15m20s) 
CPU  3 inst:   89000000 cyc:   98725839 now IPC :0.65659: AVG IPC :0.89007: L2-Pf-HR :0.94010: L2-HR :0.86929: (Sim:1h15m20s) 
CPU  0 inst:   90000000 cyc:  100114555 now IPC :0.71003: AVG IPC :0.88769: L2-Pf-HR :0.94324: L2-HR :0.88874: (Sim:1h15m57s) 
CPU  1 inst:   90000000 cyc:  100121576 now IPC :0.69835: AVG IPC :0.88763: L2-Pf-HR :0.93673: L2-HR :0.87593: (Sim:1h15m58s) 
CPU  2 inst:   90000000 cyc:  100137835 now IPC :0.70691: AVG IPC :0.88748: L2-Pf-HR :0.95753: L2-HR :0.90256: (Sim:1h15m58s) 
CPU  3 inst:   90000000 cyc:  100159553 now IPC :0.69749: AVG IPC :0.88729: L2-Pf-HR :0.93966: L2-HR :0.86923: (Sim:1h15m59s) 
CPU  0 inst:   91000005 cyc:  101421387 now IPC :0.76521: AVG IPC :0.88609: L2-Pf-HR :0.94281: L2-HR :0.88859: (Sim:1h16m57s) 
CPU  2 inst:   91000004 cyc:  101460848 now IPC :0.75585: AVG IPC :0.88575: L2-Pf-HR :0.95725: L2-HR :0.90254: (Sim:1h16m59s) 
CPU  1 inst:   91000005 cyc:  101478379 now IPC :0.73703: AVG IPC :0.88559: L2-Pf-HR :0.93621: L2-HR :0.87575: (Sim:1h17m0s) 
CPU  3 inst:   91000005 cyc:  101514816 now IPC :0.73787: AVG IPC :0.88528: L2-Pf-HR :0.93924: L2-HR :0.86916: (Sim:1h17m1s) 
CPU  2 inst:   92000003 cyc:  102877950 now IPC :0.70566: AVG IPC :0.88324: L2-Pf-HR :0.95698: L2-HR :0.90233: (Sim:1h18m4s) 
CPU  1 inst:   92000003 cyc:  102878135 now IPC :0.71441: AVG IPC :0.88324: L2-Pf-HR :0.93567: L2-HR :0.87547: (Sim:1h18m4s) 
CPU  0 inst:   92000003 cyc:  102878566 now IPC :0.68626: AVG IPC :0.88324: L2-Pf-HR :0.94239: L2-HR :0.88848: (Sim:1h18m4s) 
CPU  3 inst:   92000003 cyc:  102900541 now IPC :0.72164: AVG IPC :0.88305: L2-Pf-HR :0.93881: L2-HR :0.86894: (Sim:1h18m5s) 
CPU  1 inst:   93000003 cyc:  104200789 now IPC :0.75606: AVG IPC :0.88161: L2-Pf-HR :0.93541: L2-HR :0.87523: (Sim:1h19m6s) 
CPU  0 inst:   93000003 cyc:  104212089 now IPC :0.74989: AVG IPC :0.88151: L2-Pf-HR :0.94211: L2-HR :0.88826: (Sim:1h19m6s) 
CPU  3 inst:   93000003 cyc:  104229798 now IPC :0.75230: AVG IPC :0.88137: L2-Pf-HR :0.93853: L2-HR :0.86865: (Sim:1h19m7s) 
CPU  2 inst:   93000003 cyc:  104234008 now IPC :0.73743: AVG IPC :0.88133: L2-Pf-HR :0.95677: L2-HR :0.90206: (Sim:1h19m7s) 
CPU  0 inst:   94000005 cyc:  105544669 now IPC :0.75043: AVG IPC :0.87984: L2-Pf-HR :0.94177: L2-HR :0.88811: (Sim:1h20m8s) 
CPU  1 inst:   94000005 cyc:  105545891 now IPC :0.74344: AVG IPC :0.87983: L2-Pf-HR :0.93496: L2-HR :0.87500: (Sim:1h20m8s) 
CPU  3 inst:   94000005 cyc:  105581605 now IPC :0.73975: AVG IPC :0.87954: L2-Pf-HR :0.93812: L2-HR :0.86833: (Sim:1h20m10s) 
CPU  2 inst:   94000001 cyc:  105592833 now IPC :0.73593: AVG IPC :0.87944: L2-Pf-HR :0.95658: L2-HR :0.90193: (Sim:1h20m10s) 
CPU  1 inst:   95000001 cyc:  106774582 now IPC :0.81387: AVG IPC :0.87907: L2-Pf-HR :0.93495: L2-HR :0.87510: (Sim:1h21m6s) 
CPU  0 inst:   95000001 cyc:  106821236 now IPC :0.78335: AVG IPC :0.87868: L2-Pf-HR :0.94176: L2-HR :0.88818: (Sim:1h21m8s) 
CPU  3 inst:   95000001 cyc:  106831601 now IPC :0.80000: AVG IPC :0.87860: L2-Pf-HR :0.93803: L2-HR :0.86834: (Sim:1h21m8s) 
CPU  2 inst:   95000001 cyc:  106833947 now IPC :0.80573: AVG IPC :0.87857: L2-Pf-HR :0.95660: L2-HR :0.90201: (Sim:1h21m8s) 
CPU  0 inst:   96000002 cyc:  108046313 now IPC :0.81628: AVG IPC :0.87797: L2-Pf-HR :0.94221: L2-HR :0.88837: (Sim:1h22m7s) 
CPU  1 inst:   96000004 cyc:  108058035 now IPC :0.77915: AVG IPC :0.87787: L2-Pf-HR :0.93553: L2-HR :0.87542: (Sim:1h22m7s) 
CPU  2 inst:   96000002 cyc:  108059263 now IPC :0.81612: AVG IPC :0.87786: L2-Pf-HR :0.95685: L2-HR :0.90205: (Sim:1h22m7s) 
CPU  3 inst:   96000000 cyc:  108068381 now IPC :0.80855: AVG IPC :0.87779: L2-Pf-HR :0.93855: L2-HR :0.86868: (Sim:1h22m8s) 
CPU  3 inst:   97000003 cyc:  109304350 now IPC :0.80908: AVG IPC :0.87701: L2-Pf-HR :0.93915: L2-HR :0.86881: (Sim:1h23m6s) 
CPU  0 inst:   97000003 cyc:  109324698 now IPC :0.78224: AVG IPC :0.87684: L2-Pf-HR :0.94283: L2-HR :0.88853: (Sim:1h23m7s) 
CPU  2 inst:   97000003 cyc:  109339065 now IPC :0.78137: AVG IPC :0.87672: L2-Pf-HR :0.95723: L2-HR :0.90204: (Sim:1h23m8s) 
CPU  1 inst:   97000003 cyc:  109350172 now IPC :0.77391: AVG IPC :0.87663: L2-Pf-HR :0.93622: L2-HR :0.87557: (Sim:1h23m9s) 
CPU  0 inst:   98000001 cyc:  110440763 now IPC :0.89600: AVG IPC :0.87703: L2-Pf-HR :0.94354: L2-HR :0.88876: (Sim:1h24m5s) 
CPU  1 inst:   98000001 cyc:  110443613 now IPC :0.91454: AVG IPC :0.87701: L2-Pf-HR :0.93703: L2-HR :0.87590: (Sim:1h24m5s) 
CPU  3 inst:   98000001 cyc:  110446760 now IPC :0.87534: AVG IPC :0.87699: L2-Pf-HR :0.93979: L2-HR :0.86897: (Sim:1h24m5s) 
CPU  2 inst:   98000001 cyc:  110452308 now IPC :0.89827: AVG IPC :0.87694: L2-Pf-HR :0.95758: L2-HR :0.90196: (Sim:1h24m5s) 
CPU  0 inst:   99000001 cyc:  111567266 now IPC :0.88770: AVG IPC :0.87714: L2-Pf-HR :0.94398: L2-HR :0.88894: (Sim:1h25m1s) 
CPU  1 inst:   99000001 cyc:  111568702 now IPC :0.88882: AVG IPC :0.87713: L2-Pf-HR :0.93749: L2-HR :0.87610: (Sim:1h25m1s) 
CPU  2 inst:   99000001 cyc:  111577373 now IPC :0.88884: AVG IPC :0.87706: L2-Pf-HR :0.95781: L2-HR :0.90196: (Sim:1h25m2s) 
CPU  3 inst:   99000001 cyc:  111579517 now IPC :0.88280: AVG IPC :0.87705: L2-Pf-HR :0.94023: L2-HR :0.86908: (Sim:1h25m2s) 
CPU  1 inst:  100000001 cyc:  112664647 now IPC :0.91245: AVG IPC :0.87748: L2-Pf-HR :0.93839: L2-HR :0.87648: (Sim:1h25m56s) 
CPU  3 inst:  100000001 cyc:  112679737 now IPC :0.90891: AVG IPC :0.87736: L2-Pf-HR :0.94097: L2-HR :0.86930: (Sim:1h25m57s) 
CPU  2 inst:  100000001 cyc:  112681273 now IPC :0.90588: AVG IPC :0.87735: L2-Pf-HR :0.95847: L2-HR :0.90234: (Sim:1h25m57s) 
CPU  0 inst:  100000001 cyc:  112698858 now IPC :0.88371: AVG IPC :0.87721: L2-Pf-HR :0.94465: L2-HR :0.88910: (Sim:1h25m58s) 
CPU  1 inst:  101000005 cyc:  114053941 now IPC :0.71979: AVG IPC :0.87554: L2-Pf-HR :0.93896: L2-HR :0.87666: (Sim:1h26m57s) 
CPU  3 inst:  101000005 cyc:  114094833 now IPC :0.70667: AVG IPC :0.87523: L2-Pf-HR :0.94153: L2-HR :0.86962: (Sim:1h26m59s) 
CPU  0 inst:  101000005 cyc:  114096131 now IPC :0.71568: AVG IPC :0.87521: L2-Pf-HR :0.94498: L2-HR :0.88909: (Sim:1h26m59s) 
CPU  2 inst:  101000005 cyc:  114112464 now IPC :0.69872: AVG IPC :0.87509: L2-Pf-HR :0.95873: L2-HR :0.90246: (Sim:1h27m0s) 
CPU  1 inst:  102000005 cyc:  115321012 now IPC :0.78922: AVG IPC :0.87458: L2-Pf-HR :0.93862: L2-HR :0.87645: (Sim:1h27m58s) 
CPU  3 inst:  102000001 cyc:  115331139 now IPC :0.80886: AVG IPC :0.87451: L2-Pf-HR :0.94127: L2-HR :0.86956: (Sim:1h27m59s) 
CPU  2 inst:  102000005 cyc:  115332942 now IPC :0.81935: AVG IPC :0.87449: L2-Pf-HR :0.95858: L2-HR :0.90242: (Sim:1h27m59s) 
CPU  0 inst:  102000005 cyc:  115348382 now IPC :0.79856: AVG IPC :0.87437: L2-Pf-HR :0.94466: L2-HR :0.88898: (Sim:1h28m0s) 
CPU  2 inst:  103000005 cyc:  116684068 now IPC :0.74012: AVG IPC :0.87292: L2-Pf-HR :0.95831: L2-HR :0.90236: (Sim:1h29m1s) 
CPU  3 inst:  103000005 cyc:  116685566 now IPC :0.73832: AVG IPC :0.87291: L2-Pf-HR :0.94094: L2-HR :0.86946: (Sim:1h29m1s) 
CPU  1 inst:  103000003 cyc:  116695484 now IPC :0.72755: AVG IPC :0.87284: L2-Pf-HR :0.93812: L2-HR :0.87626: (Sim:1h29m2s) 
CPU  0 inst:  103000001 cyc:  116700093 now IPC :0.73980: AVG IPC :0.87280: L2-Pf-HR :0.94424: L2-HR :0.88880: (Sim:1h29m2s) 
CPU  3 inst:  104000000 cyc:  118057477 now IPC :0.72891: AVG IPC :0.87123: L2-Pf-HR :0.94065: L2-HR :0.86930: (Sim:1h30m4s) 
CPU  1 inst:  104000000 cyc:  118060099 now IPC :0.73281: AVG IPC :0.87120: L2-Pf-HR :0.93776: L2-HR :0.87605: (Sim:1h30m4s) 
CPU  0 inst:  104000000 cyc:  118080605 now IPC :0.72437: AVG IPC :0.87105: L2-Pf-HR :0.94393: L2-HR :0.88871: (Sim:1h30m5s) 
CPU  2 inst:  104000000 cyc:  118097258 now IPC :0.70762: AVG IPC :0.87093: L2-Pf-HR :0.95804: L2-HR :0.90214: (Sim:1h30m6s) 
CPU  1 inst:  105000001 cyc:  119443992 now IPC :0.72260: AVG IPC :0.86947: L2-Pf-HR :0.93740: L2-HR :0.87583: (Sim:1h31m8s) 
CPU  3 inst:  105000001 cyc:  119467219 now IPC :0.70935: AVG IPC :0.86930: L2-Pf-HR :0.94028: L2-HR :0.86897: (Sim:1h31m9s) 
CPU  0 inst:  105000001 cyc:  119473571 now IPC :0.71789: AVG IPC :0.86925: L2-Pf-HR :0.94351: L2-HR :0.88849: (Sim:1h31m9s) 
CPU  2 inst:  105000005 cyc:  119482972 now IPC :0.72165: AVG IPC :0.86918: L2-Pf-HR :0.95777: L2-HR :0.90191: (Sim:1h31m10s) 
CPU  0 inst:  106000003 cyc:  120810740 now IPC :0.74785: AVG IPC :0.86790: L2-Pf-HR :0.94318: L2-HR :0.88837: (Sim:1h32m8s) 
CPU  3 inst:  106000003 cyc:  120889043 now IPC :0.70332: AVG IPC :0.86733: L2-Pf-HR :0.93993: L2-HR :0.86870: (Sim:1h32m12s) 
CPU  1 inst:  106000003 cyc:  120925290 now IPC :0.67508: AVG IPC :0.86707: L2-Pf-HR :0.93696: L2-HR :0.87559: (Sim:1h32m14s) 
CPU  2 inst:  106000003 cyc:  120936433 now IPC :0.68801: AVG IPC :0.86699: L2-Pf-HR :0.95754: L2-HR :0.90180: (Sim:1h32m14s) 
CPU  0 inst:  107000000 cyc:  122173625 now IPC :0.73374: AVG IPC :0.86639: L2-Pf-HR :0.94314: L2-HR :0.88837: (Sim:1h33m11s) 
CPU  1 inst:  107000000 cyc:  122174596 now IPC :0.80044: AVG IPC :0.86638: L2-Pf-HR :0.93697: L2-HR :0.87564: (Sim:1h33m11s) 
CPU  2 inst:  107000000 cyc:  122179549 now IPC :0.80443: AVG IPC :0.86634: L2-Pf-HR :0.95759: L2-HR :0.90189: (Sim:1h33m12s) 
CPU  3 inst:  107000000 cyc:  122183025 now IPC :0.77281: AVG IPC :0.86632: L2-Pf-HR :0.93983: L2-HR :0.86866: (Sim:1h33m12s) 
CPU  2 inst:  108000003 cyc:  123482406 now IPC :0.76755: AVG IPC :0.86529: L2-Pf-HR :0.95736: L2-HR :0.90173: (Sim:1h34m13s) 
CPU  0 inst:  108000003 cyc:  123489792 now IPC :0.75978: AVG IPC :0.86524: L2-Pf-HR :0.94283: L2-HR :0.88829: (Sim:1h34m13s) 
CPU  1 inst:  108000003 cyc:  123493500 now IPC :0.75821: AVG IPC :0.86522: L2-Pf-HR :0.93666: L2-HR :0.87566: (Sim:1h34m13s) 
CPU  3 inst:  108000003 cyc:  123512295 now IPC :0.75229: AVG IPC :0.86509: L2-Pf-HR :0.93954: L2-HR :0.86863: (Sim:1h34m14s) 
CPU  3 inst:  109000003 cyc:  124883823 now IPC :0.72911: AVG IPC :0.86358: L2-Pf-HR :0.93934: L2-HR :0.86851: (Sim:1h35m16s) 
CPU  0 inst:  109000003 cyc:  124915538 now IPC :0.70139: AVG IPC :0.86336: L2-Pf-HR :0.94253: L2-HR :0.88817: (Sim:1h35m17s) 
CPU  1 inst:  109000003 cyc:  124926727 now IPC :0.69773: AVG IPC :0.86328: L2-Pf-HR :0.93637: L2-HR :0.87556: (Sim:1h35m18s) 
CPU  2 inst:  109000003 cyc:  124954626 now IPC :0.67925: AVG IPC :0.86308: L2-Pf-HR :0.95712: L2-HR :0.90152: (Sim:1h35m19s) 
CPU  0 inst:  110000003 cyc:  126288013 now IPC :0.72861: AVG IPC :0.86188: L2-Pf-HR :0.94233: L2-HR :0.88810: (Sim:1h36m19s) 
CPU  1 inst:  110000003 cyc:  126302704 now IPC :0.72676: AVG IPC :0.86178: L2-Pf-HR :0.93619: L2-HR :0.87542: (Sim:1h36m20s) 
CPU  2 inst:  110000003 cyc:  126310228 now IPC :0.73768: AVG IPC :0.86173: L2-Pf-HR :0.95689: L2-HR :0.90127: (Sim:1h36m21s) 
CPU  3 inst:  110000003 cyc:  126333216 now IPC :0.68994: AVG IPC :0.86157: L2-Pf-HR :0.93907: L2-HR :0.86832: (Sim:1h36m21s) 
CPU  0 inst:  111000000 cyc:  127634472 now IPC :0.74269: AVG IPC :0.86061: L2-Pf-HR :0.94215: L2-HR :0.88799: (Sim:1h37m21s) 
CPU  1 inst:  111000000 cyc:  127678608 now IPC :0.72679: AVG IPC :0.86031: L2-Pf-HR :0.93598: L2-HR :0.87528: (Sim:1h37m23s) 
CPU  2 inst:  111000000 cyc:  127708846 now IPC :0.71499: AVG IPC :0.86011: L2-Pf-HR :0.95667: L2-HR :0.90105: (Sim:1h37m24s) 
CPU  3 inst:  111000000 cyc:  127740981 now IPC :0.71034: AVG IPC :0.85989: L2-Pf-HR :0.93890: L2-HR :0.86815: (Sim:1h37m26s) 
CPU  1 inst:  112000003 cyc:  129126699 now IPC :0.69057: AVG IPC :0.85840: L2-Pf-HR :0.93584: L2-HR :0.87509: (Sim:1h38m27s) 
CPU  2 inst:  112000000 cyc:  129139737 now IPC :0.69887: AVG IPC :0.85831: L2-Pf-HR :0.95660: L2-HR :0.90093: (Sim:1h38m28s) 
CPU  0 inst:  112000000 cyc:  129188633 now IPC :0.64343: AVG IPC :0.85798: L2-Pf-HR :0.94195: L2-HR :0.88781: (Sim:1h38m30s) 
CPU  3 inst:  112000003 cyc:  129198998 now IPC :0.68587: AVG IPC :0.85792: L2-Pf-HR :0.93870: L2-HR :0.86789: (Sim:1h38m30s) 
CPU  1 inst:  113000002 cyc:  130749008 now IPC :0.61640: AVG IPC :0.85537: L2-Pf-HR :0.93636: L2-HR :0.87531: (Sim:1h39m33s) 
CPU  3 inst:  113000003 cyc:  130783167 now IPC :0.63125: AVG IPC :0.85515: L2-Pf-HR :0.93925: L2-HR :0.86820: (Sim:1h39m34s) 
CPU  0 inst:  113000003 cyc:  130796357 now IPC :0.62200: AVG IPC :0.85506: L2-Pf-HR :0.94232: L2-HR :0.88786: (Sim:1h39m35s) 
CPU  2 inst:  113000002 cyc:  130839193 now IPC :0.58842: AVG IPC :0.85478: L2-Pf-HR :0.95687: L2-HR :0.90105: (Sim:1h39m37s) 
CPU  1 inst:  114000004 cyc:  132108303 now IPC :0.73568: AVG IPC :0.85413: L2-Pf-HR :0.93594: L2-HR :0.87511: (Sim:1h40m36s) 
CPU  0 inst:  114000000 cyc:  132111355 now IPC :0.76046: AVG IPC :0.85411: L2-Pf-HR :0.94200: L2-HR :0.88770: (Sim:1h40m36s) 
CPU  2 inst:  114000001 cyc:  132130363 now IPC :0.77449: AVG IPC :0.85399: L2-Pf-HR :0.95670: L2-HR :0.90101: (Sim:1h40m37s) 
CPU  3 inst:  114000001 cyc:  132137468 now IPC :0.73839: AVG IPC :0.85394: L2-Pf-HR :0.93894: L2-HR :0.86812: (Sim:1h40m37s) 
CPU  0 inst:  115000001 cyc:  133470993 now IPC :0.73549: AVG IPC :0.85289: L2-Pf-HR :0.94166: L2-HR :0.88757: (Sim:1h41m37s) 
CPU  1 inst:  115000001 cyc:  133488019 now IPC :0.72478: AVG IPC :0.85278: L2-Pf-HR :0.93559: L2-HR :0.87498: (Sim:1h41m38s) 
CPU  2 inst:  115000001 cyc:  133503751 now IPC :0.72813: AVG IPC :0.85268: L2-Pf-HR :0.95647: L2-HR :0.90097: (Sim:1h41m39s) 
CPU  3 inst:  115000001 cyc:  133571516 now IPC :0.69733: AVG IPC :0.85225: L2-Pf-HR :0.93861: L2-HR :0.86802: (Sim:1h41m42s) 
CPU  0 inst:  116000004 cyc:  134936141 now IPC :0.68253: AVG IPC :0.85103: L2-Pf-HR :0.94137: L2-HR :0.88752: (Sim:1h42m41s) 
CPU  3 inst:  116000004 cyc:  134992184 now IPC :0.70390: AVG IPC :0.85068: L2-Pf-HR :0.93822: L2-HR :0.86790: (Sim:1h42m44s) 
CPU  2 inst:  116000004 cyc:  135013305 now IPC :0.66245: AVG IPC :0.85054: L2-Pf-HR :0.95621: L2-HR :0.90083: (Sim:1h42m45s) 
CPU  1 inst:  116000004 cyc:  135035988 now IPC :0.64601: AVG IPC :0.85040: L2-Pf-HR :0.93515: L2-HR :0.87477: (Sim:1h42m46s) 
CPU  0 inst:  117000001 cyc:  136379880 now IPC :0.69264: AVG IPC :0.84934: L2-Pf-HR :0.94126: L2-HR :0.88735: (Sim:1h43m47s) 
CPU  3 inst:  117000001 cyc:  136424599 now IPC :0.69812: AVG IPC :0.84906: L2-Pf-HR :0.93798: L2-HR :0.86763: (Sim:1h43m49s) 
CPU  1 inst:  117000001 cyc:  136453055 now IPC :0.70568: AVG IPC :0.84888: L2-Pf-HR :0.93501: L2-HR :0.87461: (Sim:1h43m50s) 
CPU  2 inst:  117000001 cyc:  136470348 now IPC :0.68632: AVG IPC :0.84877: L2-Pf-HR :0.95609: L2-HR :0.90065: (Sim:1h43m51s) 
CPU  1 inst:  118000002 cyc:  137845660 now IPC :0.71808: AVG IPC :0.84755: L2-Pf-HR :0.93469: L2-HR :0.87443: (Sim:1h44m52s) 
CPU  2 inst:  118000002 cyc:  137846906 now IPC :0.72645: AVG IPC :0.84754: L2-Pf-HR :0.95588: L2-HR :0.90055: (Sim:1h44m52s) 
CPU  0 inst:  118000002 cyc:  137852633 now IPC :0.67900: AVG IPC :0.84751: L2-Pf-HR :0.94094: L2-HR :0.88722: (Sim:1h44m53s) 
CPU  3 inst:  118000002 cyc:  137913239 now IPC :0.67175: AVG IPC :0.84714: L2-Pf-HR :0.93763: L2-HR :0.86739: (Sim:1h44m56s) 
CPU  3 inst:  119000005 cyc:  139124142 now IPC :0.82583: AVG IPC :0.84695: L2-Pf-HR :0.93764: L2-HR :0.86748: (Sim:1h45m50s) 
CPU  1 inst:  119000005 cyc:  139146106 now IPC :0.76897: AVG IPC :0.84681: L2-Pf-HR :0.93480: L2-HR :0.87458: (Sim:1h45m52s) 
CPU  2 inst:  119000005 cyc:  139155758 now IPC :0.76403: AVG IPC :0.84675: L2-Pf-HR :0.95597: L2-HR :0.90068: (Sim:1h45m53s) 
CPU  0 inst:  119000005 cyc:  139193310 now IPC :0.74589: AVG IPC :0.84652: L2-Pf-HR :0.94107: L2-HR :0.88730: (Sim:1h45m55s) 
CPU  0 inst:  120000005 cyc:  140534106 now IPC :0.74583: AVG IPC :0.84555: L2-Pf-HR :0.94092: L2-HR :0.88720: (Sim:1h46m56s) 
CPU  1 inst:  120000005 cyc:  140546230 now IPC :0.71422: AVG IPC :0.84548: L2-Pf-HR :0.93472: L2-HR :0.87453: (Sim:1h46m56s) 
CPU  3 inst:  120000000 cyc:  140570818 now IPC :0.69124: AVG IPC :0.84534: L2-Pf-HR :0.93753: L2-HR :0.86736: (Sim:1h46m57s) 
CPU  2 inst:  120000005 cyc:  140573677 now IPC :0.70526: AVG IPC :0.84531: L2-Pf-HR :0.95586: L2-HR :0.90048: (Sim:1h46m57s) 
CPU  0 inst:  121000002 cyc:  141912467 now IPC :0.72550: AVG IPC :0.84438: L2-Pf-HR :0.94074: L2-HR :0.88710: (Sim:1h47m57s) 
CPU  1 inst:  121000002 cyc:  141955304 now IPC :0.70968: AVG IPC :0.84412: L2-Pf-HR :0.93453: L2-HR :0.87445: (Sim:1h47m59s) 
CPU  3 inst:  121000005 cyc:  141961113 now IPC :0.71928: AVG IPC :0.84409: L2-Pf-HR :0.93727: L2-HR :0.86718: (Sim:1h48m0s) 
CPU  2 inst:  121000005 cyc:  141979311 now IPC :0.71142: AVG IPC :0.84398: L2-Pf-HR :0.95569: L2-HR :0.90029: (Sim:1h48m0s) 
CPU  1 inst:  122000002 cyc:  143388686 now IPC :0.69765: AVG IPC :0.84265: L2-Pf-HR :0.93437: L2-HR :0.87432: (Sim:1h49m4s) 
CPU  3 inst:  122000005 cyc:  143388851 now IPC :0.70041: AVG IPC :0.84265: L2-Pf-HR :0.93703: L2-HR :0.86703: (Sim:1h49m4s) 
CPU  2 inst:  122000002 cyc:  143392397 now IPC :0.70767: AVG IPC :0.84263: L2-Pf-HR :0.95549: L2-HR :0.90009: (Sim:1h49m4s) 
CPU  0 inst:  122000002 cyc:  143405694 now IPC :0.66969: AVG IPC :0.84255: L2-Pf-HR :0.94063: L2-HR :0.88703: (Sim:1h49m5s) 
CPU  1 inst:  123000005 cyc:  144780090 now IPC :0.71870: AVG IPC :0.84145: L2-Pf-HR :0.93423: L2-HR :0.87422: (Sim:1h50m7s) 
CPU  0 inst:  123000005 cyc:  144786004 now IPC :0.72448: AVG IPC :0.84142: L2-Pf-HR :0.94055: L2-HR :0.88698: (Sim:1h50m7s) 
CPU  2 inst:  123000005 cyc:  144802141 now IPC :0.70935: AVG IPC :0.84132: L2-Pf-HR :0.95537: L2-HR :0.89991: (Sim:1h50m8s) 
CPU  3 inst:  123000005 cyc:  144807316 now IPC :0.70499: AVG IPC :0.84129: L2-Pf-HR :0.93687: L2-HR :0.86688: (Sim:1h50m8s) 
CPU  0 inst:  124000000 cyc:  146198850 now IPC :0.70779: AVG IPC :0.84012: L2-Pf-HR :0.94038: L2-HR :0.88690: (Sim:1h51m11s) 
CPU  2 inst:  124000002 cyc:  146203467 now IPC :0.71361: AVG IPC :0.84009: L2-Pf-HR :0.95531: L2-HR :0.89987: (Sim:1h51m11s) 
CPU  3 inst:  124000005 cyc:  146205393 now IPC :0.71527: AVG IPC :0.84008: L2-Pf-HR :0.93677: L2-HR :0.86676: (Sim:1h51m11s) 
CPU  1 inst:  124000000 cyc:  146227404 now IPC :0.69093: AVG IPC :0.83995: L2-Pf-HR :0.93415: L2-HR :0.87412: (Sim:1h51m11s) 
CPU  0 inst:  125000000 cyc:  147521679 now IPC :0.75596: AVG IPC :0.83936: L2-Pf-HR :0.94028: L2-HR :0.88683: (Sim:1h52m6s) 
CPU  1 inst:  125000001 cyc:  147640198 now IPC :0.70782: AVG IPC :0.83868: L2-Pf-HR :0.93400: L2-HR :0.87395: (Sim:1h52m12s) 
CPU  2 inst:  125000000 cyc:  147664106 now IPC :0.68463: AVG IPC :0.83854: L2-Pf-HR :0.95523: L2-HR :0.89976: (Sim:1h52m13s) 
CPU  3 inst:  125000004 cyc:  147717047 now IPC :0.66153: AVG IPC :0.83824: L2-Pf-HR :0.93670: L2-HR :0.86662: (Sim:1h52m16s) 
CPU  0 inst:  126000002 cyc:  148655018 now IPC :0.88235: AVG IPC :0.83969: L2-Pf-HR :0.93969: L2-HR :0.88637: (Sim:1h53m0s) 
CPU  3 inst:  126000002 cyc:  148964072 now IPC :0.80191: AVG IPC :0.83793: L2-Pf-HR :0.93598: L2-HR :0.86612: (Sim:1h53m14s) 
CPU  2 inst:  126000002 cyc:  148990563 now IPC :0.75389: AVG IPC :0.83778: L2-Pf-HR :0.95487: L2-HR :0.89956: (Sim:1h53m15s) 
CPU  1 inst:  126000002 cyc:  148995303 now IPC :0.73795: AVG IPC :0.83776: L2-Pf-HR :0.93338: L2-HR :0.87349: (Sim:1h53m15s) 
CPU  0 inst:  127000001 cyc:  149631512 now IPC :1.02407: AVG IPC :0.84090: L2-Pf-HR :0.93925: L2-HR :0.88604: (Sim:1h53m46s) 
CPU  1 inst:  127000001 cyc:  150279074 now IPC :0.77895: AVG IPC :0.83725: L2-Pf-HR :0.93286: L2-HR :0.87311: (Sim:1h54m16s) 
CPU  2 inst:  127000000 cyc:  150288288 now IPC :0.77058: AVG IPC :0.83720: L2-Pf-HR :0.95466: L2-HR :0.89949: (Sim:1h54m17s) 
CPU  3 inst:  127000000 cyc:  150291045 now IPC :0.75359: AVG IPC :0.83719: L2-Pf-HR :0.93551: L2-HR :0.86573: (Sim:1h54m17s) 
CPU  0 inst:  128000002 cyc:  150899447 now IPC :0.78868: AVG IPC :0.84045: L2-Pf-HR :0.93870: L2-HR :0.88574: (Sim:1h54m46s) 
CPU  1 inst:  128000005 cyc:  151520143 now IPC :0.80576: AVG IPC :0.83699: L2-Pf-HR :0.93236: L2-HR :0.87275: (Sim:1h55m15s) 
CPU  3 inst:  128000005 cyc:  151534211 now IPC :0.80440: AVG IPC :0.83691: L2-Pf-HR :0.93514: L2-HR :0.86540: (Sim:1h55m15s) 
CPU  2 inst:  128000002 cyc:  151539592 now IPC :0.79917: AVG IPC :0.83688: L2-Pf-HR :0.95447: L2-HR :0.89939: (Sim:1h55m16s) 
CPU  0 inst:  129000005 cyc:  152696752 now IPC :0.55639: AVG IPC :0.83709: L2-Pf-HR :0.93891: L2-HR :0.88563: (Sim:1h56m0s) 
CPU  1 inst:  129000002 cyc:  152995197 now IPC :0.67794: AVG IPC :0.83545: L2-Pf-HR :0.93234: L2-HR :0.87254: (Sim:1h56m19s) 
CPU  2 inst:  129000005 cyc:  153053050 now IPC :0.66074: AVG IPC :0.83513: L2-Pf-HR :0.95450: L2-HR :0.89930: (Sim:1h56m22s) 
CPU  3 inst:  129000005 cyc:  153093564 now IPC :0.64129: AVG IPC :0.83491: L2-Pf-HR :0.93514: L2-HR :0.86519: (Sim:1h56m24s) 
CPU  0 inst:  130000000 cyc:  153555860 now IPC :1.16399: AVG IPC :0.83893: L2-Pf-HR :0.93885: L2-HR :0.88561: (Sim:1h56m47s) 
CPU  1 inst:  130000000 cyc:  154048185 now IPC :0.94968: AVG IPC :0.83623: L2-Pf-HR :0.93229: L2-HR :0.87242: (Sim:1h57m11s) 
CPU  2 inst:  130000000 cyc:  154503035 now IPC :0.68966: AVG IPC :0.83375: L2-Pf-HR :0.95465: L2-HR :0.89929: (Sim:1h57m35s) 
CPU  3 inst:  130000000 cyc:  154522904 now IPC :0.69962: AVG IPC :0.83365: L2-Pf-HR :0.93524: L2-HR :0.86516: (Sim:1h57m36s) 
CPU  0 inst:  131000003 cyc:  154840026 now IPC :0.77872: AVG IPC :0.83843: L2-Pf-HR :0.93889: L2-HR :0.88551: (Sim:1h57m51s) 
CPU  1 inst:  131000003 cyc:  155223966 now IPC :0.85050: AVG IPC :0.83634: L2-Pf-HR :0.93215: L2-HR :0.87232: (Sim:1h58m10s) 
CPU  2 inst:  131000003 cyc:  155782012 now IPC :0.78188: AVG IPC :0.83333: L2-Pf-HR :0.95463: L2-HR :0.89929: (Sim:1h58m36s) 
CPU  3 inst:  131000002 cyc:  155996745 now IPC :0.67850: AVG IPC :0.83217: L2-Pf-HR :0.93521: L2-HR :0.86516: (Sim:1h58m46s) 
CPU  0 inst:  132000005 cyc:  156270998 now IPC :0.69883: AVG IPC :0.83714: L2-Pf-HR :0.93894: L2-HR :0.88552: (Sim:1h59m0s) 
CPU  1 inst:  132000005 cyc:  156314142 now IPC :0.91728: AVG IPC :0.83691: L2-Pf-HR :0.93215: L2-HR :0.87221: (Sim:1h59m2s) 
CPU  2 inst:  132000005 cyc:  157353706 now IPC :0.63626: AVG IPC :0.83135: L2-Pf-HR :0.95472: L2-HR :0.89916: (Sim:1h59m51s) 
CPU  3 inst:  132000005 cyc:  157382431 now IPC :0.72167: AVG IPC :0.83120: L2-Pf-HR :0.93536: L2-HR :0.86512: (Sim:1h59m52s) 
CPU  0 inst:  133000000 cyc:  157731689 now IPC :0.68460: AVG IPC :0.83572: L2-Pf-HR :0.93906: L2-HR :0.88547: (Sim:2h0m7s) 
CPU  1 inst:  133000000 cyc:  157754746 now IPC :0.69415: AVG IPC :0.83560: L2-Pf-HR :0.93221: L2-HR :0.87212: (Sim:2h0m9s) 
CPU  2 inst:  133000000 cyc:  158773376 now IPC :0.70439: AVG IPC :0.83020: L2-Pf-HR :0.95457: L2-HR :0.89901: (Sim:2h0m55s) 
CPU  3 inst:  133000000 cyc:  158819483 now IPC :0.69587: AVG IPC :0.82996: L2-Pf-HR :0.93507: L2-HR :0.86490: (Sim:2h0m57s) 
CPU  0 inst:  134000005 cyc:  159155569 now IPC :0.70231: AVG IPC :0.83452: L2-Pf-HR :0.93899: L2-HR :0.88536: (Sim:2h1m12s) 
CPU  1 inst:  134000004 cyc:  159161513 now IPC :0.71085: AVG IPC :0.83449: L2-Pf-HR :0.93213: L2-HR :0.87196: (Sim:2h1m12s) 
CPU  2 inst:  134000004 cyc:  160024324 now IPC :0.79940: AVG IPC :0.82996: L2-Pf-HR :0.95459: L2-HR :0.89910: (Sim:2h1m50s) 
CPU  3 inst:  134000005 cyc:  160076799 now IPC :0.79535: AVG IPC :0.82969: L2-Pf-HR :0.93500: L2-HR :0.86486: (Sim:2h1m54s) 
CPU  0 inst:  135000002 cyc:  160474614 now IPC :0.75812: AVG IPC :0.83389: L2-Pf-HR :0.93939: L2-HR :0.88556: (Sim:2h2m14s) 
CPU  1 inst:  135000002 cyc:  160509714 now IPC :0.74173: AVG IPC :0.83370: L2-Pf-HR :0.93269: L2-HR :0.87230: (Sim:2h2m16s) 
CPU  3 inst:  135000002 cyc:  161495700 now IPC :0.70477: AVG IPC :0.82859: L2-Pf-HR :0.93534: L2-HR :0.86498: (Sim:2h3m1s) 
CPU  2 inst:  135000002 cyc:  161516348 now IPC :0.67023: AVG IPC :0.82848: L2-Pf-HR :0.95492: L2-HR :0.89925: (Sim:2h3m3s) 
CPU  0 inst:  136000000 cyc:  161769206 now IPC :0.77244: AVG IPC :0.83339: L2-Pf-HR :0.93943: L2-HR :0.88563: (Sim:2h3m14s) 
CPU  1 inst:  136000000 cyc:  161836007 now IPC :0.75398: AVG IPC :0.83305: L2-Pf-HR :0.93272: L2-HR :0.87237: (Sim:2h3m17s) 
CPU  3 inst:  136000000 cyc:  162848635 now IPC :0.73913: AVG IPC :0.82784: L2-Pf-HR :0.93581: L2-HR :0.86510: (Sim:2h4m4s) 
CPU  2 inst:  136000000 cyc:  162879861 now IPC :0.73340: AVG IPC :0.82768: L2-Pf-HR :0.95518: L2-HR :0.89921: (Sim:2h4m5s) 
CPU  1 inst:  137000001 cyc:  163195874 now IPC :0.73537: AVG IPC :0.83223: L2-Pf-HR :0.93281: L2-HR :0.87238: (Sim:2h4m20s) 
CPU  0 inst:  137000003 cyc:  163236069 now IPC :0.68173: AVG IPC :0.83202: L2-Pf-HR :0.93947: L2-HR :0.88560: (Sim:2h4m22s) 
CPU  2 inst:  137000003 cyc:  164305895 now IPC :0.70125: AVG IPC :0.82657: L2-Pf-HR :0.95517: L2-HR :0.89900: (Sim:2h5m10s) 
CPU  3 inst:  137000003 cyc:  164363111 now IPC :0.66030: AVG IPC :0.82628: L2-Pf-HR :0.93565: L2-HR :0.86486: (Sim:2h5m12s) 
CPU  0 inst:  138000005 cyc:  164688320 now IPC :0.68859: AVG IPC :0.83075: L2-Pf-HR :0.93947: L2-HR :0.88556: (Sim:2h5m27s) 
CPU  1 inst:  138000005 cyc:  164710631 now IPC :0.66017: AVG IPC :0.83064: L2-Pf-HR :0.93285: L2-HR :0.87236: (Sim:2h5m28s) 
CPU  3 inst:  138000005 cyc:  165770848 now IPC :0.71036: AVG IPC :0.82529: L2-Pf-HR :0.93560: L2-HR :0.86473: (Sim:2h6m16s) 
CPU  2 inst:  138000005 cyc:  165859415 now IPC :0.64370: AVG IPC :0.82485: L2-Pf-HR :0.95524: L2-HR :0.89886: (Sim:2h6m21s) 
CPU  0 inst:  139000000 cyc:  166245606 now IPC :0.64214: AVG IPC :0.82897: L2-Pf-HR :0.93959: L2-HR :0.88554: (Sim:2h6m37s) 
CPU  1 inst:  139000000 cyc:  166289912 now IPC :0.63320: AVG IPC :0.82875: L2-Pf-HR :0.93296: L2-HR :0.87222: (Sim:2h6m38s) 
CPU  2 inst:  139000000 cyc:  167322859 now IPC :0.68332: AVG IPC :0.82360: L2-Pf-HR :0.95513: L2-HR :0.89868: (Sim:2h7m25s) 
CPU  3 inst:  139000000 cyc:  167323830 now IPC :0.64392: AVG IPC :0.82360: L2-Pf-HR :0.93557: L2-HR :0.86463: (Sim:2h7m25s) 
CPU  1 inst:  140000002 cyc:  167695251 now IPC :0.71157: AVG IPC :0.82776: L2-Pf-HR :0.93289: L2-HR :0.87211: (Sim:2h7m41s) 
CPU  0 inst:  140000005 cyc:  167934083 now IPC :0.59225: AVG IPC :0.82658: L2-Pf-HR :0.93953: L2-HR :0.88538: (Sim:2h7m51s) 
CPU  2 inst:  140000002 cyc:  168589195 now IPC :0.78968: AVG IPC :0.82335: L2-Pf-HR :0.95518: L2-HR :0.89881: (Sim:2h8m21s) 
CPU  3 inst:  140000003 cyc:  168630123 now IPC :0.76553: AVG IPC :0.82315: L2-Pf-HR :0.93545: L2-HR :0.86462: (Sim:2h8m23s) 
CPU  1 inst:  141000004 cyc:  169476640 now IPC :0.56136: AVG IPC :0.82495: L2-Pf-HR :0.93328: L2-HR :0.87222: (Sim:2h8m59s) 
CPU  0 inst:  141000004 cyc:  169522949 now IPC :0.62938: AVG IPC :0.82472: L2-Pf-HR :0.93977: L2-HR :0.88531: (Sim:2h9m1s) 
CPU  2 inst:  141000003 cyc:  170264768 now IPC :0.59681: AVG IPC :0.82110: L2-Pf-HR :0.95546: L2-HR :0.89891: (Sim:2h9m35s) 
CPU  3 inst:  141000004 cyc:  170281928 now IPC :0.60540: AVG IPC :0.82102: L2-Pf-HR :0.93589: L2-HR :0.86481: (Sim:2h9m36s) 
CPU  0 inst:  142000000 cyc:  170509725 now IPC :1.01340: AVG IPC :0.82582: L2-Pf-HR :0.94013: L2-HR :0.88541: (Sim:2h9m48s) 
CPU  1 inst:  142000005 cyc:  170512591 now IPC :0.96530: AVG IPC :0.82580: L2-Pf-HR :0.93368: L2-HR :0.87231: (Sim:2h9m48s) 
CPU  2 inst:  142000005 cyc:  171445866 now IPC :0.84667: AVG IPC :0.82128: L2-Pf-HR :0.95577: L2-HR :0.89911: (Sim:2h10m35s) 
CPU  3 inst:  142000004 cyc:  171468863 now IPC :0.84251: AVG IPC :0.82117: L2-Pf-HR :0.93625: L2-HR :0.86496: (Sim:2h10m36s) 
CPU  1 inst:  143000005 cyc:  171775008 now IPC :0.79213: AVG IPC :0.82555: L2-Pf-HR :0.93403: L2-HR :0.87235: (Sim:2h10m50s) 
CPU  0 inst:  143000005 cyc:  171786666 now IPC :0.78313: AVG IPC :0.82550: L2-Pf-HR :0.94053: L2-HR :0.88552: (Sim:2h10m50s) 
CPU  3 inst:  143000005 cyc:  172511612 now IPC :0.95900: AVG IPC :0.82201: L2-Pf-HR :0.93717: L2-HR :0.86557: (Sim:2h11m29s) 
CPU  2 inst:  143000005 cyc:  172537547 now IPC :0.91602: AVG IPC :0.82188: L2-Pf-HR :0.95637: L2-HR :0.89956: (Sim:2h11m30s) 
CPU  0 inst:  144000005 cyc:  172684314 now IPC :1.11402: AVG IPC :0.82701: L2-Pf-HR :0.94117: L2-HR :0.88589: (Sim:2h11m38s) 
CPU  1 inst:  144000005 cyc:  172794744 now IPC :0.98065: AVG IPC :0.82648: L2-Pf-HR :0.93458: L2-HR :0.87255: (Sim:2h11m44s) 
CPU  2 inst:  144000005 cyc:  173588583 now IPC :0.95144: AVG IPC :0.82267: L2-Pf-HR :0.95665: L2-HR :0.89977: (Sim:2h12m26s) 
CPU  3 inst:  144000005 cyc:  173589779 now IPC :0.92750: AVG IPC :0.82267: L2-Pf-HR :0.93764: L2-HR :0.86590: (Sim:2h12m26s) 
CPU  1 inst:  145000000 cyc:  173750634 now IPC :1.04614: AVG IPC :0.82769: L2-Pf-HR :0.93490: L2-HR :0.87274: (Sim:2h12m36s) 
CPU  0 inst:  145000000 cyc:  173769669 now IPC :0.92135: AVG IPC :0.82760: L2-Pf-HR :0.94144: L2-HR :0.88594: (Sim:2h12m37s) 
CPU  2 inst:  145000005 cyc:  174640996 now IPC :0.95020: AVG IPC :0.82345: L2-Pf-HR :0.95682: L2-HR :0.89976: (Sim:2h13m22s) 
CPU  3 inst:  145000000 cyc:  174648312 now IPC :0.94470: AVG IPC :0.82341: L2-Pf-HR :0.93791: L2-HR :0.86593: (Sim:2h13m22s) 
CPU  0 inst:  146000005 cyc:  174954984 now IPC :0.84366: AVG IPC :0.82771: L2-Pf-HR :0.94163: L2-HR :0.88588: (Sim:2h13m38s) 
CPU  1 inst:  146000000 cyc:  174967968 now IPC :0.82147: AVG IPC :0.82765: L2-Pf-HR :0.93515: L2-HR :0.87267: (Sim:2h13m38s) 
CPU  3 inst:  146000000 cyc:  175746487 now IPC :0.91060: AVG IPC :0.82396: L2-Pf-HR :0.93839: L2-HR :0.86604: (Sim:2h14m15s) 
CPU  2 inst:  146000005 cyc:  175759246 now IPC :0.89425: AVG IPC :0.82390: L2-Pf-HR :0.95728: L2-HR :0.90005: (Sim:2h14m16s) 
CPU  0 inst:  147000005 cyc:  176002460 now IPC :0.95468: AVG IPC :0.82847: L2-Pf-HR :0.94195: L2-HR :0.88615: (Sim:2h14m31s) 
CPU  1 inst:  147000000 cyc:  176008757 now IPC :0.96081: AVG IPC :0.82844: L2-Pf-HR :0.93557: L2-HR :0.87305: (Sim:2h14m32s) 
CPU  2 inst:  147000005 cyc:  176836231 now IPC :0.92852: AVG IPC :0.82454: L2-Pf-HR :0.95731: L2-HR :0.90020: (Sim:2h15m14s) 
CPU  3 inst:  147000000 cyc:  176838179 now IPC :0.91601: AVG IPC :0.82453: L2-Pf-HR :0.93833: L2-HR :0.86607: (Sim:2h15m14s) 
CPU  0 inst:  148000003 cyc:  177063963 now IPC :0.94206: AVG IPC :0.82915: L2-Pf-HR :0.94188: L2-HR :0.88618: (Sim:2h15m24s) 
CPU  1 inst:  148000003 cyc:  177087515 now IPC :0.92699: AVG IPC :0.82904: L2-Pf-HR :0.93551: L2-HR :0.87314: (Sim:2h15m25s) 
CPU  3 inst:  148000003 cyc:  178048728 now IPC :0.82607: AVG IPC :0.82454: L2-Pf-HR :0.93824: L2-HR :0.86607: (Sim:2h16m13s) 
CPU  2 inst:  148000003 cyc:  178051609 now IPC :0.82279: AVG IPC :0.82453: L2-Pf-HR :0.95717: L2-HR :0.90009: (Sim:2h16m14s) 
CPU  0 inst:  149000005 cyc:  178445233 now IPC :0.72397: AVG IPC :0.82833: L2-Pf-HR :0.94172: L2-HR :0.88614: (Sim:2h16m32s) 
CPU  1 inst:  149000005 cyc:  178451957 now IPC :0.73290: AVG IPC :0.82830: L2-Pf-HR :0.93533: L2-HR :0.87306: (Sim:2h16m32s) 
CPU  2 inst:  149000003 cyc:  179429295 now IPC :0.72585: AVG IPC :0.82377: L2-Pf-HR :0.95702: L2-HR :0.89994: (Sim:2h17m18s) 
CPU  3 inst:  149000005 cyc:  179436976 now IPC :0.72033: AVG IPC :0.82373: L2-Pf-HR :0.93802: L2-HR :0.86592: (Sim:2h17m18s) 
CPU  0 inst:  150000003 cyc:  179731156 now IPC :0.77765: AVG IPC :0.82797: L2-Pf-HR :0.94159: L2-HR :0.88614: (Sim:2h17m33s) 
CPU  1 inst:  150000003 cyc:  179745675 now IPC :0.77296: AVG IPC :0.82790: L2-Pf-HR :0.93516: L2-HR :0.87305: (Sim:2h17m33s) 
CPU  2 inst:  150000003 cyc:  180748789 now IPC :0.75787: AVG IPC :0.82328: L2-Pf-HR :0.95684: L2-HR :0.89977: (Sim:2h18m21s) 
CPU  3 inst:  150000000 cyc:  180773960 now IPC :0.74795: AVG IPC :0.82317: L2-Pf-HR :0.93779: L2-HR :0.86577: (Sim:2h18m22s) 
CPU  0 inst:  151000005 cyc:  181096680 now IPC :0.73232: AVG IPC :0.82724: L2-Pf-HR :0.94142: L2-HR :0.88611: (Sim:2h18m38s) 
CPU  1 inst:  151000005 cyc:  181122353 now IPC :0.72639: AVG IPC :0.82713: L2-Pf-HR :0.93494: L2-HR :0.87293: (Sim:2h18m39s) 
CPU  3 inst:  151000005 cyc:  182074871 now IPC :0.76870: AVG IPC :0.82278: L2-Pf-HR :0.93756: L2-HR :0.86564: (Sim:2h19m25s) 
CPU  2 inst:  151000005 cyc:  182091980 now IPC :0.74450: AVG IPC :0.82270: L2-Pf-HR :0.95666: L2-HR :0.89959: (Sim:2h19m25s) 
CPU  0 inst:  152000004 cyc:  182456943 now IPC :0.73515: AVG IPC :0.82655: L2-Pf-HR :0.94122: L2-HR :0.88603: (Sim:2h19m42s) 
CPU  1 inst:  152000004 cyc:  182474254 now IPC :0.73970: AVG IPC :0.82648: L2-Pf-HR :0.93467: L2-HR :0.87287: (Sim:2h19m43s) 
CPU  2 inst:  152000004 cyc:  183152255 now IPC :0.94315: AVG IPC :0.82340: L2-Pf-HR :0.95661: L2-HR :0.89967: (Sim:2h20m18s) 
CPU  3 inst:  152000004 cyc:  183153884 now IPC :0.92677: AVG IPC :0.82339: L2-Pf-HR :0.93741: L2-HR :0.86565: (Sim:2h20m18s) 
CPU  1 inst:  153000001 cyc:  184030112 now IPC :0.64273: AVG IPC :0.82491: L2-Pf-HR :0.93505: L2-HR :0.87304: (Sim:2h20m55s) 
CPU  0 inst:  153000003 cyc:  184031115 now IPC :0.63525: AVG IPC :0.82491: L2-Pf-HR :0.94147: L2-HR :0.88608: (Sim:2h20m55s) 
CPU  3 inst:  153000001 cyc:  184634552 now IPC :0.67537: AVG IPC :0.82220: L2-Pf-HR :0.93757: L2-HR :0.86577: (Sim:2h21m27s) 
CPU  2 inst:  153000001 cyc:  184634581 now IPC :0.67461: AVG IPC :0.82220: L2-Pf-HR :0.95665: L2-HR :0.89968: (Sim:2h21m27s) 
CPU  1 inst:  154000000 cyc:  184947537 now IPC :1.09001: AVG IPC :0.82624: L2-Pf-HR :0.93484: L2-HR :0.87295: (Sim:2h21m42s) 
CPU  0 inst:  154000000 cyc:  184950676 now IPC :1.08747: AVG IPC :0.82622: L2-Pf-HR :0.94131: L2-HR :0.88601: (Sim:2h21m42s) 
CPU  2 inst:  154000003 cyc:  185906989 now IPC :0.78591: AVG IPC :0.82195: L2-Pf-HR :0.95654: L2-HR :0.89970: (Sim:2h22m29s) 
CPU  3 inst:  154000003 cyc:  185907141 now IPC :0.78580: AVG IPC :0.82195: L2-Pf-HR :0.93741: L2-HR :0.86573: (Sim:2h22m29s) 
CPU  0 inst:  155000001 cyc:  186218764 now IPC :0.78859: AVG IPC :0.82596: L2-Pf-HR :0.94105: L2-HR :0.88596: (Sim:2h22m44s) 
CPU  1 inst:  155000001 cyc:  186237047 now IPC :0.77549: AVG IPC :0.82588: L2-Pf-HR :0.93458: L2-HR :0.87289: (Sim:2h22m45s) 
CPU  2 inst:  155000001 cyc:  187165244 now IPC :0.79475: AVG IPC :0.82177: L2-Pf-HR :0.95641: L2-HR :0.89967: (Sim:2h23m30s) 
CPU  3 inst:  155000001 cyc:  187177486 now IPC :0.78719: AVG IPC :0.82171: L2-Pf-HR :0.93726: L2-HR :0.86570: (Sim:2h23m31s) 
[...]
CPU  3 inst:  781000005 cyc: 1259968429 now IPC :0.04893: AVG IPC :0.61875: L2-Pf-HR :0.92357: L2-HR :0.82552: (Sim:13h50m36s) 
CPU  2 inst:  781000005 cyc: 1261217762 now IPC :0.04850: AVG IPC :0.61814: L2-Pf-HR :0.94693: L2-HR :0.86590: (Sim:13h51m15s) 
CPU  1 inst:  781000005 cyc: 1261334892 now IPC :0.04840: AVG IPC :0.61808: L2-Pf-HR :0.92129: L2-HR :0.83422: (Sim:13h51m18s) 
CPU  0 inst:  782000001 cyc: 1280613504 now IPC :0.04824: AVG IPC :0.60955: L2-Pf-HR :0.92925: L2-HR :0.84771: (Sim:14h0m28s) 
CPU  3 inst:  782000004 cyc: 1280692068 now IPC :0.04825: AVG IPC :0.60951: L2-Pf-HR :0.92348: L2-HR :0.82295: (Sim:14h0m30s) 
CPU  2 inst:  782000004 cyc: 1281602011 now IPC :0.04906: AVG IPC :0.60908: L2-Pf-HR :0.94687: L2-HR :0.86366: (Sim:14h0m53s) 
CPU  1 inst:  782000004 cyc: 1281740064 now IPC :0.04901: AVG IPC :0.60901: L2-Pf-HR :0.92120: L2-HR :0.83170: (Sim:14h0m55s) 
CPU  3 inst:  783000000 cyc: 1301221576 now IPC :0.04871: AVG IPC :0.60066: L2-Pf-HR :0.92339: L2-HR :0.82042: (Sim:14h11m2s) 
CPU  0 inst:  783000000 cyc: 1301235916 now IPC :0.04849: AVG IPC :0.60065: L2-Pf-HR :0.92918: L2-HR :0.84536: (Sim:14h11m2s) 
CPU  2 inst:  783000000 cyc: 1302216721 now IPC :0.04851: AVG IPC :0.60020: L2-Pf-HR :0.94680: L2-HR :0.86146: (Sim:14h11m28s) 
CPU  1 inst:  783000000 cyc: 1302293769 now IPC :0.04865: AVG IPC :0.60016: L2-Pf-HR :0.92112: L2-HR :0.82922: (Sim:14h11m30s) 
CPU  3 inst:  784000005 cyc: 1321728672 now IPC :0.04876: AVG IPC :0.59209: L2-Pf-HR :0.92329: L2-HR :0.81793: (Sim:14h20m13s) 
CPU  0 inst:  784000005 cyc: 1321879802 now IPC :0.04844: AVG IPC :0.59202: L2-Pf-HR :0.92911: L2-HR :0.84305: (Sim:14h20m18s) 
CPU  1 inst:  784000002 cyc: 1322800863 now IPC :0.04876: AVG IPC :0.59161: L2-Pf-HR :0.92104: L2-HR :0.82678: (Sim:14h20m47s) 
CPU  2 inst:  784000005 cyc: 1322876213 now IPC :0.04840: AVG IPC :0.59157: L2-Pf-HR :0.94674: L2-HR :0.85928: (Sim:14h20m49s) 
CPU  3 inst:  785000004 cyc: 1342180122 now IPC :0.04890: AVG IPC :0.58381: L2-Pf-HR :0.92320: L2-HR :0.81549: (Sim:14h30m31s) 
CPU  0 inst:  785000004 cyc: 1342338219 now IPC :0.04888: AVG IPC :0.58374: L2-Pf-HR :0.92904: L2-HR :0.84076: (Sim:14h30m36s) 
CPU  1 inst:  785000004 cyc: 1343420438 now IPC :0.04850: AVG IPC :0.58327: L2-Pf-HR :0.92095: L2-HR :0.82437: (Sim:14h30m56s) 
CPU  2 inst:  785000001 cyc: 1343513055 now IPC :0.04846: AVG IPC :0.58323: L2-Pf-HR :0.94667: L2-HR :0.85712: (Sim:14h30m57s) 
CPU  0 inst:  786000002 cyc: 1362787638 now IPC :0.04890: AVG IPC :0.57571: L2-Pf-HR :0.92897: L2-HR :0.83851: (Sim:14h38m0s) 
CPU  3 inst:  786000003 cyc: 1362814561 now IPC :0.04846: AVG IPC :0.57569: L2-Pf-HR :0.92310: L2-HR :0.81307: (Sim:14h38m1s) 
CPU  1 inst:  786000000 cyc: 1363994370 now IPC :0.04861: AVG IPC :0.57520: L2-Pf-HR :0.92087: L2-HR :0.82200: (Sim:14h38m38s) 
CPU  2 inst:  786000000 cyc: 1364185132 now IPC :0.04837: AVG IPC :0.57512: L2-Pf-HR :0.94660: L2-HR :0.85500: (Sim:14h38m43s) 
CPU  3 inst:  787000002 cyc: 1383258799 now IPC :0.04891: AVG IPC :0.56790: L2-Pf-HR :0.92301: L2-HR :0.81070: (Sim:14h48m2s) 
CPU  0 inst:  787000002 cyc: 1383372169 now IPC :0.04858: AVG IPC :0.56786: L2-Pf-HR :0.92889: L2-HR :0.83628: (Sim:14h48m5s) 
CPU  1 inst:  787000002 cyc: 1384649404 now IPC :0.04841: AVG IPC :0.56733: L2-Pf-HR :0.92079: L2-HR :0.81966: (Sim:14h48m43s) 
CPU  2 inst:  787000005 cyc: 1384866274 now IPC :0.04835: AVG IPC :0.56724: L2-Pf-HR :0.94654: L2-HR :0.85290: (Sim:14h48m50s) 
CPU  3 inst:  788000004 cyc: 1403733141 now IPC :0.04884: AVG IPC :0.56033: L2-Pf-HR :0.92291: L2-HR :0.80836: (Sim:14h58m23s) 
CPU  0 inst:  788000001 cyc: 1403792435 now IPC :0.04897: AVG IPC :0.56030: L2-Pf-HR :0.92882: L2-HR :0.83409: (Sim:14h58m24s) 
CPU  1 inst:  788000001 cyc: 1405333236 now IPC :0.04835: AVG IPC :0.55969: L2-Pf-HR :0.92070: L2-HR :0.81736: (Sim:14h58m50s) 
CPU  2 inst:  788000004 cyc: 1405490151 now IPC :0.04849: AVG IPC :0.55963: L2-Pf-HR :0.94647: L2-HR :0.85082: (Sim:14h58m55s) 
CPU  3 inst:  789000003 cyc: 1424270183 now IPC :0.04869: AVG IPC :0.55294: L2-Pf-HR :0.92281: L2-HR :0.80606: (Sim:15h7m0s) 
CPU  0 inst:  789000003 cyc: 1424468076 now IPC :0.04837: AVG IPC :0.55287: L2-Pf-HR :0.92875: L2-HR :0.83192: (Sim:15h7m7s) 
CPU  1 inst:  789000003 cyc: 1425885386 now IPC :0.04866: AVG IPC :0.55232: L2-Pf-HR :0.92062: L2-HR :0.81509: (Sim:15h7m39s) 
CPU  2 inst:  789000003 cyc: 1425929932 now IPC :0.04892: AVG IPC :0.55230: L2-Pf-HR :0.94641: L2-HR :0.84877: (Sim:15h7m40s) 
CPU  3 inst:  790000000 cyc: 1444826735 now IPC :0.04865: AVG IPC :0.54576: L2-Pf-HR :0.92272: L2-HR :0.80379: (Sim:15h15m28s) 
CPU  0 inst:  790000000 cyc: 1445061946 now IPC :0.04856: AVG IPC :0.54568: L2-Pf-HR :0.92868: L2-HR :0.82978: (Sim:15h15m36s) 
CPU  1 inst:  790000000 cyc: 1446490945 now IPC :0.04853: AVG IPC :0.54514: L2-Pf-HR :0.92054: L2-HR :0.81286: (Sim:15h16m21s) 
CPU  2 inst:  790000000 cyc: 1446499956 now IPC :0.04861: AVG IPC :0.54513: L2-Pf-HR :0.94634: L2-HR :0.84674: (Sim:15h16m21s) 
CPU  3 inst:  791000001 cyc: 1465479772 now IPC :0.04842: AVG IPC :0.53875: L2-Pf-HR :0.92263: L2-HR :0.80156: (Sim:15h26m19s) 
CPU  0 inst:  791000004 cyc: 1465709945 now IPC :0.04843: AVG IPC :0.53867: L2-Pf-HR :0.92861: L2-HR :0.82767: (Sim:15h26m26s) 
CPU  2 inst:  791000001 cyc: 1466969927 now IPC :0.04885: AVG IPC :0.53820: L2-Pf-HR :0.94628: L2-HR :0.84474: (Sim:15h26m54s) 
CPU  1 inst:  791000001 cyc: 1467029110 now IPC :0.04869: AVG IPC :0.53818: L2-Pf-HR :0.92045: L2-HR :0.81065: (Sim:15h26m55s) 
CPU  3 inst:  792000001 cyc: 1485973863 now IPC :0.04879: AVG IPC :0.53199: L2-Pf-HR :0.92254: L2-HR :0.79936: (Sim:15h36m57s) 
CPU  0 inst:  792000000 cyc: 1486305426 now IPC :0.04855: AVG IPC :0.53187: L2-Pf-HR :0.92854: L2-HR :0.82559: (Sim:15h37m7s) 
CPU  1 inst:  792000000 cyc: 1487454064 now IPC :0.04896: AVG IPC :0.53146: L2-Pf-HR :0.92037: L2-HR :0.80848: (Sim:15h37m44s) 
CPU  2 inst:  792000003 cyc: 1487585644 now IPC :0.04851: AVG IPC :0.53141: L2-Pf-HR :0.94621: L2-HR :0.84276: (Sim:15h37m48s) 
CPU  3 inst:  793000002 cyc: 1506506009 now IPC :0.04870: AVG IPC :0.52540: L2-Pf-HR :0.92244: L2-HR :0.79719: (Sim:15h47m56s) 
CPU  0 inst:  793000002 cyc: 1506869864 now IPC :0.04863: AVG IPC :0.52527: L2-Pf-HR :0.92847: L2-HR :0.82353: (Sim:15h48m5s) 
CPU  1 inst:  793000002 cyc: 1508015599 now IPC :0.04863: AVG IPC :0.52487: L2-Pf-HR :0.92029: L2-HR :0.80634: (Sim:15h48m36s) 
CPU  2 inst:  793000002 cyc: 1508072618 now IPC :0.04881: AVG IPC :0.52485: L2-Pf-HR :0.94614: L2-HR :0.84080: (Sim:15h48m38s) 
CPU  3 inst:  794000003 cyc: 1526935302 now IPC :0.04895: AVG IPC :0.51902: L2-Pf-HR :0.92235: L2-HR :0.79505: (Sim:15h58m7s) 
CPU  0 inst:  794000004 cyc: 1527542813 now IPC :0.04837: AVG IPC :0.51881: L2-Pf-HR :0.92840: L2-HR :0.82150: (Sim:15h58m26s) 
CPU  2 inst:  794000004 cyc: 1528531063 now IPC :0.04888: AVG IPC :0.51848: L2-Pf-HR :0.94608: L2-HR :0.83886: (Sim:15h58m57s) 
CPU  1 inst:  794000004 cyc: 1528702490 now IPC :0.04834: AVG IPC :0.51842: L2-Pf-HR :0.92020: L2-HR :0.80423: (Sim:15h59m3s) 
CPU  3 inst:  795000000 cyc: 1547437850 now IPC :0.04877: AVG IPC :0.51279: L2-Pf-HR :0.92225: L2-HR :0.79295: (Sim:16h6m43s) 
CPU  0 inst:  795000002 cyc: 1548131690 now IPC :0.04857: AVG IPC :0.51255: L2-Pf-HR :0.92833: L2-HR :0.81950: (Sim:16h6m54s) 
CPU  2 inst:  795000002 cyc: 1548997469 now IPC :0.04886: AVG IPC :0.51227: L2-Pf-HR :0.94601: L2-HR :0.83695: (Sim:16h7m12s) 
CPU  1 inst:  795000003 cyc: 1549413703 now IPC :0.04828: AVG IPC :0.51213: L2-Pf-HR :0.92012: L2-HR :0.80214: (Sim:16h7m19s) 
CPU  3 inst:  796000002 cyc: 1568011566 now IPC :0.04861: AVG IPC :0.50669: L2-Pf-HR :0.92216: L2-HR :0.79087: (Sim:16h15m24s) 
CPU  0 inst:  796000005 cyc: 1568682308 now IPC :0.04866: AVG IPC :0.50647: L2-Pf-HR :0.92826: L2-HR :0.81752: (Sim:16h15m46s) 
CPU  2 inst:  796000005 cyc: 1569549662 now IPC :0.04866: AVG IPC :0.50619: L2-Pf-HR :0.94594: L2-HR :0.83506: (Sim:16h16m6s) 
CPU  1 inst:  796000005 cyc: 1569984329 now IPC :0.04861: AVG IPC :0.50605: L2-Pf-HR :0.92004: L2-HR :0.80009: (Sim:16h16m15s) 
CPU  3 inst:  797000002 cyc: 1588363420 now IPC :0.04914: AVG IPC :0.50082: L2-Pf-HR :0.92207: L2-HR :0.78883: (Sim:16h24m20s) 
CPU  0 inst:  797000002 cyc: 1589120723 now IPC :0.04893: AVG IPC :0.50059: L2-Pf-HR :0.92819: L2-HR :0.81557: (Sim:16h24m43s) 
CPU  2 inst:  797000000 cyc: 1589886183 now IPC :0.04917: AVG IPC :0.50034: L2-Pf-HR :0.94588: L2-HR :0.83319: (Sim:16h25m7s) 
CPU  1 inst:  797000001 cyc: 1590313906 now IPC :0.04919: AVG IPC :0.50021: L2-Pf-HR :0.91995: L2-HR :0.79806: (Sim:16h25m21s) 
CPU  3 inst:  798000002 cyc: 1607727634 now IPC :0.05164: AVG IPC :0.49541: L2-Pf-HR :0.92196: L2-HR :0.78698: (Sim:16h33m5s) 
CPU  0 inst:  798000002 cyc: 1608276526 now IPC :0.05220: AVG IPC :0.49524: L2-Pf-HR :0.92811: L2-HR :0.81380: (Sim:16h33m13s) 
CPU  2 inst:  798000002 cyc: 1608589206 now IPC :0.05347: AVG IPC :0.49515: L2-Pf-HR :0.94581: L2-HR :0.83150: (Sim:16h33m17s) 
CPU  1 inst:  798000002 cyc: 1608690895 now IPC :0.05442: AVG IPC :0.49511: L2-Pf-HR :0.91986: L2-HR :0.79623: (Sim:16h33m19s) 
CPU  3 inst:  799000002 cyc: 1611676357 now IPC :0.25325: AVG IPC :0.49482: L2-Pf-HR :0.92169: L2-HR :0.78665: (Sim:16h34m12s) 
CPU  0 inst:  799000002 cyc: 1612071058 now IPC :0.26354: AVG IPC :0.49470: L2-Pf-HR :0.92791: L2-HR :0.81349: (Sim:16h34m19s) 
CPU  2 inst:  799000002 cyc: 1612347546 now IPC :0.26607: AVG IPC :0.49461: L2-Pf-HR :0.94562: L2-HR :0.83121: (Sim:16h34m28s) 
CPU  1 inst:  799000002 cyc: 1612448969 now IPC :0.26609: AVG IPC :0.49458: L2-Pf-HR :0.91963: L2-HR :0.79591: (Sim:16h34m31s) 
CPU  3 inst:  800000002 cyc: 1615422493 now IPC :0.26694: AVG IPC :0.49429: L2-Pf-HR :0.92142: L2-HR :0.78631: (Sim:16h36m5s) 
CPU  0 inst:  800000002 cyc: 1615813204 now IPC :0.26723: AVG IPC :0.49417: L2-Pf-HR :0.92771: L2-HR :0.81318: (Sim:16h36m18s) 
CPU  2 inst:  800000002 cyc: 1616090444 now IPC :0.26717: AVG IPC :0.49408: L2-Pf-HR :0.94544: L2-HR :0.83091: (Sim:16h36m26s) 
CPU  1 inst:  800000002 cyc: 1616192619 now IPC :0.26712: AVG IPC :0.49405: L2-Pf-HR :0.91940: L2-HR :0.79558: (Sim:16h36m30s) 
CPU  3 inst:  801000002 cyc: 1619174607 now IPC :0.26652: AVG IPC :0.49376: L2-Pf-HR :0.92115: L2-HR :0.78598: (Sim:16h38m3s) 
CPU  0 inst:  801000002 cyc: 1619567618 now IPC :0.26635: AVG IPC :0.49364: L2-Pf-HR :0.92751: L2-HR :0.81286: (Sim:16h38m15s) 
CPU  2 inst:  801000002 cyc: 1619841708 now IPC :0.26658: AVG IPC :0.49356: L2-Pf-HR :0.94525: L2-HR :0.83061: (Sim:16h38m24s) 
CPU  1 inst:  801000002 cyc: 1619944106 now IPC :0.26656: AVG IPC :0.49353: L2-Pf-HR :0.91916: L2-HR :0.79525: (Sim:16h38m27s) 
CPU  3 inst:  802000000 cyc: 1622919105 now IPC :0.26706: AVG IPC :0.49324: L2-Pf-HR :0.92089: L2-HR :0.78564: (Sim:16h40m0s) 
CPU  0 inst:  802000000 cyc: 1623303996 now IPC :0.26764: AVG IPC :0.49312: L2-Pf-HR :0.92731: L2-HR :0.81255: (Sim:16h40m12s) 
CPU  2 inst:  802000000 cyc: 1623578597 now IPC :0.26760: AVG IPC :0.49304: L2-Pf-HR :0.94507: L2-HR :0.83032: (Sim:16h40m21s) 
CPU  1 inst:  802000000 cyc: 1623683232 now IPC :0.26744: AVG IPC :0.49300: L2-Pf-HR :0.91894: L2-HR :0.79492: (Sim:16h40m24s) 
CPU  3 inst:  803000003 cyc: 1626668543 now IPC :0.26671: AVG IPC :0.49271: L2-Pf-HR :0.92062: L2-HR :0.78531: (Sim:16h41m53s) 
CPU  0 inst:  803000003 cyc: 1627051468 now IPC :0.26685: AVG IPC :0.49260: L2-Pf-HR :0.92711: L2-HR :0.81223: (Sim:16h42m5s) 
CPU  2 inst:  803000003 cyc: 1627328478 now IPC :0.26668: AVG IPC :0.49251: L2-Pf-HR :0.94488: L2-HR :0.83002: (Sim:16h42m14s) 
CPU  1 inst:  803000003 cyc: 1627436959 now IPC :0.26640: AVG IPC :0.49248: L2-Pf-HR :0.91870: L2-HR :0.79459: (Sim:16h42m17s) 
CPU  3 inst:  804000003 cyc: 1630426650 now IPC :0.26609: AVG IPC :0.49219: L2-Pf-HR :0.92035: L2-HR :0.78498: (Sim:16h43m53s) 
CPU  0 inst:  804000003 cyc: 1630816461 now IPC :0.26560: AVG IPC :0.49207: L2-Pf-HR :0.92691: L2-HR :0.81192: (Sim:16h44m6s) 
CPU  2 inst:  804000003 cyc: 1631087797 now IPC :0.26601: AVG IPC :0.49199: L2-Pf-HR :0.94470: L2-HR :0.82972: (Sim:16h44m14s) 
CPU  1 inst:  804000003 cyc: 1631191443 now IPC :0.26635: AVG IPC :0.49196: L2-Pf-HR :0.91847: L2-HR :0.79426: (Sim:16h44m18s) 
CPU  3 inst:  805000003 cyc: 1634151780 now IPC :0.26845: AVG IPC :0.49168: L2-Pf-HR :0.92009: L2-HR :0.78464: (Sim:16h45m44s) 
CPU  0 inst:  805000003 cyc: 1634530451 now IPC :0.26925: AVG IPC :0.49157: L2-Pf-HR :0.92671: L2-HR :0.81161: (Sim:16h45m56s) 
CPU  2 inst:  805000003 cyc: 1634818639 now IPC :0.26804: AVG IPC :0.49148: L2-Pf-HR :0.94451: L2-HR :0.82943: (Sim:16h46m5s) 
CPU  1 inst:  805000003 cyc: 1634920868 now IPC :0.26814: AVG IPC :0.49145: L2-Pf-HR :0.91824: L2-HR :0.79393: (Sim:16h46m9s) 
CPU  3 inst:  806000001 cyc: 1637845247 now IPC :0.27075: AVG IPC :0.49118: L2-Pf-HR :0.91982: L2-HR :0.78431: (Sim:16h47m36s) 
CPU  0 inst:  806000001 cyc: 1638227570 now IPC :0.27048: AVG IPC :0.49107: L2-Pf-HR :0.92651: L2-HR :0.81130: (Sim:16h47m48s) 
CPU  2 inst:  806000001 cyc: 1638490904 now IPC :0.27231: AVG IPC :0.49099: L2-Pf-HR :0.94433: L2-HR :0.82914: (Sim:16h47m56s) 
CPU  1 inst:  806000001 cyc: 1638589362 now IPC :0.27259: AVG IPC :0.49096: L2-Pf-HR :0.91801: L2-HR :0.79361: (Sim:16h48m0s) 
CPU  3 inst:  807000003 cyc: 1641473056 now IPC :0.27565: AVG IPC :0.49071: L2-Pf-HR :0.91955: L2-HR :0.78398: (Sim:16h49m19s) 
CPU  0 inst:  807000003 cyc: 1641843412 now IPC :0.27656: AVG IPC :0.49060: L2-Pf-HR :0.92631: L2-HR :0.81099: (Sim:16h49m27s) 
CPU  2 inst:  807000003 cyc: 1642109146 now IPC :0.27638: AVG IPC :0.49052: L2-Pf-HR :0.94414: L2-HR :0.82884: (Sim:16h49m35s) 
CPU  1 inst:  807000003 cyc: 1642214843 now IPC :0.27583: AVG IPC :0.49048: L2-Pf-HR :0.91777: L2-HR :0.79328: (Sim:16h49m38s) 
CPU  3 inst:  808000003 cyc: 1645097132 now IPC :0.27593: AVG IPC :0.49023: L2-Pf-HR :0.91928: L2-HR :0.78365: (Sim:16h50m54s) 
CPU  0 inst:  808000003 cyc: 1645474206 now IPC :0.27542: AVG IPC :0.49012: L2-Pf-HR :0.92611: L2-HR :0.81068: (Sim:16h51m1s) 
CPU  2 inst:  808000003 cyc: 1645746077 now IPC :0.27496: AVG IPC :0.49004: L2-Pf-HR :0.94395: L2-HR :0.82855: (Sim:16h51m7s) 
CPU  1 inst:  808000003 cyc: 1645837595 now IPC :0.27603: AVG IPC :0.49001: L2-Pf-HR :0.91754: L2-HR :0.79296: (Sim:16h51m9s) 
CPU  3 inst:  809000003 cyc: 1648730785 now IPC :0.27521: AVG IPC :0.48976: L2-Pf-HR :0.91901: L2-HR :0.78332: (Sim:16h52m20s) 
CPU  0 inst:  809000003 cyc: 1649115183 now IPC :0.27465: AVG IPC :0.48964: L2-Pf-HR :0.92590: L2-HR :0.81037: (Sim:16h52m27s) 
CPU  2 inst:  809000003 cyc: 1649370866 now IPC :0.27588: AVG IPC :0.48957: L2-Pf-HR :0.94377: L2-HR :0.82825: (Sim:16h52m31s) 
CPU  1 inst:  809000003 cyc: 1649466968 now IPC :0.27553: AVG IPC :0.48954: L2-Pf-HR :0.91731: L2-HR :0.79263: (Sim:16h52m33s) 
CPU  3 inst:  810000002 cyc: 1652329945 now IPC :0.27784: AVG IPC :0.48930: L2-Pf-HR :0.91874: L2-HR :0.78299: (Sim:16h53m35s) 
CPU  0 inst:  810000002 cyc: 1652702435 now IPC :0.27876: AVG IPC :0.48919: L2-Pf-HR :0.92570: L2-HR :0.81006: (Sim:16h53m42s) 
CPU  2 inst:  810000002 cyc: 1652969555 now IPC :0.27788: AVG IPC :0.48911: L2-Pf-HR :0.94358: L2-HR :0.82796: (Sim:16h53m48s) 
CPU  1 inst:  810000002 cyc: 1653080163 now IPC :0.27676: AVG IPC :0.48907: L2-Pf-HR :0.91707: L2-HR :0.79231: (Sim:16h53m52s) 
CPU  3 inst:  811000002 cyc: 1656031328 now IPC :0.27017: AVG IPC :0.48881: L2-Pf-HR :0.91846: L2-HR :0.78266: (Sim:16h55m2s) 
CPU  0 inst:  811000002 cyc: 1656394382 now IPC :0.27086: AVG IPC :0.48870: L2-Pf-HR :0.92549: L2-HR :0.80975: (Sim:16h55m14s) 
CPU  2 inst:  811000002 cyc: 1656686212 now IPC :0.26906: AVG IPC :0.48861: L2-Pf-HR :0.94339: L2-HR :0.82767: (Sim:16h55m23s) 
CPU  1 inst:  811000002 cyc: 1656764460 now IPC :0.27142: AVG IPC :0.48859: L2-Pf-HR :0.91683: L2-HR :0.79198: (Sim:16h55m25s) 
CPU  3 inst:  812000001 cyc: 1659667706 now IPC :0.27500: AVG IPC :0.48834: L2-Pf-HR :0.91820: L2-HR :0.78233: (Sim:16h56m54s) 
CPU  0 inst:  812000001 cyc: 1660027542 now IPC :0.27524: AVG IPC :0.48823: L2-Pf-HR :0.92529: L2-HR :0.80944: (Sim:16h57m6s) 
CPU  2 inst:  812000001 cyc: 1660295120 now IPC :0.27709: AVG IPC :0.48815: L2-Pf-HR :0.94320: L2-HR :0.82738: (Sim:16h57m14s) 
CPU  1 inst:  812000001 cyc: 1660379531 now IPC :0.27662: AVG IPC :0.48813: L2-Pf-HR :0.91659: L2-HR :0.79166: (Sim:16h57m17s) 
CPU  3 inst:  813000001 cyc: 1663277813 now IPC :0.27700: AVG IPC :0.48788: L2-Pf-HR :0.91793: L2-HR :0.78200: (Sim:16h58m33s) 
CPU  0 inst:  813000001 cyc: 1663647431 now IPC :0.27625: AVG IPC :0.48777: L2-Pf-HR :0.92509: L2-HR :0.80913: (Sim:16h58m45s) 
CPU  2 inst:  813000001 cyc: 1663923930 now IPC :0.27557: AVG IPC :0.48769: L2-Pf-HR :0.94301: L2-HR :0.82709: (Sim:16h58m53s) 
CPU  1 inst:  813000001 cyc: 1664000315 now IPC :0.27618: AVG IPC :0.48767: L2-Pf-HR :0.91636: L2-HR :0.79134: (Sim:16h58m56s) 
CPU  3 inst:  814000001 cyc: 1666907547 now IPC :0.27550: AVG IPC :0.48742: L2-Pf-HR :0.91766: L2-HR :0.78167: (Sim:17h0m18s) 
CPU  0 inst:  814000001 cyc: 1667272554 now IPC :0.27585: AVG IPC :0.48731: L2-Pf-HR :0.92488: L2-HR :0.80883: (Sim:17h0m24s) 
CPU  2 inst:  814000001 cyc: 1667543820 now IPC :0.27625: AVG IPC :0.48723: L2-Pf-HR :0.94283: L2-HR :0.82679: (Sim:17h0m32s) 
CPU  1 inst:  814000001 cyc: 1667623914 now IPC :0.27597: AVG IPC :0.48721: L2-Pf-HR :0.91612: L2-HR :0.79101: (Sim:17h0m34s) 
CPU  3 inst:  815000000 cyc: 1670518187 now IPC :0.27696: AVG IPC :0.48696: L2-Pf-HR :0.91740: L2-HR :0.78135: (Sim:17h2m5s) 
CPU  0 inst:  815000000 cyc: 1670884737 now IPC :0.27684: AVG IPC :0.48685: L2-Pf-HR :0.92469: L2-HR :0.80852: (Sim:17h2m17s) 
CPU  2 inst:  815000000 cyc: 1671147577 now IPC :0.27749: AVG IPC :0.48678: L2-Pf-HR :0.94264: L2-HR :0.82650: (Sim:17h2m25s) 
CPU  1 inst:  815000000 cyc: 1671229455 now IPC :0.27735: AVG IPC :0.48675: L2-Pf-HR :0.91588: L2-HR :0.79069: (Sim:17h2m28s) 
CPU  3 inst:  816000000 cyc: 1674134526 now IPC :0.27652: AVG IPC :0.48651: L2-Pf-HR :0.91713: L2-HR :0.78102: (Sim:17h3m48s) 
CPU  0 inst:  816000000 cyc: 1674505967 now IPC :0.27615: AVG IPC :0.48640: L2-Pf-HR :0.92448: L2-HR :0.80821: (Sim:17h3m57s) 
CPU  2 inst:  816000000 cyc: 1674762039 now IPC :0.27667: AVG IPC :0.48632: L2-Pf-HR :0.94246: L2-HR :0.82621: (Sim:17h4m2s) 
CPU  1 inst:  816000000 cyc: 1674847218 now IPC :0.27641: AVG IPC :0.48630: L2-Pf-HR :0.91565: L2-HR :0.79037: (Sim:17h4m4s) 
CPU  3 inst:  817000000 cyc: 1677750725 now IPC :0.27653: AVG IPC :0.48605: L2-Pf-HR :0.91686: L2-HR :0.78070: (Sim:17h5m25s) 
CPU  0 inst:  817000000 cyc: 1678108707 now IPC :0.27757: AVG IPC :0.48595: L2-Pf-HR :0.92428: L2-HR :0.80791: (Sim:17h5m32s) 
CPU  2 inst:  817000000 cyc: 1678374990 now IPC :0.27678: AVG IPC :0.48587: L2-Pf-HR :0.94227: L2-HR :0.82592: (Sim:17h5m40s) 
CPU  1 inst:  817000000 cyc: 1678452098 now IPC :0.27740: AVG IPC :0.48585: L2-Pf-HR :0.91541: L2-HR :0.79005: (Sim:17h5m42s) 
CPU  3 inst:  818000000 cyc: 1681370605 now IPC :0.27625: AVG IPC :0.48560: L2-Pf-HR :0.91659: L2-HR :0.78037: (Sim:17h7m11s) 
CPU  0 inst:  818000000 cyc: 1681742388 now IPC :0.27520: AVG IPC :0.48549: L2-Pf-HR :0.92408: L2-HR :0.80760: (Sim:17h7m17s) 
CPU  2 inst:  818000000 cyc: 1682019648 now IPC :0.27437: AVG IPC :0.48541: L2-Pf-HR :0.94208: L2-HR :0.82563: (Sim:17h7m22s) 
CPU  1 inst:  818000000 cyc: 1682094478 now IPC :0.27455: AVG IPC :0.48539: L2-Pf-HR :0.91518: L2-HR :0.78973: (Sim:17h7m23s) 
CPU  3 inst:  819000000 cyc: 1685007222 now IPC :0.27498: AVG IPC :0.48515: L2-Pf-HR :0.91633: L2-HR :0.78005: (Sim:17h8m13s) 
CPU  0 inst:  819000000 cyc: 1685368724 now IPC :0.27576: AVG IPC :0.48504: L2-Pf-HR :0.92388: L2-HR :0.80730: (Sim:17h8m19s) 
CPU  2 inst:  819000000 cyc: 1685637217 now IPC :0.27643: AVG IPC :0.48497: L2-Pf-HR :0.94190: L2-HR :0.82534: (Sim:17h8m24s) 
CPU  1 inst:  819000000 cyc: 1685726009 now IPC :0.27537: AVG IPC :0.48494: L2-Pf-HR :0.91494: L2-HR :0.78941: (Sim:17h8m25s) 
Caught signal: 2
     > Finished combination: TraceType=770-tot Sim:1974000000 Prefetcher=L2spp_berti_src L1=no
