TRACE: [2639000000]_FE_[OPT-350M]_[h16]_[s2048]_[d64] Warmup: 2000000 NumTraces: 2639000000
L1:bingo_dpc3_PHT1k:L2:bingo_dpc3_PHT1k
*************************************************
   ChampSim Multicore Out-of-Order Simulator
   Last compiled: Oct 30 2024 03:58:13
*************************************************

trace_0 770-tot_memTraces_v4_2048/memTraces[2639000000]_FE_[OPT-350M]_[h16]_[s2048]_[d64].champsim.9.xz
trace_1 770-tot_memTraces_v4_2048/memTraces[2639000000]_FE_[OPT-350M]_[h16]_[s2048]_[d64].champsim.9.xz
trace_2 770-tot_memTraces_v4_2048/memTraces[2639000000]_FE_[OPT-350M]_[h16]_[s2048]_[d64].champsim.9.xz
trace_3 770-tot_memTraces_v4_2048/memTraces[2639000000]_FE_[OPT-350M]_[h16]_[s2048]_[d64].champsim.9.xz
Bingo PHT WAYS: 16 and PHT_SIZE: 1024
Bingo2 PHT WAYS: 16 and PHT_SIZE: 1024
Bingo PHT WAYS: 16 and PHT_SIZE: 1024
Bingo2 PHT WAYS: 16 and PHT_SIZE: 1024
Bingo PHT WAYS: 16 and PHT_SIZE: 1024
Bingo2 PHT WAYS: 16 and PHT_SIZE: 1024
Bingo PHT WAYS: 16 and PHT_SIZE: 1024
Bingo2 PHT WAYS: 16 and PHT_SIZE: 1024
MAIN.cc ln 751 stats print skipped
CPU  1 inst:    1000000 cyc:     497002 now IPC :2.01206: AVG IPC :2.01206: L2-Pf-HR :0.68332: L2-HR :0.59300: (Sim:0h0m46s) 
CPU  0 inst:    1000000 cyc:     497200 now IPC :2.01126: AVG IPC :2.01126: L2-Pf-HR :0.67826: L2-HR :0.59385: (Sim:0h0m46s) 
CPU  3 inst:    1000000 cyc:     497281 now IPC :2.01094: AVG IPC :2.01094: L2-Pf-HR :0.71128: L2-HR :0.61789: (Sim:0h0m46s) 
CPU  2 inst:    1000000 cyc:     497340 now IPC :2.01070: AVG IPC :2.01070: L2-Pf-HR :0.75395: L2-HR :0.64157: (Sim:0h0m46s) 
CPU  1 inst:    2000001 cyc:     978977 now IPC :2.07480: AVG IPC :2.04295: L2-Pf-HR :0.72085: L2-HR :0.67331: (Sim:0h1m36s) 
CPU  0 inst:    2000001 cyc:     979181 now IPC :2.07477: AVG IPC :2.04252: L2-Pf-HR :0.70419: L2-HR :0.66689: (Sim:0h1m36s) 
CPU  3 inst:    2000001 cyc:     979266 now IPC :2.07476: AVG IPC :2.04235: L2-Pf-HR :0.74952: L2-HR :0.69387: (Sim:0h1m36s) 
CPU  2 inst:    2000001 cyc:     979271 now IPC :2.07499: AVG IPC :2.04234: L2-Pf-HR :0.79954: L2-HR :0.72510: (Sim:0h1m36s) 

Warmup complete CPU  0 instructions:    2000270 cycles:     979271 (Simulation time: 0 hr 1 min 36 sec) 
Warmup complete CPU  1 instructions:    2000604 cycles:     979271 (Simulation time: 0 hr 1 min 36 sec) 
Warmup complete CPU  2 instructions:    2000001 cycles:     979271 (Simulation time: 0 hr 1 min 36 sec) 
Warmup complete CPU  3 instructions:    2000013 cycles:     979270 (Simulation time: 0 hr 1 min 36 sec) 

CPU  1 inst:    3000001 cyc:    1811561 now IPC :1.20108: AVG IPC :1.20078: L2-Pf-HR :0.87803: L2-HR :0.76347: (Sim:0h2m26s) 
CPU  0 inst:    3000001 cyc:    1812299 now IPC :1.20031: AVG IPC :1.20012: L2-Pf-HR :0.88453: L2-HR :0.77022: (Sim:0h2m26s) 
CPU  2 inst:    3000001 cyc:    1812541 now IPC :1.20009: AVG IPC :1.20009: L2-Pf-HR :0.92069: L2-HR :0.80332: (Sim:0h2m26s) 
CPU  3 inst:    3000001 cyc:    1834403 now IPC :1.16940: AVG IPC :1.16939: L2-Pf-HR :0.88048: L2-HR :0.76274: (Sim:0h2m27s) 
CPU  1 inst:    4000004 cyc:    2640151 now IPC :1.20687: AVG IPC :1.20382: L2-Pf-HR :0.87864: L2-HR :0.76748: (Sim:0h3m16s) 
CPU  0 inst:    4000004 cyc:    2644841 now IPC :1.20114: AVG IPC :1.20063: L2-Pf-HR :0.87058: L2-HR :0.76172: (Sim:0h3m16s) 
CPU  2 inst:    4000004 cyc:    2645483 now IPC :1.20057: AVG IPC :1.20033: L2-Pf-HR :0.91051: L2-HR :0.79759: (Sim:0h3m16s) 
CPU  3 inst:    4000004 cyc:    2674611 now IPC :1.19019: AVG IPC :1.17970: L2-Pf-HR :0.86564: L2-HR :0.75121: (Sim:0h3m18s) 
CPU  1 inst:    5000002 cyc:    3408593 now IPC :1.30133: AVG IPC :1.23466: L2-Pf-HR :0.85968: L2-HR :0.77320: (Sim:0h4m3s) 
CPU  2 inst:    5000005 cyc:    3428103 now IPC :1.27776: AVG IPC :1.22508: L2-Pf-HR :0.89164: L2-HR :0.79639: (Sim:0h4m5s) 
CPU  0 inst:    5000002 cyc:    3436952 now IPC :1.26245: AVG IPC :1.22055: L2-Pf-HR :0.84974: L2-HR :0.76533: (Sim:0h4m5s) 
CPU  3 inst:    5000002 cyc:    3476031 now IPC :1.24778: AVG IPC :1.20155: L2-Pf-HR :0.82796: L2-HR :0.74748: (Sim:0h4m7s) 
CPU  1 inst:    6000000 cyc:    4175845 now IPC :1.30335: AVG IPC :1.25115: L2-Pf-HR :0.86255: L2-HR :0.77535: (Sim:0h4m50s) 
CPU  0 inst:    6000000 cyc:    4256216 now IPC :1.22061: AVG IPC :1.22057: L2-Pf-HR :0.84812: L2-HR :0.76410: (Sim:0h4m55s) 
CPU  2 inst:    6000000 cyc:    4264651 now IPC :1.19538: AVG IPC :1.21751: L2-Pf-HR :0.89497: L2-HR :0.79365: (Sim:0h4m56s) 
CPU  3 inst:    6000000 cyc:    4274076 now IPC :1.25306: AVG IPC :1.21403: L2-Pf-HR :0.82052: L2-HR :0.74394: (Sim:0h4m56s) 
CPU  1 inst:    7000000 cyc:    4884061 now IPC :1.41200: AVG IPC :1.28032: L2-Pf-HR :0.86032: L2-HR :0.76932: (Sim:0h5m35s) 
CPU  0 inst:    7000000 cyc:    5032658 now IPC :1.28793: AVG IPC :1.23347: L2-Pf-HR :0.84930: L2-HR :0.76063: (Sim:0h5m44s) 
CPU  2 inst:    7000000 cyc:    5042383 now IPC :1.28579: AVG IPC :1.23058: L2-Pf-HR :0.89585: L2-HR :0.79358: (Sim:0h5m45s) 
CPU  3 inst:    7000000 cyc:    5046081 now IPC :1.29533: AVG IPC :1.22946: L2-Pf-HR :0.82781: L2-HR :0.74490: (Sim:0h5m45s) 
CPU  1 inst:    8000003 cyc:    5548028 now IPC :1.50610: AVG IPC :1.31314: L2-Pf-HR :0.85838: L2-HR :0.76443: (Sim:0h6m19s) 
CPU  0 inst:    8000003 cyc:    5779409 now IPC :1.33914: AVG IPC :1.24991: L2-Pf-HR :0.85239: L2-HR :0.76075: (Sim:0h6m34s) 
CPU  2 inst:    8000003 cyc:    5799384 now IPC :1.32101: AVG IPC :1.24478: L2-Pf-HR :0.89775: L2-HR :0.79174: (Sim:0h6m35s) 
CPU  3 inst:    8000003 cyc:    5803387 now IPC :1.32047: AVG IPC :1.24375: L2-Pf-HR :0.83415: L2-HR :0.74775: (Sim:0h6m35s) 
CPU  1 inst:    9000004 cyc:    6198164 now IPC :1.53814: AVG IPC :1.34117: L2-Pf-HR :0.85476: L2-HR :0.75985: (Sim:0h7m1s) 
CPU  0 inst:    9000005 cyc:    6524071 now IPC :1.34289: AVG IPC :1.26240: L2-Pf-HR :0.85240: L2-HR :0.75965: (Sim:0h7m23s) 
CPU  2 inst:    9000005 cyc:    6569862 now IPC :1.29790: AVG IPC :1.25210: L2-Pf-HR :0.89898: L2-HR :0.79145: (Sim:0h7m26s) 
CPU  3 inst:    9000005 cyc:    6570166 now IPC :1.30416: AVG IPC :1.25203: L2-Pf-HR :0.83314: L2-HR :0.74684: (Sim:0h7m26s) 
CPU  1 inst:   10000004 cyc:    6860244 now IPC :1.51039: AVG IPC :1.36022: L2-Pf-HR :0.85559: L2-HR :0.75887: (Sim:0h7m45s) 
CPU  0 inst:   10000004 cyc:    7238145 now IPC :1.40041: AVG IPC :1.27814: L2-Pf-HR :0.85263: L2-HR :0.75909: (Sim:0h8m10s) 
CPU  2 inst:   10000004 cyc:    7327291 now IPC :1.32025: AVG IPC :1.26024: L2-Pf-HR :0.90048: L2-HR :0.79078: (Sim:0h8m16s) 
CPU  3 inst:   10000004 cyc:    7327899 now IPC :1.31972: AVG IPC :1.26011: L2-Pf-HR :0.83654: L2-HR :0.74815: (Sim:0h8m16s) 
CPU  1 inst:   11000002 cyc:    7591943 now IPC :1.36668: AVG IPC :1.36093: L2-Pf-HR :0.85834: L2-HR :0.75977: (Sim:0h8m33s) 
CPU  0 inst:   11000002 cyc:    7919212 now IPC :1.46828: AVG IPC :1.29680: L2-Pf-HR :0.85396: L2-HR :0.75685: (Sim:0h8m55s) 
CPU  3 inst:   11000002 cyc:    8071632 now IPC :1.34457: AVG IPC :1.26897: L2-Pf-HR :0.83623: L2-HR :0.74692: (Sim:0h9m5s) 
CPU  2 inst:   11000002 cyc:    8072130 now IPC :1.34257: AVG IPC :1.26888: L2-Pf-HR :0.90176: L2-HR :0.79052: (Sim:0h9m5s) 
CPU  1 inst:   12000003 cyc:    8327500 now IPC :1.35952: AVG IPC :1.36079: L2-Pf-HR :0.85764: L2-HR :0.76037: (Sim:0h9m22s) 
CPU  0 inst:   12000003 cyc:    8595434 now IPC :1.47881: AVG IPC :1.31296: L2-Pf-HR :0.85267: L2-HR :0.75540: (Sim:0h9m39s) 
CPU  3 inst:   12000003 cyc:    8800492 now IPC :1.37201: AVG IPC :1.27857: L2-Pf-HR :0.83742: L2-HR :0.74918: (Sim:0h9m47s) 
CPU  2 inst:   12000003 cyc:    8807325 now IPC :1.36018: AVG IPC :1.27746: L2-Pf-HR :0.90224: L2-HR :0.79020: (Sim:0h9m48s) 
CPU  1 inst:   13000001 cyc:    9045459 now IPC :1.39283: AVG IPC :1.36364: L2-Pf-HR :0.85777: L2-HR :0.75779: (Sim:0h9m57s) 
CPU  0 inst:   13000001 cyc:    9287663 now IPC :1.44461: AVG IPC :1.32393: L2-Pf-HR :0.85615: L2-HR :0.75533: (Sim:0h10m7s) 
CPU  3 inst:   13000004 cyc:    9562718 now IPC :1.31195: AVG IPC :1.28154: L2-Pf-HR :0.84111: L2-HR :0.74802: (Sim:0h10m19s) 
CPU  2 inst:   13000004 cyc:    9566502 now IPC :1.31722: AVG IPC :1.28097: L2-Pf-HR :0.90445: L2-HR :0.79008: (Sim:0h10m19s) 
CPU  1 inst:   14000000 cyc:    9733779 now IPC :1.45281: AVG IPC :1.37065: L2-Pf-HR :0.86149: L2-HR :0.75892: (Sim:0h10m27s) 
CPU  0 inst:   14000001 cyc:    9863426 now IPC :1.73683: AVG IPC :1.35069: L2-Pf-HR :0.85589: L2-HR :0.75667: (Sim:0h10m33s) 
CPU  3 inst:   14000000 cyc:   10235164 now IPC :1.48710: AVG IPC :1.29647: L2-Pf-HR :0.84668: L2-HR :0.75223: (Sim:0h10m49s) 
CPU  2 inst:   14000000 cyc:   10239047 now IPC :1.48688: AVG IPC :1.29593: L2-Pf-HR :0.90704: L2-HR :0.79157: (Sim:0h10m49s) 
CPU  1 inst:   15000004 cyc:   10399128 now IPC :1.50298: AVG IPC :1.38000: L2-Pf-HR :0.86429: L2-HR :0.75874: (Sim:0h10m56s) 
CPU  0 inst:   15000004 cyc:   10487416 now IPC :1.60259: AVG IPC :1.36722: L2-Pf-HR :0.85914: L2-HR :0.75631: (Sim:0h11m0s) 
CPU  3 inst:   15000004 cyc:   10936426 now IPC :1.42601: AVG IPC :1.30559: L2-Pf-HR :0.85181: L2-HR :0.75361: (Sim:0h11m30s) 
CPU  2 inst:   15000004 cyc:   10941088 now IPC :1.42442: AVG IPC :1.30498: L2-Pf-HR :0.91035: L2-HR :0.79270: (Sim:0h11m30s) 
CPU  1 inst:   16000005 cyc:   11072214 now IPC :1.48570: AVG IPC :1.38705: L2-Pf-HR :0.86602: L2-HR :0.76061: (Sim:0h11m39s) 
CPU  0 inst:   16000005 cyc:   11159263 now IPC :1.48844: AVG IPC :1.37522: L2-Pf-HR :0.85983: L2-HR :0.75681: (Sim:0h11m45s) 
CPU  3 inst:   16000005 cyc:   11648775 now IPC :1.40381: AVG IPC :1.31215: L2-Pf-HR :0.85538: L2-HR :0.75535: (Sim:0h12m19s) 
CPU  2 inst:   16000005 cyc:   11651093 now IPC :1.40844: AVG IPC :1.31187: L2-Pf-HR :0.91174: L2-HR :0.79414: (Sim:0h12m19s) 
CPU  1 inst:   17000005 cyc:   11716261 now IPC :1.55268: AVG IPC :1.39698: L2-Pf-HR :0.87004: L2-HR :0.76344: (Sim:0h12m24s) 
CPU  0 inst:   17000005 cyc:   11849577 now IPC :1.44862: AVG IPC :1.37988: L2-Pf-HR :0.86031: L2-HR :0.75751: (Sim:0h12m33s) 
CPU  1 inst:   18000005 cyc:   12317934 now IPC :1.66203: AVG IPC :1.41105: L2-Pf-HR :0.87310: L2-HR :0.76559: (Sim:0h13m7s) 
CPU  3 inst:   17000005 cyc:   12342972 now IPC :1.44051: AVG IPC :1.31999: L2-Pf-HR :0.85803: L2-HR :0.75572: (Sim:0h13m9s) 
CPU  2 inst:   17000005 cyc:   12345936 now IPC :1.43917: AVG IPC :1.31965: L2-Pf-HR :0.91455: L2-HR :0.79494: (Sim:0h13m9s) 
CPU  0 inst:   18000005 cyc:   12519489 now IPC :1.49273: AVG IPC :1.38643: L2-Pf-HR :0.86123: L2-HR :0.75797: (Sim:0h13m21s) 
CPU  1 inst:   19000004 cyc:   12955767 now IPC :1.56781: AVG IPC :1.41940: L2-Pf-HR :0.87603: L2-HR :0.76647: (Sim:0h13m51s) 
CPU  3 inst:   18000005 cyc:   13019787 now IPC :1.47751: AVG IPC :1.32885: L2-Pf-HR :0.85671: L2-HR :0.75433: (Sim:0h13m56s) 
CPU  2 inst:   18000005 cyc:   13022889 now IPC :1.47721: AVG IPC :1.32850: L2-Pf-HR :0.91622: L2-HR :0.79542: (Sim:0h13m56s) 
CPU  0 inst:   19000004 cyc:   13253119 now IPC :1.36308: AVG IPC :1.38504: L2-Pf-HR :0.86482: L2-HR :0.75904: (Sim:0h14m11s) 
CPU  1 inst:   20000002 cyc:   13562851 now IPC :1.64722: AVG IPC :1.43039: L2-Pf-HR :0.87834: L2-HR :0.76587: (Sim:0h14m32s) 
CPU  3 inst:   19000004 cyc:   13782008 now IPC :1.31195: AVG IPC :1.32784: L2-Pf-HR :0.86156: L2-HR :0.75591: (Sim:0h14m47s) 
CPU  2 inst:   19000004 cyc:   13785841 now IPC :1.31070: AVG IPC :1.32744: L2-Pf-HR :0.91896: L2-HR :0.79705: (Sim:0h14m47s) 
CPU  0 inst:   20000002 cyc:   14008321 now IPC :1.32415: AVG IPC :1.38151: L2-Pf-HR :0.86920: L2-HR :0.76000: (Sim:0h15m1s) 
CPU  1 inst:   21000005 cyc:   14267014 now IPC :1.42013: AVG IPC :1.42984: L2-Pf-HR :0.87994: L2-HR :0.76592: (Sim:0h15m18s) 
CPU  3 inst:   20000002 cyc:   14564699 now IPC :1.27764: AVG IPC :1.32495: L2-Pf-HR :0.86478: L2-HR :0.75631: (Sim:0h15m36s) 
CPU  2 inst:   20000002 cyc:   14568912 now IPC :1.27702: AVG IPC :1.32454: L2-Pf-HR :0.92061: L2-HR :0.79724: (Sim:0h15m36s) 
CPU  0 inst:   21000005 cyc:   14801923 now IPC :1.26008: AVG IPC :1.37454: L2-Pf-HR :0.87048: L2-HR :0.76068: (Sim:0h15m51s) 
CPU  1 inst:   22000002 cyc:   15032678 now IPC :1.30605: AVG IPC :1.42310: L2-Pf-HR :0.88167: L2-HR :0.76661: (Sim:0h16m6s) 
CPU  3 inst:   21000005 cyc:   15325388 now IPC :1.31460: AVG IPC :1.32440: L2-Pf-HR :0.86529: L2-HR :0.75647: (Sim:0h16m25s) 
CPU  2 inst:   21000005 cyc:   15336049 now IPC :1.30355: AVG IPC :1.32342: L2-Pf-HR :0.92218: L2-HR :0.79828: (Sim:0h16m26s) 
CPU  0 inst:   22000002 cyc:   15586611 now IPC :1.27439: AVG IPC :1.36916: L2-Pf-HR :0.87173: L2-HR :0.76114: (Sim:0h16m41s) 
CPU  1 inst:   23000001 cyc:   15801333 now IPC :1.30097: AVG IPC :1.41677: L2-Pf-HR :0.88566: L2-HR :0.76835: (Sim:0h16m54s) 
CPU  3 inst:   22000002 cyc:   16106050 now IPC :1.28096: AVG IPC :1.32216: L2-Pf-HR :0.86871: L2-HR :0.75776: (Sim:0h17m14s) 
CPU  2 inst:   22000002 cyc:   16142730 now IPC :1.23964: AVG IPC :1.31896: L2-Pf-HR :0.92360: L2-HR :0.79881: (Sim:0h17m16s) 
CPU  0 inst:   23000001 cyc:   16372154 now IPC :1.27300: AVG IPC :1.36425: L2-Pf-HR :0.87323: L2-HR :0.76089: (Sim:0h17m31s) 
CPU  1 inst:   24000003 cyc:   16556400 now IPC :1.32439: AVG IPC :1.41229: L2-Pf-HR :0.88697: L2-HR :0.76963: (Sim:0h17m43s) 
CPU  3 inst:   23000001 cyc:   16850566 now IPC :1.34315: AVG IPC :1.32314: L2-Pf-HR :0.87081: L2-HR :0.75782: (Sim:0h18m1s) 
CPU  2 inst:   23000001 cyc:   16911973 now IPC :1.29998: AVG IPC :1.31804: L2-Pf-HR :0.92538: L2-HR :0.79949: (Sim:0h18m5s) 
CPU  0 inst:   24000003 cyc:   17114760 now IPC :1.34661: AVG IPC :1.36344: L2-Pf-HR :0.87274: L2-HR :0.76070: (Sim:0h18m19s) 
CPU  1 inst:   25000003 cyc:   17334713 now IPC :1.28483: AVG IPC :1.40622: L2-Pf-HR :0.88780: L2-HR :0.76887: (Sim:0h18m34s) 
CPU  3 inst:   24000003 cyc:   17500951 now IPC :1.53755: AVG IPC :1.33158: L2-Pf-HR :0.87307: L2-HR :0.75945: (Sim:0h18m45s) 
CPU  2 inst:   24000003 cyc:   17621845 now IPC :1.40871: AVG IPC :1.32191: L2-Pf-HR :0.92644: L2-HR :0.79996: (Sim:0h18m53s) 
CPU  0 inst:   25000003 cyc:   17986856 now IPC :1.14666: AVG IPC :1.35232: L2-Pf-HR :0.87445: L2-HR :0.76079: (Sim:0h19m13s) 
CPU  1 inst:   26000001 cyc:   18167740 now IPC :1.20044: AVG IPC :1.39625: L2-Pf-HR :0.88868: L2-HR :0.76945: (Sim:0h19m23s) 
CPU  3 inst:   25000003 cyc:   18385745 now IPC :1.13021: AVG IPC :1.32135: L2-Pf-HR :0.87477: L2-HR :0.75947: (Sim:0h19m36s) 
CPU  2 inst:   25000003 cyc:   18632017 now IPC :0.98993: AVG IPC :1.30291: L2-Pf-HR :0.92691: L2-HR :0.79956: (Sim:0h19m50s) 
CPU  0 inst:   26000001 cyc:   18903403 now IPC :1.09105: AVG IPC :1.33896: L2-Pf-HR :0.87462: L2-HR :0.76148: (Sim:0h20m6s) 
CPU  1 inst:   27000001 cyc:   19094266 now IPC :1.07930: AVG IPC :1.38004: L2-Pf-HR :0.88908: L2-HR :0.76928: (Sim:0h20m17s) 
CPU  3 inst:   26000001 cyc:   19138253 now IPC :1.32889: AVG IPC :1.32166: L2-Pf-HR :0.87694: L2-HR :0.76130: (Sim:0h20m20s) 
CPU  2 inst:   26000001 cyc:   19573776 now IPC :1.06184: AVG IPC :1.29070: L2-Pf-HR :0.92828: L2-HR :0.80033: (Sim:0h20m45s) 
CPU  0 inst:   27000001 cyc:   19828529 now IPC :1.08093: AVG IPC :1.32630: L2-Pf-HR :0.87518: L2-HR :0.76162: (Sim:0h20m59s) 
CPU  3 inst:   27000001 cyc:   19948267 now IPC :1.23455: AVG IPC :1.31794: L2-Pf-HR :0.87880: L2-HR :0.76168: (Sim:0h21m5s) 
CPU  1 inst:   28000001 cyc:   20070077 now IPC :1.02479: AVG IPC :1.36188: L2-Pf-HR :0.89013: L2-HR :0.77011: (Sim:0h21m12s) 
CPU  2 inst:   27000001 cyc:   20687439 now IPC :0.89794: AVG IPC :1.26851: L2-Pf-HR :0.92925: L2-HR :0.80062: (Sim:0h21m42s) 
CPU  0 inst:   28000001 cyc:   20890216 now IPC :0.94190: AVG IPC :1.30580: L2-Pf-HR :0.87677: L2-HR :0.76179: (Sim:0h21m52s) 
CPU  3 inst:   28000001 cyc:   20982129 now IPC :0.96725: AVG IPC :1.29981: L2-Pf-HR :0.87903: L2-HR :0.76190: (Sim:0h21m57s) 
CPU  1 inst:   29000000 cyc:   21165744 now IPC :0.91269: AVG IPC :1.33750: L2-Pf-HR :0.89126: L2-HR :0.77135: (Sim:0h22m4s) 
CPU  2 inst:   28000001 cyc:   21766325 now IPC :0.92688: AVG IPC :1.25078: L2-Pf-HR :0.92989: L2-HR :0.80159: (Sim:0h22m26s) 
CPU  0 inst:   29000000 cyc:   21857009 now IPC :1.03435: AVG IPC :1.29323: L2-Pf-HR :0.87750: L2-HR :0.76226: (Sim:0h22m29s) 
CPU  3 inst:   29000000 cyc:   21979649 now IPC :1.00249: AVG IPC :1.28569: L2-Pf-HR :0.87916: L2-HR :0.76170: (Sim:0h22m34s) 
CPU  1 inst:   30000001 cyc:   22206719 now IPC :0.96064: AVG IPC :1.31902: L2-Pf-HR :0.89361: L2-HR :0.77246: (Sim:0h22m41s) 
CPU  0 inst:   30000001 cyc:   22622021 now IPC :1.30717: AVG IPC :1.29372: L2-Pf-HR :0.87883: L2-HR :0.76260: (Sim:0h22m56s) 
CPU  2 inst:   29000000 cyc:   22763026 now IPC :1.00331: AVG IPC :1.23946: L2-Pf-HR :0.93095: L2-HR :0.80203: (Sim:0h23m0s) 
CPU  3 inst:   30000001 cyc:   22985710 now IPC :0.99398: AVG IPC :1.27235: L2-Pf-HR :0.88076: L2-HR :0.76178: (Sim:0h23m7s) 
CPU  1 inst:   31000000 cyc:   23311251 now IPC :0.90536: AVG IPC :1.29856: L2-Pf-HR :0.89437: L2-HR :0.77284: (Sim:0h23m17s) 
CPU  0 inst:   31000000 cyc:   23497228 now IPC :1.14259: AVG IPC :1.28785: L2-Pf-HR :0.87978: L2-HR :0.76301: (Sim:0h23m23s) 
CPU  2 inst:   30000001 cyc:   23943048 now IPC :0.84744: AVG IPC :1.21931: L2-Pf-HR :0.93231: L2-HR :0.80251: (Sim:0h23m35s) 
CPU  3 inst:   31000000 cyc:   24197792 now IPC :0.82503: AVG IPC :1.24900: L2-Pf-HR :0.88174: L2-HR :0.76234: (Sim:0h23m42s) 
CPU  1 inst:   32000001 cyc:   24585297 now IPC :0.78490: AVG IPC :1.27084: L2-Pf-HR :0.89492: L2-HR :0.77239: (Sim:0h23m53s) 
CPU  0 inst:   32000005 cyc:   24655463 now IPC :0.86339: AVG IPC :1.26708: L2-Pf-HR :0.88174: L2-HR :0.76369: (Sim:0h23m54s) 
CPU  2 inst:   31000005 cyc:   25249964 now IPC :0.76516: AVG IPC :1.19486: L2-Pf-HR :0.93316: L2-HR :0.80316: (Sim:0h24m10s) 
CPU  3 inst:   32000001 cyc:   25491769 now IPC :0.77281: AVG IPC :1.22386: L2-Pf-HR :0.88372: L2-HR :0.76283: (Sim:0h24m16s) 
CPU  1 inst:   33000002 cyc:   25913184 now IPC :0.75308: AVG IPC :1.24326: L2-Pf-HR :0.89558: L2-HR :0.77230: (Sim:0h24m29s) 
CPU  0 inst:   33000002 cyc:   25924910 now IPC :0.78774: AVG IPC :1.24269: L2-Pf-HR :0.88253: L2-HR :0.76410: (Sim:0h24m30s) 
CPU  2 inst:   32000001 cyc:   26441729 now IPC :0.83909: AVG IPC :1.17821: L2-Pf-HR :0.93412: L2-HR :0.80338: (Sim:0h24m45s) 
CPU  3 inst:   33000002 cyc:   26452398 now IPC :1.04099: AVG IPC :1.21697: L2-Pf-HR :0.88412: L2-HR :0.76297: (Sim:0h24m45s) 
CPU  1 inst:   34000005 cyc:   27081931 now IPC :0.85562: AVG IPC :1.22591: L2-Pf-HR :0.89671: L2-HR :0.77281: (Sim:0h25m5s) 
CPU  0 inst:   34000005 cyc:   27108443 now IPC :0.84493: AVG IPC :1.22467: L2-Pf-HR :0.88313: L2-HR :0.76433: (Sim:0h25m6s) 
CPU  3 inst:   34000005 cyc:   27310003 now IPC :1.16604: AVG IPC :1.21531: L2-Pf-HR :0.88540: L2-HR :0.76363: (Sim:0h25m12s) 
CPU  2 inst:   33000002 cyc:   27478047 now IPC :0.96496: AVG IPC :1.16987: L2-Pf-HR :0.93457: L2-HR :0.80372: (Sim:0h25m18s) 
CPU  1 inst:   35000005 cyc:   28162796 now IPC :0.92518: AVG IPC :1.21395: L2-Pf-HR :0.89859: L2-HR :0.77378: (Sim:0h25m40s) 
CPU  0 inst:   35000005 cyc:   28273058 now IPC :0.85865: AVG IPC :1.20906: L2-Pf-HR :0.88497: L2-HR :0.76441: (Sim:0h25m43s) 
CPU  3 inst:   35000005 cyc:   28303127 now IPC :1.00692: AVG IPC :1.20774: L2-Pf-HR :0.88593: L2-HR :0.76371: (Sim:0h25m44s) 
CPU  2 inst:   34000005 cyc:   28387268 now IPC :1.09985: AVG IPC :1.16754: L2-Pf-HR :0.93553: L2-HR :0.80405: (Sim:0h25m47s) 
CPU  1 inst:   36000002 cyc:   29016297 now IPC :1.17164: AVG IPC :1.21266: L2-Pf-HR :0.90016: L2-HR :0.77433: (Sim:0h26m12s) 
CPU  0 inst:   36000000 cyc:   29280617 now IPC :0.99249: AVG IPC :1.20135: L2-Pf-HR :0.88574: L2-HR :0.76402: (Sim:0h26m27s) 
CPU  2 inst:   35000005 cyc:   29320752 now IPC :1.07126: AVG IPC :1.16437: L2-Pf-HR :0.93613: L2-HR :0.80426: (Sim:0h26m28s) 
CPU  3 inst:   36000000 cyc:   29323495 now IPC :0.98003: AVG IPC :1.19954: L2-Pf-HR :0.88815: L2-HR :0.76471: (Sim:0h26m28s) 
CPU  1 inst:   37000002 cyc:   30104356 now IPC :0.91907: AVG IPC :1.20169: L2-Pf-HR :0.89945: L2-HR :0.77331: (Sim:0h27m6s) 
CPU  2 inst:   36000002 cyc:   30436501 now IPC :0.89626: AVG IPC :1.15422: L2-Pf-HR :0.93687: L2-HR :0.80466: (Sim:0h27m22s) 
CPU  0 inst:   37000002 cyc:   30597471 now IPC :0.75939: AVG IPC :1.18170: L2-Pf-HR :0.88703: L2-HR :0.76414: (Sim:0h27m30s) 
CPU  3 inst:   37000002 cyc:   30632377 now IPC :0.76401: AVG IPC :1.18031: L2-Pf-HR :0.88943: L2-HR :0.76502: (Sim:0h27m31s) 
CPU  1 inst:   38000000 cyc:   31150860 now IPC :0.95556: AVG IPC :1.19316: L2-Pf-HR :0.89940: L2-HR :0.77342: (Sim:0h27m54s) 
CPU  0 inst:   38000000 cyc:   31681354 now IPC :0.92261: AVG IPC :1.17255: L2-Pf-HR :0.88700: L2-HR :0.76464: (Sim:0h28m22s) 
CPU  2 inst:   37000002 cyc:   31720801 now IPC :0.77863: AVG IPC :1.13853: L2-Pf-HR :0.93700: L2-HR :0.80423: (Sim:0h28m24s) 
CPU  3 inst:   38000000 cyc:   31785176 now IPC :0.86745: AVG IPC :1.16861: L2-Pf-HR :0.89058: L2-HR :0.76594: (Sim:0h28m27s) 
CPU  1 inst:   39000000 cyc:   32225848 now IPC :0.93024: AVG IPC :1.18411: L2-Pf-HR :0.89933: L2-HR :0.77319: (Sim:0h28m51s) 
CPU  0 inst:   39000000 cyc:   32607467 now IPC :1.07978: AVG IPC :1.16983: L2-Pf-HR :0.88751: L2-HR :0.76474: (Sim:0h29m12s) 
CPU  3 inst:   39000000 cyc:   32727639 now IPC :1.06105: AVG IPC :1.16541: L2-Pf-HR :0.89151: L2-HR :0.76631: (Sim:0h29m18s) 
CPU  2 inst:   38000000 cyc:   32764586 now IPC :0.95805: AVG IPC :1.13260: L2-Pf-HR :0.93763: L2-HR :0.80453: (Sim:0h29m20s) 
CPU  1 inst:   40000003 cyc:   33227314 now IPC :0.99854: AVG IPC :1.17835: L2-Pf-HR :0.89954: L2-HR :0.77356: (Sim:0h29m45s) 
CPU  0 inst:   40000003 cyc:   33537524 now IPC :1.07521: AVG IPC :1.16713: L2-Pf-HR :0.88775: L2-HR :0.76482: (Sim:0h30m2s) 
CPU  3 inst:   40000003 cyc:   33650055 now IPC :1.08411: AVG IPC :1.16312: L2-Pf-HR :0.89164: L2-HR :0.76638: (Sim:0h30m7s) 
CPU  2 inst:   39000000 cyc:   33836927 now IPC :0.93254: AVG IPC :1.12607: L2-Pf-HR :0.93826: L2-HR :0.80485: (Sim:0h30m13s) 
CPU  1 inst:   41000000 cyc:   34254543 now IPC :0.97349: AVG IPC :1.17202: L2-Pf-HR :0.90001: L2-HR :0.77452: (Sim:0h30m31s) 
CPU  0 inst:   41000000 cyc:   34524689 now IPC :1.01300: AVG IPC :1.16259: L2-Pf-HR :0.88717: L2-HR :0.76516: (Sim:0h30m45s) 
CPU  3 inst:   41000000 cyc:   34605693 now IPC :1.04642: AVG IPC :1.15980: L2-Pf-HR :0.89078: L2-HR :0.76643: (Sim:0h30m49s) 
CPU  2 inst:   40000003 cyc:   34990808 now IPC :0.86664: AVG IPC :1.11727: L2-Pf-HR :0.93876: L2-HR :0.80518: (Sim:0h31m9s) 
CPU  1 inst:   42000001 cyc:   35158182 now IPC :1.10664: AVG IPC :1.17029: L2-Pf-HR :0.90047: L2-HR :0.77516: (Sim:0h31m16s) 
CPU  0 inst:   42000002 cyc:   35711099 now IPC :0.84288: AVG IPC :1.15167: L2-Pf-HR :0.88740: L2-HR :0.76513: (Sim:0h31m40s) 
CPU  3 inst:   42000001 cyc:   35772953 now IPC :0.85671: AVG IPC :1.14963: L2-Pf-HR :0.89072: L2-HR :0.76631: (Sim:0h31m43s) 
CPU  2 inst:   41000000 cyc:   36119979 now IPC :0.88560: AVG IPC :1.10982: L2-Pf-HR :0.93962: L2-HR :0.80565: (Sim:0h32m0s) 
CPU  1 inst:   43000000 cyc:   36182957 now IPC :0.97582: AVG IPC :1.16463: L2-Pf-HR :0.90126: L2-HR :0.77542: (Sim:0h32m3s) 
CPU  0 inst:   43000001 cyc:   36862071 now IPC :0.86883: AVG IPC :1.14260: L2-Pf-HR :0.88810: L2-HR :0.76534: (Sim:0h32m36s) 
CPU  3 inst:   43000003 cyc:   37018939 now IPC :0.80258: AVG IPC :1.13763: L2-Pf-HR :0.89170: L2-HR :0.76669: (Sim:0h32m44s) 
CPU  2 inst:   42000000 cyc:   37117447 now IPC :1.00254: AVG IPC :1.10686: L2-Pf-HR :0.94033: L2-HR :0.80594: (Sim:0h32m49s) 
CPU  1 inst:   44000000 cyc:   37349221 now IPC :0.85744: AVG IPC :1.15478: L2-Pf-HR :0.90182: L2-HR :0.77510: (Sim:0h33m1s) 
CPU  0 inst:   44000000 cyc:   37840152 now IPC :1.02241: AVG IPC :1.13941: L2-Pf-HR :0.88912: L2-HR :0.76556: (Sim:0h33m26s) 
CPU  3 inst:   44000000 cyc:   38149080 now IPC :0.88484: AVG IPC :1.12995: L2-Pf-HR :0.89275: L2-HR :0.76698: (Sim:0h33m42s) 
CPU  2 inst:   43000002 cyc:   38166271 now IPC :0.95345: AVG IPC :1.10254: L2-Pf-HR :0.94109: L2-HR :0.80650: (Sim:0h33m43s) 
CPU  1 inst:   45000003 cyc:   38506739 now IPC :0.86392: AVG IPC :1.14581: L2-Pf-HR :0.90259: L2-HR :0.77493: (Sim:0h34m0s) 
CPU  0 inst:   45000003 cyc:   38874097 now IPC :0.96717: AVG IPC :1.13471: L2-Pf-HR :0.88954: L2-HR :0.76576: (Sim:0h34m18s) 
CPU  3 inst:   45000003 cyc:   39270673 now IPC :0.89159: AVG IPC :1.12297: L2-Pf-HR :0.89273: L2-HR :0.76694: (Sim:0h34m37s) 
CPU  2 inst:   44000000 cyc:   39278955 now IPC :0.89873: AVG IPC :1.09661: L2-Pf-HR :0.94187: L2-HR :0.80665: (Sim:0h34m38s) 
CPU  1 inst:   46000004 cyc:   39658407 now IPC :0.86831: AVG IPC :1.13755: L2-Pf-HR :0.90313: L2-HR :0.77522: (Sim:0h34m57s) 
CPU  0 inst:   46000004 cyc:   39949304 now IPC :0.93005: AVG IPC :1.12907: L2-Pf-HR :0.88986: L2-HR :0.76590: (Sim:0h35m11s) 
CPU  3 inst:   46000004 cyc:   40339339 now IPC :0.93575: AVG IPC :1.11788: L2-Pf-HR :0.89366: L2-HR :0.76721: (Sim:0h35m31s) 
CPU  2 inst:   45000003 cyc:   40375243 now IPC :0.91217: AVG IPC :1.09148: L2-Pf-HR :0.94233: L2-HR :0.80687: (Sim:0h35m33s) 
CPU  1 inst:   47000000 cyc:   40779982 now IPC :0.89160: AVG IPC :1.13062: L2-Pf-HR :0.90438: L2-HR :0.77585: (Sim:0h35m52s) 
CPU  0 inst:   47000000 cyc:   41053090 now IPC :0.90597: AVG IPC :1.12292: L2-Pf-HR :0.89086: L2-HR :0.76567: (Sim:0h36m6s) 
CPU  3 inst:   47000000 cyc:   41427818 now IPC :0.91871: AVG IPC :1.11252: L2-Pf-HR :0.89434: L2-HR :0.76710: (Sim:0h36m25s) 
CPU  2 inst:   46000004 cyc:   41490970 now IPC :0.89628: AVG IPC :1.08611: L2-Pf-HR :0.94285: L2-HR :0.80715: (Sim:0h36m29s) 
CPU  1 inst:   48000003 cyc:   41841851 now IPC :0.94174: AVG IPC :1.12571: L2-Pf-HR :0.90483: L2-HR :0.77624: (Sim:0h36m47s) 
CPU  0 inst:   48000000 cyc:   42144270 now IPC :0.91644: AVG IPC :1.11745: L2-Pf-HR :0.89104: L2-HR :0.76560: (Sim:0h37m2s) 
CPU  3 inst:   48000001 cyc:   42481680 now IPC :0.94889: AVG IPC :1.10837: L2-Pf-HR :0.89474: L2-HR :0.76769: (Sim:0h37m17s) 
CPU  2 inst:   47000000 cyc:   42707716 now IPC :0.82186: AVG IPC :1.07840: L2-Pf-HR :0.94331: L2-HR :0.80726: (Sim:0h37m27s) 
CPU  1 inst:   49000005 cyc:   43163597 now IPC :0.75658: AVG IPC :1.11414: L2-Pf-HR :0.90465: L2-HR :0.77562: (Sim:0h37m48s) 
CPU  0 inst:   49000005 cyc:   43394474 now IPC :0.79987: AVG IPC :1.10809: L2-Pf-HR :0.89187: L2-HR :0.76574: (Sim:0h38m0s) 
CPU  3 inst:   49000005 cyc:   43646176 now IPC :0.85874: AVG IPC :1.10156: L2-Pf-HR :0.89522: L2-HR :0.76755: (Sim:0h38m13s) 
CPU  2 inst:   48000001 cyc:   43895708 now IPC :0.84176: AVG IPC :1.07185: L2-Pf-HR :0.94352: L2-HR :0.80748: (Sim:0h38m25s) 
CPU  1 inst:   50000002 cyc:   44303242 now IPC :0.87746: AVG IPC :1.10792: L2-Pf-HR :0.90486: L2-HR :0.77565: (Sim:0h38m45s) 
CPU  0 inst:   50000002 cyc:   44558099 now IPC :0.85938: AVG IPC :1.10145: L2-Pf-HR :0.89279: L2-HR :0.76605: (Sim:0h38m57s) 
CPU  3 inst:   50000002 cyc:   44724553 now IPC :0.92732: AVG IPC :1.09726: L2-Pf-HR :0.89655: L2-HR :0.76827: (Sim:0h39m5s) 
CPU  2 inst:   49000005 cyc:   45289231 now IPC :0.71761: AVG IPC :1.06071: L2-Pf-HR :0.94349: L2-HR :0.80730: (Sim:0h39m31s) 
CPU  1 inst:   51000000 cyc:   45295588 now IPC :1.00771: AVG IPC :1.10567: L2-Pf-HR :0.90510: L2-HR :0.77562: (Sim:0h39m32s) 
CPU  0 inst:   51000000 cyc:   45820576 now IPC :0.79209: AVG IPC :1.09274: L2-Pf-HR :0.89261: L2-HR :0.76610: (Sim:0h39m56s) 
CPU  3 inst:   51000000 cyc:   46024040 now IPC :0.76953: AVG IPC :1.08781: L2-Pf-HR :0.89671: L2-HR :0.76850: (Sim:0h40m5s) 
CPU  1 inst:   52000002 cyc:   46424899 now IPC :0.88550: AVG IPC :1.10020: L2-Pf-HR :0.90536: L2-HR :0.77585: (Sim:0h40m25s) 
CPU  2 inst:   50000002 cyc:   46581294 now IPC :0.77395: AVG IPC :1.05258: L2-Pf-HR :0.94383: L2-HR :0.80742: (Sim:0h40m33s) 
CPU  0 inst:   52000002 cyc:   46840418 now IPC :0.98055: AVG IPC :1.09024: L2-Pf-HR :0.89282: L2-HR :0.76606: (Sim:0h40m45s) 
CPU  3 inst:   52000002 cyc:   47282470 now IPC :0.79464: AVG IPC :1.07984: L2-Pf-HR :0.89686: L2-HR :0.76845: (Sim:0h41m6s) 
CPU  1 inst:   53000004 cyc:   47737880 now IPC :0.76163: AVG IPC :1.09070: L2-Pf-HR :0.90570: L2-HR :0.77658: (Sim:0h41m26s) 
CPU  0 inst:   53000004 cyc:   47846977 now IPC :0.99349: AVG IPC :1.08816: L2-Pf-HR :0.89286: L2-HR :0.76628: (Sim:0h41m31s) 
CPU  2 inst:   51000000 cyc:   47950865 now IPC :0.73015: AVG IPC :1.04318: L2-Pf-HR :0.94406: L2-HR :0.80754: (Sim:0h41m35s) 
CPU  3 inst:   53000003 cyc:   48741732 now IPC :0.68528: AVG IPC :1.06778: L2-Pf-HR :0.89638: L2-HR :0.76838: (Sim:0h42m13s) 
CPU  1 inst:   54000002 cyc:   48999177 now IPC :0.79283: AVG IPC :1.08287: L2-Pf-HR :0.90633: L2-HR :0.77708: (Sim:0h42m25s) 
CPU  2 inst:   52000002 cyc:   49011728 now IPC :0.94263: AVG IPC :1.04096: L2-Pf-HR :0.94410: L2-HR :0.80779: (Sim:0h42m25s) 
CPU  0 inst:   54000000 cyc:   49090431 now IPC :0.80421: AVG IPC :1.08082: L2-Pf-HR :0.89288: L2-HR :0.76623: (Sim:0h42m29s) 
CPU  3 inst:   54000002 cyc:   50002860 now IPC :0.79294: AVG IPC :1.06071: L2-Pf-HR :0.89632: L2-HR :0.76808: (Sim:0h43m12s) 
CPU  2 inst:   53000004 cyc:   50017412 now IPC :0.99435: AVG IPC :1.04001: L2-Pf-HR :0.94458: L2-HR :0.80808: (Sim:0h43m13s) 
CPU  1 inst:   55000000 cyc:   50210420 now IPC :0.82560: AVG IPC :1.07654: L2-Pf-HR :0.90693: L2-HR :0.77727: (Sim:0h43m22s) 
CPU  0 inst:   55000000 cyc:   50361030 now IPC :0.78703: AVG IPC :1.07327: L2-Pf-HR :0.89333: L2-HR :0.76660: (Sim:0h43m29s) 
CPU  2 inst:   54000000 cyc:   51094794 now IPC :0.92817: AVG IPC :1.03760: L2-Pf-HR :0.94497: L2-HR :0.80815: (Sim:0h44m5s) 
CPU  3 inst:   55000000 cyc:   51215998 now IPC :0.82431: AVG IPC :1.05500: L2-Pf-HR :0.89674: L2-HR :0.76840: (Sim:0h44m12s) 
CPU  1 inst:   56000002 cyc:   51283237 now IPC :0.93213: AVG IPC :1.07346: L2-Pf-HR :0.90716: L2-HR :0.77705: (Sim:0h44m15s) 
CPU  0 inst:   56000002 cyc:   51434279 now IPC :0.93175: AVG IPC :1.07026: L2-Pf-HR :0.89416: L2-HR :0.76707: (Sim:0h44m23s) 
CPU  2 inst:   55000000 cyc:   52174470 now IPC :0.92620: AVG IPC :1.03525: L2-Pf-HR :0.94529: L2-HR :0.80846: (Sim:0h45m1s) 
CPU  1 inst:   57000000 cyc:   52280764 now IPC :1.00248: AVG IPC :1.07208: L2-Pf-HR :0.90762: L2-HR :0.77690: (Sim:0h45m6s) 
CPU  3 inst:   56000002 cyc:   52331070 now IPC :0.89680: AVG IPC :1.05157: L2-Pf-HR :0.89762: L2-HR :0.76871: (Sim:0h45m9s) 
CPU  0 inst:   57000000 cyc:   52479624 now IPC :0.95662: AVG IPC :1.06795: L2-Pf-HR :0.89456: L2-HR :0.76733: (Sim:0h45m17s) 
CPU  1 inst:   58000000 cyc:   53258533 now IPC :1.02274: AVG IPC :1.07116: L2-Pf-HR :0.90799: L2-HR :0.77716: (Sim:0h45m57s) 
CPU  2 inst:   56000002 cyc:   53266763 now IPC :0.91551: AVG IPC :1.03275: L2-Pf-HR :0.94572: L2-HR :0.80858: (Sim:0h45m57s) 
CPU  3 inst:   57000000 cyc:   53391241 now IPC :0.94324: AVG IPC :1.04938: L2-Pf-HR :0.89768: L2-HR :0.76869: (Sim:0h46m4s) 
CPU  0 inst:   58000000 cyc:   53516312 now IPC :0.96461: AVG IPC :1.06591: L2-Pf-HR :0.89455: L2-HR :0.76745: (Sim:0h46m10s) 
CPU  1 inst:   59000004 cyc:   54239316 now IPC :1.01960: AVG IPC :1.07021: L2-Pf-HR :0.90845: L2-HR :0.77748: (Sim:0h46m48s) 
CPU  2 inst:   57000000 cyc:   54349704 now IPC :0.92341: AVG IPC :1.03053: L2-Pf-HR :0.94607: L2-HR :0.80875: (Sim:0h46m53s) 
CPU  3 inst:   58000000 cyc:   54444953 now IPC :0.94903: AVG IPC :1.04740: L2-Pf-HR :0.89806: L2-HR :0.76905: (Sim:0h46m59s) 
CPU  0 inst:   59000003 cyc:   54564080 now IPC :0.95441: AVG IPC :1.06373: L2-Pf-HR :0.89495: L2-HR :0.76720: (Sim:0h47m4s) 
CPU  1 inst:   60000005 cyc:   55282618 now IPC :0.95850: AVG IPC :1.06806: L2-Pf-HR :0.90883: L2-HR :0.77781: (Sim:0h47m41s) 
CPU  2 inst:   58000000 cyc:   55474669 now IPC :0.88892: AVG IPC :1.02761: L2-Pf-HR :0.94646: L2-HR :0.80893: (Sim:0h47m50s) 
CPU  3 inst:   59000004 cyc:   55515089 now IPC :0.93446: AVG IPC :1.04518: L2-Pf-HR :0.89856: L2-HR :0.76903: (Sim:0h47m53s) 
CPU  0 inst:   60000000 cyc:   55599568 now IPC :0.96573: AVG IPC :1.06187: L2-Pf-HR :0.89466: L2-HR :0.76694: (Sim:0h47m57s) 
CPU  1 inst:   61000003 cyc:   56519940 now IPC :0.80820: AVG IPC :1.06227: L2-Pf-HR :0.90760: L2-HR :0.77668: (Sim:0h48m41s) 
CPU  3 inst:   60000001 cyc:   56624852 now IPC :0.90109: AVG IPC :1.04231: L2-Pf-HR :0.89922: L2-HR :0.76947: (Sim:0h48m46s) 
CPU  2 inst:   59000004 cyc:   56629730 now IPC :0.86576: AVG IPC :1.02425: L2-Pf-HR :0.94666: L2-HR :0.80893: (Sim:0h48m46s) 
CPU  0 inst:   61000005 cyc:   56794243 now IPC :0.83705: AVG IPC :1.05706: L2-Pf-HR :0.89323: L2-HR :0.76617: (Sim:0h48m54s) 
CPU  1 inst:   62000001 cyc:   57611338 now IPC :0.91625: AVG IPC :1.05946: L2-Pf-HR :0.90469: L2-HR :0.77581: (Sim:0h49m34s) 
CPU  3 inst:   61000004 cyc:   57728063 now IPC :0.90645: AVG IPC :1.03967: L2-Pf-HR :0.89868: L2-HR :0.76882: (Sim:0h49m40s) 
CPU  0 inst:   62000001 cyc:   57816919 now IPC :0.97782: AVG IPC :1.05563: L2-Pf-HR :0.89014: L2-HR :0.76574: (Sim:0h49m45s) 
CPU  2 inst:   60000001 cyc:   57829325 now IPC :0.83361: AVG IPC :1.02023: L2-Pf-HR :0.94691: L2-HR :0.80917: (Sim:0h49m46s) 
CPU  1 inst:   63000000 cyc:   58578108 now IPC :1.03437: AVG IPC :1.05904: L2-Pf-HR :0.90119: L2-HR :0.77588: (Sim:0h50m24s) 
CPU  0 inst:   63000001 cyc:   58760608 now IPC :1.05967: AVG IPC :1.05570: L2-Pf-HR :0.88628: L2-HR :0.76582: (Sim:0h50m34s) 
CPU  3 inst:   62000001 cyc:   58796676 now IPC :0.93579: AVG IPC :1.03775: L2-Pf-HR :0.89630: L2-HR :0.76861: (Sim:0h50m35s) 
CPU  2 inst:   61000004 cyc:   59113423 now IPC :0.77876: AVG IPC :1.01489: L2-Pf-HR :0.94613: L2-HR :0.80826: (Sim:0h50m50s) 
CPU  1 inst:   64000004 cyc:   59689090 now IPC :0.90011: AVG IPC :1.05603: L2-Pf-HR :0.89825: L2-HR :0.77572: (Sim:0h51m19s) 
CPU  0 inst:   64000004 cyc:   59715186 now IPC :1.04759: AVG IPC :1.05557: L2-Pf-HR :0.88252: L2-HR :0.76609: (Sim:0h51m21s) 
CPU  3 inst:   63000001 cyc:   59772844 now IPC :1.02441: AVG IPC :1.03753: L2-Pf-HR :0.89216: L2-HR :0.76884: (Sim:0h51m25s) 
CPU  2 inst:   62000001 cyc:   60368571 now IPC :0.79672: AVG IPC :1.01028: L2-Pf-HR :0.94392: L2-HR :0.80727: (Sim:0h51m50s) 
CPU  3 inst:   64000000 cyc:   60783420 now IPC :0.98953: AVG IPC :1.03672: L2-Pf-HR :0.88889: L2-HR :0.76923: (Sim:0h52m9s) 
CPU  2 inst:   63000001 cyc:   61263099 now IPC :1.11791: AVG IPC :1.01188: L2-Pf-HR :0.94069: L2-HR :0.80750: (Sim:0h52m32s) 
CPU  1 inst:   65000001 cyc:   61319769 now IPC :0.61324: AVG IPC :1.04406: L2-Pf-HR :0.89723: L2-HR :0.77548: (Sim:0h52m34s) 
CPU  0 inst:   65000001 cyc:   61336028 now IPC :0.61696: AVG IPC :1.04379: L2-Pf-HR :0.88169: L2-HR :0.76647: (Sim:0h52m35s) 
CPU  2 inst:   64000004 cyc:   62148472 now IPC :1.12947: AVG IPC :1.01358: L2-Pf-HR :0.93733: L2-HR :0.80760: (Sim:0h53m13s) 
CPU  3 inst:   65000001 cyc:   62218795 now IPC :0.69668: AVG IPC :1.02875: L2-Pf-HR :0.88734: L2-HR :0.76913: (Sim:0h53m17s) 
CPU  0 inst:   66000003 cyc:   62788482 now IPC :0.68849: AVG IPC :1.03544: L2-Pf-HR :0.88044: L2-HR :0.76725: (Sim:0h53m41s) 
CPU  1 inst:   66000003 cyc:   62809754 now IPC :0.67115: AVG IPC :1.03508: L2-Pf-HR :0.89653: L2-HR :0.77621: (Sim:0h53m42s) 
CPU  3 inst:   66000003 cyc:   63259009 now IPC :0.96134: AVG IPC :1.02762: L2-Pf-HR :0.88723: L2-HR :0.77044: (Sim:0h54m3s) 
CPU  2 inst:   65000001 cyc:   63541655 now IPC :0.71778: AVG IPC :1.00699: L2-Pf-HR :0.93515: L2-HR :0.80724: (Sim:0h54m17s) 
CPU  0 inst:   67000003 cyc:   63906789 now IPC :0.89421: AVG IPC :1.03293: L2-Pf-HR :0.88065: L2-HR :0.76813: (Sim:0h54m36s) 
CPU  1 inst:   67000003 cyc:   64108920 now IPC :0.76972: AVG IPC :1.02962: L2-Pf-HR :0.89584: L2-HR :0.77666: (Sim:0h54m46s) 
CPU  3 inst:   67000003 cyc:   64420767 now IPC :0.86076: AVG IPC :1.02457: L2-Pf-HR :0.88718: L2-HR :0.77074: (Sim:0h54m59s) 
CPU  2 inst:   66000003 cyc:   64748980 now IPC :0.82828: AVG IPC :1.00361: L2-Pf-HR :0.93390: L2-HR :0.80787: (Sim:0h55m12s) 
CPU  0 inst:   68000005 cyc:   65366643 now IPC :0.68500: AVG IPC :1.02504: L2-Pf-HR :0.87684: L2-HR :0.76775: (Sim:0h55m41s) 
CPU  1 inst:   68000000 cyc:   65480716 now IPC :0.72897: AVG IPC :1.02322: L2-Pf-HR :0.89158: L2-HR :0.77615: (Sim:0h55m47s) 
CPU  3 inst:   68000000 cyc:   65582344 now IPC :0.86090: AVG IPC :1.02162: L2-Pf-HR :0.88268: L2-HR :0.77007: (Sim:0h55m52s) 
CPU  2 inst:   67000003 cyc:   65907317 now IPC :0.86331: AVG IPC :1.00111: L2-Pf-HR :0.93372: L2-HR :0.80864: (Sim:0h56m8s) 
CPU  0 inst:   69000000 cyc:   66510816 now IPC :0.87399: AVG IPC :1.02240: L2-Pf-HR :0.87747: L2-HR :0.76899: (Sim:0h56m37s) 
CPU  1 inst:   69000000 cyc:   66674909 now IPC :0.83739: AVG IPC :1.01985: L2-Pf-HR :0.89229: L2-HR :0.77769: (Sim:0h56m45s) 
CPU  3 inst:   69000000 cyc:   66699505 now IPC :0.89513: AVG IPC :1.01947: L2-Pf-HR :0.88274: L2-HR :0.77116: (Sim:0h56m46s) 
CPU  2 inst:   68000000 cyc:   67132543 now IPC :0.81617: AVG IPC :0.99768: L2-Pf-HR :0.93050: L2-HR :0.80818: (Sim:0h57m8s) 
CPU  0 inst:   70000003 cyc:   67568064 now IPC :0.94585: AVG IPC :1.02119: L2-Pf-HR :0.87817: L2-HR :0.76983: (Sim:0h57m29s) 
CPU  1 inst:   70000003 cyc:   67779099 now IPC :0.90564: AVG IPC :1.01796: L2-Pf-HR :0.89282: L2-HR :0.77872: (Sim:0h57m40s) 
CPU  3 inst:   70000003 cyc:   67880167 now IPC :0.84698: AVG IPC :1.01643: L2-Pf-HR :0.88306: L2-HR :0.77162: (Sim:0h57m45s) 
CPU  2 inst:   69000000 cyc:   68277808 now IPC :0.87316: AVG IPC :0.99556: L2-Pf-HR :0.93088: L2-HR :0.80906: (Sim:0h58m2s) 
CPU  0 inst:   71000003 cyc:   68798012 now IPC :0.81304: AVG IPC :1.01741: L2-Pf-HR :0.87881: L2-HR :0.77014: (Sim:0h58m26s) 
CPU  1 inst:   71000002 cyc:   69091115 now IPC :0.76219: AVG IPC :1.01303: L2-Pf-HR :0.89308: L2-HR :0.77876: (Sim:0h58m39s) 
CPU  3 inst:   71000003 cyc:   69163130 now IPC :0.77945: AVG IPC :1.01197: L2-Pf-HR :0.88325: L2-HR :0.77167: (Sim:0h58m43s) 
CPU  2 inst:   70000003 cyc:   69589458 now IPC :0.76240: AVG IPC :0.99111: L2-Pf-HR :0.93127: L2-HR :0.80949: (Sim:0h59m2s) 
CPU  0 inst:   72000004 cyc:   70038731 now IPC :0.80599: AVG IPC :1.01362: L2-Pf-HR :0.87972: L2-HR :0.77056: (Sim:0h59m22s) 
CPU  1 inst:   72000004 cyc:   70534514 now IPC :0.69281: AVG IPC :1.00639: L2-Pf-HR :0.89290: L2-HR :0.77840: (Sim:0h59m43s) 
CPU  3 inst:   72000004 cyc:   70550608 now IPC :0.72073: AVG IPC :1.00616: L2-Pf-HR :0.88348: L2-HR :0.77181: (Sim:0h59m44s) 
CPU  2 inst:   71000000 cyc:   70936078 now IPC :0.74260: AVG IPC :0.98632: L2-Pf-HR :0.93159: L2-HR :0.80957: (Sim:1h0m2s) 
CPU  0 inst:   73000005 cyc:   71181109 now IPC :0.87537: AVG IPC :1.01137: L2-Pf-HR :0.88016: L2-HR :0.77061: (Sim:1h0m13s) 
CPU  3 inst:   73000002 cyc:   71996356 now IPC :0.69168: AVG IPC :0.99976: L2-Pf-HR :0.88343: L2-HR :0.77154: (Sim:1h0m49s) 
CPU  1 inst:   73000005 cyc:   72031046 now IPC :0.66821: AVG IPC :0.99926: L2-Pf-HR :0.89259: L2-HR :0.77795: (Sim:1h0m50s) 
CPU  2 inst:   72000004 cyc:   72076304 now IPC :0.87702: AVG IPC :0.98457: L2-Pf-HR :0.93189: L2-HR :0.80954: (Sim:1h0m52s) 
CPU  0 inst:   74000001 cyc:   72584711 now IPC :0.71245: AVG IPC :1.00551: L2-Pf-HR :0.88060: L2-HR :0.77067: (Sim:1h1m14s) 
CPU  3 inst:   74000001 cyc:   73268825 now IPC :0.78587: AVG IPC :0.99599: L2-Pf-HR :0.88362: L2-HR :0.77153: (Sim:1h1m40s) 
CPU  2 inst:   73000002 cyc:   73409038 now IPC :0.75034: AVG IPC :0.98026: L2-Pf-HR :0.93199: L2-HR :0.80949: (Sim:1h1m44s) 
CPU  1 inst:   74000001 cyc:   73460815 now IPC :0.69941: AVG IPC :0.99335: L2-Pf-HR :0.89280: L2-HR :0.77794: (Sim:1h1m45s) 
CPU  0 inst:   75000004 cyc:   74054730 now IPC :0.68027: AVG IPC :0.99896: L2-Pf-HR :0.88075: L2-HR :0.77061: (Sim:1h2m1s) 
CPU  3 inst:   75000000 cyc:   74405340 now IPC :0.87988: AVG IPC :0.99420: L2-Pf-HR :0.88352: L2-HR :0.77142: (Sim:1h2m11s) 
CPU  1 inst:   75000004 cyc:   74621678 now IPC :0.86143: AVG IPC :0.99127: L2-Pf-HR :0.89292: L2-HR :0.77817: (Sim:1h2m17s) 
CPU  2 inst:   74000001 cyc:   74834038 now IPC :0.70175: AVG IPC :0.97489: L2-Pf-HR :0.93217: L2-HR :0.80943: (Sim:1h2m22s) 
CPU  0 inst:   76000000 cyc:   75429254 now IPC :0.72752: AVG IPC :0.99395: L2-Pf-HR :0.88062: L2-HR :0.77038: (Sim:1h2m39s) 
CPU  3 inst:   76000000 cyc:   75618381 now IPC :0.82437: AVG IPC :0.99144: L2-Pf-HR :0.88337: L2-HR :0.77135: (Sim:1h2m44s) 
CPU  1 inst:   76000000 cyc:   75778992 now IPC :0.86407: AVG IPC :0.98930: L2-Pf-HR :0.89262: L2-HR :0.77800: (Sim:1h2m47s) 
CPU  2 inst:   75000001 cyc:   76413222 now IPC :0.63324: AVG IPC :0.96773: L2-Pf-HR :0.93218: L2-HR :0.80936: (Sim:1h3m8s) 
CPU  0 inst:   77000002 cyc:   76935663 now IPC :0.66383: AVG IPC :0.98741: L2-Pf-HR :0.88068: L2-HR :0.77022: (Sim:1h3m31s) 
CPU  3 inst:   77000002 cyc:   77173911 now IPC :0.64287: AVG IPC :0.98432: L2-Pf-HR :0.88307: L2-HR :0.77096: (Sim:1h3m41s) 
CPU  1 inst:   77000002 cyc:   77238174 now IPC :0.68532: AVG IPC :0.98348: L2-Pf-HR :0.89218: L2-HR :0.77747: (Sim:1h3m44s) 
CPU  2 inst:   76000000 cyc:   77870414 now IPC :0.68625: AVG IPC :0.96240: L2-Pf-HR :0.93201: L2-HR :0.80911: (Sim:1h4m13s) 
CPU  0 inst:   78000000 cyc:   78043648 now IPC :0.90254: AVG IPC :0.98618: L2-Pf-HR :0.88080: L2-HR :0.77019: (Sim:1h4m21s) 
CPU  3 inst:   78000000 cyc:   78569172 now IPC :0.71671: AVG IPC :0.97951: L2-Pf-HR :0.88337: L2-HR :0.77117: (Sim:1h4m44s) 
CPU  1 inst:   78000000 cyc:   78686864 now IPC :0.69028: AVG IPC :0.97802: L2-Pf-HR :0.89244: L2-HR :0.77736: (Sim:1h4m49s) 
CPU  0 inst:   79000000 cyc:   79211562 now IPC :0.85623: AVG IPC :0.98424: L2-Pf-HR :0.88098: L2-HR :0.77019: (Sim:1h5m11s) 
CPU  2 inst:   77000002 cyc:   79487069 now IPC :0.61856: AVG IPC :0.95532: L2-Pf-HR :0.93163: L2-HR :0.80877: (Sim:1h5m23s) 
CPU  3 inst:   79000000 cyc:   79696722 now IPC :0.88688: AVG IPC :0.97818: L2-Pf-HR :0.88354: L2-HR :0.77121: (Sim:1h5m33s) 
CPU  1 inst:   79000000 cyc:   80198004 now IPC :0.66175: AVG IPC :0.97198: L2-Pf-HR :0.89268: L2-HR :0.77727: (Sim:1h5m55s) 
CPU  0 inst:   80000005 cyc:   80744279 now IPC :0.65244: AVG IPC :0.97787: L2-Pf-HR :0.88088: L2-HR :0.77010: (Sim:1h6m18s) 
CPU  3 inst:   80000005 cyc:   80798894 now IPC :0.90730: AVG IPC :0.97720: L2-Pf-HR :0.88359: L2-HR :0.77105: (Sim:1h6m20s) 
CPU  2 inst:   78000000 cyc:   81020893 now IPC :0.65196: AVG IPC :0.94951: L2-Pf-HR :0.93184: L2-HR :0.80865: (Sim:1h6m29s) 
CPU  1 inst:   80000005 cyc:   81574106 now IPC :0.72669: AVG IPC :0.96780: L2-Pf-HR :0.89249: L2-HR :0.77723: (Sim:1h6m53s) 
CPU  3 inst:   81000004 cyc:   82204482 now IPC :0.71145: AVG IPC :0.97260: L2-Pf-HR :0.88335: L2-HR :0.77080: (Sim:1h7m22s) 
CPU  0 inst:   81000003 cyc:   82208121 now IPC :0.68313: AVG IPC :0.97256: L2-Pf-HR :0.88081: L2-HR :0.77000: (Sim:1h7m22s) 
CPU  2 inst:   79000000 cyc:   82309960 now IPC :0.77575: AVG IPC :0.94675: L2-Pf-HR :0.93196: L2-HR :0.80867: (Sim:1h7m27s) 
CPU  1 inst:   81000003 cyc:   82649668 now IPC :0.92974: AVG IPC :0.96730: L2-Pf-HR :0.89272: L2-HR :0.77755: (Sim:1h7m44s) 
CPU  2 inst:   80000005 cyc:   83355943 now IPC :0.95604: AVG IPC :0.94687: L2-Pf-HR :0.93188: L2-HR :0.80869: (Sim:1h8m18s) 
CPU  0 inst:   82000005 cyc:   83487223 now IPC :0.78180: AVG IPC :0.96960: L2-Pf-HR :0.88084: L2-HR :0.76993: (Sim:1h8m24s) 
CPU  3 inst:   82000002 cyc:   83490841 now IPC :0.77739: AVG IPC :0.96956: L2-Pf-HR :0.88371: L2-HR :0.77077: (Sim:1h8m25s) 
CPU  1 inst:   82000000 cyc:   83665501 now IPC :0.98441: AVG IPC :0.96751: L2-Pf-HR :0.89310: L2-HR :0.77788: (Sim:1h8m33s) 
CPU  2 inst:   81000004 cyc:   84401079 now IPC :0.95681: AVG IPC :0.94699: L2-Pf-HR :0.93206: L2-HR :0.80865: (Sim:1h9m6s) 
CPU  0 inst:   83000000 cyc:   84802497 now IPC :0.76029: AVG IPC :0.96632: L2-Pf-HR :0.88117: L2-HR :0.76974: (Sim:1h9m24s) 
CPU  3 inst:   83000000 cyc:   84916286 now IPC :0.70153: AVG IPC :0.96501: L2-Pf-HR :0.88396: L2-HR :0.77060: (Sim:1h9m29s) 
CPU  1 inst:   83000000 cyc:   85013256 now IPC :0.74197: AVG IPC :0.96389: L2-Pf-HR :0.89344: L2-HR :0.77781: (Sim:1h9m34s) 
CPU  2 inst:   82000005 cyc:   85664646 now IPC :0.79141: AVG IPC :0.94467: L2-Pf-HR :0.93243: L2-HR :0.80876: (Sim:1h10m6s) 
CPU  0 inst:   84000003 cyc:   85782692 now IPC :1.02021: AVG IPC :0.96694: L2-Pf-HR :0.88187: L2-HR :0.77016: (Sim:1h10m12s) 
CPU  3 inst:   84000003 cyc:   85956268 now IPC :0.96156: AVG IPC :0.96497: L2-Pf-HR :0.88456: L2-HR :0.77090: (Sim:1h10m21s) 
CPU  1 inst:   84000003 cyc:   86206960 now IPC :0.83773: AVG IPC :0.96212: L2-Pf-HR :0.89343: L2-HR :0.77761: (Sim:1h10m33s) 
CPU  0 inst:   85000004 cyc:   86764070 now IPC :1.01898: AVG IPC :0.96753: L2-Pf-HR :0.88209: L2-HR :0.77001: (Sim:1h11m2s) 
CPU  2 inst:   83000000 cyc:   86898451 now IPC :0.81050: AVG IPC :0.94275: L2-Pf-HR :0.93284: L2-HR :0.80881: (Sim:1h11m8s) 
CPU  3 inst:   85000004 cyc:   86953788 now IPC :1.00249: AVG IPC :0.96540: L2-Pf-HR :0.88466: L2-HR :0.77067: (Sim:1h11m11s) 
CPU  1 inst:   85000004 cyc:   87350574 now IPC :0.87442: AVG IPC :0.96096: L2-Pf-HR :0.89387: L2-HR :0.77739: (Sim:1h11m32s) 
CPU  0 inst:   86000001 cyc:   87869628 now IPC :0.90452: AVG IPC :0.96673: L2-Pf-HR :0.88231: L2-HR :0.77007: (Sim:1h11m57s) 
CPU  3 inst:   86000001 cyc:   87972456 now IPC :0.98167: AVG IPC :0.96559: L2-Pf-HR :0.88510: L2-HR :0.77088: (Sim:1h12m3s) 
CPU  2 inst:   84000003 cyc:   88074396 now IPC :0.85038: AVG IPC :0.94150: L2-Pf-HR :0.93319: L2-HR :0.80893: (Sim:1h12m8s) 
CPU  1 inst:   86000001 cyc:   88354330 now IPC :0.99626: AVG IPC :0.96137: L2-Pf-HR :0.89420: L2-HR :0.77750: (Sim:1h12m21s) 
CPU  0 inst:   87000004 cyc:   89086609 now IPC :0.82171: AVG IPC :0.96473: L2-Pf-HR :0.88276: L2-HR :0.76992: (Sim:1h12m59s) 
CPU  2 inst:   85000004 cyc:   89108717 now IPC :0.96682: AVG IPC :0.94180: L2-Pf-HR :0.93344: L2-HR :0.80891: (Sim:1h13m0s) 
CPU  3 inst:   87000000 cyc:   89147112 now IPC :0.85131: AVG IPC :0.96407: L2-Pf-HR :0.88553: L2-HR :0.77088: (Sim:1h13m2s) 
CPU  1 inst:   87000005 cyc:   89343130 now IPC :1.01133: AVG IPC :0.96192: L2-Pf-HR :0.89490: L2-HR :0.77778: (Sim:1h13m12s) 
CPU  2 inst:   86000001 cyc:   90130949 now IPC :0.97825: AVG IPC :0.94221: L2-Pf-HR :0.93382: L2-HR :0.80903: (Sim:1h13m51s) 
CPU  0 inst:   88000001 cyc:   90231809 now IPC :0.87321: AVG IPC :0.96356: L2-Pf-HR :0.88279: L2-HR :0.76966: (Sim:1h13m57s) 
CPU  3 inst:   88000001 cyc:   90343419 now IPC :0.83591: AVG IPC :0.96235: L2-Pf-HR :0.88601: L2-HR :0.77103: (Sim:1h14m2s) 
CPU  1 inst:   88000001 cyc:   90417304 now IPC :0.93094: AVG IPC :0.96155: L2-Pf-HR :0.89520: L2-HR :0.77786: (Sim:1h14m6s) 
CPU  2 inst:   87000004 cyc:   91261950 now IPC :0.88418: AVG IPC :0.94149: L2-Pf-HR :0.93415: L2-HR :0.80910: (Sim:1h14m45s) 
CPU  0 inst:   89000002 cyc:   91424341 now IPC :0.83855: AVG IPC :0.96191: L2-Pf-HR :0.88343: L2-HR :0.76979: (Sim:1h14m53s) 
CPU  3 inst:   89000002 cyc:   91661035 now IPC :0.75895: AVG IPC :0.95940: L2-Pf-HR :0.88638: L2-HR :0.77098: (Sim:1h15m4s) 
CPU  1 inst:   89000002 cyc:   91794370 now IPC :0.72618: AVG IPC :0.95798: L2-Pf-HR :0.89510: L2-HR :0.77755: (Sim:1h15m10s) 
CPU  0 inst:   90000002 cyc:   92389313 now IPC :1.03630: AVG IPC :0.96269: L2-Pf-HR :0.88354: L2-HR :0.76974: (Sim:1h15m40s) 
CPU  2 inst:   88000001 cyc:   92461053 now IPC :0.83395: AVG IPC :0.94008: L2-Pf-HR :0.93438: L2-HR :0.80910: (Sim:1h15m44s) 
CPU  3 inst:   90000002 cyc:   92742511 now IPC :0.92466: AVG IPC :0.95899: L2-Pf-HR :0.88684: L2-HR :0.77128: (Sim:1h15m59s) 
CPU  1 inst:   90000002 cyc:   93044574 now IPC :0.79987: AVG IPC :0.95584: L2-Pf-HR :0.89548: L2-HR :0.77752: (Sim:1h16m13s) 
CPU  0 inst:   91000000 cyc:   93504363 now IPC :0.89682: AVG IPC :0.96190: L2-Pf-HR :0.88347: L2-HR :0.76988: (Sim:1h16m35s) 
CPU  3 inst:   91000000 cyc:   93729798 now IPC :1.01287: AVG IPC :0.95956: L2-Pf-HR :0.88720: L2-HR :0.77150: (Sim:1h16m46s) 
CPU  2 inst:   89000002 cyc:   93791398 now IPC :0.75169: AVG IPC :0.93738: L2-Pf-HR :0.93456: L2-HR :0.80905: (Sim:1h16m50s) 
CPU  1 inst:   91000000 cyc:   94107107 now IPC :0.94115: AVG IPC :0.95567: L2-Pf-HR :0.89568: L2-HR :0.77748: (Sim:1h17m5s) 
CPU  0 inst:   92000002 cyc:   94824068 now IPC :0.75775: AVG IPC :0.95903: L2-Pf-HR :0.88358: L2-HR :0.76986: (Sim:1h17m39s) 
CPU  3 inst:   92000002 cyc:   94926008 now IPC :0.83598: AVG IPC :0.95799: L2-Pf-HR :0.88722: L2-HR :0.77142: (Sim:1h17m43s) 
CPU  1 inst:   92000002 cyc:   95079047 now IPC :1.02887: AVG IPC :0.95643: L2-Pf-HR :0.89577: L2-HR :0.77752: (Sim:1h17m50s) 
CPU  2 inst:   90000002 cyc:   95183120 now IPC :0.71853: AVG IPC :0.93414: L2-Pf-HR :0.93492: L2-HR :0.80904: (Sim:1h17m54s) 
CPU  0 inst:   93000001 cyc:   96265393 now IPC :0.69381: AVG IPC :0.95502: L2-Pf-HR :0.88359: L2-HR :0.76981: (Sim:1h18m42s) 
CPU  3 inst:   93000004 cyc:   96377528 now IPC :0.68893: AVG IPC :0.95390: L2-Pf-HR :0.88706: L2-HR :0.77122: (Sim:1h18m47s) 
CPU  1 inst:   93000002 cyc:   96379560 now IPC :0.76893: AVG IPC :0.95387: L2-Pf-HR :0.89609: L2-HR :0.77779: (Sim:1h18m47s) 
CPU  2 inst:   91000000 cyc:   96426270 now IPC :0.80441: AVG IPC :0.93245: L2-Pf-HR :0.93529: L2-HR :0.80916: (Sim:1h18m50s) 
CPU  0 inst:   94000000 cyc:   97380817 now IPC :0.89652: AVG IPC :0.95434: L2-Pf-HR :0.88351: L2-HR :0.76995: (Sim:1h19m36s) 
CPU  3 inst:   94000000 cyc:   97519878 now IPC :0.87538: AVG IPC :0.95297: L2-Pf-HR :0.88700: L2-HR :0.77120: (Sim:1h19m43s) 
CPU  1 inst:   94000000 cyc:   97535536 now IPC :0.86507: AVG IPC :0.95281: L2-Pf-HR :0.89654: L2-HR :0.77823: (Sim:1h19m44s) 
CPU  2 inst:   92000002 cyc:   97552629 now IPC :0.88782: AVG IPC :0.93193: L2-Pf-HR :0.93533: L2-HR :0.80926: (Sim:1h19m45s) 
CPU  0 inst:   95000000 cyc:   98474099 now IPC :0.91468: AVG IPC :0.95389: L2-Pf-HR :0.88412: L2-HR :0.76993: (Sim:1h20m30s) 
CPU  2 inst:   93000004 cyc:   98594085 now IPC :0.96020: AVG IPC :0.93224: L2-Pf-HR :0.93574: L2-HR :0.80934: (Sim:1h20m36s) 
CPU  3 inst:   95000000 cyc:   98674383 now IPC :0.86617: AVG IPC :0.95194: L2-Pf-HR :0.88738: L2-HR :0.77110: (Sim:1h20m40s) 
CPU  1 inst:   95000000 cyc:   98696289 now IPC :0.86151: AVG IPC :0.95172: L2-Pf-HR :0.89692: L2-HR :0.77823: (Sim:1h20m42s) 
CPU  0 inst:   96000000 cyc:   99530054 now IPC :0.94701: AVG IPC :0.95382: L2-Pf-HR :0.88458: L2-HR :0.77013: (Sim:1h21m23s) 
CPU  2 inst:   94000000 cyc:   99662990 now IPC :0.93553: AVG IPC :0.93227: L2-Pf-HR :0.93612: L2-HR :0.80949: (Sim:1h21m30s) 
CPU  3 inst:   96000000 cyc:   99769371 now IPC :0.91325: AVG IPC :0.95151: L2-Pf-HR :0.88777: L2-HR :0.77124: (Sim:1h21m36s) 
CPU  1 inst:   96000000 cyc:   99836328 now IPC :0.87716: AVG IPC :0.95086: L2-Pf-HR :0.89709: L2-HR :0.77814: (Sim:1h21m39s) 
CPU  0 inst:   97000000 cyc:  100564305 now IPC :0.96688: AVG IPC :0.95396: L2-Pf-HR :0.88475: L2-HR :0.77009: (Sim:1h22m15s) 
CPU  2 inst:   95000000 cyc:  100821859 now IPC :0.86291: AVG IPC :0.93147: L2-Pf-HR :0.93630: L2-HR :0.80951: (Sim:1h22m28s) 
CPU  3 inst:   97000000 cyc:  100839511 now IPC :0.93446: AVG IPC :0.95133: L2-Pf-HR :0.88775: L2-HR :0.77106: (Sim:1h22m29s) 
CPU  1 inst:   97000000 cyc:  100930653 now IPC :0.91381: AVG IPC :0.95046: L2-Pf-HR :0.89750: L2-HR :0.77797: (Sim:1h22m34s) 
CPU  0 inst:   98000002 cyc:  101758096 now IPC :0.83767: AVG IPC :0.95258: L2-Pf-HR :0.88502: L2-HR :0.77019: (Sim:1h23m15s) 
CPU  3 inst:   98000005 cyc:  101882874 now IPC :0.95844: AVG IPC :0.95140: L2-Pf-HR :0.88811: L2-HR :0.77126: (Sim:1h23m21s) 
CPU  1 inst:   98000002 cyc:  101941403 now IPC :0.98937: AVG IPC :0.95085: L2-Pf-HR :0.89766: L2-HR :0.77807: (Sim:1h23m24s) 
CPU  2 inst:   96000000 cyc:  102066010 now IPC :0.80376: AVG IPC :0.92989: L2-Pf-HR :0.93669: L2-HR :0.80965: (Sim:1h23m29s) 
CPU  0 inst:   99000003 cyc:  103197582 now IPC :0.69469: AVG IPC :0.94895: L2-Pf-HR :0.88552: L2-HR :0.77015: (Sim:1h24m18s) 
CPU  3 inst:   99000004 cyc:  103282357 now IPC :0.71455: AVG IPC :0.94816: L2-Pf-HR :0.88833: L2-HR :0.77128: (Sim:1h24m22s) 
CPU  1 inst:   99000005 cyc:  103293973 now IPC :0.73934: AVG IPC :0.94805: L2-Pf-HR :0.89829: L2-HR :0.77840: (Sim:1h24m23s) 
CPU  2 inst:   97000000 cyc:  103310122 now IPC :0.80379: AVG IPC :0.92836: L2-Pf-HR :0.93692: L2-HR :0.80965: (Sim:1h24m24s) 
CPU  2 inst:   98000000 cyc:  104253125 now IPC :1.06044: AVG IPC :0.92957: L2-Pf-HR :0.93716: L2-HR :0.80974: (Sim:1h25m11s) 
CPU  0 inst:  100000000 cyc:  104331167 now IPC :0.88215: AVG IPC :0.94821: L2-Pf-HR :0.88558: L2-HR :0.76991: (Sim:1h25m15s) 
CPU  3 inst:  100000000 cyc:  104473217 now IPC :0.83973: AVG IPC :0.94692: L2-Pf-HR :0.88885: L2-HR :0.77137: (Sim:1h25m22s) 
CPU  1 inst:  100000000 cyc:  104485115 now IPC :0.83953: AVG IPC :0.94680: L2-Pf-HR :0.89852: L2-HR :0.77841: (Sim:1h25m23s) 
CPU  2 inst:   99000002 cyc:  105369761 now IPC :0.89555: AVG IPC :0.92920: L2-Pf-HR :0.93738: L2-HR :0.80980: (Sim:1h26m4s) 
CPU  0 inst:  101000004 cyc:  105484117 now IPC :0.86734: AVG IPC :0.94732: L2-Pf-HR :0.88590: L2-HR :0.76999: (Sim:1h26m10s) 
CPU  3 inst:  101000004 cyc:  105807546 now IPC :0.74944: AVG IPC :0.94440: L2-Pf-HR :0.88893: L2-HR :0.77128: (Sim:1h26m25s) 
CPU  1 inst:  101000004 cyc:  105869240 now IPC :0.72248: AVG IPC :0.94384: L2-Pf-HR :0.89852: L2-HR :0.77826: (Sim:1h26m28s) 
CPU  0 inst:  102000004 cyc:  106400234 now IPC :1.09156: AVG IPC :0.94858: L2-Pf-HR :0.88590: L2-HR :0.77000: (Sim:1h26m54s) 
CPU  2 inst:  100000000 cyc:  106618303 now IPC :0.80093: AVG IPC :0.92769: L2-Pf-HR :0.93749: L2-HR :0.80979: (Sim:1h27m4s) 
CPU  3 inst:  102000004 cyc:  106911172 now IPC :0.90610: AVG IPC :0.94400: L2-Pf-HR :0.88908: L2-HR :0.77156: (Sim:1h27m19s) 
CPU  1 inst:  102000004 cyc:  107163875 now IPC :0.77242: AVG IPC :0.94175: L2-Pf-HR :0.89869: L2-HR :0.77821: (Sim:1h27m31s) 
CPU  0 inst:  103000004 cyc:  107627402 now IPC :0.81488: AVG IPC :0.94704: L2-Pf-HR :0.88603: L2-HR :0.76996: (Sim:1h27m53s) 
CPU  3 inst:  103000004 cyc:  107856926 now IPC :1.05736: AVG IPC :0.94501: L2-Pf-HR :0.88934: L2-HR :0.77160: (Sim:1h28m5s) 
CPU  2 inst:  101000004 cyc:  107939539 now IPC :0.75687: AVG IPC :0.92558: L2-Pf-HR :0.93751: L2-HR :0.80970: (Sim:1h28m9s) 
CPU  1 inst:  103000004 cyc:  108262080 now IPC :0.91058: AVG IPC :0.94143: L2-Pf-HR :0.89887: L2-HR :0.77816: (Sim:1h28m25s) 
CPU  0 inst:  104000004 cyc:  108756394 now IPC :0.88575: AVG IPC :0.94640: L2-Pf-HR :0.88588: L2-HR :0.76990: (Sim:1h28m50s) 
CPU  3 inst:  104000000 cyc:  108913877 now IPC :0.94611: AVG IPC :0.94502: L2-Pf-HR :0.88893: L2-HR :0.77138: (Sim:1h28m58s) 
CPU  2 inst:  102000004 cyc:  109158879 now IPC :0.82012: AVG IPC :0.92439: L2-Pf-HR :0.93774: L2-HR :0.80967: (Sim:1h29m11s) 
CPU  1 inst:  104000000 cyc:  109252487 now IPC :1.00968: AVG IPC :0.94206: L2-Pf-HR :0.89905: L2-HR :0.77817: (Sim:1h29m16s) 
CPU  0 inst:  105000004 cyc:  109721139 now IPC :1.03654: AVG IPC :0.94719: L2-Pf-HR :0.88598: L2-HR :0.76981: (Sim:1h29m37s) 
CPU  3 inst:  105000004 cyc:  110088601 now IPC :0.85127: AVG IPC :0.94401: L2-Pf-HR :0.88889: L2-HR :0.77113: (Sim:1h29m49s) 
CPU  1 inst:  105000004 cyc:  110274866 now IPC :0.97811: AVG IPC :0.94239: L2-Pf-HR :0.89967: L2-HR :0.77841: (Sim:1h29m54s) 
CPU  2 inst:  103000001 cyc:  110338814 now IPC :0.84750: AVG IPC :0.92356: L2-Pf-HR :0.93802: L2-HR :0.80974: (Sim:1h29m56s) 
CPU  0 inst:  106000002 cyc:  110696660 now IPC :1.02509: AVG IPC :0.94789: L2-Pf-HR :0.88628: L2-HR :0.76991: (Sim:1h30m7s) 
CPU  3 inst:  106000002 cyc:  111313142 now IPC :0.81663: AVG IPC :0.94259: L2-Pf-HR :0.88913: L2-HR :0.77114: (Sim:1h30m24s) 
CPU  1 inst:  106000002 cyc:  111428478 now IPC :0.86684: AVG IPC :0.94160: L2-Pf-HR :0.89989: L2-HR :0.77861: (Sim:1h30m27s) 
CPU  2 inst:  104000004 cyc:  111559639 now IPC :0.81912: AVG IPC :0.92241: L2-Pf-HR :0.93796: L2-HR :0.80981: (Sim:1h30m31s) 
CPU  0 inst:  107000002 cyc:  111835362 now IPC :0.87819: AVG IPC :0.94717: L2-Pf-HR :0.88658: L2-HR :0.76983: (Sim:1h30m39s) 
CPU  3 inst:  107000002 cyc:  112493976 now IPC :0.84686: AVG IPC :0.94158: L2-Pf-HR :0.88927: L2-HR :0.77099: (Sim:1h30m58s) 
CPU  2 inst:  105000004 cyc:  112586129 now IPC :0.97419: AVG IPC :0.92288: L2-Pf-HR :0.93811: L2-HR :0.80978: (Sim:1h31m1s) 
CPU  1 inst:  107000002 cyc:  112664275 now IPC :0.80919: AVG IPC :0.94014: L2-Pf-HR :0.90006: L2-HR :0.77853: (Sim:1h31m3s) 
CPU  0 inst:  108000000 cyc:  113004335 now IPC :0.85545: AVG IPC :0.94621: L2-Pf-HR :0.88728: L2-HR :0.77015: (Sim:1h31m14s) 
CPU  3 inst:  108000000 cyc:  113475304 now IPC :1.01903: AVG IPC :0.94226: L2-Pf-HR :0.88949: L2-HR :0.77105: (Sim:1h31m28s) 
CPU  2 inst:  106000002 cyc:  113627066 now IPC :0.96067: AVG IPC :0.92323: L2-Pf-HR :0.93835: L2-HR :0.80990: (Sim:1h31m33s) 
CPU  1 inst:  108000000 cyc:  113804127 now IPC :0.87731: AVG IPC :0.93950: L2-Pf-HR :0.90005: L2-HR :0.77832: (Sim:1h31m38s) 
CPU  0 inst:  109000004 cyc:  114114842 now IPC :0.90049: AVG IPC :0.94577: L2-Pf-HR :0.88759: L2-HR :0.77013: (Sim:1h31m47s) 
CPU  3 inst:  109000004 cyc:  114540641 now IPC :0.93867: AVG IPC :0.94222: L2-Pf-HR :0.88962: L2-HR :0.77093: (Sim:1h32m0s) 
CPU  2 inst:  107000002 cyc:  114778741 now IPC :0.86830: AVG IPC :0.92268: L2-Pf-HR :0.93861: L2-HR :0.80995: (Sim:1h32m6s) 
CPU  1 inst:  109000004 cyc:  114927024 now IPC :0.89056: AVG IPC :0.93902: L2-Pf-HR :0.90026: L2-HR :0.77817: (Sim:1h32m11s) 
CPU  0 inst:  110000005 cyc:  115217021 now IPC :0.90729: AVG IPC :0.94539: L2-Pf-HR :0.88785: L2-HR :0.77016: (Sim:1h32m19s) 
CPU  3 inst:  110000000 cyc:  115686330 now IPC :0.87283: AVG IPC :0.94153: L2-Pf-HR :0.88981: L2-HR :0.77106: (Sim:1h32m33s) 
CPU  2 inst:  108000000 cyc:  115959748 now IPC :0.84673: AVG IPC :0.92190: L2-Pf-HR :0.93887: L2-HR :0.81005: (Sim:1h32m41s) 
CPU  1 inst:  110000001 cyc:  116038121 now IPC :0.90001: AVG IPC :0.93864: L2-Pf-HR :0.90037: L2-HR :0.77818: (Sim:1h32m43s) 
CPU  0 inst:  111000004 cyc:  116308148 now IPC :0.91648: AVG IPC :0.94512: L2-Pf-HR :0.88814: L2-HR :0.77010: (Sim:1h32m51s) 
CPU  3 inst:  111000003 cyc:  116908165 now IPC :0.81844: AVG IPC :0.94023: L2-Pf-HR :0.89015: L2-HR :0.77113: (Sim:1h33m9s) 
CPU  1 inst:  111000004 cyc:  117142517 now IPC :0.90548: AVG IPC :0.93833: L2-Pf-HR :0.90073: L2-HR :0.77848: (Sim:1h33m15s) 
CPU  2 inst:  109000003 cyc:  117218979 now IPC :0.79414: AVG IPC :0.92051: L2-Pf-HR :0.93904: L2-HR :0.81003: (Sim:1h33m17s) 
CPU  0 inst:  112000001 cyc:  117462162 now IPC :0.86654: AVG IPC :0.94434: L2-Pf-HR :0.88831: L2-HR :0.76991: (Sim:1h33m24s) 
CPU  3 inst:  112000001 cyc:  118183805 now IPC :0.78392: AVG IPC :0.93853: L2-Pf-HR :0.89056: L2-HR :0.77122: (Sim:1h33m43s) 
CPU  1 inst:  112000001 cyc:  118331198 now IPC :0.84127: AVG IPC :0.93735: L2-Pf-HR :0.90083: L2-HR :0.77848: (Sim:1h33m51s) 
CPU  2 inst:  110000002 cyc:  118567440 now IPC :0.74159: AVG IPC :0.91846: L2-Pf-HR :0.93923: L2-HR :0.81009: (Sim:1h34m2s) 
CPU  0 inst:  113000002 cyc:  118722421 now IPC :0.79349: AVG IPC :0.94273: L2-Pf-HR :0.88852: L2-HR :0.76992: (Sim:1h34m8s) 
CPU  3 inst:  113000002 cyc:  119539696 now IPC :0.73752: AVG IPC :0.93623: L2-Pf-HR :0.89096: L2-HR :0.77135: (Sim:1h34m45s) 
CPU  1 inst:  113000002 cyc:  119698973 now IPC :0.73112: AVG IPC :0.93497: L2-Pf-HR :0.90076: L2-HR :0.77822: (Sim:1h34m52s) 
CPU  2 inst:  111000004 cyc:  119825716 now IPC :0.79474: AVG IPC :0.91715: L2-Pf-HR :0.93944: L2-HR :0.81015: (Sim:1h34m58s) 
CPU  0 inst:  114000001 cyc:  119962417 now IPC :0.80645: AVG IPC :0.94131: L2-Pf-HR :0.88850: L2-HR :0.76989: (Sim:1h35m5s) 
CPU  3 inst:  114000001 cyc:  120831063 now IPC :0.77437: AVG IPC :0.93449: L2-Pf-HR :0.89129: L2-HR :0.77158: (Sim:1h35m45s) 
CPU  2 inst:  112000001 cyc:  120971256 now IPC :0.87295: AVG IPC :0.91673: L2-Pf-HR :0.93955: L2-HR :0.81011: (Sim:1h35m51s) 
CPU  1 inst:  114000001 cyc:  120979890 now IPC :0.78069: AVG IPC :0.93332: L2-Pf-HR :0.90087: L2-HR :0.77817: (Sim:1h35m51s) 
CPU  0 inst:  115000003 cyc:  121273966 now IPC :0.76246: AVG IPC :0.93936: L2-Pf-HR :0.88859: L2-HR :0.76985: (Sim:1h36m6s) 
CPU  3 inst:  115000003 cyc:  122066111 now IPC :0.80969: AVG IPC :0.93321: L2-Pf-HR :0.89155: L2-HR :0.77160: (Sim:1h36m42s) 
CPU  2 inst:  113000002 cyc:  122127875 now IPC :0.86459: AVG IPC :0.91623: L2-Pf-HR :0.93959: L2-HR :0.81003: (Sim:1h36m45s) 
CPU  1 inst:  115000003 cyc:  122230306 now IPC :0.79974: AVG IPC :0.93195: L2-Pf-HR :0.90092: L2-HR :0.77809: (Sim:1h36m50s) 
CPU  0 inst:  116000003 cyc:  122566219 now IPC :0.77384: AVG IPC :0.93760: L2-Pf-HR :0.88880: L2-HR :0.76986: (Sim:1h37m7s) 
CPU  3 inst:  116000003 cyc:  123123209 now IPC :0.94599: AVG IPC :0.93332: L2-Pf-HR :0.89160: L2-HR :0.77151: (Sim:1h37m35s) 
CPU  2 inst:  114000003 cyc:  123144847 now IPC :0.98331: AVG IPC :0.91679: L2-Pf-HR :0.93982: L2-HR :0.81008: (Sim:1h37m36s) 
CPU  1 inst:  116000003 cyc:  123354375 now IPC :0.88963: AVG IPC :0.93156: L2-Pf-HR :0.90085: L2-HR :0.77814: (Sim:1h37m47s) 
CPU  0 inst:  117000003 cyc:  123725119 now IPC :0.86289: AVG IPC :0.93689: L2-Pf-HR :0.88860: L2-HR :0.76978: (Sim:1h38m5s) 
CPU  3 inst:  117000003 cyc:  124159681 now IPC :0.96481: AVG IPC :0.93359: L2-Pf-HR :0.89146: L2-HR :0.77122: (Sim:1h38m27s) 
CPU  2 inst:  115000003 cyc:  124179967 now IPC :0.96607: AVG IPC :0.91720: L2-Pf-HR :0.93996: L2-HR :0.81012: (Sim:1h38m29s) 
CPU  1 inst:  117000003 cyc:  124518562 now IPC :0.85897: AVG IPC :0.93087: L2-Pf-HR :0.90104: L2-HR :0.77829: (Sim:1h38m46s) 
CPU  0 inst:  118000005 cyc:  124926050 now IPC :0.83269: AVG IPC :0.93588: L2-Pf-HR :0.88873: L2-HR :0.76993: (Sim:1h39m6s) 
CPU  3 inst:  118000005 cyc:  125141934 now IPC :1.01807: AVG IPC :0.93426: L2-Pf-HR :0.89169: L2-HR :0.77130: (Sim:1h39m17s) 
CPU  2 inst:  116000003 cyc:  125269625 now IPC :0.91772: AVG IPC :0.91721: L2-Pf-HR :0.93991: L2-HR :0.81021: (Sim:1h39m23s) 
CPU  1 inst:  118000005 cyc:  125529760 now IPC :0.98893: AVG IPC :0.93134: L2-Pf-HR :0.90150: L2-HR :0.77867: (Sim:1h39m35s) 
CPU  0 inst:  119000000 cyc:  126150060 now IPC :0.81698: AVG IPC :0.93472: L2-Pf-HR :0.88948: L2-HR :0.77004: (Sim:1h40m5s) 
CPU  3 inst:  119000000 cyc:  126305018 now IPC :0.85978: AVG IPC :0.93357: L2-Pf-HR :0.89200: L2-HR :0.77125: (Sim:1h40m13s) 
CPU  2 inst:  117000003 cyc:  126540697 now IPC :0.78674: AVG IPC :0.91589: L2-Pf-HR :0.94016: L2-HR :0.81024: (Sim:1h40m24s) 
CPU  1 inst:  119000000 cyc:  126593232 now IPC :0.94031: AVG IPC :0.93142: L2-Pf-HR :0.90182: L2-HR :0.77870: (Sim:1h40m27s) 
CPU  0 inst:  120000004 cyc:  127230235 now IPC :0.92578: AVG IPC :0.93464: L2-Pf-HR :0.89005: L2-HR :0.77026: (Sim:1h40m59s) 
CPU  3 inst:  120000004 cyc:  127503110 now IPC :0.83466: AVG IPC :0.93263: L2-Pf-HR :0.89243: L2-HR :0.77138: (Sim:1h41m12s) 
CPU  1 inst:  120000004 cyc:  127622062 now IPC :0.97198: AVG IPC :0.93175: L2-Pf-HR :0.90189: L2-HR :0.77859: (Sim:1h41m18s) 
CPU  2 inst:  118000005 cyc:  127739950 now IPC :0.83385: AVG IPC :0.91511: L2-Pf-HR :0.94042: L2-HR :0.81038: (Sim:1h41m24s) 
CPU  0 inst:  121000003 cyc:  128216683 now IPC :1.01374: AVG IPC :0.93526: L2-Pf-HR :0.89024: L2-HR :0.77027: (Sim:1h41m47s) 
CPU  3 inst:  121000000 cyc:  128803265 now IPC :0.76914: AVG IPC :0.93097: L2-Pf-HR :0.89238: L2-HR :0.77123: (Sim:1h42m14s) 
CPU  1 inst:  121000003 cyc:  128854659 now IPC :0.81129: AVG IPC :0.93059: L2-Pf-HR :0.90202: L2-HR :0.77843: (Sim:1h42m16s) 
CPU  2 inst:  119000000 cyc:  128960151 now IPC :0.81953: AVG IPC :0.91420: L2-Pf-HR :0.94065: L2-HR :0.81043: (Sim:1h42m21s) 
CPU  0 inst:  122000004 cyc:  129328074 now IPC :0.89977: AVG IPC :0.93495: L2-Pf-HR :0.89025: L2-HR :0.77032: (Sim:1h42m38s) 
CPU  2 inst:  120000004 cyc:  129984667 now IPC :0.97607: AVG IPC :0.91469: L2-Pf-HR :0.94088: L2-HR :0.81052: (Sim:1h42m59s) 
CPU  3 inst:  122000000 cyc:  129999875 now IPC :0.83569: AVG IPC :0.93008: L2-Pf-HR :0.89256: L2-HR :0.77136: (Sim:1h42m59s) 
CPU  1 inst:  122000000 cyc:  130152130 now IPC :0.77073: AVG IPC :0.92898: L2-Pf-HR :0.90227: L2-HR :0.77848: (Sim:1h43m4s) 
CPU  0 inst:  123000000 cyc:  130543075 now IPC :0.82304: AVG IPC :0.93390: L2-Pf-HR :0.89045: L2-HR :0.77025: (Sim:1h43m19s) 
CPU  2 inst:  121000002 cyc:  130998520 now IPC :0.98633: AVG IPC :0.91525: L2-Pf-HR :0.94100: L2-HR :0.81055: (Sim:1h43m42s) 
CPU  3 inst:  123000000 cyc:  131026054 now IPC :0.97449: AVG IPC :0.93043: L2-Pf-HR :0.89292: L2-HR :0.77145: (Sim:1h43m43s) 
CPU  1 inst:  123000000 cyc:  131388096 now IPC :0.80908: AVG IPC :0.92785: L2-Pf-HR :0.90282: L2-HR :0.77880: (Sim:1h44m1s) 
CPU  0 inst:  124000003 cyc:  131790926 now IPC :0.80138: AVG IPC :0.93264: L2-Pf-HR :0.89029: L2-HR :0.77006: (Sim:1h44m20s) 
CPU  3 inst:  124000003 cyc:  132041889 now IPC :0.98441: AVG IPC :0.93085: L2-Pf-HR :0.89349: L2-HR :0.77156: (Sim:1h44m32s) 
CPU  2 inst:  122000000 cyc:  132185926 now IPC :0.84217: AVG IPC :0.91459: L2-Pf-HR :0.94117: L2-HR :0.81059: (Sim:1h44m39s) 
CPU  1 inst:  124000003 cyc:  132641156 now IPC :0.79805: AVG IPC :0.92661: L2-Pf-HR :0.90323: L2-HR :0.77888: (Sim:1h45m0s) 
CPU  0 inst:  125000005 cyc:  132943241 now IPC :0.86782: AVG IPC :0.93207: L2-Pf-HR :0.88986: L2-HR :0.76977: (Sim:1h45m15s) 
CPU  3 inst:  125000005 cyc:  133198875 now IPC :0.86432: AVG IPC :0.93027: L2-Pf-HR :0.89353: L2-HR :0.77146: (Sim:1h45m27s) 
CPU  2 inst:  123000000 cyc:  133392797 now IPC :0.82859: AVG IPC :0.91380: L2-Pf-HR :0.94126: L2-HR :0.81062: (Sim:1h45m37s) 
CPU  1 inst:  125000005 cyc:  133847991 now IPC :0.82862: AVG IPC :0.92572: L2-Pf-HR :0.90267: L2-HR :0.77838: (Sim:1h45m59s) 
CPU  0 inst:  126000001 cyc:  134070859 now IPC :0.88682: AVG IPC :0.93169: L2-Pf-HR :0.88856: L2-HR :0.76935: (Sim:1h46m10s) 
CPU  3 inst:  126000001 cyc:  134193400 now IPC :1.00550: AVG IPC :0.93083: L2-Pf-HR :0.89232: L2-HR :0.77120: (Sim:1h46m17s) 
CPU  2 inst:  124000003 cyc:  134772180 now IPC :0.72496: AVG IPC :0.91186: L2-Pf-HR :0.94141: L2-HR :0.81061: (Sim:1h46m42s) 
CPU  1 inst:  126000001 cyc:  135011046 now IPC :0.85980: AVG IPC :0.92515: L2-Pf-HR :0.90090: L2-HR :0.77780: (Sim:1h46m57s) 
CPU  0 inst:  127000002 cyc:  135044445 now IPC :1.02713: AVG IPC :0.93238: L2-Pf-HR :0.88661: L2-HR :0.76929: (Sim:1h46m59s) 
CPU  3 inst:  127000002 cyc:  135116728 now IPC :1.08304: AVG IPC :0.93188: L2-Pf-HR :0.89031: L2-HR :0.77131: (Sim:1h47m4s) 
CPU  1 inst:  127000002 cyc:  135938050 now IPC :1.07875: AVG IPC :0.92620: L2-Pf-HR :0.89877: L2-HR :0.77787: (Sim:1h47m45s) 
CPU  0 inst:  128000004 cyc:  135990273 now IPC :1.05728: AVG IPC :0.93326: L2-Pf-HR :0.88475: L2-HR :0.76939: (Sim:1h47m49s) 
CPU  3 inst:  128000004 cyc:  136049460 now IPC :1.07212: AVG IPC :0.93285: L2-Pf-HR :0.88846: L2-HR :0.77151: (Sim:1h47m53s) 
CPU  2 inst:  125000005 cyc:  136070082 now IPC :0.77048: AVG IPC :0.91050: L2-Pf-HR :0.94116: L2-HR :0.81027: (Sim:1h47m54s) 
CPU  1 inst:  128000004 cyc:  136898473 now IPC :1.04121: AVG IPC :0.92702: L2-Pf-HR :0.89693: L2-HR :0.77798: (Sim:1h48m30s) 
CPU  0 inst:  129000001 cyc:  137322223 now IPC :0.75078: AVG IPC :0.93147: L2-Pf-HR :0.88423: L2-HR :0.76969: (Sim:1h48m51s) 
CPU  3 inst:  129000001 cyc:  137423216 now IPC :0.72793: AVG IPC :0.93079: L2-Pf-HR :0.88775: L2-HR :0.77160: (Sim:1h48m55s) 
CPU  2 inst:  126000001 cyc:  137477252 now IPC :0.71064: AVG IPC :0.90844: L2-Pf-HR :0.94022: L2-HR :0.80972: (Sim:1h48m58s) 
CPU  1 inst:  129000001 cyc:  138419541 now IPC :0.65743: AVG IPC :0.92403: L2-Pf-HR :0.89625: L2-HR :0.77799: (Sim:1h49m41s) 
CPU  2 inst:  127000002 cyc:  138513880 now IPC :0.96467: AVG IPC :0.90886: L2-Pf-HR :0.93862: L2-HR :0.80965: (Sim:1h49m46s) 
CPU  0 inst:  130000004 cyc:  138527970 now IPC :0.82936: AVG IPC :0.93058: L2-Pf-HR :0.88343: L2-HR :0.76999: (Sim:1h49m47s) 
CPU  3 inst:  130000004 cyc:  138657531 now IPC :0.81017: AVG IPC :0.92970: L2-Pf-HR :0.88720: L2-HR :0.77210: (Sim:1h49m54s) 
CPU  2 inst:  128000004 cyc:  139414815 now IPC :1.10996: AVG IPC :0.91017: L2-Pf-HR :0.93738: L2-HR :0.80975: (Sim:1h50m33s) 
CPU  0 inst:  131000003 cyc:  139585410 now IPC :0.94568: AVG IPC :0.93069: L2-Pf-HR :0.88345: L2-HR :0.77059: (Sim:1h50m42s) 
CPU  1 inst:  130000004 cyc:  139623201 now IPC :0.83080: AVG IPC :0.92322: L2-Pf-HR :0.89533: L2-HR :0.77810: (Sim:1h50m44s) 
CPU  3 inst:  131000003 cyc:  139721372 now IPC :0.93999: AVG IPC :0.92978: L2-Pf-HR :0.88688: L2-HR :0.77259: (Sim:1h50m50s) 
CPU  2 inst:  129000001 cyc:  140777393 now IPC :0.73390: AVG IPC :0.90845: L2-Pf-HR :0.93647: L2-HR :0.80951: (Sim:1h51m37s) 
CPU  1 inst:  131000003 cyc:  140835604 now IPC :0.82481: AVG IPC :0.92237: L2-Pf-HR :0.89540: L2-HR :0.77862: (Sim:1h51m39s) 
CPU  0 inst:  132000003 cyc:  140899750 now IPC :0.76084: AVG IPC :0.92910: L2-Pf-HR :0.88206: L2-HR :0.77049: (Sim:1h51m42s) 
CPU  3 inst:  132000003 cyc:  141013759 now IPC :0.77376: AVG IPC :0.92834: L2-Pf-HR :0.88541: L2-HR :0.77243: (Sim:1h51m48s) 
CPU  2 inst:  130000004 cyc:  141868590 now IPC :0.91643: AVG IPC :0.90851: L2-Pf-HR :0.93622: L2-HR :0.80976: (Sim:1h52m29s) 
CPU  0 inst:  133000000 cyc:  142066162 now IPC :0.85733: AVG IPC :0.92850: L2-Pf-HR :0.88199: L2-HR :0.77094: (Sim:1h52m39s) 
CPU  1 inst:  132000000 cyc:  142073485 now IPC :0.80783: AVG IPC :0.92137: L2-Pf-HR :0.89341: L2-HR :0.77830: (Sim:1h52m40s) 
CPU  3 inst:  133000000 cyc:  142193786 now IPC :0.84744: AVG IPC :0.92767: L2-Pf-HR :0.88515: L2-HR :0.77269: (Sim:1h52m47s) 
CPU  2 inst:  131000003 cyc:  142780904 now IPC :1.09611: AVG IPC :0.90972: L2-Pf-HR :0.93582: L2-HR :0.80999: (Sim:1h53m20s) 
CPU  1 inst:  133000000 cyc:  143016051 now IPC :1.06093: AVG IPC :0.92229: L2-Pf-HR :0.89367: L2-HR :0.77909: (Sim:1h53m32s) 
CPU  0 inst:  134000001 cyc:  143049602 now IPC :1.01684: AVG IPC :0.92912: L2-Pf-HR :0.88249: L2-HR :0.77144: (Sim:1h53m34s) 
CPU  3 inst:  134000001 cyc:  143283221 now IPC :0.91791: AVG IPC :0.92759: L2-Pf-HR :0.88526: L2-HR :0.77290: (Sim:1h53m44s) 
CPU  2 inst:  132000002 cyc:  143812473 now IPC :0.96940: AVG IPC :0.91015: L2-Pf-HR :0.93427: L2-HR :0.80973: (Sim:1h54m10s) 
CPU  0 inst:  135000001 cyc:  144226328 now IPC :0.84982: AVG IPC :0.92846: L2-Pf-HR :0.88283: L2-HR :0.77149: (Sim:1h54m30s) 
CPU  1 inst:  134000001 cyc:  144277539 now IPC :0.79272: AVG IPC :0.92115: L2-Pf-HR :0.89417: L2-HR :0.77949: (Sim:1h54m33s) 
CPU  3 inst:  135000001 cyc:  144535633 now IPC :0.79846: AVG IPC :0.92647: L2-Pf-HR :0.88555: L2-HR :0.77298: (Sim:1h54m45s) 
CPU  2 inst:  133000000 cyc:  144941637 now IPC :0.88561: AVG IPC :0.90996: L2-Pf-HR :0.93427: L2-HR :0.81020: (Sim:1h55m4s) 
CPU  0 inst:  136000005 cyc:  145296847 now IPC :0.93413: AVG IPC :0.92851: L2-Pf-HR :0.88313: L2-HR :0.77164: (Sim:1h55m21s) 
CPU  1 inst:  135000001 cyc:  145622827 now IPC :0.74334: AVG IPC :0.91950: L2-Pf-HR :0.89436: L2-HR :0.77951: (Sim:1h55m36s) 
CPU  3 inst:  136000005 cyc:  145800314 now IPC :0.79072: AVG IPC :0.92528: L2-Pf-HR :0.88574: L2-HR :0.77305: (Sim:1h55m44s) 
CPU  2 inst:  134000001 cyc:  146265557 now IPC :0.75533: AVG IPC :0.90855: L2-Pf-HR :0.93444: L2-HR :0.81038: (Sim:1h56m6s) 
CPU  0 inst:  137000000 cyc:  146461545 now IPC :0.85859: AVG IPC :0.92795: L2-Pf-HR :0.88322: L2-HR :0.77159: (Sim:1h56m14s) 
CPU  1 inst:  136000005 cyc:  146979268 now IPC :0.73723: AVG IPC :0.91780: L2-Pf-HR :0.89437: L2-HR :0.77935: (Sim:1h56m38s) 
CPU  3 inst:  137000000 cyc:  147012450 now IPC :0.82499: AVG IPC :0.92445: L2-Pf-HR :0.88560: L2-HR :0.77282: (Sim:1h56m40s) 
CPU  2 inst:  135000001 cyc:  147679443 now IPC :0.70727: AVG IPC :0.90661: L2-Pf-HR :0.93455: L2-HR :0.81042: (Sim:1h57m10s) 
CPU  0 inst:  138000002 cyc:  147738209 now IPC :0.78329: AVG IPC :0.92669: L2-Pf-HR :0.88319: L2-HR :0.77169: (Sim:1h57m13s) 
CPU  3 inst:  138000002 cyc:  148052629 now IPC :0.96137: AVG IPC :0.92471: L2-Pf-HR :0.88552: L2-HR :0.77294: (Sim:1h57m27s) 
CPU  1 inst:  137000000 cyc:  148410021 now IPC :0.69893: AVG IPC :0.91568: L2-Pf-HR :0.89428: L2-HR :0.77905: (Sim:1h57m43s) 
CPU  2 inst:  136000005 cyc:  149083650 now IPC :0.71215: AVG IPC :0.90477: L2-Pf-HR :0.93466: L2-HR :0.81043: (Sim:1h58m13s) 
CPU  0 inst:  139000002 cyc:  149288901 now IPC :0.64487: AVG IPC :0.92374: L2-Pf-HR :0.88339: L2-HR :0.77167: (Sim:1h58m20s) 
CPU  3 inst:  139000004 cyc:  149334464 now IPC :0.78013: AVG IPC :0.92346: L2-Pf-HR :0.88551: L2-HR :0.77281: (Sim:1h58m22s) 
CPU  1 inst:  138000002 cyc:  149797523 now IPC :0.72072: AVG IPC :0.91386: L2-Pf-HR :0.89416: L2-HR :0.77908: (Sim:1h58m43s) 
CPU  2 inst:  137000000 cyc:  150428322 now IPC :0.74367: AVG IPC :0.90332: L2-Pf-HR :0.93469: L2-HR :0.81034: (Sim:1h59m11s) 
CPU  3 inst:  140000003 cyc:  150680156 now IPC :0.74311: AVG IPC :0.92184: L2-Pf-HR :0.88535: L2-HR :0.77288: (Sim:1h59m23s) 
CPU  0 inst:  140000003 cyc:  150698076 now IPC :0.70964: AVG IPC :0.92173: L2-Pf-HR :0.88353: L2-HR :0.77169: (Sim:1h59m24s) 
CPU  1 inst:  139000002 cyc:  151100187 now IPC :0.76766: AVG IPC :0.91259: L2-Pf-HR :0.89428: L2-HR :0.77915: (Sim:1h59m42s) 
CPU  2 inst:  138000002 cyc:  151743871 now IPC :0.76014: AVG IPC :0.90207: L2-Pf-HR :0.93463: L2-HR :0.81033: (Sim:2h0m9s) 
CPU  3 inst:  141000004 cyc:  152218918 now IPC :0.64987: AVG IPC :0.91907: L2-Pf-HR :0.88523: L2-HR :0.77262: (Sim:2h0m30s) 
CPU  0 inst:  141000004 cyc:  152233445 now IPC :0.65131: AVG IPC :0.91898: L2-Pf-HR :0.88348: L2-HR :0.77144: (Sim:2h0m31s) 
CPU  1 inst:  140000003 cyc:  152400156 now IPC :0.76925: AVG IPC :0.91136: L2-Pf-HR :0.89413: L2-HR :0.77916: (Sim:2h0m39s) 
CPU  2 inst:  139000003 cyc:  152986553 now IPC :0.80471: AVG IPC :0.90127: L2-Pf-HR :0.93463: L2-HR :0.81023: (Sim:2h1m6s) 
CPU  0 inst:  142000004 cyc:  153527685 now IPC :0.77265: AVG IPC :0.91774: L2-Pf-HR :0.88358: L2-HR :0.77144: (Sim:2h1m30s) 
CPU  3 inst:  142000004 cyc:  153537100 now IPC :0.75862: AVG IPC :0.91768: L2-Pf-HR :0.88542: L2-HR :0.77273: (Sim:2h1m31s) 
CPU  1 inst:  141000004 cyc:  153716742 now IPC :0.75954: AVG IPC :0.91005: L2-Pf-HR :0.89398: L2-HR :0.77884: (Sim:2h1m39s) 
CPU  2 inst:  140000003 cyc:  154136633 now IPC :0.86950: AVG IPC :0.90103: L2-Pf-HR :0.93454: L2-HR :0.81016: (Sim:2h2m0s) 
CPU  1 inst:  142000004 cyc:  154822840 now IPC :0.90408: AVG IPC :0.91001: L2-Pf-HR :0.89396: L2-HR :0.77880: (Sim:2h2m31s) 
CPU  3 inst:  143000002 cyc:  154837956 now IPC :0.76872: AVG IPC :0.91643: L2-Pf-HR :0.88549: L2-HR :0.77270: (Sim:2h2m32s) 
CPU  0 inst:  143000002 cyc:  154875633 now IPC :0.74187: AVG IPC :0.91620: L2-Pf-HR :0.88361: L2-HR :0.77132: (Sim:2h2m33s) 
CPU  2 inst:  141000004 cyc:  155554844 now IPC :0.70511: AVG IPC :0.89924: L2-Pf-HR :0.93433: L2-HR :0.80987: (Sim:2h3m4s) 
CPU  1 inst:  143000003 cyc:  156050372 now IPC :0.81464: AVG IPC :0.90926: L2-Pf-HR :0.89401: L2-HR :0.77871: (Sim:2h3m27s) 
CPU  0 inst:  144000004 cyc:  156093152 now IPC :0.82134: AVG IPC :0.91545: L2-Pf-HR :0.88349: L2-HR :0.77126: (Sim:2h3m29s) 
CPU  3 inst:  144000004 cyc:  156115606 now IPC :0.78269: AVG IPC :0.91532: L2-Pf-HR :0.88552: L2-HR :0.77264: (Sim:2h3m30s) 
CPU  2 inst:  142000004 cyc:  156719500 now IPC :0.85862: AVG IPC :0.89893: L2-Pf-HR :0.93436: L2-HR :0.80981: (Sim:2h3m59s) 
CPU  0 inst:  145000004 cyc:  157271266 now IPC :0.84881: AVG IPC :0.91495: L2-Pf-HR :0.88354: L2-HR :0.77122: (Sim:2h4m24s) 
CPU  1 inst:  144000004 cyc:  157325929 now IPC :0.78397: AVG IPC :0.90823: L2-Pf-HR :0.89395: L2-HR :0.77862: (Sim:2h4m27s) 
CPU  3 inst:  145000004 cyc:  157357436 now IPC :0.80526: AVG IPC :0.91445: L2-Pf-HR :0.88566: L2-HR :0.77257: (Sim:2h4m29s) 
CPU  2 inst:  143000000 cyc:  157905674 now IPC :0.84304: AVG IPC :0.89851: L2-Pf-HR :0.93452: L2-HR :0.80977: (Sim:2h4m55s) 
CPU  0 inst:  146000004 cyc:  158424382 now IPC :0.86722: AVG IPC :0.91460: L2-Pf-HR :0.88361: L2-HR :0.77118: (Sim:2h5m20s) 
CPU  3 inst:  146000004 cyc:  158511059 now IPC :0.86683: AVG IPC :0.91410: L2-Pf-HR :0.88544: L2-HR :0.77233: (Sim:2h5m25s) 
CPU  1 inst:  145000004 cyc:  158512894 now IPC :0.84248: AVG IPC :0.90774: L2-Pf-HR :0.89425: L2-HR :0.77882: (Sim:2h5m25s) 
CPU  2 inst:  144000004 cyc:  159020154 now IPC :0.89728: AVG IPC :0.89850: L2-Pf-HR :0.93442: L2-HR :0.80977: (Sim:2h5m50s) 
CPU  0 inst:  147000002 cyc:  159475547 now IPC :0.95132: AVG IPC :0.91485: L2-Pf-HR :0.88373: L2-HR :0.77120: (Sim:2h6m13s) 
CPU  1 inst:  146000004 cyc:  159616041 now IPC :0.90650: AVG IPC :0.90773: L2-Pf-HR :0.89431: L2-HR :0.77892: (Sim:2h6m20s) 
CPU  3 inst:  147000002 cyc:  159616099 now IPC :0.90494: AVG IPC :0.91404: L2-Pf-HR :0.88565: L2-HR :0.77242: (Sim:2h6m20s) 
CPU  2 inst:  145000004 cyc:  160087290 now IPC :0.93709: AVG IPC :0.89876: L2-Pf-HR :0.93461: L2-HR :0.80984: (Sim:2h6m45s) 
CPU  0 inst:  148000002 cyc:  160519974 now IPC :0.95746: AVG IPC :0.91513: L2-Pf-HR :0.88414: L2-HR :0.77132: (Sim:2h7m6s) 
CPU  3 inst:  148000002 cyc:  160632890 now IPC :0.98349: AVG IPC :0.91448: L2-Pf-HR :0.88565: L2-HR :0.77239: (Sim:2h7m12s) 
CPU  1 inst:  147000002 cyc:  160710009 now IPC :0.91410: AVG IPC :0.90777: L2-Pf-HR :0.89451: L2-HR :0.77900: (Sim:2h7m17s) 
CPU  2 inst:  146000004 cyc:  161186834 now IPC :0.90947: AVG IPC :0.89883: L2-Pf-HR :0.93477: L2-HR :0.80979: (Sim:2h7m40s) 
CPU  0 inst:  149000004 cyc:  161522980 now IPC :0.99700: AVG IPC :0.91564: L2-Pf-HR :0.88437: L2-HR :0.77129: (Sim:2h7m58s) 
CPU  3 inst:  149000004 cyc:  161670472 now IPC :0.96378: AVG IPC :0.91480: L2-Pf-HR :0.88575: L2-HR :0.77230: (Sim:2h8m6s) 
CPU  1 inst:  148000002 cyc:  161842161 now IPC :0.88327: AVG IPC :0.90760: L2-Pf-HR :0.89467: L2-HR :0.77887: (Sim:2h8m14s) 
CPU  2 inst:  147000002 cyc:  162309045 now IPC :0.89110: AVG IPC :0.89878: L2-Pf-HR :0.93498: L2-HR :0.80991: (Sim:2h8m38s) 
CPU  0 inst:  150000001 cyc:  162556206 now IPC :0.96784: AVG IPC :0.91597: L2-Pf-HR :0.88432: L2-HR :0.77130: (Sim:2h8m50s) 
CPU  3 inst:  150000004 cyc:  162654502 now IPC :1.01623: AVG IPC :0.91542: L2-Pf-HR :0.88598: L2-HR :0.77236: (Sim:2h8m55s) 
CPU  1 inst:  149000001 cyc:  163024077 now IPC :0.84608: AVG IPC :0.90715: L2-Pf-HR :0.89488: L2-HR :0.77876: (Sim:2h9m13s) 
CPU  2 inst:  148000002 cyc:  163417495 now IPC :0.90216: AVG IPC :0.89880: L2-Pf-HR :0.93518: L2-HR :0.80992: (Sim:2h9m32s) 
CPU  0 inst:  151000002 cyc:  163747151 now IPC :0.83967: AVG IPC :0.91541: L2-Pf-HR :0.88453: L2-HR :0.77120: (Sim:2h9m48s) 
CPU  3 inst:  151000002 cyc:  163840258 now IPC :0.84334: AVG IPC :0.91489: L2-Pf-HR :0.88623: L2-HR :0.77236: (Sim:2h9m53s) 
CPU  1 inst:  150000001 cyc:  164208221 now IPC :0.84449: AVG IPC :0.90670: L2-Pf-HR :0.89501: L2-HR :0.77875: (Sim:2h10m10s) 
CPU  2 inst:  149000003 cyc:  164428980 now IPC :0.98865: AVG IPC :0.89936: L2-Pf-HR :0.93534: L2-HR :0.80994: (Sim:2h10m22s) 
CPU  0 inst:  152000002 cyc:  164941406 now IPC :0.83734: AVG IPC :0.91484: L2-Pf-HR :0.88478: L2-HR :0.77119: (Sim:2h10m48s) 
CPU  3 inst:  152000002 cyc:  165009060 now IPC :0.85558: AVG IPC :0.91447: L2-Pf-HR :0.88672: L2-HR :0.77252: (Sim:2h10m51s) 
CPU  1 inst:  151000002 cyc:  165233501 now IPC :0.97534: AVG IPC :0.90713: L2-Pf-HR :0.89545: L2-HR :0.77898: (Sim:2h11m3s) 
CPU  2 inst:  150000001 cyc:  165408064 now IPC :1.02136: AVG IPC :0.90009: L2-Pf-HR :0.93555: L2-HR :0.81001: (Sim:2h11m12s) 
CPU  1 inst:  152000002 cyc:  166277706 now IPC :0.95767: AVG IPC :0.90745: L2-Pf-HR :0.89580: L2-HR :0.77910: (Sim:2h11m51s) 
CPU  0 inst:  153000001 cyc:  166297869 now IPC :0.73721: AVG IPC :0.91339: L2-Pf-HR :0.88505: L2-HR :0.77103: (Sim:2h11m52s) 
CPU  3 inst:  153000000 cyc:  166422741 now IPC :0.70737: AVG IPC :0.91270: L2-Pf-HR :0.88703: L2-HR :0.77241: (Sim:2h11m57s) 
CPU  2 inst:  151000002 cyc:  166818813 now IPC :0.70884: AVG IPC :0.89846: L2-Pf-HR :0.93560: L2-HR :0.80999: (Sim:2h12m15s) 
CPU  0 inst:  154000005 cyc:  167422377 now IPC :0.88928: AVG IPC :0.91322: L2-Pf-HR :0.88498: L2-HR :0.77106: (Sim:2h12m43s) 
CPU  1 inst:  153000001 cyc:  167584424 now IPC :0.76528: AVG IPC :0.90633: L2-Pf-HR :0.89584: L2-HR :0.77887: (Sim:2h12m50s) 
CPU  3 inst:  154000000 cyc:  167689956 now IPC :0.78913: AVG IPC :0.91176: L2-Pf-HR :0.88739: L2-HR :0.77261: (Sim:2h12m56s) 
CPU  2 inst:  152000002 cyc:  168149633 now IPC :0.75142: AVG IPC :0.89729: L2-Pf-HR :0.93575: L2-HR :0.81006: (Sim:2h13m18s) 
CPU  0 inst:  155000000 cyc:  168399038 now IPC :1.02389: AVG IPC :0.91387: L2-Pf-HR :0.88501: L2-HR :0.77100: (Sim:2h13m30s) 
CPU  1 inst:  154000005 cyc:  168829043 now IPC :0.80346: AVG IPC :0.90557: L2-Pf-HR :0.89589: L2-HR :0.77885: (Sim:2h13m50s) 
CPU  3 inst:  155000000 cyc:  169011340 now IPC :0.75678: AVG IPC :0.91054: L2-Pf-HR :0.88760: L2-HR :0.77269: (Sim:2h13m58s) 
CPU  2 inst:  153000000 cyc:  169597226 now IPC :0.69080: AVG IPC :0.89552: L2-Pf-HR :0.93580: L2-HR :0.80991: (Sim:2h14m25s) 
CPU  0 inst:  156000002 cyc:  169656684 now IPC :0.79514: AVG IPC :0.91298: L2-Pf-HR :0.88491: L2-HR :0.77090: (Sim:2h14m27s) 
CPU  3 inst:  156000002 cyc:  169975377 now IPC :1.03731: AVG IPC :0.91126: L2-Pf-HR :0.88750: L2-HR :0.77257: (Sim:2h14m42s) 
[...]
CPU  1 inst: 1013000003 cyc: 1190549472 now IPC :0.82224: AVG IPC :0.84989: L2-Pf-HR :0.89962: L2-HR :0.78124: (Sim:13h16m16s) 
CPU  2 inst: 1007000000 cyc: 1190556414 now IPC :0.79612: AVG IPC :0.84484: L2-Pf-HR :0.93860: L2-HR :0.81159: (Sim:13h16m16s) 
CPU  0 inst: 1018000001 cyc: 1191407802 now IPC :0.84710: AVG IPC :0.85347: L2-Pf-HR :0.88651: L2-HR :0.77210: (Sim:13h16m58s) 
CPU  3 inst: 1016000000 cyc: 1191650022 now IPC :0.87649: AVG IPC :0.85162: L2-Pf-HR :0.89281: L2-HR :0.77514: (Sim:13h17m11s) 
CPU  1 inst: 1014000000 cyc: 1191657828 now IPC :0.90223: AVG IPC :0.84993: L2-Pf-HR :0.89966: L2-HR :0.78126: (Sim:13h17m11s) 
CPU  2 inst: 1008000003 cyc: 1191721825 now IPC :0.85807: AVG IPC :0.84485: L2-Pf-HR :0.93862: L2-HR :0.81159: (Sim:13h17m14s) 
CPU  0 inst: 1019000002 cyc: 1192546596 now IPC :0.87812: AVG IPC :0.85350: L2-Pf-HR :0.88655: L2-HR :0.77212: (Sim:13h17m56s) 
CPU  1 inst: 1015000000 cyc: 1192762578 now IPC :0.90518: AVG IPC :0.84999: L2-Pf-HR :0.89968: L2-HR :0.78128: (Sim:13h18m6s) 
CPU  3 inst: 1017000001 cyc: 1192834203 now IPC :0.84447: AVG IPC :0.85161: L2-Pf-HR :0.89286: L2-HR :0.77514: (Sim:13h18m10s) 
CPU  2 inst: 1009000001 cyc: 1192839707 now IPC :0.89455: AVG IPC :0.84490: L2-Pf-HR :0.93865: L2-HR :0.81160: (Sim:13h18m11s) 
CPU  0 inst: 1020000005 cyc: 1193695620 now IPC :0.87031: AVG IPC :0.85351: L2-Pf-HR :0.88656: L2-HR :0.77211: (Sim:13h18m54s) 
CPU  1 inst: 1016000000 cyc: 1193855574 now IPC :0.91492: AVG IPC :0.85005: L2-Pf-HR :0.89974: L2-HR :0.78131: (Sim:13h19m2s) 
CPU  2 inst: 1010000001 cyc: 1193949355 now IPC :0.90119: AVG IPC :0.84495: L2-Pf-HR :0.93867: L2-HR :0.81161: (Sim:13h19m7s) 
CPU  3 inst: 1018000001 cyc: 1194010800 now IPC :0.84991: AVG IPC :0.85161: L2-Pf-HR :0.89290: L2-HR :0.77514: (Sim:13h19m10s) 
CPU  1 inst: 1017000001 cyc: 1194919020 now IPC :0.94034: AVG IPC :0.85013: L2-Pf-HR :0.89977: L2-HR :0.78130: (Sim:13h19m55s) 
CPU  0 inst: 1021000005 cyc: 1194935940 now IPC :0.80624: AVG IPC :0.85346: L2-Pf-HR :0.88660: L2-HR :0.77211: (Sim:13h19m56s) 
CPU  2 inst: 1011000005 cyc: 1195130278 now IPC :0.84680: AVG IPC :0.84495: L2-Pf-HR :0.93867: L2-HR :0.81157: (Sim:13h20m6s) 
CPU  3 inst: 1019000002 cyc: 1195211223 now IPC :0.83304: AVG IPC :0.85159: L2-Pf-HR :0.89291: L2-HR :0.77514: (Sim:13h20m10s) 
CPU  1 inst: 1018000001 cyc: 1196001412 now IPC :0.92388: AVG IPC :0.85019: L2-Pf-HR :0.89979: L2-HR :0.78128: (Sim:13h20m50s) 
CPU  2 inst: 1012000003 cyc: 1196104531 now IPC :1.02643: AVG IPC :0.84510: L2-Pf-HR :0.93868: L2-HR :0.81157: (Sim:13h20m55s) 
CPU  0 inst: 1022000003 cyc: 1196168237 now IPC :0.81149: AVG IPC :0.85342: L2-Pf-HR :0.88663: L2-HR :0.77211: (Sim:13h20m59s) 
CPU  3 inst: 1020000005 cyc: 1196402099 now IPC :0.83972: AVG IPC :0.85158: L2-Pf-HR :0.89295: L2-HR :0.77514: (Sim:13h21m10s) 
CPU  1 inst: 1019000002 cyc: 1197170244 now IPC :0.85556: AVG IPC :0.85020: L2-Pf-HR :0.89983: L2-HR :0.78128: (Sim:13h21m47s) 
CPU  2 inst: 1013000003 cyc: 1197244441 now IPC :0.87726: AVG IPC :0.84513: L2-Pf-HR :0.93867: L2-HR :0.81156: (Sim:13h21m48s) 
CPU  0 inst: 1023000005 cyc: 1197321281 now IPC :0.86727: AVG IPC :0.85343: L2-Pf-HR :0.88655: L2-HR :0.77204: (Sim:13h21m51s) 
CPU  3 inst: 1021000005 cyc: 1197417982 now IPC :0.98437: AVG IPC :0.85169: L2-Pf-HR :0.89301: L2-HR :0.77515: (Sim:13h21m54s) 
CPU  0 inst: 1024000001 cyc: 1198287898 now IPC :1.03453: AVG IPC :0.85358: L2-Pf-HR :0.88640: L2-HR :0.77202: (Sim:13h22m18s) 
CPU  1 inst: 1020000005 cyc: 1198371375 now IPC :0.83255: AVG IPC :0.85018: L2-Pf-HR :0.89984: L2-HR :0.78128: (Sim:13h22m20s) 
CPU  2 inst: 1014000000 cyc: 1198476815 now IPC :0.81144: AVG IPC :0.84510: L2-Pf-HR :0.93869: L2-HR :0.81158: (Sim:13h22m23s) 
CPU  3 inst: 1022000003 cyc: 1198498532 now IPC :0.92545: AVG IPC :0.85176: L2-Pf-HR :0.89308: L2-HR :0.77518: (Sim:13h22m24s) 
CPU  0 inst: 1025000004 cyc: 1199141430 now IPC :1.17161: AVG IPC :0.85381: L2-Pf-HR :0.88620: L2-HR :0.77204: (Sim:13h22m43s) 
CPU  1 inst: 1021000005 cyc: 1199535221 now IPC :0.85922: AVG IPC :0.85019: L2-Pf-HR :0.89990: L2-HR :0.78131: (Sim:13h22m54s) 
CPU  2 inst: 1015000000 cyc: 1199707302 now IPC :0.81269: AVG IPC :0.84506: L2-Pf-HR :0.93871: L2-HR :0.81157: (Sim:13h22m58s) 
CPU  3 inst: 1023000005 cyc: 1199742693 now IPC :0.80376: AVG IPC :0.85171: L2-Pf-HR :0.89304: L2-HR :0.77513: (Sim:13h22m59s) 
CPU  0 inst: 1026000004 cyc: 1200076455 now IPC :1.06949: AVG IPC :0.85398: L2-Pf-HR :0.88605: L2-HR :0.77206: (Sim:13h23m10s) 
CPU  1 inst: 1022000003 cyc: 1200647818 now IPC :0.89880: AVG IPC :0.85023: L2-Pf-HR :0.89992: L2-HR :0.78132: (Sim:13h23m23s) 
CPU  3 inst: 1024000001 cyc: 1200761842 now IPC :0.98121: AVG IPC :0.85182: L2-Pf-HR :0.89289: L2-HR :0.77511: (Sim:13h23m26s) 
CPU  2 inst: 1016000000 cyc: 1200952981 now IPC :0.80278: AVG IPC :0.84502: L2-Pf-HR :0.93874: L2-HR :0.81158: (Sim:13h23m29s) 
CPU  3 inst: 1025000004 cyc: 1202233491 now IPC :0.67951: AVG IPC :0.85161: L2-Pf-HR :0.89266: L2-HR :0.77513: (Sim:13h24m10s) 
CPU  1 inst: 1023000005 cyc: 1202782283 now IPC :0.46850: AVG IPC :0.84956: L2-Pf-HR :0.89980: L2-HR :0.78123: (Sim:13h24m29s) 
CPU  2 inst: 1017000001 cyc: 1203270120 now IPC :0.43157: AVG IPC :0.84422: L2-Pf-HR :0.93876: L2-HR :0.81159: (Sim:13h24m46s) 
CPU  3 inst: 1026000004 cyc: 1203862156 now IPC :0.61400: AVG IPC :0.85129: L2-Pf-HR :0.89252: L2-HR :0.77514: (Sim:13h25m7s) 
CPU  1 inst: 1024000001 cyc: 1204782081 now IPC :0.50005: AVG IPC :0.84898: L2-Pf-HR :0.89966: L2-HR :0.78118: (Sim:13h25m32s) 
CPU  2 inst: 1018000001 cyc: 1205665739 now IPC :0.41743: AVG IPC :0.84337: L2-Pf-HR :0.93879: L2-HR :0.81159: (Sim:13h25m58s) 
CPU  1 inst: 1025000004 cyc: 1206854112 now IPC :0.48262: AVG IPC :0.84835: L2-Pf-HR :0.89942: L2-HR :0.78116: (Sim:13h26m19s) 
CPU  2 inst: 1019000002 cyc: 1208686324 now IPC :0.33106: AVG IPC :0.84209: L2-Pf-HR :0.93881: L2-HR :0.81160: (Sim:13h26m49s) 
CPU  1 inst: 1026000004 cyc: 1209002336 now IPC :0.46550: AVG IPC :0.84767: L2-Pf-HR :0.89926: L2-HR :0.78118: (Sim:13h26m55s) 
CPU  0 inst: 1027000000 cyc: 1209947696 now IPC :0.10130: AVG IPC :0.84783: L2-Pf-HR :0.88198: L2-HR :0.76958: (Sim:13h27m7s) 
CPU  2 inst: 1020000005 cyc: 1211858585 now IPC :0.31523: AVG IPC :0.84071: L2-Pf-HR :0.93882: L2-HR :0.81159: (Sim:13h27m35s) 
CPU  2 inst: 1021000005 cyc: 1215737927 now IPC :0.25778: AVG IPC :0.83885: L2-Pf-HR :0.93884: L2-HR :0.81160: (Sim:13h29m14s) 
CPU  3 inst: 1027000000 cyc: 1218001608 now IPC :0.07072: AVG IPC :0.84222: L2-Pf-HR :0.88850: L2-HR :0.77264: (Sim:13h30m24s) 
CPU  2 inst: 1022000003 cyc: 1219514708 now IPC :0.26478: AVG IPC :0.83707: L2-Pf-HR :0.93886: L2-HR :0.81161: (Sim:13h31m11s) 
CPU  2 inst: 1023000005 cyc: 1223401536 now IPC :0.25728: AVG IPC :0.83523: L2-Pf-HR :0.93881: L2-HR :0.81153: (Sim:13h32m56s) 
CPU  0 inst: 1028000005 cyc: 1225278628 now IPC :0.06523: AVG IPC :0.83803: L2-Pf-HR :0.87761: L2-HR :0.76703: (Sim:13h33m52s) 
CPU  1 inst: 1027000000 cyc: 1225470480 now IPC :0.06072: AVG IPC :0.83708: L2-Pf-HR :0.89553: L2-HR :0.77869: (Sim:13h33m58s) 
CPU  2 inst: 1024000001 cyc: 1226482047 now IPC :0.32462: AVG IPC :0.83394: L2-Pf-HR :0.93865: L2-HR :0.81150: (Sim:13h34m21s) 
CPU  2 inst: 1025000004 cyc: 1228849745 now IPC :0.42235: AVG IPC :0.83315: L2-Pf-HR :0.93845: L2-HR :0.81150: (Sim:13h35m19s) 
CPU  2 inst: 1026000004 cyc: 1231148787 now IPC :0.43496: AVG IPC :0.83241: L2-Pf-HR :0.93829: L2-HR :0.81152: (Sim:13h36m35s) 
CPU  3 inst: 1028000005 cyc: 1233930231 now IPC :0.06278: AVG IPC :0.83215: L2-Pf-HR :0.88420: L2-HR :0.77007: (Sim:13h37m50s) 
CPU  0 inst: 1029000004 cyc: 1244216019 now IPC :0.05281: AVG IPC :0.82607: L2-Pf-HR :0.87339: L2-HR :0.76454: (Sim:13h42m39s) 
CPU  1 inst: 1028000002 cyc: 1244277045 now IPC :0.05317: AVG IPC :0.82522: L2-Pf-HR :0.89154: L2-HR :0.77614: (Sim:13h42m40s) 
CPU  2 inst: 1027000000 cyc: 1254843331 now IPC :0.04220: AVG IPC :0.81747: L2-Pf-HR :0.93537: L2-HR :0.80909: (Sim:13h47m5s) 
CPU  3 inst: 1029000004 cyc: 1254922136 now IPC :0.04764: AVG IPC :0.81902: L2-Pf-HR :0.87998: L2-HR :0.76755: (Sim:13h47m8s) 
CPU  0 inst: 1030000000 cyc: 1264974728 now IPC :0.04817: AVG IPC :0.81329: L2-Pf-HR :0.86922: L2-HR :0.76211: (Sim:13h52m1s) 
CPU  1 inst: 1029000001 cyc: 1265116834 now IPC :0.04799: AVG IPC :0.81241: L2-Pf-HR :0.88759: L2-HR :0.77365: (Sim:13h52m6s) 
CPU  2 inst: 1028000002 cyc: 1275611454 now IPC :0.04815: AVG IPC :0.80494: L2-Pf-HR :0.93221: L2-HR :0.80658: (Sim:13h57m24s) 
CPU  3 inst: 1030000003 cyc: 1275689468 now IPC :0.04815: AVG IPC :0.80646: L2-Pf-HR :0.87582: L2-HR :0.76510: (Sim:13h57m26s) 
CPU  0 inst: 1031000002 cyc: 1285533080 now IPC :0.04864: AVG IPC :0.80106: L2-Pf-HR :0.86514: L2-HR :0.75972: (Sim:14h2m32s) 
CPU  1 inst: 1030000003 cyc: 1285674210 now IPC :0.04864: AVG IPC :0.80019: L2-Pf-HR :0.88370: L2-HR :0.77122: (Sim:14h2m37s) 
CPU  2 inst: 1029000004 cyc: 1296150788 now IPC :0.04869: AVG IPC :0.79295: L2-Pf-HR :0.92908: L2-HR :0.80412: (Sim:14h7m31s) 
CPU  3 inst: 1031000002 cyc: 1296175514 now IPC :0.04881: AVG IPC :0.79447: L2-Pf-HR :0.87173: L2-HR :0.76269: (Sim:14h7m31s) 
CPU  0 inst: 1032000004 cyc: 1306140384 now IPC :0.04853: AVG IPC :0.78917: L2-Pf-HR :0.86108: L2-HR :0.75740: (Sim:14h11m35s) 
CPU  1 inst: 1031000004 cyc: 1306352872 now IPC :0.04836: AVG IPC :0.78828: L2-Pf-HR :0.87985: L2-HR :0.76884: (Sim:14h11m41s) 
CPU  3 inst: 1032000004 cyc: 1316645689 now IPC :0.04885: AVG IPC :0.78287: L2-Pf-HR :0.86770: L2-HR :0.76034: (Sim:14h14m26s) 
CPU  2 inst: 1030000000 cyc: 1316772841 now IPC :0.04849: AVG IPC :0.78128: L2-Pf-HR :0.92600: L2-HR :0.80171: (Sim:14h14m28s) 
CPU  0 inst: 1033000000 cyc: 1326638767 now IPC :0.04878: AVG IPC :0.77773: L2-Pf-HR :0.85710: L2-HR :0.75512: (Sim:14h19m8s) 
CPU  1 inst: 1032000004 cyc: 1326904239 now IPC :0.04866: AVG IPC :0.77682: L2-Pf-HR :0.87606: L2-HR :0.76651: (Sim:14h19m16s) 
CPU  3 inst: 1033000003 cyc: 1337360220 now IPC :0.04828: AVG IPC :0.77149: L2-Pf-HR :0.86374: L2-HR :0.75804: (Sim:14h24m31s) 
CPU  2 inst: 1031000004 cyc: 1337361803 now IPC :0.04857: AVG IPC :0.76999: L2-Pf-HR :0.92294: L2-HR :0.79934: (Sim:14h24m31s) 
CPU  0 inst: 1034000002 cyc: 1347253210 now IPC :0.04851: AVG IPC :0.76656: L2-Pf-HR :0.85316: L2-HR :0.75289: (Sim:14h29m26s) 
CPU  1 inst: 1033000000 cyc: 1347391848 now IPC :0.04881: AVG IPC :0.76574: L2-Pf-HR :0.87231: L2-HR :0.76422: (Sim:14h29m30s) 
CPU  2 inst: 1032000001 cyc: 1357896092 now IPC :0.04870: AVG IPC :0.75907: L2-Pf-HR :0.91989: L2-HR :0.79702: (Sim:14h32m48s) 
CPU  3 inst: 1034000005 cyc: 1357989311 now IPC :0.04848: AVG IPC :0.76050: L2-Pf-HR :0.85981: L2-HR :0.75579: (Sim:14h32m50s) 
CPU  0 inst: 1035000004 cyc: 1367782515 now IPC :0.04871: AVG IPC :0.75578: L2-Pf-HR :0.84928: L2-HR :0.75071: (Sim:14h36m37s) 
CPU  1 inst: 1034000002 cyc: 1368015834 now IPC :0.04849: AVG IPC :0.75492: L2-Pf-HR :0.86862: L2-HR :0.76199: (Sim:14h36m40s) 
CPU  2 inst: 1033000000 cyc: 1378527202 now IPC :0.04847: AVG IPC :0.74843: L2-Pf-HR :0.91688: L2-HR :0.79474: (Sim:14h41m1s) 
CPU  3 inst: 1035000001 cyc: 1378626841 now IPC :0.04846: AVG IPC :0.74983: L2-Pf-HR :0.85593: L2-HR :0.75360: (Sim:14h41m3s) 
CPU  0 inst: 1036000003 cyc: 1388401157 now IPC :0.04850: AVG IPC :0.74527: L2-Pf-HR :0.84546: L2-HR :0.74858: (Sim:14h45m39s) 
CPU  1 inst: 1035000000 cyc: 1388455263 now IPC :0.04892: AVG IPC :0.74452: L2-Pf-HR :0.86497: L2-HR :0.75980: (Sim:14h45m40s) 
CPU  3 inst: 1036000003 cyc: 1399073676 now IPC :0.04891: AVG IPC :0.73958: L2-Pf-HR :0.85210: L2-HR :0.75144: (Sim:14h50m52s) 
CPU  2 inst: 1034000002 cyc: 1399165815 now IPC :0.04845: AVG IPC :0.73810: L2-Pf-HR :0.91390: L2-HR :0.79250: (Sim:14h50m55s) 
CPU  0 inst: 1037000003 cyc: 1409086828 now IPC :0.04834: AVG IPC :0.73503: L2-Pf-HR :0.84168: L2-HR :0.74650: (Sim:14h55m47s) 
CPU  1 inst: 1036000003 cyc: 1409122206 now IPC :0.04839: AVG IPC :0.73430: L2-Pf-HR :0.86136: L2-HR :0.75766: (Sim:14h55m48s) 
CPU  2 inst: 1035000001 cyc: 1419626991 now IPC :0.04887: AVG IPC :0.72816: L2-Pf-HR :0.91095: L2-HR :0.79031: (Sim:15h1m13s) 
CPU  3 inst: 1037000005 cyc: 1419764010 now IPC :0.04833: AVG IPC :0.72950: L2-Pf-HR :0.84833: L2-HR :0.74933: (Sim:15h1m18s) 
CPU  0 inst: 1038000001 cyc: 1429636182 now IPC :0.04866: AVG IPC :0.72516: L2-Pf-HR :0.83797: L2-HR :0.74445: (Sim:15h4m39s) 
CPU  1 inst: 1037000002 cyc: 1429721125 now IPC :0.04855: AVG IPC :0.72441: L2-Pf-HR :0.85781: L2-HR :0.75556: (Sim:15h4m41s) 
CPU  2 inst: 1036000000 cyc: 1440149211 now IPC :0.04873: AVG IPC :0.71847: L2-Pf-HR :0.90805: L2-HR :0.78815: (Sim:15h9m2s) 
CPU  3 inst: 1038000004 cyc: 1440480383 now IPC :0.04827: AVG IPC :0.71969: L2-Pf-HR :0.84460: L2-HR :0.74727: (Sim:15h9m7s) 
CPU  0 inst: 1039000003 cyc: 1450220382 now IPC :0.04858: AVG IPC :0.71555: L2-Pf-HR :0.83430: L2-HR :0.74245: (Sim:15h11m36s) 
CPU  1 inst: 1038000001 cyc: 1450236036 now IPC :0.04874: AVG IPC :0.71485: L2-Pf-HR :0.85429: L2-HR :0.75350: (Sim:15h11m37s) 
CPU  2 inst: 1037000002 cyc: 1460754186 now IPC :0.04853: AVG IPC :0.70901: L2-Pf-HR :0.90515: L2-HR :0.78603: (Sim:15h14m51s) 
CPU  3 inst: 1039000000 cyc: 1461135289 now IPC :0.04841: AVG IPC :0.71020: L2-Pf-HR :0.84094: L2-HR :0.74525: (Sim:15h15m3s) 
CPU  0 inst: 1040000002 cyc: 1470763537 now IPC :0.04868: AVG IPC :0.70623: L2-Pf-HR :0.83068: L2-HR :0.74049: (Sim:15h19m12s) 
CPU  1 inst: 1039000000 cyc: 1470845555 now IPC :0.04852: AVG IPC :0.70551: L2-Pf-HR :0.85081: L2-HR :0.75149: (Sim:15h19m15s) 
CPU  2 inst: 1038000001 cyc: 1481392224 now IPC :0.04845: AVG IPC :0.69980: L2-Pf-HR :0.90229: L2-HR :0.78395: (Sim:15h24m30s) 
CPU  3 inst: 1040000002 cyc: 1481673315 now IPC :0.04869: AVG IPC :0.70102: L2-Pf-HR :0.83734: L2-HR :0.74327: (Sim:15h24m38s) 
CPU  1 inst: 1040000005 cyc: 1491305166 now IPC :0.04888: AVG IPC :0.69649: L2-Pf-HR :0.84739: L2-HR :0.74951: (Sim:15h28m43s) 
CPU  0 inst: 1041000004 cyc: 1491323320 now IPC :0.04864: AVG IPC :0.69715: L2-Pf-HR :0.82710: L2-HR :0.73857: (Sim:15h28m44s) 
CPU  2 inst: 1039000000 cyc: 1502010766 now IPC :0.04850: AVG IPC :0.69086: L2-Pf-HR :0.89946: L2-HR :0.78190: (Sim:15h32m46s) 
CPU  3 inst: 1041000001 cyc: 1502321648 now IPC :0.04843: AVG IPC :0.69205: L2-Pf-HR :0.83376: L2-HR :0.74133: (Sim:15h32m56s) 
CPU  0 inst: 1042000000 cyc: 1511892531 now IPC :0.04862: AVG IPC :0.68833: L2-Pf-HR :0.82357: L2-HR :0.73669: (Sim:15h37m58s) 
CPU  1 inst: 1041000001 cyc: 1511913778 now IPC :0.04852: AVG IPC :0.68765: L2-Pf-HR :0.84401: L2-HR :0.74757: (Sim:15h37m58s) 
CPU  2 inst: 1040000004 cyc: 1522537571 now IPC :0.04872: AVG IPC :0.68220: L2-Pf-HR :0.89664: L2-HR :0.77989: (Sim:15h42m42s) 
CPU  3 inst: 1042000000 cyc: 1522914635 now IPC :0.04856: AVG IPC :0.68334: L2-Pf-HR :0.83025: L2-HR :0.73942: (Sim:15h42m48s) 
CPU  1 inst: 1042000000 cyc: 1532434808 now IPC :0.04873: AVG IPC :0.67909: L2-Pf-HR :0.84066: L2-HR :0.74567: (Sim:15h45m19s) 
CPU  0 inst: 1043000002 cyc: 1532483274 now IPC :0.04857: AVG IPC :0.67972: L2-Pf-HR :0.82010: L2-HR :0.73484: (Sim:15h45m20s) 
CPU  2 inst: 1041000004 cyc: 1543117434 now IPC :0.04859: AVG IPC :0.67374: L2-Pf-HR :0.89385: L2-HR :0.77791: (Sim:15h50m22s) 
CPU  3 inst: 1043000002 cyc: 1543537634 now IPC :0.04849: AVG IPC :0.67485: L2-Pf-HR :0.82677: L2-HR :0.73756: (Sim:15h50m36s) 
CPU  1 inst: 1043000005 cyc: 1553020215 now IPC :0.04858: AVG IPC :0.67073: L2-Pf-HR :0.83734: L2-HR :0.74381: (Sim:15h54m11s) 
CPU  0 inst: 1044000001 cyc: 1553115798 now IPC :0.04847: AVG IPC :0.67133: L2-Pf-HR :0.81667: L2-HR :0.73303: (Sim:15h54m12s) 
CPU  2 inst: 1042000000 cyc: 1563728255 now IPC :0.04852: AVG IPC :0.66549: L2-Pf-HR :0.89109: L2-HR :0.77597: (Sim:15h56m59s) 
CPU  3 inst: 1044000004 cyc: 1564137880 now IPC :0.04854: AVG IPC :0.66660: L2-Pf-HR :0.82333: L2-HR :0.73573: (Sim:15h57m5s) 
CPU  1 inst: 1044000001 cyc: 1573605831 now IPC :0.04858: AVG IPC :0.66259: L2-Pf-HR :0.83407: L2-HR :0.74198: (Sim:16h0m45s) 
CPU  0 inst: 1045000001 cyc: 1573707581 now IPC :0.04856: AVG IPC :0.66318: L2-Pf-HR :0.81328: L2-HR :0.73126: (Sim:16h0m48s) 
CPU  2 inst: 1043000005 cyc: 1584245537 now IPC :0.04874: AVG IPC :0.65750: L2-Pf-HR :0.88836: L2-HR :0.77406: (Sim:16h6m20s) 
CPU  3 inst: 1045000001 cyc: 1584626291 now IPC :0.04881: AVG IPC :0.65861: L2-Pf-HR :0.81993: L2-HR :0.73394: (Sim:16h6m32s) 
CPU  1 inst: 1045000001 cyc: 1594156441 now IPC :0.04866: AVG IPC :0.65467: L2-Pf-HR :0.83085: L2-HR :0.74018: (Sim:16h11m22s) 
CPU  0 inst: 1046000002 cyc: 1594384661 now IPC :0.04836: AVG IPC :0.65520: L2-Pf-HR :0.80995: L2-HR :0.72952: (Sim:16h11m30s) 
CPU  2 inst: 1044000001 cyc: 1604756021 now IPC :0.04876: AVG IPC :0.64972: L2-Pf-HR :0.88566: L2-HR :0.77218: (Sim:16h16m43s) 
CPU  3 inst: 1046000002 cyc: 1605268282 now IPC :0.04844: AVG IPC :0.65076: L2-Pf-HR :0.81660: L2-HR :0.73218: (Sim:16h16m59s) 
CPU  1 inst: 1046000005 cyc: 1614781593 now IPC :0.04848: AVG IPC :0.64692: L2-Pf-HR :0.82767: L2-HR :0.73842: (Sim:16h20m46s) 
CPU  0 inst: 1047000004 cyc: 1614943234 now IPC :0.04864: AVG IPC :0.64747: L2-Pf-HR :0.80666: L2-HR :0.72781: (Sim:16h20m49s) 
CPU  2 inst: 1045000001 cyc: 1625250120 now IPC :0.04879: AVG IPC :0.64213: L2-Pf-HR :0.88297: L2-HR :0.77034: (Sim:16h23m52s) 
CPU  3 inst: 1047000004 cyc: 1625830733 now IPC :0.04863: AVG IPC :0.64314: L2-Pf-HR :0.81330: L2-HR :0.73046: (Sim:16h24m4s) 
CPU  1 inst: 1047000001 cyc: 1635387040 now IPC :0.04853: AVG IPC :0.63937: L2-Pf-HR :0.82453: L2-HR :0.73669: (Sim:16h27m46s) 
CPU  0 inst: 1048000003 cyc: 1635413754 now IPC :0.04885: AVG IPC :0.63998: L2-Pf-HR :0.80341: L2-HR :0.72613: (Sim:16h27m46s) 
CPU  2 inst: 1046000002 cyc: 1645709290 now IPC :0.04888: AVG IPC :0.63475: L2-Pf-HR :0.88031: L2-HR :0.76852: (Sim:16h30m44s) 
CPU  3 inst: 1048000003 cyc: 1646344713 now IPC :0.04875: AVG IPC :0.63573: L2-Pf-HR :0.81006: L2-HR :0.72876: (Sim:16h30m53s) 
CPU  1 inst: 1048000000 cyc: 1655981236 now IPC :0.04856: AVG IPC :0.63202: L2-Pf-HR :0.82143: L2-HR :0.73499: (Sim:16h33m26s) 
CPU  0 inst: 1049000005 cyc: 1656079817 now IPC :0.04839: AVG IPC :0.63259: L2-Pf-HR :0.80021: L2-HR :0.72449: (Sim:16h33m27s) 
CPU  2 inst: 1047000004 cyc: 1666322400 now IPC :0.04851: AVG IPC :0.62750: L2-Pf-HR :0.87767: L2-HR :0.76674: (Sim:16h37m6s) 
CPU  3 inst: 1049000002 cyc: 1666891895 now IPC :0.04867: AVG IPC :0.62848: L2-Pf-HR :0.80684: L2-HR :0.72710: (Sim:16h37m18s) 
CPU  1 inst: 1049000005 cyc: 1676478991 now IPC :0.04879: AVG IPC :0.62489: L2-Pf-HR :0.81837: L2-HR :0.73332: (Sim:16h40m25s) 
CPU  0 inst: 1050000001 cyc: 1676639910 now IPC :0.04864: AVG IPC :0.62542: L2-Pf-HR :0.79703: L2-HR :0.72288: (Sim:16h40m30s) 
CPU  2 inst: 1048000000 cyc: 1687013170 now IPC :0.04833: AVG IPC :0.62039: L2-Pf-HR :0.87506: L2-HR :0.76498: (Sim:16h43m39s) 
CPU  3 inst: 1050000001 cyc: 1687451748 now IPC :0.04864: AVG IPC :0.62142: L2-Pf-HR :0.80367: L2-HR :0.72547: (Sim:16h43m46s) 
CPU  0 inst: 1051000000 cyc: 1697108716 now IPC :0.04885: AVG IPC :0.61847: L2-Pf-HR :0.79389: L2-HR :0.72130: (Sim:16h47m6s) 
CPU  1 inst: 1050000004 cyc: 1697183067 now IPC :0.04830: AVG IPC :0.61785: L2-Pf-HR :0.81534: L2-HR :0.73168: (Sim:16h47m7s) 
CPU  2 inst: 1049000002 cyc: 1707578715 now IPC :0.04863: AVG IPC :0.61350: L2-Pf-HR :0.87246: L2-HR :0.76326: (Sim:16h50m28s) 
CPU  3 inst: 1051000003 cyc: 1708118769 now IPC :0.04839: AVG IPC :0.61448: L2-Pf-HR :0.80053: L2-HR :0.72387: (Sim:16h50m44s) 
CPU  0 inst: 1052000003 cyc: 1717683850 now IPC :0.04860: AVG IPC :0.61164: L2-Pf-HR :0.79080: L2-HR :0.71974: (Sim:16h53m14s) 
CPU  1 inst: 1051000003 cyc: 1717736952 now IPC :0.04865: AVG IPC :0.61104: L2-Pf-HR :0.81235: L2-HR :0.73007: (Sim:16h53m15s) 
CPU  2 inst: 1050000001 cyc: 1728099070 now IPC :0.04873: AVG IPC :0.60679: L2-Pf-HR :0.86990: L2-HR :0.76156: (Sim:16h58m3s) 
CPU  3 inst: 1052000003 cyc: 1728663655 now IPC :0.04867: AVG IPC :0.60775: L2-Pf-HR :0.79743: L2-HR :0.72230: (Sim:16h58m20s) 
Caught signal: 2
     > Finished combination: TraceType=770-tot Sim:2634000000 Prefetcher=L2bingo_dpc3_PHT1k L1=bingo_dpc3_PHT1k
