TRACE: [1979000000]_FE_[GPT-Neo-125M]_[h12]_[s2048]_[d64] Warmup: 2000000 NumTraces: 1979000000
L1:berti:L2:berti
*************************************************
   ChampSim Multicore Out-of-Order Simulator
   Last compiled: Oct 30 2024 03:50:01
*************************************************

trace_0 770-tot_memTraces_v4_2048/memTraces[1979000000]_FE_[GPT-Neo-125M]_[h12]_[s2048]_[d64].champsim.9.xz
trace_1 770-tot_memTraces_v4_2048/memTraces[1979000000]_FE_[GPT-Neo-125M]_[h12]_[s2048]_[d64].champsim.9.xz
trace_2 770-tot_memTraces_v4_2048/memTraces[1979000000]_FE_[GPT-Neo-125M]_[h12]_[s2048]_[d64].champsim.9.xz
trace_3 770-tot_memTraces_v4_2048/memTraces[1979000000]_FE_[GPT-Neo-125M]_[h12]_[s2048]_[d64].champsim.9.xz
CPU 0 L1D Berti prefetcher
CPU 0 L2C Berti prefetcher
CPU 1 L1D Berti prefetcher
CPU 1 L2C Berti prefetcher
CPU 2 L1D Berti prefetcher
CPU 2 L2C Berti prefetcher
CPU 3 L1D Berti prefetcher
CPU 3 L2C Berti prefetcher
MAIN.cc ln 751 stats print skipped
CPU  0 inst:    1000003 cyc:     497490 now IPC :2.01010: AVG IPC :2.01010: L2-Pf-HR :0.67468: L2-HR :0.67845: (Sim:0h0m36s) 
CPU  1 inst:    1000003 cyc:     497647 now IPC :2.00946: AVG IPC :2.00946: L2-Pf-HR :0.59834: L2-HR :0.62183: (Sim:0h0m36s) 
CPU  2 inst:    1000003 cyc:     497686 now IPC :2.00931: AVG IPC :2.00931: L2-Pf-HR :0.60440: L2-HR :0.62567: (Sim:0h0m36s) 
CPU  3 inst:    1000003 cyc:     497719 now IPC :2.00917: AVG IPC :2.00917: L2-Pf-HR :0.62018: L2-HR :0.63801: (Sim:0h0m36s) 
CPU  0 inst:    2000000 cyc:     979706 now IPC :2.07375: AVG IPC :2.04143: L2-Pf-HR :0.75811: L2-HR :0.76575: (Sim:0h1m15s) 
CPU  1 inst:    2000000 cyc:     979820 now IPC :2.07394: AVG IPC :2.04119: L2-Pf-HR :0.70172: L2-HR :0.72357: (Sim:0h1m15s) 
CPU  3 inst:    2000000 cyc:     979936 now IPC :2.07375: AVG IPC :2.04095: L2-Pf-HR :0.71307: L2-HR :0.73358: (Sim:0h1m15s) 
CPU  2 inst:    2000000 cyc:     979939 now IPC :2.07359: AVG IPC :2.04094: L2-Pf-HR :0.70880: L2-HR :0.72986: (Sim:0h1m15s) 

Warmup complete CPU  0 instructions:    2000412 cycles:     979940 (Simulation time: 0 hr 1 min 15 sec) 
Warmup complete CPU  1 instructions:    2000282 cycles:     979940 (Simulation time: 0 hr 1 min 15 sec) 
Warmup complete CPU  2 instructions:    2000002 cycles:     979940 (Simulation time: 0 hr 1 min 15 sec) 
Warmup complete CPU  3 instructions:    2000006 cycles:     979939 (Simulation time: 0 hr 1 min 15 sec) 

CPU  1 inst:    3000001 cyc:    1644665 now IPC :1.50411: AVG IPC :1.50396: L2-Pf-HR :0.84462: L2-HR :0.86298: (Sim:0h1m51s) 
CPU  2 inst:    3000001 cyc:    1645413 now IPC :1.50269: AVG IPC :1.50269: L2-Pf-HR :0.84441: L2-HR :0.86254: (Sim:0h1m51s) 
CPU  3 inst:    3000001 cyc:    1645985 now IPC :1.50139: AVG IPC :1.50139: L2-Pf-HR :0.83026: L2-HR :0.85192: (Sim:0h1m52s) 
CPU  0 inst:    3000001 cyc:    1689098 now IPC :1.40966: AVG IPC :1.40954: L2-Pf-HR :0.86979: L2-HR :0.88152: (Sim:0h1m54s) 
CPU  1 inst:    4000000 cyc:    2286554 now IPC :1.55790: AVG IPC :1.53046: L2-Pf-HR :0.84012: L2-HR :0.85609: (Sim:0h2m21s) 
CPU  2 inst:    4000000 cyc:    2289300 now IPC :1.55307: AVG IPC :1.52746: L2-Pf-HR :0.83140: L2-HR :0.85087: (Sim:0h2m22s) 
CPU  0 inst:    4000000 cyc:    2348947 now IPC :1.51550: AVG IPC :1.46061: L2-Pf-HR :0.86671: L2-HR :0.87770: (Sim:0h2m24s) 
DEADLOCK! CPU 3 instr_id: 3400650 translated: 2 fetched: 2 scheduled: 2 executed: 1 is_memory: 1 event: 1928420 current: 2928420

Load Queue Entry
[LQ] entry: 0 instr_id: 0 address: 0 translated: 0 fetched: 0
[LQ] entry: 1 instr_id: 0 address: 0 translated: 0 fetched: 0
[LQ] entry: 2 instr_id: 0 address: 0 translated: 0 fetched: 0
[LQ] entry: 3 instr_id: 0 address: 0 translated: 0 fetched: 0
[LQ] entry: 4 instr_id: 0 address: 0 translated: 0 fetched: 0
[LQ] entry: 5 instr_id: 0 address: 0 translated: 0 fetched: 0
[LQ] entry: 6 instr_id: 0 address: 0 translated: 0 fetched: 0
[LQ] entry: 7 instr_id: 0 address: 0 translated: 0 fetched: 0
[LQ] entry: 8 instr_id: 0 address: 0 translated: 0 fetched: 0
[LQ] entry: 9 instr_id: 0 address: 0 translated: 0 fetched: 0
[LQ] entry: 10 instr_id: 0 address: 0 translated: 0 fetched: 0
[LQ] entry: 11 instr_id: 0 address: 0 translated: 0 fetched: 0
[LQ] entry: 12 instr_id: 0 address: 0 translated: 0 fetched: 0
[LQ] entry: 13 instr_id: 0 address: 0 translated: 0 fetched: 0
[LQ] entry: 14 instr_id: 0 address: 0 translated: 0 fetched: 0
[LQ] entry: 15 instr_id: 0 address: 0 translated: 0 fetched: 0
[LQ] entry: 16 instr_id: 0 address: 0 translated: 0 fetched: 0
[LQ] entry: 17 instr_id: 0 address: 0 translated: 0 fetched: 0
[LQ] entry: 18 instr_id: 0 address: 0 translated: 0 fetched: 0
[LQ] entry: 19 instr_id: 0 address: 0 translated: 0 fetched: 0
[LQ] entry: 20 instr_id: 0 address: 0 translated: 0 fetched: 0
[LQ] entry: 21 instr_id: 0 address: 0 translated: 0 fetched: 0
[LQ] entry: 22 instr_id: 0 address: 0 translated: 0 fetched: 0
[LQ] entry: 23 instr_id: 0 address: 0 translated: 0 fetched: 0
[LQ] entry: 24 instr_id: 0 address: 0 translated: 0 fetched: 0
[LQ] entry: 25 instr_id: 0 address: 0 translated: 0 fetched: 0
[LQ] entry: 26 instr_id: 0 address: 0 translated: 0 fetched: 0
[LQ] entry: 27 instr_id: 0 address: 0 translated: 0 fetched: 0
[LQ] entry: 28 instr_id: 0 address: 0 translated: 0 fetched: 0
[LQ] entry: 29 instr_id: 0 address: 0 translated: 0 fetched: 0
[LQ] entry: 30 instr_id: 0 address: 0 translated: 0 fetched: 0
[LQ] entry: 31 instr_id: 0 address: 0 translated: 0 fetched: 0
[LQ] entry: 32 instr_id: 0 address: 0 translated: 0 fetched: 0
[LQ] entry: 33 instr_id: 0 address: 0 translated: 0 fetched: 0
[LQ] entry: 34 instr_id: 0 address: 0 translated: 0 fetched: 0
[LQ] entry: 35 instr_id: 0 address: 0 translated: 0 fetched: 0
[LQ] entry: 36 instr_id: 0 address: 0 translated: 0 fetched: 0
[LQ] entry: 37 instr_id: 0 address: 0 translated: 0 fetched: 0
[LQ] entry: 38 instr_id: 0 address: 0 translated: 0 fetched: 0
[LQ] entry: 39 instr_id: 0 address: 0 translated: 0 fetched: 0
[LQ] entry: 40 instr_id: 0 address: 0 translated: 0 fetched: 0
[LQ] entry: 41 instr_id: 0 address: 0 translated: 0 fetched: 0
[LQ] entry: 42 instr_id: 0 address: 0 translated: 0 fetched: 0
[LQ] entry: 43 instr_id: 0 address: 0 translated: 0 fetched: 0
[LQ] entry: 44 instr_id: 0 address: 0 translated: 0 fetched: 0
[LQ] entry: 45 instr_id: 0 address: 0 translated: 0 fetched: 0
[LQ] entry: 46 instr_id: 0 address: 0 translated: 0 fetched: 0
[LQ] entry: 47 instr_id: 0 address: 0 translated: 0 fetched: 0
[LQ] entry: 48 instr_id: 0 address: 0 translated: 0 fetched: 0
[LQ] entry: 49 instr_id: 0 address: 0 translated: 0 fetched: 0
[LQ] entry: 50 instr_id: 0 address: 0 translated: 0 fetched: 0
[LQ] entry: 51 instr_id: 0 address: 0 translated: 0 fetched: 0
[LQ] entry: 52 instr_id: 0 address: 0 translated: 0 fetched: 0
[LQ] entry: 53 instr_id: 0 address: 0 translated: 0 fetched: 0
[LQ] entry: 54 instr_id: 0 address: 0 translated: 0 fetched: 0
[LQ] entry: 55 instr_id: 0 address: 0 translated: 0 fetched: 0
[LQ] entry: 56 instr_id: 0 address: 0 translated: 0 fetched: 0
[LQ] entry: 57 instr_id: 0 address: 0 translated: 0 fetched: 0
[LQ] entry: 58 instr_id: 0 address: 0 translated: 0 fetched: 0
[LQ] entry: 59 instr_id: 0 address: 0 translated: 0 fetched: 0
[LQ] entry: 60 instr_id: 0 address: 0 translated: 0 fetched: 0
[LQ] entry: 61 instr_id: 0 address: 0 translated: 0 fetched: 0
[LQ] entry: 62 instr_id: 0 address: 0 translated: 0 fetched: 0
[LQ] entry: 63 instr_id: 0 address: 0 translated: 0 fetched: 0
[LQ] entry: 64 instr_id: 0 address: 0 translated: 0 fetched: 0
[LQ] entry: 65 instr_id: 0 address: 0 translated: 0 fetched: 0
[LQ] entry: 66 instr_id: 0 address: 0 translated: 0 fetched: 0
[LQ] entry: 67 instr_id: 0 address: 0 translated: 0 fetched: 0
[LQ] entry: 68 instr_id: 0 address: 0 translated: 0 fetched: 0
[LQ] entry: 69 instr_id: 0 address: 0 translated: 0 fetched: 0
[LQ] entry: 70 instr_id: 0 address: 0 translated: 0 fetched: 0
[LQ] entry: 71 instr_id: 0 address: 0 translated: 0 fetched: 0
[LQ] entry: 72 instr_id: 0 address: 0 translated: 0 fetched: 0
[LQ] entry: 73 instr_id: 0 address: 0 translated: 0 fetched: 0
[LQ] entry: 74 instr_id: 0 address: 0 translated: 0 fetched: 0
[LQ] entry: 75 instr_id: 0 address: 0 translated: 0 fetched: 0
[LQ] entry: 76 instr_id: 0 address: 0 translated: 0 fetched: 0
[LQ] entry: 77 instr_id: 0 address: 0 translated: 0 fetched: 0
[LQ] entry: 78 instr_id: 0 address: 0 translated: 0 fetched: 0
[LQ] entry: 79 instr_id: 0 address: 0 translated: 0 fetched: 0
[LQ] entry: 80 instr_id: 0 address: 0 translated: 0 fetched: 0
[LQ] entry: 81 instr_id: 0 address: 0 translated: 0 fetched: 0
[LQ] entry: 82 instr_id: 0 address: 0 translated: 0 fetched: 0
[LQ] entry: 83 instr_id: 0 address: 0 translated: 0 fetched: 0
[LQ] entry: 84 instr_id: 0 address: 0 translated: 0 fetched: 0
[LQ] entry: 85 instr_id: 0 address: 0 translated: 0 fetched: 0
[LQ] entry: 86 instr_id: 0 address: 0 translated: 0 fetched: 0
[LQ] entry: 87 instr_id: 0 address: 0 translated: 0 fetched: 0
[LQ] entry: 88 instr_id: 0 address: 0 translated: 0 fetched: 0
[LQ] entry: 89 instr_id: 0 address: 0 translated: 0 fetched: 0
[LQ] entry: 90 instr_id: 0 address: 0 translated: 0 fetched: 0
[LQ] entry: 91 instr_id: 0 address: 0 translated: 0 fetched: 0
[LQ] entry: 92 instr_id: 0 address: 0 translated: 0 fetched: 0
[LQ] entry: 93 instr_id: 0 address: 0 translated: 0 fetched: 0
[LQ] entry: 94 instr_id: 0 address: 0 translated: 0 fetched: 0
[LQ] entry: 95 instr_id: 0 address: 0 translated: 0 fetched: 0
[LQ] entry: 96 instr_id: 0 address: 0 translated: 0 fetched: 0
[LQ] entry: 97 instr_id: 0 address: 0 translated: 0 fetched: 0
[LQ] entry: 98 instr_id: 0 address: 0 translated: 0 fetched: 0
[LQ] entry: 99 instr_id: 0 address: 0 translated: 0 fetched: 0
[LQ] entry: 100 instr_id: 0 address: 0 translated: 0 fetched: 0
[LQ] entry: 101 instr_id: 0 address: 0 translated: 0 fetched: 0
[LQ] entry: 102 instr_id: 0 address: 0 translated: 0 fetched: 0
[LQ] entry: 103 instr_id: 3400650 address: 66598a84cbc0 translated: 2 fetched: 0
[LQ] entry: 104 instr_id: 0 address: 0 translated: 0 fetched: 0
[LQ] entry: 105 instr_id: 0 address: 0 translated: 0 fetched: 0
[LQ] entry: 106 instr_id: 0 address: 0 translated: 0 fetched: 0
[LQ] entry: 107 instr_id: 0 address: 0 translated: 0 fetched: 0
[LQ] entry: 108 instr_id: 0 address: 0 translated: 0 fetched: 0
[LQ] entry: 109 instr_id: 0 address: 0 translated: 0 fetched: 0
[LQ] entry: 110 instr_id: 0 address: 0 translated: 0 fetched: 0
[LQ] entry: 111 instr_id: 0 address: 0 translated: 0 fetched: 0
[LQ] entry: 112 instr_id: 0 address: 0 translated: 0 fetched: 0
[LQ] entry: 113 instr_id: 0 address: 0 translated: 0 fetched: 0
[LQ] entry: 114 instr_id: 0 address: 0 translated: 0 fetched: 0
[LQ] entry: 115 instr_id: 0 address: 0 translated: 0 fetched: 0
[LQ] entry: 116 instr_id: 0 address: 0 translated: 0 fetched: 0
[LQ] entry: 117 instr_id: 0 address: 0 translated: 0 fetched: 0
[LQ] entry: 118 instr_id: 0 address: 0 translated: 0 fetched: 0
[LQ] entry: 119 instr_id: 0 address: 0 translated: 0 fetched: 0
[LQ] entry: 120 instr_id: 0 address: 0 translated: 0 fetched: 0
[LQ] entry: 121 instr_id: 0 address: 0 translated: 0 fetched: 0
[LQ] entry: 122 instr_id: 0 address: 0 translated: 0 fetched: 0
[LQ] entry: 123 instr_id: 0 address: 0 translated: 0 fetched: 0
[LQ] entry: 124 instr_id: 0 address: 0 translated: 0 fetched: 0
[LQ] entry: 125 instr_id: 0 address: 0 translated: 0 fetched: 0
[LQ] entry: 126 instr_id: 0 address: 0 translated: 0 fetched: 0
[LQ] entry: 127 instr_id: 0 address: 0 translated: 0 fetched: 0
[LQ] entry: 128 instr_id: 0 address: 0 translated: 0 fetched: 0
[LQ] entry: 129 instr_id: 0 address: 0 translated: 0 fetched: 0
[LQ] entry: 130 instr_id: 0 address: 0 translated: 0 fetched: 0
[LQ] entry: 131 instr_id: 0 address: 0 translated: 0 fetched: 0
[LQ] entry: 132 instr_id: 0 address: 0 translated: 0 fetched: 0
[LQ] entry: 133 instr_id: 0 address: 0 translated: 0 fetched: 0
[LQ] entry: 134 instr_id: 3400771 address: 66598a84cbd0 translated: 2 fetched: 0
[LQ] entry: 135 instr_id: 0 address: 0 translated: 0 fetched: 0
[LQ] entry: 136 instr_id: 0 address: 0 translated: 0 fetched: 0
[LQ] entry: 137 instr_id: 0 address: 0 translated: 0 fetched: 0
[LQ] entry: 138 instr_id: 0 address: 0 translated: 0 fetched: 0
[LQ] entry: 139 instr_id: 0 address: 0 translated: 0 fetched: 0
[LQ] entry: 140 instr_id: 0 address: 0 translated: 0 fetched: 0
[LQ] entry: 141 instr_id: 0 address: 0 translated: 0 fetched: 0
[LQ] entry: 142 instr_id: 0 address: 0 translated: 0 fetched: 0
[LQ] entry: 143 instr_id: 0 address: 0 translated: 0 fetched: 0
[LQ] entry: 144 instr_id: 0 address: 0 translated: 0 fetched: 0
[LQ] entry: 145 instr_id: 0 address: 0 translated: 0 fetched: 0
[LQ] entry: 146 instr_id: 0 address: 0 translated: 0 fetched: 0
[LQ] entry: 147 instr_id: 0 address: 0 translated: 0 fetched: 0

Store Queue Entry
[SQ] entry: 0 instr_id: 3400748 address: 66598a82c620 translated: 2 fetched: 2
[SQ] entry: 1 instr_id: 3400749 address: 66598a82c680 translated: 2 fetched: 2
[SQ] entry: 2 instr_id: 3400751 address: 66598a82c6e0 translated: 2 fetched: 2
[SQ] entry: 3 instr_id: 3400752 address: 66598a82c740 translated: 2 fetched: 2
[SQ] entry: 4 instr_id: 3400787 address: 66598a82c640 translated: 2 fetched: 2
[SQ] entry: 5 instr_id: 3400788 address: 66598a82c6a0 translated: 2 fetched: 2
[SQ] entry: 6 instr_id: 3400790 address: 66598a82c700 translated: 2 fetched: 2
[SQ] entry: 7 instr_id: 3400791 address: 66598a82c760 translated: 2 fetched: 2
[SQ] entry: 8 instr_id: 0 address: 0 translated: 0 fetched: 2
[SQ] entry: 9 instr_id: 0 address: 0 translated: 0 fetched: 2
[SQ] entry: 10 instr_id: 0 address: 0 translated: 0 fetched: 2
[SQ] entry: 11 instr_id: 0 address: 0 translated: 0 fetched: 2
[SQ] entry: 12 instr_id: 0 address: 0 translated: 0 fetched: 2
[SQ] entry: 13 instr_id: 0 address: 0 translated: 0 fetched: 2
[SQ] entry: 14 instr_id: 0 address: 0 translated: 0 fetched: 2
[SQ] entry: 15 instr_id: 0 address: 0 translated: 0 fetched: 2
[SQ] entry: 16 instr_id: 0 address: 0 translated: 0 fetched: 2
[SQ] entry: 17 instr_id: 0 address: 0 translated: 0 fetched: 2
[SQ] entry: 18 instr_id: 0 address: 0 translated: 0 fetched: 2
[SQ] entry: 19 instr_id: 0 address: 0 translated: 0 fetched: 2
[SQ] entry: 20 instr_id: 0 address: 0 translated: 0 fetched: 2
[SQ] entry: 21 instr_id: 0 address: 0 translated: 0 fetched: 2
[SQ] entry: 22 instr_id: 0 address: 0 translated: 0 fetched: 2
[SQ] entry: 23 instr_id: 0 address: 0 translated: 0 fetched: 2
[SQ] entry: 24 instr_id: 0 address: 0 translated: 0 fetched: 2
[SQ] entry: 25 instr_id: 0 address: 0 translated: 0 fetched: 2
[SQ] entry: 26 instr_id: 0 address: 0 translated: 0 fetched: 2
[SQ] entry: 27 instr_id: 0 address: 0 translated: 0 fetched: 2
[SQ] entry: 28 instr_id: 0 address: 0 translated: 0 fetched: 2
[SQ] entry: 29 instr_id: 0 address: 0 translated: 0 fetched: 2
[SQ] entry: 30 instr_id: 0 address: 0 translated: 0 fetched: 2
[SQ] entry: 31 instr_id: 0 address: 0 translated: 0 fetched: 2
[SQ] entry: 32 instr_id: 0 address: 0 translated: 0 fetched: 2
[SQ] entry: 33 instr_id: 0 address: 0 translated: 0 fetched: 2
[SQ] entry: 34 instr_id: 0 address: 0 translated: 0 fetched: 2
[SQ] entry: 35 instr_id: 0 address: 0 translated: 0 fetched: 2
[SQ] entry: 36 instr_id: 0 address: 0 translated: 0 fetched: 2
[SQ] entry: 37 instr_id: 0 address: 0 translated: 0 fetched: 2
[SQ] entry: 38 instr_id: 0 address: 0 translated: 0 fetched: 2
[SQ] entry: 39 instr_id: 0 address: 0 translated: 0 fetched: 2
[SQ] entry: 40 instr_id: 0 address: 0 translated: 0 fetched: 2
[SQ] entry: 41 instr_id: 0 address: 0 translated: 0 fetched: 2
[SQ] entry: 42 instr_id: 0 address: 0 translated: 0 fetched: 2
[SQ] entry: 43 instr_id: 0 address: 0 translated: 0 fetched: 2
[SQ] entry: 44 instr_id: 0 address: 0 translated: 0 fetched: 2
[SQ] entry: 45 instr_id: 0 address: 0 translated: 0 fetched: 2
[SQ] entry: 46 instr_id: 0 address: 0 translated: 0 fetched: 2
[SQ] entry: 47 instr_id: 0 address: 0 translated: 0 fetched: 2
[SQ] entry: 48 instr_id: 0 address: 0 translated: 0 fetched: 2
[SQ] entry: 49 instr_id: 0 address: 0 translated: 0 fetched: 2
[SQ] entry: 50 instr_id: 0 address: 0 translated: 0 fetched: 2
[SQ] entry: 51 instr_id: 0 address: 0 translated: 0 fetched: 2
[SQ] entry: 52 instr_id: 0 address: 0 translated: 0 fetched: 2
[SQ] entry: 53 instr_id: 0 address: 0 translated: 0 fetched: 2
[SQ] entry: 54 instr_id: 0 address: 0 translated: 0 fetched: 2
[SQ] entry: 55 instr_id: 0 address: 0 translated: 0 fetched: 2
[SQ] entry: 56 instr_id: 0 address: 0 translated: 0 fetched: 2
[SQ] entry: 57 instr_id: 0 address: 0 translated: 0 fetched: 2
[SQ] entry: 58 instr_id: 0 address: 0 translated: 0 fetched: 2
[SQ] entry: 59 instr_id: 0 address: 0 translated: 0 fetched: 2
[SQ] entry: 60 instr_id: 0 address: 0 translated: 0 fetched: 2
[SQ] entry: 61 instr_id: 0 address: 0 translated: 0 fetched: 2
[SQ] entry: 62 instr_id: 0 address: 0 translated: 0 fetched: 2
[SQ] entry: 63 instr_id: 0 address: 0 translated: 0 fetched: 2
[SQ] entry: 64 instr_id: 0 address: 0 translated: 0 fetched: 2
[SQ] entry: 65 instr_id: 0 address: 0 translated: 0 fetched: 2
[SQ] entry: 66 instr_id: 0 address: 0 translated: 0 fetched: 2
[SQ] entry: 67 instr_id: 0 address: 0 translated: 0 fetched: 2
[SQ] entry: 68 instr_id: 0 address: 0 translated: 0 fetched: 2
[SQ] entry: 69 instr_id: 0 address: 0 translated: 0 fetched: 2
[SQ] entry: 70 instr_id: 0 address: 0 translated: 0 fetched: 2
[SQ] entry: 71 instr_id: 0 address: 0 translated: 0 fetched: 2
[SQ] entry: 72 instr_id: 0 address: 0 translated: 0 fetched: 2
[SQ] entry: 73 instr_id: 0 address: 0 translated: 0 fetched: 2
[SQ] entry: 74 instr_id: 0 address: 0 translated: 0 fetched: 2
[SQ] entry: 75 instr_id: 0 address: 0 translated: 0 fetched: 2
[SQ] entry: 76 instr_id: 0 address: 0 translated: 0 fetched: 2
[SQ] entry: 77 instr_id: 0 address: 0 translated: 0 fetched: 2
[SQ] entry: 78 instr_id: 0 address: 0 translated: 0 fetched: 2
[SQ] entry: 79 instr_id: 0 address: 0 translated: 0 fetched: 2
[SQ] entry: 80 instr_id: 0 address: 0 translated: 0 fetched: 2
[SQ] entry: 81 instr_id: 0 address: 0 translated: 0 fetched: 2
[SQ] entry: 82 instr_id: 0 address: 0 translated: 0 fetched: 2
[SQ] entry: 83 instr_id: 0 address: 0 translated: 0 fetched: 2
[SQ] entry: 84 instr_id: 0 address: 0 translated: 0 fetched: 2
[SQ] entry: 85 instr_id: 0 address: 0 translated: 0 fetched: 2
[SQ] entry: 86 instr_id: 0 address: 0 translated: 0 fetched: 2
[SQ] entry: 87 instr_id: 0 address: 0 translated: 0 fetched: 2
[SQ] entry: 88 instr_id: 0 address: 0 translated: 0 fetched: 2
[SQ] entry: 89 instr_id: 0 address: 0 translated: 0 fetched: 2
[SQ] entry: 90 instr_id: 0 address: 0 translated: 0 fetched: 2
[SQ] entry: 91 instr_id: 0 address: 0 translated: 0 fetched: 2
[SQ] entry: 92 instr_id: 0 address: 0 translated: 0 fetched: 2
[SQ] entry: 93 instr_id: 0 address: 0 translated: 0 fetched: 2
[SQ] entry: 94 instr_id: 0 address: 0 translated: 0 fetched: 2
[SQ] entry: 95 instr_id: 0 address: 0 translated: 0 fetched: 2
[SQ] entry: 96 instr_id: 0 address: 0 translated: 0 fetched: 2
[SQ] entry: 97 instr_id: 0 address: 0 translated: 0 fetched: 2
[SQ] entry: 98 instr_id: 3400666 address: 66598a82c4c0 translated: 2 fetched: 2
[SQ] entry: 99 instr_id: 3400667 address: 66598a82c520 translated: 2 fetched: 2
[SQ] entry: 100 instr_id: 3400669 address: 66598a82c580 translated: 2 fetched: 2
[SQ] entry: 101 instr_id: 3400670 address: 66598a82c5e0 translated: 2 fetched: 2
[SQ] entry: 102 instr_id: 3400709 address: 66598a82c600 translated: 2 fetched: 2
[SQ] entry: 103 instr_id: 3400710 address: 66598a82c660 translated: 2 fetched: 2
[SQ] entry: 104 instr_id: 3400712 address: 66598a82c6c0 translated: 2 fetched: 2
[SQ] entry: 105 instr_id: 3400713 address: 66598a82c720 translated: 2 fetched: 2

L1D_MSHR Entry
[L1D_MSHR] entry: 0 instr_id: 0 rob_index: -1 address: 0 full_addr: 0 type: 0 fill_level: -1 lq_index: 0 sq_index: 0
[L1D_MSHR] entry: 1 instr_id: 0 rob_index: -1 address: 0 full_addr: 0 type: 0 fill_level: -1 lq_index: 0 sq_index: 0
[L1D_MSHR] entry: 2 instr_id: 0 rob_index: -1 address: 0 full_addr: 0 type: 0 fill_level: -1 lq_index: 0 sq_index: 0
[L1D_MSHR] entry: 3 instr_id: 0 rob_index: -1 address: 0 full_addr: 0 type: 0 fill_level: -1 lq_index: 0 sq_index: 0
[L1D_MSHR] entry: 4 instr_id: 0 rob_index: -1 address: 0 full_addr: 0 type: 0 fill_level: -1 lq_index: 0 sq_index: 0
[L1D_MSHR] entry: 5 instr_id: 0 rob_index: -1 address: 0 full_addr: 0 type: 0 fill_level: -1 lq_index: 0 sq_index: 0
[L1D_MSHR] entry: 6 instr_id: 3400650 rob_index: 490 address: 199662a132f full_addr: 66598a84cbc0 type: 0 fill_level: 1 lq_index: 103 sq_index: 0
[L1D_MSHR] entry: 7 instr_id: 0 rob_index: -1 address: 0 full_addr: 0 type: 0 fill_level: -1 lq_index: 0 sq_index: 0
[L1D_MSHR] entry: 8 instr_id: 0 rob_index: -1 address: 0 full_addr: 0 type: 0 fill_level: -1 lq_index: 0 sq_index: 0
[L1D_MSHR] entry: 9 instr_id: 0 rob_index: -1 address: 0 full_addr: 0 type: 0 fill_level: -1 lq_index: 0 sq_index: 0
[L1D_MSHR] entry: 10 instr_id: 0 rob_index: -1 address: 0 full_addr: 0 type: 0 fill_level: -1 lq_index: 0 sq_index: 0
[L1D_MSHR] entry: 11 instr_id: 0 rob_index: -1 address: 0 full_addr: 0 type: 0 fill_level: -1 lq_index: 0 sq_index: 0
[L1D_MSHR] entry: 12 instr_id: 0 rob_index: -1 address: 0 full_addr: 0 type: 0 fill_level: -1 lq_index: 0 sq_index: 0
[L1D_MSHR] entry: 13 instr_id: 0 rob_index: -1 address: 0 full_addr: 0 type: 0 fill_level: -1 lq_index: 0 sq_index: 0
[L1D_MSHR] entry: 14 instr_id: 0 rob_index: -1 address: 0 full_addr: 0 type: 0 fill_level: -1 lq_index: 0 sq_index: 0
[L1D_MSHR] entry: 15 instr_id: 0 rob_index: -1 address: 0 full_addr: 0 type: 0 fill_level: -1 lq_index: 0 sq_index: 0
perceptron-berti-berti-no-lru-4core: src/main.cc:284: void print_deadlock(uint32_t): Assertion `0' failed.
     > Finished combination: TraceType=770-tot Sim:1974000000 Prefetcher=L2berti L1=berti
