TRACE: [1319000000]_FE_[Pythia-70M]_[h8]_[s2048]_[d64] Warmup: 2000000 NumTraces: 1319000000
L1:bingo_dpc3_PHT1k:L2:bingo_dpc3_PHT1k
*************************************************
   ChampSim Multicore Out-of-Order Simulator
   Last compiled: Oct 30 2024 04:07:39
*************************************************

trace_0 770-tot_memTraces_v4_2048/memTraces[1319000000]_FE_[Pythia-70M]_[h8]_[s2048]_[d64].champsim.9SSize.xz
trace_1 770-tot_memTraces_v4_2048/memTraces[1319000000]_FE_[Pythia-70M]_[h8]_[s2048]_[d64].champsim.9SSize.xz
trace_2 770-tot_memTraces_v4_2048/memTraces[1319000000]_FE_[Pythia-70M]_[h8]_[s2048]_[d64].champsim.9SSize.xz
trace_3 770-tot_memTraces_v4_2048/memTraces[1319000000]_FE_[Pythia-70M]_[h8]_[s2048]_[d64].champsim.9SSize.xz
Bingo PHT WAYS: 16 and PHT_SIZE: 1024
Bingo2 PHT WAYS: 16 and PHT_SIZE: 1024
Bingo PHT WAYS: 16 and PHT_SIZE: 1024
Bingo2 PHT WAYS: 16 and PHT_SIZE: 1024
Bingo PHT WAYS: 16 and PHT_SIZE: 1024
Bingo2 PHT WAYS: 16 and PHT_SIZE: 1024
Bingo PHT WAYS: 16 and PHT_SIZE: 1024
Bingo2 PHT WAYS: 16 and PHT_SIZE: 1024
MAIN.cc ln 751 stats print skipped
CPU  2 inst:    1000002 cyc:     497743 now IPC :2.00907: AVG IPC :2.00907: L2-Pf-HR :0.68206: L2-HR :0.58882: (Sim:0h0m49s) 
CPU  3 inst:    1000002 cyc:     498100 now IPC :2.00763: AVG IPC :2.00763: L2-Pf-HR :0.67104: L2-HR :0.60339: (Sim:0h0m49s) 
CPU  1 inst:    1000002 cyc:     498244 now IPC :2.00705: AVG IPC :2.00705: L2-Pf-HR :0.68472: L2-HR :0.59657: (Sim:0h0m49s) 
CPU  0 inst:    1000002 cyc:     498289 now IPC :2.00687: AVG IPC :2.00687: L2-Pf-HR :0.67974: L2-HR :0.58798: (Sim:0h0m49s) 
CPU  2 inst:    2000005 cyc:     979805 now IPC :2.07443: AVG IPC :2.04123: L2-Pf-HR :0.69613: L2-HR :0.65826: (Sim:0h1m34s) 
CPU  3 inst:    2000005 cyc:     980110 now IPC :2.07465: AVG IPC :2.04059: L2-Pf-HR :0.73090: L2-HR :0.68465: (Sim:0h1m34s) 
CPU  0 inst:    2000005 cyc:     980316 now IPC :2.07458: AVG IPC :2.04016: L2-Pf-HR :0.68130: L2-HR :0.64567: (Sim:0h1m34s) 
CPU  1 inst:    2000005 cyc:     980345 now IPC :2.07426: AVG IPC :2.04010: L2-Pf-HR :0.73610: L2-HR :0.68365: (Sim:0h1m34s) 

Warmup complete CPU  0 instructions:    2000097 cycles:     980345 (Simulation time: 0 hr 1 min 34 sec) 
Warmup complete CPU  1 instructions:    2000005 cycles:     980345 (Simulation time: 0 hr 1 min 34 sec) 
Warmup complete CPU  2 instructions:    2001056 cycles:     980344 (Simulation time: 0 hr 1 min 34 sec) 
Warmup complete CPU  3 instructions:    2000450 cycles:     980344 (Simulation time: 0 hr 1 min 34 sec) 

CPU  2 inst:    3000001 cyc:    1825105 now IPC :1.18301: AVG IPC :1.18252: L2-Pf-HR :0.86709: L2-HR :0.75802: (Sim:0h2m23s) 
CPU  0 inst:    3000001 cyc:    1829646 now IPC :1.17739: AVG IPC :1.17733: L2-Pf-HR :0.85495: L2-HR :0.74233: (Sim:0h2m24s) 
CPU  1 inst:    3000001 cyc:    1829850 now IPC :1.17715: AVG IPC :1.17715: L2-Pf-HR :0.89946: L2-HR :0.78636: (Sim:0h2m24s) 
CPU  3 inst:    3000001 cyc:    1830054 now IPC :1.17654: AVG IPC :1.17634: L2-Pf-HR :0.88738: L2-HR :0.76435: (Sim:0h2m24s) 
CPU  2 inst:    4000004 cyc:    2661165 now IPC :1.19609: AVG IPC :1.18927: L2-Pf-HR :0.86716: L2-HR :0.75704: (Sim:0h3m13s) 
CPU  0 inst:    4000004 cyc:    2662077 now IPC :1.20130: AVG IPC :1.18919: L2-Pf-HR :0.84223: L2-HR :0.73443: (Sim:0h3m13s) 
CPU  1 inst:    4000004 cyc:    2667449 now IPC :1.19389: AVG IPC :1.18546: L2-Pf-HR :0.89236: L2-HR :0.77890: (Sim:0h3m14s) 
CPU  3 inst:    4000004 cyc:    2676165 now IPC :1.18188: AVG IPC :1.17911: L2-Pf-HR :0.88453: L2-HR :0.76262: (Sim:0h3m14s) 
CPU  2 inst:    5000002 cyc:    3478306 now IPC :1.22378: AVG IPC :1.20056: L2-Pf-HR :0.85077: L2-HR :0.76446: (Sim:0h4m2s) 
CPU  0 inst:    5000002 cyc:    3488924 now IPC :1.20941: AVG IPC :1.19586: L2-Pf-HR :0.80574: L2-HR :0.73720: (Sim:0h4m3s) 
CPU  3 inst:    5000002 cyc:    3506625 now IPC :1.20415: AVG IPC :1.18734: L2-Pf-HR :0.86346: L2-HR :0.76846: (Sim:0h4m4s) 
CPU  1 inst:    5000002 cyc:    3511503 now IPC :1.18476: AVG IPC :1.18523: L2-Pf-HR :0.86838: L2-HR :0.77599: (Sim:0h4m4s) 
CPU  2 inst:    6000002 cyc:    4274049 now IPC :1.25669: AVG IPC :1.21412: L2-Pf-HR :0.84867: L2-HR :0.76197: (Sim:0h4m50s) 
CPU  0 inst:    6000002 cyc:    4325612 now IPC :1.19519: AVG IPC :1.19569: L2-Pf-HR :0.80924: L2-HR :0.73639: (Sim:0h4m53s) 
CPU  3 inst:    6000002 cyc:    4360287 now IPC :1.17142: AVG IPC :1.18332: L2-Pf-HR :0.86961: L2-HR :0.76914: (Sim:0h4m55s) 
CPU  1 inst:    6000002 cyc:    4361664 now IPC :1.17625: AVG IPC :1.18297: L2-Pf-HR :0.86652: L2-HR :0.77136: (Sim:0h4m55s) 
CPU  2 inst:    7000002 cyc:    4987381 now IPC :1.40187: AVG IPC :1.24754: L2-Pf-HR :0.84909: L2-HR :0.76024: (Sim:0h5m35s) 
CPU  0 inst:    7000002 cyc:    5087597 now IPC :1.31236: AVG IPC :1.21734: L2-Pf-HR :0.80992: L2-HR :0.73481: (Sim:0h5m42s) 
CPU  1 inst:    7000002 cyc:    5117568 now IPC :1.32292: AVG IPC :1.20854: L2-Pf-HR :0.86343: L2-HR :0.76925: (Sim:0h5m44s) 
CPU  3 inst:    7000002 cyc:    5117882 now IPC :1.31997: AVG IPC :1.20834: L2-Pf-HR :0.86848: L2-HR :0.76812: (Sim:0h5m44s) 
CPU  2 inst:    8000003 cyc:    5647584 now IPC :1.51469: AVG IPC :1.28533: L2-Pf-HR :0.84507: L2-HR :0.75745: (Sim:0h6m20s) 
CPU  0 inst:    8000003 cyc:    5785916 now IPC :1.43201: AVG IPC :1.24853: L2-Pf-HR :0.80458: L2-HR :0.73167: (Sim:0h6m30s) 
CPU  3 inst:    8000003 cyc:    5838602 now IPC :1.38750: AVG IPC :1.23492: L2-Pf-HR :0.86532: L2-HR :0.76528: (Sim:0h6m33s) 
CPU  1 inst:    8000003 cyc:    5839666 now IPC :1.38485: AVG IPC :1.23474: L2-Pf-HR :0.85921: L2-HR :0.76554: (Sim:0h6m33s) 
CPU  2 inst:    9000003 cyc:    6296520 now IPC :1.54098: AVG IPC :1.31654: L2-Pf-HR :0.84088: L2-HR :0.75442: (Sim:0h7m4s) 
CPU  0 inst:    9000001 cyc:    6479746 now IPC :1.44127: AVG IPC :1.27285: L2-Pf-HR :0.80152: L2-HR :0.73034: (Sim:0h7m17s) 
CPU  3 inst:    9000003 cyc:    6544974 now IPC :1.41568: AVG IPC :1.25786: L2-Pf-HR :0.86599: L2-HR :0.76451: (Sim:0h7m21s) 
CPU  1 inst:    9000003 cyc:    6545428 now IPC :1.41691: AVG IPC :1.25784: L2-Pf-HR :0.85851: L2-HR :0.76345: (Sim:0h7m21s) 
CPU  2 inst:   10000002 cyc:    6955018 now IPC :1.51861: AVG IPC :1.33881: L2-Pf-HR :0.84129: L2-HR :0.75235: (Sim:0h7m50s) 
CPU  0 inst:   10000002 cyc:    7162445 now IPC :1.46478: AVG IPC :1.29404: L2-Pf-HR :0.79815: L2-HR :0.72915: (Sim:0h8m5s) 
CPU  3 inst:   10000002 cyc:    7232572 now IPC :1.45434: AVG IPC :1.27947: L2-Pf-HR :0.87121: L2-HR :0.76723: (Sim:0h8m10s) 
CPU  1 inst:   10000002 cyc:    7233165 now IPC :1.45404: AVG IPC :1.27942: L2-Pf-HR :0.85714: L2-HR :0.76124: (Sim:0h8m10s) 
CPU  2 inst:   11000004 cyc:    7609881 now IPC :1.52704: AVG IPC :1.35740: L2-Pf-HR :0.84142: L2-HR :0.75080: (Sim:0h8m36s) 
CPU  0 inst:   11000004 cyc:    7850044 now IPC :1.45434: AVG IPC :1.31009: L2-Pf-HR :0.79900: L2-HR :0.72688: (Sim:0h8m53s) 
CPU  1 inst:   11000004 cyc:    7945262 now IPC :1.40431: AVG IPC :1.29219: L2-Pf-HR :0.85849: L2-HR :0.76031: (Sim:0h9m0s) 
CPU  3 inst:   11000004 cyc:    7948000 now IPC :1.39777: AVG IPC :1.29162: L2-Pf-HR :0.87306: L2-HR :0.76676: (Sim:0h9m0s) 
CPU  2 inst:   12000004 cyc:    8254566 now IPC :1.55115: AVG IPC :1.37457: L2-Pf-HR :0.84017: L2-HR :0.75040: (Sim:0h9m22s) 
CPU  0 inst:   12000004 cyc:    8521593 now IPC :1.48909: AVG IPC :1.32603: L2-Pf-HR :0.79765: L2-HR :0.72641: (Sim:0h9m40s) 
CPU  1 inst:   12000004 cyc:    8645774 now IPC :1.42753: AVG IPC :1.30456: L2-Pf-HR :0.85616: L2-HR :0.75867: (Sim:0h9m49s) 
CPU  3 inst:   12000004 cyc:    8646083 now IPC :1.43249: AVG IPC :1.30445: L2-Pf-HR :0.87283: L2-HR :0.76612: (Sim:0h9m49s) 
CPU  2 inst:   13000005 cyc:    8961142 now IPC :1.41528: AVG IPC :1.37818: L2-Pf-HR :0.84229: L2-HR :0.74937: (Sim:0h10m9s) 
CPU  0 inst:   13000005 cyc:    9219234 now IPC :1.43340: AVG IPC :1.33512: L2-Pf-HR :0.80196: L2-HR :0.72637: (Sim:0h10m27s) 
CPU  3 inst:   13000005 cyc:    9401310 now IPC :1.32411: AVG IPC :1.30621: L2-Pf-HR :0.87268: L2-HR :0.76357: (Sim:0h10m41s) 
CPU  1 inst:   13000005 cyc:    9401614 now IPC :1.32303: AVG IPC :1.30622: L2-Pf-HR :0.85612: L2-HR :0.75596: (Sim:0h10m41s) 
CPU  2 inst:   14000003 cyc:    9622763 now IPC :1.51144: AVG IPC :1.38838: L2-Pf-HR :0.84389: L2-HR :0.75252: (Sim:0h10m52s) 
CPU  0 inst:   14000003 cyc:    9798212 now IPC :1.72718: AVG IPC :1.36086: L2-Pf-HR :0.80389: L2-HR :0.72813: (Sim:0h11m0s) 
CPU  3 inst:   14000003 cyc:   10088599 now IPC :1.45499: AVG IPC :1.31744: L2-Pf-HR :0.87531: L2-HR :0.76488: (Sim:0h11m13s) 
CPU  1 inst:   14000003 cyc:   10091006 now IPC :1.45055: AVG IPC :1.31714: L2-Pf-HR :0.86031: L2-HR :0.75847: (Sim:0h11m13s) 
CPU  2 inst:   15000001 cyc:   10314092 now IPC :1.44649: AVG IPC :1.39268: L2-Pf-HR :0.84654: L2-HR :0.75383: (Sim:0h11m23s) 
CPU  0 inst:   15000001 cyc:   10384445 now IPC :1.70580: AVG IPC :1.38237: L2-Pf-HR :0.80705: L2-HR :0.72929: (Sim:0h11m26s) 
CPU  3 inst:   15000002 cyc:   10823324 now IPC :1.36105: AVG IPC :1.32069: L2-Pf-HR :0.87815: L2-HR :0.76508: (Sim:0h11m43s) 
CPU  1 inst:   15000001 cyc:   10825013 now IPC :1.36238: AVG IPC :1.32051: L2-Pf-HR :0.86404: L2-HR :0.76069: (Sim:0h11m43s) 
CPU  2 inst:   16000000 cyc:   11066616 now IPC :1.32886: AVG IPC :1.38792: L2-Pf-HR :0.85000: L2-HR :0.75565: (Sim:0h11m53s) 
CPU  0 inst:   16000000 cyc:   11099263 now IPC :1.39896: AVG IPC :1.38354: L2-Pf-HR :0.80875: L2-HR :0.72965: (Sim:0h11m54s) 
CPU  3 inst:   16000000 cyc:   11611084 now IPC :1.26942: AVG IPC :1.31689: L2-Pf-HR :0.88133: L2-HR :0.76626: (Sim:0h12m13s) 
CPU  1 inst:   16000000 cyc:   11613215 now IPC :1.26871: AVG IPC :1.31667: L2-Pf-HR :0.86808: L2-HR :0.76234: (Sim:0h12m13s) 
CPU  2 inst:   17000003 cyc:   11852430 now IPC :1.27257: AVG IPC :1.37958: L2-Pf-HR :0.85365: L2-HR :0.75850: (Sim:0h12m22s) 
CPU  0 inst:   17000003 cyc:   11863978 now IPC :1.30768: AVG IPC :1.37821: L2-Pf-HR :0.81227: L2-HR :0.73184: (Sim:0h12m23s) 
CPU  3 inst:   17000003 cyc:   12387312 now IPC :1.28829: AVG IPC :1.31495: L2-Pf-HR :0.88414: L2-HR :0.76796: (Sim:0h12m43s) 
CPU  1 inst:   17000003 cyc:   12390856 now IPC :1.28594: AVG IPC :1.31458: L2-Pf-HR :0.86899: L2-HR :0.76386: (Sim:0h12m43s) 
CPU  2 inst:   18000003 cyc:   12632434 now IPC :1.28204: AVG IPC :1.37305: L2-Pf-HR :0.85465: L2-HR :0.75889: (Sim:0h12m52s) 
CPU  0 inst:   18000003 cyc:   12640769 now IPC :1.28735: AVG IPC :1.37215: L2-Pf-HR :0.81521: L2-HR :0.73248: (Sim:0h12m53s) 
CPU  3 inst:   18000003 cyc:   13161054 now IPC :1.29242: AVG IPC :1.31352: L2-Pf-HR :0.88605: L2-HR :0.76899: (Sim:0h13m23s) 
CPU  1 inst:   18000003 cyc:   13164107 now IPC :1.29324: AVG IPC :1.31322: L2-Pf-HR :0.87085: L2-HR :0.76403: (Sim:0h13m23s) 
CPU  2 inst:   19000003 cyc:   13418130 now IPC :1.27276: AVG IPC :1.36672: L2-Pf-HR :0.85962: L2-HR :0.76005: (Sim:0h13m39s) 
CPU  0 inst:   19000003 cyc:   13422092 now IPC :1.27988: AVG IPC :1.36636: L2-Pf-HR :0.81825: L2-HR :0.73294: (Sim:0h13m39s) 
CPU  3 inst:   19000003 cyc:   14005105 now IPC :1.18476: AVG IPC :1.30517: L2-Pf-HR :0.88904: L2-HR :0.77023: (Sim:0h14m13s) 
CPU  1 inst:   19000003 cyc:   14006424 now IPC :1.18720: AVG IPC :1.30507: L2-Pf-HR :0.87545: L2-HR :0.76519: (Sim:0h14m13s) 
CPU  2 inst:   20000004 cyc:   14234189 now IPC :1.22540: AVG IPC :1.35802: L2-Pf-HR :0.86215: L2-HR :0.75962: (Sim:0h14m27s) 
CPU  0 inst:   20000004 cyc:   14240980 now IPC :1.22117: AVG IPC :1.35739: L2-Pf-HR :0.81884: L2-HR :0.73261: (Sim:0h14m28s) 
CPU  3 inst:   20000004 cyc:   14840784 now IPC :1.19663: AVG IPC :1.29863: L2-Pf-HR :0.88994: L2-HR :0.76993: (Sim:0h15m3s) 
CPU  1 inst:   20000004 cyc:   14841088 now IPC :1.19809: AVG IPC :1.29863: L2-Pf-HR :0.87562: L2-HR :0.76407: (Sim:0h15m3s) 
CPU  2 inst:   21000002 cyc:   15053498 now IPC :1.22054: AVG IPC :1.35001: L2-Pf-HR :0.86397: L2-HR :0.76013: (Sim:0h15m16s) 
CPU  0 inst:   21000003 cyc:   15085061 now IPC :1.18472: AVG IPC :1.34706: L2-Pf-HR :0.82138: L2-HR :0.73339: (Sim:0h15m17s) 
CPU  3 inst:   21000002 cyc:   15635024 now IPC :1.25906: AVG IPC :1.29648: L2-Pf-HR :0.89173: L2-HR :0.77099: (Sim:0h15m52s) 
CPU  1 inst:   21000002 cyc:   15635277 now IPC :1.25914: AVG IPC :1.29649: L2-Pf-HR :0.87775: L2-HR :0.76474: (Sim:0h15m52s) 
CPU  2 inst:   22000001 cyc:   15784209 now IPC :1.36853: AVG IPC :1.35093: L2-Pf-HR :0.86575: L2-HR :0.76044: (Sim:0h16m2s) 
CPU  0 inst:   22000001 cyc:   15850103 now IPC :1.30712: AVG IPC :1.34501: L2-Pf-HR :0.82335: L2-HR :0.73356: (Sim:0h16m6s) 
CPU  3 inst:   22000001 cyc:   16366812 now IPC :1.36651: AVG IPC :1.29981: L2-Pf-HR :0.89544: L2-HR :0.77328: (Sim:0h16m41s) 
CPU  1 inst:   22000001 cyc:   16367547 now IPC :1.36562: AVG IPC :1.29978: L2-Pf-HR :0.87933: L2-HR :0.76463: (Sim:0h16m41s) 
CPU  2 inst:   23000001 cyc:   16469674 now IPC :1.45886: AVG IPC :1.35570: L2-Pf-HR :0.86828: L2-HR :0.76088: (Sim:0h16m48s) 
CPU  0 inst:   23000001 cyc:   16565012 now IPC :1.39878: AVG IPC :1.34747: L2-Pf-HR :0.82240: L2-HR :0.73236: (Sim:0h16m54s) 
CPU  1 inst:   23000001 cyc:   17084833 now IPC :1.39414: AVG IPC :1.30398: L2-Pf-HR :0.88050: L2-HR :0.76448: (Sim:0h17m29s) 
CPU  3 inst:   23000001 cyc:   17086626 now IPC :1.38925: AVG IPC :1.30381: L2-Pf-HR :0.89791: L2-HR :0.77419: (Sim:0h17m29s) 
CPU  2 inst:   24000001 cyc:   17128527 now IPC :1.51779: AVG IPC :1.36232: L2-Pf-HR :0.87030: L2-HR :0.76179: (Sim:0h17m32s) 
CPU  0 inst:   24000001 cyc:   17258061 now IPC :1.44290: AVG IPC :1.35154: L2-Pf-HR :0.82429: L2-HR :0.73301: (Sim:0h17m41s) 
CPU  3 inst:   24000001 cyc:   17825899 now IPC :1.35268: AVG IPC :1.30596: L2-Pf-HR :0.89801: L2-HR :0.77425: (Sim:0h18m17s) 
CPU  1 inst:   24000001 cyc:   17826207 now IPC :1.34885: AVG IPC :1.30596: L2-Pf-HR :0.88092: L2-HR :0.76449: (Sim:0h18m17s) 
CPU  2 inst:   25000000 cyc:   17883358 now IPC :1.32480: AVG IPC :1.36064: L2-Pf-HR :0.87136: L2-HR :0.76104: (Sim:0h18m21s) 
CPU  0 inst:   25000005 cyc:   18064526 now IPC :1.23998: AVG IPC :1.34627: L2-Pf-HR :0.82674: L2-HR :0.73283: (Sim:0h18m32s) 
CPU  2 inst:   26000004 cyc:   18638735 now IPC :1.32385: AVG IPC :1.35907: L2-Pf-HR :0.87412: L2-HR :0.76242: (Sim:0h19m3s) 
CPU  3 inst:   25000005 cyc:   18844499 now IPC :0.98174: AVG IPC :1.28747: L2-Pf-HR :0.89854: L2-HR :0.77336: (Sim:0h19m14s) 
CPU  1 inst:   25000005 cyc:   18846100 now IPC :0.98050: AVG IPC :1.28738: L2-Pf-HR :0.88209: L2-HR :0.76388: (Sim:0h19m14s) 
CPU  0 inst:   26000004 cyc:   19035454 now IPC :1.02994: AVG IPC :1.32926: L2-Pf-HR :0.82908: L2-HR :0.73338: (Sim:0h19m25s) 
CPU  2 inst:   27000001 cyc:   19480437 now IPC :1.18807: AVG IPC :1.35129: L2-Pf-HR :0.87587: L2-HR :0.76329: (Sim:0h19m48s) 
CPU  1 inst:   26000004 cyc:   19904810 now IPC :0.94454: AVG IPC :1.26820: L2-Pf-HR :0.88462: L2-HR :0.76489: (Sim:0h20m11s) 
CPU  0 inst:   27000001 cyc:   19912676 now IPC :1.13996: AVG IPC :1.32049: L2-Pf-HR :0.83088: L2-HR :0.73448: (Sim:0h20m12s) 
CPU  3 inst:   26000003 cyc:   19918974 now IPC :0.93069: AVG IPC :1.26723: L2-Pf-HR :0.89954: L2-HR :0.77348: (Sim:0h20m12s) 
CPU  2 inst:   28000002 cyc:   20466867 now IPC :1.01376: AVG IPC :1.33420: L2-Pf-HR :0.87711: L2-HR :0.76423: (Sim:0h20m42s) 
CPU  0 inst:   28000002 cyc:   20658215 now IPC :1.34131: AVG IPC :1.32128: L2-Pf-HR :0.83074: L2-HR :0.73450: (Sim:0h20m52s) 
CPU  1 inst:   27000001 cyc:   20925715 now IPC :0.97952: AVG IPC :1.25342: L2-Pf-HR :0.88654: L2-HR :0.76638: (Sim:0h21m7s) 
CPU  3 inst:   27000001 cyc:   20963055 now IPC :0.95778: AVG IPC :1.25106: L2-Pf-HR :0.89945: L2-HR :0.77340: (Sim:0h21m9s) 
CPU  2 inst:   29000001 cyc:   21479989 now IPC :0.98705: AVG IPC :1.31704: L2-Pf-HR :0.87917: L2-HR :0.76575: (Sim:0h21m36s) 
CPU  0 inst:   29000001 cyc:   21539291 now IPC :1.13497: AVG IPC :1.31329: L2-Pf-HR :0.83351: L2-HR :0.73573: (Sim:0h21m39s) 
CPU  1 inst:   28000002 cyc:   21940276 now IPC :0.98565: AVG IPC :1.24046: L2-Pf-HR :0.88783: L2-HR :0.76721: (Sim:0h22m0s) 
CPU  3 inst:   28000002 cyc:   22034222 now IPC :0.93356: AVG IPC :1.23491: L2-Pf-HR :0.90046: L2-HR :0.77411: (Sim:0h22m4s) 
CPU  2 inst:   30000001 cyc:   22530003 now IPC :0.95237: AVG IPC :1.29928: L2-Pf-HR :0.87907: L2-HR :0.76565: (Sim:0h22m30s) 
CPU  0 inst:   30000001 cyc:   22580931 now IPC :0.96002: AVG IPC :1.29626: L2-Pf-HR :0.83612: L2-HR :0.73625: (Sim:0h22m32s) 
CPU  1 inst:   29000001 cyc:   22878628 now IPC :1.06570: AVG IPC :1.23297: L2-Pf-HR :0.88914: L2-HR :0.76825: (Sim:0h22m47s) 
CPU  3 inst:   29000001 cyc:   23087490 now IPC :0.94943: AVG IPC :1.22130: L2-Pf-HR :0.90218: L2-HR :0.77494: (Sim:0h22m58s) 
CPU  2 inst:   31000002 cyc:   23689469 now IPC :0.86247: AVG IPC :1.27697: L2-Pf-HR :0.88040: L2-HR :0.76597: (Sim:0h23m28s) 
CPU  0 inst:   31000002 cyc:   23706098 now IPC :0.88876: AVG IPC :1.27608: L2-Pf-HR :0.83737: L2-HR :0.73649: (Sim:0h23m29s) 
CPU  1 inst:   30000001 cyc:   23743708 now IPC :1.15596: AVG IPC :1.23005: L2-Pf-HR :0.89016: L2-HR :0.76825: (Sim:0h23m31s) 
CPU  3 inst:   30000001 cyc:   24210757 now IPC :0.89026: AVG IPC :1.20530: L2-Pf-HR :0.90325: L2-HR :0.77525: (Sim:0h23m53s) 
CPU  1 inst:   31000002 cyc:   24694385 now IPC :1.05188: AVG IPC :1.22290: L2-Pf-HR :0.89153: L2-HR :0.76874: (Sim:0h24m17s) 
CPU  0 inst:   32000004 cyc:   24897746 now IPC :0.83918: AVG IPC :1.25431: L2-Pf-HR :0.83913: L2-HR :0.73638: (Sim:0h24m26s) 
CPU  2 inst:   32000005 cyc:   24937113 now IPC :0.80151: AVG IPC :1.25221: L2-Pf-HR :0.88252: L2-HR :0.76603: (Sim:0h24m29s) 
CPU  3 inst:   31000002 cyc:   25239986 now IPC :0.97160: AVG IPC :1.19538: L2-Pf-HR :0.90357: L2-HR :0.77564: (Sim:0h24m43s) 
CPU  1 inst:   32000005 cyc:   25811581 now IPC :0.89510: AVG IPC :1.20816: L2-Pf-HR :0.89261: L2-HR :0.76835: (Sim:0h25m12s) 
CPU  0 inst:   33000002 cyc:   25957566 now IPC :0.94355: AVG IPC :1.24113: L2-Pf-HR :0.84182: L2-HR :0.73722: (Sim:0h25m20s) 
CPU  2 inst:   33000002 cyc:   26073917 now IPC :0.87966: AVG IPC :1.23533: L2-Pf-HR :0.88305: L2-HR :0.76597: (Sim:0h25m26s) 
CPU  3 inst:   32000005 cyc:   26143692 now IPC :1.10656: AVG IPC :1.19219: L2-Pf-HR :0.90423: L2-HR :0.77555: (Sim:0h25m30s) 
CPU  1 inst:   33000002 cyc:   26833862 now IPC :0.97820: AVG IPC :1.19906: L2-Pf-HR :0.89342: L2-HR :0.76870: (Sim:0h26m7s) 
CPU  0 inst:   34000000 cyc:   26878358 now IPC :1.08602: AVG IPC :1.23561: L2-Pf-HR :0.84197: L2-HR :0.73739: (Sim:0h26m10s) 
CPU  3 inst:   33000002 cyc:   27044919 now IPC :1.10960: AVG IPC :1.18934: L2-Pf-HR :0.90489: L2-HR :0.77598: (Sim:0h26m19s) 
CPU  2 inst:   34000000 cyc:   27070012 now IPC :1.00392: AVG IPC :1.22650: L2-Pf-HR :0.88331: L2-HR :0.76600: (Sim:0h26m21s) 
CPU  0 inst:   35000000 cyc:   27754044 now IPC :1.14196: AVG IPC :1.23255: L2-Pf-HR :0.84172: L2-HR :0.73657: (Sim:0h26m58s) 
CPU  1 inst:   34000000 cyc:   27810234 now IPC :1.02420: AVG IPC :1.19270: L2-Pf-HR :0.89353: L2-HR :0.76861: (Sim:0h27m1s) 
CPU  3 inst:   34000000 cyc:   27936794 now IPC :1.12123: AVG IPC :1.18708: L2-Pf-HR :0.90659: L2-HR :0.77748: (Sim:0h27m8s) 
CPU  2 inst:   35000000 cyc:   28097760 now IPC :0.97300: AVG IPC :1.21689: L2-Pf-HR :0.88431: L2-HR :0.76600: (Sim:0h27m16s) 
CPU  0 inst:   36000003 cyc:   28610962 now IPC :1.16698: AVG IPC :1.23052: L2-Pf-HR :0.84309: L2-HR :0.73669: (Sim:0h27m44s) 
CPU  1 inst:   35000000 cyc:   28872990 now IPC :0.94095: AVG IPC :1.18311: L2-Pf-HR :0.89473: L2-HR :0.76886: (Sim:0h27m57s) 
CPU  3 inst:   35000000 cyc:   29005821 now IPC :0.93543: AVG IPC :1.17748: L2-Pf-HR :0.90841: L2-HR :0.77820: (Sim:0h28m2s) 
CPU  2 inst:   36000003 cyc:   29185735 now IPC :0.91914: AVG IPC :1.20541: L2-Pf-HR :0.88553: L2-HR :0.76606: (Sim:0h28m12s) 
CPU  0 inst:   37000005 cyc:   29686585 now IPC :0.92970: AVG IPC :1.21924: L2-Pf-HR :0.84456: L2-HR :0.73675: (Sim:0h28m35s) 
CPU  1 inst:   36000003 cyc:   29993501 now IPC :0.89245: AVG IPC :1.17188: L2-Pf-HR :0.89533: L2-HR :0.76866: (Sim:0h28m50s) 
CPU  3 inst:   36000003 cyc:   30257894 now IPC :0.79868: AVG IPC :1.16128: L2-Pf-HR :0.90945: L2-HR :0.77831: (Sim:0h29m2s) 
CPU  2 inst:   37000003 cyc:   30566666 now IPC :0.72415: AVG IPC :1.18294: L2-Pf-HR :0.88605: L2-HR :0.76569: (Sim:0h29m16s) 
CPU  0 inst:   38000003 cyc:   30949308 now IPC :0.79194: AVG IPC :1.20124: L2-Pf-HR :0.84465: L2-HR :0.73719: (Sim:0h29m33s) 
CPU  1 inst:   37000000 cyc:   31065120 now IPC :0.93316: AVG IPC :1.16338: L2-Pf-HR :0.89522: L2-HR :0.76790: (Sim:0h29m39s) 
CPU  3 inst:   37000003 cyc:   31581994 now IPC :0.75523: AVG IPC :1.14371: L2-Pf-HR :0.90912: L2-HR :0.77733: (Sim:0h30m4s) 
CPU  2 inst:   38000002 cyc:   31719254 now IPC :0.86761: AVG IPC :1.17112: L2-Pf-HR :0.88623: L2-HR :0.76642: (Sim:0h30m12s) 
CPU  1 inst:   38000003 cyc:   31988178 now IPC :1.08336: AVG IPC :1.16100: L2-Pf-HR :0.89563: L2-HR :0.76842: (Sim:0h30m25s) 
CPU  0 inst:   39000001 cyc:   32174245 now IPC :0.81637: AVG IPC :1.18613: L2-Pf-HR :0.84599: L2-HR :0.73768: (Sim:0h30m33s) 
CPU  2 inst:   39000001 cyc:   32709834 now IPC :1.00951: AVG IPC :1.16607: L2-Pf-HR :0.88720: L2-HR :0.76674: (Sim:0h31m0s) 
CPU  3 inst:   38000002 cyc:   32773520 now IPC :0.83926: AVG IPC :1.13230: L2-Pf-HR :0.90968: L2-HR :0.77755: (Sim:0h31m3s) 
CPU  1 inst:   39000001 cyc:   33140959 now IPC :0.86747: AVG IPC :1.15048: L2-Pf-HR :0.89671: L2-HR :0.76915: (Sim:0h31m21s) 
CPU  0 inst:   40000001 cyc:   33370217 now IPC :0.83614: AVG IPC :1.17320: L2-Pf-HR :0.84601: L2-HR :0.73751: (Sim:0h31m32s) 
CPU  2 inst:   40000001 cyc:   33609460 now IPC :1.11157: AVG IPC :1.16457: L2-Pf-HR :0.88808: L2-HR :0.76725: (Sim:0h31m44s) 
CPU  3 inst:   39000001 cyc:   34046533 now IPC :0.78554: AVG IPC :1.11895: L2-Pf-HR :0.91012: L2-HR :0.77763: (Sim:0h32m4s) 
CPU  1 inst:   40000001 cyc:   34391352 now IPC :0.79975: AVG IPC :1.13735: L2-Pf-HR :0.89727: L2-HR :0.76967: (Sim:0h32m21s) 
CPU  0 inst:   41000002 cyc:   34474103 now IPC :0.90589: AVG IPC :1.16439: L2-Pf-HR :0.84690: L2-HR :0.73840: (Sim:0h32m25s) 
CPU  2 inst:   41000002 cyc:   34699732 now IPC :0.91720: AVG IPC :1.15657: L2-Pf-HR :0.88924: L2-HR :0.76834: (Sim:0h32m35s) 
CPU  3 inst:   40000001 cyc:   35312322 now IPC :0.79002: AVG IPC :1.10683: L2-Pf-HR :0.91131: L2-HR :0.77794: (Sim:0h33m5s) 
CPU  0 inst:   42000001 cyc:   35411401 now IPC :1.06690: AVG IPC :1.16174: L2-Pf-HR :0.84817: L2-HR :0.73865: (Sim:0h33m10s) 
CPU  1 inst:   41000002 cyc:   35609634 now IPC :0.82083: AVG IPC :1.12621: L2-Pf-HR :0.89759: L2-HR :0.77038: (Sim:0h33m19s) 
CPU  2 inst:   42000001 cyc:   35979377 now IPC :0.78147: AVG IPC :1.14286: L2-Pf-HR :0.88927: L2-HR :0.76811: (Sim:0h33m36s) 
CPU  0 inst:   43000001 cyc:   36439943 now IPC :0.97225: AVG IPC :1.15624: L2-Pf-HR :0.84932: L2-HR :0.73889: (Sim:0h33m57s) 
CPU  3 inst:   41000002 cyc:   36545936 now IPC :0.81063: AVG IPC :1.09655: L2-Pf-HR :0.91178: L2-HR :0.77853: (Sim:0h34m1s) 
CPU  1 inst:   42000001 cyc:   36948341 now IPC :0.74699: AVG IPC :1.11210: L2-Pf-HR :0.89826: L2-HR :0.77045: (Sim:0h34m19s) 
CPU  2 inst:   43000005 cyc:   37374513 now IPC :0.71678: AVG IPC :1.12653: L2-Pf-HR :0.88969: L2-HR :0.76820: (Sim:0h34m38s) 
CPU  0 inst:   44000000 cyc:   37662496 now IPC :0.81796: AVG IPC :1.14497: L2-Pf-HR :0.84986: L2-HR :0.73873: (Sim:0h34m51s) 
CPU  3 inst:   42000001 cyc:   37718048 now IPC :0.85316: AVG IPC :1.08879: L2-Pf-HR :0.91282: L2-HR :0.77892: (Sim:0h34m53s) 
CPU  1 inst:   43000004 cyc:   38363551 now IPC :0.70661: AVG IPC :1.09675: L2-Pf-HR :0.89894: L2-HR :0.77074: (Sim:0h35m23s) 
CPU  2 inst:   44000000 cyc:   38686123 now IPC :0.76242: AVG IPC :1.11386: L2-Pf-HR :0.89030: L2-HR :0.76824: (Sim:0h35m37s) 
CPU  3 inst:   43000000 cyc:   38743414 now IPC :0.97526: AVG IPC :1.08570: L2-Pf-HR :0.91348: L2-HR :0.77925: (Sim:0h35m40s) 
CPU  0 inst:   45000000 cyc:   39000448 now IPC :0.74741: AVG IPC :1.13098: L2-Pf-HR :0.85112: L2-HR :0.73910: (Sim:0h35m52s) 
CPU  1 inst:   44000000 cyc:   39791968 now IPC :0.70007: AVG IPC :1.08215: L2-Pf-HR :0.89924: L2-HR :0.77043: (Sim:0h36m25s) 
CPU  3 inst:   44000000 cyc:   39899822 now IPC :0.86475: AVG IPC :1.07914: L2-Pf-HR :0.91369: L2-HR :0.77925: (Sim:0h36m30s) 
CPU  2 inst:   45000000 cyc:   40079628 now IPC :0.71761: AVG IPC :1.09974: L2-Pf-HR :0.89082: L2-HR :0.76815: (Sim:0h36m37s) 
CPU  0 inst:   46000000 cyc:   40606243 now IPC :0.62274: AVG IPC :1.11038: L2-Pf-HR :0.85185: L2-HR :0.73913: (Sim:0h36m58s) 
CPU  1 inst:   45000000 cyc:   41181518 now IPC :0.71966: AVG IPC :1.06962: L2-Pf-HR :0.90038: L2-HR :0.77083: (Sim:0h37m24s) 
CPU  3 inst:   45000000 cyc:   41296873 now IPC :0.71579: AVG IPC :1.06655: L2-Pf-HR :0.91430: L2-HR :0.77957: (Sim:0h37m29s) 
CPU  2 inst:   46000000 cyc:   41339766 now IPC :0.79356: AVG IPC :1.09018: L2-Pf-HR :0.89107: L2-HR :0.76811: (Sim:0h37m31s) 
CPU  0 inst:   47000000 cyc:   41947488 now IPC :0.74558: AVG IPC :1.09844: L2-Pf-HR :0.85081: L2-HR :0.73822: (Sim:0h38m0s) 
CPU  2 inst:   47000000 cyc:   42363007 now IPC :0.97729: AVG IPC :1.08739: L2-Pf-HR :0.89128: L2-HR :0.76798: (Sim:0h38m20s) 
CPU  1 inst:   46000000 cyc:   42398277 now IPC :0.82186: AVG IPC :1.06234: L2-Pf-HR :0.90089: L2-HR :0.77072: (Sim:0h38m21s) 
CPU  3 inst:   46000000 cyc:   42552598 now IPC :0.79635: AVG IPC :1.05839: L2-Pf-HR :0.91590: L2-HR :0.78051: (Sim:0h38m29s) 
CPU  0 inst:   48000005 cyc:   43152774 now IPC :0.82968: AVG IPC :1.09076: L2-Pf-HR :0.85119: L2-HR :0.73843: (Sim:0h38m58s) 
CPU  2 inst:   48000005 cyc:   43344503 now IPC :1.01886: AVG IPC :1.08580: L2-Pf-HR :0.89160: L2-HR :0.76822: (Sim:0h39m8s) 
CPU  1 inst:   47000000 cyc:   43457317 now IPC :0.94425: AVG IPC :1.05940: L2-Pf-HR :0.90113: L2-HR :0.77072: (Sim:0h39m13s) 
CPU  3 inst:   47000000 cyc:   43833462 now IPC :0.78072: AVG IPC :1.05009: L2-Pf-HR :0.91665: L2-HR :0.78072: (Sim:0h39m29s) 
CPU  0 inst:   49000005 cyc:   44453241 now IPC :0.76895: AVG IPC :1.08113: L2-Pf-HR :0.85234: L2-HR :0.73848: (Sim:0h40m0s) 
CPU  1 inst:   48000005 cyc:   44511089 now IPC :0.94898: AVG IPC :1.05672: L2-Pf-HR :0.90120: L2-HR :0.77071: (Sim:0h40m3s) 
CPU  2 inst:   49000003 cyc:   44572809 now IPC :0.81413: AVG IPC :1.07814: L2-Pf-HR :0.89165: L2-HR :0.76766: (Sim:0h40m6s) 
CPU  3 inst:   48000005 cyc:   45017476 now IPC :0.84459: AVG IPC :1.04456: L2-Pf-HR :0.91684: L2-HR :0.78078: (Sim:0h40m26s) 
CPU  1 inst:   49000003 cyc:   45724544 now IPC :0.82409: AVG IPC :1.05042: L2-Pf-HR :0.90125: L2-HR :0.77014: (Sim:0h40m58s) 
CPU  0 inst:   50000000 cyc:   45733886 now IPC :0.78085: AVG IPC :1.07254: L2-Pf-HR :0.85210: L2-HR :0.73860: (Sim:0h40m59s) 
CPU  2 inst:   50000001 cyc:   45833266 now IPC :0.79336: AVG IPC :1.07014: L2-Pf-HR :0.89167: L2-HR :0.76798: (Sim:0h41m3s) 
CPU  3 inst:   49000004 cyc:   46559109 now IPC :0.64866: AVG IPC :1.03117: L2-Pf-HR :0.91698: L2-HR :0.78029: (Sim:0h41m34s) 
CPU  0 inst:   51000000 cyc:   46937783 now IPC :0.83064: AVG IPC :1.06620: L2-Pf-HR :0.85212: L2-HR :0.73916: (Sim:0h41m50s) 
CPU  1 inst:   50000002 cyc:   47014255 now IPC :0.77537: AVG IPC :1.04271: L2-Pf-HR :0.90115: L2-HR :0.77032: (Sim:0h41m54s) 
CPU  2 inst:   51000000 cyc:   47251679 now IPC :0.70501: AVG IPC :1.05895: L2-Pf-HR :0.89146: L2-HR :0.76811: (Sim:0h42m5s) 
CPU  0 inst:   52000000 cyc:   47935583 now IPC :1.00220: AVG IPC :1.06484: L2-Pf-HR :0.85272: L2-HR :0.73920: (Sim:0h42m36s) 
CPU  3 inst:   50000002 cyc:   48018736 now IPC :0.68511: AVG IPC :1.02043: L2-Pf-HR :0.91679: L2-HR :0.78026: (Sim:0h42m40s) 
CPU  1 inst:   51000000 cyc:   48337751 now IPC :0.75557: AVG IPC :1.03468: L2-Pf-HR :0.90135: L2-HR :0.77099: (Sim:0h42m53s) 
CPU  2 inst:   52000000 cyc:   48721950 now IPC :0.68015: AVG IPC :1.04728: L2-Pf-HR :0.89256: L2-HR :0.76848: (Sim:0h43m9s) 
CPU  0 inst:   53000000 cyc:   49257020 now IPC :0.75675: AVG IPC :1.05641: L2-Pf-HR :0.85380: L2-HR :0.73987: (Sim:0h43m31s) 
CPU  3 inst:   51000000 cyc:   49572976 now IPC :0.64340: AVG IPC :1.00837: L2-Pf-HR :0.91654: L2-HR :0.78025: (Sim:0h43m43s) 
CPU  1 inst:   52000000 cyc:   49766915 now IPC :0.69971: AVG IPC :1.02487: L2-Pf-HR :0.90197: L2-HR :0.77144: (Sim:0h43m51s) 
CPU  2 inst:   53000000 cyc:   50318245 now IPC :0.62645: AVG IPC :1.03367: L2-Pf-HR :0.89338: L2-HR :0.76928: (Sim:0h44m14s) 
CPU  0 inst:   54000004 cyc:   50776526 now IPC :0.65811: AVG IPC :1.04425: L2-Pf-HR :0.85395: L2-HR :0.74005: (Sim:0h44m35s) 
CPU  1 inst:   53000000 cyc:   50813824 now IPC :0.95519: AVG IPC :1.02341: L2-Pf-HR :0.90239: L2-HR :0.77182: (Sim:0h44m37s) 
CPU  3 inst:   52000000 cyc:   51136137 now IPC :0.63973: AVG IPC :0.99688: L2-Pf-HR :0.91708: L2-HR :0.78034: (Sim:0h44m50s) 
CPU  2 inst:   54000004 cyc:   51733142 now IPC :0.70677: AVG IPC :1.02455: L2-Pf-HR :0.89361: L2-HR :0.76936: (Sim:0h45m15s) 
CPU  1 inst:   54000004 cyc:   52012199 now IPC :0.83447: AVG IPC :1.01897: L2-Pf-HR :0.90264: L2-HR :0.77176: (Sim:0h45m27s) 
CPU  0 inst:   55000002 cyc:   52294786 now IPC :0.65865: AVG IPC :1.03285: L2-Pf-HR :0.85517: L2-HR :0.74034: (Sim:0h45m40s) 
CPU  3 inst:   53000000 cyc:   52579769 now IPC :0.69270: AVG IPC :0.98837: L2-Pf-HR :0.91727: L2-HR :0.78053: (Sim:0h45m53s) 
CPU  2 inst:   55000002 cyc:   52771783 now IPC :0.96279: AVG IPC :1.02331: L2-Pf-HR :0.89436: L2-HR :0.76954: (Sim:0h46m1s) 
CPU  1 inst:   55000002 cyc:   53347820 now IPC :0.74871: AVG IPC :1.01208: L2-Pf-HR :0.90362: L2-HR :0.77198: (Sim:0h46m28s) 
CPU  0 inst:   56000001 cyc:   53683431 now IPC :0.72013: AVG IPC :1.02461: L2-Pf-HR :0.85544: L2-HR :0.74004: (Sim:0h46m44s) 
CPU  2 inst:   56000001 cyc:   53813820 now IPC :0.95966: AVG IPC :1.02206: L2-Pf-HR :0.89467: L2-HR :0.76939: (Sim:0h46m50s) 
CPU  3 inst:   54000004 cyc:   53845007 now IPC :0.79037: AVG IPC :0.98364: L2-Pf-HR :0.91788: L2-HR :0.78080: (Sim:0h46m51s) 
CPU  1 inst:   56000001 cyc:   54711679 now IPC :0.73321: AVG IPC :1.00500: L2-Pf-HR :0.90405: L2-HR :0.77168: (Sim:0h47m31s) 
CPU  0 inst:   57000004 cyc:   54853487 now IPC :0.85466: AVG IPC :1.02092: L2-Pf-HR :0.85574: L2-HR :0.74007: (Sim:0h47m38s) 
CPU  3 inst:   55000002 cyc:   54938982 now IPC :0.91410: AVG IPC :0.98223: L2-Pf-HR :0.91832: L2-HR :0.78105: (Sim:0h47m42s) 
CPU  2 inst:   57000004 cyc:   55010106 now IPC :0.83592: AVG IPC :1.01794: L2-Pf-HR :0.89502: L2-HR :0.76951: (Sim:0h47m46s) 
CPU  1 inst:   57000004 cyc:   55864373 now IPC :0.86754: AVG IPC :1.00211: L2-Pf-HR :0.90488: L2-HR :0.77187: (Sim:0h48m29s) 
CPU  0 inst:   58000004 cyc:   55885464 now IPC :0.96901: AVG IPC :1.01994: L2-Pf-HR :0.85570: L2-HR :0.74008: (Sim:0h48m30s) 
CPU  3 inst:   56000001 cyc:   55990546 now IPC :0.95096: AVG IPC :0.98163: L2-Pf-HR :0.91874: L2-HR :0.78096: (Sim:0h48m35s) 
CPU  2 inst:   58000004 cyc:   56129047 now IPC :0.89370: AVG IPC :1.01542: L2-Pf-HR :0.89548: L2-HR :0.76960: (Sim:0h48m42s) 
CPU  0 inst:   59000004 cyc:   56918019 now IPC :0.96847: AVG IPC :1.01899: L2-Pf-HR :0.85566: L2-HR :0.73937: (Sim:0h49m22s) 
CPU  1 inst:   58000004 cyc:   56983879 now IPC :0.89325: AVG IPC :0.99994: L2-Pf-HR :0.90502: L2-HR :0.77180: (Sim:0h49m25s) 
CPU  3 inst:   57000004 cyc:   57024422 now IPC :0.96724: AVG IPC :0.98136: L2-Pf-HR :0.91936: L2-HR :0.78112: (Sim:0h49m27s) 
CPU  2 inst:   59000004 cyc:   57253426 now IPC :0.88938: AVG IPC :1.01290: L2-Pf-HR :0.89605: L2-HR :0.76952: (Sim:0h49m38s) 
CPU  0 inst:   60000000 cyc:   57927661 now IPC :0.99045: AVG IPC :1.01848: L2-Pf-HR :0.85523: L2-HR :0.73936: (Sim:0h50m12s) 
CPU  3 inst:   58000004 cyc:   58071308 now IPC :0.95521: AVG IPC :0.98088: L2-Pf-HR :0.92027: L2-HR :0.78189: (Sim:0h50m20s) 
CPU  1 inst:   59000004 cyc:   58134964 now IPC :0.86875: AVG IPC :0.99729: L2-Pf-HR :0.90538: L2-HR :0.77164: (Sim:0h50m23s) 
CPU  2 inst:   60000004 cyc:   58361251 now IPC :0.90267: AVG IPC :1.01077: L2-Pf-HR :0.89663: L2-HR :0.76981: (Sim:0h50m33s) 
CPU  0 inst:   61000003 cyc:   59030385 now IPC :0.90685: AVG IPC :1.01636: L2-Pf-HR :0.85380: L2-HR :0.73850: (Sim:0h51m6s) 
CPU  3 inst:   59000004 cyc:   59233510 now IPC :0.86044: AVG IPC :0.97848: L2-Pf-HR :0.92081: L2-HR :0.78202: (Sim:0h51m16s) 
CPU  1 inst:   60000000 cyc:   59268473 now IPC :0.88221: AVG IPC :0.99506: L2-Pf-HR :0.90465: L2-HR :0.77146: (Sim:0h51m18s) 
CPU  2 inst:   61000001 cyc:   59512333 now IPC :0.86875: AVG IPC :1.00798: L2-Pf-HR :0.89493: L2-HR :0.76872: (Sim:0h51m30s) 
CPU  0 inst:   62000000 cyc:   60076571 now IPC :0.95585: AVG IPC :1.01529: L2-Pf-HR :0.85042: L2-HR :0.73832: (Sim:0h51m57s) 
CPU  1 inst:   61000002 cyc:   60416315 now IPC :0.87120: AVG IPC :0.99266: L2-Pf-HR :0.90352: L2-HR :0.77063: (Sim:0h52m13s) 
CPU  3 inst:   60000005 cyc:   60480222 now IPC :0.80211: AVG IPC :0.97478: L2-Pf-HR :0.92150: L2-HR :0.78229: (Sim:0h52m15s) 
CPU  2 inst:   62000004 cyc:   60645140 now IPC :0.88277: AVG IPC :1.00560: L2-Pf-HR :0.89279: L2-HR :0.76823: (Sim:0h52m23s) 
CPU  0 inst:   63000002 cyc:   60947453 now IPC :1.14826: AVG IPC :1.01722: L2-Pf-HR :0.84518: L2-HR :0.73920: (Sim:0h52m40s) 
CPU  1 inst:   62000000 cyc:   61552447 now IPC :0.88018: AVG IPC :0.99055: L2-Pf-HR :0.90091: L2-HR :0.77006: (Sim:0h53m8s) 
CPU  2 inst:   63000000 cyc:   61568572 now IPC :1.08291: AVG IPC :1.00678: L2-Pf-HR :0.88843: L2-HR :0.76806: (Sim:0h53m9s) 
CPU  3 inst:   61000004 cyc:   61856034 now IPC :0.72684: AVG IPC :0.96918: L2-Pf-HR :0.92063: L2-HR :0.78143: (Sim:0h53m17s) 
CPU  0 inst:   64000002 cyc:   61965506 now IPC :0.98227: AVG IPC :1.01664: L2-Pf-HR :0.84193: L2-HR :0.73994: (Sim:0h53m21s) 
CPU  1 inst:   63000003 cyc:   62530834 now IPC :1.02209: AVG IPC :0.99106: L2-Pf-HR :0.89667: L2-HR :0.77019: (Sim:0h53m37s) 
CPU  2 inst:   64000002 cyc:   62592741 now IPC :0.97640: AVG IPC :1.00627: L2-Pf-HR :0.88577: L2-HR :0.76815: (Sim:0h53m39s) 
CPU  3 inst:   62000000 cyc:   63132030 now IPC :0.78370: AVG IPC :0.96537: L2-Pf-HR :0.91850: L2-HR :0.78101: (Sim:0h53m59s) 
CPU  0 inst:   65000000 cyc:   63261154 now IPC :0.77181: AVG IPC :1.01155: L2-Pf-HR :0.84095: L2-HR :0.74027: (Sim:0h54m6s) 
CPU  1 inst:   64000003 cyc:   63457556 now IPC :1.07907: AVG IPC :0.99236: L2-Pf-HR :0.89352: L2-HR :0.77037: (Sim:0h54m15s) 
CPU  2 inst:   65000000 cyc:   63938399 now IPC :0.74313: AVG IPC :1.00065: L2-Pf-HR :0.88436: L2-HR :0.76793: (Sim:0h54m39s) 
CPU  3 inst:   63000005 cyc:   64109867 now IPC :1.02267: AVG IPC :0.96626: L2-Pf-HR :0.91553: L2-HR :0.78127: (Sim:0h54m47s) 
CPU  0 inst:   66000005 cyc:   64484031 now IPC :0.81775: AVG IPC :1.00781: L2-Pf-HR :0.84151: L2-HR :0.74123: (Sim:0h55m3s) 
CPU  1 inst:   65000000 cyc:   64908279 now IPC :0.68931: AVG IPC :0.98548: L2-Pf-HR :0.89149: L2-HR :0.77009: (Sim:0h55m24s) 
CPU  3 inst:   64000005 cyc:   65060286 now IPC :1.05217: AVG IPC :0.96753: L2-Pf-HR :0.91229: L2-HR :0.78142: (Sim:0h55m32s) 
CPU  2 inst:   66000005 cyc:   65195471 now IPC :0.79550: AVG IPC :0.99663: L2-Pf-HR :0.88407: L2-HR :0.76883: (Sim:0h55m39s) 
CPU  0 inst:   67000001 cyc:   65739116 now IPC :0.79676: AVG IPC :1.00372: L2-Pf-HR :0.84200: L2-HR :0.74161: (Sim:0h56m3s) 
CPU  1 inst:   66000004 cyc:   66030669 now IPC :0.89096: AVG IPC :0.98385: L2-Pf-HR :0.89178: L2-HR :0.77156: (Sim:0h56m17s) 
CPU  3 inst:   65000000 cyc:   66275985 now IPC :0.82257: AVG IPC :0.96484: L2-Pf-HR :0.91042: L2-HR :0.78123: (Sim:0h56m28s) 
CPU  2 inst:   67000001 cyc:   66629460 now IPC :0.69735: AVG IPC :0.99010: L2-Pf-HR :0.88408: L2-HR :0.76907: (Sim:0h56m45s) 
CPU  0 inst:   68000003 cyc:   67110381 now IPC :0.72926: AVG IPC :0.99803: L2-Pf-HR :0.83723: L2-HR :0.74118: (Sim:0h57m7s) 
CPU  1 inst:   67000001 cyc:   67112279 now IPC :0.92454: AVG IPC :0.98288: L2-Pf-HR :0.89112: L2-HR :0.77231: (Sim:0h57m7s) 
CPU  3 inst:   66000004 cyc:   67599709 now IPC :0.75545: AVG IPC :0.96067: L2-Pf-HR :0.90979: L2-HR :0.78187: (Sim:0h57m28s) 
CPU  2 inst:   68000004 cyc:   68030169 now IPC :0.71393: AVG IPC :0.98433: L2-Pf-HR :0.87967: L2-HR :0.76853: (Sim:0h57m47s) 
CPU  1 inst:   68000003 cyc:   68280973 now IPC :0.85566: AVG IPC :0.98067: L2-Pf-HR :0.88704: L2-HR :0.77203: (Sim:0h57m59s) 
CPU  0 inst:   69000000 cyc:   68481838 now IPC :0.72915: AVG IPC :0.99257: L2-Pf-HR :0.83821: L2-HR :0.74271: (Sim:0h58m10s) 
CPU  3 inst:   67000001 cyc:   68890425 now IPC :0.77476: AVG IPC :0.95714: L2-Pf-HR :0.90926: L2-HR :0.78199: (Sim:0h58m31s) 
CPU  2 inst:   69000000 cyc:   68947300 now IPC :1.09035: AVG IPC :0.98576: L2-Pf-HR :0.88032: L2-HR :0.77023: (Sim:0h58m34s) 
CPU  1 inst:   69000000 cyc:   69415258 now IPC :0.88161: AVG IPC :0.97903: L2-Pf-HR :0.88741: L2-HR :0.77356: (Sim:0h58m56s) 
CPU  0 inst:   70000002 cyc:   69705565 now IPC :0.81718: AVG IPC :0.98945: L2-Pf-HR :0.83908: L2-HR :0.74347: (Sim:0h59m10s) 
CPU  2 inst:   70000002 cyc:   69980003 now IPC :0.96833: AVG IPC :0.98550: L2-Pf-HR :0.88103: L2-HR :0.77106: (Sim:0h59m23s) 
CPU  3 inst:   68000002 cyc:   70114673 now IPC :0.81683: AVG IPC :0.95466: L2-Pf-HR :0.90515: L2-HR :0.78126: (Sim:0h59m29s) 
CPU  1 inst:   70000002 cyc:   70804461 now IPC :0.71984: AVG IPC :0.97388: L2-Pf-HR :0.88816: L2-HR :0.77433: (Sim:0h59m58s) 
CPU  0 inst:   71000002 cyc:   71148868 now IPC :0.69286: AVG IPC :0.98335: L2-Pf-HR :0.84012: L2-HR :0.74368: (Sim:1h0m13s) 
CPU  2 inst:   71000002 cyc:   71302816 now IPC :0.75596: AVG IPC :0.98118: L2-Pf-HR :0.88159: L2-HR :0.77116: (Sim:1h0m19s) 
CPU  3 inst:   69000000 cyc:   71438438 now IPC :0.75542: AVG IPC :0.95091: L2-Pf-HR :0.90569: L2-HR :0.78238: (Sim:1h0m25s) 
CPU  1 inst:   71000002 cyc:   72297085 now IPC :0.66996: AVG IPC :0.96751: L2-Pf-HR :0.88871: L2-HR :0.77452: (Sim:1h1m4s) 
CPU  3 inst:   70000002 cyc:   72481761 now IPC :0.95848: AVG IPC :0.95102: L2-Pf-HR :0.90630: L2-HR :0.78312: (Sim:1h1m13s) 
CPU  0 inst:   72000003 cyc:   72482761 now IPC :0.74969: AVG IPC :0.97899: L2-Pf-HR :0.84042: L2-HR :0.74366: (Sim:1h1m13s) 
CPU  2 inst:   72000003 cyc:   72685737 now IPC :0.72311: AVG IPC :0.97620: L2-Pf-HR :0.88182: L2-HR :0.77092: (Sim:1h1m23s) 
CPU  0 inst:   73000002 cyc:   73657194 now IPC :0.85147: AVG IPC :0.97693: L2-Pf-HR :0.84021: L2-HR :0.74357: (Sim:1h2m8s) 
CPU  3 inst:   71000002 cyc:   73658784 now IPC :0.84960: AVG IPC :0.94938: L2-Pf-HR :0.90672: L2-HR :0.78323: (Sim:1h2m8s) 
CPU  1 inst:   72000003 cyc:   73659291 now IPC :0.73410: AVG IPC :0.96314: L2-Pf-HR :0.88904: L2-HR :0.77439: (Sim:1h2m8s) 
CPU  2 inst:   73000002 cyc:   74039687 now IPC :0.73858: AVG IPC :0.97180: L2-Pf-HR :0.88194: L2-HR :0.77072: (Sim:1h2m23s) 
CPU  0 inst:   74000002 cyc:   74755816 now IPC :0.91023: AVG IPC :0.97593: L2-Pf-HR :0.84053: L2-HR :0.74367: (Sim:1h2m46s) 
CPU  3 inst:   72000003 cyc:   74958065 now IPC :0.76966: AVG IPC :0.94622: L2-Pf-HR :0.90697: L2-HR :0.78317: (Sim:1h2m55s) 
CPU  1 inst:   73000002 cyc:   75060931 now IPC :0.71345: AVG IPC :0.95842: L2-Pf-HR :0.88929: L2-HR :0.77444: (Sim:1h3m0s) 
CPU  2 inst:   74000002 cyc:   75570978 now IPC :0.65304: AVG IPC :0.96525: L2-Pf-HR :0.88200: L2-HR :0.77066: (Sim:1h3m22s) 
CPU  0 inst:   75000002 cyc:   76132572 now IPC :0.72635: AVG IPC :0.97136: L2-Pf-HR :0.84068: L2-HR :0.74368: (Sim:1h3m46s) 
CPU  1 inst:   74000002 cyc:   76203974 now IPC :0.87486: AVG IPC :0.95715: L2-Pf-HR :0.88959: L2-HR :0.77448: (Sim:1h3m50s) 
CPU  3 inst:   73000002 cyc:   76479003 now IPC :0.65749: AVG IPC :0.94041: L2-Pf-HR :0.90710: L2-HR :0.78309: (Sim:1h4m2s) 
CPU  2 inst:   75000005 cyc:   76908684 now IPC :0.74755: AVG IPC :0.96142: L2-Pf-HR :0.88167: L2-HR :0.77049: (Sim:1h4m21s) 
CPU  1 inst:   75000002 cyc:   77378937 now IPC :0.85109: AVG IPC :0.95551: L2-Pf-HR :0.88947: L2-HR :0.77444: (Sim:1h4m43s) 
CPU  0 inst:   76000004 cyc:   77600087 now IPC :0.68143: AVG IPC :0.96581: L2-Pf-HR :0.83969: L2-HR :0.74329: (Sim:1h4m52s) 
CPU  3 inst:   74000002 cyc:   77888162 now IPC :0.70964: AVG IPC :0.93618: L2-Pf-HR :0.90756: L2-HR :0.78338: (Sim:1h5m6s) 
CPU  2 inst:   76000004 cyc:   78050277 now IPC :0.87597: AVG IPC :0.96015: L2-Pf-HR :0.88118: L2-HR :0.77023: (Sim:1h5m12s) 
CPU  1 inst:   76000004 cyc:   78800137 now IPC :0.70363: AVG IPC :0.95091: L2-Pf-HR :0.88917: L2-HR :0.77411: (Sim:1h5m45s) 
CPU  0 inst:   77000004 cyc:   79077379 now IPC :0.67691: AVG IPC :0.96034: L2-Pf-HR :0.83974: L2-HR :0.74314: (Sim:1h5m59s) 
CPU  3 inst:   75000002 cyc:   79220401 now IPC :0.75062: AVG IPC :0.93302: L2-Pf-HR :0.90778: L2-HR :0.78350: (Sim:1h6m5s) 
CPU  2 inst:   77000001 cyc:   79278716 now IPC :0.81404: AVG IPC :0.95786: L2-Pf-HR :0.88078: L2-HR :0.76974: (Sim:1h6m9s) 
CPU  1 inst:   77000005 cyc:   80181480 now IPC :0.72393: AVG IPC :0.94696: L2-Pf-HR :0.88878: L2-HR :0.77351: (Sim:1h6m51s) 
CPU  0 inst:   78000002 cyc:   80272665 now IPC :0.83662: AVG IPC :0.95848: L2-Pf-HR :0.83960: L2-HR :0.74302: (Sim:1h6m56s) 
CPU  3 inst:   76000004 cyc:   80350834 now IPC :0.88462: AVG IPC :0.93233: L2-Pf-HR :0.90733: L2-HR :0.78314: (Sim:1h7m0s) 
CPU  2 inst:   78000002 cyc:   80466839 now IPC :0.84166: AVG IPC :0.95612: L2-Pf-HR :0.88088: L2-HR :0.76985: (Sim:1h7m5s) 
CPU  1 inst:   78000002 cyc:   81400303 now IPC :0.82046: AVG IPC :0.94504: L2-Pf-HR :0.88901: L2-HR :0.77349: (Sim:1h7m50s) 
CPU  0 inst:   79000000 cyc:   81410008 now IPC :0.87924: AVG IPC :0.95736: L2-Pf-HR :0.83992: L2-HR :0.74316: (Sim:1h7m50s) 
CPU  3 inst:   77000004 cyc:   81574958 now IPC :0.81691: AVG IPC :0.93058: L2-Pf-HR :0.90688: L2-HR :0.78267: (Sim:1h7m59s) 
CPU  2 inst:   79000000 cyc:   81643684 now IPC :0.84973: AVG IPC :0.95457: L2-Pf-HR :0.88099: L2-HR :0.76983: (Sim:1h8m2s) 
CPU  1 inst:   79000000 cyc:   82504157 now IPC :0.90592: AVG IPC :0.94451: L2-Pf-HR :0.88925: L2-HR :0.77374: (Sim:1h8m46s) 
CPU  0 inst:   80000001 cyc:   82507125 now IPC :0.91148: AVG IPC :0.95674: L2-Pf-HR :0.83970: L2-HR :0.74303: (Sim:1h8m46s) 
CPU  3 inst:   78000002 cyc:   82679563 now IPC :0.90530: AVG IPC :0.93024: L2-Pf-HR :0.90691: L2-HR :0.78243: (Sim:1h8m54s) 
CPU  2 inst:   80000001 cyc:   82749613 now IPC :0.90422: AVG IPC :0.95389: L2-Pf-HR :0.88127: L2-HR :0.76987: (Sim:1h8m58s) 
CPU  0 inst:   81000002 cyc:   83611489 now IPC :0.90550: AVG IPC :0.95605: L2-Pf-HR :0.84034: L2-HR :0.74321: (Sim:1h9m41s) 
CPU  1 inst:   80000001 cyc:   83636798 now IPC :0.88289: AVG IPC :0.94366: L2-Pf-HR :0.88962: L2-HR :0.77375: (Sim:1h9m43s) 
CPU  3 inst:   79000000 cyc:   83709318 now IPC :0.97110: AVG IPC :0.93074: L2-Pf-HR :0.90691: L2-HR :0.78235: (Sim:1h9m47s) 
CPU  2 inst:   81000002 cyc:   83863221 now IPC :0.89798: AVG IPC :0.95314: L2-Pf-HR :0.88216: L2-HR :0.77031: (Sim:1h9m54s) 
CPU  0 inst:   82000005 cyc:   84643634 now IPC :0.96886: AVG IPC :0.95621: L2-Pf-HR :0.84085: L2-HR :0.74343: (Sim:1h10m35s) 
CPU  3 inst:   80000001 cyc:   84726570 now IPC :0.98304: AVG IPC :0.93138: L2-Pf-HR :0.90695: L2-HR :0.78225: (Sim:1h10m39s) 
CPU  1 inst:   81000002 cyc:   84733642 now IPC :0.91171: AVG IPC :0.94325: L2-Pf-HR :0.88983: L2-HR :0.77389: (Sim:1h10m39s) 
CPU  2 inst:   82000000 cyc:   84931010 now IPC :0.93651: AVG IPC :0.95293: L2-Pf-HR :0.88248: L2-HR :0.77052: (Sim:1h10m50s) 
CPU  0 inst:   83000000 cyc:   85679955 now IPC :0.96495: AVG IPC :0.95632: L2-Pf-HR :0.84113: L2-HR :0.74325: (Sim:1h11m27s) 
CPU  3 inst:   81000002 cyc:   85737183 now IPC :0.98950: AVG IPC :0.93207: L2-Pf-HR :0.90718: L2-HR :0.78228: (Sim:1h11m30s) 
CPU  1 inst:   82000000 cyc:   85879137 now IPC :0.87298: AVG IPC :0.94230: L2-Pf-HR :0.89007: L2-HR :0.77392: (Sim:1h11m38s) 
CPU  2 inst:   83000000 cyc:   86095773 now IPC :0.85854: AVG IPC :0.95164: L2-Pf-HR :0.88251: L2-HR :0.77027: (Sim:1h11m48s) 
CPU  0 inst:   84000000 cyc:   86670953 now IPC :1.00908: AVG IPC :0.95693: L2-Pf-HR :0.84101: L2-HR :0.74317: (Sim:1h12m17s) 
CPU  3 inst:   82000004 cyc:   86873470 now IPC :0.88006: AVG IPC :0.93138: L2-Pf-HR :0.90747: L2-HR :0.78235: (Sim:1h12m27s) 
CPU  2 inst:   84000000 cyc:   87098512 now IPC :0.99727: AVG IPC :0.95217: L2-Pf-HR :0.88289: L2-HR :0.77040: (Sim:1h12m38s) 
CPU  1 inst:   83000000 cyc:   87148076 now IPC :0.78806: AVG IPC :0.94003: L2-Pf-HR :0.89041: L2-HR :0.77373: (Sim:1h12m40s) 
CPU  0 inst:   85000000 cyc:   87894128 now IPC :0.81754: AVG IPC :0.95497: L2-Pf-HR :0.84116: L2-HR :0.74296: (Sim:1h13m17s) 
CPU  2 inst:   85000000 cyc:   88100707 now IPC :0.99781: AVG IPC :0.95269: L2-Pf-HR :0.88323: L2-HR :0.77021: (Sim:1h13m26s) 
CPU  3 inst:   83000000 cyc:   88190602 now IPC :0.75922: AVG IPC :0.92878: L2-Pf-HR :0.90749: L2-HR :0.78218: (Sim:1h13m31s) 
CPU  1 inst:   84000000 cyc:   88254797 now IPC :0.90357: AVG IPC :0.93956: L2-Pf-HR :0.89046: L2-HR :0.77371: (Sim:1h13m34s) 
CPU  0 inst:   86000000 cyc:   89169566 now IPC :0.78404: AVG IPC :0.95250: L2-Pf-HR :0.84150: L2-HR :0.74298: (Sim:1h14m18s) 
CPU  2 inst:   86000000 cyc:   89268416 now IPC :0.85638: AVG IPC :0.95142: L2-Pf-HR :0.88372: L2-HR :0.77030: (Sim:1h14m22s) 
CPU  1 inst:   85000000 cyc:   89276075 now IPC :0.97917: AVG IPC :0.94002: L2-Pf-HR :0.89107: L2-HR :0.77375: (Sim:1h14m23s) 
CPU  3 inst:   84000000 cyc:   89450861 now IPC :0.79349: AVG IPC :0.92686: L2-Pf-HR :0.90757: L2-HR :0.78229: (Sim:1h14m31s) 
CPU  1 inst:   86000000 cyc:   90392536 now IPC :0.89569: AVG IPC :0.93947: L2-Pf-HR :0.89112: L2-HR :0.77371: (Sim:1h15m13s) 
CPU  0 inst:   87000000 cyc:   90586481 now IPC :0.70576: AVG IPC :0.94859: L2-Pf-HR :0.84171: L2-HR :0.74275: (Sim:1h15m22s) 
CPU  2 inst:   87000000 cyc:   90628339 now IPC :0.73534: AVG IPC :0.94814: L2-Pf-HR :0.88394: L2-HR :0.77026: (Sim:1h15m24s) 
CPU  3 inst:   85000000 cyc:   90745597 now IPC :0.77236: AVG IPC :0.92463: L2-Pf-HR :0.90785: L2-HR :0.78221: (Sim:1h15m29s) 
CPU  1 inst:   87000000 cyc:   91670105 now IPC :0.78274: AVG IPC :0.93726: L2-Pf-HR :0.89148: L2-HR :0.77378: (Sim:1h16m13s) 
CPU  3 inst:   86000000 cyc:   91687886 now IPC :1.06125: AVG IPC :0.92605: L2-Pf-HR :0.90850: L2-HR :0.78275: (Sim:1h16m14s) 
CPU  0 inst:   88000001 cyc:   91952062 now IPC :0.73229: AVG IPC :0.94535: L2-Pf-HR :0.84150: L2-HR :0.74234: (Sim:1h16m26s) 
CPU  2 inst:   88000004 cyc:   92025308 now IPC :0.71584: AVG IPC :0.94458: L2-Pf-HR :0.88439: L2-HR :0.77017: (Sim:1h16m29s) 
CPU  3 inst:   87000000 cyc:   92905087 now IPC :0.82156: AVG IPC :0.92466: L2-Pf-HR :0.90913: L2-HR :0.78303: (Sim:1h17m7s) 
CPU  1 inst:   88000000 cyc:   93145024 now IPC :0.67800: AVG IPC :0.93311: L2-Pf-HR :0.89179: L2-HR :0.77348: (Sim:1h17m17s) 
CPU  0 inst:   89000004 cyc:   93436801 now IPC :0.67352: AVG IPC :0.94098: L2-Pf-HR :0.84238: L2-HR :0.74249: (Sim:1h17m30s) 
CPU  2 inst:   89000004 cyc:   93526600 now IPC :0.66609: AVG IPC :0.94006: L2-Pf-HR :0.88480: L2-HR :0.77000: (Sim:1h17m33s) 
CPU  3 inst:   88000001 cyc:   94370665 now IPC :0.68233: AVG IPC :0.92086: L2-Pf-HR :0.90945: L2-HR :0.78295: (Sim:1h18m9s) 
CPU  0 inst:   90000000 cyc:   94638800 now IPC :0.83194: AVG IPC :0.93958: L2-Pf-HR :0.84248: L2-HR :0.74250: (Sim:1h18m22s) 
CPU  1 inst:   89000002 cyc:   94660896 now IPC :0.65969: AVG IPC :0.92869: L2-Pf-HR :0.89216: L2-HR :0.77335: (Sim:1h18m23s) 
CPU  2 inst:   90000000 cyc:   94880932 now IPC :0.73837: AVG IPC :0.93715: L2-Pf-HR :0.88479: L2-HR :0.77007: (Sim:1h18m34s) 
CPU  3 inst:   89000005 cyc:   95589059 now IPC :0.82076: AVG IPC :0.91957: L2-Pf-HR :0.90968: L2-HR :0.78287: (Sim:1h19m10s) 
CPU  0 inst:   91000005 cyc:   95604397 now IPC :1.03563: AVG IPC :0.94056: L2-Pf-HR :0.84315: L2-HR :0.74280: (Sim:1h19m11s) 
CPU  1 inst:   90000000 cyc:   95764805 now IPC :0.90587: AVG IPC :0.92842: L2-Pf-HR :0.89236: L2-HR :0.77344: (Sim:1h19m20s) 
CPU  2 inst:   91000005 cyc:   95923860 now IPC :0.95884: AVG IPC :0.93739: L2-Pf-HR :0.88512: L2-HR :0.77023: (Sim:1h19m28s) 
CPU  0 inst:   92000000 cyc:   96534630 now IPC :1.07499: AVG IPC :0.94187: L2-Pf-HR :0.84332: L2-HR :0.74278: (Sim:1h20m1s) 
CPU  3 inst:   90000000 cyc:   96620808 now IPC :0.96922: AVG IPC :0.92011: L2-Pf-HR :0.90971: L2-HR :0.78281: (Sim:1h20m5s) 
CPU  1 inst:   91000005 cyc:   96821912 now IPC :0.94598: AVG IPC :0.92862: L2-Pf-HR :0.89297: L2-HR :0.77382: (Sim:1h20m16s) 
CPU  2 inst:   92000000 cyc:   96937454 now IPC :0.98658: AVG IPC :0.93791: L2-Pf-HR :0.88537: L2-HR :0.77035: (Sim:1h20m21s) 
CPU  0 inst:   93000005 cyc:   97565348 now IPC :0.97020: AVG IPC :0.94217: L2-Pf-HR :0.84389: L2-HR :0.74295: (Sim:1h20m54s) 
CPU  3 inst:   91000005 cyc:   97711248 now IPC :0.91707: AVG IPC :0.92007: L2-Pf-HR :0.90981: L2-HR :0.78284: (Sim:1h21m1s) 
CPU  2 inst:   93000002 cyc:   97925116 now IPC :1.01249: AVG IPC :0.93867: L2-Pf-HR :0.88596: L2-HR :0.77072: (Sim:1h21m12s) 
CPU  1 inst:   92000000 cyc:   97962270 now IPC :0.87691: AVG IPC :0.92801: L2-Pf-HR :0.89339: L2-HR :0.77404: (Sim:1h21m14s) 
CPU  0 inst:   94000000 cyc:   98690705 now IPC :0.88860: AVG IPC :0.94156: L2-Pf-HR :0.84456: L2-HR :0.74324: (Sim:1h21m51s) 
CPU  2 inst:   94000000 cyc:   98848420 now IPC :1.08306: AVG IPC :0.94003: L2-Pf-HR :0.88632: L2-HR :0.77099: (Sim:1h21m58s) 
CPU  3 inst:   92000000 cyc:   98904798 now IPC :0.83783: AVG IPC :0.91907: L2-Pf-HR :0.90996: L2-HR :0.78290: (Sim:1h22m2s) 
CPU  1 inst:   93000001 cyc:   99100253 now IPC :0.87875: AVG IPC :0.92744: L2-Pf-HR :0.89352: L2-HR :0.77431: (Sim:1h22m11s) 
CPU  0 inst:   95000004 cyc:   99907457 now IPC :0.82186: AVG IPC :0.94009: L2-Pf-HR :0.84517: L2-HR :0.74317: (Sim:1h22m51s) 
CPU  2 inst:   95000004 cyc:   99949291 now IPC :0.90838: AVG IPC :0.93968: L2-Pf-HR :0.88677: L2-HR :0.77094: (Sim:1h22m53s) 
CPU  3 inst:   93000005 cyc:  100031038 now IPC :0.88791: AVG IPC :0.91872: L2-Pf-HR :0.91036: L2-HR :0.78294: (Sim:1h22m57s) 
CPU  1 inst:   94000000 cyc:  100165058 now IPC :0.93914: AVG IPC :0.92756: L2-Pf-HR :0.89405: L2-HR :0.77454: (Sim:1h23m4s) 
CPU  0 inst:   96000004 cyc:  101005871 now IPC :0.91040: AVG IPC :0.93976: L2-Pf-HR :0.84526: L2-HR :0.74316: (Sim:1h23m46s) 
CPU  2 inst:   96000004 cyc:  101044070 now IPC :0.91343: AVG IPC :0.93939: L2-Pf-HR :0.88694: L2-HR :0.77099: (Sim:1h23m48s) 
CPU  3 inst:   94000000 cyc:  101089765 now IPC :0.94453: AVG IPC :0.91899: L2-Pf-HR :0.91079: L2-HR :0.78318: (Sim:1h23m51s) 
CPU  1 inst:   95000004 cyc:  101263460 now IPC :0.91042: AVG IPC :0.92737: L2-Pf-HR :0.89471: L2-HR :0.77456: (Sim:1h23m59s) 
CPU  0 inst:   97000002 cyc:  102144514 now IPC :0.87824: AVG IPC :0.93907: L2-Pf-HR :0.84526: L2-HR :0.74297: (Sim:1h24m43s) 
CPU  2 inst:   97000002 cyc:  102186724 now IPC :0.87515: AVG IPC :0.93867: L2-Pf-HR :0.88694: L2-HR :0.77077: (Sim:1h24m46s) 
CPU  3 inst:   95000004 cyc:  102197939 now IPC :0.90239: AVG IPC :0.91881: L2-Pf-HR :0.91113: L2-HR :0.78321: (Sim:1h24m46s) 
CPU  1 inst:   96000004 cyc:  102288544 now IPC :0.97553: AVG IPC :0.92786: L2-Pf-HR :0.89497: L2-HR :0.77452: (Sim:1h24m52s) 
CPU  0 inst:   98000004 cyc:  103189712 now IPC :0.95676: AVG IPC :0.93925: L2-Pf-HR :0.84525: L2-HR :0.74299: (Sim:1h25m38s) 
CPU  3 inst:   96000004 cyc:  103229815 now IPC :0.96911: AVG IPC :0.91932: L2-Pf-HR :0.91142: L2-HR :0.78329: (Sim:1h25m40s) 
CPU  2 inst:   98000004 cyc:  103276967 now IPC :0.91723: AVG IPC :0.93844: L2-Pf-HR :0.88716: L2-HR :0.77086: (Sim:1h25m42s) 
CPU  1 inst:   97000002 cyc:  103318288 now IPC :0.97111: AVG IPC :0.92830: L2-Pf-HR :0.89526: L2-HR :0.77455: (Sim:1h25m44s) 
CPU  3 inst:   97000002 cyc:  104209215 now IPC :1.02103: AVG IPC :0.92028: L2-Pf-HR :0.91148: L2-HR :0.78322: (Sim:1h26m32s) 
CPU  0 inst:   99000003 cyc:  104248566 now IPC :0.94442: AVG IPC :0.93930: L2-Pf-HR :0.84537: L2-HR :0.74281: (Sim:1h26m34s) 
CPU  1 inst:   98000004 cyc:  104310367 now IPC :1.00799: AVG IPC :0.92906: L2-Pf-HR :0.89575: L2-HR :0.77455: (Sim:1h26m37s) 
CPU  2 inst:   99000001 cyc:  104313193 now IPC :0.96504: AVG IPC :0.93870: L2-Pf-HR :0.88736: L2-HR :0.77091: (Sim:1h26m37s) 
CPU  3 inst:   98000004 cyc:  105219587 now IPC :0.98974: AVG IPC :0.92095: L2-Pf-HR :0.91247: L2-HR :0.78390: (Sim:1h27m23s) 
CPU  0 inst:  100000005 cyc:  105288624 now IPC :0.96149: AVG IPC :0.93952: L2-Pf-HR :0.84514: L2-HR :0.74254: (Sim:1h27m27s) 
CPU  1 inst:   99000003 cyc:  105309483 now IPC :1.00088: AVG IPC :0.92975: L2-Pf-HR :0.89601: L2-HR :0.77468: (Sim:1h27m28s) 
CPU  2 inst:  100000000 cyc:  105393644 now IPC :0.92554: AVG IPC :0.93857: L2-Pf-HR :0.88748: L2-HR :0.77086: (Sim:1h27m33s) 
CPU  3 inst:   99000002 cyc:  106301086 now IPC :0.92464: AVG IPC :0.92099: L2-Pf-HR :0.91302: L2-HR :0.78411: (Sim:1h28m16s) 
CPU  0 inst:  101000000 cyc:  106416007 now IPC :0.88701: AVG IPC :0.93896: L2-Pf-HR :0.84557: L2-HR :0.74248: (Sim:1h28m22s) 
CPU  1 inst:  100000000 cyc:  106447178 now IPC :0.87897: AVG IPC :0.92920: L2-Pf-HR :0.89593: L2-HR :0.77442: (Sim:1h28m23s) 
CPU  2 inst:  101000000 cyc:  106572367 now IPC :0.84838: AVG IPC :0.93756: L2-Pf-HR :0.88750: L2-HR :0.77069: (Sim:1h28m30s) 
CPU  0 inst:  102000003 cyc:  107375288 now IPC :1.04245: AVG IPC :0.93989: L2-Pf-HR :0.84578: L2-HR :0.74244: (Sim:1h29m7s) 
CPU  3 inst:  100000000 cyc:  107396033 now IPC :0.91328: AVG IPC :0.92091: L2-Pf-HR :0.91317: L2-HR :0.78403: (Sim:1h29m8s) 
CPU  2 inst:  102000003 cyc:  107576098 now IPC :0.99629: AVG IPC :0.93811: L2-Pf-HR :0.88771: L2-HR :0.77076: (Sim:1h29m14s) 
CPU  1 inst:  101000000 cyc:  107628014 now IPC :0.84686: AVG IPC :0.92829: L2-Pf-HR :0.89614: L2-HR :0.77428: (Sim:1h29m15s) 
CPU  0 inst:  103000003 cyc:  108405563 now IPC :0.97061: AVG IPC :0.94019: L2-Pf-HR :0.84600: L2-HR :0.74255: (Sim:1h29m53s) 
CPU  2 inst:  103000003 cyc:  108524503 now IPC :1.05440: AVG IPC :0.93914: L2-Pf-HR :0.88796: L2-HR :0.77087: (Sim:1h29m59s) 
CPU  3 inst:  101000000 cyc:  108564166 now IPC :0.85607: AVG IPC :0.92021: L2-Pf-HR :0.91322: L2-HR :0.78390: (Sim:1h30m1s) 
CPU  1 inst:  102000003 cyc:  108705221 now IPC :0.92833: AVG IPC :0.92829: L2-Pf-HR :0.89665: L2-HR :0.77429: (Sim:1h30m8s) 
CPU  0 inst:  104000002 cyc:  109551831 now IPC :0.87240: AVG IPC :0.93947: L2-Pf-HR :0.84592: L2-HR :0.74252: (Sim:1h30m50s) 
CPU  2 inst:  104000002 cyc:  109589630 now IPC :0.93885: AVG IPC :0.93914: L2-Pf-HR :0.88806: L2-HR :0.77098: (Sim:1h30m52s) 
CPU  3 inst:  102000003 cyc:  109645308 now IPC :0.92495: AVG IPC :0.92026: L2-Pf-HR :0.91316: L2-HR :0.78380: (Sim:1h30m55s) 
CPU  1 inst:  103000003 cyc:  109695062 now IPC :1.01026: AVG IPC :0.92904: L2-Pf-HR :0.89716: L2-HR :0.77446: (Sim:1h30m58s) 
CPU  3 inst:  103000003 cyc:  110651059 now IPC :0.99428: AVG IPC :0.92093: L2-Pf-HR :0.91341: L2-HR :0.78378: (Sim:1h31m46s) 
CPU  1 inst:  104000005 cyc:  110651339 now IPC :1.04572: AVG IPC :0.93005: L2-Pf-HR :0.89736: L2-HR :0.77464: (Sim:1h31m46s) 
CPU  0 inst:  105000002 cyc:  110705790 now IPC :0.86658: AVG IPC :0.93871: L2-Pf-HR :0.84654: L2-HR :0.74272: (Sim:1h31m49s) 
CPU  2 inst:  105000002 cyc:  110748115 now IPC :0.86320: AVG IPC :0.93834: L2-Pf-HR :0.88851: L2-HR :0.77112: (Sim:1h31m50s) 
CPU  3 inst:  104000005 cyc:  111641900 now IPC :1.00925: AVG IPC :0.92173: L2-Pf-HR :0.91337: L2-HR :0.78379: (Sim:1h32m34s) 
CPU  1 inst:  105000002 cyc:  111795994 now IPC :0.87362: AVG IPC :0.92947: L2-Pf-HR :0.89765: L2-HR :0.77477: (Sim:1h32m41s) 
CPU  0 inst:  106000001 cyc:  111885168 now IPC :0.84790: AVG IPC :0.93774: L2-Pf-HR :0.84659: L2-HR :0.74288: (Sim:1h32m46s) 
CPU  2 inst:  106000001 cyc:  111911903 now IPC :0.85926: AVG IPC :0.93751: L2-Pf-HR :0.88867: L2-HR :0.77137: (Sim:1h32m48s) 
CPU  3 inst:  105000002 cyc:  112749285 now IPC :0.90303: AVG IPC :0.92154: L2-Pf-HR :0.91368: L2-HR :0.78377: (Sim:1h33m25s) 
CPU  1 inst:  106000001 cyc:  112984856 now IPC :0.84114: AVG IPC :0.92853: L2-Pf-HR :0.89796: L2-HR :0.77495: (Sim:1h33m36s) 
CPU  0 inst:  107000001 cyc:  113131470 now IPC :0.80237: AVG IPC :0.93624: L2-Pf-HR :0.84688: L2-HR :0.74285: (Sim:1h33m42s) 
CPU  2 inst:  107000001 cyc:  113253154 now IPC :0.74557: AVG IPC :0.93521: L2-Pf-HR :0.88884: L2-HR :0.77128: (Sim:1h33m48s) 
CPU  3 inst:  106000001 cyc:  113964599 now IPC :0.82283: AVG IPC :0.92048: L2-Pf-HR :0.91387: L2-HR :0.78398: (Sim:1h34m23s) 
CPU  0 inst:  108000001 cyc:  114051597 now IPC :1.08681: AVG IPC :0.93746: L2-Pf-HR :0.84677: L2-HR :0.74281: (Sim:1h34m27s) 
CPU  1 inst:  107000001 cyc:  114245119 now IPC :0.79349: AVG IPC :0.92703: L2-Pf-HR :0.89837: L2-HR :0.77490: (Sim:1h34m36s) 
CPU  2 inst:  108000001 cyc:  114371344 now IPC :0.89430: AVG IPC :0.93481: L2-Pf-HR :0.88902: L2-HR :0.77125: (Sim:1h34m43s) 
CPU  0 inst:  109000000 cyc:  115000190 now IPC :1.05419: AVG IPC :0.93843: L2-Pf-HR :0.84665: L2-HR :0.74262: (Sim:1h35m15s) 
CPU  3 inst:  107000001 cyc:  115134147 now IPC :0.85503: AVG IPC :0.91981: L2-Pf-HR :0.91411: L2-HR :0.78396: (Sim:1h35m21s) 
CPU  1 inst:  108000001 cyc:  115381735 now IPC :0.87980: AVG IPC :0.92656: L2-Pf-HR :0.89862: L2-HR :0.77484: (Sim:1h35m33s) 
CPU  2 inst:  109000000 cyc:  115394880 now IPC :0.97700: AVG IPC :0.93519: L2-Pf-HR :0.88925: L2-HR :0.77112: (Sim:1h35m34s) 
CPU  0 inst:  110000004 cyc:  116136722 now IPC :0.87987: AVG IPC :0.93785: L2-Pf-HR :0.84650: L2-HR :0.74255: (Sim:1h36m10s) 
CPU  3 inst:  108000001 cyc:  116300609 now IPC :0.85729: AVG IPC :0.91918: L2-Pf-HR :0.91423: L2-HR :0.78398: (Sim:1h36m19s) 
CPU  2 inst:  110000003 cyc:  116334220 now IPC :1.06458: AVG IPC :0.93624: L2-Pf-HR :0.88936: L2-HR :0.77110: (Sim:1h36m20s) 
CPU  1 inst:  109000000 cyc:  116593937 now IPC :0.82494: AVG IPC :0.92550: L2-Pf-HR :0.89893: L2-HR :0.77488: (Sim:1h36m32s) 
CPU  0 inst:  111000005 cyc:  117414700 now IPC :0.78249: AVG IPC :0.93615: L2-Pf-HR :0.84643: L2-HR :0.74229: (Sim:1h37m9s) 
CPU  2 inst:  111000001 cyc:  117463001 now IPC :0.88591: AVG IPC :0.93575: L2-Pf-HR :0.88946: L2-HR :0.77106: (Sim:1h37m11s) 
CPU  3 inst:  109000000 cyc:  117622489 now IPC :0.75650: AVG IPC :0.91733: L2-Pf-HR :0.91436: L2-HR :0.78388: (Sim:1h37m17s) 
CPU  1 inst:  110000005 cyc:  117928601 now IPC :0.74926: AVG IPC :0.92349: L2-Pf-HR :0.89892: L2-HR :0.77481: (Sim:1h37m31s) 
CPU  3 inst:  110000004 cyc:  118768505 now IPC :0.87259: AVG IPC :0.91690: L2-Pf-HR :0.91503: L2-HR :0.78421: (Sim:1h38m8s) 
CPU  0 inst:  112000005 cyc:  118805798 now IPC :0.71886: AVG IPC :0.93358: L2-Pf-HR :0.84643: L2-HR :0.74195: (Sim:1h38m10s) 
CPU  2 inst:  112000002 cyc:  118806577 now IPC :0.74428: AVG IPC :0.93357: L2-Pf-HR :0.88978: L2-HR :0.77095: (Sim:1h38m10s) 
CPU  1 inst:  111000002 cyc:  119208917 now IPC :0.78105: AVG IPC :0.92194: L2-Pf-HR :0.89930: L2-HR :0.77493: (Sim:1h38m29s) 
CPU  3 inst:  111000002 cyc:  119851788 now IPC :0.92312: AVG IPC :0.91695: L2-Pf-HR :0.91531: L2-HR :0.78437: (Sim:1h38m59s) 
CPU  2 inst:  113000001 cyc:  120166001 now IPC :0.73560: AVG IPC :0.93131: L2-Pf-HR :0.88986: L2-HR :0.77070: (Sim:1h39m13s) 
CPU  0 inst:  113000001 cyc:  120220415 now IPC :0.70690: AVG IPC :0.93089: L2-Pf-HR :0.84668: L2-HR :0.74194: (Sim:1h39m16s) 
CPU  1 inst:  112000005 cyc:  120310331 now IPC :0.90793: AVG IPC :0.92181: L2-Pf-HR :0.89948: L2-HR :0.77470: (Sim:1h39m19s) 
CPU  3 inst:  112000005 cyc:  121106927 now IPC :0.79673: AVG IPC :0.91570: L2-Pf-HR :0.91561: L2-HR :0.78431: (Sim:1h39m56s) 
CPU  2 inst:  114000001 cyc:  121325438 now IPC :0.86249: AVG IPC :0.93065: L2-Pf-HR :0.88951: L2-HR :0.77079: (Sim:1h40m7s) 
CPU  1 inst:  113000001 cyc:  121463880 now IPC :0.86689: AVG IPC :0.92129: L2-Pf-HR :0.89938: L2-HR :0.77449: (Sim:1h40m15s) 
CPU  0 inst:  114000001 cyc:  121480666 now IPC :0.79349: AVG IPC :0.92946: L2-Pf-HR :0.84623: L2-HR :0.74192: (Sim:1h40m15s) 
CPU  2 inst:  115000004 cyc:  122354252 now IPC :0.97200: AVG IPC :0.93100: L2-Pf-HR :0.88968: L2-HR :0.77089: (Sim:1h40m58s) 
CPU  3 inst:  113000001 cyc:  122370341 now IPC :0.79150: AVG IPC :0.91440: L2-Pf-HR :0.91570: L2-HR :0.78419: (Sim:1h40m59s) 
CPU  0 inst:  115000004 cyc:  122503666 now IPC :0.97752: AVG IPC :0.92986: L2-Pf-HR :0.84652: L2-HR :0.74209: (Sim:1h41m5s) 
CPU  1 inst:  114000001 cyc:  122635987 now IPC :0.85316: AVG IPC :0.92063: L2-Pf-HR :0.89959: L2-HR :0.77450: (Sim:1h41m12s) 
CPU  2 inst:  116000005 cyc:  123421094 now IPC :0.93735: AVG IPC :0.93105: L2-Pf-HR :0.88978: L2-HR :0.77100: (Sim:1h41m50s) 
CPU  0 inst:  116000005 cyc:  123521280 now IPC :0.98269: AVG IPC :0.93030: L2-Pf-HR :0.84639: L2-HR :0.74202: (Sim:1h41m55s) 
CPU  3 inst:  114000001 cyc:  123580694 now IPC :0.82621: AVG IPC :0.91353: L2-Pf-HR :0.91587: L2-HR :0.78414: (Sim:1h41m57s) 
CPU  1 inst:  115000004 cyc:  123789017 now IPC :0.86728: AVG IPC :0.92013: L2-Pf-HR :0.89990: L2-HR :0.77475: (Sim:1h42m7s) 
CPU  2 inst:  117000001 cyc:  124682632 now IPC :0.79268: AVG IPC :0.92964: L2-Pf-HR :0.88980: L2-HR :0.77111: (Sim:1h42m47s) 
CPU  0 inst:  117000001 cyc:  124726461 now IPC :0.82975: AVG IPC :0.92932: L2-Pf-HR :0.84677: L2-HR :0.74214: (Sim:1h42m50s) 
CPU  3 inst:  115000004 cyc:  124801136 now IPC :0.81938: AVG IPC :0.91261: L2-Pf-HR :0.91592: L2-HR :0.78415: (Sim:1h42m53s) 
CPU  1 inst:  116000005 cyc:  125110135 now IPC :0.75694: AVG IPC :0.91839: L2-Pf-HR :0.90016: L2-HR :0.77484: (Sim:1h43m7s) 
CPU  2 inst:  118000005 cyc:  125935408 now IPC :0.79823: AVG IPC :0.92833: L2-Pf-HR :0.89014: L2-HR :0.77134: (Sim:1h43m44s) 
CPU  0 inst:  118000005 cyc:  125976705 now IPC :0.79985: AVG IPC :0.92803: L2-Pf-HR :0.84694: L2-HR :0.74225: (Sim:1h43m46s) 
CPU  3 inst:  116000005 cyc:  126030748 now IPC :0.81327: AVG IPC :0.91163: L2-Pf-HR :0.91601: L2-HR :0.78416: (Sim:1h43m48s) 
CPU  1 inst:  117000001 cyc:  126458146 now IPC :0.74183: AVG IPC :0.91650: L2-Pf-HR :0.90025: L2-HR :0.77500: (Sim:1h44m7s) 
CPU  3 inst:  117000001 cyc:  127094246 now IPC :0.94029: AVG IPC :0.91187: L2-Pf-HR :0.91627: L2-HR :0.78418: (Sim:1h44m37s) 
CPU  2 inst:  119000001 cyc:  127214827 now IPC :0.78160: AVG IPC :0.92684: L2-Pf-HR :0.89045: L2-HR :0.77130: (Sim:1h44m43s) 
CPU  0 inst:  119000001 cyc:  127251627 now IPC :0.78436: AVG IPC :0.92658: L2-Pf-HR :0.84756: L2-HR :0.74229: (Sim:1h44m45s) 
CPU  1 inst:  118000005 cyc:  127554174 now IPC :0.91239: AVG IPC :0.91646: L2-Pf-HR :0.90042: L2-HR :0.77513: (Sim:1h44m59s) 
CPU  3 inst:  118000005 cyc:  128084960 now IPC :1.00938: AVG IPC :0.91263: L2-Pf-HR :0.91653: L2-HR :0.78438: (Sim:1h45m25s) 
CPU  2 inst:  120000001 cyc:  128444085 now IPC :0.81350: AVG IPC :0.92575: L2-Pf-HR :0.89056: L2-HR :0.77121: (Sim:1h45m42s) 
CPU  0 inst:  120000001 cyc:  128513681 now IPC :0.79236: AVG IPC :0.92525: L2-Pf-HR :0.84762: L2-HR :0.74216: (Sim:1h45m45s) 
CPU  1 inst:  119000000 cyc:  128628937 now IPC :0.93043: AVG IPC :0.91658: L2-Pf-HR :0.90084: L2-HR :0.77508: (Sim:1h45m50s) 
CPU  3 inst:  119000001 cyc:  129264040 now IPC :0.84812: AVG IPC :0.91204: L2-Pf-HR :0.91682: L2-HR :0.78442: (Sim:1h46m21s) 
CPU  2 inst:  121000005 cyc:  129567871 now IPC :0.88985: AVG IPC :0.92543: L2-Pf-HR :0.89071: L2-HR :0.77109: (Sim:1h46m35s) 
CPU  1 inst:  120000001 cyc:  129702943 now IPC :0.93109: AVG IPC :0.91670: L2-Pf-HR :0.90105: L2-HR :0.77501: (Sim:1h46m42s) 
CPU  0 inst:  121000000 cyc:  129719409 now IPC :0.82937: AVG IPC :0.92435: L2-Pf-HR :0.84755: L2-HR :0.74201: (Sim:1h46m43s) 
CPU  3 inst:  120000001 cyc:  130520045 now IPC :0.79618: AVG IPC :0.91091: L2-Pf-HR :0.91697: L2-HR :0.78439: (Sim:1h47m22s) 
CPU  2 inst:  122000001 cyc:  130575428 now IPC :0.99250: AVG IPC :0.92595: L2-Pf-HR :0.89085: L2-HR :0.77106: (Sim:1h47m25s) 
CPU  0 inst:  122000003 cyc:  130716351 now IPC :1.00307: AVG IPC :0.92495: L2-Pf-HR :0.84740: L2-HR :0.74192: (Sim:1h47m32s) 
CPU  1 inst:  121000000 cyc:  130909446 now IPC :0.82884: AVG IPC :0.91588: L2-Pf-HR :0.90125: L2-HR :0.77505: (Sim:1h47m41s) 
CPU  2 inst:  123000002 cyc:  131704798 now IPC :0.88545: AVG IPC :0.92560: L2-Pf-HR :0.89094: L2-HR :0.77109: (Sim:1h48m19s) 
CPU  3 inst:  121000001 cyc:  131714072 now IPC :0.83750: AVG IPC :0.91024: L2-Pf-HR :0.91699: L2-HR :0.78434: (Sim:1h48m20s) 
CPU  0 inst:  123000002 cyc:  131781213 now IPC :0.93909: AVG IPC :0.92507: L2-Pf-HR :0.84725: L2-HR :0.74173: (Sim:1h48m23s) 
CPU  1 inst:  122000002 cyc:  132150865 now IPC :0.80553: AVG IPC :0.91484: L2-Pf-HR :0.90134: L2-HR :0.77499: (Sim:1h48m40s) 
CPU  3 inst:  122000005 cyc:  132873598 now IPC :0.86242: AVG IPC :0.90982: L2-Pf-HR :0.91747: L2-HR :0.78469: (Sim:1h49m13s) 
CPU  2 inst:  124000003 cyc:  132979619 now IPC :0.78442: AVG IPC :0.92424: L2-Pf-HR :0.89097: L2-HR :0.77098: (Sim:1h49m18s) 
CPU  0 inst:  124000003 cyc:  133002366 now IPC :0.81890: AVG IPC :0.92409: L2-Pf-HR :0.84687: L2-HR :0.74146: (Sim:1h49m19s) 
CPU  1 inst:  123000002 cyc:  133381000 now IPC :0.81292: AVG IPC :0.91389: L2-Pf-HR :0.90160: L2-HR :0.77510: (Sim:1h49m38s) 
CPU  3 inst:  123000002 cyc:  133951025 now IPC :0.92813: AVG IPC :0.90997: L2-Pf-HR :0.91788: L2-HR :0.78489: (Sim:1h50m3s) 
CPU  2 inst:  125000000 cyc:  134252572 now IPC :0.78557: AVG IPC :0.92292: L2-Pf-HR :0.89034: L2-HR :0.77052: (Sim:1h50m18s) 
CPU  0 inst:  125000000 cyc:  134276910 now IPC :0.78459: AVG IPC :0.92275: L2-Pf-HR :0.84610: L2-HR :0.74107: (Sim:1h50m19s) 
CPU  1 inst:  124000003 cyc:  134564904 now IPC :0.84466: AVG IPC :0.91328: L2-Pf-HR :0.90171: L2-HR :0.77485: (Sim:1h50m33s) 
CPU  3 inst:  124000003 cyc:  135145850 now IPC :0.83694: AVG IPC :0.90932: L2-Pf-HR :0.91815: L2-HR :0.78481: (Sim:1h51m0s) 
CPU  0 inst:  126000001 cyc:  135374863 now IPC :0.91079: AVG IPC :0.92266: L2-Pf-HR :0.84430: L2-HR :0.74085: (Sim:1h51m11s) 
CPU  2 inst:  126000001 cyc:  135387388 now IPC :0.88120: AVG IPC :0.92256: L2-Pf-HR :0.88881: L2-HR :0.77006: (Sim:1h51m11s) 
CPU  1 inst:  125000000 cyc:  135742298 now IPC :0.84933: AVG IPC :0.91272: L2-Pf-HR :0.90136: L2-HR :0.77454: (Sim:1h51m29s) 
CPU  2 inst:  127000002 cyc:  136310581 now IPC :1.08320: AVG IPC :0.92366: L2-Pf-HR :0.88679: L2-HR :0.77009: (Sim:1h51m57s) 
CPU  0 inst:  127000002 cyc:  136352087 now IPC :1.02331: AVG IPC :0.92338: L2-Pf-HR :0.84195: L2-HR :0.74106: (Sim:1h51m59s) 
CPU  3 inst:  125000000 cyc:  136415848 now IPC :0.78740: AVG IPC :0.90818: L2-Pf-HR :0.91780: L2-HR :0.78449: (Sim:1h52m3s) 
CPU  1 inst:  126000001 cyc:  136907360 now IPC :0.85832: AVG IPC :0.91225: L2-Pf-HR :0.89997: L2-HR :0.77419: (Sim:1h52m27s) 
CPU  0 inst:  128000005 cyc:  137334256 now IPC :1.01816: AVG IPC :0.92407: L2-Pf-HR :0.83984: L2-HR :0.74126: (Sim:1h52m47s) 
CPU  2 inst:  128000005 cyc:  137372691 now IPC :0.94152: AVG IPC :0.92380: L2-Pf-HR :0.88526: L2-HR :0.77011: (Sim:1h52m49s) 
CPU  3 inst:  126000001 cyc:  137591089 now IPC :0.85089: AVG IPC :0.90769: L2-Pf-HR :0.91671: L2-HR :0.78423: (Sim:1h53m4s) 
CPU  1 inst:  127000002 cyc:  137770032 now IPC :1.15919: AVG IPC :0.91381: L2-Pf-HR :0.89789: L2-HR :0.77424: (Sim:1h53m11s) 
CPU  3 inst:  127000002 cyc:  138650894 now IPC :0.94357: AVG IPC :0.90796: L2-Pf-HR :0.91488: L2-HR :0.78436: (Sim:1h53m48s) 
CPU  1 inst:  128000005 cyc:  138835170 now IPC :0.93885: AVG IPC :0.91400: L2-Pf-HR :0.89591: L2-HR :0.77430: (Sim:1h53m58s) 
CPU  0 inst:  129000000 cyc:  138850489 now IPC :0.65953: AVG IPC :0.92116: L2-Pf-HR :0.83891: L2-HR :0.74134: (Sim:1h53m59s) 
CPU  2 inst:  129000000 cyc:  138947275 now IPC :0.63509: AVG IPC :0.92050: L2-Pf-HR :0.88407: L2-HR :0.76978: (Sim:1h54m3s) 
CPU  3 inst:  128000005 cyc:  139671461 now IPC :0.97985: AVG IPC :0.90849: L2-Pf-HR :0.91339: L2-HR :0.78444: (Sim:1h54m37s) 
CPU  1 inst:  129000000 cyc:  140006713 now IPC :0.85357: AVG IPC :0.91350: L2-Pf-HR :0.89498: L2-HR :0.77439: (Sim:1h54m55s) 
CPU  0 inst:  130000000 cyc:  140013344 now IPC :0.85995: AVG IPC :0.92064: L2-Pf-HR :0.83899: L2-HR :0.74188: (Sim:1h54m55s) 
CPU  2 inst:  130000002 cyc:  140179124 now IPC :0.81179: AVG IPC :0.91954: L2-Pf-HR :0.88408: L2-HR :0.77025: (Sim:1h55m2s) 
CPU  3 inst:  129000000 cyc:  140990679 now IPC :0.75802: AVG IPC :0.90707: L2-Pf-HR :0.91268: L2-HR :0.78446: (Sim:1h55m40s) 
CPU  0 inst:  131000001 cyc:  141114266 now IPC :0.90833: AVG IPC :0.92055: L2-Pf-HR :0.83889: L2-HR :0.74232: (Sim:1h55m46s) 
CPU  1 inst:  130000002 cyc:  141114528 now IPC :0.90268: AVG IPC :0.91341: L2-Pf-HR :0.89413: L2-HR :0.77481: (Sim:1h55m46s) 
CPU  2 inst:  131000001 cyc:  141468500 now IPC :0.77557: AVG IPC :0.91822: L2-Pf-HR :0.88443: L2-HR :0.77062: (Sim:1h56m2s) 
CPU  0 inst:  132000001 cyc:  142258348 now IPC :0.87406: AVG IPC :0.92017: L2-Pf-HR :0.83652: L2-HR :0.74201: (Sim:1h56m37s) 
CPU  3 inst:  130000002 cyc:  142296490 now IPC :0.76581: AVG IPC :0.90577: L2-Pf-HR :0.91229: L2-HR :0.78468: (Sim:1h56m39s) 
CPU  1 inst:  131000001 cyc:  142350748 now IPC :0.80892: AVG IPC :0.91250: L2-Pf-HR :0.89384: L2-HR :0.77553: (Sim:1h56m42s) 
CPU  2 inst:  132000001 cyc:  142948551 now IPC :0.67565: AVG IPC :0.91569: L2-Pf-HR :0.88277: L2-HR :0.77039: (Sim:1h57m10s) 
CPU  0 inst:  133000000 cyc:  143374593 now IPC :0.89586: AVG IPC :0.91998: L2-Pf-HR :0.83693: L2-HR :0.74293: (Sim:1h57m29s) 
CPU  1 inst:  132000001 cyc:  143433272 now IPC :0.92377: AVG IPC :0.91258: L2-Pf-HR :0.89226: L2-HR :0.77546: (Sim:1h57m32s) 
CPU  3 inst:  131000001 cyc:  143622080 now IPC :0.75438: AVG IPC :0.90436: L2-Pf-HR :0.91211: L2-HR :0.78472: (Sim:1h57m41s) 
CPU  2 inst:  133000000 cyc:  144305001 now IPC :0.73722: AVG IPC :0.91400: L2-Pf-HR :0.88309: L2-HR :0.77109: (Sim:1h58m13s) 
CPU  1 inst:  133000000 cyc:  144460328 now IPC :0.97366: AVG IPC :0.91302: L2-Pf-HR :0.89179: L2-HR :0.77588: (Sim:1h58m20s) 
CPU  0 inst:  134000003 cyc:  144758040 now IPC :0.72283: AVG IPC :0.91808: L2-Pf-HR :0.83750: L2-HR :0.74343: (Sim:1h58m34s) 
CPU  3 inst:  132000001 cyc:  144825629 now IPC :0.83088: AVG IPC :0.90375: L2-Pf-HR :0.91071: L2-HR :0.78434: (Sim:1h58m37s) 
CPU  2 inst:  134000003 cyc:  145457770 now IPC :0.86748: AVG IPC :0.91363: L2-Pf-HR :0.88344: L2-HR :0.77140: (Sim:1h59m8s) 
CPU  1 inst:  134000003 cyc:  145590563 now IPC :0.88477: AVG IPC :0.91280: L2-Pf-HR :0.89214: L2-HR :0.77638: (Sim:1h59m14s) 
CPU  3 inst:  133000000 cyc:  145845683 now IPC :0.98034: AVG IPC :0.90428: L2-Pf-HR :0.91067: L2-HR :0.78459: (Sim:1h59m27s) 
CPU  0 inst:  135000002 cyc:  145992770 now IPC :0.80989: AVG IPC :0.91716: L2-Pf-HR :0.83800: L2-HR :0.74359: (Sim:1h59m34s) 
CPU  2 inst:  135000002 cyc:  146624323 now IPC :0.85723: AVG IPC :0.91318: L2-Pf-HR :0.88386: L2-HR :0.77154: (Sim:2h0m4s) 
CPU  1 inst:  135000002 cyc:  146849628 now IPC :0.79424: AVG IPC :0.91178: L2-Pf-HR :0.89250: L2-HR :0.77652: (Sim:2h0m14s) 
CPU  3 inst:  134000003 cyc:  146883554 now IPC :0.96351: AVG IPC :0.90471: L2-Pf-HR :0.91094: L2-HR :0.78493: (Sim:2h0m16s) 
CPU  0 inst:  136000005 cyc:  147226597 now IPC :0.81049: AVG IPC :0.91626: L2-Pf-HR :0.83815: L2-HR :0.74370: (Sim:2h0m33s) 
CPU  2 inst:  136000004 cyc:  147718532 now IPC :0.91390: AVG IPC :0.91318: L2-Pf-HR :0.88406: L2-HR :0.77157: (Sim:2h0m54s) 
CPU  3 inst:  135000002 cyc:  148133322 now IPC :0.80015: AVG IPC :0.90382: L2-Pf-HR :0.91111: L2-HR :0.78499: (Sim:2h1m13s) 
CPU  1 inst:  136000004 cyc:  148176686 now IPC :0.75355: AVG IPC :0.91035: L2-Pf-HR :0.89266: L2-HR :0.77646: (Sim:2h1m15s) 
CPU  0 inst:  137000000 cyc:  148652690 now IPC :0.70121: AVG IPC :0.91419: L2-Pf-HR :0.83787: L2-HR :0.74346: (Sim:2h1m36s) 
CPU  2 inst:  137000000 cyc:  148892169 now IPC :0.85205: AVG IPC :0.91270: L2-Pf-HR :0.88384: L2-HR :0.77130: (Sim:2h1m46s) 
CPU  1 inst:  137000000 cyc:  149506691 now IPC :0.75187: AVG IPC :0.90893: L2-Pf-HR :0.89263: L2-HR :0.77635: (Sim:2h2m13s) 
CPU  3 inst:  136000004 cyc:  149539998 now IPC :0.71090: AVG IPC :0.90199: L2-Pf-HR :0.91120: L2-HR :0.78502: (Sim:2h2m14s) 
CPU  0 inst:  138000002 cyc:  149995394 now IPC :0.74477: AVG IPC :0.91266: L2-Pf-HR :0.83773: L2-HR :0.74360: (Sim:2h2m35s) 
CPU  2 inst:  138000002 cyc:  150201283 now IPC :0.76388: AVG IPC :0.91139: L2-Pf-HR :0.88397: L2-HR :0.77140: (Sim:2h2m44s) 
CPU  1 inst:  138000002 cyc:  150632780 now IPC :0.88803: AVG IPC :0.90877: L2-Pf-HR :0.89260: L2-HR :0.77633: (Sim:2h3m5s) 
CPU  3 inst:  137000000 cyc:  150899523 now IPC :0.73555: AVG IPC :0.90048: L2-Pf-HR :0.91111: L2-HR :0.78488: (Sim:2h3m17s) 
CPU  0 inst:  139000002 cyc:  151151586 now IPC :0.86491: AVG IPC :0.91229: L2-Pf-HR :0.83800: L2-HR :0.74355: (Sim:2h3m28s) 
CPU  2 inst:  139000002 cyc:  151522217 now IPC :0.75704: AVG IPC :0.91004: L2-Pf-HR :0.88402: L2-HR :0.77126: (Sim:2h3m46s) 
CPU  1 inst:  139000001 cyc:  151810283 now IPC :0.84925: AVG IPC :0.90831: L2-Pf-HR :0.89259: L2-HR :0.77623: (Sim:2h3m59s) 
CPU  3 inst:  138000002 cyc:  152215593 now IPC :0.75984: AVG IPC :0.89926: L2-Pf-HR :0.91134: L2-HR :0.78516: (Sim:2h4m17s) 
CPU  0 inst:  140000004 cyc:  152264301 now IPC :0.89870: AVG IPC :0.91219: L2-Pf-HR :0.83767: L2-HR :0.74343: (Sim:2h4m20s) 
CPU  2 inst:  140000004 cyc:  152838497 now IPC :0.75972: AVG IPC :0.90874: L2-Pf-HR :0.88393: L2-HR :0.77123: (Sim:2h4m45s) 
CPU  1 inst:  140000004 cyc:  153110653 now IPC :0.76901: AVG IPC :0.90712: L2-Pf-HR :0.89231: L2-HR :0.77603: (Sim:2h4m56s) 
CPU  0 inst:  141000003 cyc:  153571987 now IPC :0.76471: AVG IPC :0.91093: L2-Pf-HR :0.83770: L2-HR :0.74320: (Sim:2h5m17s) 
CPU  3 inst:  139000000 cyc:  153646920 now IPC :0.69865: AVG IPC :0.89738: L2-Pf-HR :0.91137: L2-HR :0.78519: (Sim:2h5m20s) 
CPU  2 inst:  141000003 cyc:  154379678 now IPC :0.64885: AVG IPC :0.90612: L2-Pf-HR :0.88369: L2-HR :0.77085: (Sim:2h5m51s) 
CPU  1 inst:  141000003 cyc:  154537174 now IPC :0.70101: AVG IPC :0.90520: L2-Pf-HR :0.89209: L2-HR :0.77568: (Sim:2h5m58s) 
CPU  0 inst:  142000003 cyc:  154836366 now IPC :0.79090: AVG IPC :0.90994: L2-Pf-HR :0.83758: L2-HR :0.74319: (Sim:2h6m12s) 
CPU  3 inst:  140000004 cyc:  154932742 now IPC :0.77772: AVG IPC :0.89638: L2-Pf-HR :0.91118: L2-HR :0.78500: (Sim:2h6m16s) 
CPU  2 inst:  142000003 cyc:  155757669 now IPC :0.72569: AVG IPC :0.90452: L2-Pf-HR :0.88369: L2-HR :0.77092: (Sim:2h6m51s) 
CPU  1 inst:  142000003 cyc:  155906080 now IPC :0.73051: AVG IPC :0.90366: L2-Pf-HR :0.89201: L2-HR :0.77567: (Sim:2h6m58s) 
CPU  0 inst:  143000003 cyc:  156163282 now IPC :0.75363: AVG IPC :0.90860: L2-Pf-HR :0.83747: L2-HR :0.74314: (Sim:2h7m9s) 
CPU  3 inst:  141000003 cyc:  156288646 now IPC :0.73751: AVG IPC :0.89499: L2-Pf-HR :0.91096: L2-HR :0.78468: (Sim:2h7m14s) 
CPU  2 inst:  143000005 cyc:  157131008 now IPC :0.72815: AVG IPC :0.90297: L2-Pf-HR :0.88373: L2-HR :0.77092: (Sim:2h7m53s) 
CPU  1 inst:  143000005 cyc:  157186322 now IPC :0.78110: AVG IPC :0.90265: L2-Pf-HR :0.89211: L2-HR :0.77574: (Sim:2h7m56s) 
CPU  3 inst:  142000003 cyc:  157355916 now IPC :0.93697: AVG IPC :0.89528: L2-Pf-HR :0.91095: L2-HR :0.78461: (Sim:2h8m4s) 
CPU  0 inst:  144000004 cyc:  157386324 now IPC :0.81763: AVG IPC :0.90789: L2-Pf-HR :0.83743: L2-HR :0.74310: (Sim:2h8m5s) 
CPU  3 inst:  143000005 cyc:  158371893 now IPC :0.98428: AVG IPC :0.89585: L2-Pf-HR :0.91095: L2-HR :0.78451: (Sim:2h8m51s) 
CPU  2 inst:  144000004 cyc:  158423230 now IPC :0.77386: AVG IPC :0.90191: L2-Pf-HR :0.88372: L2-HR :0.77096: (Sim:2h8m53s) 
CPU  1 inst:  144000004 cyc:  158530167 now IPC :0.74413: AVG IPC :0.90130: L2-Pf-HR :0.89217: L2-HR :0.77578: (Sim:2h8m58s) 
CPU  0 inst:  145000004 cyc:  158602782 now IPC :0.82206: AVG IPC :0.90723: L2-Pf-HR :0.83755: L2-HR :0.74313: (Sim:2h9m1s) 
CPU  3 inst:  144000004 cyc:  159537236 now IPC :0.85812: AVG IPC :0.89557: L2-Pf-HR :0.91085: L2-HR :0.78440: (Sim:2h9m46s) 
CPU  2 inst:  145000004 cyc:  159589115 now IPC :0.85772: AVG IPC :0.90158: L2-Pf-HR :0.88415: L2-HR :0.77124: (Sim:2h9m48s) 
CPU  0 inst:  146000001 cyc:  159678843 now IPC :0.92931: AVG IPC :0.90738: L2-Pf-HR :0.83772: L2-HR :0.74316: (Sim:2h9m53s) 
CPU  1 inst:  145000004 cyc:  159723437 now IPC :0.83803: AVG IPC :0.90083: L2-Pf-HR :0.89236: L2-HR :0.77592: (Sim:2h9m55s) 
CPU  3 inst:  145000004 cyc:  160639025 now IPC :0.90761: AVG IPC :0.89566: L2-Pf-HR :0.91101: L2-HR :0.78446: (Sim:2h10m40s) 
CPU  2 inst:  146000001 cyc:  160655367 now IPC :0.93786: AVG IPC :0.90183: L2-Pf-HR :0.88426: L2-HR :0.77132: (Sim:2h10m41s) 
CPU  0 inst:  147000001 cyc:  160771684 now IPC :0.91505: AVG IPC :0.90743: L2-Pf-HR :0.83810: L2-HR :0.74323: (Sim:2h10m47s) 
CPU  1 inst:  146000001 cyc:  160879584 now IPC :0.86494: AVG IPC :0.90057: L2-Pf-HR :0.89248: L2-HR :0.77584: (Sim:2h10m51s) 
CPU  2 inst:  147000001 cyc:  161754494 now IPC :0.90981: AVG IPC :0.90188: L2-Pf-HR :0.88448: L2-HR :0.77138: (Sim:2h11m34s) 
CPU  3 inst:  146000001 cyc:  161760685 now IPC :0.89153: AVG IPC :0.89563: L2-Pf-HR :0.91111: L2-HR :0.78443: (Sim:2h11m34s) 
CPU  0 inst:  148000004 cyc:  161839653 now IPC :0.93636: AVG IPC :0.90762: L2-Pf-HR :0.83823: L2-HR :0.74308: (Sim:2h11m38s) 
CPU  1 inst:  147000001 cyc:  162062800 now IPC :0.84515: AVG IPC :0.90016: L2-Pf-HR :0.89256: L2-HR :0.77577: (Sim:2h11m49s) 
CPU  2 inst:  148000001 cyc:  162801396 now IPC :0.95520: AVG IPC :0.90222: L2-Pf-HR :0.88468: L2-HR :0.77133: (Sim:2h12m25s) 
CPU  0 inst:  149000002 cyc:  162872603 now IPC :0.96810: AVG IPC :0.90801: L2-Pf-HR :0.83830: L2-HR :0.74297: (Sim:2h12m28s) 
CPU  3 inst:  147000001 cyc:  162957282 now IPC :0.83570: AVG IPC :0.89519: L2-Pf-HR :0.91126: L2-HR :0.78450: (Sim:2h12m32s) 
CPU  1 inst:  148000004 cyc:  163238939 now IPC :0.85024: AVG IPC :0.89980: L2-Pf-HR :0.89269: L2-HR :0.77566: (Sim:2h12m46s) 
CPU  2 inst:  149000002 cyc:  163865727 now IPC :0.93956: AVG IPC :0.90247: L2-Pf-HR :0.88457: L2-HR :0.77112: (Sim:2h13m15s) 
CPU  0 inst:  150000004 cyc:  163981090 now IPC :0.90213: AVG IPC :0.90797: L2-Pf-HR :0.83821: L2-HR :0.74300: (Sim:2h13m21s) 
CPU  3 inst:  148000001 cyc:  164237403 now IPC :0.78118: AVG IPC :0.89429: L2-Pf-HR :0.91135: L2-HR :0.78443: (Sim:2h13m32s) 
CPU  1 inst:  149000002 cyc:  164596265 now IPC :0.73674: AVG IPC :0.89845: L2-Pf-HR :0.89283: L2-HR :0.77563: (Sim:2h13m47s) 
CPU  2 inst:  150000005 cyc:  165069317 now IPC :0.83085: AVG IPC :0.90194: L2-Pf-HR :0.88474: L2-HR :0.77118: (Sim:2h14m9s) 
CPU  0 inst:  151000002 cyc:  165371353 now IPC :0.71929: AVG IPC :0.90638: L2-Pf-HR :0.83829: L2-HR :0.74290: (Sim:2h14m21s) 
CPU  3 inst:  149000002 cyc:  165684516 now IPC :0.69103: AVG IPC :0.89251: L2-Pf-HR :0.91148: L2-HR :0.78438: (Sim:2h14m35s) 
CPU  1 inst:  150000005 cyc:  165720045 now IPC :0.88986: AVG IPC :0.89839: L2-Pf-HR :0.89293: L2-HR :0.77561: (Sim:2h14m37s) 
CPU  2 inst:  151000002 cyc:  166444517 now IPC :0.72716: AVG IPC :0.90049: L2-Pf-HR :0.88495: L2-HR :0.77115: (Sim:2h15m10s) 
CPU  1 inst:  151000002 cyc:  166693975 now IPC :1.02676: AVG IPC :0.89914: L2-Pf-HR :0.89308: L2-HR :0.77562: (Sim:2h15m21s) 
CPU  0 inst:  152000000 cyc:  166729185 now IPC :0.73647: AVG IPC :0.90498: L2-Pf-HR :0.83838: L2-HR :0.74277: (Sim:2h15m23s) 
CPU  3 inst:  150000004 cyc:  167033681 now IPC :0.74120: AVG IPC :0.89128: L2-Pf-HR :0.91196: L2-HR :0.78461: (Sim:2h15m36s) 
CPU  2 inst:  152000000 cyc:  167890045 now IPC :0.69179: AVG IPC :0.89868: L2-Pf-HR :0.88532: L2-HR :0.77116: (Sim:2h16m11s) 
CPU  1 inst:  152000000 cyc:  167985232 now IPC :0.77444: AVG IPC :0.89818: L2-Pf-HR :0.89325: L2-HR :0.77555: (Sim:2h16m16s) 
CPU  0 inst:  153000001 cyc:  168274405 now IPC :0.64716: AVG IPC :0.90260: L2-Pf-HR :0.83861: L2-HR :0.74264: (Sim:2h16m28s) 
CPU  3 inst:  151000002 cyc:  168334245 now IPC :0.76890: AVG IPC :0.89033: L2-Pf-HR :0.91230: L2-HR :0.78473: (Sim:2h16m31s) 
CPU  2 inst:  153000001 cyc:  169287222 now IPC :0.71573: AVG IPC :0.89716: L2-Pf-HR :0.88544: L2-HR :0.77093: (Sim:2h17m14s) 
CPU  1 inst:  153000001 cyc:  169375343 now IPC :0.71937: AVG IPC :0.89670: L2-Pf-HR :0.89330: L2-HR :0.77531: (Sim:2h17m18s) 
CPU  3 inst:  152000000 cyc:  169379633 now IPC :0.95658: AVG IPC :0.89074: L2-Pf-HR :0.91247: L2-HR :0.78476: (Sim:2h17m18s) 
CPU  0 inst:  154000001 cyc:  169581511 now IPC :0.76505: AVG IPC :0.90154: L2-Pf-HR :0.83859: L2-HR :0.74275: (Sim:2h17m28s) 
CPU  3 inst:  153000001 cyc:  170547591 now IPC :0.85620: AVG IPC :0.89050: L2-Pf-HR :0.91254: L2-HR :0.78459: (Sim:2h18m11s) 
CPU  2 inst:  154000001 cyc:  170603949 now IPC :0.75946: AVG IPC :0.89610: L2-Pf-HR :0.88538: L2-HR :0.77104: (Sim:2h18m14s) 
CPU  1 inst:  154000001 cyc:  170699126 now IPC :0.75541: AVG IPC :0.89560: L2-Pf-HR :0.89331: L2-HR :0.77534: (Sim:2h18m17s) 
CPU  0 inst:  155000001 cyc:  170877055 now IPC :0.77188: AVG IPC :0.90055: L2-Pf-HR :0.83890: L2-HR :0.74280: (Sim:2h18m26s) 
CPU  3 inst:  154000001 cyc:  171668359 now IPC :0.89225: AVG IPC :0.89051: L2-Pf-HR :0.91264: L2-HR :0.78457: (Sim:2h19m2s) 
CPU  2 inst:  155000001 cyc:  171885474 now IPC :0.78032: AVG IPC :0.89523: L2-Pf-HR :0.88570: L2-HR :0.77113: (Sim:2h19m12s) 
CPU  1 inst:  155000001 cyc:  171984870 now IPC :0.77776: AVG IPC :0.89471: L2-Pf-HR :0.89374: L2-HR :0.77553: (Sim:2h19m17s) 
[...]
CPU  1 inst:  739000000 cyc: 1719122086 now IPC :0.28268: AVG IPC :0.42895: L2-Pf-HR :0.56995: L2-HR :0.61281: (Sim:15h49m30s) 
CPU  0 inst:  742000001 cyc: 1719871903 now IPC :0.28404: AVG IPC :0.43051: L2-Pf-HR :0.48456: L2-HR :0.58679: (Sim:15h49m55s) 
CPU  3 inst:  737000003 cyc: 1720499064 now IPC :0.28436: AVG IPC :0.42744: L2-Pf-HR :0.60683: L2-HR :0.62389: (Sim:15h50m15s) 
CPU  2 inst:  740000000 cyc: 1721280181 now IPC :0.28311: AVG IPC :0.42899: L2-Pf-HR :0.56829: L2-HR :0.61240: (Sim:15h50m41s) 
CPU  1 inst:  740000000 cyc: 1722656553 now IPC :0.28293: AVG IPC :0.42865: L2-Pf-HR :0.56925: L2-HR :0.61246: (Sim:15h51m27s) 
CPU  0 inst:  743000001 cyc: 1723379541 now IPC :0.28509: AVG IPC :0.43021: L2-Pf-HR :0.48388: L2-HR :0.58647: (Sim:15h51m51s) 
CPU  3 inst:  738000000 cyc: 1724011161 now IPC :0.28473: AVG IPC :0.42715: L2-Pf-HR :0.60614: L2-HR :0.62355: (Sim:15h52m12s) 
CPU  2 inst:  741000001 cyc: 1724807114 now IPC :0.28353: AVG IPC :0.42870: L2-Pf-HR :0.56763: L2-HR :0.61208: (Sim:15h52m38s) 
CPU  1 inst:  741000001 cyc: 1726149540 now IPC :0.28629: AVG IPC :0.42836: L2-Pf-HR :0.56855: L2-HR :0.61213: (Sim:15h53m9s) 
CPU  0 inst:  744000001 cyc: 1726851549 now IPC :0.28802: AVG IPC :0.42993: L2-Pf-HR :0.48321: L2-HR :0.58616: (Sim:15h53m32s) 
CPU  3 inst:  739000000 cyc: 1727517614 now IPC :0.28519: AVG IPC :0.42687: L2-Pf-HR :0.60546: L2-HR :0.62322: (Sim:15h53m54s) 
CPU  2 inst:  742000001 cyc: 1728319476 now IPC :0.28471: AVG IPC :0.42840: L2-Pf-HR :0.56696: L2-HR :0.61175: (Sim:15h54m21s) 
CPU  1 inst:  742000001 cyc: 1729721545 now IPC :0.27995: AVG IPC :0.42806: L2-Pf-HR :0.56785: L2-HR :0.61180: (Sim:15h55m7s) 
CPU  0 inst:  745000001 cyc: 1730432306 now IPC :0.27927: AVG IPC :0.42962: L2-Pf-HR :0.48255: L2-HR :0.58584: (Sim:15h55m30s) 
CPU  3 inst:  740000000 cyc: 1731013920 now IPC :0.28602: AVG IPC :0.42658: L2-Pf-HR :0.60477: L2-HR :0.62288: (Sim:15h55m50s) 
CPU  2 inst:  743000001 cyc: 1731871416 now IPC :0.28154: AVG IPC :0.42810: L2-Pf-HR :0.56630: L2-HR :0.61142: (Sim:15h56m16s) 
CPU  1 inst:  743000001 cyc: 1733278633 now IPC :0.28113: AVG IPC :0.42776: L2-Pf-HR :0.56715: L2-HR :0.61146: (Sim:15h56m56s) 
CPU  0 inst:  746000002 cyc: 1733956144 now IPC :0.28378: AVG IPC :0.42932: L2-Pf-HR :0.48189: L2-HR :0.58552: (Sim:15h57m16s) 
CPU  3 inst:  741000001 cyc: 1734613274 now IPC :0.27783: AVG IPC :0.42627: L2-Pf-HR :0.60411: L2-HR :0.62254: (Sim:15h57m30s) 
CPU  2 inst:  744000001 cyc: 1735490768 now IPC :0.27629: AVG IPC :0.42779: L2-Pf-HR :0.56565: L2-HR :0.61110: (Sim:15h57m45s) 
CPU  1 inst:  744000001 cyc: 1737053226 now IPC :0.26493: AVG IPC :0.42740: L2-Pf-HR :0.56646: L2-HR :0.61113: (Sim:15h58m36s) 
CPU  0 inst:  747000002 cyc: 1737648195 now IPC :0.27085: AVG IPC :0.42898: L2-Pf-HR :0.48123: L2-HR :0.58521: (Sim:15h58m55s) 
CPU  3 inst:  742000001 cyc: 1738247864 now IPC :0.27513: AVG IPC :0.42596: L2-Pf-HR :0.60345: L2-HR :0.62221: (Sim:15h59m14s) 
CPU  2 inst:  745000001 cyc: 1739081725 now IPC :0.27848: AVG IPC :0.42748: L2-Pf-HR :0.56500: L2-HR :0.61079: (Sim:15h59m41s) 
CPU  1 inst:  745000001 cyc: 1740645240 now IPC :0.27840: AVG IPC :0.42709: L2-Pf-HR :0.56577: L2-HR :0.61080: (Sim:16h0m31s) 
CPU  0 inst:  748000002 cyc: 1741255498 now IPC :0.27722: AVG IPC :0.42867: L2-Pf-HR :0.48056: L2-HR :0.58490: (Sim:16h0m51s) 
CPU  3 inst:  743000001 cyc: 1741788171 now IPC :0.28246: AVG IPC :0.42566: L2-Pf-HR :0.60278: L2-HR :0.62188: (Sim:16h1m9s) 
CPU  2 inst:  746000002 cyc: 1742610232 now IPC :0.28341: AVG IPC :0.42719: L2-Pf-HR :0.56435: L2-HR :0.61047: (Sim:16h1m35s) 
CPU  1 inst:  746000002 cyc: 1744145937 now IPC :0.28566: AVG IPC :0.42681: L2-Pf-HR :0.56508: L2-HR :0.61047: (Sim:16h2m2s) 
CPU  0 inst:  749000002 cyc: 1744754638 now IPC :0.28578: AVG IPC :0.42838: L2-Pf-HR :0.47990: L2-HR :0.58459: (Sim:16h2m16s) 
CPU  3 inst:  744000001 cyc: 1745257567 now IPC :0.28823: AVG IPC :0.42539: L2-Pf-HR :0.60209: L2-HR :0.62155: (Sim:16h2m33s) 
CPU  2 inst:  747000002 cyc: 1746103064 now IPC :0.28630: AVG IPC :0.42690: L2-Pf-HR :0.56369: L2-HR :0.61014: (Sim:16h2m56s) 
CPU  1 inst:  747000002 cyc: 1747672708 now IPC :0.28355: AVG IPC :0.42652: L2-Pf-HR :0.56439: L2-HR :0.61013: (Sim:16h3m24s) 
CPU  0 inst:  750000003 cyc: 1748289468 now IPC :0.28290: AVG IPC :0.42809: L2-Pf-HR :0.47925: L2-HR :0.58428: (Sim:16h3m35s) 
CPU  3 inst:  745000001 cyc: 1748789716 now IPC :0.28311: AVG IPC :0.42510: L2-Pf-HR :0.60143: L2-HR :0.62122: (Sim:16h3m49s) 
CPU  2 inst:  748000002 cyc: 1749680864 now IPC :0.27950: AVG IPC :0.42660: L2-Pf-HR :0.56305: L2-HR :0.60982: (Sim:16h4m18s) 
CPU  1 inst:  748000002 cyc: 1751288079 now IPC :0.27660: AVG IPC :0.42621: L2-Pf-HR :0.56370: L2-HR :0.60981: (Sim:16h5m11s) 
CPU  0 inst:  751000002 cyc: 1751877517 now IPC :0.27870: AVG IPC :0.42778: L2-Pf-HR :0.47860: L2-HR :0.58397: (Sim:16h5m30s) 
CPU  3 inst:  746000002 cyc: 1752360827 now IPC :0.28003: AVG IPC :0.42481: L2-Pf-HR :0.60076: L2-HR :0.62089: (Sim:16h5m46s) 
CPU  2 inst:  749000002 cyc: 1753218333 now IPC :0.28269: AVG IPC :0.42631: L2-Pf-HR :0.56240: L2-HR :0.60951: (Sim:16h6m8s) 
CPU  1 inst:  749000002 cyc: 1754842096 now IPC :0.28137: AVG IPC :0.42592: L2-Pf-HR :0.56301: L2-HR :0.60948: (Sim:16h7m1s) 
CPU  0 inst:  752000002 cyc: 1755421351 now IPC :0.28218: AVG IPC :0.42749: L2-Pf-HR :0.47794: L2-HR :0.58366: (Sim:16h7m16s) 
CPU  3 inst:  747000002 cyc: 1755915465 now IPC :0.28132: AVG IPC :0.42452: L2-Pf-HR :0.60009: L2-HR :0.62056: (Sim:16h7m30s) 
CPU  2 inst:  750000003 cyc: 1756780717 now IPC :0.28071: AVG IPC :0.42602: L2-Pf-HR :0.56175: L2-HR :0.60918: (Sim:16h7m52s) 
CPU  1 inst:  750000003 cyc: 1758418289 now IPC :0.27963: AVG IPC :0.42562: L2-Pf-HR :0.56233: L2-HR :0.60915: (Sim:16h8m39s) 
CPU  0 inst:  753000002 cyc: 1758974289 now IPC :0.28146: AVG IPC :0.42719: L2-Pf-HR :0.47730: L2-HR :0.58336: (Sim:16h8m58s) 
CPU  3 inst:  748000002 cyc: 1759425650 now IPC :0.28489: AVG IPC :0.42424: L2-Pf-HR :0.59942: L2-HR :0.62023: (Sim:16h9m13s) 
CPU  2 inst:  751000002 cyc: 1760299344 now IPC :0.28420: AVG IPC :0.42573: L2-Pf-HR :0.56110: L2-HR :0.60887: (Sim:16h9m42s) 
CPU  1 inst:  751000002 cyc: 1761870770 now IPC :0.28965: AVG IPC :0.42535: L2-Pf-HR :0.56164: L2-HR :0.60882: (Sim:16h10m26s) 
CPU  0 inst:  754000001 cyc: 1762436863 now IPC :0.28880: AVG IPC :0.42692: L2-Pf-HR :0.47665: L2-HR :0.58305: (Sim:16h10m44s) 
CPU  3 inst:  749000002 cyc: 1762890437 now IPC :0.28862: AVG IPC :0.42397: L2-Pf-HR :0.59874: L2-HR :0.61990: (Sim:16h10m59s) 
CPU  2 inst:  752000002 cyc: 1763786870 now IPC :0.28674: AVG IPC :0.42546: L2-Pf-HR :0.56045: L2-HR :0.60855: (Sim:16h11m28s) 
CPU  1 inst:  752000002 cyc: 1765477941 now IPC :0.27723: AVG IPC :0.42505: L2-Pf-HR :0.56095: L2-HR :0.60849: (Sim:16h12m23s) 
CPU  0 inst:  755000003 cyc: 1766050192 now IPC :0.27675: AVG IPC :0.42661: L2-Pf-HR :0.47601: L2-HR :0.58274: (Sim:16h12m38s) 
CPU  3 inst:  750000003 cyc: 1766441769 now IPC :0.28158: AVG IPC :0.42369: L2-Pf-HR :0.59809: L2-HR :0.61958: (Sim:16h12m45s) 
CPU  2 inst:  753000002 cyc: 1767344572 now IPC :0.28108: AVG IPC :0.42517: L2-Pf-HR :0.55981: L2-HR :0.60824: (Sim:16h13m14s) 
CPU  1 inst:  753000002 cyc: 1769062439 now IPC :0.27898: AVG IPC :0.42475: L2-Pf-HR :0.56028: L2-HR :0.60817: (Sim:16h14m4s) 
CPU  0 inst:  756000003 cyc: 1769582366 now IPC :0.28311: AVG IPC :0.42633: L2-Pf-HR :0.47536: L2-HR :0.58244: (Sim:16h14m21s) 
CPU  3 inst:  751000002 cyc: 1769972089 now IPC :0.28326: AVG IPC :0.42340: L2-Pf-HR :0.59742: L2-HR :0.61924: (Sim:16h14m34s) 
CPU  2 inst:  754000001 cyc: 1770847294 now IPC :0.28549: AVG IPC :0.42489: L2-Pf-HR :0.55918: L2-HR :0.60793: (Sim:16h15m3s) 
CPU  1 inst:  754000001 cyc: 1772604732 now IPC :0.28230: AVG IPC :0.42447: L2-Pf-HR :0.55961: L2-HR :0.60784: (Sim:16h16m1s) 
CPU  0 inst:  757000003 cyc: 1773091988 now IPC :0.28493: AVG IPC :0.42605: L2-Pf-HR :0.47471: L2-HR :0.58213: (Sim:16h16m17s) 
CPU  3 inst:  752000002 cyc: 1773506976 now IPC :0.28289: AVG IPC :0.42312: L2-Pf-HR :0.59677: L2-HR :0.61891: (Sim:16h16m31s) 
CPU  2 inst:  755000003 cyc: 1774393845 now IPC :0.28196: AVG IPC :0.42460: L2-Pf-HR :0.55854: L2-HR :0.60762: (Sim:16h17m0s) 
CPU  1 inst:  755000003 cyc: 1776193545 now IPC :0.27864: AVG IPC :0.42417: L2-Pf-HR :0.55893: L2-HR :0.60752: (Sim:16h17m59s) 
CPU  0 inst:  758000001 cyc: 1776648600 now IPC :0.28117: AVG IPC :0.42576: L2-Pf-HR :0.47408: L2-HR :0.58182: (Sim:16h18m14s) 
CPU  3 inst:  753000002 cyc: 1777137881 now IPC :0.27541: AVG IPC :0.42282: L2-Pf-HR :0.59611: L2-HR :0.61859: (Sim:16h18m30s) 
CPU  2 inst:  756000003 cyc: 1777981937 now IPC :0.27870: AVG IPC :0.42431: L2-Pf-HR :0.55791: L2-HR :0.60730: (Sim:16h18m58s) 
CPU  1 inst:  756000003 cyc: 1779791863 now IPC :0.27791: AVG IPC :0.42388: L2-Pf-HR :0.55825: L2-HR :0.60720: (Sim:16h19m39s) 
CPU  0 inst:  759000003 cyc: 1780217033 now IPC :0.28024: AVG IPC :0.42546: L2-Pf-HR :0.47344: L2-HR :0.58152: (Sim:16h19m46s) 
CPU  3 inst:  754000001 cyc: 1780663761 now IPC :0.28362: AVG IPC :0.42255: L2-Pf-HR :0.59546: L2-HR :0.61827: (Sim:16h19m54s) 
CPU  2 inst:  757000003 cyc: 1781457678 now IPC :0.28771: AVG IPC :0.42404: L2-Pf-HR :0.55727: L2-HR :0.60698: (Sim:16h20m8s) 
CPU  1 inst:  757000003 cyc: 1783323749 now IPC :0.28313: AVG IPC :0.42360: L2-Pf-HR :0.55758: L2-HR :0.60687: (Sim:16h20m41s) 
CPU  0 inst:  760000003 cyc: 1783727253 now IPC :0.28488: AVG IPC :0.42519: L2-Pf-HR :0.47281: L2-HR :0.58123: (Sim:16h20m48s) 
CPU  3 inst:  755000003 cyc: 1784171238 now IPC :0.28511: AVG IPC :0.42228: L2-Pf-HR :0.59481: L2-HR :0.61795: (Sim:16h20m55s) 
CPU  2 inst:  758000001 cyc: 1784993686 now IPC :0.28280: AVG IPC :0.42376: L2-Pf-HR :0.55664: L2-HR :0.60667: (Sim:16h21m10s) 
CPU  1 inst:  758000001 cyc: 1786851893 now IPC :0.28343: AVG IPC :0.42332: L2-Pf-HR :0.55692: L2-HR :0.60655: (Sim:16h21m43s) 
CPU  0 inst:  761000003 cyc: 1787269961 now IPC :0.28227: AVG IPC :0.42490: L2-Pf-HR :0.47217: L2-HR :0.58091: (Sim:16h21m50s) 
CPU  3 inst:  756000003 cyc: 1787605758 now IPC :0.29116: AVG IPC :0.42202: L2-Pf-HR :0.59414: L2-HR :0.61762: (Sim:16h21m56s) 
CPU  2 inst:  759000003 cyc: 1788498563 now IPC :0.28532: AVG IPC :0.42349: L2-Pf-HR :0.55600: L2-HR :0.60636: (Sim:16h22m11s) 
CPU  1 inst:  759000003 cyc: 1790356862 now IPC :0.28531: AVG IPC :0.42305: L2-Pf-HR :0.55624: L2-HR :0.60623: (Sim:16h22m44s) 
CPU  0 inst:  762000002 cyc: 1790780645 now IPC :0.28484: AVG IPC :0.42463: L2-Pf-HR :0.47154: L2-HR :0.58061: (Sim:16h22m52s) 
CPU  3 inst:  757000003 cyc: 1791091756 now IPC :0.28686: AVG IPC :0.42176: L2-Pf-HR :0.59349: L2-HR :0.61730: (Sim:16h22m57s) 
CPU  2 inst:  760000003 cyc: 1792025823 now IPC :0.28351: AVG IPC :0.42322: L2-Pf-HR :0.55537: L2-HR :0.60606: (Sim:16h23m14s) 
CPU  1 inst:  760000003 cyc: 1793919157 now IPC :0.28072: AVG IPC :0.42277: L2-Pf-HR :0.55557: L2-HR :0.60591: (Sim:16h23m51s) 
CPU  0 inst:  763000001 cyc: 1794323166 now IPC :0.28228: AVG IPC :0.42435: L2-Pf-HR :0.47091: L2-HR :0.58032: (Sim:16h24m4s) 
CPU  3 inst:  758000001 cyc: 1794701022 now IPC :0.27706: AVG IPC :0.42147: L2-Pf-HR :0.59285: L2-HR :0.61698: (Sim:16h24m11s) 
CPU  2 inst:  761000003 cyc: 1795568697 now IPC :0.28226: AVG IPC :0.42294: L2-Pf-HR :0.55473: L2-HR :0.60574: (Sim:16h24m27s) 
CPU  1 inst:  761000003 cyc: 1797505088 now IPC :0.27887: AVG IPC :0.42248: L2-Pf-HR :0.55490: L2-HR :0.60559: (Sim:16h25m0s) 
CPU  0 inst:  764000001 cyc: 1797921202 now IPC :0.27793: AVG IPC :0.42405: L2-Pf-HR :0.47029: L2-HR :0.58002: (Sim:16h25m8s) 
CPU  3 inst:  759000003 cyc: 1798232771 now IPC :0.28315: AVG IPC :0.42120: L2-Pf-HR :0.59219: L2-HR :0.61666: (Sim:16h25m13s) 
CPU  2 inst:  762000002 cyc: 1799154296 now IPC :0.27889: AVG IPC :0.42265: L2-Pf-HR :0.55411: L2-HR :0.60543: (Sim:16h25m30s) 
CPU  1 inst:  762000002 cyc: 1801096757 now IPC :0.27842: AVG IPC :0.42219: L2-Pf-HR :0.55423: L2-HR :0.60526: (Sim:16h26m23s) 
CPU  0 inst:  765000001 cyc: 1801448792 now IPC :0.28348: AVG IPC :0.42378: L2-Pf-HR :0.46965: L2-HR :0.57972: (Sim:16h26m29s) 
CPU  3 inst:  760000003 cyc: 1801729340 now IPC :0.28599: AVG IPC :0.42094: L2-Pf-HR :0.59155: L2-HR :0.61635: (Sim:16h26m34s) 
CPU  2 inst:  763000001 cyc: 1802663364 now IPC :0.28498: AVG IPC :0.42238: L2-Pf-HR :0.55349: L2-HR :0.60513: (Sim:16h26m51s) 
CPU  1 inst:  763000001 cyc: 1804600673 now IPC :0.28539: AVG IPC :0.42193: L2-Pf-HR :0.55357: L2-HR :0.60495: (Sim:16h27m38s) 
CPU  0 inst:  766000001 cyc: 1804942623 now IPC :0.28622: AVG IPC :0.42351: L2-Pf-HR :0.46902: L2-HR :0.57942: (Sim:16h27m44s) 
CPU  3 inst:  761000003 cyc: 1805223639 now IPC :0.28618: AVG IPC :0.42067: L2-Pf-HR :0.59090: L2-HR :0.61602: (Sim:16h27m49s) 
CPU  2 inst:  764000001 cyc: 1806150411 now IPC :0.28678: AVG IPC :0.42212: L2-Pf-HR :0.55286: L2-HR :0.60482: (Sim:16h28m15s) 
CPU  1 inst:  764000001 cyc: 1808069270 now IPC :0.28830: AVG IPC :0.42167: L2-Pf-HR :0.55290: L2-HR :0.60463: (Sim:16h29m10s) 
CPU  0 inst:  767000003 cyc: 1808450179 now IPC :0.28510: AVG IPC :0.42324: L2-Pf-HR :0.46840: L2-HR :0.57913: (Sim:16h29m19s) 
CPU  3 inst:  762000002 cyc: 1808668439 now IPC :0.29029: AVG IPC :0.42043: L2-Pf-HR :0.59026: L2-HR :0.61570: (Sim:16h29m27s) 
CPU  2 inst:  765000001 cyc: 1809650072 now IPC :0.28574: AVG IPC :0.42186: L2-Pf-HR :0.55224: L2-HR :0.60452: (Sim:16h29m59s) 
CPU  1 inst:  765000001 cyc: 1811570701 now IPC :0.28560: AVG IPC :0.42141: L2-Pf-HR :0.55224: L2-HR :0.60432: (Sim:16h31m2s) 
CPU  0 inst:  768000000 cyc: 1811991463 now IPC :0.28238: AVG IPC :0.42297: L2-Pf-HR :0.46778: L2-HR :0.57883: (Sim:16h31m16s) 
CPU  3 inst:  763000001 cyc: 1812168769 now IPC :0.28569: AVG IPC :0.42017: L2-Pf-HR :0.58961: L2-HR :0.61539: (Sim:16h31m22s) 
CPU  2 inst:  766000001 cyc: 1813166342 now IPC :0.28439: AVG IPC :0.42159: L2-Pf-HR :0.55162: L2-HR :0.60421: (Sim:16h31m54s) 
CPU  1 inst:  766000001 cyc: 1815144714 now IPC :0.27980: AVG IPC :0.42113: L2-Pf-HR :0.55157: L2-HR :0.60400: (Sim:16h32m59s) 
CPU  0 inst:  769000000 cyc: 1815550070 now IPC :0.28101: AVG IPC :0.42269: L2-Pf-HR :0.46716: L2-HR :0.57853: (Sim:16h33m12s) 
CPU  3 inst:  764000001 cyc: 1815756016 now IPC :0.27877: AVG IPC :0.41989: L2-Pf-HR :0.58897: L2-HR :0.61506: (Sim:16h33m19s) 
CPU  2 inst:  767000003 cyc: 1816732071 now IPC :0.28045: AVG IPC :0.42131: L2-Pf-HR :0.55101: L2-HR :0.60391: (Sim:16h33m51s) 
CPU  1 inst:  767000003 cyc: 1818728103 now IPC :0.27907: AVG IPC :0.42085: L2-Pf-HR :0.55092: L2-HR :0.60368: (Sim:16h34m56s) 
CPU  0 inst:  770000000 cyc: 1819140426 now IPC :0.27852: AVG IPC :0.42241: L2-Pf-HR :0.46654: L2-HR :0.57824: (Sim:16h35m10s) 
CPU  3 inst:  765000001 cyc: 1819286600 now IPC :0.28324: AVG IPC :0.41962: L2-Pf-HR :0.58832: L2-HR :0.61475: (Sim:16h35m15s) 
CPU  2 inst:  768000000 cyc: 1820281370 now IPC :0.28174: AVG IPC :0.42104: L2-Pf-HR :0.55039: L2-HR :0.60360: (Sim:16h35m48s) 
CPU  1 inst:  768000000 cyc: 1822288666 now IPC :0.28085: AVG IPC :0.42058: L2-Pf-HR :0.55026: L2-HR :0.60337: (Sim:16h36m37s) 
CPU  0 inst:  771000001 cyc: 1822763925 now IPC :0.27598: AVG IPC :0.42211: L2-Pf-HR :0.46594: L2-HR :0.57795: (Sim:16h36m45s) 
CPU  3 inst:  766000001 cyc: 1822910467 now IPC :0.27595: AVG IPC :0.41934: L2-Pf-HR :0.58769: L2-HR :0.61443: (Sim:16h36m47s) 
CPU  2 inst:  769000000 cyc: 1823951092 now IPC :0.27250: AVG IPC :0.42074: L2-Pf-HR :0.54978: L2-HR :0.60330: (Sim:16h37m6s) 
CPU  1 inst:  769000000 cyc: 1825961711 now IPC :0.27225: AVG IPC :0.42028: L2-Pf-HR :0.54962: L2-HR :0.60306: (Sim:16h38m10s) 
CPU  0 inst:  772000000 cyc: 1826372237 now IPC :0.27714: AVG IPC :0.42183: L2-Pf-HR :0.46532: L2-HR :0.57766: (Sim:16h38m23s) 
CPU  3 inst:  767000003 cyc: 1826503163 now IPC :0.27834: AVG IPC :0.41906: L2-Pf-HR :0.58707: L2-HR :0.61413: (Sim:16h38m28s) 
CPU  2 inst:  770000000 cyc: 1827489123 now IPC :0.28264: AVG IPC :0.42047: L2-Pf-HR :0.54917: L2-HR :0.60299: (Sim:16h39m0s) 
CPU  1 inst:  770000000 cyc: 1829499428 now IPC :0.28267: AVG IPC :0.42001: L2-Pf-HR :0.54897: L2-HR :0.60275: (Sim:16h40m5s) 
CPU  0 inst:  773000000 cyc: 1829927773 now IPC :0.28125: AVG IPC :0.42155: L2-Pf-HR :0.46470: L2-HR :0.57736: (Sim:16h40m19s) 
CPU  3 inst:  768000000 cyc: 1829994196 now IPC :0.28645: AVG IPC :0.41880: L2-Pf-HR :0.58644: L2-HR :0.61382: (Sim:16h40m21s) 
CPU  2 inst:  771000001 cyc: 1831057219 now IPC :0.28026: AVG IPC :0.42020: L2-Pf-HR :0.54856: L2-HR :0.60270: (Sim:16h40m51s) 
CPU  1 inst:  771000001 cyc: 1833075638 now IPC :0.27963: AVG IPC :0.41974: L2-Pf-HR :0.54834: L2-HR :0.60244: (Sim:16h41m44s) 
CPU  0 inst:  774000000 cyc: 1833504498 now IPC :0.27959: AVG IPC :0.42128: L2-Pf-HR :0.46409: L2-HR :0.57707: (Sim:16h41m57s) 
CPU  3 inst:  769000000 cyc: 1833611716 now IPC :0.27643: AVG IPC :0.41852: L2-Pf-HR :0.58580: L2-HR :0.61350: (Sim:16h42m1s) 
CPU  2 inst:  772000000 cyc: 1834648967 now IPC :0.27842: AVG IPC :0.41992: L2-Pf-HR :0.54795: L2-HR :0.60239: (Sim:16h42m34s) 
CPU  1 inst:  772000000 cyc: 1836666721 now IPC :0.27847: AVG IPC :0.41946: L2-Pf-HR :0.54770: L2-HR :0.60212: (Sim:16h43m41s) 
CPU  0 inst:  775000002 cyc: 1837017578 now IPC :0.28465: AVG IPC :0.42102: L2-Pf-HR :0.46349: L2-HR :0.57677: (Sim:16h43m52s) 
CPU  3 inst:  770000000 cyc: 1837081694 now IPC :0.28819: AVG IPC :0.41828: L2-Pf-HR :0.58517: L2-HR :0.61318: (Sim:16h43m54s) 
CPU  2 inst:  773000000 cyc: 1838157677 now IPC :0.28501: AVG IPC :0.41966: L2-Pf-HR :0.54734: L2-HR :0.60209: (Sim:16h44m30s) 
CPU  1 inst:  773000000 cyc: 1840177542 now IPC :0.28483: AVG IPC :0.41920: L2-Pf-HR :0.54704: L2-HR :0.60182: (Sim:16h45m11s) 
CPU  0 inst:  776000000 cyc: 1840543753 now IPC :0.28359: AVG IPC :0.42075: L2-Pf-HR :0.46288: L2-HR :0.57648: (Sim:16h45m17s) 
CPU  3 inst:  771000001 cyc: 1840583710 now IPC :0.28555: AVG IPC :0.41802: L2-Pf-HR :0.58455: L2-HR :0.61288: (Sim:16h45m18s) 
CPU  2 inst:  774000000 cyc: 1841644445 now IPC :0.28680: AVG IPC :0.41941: L2-Pf-HR :0.54672: L2-HR :0.60180: (Sim:16h45m38s) 
CPU  1 inst:  774000000 cyc: 1843647674 now IPC :0.28817: AVG IPC :0.41896: L2-Pf-HR :0.54640: L2-HR :0.60150: (Sim:16h46m43s) 
CPU  0 inst:  777000000 cyc: 1844051067 now IPC :0.28512: AVG IPC :0.42049: L2-Pf-HR :0.46227: L2-HR :0.57619: (Sim:16h46m56s) 
CPU  3 inst:  772000000 cyc: 1844054038 now IPC :0.28816: AVG IPC :0.41778: L2-Pf-HR :0.58392: L2-HR :0.61256: (Sim:16h46m57s) 
CPU  2 inst:  775000002 cyc: 1845114551 now IPC :0.28818: AVG IPC :0.41917: L2-Pf-HR :0.54612: L2-HR :0.60149: (Sim:16h47m31s) 
CPU  1 inst:  775000002 cyc: 1847160195 now IPC :0.28470: AVG IPC :0.41870: L2-Pf-HR :0.54576: L2-HR :0.60120: (Sim:16h48m29s) 
CPU  3 inst:  773000000 cyc: 1847534404 now IPC :0.28733: AVG IPC :0.41753: L2-Pf-HR :0.58328: L2-HR :0.61225: (Sim:16h48m36s) 
CPU  0 inst:  778000000 cyc: 1847575535 now IPC :0.28373: AVG IPC :0.42023: L2-Pf-HR :0.46166: L2-HR :0.57591: (Sim:16h48m37s) 
CPU  2 inst:  776000000 cyc: 1848717742 now IPC :0.27753: AVG IPC :0.41889: L2-Pf-HR :0.54551: L2-HR :0.60119: (Sim:16h49m13s) 
CPU  1 inst:  776000000 cyc: 1850931060 now IPC :0.26519: AVG IPC :0.41839: L2-Pf-HR :0.54512: L2-HR :0.60088: (Sim:16h50m10s) 
CPU  3 inst:  774000000 cyc: 1851228008 now IPC :0.27074: AVG IPC :0.41724: L2-Pf-HR :0.58268: L2-HR :0.61195: (Sim:16h50m19s) 
CPU  0 inst:  779000000 cyc: 1851306323 now IPC :0.26804: AVG IPC :0.41993: L2-Pf-HR :0.46107: L2-HR :0.57562: (Sim:16h50m22s) 
CPU  2 inst:  777000000 cyc: 1852356827 now IPC :0.27479: AVG IPC :0.41861: L2-Pf-HR :0.54491: L2-HR :0.60090: (Sim:16h50m55s) 
CPU  1 inst:  777000000 cyc: 1854553943 now IPC :0.27602: AVG IPC :0.41811: L2-Pf-HR :0.54448: L2-HR :0.60057: (Sim:16h52m6s) 
CPU  3 inst:  775000002 cyc: 1854743061 now IPC :0.28449: AVG IPC :0.41699: L2-Pf-HR :0.58205: L2-HR :0.61164: (Sim:16h52m12s) 
CPU  0 inst:  780000003 cyc: 1854829798 now IPC :0.28381: AVG IPC :0.41967: L2-Pf-HR :0.46048: L2-HR :0.57534: (Sim:16h52m15s) 
Caught signal: 2
     > Finished combination: TraceType=770-tot Sim:1314000000 Prefetcher=L2bingo_dpc3_PHT1k L1=bingo_dpc3_PHT1k
