TRACE: [1979000000]_FE_[GPT-Neo-125M]_[h12]_[s2048]_[d64] Warmup: 2000000 NumTraces: 1979000000
L1:berti_concurso:L2:berti_concurso
*************************************************
   ChampSim Multicore Out-of-Order Simulator
   Last compiled: Oct 30 2024 03:47:13
*************************************************

trace_0 770-tot_memTraces_v4_2048/memTraces[1979000000]_FE_[GPT-Neo-125M]_[h12]_[s2048]_[d64].champsim.9.xz
trace_1 770-tot_memTraces_v4_2048/memTraces[1979000000]_FE_[GPT-Neo-125M]_[h12]_[s2048]_[d64].champsim.9.xz
trace_2 770-tot_memTraces_v4_2048/memTraces[1979000000]_FE_[GPT-Neo-125M]_[h12]_[s2048]_[d64].champsim.9.xz
trace_3 770-tot_memTraces_v4_2048/memTraces[1979000000]_FE_[GPT-Neo-125M]_[h12]_[s2048]_[d64].champsim.9.xz
CPU 0 L1D Berti prefetcher
CPU 0 L2C Berti prefetcher
CPU 1 L1D Berti prefetcher
CPU 1 L2C Berti prefetcher
CPU 2 L1D Berti prefetcher
CPU 2 L2C Berti prefetcher
CPU 3 L1D Berti prefetcher
CPU 3 L2C Berti prefetcher
MAIN.cc ln 751 stats print skipped
CPU  0 inst:    1000003 cyc:     497226 now IPC :2.01116: AVG IPC :2.01116: L2-Pf-HR :0.76730: L2-HR :0.72133: (Sim:0h0m28s) 
CPU  1 inst:    1000003 cyc:     497389 now IPC :2.01050: AVG IPC :2.01050: L2-Pf-HR :0.68655: L2-HR :0.65956: (Sim:0h0m28s) 
CPU  2 inst:    1000003 cyc:     497462 now IPC :2.01021: AVG IPC :2.01021: L2-Pf-HR :0.54359: L2-HR :0.57665: (Sim:0h0m28s) 
CPU  3 inst:    1000003 cyc:     497482 now IPC :2.01013: AVG IPC :2.01013: L2-Pf-HR :0.64648: L2-HR :0.63356: (Sim:0h0m28s) 
CPU  0 inst:    2000000 cyc:     979191 now IPC :2.07483: AVG IPC :2.04250: L2-Pf-HR :0.82190: L2-HR :0.78402: (Sim:0h0m58s) 
CPU  1 inst:    2000000 cyc:     979299 now IPC :2.07507: AVG IPC :2.04228: L2-Pf-HR :0.75091: L2-HR :0.72835: (Sim:0h0m58s) 
CPU  2 inst:    2000000 cyc:     979366 now IPC :2.07510: AVG IPC :2.04214: L2-Pf-HR :0.61832: L2-HR :0.65216: (Sim:0h0m58s) 
CPU  3 inst:    2000000 cyc:     979462 now IPC :2.07477: AVG IPC :2.04194: L2-Pf-HR :0.72534: L2-HR :0.71085: (Sim:0h0m58s) 

Warmup complete CPU  0 instructions:    2000469 cycles:     979463 (Simulation time: 0 hr 0 min 58 sec) 
Warmup complete CPU  1 instructions:    2000282 cycles:     979463 (Simulation time: 0 hr 0 min 58 sec) 
Warmup complete CPU  2 instructions:    2000282 cycles:     979463 (Simulation time: 0 hr 0 min 58 sec) 
Warmup complete CPU  3 instructions:    2000002 cycles:     979463 (Simulation time: 0 hr 0 min 58 sec) 

CPU  1 inst:    3000003 cyc:    1813799 now IPC :1.19833: AVG IPC :1.19822: L2-Pf-HR :0.92563: L2-HR :0.81513: (Sim:0h1m26s) 
CPU  3 inst:    3000003 cyc:    1814003 now IPC :1.19827: AVG IPC :1.19827: L2-Pf-HR :0.90078: L2-HR :0.78872: (Sim:0h1m26s) 
CPU  0 inst:    3000003 cyc:    1821307 now IPC :1.18749: AVG IPC :1.18731: L2-Pf-HR :0.94830: L2-HR :0.85093: (Sim:0h1m26s) 
CPU  2 inst:    3000003 cyc:    1831147 now IPC :1.17401: AVG IPC :1.17382: L2-Pf-HR :0.83333: L2-HR :0.73522: (Sim:0h1m26s) 
CPU  1 inst:    4000000 cyc:    2690839 now IPC :1.14020: AVG IPC :1.16849: L2-Pf-HR :0.93533: L2-HR :0.81711: (Sim:0h1m53s) 
CPU  3 inst:    4000002 cyc:    2691043 now IPC :1.14020: AVG IPC :1.16851: L2-Pf-HR :0.91399: L2-HR :0.78927: (Sim:0h1m54s) 
CPU  0 inst:    4000000 cyc:    2715568 now IPC :1.11824: AVG IPC :1.15173: L2-Pf-HR :0.94332: L2-HR :0.83104: (Sim:0h1m54s) 
CPU  2 inst:    4000000 cyc:    2720128 now IPC :1.12488: AVG IPC :1.14882: L2-Pf-HR :0.85919: L2-HR :0.74015: (Sim:0h1m55s) 
CPU  1 inst:    5000003 cyc:    3519805 now IPC :1.20633: AVG IPC :1.18083: L2-Pf-HR :0.93394: L2-HR :0.81467: (Sim:0h2m21s) 
CPU  3 inst:    5000003 cyc:    3530009 now IPC :1.19194: AVG IPC :1.17622: L2-Pf-HR :0.91760: L2-HR :0.79345: (Sim:0h2m22s) 
CPU  0 inst:    5000003 cyc:    3570579 now IPC :1.16958: AVG IPC :1.15762: L2-Pf-HR :0.94037: L2-HR :0.82652: (Sim:0h2m23s) 
CPU  2 inst:    5000003 cyc:    3571635 now IPC :1.17439: AVG IPC :1.15722: L2-Pf-HR :0.87768: L2-HR :0.75402: (Sim:0h2m23s) 
CPU  1 inst:    6000001 cyc:    4285421 now IPC :1.30614: AVG IPC :1.20985: L2-Pf-HR :0.93266: L2-HR :0.81047: (Sim:0h2m49s) 
CPU  3 inst:    6000001 cyc:    4326254 now IPC :1.25589: AVG IPC :1.19517: L2-Pf-HR :0.91948: L2-HR :0.79195: (Sim:0h2m50s) 
CPU  0 inst:    6000001 cyc:    4366653 now IPC :1.25616: AVG IPC :1.18078: L2-Pf-HR :0.94084: L2-HR :0.82520: (Sim:0h2m52s) 
CPU  2 inst:    6000001 cyc:    4367421 now IPC :1.25662: AVG IPC :1.18057: L2-Pf-HR :0.88116: L2-HR :0.75272: (Sim:0h2m52s) 
CPU  1 inst:    7000001 cyc:    5019170 now IPC :1.36286: AVG IPC :1.23764: L2-Pf-HR :0.93299: L2-HR :0.81052: (Sim:0h3m15s) 
CPU  3 inst:    7000001 cyc:    5115590 now IPC :1.26689: AVG IPC :1.20886: L2-Pf-HR :0.91834: L2-HR :0.79045: (Sim:0h3m19s) 
CPU  0 inst:    7000001 cyc:    5146692 now IPC :1.28199: AVG IPC :1.19973: L2-Pf-HR :0.94149: L2-HR :0.82577: (Sim:0h3m20s) 
CPU  2 inst:    7000001 cyc:    5146845 now IPC :1.28300: AVG IPC :1.19973: L2-Pf-HR :0.88343: L2-HR :0.75466: (Sim:0h3m20s) 
CPU  1 inst:    8000000 cyc:    5700627 now IPC :1.46744: AVG IPC :1.27081: L2-Pf-HR :0.93252: L2-HR :0.80773: (Sim:0h3m42s) 
CPU  3 inst:    8000000 cyc:    5844565 now IPC :1.37179: AVG IPC :1.23327: L2-Pf-HR :0.91851: L2-HR :0.78874: (Sim:0h3m47s) 
CPU  0 inst:    8000000 cyc:    5886705 now IPC :1.35133: AVG IPC :1.22259: L2-Pf-HR :0.94137: L2-HR :0.82386: (Sim:0h3m49s) 
CPU  2 inst:    8000000 cyc:    5887110 now IPC :1.35087: AVG IPC :1.22252: L2-Pf-HR :0.88363: L2-HR :0.75381: (Sim:0h3m49s) 
CPU  1 inst:    9000002 cyc:    6381199 now IPC :1.46936: AVG IPC :1.29583: L2-Pf-HR :0.93073: L2-HR :0.80511: (Sim:0h4m9s) 
CPU  3 inst:    9000002 cyc:    6564809 now IPC :1.38842: AVG IPC :1.25328: L2-Pf-HR :0.91715: L2-HR :0.78730: (Sim:0h4m16s) 
CPU  2 inst:    9000002 cyc:    6616458 now IPC :1.37109: AVG IPC :1.24175: L2-Pf-HR :0.88710: L2-HR :0.75629: (Sim:0h4m18s) 
CPU  0 inst:    9000002 cyc:    6618409 now IPC :1.36668: AVG IPC :1.24128: L2-Pf-HR :0.94236: L2-HR :0.82541: (Sim:0h4m18s) 
CPU  1 inst:   10000004 cyc:    7060462 now IPC :1.47219: AVG IPC :1.31553: L2-Pf-HR :0.92975: L2-HR :0.80344: (Sim:0h4m36s) 
CPU  3 inst:   10000004 cyc:    7285862 now IPC :1.38686: AVG IPC :1.26855: L2-Pf-HR :0.91780: L2-HR :0.78748: (Sim:0h4m45s) 
CPU  0 inst:   10000004 cyc:    7352453 now IPC :1.36232: AVG IPC :1.25522: L2-Pf-HR :0.94212: L2-HR :0.82468: (Sim:0h4m47s) 
CPU  2 inst:   10000004 cyc:    7352757 now IPC :1.35815: AVG IPC :1.25519: L2-Pf-HR :0.88896: L2-HR :0.75770: (Sim:0h4m47s) 
CPU  1 inst:   11000000 cyc:    7738178 now IPC :1.47554: AVG IPC :1.33157: L2-Pf-HR :0.93058: L2-HR :0.80453: (Sim:0h5m3s) 
CPU  3 inst:   11000000 cyc:    7972001 now IPC :1.45742: AVG IPC :1.28709: L2-Pf-HR :0.91967: L2-HR :0.79059: (Sim:0h5m13s) 
CPU  2 inst:   11000000 cyc:    8061626 now IPC :1.41069: AVG IPC :1.27076: L2-Pf-HR :0.88889: L2-HR :0.75730: (Sim:0h5m16s) 
CPU  0 inst:   11000000 cyc:    8062044 now IPC :1.40926: AVG IPC :1.27066: L2-Pf-HR :0.94277: L2-HR :0.82572: (Sim:0h5m16s) 
CPU  1 inst:   12000001 cyc:    8420925 now IPC :1.46467: AVG IPC :1.34378: L2-Pf-HR :0.93020: L2-HR :0.80422: (Sim:0h5m33s) 
CPU  3 inst:   12000001 cyc:    8656219 now IPC :1.46152: AVG IPC :1.30263: L2-Pf-HR :0.91974: L2-HR :0.79148: (Sim:0h5m42s) 
CPU  0 inst:   12000001 cyc:    8767401 now IPC :1.41772: AVG IPC :1.28398: L2-Pf-HR :0.94301: L2-HR :0.82629: (Sim:0h5m47s) 
CPU  2 inst:   12000001 cyc:    8767673 now IPC :1.41634: AVG IPC :1.28396: L2-Pf-HR :0.89129: L2-HR :0.75960: (Sim:0h5m47s) 
CPU  1 inst:   13000001 cyc:    9134186 now IPC :1.40201: AVG IPC :1.34888: L2-Pf-HR :0.92792: L2-HR :0.80222: (Sim:0h6m1s) 
CPU  3 inst:   13000001 cyc:    9352631 now IPC :1.43593: AVG IPC :1.31372: L2-Pf-HR :0.91887: L2-HR :0.78967: (Sim:0h6m11s) 
CPU  0 inst:   13000000 cyc:    9472938 now IPC :1.41736: AVG IPC :1.29506: L2-Pf-HR :0.94303: L2-HR :0.82756: (Sim:0h6m16s) 
CPU  2 inst:   13000001 cyc:    9473796 now IPC :1.41618: AVG IPC :1.29495: L2-Pf-HR :0.88776: L2-HR :0.75681: (Sim:0h6m16s) 
CPU  1 inst:   14000002 cyc:    9731386 now IPC :1.67448: AVG IPC :1.37110: L2-Pf-HR :0.92951: L2-HR :0.80375: (Sim:0h6m28s) 
CPU  3 inst:   14000002 cyc:    9954529 now IPC :1.66141: AVG IPC :1.33704: L2-Pf-HR :0.92135: L2-HR :0.79156: (Sim:0h6m38s) 
CPU  0 inst:   14000002 cyc:   10103975 now IPC :1.58470: AVG IPC :1.31509: L2-Pf-HR :0.94588: L2-HR :0.83122: (Sim:0h6m44s) 
CPU  2 inst:   14000002 cyc:   10104622 now IPC :1.58522: AVG IPC :1.31501: L2-Pf-HR :0.88958: L2-HR :0.75695: (Sim:0h6m44s) 
CPU  1 inst:   15000000 cyc:   10352337 now IPC :1.61043: AVG IPC :1.38695: L2-Pf-HR :0.93271: L2-HR :0.80527: (Sim:0h6m55s) 
CPU  3 inst:   15000000 cyc:   10557264 now IPC :1.65910: AVG IPC :1.35731: L2-Pf-HR :0.92322: L2-HR :0.79186: (Sim:0h7m4s) 
CPU  0 inst:   15000000 cyc:   10747297 now IPC :1.55443: AVG IPC :1.33085: L2-Pf-HR :0.94871: L2-HR :0.83390: (Sim:0h7m12s) 
CPU  2 inst:   15000000 cyc:   10747501 now IPC :1.55550: AVG IPC :1.33084: L2-Pf-HR :0.89064: L2-HR :0.75518: (Sim:0h7m12s) 
CPU  1 inst:   16000000 cyc:   10986886 now IPC :1.57592: AVG IPC :1.39893: L2-Pf-HR :0.93584: L2-HR :0.80819: (Sim:0h7m22s) 
CPU  3 inst:   16000000 cyc:   11158140 now IPC :1.66424: AVG IPC :1.37542: L2-Pf-HR :0.92581: L2-HR :0.79318: (Sim:0h7m30s) 
CPU  0 inst:   16000000 cyc:   11403243 now IPC :1.52452: AVG IPC :1.34304: L2-Pf-HR :0.94998: L2-HR :0.83422: (Sim:0h7m41s) 
CPU  2 inst:   16000000 cyc:   11403456 now IPC :1.52449: AVG IPC :1.34303: L2-Pf-HR :0.89212: L2-HR :0.75483: (Sim:0h7m41s) 
CPU  1 inst:   17000003 cyc:   11634469 now IPC :1.54421: AVG IPC :1.40776: L2-Pf-HR :0.93786: L2-HR :0.80931: (Sim:0h7m51s) 
CPU  3 inst:   17000003 cyc:   11758838 now IPC :1.66474: AVG IPC :1.39155: L2-Pf-HR :0.92787: L2-HR :0.79398: (Sim:0h7m56s) 
CPU  0 inst:   17000003 cyc:   12068525 now IPC :1.50313: AVG IPC :1.35264: L2-Pf-HR :0.95090: L2-HR :0.83430: (Sim:0h8m9s) 
CPU  2 inst:   17000003 cyc:   12068729 now IPC :1.50315: AVG IPC :1.35263: L2-Pf-HR :0.89626: L2-HR :0.75673: (Sim:0h8m9s) 
CPU  1 inst:   18000000 cyc:   12290085 now IPC :1.52528: AVG IPC :1.41457: L2-Pf-HR :0.93897: L2-HR :0.80980: (Sim:0h8m19s) 
CPU  3 inst:   18000000 cyc:   12363565 now IPC :1.65363: AVG IPC :1.40547: L2-Pf-HR :0.93017: L2-HR :0.79473: (Sim:0h8m22s) 
CPU  0 inst:   18000000 cyc:   12722635 now IPC :1.52879: AVG IPC :1.36245: L2-Pf-HR :0.95134: L2-HR :0.83397: (Sim:0h8m37s) 
CPU  2 inst:   18000000 cyc:   12722859 now IPC :1.52874: AVG IPC :1.36244: L2-Pf-HR :0.89814: L2-HR :0.75635: (Sim:0h8m37s) 
CPU  1 inst:   19000000 cyc:   12998178 now IPC :1.41224: AVG IPC :1.41444: L2-Pf-HR :0.93989: L2-HR :0.81026: (Sim:0h8m48s) 
CPU  3 inst:   19000000 cyc:   13040887 now IPC :1.47640: AVG IPC :1.40945: L2-Pf-HR :0.93176: L2-HR :0.79527: (Sim:0h8m50s) 
CPU  0 inst:   19000000 cyc:   13450772 now IPC :1.37337: AVG IPC :1.36309: L2-Pf-HR :0.95168: L2-HR :0.83405: (Sim:0h9m6s) 
CPU  2 inst:   19000000 cyc:   13452817 now IPC :1.36994: AVG IPC :1.36288: L2-Pf-HR :0.90049: L2-HR :0.75723: (Sim:0h9m6s) 
CPU  1 inst:   20000003 cyc:   13728794 now IPC :1.36871: AVG IPC :1.41182: L2-Pf-HR :0.94110: L2-HR :0.80991: (Sim:0h9m17s) 
CPU  3 inst:   20000003 cyc:   13749031 now IPC :1.41215: AVG IPC :1.40960: L2-Pf-HR :0.93287: L2-HR :0.79514: (Sim:0h9m18s) 
CPU  0 inst:   20000003 cyc:   14132070 now IPC :1.46779: AVG IPC :1.36851: L2-Pf-HR :0.95252: L2-HR :0.83393: (Sim:0h9m34s) 
CPU  2 inst:   20000003 cyc:   14132484 now IPC :1.47131: AVG IPC :1.36849: L2-Pf-HR :0.90103: L2-HR :0.75683: (Sim:0h9m34s) 
CPU  1 inst:   21000004 cyc:   14423418 now IPC :1.43963: AVG IPC :1.41325: L2-Pf-HR :0.94228: L2-HR :0.81013: (Sim:0h9m46s) 
CPU  3 inst:   21000004 cyc:   14428699 now IPC :1.47131: AVG IPC :1.41272: L2-Pf-HR :0.93386: L2-HR :0.79545: (Sim:0h9m47s) 
CPU  0 inst:   21000004 cyc:   14771032 now IPC :1.56504: AVG IPC :1.37762: L2-Pf-HR :0.95374: L2-HR :0.83503: (Sim:0h10m1s) 
CPU  2 inst:   21000004 cyc:   14771236 now IPC :1.56555: AVG IPC :1.37761: L2-Pf-HR :0.90284: L2-HR :0.75775: (Sim:0h10m1s) 
CPU  1 inst:   22000001 cyc:   15094666 now IPC :1.48976: AVG IPC :1.41689: L2-Pf-HR :0.94285: L2-HR :0.81000: (Sim:0h10m15s) 
CPU  3 inst:   22000001 cyc:   15101653 now IPC :1.48598: AVG IPC :1.41621: L2-Pf-HR :0.93506: L2-HR :0.79582: (Sim:0h10m15s) 
CPU  0 inst:   22000001 cyc:   15406183 now IPC :1.57442: AVG IPC :1.38628: L2-Pf-HR :0.95449: L2-HR :0.83524: (Sim:0h10m29s) 
CPU  2 inst:   22000001 cyc:   15406687 now IPC :1.57368: AVG IPC :1.38625: L2-Pf-HR :0.90510: L2-HR :0.75862: (Sim:0h10m29s) 
CPU  1 inst:   23000001 cyc:   15758795 now IPC :1.50573: AVG IPC :1.42088: L2-Pf-HR :0.94410: L2-HR :0.81089: (Sim:0h10m50s) 
CPU  3 inst:   23000001 cyc:   15771948 now IPC :1.49188: AVG IPC :1.41964: L2-Pf-HR :0.93725: L2-HR :0.79778: (Sim:0h10m51s) 
CPU  0 inst:   23000001 cyc:   16035297 now IPC :1.58954: AVG IPC :1.39478: L2-Pf-HR :0.95557: L2-HR :0.83617: (Sim:0h11m11s) 
CPU  2 inst:   23000001 cyc:   16035966 now IPC :1.58912: AVG IPC :1.39473: L2-Pf-HR :0.90666: L2-HR :0.75893: (Sim:0h11m11s) 
CPU  1 inst:   24000000 cyc:   16416223 now IPC :1.52108: AVG IPC :1.42515: L2-Pf-HR :0.94531: L2-HR :0.81154: (Sim:0h11m39s) 
CPU  3 inst:   24000000 cyc:   16436272 now IPC :1.50529: AVG IPC :1.42332: L2-Pf-HR :0.93921: L2-HR :0.79902: (Sim:0h11m40s) 
CPU  0 inst:   24000000 cyc:   16682891 now IPC :1.54418: AVG IPC :1.40094: L2-Pf-HR :0.95634: L2-HR :0.83686: (Sim:0h11m57s) 
CPU  2 inst:   24000000 cyc:   16683603 now IPC :1.54407: AVG IPC :1.40089: L2-Pf-HR :0.90888: L2-HR :0.76030: (Sim:0h11m57s) 
CPU  1 inst:   25000004 cyc:   17288215 now IPC :1.14680: AVG IPC :1.41027: L2-Pf-HR :0.94483: L2-HR :0.81098: (Sim:0h12m31s) 
CPU  3 inst:   25000004 cyc:   17307500 now IPC :1.14781: AVG IPC :1.40862: L2-Pf-HR :0.93877: L2-HR :0.79841: (Sim:0h12m32s) 
CPU  2 inst:   25000002 cyc:   17637165 now IPC :1.04870: AVG IPC :1.38073: L2-Pf-HR :0.90746: L2-HR :0.75848: (Sim:0h12m51s) 
CPU  0 inst:   25000004 cyc:   17646173 now IPC :1.03812: AVG IPC :1.37997: L2-Pf-HR :0.95675: L2-HR :0.83740: (Sim:0h12m52s) 
CPU  1 inst:   26000004 cyc:   18170486 now IPC :1.13344: AVG IPC :1.39606: L2-Pf-HR :0.94549: L2-HR :0.81179: (Sim:0h13m22s) 
CPU  3 inst:   26000004 cyc:   18182742 now IPC :1.14254: AVG IPC :1.39508: L2-Pf-HR :0.94004: L2-HR :0.79956: (Sim:0h13m23s) 
CPU  2 inst:   26000004 cyc:   18524697 now IPC :1.12672: AVG IPC :1.36788: L2-Pf-HR :0.90869: L2-HR :0.75874: (Sim:0h13m43s) 
CPU  0 inst:   26000004 cyc:   18546300 now IPC :1.11095: AVG IPC :1.36618: L2-Pf-HR :0.95794: L2-HR :0.83906: (Sim:0h13m44s) 
CPU  1 inst:   27000005 cyc:   19000746 now IPC :1.20444: AVG IPC :1.38723: L2-Pf-HR :0.94618: L2-HR :0.81201: (Sim:0h14m11s) 
CPU  3 inst:   27000005 cyc:   19022743 now IPC :1.19048: AVG IPC :1.38556: L2-Pf-HR :0.94103: L2-HR :0.79974: (Sim:0h14m13s) 
CPU  2 inst:   27000005 cyc:   19383794 now IPC :1.16401: AVG IPC :1.35836: L2-Pf-HR :0.90971: L2-HR :0.75813: (Sim:0h14m34s) 
CPU  0 inst:   27000005 cyc:   19435250 now IPC :1.12492: AVG IPC :1.35456: L2-Pf-HR :0.95900: L2-HR :0.84015: (Sim:0h14m37s) 
CPU  1 inst:   28000005 cyc:   19857504 now IPC :1.16719: AVG IPC :1.37725: L2-Pf-HR :0.94781: L2-HR :0.81363: (Sim:0h15m2s) 
CPU  3 inst:   28000005 cyc:   19875054 now IPC :1.17328: AVG IPC :1.37598: L2-Pf-HR :0.94188: L2-HR :0.80017: (Sim:0h15m3s) 
CPU  2 inst:   28000005 cyc:   20212779 now IPC :1.20629: AVG IPC :1.35181: L2-Pf-HR :0.91060: L2-HR :0.75802: (Sim:0h15m23s) 
CPU  0 inst:   28000005 cyc:   20284088 now IPC :1.17808: AVG IPC :1.34680: L2-Pf-HR :0.95945: L2-HR :0.84003: (Sim:0h15m27s) 
CPU  1 inst:   29000000 cyc:   20679172 now IPC :1.21703: AVG IPC :1.37056: L2-Pf-HR :0.94880: L2-HR :0.81427: (Sim:0h15m52s) 
CPU  3 inst:   29000000 cyc:   20692702 now IPC :1.22301: AVG IPC :1.36964: L2-Pf-HR :0.94204: L2-HR :0.80012: (Sim:0h15m53s) 
CPU  2 inst:   29000000 cyc:   21002213 now IPC :1.26672: AVG IPC :1.34845: L2-Pf-HR :0.91273: L2-HR :0.75920: (Sim:0h16m12s) 
CPU  0 inst:   29000000 cyc:   21082315 now IPC :1.25277: AVG IPC :1.34307: L2-Pf-HR :0.95971: L2-HR :0.83996: (Sim:0h16m18s) 
CPU  1 inst:   30000002 cyc:   21486220 now IPC :1.23909: AVG IPC :1.36539: L2-Pf-HR :0.94913: L2-HR :0.81439: (Sim:0h16m43s) 
CPU  3 inst:   30000002 cyc:   21495613 now IPC :1.24547: AVG IPC :1.36478: L2-Pf-HR :0.94277: L2-HR :0.80022: (Sim:0h16m43s) 
CPU  2 inst:   30000002 cyc:   21777286 now IPC :1.29020: AVG IPC :1.34628: L2-Pf-HR :0.91369: L2-HR :0.75911: (Sim:0h17m0s) 
CPU  0 inst:   30000002 cyc:   21884770 now IPC :1.24618: AVG IPC :1.33935: L2-Pf-HR :0.96014: L2-HR :0.83985: (Sim:0h17m6s) 
CPU  1 inst:   31000002 cyc:   22433218 now IPC :1.05597: AVG IPC :1.35173: L2-Pf-HR :0.94980: L2-HR :0.81483: (Sim:0h17m35s) 
CPU  3 inst:   31000002 cyc:   22476675 now IPC :1.01930: AVG IPC :1.34901: L2-Pf-HR :0.94316: L2-HR :0.80043: (Sim:0h17m38s) 
CPU  2 inst:   31000002 cyc:   22706242 now IPC :1.07648: AVG IPC :1.33475: L2-Pf-HR :0.91505: L2-HR :0.75978: (Sim:0h17m50s) 
CPU  0 inst:   31000002 cyc:   22821846 now IPC :1.06715: AVG IPC :1.32767: L2-Pf-HR :0.96055: L2-HR :0.84004: (Sim:0h17m57s) 
CPU  1 inst:   32000003 cyc:   23333120 now IPC :1.11123: AVG IPC :1.34205: L2-Pf-HR :0.95047: L2-HR :0.81461: (Sim:0h18m26s) 
CPU  3 inst:   32000003 cyc:   23433988 now IPC :1.04459: AVG IPC :1.33603: L2-Pf-HR :0.94381: L2-HR :0.80037: (Sim:0h18m32s) 
CPU  2 inst:   32000003 cyc:   23595061 now IPC :1.12509: AVG IPC :1.32651: L2-Pf-HR :0.91653: L2-HR :0.76015: (Sim:0h18m41s) 
CPU  0 inst:   32000003 cyc:   23699672 now IPC :1.13918: AVG IPC :1.32039: L2-Pf-HR :0.96077: L2-HR :0.83973: (Sim:0h18m48s) 
CPU  1 inst:   33000000 cyc:   24164814 now IPC :1.20236: AVG IPC :1.33704: L2-Pf-HR :0.95086: L2-HR :0.81450: (Sim:0h19m15s) 
CPU  3 inst:   33000000 cyc:   24319363 now IPC :1.12946: AVG IPC :1.32820: L2-Pf-HR :0.94428: L2-HR :0.80038: (Sim:0h19m24s) 
CPU  2 inst:   33000000 cyc:   24470320 now IPC :1.14252: AVG IPC :1.31965: L2-Pf-HR :0.91758: L2-HR :0.76079: (Sim:0h19m33s) 
CPU  0 inst:   33000000 cyc:   24581883 now IPC :1.13351: AVG IPC :1.31340: L2-Pf-HR :0.96123: L2-HR :0.84021: (Sim:0h19m40s) 
CPU  1 inst:   34000003 cyc:   25009310 now IPC :1.18414: AVG IPC :1.33167: L2-Pf-HR :0.95122: L2-HR :0.81444: (Sim:0h20m5s) 
CPU  3 inst:   34000003 cyc:   25212058 now IPC :1.12021: AVG IPC :1.32054: L2-Pf-HR :0.94484: L2-HR :0.80054: (Sim:0h20m16s) 
CPU  2 inst:   34000003 cyc:   25368797 now IPC :1.11300: AVG IPC :1.31204: L2-Pf-HR :0.91911: L2-HR :0.76141: (Sim:0h20m25s) 
CPU  0 inst:   34000003 cyc:   25475991 now IPC :1.11844: AVG IPC :1.30629: L2-Pf-HR :0.96174: L2-HR :0.84037: (Sim:0h20m32s) 
CPU  1 inst:   35000001 cyc:   25869730 now IPC :1.16222: AVG IPC :1.32581: L2-Pf-HR :0.95174: L2-HR :0.81480: (Sim:0h20m54s) 
CPU  3 inst:   35000002 cyc:   26104606 now IPC :1.12039: AVG IPC :1.31343: L2-Pf-HR :0.94557: L2-HR :0.80137: (Sim:0h21m8s) 
CPU  2 inst:   35000002 cyc:   26263086 now IPC :1.11821: AVG IPC :1.30518: L2-Pf-HR :0.91987: L2-HR :0.76156: (Sim:0h21m18s) 
CPU  0 inst:   35000001 cyc:   26380443 now IPC :1.10564: AVG IPC :1.29914: L2-Pf-HR :0.96231: L2-HR :0.84082: (Sim:0h21m24s) 
CPU  1 inst:   36000000 cyc:   26718873 now IPC :1.17766: AVG IPC :1.32092: L2-Pf-HR :0.95210: L2-HR :0.81501: (Sim:0h21m45s) 
CPU  3 inst:   36000000 cyc:   26975916 now IPC :1.14769: AVG IPC :1.30787: L2-Pf-HR :0.94568: L2-HR :0.80163: (Sim:0h21m59s) 
CPU  2 inst:   36000000 cyc:   27161423 now IPC :1.11317: AVG IPC :1.29859: L2-Pf-HR :0.92113: L2-HR :0.76248: (Sim:0h22m9s) 
CPU  0 inst:   36000000 cyc:   27305237 now IPC :1.08132: AVG IPC :1.29149: L2-Pf-HR :0.96279: L2-HR :0.84126: (Sim:0h22m16s) 
CPU  1 inst:   37000001 cyc:   27818364 now IPC :0.90951: AVG IPC :1.30407: L2-Pf-HR :0.95157: L2-HR :0.81428: (Sim:0h22m41s) 
CPU  3 inst:   37000001 cyc:   28051529 now IPC :0.92970: AVG IPC :1.29285: L2-Pf-HR :0.94488: L2-HR :0.80104: (Sim:0h22m55s) 
CPU  2 inst:   37000001 cyc:   28229446 now IPC :0.93631: AVG IPC :1.28439: L2-Pf-HR :0.91965: L2-HR :0.76122: (Sim:0h23m5s) 
CPU  0 inst:   37000001 cyc:   28382539 now IPC :0.92825: AVG IPC :1.27721: L2-Pf-HR :0.96265: L2-HR :0.84141: (Sim:0h23m13s) 
CPU  1 inst:   38000001 cyc:   28751871 now IPC :1.07123: AVG IPC :1.29624: L2-Pf-HR :0.95226: L2-HR :0.81491: (Sim:0h23m31s) 
CPU  3 inst:   38000001 cyc:   28943209 now IPC :1.12148: AVG IPC :1.28738: L2-Pf-HR :0.94519: L2-HR :0.80151: (Sim:0h23m38s) 
CPU  2 inst:   38000001 cyc:   29137874 now IPC :1.10080: AVG IPC :1.27847: L2-Pf-HR :0.92014: L2-HR :0.76139: (Sim:0h23m45s) 
CPU  0 inst:   38000001 cyc:   29320089 now IPC :1.06661: AVG IPC :1.27024: L2-Pf-HR :0.96322: L2-HR :0.84239: (Sim:0h23m51s) 
CPU  1 inst:   39000001 cyc:   29700014 now IPC :1.05469: AVG IPC :1.28827: L2-Pf-HR :0.95257: L2-HR :0.81508: (Sim:0h24m4s) 
CPU  3 inst:   39000001 cyc:   29858561 now IPC :1.09248: AVG IPC :1.28120: L2-Pf-HR :0.94518: L2-HR :0.80134: (Sim:0h24m12s) 
CPU  2 inst:   39000001 cyc:   30058827 now IPC :1.08583: AVG IPC :1.27237: L2-Pf-HR :0.92030: L2-HR :0.76096: (Sim:0h24m23s) 
CPU  0 inst:   39000001 cyc:   30281648 now IPC :1.03998: AVG IPC :1.26269: L2-Pf-HR :0.96383: L2-HR :0.84312: (Sim:0h24m36s) 
CPU  1 inst:   40000002 cyc:   30656665 now IPC :1.04531: AVG IPC :1.28043: L2-Pf-HR :0.95301: L2-HR :0.81579: (Sim:0h24m57s) 
CPU  3 inst:   40000003 cyc:   30773594 now IPC :1.09286: AVG IPC :1.27542: L2-Pf-HR :0.94563: L2-HR :0.80159: (Sim:0h25m4s) 
CPU  2 inst:   40000003 cyc:   30949441 now IPC :1.12282: AVG IPC :1.26793: L2-Pf-HR :0.92059: L2-HR :0.76074: (Sim:0h25m13s) 
CPU  0 inst:   40000002 cyc:   31213760 now IPC :1.07283: AVG IPC :1.25684: L2-Pf-HR :0.96399: L2-HR :0.84292: (Sim:0h25m22s) 
CPU  1 inst:   41000001 cyc:   31616987 now IPC :1.04132: AVG IPC :1.27294: L2-Pf-HR :0.95279: L2-HR :0.81574: (Sim:0h25m36s) 
CPU  3 inst:   41000001 cyc:   31716900 now IPC :1.06010: AVG IPC :1.26881: L2-Pf-HR :0.94646: L2-HR :0.80193: (Sim:0h25m40s) 
CPU  2 inst:   41000001 cyc:   31853097 now IPC :1.10661: AVG IPC :1.26320: L2-Pf-HR :0.92182: L2-HR :0.76154: (Sim:0h25m45s) 
CPU  0 inst:   41000001 cyc:   32120742 now IPC :1.10256: AVG IPC :1.25234: L2-Pf-HR :0.96403: L2-HR :0.84278: (Sim:0h25m53s) 
CPU  1 inst:   42000005 cyc:   32591561 now IPC :1.02609: AVG IPC :1.26533: L2-Pf-HR :0.95319: L2-HR :0.81582: (Sim:0h26m9s) 
CPU  3 inst:   42000005 cyc:   32700335 now IPC :1.01685: AVG IPC :1.26100: L2-Pf-HR :0.94664: L2-HR :0.80180: (Sim:0h26m13s) 
CPU  2 inst:   42000004 cyc:   32808116 now IPC :1.04710: AVG IPC :1.25672: L2-Pf-HR :0.92205: L2-HR :0.76125: (Sim:0h26m16s) 
CPU  0 inst:   42000005 cyc:   33057739 now IPC :1.06724: AVG IPC :1.24694: L2-Pf-HR :0.96432: L2-HR :0.84265: (Sim:0h26m24s) 
CPU  1 inst:   43000005 cyc:   33582618 now IPC :1.00902: AVG IPC :1.25754: L2-Pf-HR :0.95339: L2-HR :0.81606: (Sim:0h26m41s) 
CPU  3 inst:   43000005 cyc:   33737864 now IPC :0.96383: AVG IPC :1.25159: L2-Pf-HR :0.94703: L2-HR :0.80202: (Sim:0h26m46s) 
CPU  2 inst:   43000005 cyc:   33821336 now IPC :0.98695: AVG IPC :1.24840: L2-Pf-HR :0.92260: L2-HR :0.76154: (Sim:0h26m49s) 
CPU  0 inst:   43000005 cyc:   34039554 now IPC :1.01852: AVG IPC :1.24015: L2-Pf-HR :0.96462: L2-HR :0.84283: (Sim:0h26m56s) 
CPU  1 inst:   44000002 cyc:   34556825 now IPC :1.02647: AVG IPC :1.25083: L2-Pf-HR :0.95339: L2-HR :0.81573: (Sim:0h27m12s) 
CPU  3 inst:   44000002 cyc:   34803719 now IPC :0.93821: AVG IPC :1.24171: L2-Pf-HR :0.94696: L2-HR :0.80166: (Sim:0h27m20s) 
CPU  2 inst:   44000002 cyc:   34880549 now IPC :0.94409: AVG IPC :1.23889: L2-Pf-HR :0.92308: L2-HR :0.76160: (Sim:0h27m23s) 
CPU  0 inst:   44000002 cyc:   35025831 now IPC :1.01391: AVG IPC :1.23360: L2-Pf-HR :0.96502: L2-HR :0.84277: (Sim:0h27m27s) 
CPU  1 inst:   45000002 cyc:   35540552 now IPC :1.01654: AVG IPC :1.24417: L2-Pf-HR :0.95353: L2-HR :0.81553: (Sim:0h27m44s) 
CPU  3 inst:   45000002 cyc:   35858869 now IPC :0.94773: AVG IPC :1.23282: L2-Pf-HR :0.94672: L2-HR :0.80150: (Sim:0h27m54s) 
CPU  2 inst:   45000002 cyc:   35976915 now IPC :0.91210: AVG IPC :1.22865: L2-Pf-HR :0.92361: L2-HR :0.76204: (Sim:0h27m57s) 
CPU  0 inst:   45000002 cyc:   36078389 now IPC :0.95007: AVG IPC :1.22510: L2-Pf-HR :0.96532: L2-HR :0.84301: (Sim:0h28m1s) 
CPU  1 inst:   46000004 cyc:   36540042 now IPC :1.00051: AVG IPC :1.23732: L2-Pf-HR :0.95397: L2-HR :0.81552: (Sim:0h28m16s) 
CPU  3 inst:   46000002 cyc:   36884971 now IPC :0.97456: AVG IPC :1.22544: L2-Pf-HR :0.94681: L2-HR :0.80147: (Sim:0h28m32s) 
CPU  2 inst:   46000004 cyc:   37053897 now IPC :0.92852: AVG IPC :1.21969: L2-Pf-HR :0.92466: L2-HR :0.76251: (Sim:0h28m41s) 
CPU  0 inst:   46000003 cyc:   37160356 now IPC :0.92424: AVG IPC :1.21610: L2-Pf-HR :0.96559: L2-HR :0.84303: (Sim:0h28m47s) 
CPU  1 inst:   47000003 cyc:   37586690 now IPC :0.95543: AVG IPC :1.22926: L2-Pf-HR :0.95453: L2-HR :0.81580: (Sim:0h29m9s) 
CPU  3 inst:   47000003 cyc:   37898863 now IPC :0.98630: AVG IPC :1.21887: L2-Pf-HR :0.94732: L2-HR :0.80199: (Sim:0h29m25s) 
CPU  2 inst:   47000003 cyc:   38057840 now IPC :0.99607: AVG IPC :1.21364: L2-Pf-HR :0.92515: L2-HR :0.76249: (Sim:0h29m33s) 
CPU  0 inst:   47000003 cyc:   38270254 now IPC :0.90098: AVG IPC :1.20672: L2-Pf-HR :0.96587: L2-HR :0.84323: (Sim:0h29m44s) 
CPU  1 inst:   48000003 cyc:   38679605 now IPC :0.91498: AVG IPC :1.22015: L2-Pf-HR :0.95496: L2-HR :0.81613: (Sim:0h30m6s) 
CPU  3 inst:   48000003 cyc:   38906698 now IPC :0.99223: AVG IPC :1.21285: L2-Pf-HR :0.94747: L2-HR :0.80236: (Sim:0h30m18s) 
CPU  2 inst:   48000003 cyc:   39070603 now IPC :0.98740: AVG IPC :1.20762: L2-Pf-HR :0.92584: L2-HR :0.76319: (Sim:0h30m25s) 
CPU  0 inst:   48000003 cyc:   39407383 now IPC :0.87941: AVG IPC :1.19703: L2-Pf-HR :0.96621: L2-HR :0.84356: (Sim:0h30m41s) 
CPU  1 inst:   49000005 cyc:   39910159 now IPC :0.81264: AVG IPC :1.20727: L2-Pf-HR :0.95462: L2-HR :0.81581: (Sim:0h31m4s) 
CPU  3 inst:   49000005 cyc:   40167910 now IPC :0.79289: AVG IPC :1.19933: L2-Pf-HR :0.94692: L2-HR :0.80193: (Sim:0h31m17s) 
CPU  2 inst:   49000005 cyc:   40296502 now IPC :0.81573: AVG IPC :1.19540: L2-Pf-HR :0.92489: L2-HR :0.76227: (Sim:0h31m24s) 
CPU  0 inst:   49000005 cyc:   40677415 now IPC :0.78738: AVG IPC :1.18393: L2-Pf-HR :0.96600: L2-HR :0.84366: (Sim:0h31m43s) 
CPU  1 inst:   50000000 cyc:   41079718 now IPC :0.85502: AVG IPC :1.19699: L2-Pf-HR :0.95498: L2-HR :0.81613: (Sim:0h32m3s) 
CPU  3 inst:   50000000 cyc:   41201731 now IPC :0.96728: AVG IPC :1.19337: L2-Pf-HR :0.94708: L2-HR :0.80221: (Sim:0h32m9s) 
CPU  2 inst:   50000000 cyc:   41333511 now IPC :0.96431: AVG IPC :1.18946: L2-Pf-HR :0.92537: L2-HR :0.76240: (Sim:0h32m16s) 
CPU  0 inst:   50000000 cyc:   41887742 now IPC :0.82622: AVG IPC :1.17335: L2-Pf-HR :0.96631: L2-HR :0.84429: (Sim:0h32m42s) 
CPU  1 inst:   51000002 cyc:   42357281 now IPC :0.78274: AVG IPC :1.18420: L2-Pf-HR :0.95534: L2-HR :0.81632: (Sim:0h33m4s) 
CPU  3 inst:   51000002 cyc:   42481578 now IPC :0.78134: AVG IPC :1.18066: L2-Pf-HR :0.94738: L2-HR :0.80226: (Sim:0h33m10s) 
CPU  2 inst:   51000002 cyc:   42521353 now IPC :0.84186: AVG IPC :1.17953: L2-Pf-HR :0.92571: L2-HR :0.76213: (Sim:0h33m12s) 
CPU  0 inst:   51000002 cyc:   42977129 now IPC :0.91795: AVG IPC :1.16672: L2-Pf-HR :0.96690: L2-HR :0.84493: (Sim:0h33m34s) 
CPU  1 inst:   52000001 cyc:   43428045 now IPC :0.93391: AVG IPC :1.17789: L2-Pf-HR :0.95574: L2-HR :0.81687: (Sim:0h33m57s) 
CPU  3 inst:   52000000 cyc:   43678524 now IPC :0.83546: AVG IPC :1.17099: L2-Pf-HR :0.94796: L2-HR :0.80254: (Sim:0h34m9s) 
CPU  2 inst:   52000001 cyc:   43752185 now IPC :0.81246: AVG IPC :1.16896: L2-Pf-HR :0.92584: L2-HR :0.76187: (Sim:0h34m13s) 
CPU  0 inst:   52000002 cyc:   44042866 now IPC :0.93832: AVG IPC :1.16107: L2-Pf-HR :0.96699: L2-HR :0.84473: (Sim:0h34m27s) 
CPU  1 inst:   53000003 cyc:   44471738 now IPC :0.95814: AVG IPC :1.17262: L2-Pf-HR :0.95605: L2-HR :0.81715: (Sim:0h34m49s) 
CPU  3 inst:   53000003 cyc:   44812686 now IPC :0.88171: AVG IPC :1.16350: L2-Pf-HR :0.94856: L2-HR :0.80285: (Sim:0h35m6s) 
CPU  2 inst:   53000003 cyc:   44906401 now IPC :0.86639: AVG IPC :1.16101: L2-Pf-HR :0.92649: L2-HR :0.76248: (Sim:0h35m11s) 
CPU  0 inst:   53000003 cyc:   45091450 now IPC :0.95367: AVG IPC :1.15614: L2-Pf-HR :0.96702: L2-HR :0.84465: (Sim:0h35m21s) 
CPU  1 inst:   54000000 cyc:   45534985 now IPC :0.94051: AVG IPC :1.16708: L2-Pf-HR :0.95646: L2-HR :0.81735: (Sim:0h35m43s) 
CPU  3 inst:   54000000 cyc:   45862485 now IPC :0.95256: AVG IPC :1.15857: L2-Pf-HR :0.94871: L2-HR :0.80275: (Sim:0h36m0s) 
CPU  2 inst:   54000000 cyc:   45970655 now IPC :0.93962: AVG IPC :1.15578: L2-Pf-HR :0.92695: L2-HR :0.76229: (Sim:0h36m6s) 
CPU  0 inst:   54000000 cyc:   46143202 now IPC :0.95079: AVG IPC :1.15136: L2-Pf-HR :0.96718: L2-HR :0.84448: (Sim:0h36m14s) 
CPU  1 inst:   55000001 cyc:   46561051 now IPC :0.97460: AVG IPC :1.16274: L2-Pf-HR :0.95687: L2-HR :0.81757: (Sim:0h36m37s) 
CPU  3 inst:   55000001 cyc:   46863720 now IPC :0.99877: AVG IPC :1.15508: L2-Pf-HR :0.94911: L2-HR :0.80291: (Sim:0h36m53s) 
CPU  2 inst:   55000001 cyc:   46999159 now IPC :0.97229: AVG IPC :1.15167: L2-Pf-HR :0.92730: L2-HR :0.76253: (Sim:0h37m0s) 
CPU  0 inst:   55000004 cyc:   47184181 now IPC :0.96064: AVG IPC :1.14706: L2-Pf-HR :0.96737: L2-HR :0.84459: (Sim:0h37m10s) 
CPU  1 inst:   56000004 cyc:   47612942 now IPC :0.95067: AVG IPC :1.15796: L2-Pf-HR :0.95714: L2-HR :0.81746: (Sim:0h37m32s) 
CPU  3 inst:   56000004 cyc:   47855573 now IPC :1.00822: AVG IPC :1.15197: L2-Pf-HR :0.94926: L2-HR :0.80283: (Sim:0h37m45s) 
CPU  2 inst:   56000004 cyc:   47980176 now IPC :1.01935: AVG IPC :1.14891: L2-Pf-HR :0.92767: L2-HR :0.76264: (Sim:0h37m52s) 
CPU  0 inst:   56000001 cyc:   48223316 now IPC :0.96234: AVG IPC :1.14300: L2-Pf-HR :0.96763: L2-HR :0.84459: (Sim:0h38m5s) 
CPU  1 inst:   57000000 cyc:   48643427 now IPC :0.97041: AVG IPC :1.15391: L2-Pf-HR :0.95743: L2-HR :0.81741: (Sim:0h38m27s) 
CPU  3 inst:   57000004 cyc:   48852399 now IPC :1.00318: AVG IPC :1.14887: L2-Pf-HR :0.94955: L2-HR :0.80291: (Sim:0h38m38s) 
CPU  2 inst:   57000003 cyc:   48981670 now IPC :0.99851: AVG IPC :1.14577: L2-Pf-HR :0.92801: L2-HR :0.76284: (Sim:0h38m45s) 
CPU  0 inst:   57000005 cyc:   49268737 now IPC :0.95656: AVG IPC :1.13896: L2-Pf-HR :0.96792: L2-HR :0.84477: (Sim:0h39m0s) 
CPU  1 inst:   58000001 cyc:   49689330 now IPC :0.95611: AVG IPC :1.14966: L2-Pf-HR :0.95780: L2-HR :0.81747: (Sim:0h39m22s) 
CPU  3 inst:   58000001 cyc:   49858642 now IPC :0.99379: AVG IPC :1.14568: L2-Pf-HR :0.94967: L2-HR :0.80291: (Sim:0h39m31s) 
CPU  2 inst:   58000001 cyc:   49988565 now IPC :0.99315: AVG IPC :1.14264: L2-Pf-HR :0.92862: L2-HR :0.76316: (Sim:0h39m38s) 
CPU  0 inst:   58000001 cyc:   50354416 now IPC :0.92108: AVG IPC :1.13417: L2-Pf-HR :0.96809: L2-HR :0.84479: (Sim:0h39m57s) 
CPU  1 inst:   59000003 cyc:   50781318 now IPC :0.91576: AVG IPC :1.14453: L2-Pf-HR :0.95825: L2-HR :0.81777: (Sim:0h40m18s) 
CPU  3 inst:   59000003 cyc:   50882639 now IPC :0.97657: AVG IPC :1.14221: L2-Pf-HR :0.95023: L2-HR :0.80347: (Sim:0h40m23s) 
CPU  2 inst:   59000003 cyc:   51002995 now IPC :0.98578: AVG IPC :1.13946: L2-Pf-HR :0.92904: L2-HR :0.76324: (Sim:0h40m30s) 
CPU  0 inst:   59000003 cyc:   51443041 now IPC :0.91859: AVG IPC :1.12952: L2-Pf-HR :0.96839: L2-HR :0.84502: (Sim:0h40m52s) 
CPU  1 inst:   60000001 cyc:   51888443 now IPC :0.90324: AVG IPC :1.13928: L2-Pf-HR :0.95857: L2-HR :0.81800: (Sim:0h41m14s) 
CPU  3 inst:   60000001 cyc:   52039451 now IPC :0.86444: AVG IPC :1.13592: L2-Pf-HR :0.95054: L2-HR :0.80383: (Sim:0h41m22s) 
CPU  2 inst:   60000001 cyc:   52110174 now IPC :0.90319: AVG IPC :1.13434: L2-Pf-HR :0.92954: L2-HR :0.76382: (Sim:0h41m26s) 
CPU  0 inst:   60000001 cyc:   52513705 now IPC :0.93400: AVG IPC :1.12546: L2-Pf-HR :0.96849: L2-HR :0.84520: (Sim:0h41m46s) 
CPU  1 inst:   61000002 cyc:   53018102 now IPC :0.88522: AVG IPC :1.13377: L2-Pf-HR :0.95873: L2-HR :0.81832: (Sim:0h42m10s) 
CPU  3 inst:   61000002 cyc:   53199359 now IPC :0.86214: AVG IPC :1.12984: L2-Pf-HR :0.95056: L2-HR :0.80374: (Sim:0h42m20s) 
CPU  2 inst:   61000002 cyc:   53238937 now IPC :0.88593: AVG IPC :1.12898: L2-Pf-HR :0.92863: L2-HR :0.76284: (Sim:0h42m22s) 
CPU  0 inst:   61000002 cyc:   53600744 now IPC :0.91993: AVG IPC :1.12121: L2-Pf-HR :0.96829: L2-HR :0.84450: (Sim:0h42m40s) 
CPU  1 inst:   62000002 cyc:   54143688 now IPC :0.88843: AVG IPC :1.12857: L2-Pf-HR :0.95884: L2-HR :0.81847: (Sim:0h43m8s) 
CPU  3 inst:   62000002 cyc:   54234524 now IPC :0.96603: AVG IPC :1.12665: L2-Pf-HR :0.95043: L2-HR :0.80291: (Sim:0h43m13s) 
CPU  2 inst:   62000002 cyc:   54261173 now IPC :0.97825: AVG IPC :1.12608: L2-Pf-HR :0.92837: L2-HR :0.76227: (Sim:0h43m14s) 
CPU  0 inst:   62000002 cyc:   54710409 now IPC :0.90117: AVG IPC :1.11667: L2-Pf-HR :0.96823: L2-HR :0.84410: (Sim:0h43m36s) 
CPU  1 inst:   63000003 cyc:   55298148 now IPC :0.86621: AVG IPC :1.12300: L2-Pf-HR :0.95895: L2-HR :0.81782: (Sim:0h44m5s) 
CPU  3 inst:   63000003 cyc:   55362988 now IPC :0.88616: AVG IPC :1.12166: L2-Pf-HR :0.95052: L2-HR :0.80220: (Sim:0h44m8s) 
CPU  2 inst:   63000003 cyc:   55373171 now IPC :0.89928: AVG IPC :1.12145: L2-Pf-HR :0.92874: L2-HR :0.76198: (Sim:0h44m8s) 
CPU  0 inst:   63000003 cyc:   55943917 now IPC :0.81070: AVG IPC :1.10980: L2-Pf-HR :0.96837: L2-HR :0.84360: (Sim:0h44m35s) 
CPU  1 inst:   64000005 cyc:   56384039 now IPC :0.92090: AVG IPC :1.11904: L2-Pf-HR :0.95898: L2-HR :0.81697: (Sim:0h44m56s) 
CPU  3 inst:   64000005 cyc:   56681629 now IPC :0.75836: AVG IPC :1.11306: L2-Pf-HR :0.95072: L2-HR :0.80166: (Sim:0h45m9s) 
CPU  2 inst:   64000005 cyc:   56683821 now IPC :0.76298: AVG IPC :1.11301: L2-Pf-HR :0.92903: L2-HR :0.76159: (Sim:0h45m9s) 
CPU  0 inst:   64000005 cyc:   57144688 now IPC :0.83280: AVG IPC :1.10388: L2-Pf-HR :0.96864: L2-HR :0.84351: (Sim:0h45m28s) 
CPU  1 inst:   65000001 cyc:   57877077 now IPC :0.66977: AVG IPC :1.10725: L2-Pf-HR :0.95848: L2-HR :0.81631: (Sim:0h45m59s) 
CPU  2 inst:   65000005 cyc:   58261646 now IPC :0.63378: AVG IPC :1.09981: L2-Pf-HR :0.92810: L2-HR :0.76094: (Sim:0h46m17s) 
CPU  3 inst:   65000001 cyc:   58273285 now IPC :0.62827: AVG IPC :1.09959: L2-Pf-HR :0.95012: L2-HR :0.80083: (Sim:0h46m18s) 
CPU  0 inst:   65000000 cyc:   58479981 now IPC :0.74890: AVG IPC :1.09563: L2-Pf-HR :0.96836: L2-HR :0.84328: (Sim:0h46m27s) 
CPU  1 inst:   66000000 cyc:   58991701 now IPC :0.89716: AVG IPC :1.10321: L2-Pf-HR :0.95864: L2-HR :0.81654: (Sim:0h46m51s) 
CPU  2 inst:   66000000 cyc:   59663849 now IPC :0.71316: AVG IPC :1.09057: L2-Pf-HR :0.92844: L2-HR :0.76139: (Sim:0h47m20s) 
CPU  3 inst:   66000000 cyc:   59798488 now IPC :0.65565: AVG IPC :1.08808: L2-Pf-HR :0.95042: L2-HR :0.80127: (Sim:0h47m26s) 
CPU  0 inst:   66000000 cyc:   59869947 now IPC :0.71944: AVG IPC :1.08676: L2-Pf-HR :0.96860: L2-HR :0.84375: (Sim:0h47m29s) 
CPU  1 inst:   67000000 cyc:   60356997 now IPC :0.73244: AVG IPC :1.09469: L2-Pf-HR :0.95889: L2-HR :0.81665: (Sim:0h47m50s) 
CPU  2 inst:   67000005 cyc:   60773522 now IPC :0.90117: AVG IPC :1.08706: L2-Pf-HR :0.92866: L2-HR :0.76132: (Sim:0h48m10s) 
CPU  3 inst:   67000000 cyc:   61081208 now IPC :0.77959: AVG IPC :1.08150: L2-Pf-HR :0.95067: L2-HR :0.80127: (Sim:0h48m25s) 
CPU  0 inst:   67000003 cyc:   61301800 now IPC :0.69840: AVG IPC :1.07754: L2-Pf-HR :0.96887: L2-HR :0.84411: (Sim:0h48m35s) 
CPU  1 inst:   68000000 cyc:   61699758 now IPC :0.74473: AVG IPC :1.08695: L2-Pf-HR :0.95917: L2-HR :0.81709: (Sim:0h48m54s) 
CPU  2 inst:   68000000 cyc:   61875564 now IPC :0.90740: AVG IPC :1.08381: L2-Pf-HR :0.92892: L2-HR :0.76164: (Sim:0h49m3s) 
CPU  3 inst:   68000000 cyc:   62194908 now IPC :0.89791: AVG IPC :1.07816: L2-Pf-HR :0.95089: L2-HR :0.80146: (Sim:0h49m18s) 
CPU  0 inst:   68000000 cyc:   62702947 now IPC :0.71370: AVG IPC :1.06928: L2-Pf-HR :0.96890: L2-HR :0.84400: (Sim:0h49m40s) 
CPU  1 inst:   69000003 cyc:   63161942 now IPC :0.68391: AVG IPC :1.07747: L2-Pf-HR :0.95943: L2-HR :0.81725: (Sim:0h50m0s) 
CPU  2 inst:   69000003 cyc:   63279196 now IPC :0.71244: AVG IPC :1.07544: L2-Pf-HR :0.92960: L2-HR :0.76221: (Sim:0h50m5s) 
CPU  3 inst:   69000003 cyc:   63354536 now IPC :0.86235: AVG IPC :1.07415: L2-Pf-HR :0.95117: L2-HR :0.80158: (Sim:0h50m8s) 
CPU  0 inst:   69000003 cyc:   64105686 now IPC :0.71289: AVG IPC :1.06136: L2-Pf-HR :0.96896: L2-HR :0.84387: (Sim:0h50m40s) 
CPU  1 inst:   70000001 cyc:   64596142 now IPC :0.69725: AVG IPC :1.06890: L2-Pf-HR :0.95952: L2-HR :0.81727: (Sim:0h51m2s) 
CPU  2 inst:   70000001 cyc:   64789362 now IPC :0.66218: AVG IPC :1.06566: L2-Pf-HR :0.93001: L2-HR :0.76253: (Sim:0h51m12s) 
CPU  3 inst:   70000001 cyc:   64804304 now IPC :0.68976: AVG IPC :1.06542: L2-Pf-HR :0.95130: L2-HR :0.80164: (Sim:0h51m13s) 
CPU  0 inst:   70000001 cyc:   65209292 now IPC :0.90612: AVG IPC :1.05869: L2-Pf-HR :0.96907: L2-HR :0.84391: (Sim:0h51m31s) 
CPU  1 inst:   71000002 cyc:   65785908 now IPC :0.84050: AVG IPC :1.06470: L2-Pf-HR :0.95976: L2-HR :0.81740: (Sim:0h51m58s) 
CPU  3 inst:   71000002 cyc:   66150602 now IPC :0.74278: AVG IPC :1.05875: L2-Pf-HR :0.95155: L2-HR :0.80170: (Sim:0h52m14s) 
CPU  2 inst:   71000002 cyc:   66164377 now IPC :0.72727: AVG IPC :1.05852: L2-Pf-HR :0.93045: L2-HR :0.76279: (Sim:0h52m15s) 
CPU  0 inst:   71000002 cyc:   66380067 now IPC :0.85414: AVG IPC :1.05503: L2-Pf-HR :0.96920: L2-HR :0.84398: (Sim:0h52m25s) 
CPU  1 inst:   72000001 cyc:   66962941 now IPC :0.84959: AVG IPC :1.06087: L2-Pf-HR :0.95986: L2-HR :0.81737: (Sim:0h52m52s) 
CPU  3 inst:   72000001 cyc:   67476952 now IPC :0.75395: AVG IPC :1.05267: L2-Pf-HR :0.95162: L2-HR :0.80178: (Sim:0h53m15s) 
CPU  2 inst:   72000001 cyc:   67633916 now IPC :0.68048: AVG IPC :1.05019: L2-Pf-HR :0.93067: L2-HR :0.76312: (Sim:0h53m22s) 
CPU  0 inst:   72000001 cyc:   67698623 now IPC :0.75840: AVG IPC :1.04917: L2-Pf-HR :0.96932: L2-HR :0.84399: (Sim:0h53m25s) 
CPU  1 inst:   73000003 cyc:   68208809 now IPC :0.80265: AVG IPC :1.05608: L2-Pf-HR :0.95989: L2-HR :0.81722: (Sim:0h53m48s) 
CPU  3 inst:   73000003 cyc:   68585498 now IPC :0.90208: AVG IPC :1.05020: L2-Pf-HR :0.95165: L2-HR :0.80174: (Sim:0h54m6s) 
CPU  2 inst:   73000003 cyc:   68896987 now IPC :0.79172: AVG IPC :1.04538: L2-Pf-HR :0.93097: L2-HR :0.76353: (Sim:0h54m21s) 
CPU  0 inst:   73000003 cyc:   69098215 now IPC :0.71450: AVG IPC :1.04229: L2-Pf-HR :0.96926: L2-HR :0.84393: (Sim:0h54m31s) 
CPU  1 inst:   74000004 cyc:   69526258 now IPC :0.75904: AVG IPC :1.05037: L2-Pf-HR :0.95991: L2-HR :0.81709: (Sim:0h54m51s) 
CPU  3 inst:   74000004 cyc:   69709404 now IPC :0.88976: AVG IPC :1.04758: L2-Pf-HR :0.95167: L2-HR :0.80176: (Sim:0h55m0s) 
CPU  2 inst:   74000000 cyc:   70034548 now IPC :0.87907: AVG IPC :1.04264: L2-Pf-HR :0.93117: L2-HR :0.76386: (Sim:0h55m15s) 
CPU  0 inst:   74000001 cyc:   70342082 now IPC :0.80394: AVG IPC :1.03802: L2-Pf-HR :0.96925: L2-HR :0.84390: (Sim:0h55m30s) 
CPU  1 inst:   75000003 cyc:   70846273 now IPC :0.75757: AVG IPC :1.04484: L2-Pf-HR :0.95999: L2-HR :0.81730: (Sim:0h55m54s) 
CPU  3 inst:   75000003 cyc:   70930651 now IPC :0.81883: AVG IPC :1.04358: L2-Pf-HR :0.95182: L2-HR :0.80209: (Sim:0h55m58s) 
CPU  2 inst:   75000003 cyc:   71198635 now IPC :0.85904: AVG IPC :1.03960: L2-Pf-HR :0.93119: L2-HR :0.76400: (Sim:0h56m10s) 
CPU  0 inst:   75000003 cyc:   71491585 now IPC :0.86994: AVG IPC :1.03528: L2-Pf-HR :0.96919: L2-HR :0.84386: (Sim:0h56m24s) 
CPU  1 inst:   76000001 cyc:   72220774 now IPC :0.72754: AVG IPC :1.03872: L2-Pf-HR :0.95984: L2-HR :0.81716: (Sim:0h56m58s) 
CPU  3 inst:   76000001 cyc:   72280417 now IPC :0.74087: AVG IPC :1.03785: L2-Pf-HR :0.95174: L2-HR :0.80217: (Sim:0h57m0s) 
CPU  2 inst:   76000001 cyc:   72402167 now IPC :0.83089: AVG IPC :1.03608: L2-Pf-HR :0.93122: L2-HR :0.76429: (Sim:0h57m6s) 
CPU  0 inst:   76000001 cyc:   72641044 now IPC :0.86997: AVG IPC :1.03262: L2-Pf-HR :0.96906: L2-HR :0.84381: (Sim:0h57m17s) 
CPU  1 inst:   77000001 cyc:   73723886 now IPC :0.66529: AVG IPC :1.03100: L2-Pf-HR :0.95913: L2-HR :0.81674: (Sim:0h58m2s) 
CPU  3 inst:   77000001 cyc:   73908989 now IPC :0.61403: AVG IPC :1.02839: L2-Pf-HR :0.95136: L2-HR :0.80199: (Sim:0h58m11s) 
CPU  2 inst:   77000001 cyc:   73962890 now IPC :0.64073: AVG IPC :1.02763: L2-Pf-HR :0.93049: L2-HR :0.76400: (Sim:0h58m13s) 
CPU  0 inst:   77000001 cyc:   74044569 now IPC :0.71249: AVG IPC :1.02648: L2-Pf-HR :0.96856: L2-HR :0.84370: (Sim:0h58m17s) 
CPU  1 inst:   78000001 cyc:   74763162 now IPC :0.96221: AVG IPC :1.03003: L2-Pf-HR :0.95898: L2-HR :0.81668: (Sim:0h58m50s) 
CPU  3 inst:   78000001 cyc:   75150750 now IPC :0.80531: AVG IPC :1.02466: L2-Pf-HR :0.95130: L2-HR :0.80199: (Sim:0h59m9s) 
CPU  2 inst:   78000001 cyc:   75385603 now IPC :0.70288: AVG IPC :1.02142: L2-Pf-HR :0.93021: L2-HR :0.76368: (Sim:0h59m20s) 
CPU  0 inst:   78000001 cyc:   75395832 now IPC :0.74005: AVG IPC :1.02127: L2-Pf-HR :0.96862: L2-HR :0.84394: (Sim:0h59m20s) 
CPU  1 inst:   79000000 cyc:   75925431 now IPC :0.86039: AVG IPC :1.02740: L2-Pf-HR :0.95899: L2-HR :0.81678: (Sim:0h59m44s) 
CPU  3 inst:   79000000 cyc:   76220105 now IPC :0.93514: AVG IPC :1.02338: L2-Pf-HR :0.95145: L2-HR :0.80214: (Sim:0h59m58s) 
CPU  2 inst:   79000000 cyc:   76848588 now IPC :0.68353: AVG IPC :1.01490: L2-Pf-HR :0.92988: L2-HR :0.76339: (Sim:1h0m24s) 
CPU  0 inst:   79000000 cyc:   76940966 now IPC :0.64719: AVG IPC :1.01367: L2-Pf-HR :0.96879: L2-HR :0.84434: (Sim:1h0m28s) 
CPU  1 inst:   80000005 cyc:   77448133 now IPC :0.65673: AVG IPC :1.02002: L2-Pf-HR :0.95925: L2-HR :0.81718: (Sim:1h0m50s) 
CPU  3 inst:   80000005 cyc:   77517617 now IPC :0.77071: AVG IPC :1.01910: L2-Pf-HR :0.95154: L2-HR :0.80220: (Sim:1h0m53s) 
CPU  2 inst:   80000005 cyc:   77962294 now IPC :0.89791: AVG IPC :1.01321: L2-Pf-HR :0.92970: L2-HR :0.76307: (Sim:1h1m14s) 
CPU  0 inst:   80000005 cyc:   78236534 now IPC :0.77187: AVG IPC :1.00961: L2-Pf-HR :0.96874: L2-HR :0.84421: (Sim:1h1m27s) 
CPU  1 inst:   81000005 cyc:   78812328 now IPC :0.73303: AVG IPC :1.01499: L2-Pf-HR :0.95945: L2-HR :0.81734: (Sim:1h1m55s) 
CPU  3 inst:   81000005 cyc:   78866879 now IPC :0.74115: AVG IPC :1.01428: L2-Pf-HR :0.95146: L2-HR :0.80213: (Sim:1h1m58s) 
CPU  2 inst:   81000005 cyc:   79013808 now IPC :0.95101: AVG IPC :1.01237: L2-Pf-HR :0.92990: L2-HR :0.76329: (Sim:1h2m5s) 
CPU  0 inst:   81000005 cyc:   79265438 now IPC :0.97191: AVG IPC :1.00911: L2-Pf-HR :0.96872: L2-HR :0.84411: (Sim:1h2m17s) 
CPU  1 inst:   82000005 cyc:   79976357 now IPC :0.85909: AVG IPC :1.01269: L2-Pf-HR :0.95949: L2-HR :0.81746: (Sim:1h2m52s) 
CPU  3 inst:   82000005 cyc:   80187548 now IPC :0.75719: AVG IPC :1.01000: L2-Pf-HR :0.95148: L2-HR :0.80217: (Sim:1h3m2s) 
CPU  2 inst:   82000005 cyc:   80249847 now IPC :0.80904: AVG IPC :1.00920: L2-Pf-HR :0.92978: L2-HR :0.76324: (Sim:1h3m5s) 
CPU  0 inst:   82000005 cyc:   80337274 now IPC :0.93298: AVG IPC :1.00809: L2-Pf-HR :0.96873: L2-HR :0.84404: (Sim:1h3m9s) 
CPU  1 inst:   83000005 cyc:   81041535 now IPC :0.93881: AVG IPC :1.01171: L2-Pf-HR :0.95952: L2-HR :0.81737: (Sim:1h3m41s) 
CPU  3 inst:   83000005 cyc:   81456136 now IPC :0.78828: AVG IPC :1.00650: L2-Pf-HR :0.95146: L2-HR :0.80202: (Sim:1h4m0s) 
CPU  2 inst:   83000005 cyc:   81623089 now IPC :0.72820: AVG IPC :1.00442: L2-Pf-HR :0.92981: L2-HR :0.76307: (Sim:1h4m8s) 
CPU  0 inst:   83000005 cyc:   81652552 now IPC :0.76030: AVG IPC :1.00405: L2-Pf-HR :0.96870: L2-HR :0.84386: (Sim:1h4m10s) 
CPU  1 inst:   84000005 cyc:   82128136 now IPC :0.92030: AVG IPC :1.01049: L2-Pf-HR :0.95957: L2-HR :0.81736: (Sim:1h4m33s) 
CPU  3 inst:   84000005 cyc:   82491217 now IPC :0.96611: AVG IPC :1.00599: L2-Pf-HR :0.95171: L2-HR :0.80220: (Sim:1h4m50s) 
CPU  2 inst:   84000005 cyc:   82793289 now IPC :0.85455: AVG IPC :1.00227: L2-Pf-HR :0.92981: L2-HR :0.76318: (Sim:1h5m5s) 
CPU  0 inst:   84000005 cyc:   82969430 now IPC :0.75937: AVG IPC :1.00012: L2-Pf-HR :0.96878: L2-HR :0.84395: (Sim:1h5m13s) 
CPU  1 inst:   85000001 cyc:   83347412 now IPC :0.82016: AVG IPC :1.00767: L2-Pf-HR :0.95951: L2-HR :0.81718: (Sim:1h5m32s) 
CPU  3 inst:   85000000 cyc:   83542667 now IPC :0.95106: AVG IPC :1.00529: L2-Pf-HR :0.95176: L2-HR :0.80212: (Sim:1h5m42s) 
CPU  2 inst:   85000001 cyc:   83854373 now IPC :0.94243: AVG IPC :1.00151: L2-Pf-HR :0.92991: L2-HR :0.76318: (Sim:1h5m57s) 
CPU  0 inst:   85000005 cyc:   84270384 now IPC :0.76867: AVG IPC :0.99650: L2-Pf-HR :0.96882: L2-HR :0.84393: (Sim:1h6m17s) 
CPU  1 inst:   86000004 cyc:   84706773 now IPC :0.73564: AVG IPC :1.00325: L2-Pf-HR :0.95971: L2-HR :0.81721: (Sim:1h6m36s) 
CPU  3 inst:   86000001 cyc:   84813266 now IPC :0.78703: AVG IPC :1.00198: L2-Pf-HR :0.95181: L2-HR :0.80211: (Sim:1h6m41s) 
CPU  2 inst:   86000003 cyc:   84892699 now IPC :0.96309: AVG IPC :1.00103: L2-Pf-HR :0.93025: L2-HR :0.76347: (Sim:1h6m44s) 
CPU  0 inst:   86000003 cyc:   85528929 now IPC :0.79457: AVG IPC :0.99350: L2-Pf-HR :0.96895: L2-HR :0.84398: (Sim:1h7m12s) 
CPU  1 inst:   87000003 cyc:   86005089 now IPC :0.77023: AVG IPC :0.99970: L2-Pf-HR :0.95992: L2-HR :0.81739: (Sim:1h7m35s) 
CPU  3 inst:   87000003 cyc:   86212121 now IPC :0.71487: AVG IPC :0.99727: L2-Pf-HR :0.95214: L2-HR :0.80248: (Sim:1h7m46s) 
CPU  2 inst:   87000003 cyc:   86241064 now IPC :0.74164: AVG IPC :0.99693: L2-Pf-HR :0.93046: L2-HR :0.76348: (Sim:1h7m47s) 
CPU  0 inst:   87000003 cyc:   86542334 now IPC :0.98677: AVG IPC :0.99342: L2-Pf-HR :0.96906: L2-HR :0.84411: (Sim:1h8m2s) 
CPU  1 inst:   88000003 cyc:   86998208 now IPC :1.00693: AVG IPC :0.99978: L2-Pf-HR :0.96014: L2-HR :0.81749: (Sim:1h8m25s) 
CPU  3 inst:   88000003 cyc:   87561069 now IPC :0.74132: AVG IPC :0.99328: L2-Pf-HR :0.95231: L2-HR :0.80268: (Sim:1h8m51s) 
CPU  2 inst:   88000003 cyc:   87594295 now IPC :0.73897: AVG IPC :0.99290: L2-Pf-HR :0.93081: L2-HR :0.76376: (Sim:1h8m52s) 
CPU  0 inst:   88000003 cyc:   87669917 now IPC :0.88685: AVG IPC :0.99203: L2-Pf-HR :0.96916: L2-HR :0.84418: (Sim:1h8m55s) 
CPU  1 inst:   89000000 cyc:   88162166 now IPC :0.85913: AVG IPC :0.99790: L2-Pf-HR :0.95978: L2-HR :0.81731: (Sim:1h9m19s) 
CPU  3 inst:   89000000 cyc:   89056353 now IPC :0.66877: AVG IPC :0.98777: L2-Pf-HR :0.95203: L2-HR :0.80266: (Sim:1h9m53s) 
CPU  2 inst:   89000000 cyc:   89298620 now IPC :0.58674: AVG IPC :0.98506: L2-Pf-HR :0.92996: L2-HR :0.76327: (Sim:1h10m4s) 
CPU  0 inst:   89000000 cyc:   89335562 now IPC :0.60037: AVG IPC :0.98465: L2-Pf-HR :0.96900: L2-HR :0.84424: (Sim:1h10m5s) 
CPU  1 inst:   90000000 cyc:   89817341 now IPC :0.60417: AVG IPC :0.99057: L2-Pf-HR :0.95975: L2-HR :0.81732: (Sim:1h10m26s) 
CPU  3 inst:   90000000 cyc:   90057905 now IPC :0.99845: AVG IPC :0.98789: L2-Pf-HR :0.95215: L2-HR :0.80275: (Sim:1h10m37s) 
CPU  2 inst:   90000000 cyc:   90693971 now IPC :0.71667: AVG IPC :0.98089: L2-Pf-HR :0.93000: L2-HR :0.76311: (Sim:1h11m4s) 
CPU  0 inst:   90000000 cyc:   90937164 now IPC :0.62437: AVG IPC :0.97823: L2-Pf-HR :0.96917: L2-HR :0.84452: (Sim:1h11m15s) 
CPU  1 inst:   91000004 cyc:   91348314 now IPC :0.65318: AVG IPC :0.98485: L2-Pf-HR :0.95988: L2-HR :0.81745: (Sim:1h11m34s) 
CPU  3 inst:   91000005 cyc:   91424613 now IPC :0.73169: AVG IPC :0.98402: L2-Pf-HR :0.95225: L2-HR :0.80283: (Sim:1h11m37s) 
CPU  2 inst:   91000004 cyc:   91686520 now IPC :1.00751: AVG IPC :0.98118: L2-Pf-HR :0.92995: L2-HR :0.76293: (Sim:1h11m49s) 
CPU  0 inst:   91000005 cyc:   92526353 now IPC :0.62925: AVG IPC :0.97217: L2-Pf-HR :0.96939: L2-HR :0.84487: (Sim:1h12m25s) 
CPU  1 inst:   92000003 cyc:   92647621 now IPC :0.76964: AVG IPC :0.98180: L2-Pf-HR :0.96008: L2-HR :0.81774: (Sim:1h12m30s) 
CPU  3 inst:   92000003 cyc:   92985105 now IPC :0.64082: AVG IPC :0.97820: L2-Pf-HR :0.95243: L2-HR :0.80293: (Sim:1h12m45s) 
CPU  2 inst:   92000003 cyc:   93027999 now IPC :0.74545: AVG IPC :0.97774: L2-Pf-HR :0.92985: L2-HR :0.76271: (Sim:1h12m47s) 
CPU  1 inst:   93000003 cyc:   93657113 now IPC :0.99060: AVG IPC :0.98189: L2-Pf-HR :0.96027: L2-HR :0.81786: (Sim:1h13m5s) 
CPU  0 inst:   92000003 cyc:   94114451 now IPC :0.62968: AVG IPC :0.96633: L2-Pf-HR :0.96945: L2-HR :0.84481: (Sim:1h13m16s) 
CPU  3 inst:   93000003 cyc:   94700224 now IPC :0.58305: AVG IPC :0.97097: L2-Pf-HR :0.95262: L2-HR :0.80297: (Sim:1h13m31s) 
CPU  2 inst:   93000003 cyc:   94721033 now IPC :0.59066: AVG IPC :0.97075: L2-Pf-HR :0.93024: L2-HR :0.76296: (Sim:1h13m31s) 
CPU  0 inst:   93000003 cyc:   95171794 now IPC :0.94577: AVG IPC :0.96610: L2-Pf-HR :0.96945: L2-HR :0.84471: (Sim:1h13m43s) 
CPU  1 inst:   94000005 cyc:   95189666 now IPC :0.65251: AVG IPC :0.97654: L2-Pf-HR :0.96043: L2-HR :0.81801: (Sim:1h13m44s) 
CPU  3 inst:   94000005 cyc:   96079686 now IPC :0.72492: AVG IPC :0.96740: L2-Pf-HR :0.95283: L2-HR :0.80307: (Sim:1h14m7s) 
CPU  2 inst:   94000005 cyc:   96314067 now IPC :0.62773: AVG IPC :0.96502: L2-Pf-HR :0.93027: L2-HR :0.76303: (Sim:1h14m14s) 
CPU  0 inst:   94000005 cyc:   96343121 now IPC :0.85373: AVG IPC :0.96472: L2-Pf-HR :0.96953: L2-HR :0.84472: (Sim:1h14m14s) 
CPU  1 inst:   95000004 cyc:   96678690 now IPC :0.67158: AVG IPC :0.97179: L2-Pf-HR :0.96048: L2-HR :0.81798: (Sim:1h14m25s) 
CPU  3 inst:   95000004 cyc:   97119737 now IPC :0.96149: AVG IPC :0.96734: L2-Pf-HR :0.95297: L2-HR :0.80305: (Sim:1h14m46s) 
CPU  2 inst:   95000004 cyc:   97723175 now IPC :0.70967: AVG IPC :0.96130: L2-Pf-HR :0.93030: L2-HR :0.76292: (Sim:1h15m14s) 
CPU  0 inst:   95000004 cyc:   97756022 now IPC :0.70776: AVG IPC :0.96097: L2-Pf-HR :0.96963: L2-HR :0.84466: (Sim:1h15m15s) 
CPU  1 inst:   96000001 cyc:   97858598 now IPC :0.84752: AVG IPC :0.97028: L2-Pf-HR :0.96064: L2-HR :0.81803: (Sim:1h15m20s) 
CPU  3 inst:   96000000 cyc:   98224542 now IPC :0.90513: AVG IPC :0.96663: L2-Pf-HR :0.95299: L2-HR :0.80307: (Sim:1h15m37s) 
CPU  1 inst:   97000003 cyc:   98864401 now IPC :0.99423: AVG IPC :0.97052: L2-Pf-HR :0.96077: L2-HR :0.81792: (Sim:1h16m7s) 
CPU  2 inst:   96000001 cyc:   98932411 now IPC :0.82697: AVG IPC :0.95964: L2-Pf-HR :0.93053: L2-HR :0.76311: (Sim:1h16m11s) 
CPU  0 inst:   96000003 cyc:   99101487 now IPC :0.74324: AVG IPC :0.95799: L2-Pf-HR :0.96970: L2-HR :0.84471: (Sim:1h16m19s) 
CPU  3 inst:   97000003 cyc:   99461611 now IPC :0.80836: AVG IPC :0.96464: L2-Pf-HR :0.95305: L2-HR :0.80296: (Sim:1h16m38s) 
CPU  2 inst:   97000003 cyc:   99906960 now IPC :1.02612: AVG IPC :0.96030: L2-Pf-HR :0.93073: L2-HR :0.76313: (Sim:1h16m59s) 
CPU  1 inst:   98000003 cyc:   99939226 now IPC :0.93038: AVG IPC :0.97009: L2-Pf-HR :0.96092: L2-HR :0.81793: (Sim:1h17m1s) 
CPU  0 inst:   97000003 cyc:  100370005 now IPC :0.78832: AVG IPC :0.95582: L2-Pf-HR :0.96977: L2-HR :0.84470: (Sim:1h17m21s) 
CPU  3 inst:   98000003 cyc:  100742883 now IPC :0.78047: AVG IPC :0.96228: L2-Pf-HR :0.95321: L2-HR :0.80303: (Sim:1h17m39s) 
CPU  2 inst:   98000003 cyc:  100910237 now IPC :0.99673: AVG IPC :0.96066: L2-Pf-HR :0.93106: L2-HR :0.76336: (Sim:1h17m47s) 
CPU  1 inst:   99000001 cyc:  101206007 now IPC :0.78940: AVG IPC :0.96780: L2-Pf-HR :0.96114: L2-HR :0.81810: (Sim:1h18m1s) 
CPU  0 inst:   98000003 cyc:  101567985 now IPC :0.83474: AVG IPC :0.95438: L2-Pf-HR :0.96989: L2-HR :0.84473: (Sim:1h18m17s) 
CPU  3 inst:   99000001 cyc:  102010783 now IPC :0.78870: AVG IPC :0.96010: L2-Pf-HR :0.95349: L2-HR :0.80337: (Sim:1h18m39s) 
CPU  2 inst:   99000001 cyc:  102146625 now IPC :0.80881: AVG IPC :0.95881: L2-Pf-HR :0.93129: L2-HR :0.76341: (Sim:1h18m45s) 
CPU  1 inst:  100000001 cyc:  102473548 now IPC :0.78893: AVG IPC :0.96557: L2-Pf-HR :0.96133: L2-HR :0.81813: (Sim:1h19m2s) 
CPU  0 inst:   99000001 cyc:  102543456 now IPC :1.02514: AVG IPC :0.95506: L2-Pf-HR :0.96994: L2-HR :0.84482: (Sim:1h19m6s) 
CPU  3 inst:  100000001 cyc:  103048827 now IPC :0.96335: AVG IPC :0.96013: L2-Pf-HR :0.95362: L2-HR :0.80348: (Sim:1h19m31s) 
CPU  2 inst:  100000001 cyc:  103233667 now IPC :0.91993: AVG IPC :0.95839: L2-Pf-HR :0.93172: L2-HR :0.76369: (Sim:1h19m42s) 
CPU  0 inst:  100000001 cyc:  103550548 now IPC :0.99296: AVG IPC :0.95543: L2-Pf-HR :0.97008: L2-HR :0.84488: (Sim:1h19m58s) 
CPU  1 inst:  101000002 cyc:  103597891 now IPC :0.88941: AVG IPC :0.96474: L2-Pf-HR :0.96110: L2-HR :0.81804: (Sim:1h20m1s) 
CPU  3 inst:  101000002 cyc:  104127507 now IPC :0.92706: AVG IPC :0.95979: L2-Pf-HR :0.95339: L2-HR :0.80343: (Sim:1h20m26s) 
CPU  2 inst:  101000002 cyc:  104427420 now IPC :0.83770: AVG IPC :0.95700: L2-Pf-HR :0.93103: L2-HR :0.76334: (Sim:1h20m41s) 
CPU  0 inst:  101000002 cyc:  104640177 now IPC :0.91774: AVG IPC :0.95503: L2-Pf-HR :0.96995: L2-HR :0.84495: (Sim:1h20m53s) 
CPU  1 inst:  102000001 cyc:  104769111 now IPC :0.85381: AVG IPC :0.96348: L2-Pf-HR :0.96116: L2-HR :0.81812: (Sim:1h20m59s) 
CPU  3 inst:  102000005 cyc:  105086464 now IPC :1.04280: AVG IPC :0.96055: L2-Pf-HR :0.95346: L2-HR :0.80351: (Sim:1h21m16s) 
CPU  2 inst:  102000004 cyc:  105594516 now IPC :0.85683: AVG IPC :0.95588: L2-Pf-HR :0.93111: L2-HR :0.76325: (Sim:1h21m41s) 
CPU  0 inst:  102000000 cyc:  105712082 now IPC :0.93292: AVG IPC :0.95481: L2-Pf-HR :0.97017: L2-HR :0.84526: (Sim:1h21m47s) 
CPU  1 inst:  103000004 cyc:  105928415 now IPC :0.86259: AVG IPC :0.96237: L2-Pf-HR :0.96131: L2-HR :0.81822: (Sim:1h21m57s) 
CPU  3 inst:  103000004 cyc:  106116178 now IPC :0.97114: AVG IPC :0.96065: L2-Pf-HR :0.95357: L2-HR :0.80353: (Sim:1h22m6s) 
CPU  2 inst:  103000003 cyc:  106787119 now IPC :0.83850: AVG IPC :0.95456: L2-Pf-HR :0.93121: L2-HR :0.76314: (Sim:1h22m38s) 
CPU  0 inst:  103000001 cyc:  106944634 now IPC :0.81133: AVG IPC :0.95314: L2-Pf-HR :0.97041: L2-HR :0.84558: (Sim:1h22m46s) 
CPU  1 inst:  104000000 cyc:  107051752 now IPC :0.89020: AVG IPC :0.96161: L2-Pf-HR :0.96158: L2-HR :0.81855: (Sim:1h22m51s) 
CPU  3 inst:  104000000 cyc:  107291244 now IPC :0.85101: AVG IPC :0.95944: L2-Pf-HR :0.95379: L2-HR :0.80365: (Sim:1h23m2s) 
CPU  2 inst:  104000000 cyc:  107936080 now IPC :0.87035: AVG IPC :0.95366: L2-Pf-HR :0.93125: L2-HR :0.76302: (Sim:1h23m34s) 
CPU  0 inst:  104000000 cyc:  108132877 now IPC :0.84158: AVG IPC :0.95190: L2-Pf-HR :0.97041: L2-HR :0.84551: (Sim:1h23m43s) 
CPU  1 inst:  105000001 cyc:  108203524 now IPC :0.86823: AVG IPC :0.96060: L2-Pf-HR :0.96176: L2-HR :0.81866: (Sim:1h23m47s) 
CPU  3 inst:  105000001 cyc:  108462038 now IPC :0.85412: AVG IPC :0.95829: L2-Pf-HR :0.95389: L2-HR :0.80364: (Sim:1h23m59s) 
CPU  2 inst:  105000001 cyc:  109067249 now IPC :0.88404: AVG IPC :0.95293: L2-Pf-HR :0.93160: L2-HR :0.76324: (Sim:1h24m29s) 
CPU  0 inst:  105000001 cyc:  109308536 now IPC :0.85059: AVG IPC :0.95080: L2-Pf-HR :0.97039: L2-HR :0.84539: (Sim:1h24m41s) 
CPU  1 inst:  106000000 cyc:  109311625 now IPC :0.90244: AVG IPC :0.96001: L2-Pf-HR :0.96187: L2-HR :0.81881: (Sim:1h24m41s) 
CPU  3 inst:  106000000 cyc:  109612630 now IPC :0.86912: AVG IPC :0.95735: L2-Pf-HR :0.95399: L2-HR :0.80372: (Sim:1h24m55s) 
CPU  2 inst:  106000000 cyc:  110178966 now IPC :0.89951: AVG IPC :0.95238: L2-Pf-HR :0.93176: L2-HR :0.76333: (Sim:1h25m23s) 
CPU  0 inst:  106000000 cyc:  110461603 now IPC :0.86725: AVG IPC :0.94992: L2-Pf-HR :0.97047: L2-HR :0.84541: (Sim:1h25m37s) 
CPU  1 inst:  107000000 cyc:  110473935 now IPC :0.86036: AVG IPC :0.95895: L2-Pf-HR :0.96199: L2-HR :0.81883: (Sim:1h25m37s) 
CPU  3 inst:  107000000 cyc:  110757049 now IPC :0.87381: AVG IPC :0.95648: L2-Pf-HR :0.95409: L2-HR :0.80368: (Sim:1h25m47s) 
CPU  2 inst:  107000000 cyc:  111340567 now IPC :0.86088: AVG IPC :0.95142: L2-Pf-HR :0.93206: L2-HR :0.76330: (Sim:1h26m16s) 
CPU  1 inst:  108000003 cyc:  111557949 now IPC :0.92250: AVG IPC :0.95859: L2-Pf-HR :0.96212: L2-HR :0.81883: (Sim:1h26m27s) 
CPU  0 inst:  107000000 cyc:  111618852 now IPC :0.86412: AVG IPC :0.94902: L2-Pf-HR :0.97055: L2-HR :0.84534: (Sim:1h26m30s) 
CPU  3 inst:  108000003 cyc:  111819421 now IPC :0.94129: AVG IPC :0.95633: L2-Pf-HR :0.95409: L2-HR :0.80363: (Sim:1h26m41s) 
CPU  2 inst:  108000003 cyc:  112419928 now IPC :0.92648: AVG IPC :0.95118: L2-Pf-HR :0.93224: L2-HR :0.76346: (Sim:1h27m11s) 
CPU  1 inst:  109000003 cyc:  112642417 now IPC :0.92211: AVG IPC :0.95824: L2-Pf-HR :0.96226: L2-HR :0.81877: (Sim:1h27m23s) 
CPU  0 inst:  108000003 cyc:  112689343 now IPC :0.93415: AVG IPC :0.94888: L2-Pf-HR :0.97063: L2-HR :0.84537: (Sim:1h27m25s) 
CPU  3 inst:  109000003 cyc:  112888557 now IPC :0.93533: AVG IPC :0.95613: L2-Pf-HR :0.95418: L2-HR :0.80362: (Sim:1h27m35s) 
CPU  2 inst:  109000003 cyc:  113520392 now IPC :0.90871: AVG IPC :0.95076: L2-Pf-HR :0.93241: L2-HR :0.76353: (Sim:1h28m7s) 
CPU  1 inst:  110000000 cyc:  113755937 now IPC :0.89805: AVG IPC :0.95764: L2-Pf-HR :0.96244: L2-HR :0.81879: (Sim:1h28m18s) 
CPU  0 inst:  109000003 cyc:  113785240 now IPC :0.91249: AVG IPC :0.94853: L2-Pf-HR :0.97071: L2-HR :0.84543: (Sim:1h28m20s) 
CPU  3 inst:  110000000 cyc:  113979734 now IPC :0.91644: AVG IPC :0.95575: L2-Pf-HR :0.95430: L2-HR :0.80366: (Sim:1h28m30s) 
CPU  2 inst:  110000000 cyc:  114635254 now IPC :0.89697: AVG IPC :0.95024: L2-Pf-HR :0.93282: L2-HR :0.76377: (Sim:1h29m2s) 
CPU  1 inst:  111000000 cyc:  114823695 now IPC :0.93654: AVG IPC :0.95745: L2-Pf-HR :0.96263: L2-HR :0.81894: (Sim:1h29m12s) 
CPU  0 inst:  110000000 cyc:  114872848 now IPC :0.91945: AVG IPC :0.94825: L2-Pf-HR :0.97076: L2-HR :0.84539: (Sim:1h29m15s) 
CPU  3 inst:  111000000 cyc:  115077150 now IPC :0.91123: AVG IPC :0.95532: L2-Pf-HR :0.95451: L2-HR :0.80392: (Sim:1h29m25s) 
CPU  2 inst:  111000000 cyc:  115730198 now IPC :0.91329: AVG IPC :0.94988: L2-Pf-HR :0.93304: L2-HR :0.76381: (Sim:1h29m58s) 
CPU  1 inst:  112000000 cyc:  115941071 now IPC :0.89495: AVG IPC :0.95684: L2-Pf-HR :0.96280: L2-HR :0.81899: (Sim:1h30m8s) 
CPU  0 inst:  111000000 cyc:  115969535 now IPC :0.91184: AVG IPC :0.94790: L2-Pf-HR :0.97080: L2-HR :0.84548: (Sim:1h30m9s) 
CPU  3 inst:  112000000 cyc:  116206304 now IPC :0.88562: AVG IPC :0.95464: L2-Pf-HR :0.95460: L2-HR :0.80404: (Sim:1h30m21s) 
CPU  2 inst:  112000000 cyc:  116946704 now IPC :0.82203: AVG IPC :0.94854: L2-Pf-HR :0.93348: L2-HR :0.76411: (Sim:1h30m54s) 
CPU  0 inst:  112000000 cyc:  117149428 now IPC :0.84753: AVG IPC :0.94688: L2-Pf-HR :0.97090: L2-HR :0.84555: (Sim:1h31m5s) 
CPU  1 inst:  113000003 cyc:  117249101 now IPC :0.76451: AVG IPC :0.95468: L2-Pf-HR :0.96264: L2-HR :0.81892: (Sim:1h31m10s) 
CPU  3 inst:  113000003 cyc:  117509463 now IPC :0.76737: AVG IPC :0.95254: L2-Pf-HR :0.95454: L2-HR :0.80405: (Sim:1h31m22s) 
CPU  2 inst:  113000002 cyc:  118235602 now IPC :0.77586: AVG IPC :0.94664: L2-Pf-HR :0.93316: L2-HR :0.76387: (Sim:1h31m55s) 
CPU  0 inst:  113000002 cyc:  118451139 now IPC :0.76822: AVG IPC :0.94490: L2-Pf-HR :0.97077: L2-HR :0.84563: (Sim:1h32m6s) 
CPU  1 inst:  114000004 cyc:  118478877 now IPC :0.81316: AVG IPC :0.95319: L2-Pf-HR :0.96265: L2-HR :0.81895: (Sim:1h32m7s) 
CPU  3 inst:  114000004 cyc:  118713178 now IPC :0.83076: AVG IPC :0.95130: L2-Pf-HR :0.95459: L2-HR :0.80411: (Sim:1h32m18s) 
CPU  2 inst:  114000003 cyc:  119395452 now IPC :0.86218: AVG IPC :0.94582: L2-Pf-HR :0.93327: L2-HR :0.76381: (Sim:1h32m52s) 
CPU  1 inst:  115000004 cyc:  119636015 now IPC :0.86420: AVG IPC :0.95233: L2-Pf-HR :0.96277: L2-HR :0.81903: (Sim:1h33m3s) 
CPU  0 inst:  114000000 cyc:  119642096 now IPC :0.83966: AVG IPC :0.94385: L2-Pf-HR :0.97084: L2-HR :0.84584: (Sim:1h33m4s) 
CPU  3 inst:  115000004 cyc:  119884531 now IPC :0.85371: AVG IPC :0.95034: L2-Pf-HR :0.95472: L2-HR :0.80417: (Sim:1h33m16s) 
CPU  2 inst:  115000004 cyc:  120540730 now IPC :0.87315: AVG IPC :0.94512: L2-Pf-HR :0.93335: L2-HR :0.76370: (Sim:1h33m48s) 
CPU  1 inst:  116000004 cyc:  120778842 now IPC :0.87502: AVG IPC :0.95159: L2-Pf-HR :0.96300: L2-HR :0.81935: (Sim:1h34m0s) 
CPU  0 inst:  115000004 cyc:  120783280 now IPC :0.87629: AVG IPC :0.94320: L2-Pf-HR :0.97101: L2-HR :0.84609: (Sim:1h34m0s) 
CPU  3 inst:  116000004 cyc:  121026000 now IPC :0.87606: AVG IPC :0.94963: L2-Pf-HR :0.95490: L2-HR :0.80429: (Sim:1h34m12s) 
CPU  2 inst:  116000004 cyc:  121672477 now IPC :0.88359: AVG IPC :0.94454: L2-Pf-HR :0.93335: L2-HR :0.76359: (Sim:1h34m43s) 
CPU  0 inst:  116000004 cyc:  121924544 now IPC :0.87622: AVG IPC :0.94257: L2-Pf-HR :0.97106: L2-HR :0.84606: (Sim:1h34m55s) 
CPU  1 inst:  117000001 cyc:  121957963 now IPC :0.84809: AVG IPC :0.95058: L2-Pf-HR :0.96315: L2-HR :0.81939: (Sim:1h34m57s) 
CPU  3 inst:  117000001 cyc:  122194532 now IPC :0.85577: AVG IPC :0.94873: L2-Pf-HR :0.95510: L2-HR :0.80432: (Sim:1h35m8s) 
CPU  2 inst:  117000001 cyc:  122845229 now IPC :0.85269: AVG IPC :0.94366: L2-Pf-HR :0.93372: L2-HR :0.76379: (Sim:1h35m40s) 
CPU  0 inst:  117000001 cyc:  123094079 now IPC :0.85504: AVG IPC :0.94173: L2-Pf-HR :0.97109: L2-HR :0.84596: (Sim:1h35m52s) 
CPU  1 inst:  118000002 cyc:  123129043 now IPC :0.85391: AVG IPC :0.94965: L2-Pf-HR :0.96326: L2-HR :0.81955: (Sim:1h35m53s) 
CPU  3 inst:  118000002 cyc:  123351273 now IPC :0.86450: AVG IPC :0.94793: L2-Pf-HR :0.95524: L2-HR :0.80444: (Sim:1h36m4s) 
CPU  2 inst:  118000002 cyc:  124023762 now IPC :0.84851: AVG IPC :0.94275: L2-Pf-HR :0.93400: L2-HR :0.76388: (Sim:1h36m36s) 
CPU  0 inst:  118000002 cyc:  124268750 now IPC :0.85130: AVG IPC :0.94087: L2-Pf-HR :0.97120: L2-HR :0.84601: (Sim:1h36m47s) 
CPU  1 inst:  119000002 cyc:  124364765 now IPC :0.80924: AVG IPC :0.94825: L2-Pf-HR :0.96327: L2-HR :0.81950: (Sim:1h36m52s) 
CPU  3 inst:  119000002 cyc:  124577323 now IPC :0.81563: AVG IPC :0.94662: L2-Pf-HR :0.95540: L2-HR :0.80445: (Sim:1h37m2s) 
CPU  2 inst:  119000002 cyc:  125240306 now IPC :0.82200: AVG IPC :0.94157: L2-Pf-HR :0.93424: L2-HR :0.76389: (Sim:1h37m24s) 
CPU  0 inst:  119000002 cyc:  125484808 now IPC :0.82233: AVG IPC :0.93971: L2-Pf-HR :0.97129: L2-HR :0.84598: (Sim:1h37m31s) 
CPU  1 inst:  120000000 cyc:  125544567 now IPC :0.84760: AVG IPC :0.94729: L2-Pf-HR :0.96341: L2-HR :0.81950: (Sim:1h37m33s) 
CPU  3 inst:  120000000 cyc:  125727543 now IPC :0.86940: AVG IPC :0.94591: L2-Pf-HR :0.95548: L2-HR :0.80447: (Sim:1h37m38s) 
CPU  2 inst:  120000000 cyc:  126445254 now IPC :0.82991: AVG IPC :0.94049: L2-Pf-HR :0.93446: L2-HR :0.76403: (Sim:1h37m59s) 
CPU  0 inst:  120000000 cyc:  126643669 now IPC :0.86291: AVG IPC :0.93901: L2-Pf-HR :0.97143: L2-HR :0.84604: (Sim:1h38m5s) 
CPU  1 inst:  121000002 cyc:  126732036 now IPC :0.84213: AVG IPC :0.94630: L2-Pf-HR :0.96350: L2-HR :0.81948: (Sim:1h38m7s) 
CPU  3 inst:  121000002 cyc:  126946344 now IPC :0.82048: AVG IPC :0.94469: L2-Pf-HR :0.95557: L2-HR :0.80448: (Sim:1h38m13s) 
CPU  2 inst:  121000002 cyc:  127640282 now IPC :0.83680: AVG IPC :0.93951: L2-Pf-HR :0.93468: L2-HR :0.76419: (Sim:1h38m33s) 
CPU  0 inst:  121000002 cyc:  127826417 now IPC :0.84549: AVG IPC :0.93813: L2-Pf-HR :0.97150: L2-HR :0.84607: (Sim:1h38m39s) 
CPU  1 inst:  122000002 cyc:  127910680 now IPC :0.84843: AVG IPC :0.94539: L2-Pf-HR :0.96363: L2-HR :0.81944: (Sim:1h38m41s) 
CPU  3 inst:  122000002 cyc:  128145811 now IPC :0.83370: AVG IPC :0.94365: L2-Pf-HR :0.95563: L2-HR :0.80446: (Sim:1h38m48s) 
CPU  2 inst:  122000002 cyc:  128807521 now IPC :0.85672: AVG IPC :0.93876: L2-Pf-HR :0.93489: L2-HR :0.76436: (Sim:1h39m7s) 
CPU  0 inst:  122000002 cyc:  129013417 now IPC :0.84246: AVG IPC :0.93725: L2-Pf-HR :0.97151: L2-HR :0.84602: (Sim:1h39m13s) 
CPU  1 inst:  123000001 cyc:  129061007 now IPC :0.86932: AVG IPC :0.94471: L2-Pf-HR :0.96380: L2-HR :0.81961: (Sim:1h39m15s) 
CPU  3 inst:  123000001 cyc:  129333873 now IPC :0.84171: AVG IPC :0.94270: L2-Pf-HR :0.95588: L2-HR :0.80476: (Sim:1h39m23s) 
CPU  2 inst:  123000001 cyc:  129943260 now IPC :0.88048: AVG IPC :0.93825: L2-Pf-HR :0.93506: L2-HR :0.76441: (Sim:1h39m40s) 
CPU  0 inst:  123000001 cyc:  130206432 now IPC :0.83821: AVG IPC :0.93633: L2-Pf-HR :0.97161: L2-HR :0.84616: (Sim:1h39m48s) 
CPU  1 inst:  124000002 cyc:  130238897 now IPC :0.84898: AVG IPC :0.94384: L2-Pf-HR :0.96392: L2-HR :0.81964: (Sim:1h39m49s) 
CPU  3 inst:  124000001 cyc:  130572353 now IPC :0.80744: AVG IPC :0.94141: L2-Pf-HR :0.95601: L2-HR :0.80486: (Sim:1h39m59s) 
CPU  2 inst:  124000000 cyc:  131087180 now IPC :0.87419: AVG IPC :0.93768: L2-Pf-HR :0.93544: L2-HR :0.76467: (Sim:1h40m13s) 
CPU  0 inst:  124000000 cyc:  131425239 now IPC :0.82047: AVG IPC :0.93525: L2-Pf-HR :0.97173: L2-HR :0.84621: (Sim:1h40m23s) 
CPU  1 inst:  125000004 cyc:  131459373 now IPC :0.81935: AVG IPC :0.94267: L2-Pf-HR :0.96386: L2-HR :0.81982: (Sim:1h40m24s) 
CPU  3 inst:  125000003 cyc:  131793199 now IPC :0.81911: AVG IPC :0.94027: L2-Pf-HR :0.95593: L2-HR :0.80485: (Sim:1h40m34s) 
CPU  2 inst:  125000003 cyc:  132164165 now IPC :0.92852: AVG IPC :0.93761: L2-Pf-HR :0.93515: L2-HR :0.76435: (Sim:1h40m45s) 
CPU  0 inst:  125000005 cyc:  132586124 now IPC :0.86142: AVG IPC :0.93460: L2-Pf-HR :0.97155: L2-HR :0.84596: (Sim:1h40m56s) 
CPU  1 inst:  126000000 cyc:  132805888 now IPC :0.74265: AVG IPC :0.94063: L2-Pf-HR :0.96389: L2-HR :0.81985: (Sim:1h41m3s) 
CPU  3 inst:  126000002 cyc:  133001368 now IPC :0.82770: AVG IPC :0.93924: L2-Pf-HR :0.95584: L2-HR :0.80445: (Sim:1h41m8s) 
CPU  2 inst:  126000002 cyc:  133408105 now IPC :0.80390: AVG IPC :0.93635: L2-Pf-HR :0.93501: L2-HR :0.76403: (Sim:1h41m20s) 
CPU  0 inst:  126000005 cyc:  133800154 now IPC :0.82370: AVG IPC :0.93359: L2-Pf-HR :0.97158: L2-HR :0.84572: (Sim:1h41m31s) 
CPU  1 inst:  127000001 cyc:  134019875 now IPC :0.82373: AVG IPC :0.93956: L2-Pf-HR :0.96388: L2-HR :0.81957: (Sim:1h41m38s) 
CPU  3 inst:  127000001 cyc:  134109691 now IPC :0.90226: AVG IPC :0.93893: L2-Pf-HR :0.95585: L2-HR :0.80408: (Sim:1h41m40s) 
CPU  2 inst:  127000001 cyc:  134492419 now IPC :0.92224: AVG IPC :0.93624: L2-Pf-HR :0.93515: L2-HR :0.76386: (Sim:1h41m52s) 
CPU  0 inst:  127000005 cyc:  134954921 now IPC :0.86598: AVG IPC :0.93300: L2-Pf-HR :0.97164: L2-HR :0.84549: (Sim:1h42m6s) 
CPU  1 inst:  128000005 cyc:  135066251 now IPC :0.95568: AVG IPC :0.93969: L2-Pf-HR :0.96388: L2-HR :0.81916: (Sim:1h42m9s) 
CPU  3 inst:  128000005 cyc:  135263535 now IPC :0.86667: AVG IPC :0.93831: L2-Pf-HR :0.95592: L2-HR :0.80381: (Sim:1h42m15s) 
CPU  2 inst:  128000005 cyc:  135654964 now IPC :0.86019: AVG IPC :0.93558: L2-Pf-HR :0.93530: L2-HR :0.76370: (Sim:1h42m26s) 
CPU  0 inst:  128000005 cyc:  136238695 now IPC :0.77895: AVG IPC :0.93154: L2-Pf-HR :0.97177: L2-HR :0.84552: (Sim:1h42m41s) 
CPU  1 inst:  129000005 cyc:  136425626 now IPC :0.73563: AVG IPC :0.93764: L2-Pf-HR :0.96364: L2-HR :0.81880: (Sim:1h42m46s) 
CPU  3 inst:  129000005 cyc:  136616924 now IPC :0.73889: AVG IPC :0.93632: L2-Pf-HR :0.95569: L2-HR :0.80345: (Sim:1h42m52s) 
CPU  2 inst:  129000005 cyc:  136994371 now IPC :0.74660: AVG IPC :0.93372: L2-Pf-HR :0.93498: L2-HR :0.76342: (Sim:1h43m2s) 
CPU  1 inst:  130000000 cyc:  137544975 now IPC :0.89337: AVG IPC :0.93728: L2-Pf-HR :0.96372: L2-HR :0.81888: (Sim:1h43m19s) 
CPU  0 inst:  129000005 cyc:  137596921 now IPC :0.73625: AVG IPC :0.92960: L2-Pf-HR :0.97168: L2-HR :0.84533: (Sim:1h43m20s) 
CPU  3 inst:  130000000 cyc:  137869122 now IPC :0.79859: AVG IPC :0.93506: L2-Pf-HR :0.95585: L2-HR :0.80357: (Sim:1h43m29s) 
CPU  2 inst:  130000000 cyc:  138104007 now IPC :0.90119: AVG IPC :0.93346: L2-Pf-HR :0.93501: L2-HR :0.76344: (Sim:1h43m35s) 
CPU  1 inst:  131000003 cyc:  138628895 now IPC :0.92258: AVG IPC :0.93716: L2-Pf-HR :0.96380: L2-HR :0.81894: (Sim:1h43m51s) 
CPU  0 inst:  130000000 cyc:  138847754 now IPC :0.79946: AVG IPC :0.92842: L2-Pf-HR :0.97181: L2-HR :0.84551: (Sim:1h43m57s) 
CPU  3 inst:  131000003 cyc:  139143920 now IPC :0.78444: AVG IPC :0.93367: L2-Pf-HR :0.95597: L2-HR :0.80362: (Sim:1h44m6s) 
CPU  2 inst:  131000001 cyc:  139326109 now IPC :0.81826: AVG IPC :0.93244: L2-Pf-HR :0.93510: L2-HR :0.76349: (Sim:1h44m11s) 
CPU  1 inst:  132000002 cyc:  139784128 now IPC :0.86563: AVG IPC :0.93657: L2-Pf-HR :0.96391: L2-HR :0.81915: (Sim:1h44m24s) 
CPU  0 inst:  131000003 cyc:  140158844 now IPC :0.76273: AVG IPC :0.92686: L2-Pf-HR :0.97192: L2-HR :0.84569: (Sim:1h44m34s) 
CPU  3 inst:  132000002 cyc:  140355340 now IPC :0.82548: AVG IPC :0.93273: L2-Pf-HR :0.95606: L2-HR :0.80363: (Sim:1h44m40s) 
CPU  2 inst:  132000002 cyc:  140671992 now IPC :0.74301: AVG IPC :0.93061: L2-Pf-HR :0.93518: L2-HR :0.76353: (Sim:1h44m49s) 
CPU  1 inst:  133000003 cyc:  141060794 now IPC :0.78329: AVG IPC :0.93517: L2-Pf-HR :0.96396: L2-HR :0.81921: (Sim:1h45m0s) 
CPU  0 inst:  132000002 cyc:  141364097 now IPC :0.82970: AVG IPC :0.92602: L2-Pf-HR :0.97195: L2-HR :0.84563: (Sim:1h45m9s) 
CPU  3 inst:  133000003 cyc:  141547790 now IPC :0.83861: AVG IPC :0.93193: L2-Pf-HR :0.95614: L2-HR :0.80363: (Sim:1h45m14s) 
CPU  2 inst:  133000003 cyc:  141992014 now IPC :0.75756: AVG IPC :0.92899: L2-Pf-HR :0.93543: L2-HR :0.76378: (Sim:1h45m26s) 
CPU  1 inst:  134000005 cyc:  142345965 now IPC :0.77811: AVG IPC :0.93374: L2-Pf-HR :0.96405: L2-HR :0.81927: (Sim:1h45m37s) 
CPU  0 inst:  133000003 cyc:  142551294 now IPC :0.84232: AVG IPC :0.92532: L2-Pf-HR :0.97197: L2-HR :0.84557: (Sim:1h45m43s) 
CPU  3 inst:  134000005 cyc:  142730498 now IPC :0.84552: AVG IPC :0.93121: L2-Pf-HR :0.95623: L2-HR :0.80365: (Sim:1h45m48s) 
CPU  2 inst:  134000005 cyc:  143305653 now IPC :0.76125: AVG IPC :0.92745: L2-Pf-HR :0.93563: L2-HR :0.76397: (Sim:1h46m3s) 
CPU  1 inst:  135000002 cyc:  143700131 now IPC :0.73846: AVG IPC :0.93189: L2-Pf-HR :0.96407: L2-HR :0.81928: (Sim:1h46m14s) 
CPU  0 inst:  134000005 cyc:  143743773 now IPC :0.83859: AVG IPC :0.92460: L2-Pf-HR :0.97202: L2-HR :0.84555: (Sim:1h46m16s) 
CPU  3 inst:  135000002 cyc:  143983202 now IPC :0.79827: AVG IPC :0.93005: L2-Pf-HR :0.95622: L2-HR :0.80363: (Sim:1h46m22s) 
CPU  2 inst:  135000002 cyc:  144642188 now IPC :0.74820: AVG IPC :0.92578: L2-Pf-HR :0.93579: L2-HR :0.76406: (Sim:1h46m43s) 
CPU  1 inst:  136000000 cyc:  144943277 now IPC :0.80441: AVG IPC :0.93079: L2-Pf-HR :0.96408: L2-HR :0.81927: (Sim:1h46m57s) 
CPU  0 inst:  135000002 cyc:  145007855 now IPC :0.79109: AVG IPC :0.92343: L2-Pf-HR :0.97205: L2-HR :0.84548: (Sim:1h47m0s) 
CPU  3 inst:  136000000 cyc:  145181839 now IPC :0.83428: AVG IPC :0.92925: L2-Pf-HR :0.95624: L2-HR :0.80365: (Sim:1h47m9s) 
CPU  2 inst:  136000000 cyc:  145964759 now IPC :0.75610: AVG IPC :0.92423: L2-Pf-HR :0.93598: L2-HR :0.76426: (Sim:1h47m45s) 
CPU  0 inst:  136000000 cyc:  146215623 now IPC :0.82797: AVG IPC :0.92263: L2-Pf-HR :0.97209: L2-HR :0.84550: (Sim:1h47m56s) 
CPU  1 inst:  137000003 cyc:  146226559 now IPC :0.77925: AVG IPC :0.92945: L2-Pf-HR :0.96403: L2-HR :0.81921: (Sim:1h47m57s) 
CPU  3 inst:  137000003 cyc:  146441240 now IPC :0.79403: AVG IPC :0.92808: L2-Pf-HR :0.95622: L2-HR :0.80356: (Sim:1h48m7s) 
CPU  2 inst:  137000003 cyc:  147333583 now IPC :0.73056: AVG IPC :0.92242: L2-Pf-HR :0.93601: L2-HR :0.76435: (Sim:1h48m33s) 
CPU  1 inst:  138000005 cyc:  147428185 now IPC :0.83221: AVG IPC :0.92865: L2-Pf-HR :0.96402: L2-HR :0.81919: (Sim:1h48m35s) 
CPU  0 inst:  137000003 cyc:  147507800 now IPC :0.77389: AVG IPC :0.92132: L2-Pf-HR :0.97204: L2-HR :0.84542: (Sim:1h48m38s) 
CPU  3 inst:  138000005 cyc:  147820041 now IPC :0.72527: AVG IPC :0.92617: L2-Pf-HR :0.95614: L2-HR :0.80355: (Sim:1h48m46s) 
CPU  2 inst:  138000005 cyc:  148530999 now IPC :0.83513: AVG IPC :0.92171: L2-Pf-HR :0.93610: L2-HR :0.76468: (Sim:1h49m6s) 
CPU  1 inst:  139000000 cyc:  148589072 now IPC :0.86141: AVG IPC :0.92812: L2-Pf-HR :0.96392: L2-HR :0.81914: (Sim:1h49m8s) 
CPU  0 inst:  138000005 cyc:  148822450 now IPC :0.76066: AVG IPC :0.91989: L2-Pf-HR :0.97205: L2-HR :0.84542: (Sim:1h49m14s) 
CPU  3 inst:  139000000 cyc:  149162425 now IPC :0.74494: AVG IPC :0.92453: L2-Pf-HR :0.95612: L2-HR :0.80364: (Sim:1h49m24s) 
CPU  2 inst:  139000000 cyc:  149706252 now IPC :0.85088: AVG IPC :0.92115: L2-Pf-HR :0.93604: L2-HR :0.76460: (Sim:1h49m39s) 
CPU  1 inst:  140000002 cyc:  149737586 now IPC :0.87069: AVG IPC :0.92768: L2-Pf-HR :0.96387: L2-HR :0.81918: (Sim:1h49m40s) 
CPU  0 inst:  139000000 cyc:  150174805 now IPC :0.73945: AVG IPC :0.91826: L2-Pf-HR :0.97196: L2-HR :0.84534: (Sim:1h49m52s) 
CPU  3 inst:  140000000 cyc:  150527194 now IPC :0.73272: AVG IPC :0.92278: L2-Pf-HR :0.95611: L2-HR :0.80380: (Sim:1h50m2s) 
CPU  2 inst:  140000000 cyc:  150936173 now IPC :0.81306: AVG IPC :0.92026: L2-Pf-HR :0.93610: L2-HR :0.76492: (Sim:1h50m13s) 
CPU  1 inst:  141000004 cyc:  151125675 now IPC :0.72042: AVG IPC :0.92576: L2-Pf-HR :0.96343: L2-HR :0.81888: (Sim:1h50m18s) 
CPU  0 inst:  140000002 cyc:  151545370 now IPC :0.72963: AVG IPC :0.91654: L2-Pf-HR :0.97187: L2-HR :0.84536: (Sim:1h50m29s) 
CPU  3 inst:  141000004 cyc:  151953774 now IPC :0.70098: AVG IPC :0.92069: L2-Pf-HR :0.95566: L2-HR :0.80356: (Sim:1h50m40s) 
CPU  2 inst:  141000004 cyc:  152336837 now IPC :0.71395: AVG IPC :0.91835: L2-Pf-HR :0.93560: L2-HR :0.76470: (Sim:1h50m51s) 
CPU  1 inst:  142000004 cyc:  152457799 now IPC :0.75068: AVG IPC :0.92422: L2-Pf-HR :0.96332: L2-HR :0.81887: (Sim:1h50m55s) 
CPU  0 inst:  141000003 cyc:  152902539 now IPC :0.73683: AVG IPC :0.91493: L2-Pf-HR :0.97152: L2-HR :0.84517: (Sim:1h51m7s) 
CPU  3 inst:  142000000 cyc:  153277053 now IPC :0.75570: AVG IPC :0.91925: L2-Pf-HR :0.95556: L2-HR :0.80356: (Sim:1h51m22s) 
CPU  2 inst:  142000005 cyc:  153444204 now IPC :0.90304: AVG IPC :0.91824: L2-Pf-HR :0.93546: L2-HR :0.76460: (Sim:1h51m30s) 
CPU  1 inst:  143000000 cyc:  153813890 now IPC :0.73741: AVG IPC :0.92257: L2-Pf-HR :0.96327: L2-HR :0.81887: (Sim:1h51m46s) 
CPU  0 inst:  142000000 cyc:  154278597 now IPC :0.72671: AVG IPC :0.91324: L2-Pf-HR :0.97151: L2-HR :0.84532: (Sim:1h52m5s) 
CPU  3 inst:  143000000 cyc:  154756726 now IPC :0.67582: AVG IPC :0.91691: L2-Pf-HR :0.95563: L2-HR :0.80361: (Sim:1h52m25s) 
CPU  2 inst:  143000000 cyc:  154884047 now IPC :0.69452: AVG IPC :0.91615: L2-Pf-HR :0.93529: L2-HR :0.76445: (Sim:1h52m31s) 
CPU  1 inst:  144000000 cyc:  155267656 now IPC :0.68787: AVG IPC :0.92035: L2-Pf-HR :0.96333: L2-HR :0.81901: (Sim:1h52m48s) 
CPU  0 inst:  143000000 cyc:  155423314 now IPC :0.87358: AVG IPC :0.91295: L2-Pf-HR :0.97154: L2-HR :0.84548: (Sim:1h52m56s) 
CPU  3 inst:  144000000 cyc:  156097657 now IPC :0.74575: AVG IPC :0.91543: L2-Pf-HR :0.95566: L2-HR :0.80362: (Sim:1h53m27s) 
CPU  2 inst:  144000000 cyc:  156256410 now IPC :0.72867: AVG IPC :0.91449: L2-Pf-HR :0.93513: L2-HR :0.76421: (Sim:1h53m35s) 
CPU  0 inst:  144000000 cyc:  156462134 now IPC :0.96263: AVG IPC :0.91328: L2-Pf-HR :0.97149: L2-HR :0.84542: (Sim:1h53m45s) 
CPU  1 inst:  145000000 cyc:  156567006 now IPC :0.76962: AVG IPC :0.91909: L2-Pf-HR :0.96331: L2-HR :0.81908: (Sim:1h53m50s) 
CPU  3 inst:  145000000 cyc:  157161419 now IPC :0.94006: AVG IPC :0.91560: L2-Pf-HR :0.95566: L2-HR :0.80365: (Sim:1h54m19s) 
CPU  2 inst:  145000000 cyc:  157517902 now IPC :0.79271: AVG IPC :0.91351: L2-Pf-HR :0.93533: L2-HR :0.76442: (Sim:1h54m37s) 
CPU  0 inst:  145000000 cyc:  157603000 now IPC :0.87653: AVG IPC :0.91301: L2-Pf-HR :0.97140: L2-HR :0.84535: (Sim:1h54m41s) 
CPU  1 inst:  146000000 cyc:  157824005 now IPC :0.79555: AVG IPC :0.91810: L2-Pf-HR :0.96334: L2-HR :0.81907: (Sim:1h54m51s) 
CPU  3 inst:  146000000 cyc:  158180315 now IPC :0.98145: AVG IPC :0.91603: L2-Pf-HR :0.95561: L2-HR :0.80353: (Sim:1h55m8s) 
CPU  2 inst:  146000000 cyc:  158860649 now IPC :0.74474: AVG IPC :0.91208: L2-Pf-HR :0.93531: L2-HR :0.76436: (Sim:1h55m34s) 
CPU  0 inst:  146000000 cyc:  158956397 now IPC :0.73888: AVG IPC :0.91152: L2-Pf-HR :0.97141: L2-HR :0.84526: (Sim:1h55m37s) 
CPU  1 inst:  147000005 cyc:  159063837 now IPC :0.80656: AVG IPC :0.91723: L2-Pf-HR :0.96330: L2-HR :0.81910: (Sim:1h55m40s) 
CPU  3 inst:  147000005 cyc:  159373115 now IPC :0.83837: AVG IPC :0.91544: L2-Pf-HR :0.95565: L2-HR :0.80359: (Sim:1h55m49s) 
CPU  2 inst:  147000005 cyc:  160015749 now IPC :0.86573: AVG IPC :0.91174: L2-Pf-HR :0.93535: L2-HR :0.76436: (Sim:1h56m7s) 
CPU  1 inst:  148000005 cyc:  160178794 now IPC :0.89690: AVG IPC :0.91709: L2-Pf-HR :0.96333: L2-HR :0.81905: (Sim:1h56m11s) 
CPU  0 inst:  147000005 cyc:  160243637 now IPC :0.77686: AVG IPC :0.91043: L2-Pf-HR :0.97144: L2-HR :0.84525: (Sim:1h56m14s) 
CPU  3 inst:  148000005 cyc:  160593188 now IPC :0.81962: AVG IPC :0.91471: L2-Pf-HR :0.95567: L2-HR :0.80355: (Sim:1h56m24s) 
CPU  2 inst:  148000005 cyc:  161119109 now IPC :0.90632: AVG IPC :0.91170: L2-Pf-HR :0.93547: L2-HR :0.76441: (Sim:1h56m45s) 
CPU  1 inst:  149000005 cyc:  161270498 now IPC :0.91600: AVG IPC :0.91708: L2-Pf-HR :0.96335: L2-HR :0.81899: (Sim:1h56m52s) 
CPU  0 inst:  148000005 cyc:  161458300 now IPC :0.82327: AVG IPC :0.90977: L2-Pf-HR :0.97150: L2-HR :0.84527: (Sim:1h57m2s) 
CPU  3 inst:  149000005 cyc:  161818655 now IPC :0.81602: AVG IPC :0.91396: L2-Pf-HR :0.95561: L2-HR :0.80352: (Sim:1h57m20s) 
CPU  2 inst:  149000005 cyc:  162205183 now IPC :0.92075: AVG IPC :0.91176: L2-Pf-HR :0.93547: L2-HR :0.76440: (Sim:1h57m38s) 
CPU  1 inst:  150000000 cyc:  162338171 now IPC :0.93661: AVG IPC :0.91721: L2-Pf-HR :0.96343: L2-HR :0.81897: (Sim:1h57m45s) 
CPU  0 inst:  149000005 cyc:  162680568 now IPC :0.81815: AVG IPC :0.90908: L2-Pf-HR :0.97150: L2-HR :0.84525: (Sim:1h58m2s) 
CPU  3 inst:  150000000 cyc:  163038853 now IPC :0.81954: AVG IPC :0.91325: L2-Pf-HR :0.95563: L2-HR :0.80348: (Sim:1h58m19s) 
CPU  2 inst:  150000000 cyc:  163291950 now IPC :0.92016: AVG IPC :0.91182: L2-Pf-HR :0.93561: L2-HR :0.76452: (Sim:1h58m30s) 
CPU  1 inst:  151000005 cyc:  163552473 now IPC :0.82352: AVG IPC :0.91651: L2-Pf-HR :0.96349: L2-HR :0.81901: (Sim:1h58m42s) 
CPU  0 inst:  150000000 cyc:  164009453 now IPC :0.75251: AVG IPC :0.90781: L2-Pf-HR :0.97161: L2-HR :0.84531: (Sim:1h59m4s) 
CPU  3 inst:  151000005 cyc:  164300151 now IPC :0.79284: AVG IPC :0.91232: L2-Pf-HR :0.95572: L2-HR :0.80361: (Sim:1h59m16s) 
CPU  2 inst:  151000005 cyc:  164495835 now IPC :0.83065: AVG IPC :0.91122: L2-Pf-HR :0.93575: L2-HR :0.76453: (Sim:1h59m26s) 
CPU  1 inst:  152000004 cyc:  164795137 now IPC :0.80472: AVG IPC :0.91566: L2-Pf-HR :0.96360: L2-HR :0.81915: (Sim:1h59m40s) 
CPU  0 inst:  151000005 cyc:  165289406 now IPC :0.78128: AVG IPC :0.90682: L2-Pf-HR :0.97163: L2-HR :0.84531: (Sim:1h59m57s) 
CPU  3 inst:  152000004 cyc:  165373288 now IPC :0.93185: AVG IPC :0.91244: L2-Pf-HR :0.95585: L2-HR :0.80384: (Sim:2h0m2s) 
CPU  2 inst:  152000004 cyc:  165748404 now IPC :0.79836: AVG IPC :0.91036: L2-Pf-HR :0.93592: L2-HR :0.76481: (Sim:2h0m19s) 
CPU  1 inst:  153000003 cyc:  166101694 now IPC :0.76537: AVG IPC :0.91447: L2-Pf-HR :0.96341: L2-HR :0.81896: (Sim:2h0m36s) 
CPU  0 inst:  152000004 cyc:  166484179 now IPC :0.83698: AVG IPC :0.90632: L2-Pf-HR :0.97167: L2-HR :0.84542: (Sim:2h0m54s) 
CPU  3 inst:  153000002 cyc:  166609785 now IPC :0.80873: AVG IPC :0.91167: L2-Pf-HR :0.95573: L2-HR :0.80375: (Sim:2h1m0s) 
CPU  2 inst:  153000000 cyc:  167034207 now IPC :0.77772: AVG IPC :0.90934: L2-Pf-HR :0.93564: L2-HR :0.76458: (Sim:2h1m22s) 
CPU  1 inst:  154000003 cyc:  167239236 now IPC :0.87909: AVG IPC :0.91423: L2-Pf-HR :0.96343: L2-HR :0.81900: (Sim:2h1m31s) 
CPU  0 inst:  153000002 cyc:  167635690 now IPC :0.86842: AVG IPC :0.90605: L2-Pf-HR :0.97156: L2-HR :0.84536: (Sim:2h1m52s) 
CPU  3 inst:  154000000 cyc:  167636029 now IPC :0.97443: AVG IPC :0.91206: L2-Pf-HR :0.95575: L2-HR :0.80379: (Sim:2h1m52s) 
CPU  2 inst:  154000003 cyc:  168115552 now IPC :0.92478: AVG IPC :0.90944: L2-Pf-HR :0.93571: L2-HR :0.76452: (Sim:2h2m18s) 
CPU  1 inst:  155000004 cyc:  168294918 now IPC :0.94726: AVG IPC :0.91444: L2-Pf-HR :0.96343: L2-HR :0.81904: (Sim:2h2m27s) 
CPU  3 inst:  155000004 cyc:  168569983 now IPC :1.07072: AVG IPC :0.91294: L2-Pf-HR :0.95581: L2-HR :0.80385: (Sim:2h2m42s) 
CPU  0 inst:  154000000 cyc:  168598551 now IPC :1.03857: AVG IPC :0.90682: L2-Pf-HR :0.97161: L2-HR :0.84554: (Sim:2h2m44s) 
CPU  2 inst:  155000004 cyc:  169174786 now IPC :0.94408: AVG IPC :0.90966: L2-Pf-HR :0.93571: L2-HR :0.76444: (Sim:2h3m14s) 
CPU  1 inst:  156000004 cyc:  169383490 now IPC :0.91863: AVG IPC :0.91447: L2-Pf-HR :0.96358: L2-HR :0.81920: (Sim:2h3m25s) 
[...]
CPU  1 inst:  859000000 cyc: 1707070242 now IPC :0.27902: AVG IPC :0.50232: L2-Pf-HR :0.83354: L2-HR :0.72708: (Sim:16h6m17s) 
CPU  0 inst:  857000000 cyc: 1708566363 now IPC :0.27763: AVG IPC :0.50071: L2-Pf-HR :0.86768: L2-HR :0.75669: (Sim:16h7m5s) 
CPU  2 inst:  859000000 cyc: 1709688623 now IPC :0.27904: AVG IPC :0.50155: L2-Pf-HR :0.74178: L2-HR :0.67370: (Sim:16h7m41s) 
CPU  3 inst:  860000000 cyc: 1710265583 now IPC :0.27891: AVG IPC :0.50196: L2-Pf-HR :0.81098: L2-HR :0.71115: (Sim:16h8m0s) 
CPU  1 inst:  860000000 cyc: 1710639078 now IPC :0.28020: AVG IPC :0.50185: L2-Pf-HR :0.83304: L2-HR :0.72676: (Sim:16h8m12s) 
CPU  0 inst:  858000002 cyc: 1712138180 now IPC :0.27997: AVG IPC :0.50025: L2-Pf-HR :0.86727: L2-HR :0.75638: (Sim:16h9m2s) 
CPU  2 inst:  860000000 cyc: 1713263921 now IPC :0.27970: AVG IPC :0.50108: L2-Pf-HR :0.74115: L2-HR :0.67339: (Sim:16h9m39s) 
CPU  3 inst:  861000000 cyc: 1713827009 now IPC :0.28079: AVG IPC :0.50150: L2-Pf-HR :0.81044: L2-HR :0.71083: (Sim:16h9m58s) 
CPU  1 inst:  861000000 cyc: 1714227465 now IPC :0.27868: AVG IPC :0.50139: L2-Pf-HR :0.83254: L2-HR :0.72645: (Sim:16h10m11s) 
CPU  0 inst:  859000000 cyc: 1715736325 now IPC :0.27792: AVG IPC :0.49978: L2-Pf-HR :0.86684: L2-HR :0.75607: (Sim:16h10m45s) 
CPU  2 inst:  861000000 cyc: 1716870595 now IPC :0.27726: AVG IPC :0.50061: L2-Pf-HR :0.74050: L2-HR :0.67307: (Sim:16h11m5s) 
CPU  3 inst:  862000000 cyc: 1717429169 now IPC :0.27761: AVG IPC :0.50103: L2-Pf-HR :0.80992: L2-HR :0.71052: (Sim:16h11m23s) 
CPU  1 inst:  862000000 cyc: 1717821619 now IPC :0.27823: AVG IPC :0.50092: L2-Pf-HR :0.83205: L2-HR :0.72614: (Sim:16h11m36s) 
CPU  0 inst:  860000000 cyc: 1719290297 now IPC :0.28138: AVG IPC :0.49933: L2-Pf-HR :0.86642: L2-HR :0.75577: (Sim:16h12m13s) 
CPU  2 inst:  862000000 cyc: 1720419560 now IPC :0.28177: AVG IPC :0.50016: L2-Pf-HR :0.73988: L2-HR :0.67277: (Sim:16h12m50s) 
CPU  3 inst:  863000000 cyc: 1720952989 now IPC :0.28378: AVG IPC :0.50059: L2-Pf-HR :0.80939: L2-HR :0.71021: (Sim:16h13m8s) 
CPU  1 inst:  863000000 cyc: 1721331710 now IPC :0.28489: AVG IPC :0.50048: L2-Pf-HR :0.83155: L2-HR :0.72583: (Sim:16h13m20s) 
CPU  0 inst:  861000000 cyc: 1722790052 now IPC :0.28573: AVG IPC :0.49889: L2-Pf-HR :0.86600: L2-HR :0.75546: (Sim:16h14m2s) 
CPU  2 inst:  863000000 cyc: 1723925086 now IPC :0.28526: AVG IPC :0.49973: L2-Pf-HR :0.73925: L2-HR :0.67246: (Sim:16h14m23s) 
CPU  3 inst:  864000000 cyc: 1724473869 now IPC :0.28402: AVG IPC :0.50015: L2-Pf-HR :0.80886: L2-HR :0.70990: (Sim:16h14m32s) 
CPU  1 inst:  864000000 cyc: 1724882915 now IPC :0.28159: AVG IPC :0.50003: L2-Pf-HR :0.83106: L2-HR :0.72552: (Sim:16h14m39s) 
CPU  0 inst:  862000000 cyc: 1726347815 now IPC :0.28108: AVG IPC :0.49844: L2-Pf-HR :0.86559: L2-HR :0.75516: (Sim:16h15m20s) 
CPU  2 inst:  864000000 cyc: 1727483677 now IPC :0.28101: AVG IPC :0.49927: L2-Pf-HR :0.73863: L2-HR :0.67216: (Sim:16h15m57s) 
CPU  3 inst:  865000000 cyc: 1728065696 now IPC :0.27841: AVG IPC :0.49969: L2-Pf-HR :0.80833: L2-HR :0.70959: (Sim:16h16m16s) 
CPU  1 inst:  865000000 cyc: 1728464598 now IPC :0.27920: AVG IPC :0.49957: L2-Pf-HR :0.83056: L2-HR :0.72520: (Sim:16h16m29s) 
CPU  0 inst:  863000000 cyc: 1729927000 now IPC :0.27939: AVG IPC :0.49799: L2-Pf-HR :0.86517: L2-HR :0.75486: (Sim:16h17m18s) 
CPU  2 inst:  865000000 cyc: 1731066975 now IPC :0.27907: AVG IPC :0.49882: L2-Pf-HR :0.73800: L2-HR :0.67185: (Sim:16h17m55s) 
CPU  3 inst:  866000000 cyc: 1731612201 now IPC :0.28197: AVG IPC :0.49924: L2-Pf-HR :0.80780: L2-HR :0.70928: (Sim:16h18m13s) 
CPU  1 inst:  866000000 cyc: 1732031278 now IPC :0.28037: AVG IPC :0.49912: L2-Pf-HR :0.83008: L2-HR :0.72490: (Sim:16h18m27s) 
CPU  0 inst:  864000000 cyc: 1733489210 now IPC :0.28072: AVG IPC :0.49754: L2-Pf-HR :0.86475: L2-HR :0.75455: (Sim:16h19m15s) 
CPU  2 inst:  866000000 cyc: 1734661500 now IPC :0.27820: AVG IPC :0.49836: L2-Pf-HR :0.73738: L2-HR :0.67154: (Sim:16h19m53s) 
CPU  3 inst:  867000001 cyc: 1735208212 now IPC :0.27809: AVG IPC :0.49878: L2-Pf-HR :0.80728: L2-HR :0.70897: (Sim:16h20m11s) 
CPU  1 inst:  867000001 cyc: 1735606544 now IPC :0.27970: AVG IPC :0.49867: L2-Pf-HR :0.82959: L2-HR :0.72459: (Sim:16h20m24s) 
CPU  0 inst:  865000000 cyc: 1737076881 now IPC :0.27873: AVG IPC :0.49709: L2-Pf-HR :0.86433: L2-HR :0.75424: (Sim:16h21m6s) 
CPU  2 inst:  867000001 cyc: 1738195563 now IPC :0.28296: AVG IPC :0.49792: L2-Pf-HR :0.73675: L2-HR :0.67124: (Sim:16h21m30s) 
CPU  3 inst:  868000001 cyc: 1738759998 now IPC :0.28155: AVG IPC :0.49834: L2-Pf-HR :0.80675: L2-HR :0.70867: (Sim:16h21m47s) 
CPU  1 inst:  868000001 cyc: 1739158120 now IPC :0.28157: AVG IPC :0.49822: L2-Pf-HR :0.82909: L2-HR :0.72428: (Sim:16h22m0s) 
CPU  0 inst:  866000000 cyc: 1740633436 now IPC :0.28117: AVG IPC :0.49665: L2-Pf-HR :0.86392: L2-HR :0.75394: (Sim:16h22m47s) 
CPU  2 inst:  868000001 cyc: 1741742861 now IPC :0.28190: AVG IPC :0.49748: L2-Pf-HR :0.73612: L2-HR :0.67093: (Sim:16h23m24s) 
CPU  3 inst:  869000000 cyc: 1742317018 now IPC :0.28113: AVG IPC :0.49789: L2-Pf-HR :0.80622: L2-HR :0.70835: (Sim:16h23m42s) 
CPU  1 inst:  869000000 cyc: 1742737846 now IPC :0.27935: AVG IPC :0.49777: L2-Pf-HR :0.82860: L2-HR :0.72397: (Sim:16h23m56s) 
CPU  0 inst:  867000001 cyc: 1744206297 now IPC :0.27989: AVG IPC :0.49621: L2-Pf-HR :0.86350: L2-HR :0.75364: (Sim:16h24m42s) 
CPU  2 inst:  869000000 cyc: 1745306524 now IPC :0.28061: AVG IPC :0.49704: L2-Pf-HR :0.73550: L2-HR :0.67063: (Sim:16h25m2s) 
CPU  3 inst:  870000004 cyc: 1745877714 now IPC :0.28085: AVG IPC :0.49745: L2-Pf-HR :0.80569: L2-HR :0.70804: (Sim:16h25m12s) 
CPU  1 inst:  870000004 cyc: 1746274911 now IPC :0.28272: AVG IPC :0.49734: L2-Pf-HR :0.82811: L2-HR :0.72366: (Sim:16h25m22s) 
CPU  0 inst:  868000001 cyc: 1747771017 now IPC :0.28053: AVG IPC :0.49577: L2-Pf-HR :0.86309: L2-HR :0.75334: (Sim:16h26m11s) 
CPU  2 inst:  870000004 cyc: 1748879940 now IPC :0.27985: AVG IPC :0.49660: L2-Pf-HR :0.73489: L2-HR :0.67032: (Sim:16h26m48s) 
CPU  3 inst:  871000002 cyc: 1749438259 now IPC :0.28086: AVG IPC :0.49701: L2-Pf-HR :0.80517: L2-HR :0.70774: (Sim:16h27m6s) 
CPU  1 inst:  871000002 cyc: 1749819010 now IPC :0.28216: AVG IPC :0.49690: L2-Pf-HR :0.82762: L2-HR :0.72335: (Sim:16h27m19s) 
CPU  0 inst:  869000000 cyc: 1751325123 now IPC :0.28136: AVG IPC :0.49533: L2-Pf-HR :0.86267: L2-HR :0.75304: (Sim:16h27m48s) 
CPU  2 inst:  871000002 cyc: 1752394027 now IPC :0.28457: AVG IPC :0.49617: L2-Pf-HR :0.73428: L2-HR :0.67003: (Sim:16h28m13s) 
CPU  3 inst:  872000002 cyc: 1752928235 now IPC :0.28653: AVG IPC :0.49659: L2-Pf-HR :0.80465: L2-HR :0.70743: (Sim:16h28m30s) 
CPU  1 inst:  872000002 cyc: 1753338069 now IPC :0.28417: AVG IPC :0.49647: L2-Pf-HR :0.82713: L2-HR :0.72305: (Sim:16h28m43s) 
CPU  0 inst:  870000004 cyc: 1754804176 now IPC :0.28744: AVG IPC :0.49492: L2-Pf-HR :0.86226: L2-HR :0.75274: (Sim:16h29m31s) 
CPU  2 inst:  872000002 cyc: 1755919770 now IPC :0.28363: AVG IPC :0.49574: L2-Pf-HR :0.73367: L2-HR :0.66972: (Sim:16h30m7s) 
CPU  3 inst:  873000002 cyc: 1756473644 now IPC :0.28205: AVG IPC :0.49616: L2-Pf-HR :0.80413: L2-HR :0.70713: (Sim:16h30m25s) 
CPU  1 inst:  873000002 cyc: 1756867585 now IPC :0.28332: AVG IPC :0.49605: L2-Pf-HR :0.82665: L2-HR :0.72274: (Sim:16h30m38s) 
CPU  0 inst:  871000002 cyc: 1758369035 now IPC :0.28052: AVG IPC :0.49448: L2-Pf-HR :0.86185: L2-HR :0.75244: (Sim:16h31m27s) 
CPU  2 inst:  873000002 cyc: 1759489012 now IPC :0.28017: AVG IPC :0.49531: L2-Pf-HR :0.73306: L2-HR :0.66943: (Sim:16h32m4s) 
CPU  3 inst:  874000002 cyc: 1760061735 now IPC :0.27870: AVG IPC :0.49571: L2-Pf-HR :0.80360: L2-HR :0.70682: (Sim:16h32m23s) 
CPU  1 inst:  874000002 cyc: 1760468169 now IPC :0.27773: AVG IPC :0.49560: L2-Pf-HR :0.82616: L2-HR :0.72243: (Sim:16h32m36s) 
CPU  0 inst:  872000002 cyc: 1761943947 now IPC :0.27973: AVG IPC :0.49405: L2-Pf-HR :0.86144: L2-HR :0.75214: (Sim:16h33m24s) 
CPU  2 inst:  874000002 cyc: 1763013969 now IPC :0.28369: AVG IPC :0.49488: L2-Pf-HR :0.73245: L2-HR :0.66913: (Sim:16h33m58s) 
CPU  3 inst:  875000001 cyc: 1763635637 now IPC :0.27981: AVG IPC :0.49528: L2-Pf-HR :0.80309: L2-HR :0.70652: (Sim:16h34m19s) 
CPU  1 inst:  875000001 cyc: 1764041505 now IPC :0.27985: AVG IPC :0.49516: L2-Pf-HR :0.82568: L2-HR :0.72213: (Sim:16h34m32s) 
CPU  0 inst:  873000002 cyc: 1765487764 now IPC :0.28218: AVG IPC :0.49362: L2-Pf-HR :0.86103: L2-HR :0.75184: (Sim:16h35m20s) 
CPU  2 inst:  875000001 cyc: 1766576000 now IPC :0.28074: AVG IPC :0.49445: L2-Pf-HR :0.73185: L2-HR :0.66883: (Sim:16h35m53s) 
CPU  3 inst:  876000002 cyc: 1767176754 now IPC :0.28240: AVG IPC :0.49485: L2-Pf-HR :0.80258: L2-HR :0.70621: (Sim:16h36m12s) 
CPU  1 inst:  876000002 cyc: 1767602617 now IPC :0.28081: AVG IPC :0.49473: L2-Pf-HR :0.82519: L2-HR :0.72182: (Sim:16h36m26s) 
CPU  0 inst:  874000002 cyc: 1769053009 now IPC :0.28049: AVG IPC :0.49319: L2-Pf-HR :0.86061: L2-HR :0.75154: (Sim:16h37m14s) 
CPU  2 inst:  876000002 cyc: 1770192286 now IPC :0.27653: AVG IPC :0.49400: L2-Pf-HR :0.73123: L2-HR :0.66853: (Sim:16h37m51s) 
CPU  3 inst:  877000002 cyc: 1770770341 now IPC :0.27827: AVG IPC :0.49441: L2-Pf-HR :0.80206: L2-HR :0.70591: (Sim:16h38m9s) 
CPU  1 inst:  877000002 cyc: 1771212579 now IPC :0.27701: AVG IPC :0.49429: L2-Pf-HR :0.82471: L2-HR :0.72152: (Sim:16h38m24s) 
CPU  0 inst:  875000001 cyc: 1772696782 now IPC :0.27444: AVG IPC :0.49274: L2-Pf-HR :0.86020: L2-HR :0.75124: (Sim:16h39m7s) 
CPU  2 inst:  877000002 cyc: 1773804269 now IPC :0.27686: AVG IPC :0.49356: L2-Pf-HR :0.73062: L2-HR :0.66823: (Sim:16h39m27s) 
CPU  3 inst:  878000002 cyc: 1774362216 now IPC :0.27841: AVG IPC :0.49397: L2-Pf-HR :0.80154: L2-HR :0.70561: (Sim:16h39m37s) 
CPU  1 inst:  878000002 cyc: 1774808650 now IPC :0.27808: AVG IPC :0.49385: L2-Pf-HR :0.82423: L2-HR :0.72121: (Sim:16h39m45s) 
CPU  0 inst:  876000002 cyc: 1776268757 now IPC :0.27996: AVG IPC :0.49231: L2-Pf-HR :0.85979: L2-HR :0.75094: (Sim:16h40m24s) 
CPU  2 inst:  878000002 cyc: 1777389381 now IPC :0.27893: AVG IPC :0.49313: L2-Pf-HR :0.73001: L2-HR :0.66793: (Sim:16h41m0s) 
CPU  3 inst:  879000000 cyc: 1778008987 now IPC :0.27421: AVG IPC :0.49352: L2-Pf-HR :0.80103: L2-HR :0.70530: (Sim:16h41m20s) 
CPU  1 inst:  879000000 cyc: 1778437359 now IPC :0.27558: AVG IPC :0.49340: L2-Pf-HR :0.82375: L2-HR :0.72091: (Sim:16h41m34s) 
CPU  0 inst:  877000002 cyc: 1779877312 now IPC :0.27712: AVG IPC :0.49188: L2-Pf-HR :0.85938: L2-HR :0.75064: (Sim:16h42m21s) 
CPU  2 inst:  879000000 cyc: 1780971609 now IPC :0.27916: AVG IPC :0.49270: L2-Pf-HR :0.72941: L2-HR :0.66763: (Sim:16h42m57s) 
CPU  3 inst:  880000003 cyc: 1781570945 now IPC :0.28075: AVG IPC :0.49309: L2-Pf-HR :0.80051: L2-HR :0.70500: (Sim:16h43m16s) 
CPU  1 inst:  880000003 cyc: 1781983806 now IPC :0.28197: AVG IPC :0.49298: L2-Pf-HR :0.82327: L2-HR :0.72061: (Sim:16h43m30s) 
CPU  0 inst:  878000002 cyc: 1783416653 now IPC :0.28254: AVG IPC :0.49146: L2-Pf-HR :0.85897: L2-HR :0.75034: (Sim:16h44m16s) 
CPU  2 inst:  880000003 cyc: 1784532783 now IPC :0.28081: AVG IPC :0.49228: L2-Pf-HR :0.72881: L2-HR :0.66734: (Sim:16h44m52s) 
CPU  3 inst:  881000003 cyc: 1785171959 now IPC :0.27770: AVG IPC :0.49266: L2-Pf-HR :0.79999: L2-HR :0.70470: (Sim:16h45m13s) 
CPU  1 inst:  881000003 cyc: 1785548032 now IPC :0.28057: AVG IPC :0.49256: L2-Pf-HR :0.82279: L2-HR :0.72031: (Sim:16h45m25s) 
CPU  0 inst:  879000000 cyc: 1786946836 now IPC :0.28327: AVG IPC :0.49105: L2-Pf-HR :0.85857: L2-HR :0.75005: (Sim:16h46m11s) 
CPU  2 inst:  881000003 cyc: 1788077032 now IPC :0.28215: AVG IPC :0.49186: L2-Pf-HR :0.72821: L2-HR :0.66704: (Sim:16h46m48s) 
CPU  3 inst:  882000003 cyc: 1788701357 now IPC :0.28333: AVG IPC :0.49225: L2-Pf-HR :0.79948: L2-HR :0.70440: (Sim:16h47m8s) 
CPU  1 inst:  882000003 cyc: 1789047655 now IPC :0.28575: AVG IPC :0.49215: L2-Pf-HR :0.82231: L2-HR :0.72001: (Sim:16h47m19s) 
CPU  0 inst:  880000003 cyc: 1790440804 now IPC :0.28621: AVG IPC :0.49065: L2-Pf-HR :0.85816: L2-HR :0.74976: (Sim:16h48m5s) 
CPU  2 inst:  882000003 cyc: 1791573617 now IPC :0.28599: AVG IPC :0.49146: L2-Pf-HR :0.72763: L2-HR :0.66675: (Sim:16h48m42s) 
CPU  3 inst:  883000001 cyc: 1792206618 now IPC :0.28528: AVG IPC :0.49184: L2-Pf-HR :0.79898: L2-HR :0.70411: (Sim:16h49m3s) 
CPU  1 inst:  883000001 cyc: 1792585367 now IPC :0.28267: AVG IPC :0.49174: L2-Pf-HR :0.82184: L2-HR :0.71971: (Sim:16h49m15s) 
CPU  0 inst:  881000003 cyc: 1794001645 now IPC :0.28083: AVG IPC :0.49023: L2-Pf-HR :0.85775: L2-HR :0.74946: (Sim:16h50m1s) 
CPU  2 inst:  883000001 cyc: 1795167485 now IPC :0.27825: AVG IPC :0.49103: L2-Pf-HR :0.72702: L2-HR :0.66646: (Sim:16h50m29s) 
CPU  3 inst:  884000003 cyc: 1795805476 now IPC :0.27787: AVG IPC :0.49141: L2-Pf-HR :0.79847: L2-HR :0.70381: (Sim:16h50m49s) 
CPU  1 inst:  884000003 cyc: 1796156078 now IPC :0.28006: AVG IPC :0.49132: L2-Pf-HR :0.82137: L2-HR :0.71941: (Sim:16h51m1s) 
CPU  0 inst:  882000003 cyc: 1797593730 now IPC :0.27839: AVG IPC :0.48981: L2-Pf-HR :0.85734: L2-HR :0.74917: (Sim:16h51m44s) 
CPU  2 inst:  884000003 cyc: 1798763245 now IPC :0.27811: AVG IPC :0.49060: L2-Pf-HR :0.72643: L2-HR :0.66616: (Sim:16h52m6s) 
CPU  3 inst:  885000003 cyc: 1799369703 now IPC :0.28057: AVG IPC :0.49099: L2-Pf-HR :0.79796: L2-HR :0.70351: (Sim:16h52m26s) 
CPU  1 inst:  885000003 cyc: 1799726045 now IPC :0.28011: AVG IPC :0.49090: L2-Pf-HR :0.82089: L2-HR :0.71912: (Sim:16h52m37s) 
CPU  0 inst:  883000001 cyc: 1801169077 now IPC :0.27969: AVG IPC :0.48939: L2-Pf-HR :0.85694: L2-HR :0.74888: (Sim:16h53m17s) 
CPU  2 inst:  885000003 cyc: 1802336178 now IPC :0.27988: AVG IPC :0.49019: L2-Pf-HR :0.72584: L2-HR :0.66587: (Sim:16h53m54s) 
CPU  3 inst:  886000003 cyc: 1802946465 now IPC :0.27958: AVG IPC :0.49058: L2-Pf-HR :0.79745: L2-HR :0.70321: (Sim:16h54m11s) 
CPU  1 inst:  886000003 cyc: 1803299169 now IPC :0.27987: AVG IPC :0.49048: L2-Pf-HR :0.82042: L2-HR :0.71882: (Sim:16h54m17s) 
CPU  0 inst:  884000003 cyc: 1804747918 now IPC :0.27942: AVG IPC :0.48898: L2-Pf-HR :0.85654: L2-HR :0.74859: (Sim:16h54m43s) 
CPU  2 inst:  886000003 cyc: 1805905300 now IPC :0.28018: AVG IPC :0.48977: L2-Pf-HR :0.72524: L2-HR :0.66558: (Sim:16h55m4s) 
CPU  3 inst:  887000003 cyc: 1806555073 now IPC :0.27712: AVG IPC :0.49015: L2-Pf-HR :0.79694: L2-HR :0.70291: (Sim:16h55m15s) 
CPU  1 inst:  887000003 cyc: 1806919675 now IPC :0.27620: AVG IPC :0.49005: L2-Pf-HR :0.81994: L2-HR :0.71852: (Sim:16h55m21s) 
CPU  0 inst:  885000003 cyc: 1808366370 now IPC :0.27636: AVG IPC :0.48855: L2-Pf-HR :0.85613: L2-HR :0.74829: (Sim:16h55m47s) 
CPU  2 inst:  887000003 cyc: 1809534606 now IPC :0.27553: AVG IPC :0.48934: L2-Pf-HR :0.72464: L2-HR :0.66529: (Sim:16h56m12s) 
CPU  3 inst:  888000002 cyc: 1810149723 now IPC :0.27819: AVG IPC :0.48973: L2-Pf-HR :0.79644: L2-HR :0.70262: (Sim:16h56m23s) 
CPU  1 inst:  888000002 cyc: 1810503365 now IPC :0.27904: AVG IPC :0.48963: L2-Pf-HR :0.81947: L2-HR :0.71822: (Sim:16h56m30s) 
CPU  0 inst:  886000003 cyc: 1811944710 now IPC :0.27946: AVG IPC :0.48814: L2-Pf-HR :0.85573: L2-HR :0.74800: (Sim:16h56m57s) 
CPU  2 inst:  888000002 cyc: 1813105168 now IPC :0.28007: AVG IPC :0.48893: L2-Pf-HR :0.72407: L2-HR :0.66500: (Sim:16h57m28s) 
CPU  3 inst:  889000001 cyc: 1813695957 now IPC :0.28199: AVG IPC :0.48932: L2-Pf-HR :0.79593: L2-HR :0.70232: (Sim:16h57m47s) 
CPU  1 inst:  889000001 cyc: 1814033178 now IPC :0.28330: AVG IPC :0.48923: L2-Pf-HR :0.81900: L2-HR :0.71793: (Sim:16h57m58s) 
CPU  0 inst:  887000003 cyc: 1815483880 now IPC :0.28255: AVG IPC :0.48774: L2-Pf-HR :0.85532: L2-HR :0.74770: (Sim:16h58m46s) 
CPU  2 inst:  889000001 cyc: 1816615448 now IPC :0.28488: AVG IPC :0.48853: L2-Pf-HR :0.72348: L2-HR :0.66471: (Sim:16h59m24s) 
CPU  3 inst:  890000001 cyc: 1817185064 now IPC :0.28661: AVG IPC :0.48893: L2-Pf-HR :0.79543: L2-HR :0.70202: (Sim:16h59m43s) 
CPU  1 inst:  890000001 cyc: 1817519705 now IPC :0.28682: AVG IPC :0.48884: L2-Pf-HR :0.81853: L2-HR :0.71763: (Sim:16h59m54s) 
CPU  0 inst:  888000002 cyc: 1818957571 now IPC :0.28788: AVG IPC :0.48735: L2-Pf-HR :0.85493: L2-HR :0.74742: (Sim:17h0m34s) 
CPU  2 inst:  890000001 cyc: 1820132828 now IPC :0.28430: AVG IPC :0.48814: L2-Pf-HR :0.72289: L2-HR :0.66442: (Sim:17h0m55s) 
CPU  3 inst:  891000001 cyc: 1820710509 now IPC :0.28365: AVG IPC :0.48853: L2-Pf-HR :0.79493: L2-HR :0.70173: (Sim:17h1m5s) 
CPU  1 inst:  891000001 cyc: 1821058196 now IPC :0.28261: AVG IPC :0.48844: L2-Pf-HR :0.81806: L2-HR :0.71734: (Sim:17h1m11s) 
CPU  0 inst:  889000001 cyc: 1822557783 now IPC :0.27776: AVG IPC :0.48694: L2-Pf-HR :0.85452: L2-HR :0.74713: (Sim:17h1m38s) 
CPU  2 inst:  891000001 cyc: 1823723520 now IPC :0.27850: AVG IPC :0.48773: L2-Pf-HR :0.72230: L2-HR :0.66412: (Sim:17h2m13s) 
CPU  3 inst:  892000000 cyc: 1824274547 now IPC :0.28058: AVG IPC :0.48813: L2-Pf-HR :0.79443: L2-HR :0.70143: (Sim:17h2m32s) 
CPU  1 inst:  892000000 cyc: 1824622603 now IPC :0.28055: AVG IPC :0.48803: L2-Pf-HR :0.81760: L2-HR :0.71705: (Sim:17h2m43s) 
CPU  0 inst:  890000001 cyc: 1826129607 now IPC :0.27997: AVG IPC :0.48654: L2-Pf-HR :0.85412: L2-HR :0.74683: (Sim:17h3m32s) 
CPU  2 inst:  892000000 cyc: 1827322352 now IPC :0.27787: AVG IPC :0.48731: L2-Pf-HR :0.72173: L2-HR :0.66385: (Sim:17h4m11s) 
CPU  3 inst:  893000000 cyc: 1827884490 now IPC :0.27701: AVG IPC :0.48771: L2-Pf-HR :0.79393: L2-HR :0.70114: (Sim:17h4m29s) 
CPU  1 inst:  893000000 cyc: 1828235135 now IPC :0.27681: AVG IPC :0.48762: L2-Pf-HR :0.81713: L2-HR :0.71675: (Sim:17h4m41s) 
CPU  0 inst:  891000001 cyc: 1829767432 now IPC :0.27489: AVG IPC :0.48611: L2-Pf-HR :0.85371: L2-HR :0.74654: (Sim:17h5m31s) 
CPU  2 inst:  893000000 cyc: 1830921655 now IPC :0.27783: AVG IPC :0.48690: L2-Pf-HR :0.72114: L2-HR :0.66355: (Sim:17h6m9s) 
CPU  3 inst:  894000000 cyc: 1831483552 now IPC :0.27785: AVG IPC :0.48730: L2-Pf-HR :0.79342: L2-HR :0.70085: (Sim:17h6m27s) 
CPU  1 inst:  894000000 cyc: 1831847997 now IPC :0.27679: AVG IPC :0.48720: L2-Pf-HR :0.81666: L2-HR :0.71646: (Sim:17h6m39s) 
CPU  0 inst:  892000000 cyc: 1833349171 now IPC :0.27919: AVG IPC :0.48571: L2-Pf-HR :0.85332: L2-HR :0.74625: (Sim:17h7m28s) 
CPU  2 inst:  894000000 cyc: 1834504835 now IPC :0.27908: AVG IPC :0.48649: L2-Pf-HR :0.72056: L2-HR :0.66326: (Sim:17h7m48s) 
CPU  3 inst:  895000000 cyc: 1835041461 now IPC :0.28106: AVG IPC :0.48690: L2-Pf-HR :0.79292: L2-HR :0.70055: (Sim:17h7m57s) 
CPU  1 inst:  895000000 cyc: 1835396034 now IPC :0.28185: AVG IPC :0.48680: L2-Pf-HR :0.81619: L2-HR :0.71616: (Sim:17h8m4s) 
CPU  0 inst:  893000000 cyc: 1836853037 now IPC :0.28540: AVG IPC :0.48533: L2-Pf-HR :0.85292: L2-HR :0.74596: (Sim:17h8m49s) 
CPU  2 inst:  895000000 cyc: 1838001206 now IPC :0.28601: AVG IPC :0.48611: L2-Pf-HR :0.71999: L2-HR :0.66298: (Sim:17h9m25s) 
CPU  3 inst:  896000001 cyc: 1838529804 now IPC :0.28667: AVG IPC :0.48652: L2-Pf-HR :0.79243: L2-HR :0.70027: (Sim:17h9m42s) 
CPU  1 inst:  896000001 cyc: 1838898511 now IPC :0.28551: AVG IPC :0.48642: L2-Pf-HR :0.81573: L2-HR :0.71588: (Sim:17h9m54s) 
CPU  0 inst:  894000000 cyc: 1840397816 now IPC :0.28211: AVG IPC :0.48494: L2-Pf-HR :0.85252: L2-HR :0.74567: (Sim:17h10m42s) 
CPU  2 inst:  896000001 cyc: 1841590579 now IPC :0.27860: AVG IPC :0.48571: L2-Pf-HR :0.71941: L2-HR :0.66270: (Sim:17h11m22s) 
CPU  3 inst:  897000000 cyc: 1842101135 now IPC :0.28001: AVG IPC :0.48612: L2-Pf-HR :0.79193: L2-HR :0.69997: (Sim:17h11m39s) 
CPU  1 inst:  897000000 cyc: 1842458324 now IPC :0.28091: AVG IPC :0.48602: L2-Pf-HR :0.81527: L2-HR :0.71558: (Sim:17h11m50s) 
CPU  0 inst:  895000000 cyc: 1843948515 now IPC :0.28163: AVG IPC :0.48454: L2-Pf-HR :0.85212: L2-HR :0.74539: (Sim:17h12m40s) 
CPU  2 inst:  897000000 cyc: 1845152962 now IPC :0.28071: AVG IPC :0.48531: L2-Pf-HR :0.71884: L2-HR :0.66241: (Sim:17h13m19s) 
Caught signal: 2
     > Finished combination: TraceType=770-tot Sim:1974000000 Prefetcher=L2berti_concurso L1=berti_concurso
