TRACE: [2639000000]_FE_[OPT-350M]_[h16]_[s2048]_[d64] Warmup: 2000000 NumTraces: 2639000000
L1:ipcp:L2:ipcp
*************************************************
   ChampSim Multicore Out-of-Order Simulator
   Last compiled: Oct 30 2024 03:56:02
*************************************************

trace_0 770-tot_memTraces_v4_2048/memTraces[2639000000]_FE_[OPT-350M]_[h16]_[s2048]_[d64].champsim.9.xz
trace_1 770-tot_memTraces_v4_2048/memTraces[2639000000]_FE_[OPT-350M]_[h16]_[s2048]_[d64].champsim.9.xz
trace_2 770-tot_memTraces_v4_2048/memTraces[2639000000]_FE_[OPT-350M]_[h16]_[s2048]_[d64].champsim.9.xz
trace_3 770-tot_memTraces_v4_2048/memTraces[2639000000]_FE_[OPT-350M]_[h16]_[s2048]_[d64].champsim.9.xz
MAIN.cc ln 751 stats print skipped
CPU  1 inst:    1000000 cyc:     498404 now IPC :2.00640: AVG IPC :2.00640: L2-Pf-HR :0.81226: L2-HR :0.74694: (Sim:0h0m47s) 
CPU  0 inst:    1000000 cyc:     498446 now IPC :2.00624: AVG IPC :2.00624: L2-Pf-HR :0.72842: L2-HR :0.69578: (Sim:0h0m47s) 
CPU  2 inst:    1000000 cyc:     498777 now IPC :2.00490: AVG IPC :2.00490: L2-Pf-HR :0.76905: L2-HR :0.71364: (Sim:0h0m47s) 
CPU  3 inst:    1000000 cyc:     498975 now IPC :2.00411: AVG IPC :2.00411: L2-Pf-HR :0.82197: L2-HR :0.74107: (Sim:0h0m47s) 
CPU  0 inst:    2000001 cyc:     981277 now IPC :2.07112: AVG IPC :2.03816: L2-Pf-HR :0.79970: L2-HR :0.76338: (Sim:0h1m37s) 
CPU  1 inst:    2000001 cyc:     981302 now IPC :2.07083: AVG IPC :2.03811: L2-Pf-HR :0.87058: L2-HR :0.80160: (Sim:0h1m37s) 
CPU  2 inst:    2000001 cyc:     981725 now IPC :2.07062: AVG IPC :2.03723: L2-Pf-HR :0.84119: L2-HR :0.77473: (Sim:0h1m37s) 
CPU  3 inst:    2000001 cyc:     981901 now IPC :2.07071: AVG IPC :2.03687: L2-Pf-HR :0.88393: L2-HR :0.79698: (Sim:0h1m37s) 

Warmup complete CPU  0 instructions:    2001319 cycles:     981901 (Simulation time: 0 hr 1 min 37 sec) 
Warmup complete CPU  1 instructions:    2001236 cycles:     981901 (Simulation time: 0 hr 1 min 37 sec) 
Warmup complete CPU  2 instructions:    2000301 cycles:     981901 (Simulation time: 0 hr 1 min 37 sec) 
Warmup complete CPU  3 instructions:    2000001 cycles:     981901 (Simulation time: 0 hr 1 min 37 sec) 

CPU  1 inst:    3000001 cyc:    1772232 now IPC :1.26433: AVG IPC :1.26373: L2-Pf-HR :0.94818: L2-HR :0.84333: (Sim:0h2m26s) 
CPU  0 inst:    3000003 cyc:    1772458 now IPC :1.26394: AVG IPC :1.26327: L2-Pf-HR :0.91815: L2-HR :0.83381: (Sim:0h2m26s) 
CPU  2 inst:    3000000 cyc:    1773142 now IPC :1.26356: AVG IPC :1.26346: L2-Pf-HR :0.90230: L2-HR :0.83668: (Sim:0h2m26s) 
CPU  3 inst:    3000001 cyc:    1786305 now IPC :1.24316: AVG IPC :1.24316: L2-Pf-HR :0.94961: L2-HR :0.84685: (Sim:0h2m27s) 
CPU  1 inst:    4000004 cyc:    2598949 now IPC :1.20961: AVG IPC :1.23606: L2-Pf-HR :0.94876: L2-HR :0.84142: (Sim:0h3m15s) 
CPU  0 inst:    4000004 cyc:    2599153 now IPC :1.20964: AVG IPC :1.23585: L2-Pf-HR :0.92558: L2-HR :0.83395: (Sim:0h3m15s) 
CPU  2 inst:    4000004 cyc:    2611884 now IPC :1.19227: AVG IPC :1.22682: L2-Pf-HR :0.90622: L2-HR :0.83638: (Sim:0h3m16s) 
CPU  3 inst:    4000004 cyc:    2626458 now IPC :1.19026: AVG IPC :1.21613: L2-Pf-HR :0.94820: L2-HR :0.84176: (Sim:0h3m17s) 
CPU  1 inst:    5000005 cyc:    3403359 now IPC :1.24315: AVG IPC :1.23841: L2-Pf-HR :0.94834: L2-HR :0.84045: (Sim:0h4m5s) 
CPU  0 inst:    5000005 cyc:    3403676 now IPC :1.24297: AVG IPC :1.23822: L2-Pf-HR :0.92519: L2-HR :0.83904: (Sim:0h4m5s) 
CPU  2 inst:    5000005 cyc:    3432504 now IPC :1.21859: AVG IPC :1.22407: L2-Pf-HR :0.90546: L2-HR :0.83729: (Sim:0h4m7s) 
CPU  3 inst:    5000005 cyc:    3445638 now IPC :1.22073: AVG IPC :1.21766: L2-Pf-HR :0.94899: L2-HR :0.84601: (Sim:0h4m7s) 
CPU  1 inst:    6000000 cyc:    4196947 now IPC :1.26009: AVG IPC :1.24377: L2-Pf-HR :0.94849: L2-HR :0.83964: (Sim:0h4m54s) 
CPU  0 inst:    6000000 cyc:    4197150 now IPC :1.26027: AVG IPC :1.24366: L2-Pf-HR :0.92542: L2-HR :0.83889: (Sim:0h4m54s) 
CPU  2 inst:    6000000 cyc:    4233586 now IPC :1.24831: AVG IPC :1.23004: L2-Pf-HR :0.90692: L2-HR :0.83703: (Sim:0h4m57s) 
CPU  3 inst:    6000000 cyc:    4249489 now IPC :1.24401: AVG IPC :1.22414: L2-Pf-HR :0.94987: L2-HR :0.84605: (Sim:0h4m58s) 
CPU  0 inst:    7000005 cyc:    5021353 now IPC :1.21330: AVG IPC :1.23747: L2-Pf-HR :0.92419: L2-HR :0.83914: (Sim:0h5m44s) 
CPU  1 inst:    7000000 cyc:    5026671 now IPC :1.20522: AVG IPC :1.23586: L2-Pf-HR :0.94685: L2-HR :0.83725: (Sim:0h5m44s) 
CPU  2 inst:    7000000 cyc:    5070639 now IPC :1.19467: AVG IPC :1.22280: L2-Pf-HR :0.90776: L2-HR :0.83702: (Sim:0h5m47s) 
CPU  3 inst:    7000000 cyc:    5085954 now IPC :1.19551: AVG IPC :1.21831: L2-Pf-HR :0.95021: L2-HR :0.84712: (Sim:0h5m48s) 
CPU  0 inst:    8000003 cyc:    5849401 now IPC :1.20766: AVG IPC :1.23240: L2-Pf-HR :0.92412: L2-HR :0.83888: (Sim:0h6m34s) 
CPU  1 inst:    8000003 cyc:    5861793 now IPC :1.19743: AVG IPC :1.22928: L2-Pf-HR :0.94526: L2-HR :0.83385: (Sim:0h6m35s) 
CPU  2 inst:    8000003 cyc:    5902365 now IPC :1.20232: AVG IPC :1.21934: L2-Pf-HR :0.90808: L2-HR :0.83745: (Sim:0h6m37s) 
CPU  3 inst:    8000003 cyc:    5915186 now IPC :1.20594: AVG IPC :1.21623: L2-Pf-HR :0.95048: L2-HR :0.84709: (Sim:0h6m38s) 
CPU  0 inst:    9000004 cyc:    6621056 now IPC :1.29592: AVG IPC :1.24109: L2-Pf-HR :0.92293: L2-HR :0.83779: (Sim:0h7m23s) 
CPU  1 inst:    9000005 cyc:    6664534 now IPC :1.24573: AVG IPC :1.23161: L2-Pf-HR :0.94503: L2-HR :0.83355: (Sim:0h7m25s) 
CPU  2 inst:    9000005 cyc:    6695705 now IPC :1.26050: AVG IPC :1.22505: L2-Pf-HR :0.90858: L2-HR :0.83828: (Sim:0h7m27s) 
CPU  3 inst:    9000005 cyc:    6702682 now IPC :1.26985: AVG IPC :1.22361: L2-Pf-HR :0.95082: L2-HR :0.84700: (Sim:0h7m27s) 
CPU  0 inst:   10000004 cyc:    7366319 now IPC :1.34181: AVG IPC :1.25284: L2-Pf-HR :0.92018: L2-HR :0.83532: (Sim:0h8m10s) 
CPU  1 inst:   10000004 cyc:    7448631 now IPC :1.27535: AVG IPC :1.23691: L2-Pf-HR :0.94448: L2-HR :0.83371: (Sim:0h8m15s) 
CPU  2 inst:   10000004 cyc:    7462171 now IPC :1.30469: AVG IPC :1.23447: L2-Pf-HR :0.90818: L2-HR :0.83794: (Sim:0h8m16s) 
CPU  3 inst:   10000004 cyc:    7471544 now IPC :1.30062: AVG IPC :1.23273: L2-Pf-HR :0.95042: L2-HR :0.84631: (Sim:0h8m17s) 
CPU  0 inst:   11000002 cyc:    8053912 now IPC :1.45435: AVG IPC :1.27244: L2-Pf-HR :0.91850: L2-HR :0.83364: (Sim:0h8m55s) 
CPU  1 inst:   11000002 cyc:    8199188 now IPC :1.33234: AVG IPC :1.24683: L2-Pf-HR :0.94490: L2-HR :0.83462: (Sim:0h9m5s) 
CPU  2 inst:   11000002 cyc:    8213659 now IPC :1.33069: AVG IPC :1.24447: L2-Pf-HR :0.90779: L2-HR :0.83762: (Sim:0h9m6s) 
CPU  3 inst:   11000002 cyc:    8228483 now IPC :1.32111: AVG IPC :1.24196: L2-Pf-HR :0.95024: L2-HR :0.84596: (Sim:0h9m7s) 
CPU  0 inst:   12000003 cyc:    8726525 now IPC :1.48674: AVG IPC :1.29105: L2-Pf-HR :0.91770: L2-HR :0.83222: (Sim:0h9m40s) 
CPU  1 inst:   12000000 cyc:    8942446 now IPC :1.34543: AVG IPC :1.25604: L2-Pf-HR :0.94471: L2-HR :0.83458: (Sim:0h9m54s) 
CPU  2 inst:   12000003 cyc:    8961867 now IPC :1.33653: AVG IPC :1.25310: L2-Pf-HR :0.90839: L2-HR :0.83833: (Sim:0h9m55s) 
CPU  3 inst:   12000003 cyc:    8984669 now IPC :1.32243: AVG IPC :1.24957: L2-Pf-HR :0.95033: L2-HR :0.84630: (Sim:0h9m57s) 
CPU  0 inst:   13000001 cyc:    9444928 now IPC :1.39197: AVG IPC :1.29962: L2-Pf-HR :0.91697: L2-HR :0.83086: (Sim:0h10m26s) 
CPU  1 inst:   13000001 cyc:    9703071 now IPC :1.31471: AVG IPC :1.26116: L2-Pf-HR :0.94076: L2-HR :0.83481: (Sim:0h10m44s) 
CPU  2 inst:   13000001 cyc:    9719714 now IPC :1.31952: AVG IPC :1.25886: L2-Pf-HR :0.90677: L2-HR :0.83641: (Sim:0h10m45s) 
CPU  3 inst:   13000001 cyc:    9732575 now IPC :1.33706: AVG IPC :1.25705: L2-Pf-HR :0.94856: L2-HR :0.84611: (Sim:0h10m46s) 
CPU  0 inst:   14000001 cyc:   10051598 now IPC :1.64834: AVG IPC :1.32294: L2-Pf-HR :0.91995: L2-HR :0.83135: (Sim:0h11m1s) 
CPU  1 inst:   14000000 cyc:   10394438 now IPC :1.44641: AVG IPC :1.27476: L2-Pf-HR :0.94237: L2-HR :0.83845: (Sim:0h11m21s) 
CPU  2 inst:   14000000 cyc:   10404695 now IPC :1.45989: AVG IPC :1.27348: L2-Pf-HR :0.90833: L2-HR :0.83802: (Sim:0h11m21s) 
CPU  3 inst:   14000001 cyc:   10411370 now IPC :1.47320: AVG IPC :1.27261: L2-Pf-HR :0.94904: L2-HR :0.84774: (Sim:0h11m21s) 
CPU  0 inst:   15000004 cyc:   10680771 now IPC :1.58939: AVG IPC :1.34023: L2-Pf-HR :0.92329: L2-HR :0.83171: (Sim:0h11m33s) 
CPU  1 inst:   15000004 cyc:   11119479 now IPC :1.37924: AVG IPC :1.28224: L2-Pf-HR :0.94293: L2-HR :0.83952: (Sim:0h11m52s) 
CPU  2 inst:   15000004 cyc:   11133005 now IPC :1.37305: AVG IPC :1.28062: L2-Pf-HR :0.90912: L2-HR :0.83839: (Sim:0h11m52s) 
CPU  3 inst:   15000004 cyc:   11139397 now IPC :1.37358: AVG IPC :1.27984: L2-Pf-HR :0.95024: L2-HR :0.84909: (Sim:0h11m53s) 
CPU  0 inst:   16000005 cyc:   11380925 now IPC :1.42826: AVG IPC :1.34615: L2-Pf-HR :0.92640: L2-HR :0.83308: (Sim:0h12m3s) 
CPU  1 inst:   16000005 cyc:   11858293 now IPC :1.35352: AVG IPC :1.28708: L2-Pf-HR :0.94338: L2-HR :0.84215: (Sim:0h12m29s) 
CPU  2 inst:   16000005 cyc:   11872214 now IPC :1.35280: AVG IPC :1.28552: L2-Pf-HR :0.91074: L2-HR :0.83935: (Sim:0h12m29s) 
CPU  3 inst:   16000005 cyc:   11881982 now IPC :1.34665: AVG IPC :1.28439: L2-Pf-HR :0.95072: L2-HR :0.85057: (Sim:0h12m30s) 
CPU  0 inst:   17000005 cyc:   12119969 now IPC :1.35310: AVG IPC :1.34661: L2-Pf-HR :0.92919: L2-HR :0.83442: (Sim:0h12m44s) 
CPU  1 inst:   17000005 cyc:   12591486 now IPC :1.36390: AVG IPC :1.29193: L2-Pf-HR :0.94371: L2-HR :0.84384: (Sim:0h13m16s) 
CPU  2 inst:   17000005 cyc:   12607107 now IPC :1.36074: AVG IPC :1.29027: L2-Pf-HR :0.91196: L2-HR :0.83983: (Sim:0h13m17s) 
CPU  3 inst:   17000005 cyc:   12618468 now IPC :1.35780: AVG IPC :1.28904: L2-Pf-HR :0.95162: L2-HR :0.85223: (Sim:0h13m17s) 
CPU  0 inst:   18000005 cyc:   12840300 now IPC :1.38825: AVG IPC :1.34914: L2-Pf-HR :0.93058: L2-HR :0.83563: (Sim:0h13m32s) 
CPU  1 inst:   18000005 cyc:   13322953 now IPC :1.36712: AVG IPC :1.29639: L2-Pf-HR :0.94429: L2-HR :0.84572: (Sim:0h14m4s) 
CPU  2 inst:   18000005 cyc:   13333678 now IPC :1.37633: AVG IPC :1.29534: L2-Pf-HR :0.91358: L2-HR :0.84105: (Sim:0h14m5s) 
CPU  3 inst:   18000005 cyc:   13350184 now IPC :1.36665: AVG IPC :1.29363: L2-Pf-HR :0.95279: L2-HR :0.85355: (Sim:0h14m6s) 
CPU  0 inst:   19000004 cyc:   13586794 now IPC :1.33959: AVG IPC :1.34858: L2-Pf-HR :0.93242: L2-HR :0.83666: (Sim:0h14m20s) 
CPU  1 inst:   19000004 cyc:   14151403 now IPC :1.20707: AVG IPC :1.29077: L2-Pf-HR :0.94538: L2-HR :0.84649: (Sim:0h14m54s) 
CPU  2 inst:   19000002 cyc:   14171411 now IPC :1.19369: AVG IPC :1.28888: L2-Pf-HR :0.91529: L2-HR :0.84229: (Sim:0h14m55s) 
CPU  3 inst:   19000004 cyc:   14182045 now IPC :1.20212: AVG IPC :1.28786: L2-Pf-HR :0.95375: L2-HR :0.85491: (Sim:0h14m56s) 
CPU  0 inst:   20000002 cyc:   14413782 now IPC :1.20920: AVG IPC :1.34000: L2-Pf-HR :0.93410: L2-HR :0.83706: (Sim:0h15m10s) 
CPU  1 inst:   20000002 cyc:   14979333 now IPC :1.20783: AVG IPC :1.28586: L2-Pf-HR :0.94589: L2-HR :0.84625: (Sim:0h15m44s) 
CPU  2 inst:   20000000 cyc:   15002867 now IPC :1.20271: AVG IPC :1.28377: L2-Pf-HR :0.91675: L2-HR :0.84318: (Sim:0h15m46s) 
CPU  3 inst:   20000001 cyc:   15009133 now IPC :1.20906: AVG IPC :1.28322: L2-Pf-HR :0.95495: L2-HR :0.85630: (Sim:0h15m46s) 
CPU  0 inst:   21000005 cyc:   15235407 now IPC :1.21710: AVG IPC :1.33291: L2-Pf-HR :0.93558: L2-HR :0.83804: (Sim:0h16m0s) 
CPU  1 inst:   21000004 cyc:   15793144 now IPC :1.22879: AVG IPC :1.28273: L2-Pf-HR :0.94582: L2-HR :0.84683: (Sim:0h16m34s) 
CPU  2 inst:   21000003 cyc:   15824253 now IPC :1.21746: AVG IPC :1.28010: L2-Pf-HR :0.91812: L2-HR :0.84454: (Sim:0h16m36s) 
CPU  3 inst:   21000004 cyc:   15829737 now IPC :1.21862: AVG IPC :1.27965: L2-Pf-HR :0.95565: L2-HR :0.85759: (Sim:0h16m37s) 
CPU  0 inst:   22000002 cyc:   16042035 now IPC :1.23973: AVG IPC :1.32792: L2-Pf-HR :0.93723: L2-HR :0.83811: (Sim:0h16m50s) 
CPU  1 inst:   22000002 cyc:   16565559 now IPC :1.29464: AVG IPC :1.28332: L2-Pf-HR :0.94555: L2-HR :0.84767: (Sim:0h17m23s) 
CPU  2 inst:   22000002 cyc:   16616688 now IPC :1.26193: AVG IPC :1.27918: L2-Pf-HR :0.91918: L2-HR :0.84514: (Sim:0h17m26s) 
CPU  3 inst:   22000000 cyc:   16624905 now IPC :1.25759: AVG IPC :1.27853: L2-Pf-HR :0.95663: L2-HR :0.85856: (Sim:0h17m27s) 
CPU  0 inst:   23000003 cyc:   16821570 now IPC :1.28282: AVG IPC :1.32570: L2-Pf-HR :0.93849: L2-HR :0.83838: (Sim:0h17m40s) 
CPU  1 inst:   23000003 cyc:   17294572 now IPC :1.37172: AVG IPC :1.28727: L2-Pf-HR :0.94637: L2-HR :0.84941: (Sim:0h18m11s) 
CPU  2 inst:   23000003 cyc:   17366963 now IPC :1.33285: AVG IPC :1.28164: L2-Pf-HR :0.91987: L2-HR :0.84572: (Sim:0h18m16s) 
CPU  3 inst:   23000003 cyc:   17369312 now IPC :1.34336: AVG IPC :1.28147: L2-Pf-HR :0.95748: L2-HR :0.85931: (Sim:0h18m16s) 
CPU  0 inst:   24000000 cyc:   17557737 now IPC :1.35838: AVG IPC :1.32715: L2-Pf-HR :0.93952: L2-HR :0.83869: (Sim:0h18m28s) 
CPU  1 inst:   24000003 cyc:   17972545 now IPC :1.47499: AVG IPC :1.29476: L2-Pf-HR :0.94731: L2-HR :0.85046: (Sim:0h18m57s) 
CPU  2 inst:   24000003 cyc:   18081721 now IPC :1.39907: AVG IPC :1.28655: L2-Pf-HR :0.92097: L2-HR :0.84662: (Sim:0h19m4s) 
CPU  3 inst:   24000003 cyc:   18086182 now IPC :1.39495: AVG IPC :1.28623: L2-Pf-HR :0.95843: L2-HR :0.86029: (Sim:0h19m5s) 
CPU  0 inst:   25000003 cyc:   18321332 now IPC :1.30960: AVG IPC :1.32638: L2-Pf-HR :0.93889: L2-HR :0.83809: (Sim:0h19m19s) 
CPU  1 inst:   25000002 cyc:   18832512 now IPC :1.16283: AVG IPC :1.28840: L2-Pf-HR :0.94668: L2-HR :0.85052: (Sim:0h19m46s) 
CPU  2 inst:   25000002 cyc:   19110581 now IPC :0.97195: AVG IPC :1.26869: L2-Pf-HR :0.92034: L2-HR :0.84579: (Sim:0h20m1s) 
CPU  3 inst:   25000002 cyc:   19121077 now IPC :0.96628: AVG IPC :1.26797: L2-Pf-HR :0.95767: L2-HR :0.86000: (Sim:0h20m2s) 
CPU  0 inst:   26000001 cyc:   19305390 now IPC :1.01620: AVG IPC :1.30972: L2-Pf-HR :0.93979: L2-HR :0.83844: (Sim:0h20m12s) 
CPU  1 inst:   26000001 cyc:   19585814 now IPC :1.32749: AVG IPC :1.28998: L2-Pf-HR :0.94702: L2-HR :0.85148: (Sim:0h20m28s) 
CPU  2 inst:   26000001 cyc:   20131643 now IPC :0.97937: AVG IPC :1.25326: L2-Pf-HR :0.92115: L2-HR :0.84651: (Sim:0h20m58s) 
CPU  3 inst:   26000001 cyc:   20150315 now IPC :0.97159: AVG IPC :1.25206: L2-Pf-HR :0.95826: L2-HR :0.86066: (Sim:0h20m59s) 
CPU  0 inst:   27000004 cyc:   20316619 now IPC :0.98890: AVG IPC :1.29294: L2-Pf-HR :0.94128: L2-HR :0.83850: (Sim:0h21m7s) 
CPU  1 inst:   27000004 cyc:   20466584 now IPC :1.13537: AVG IPC :1.28300: L2-Pf-HR :0.94809: L2-HR :0.85215: (Sim:0h21m16s) 
CPU  2 inst:   27000004 cyc:   21185234 now IPC :0.94914: AVG IPC :1.23740: L2-Pf-HR :0.92145: L2-HR :0.84665: (Sim:0h21m53s) 
CPU  3 inst:   27000004 cyc:   21208651 now IPC :0.94488: AVG IPC :1.23599: L2-Pf-HR :0.95847: L2-HR :0.86123: (Sim:0h21m55s) 
CPU  0 inst:   28000004 cyc:   21237108 now IPC :1.08638: AVG IPC :1.28356: L2-Pf-HR :0.94215: L2-HR :0.83902: (Sim:0h21m56s) 
CPU  1 inst:   28000004 cyc:   21466523 now IPC :1.00006: AVG IPC :1.26918: L2-Pf-HR :0.94847: L2-HR :0.85315: (Sim:0h22m9s) 
CPU  0 inst:   29000000 cyc:   21977139 now IPC :1.35129: AVG IPC :1.28594: L2-Pf-HR :0.94306: L2-HR :0.84014: (Sim:0h22m38s) 
CPU  2 inst:   28000004 cyc:   22200184 now IPC :0.98527: AVG IPC :1.22534: L2-Pf-HR :0.92181: L2-HR :0.84694: (Sim:0h22m50s) 
CPU  3 inst:   28000004 cyc:   22234462 now IPC :0.97484: AVG IPC :1.22338: L2-Pf-HR :0.95912: L2-HR :0.86172: (Sim:0h22m52s) 
CPU  1 inst:   29000000 cyc:   22466150 now IPC :1.00037: AVG IPC :1.25668: L2-Pf-HR :0.94885: L2-HR :0.85379: (Sim:0h23m5s) 
CPU  0 inst:   30000001 cyc:   22870390 now IPC :1.11951: AVG IPC :1.27915: L2-Pf-HR :0.94378: L2-HR :0.84067: (Sim:0h23m25s) 
CPU  2 inst:   29000000 cyc:   23275295 now IPC :0.93013: AVG IPC :1.21111: L2-Pf-HR :0.92216: L2-HR :0.84704: (Sim:0h23m46s) 
CPU  3 inst:   29000000 cyc:   23290130 now IPC :0.94726: AVG IPC :1.21032: L2-Pf-HR :0.95912: L2-HR :0.86222: (Sim:0h23m46s) 
CPU  1 inst:   30000001 cyc:   23559904 now IPC :0.91428: AVG IPC :1.24009: L2-Pf-HR :0.94954: L2-HR :0.85444: (Sim:0h24m0s) 
CPU  0 inst:   31000000 cyc:   23938569 now IPC :0.93617: AVG IPC :1.26319: L2-Pf-HR :0.94493: L2-HR :0.84126: (Sim:0h24m18s) 
CPU  2 inst:   30000001 cyc:   24470582 now IPC :0.83662: AVG IPC :1.19205: L2-Pf-HR :0.92319: L2-HR :0.84776: (Sim:0h24m42s) 
CPU  3 inst:   30000001 cyc:   24523467 now IPC :0.81081: AVG IPC :1.18939: L2-Pf-HR :0.95914: L2-HR :0.86277: (Sim:0h24m44s) 
CPU  1 inst:   31000000 cyc:   24878381 now IPC :0.75845: AVG IPC :1.21352: L2-Pf-HR :0.94997: L2-HR :0.85480: (Sim:0h25m0s) 
CPU  0 inst:   32000001 cyc:   25216598 now IPC :0.78246: AVG IPC :1.23784: L2-Pf-HR :0.94568: L2-HR :0.84143: (Sim:0h25m14s) 
CPU  2 inst:   31000004 cyc:   25883081 now IPC :0.70797: AVG IPC :1.16459: L2-Pf-HR :0.92378: L2-HR :0.84821: (Sim:0h25m42s) 
CPU  3 inst:   31000000 cyc:   25947493 now IPC :0.70223: AVG IPC :1.16160: L2-Pf-HR :0.95914: L2-HR :0.86322: (Sim:0h25m45s) 
CPU  1 inst:   32000001 cyc:   26329739 now IPC :0.68901: AVG IPC :1.18348: L2-Pf-HR :0.95039: L2-HR :0.85447: (Sim:0h26m2s) 
CPU  0 inst:   33000002 cyc:   26606252 now IPC :0.71960: AVG IPC :1.20974: L2-Pf-HR :0.94605: L2-HR :0.84194: (Sim:0h26m14s) 
CPU  2 inst:   32000004 cyc:   27290366 now IPC :0.71059: AVG IPC :1.14031: L2-Pf-HR :0.92467: L2-HR :0.84867: (Sim:0h26m43s) 
CPU  3 inst:   32000001 cyc:   27367953 now IPC :0.70400: AVG IPC :1.13696: L2-Pf-HR :0.95936: L2-HR :0.86382: (Sim:0h26m46s) 
CPU  1 inst:   33000003 cyc:   27697297 now IPC :0.73123: AVG IPC :1.16033: L2-Pf-HR :0.95045: L2-HR :0.85491: (Sim:0h27m0s) 
CPU  0 inst:   34000005 cyc:   28054006 now IPC :0.69073: AVG IPC :1.18198: L2-Pf-HR :0.94637: L2-HR :0.84190: (Sim:0h27m15s) 
CPU  2 inst:   33000002 cyc:   28605681 now IPC :0.76027: AVG IPC :1.12221: L2-Pf-HR :0.92553: L2-HR :0.84939: (Sim:0h27m40s) 
CPU  3 inst:   33000003 cyc:   28736108 now IPC :0.73091: AVG IPC :1.11695: L2-Pf-HR :0.95969: L2-HR :0.86448: (Sim:0h27m45s) 
CPU  1 inst:   34000005 cyc:   29055900 now IPC :0.73605: AVG IPC :1.13980: L2-Pf-HR :0.95019: L2-HR :0.85509: (Sim:0h28m0s) 
CPU  0 inst:   35000005 cyc:   29360784 now IPC :0.76524: AVG IPC :1.16279: L2-Pf-HR :0.94682: L2-HR :0.84197: (Sim:0h28m16s) 
CPU  2 inst:   34000005 cyc:   29608176 now IPC :0.99751: AVG IPC :1.11784: L2-Pf-HR :0.92604: L2-HR :0.84961: (Sim:0h28m28s) 
CPU  3 inst:   34000002 cyc:   29928135 now IPC :0.83891: AVG IPC :1.10550: L2-Pf-HR :0.95951: L2-HR :0.86471: (Sim:0h28m45s) 
CPU  1 inst:   35000005 cyc:   30225253 now IPC :0.85517: AVG IPC :1.12842: L2-Pf-HR :0.95063: L2-HR :0.85574: (Sim:0h29m0s) 
CPU  2 inst:   35000005 cyc:   30487315 now IPC :1.13748: AVG IPC :1.11843: L2-Pf-HR :0.92681: L2-HR :0.85001: (Sim:0h29m13s) 
CPU  0 inst:   36000002 cyc:   30501299 now IPC :0.87679: AVG IPC :1.15174: L2-Pf-HR :0.94732: L2-HR :0.84220: (Sim:0h29m14s) 
CPU  3 inst:   35000005 cyc:   31218653 now IPC :0.77488: AVG IPC :1.09139: L2-Pf-HR :0.95941: L2-HR :0.86500: (Sim:0h29m47s) 
CPU  1 inst:   36000002 cyc:   31401900 now IPC :0.84987: AVG IPC :1.11765: L2-Pf-HR :0.95139: L2-HR :0.85629: (Sim:0h29m56s) 
CPU  2 inst:   36000002 cyc:   31636111 now IPC :0.87047: AVG IPC :1.10914: L2-Pf-HR :0.92753: L2-HR :0.85060: (Sim:0h30m7s) 
CPU  0 inst:   37000002 cyc:   31902830 now IPC :0.71351: AVG IPC :1.13188: L2-Pf-HR :0.94710: L2-HR :0.84178: (Sim:0h30m18s) 
CPU  3 inst:   36000002 cyc:   32554714 now IPC :0.74847: AVG IPC :1.07688: L2-Pf-HR :0.95961: L2-HR :0.86573: (Sim:0h30m49s) 
CPU  1 inst:   37000002 cyc:   32567358 now IPC :0.85803: AVG IPC :1.10807: L2-Pf-HR :0.95081: L2-HR :0.85600: (Sim:0h30m49s) 
CPU  2 inst:   37000002 cyc:   32876054 now IPC :0.80649: AVG IPC :1.09737: L2-Pf-HR :0.92719: L2-HR :0.85005: (Sim:0h31m5s) 
CPU  0 inst:   38000000 cyc:   33229167 now IPC :0.75395: AVG IPC :1.11633: L2-Pf-HR :0.94781: L2-HR :0.84193: (Sim:0h31m21s) 
CPU  1 inst:   38000000 cyc:   33487150 now IPC :1.08720: AVG IPC :1.10748: L2-Pf-HR :0.95127: L2-HR :0.85669: (Sim:0h31m34s) 
CPU  3 inst:   37000002 cyc:   33805694 now IPC :0.79937: AVG IPC :1.06630: L2-Pf-HR :0.95903: L2-HR :0.86547: (Sim:0h31m51s) 
CPU  2 inst:   38000000 cyc:   33970223 now IPC :0.91393: AVG IPC :1.09129: L2-Pf-HR :0.92762: L2-HR :0.85042: (Sim:0h32m0s) 
CPU  0 inst:   39000000 cyc:   34382332 now IPC :0.86718: AVG IPC :1.10773: L2-Pf-HR :0.94814: L2-HR :0.84190: (Sim:0h32m21s) 
CPU  1 inst:   39000003 cyc:   34457579 now IPC :1.03048: AVG IPC :1.10524: L2-Pf-HR :0.95189: L2-HR :0.85684: (Sim:0h32m25s) 
CPU  3 inst:   38000000 cyc:   34912858 now IPC :0.90321: AVG IPC :1.06098: L2-Pf-HR :0.95925: L2-HR :0.86585: (Sim:0h32m48s) 
CPU  2 inst:   39000000 cyc:   34922603 now IPC :1.05000: AVG IPC :1.09013: L2-Pf-HR :0.92795: L2-HR :0.85045: (Sim:0h32m48s) 
CPU  0 inst:   40000003 cyc:   35609864 now IPC :0.81465: AVG IPC :1.09734: L2-Pf-HR :0.94888: L2-HR :0.84227: (Sim:0h33m23s) 
CPU  1 inst:   40000003 cyc:   35640149 now IPC :0.84562: AVG IPC :1.09638: L2-Pf-HR :0.95189: L2-HR :0.85698: (Sim:0h33m24s) 
CPU  2 inst:   40000003 cyc:   35787000 now IPC :1.15688: AVG IPC :1.09179: L2-Pf-HR :0.92844: L2-HR :0.85053: (Sim:0h33m32s) 
CPU  3 inst:   39000003 cyc:   36010257 now IPC :0.91125: AVG IPC :1.05629: L2-Pf-HR :0.95942: L2-HR :0.86592: (Sim:0h33m43s) 
CPU  1 inst:   41000000 cyc:   36888741 now IPC :0.80090: AVG IPC :1.08611: L2-Pf-HR :0.95193: L2-HR :0.85733: (Sim:0h34m26s) 
CPU  0 inst:   41000000 cyc:   36907053 now IPC :0.77090: AVG IPC :1.08555: L2-Pf-HR :0.94971: L2-HR :0.84306: (Sim:0h34m27s) 
CPU  3 inst:   40000003 cyc:   36924149 now IPC :1.09422: AVG IPC :1.05725: L2-Pf-HR :0.95956: L2-HR :0.86616: (Sim:0h34m28s) 
CPU  2 inst:   41000000 cyc:   36936148 now IPC :0.87021: AVG IPC :1.08470: L2-Pf-HR :0.92878: L2-HR :0.85057: (Sim:0h34m28s) 
CPU  3 inst:   41000000 cyc:   37991771 now IPC :0.93666: AVG IPC :1.05377: L2-Pf-HR :0.95967: L2-HR :0.86651: (Sim:0h35m18s) 
CPU  1 inst:   42000001 cyc:   38066935 now IPC :0.84876: AVG IPC :1.07857: L2-Pf-HR :0.95233: L2-HR :0.85770: (Sim:0h35m22s) 
CPU  2 inst:   42000005 cyc:   38231316 now IPC :0.77210: AVG IPC :1.07383: L2-Pf-HR :0.92902: L2-HR :0.85076: (Sim:0h35m29s) 
CPU  0 inst:   42000002 cyc:   38263904 now IPC :0.73700: AVG IPC :1.07287: L2-Pf-HR :0.95018: L2-HR :0.84330: (Sim:0h35m31s) 
CPU  1 inst:   43000003 cyc:   39115033 now IPC :0.95411: AVG IPC :1.07515: L2-Pf-HR :0.95296: L2-HR :0.85792: (Sim:0h36m12s) 
CPU  3 inst:   42000001 cyc:   39214368 now IPC :0.81793: AVG IPC :1.04623: L2-Pf-HR :0.95970: L2-HR :0.86653: (Sim:0h36m16s) 
CPU  2 inst:   43000003 cyc:   39309567 now IPC :0.92743: AVG IPC :1.06972: L2-Pf-HR :0.92953: L2-HR :0.85111: (Sim:0h36m22s) 
CPU  0 inst:   43000001 cyc:   39513843 now IPC :0.80004: AVG IPC :1.06402: L2-Pf-HR :0.95087: L2-HR :0.84370: (Sim:0h36m32s) 
CPU  1 inst:   44000000 cyc:   40162688 now IPC :0.95451: AVG IPC :1.07192: L2-Pf-HR :0.95337: L2-HR :0.85760: (Sim:0h37m5s) 
CPU  2 inst:   44000000 cyc:   40275953 now IPC :1.03478: AVG IPC :1.06886: L2-Pf-HR :0.93014: L2-HR :0.85139: (Sim:0h37m11s) 
CPU  3 inst:   43000000 cyc:   40326445 now IPC :0.89922: AVG IPC :1.04208: L2-Pf-HR :0.95983: L2-HR :0.86703: (Sim:0h37m14s) 
CPU  0 inst:   44000000 cyc:   40677077 now IPC :0.85967: AVG IPC :1.05803: L2-Pf-HR :0.95135: L2-HR :0.84390: (Sim:0h37m31s) 
CPU  1 inst:   45000003 cyc:   41302172 now IPC :0.87759: AVG IPC :1.06643: L2-Pf-HR :0.95370: L2-HR :0.85768: (Sim:0h38m2s) 
CPU  2 inst:   45000003 cyc:   41344492 now IPC :0.93586: AVG IPC :1.06534: L2-Pf-HR :0.93057: L2-HR :0.85177: (Sim:0h38m4s) 
CPU  3 inst:   44000000 cyc:   41427281 now IPC :0.90840: AVG IPC :1.03844: L2-Pf-HR :0.96011: L2-HR :0.86728: (Sim:0h38m8s) 
CPU  0 inst:   45000003 cyc:   41808962 now IPC :0.88348: AVG IPC :1.05319: L2-Pf-HR :0.95170: L2-HR :0.84408: (Sim:0h38m27s) 
CPU  1 inst:   46000004 cyc:   42426915 now IPC :0.88909: AVG IPC :1.06162: L2-Pf-HR :0.95401: L2-HR :0.85797: (Sim:0h38m58s) 
CPU  2 inst:   46000004 cyc:   42455014 now IPC :0.90048: AVG IPC :1.06092: L2-Pf-HR :0.93084: L2-HR :0.85197: (Sim:0h39m0s) 
CPU  3 inst:   45000003 cyc:   42528723 now IPC :0.90790: AVG IPC :1.03498: L2-Pf-HR :0.96039: L2-HR :0.86758: (Sim:0h39m4s) 
CPU  0 inst:   46000004 cyc:   42927905 now IPC :0.89370: AVG IPC :1.04894: L2-Pf-HR :0.95203: L2-HR :0.84409: (Sim:0h39m23s) 
CPU  1 inst:   47000001 cyc:   43582709 now IPC :0.86520: AVG IPC :1.05629: L2-Pf-HR :0.95429: L2-HR :0.85831: (Sim:0h39m55s) 
CPU  2 inst:   47000001 cyc:   43588877 now IPC :0.88194: AVG IPC :1.05616: L2-Pf-HR :0.93121: L2-HR :0.85219: (Sim:0h39m55s) 
CPU  3 inst:   46000004 cyc:   43672064 now IPC :0.87463: AVG IPC :1.03068: L2-Pf-HR :0.96056: L2-HR :0.86777: (Sim:0h40m0s) 
CPU  0 inst:   47000000 cyc:   44070369 now IPC :0.87530: AVG IPC :1.04433: L2-Pf-HR :0.95242: L2-HR :0.84415: (Sim:0h40m19s) 
CPU  1 inst:   48000000 cyc:   44753932 now IPC :0.85381: AVG IPC :1.05087: L2-Pf-HR :0.95463: L2-HR :0.85853: (Sim:0h40m52s) 
CPU  2 inst:   48000000 cyc:   44754479 now IPC :0.85792: AVG IPC :1.05088: L2-Pf-HR :0.93145: L2-HR :0.85250: (Sim:0h40m52s) 
CPU  3 inst:   47000001 cyc:   44781042 now IPC :0.90173: AVG IPC :1.02742: L2-Pf-HR :0.96044: L2-HR :0.86779: (Sim:0h40m53s) 
CPU  0 inst:   48000002 cyc:   45271803 now IPC :0.83234: AVG IPC :1.03858: L2-Pf-HR :0.95287: L2-HR :0.84424: (Sim:0h41m15s) 
CPU  3 inst:   48000000 cyc:   46038380 now IPC :0.79533: AVG IPC :1.02094: L2-Pf-HR :0.96061: L2-HR :0.86826: (Sim:0h41m49s) 
CPU  2 inst:   49000005 cyc:   46206552 now IPC :0.68867: AVG IPC :1.03925: L2-Pf-HR :0.93098: L2-HR :0.85188: (Sim:0h41m57s) 
CPU  1 inst:   49000005 cyc:   46260382 now IPC :0.66382: AVG IPC :1.03799: L2-Pf-HR :0.95407: L2-HR :0.85827: (Sim:0h42m0s) 
CPU  0 inst:   49000002 cyc:   46494974 now IPC :0.81755: AVG IPC :1.03264: L2-Pf-HR :0.95236: L2-HR :0.84379: (Sim:0h42m10s) 
CPU  2 inst:   50000002 cyc:   47338991 now IPC :0.88305: AVG IPC :1.03543: L2-Pf-HR :0.93102: L2-HR :0.85195: (Sim:0h42m50s) 
CPU  3 inst:   49000002 cyc:   47386979 now IPC :0.74151: AVG IPC :1.01282: L2-Pf-HR :0.96005: L2-HR :0.86794: (Sim:0h42m53s) 
CPU  1 inst:   50000002 cyc:   47450267 now IPC :0.84041: AVG IPC :1.03293: L2-Pf-HR :0.95411: L2-HR :0.85852: (Sim:0h42m56s) 
CPU  0 inst:   50000005 cyc:   47693908 now IPC :0.83408: AVG IPC :1.02754: L2-Pf-HR :0.95254: L2-HR :0.84363: (Sim:0h43m8s) 
CPU  2 inst:   51000005 cyc:   48383745 now IPC :0.95717: AVG IPC :1.03371: L2-Pf-HR :0.93113: L2-HR :0.85192: (Sim:0h43m43s) 
CPU  1 inst:   51000005 cyc:   48509528 now IPC :0.94406: AVG IPC :1.03095: L2-Pf-HR :0.95413: L2-HR :0.85871: (Sim:0h43m49s) 
CPU  3 inst:   50000002 cyc:   48533521 now IPC :0.87219: AVG IPC :1.00943: L2-Pf-HR :0.96007: L2-HR :0.86809: (Sim:0h43m50s) 
CPU  0 inst:   51000000 cyc:   48876050 now IPC :0.84592: AVG IPC :1.02306: L2-Pf-HR :0.95293: L2-HR :0.84358: (Sim:0h44m7s) 
CPU  2 inst:   52000002 cyc:   49388283 now IPC :0.99548: AVG IPC :1.03292: L2-Pf-HR :0.93139: L2-HR :0.85197: (Sim:0h44m33s) 
CPU  1 inst:   52000002 cyc:   49513700 now IPC :0.99584: AVG IPC :1.03023: L2-Pf-HR :0.95424: L2-HR :0.85890: (Sim:0h44m39s) 
CPU  3 inst:   51000005 cyc:   49856910 now IPC :0.75564: AVG IPC :1.00256: L2-Pf-HR :0.96027: L2-HR :0.86815: (Sim:0h44m54s) 
CPU  0 inst:   52000002 cyc:   50372913 now IPC :0.66807: AVG IPC :1.01230: L2-Pf-HR :0.95319: L2-HR :0.84373: (Sim:0h45m15s) 
CPU  2 inst:   53000002 cyc:   50854541 now IPC :0.68201: AVG IPC :1.02260: L2-Pf-HR :0.93160: L2-HR :0.85202: (Sim:0h45m35s) 
CPU  1 inst:   53000001 cyc:   50865503 now IPC :0.73975: AVG IPC :1.02236: L2-Pf-HR :0.95430: L2-HR :0.85915: (Sim:0h45m35s) 
CPU  3 inst:   52000002 cyc:   51151768 now IPC :0.77228: AVG IPC :0.99661: L2-Pf-HR :0.96052: L2-HR :0.86832: (Sim:0h45m48s) 
CPU  0 inst:   53000001 cyc:   51923435 now IPC :0.64494: AVG IPC :1.00112: L2-Pf-HR :0.95348: L2-HR :0.84411: (Sim:0h46m23s) 
CPU  3 inst:   53000003 cyc:   52132441 now IPC :1.01971: AVG IPC :0.99706: L2-Pf-HR :0.96060: L2-HR :0.86857: (Sim:0h46m32s) 
CPU  2 inst:   54000000 cyc:   52344458 now IPC :0.67118: AVG IPC :1.01240: L2-Pf-HR :0.93176: L2-HR :0.85207: (Sim:0h46m40s) 
CPU  1 inst:   54000003 cyc:   52361101 now IPC :0.66863: AVG IPC :1.01206: L2-Pf-HR :0.95446: L2-HR :0.85938: (Sim:0h46m41s) 
CPU  0 inst:   54000000 cyc:   53572411 now IPC :0.60644: AVG IPC :0.98875: L2-Pf-HR :0.95358: L2-HR :0.84435: (Sim:0h47m29s) 
CPU  3 inst:   54000003 cyc:   53597298 now IPC :0.68266: AVG IPC :0.98830: L2-Pf-HR :0.96068: L2-HR :0.86863: (Sim:0h47m30s) 
CPU  2 inst:   55000000 cyc:   53898612 now IPC :0.64344: AVG IPC :1.00157: L2-Pf-HR :0.93215: L2-HR :0.85235: (Sim:0h47m42s) 
CPU  1 inst:   55000000 cyc:   54066782 now IPC :0.58627: AVG IPC :0.99838: L2-Pf-HR :0.95456: L2-HR :0.85935: (Sim:0h47m48s) 
CPU  2 inst:   56000002 cyc:   54974708 now IPC :0.92929: AVG IPC :1.00013: L2-Pf-HR :0.93250: L2-HR :0.85251: (Sim:0h48m29s) 
CPU  3 inst:   55000000 cyc:   55114983 now IPC :0.65890: AVG IPC :0.97907: L2-Pf-HR :0.96073: L2-HR :0.86889: (Sim:0h48m36s) 
CPU  0 inst:   55000000 cyc:   55153423 now IPC :0.63251: AVG IPC :0.97835: L2-Pf-HR :0.95380: L2-HR :0.84465: (Sim:0h48m38s) 
CPU  1 inst:   56000002 cyc:   55395501 now IPC :0.75261: AVG IPC :0.99238: L2-Pf-HR :0.95442: L2-HR :0.85906: (Sim:0h48m49s) 
CPU  2 inst:   57000000 cyc:   56008428 now IPC :0.96738: AVG IPC :0.99951: L2-Pf-HR :0.93277: L2-HR :0.85268: (Sim:0h49m17s) 
CPU  3 inst:   56000002 cyc:   56489870 now IPC :0.72733: AVG IPC :0.97283: L2-Pf-HR :0.96081: L2-HR :0.86910: (Sim:0h49m38s) 
CPU  0 inst:   56000002 cyc:   56571122 now IPC :0.70537: AVG IPC :0.97139: L2-Pf-HR :0.95388: L2-HR :0.84477: (Sim:0h49m43s) 
CPU  1 inst:   57000003 cyc:   56652271 now IPC :0.79569: AVG IPC :0.98794: L2-Pf-HR :0.95465: L2-HR :0.85920: (Sim:0h49m46s) 
CPU  2 inst:   58000000 cyc:   57256684 now IPC :0.80112: AVG IPC :0.99511: L2-Pf-HR :0.93304: L2-HR :0.85283: (Sim:0h50m14s) 
CPU  1 inst:   58000003 cyc:   57725901 now IPC :0.93142: AVG IPC :0.98687: L2-Pf-HR :0.95483: L2-HR :0.85928: (Sim:0h50m36s) 
CPU  3 inst:   57000003 cyc:   57772142 now IPC :0.77987: AVG IPC :0.96848: L2-Pf-HR :0.96101: L2-HR :0.86940: (Sim:0h50m38s) 
CPU  0 inst:   57000000 cyc:   57926863 now IPC :0.73760: AVG IPC :0.96582: L2-Pf-HR :0.95420: L2-HR :0.84487: (Sim:0h50m46s) 
CPU  2 inst:   59000004 cyc:   58479094 now IPC :0.81806: AVG IPC :0.99135: L2-Pf-HR :0.93322: L2-HR :0.85290: (Sim:0h51m12s) 
CPU  1 inst:   59000003 cyc:   58774325 now IPC :0.95381: AVG IPC :0.98627: L2-Pf-HR :0.95503: L2-HR :0.85946: (Sim:0h51m27s) 
CPU  3 inst:   58000003 cyc:   58968374 now IPC :0.83596: AVG IPC :0.96574: L2-Pf-HR :0.96116: L2-HR :0.86947: (Sim:0h51m37s) 
CPU  0 inst:   58000003 cyc:   59184262 now IPC :0.79529: AVG IPC :0.96214: L2-Pf-HR :0.95456: L2-HR :0.84486: (Sim:0h51m47s) 
CPU  2 inst:   60000000 cyc:   59640424 now IPC :0.86108: AVG IPC :0.98877: L2-Pf-HR :0.93336: L2-HR :0.85318: (Sim:0h52m9s) 
CPU  1 inst:   60000002 cyc:   59843594 now IPC :0.93522: AVG IPC :0.98534: L2-Pf-HR :0.95524: L2-HR :0.85967: (Sim:0h52m18s) 
CPU  3 inst:   59000005 cyc:   60194074 now IPC :0.81586: AVG IPC :0.96264: L2-Pf-HR :0.96132: L2-HR :0.86959: (Sim:0h52m35s) 
CPU  0 inst:   59000004 cyc:   60401699 now IPC :0.82140: AVG IPC :0.95925: L2-Pf-HR :0.95480: L2-HR :0.84498: (Sim:0h52m45s) 
CPU  2 inst:   61000003 cyc:   60816602 now IPC :0.85021: AVG IPC :0.98604: L2-Pf-HR :0.93255: L2-HR :0.85218: (Sim:0h53m6s) 
CPU  1 inst:   61000005 cyc:   61060918 now IPC :0.82148: AVG IPC :0.98202: L2-Pf-HR :0.95485: L2-HR :0.85891: (Sim:0h53m18s) 
CPU  3 inst:   60000002 cyc:   61304837 now IPC :0.90028: AVG IPC :0.96149: L2-Pf-HR :0.96141: L2-HR :0.86975: (Sim:0h53m29s) 
CPU  0 inst:   60000002 cyc:   61484573 now IPC :0.92347: AVG IPC :0.95861: L2-Pf-HR :0.95509: L2-HR :0.84506: (Sim:0h53m38s) 
CPU  2 inst:   62000001 cyc:   62029782 now IPC :0.82428: AVG IPC :0.98283: L2-Pf-HR :0.93233: L2-HR :0.85179: (Sim:0h54m5s) 
CPU  1 inst:   62000001 cyc:   62285069 now IPC :0.81689: AVG IPC :0.97872: L2-Pf-HR :0.95444: L2-HR :0.85793: (Sim:0h54m17s) 
CPU  3 inst:   61000005 cyc:   62372932 now IPC :0.93625: AVG IPC :0.96105: L2-Pf-HR :0.96100: L2-HR :0.86895: (Sim:0h54m22s) 
CPU  0 inst:   61000004 cyc:   62648817 now IPC :0.85893: AVG IPC :0.95673: L2-Pf-HR :0.95464: L2-HR :0.84460: (Sim:0h54m35s) 
CPU  2 inst:   63000004 cyc:   63214797 now IPC :0.84387: AVG IPC :0.98018: L2-Pf-HR :0.93186: L2-HR :0.85090: (Sim:0h55m3s) 
CPU  1 inst:   63000000 cyc:   63308929 now IPC :0.97670: AVG IPC :0.97869: L2-Pf-HR :0.95459: L2-HR :0.85736: (Sim:0h55m8s) 
CPU  3 inst:   62000001 cyc:   63526208 now IPC :0.86709: AVG IPC :0.95932: L2-Pf-HR :0.96062: L2-HR :0.86826: (Sim:0h55m19s) 
CPU  0 inst:   62000001 cyc:   63869678 now IPC :0.81909: AVG IPC :0.95406: L2-Pf-HR :0.95447: L2-HR :0.84386: (Sim:0h55m36s) 
CPU  2 inst:   64000004 cyc:   64246773 now IPC :0.96901: AVG IPC :0.98000: L2-Pf-HR :0.93149: L2-HR :0.85009: (Sim:0h55m53s) 
CPU  1 inst:   64000003 cyc:   64477461 now IPC :0.85578: AVG IPC :0.97643: L2-Pf-HR :0.95460: L2-HR :0.85680: (Sim:0h56m5s) 
CPU  3 inst:   63000001 cyc:   64619332 now IPC :0.91481: AVG IPC :0.95856: L2-Pf-HR :0.96105: L2-HR :0.86839: (Sim:0h56m11s) 
CPU  0 inst:   63000001 cyc:   65152595 now IPC :0.77947: AVG IPC :0.95057: L2-Pf-HR :0.95438: L2-HR :0.84300: (Sim:0h56m35s) 
CPU  2 inst:   65000001 cyc:   65536665 now IPC :0.77526: AVG IPC :0.97591: L2-Pf-HR :0.93110: L2-HR :0.84963: (Sim:0h56m54s) 
CPU  1 inst:   65000001 cyc:   65821224 now IPC :0.74418: AVG IPC :0.97161: L2-Pf-HR :0.95442: L2-HR :0.85650: (Sim:0h57m7s) 
CPU  3 inst:   64000005 cyc:   65827553 now IPC :0.82767: AVG IPC :0.95612: L2-Pf-HR :0.96144: L2-HR :0.86843: (Sim:0h57m7s) 
CPU  0 inst:   64000005 cyc:   66459753 now IPC :0.76502: AVG IPC :0.94687: L2-Pf-HR :0.95443: L2-HR :0.84223: (Sim:0h57m36s) 
CPU  2 inst:   66000003 cyc:   66666800 now IPC :0.88485: AVG IPC :0.97434: L2-Pf-HR :0.93146: L2-HR :0.84997: (Sim:0h57m47s) 
CPU  1 inst:   66000003 cyc:   67037803 now IPC :0.82198: AVG IPC :0.96886: L2-Pf-HR :0.95468: L2-HR :0.85665: (Sim:0h58m3s) 
CPU  3 inst:   65000001 cyc:   67252701 now IPC :0.70168: AVG IPC :0.95064: L2-Pf-HR :0.96126: L2-HR :0.86809: (Sim:0h58m13s) 
CPU  0 inst:   65000001 cyc:   67786331 now IPC :0.75382: AVG IPC :0.94303: L2-Pf-HR :0.95380: L2-HR :0.84169: (Sim:0h58m39s) 
CPU  2 inst:   67000003 cyc:   67882417 now IPC :0.82263: AVG IPC :0.97159: L2-Pf-HR :0.93169: L2-HR :0.85003: (Sim:0h58m44s) 
CPU  1 inst:   67000003 cyc:   68239902 now IPC :0.83188: AVG IPC :0.96641: L2-Pf-HR :0.95503: L2-HR :0.85662: (Sim:0h59m1s) 
CPU  3 inst:   66000003 cyc:   68460863 now IPC :0.82771: AVG IPC :0.94844: L2-Pf-HR :0.96139: L2-HR :0.86799: (Sim:0h59m12s) 
CPU  0 inst:   66000003 cyc:   68980138 now IPC :0.83766: AVG IPC :0.94118: L2-Pf-HR :0.95368: L2-HR :0.84172: (Sim:0h59m37s) 
CPU  2 inst:   68000000 cyc:   69021776 now IPC :0.87768: AVG IPC :0.97001: L2-Pf-HR :0.93187: L2-HR :0.85016: (Sim:0h59m39s) 
CPU  1 inst:   68000004 cyc:   69485648 now IPC :0.80273: AVG IPC :0.96343: L2-Pf-HR :0.95543: L2-HR :0.85677: (Sim:1h0m1s) 
CPU  3 inst:   67000003 cyc:   69668840 now IPC :0.82783: AVG IPC :0.94632: L2-Pf-HR :0.96142: L2-HR :0.86787: (Sim:1h0m10s) 
CPU  2 inst:   69000000 cyc:   70213440 now IPC :0.83916: AVG IPC :0.96776: L2-Pf-HR :0.93207: L2-HR :0.85029: (Sim:1h0m36s) 
CPU  0 inst:   67000003 cyc:   70223663 now IPC :0.80417: AVG IPC :0.93872: L2-Pf-HR :0.95348: L2-HR :0.84170: (Sim:1h0m36s) 
CPU  1 inst:   69000005 cyc:   70759353 now IPC :0.78511: AVG IPC :0.96018: L2-Pf-HR :0.95573: L2-HR :0.85676: (Sim:1h1m1s) 
CPU  3 inst:   68000005 cyc:   70903904 now IPC :0.80968: AVG IPC :0.94391: L2-Pf-HR :0.96163: L2-HR :0.86778: (Sim:1h1m8s) 
CPU  2 inst:   70000003 cyc:   71356838 now IPC :0.87459: AVG IPC :0.96625: L2-Pf-HR :0.93224: L2-HR :0.85042: (Sim:1h1m29s) 
CPU  0 inst:   68000003 cyc:   71533894 now IPC :0.76322: AVG IPC :0.93546: L2-Pf-HR :0.95369: L2-HR :0.84211: (Sim:1h1m38s) 
CPU  1 inst:   70000003 cyc:   72088288 now IPC :0.75248: AVG IPC :0.95630: L2-Pf-HR :0.95590: L2-HR :0.85684: (Sim:1h2m3s) 
CPU  3 inst:   69000005 cyc:   72111812 now IPC :0.82788: AVG IPC :0.94194: L2-Pf-HR :0.96187: L2-HR :0.86779: (Sim:1h2m4s) 
CPU  2 inst:   71000003 cyc:   72674912 now IPC :0.75868: AVG IPC :0.96243: L2-Pf-HR :0.93247: L2-HR :0.85044: (Sim:1h2m28s) 
CPU  0 inst:   69000000 cyc:   72975669 now IPC :0.69359: AVG IPC :0.93062: L2-Pf-HR :0.95382: L2-HR :0.84251: (Sim:1h2m41s) 
CPU  3 inst:   70000003 cyc:   73494927 now IPC :0.72300: AVG IPC :0.93776: L2-Pf-HR :0.96204: L2-HR :0.86781: (Sim:1h3m2s) 
CPU  1 inst:   71000000 cyc:   73741075 now IPC :0.60504: AVG IPC :0.94832: L2-Pf-HR :0.95618: L2-HR :0.85682: (Sim:1h3m12s) 
CPU  2 inst:   72000004 cyc:   74301853 now IPC :0.61465: AVG IPC :0.95472: L2-Pf-HR :0.93261: L2-HR :0.85057: (Sim:1h3m34s) 
CPU  0 inst:   70000003 cyc:   74748497 now IPC :0.56407: AVG IPC :0.92181: L2-Pf-HR :0.95383: L2-HR :0.84282: (Sim:1h3m51s) 
CPU  3 inst:   71000003 cyc:   75127859 now IPC :0.61240: AVG IPC :0.93060: L2-Pf-HR :0.96218: L2-HR :0.86782: (Sim:1h4m7s) 
CPU  1 inst:   72000004 cyc:   75294515 now IPC :0.64374: AVG IPC :0.94195: L2-Pf-HR :0.95626: L2-HR :0.85665: (Sim:1h4m13s) 
CPU  2 inst:   73000001 cyc:   75888611 now IPC :0.63021: AVG IPC :0.94784: L2-Pf-HR :0.93269: L2-HR :0.85067: (Sim:1h4m39s) 
CPU  0 inst:   71000002 cyc:   76320995 now IPC :0.63593: AVG IPC :0.91584: L2-Pf-HR :0.95374: L2-HR :0.84302: (Sim:1h4m58s) 
CPU  1 inst:   73000000 cyc:   76457382 now IPC :0.85994: AVG IPC :0.94069: L2-Pf-HR :0.95643: L2-HR :0.85659: (Sim:1h5m5s) 
CPU  3 inst:   72000004 cyc:   76625440 now IPC :0.66774: AVG IPC :0.92539: L2-Pf-HR :0.96228: L2-HR :0.86784: (Sim:1h5m12s) 
CPU  2 inst:   74000001 cyc:   77358582 now IPC :0.68029: AVG IPC :0.94269: L2-Pf-HR :0.93273: L2-HR :0.85070: (Sim:1h5m45s) 
CPU  1 inst:   74000001 cyc:   77568965 now IPC :0.89962: AVG IPC :0.94009: L2-Pf-HR :0.95655: L2-HR :0.85647: (Sim:1h5m54s) 
CPU  0 inst:   72000004 cyc:   77803832 now IPC :0.67438: AVG IPC :0.91118: L2-Pf-HR :0.95363: L2-HR :0.84331: (Sim:1h6m4s) 
CPU  3 inst:   73000001 cyc:   78113689 now IPC :0.67193: AVG IPC :0.92050: L2-Pf-HR :0.96225: L2-HR :0.86778: (Sim:1h6m17s) 
CPU  2 inst:   75000001 cyc:   78837171 now IPC :0.67632: AVG IPC :0.93763: L2-Pf-HR :0.93257: L2-HR :0.85062: (Sim:1h6m47s) 
CPU  1 inst:   75000004 cyc:   79030582 now IPC :0.68418: AVG IPC :0.93530: L2-Pf-HR :0.95671: L2-HR :0.85648: (Sim:1h6m55s) 
CPU  0 inst:   73000005 cyc:   79393840 now IPC :0.62893: AVG IPC :0.90546: L2-Pf-HR :0.95354: L2-HR :0.84358: (Sim:1h7m10s) 
CPU  3 inst:   74000001 cyc:   79722016 now IPC :0.62176: AVG IPC :0.91440: L2-Pf-HR :0.96212: L2-HR :0.86761: (Sim:1h7m24s) 
CPU  2 inst:   76000000 cyc:   80079694 now IPC :0.80481: AVG IPC :0.93555: L2-Pf-HR :0.93248: L2-HR :0.85054: (Sim:1h7m41s) 
CPU  1 inst:   76000000 cyc:   80585697 now IPC :0.64304: AVG IPC :0.92959: L2-Pf-HR :0.95663: L2-HR :0.85626: (Sim:1h8m2s) 
CPU  0 inst:   74000001 cyc:   80948123 now IPC :0.64338: AVG IPC :0.90036: L2-Pf-HR :0.95338: L2-HR :0.84341: (Sim:1h8m17s) 
CPU  3 inst:   75000000 cyc:   81218912 now IPC :0.66805: AVG IPC :0.90980: L2-Pf-HR :0.96198: L2-HR :0.86740: (Sim:1h8m29s) 
CPU  2 inst:   77000002 cyc:   81357957 now IPC :0.78231: AVG IPC :0.93311: L2-Pf-HR :0.93203: L2-HR :0.85024: (Sim:1h8m35s) 
CPU  1 inst:   77000002 cyc:   82018494 now IPC :0.69794: AVG IPC :0.92549: L2-Pf-HR :0.95622: L2-HR :0.85605: (Sim:1h9m8s) 
CPU  0 inst:   75000005 cyc:   82186609 now IPC :0.80744: AVG IPC :0.89895: L2-Pf-HR :0.95300: L2-HR :0.84326: (Sim:1h9m16s) 
CPU  3 inst:   76000000 cyc:   82427842 now IPC :0.82718: AVG IPC :0.90858: L2-Pf-HR :0.96165: L2-HR :0.86721: (Sim:1h9m27s) 
CPU  2 inst:   78000000 cyc:   82446323 now IPC :0.91881: AVG IPC :0.93292: L2-Pf-HR :0.93203: L2-HR :0.85019: (Sim:1h9m28s) 
CPU  1 inst:   78000000 cyc:   83331780 now IPC :0.76145: AVG IPC :0.92288: L2-Pf-HR :0.95640: L2-HR :0.85615: (Sim:1h10m10s) 
CPU  0 inst:   76000000 cyc:   83347986 now IPC :0.86104: AVG IPC :0.89841: L2-Pf-HR :0.95244: L2-HR :0.84297: (Sim:1h10m10s) 
CPU  2 inst:   79000000 cyc:   83639799 now IPC :0.83789: AVG IPC :0.93155: L2-Pf-HR :0.93197: L2-HR :0.85020: (Sim:1h10m24s) 
CPU  3 inst:   77000002 cyc:   83766166 now IPC :0.74720: AVG IPC :0.90597: L2-Pf-HR :0.96120: L2-HR :0.86698: (Sim:1h10m30s) 
CPU  0 inst:   77000002 cyc:   84589188 now IPC :0.80567: AVG IPC :0.89704: L2-Pf-HR :0.95187: L2-HR :0.84274: (Sim:1h11m7s) 
CPU  1 inst:   79000000 cyc:   84646841 now IPC :0.76042: AVG IPC :0.92032: L2-Pf-HR :0.95632: L2-HR :0.85616: (Sim:1h11m9s) 
CPU  2 inst:   80000002 cyc:   84921766 now IPC :0.78005: AVG IPC :0.92923: L2-Pf-HR :0.93197: L2-HR :0.85014: (Sim:1h11m22s) 
CPU  3 inst:   78000000 cyc:   85250486 now IPC :0.67371: AVG IPC :0.90188: L2-Pf-HR :0.96112: L2-HR :0.86686: (Sim:1h11m37s) 
CPU  0 inst:   78000000 cyc:   85619541 now IPC :0.97054: AVG IPC :0.89793: L2-Pf-HR :0.95188: L2-HR :0.84254: (Sim:1h11m54s) 
CPU  1 inst:   80000002 cyc:   85981219 now IPC :0.74941: AVG IPC :0.91764: L2-Pf-HR :0.95635: L2-HR :0.85630: (Sim:1h12m11s) 
CPU  2 inst:   81000003 cyc:   86239537 now IPC :0.75886: AVG IPC :0.92660: L2-Pf-HR :0.93193: L2-HR :0.85010: (Sim:1h12m23s) 
CPU  3 inst:   79000000 cyc:   86626867 now IPC :0.72654: AVG IPC :0.89906: L2-Pf-HR :0.96091: L2-HR :0.86688: (Sim:1h12m40s) 
CPU  0 inst:   79000000 cyc:   86753123 now IPC :0.88216: AVG IPC :0.89772: L2-Pf-HR :0.95206: L2-HR :0.84251: (Sim:1h12m46s) 
CPU  2 inst:   82000005 cyc:   87328060 now IPC :0.91868: AVG IPC :0.92650: L2-Pf-HR :0.93216: L2-HR :0.85032: (Sim:1h13m14s) 
CPU  1 inst:   81000002 cyc:   87334567 now IPC :0.73891: AVG IPC :0.91484: L2-Pf-HR :0.95624: L2-HR :0.85630: (Sim:1h13m14s) 
CPU  3 inst:   80000002 cyc:   87818139 now IPC :0.83944: AVG IPC :0.89824: L2-Pf-HR :0.96088: L2-HR :0.86692: (Sim:1h13m37s) 
CPU  0 inst:   80000005 cyc:   87971324 now IPC :0.82089: AVG IPC :0.89665: L2-Pf-HR :0.95216: L2-HR :0.84255: (Sim:1h13m44s) 
CPU  2 inst:   83000001 cyc:   88385871 now IPC :0.94534: AVG IPC :0.92673: L2-Pf-HR :0.93233: L2-HR :0.85034: (Sim:1h14m4s) 
CPU  1 inst:   82000002 cyc:   88542608 now IPC :0.82779: AVG IPC :0.91364: L2-Pf-HR :0.95625: L2-HR :0.85653: (Sim:1h14m13s) 
CPU  3 inst:   81000004 cyc:   88913092 now IPC :0.91328: AVG IPC :0.89843: L2-Pf-HR :0.96084: L2-HR :0.86696: (Sim:1h14m31s) 
CPU  0 inst:   81000005 cyc:   89201043 now IPC :0.81319: AVG IPC :0.89548: L2-Pf-HR :0.95245: L2-HR :0.84280: (Sim:1h14m45s) 
CPU  2 inst:   84000003 cyc:   89379314 now IPC :1.00660: AVG IPC :0.92763: L2-Pf-HR :0.93237: L2-HR :0.85050: (Sim:1h14m54s) 
CPU  1 inst:   83000001 cyc:   89903617 now IPC :0.73475: AVG IPC :0.91090: L2-Pf-HR :0.95617: L2-HR :0.85643: (Sim:1h15m18s) 
CPU  3 inst:   82000000 cyc:   89911414 now IPC :1.00168: AVG IPC :0.89959: L2-Pf-HR :0.96073: L2-HR :0.86704: (Sim:1h15m18s) 
CPU  2 inst:   85000004 cyc:   90685176 now IPC :0.76578: AVG IPC :0.92527: L2-Pf-HR :0.93253: L2-HR :0.85061: (Sim:1h15m51s) 
CPU  0 inst:   82000002 cyc:   90690999 now IPC :0.67116: AVG IPC :0.89176: L2-Pf-HR :0.95254: L2-HR :0.84299: (Sim:1h15m52s) 
CPU  3 inst:   83000001 cyc:   91172180 now IPC :0.79317: AVG IPC :0.89810: L2-Pf-HR :0.96072: L2-HR :0.86700: (Sim:1h16m12s) 
CPU  1 inst:   84000003 cyc:   91461926 now IPC :0.64172: AVG IPC :0.90626: L2-Pf-HR :0.95617: L2-HR :0.85638: (Sim:1h16m24s) 
CPU  2 inst:   86000001 cyc:   91854998 now IPC :0.85483: AVG IPC :0.92436: L2-Pf-HR :0.93277: L2-HR :0.85075: (Sim:1h16m42s) 
CPU  0 inst:   83000000 cyc:   92235489 now IPC :0.64746: AVG IPC :0.88762: L2-Pf-HR :0.95286: L2-HR :0.84309: (Sim:1h16m59s) 
CPU  3 inst:   84000003 cyc:   92485373 now IPC :0.76150: AVG IPC :0.89614: L2-Pf-HR :0.96086: L2-HR :0.86727: (Sim:1h17m11s) 
CPU  2 inst:   87000004 cyc:   92809433 now IPC :1.04774: AVG IPC :0.92565: L2-Pf-HR :0.93293: L2-HR :0.85083: (Sim:1h17m26s) 
CPU  1 inst:   85000004 cyc:   92913957 now IPC :0.68869: AVG IPC :0.90283: L2-Pf-HR :0.95633: L2-HR :0.85640: (Sim:1h17m31s) 
CPU  3 inst:   85000004 cyc:   93717803 now IPC :0.81141: AVG IPC :0.89501: L2-Pf-HR :0.96089: L2-HR :0.86738: (Sim:1h18m6s) 
CPU  0 inst:   84000003 cyc:   93743113 now IPC :0.66330: AVG IPC :0.88398: L2-Pf-HR :0.95310: L2-HR :0.84324: (Sim:1h18m7s) 
CPU  2 inst:   88000001 cyc:   94102854 now IPC :0.77314: AVG IPC :0.92353: L2-Pf-HR :0.93311: L2-HR :0.85096: (Sim:1h18m23s) 
CPU  1 inst:   86000001 cyc:   94470378 now IPC :0.64250: AVG IPC :0.89849: L2-Pf-HR :0.95640: L2-HR :0.85646: (Sim:1h18m40s) 
CPU  3 inst:   86000001 cyc:   94750653 now IPC :0.96819: AVG IPC :0.89582: L2-Pf-HR :0.96102: L2-HR :0.86754: (Sim:1h18m52s) 
CPU  0 inst:   85000004 cyc:   95198540 now IPC :0.68708: AVG IPC :0.88093: L2-Pf-HR :0.95319: L2-HR :0.84332: (Sim:1h19m12s) 
CPU  2 inst:   89000005 cyc:   95604881 now IPC :0.66577: AVG IPC :0.91944: L2-Pf-HR :0.93295: L2-HR :0.85085: (Sim:1h19m30s) 
CPU  1 inst:   87000004 cyc:   95780924 now IPC :0.76304: AVG IPC :0.89662: L2-Pf-HR :0.95663: L2-HR :0.85671: (Sim:1h19m38s) 
CPU  3 inst:   87000005 cyc:   95978114 now IPC :0.81469: AVG IPC :0.89477: L2-Pf-HR :0.96117: L2-HR :0.86765: (Sim:1h19m47s) 
CPU  0 inst:   86000001 cyc:   96641740 now IPC :0.69290: AVG IPC :0.87810: L2-Pf-HR :0.95321: L2-HR :0.84337: (Sim:1h20m17s) 
CPU  1 inst:   88000001 cyc:   96797680 now IPC :0.98352: AVG IPC :0.89754: L2-Pf-HR :0.95683: L2-HR :0.85685: (Sim:1h20m25s) 
CPU  2 inst:   90000005 cyc:   96928557 now IPC :0.75547: AVG IPC :0.91717: L2-Pf-HR :0.93303: L2-HR :0.85087: (Sim:1h20m31s) 
CPU  3 inst:   88000001 cyc:   97362642 now IPC :0.72226: AVG IPC :0.89229: L2-Pf-HR :0.96115: L2-HR :0.86774: (Sim:1h20m50s) 
CPU  1 inst:   89000005 cyc:   97910234 now IPC :0.89884: AVG IPC :0.89756: L2-Pf-HR :0.95658: L2-HR :0.85684: (Sim:1h21m11s) 
CPU  0 inst:   87000000 cyc:   98027307 now IPC :0.72173: AVG IPC :0.87587: L2-Pf-HR :0.95333: L2-HR :0.84340: (Sim:1h21m14s) 
CPU  2 inst:   91000000 cyc:   98250340 now IPC :0.75655: AVG IPC :0.91499: L2-Pf-HR :0.93305: L2-HR :0.85091: (Sim:1h21m20s) 
CPU  3 inst:   89000005 cyc:   98717632 now IPC :0.73802: AVG IPC :0.89016: L2-Pf-HR :0.96111: L2-HR :0.86777: (Sim:1h21m34s) 
CPU  1 inst:   90000002 cyc:   99037300 now IPC :0.88726: AVG IPC :0.89744: L2-Pf-HR :0.95663: L2-HR :0.85698: (Sim:1h21m44s) 
CPU  0 inst:   88000001 cyc:   99192157 now IPC :0.85848: AVG IPC :0.87566: L2-Pf-HR :0.95348: L2-HR :0.84334: (Sim:1h21m49s) 
CPU  2 inst:   92000002 cyc:   99268155 now IPC :0.98250: AVG IPC :0.91569: L2-Pf-HR :0.93323: L2-HR :0.85102: (Sim:1h21m51s) 
CPU  3 inst:   90000002 cyc:   99922983 now IPC :0.82963: AVG IPC :0.88942: L2-Pf-HR :0.96114: L2-HR :0.86777: (Sim:1h22m10s) 
CPU  2 inst:   93000002 cyc:  100247537 now IPC :1.02105: AVG IPC :0.91673: L2-Pf-HR :0.93345: L2-HR :0.85101: (Sim:1h22m19s) 
CPU  1 inst:   91000005 cyc:  100299296 now IPC :0.79240: AVG IPC :0.89610: L2-Pf-HR :0.95673: L2-HR :0.85706: (Sim:1h22m21s) 
CPU  0 inst:   89000005 cyc:  100486241 now IPC :0.77275: AVG IPC :0.87432: L2-Pf-HR :0.95320: L2-HR :0.84329: (Sim:1h22m27s) 
CPU  3 inst:   91000005 cyc:  101265557 now IPC :0.74484: AVG IPC :0.88748: L2-Pf-HR :0.96103: L2-HR :0.86783: (Sim:1h22m49s) 
CPU  2 inst:   94000000 cyc:  101348592 now IPC :0.90822: AVG IPC :0.91664: L2-Pf-HR :0.93369: L2-HR :0.85123: (Sim:1h22m51s) 
CPU  1 inst:   92000002 cyc:  101592196 now IPC :0.77345: AVG IPC :0.89453: L2-Pf-HR :0.95655: L2-HR :0.85718: (Sim:1h22m58s) 
CPU  0 inst:   90000002 cyc:  101618056 now IPC :0.88353: AVG IPC :0.87442: L2-Pf-HR :0.95336: L2-HR :0.84319: (Sim:1h22m59s) 
CPU  3 inst:   92000002 cyc:  102541225 now IPC :0.78390: AVG IPC :0.88618: L2-Pf-HR :0.96115: L2-HR :0.86801: (Sim:1h23m25s) 
CPU  0 inst:   91000000 cyc:  102559552 now IPC :1.06214: AVG IPC :0.87616: L2-Pf-HR :0.95350: L2-HR :0.84322: (Sim:1h23m26s) 
CPU  2 inst:   95000000 cyc:  102579675 now IPC :0.81229: AVG IPC :0.91537: L2-Pf-HR :0.93388: L2-HR :0.85132: (Sim:1h23m27s) 
CPU  1 inst:   93000004 cyc:  102773444 now IPC :0.84656: AVG IPC :0.89397: L2-Pf-HR :0.95652: L2-HR :0.85727: (Sim:1h23m32s) 
CPU  0 inst:   92000002 cyc:  103556288 now IPC :1.00328: AVG IPC :0.87740: L2-Pf-HR :0.95361: L2-HR :0.84331: (Sim:1h23m56s) 
CPU  2 inst:   96000000 cyc:  103744456 now IPC :0.85853: AVG IPC :0.91473: L2-Pf-HR :0.93409: L2-HR :0.85160: (Sim:1h24m1s) 
CPU  3 inst:   93000003 cyc:  103777207 now IPC :0.80907: AVG IPC :0.88525: L2-Pf-HR :0.96120: L2-HR :0.86810: (Sim:1h24m2s) 
CPU  1 inst:   94000000 cyc:  103885718 now IPC :0.89906: AVG IPC :0.89403: L2-Pf-HR :0.95653: L2-HR :0.85753: (Sim:1h24m5s) 
CPU  0 inst:   93000001 cyc:  104697814 now IPC :0.87602: AVG IPC :0.87738: L2-Pf-HR :0.95395: L2-HR :0.84357: (Sim:1h24m29s) 
CPU  2 inst:   97000000 cyc:  104910091 now IPC :0.85790: AVG IPC :0.91409: L2-Pf-HR :0.93430: L2-HR :0.85175: (Sim:1h24m36s) 
CPU  3 inst:   94000000 cyc:  104936780 now IPC :0.86238: AVG IPC :0.88500: L2-Pf-HR :0.96120: L2-HR :0.86824: (Sim:1h24m36s) 
CPU  1 inst:   95000000 cyc:  104974727 now IPC :0.91827: AVG IPC :0.89428: L2-Pf-HR :0.95653: L2-HR :0.85753: (Sim:1h24m38s) 
CPU  0 inst:   94000000 cyc:  105851630 now IPC :0.86669: AVG IPC :0.87727: L2-Pf-HR :0.95403: L2-HR :0.84376: (Sim:1h25m4s) 
CPU  1 inst:   96000000 cyc:  105909206 now IPC :1.07011: AVG IPC :0.89585: L2-Pf-HR :0.95658: L2-HR :0.85748: (Sim:1h25m6s) 
CPU  2 inst:   98000002 cyc:  106020231 now IPC :0.90079: AVG IPC :0.91395: L2-Pf-HR :0.93448: L2-HR :0.85190: (Sim:1h25m9s) 
CPU  3 inst:   95000000 cyc:  106165649 now IPC :0.81376: AVG IPC :0.88417: L2-Pf-HR :0.96131: L2-HR :0.86831: (Sim:1h25m13s) 
CPU  1 inst:   97000000 cyc:  106883622 now IPC :1.02626: AVG IPC :0.89705: L2-Pf-HR :0.95668: L2-HR :0.85757: (Sim:1h25m36s) 
CPU  2 inst:   99000004 cyc:  106989610 now IPC :1.03159: AVG IPC :0.91502: L2-Pf-HR :0.93465: L2-HR :0.85204: (Sim:1h25m41s) 
CPU  0 inst:   95000000 cyc:  107087734 now IPC :0.80899: AVG IPC :0.87647: L2-Pf-HR :0.95428: L2-HR :0.84381: (Sim:1h25m46s) 
CPU  3 inst:   96000000 cyc:  107277651 now IPC :0.89928: AVG IPC :0.88433: L2-Pf-HR :0.96146: L2-HR :0.86853: (Sim:1h25m56s) 
CPU  2 inst:  100000000 cyc:  107938631 now IPC :1.05371: AVG IPC :0.91626: L2-Pf-HR :0.93487: L2-HR :0.85217: (Sim:1h26m28s) 
CPU  1 inst:   98000005 cyc:  108109584 now IPC :0.81569: AVG IPC :0.89612: L2-Pf-HR :0.95676: L2-HR :0.85764: (Sim:1h26m36s) 
CPU  0 inst:   96000000 cyc:  108327484 now IPC :0.80661: AVG IPC :0.87566: L2-Pf-HR :0.95444: L2-HR :0.84397: (Sim:1h26m48s) 
CPU  3 inst:   97000000 cyc:  108329747 now IPC :0.95048: AVG IPC :0.88497: L2-Pf-HR :0.96154: L2-HR :0.86865: (Sim:1h26m48s) 
CPU  2 inst:  101000004 cyc:  109101171 now IPC :0.86019: AVG IPC :0.91565: L2-Pf-HR :0.93470: L2-HR :0.85205: (Sim:1h27m25s) 
CPU  1 inst:   99000005 cyc:  109316036 now IPC :0.82888: AVG IPC :0.89537: L2-Pf-HR :0.95697: L2-HR :0.85787: (Sim:1h27m36s) 
CPU  3 inst:   98000001 cyc:  109325299 now IPC :1.00447: AVG IPC :0.88607: L2-Pf-HR :0.96157: L2-HR :0.86869: (Sim:1h27m37s) 
CPU  0 inst:   97000000 cyc:  109568813 now IPC :0.80559: AVG IPC :0.87486: L2-Pf-HR :0.95454: L2-HR :0.84404: (Sim:1h27m48s) 
CPU  2 inst:  102000004 cyc:  110335642 now IPC :0.81006: AVG IPC :0.91446: L2-Pf-HR :0.93478: L2-HR :0.85210: (Sim:1h28m23s) 
CPU  3 inst:   99000004 cyc:  110421334 now IPC :0.91238: AVG IPC :0.88634: L2-Pf-HR :0.96154: L2-HR :0.86880: (Sim:1h28m27s) 
CPU  1 inst:  100000000 cyc:  110718109 now IPC :0.71323: AVG IPC :0.89304: L2-Pf-HR :0.95696: L2-HR :0.85792: (Sim:1h28m34s) 
CPU  0 inst:   98000002 cyc:  110962623 now IPC :0.71746: AVG IPC :0.87287: L2-Pf-HR :0.95452: L2-HR :0.84403: (Sim:1h28m41s) 
CPU  2 inst:  103000004 cyc:  111711240 now IPC :0.72696: AVG IPC :0.91213: L2-Pf-HR :0.93479: L2-HR :0.85209: (Sim:1h29m0s) 
CPU  3 inst:  100000003 cyc:  111860827 now IPC :0.69469: AVG IPC :0.88385: L2-Pf-HR :0.96158: L2-HR :0.86886: (Sim:1h29m4s) 
CPU  1 inst:  101000004 cyc:  112124184 now IPC :0.71120: AVG IPC :0.89074: L2-Pf-HR :0.95659: L2-HR :0.85786: (Sim:1h29m11s) 
CPU  0 inst:   99000004 cyc:  112220590 now IPC :0.79493: AVG IPC :0.87199: L2-Pf-HR :0.95467: L2-HR :0.84408: (Sim:1h29m14s) 
CPU  2 inst:  104000003 cyc:  112929467 now IPC :0.82086: AVG IPC :0.91114: L2-Pf-HR :0.93485: L2-HR :0.85216: (Sim:1h29m35s) 
CPU  3 inst:  101000004 cyc:  113096399 now IPC :0.80934: AVG IPC :0.88303: L2-Pf-HR :0.96127: L2-HR :0.86878: (Sim:1h29m40s) 
CPU  0 inst:  100000003 cyc:  113267896 now IPC :0.95483: AVG IPC :0.87276: L2-Pf-HR :0.95491: L2-HR :0.84405: (Sim:1h29m46s) 
CPU  1 inst:  102000004 cyc:  113270319 now IPC :0.87250: AVG IPC :0.89055: L2-Pf-HR :0.95652: L2-HR :0.85794: (Sim:1h29m46s) 
CPU  2 inst:  105000004 cyc:  114024382 now IPC :0.91331: AVG IPC :0.91116: L2-Pf-HR :0.93501: L2-HR :0.85214: (Sim:1h30m20s) 
CPU  3 inst:  102000004 cyc:  114158334 now IPC :0.94168: AVG IPC :0.88358: L2-Pf-HR :0.96123: L2-HR :0.86880: (Sim:1h30m27s) 
CPU  1 inst:  103000004 cyc:  114374844 now IPC :0.90537: AVG IPC :0.89070: L2-Pf-HR :0.95664: L2-HR :0.85811: (Sim:1h30m38s) 
CPU  0 inst:  101000004 cyc:  114405523 now IPC :0.87902: AVG IPC :0.87282: L2-Pf-HR :0.95482: L2-HR :0.84402: (Sim:1h30m40s) 
CPU  2 inst:  106000002 cyc:  115068573 now IPC :0.95768: AVG IPC :0.91159: L2-Pf-HR :0.93516: L2-HR :0.85234: (Sim:1h31m13s) 
CPU  3 inst:  103000004 cyc:  115237419 now IPC :0.92671: AVG IPC :0.88398: L2-Pf-HR :0.96121: L2-HR :0.86882: (Sim:1h31m22s) 
CPU  1 inst:  104000000 cyc:  115461550 now IPC :0.92021: AVG IPC :0.89098: L2-Pf-HR :0.95660: L2-HR :0.85819: (Sim:1h31m34s) 
CPU  0 inst:  102000004 cyc:  115497152 now IPC :0.91606: AVG IPC :0.87323: L2-Pf-HR :0.95491: L2-HR :0.84395: (Sim:1h31m35s) 
CPU  2 inst:  107000002 cyc:  116181663 now IPC :0.89840: AVG IPC :0.91146: L2-Pf-HR :0.93536: L2-HR :0.85240: (Sim:1h32m10s) 
CPU  3 inst:  104000003 cyc:  116317607 now IPC :0.92576: AVG IPC :0.88437: L2-Pf-HR :0.96125: L2-HR :0.86887: (Sim:1h32m17s) 
CPU  0 inst:  103000004 cyc:  116566849 now IPC :0.93484: AVG IPC :0.87380: L2-Pf-HR :0.95492: L2-HR :0.84401: (Sim:1h32m29s) 
CPU  1 inst:  105000004 cyc:  116574599 now IPC :0.89844: AVG IPC :0.89105: L2-Pf-HR :0.95663: L2-HR :0.85828: (Sim:1h32m30s) 
CPU  2 inst:  108000000 cyc:  117235546 now IPC :0.94887: AVG IPC :0.91180: L2-Pf-HR :0.93549: L2-HR :0.85256: (Sim:1h33m3s) 
CPU  3 inst:  105000004 cyc:  117402477 now IPC :0.92177: AVG IPC :0.88472: L2-Pf-HR :0.96125: L2-HR :0.86894: (Sim:1h33m11s) 
CPU  1 inst:  106000002 cyc:  117661812 now IPC :0.91978: AVG IPC :0.89132: L2-Pf-HR :0.95667: L2-HR :0.85842: (Sim:1h33m24s) 
CPU  0 inst:  104000000 cyc:  117738998 now IPC :0.85313: AVG IPC :0.87360: L2-Pf-HR :0.95511: L2-HR :0.84414: (Sim:1h33m28s) 
CPU  2 inst:  109000003 cyc:  118323254 now IPC :0.91937: AVG IPC :0.91187: L2-Pf-HR :0.93565: L2-HR :0.85269: (Sim:1h33m56s) 
CPU  3 inst:  106000002 cyc:  118529860 now IPC :0.88701: AVG IPC :0.88475: L2-Pf-HR :0.96128: L2-HR :0.86906: (Sim:1h34m7s) 
CPU  1 inst:  107000002 cyc:  118787570 now IPC :0.88829: AVG IPC :0.89129: L2-Pf-HR :0.95653: L2-HR :0.85836: (Sim:1h34m19s) 
CPU  0 inst:  105000004 cyc:  119030926 now IPC :0.77404: AVG IPC :0.87251: L2-Pf-HR :0.95522: L2-HR :0.84432: (Sim:1h34m31s) 
CPU  2 inst:  110000001 cyc:  119250931 now IPC :1.07796: AVG IPC :0.91317: L2-Pf-HR :0.93580: L2-HR :0.85278: (Sim:1h34m42s) 
CPU  3 inst:  107000002 cyc:  119760524 now IPC :0.81257: AVG IPC :0.88400: L2-Pf-HR :0.96129: L2-HR :0.86911: (Sim:1h35m6s) 
CPU  1 inst:  108000000 cyc:  120048905 now IPC :0.79281: AVG IPC :0.89024: L2-Pf-HR :0.95652: L2-HR :0.85835: (Sim:1h35m20s) 
CPU  2 inst:  111000002 cyc:  120215263 now IPC :1.03699: AVG IPC :0.91417: L2-Pf-HR :0.93589: L2-HR :0.85285: (Sim:1h35m27s) 
CPU  0 inst:  106000002 cyc:  120359043 now IPC :0.75294: AVG IPC :0.87118: L2-Pf-HR :0.95526: L2-HR :0.84455: (Sim:1h35m33s) 
CPU  3 inst:  108000000 cyc:  121213042 now IPC :0.68846: AVG IPC :0.88164: L2-Pf-HR :0.96132: L2-HR :0.86929: (Sim:1h36m7s) 
CPU  2 inst:  112000005 cyc:  121696287 now IPC :0.67521: AVG IPC :0.91124: L2-Pf-HR :0.93604: L2-HR :0.85294: (Sim:1h36m26s) 
CPU  1 inst:  109000002 cyc:  121704232 now IPC :0.60411: AVG IPC :0.88632: L2-Pf-HR :0.95655: L2-HR :0.85842: (Sim:1h36m26s) 
CPU  0 inst:  107000002 cyc:  122117869 now IPC :0.56856: AVG IPC :0.86678: L2-Pf-HR :0.95550: L2-HR :0.84462: (Sim:1h36m42s) 
CPU  3 inst:  109000004 cyc:  123006991 now IPC :0.55743: AVG IPC :0.87687: L2-Pf-HR :0.96140: L2-HR :0.86940: (Sim:1h37m14s) 
CPU  2 inst:  113000002 cyc:  123398888 now IPC :0.58733: AVG IPC :0.90673: L2-Pf-HR :0.93588: L2-HR :0.85282: (Sim:1h37m29s) 
CPU  1 inst:  110000000 cyc:  123549983 now IPC :0.54178: AVG IPC :0.88113: L2-Pf-HR :0.95672: L2-HR :0.85850: (Sim:1h37m34s) 
CPU  0 inst:  108000000 cyc:  123947199 now IPC :0.54665: AVG IPC :0.86202: L2-Pf-HR :0.95560: L2-HR :0.84474: (Sim:1h37m50s) 
CPU  3 inst:  110000004 cyc:  124619631 now IPC :0.62010: AVG IPC :0.87352: L2-Pf-HR :0.96143: L2-HR :0.86943: (Sim:1h38m19s) 
CPU  2 inst:  114000000 cyc:  124707501 now IPC :0.76417: AVG IPC :0.90523: L2-Pf-HR :0.93598: L2-HR :0.85287: (Sim:1h38m23s) 
CPU  1 inst:  111000001 cyc:  125026935 now IPC :0.67707: AVG IPC :0.87870: L2-Pf-HR :0.95680: L2-HR :0.85867: (Sim:1h38m38s) 
CPU  0 inst:  109000001 cyc:  125402012 now IPC :0.68737: AVG IPC :0.85998: L2-Pf-HR :0.95559: L2-HR :0.84485: (Sim:1h38m55s) 
CPU  2 inst:  115000003 cyc:  125683696 now IPC :1.02439: AVG IPC :0.90616: L2-Pf-HR :0.93603: L2-HR :0.85285: (Sim:1h39m8s) 
CPU  3 inst:  111000001 cyc:  125930599 now IPC :0.76279: AVG IPC :0.87236: L2-Pf-HR :0.96135: L2-HR :0.86947: (Sim:1h39m20s) 
CPU  1 inst:  112000001 cyc:  126409773 now IPC :0.72315: AVG IPC :0.87699: L2-Pf-HR :0.95697: L2-HR :0.85869: (Sim:1h39m42s) 
CPU  0 inst:  110000000 cyc:  126779028 now IPC :0.72621: AVG IPC :0.85851: L2-Pf-HR :0.95570: L2-HR :0.84481: (Sim:1h40m0s) 
CPU  2 inst:  116000003 cyc:  126826844 now IPC :0.87478: AVG IPC :0.90587: L2-Pf-HR :0.93615: L2-HR :0.85292: (Sim:1h40m2s) 
CPU  3 inst:  112000002 cyc:  126956172 now IPC :0.97507: AVG IPC :0.87319: L2-Pf-HR :0.96145: L2-HR :0.86956: (Sim:1h40m7s) 
CPU  1 inst:  113000002 cyc:  127894903 now IPC :0.67334: AVG IPC :0.87461: L2-Pf-HR :0.95671: L2-HR :0.85862: (Sim:1h40m47s) 
CPU  3 inst:  113000002 cyc:  128076061 now IPC :0.89295: AVG IPC :0.87337: L2-Pf-HR :0.96123: L2-HR :0.86954: (Sim:1h40m55s) 
CPU  0 inst:  111000004 cyc:  128279634 now IPC :0.66640: AVG IPC :0.85625: L2-Pf-HR :0.95589: L2-HR :0.84488: (Sim:1h41m3s) 
CPU  2 inst:  117000003 cyc:  128345538 now IPC :0.65846: AVG IPC :0.90292: L2-Pf-HR :0.93621: L2-HR :0.85286: (Sim:1h41m6s) 
CPU  1 inst:  114000000 cyc:  129480718 now IPC :0.63059: AVG IPC :0.87159: L2-Pf-HR :0.95673: L2-HR :0.85871: (Sim:1h41m40s) 
CPU  3 inst:  114000000 cyc:  129491073 now IPC :0.70671: AVG IPC :0.87153: L2-Pf-HR :0.96115: L2-HR :0.86957: (Sim:1h41m41s) 
CPU  0 inst:  112000001 cyc:  129896175 now IPC :0.61860: AVG IPC :0.85327: L2-Pf-HR :0.95576: L2-HR :0.84475: (Sim:1h41m49s) 
CPU  2 inst:  118000004 cyc:  129920334 now IPC :0.63500: AVG IPC :0.89965: L2-Pf-HR :0.93631: L2-HR :0.85303: (Sim:1h41m50s) 
CPU  1 inst:  115000003 cyc:  131195142 now IPC :0.58329: AVG IPC :0.86780: L2-Pf-HR :0.95674: L2-HR :0.85877: (Sim:1h42m19s) 
CPU  3 inst:  115000003 cyc:  131206845 now IPC :0.58283: AVG IPC :0.86773: L2-Pf-HR :0.96116: L2-HR :0.86958: (Sim:1h42m19s) 
CPU  0 inst:  113000002 cyc:  131458743 now IPC :0.63997: AVG IPC :0.85072: L2-Pf-HR :0.95560: L2-HR :0.84475: (Sim:1h42m25s) 
CPU  2 inst:  119000000 cyc:  131576282 now IPC :0.60388: AVG IPC :0.89590: L2-Pf-HR :0.93654: L2-HR :0.85312: (Sim:1h42m28s) 
CPU  1 inst:  116000003 cyc:  132762269 now IPC :0.63811: AVG IPC :0.86507: L2-Pf-HR :0.95665: L2-HR :0.85891: (Sim:1h42m57s) 
CPU  3 inst:  116000003 cyc:  132780126 now IPC :0.63561: AVG IPC :0.86496: L2-Pf-HR :0.96106: L2-HR :0.86972: (Sim:1h42m57s) 
CPU  0 inst:  114000000 cyc:  132955022 now IPC :0.66832: AVG IPC :0.84865: L2-Pf-HR :0.95576: L2-HR :0.84471: (Sim:1h43m1s) 
CPU  2 inst:  120000004 cyc:  133133684 now IPC :0.64210: AVG IPC :0.89291: L2-Pf-HR :0.93663: L2-HR :0.85325: (Sim:1h43m6s) 
CPU  0 inst:  115000003 cyc:  134023332 now IPC :0.93606: AVG IPC :0.84935: L2-Pf-HR :0.95579: L2-HR :0.84471: (Sim:1h43m30s) 
CPU  1 inst:  117000003 cyc:  134205222 now IPC :0.69302: AVG IPC :0.86320: L2-Pf-HR :0.95669: L2-HR :0.85897: (Sim:1h43m34s) 
CPU  3 inst:  117000003 cyc:  134247668 now IPC :0.68141: AVG IPC :0.86294: L2-Pf-HR :0.96108: L2-HR :0.86974: (Sim:1h43m36s) 
CPU  2 inst:  121000000 cyc:  134463262 now IPC :0.75212: AVG IPC :0.89151: L2-Pf-HR :0.93671: L2-HR :0.85337: (Sim:1h43m42s) 
CPU  0 inst:  116000003 cyc:  135057301 now IPC :0.96715: AVG IPC :0.85026: L2-Pf-HR :0.95594: L2-HR :0.84481: (Sim:1h43m58s) 
CPU  2 inst:  122000005 cyc:  135541546 now IPC :0.92740: AVG IPC :0.89180: L2-Pf-HR :0.93682: L2-HR :0.85344: (Sim:1h44m12s) 
CPU  3 inst:  118000005 cyc:  135588955 now IPC :0.74555: AVG IPC :0.86177: L2-Pf-HR :0.96117: L2-HR :0.86990: (Sim:1h44m13s) 
CPU  1 inst:  118000004 cyc:  135603655 now IPC :0.71509: AVG IPC :0.86166: L2-Pf-HR :0.95678: L2-HR :0.85910: (Sim:1h44m13s) 
CPU  0 inst:  117000003 cyc:  136490487 now IPC :0.69775: AVG IPC :0.84864: L2-Pf-HR :0.95613: L2-HR :0.84496: (Sim:1h44m36s) 
CPU  2 inst:  123000000 cyc:  136554201 now IPC :0.98750: AVG IPC :0.89251: L2-Pf-HR :0.93692: L2-HR :0.85353: (Sim:1h44m38s) 
CPU  3 inst:  119000004 cyc:  137099453 now IPC :0.66203: AVG IPC :0.85955: L2-Pf-HR :0.96112: L2-HR :0.86988: (Sim:1h44m50s) 
CPU  1 inst:  119000000 cyc:  137261072 now IPC :0.60335: AVG IPC :0.85852: L2-Pf-HR :0.95685: L2-HR :0.85910: (Sim:1h44m54s) 
CPU  2 inst:  124000003 cyc:  138057387 now IPC :0.66526: AVG IPC :0.89002: L2-Pf-HR :0.93703: L2-HR :0.85360: (Sim:1h45m15s) 
CPU  0 inst:  118000005 cyc:  138075954 now IPC :0.63073: AVG IPC :0.84612: L2-Pf-HR :0.95611: L2-HR :0.84514: (Sim:1h45m15s) 
CPU  3 inst:  120000004 cyc:  138162479 now IPC :0.94071: AVG IPC :0.86018: L2-Pf-HR :0.96122: L2-HR :0.87000: (Sim:1h45m18s) 
CPU  1 inst:  120000004 cyc:  138751444 now IPC :0.67098: AVG IPC :0.85649: L2-Pf-HR :0.95682: L2-HR :0.85903: (Sim:1h45m33s) 
CPU  2 inst:  125000005 cyc:  139272225 now IPC :0.82316: AVG IPC :0.88943: L2-Pf-HR :0.93672: L2-HR :0.85325: (Sim:1h45m48s) 
CPU  3 inst:  121000003 cyc:  139329930 now IPC :0.85657: AVG IPC :0.86015: L2-Pf-HR :0.96134: L2-HR :0.87012: (Sim:1h45m50s) 
CPU  0 inst:  119000000 cyc:  139557575 now IPC :0.67493: AVG IPC :0.84429: L2-Pf-HR :0.95633: L2-HR :0.84522: (Sim:1h45m56s) 
CPU  1 inst:  121000002 cyc:  139852310 now IPC :0.90837: AVG IPC :0.85691: L2-Pf-HR :0.95697: L2-HR :0.85912: (Sim:1h46m4s) 
CPU  2 inst:  126000001 cyc:  140388125 now IPC :0.89613: AVG IPC :0.88948: L2-Pf-HR :0.93652: L2-HR :0.85297: (Sim:1h46m22s) 
CPU  3 inst:  122000003 cyc:  140650361 now IPC :0.75733: AVG IPC :0.85918: L2-Pf-HR :0.96148: L2-HR :0.87017: (Sim:1h46m34s) 
CPU  1 inst:  122000004 cyc:  140919345 now IPC :0.93718: AVG IPC :0.85752: L2-Pf-HR :0.95687: L2-HR :0.85907: (Sim:1h46m46s) 
CPU  0 inst:  120000004 cyc:  140990102 now IPC :0.69807: AVG IPC :0.84280: L2-Pf-HR :0.95657: L2-HR :0.84533: (Sim:1h46m49s) 
CPU  2 inst:  127000002 cyc:  141534862 now IPC :0.87204: AVG IPC :0.88934: L2-Pf-HR :0.93629: L2-HR :0.85253: (Sim:1h47m4s) 
CPU  3 inst:  123000000 cyc:  142075408 now IPC :0.70173: AVG IPC :0.85759: L2-Pf-HR :0.96155: L2-HR :0.87029: (Sim:1h47m18s) 
CPU  1 inst:  123000000 cyc:  142153948 now IPC :0.80997: AVG IPC :0.85710: L2-Pf-HR :0.95697: L2-HR :0.85930: (Sim:1h47m20s) 
CPU  0 inst:  121000003 cyc:  142478042 now IPC :0.67207: AVG IPC :0.84100: L2-Pf-HR :0.95667: L2-HR :0.84542: (Sim:1h47m28s) 
CPU  2 inst:  128000004 cyc:  142702334 now IPC :0.85655: AVG IPC :0.88907: L2-Pf-HR :0.93607: L2-HR :0.85213: (Sim:1h47m35s) 
CPU  3 inst:  124000003 cyc:  143288410 now IPC :0.82440: AVG IPC :0.85730: L2-Pf-HR :0.96160: L2-HR :0.87030: (Sim:1h47m50s) 
CPU  1 inst:  124000003 cyc:  143533830 now IPC :0.72470: AVG IPC :0.85582: L2-Pf-HR :0.95704: L2-HR :0.85936: (Sim:1h47m57s) 
CPU  0 inst:  122000003 cyc:  143845296 now IPC :0.73139: AVG IPC :0.83995: L2-Pf-HR :0.95660: L2-HR :0.84540: (Sim:1h48m6s) 
CPU  2 inst:  129000001 cyc:  144005295 now IPC :0.76748: AVG IPC :0.88796: L2-Pf-HR :0.93581: L2-HR :0.85180: (Sim:1h48m10s) 
CPU  3 inst:  125000005 cyc:  144564004 now IPC :0.78395: AVG IPC :0.85665: L2-Pf-HR :0.96145: L2-HR :0.87008: (Sim:1h48m26s) 
CPU  1 inst:  125000005 cyc:  144754348 now IPC :0.81933: AVG IPC :0.85551: L2-Pf-HR :0.95667: L2-HR :0.85907: (Sim:1h48m31s) 
CPU  0 inst:  123000000 cyc:  145131335 now IPC :0.77758: AVG IPC :0.83940: L2-Pf-HR :0.95662: L2-HR :0.84547: (Sim:1h48m42s) 
CPU  2 inst:  130000004 cyc:  145148774 now IPC :0.87453: AVG IPC :0.88786: L2-Pf-HR :0.93591: L2-HR :0.85189: (Sim:1h48m42s) 
CPU  3 inst:  126000001 cyc:  145724687 now IPC :0.86156: AVG IPC :0.85669: L2-Pf-HR :0.96144: L2-HR :0.86975: (Sim:1h48m59s) 
CPU  1 inst:  126000001 cyc:  145827890 now IPC :0.93149: AVG IPC :0.85607: L2-Pf-HR :0.95650: L2-HR :0.85856: (Sim:1h49m1s) 
CPU  2 inst:  131000003 cyc:  146435380 now IPC :0.77724: AVG IPC :0.88688: L2-Pf-HR :0.93597: L2-HR :0.85193: (Sim:1h49m18s) 
CPU  0 inst:  124000003 cyc:  146504348 now IPC :0.72833: AVG IPC :0.83835: L2-Pf-HR :0.95667: L2-HR :0.84539: (Sim:1h49m20s) 
CPU  3 inst:  127000002 cyc:  146949312 now IPC :0.81658: AVG IPC :0.85636: L2-Pf-HR :0.96163: L2-HR :0.86974: (Sim:1h49m33s) 
CPU  1 inst:  127000002 cyc:  146992805 now IPC :0.85843: AVG IPC :0.85609: L2-Pf-HR :0.95652: L2-HR :0.85829: (Sim:1h49m34s) 
CPU  0 inst:  125000005 cyc:  147671660 now IPC :0.85667: AVG IPC :0.83850: L2-Pf-HR :0.95640: L2-HR :0.84528: (Sim:1h49m53s) 
CPU  2 inst:  132000002 cyc:  147724398 now IPC :0.77578: AVG IPC :0.88590: L2-Pf-HR :0.93602: L2-HR :0.85195: (Sim:1h49m54s) 
CPU  3 inst:  128000004 cyc:  148235633 now IPC :0.77741: AVG IPC :0.85567: L2-Pf-HR :0.96181: L2-HR :0.86977: (Sim:1h50m8s) 
CPU  1 inst:  128000004 cyc:  148285954 now IPC :0.77331: AVG IPC :0.85537: L2-Pf-HR :0.95651: L2-HR :0.85795: (Sim:1h50m10s) 
CPU  2 inst:  133000000 cyc:  148973949 now IPC :0.80029: AVG IPC :0.88518: L2-Pf-HR :0.93606: L2-HR :0.85197: (Sim:1h50m27s) 
CPU  0 inst:  126000001 cyc:  148977052 now IPC :0.76605: AVG IPC :0.83786: L2-Pf-HR :0.95630: L2-HR :0.84492: (Sim:1h50m27s) 
CPU  3 inst:  129000001 cyc:  149753788 now IPC :0.65869: AVG IPC :0.85366: L2-Pf-HR :0.96165: L2-HR :0.86960: (Sim:1h50m47s) 
CPU  1 inst:  129000001 cyc:  149875357 now IPC :0.62917: AVG IPC :0.85295: L2-Pf-HR :0.95640: L2-HR :0.85776: (Sim:1h50m50s) 
CPU  0 inst:  127000002 cyc:  150243142 now IPC :0.78983: AVG IPC :0.83745: L2-Pf-HR :0.95626: L2-HR :0.84450: (Sim:1h50m59s) 
CPU  2 inst:  134000001 cyc:  150493861 now IPC :0.65793: AVG IPC :0.88287: L2-Pf-HR :0.93609: L2-HR :0.85200: (Sim:1h51m5s) 
CPU  3 inst:  130000004 cyc:  151179580 now IPC :0.70137: AVG IPC :0.85221: L2-Pf-HR :0.96159: L2-HR :0.86959: (Sim:1h51m23s) 
CPU  1 inst:  130000004 cyc:  151302591 now IPC :0.70066: AVG IPC :0.85150: L2-Pf-HR :0.95644: L2-HR :0.85783: (Sim:1h51m26s) 
CPU  0 inst:  128000004 cyc:  151549323 now IPC :0.76559: AVG IPC :0.83683: L2-Pf-HR :0.95627: L2-HR :0.84411: (Sim:1h51m32s) 
CPU  2 inst:  135000001 cyc:  151948067 now IPC :0.68766: AVG IPC :0.88099: L2-Pf-HR :0.93617: L2-HR :0.85201: (Sim:1h51m43s) 
CPU  3 inst:  131000002 cyc:  152436214 now IPC :0.79578: AVG IPC :0.85174: L2-Pf-HR :0.96169: L2-HR :0.86960: (Sim:1h51m54s) 
CPU  1 inst:  131000002 cyc:  152806658 now IPC :0.66486: AVG IPC :0.84966: L2-Pf-HR :0.95652: L2-HR :0.85784: (Sim:1h52m4s) 
CPU  0 inst:  129000001 cyc:  153039125 now IPC :0.67123: AVG IPC :0.83520: L2-Pf-HR :0.95592: L2-HR :0.84379: (Sim:1h52m10s) 
CPU  2 inst:  136000005 cyc:  153410989 now IPC :0.68357: AVG IPC :0.87910: L2-Pf-HR :0.93626: L2-HR :0.85209: (Sim:1h52m20s) 
CPU  3 inst:  132000002 cyc:  153533469 now IPC :0.91137: AVG IPC :0.85217: L2-Pf-HR :0.96175: L2-HR :0.86954: (Sim:1h52m24s) 
CPU  1 inst:  132000003 cyc:  154151192 now IPC :0.74375: AVG IPC :0.84873: L2-Pf-HR :0.95668: L2-HR :0.85788: (Sim:1h52m42s) 
CPU  0 inst:  130000004 cyc:  154154347 now IPC :0.89669: AVG IPC :0.83565: L2-Pf-HR :0.95580: L2-HR :0.84378: (Sim:1h52m42s) 
CPU  2 inst:  137000000 cyc:  154582367 now IPC :0.85369: AVG IPC :0.87890: L2-Pf-HR :0.93630: L2-HR :0.85214: (Sim:1h52m55s) 
CPU  3 inst:  133000000 cyc:  154642697 now IPC :0.90153: AVG IPC :0.85253: L2-Pf-HR :0.96188: L2-HR :0.86952: (Sim:1h52m57s) 
CPU  0 inst:  131000003 cyc:  155227765 now IPC :0.93160: AVG IPC :0.83632: L2-Pf-HR :0.95576: L2-HR :0.84377: (Sim:1h53m14s) 
CPU  1 inst:  133000000 cyc:  155337933 now IPC :0.84264: AVG IPC :0.84868: L2-Pf-HR :0.95680: L2-HR :0.85784: (Sim:1h53m18s) 
CPU  2 inst:  138000002 cyc:  155647836 now IPC :0.93856: AVG IPC :0.87931: L2-Pf-HR :0.93629: L2-HR :0.85221: (Sim:1h53m27s) 
CPU  3 inst:  134000001 cyc:  155803780 now IPC :0.86127: AVG IPC :0.85259: L2-Pf-HR :0.96199: L2-HR :0.86951: (Sim:1h53m32s) 
CPU  0 inst:  132000003 cyc:  156310112 now IPC :0.92392: AVG IPC :0.83693: L2-Pf-HR :0.95572: L2-HR :0.84386: (Sim:1h53m47s) 
CPU  1 inst:  134000001 cyc:  156480647 now IPC :0.87511: AVG IPC :0.84887: L2-Pf-HR :0.95695: L2-HR :0.85786: (Sim:1h53m52s) 
CPU  2 inst:  139000004 cyc:  156704607 now IPC :0.94628: AVG IPC :0.87977: L2-Pf-HR :0.93619: L2-HR :0.85211: (Sim:1h53m59s) 
CPU  3 inst:  135000001 cyc:  156978793 now IPC :0.85105: AVG IPC :0.85258: L2-Pf-HR :0.96214: L2-HR :0.86950: (Sim:1h54m8s) 
CPU  0 inst:  133000000 cyc:  157433885 now IPC :0.88986: AVG IPC :0.83731: L2-Pf-HR :0.95578: L2-HR :0.84404: (Sim:1h54m21s) 
CPU  1 inst:  135000001 cyc:  157621823 now IPC :0.87629: AVG IPC :0.84907: L2-Pf-HR :0.95707: L2-HR :0.85781: (Sim:1h54m27s) 
CPU  2 inst:  140000003 cyc:  157764225 now IPC :0.94374: AVG IPC :0.88020: L2-Pf-HR :0.93612: L2-HR :0.85212: (Sim:1h54m31s) 
CPU  3 inst:  136000005 cyc:  158193609 now IPC :0.82317: AVG IPC :0.85235: L2-Pf-HR :0.96226: L2-HR :0.86949: (Sim:1h54m43s) 
CPU  0 inst:  134000003 cyc:  158671088 now IPC :0.80828: AVG IPC :0.83708: L2-Pf-HR :0.95574: L2-HR :0.84419: (Sim:1h54m56s) 
CPU  1 inst:  136000005 cyc:  158794140 now IPC :0.85302: AVG IPC :0.84910: L2-Pf-HR :0.95713: L2-HR :0.85772: (Sim:1h55m0s) 
CPU  2 inst:  141000004 cyc:  159014376 now IPC :0.79990: AVG IPC :0.87956: L2-Pf-HR :0.93582: L2-HR :0.85188: (Sim:1h55m7s) 
CPU  3 inst:  137000000 cyc:  159318004 now IPC :0.88936: AVG IPC :0.85262: L2-Pf-HR :0.96212: L2-HR :0.86943: (Sim:1h55m16s) 
CPU  0 inst:  135000001 cyc:  159899672 now IPC :0.81394: AVG IPC :0.83690: L2-Pf-HR :0.95569: L2-HR :0.84426: (Sim:1h55m33s) 
CPU  1 inst:  137000000 cyc:  159955915 now IPC :0.86075: AVG IPC :0.84919: L2-Pf-HR :0.95720: L2-HR :0.85761: (Sim:1h55m34s) 
CPU  2 inst:  142000004 cyc:  160091362 now IPC :0.92852: AVG IPC :0.87990: L2-Pf-HR :0.93573: L2-HR :0.85184: (Sim:1h55m39s) 
CPU  3 inst:  138000002 cyc:  160384676 now IPC :0.93750: AVG IPC :0.85318: L2-Pf-HR :0.96202: L2-HR :0.86939: (Sim:1h55m47s) 
CPU  0 inst:  136000002 cyc:  161084614 now IPC :0.84392: AVG IPC :0.83695: L2-Pf-HR :0.95568: L2-HR :0.84446: (Sim:1h56m7s) 
CPU  1 inst:  138000002 cyc:  161170386 now IPC :0.82341: AVG IPC :0.84899: L2-Pf-HR :0.95731: L2-HR :0.85758: (Sim:1h56m10s) 
CPU  2 inst:  143000000 cyc:  161249260 now IPC :0.86363: AVG IPC :0.87978: L2-Pf-HR :0.93573: L2-HR :0.85182: (Sim:1h56m12s) 
CPU  3 inst:  139000003 cyc:  161599962 now IPC :0.82285: AVG IPC :0.85296: L2-Pf-HR :0.96190: L2-HR :0.86926: (Sim:1h56m22s) 
CPU  0 inst:  137000000 cyc:  162288696 now IPC :0.83051: AVG IPC :0.83691: L2-Pf-HR :0.95549: L2-HR :0.84449: (Sim:1h56m42s) 
CPU  2 inst:  144000004 cyc:  162436477 now IPC :0.84231: AVG IPC :0.87950: L2-Pf-HR :0.93568: L2-HR :0.85179: (Sim:1h56m46s) 
CPU  1 inst:  139000003 cyc:  162457658 now IPC :0.77684: AVG IPC :0.84842: L2-Pf-HR :0.95740: L2-HR :0.85752: (Sim:1h56m46s) 
CPU  3 inst:  140000003 cyc:  162809822 now IPC :0.82654: AVG IPC :0.85276: L2-Pf-HR :0.96177: L2-HR :0.86924: (Sim:1h56m56s) 
CPU  0 inst:  138000002 cyc:  163478343 now IPC :0.84059: AVG IPC :0.83693: L2-Pf-HR :0.95530: L2-HR :0.84441: (Sim:1h57m14s) 
CPU  2 inst:  145000004 cyc:  163658825 now IPC :0.81810: AVG IPC :0.87904: L2-Pf-HR :0.93573: L2-HR :0.85181: (Sim:1h57m18s) 
CPU  1 inst:  140000003 cyc:  163868683 now IPC :0.70870: AVG IPC :0.84721: L2-Pf-HR :0.95733: L2-HR :0.85742: (Sim:1h57m24s) 
CPU  3 inst:  141000004 cyc:  164387405 now IPC :0.63388: AVG IPC :0.85064: L2-Pf-HR :0.96142: L2-HR :0.86900: (Sim:1h57m36s) 
CPU  0 inst:  139000004 cyc:  164980620 now IPC :0.66566: AVG IPC :0.83536: L2-Pf-HR :0.95502: L2-HR :0.84428: (Sim:1h57m50s) 
CPU  1 inst:  141000004 cyc:  165178734 now IPC :0.76333: AVG IPC :0.84654: L2-Pf-HR :0.95710: L2-HR :0.85726: (Sim:1h57m55s) 
CPU  2 inst:  146000001 cyc:  165206876 now IPC :0.64597: AVG IPC :0.87684: L2-Pf-HR :0.93574: L2-HR :0.85182: (Sim:1h57m56s) 
CPU  3 inst:  142000004 cyc:  165923557 now IPC :0.65098: AVG IPC :0.84878: L2-Pf-HR :0.96141: L2-HR :0.86902: (Sim:1h58m15s) 
CPU  1 inst:  142000004 cyc:  166225007 now IPC :0.95577: AVG IPC :0.84723: L2-Pf-HR :0.95720: L2-HR :0.85733: (Sim:1h58m22s) 
CPU  0 inst:  140000003 cyc:  166427210 now IPC :0.69128: AVG IPC :0.83410: L2-Pf-HR :0.95471: L2-HR :0.84416: (Sim:1h58m28s) 
CPU  2 inst:  147000002 cyc:  166714989 now IPC :0.66308: AVG IPC :0.87490: L2-Pf-HR :0.93587: L2-HR :0.85193: (Sim:1h58m35s) 
CPU  3 inst:  143000002 cyc:  167294246 now IPC :0.72956: AVG IPC :0.84780: L2-Pf-HR :0.96129: L2-HR :0.86901: (Sim:1h58m50s) 
CPU  1 inst:  143000000 cyc:  167515839 now IPC :0.77469: AVG IPC :0.84667: L2-Pf-HR :0.95730: L2-HR :0.85734: (Sim:1h58m56s) 
CPU  0 inst:  141000004 cyc:  167870440 now IPC :0.69289: AVG IPC :0.83288: L2-Pf-HR :0.95424: L2-HR :0.84392: (Sim:1h59m6s) 
CPU  2 inst:  148000002 cyc:  168056630 now IPC :0.74536: AVG IPC :0.87386: L2-Pf-HR :0.93591: L2-HR :0.85197: (Sim:1h59m12s) 
CPU  3 inst:  144000004 cyc:  168419880 now IPC :0.88839: AVG IPC :0.84808: L2-Pf-HR :0.96128: L2-HR :0.86902: (Sim:1h59m22s) 
CPU  1 inst:  144000004 cyc:  168742432 now IPC :0.81527: AVG IPC :0.84644: L2-Pf-HR :0.95728: L2-HR :0.85738: (Sim:1h59m32s) 
CPU  0 inst:  142000004 cyc:  169055576 now IPC :0.84378: AVG IPC :0.83296: L2-Pf-HR :0.95426: L2-HR :0.84386: (Sim:1h59m41s) 
CPU  2 inst:  149000002 cyc:  169100497 now IPC :0.95798: AVG IPC :0.87438: L2-Pf-HR :0.93600: L2-HR :0.85207: (Sim:1h59m42s) 
CPU  3 inst:  145000004 cyc:  169538929 now IPC :0.89362: AVG IPC :0.84838: L2-Pf-HR :0.96114: L2-HR :0.86904: (Sim:1h59m55s) 
CPU  1 inst:  145000004 cyc:  169898995 now IPC :0.86463: AVG IPC :0.84656: L2-Pf-HR :0.95726: L2-HR :0.85743: (Sim:2h0m5s) 
CPU  2 inst:  150000005 cyc:  170185433 now IPC :0.92172: AVG IPC :0.87468: L2-Pf-HR :0.93607: L2-HR :0.85214: (Sim:2h0m13s) 
CPU  0 inst:  143000003 cyc:  170209875 now IPC :0.86633: AVG IPC :0.83319: L2-Pf-HR :0.95433: L2-HR :0.84382: (Sim:2h0m14s) 
CPU  3 inst:  146000001 cyc:  170724186 now IPC :0.84370: AVG IPC :0.84834: L2-Pf-HR :0.96114: L2-HR :0.86904: (Sim:2h0m28s) 
CPU  1 inst:  146000001 cyc:  171109611 now IPC :0.82602: AVG IPC :0.84642: L2-Pf-HR :0.95728: L2-HR :0.85748: (Sim:2h0m39s) 
CPU  2 inst:  151000002 cyc:  171329432 now IPC :0.87412: AVG IPC :0.87468: L2-Pf-HR :0.93603: L2-HR :0.85212: (Sim:2h0m46s) 
CPU  0 inst:  144000004 cyc:  171395510 now IPC :0.84343: AVG IPC :0.83326: L2-Pf-HR :0.95434: L2-HR :0.84378: (Sim:2h0m48s) 
CPU  3 inst:  147000002 cyc:  171905513 now IPC :0.84651: AVG IPC :0.84833: L2-Pf-HR :0.96116: L2-HR :0.86911: (Sim:2h1m3s) 
CPU  1 inst:  147000002 cyc:  172269061 now IPC :0.86248: AVG IPC :0.84652: L2-Pf-HR :0.95724: L2-HR :0.85754: (Sim:2h1m13s) 
CPU  2 inst:  152000002 cyc:  172398265 now IPC :0.93560: AVG IPC :0.87506: L2-Pf-HR :0.93611: L2-HR :0.85228: (Sim:2h1m17s) 
CPU  0 inst:  145000004 cyc:  172547552 now IPC :0.86802: AVG IPC :0.83349: L2-Pf-HR :0.95438: L2-HR :0.84395: (Sim:2h1m21s) 
CPU  3 inst:  148000000 cyc:  173045083 now IPC :0.87752: AVG IPC :0.84853: L2-Pf-HR :0.96111: L2-HR :0.86912: (Sim:2h1m35s) 
CPU  1 inst:  148000000 cyc:  173530504 now IPC :0.79274: AVG IPC :0.84613: L2-Pf-HR :0.95710: L2-HR :0.85745: (Sim:2h1m49s) 
CPU  2 inst:  153000001 cyc:  173628373 now IPC :0.81294: AVG IPC :0.87462: L2-Pf-HR :0.93607: L2-HR :0.85220: (Sim:2h1m51s) 
CPU  0 inst:  146000004 cyc:  173782947 now IPC :0.80946: AVG IPC :0.83332: L2-Pf-HR :0.95444: L2-HR :0.84400: (Sim:2h1m56s) 
CPU  3 inst:  149000003 cyc:  174209849 now IPC :0.85854: AVG IPC :0.84859: L2-Pf-HR :0.96112: L2-HR :0.86919: (Sim:2h2m8s) 
CPU  2 inst:  154000005 cyc:  174687747 now IPC :0.94396: AVG IPC :0.87504: L2-Pf-HR :0.93615: L2-HR :0.85225: (Sim:2h2m22s) 
CPU  1 inst:  149000001 cyc:  174693610 now IPC :0.85977: AVG IPC :0.84622: L2-Pf-HR :0.95716: L2-HR :0.85751: (Sim:2h2m23s) 
CPU  0 inst:  147000002 cyc:  175030460 now IPC :0.80159: AVG IPC :0.83309: L2-Pf-HR :0.95458: L2-HR :0.84411: (Sim:2h2m32s) 
CPU  3 inst:  150000000 cyc:  175262273 now IPC :0.95018: AVG IPC :0.84921: L2-Pf-HR :0.96112: L2-HR :0.86926: (Sim:2h2m39s) 
CPU  2 inst:  155000000 cyc:  175786389 now IPC :0.91021: AVG IPC :0.87526: L2-Pf-HR :0.93619: L2-HR :0.85226: (Sim:2h2m54s) 
CPU  1 inst:  150000001 cyc:  175826049 now IPC :0.88305: AVG IPC :0.84646: L2-Pf-HR :0.95723: L2-HR :0.85760: (Sim:2h2m55s) 
CPU  0 inst:  148000002 cyc:  176361020 now IPC :0.75156: AVG IPC :0.83247: L2-Pf-HR :0.95463: L2-HR :0.84408: (Sim:2h3m10s) 
CPU  3 inst:  151000005 cyc:  176537860 now IPC :0.78396: AVG IPC :0.84873: L2-Pf-HR :0.96116: L2-HR :0.86928: (Sim:2h3m15s) 
CPU  1 inst:  151000002 cyc:  176833135 now IPC :0.99296: AVG IPC :0.84730: L2-Pf-HR :0.95742: L2-HR :0.85771: (Sim:2h3m23s) 
CPU  2 inst:  156000002 cyc:  177080009 now IPC :0.77303: AVG IPC :0.87451: L2-Pf-HR :0.93621: L2-HR :0.85227: (Sim:2h3m30s) 
CPU  0 inst:  149000002 cyc:  177783775 now IPC :0.70286: AVG IPC :0.83143: L2-Pf-HR :0.95464: L2-HR :0.84412: (Sim:2h3m47s) 
CPU  3 inst:  152000002 cyc:  177987553 now IPC :0.68980: AVG IPC :0.84743: L2-Pf-HR :0.96114: L2-HR :0.86935: (Sim:2h3m52s) 
CPU  1 inst:  152000002 cyc:  178027118 now IPC :0.83753: AVG IPC :0.84723: L2-Pf-HR :0.95744: L2-HR :0.85777: (Sim:2h3m53s) 
CPU  2 inst:  157000000 cyc:  178539986 now IPC :0.68494: AVG IPC :0.87295: L2-Pf-HR :0.93623: L2-HR :0.85229: (Sim:2h4m8s) 
CPU  0 inst:  150000001 cyc:  178944896 now IPC :0.86124: AVG IPC :0.83163: L2-Pf-HR :0.95461: L2-HR :0.84407: (Sim:2h4m18s) 
CPU  3 inst:  153000001 cyc:  179368637 now IPC :0.72407: AVG IPC :0.84648: L2-Pf-HR :0.96099: L2-HR :0.86930: (Sim:2h4m31s) 
CPU  1 inst:  153000001 cyc:  179388804 now IPC :0.73438: AVG IPC :0.84637: L2-Pf-HR :0.95730: L2-HR :0.85773: (Sim:2h4m32s) 
CPU  2 inst:  158000000 cyc:  179624311 now IPC :0.92223: AVG IPC :0.87325: L2-Pf-HR :0.93633: L2-HR :0.85234: (Sim:2h4m38s) 
CPU  0 inst:  151000002 cyc:  180126402 now IPC :0.84638: AVG IPC :0.83172: L2-Pf-HR :0.95470: L2-HR :0.84406: (Sim:2h4m53s) 
CPU  3 inst:  154000005 cyc:  180516655 now IPC :0.87107: AVG IPC :0.84663: L2-Pf-HR :0.96105: L2-HR :0.86931: (Sim:2h5m4s) 
CPU  1 inst:  154000002 cyc:  180560430 now IPC :0.85352: AVG IPC :0.84642: L2-Pf-HR :0.95733: L2-HR :0.85781: (Sim:2h5m6s) 
CPU  2 inst:  159000000 cyc:  180744674 now IPC :0.89257: AVG IPC :0.87337: L2-Pf-HR :0.93646: L2-HR :0.85245: (Sim:2h5m11s) 
CPU  0 inst:  152000002 cyc:  181329762 now IPC :0.83101: AVG IPC :0.83172: L2-Pf-HR :0.95473: L2-HR :0.84406: (Sim:2h5m29s) 
CPU  3 inst:  155000000 cyc:  181581237 now IPC :0.93933: AVG IPC :0.84718: L2-Pf-HR :0.96097: L2-HR :0.86932: (Sim:2h5m36s) 
CPU  1 inst:  155000000 cyc:  181670845 now IPC :0.90056: AVG IPC :0.84675: L2-Pf-HR :0.95736: L2-HR :0.85786: (Sim:2h5m39s) 
CPU  2 inst:  160000005 cyc:  181874367 now IPC :0.88520: AVG IPC :0.87345: L2-Pf-HR :0.93652: L2-HR :0.85253: (Sim:2h5m45s) 
[...]
CPU  3 inst: 1006000003 cyc: 1268348989 now IPC :0.39376: AVG IPC :0.79219: L2-Pf-HR :0.96333: L2-HR :0.87091: (Sim:14h1m5s) 
CPU  0 inst:  999000005 cyc: 1270181231 now IPC :0.51366: AVG IPC :0.78553: L2-Pf-HR :0.95697: L2-HR :0.84432: (Sim:14h2m9s) 
CPU  1 inst: 1001000005 cyc: 1270577829 now IPC :0.43131: AVG IPC :0.78686: L2-Pf-HR :0.95856: L2-HR :0.85899: (Sim:14h2m23s) 
CPU  3 inst: 1007000000 cyc: 1270639566 now IPC :0.43657: AVG IPC :0.79155: L2-Pf-HR :0.96335: L2-HR :0.87092: (Sim:14h2m25s) 
CPU  2 inst: 1031000002 cyc: 1270846500 now IPC :0.10578: AVG IPC :0.81032: L2-Pf-HR :0.92984: L2-HR :0.84126: (Sim:14h2m32s) 
CPU  0 inst: 1000000004 cyc: 1271985926 now IPC :0.55411: AVG IPC :0.78520: L2-Pf-HR :0.95697: L2-HR :0.84432: (Sim:14h3m12s) 
CPU  1 inst: 1002000000 cyc: 1273189123 now IPC :0.38295: AVG IPC :0.78603: L2-Pf-HR :0.95856: L2-HR :0.85901: (Sim:14h3m52s) 
CPU  3 inst: 1008000003 cyc: 1273221374 now IPC :0.38733: AVG IPC :0.79073: L2-Pf-HR :0.96336: L2-HR :0.87092: (Sim:14h3m53s) 
CPU  0 inst: 1001000001 cyc: 1274578003 now IPC :0.38579: AVG IPC :0.78439: L2-Pf-HR :0.95696: L2-HR :0.84431: (Sim:14h4m38s) 
CPU  1 inst: 1003000000 cyc: 1275960882 now IPC :0.36078: AVG IPC :0.78511: L2-Pf-HR :0.95856: L2-HR :0.85902: (Sim:14h5m23s) 
CPU  3 inst: 1009000001 cyc: 1276031693 now IPC :0.35583: AVG IPC :0.78977: L2-Pf-HR :0.96337: L2-HR :0.87094: (Sim:14h5m26s) 
CPU  0 inst: 1002000000 cyc: 1277400103 now IPC :0.35435: AVG IPC :0.78344: L2-Pf-HR :0.95696: L2-HR :0.84433: (Sim:14h6m10s) 
CPU  3 inst: 1010000005 cyc: 1278716938 now IPC :0.37241: AVG IPC :0.78890: L2-Pf-HR :0.96339: L2-HR :0.87095: (Sim:14h6m52s) 
CPU  1 inst: 1004000000 cyc: 1278776263 now IPC :0.35519: AVG IPC :0.78416: L2-Pf-HR :0.95858: L2-HR :0.85904: (Sim:14h6m55s) 
CPU  0 inst: 1003000000 cyc: 1280210365 now IPC :0.35584: AVG IPC :0.78250: L2-Pf-HR :0.95697: L2-HR :0.84435: (Sim:14h7m39s) 
CPU  2 inst: 1032000004 cyc: 1280721752 now IPC :0.10126: AVG IPC :0.80485: L2-Pf-HR :0.92818: L2-HR :0.83898: (Sim:14h7m56s) 
CPU  3 inst: 1011000003 cyc: 1281695858 now IPC :0.33569: AVG IPC :0.78784: L2-Pf-HR :0.96338: L2-HR :0.87093: (Sim:14h8m27s) 
CPU  1 inst: 1005000003 cyc: 1281733264 now IPC :0.33818: AVG IPC :0.78313: L2-Pf-HR :0.95857: L2-HR :0.85903: (Sim:14h8m28s) 
CPU  0 inst: 1004000000 cyc: 1283146418 now IPC :0.34059: AVG IPC :0.78149: L2-Pf-HR :0.95698: L2-HR :0.84437: (Sim:14h9m6s) 
CPU  1 inst: 1006000003 cyc: 1284664462 now IPC :0.34116: AVG IPC :0.78212: L2-Pf-HR :0.95858: L2-HR :0.85903: (Sim:14h9m32s) 
CPU  3 inst: 1012000003 cyc: 1284707114 now IPC :0.33209: AVG IPC :0.78677: L2-Pf-HR :0.96339: L2-HR :0.87094: (Sim:14h9m32s) 
CPU  0 inst: 1005000000 cyc: 1286103705 now IPC :0.33815: AVG IPC :0.78047: L2-Pf-HR :0.95700: L2-HR :0.84438: (Sim:14h10m9s) 
CPU  3 inst: 1013000003 cyc: 1287623718 now IPC :0.34286: AVG IPC :0.78577: L2-Pf-HR :0.96338: L2-HR :0.87093: (Sim:14h10m41s) 
CPU  1 inst: 1007000000 cyc: 1287640637 now IPC :0.33600: AVG IPC :0.78109: L2-Pf-HR :0.95860: L2-HR :0.85904: (Sim:14h10m41s) 
CPU  0 inst: 1006000003 cyc: 1288630305 now IPC :0.39579: AVG IPC :0.77971: L2-Pf-HR :0.95700: L2-HR :0.84438: (Sim:14h11m12s) 
CPU  3 inst: 1014000005 cyc: 1289953542 now IPC :0.42922: AVG IPC :0.78512: L2-Pf-HR :0.96338: L2-HR :0.87095: (Sim:14h11m58s) 
CPU  1 inst: 1008000003 cyc: 1290111266 now IPC :0.40476: AVG IPC :0.78037: L2-Pf-HR :0.95861: L2-HR :0.85904: (Sim:14h12m4s) 
CPU  0 inst: 1007000000 cyc: 1290411293 now IPC :0.56148: AVG IPC :0.77941: L2-Pf-HR :0.95698: L2-HR :0.84439: (Sim:14h12m15s) 
CPU  2 inst: 1033000000 cyc: 1290637103 now IPC :0.10085: AVG IPC :0.79944: L2-Pf-HR :0.92652: L2-HR :0.83673: (Sim:14h12m23s) 
CPU  0 inst: 1008000003 cyc: 1292123033 now IPC :0.58420: AVG IPC :0.77915: L2-Pf-HR :0.95696: L2-HR :0.84439: (Sim:14h13m16s) 
CPU  3 inst: 1015000000 cyc: 1292262806 now IPC :0.43304: AVG IPC :0.78449: L2-Pf-HR :0.96340: L2-HR :0.87095: (Sim:14h13m21s) 
CPU  1 inst: 1009000001 cyc: 1292420136 now IPC :0.43311: AVG IPC :0.77975: L2-Pf-HR :0.95862: L2-HR :0.85906: (Sim:14h13m26s) 
CPU  0 inst: 1009000001 cyc: 1294460463 now IPC :0.42782: AVG IPC :0.77852: L2-Pf-HR :0.95695: L2-HR :0.84439: (Sim:14h14m35s) 
CPU  3 inst: 1016000005 cyc: 1294858737 now IPC :0.38522: AVG IPC :0.78369: L2-Pf-HR :0.96341: L2-HR :0.87095: (Sim:14h14m48s) 
CPU  1 inst: 1010000005 cyc: 1295029178 now IPC :0.38328: AVG IPC :0.77895: L2-Pf-HR :0.95864: L2-HR :0.85907: (Sim:14h14m53s) 
CPU  0 inst: 1010000005 cyc: 1297183298 now IPC :0.36727: AVG IPC :0.77766: L2-Pf-HR :0.95695: L2-HR :0.84440: (Sim:14h16m4s) 
CPU  3 inst: 1017000001 cyc: 1297769111 now IPC :0.34360: AVG IPC :0.78270: L2-Pf-HR :0.96343: L2-HR :0.87096: (Sim:14h16m22s) 
CPU  1 inst: 1011000005 cyc: 1297981522 now IPC :0.33871: AVG IPC :0.77795: L2-Pf-HR :0.95860: L2-HR :0.85905: (Sim:14h16m29s) 
CPU  3 inst: 1018000001 cyc: 1299700434 now IPC :0.51778: AVG IPC :0.78231: L2-Pf-HR :0.96345: L2-HR :0.87097: (Sim:14h17m7s) 
CPU  0 inst: 1011000005 cyc: 1299810351 now IPC :0.38065: AVG IPC :0.77685: L2-Pf-HR :0.95693: L2-HR :0.84438: (Sim:14h17m9s) 
CPU  1 inst: 1012000002 cyc: 1300423614 now IPC :0.40948: AVG IPC :0.77726: L2-Pf-HR :0.95859: L2-HR :0.85906: (Sim:14h17m21s) 
CPU  2 inst: 1034000005 cyc: 1300616318 now IPC :0.10021: AVG IPC :0.79407: L2-Pf-HR :0.92487: L2-HR :0.83451: (Sim:14h17m25s) 
CPU  3 inst: 1019000002 cyc: 1301454485 now IPC :0.57011: AVG IPC :0.78202: L2-Pf-HR :0.96348: L2-HR :0.87099: (Sim:14h17m40s) 
CPU  0 inst: 1012000003 cyc: 1302333193 now IPC :0.39638: AVG IPC :0.77612: L2-Pf-HR :0.95695: L2-HR :0.84438: (Sim:14h18m6s) 
CPU  1 inst: 1013000003 cyc: 1302684148 now IPC :0.44237: AVG IPC :0.77667: L2-Pf-HR :0.95859: L2-HR :0.85907: (Sim:14h18m18s) 
CPU  3 inst: 1020000005 cyc: 1303760655 now IPC :0.43362: AVG IPC :0.78141: L2-Pf-HR :0.96349: L2-HR :0.87099: (Sim:14h18m56s) 
CPU  1 inst: 1014000005 cyc: 1304583846 now IPC :0.52640: AVG IPC :0.77631: L2-Pf-HR :0.95860: L2-HR :0.85909: (Sim:14h19m24s) 
CPU  0 inst: 1013000003 cyc: 1304839959 now IPC :0.39892: AVG IPC :0.77539: L2-Pf-HR :0.95694: L2-HR :0.84438: (Sim:14h19m33s) 
CPU  3 inst: 1021000005 cyc: 1306211058 now IPC :0.40810: AVG IPC :0.78071: L2-Pf-HR :0.96351: L2-HR :0.87100: (Sim:14h20m22s) 
CPU  1 inst: 1015000000 cyc: 1306399366 now IPC :0.55080: AVG IPC :0.77600: L2-Pf-HR :0.95861: L2-HR :0.85910: (Sim:14h20m28s) 
CPU  0 inst: 1014000005 cyc: 1307241501 now IPC :0.41640: AVG IPC :0.77473: L2-Pf-HR :0.95694: L2-HR :0.84440: (Sim:14h20m57s) 
CPU  3 inst: 1022000003 cyc: 1308832201 now IPC :0.38151: AVG IPC :0.77991: L2-Pf-HR :0.96353: L2-HR :0.87101: (Sim:14h21m51s) 
CPU  1 inst: 1016000005 cyc: 1308832993 now IPC :0.41091: AVG IPC :0.77532: L2-Pf-HR :0.95861: L2-HR :0.85911: (Sim:14h21m51s) 
CPU  0 inst: 1015000000 cyc: 1309561624 now IPC :0.43101: AVG IPC :0.77412: L2-Pf-HR :0.95694: L2-HR :0.84442: (Sim:14h22m16s) 
CPU  2 inst: 1035000004 cyc: 1310596938 now IPC :0.10019: AVG IPC :0.78878: L2-Pf-HR :0.92323: L2-HR :0.83232: (Sim:14h22m53s) 
CPU  1 inst: 1017000001 cyc: 1310901707 now IPC :0.48339: AVG IPC :0.77486: L2-Pf-HR :0.95859: L2-HR :0.85911: (Sim:14h23m4s) 
CPU  3 inst: 1023000005 cyc: 1311008360 now IPC :0.45953: AVG IPC :0.77937: L2-Pf-HR :0.96350: L2-HR :0.87096: (Sim:14h23m8s) 
CPU  0 inst: 1016000000 cyc: 1311769122 now IPC :0.45300: AVG IPC :0.77358: L2-Pf-HR :0.95695: L2-HR :0.84444: (Sim:14h23m34s) 
CPU  3 inst: 1024000005 cyc: 1313019550 now IPC :0.49722: AVG IPC :0.77894: L2-Pf-HR :0.96350: L2-HR :0.87093: (Sim:14h24m2s) 
CPU  1 inst: 1018000001 cyc: 1313210134 now IPC :0.43320: AVG IPC :0.77425: L2-Pf-HR :0.95859: L2-HR :0.85909: (Sim:14h24m8s) 
CPU  0 inst: 1017000001 cyc: 1314102773 now IPC :0.42851: AVG IPC :0.77297: L2-Pf-HR :0.95697: L2-HR :0.84445: (Sim:14h24m40s) 
CPU  3 inst: 1025000004 cyc: 1315122403 now IPC :0.47554: AVG IPC :0.77846: L2-Pf-HR :0.96353: L2-HR :0.87094: (Sim:14h25m15s) 
CPU  1 inst: 1019000002 cyc: 1315394677 now IPC :0.45776: AVG IPC :0.77373: L2-Pf-HR :0.95861: L2-HR :0.85910: (Sim:14h25m25s) 
CPU  0 inst: 1018000001 cyc: 1316317418 now IPC :0.45154: AVG IPC :0.77243: L2-Pf-HR :0.95697: L2-HR :0.84445: (Sim:14h25m57s) 
CPU  3 inst: 1026000004 cyc: 1317116624 now IPC :0.50145: AVG IPC :0.77804: L2-Pf-HR :0.96354: L2-HR :0.87094: (Sim:14h26m26s) 
CPU  1 inst: 1020000005 cyc: 1317627529 now IPC :0.44786: AVG IPC :0.77318: L2-Pf-HR :0.95863: L2-HR :0.85912: (Sim:14h26m41s) 
CPU  0 inst: 1019000002 cyc: 1318490161 now IPC :0.46025: AVG IPC :0.77191: L2-Pf-HR :0.95696: L2-HR :0.84446: (Sim:14h27m6s) 
CPU  1 inst: 1021000005 cyc: 1320293564 now IPC :0.37509: AVG IPC :0.77237: L2-Pf-HR :0.95863: L2-HR :0.85913: (Sim:14h28m3s) 
CPU  2 inst: 1036000000 cyc: 1320878162 now IPC :0.09726: AVG IPC :0.78339: L2-Pf-HR :0.92161: L2-HR :0.83016: (Sim:14h28m22s) 
CPU  0 inst: 1020000005 cyc: 1321371045 now IPC :0.34712: AVG IPC :0.77098: L2-Pf-HR :0.95695: L2-HR :0.84446: (Sim:14h28m37s) 
CPU  1 inst: 1022000003 cyc: 1323050439 now IPC :0.36273: AVG IPC :0.77152: L2-Pf-HR :0.95864: L2-HR :0.85915: (Sim:14h29m31s) 
CPU  0 inst: 1021000005 cyc: 1324177038 now IPC :0.35638: AVG IPC :0.77010: L2-Pf-HR :0.95696: L2-HR :0.84447: (Sim:14h30m6s) 
CPU  1 inst: 1023000005 cyc: 1325907712 now IPC :0.34998: AVG IPC :0.77061: L2-Pf-HR :0.95861: L2-HR :0.85908: (Sim:14h31m0s) 
CPU  0 inst: 1022000003 cyc: 1326894114 now IPC :0.36804: AVG IPC :0.76928: L2-Pf-HR :0.95697: L2-HR :0.84450: (Sim:14h31m27s) 
CPU  1 inst: 1024000005 cyc: 1328595728 now IPC :0.37202: AVG IPC :0.76980: L2-Pf-HR :0.95858: L2-HR :0.85903: (Sim:14h32m12s) 
CPU  0 inst: 1023000005 cyc: 1329525136 now IPC :0.38008: AVG IPC :0.76851: L2-Pf-HR :0.95693: L2-HR :0.84446: (Sim:14h32m41s) 
CPU  3 inst: 1027000000 cyc: 1330675010 now IPC :0.07375: AVG IPC :0.77085: L2-Pf-HR :0.96218: L2-HR :0.86879: (Sim:14h33m18s) 
CPU  1 inst: 1025000004 cyc: 1331122087 now IPC :0.39583: AVG IPC :0.76909: L2-Pf-HR :0.95857: L2-HR :0.85899: (Sim:14h33m33s) 
CPU  0 inst: 1024000005 cyc: 1332124376 now IPC :0.38473: AVG IPC :0.76776: L2-Pf-HR :0.95692: L2-HR :0.84442: (Sim:14h34m5s) 
CPU  1 inst: 1026000004 cyc: 1333584093 now IPC :0.40617: AVG IPC :0.76842: L2-Pf-HR :0.95857: L2-HR :0.85897: (Sim:14h34m52s) 
CPU  2 inst: 1037000005 cyc: 1334394730 now IPC :0.07398: AVG IPC :0.77620: L2-Pf-HR :0.92000: L2-HR :0.82802: (Sim:14h35m13s) 
CPU  0 inst: 1025000004 cyc: 1334855269 now IPC :0.36618: AVG IPC :0.76694: L2-Pf-HR :0.95692: L2-HR :0.84437: (Sim:14h35m25s) 
CPU  0 inst: 1026000004 cyc: 1338026006 now IPC :0.31538: AVG IPC :0.76587: L2-Pf-HR :0.95690: L2-HR :0.84432: (Sim:14h36m59s) 
CPU  3 inst: 1028000005 cyc: 1349253418 now IPC :0.05383: AVG IPC :0.76097: L2-Pf-HR :0.96081: L2-HR :0.86657: (Sim:14h42m27s) 
CPU  1 inst: 1027000000 cyc: 1354542269 now IPC :0.04771: AVG IPC :0.75726: L2-Pf-HR :0.95711: L2-HR :0.85673: (Sim:14h44m56s) 
CPU  2 inst: 1038000001 cyc: 1355262294 now IPC :0.04792: AVG IPC :0.76498: L2-Pf-HR :0.91844: L2-HR :0.82591: (Sim:14h45m18s) 
CPU  0 inst: 1027000000 cyc: 1360317458 now IPC :0.04486: AVG IPC :0.75404: L2-Pf-HR :0.95515: L2-HR :0.84194: (Sim:14h47m32s) 
CPU  3 inst: 1029000004 cyc: 1370156701 now IPC :0.04784: AVG IPC :0.75009: L2-Pf-HR :0.95945: L2-HR :0.86437: (Sim:14h50m29s) 
CPU  1 inst: 1028000002 cyc: 1375232959 now IPC :0.04833: AVG IPC :0.74659: L2-Pf-HR :0.95559: L2-HR :0.85441: (Sim:14h52m46s) 
CPU  2 inst: 1039000003 cyc: 1376118118 now IPC :0.04795: AVG IPC :0.75411: L2-Pf-HR :0.91688: L2-HR :0.82383: (Sim:14h52m59s) 
CPU  0 inst: 1028000002 cyc: 1381008623 now IPC :0.04833: AVG IPC :0.74346: L2-Pf-HR :0.95336: L2-HR :0.83948: (Sim:14h54m16s) 
CPU  3 inst: 1030000003 cyc: 1390771186 now IPC :0.04851: AVG IPC :0.73968: L2-Pf-HR :0.95810: L2-HR :0.86220: (Sim:14h56m58s) 
CPU  1 inst: 1029000004 cyc: 1395869218 now IPC :0.04846: AVG IPC :0.73626: L2-Pf-HR :0.95409: L2-HR :0.85212: (Sim:14h58m47s) 
CPU  2 inst: 1040000002 cyc: 1396697206 now IPC :0.04859: AVG IPC :0.74370: L2-Pf-HR :0.91534: L2-HR :0.82177: (Sim:14h59m11s) 
CPU  0 inst: 1029000001 cyc: 1401511949 now IPC :0.04877: AVG IPC :0.73329: L2-Pf-HR :0.95157: L2-HR :0.83706: (Sim:15h0m59s) 
CPU  3 inst: 1031000002 cyc: 1411409506 now IPC :0.04845: AVG IPC :0.72957: L2-Pf-HR :0.95675: L2-HR :0.86005: (Sim:15h5m16s) 
CPU  1 inst: 1030000000 cyc: 1416392410 now IPC :0.04873: AVG IPC :0.72629: L2-Pf-HR :0.95259: L2-HR :0.84986: (Sim:15h7m41s) 
CPU  2 inst: 1041000001 cyc: 1417257185 now IPC :0.04864: AVG IPC :0.73361: L2-Pf-HR :0.91380: L2-HR :0.81974: (Sim:15h8m7s) 
CPU  0 inst: 1030000000 cyc: 1422089498 now IPC :0.04860: AVG IPC :0.72338: L2-Pf-HR :0.94978: L2-HR :0.83467: (Sim:15h10m31s) 
CPU  3 inst: 1032000003 cyc: 1432014610 now IPC :0.04853: AVG IPC :0.71976: L2-Pf-HR :0.95541: L2-HR :0.85793: (Sim:15h13m46s) 
CPU  1 inst: 1031000002 cyc: 1436943187 now IPC :0.04866: AVG IPC :0.71659: L2-Pf-HR :0.95110: L2-HR :0.84764: (Sim:15h16m14s) 
CPU  2 inst: 1042000003 cyc: 1437758292 now IPC :0.04878: AVG IPC :0.72384: L2-Pf-HR :0.91226: L2-HR :0.81774: (Sim:15h16m39s) 
CPU  0 inst: 1031000002 cyc: 1442788911 now IPC :0.04831: AVG IPC :0.71369: L2-Pf-HR :0.94800: L2-HR :0.83232: (Sim:15h18m37s) 
CPU  3 inst: 1033000003 cyc: 1452575283 now IPC :0.04864: AVG IPC :0.71025: L2-Pf-HR :0.95407: L2-HR :0.85584: (Sim:15h22m17s) 
CPU  1 inst: 1032000001 cyc: 1457455296 now IPC :0.04875: AVG IPC :0.70719: L2-Pf-HR :0.94961: L2-HR :0.84544: (Sim:15h24m43s) 
CPU  2 inst: 1043000005 cyc: 1458322632 now IPC :0.04863: AVG IPC :0.71431: L2-Pf-HR :0.91074: L2-HR :0.81576: (Sim:15h25m9s) 
CPU  0 inst: 1032000004 cyc: 1463405748 now IPC :0.04850: AVG IPC :0.70431: L2-Pf-HR :0.94623: L2-HR :0.83000: (Sim:15h27m38s) 
CPU  3 inst: 1034000005 cyc: 1473212505 now IPC :0.04846: AVG IPC :0.70098: L2-Pf-HR :0.95273: L2-HR :0.85377: (Sim:15h30m55s) 
CPU  1 inst: 1033000002 cyc: 1477928786 now IPC :0.04884: AVG IPC :0.69806: L2-Pf-HR :0.94813: L2-HR :0.84326: (Sim:15h33m11s) 
CPU  2 inst: 1044000000 cyc: 1478878178 now IPC :0.04865: AVG IPC :0.70506: L2-Pf-HR :0.90922: L2-HR :0.81381: (Sim:15h33m39s) 
CPU  0 inst: 1033000003 cyc: 1484037842 now IPC :0.04847: AVG IPC :0.69519: L2-Pf-HR :0.94447: L2-HR :0.82771: (Sim:15h36m12s) 
CPU  3 inst: 1035000000 cyc: 1493741481 now IPC :0.04871: AVG IPC :0.69201: L2-Pf-HR :0.95140: L2-HR :0.85172: (Sim:15h40m14s) 
CPU  1 inst: 1034000002 cyc: 1498520994 now IPC :0.04856: AVG IPC :0.68913: L2-Pf-HR :0.94665: L2-HR :0.84112: (Sim:15h42m37s) 
CPU  2 inst: 1045000001 cyc: 1499387629 now IPC :0.04876: AVG IPC :0.69607: L2-Pf-HR :0.90770: L2-HR :0.81188: (Sim:15h43m3s) 
CPU  0 inst: 1034000005 cyc: 1504637727 now IPC :0.04854: AVG IPC :0.68633: L2-Pf-HR :0.94272: L2-HR :0.82546: (Sim:15h45m41s) 
CPU  3 inst: 1036000000 cyc: 1514281830 now IPC :0.04868: AVG IPC :0.68327: L2-Pf-HR :0.95007: L2-HR :0.84970: (Sim:15h49m3s) 
CPU  1 inst: 1035000001 cyc: 1519156050 now IPC :0.04846: AVG IPC :0.68042: L2-Pf-HR :0.94518: L2-HR :0.83900: (Sim:15h51m5s) 
CPU  2 inst: 1046000000 cyc: 1519908342 now IPC :0.04873: AVG IPC :0.68733: L2-Pf-HR :0.90618: L2-HR :0.80997: (Sim:15h51m22s) 
CPU  0 inst: 1035000004 cyc: 1525168118 now IPC :0.04871: AVG IPC :0.67774: L2-Pf-HR :0.94097: L2-HR :0.82323: (Sim:15h52m57s) 
CPU  3 inst: 1037000002 cyc: 1534875704 now IPC :0.04856: AVG IPC :0.67475: L2-Pf-HR :0.94875: L2-HR :0.84770: (Sim:15h57m21s) 
CPU  1 inst: 1036000003 cyc: 1539670235 now IPC :0.04875: AVG IPC :0.67200: L2-Pf-HR :0.94372: L2-HR :0.83691: (Sim:15h59m11s) 
CPU  2 inst: 1047000001 cyc: 1540478832 now IPC :0.04861: AVG IPC :0.67879: L2-Pf-HR :0.90468: L2-HR :0.80809: (Sim:15h59m23s) 
CPU  0 inst: 1036000003 cyc: 1545718713 now IPC :0.04866: AVG IPC :0.66937: L2-Pf-HR :0.93923: L2-HR :0.82104: (Sim:16h1m32s) 
CPU  3 inst: 1038000001 cyc: 1555414556 now IPC :0.04869: AVG IPC :0.66648: L2-Pf-HR :0.94743: L2-HR :0.84572: (Sim:16h5m33s) 
CPU  1 inst: 1037000005 cyc: 1560172999 now IPC :0.04877: AVG IPC :0.66380: L2-Pf-HR :0.94226: L2-HR :0.83485: (Sim:16h7m24s) 
CPU  2 inst: 1048000000 cyc: 1561039721 now IPC :0.04864: AVG IPC :0.67049: L2-Pf-HR :0.90318: L2-HR :0.80623: (Sim:16h7m36s) 
CPU  0 inst: 1037000005 cyc: 1566385891 now IPC :0.04839: AVG IPC :0.66117: L2-Pf-HR :0.93750: L2-HR :0.81888: (Sim:16h9m48s) 
CPU  3 inst: 1039000003 cyc: 1576037714 now IPC :0.04849: AVG IPC :0.65839: L2-Pf-HR :0.94611: L2-HR :0.84377: (Sim:16h13m13s) 
CPU  1 inst: 1038000001 cyc: 1580736714 now IPC :0.04863: AVG IPC :0.65580: L2-Pf-HR :0.94080: L2-HR :0.83281: (Sim:16h14m50s) 
CPU  2 inst: 1049000005 cyc: 1581582601 now IPC :0.04868: AVG IPC :0.66241: L2-Pf-HR :0.90168: L2-HR :0.80439: (Sim:16h15m3s) 
CPU  0 inst: 1038000001 cyc: 1586911344 now IPC :0.04872: AVG IPC :0.65324: L2-Pf-HR :0.93577: L2-HR :0.81674: (Sim:16h16m32s) 
CPU  3 inst: 1040000002 cyc: 1596611911 now IPC :0.04860: AVG IPC :0.65053: L2-Pf-HR :0.94480: L2-HR :0.84184: (Sim:16h19m52s) 
CPU  1 inst: 1039000003 cyc: 1601259383 now IPC :0.04873: AVG IPC :0.64801: L2-Pf-HR :0.93935: L2-HR :0.83079: (Sim:16h20m59s) 
CPU  2 inst: 1050000004 cyc: 1602223592 now IPC :0.04845: AVG IPC :0.65449: L2-Pf-HR :0.90018: L2-HR :0.80258: (Sim:16h21m13s) 
CPU  0 inst: 1039000003 cyc: 1607416014 now IPC :0.04877: AVG IPC :0.64553: L2-Pf-HR :0.93405: L2-HR :0.81464: (Sim:16h22m48s) 
CPU  3 inst: 1041000001 cyc: 1617281500 now IPC :0.04838: AVG IPC :0.64283: L2-Pf-HR :0.94349: L2-HR :0.83993: (Sim:16h26m49s) 
CPU  1 inst: 1040000005 cyc: 1621901015 now IPC :0.04845: AVG IPC :0.64038: L2-Pf-HR :0.93790: L2-HR :0.82880: (Sim:16h29m4s) 
CPU  2 inst: 1051000003 cyc: 1622730155 now IPC :0.04876: AVG IPC :0.64683: L2-Pf-HR :0.89870: L2-HR :0.80078: (Sim:16h29m29s) 
CPU  0 inst: 1040000005 cyc: 1627958500 now IPC :0.04868: AVG IPC :0.63799: L2-Pf-HR :0.93233: L2-HR :0.81256: (Sim:16h31m26s) 
CPU  3 inst: 1042000000 cyc: 1637870809 now IPC :0.04857: AVG IPC :0.63535: L2-Pf-HR :0.94218: L2-HR :0.83804: (Sim:16h35m51s) 
CPU  1 inst: 1041000001 cyc: 1642400768 now IPC :0.04878: AVG IPC :0.63299: L2-Pf-HR :0.93646: L2-HR :0.82684: (Sim:16h37m42s) 
CPU  2 inst: 1052000000 cyc: 1643288412 now IPC :0.04864: AVG IPC :0.63934: L2-Pf-HR :0.89722: L2-HR :0.79901: (Sim:16h38m8s) 
CPU  0 inst: 1041000001 cyc: 1648496922 now IPC :0.04869: AVG IPC :0.63065: L2-Pf-HR :0.93063: L2-HR :0.81051: (Sim:16h40m28s) 
CPU  3 inst: 1043000005 cyc: 1658434984 now IPC :0.04863: AVG IPC :0.62807: L2-Pf-HR :0.94088: L2-HR :0.83617: (Sim:16h44m2s) 
CPU  1 inst: 1042000000 cyc: 1662919031 now IPC :0.04874: AVG IPC :0.62578: L2-Pf-HR :0.93502: L2-HR :0.82489: (Sim:16h46m1s) 
CPU  2 inst: 1053000001 cyc: 1663812557 now IPC :0.04872: AVG IPC :0.63205: L2-Pf-HR :0.89574: L2-HR :0.79726: (Sim:16h46m17s) 
CPU  0 inst: 1042000003 cyc: 1669116157 now IPC :0.04850: AVG IPC :0.62345: L2-Pf-HR :0.92893: L2-HR :0.80849: (Sim:16h48m34s) 
CPU  3 inst: 1044000001 cyc: 1679040680 now IPC :0.04853: AVG IPC :0.62096: L2-Pf-HR :0.93958: L2-HR :0.83433: (Sim:16h52m51s) 
CPU  1 inst: 1043000005 cyc: 1683543325 now IPC :0.04849: AVG IPC :0.61870: L2-Pf-HR :0.93359: L2-HR :0.82297: (Sim:16h54m1s) 
CPU  2 inst: 1054000000 cyc: 1684249016 now IPC :0.04893: AVG IPC :0.62497: L2-Pf-HR :0.89428: L2-HR :0.79553: (Sim:16h54m18s) 
CPU  0 inst: 1043000001 cyc: 1689716285 now IPC :0.04854: AVG IPC :0.61644: L2-Pf-HR :0.92723: L2-HR :0.80649: (Sim:16h56m21s) 
CPU  3 inst: 1045000001 cyc: 1699620052 now IPC :0.04859: AVG IPC :0.61402: L2-Pf-HR :0.93829: L2-HR :0.83250: (Sim:16h59m37s) 
CPU  1 inst: 1044000001 cyc: 1704020785 now IPC :0.04883: AVG IPC :0.61185: L2-Pf-HR :0.93216: L2-HR :0.82108: (Sim:17h1m26s) 
CPU  2 inst: 1055000002 cyc: 1704774455 now IPC :0.04872: AVG IPC :0.61803: L2-Pf-HR :0.89281: L2-HR :0.79382: (Sim:17h1m44s) 
CPU  0 inst: 1044000001 cyc: 1710336142 now IPC :0.04850: AVG IPC :0.60959: L2-Pf-HR :0.92554: L2-HR :0.80452: (Sim:17h4m13s) 
Caught signal: 2
     > Finished combination: TraceType=770-tot Sim:2634000000 Prefetcher=L2ipcp L1=ipcp
