TRACE: [2639000000]_FE_[OPT-350M]_[h16]_[s2048]_[d64] Warmup: 2000000 NumTraces: 2639000000
L1:no:L2:spp_berti_src
Initialize SIGNATURE TABLE
ST_SET: 1
ST_WAY: 256
ST_TAG_BIT: 16
ST_TAG_MASK: ffff

Initialize PATTERN TABLE
PT_SET: 512
PT_WAY: 4
SIG_DELTA_BIT: 7
C_SIG_BIT: 4
C_DELTA_BIT: 4

Initialize PREFETCH FILTER
FILTER_SET: 1024
*************************************************
   ChampSim Multicore Out-of-Order Simulator
   Last compiled: Oct 30 2024 04:01:11
*************************************************

trace_0 770-tot_memTraces_v4_2048/memTraces[2639000000]_FE_[OPT-350M]_[h16]_[s2048]_[d64].champsim.9.xz
trace_1 770-tot_memTraces_v4_2048/memTraces[2639000000]_FE_[OPT-350M]_[h16]_[s2048]_[d64].champsim.9.xz
trace_2 770-tot_memTraces_v4_2048/memTraces[2639000000]_FE_[OPT-350M]_[h16]_[s2048]_[d64].champsim.9.xz
trace_3 770-tot_memTraces_v4_2048/memTraces[2639000000]_FE_[OPT-350M]_[h16]_[s2048]_[d64].champsim.9.xz
ST_WAYS: 256
PT_SETS: 512
ST_WAYS: 256
PT_SETS: 512
ST_WAYS: 256
PT_SETS: 512
ST_WAYS: 256
PT_SETS: 512
MAIN.cc ln 751 stats print skipped
CPU  0 inst:    1000000 cyc:     498232 now IPC :2.00710: AVG IPC :2.00710: L2-Pf-HR :0.94146: L2-HR :0.84108: (Sim:0h0m46s) 
CPU  1 inst:    1000000 cyc:     498351 now IPC :2.00662: AVG IPC :2.00662: L2-Pf-HR :0.90888: L2-HR :0.77878: (Sim:0h0m46s) 
CPU  3 inst:    1000000 cyc:     498384 now IPC :2.00648: AVG IPC :2.00648: L2-Pf-HR :0.91499: L2-HR :0.79061: (Sim:0h0m46s) 
CPU  2 inst:    1000000 cyc:     498479 now IPC :2.00610: AVG IPC :2.00610: L2-Pf-HR :0.90929: L2-HR :0.77994: (Sim:0h0m46s) 
CPU  0 inst:    2000001 cyc:     980763 now IPC :2.07241: AVG IPC :2.03923: L2-Pf-HR :0.95768: L2-HR :0.88916: (Sim:0h1m35s) 
CPU  1 inst:    2000001 cyc:     980815 now IPC :2.07270: AVG IPC :2.03912: L2-Pf-HR :0.93114: L2-HR :0.83837: (Sim:0h1m35s) 
CPU  3 inst:    2000001 cyc:     980888 now IPC :2.07252: AVG IPC :2.03897: L2-Pf-HR :0.93776: L2-HR :0.85110: (Sim:0h1m35s) 
CPU  2 inst:    2000001 cyc:     980956 now IPC :2.07264: AVG IPC :2.03883: L2-Pf-HR :0.91952: L2-HR :0.82197: (Sim:0h1m35s) 

Warmup complete CPU  0 instructions:    2000345 cycles:     980956 (Simulation time: 0 hr 1 min 35 sec) 
Warmup complete CPU  1 instructions:    2000280 cycles:     980956 (Simulation time: 0 hr 1 min 35 sec) 
Warmup complete CPU  2 instructions:    2000001 cycles:     980956 (Simulation time: 0 hr 1 min 35 sec) 
Warmup complete CPU  3 instructions:    2000197 cycles:     980955 (Simulation time: 0 hr 1 min 35 sec) 

CPU  0 inst:    3000000 cyc:    1510672 now IPC :1.88711: AVG IPC :1.88715: L2-Pf-HR :0.96228: L2-HR :0.92066: (Sim:0h2m14s) 
CPU  2 inst:    3000001 cyc:    1510809 now IPC :1.88732: AVG IPC :1.88732: L2-Pf-HR :0.90227: L2-HR :0.84911: (Sim:0h2m14s) 
CPU  3 inst:    3000000 cyc:    1510930 now IPC :1.88664: AVG IPC :1.88651: L2-Pf-HR :0.93927: L2-HR :0.88771: (Sim:0h2m14s) 
CPU  1 inst:    3000000 cyc:    1511239 now IPC :1.88528: AVG IPC :1.88526: L2-Pf-HR :0.94788: L2-HR :0.89805: (Sim:0h2m14s) 
CPU  2 inst:    4000004 cyc:    2079879 now IPC :1.75726: AVG IPC :1.81997: L2-Pf-HR :0.94603: L2-HR :0.87484: (Sim:0h2m40s) 
CPU  1 inst:    4000004 cyc:    2087318 now IPC :1.73588: AVG IPC :1.80748: L2-Pf-HR :0.95960: L2-HR :0.89684: (Sim:0h2m41s) 
CPU  3 inst:    4000004 cyc:    2091419 now IPC :1.72269: AVG IPC :1.80088: L2-Pf-HR :0.95738: L2-HR :0.89348: (Sim:0h2m41s) 
CPU  0 inst:    4000004 cyc:    2099631 now IPC :1.69792: AVG IPC :1.78752: L2-Pf-HR :0.97396: L2-HR :0.92650: (Sim:0h2m41s) 
CPU  0 inst:    5000005 cyc:    2656209 now IPC :1.79670: AVG IPC :1.79057: L2-Pf-HR :0.96531: L2-HR :0.92126: (Sim:0h3m13s) 
CPU  2 inst:    5000005 cyc:    2656243 now IPC :1.73502: AVG IPC :1.79074: L2-Pf-HR :0.93184: L2-HR :0.86833: (Sim:0h3m13s) 
CPU  1 inst:    5000005 cyc:    2658692 now IPC :1.75017: AVG IPC :1.78796: L2-Pf-HR :0.94818: L2-HR :0.89104: (Sim:0h3m13s) 
CPU  3 inst:    5000005 cyc:    2659239 now IPC :1.76112: AVG IPC :1.78743: L2-Pf-HR :0.94450: L2-HR :0.88337: (Sim:0h3m13s) 
CPU  1 inst:    6000000 cyc:    3226339 now IPC :1.76165: AVG IPC :1.78131: L2-Pf-HR :0.94250: L2-HR :0.88709: (Sim:0h3m40s) 
CPU  2 inst:    6000000 cyc:    3228448 now IPC :1.74762: AVG IPC :1.77976: L2-Pf-HR :0.92602: L2-HR :0.86483: (Sim:0h3m40s) 
CPU  0 inst:    6000003 cyc:    3231585 now IPC :1.73799: AVG IPC :1.77713: L2-Pf-HR :0.96265: L2-HR :0.91981: (Sim:0h3m41s) 
CPU  3 inst:    6000000 cyc:    3231628 now IPC :1.74705: AVG IPC :1.77716: L2-Pf-HR :0.94093: L2-HR :0.88189: (Sim:0h3m41s) 
CPU  3 inst:    7000000 cyc:    3878831 now IPC :1.54511: AVG IPC :1.72533: L2-Pf-HR :0.94012: L2-HR :0.88251: (Sim:0h4m8s) 
CPU  2 inst:    7000001 cyc:    3879752 now IPC :1.53538: AVG IPC :1.72485: L2-Pf-HR :0.92682: L2-HR :0.86735: (Sim:0h4m8s) 
CPU  1 inst:    7000001 cyc:    3880382 now IPC :1.52895: AVG IPC :1.72438: L2-Pf-HR :0.94190: L2-HR :0.88748: (Sim:0h4m8s) 
CPU  0 inst:    7000005 cyc:    3880889 now IPC :1.54011: AVG IPC :1.72406: L2-Pf-HR :0.96233: L2-HR :0.92001: (Sim:0h4m8s) 
CPU  1 inst:    8000002 cyc:    4465778 now IPC :1.70825: AVG IPC :1.72167: L2-Pf-HR :0.94326: L2-HR :0.88680: (Sim:0h4m35s) 
CPU  2 inst:    8000003 cyc:    4467901 now IPC :1.70025: AVG IPC :1.72070: L2-Pf-HR :0.93008: L2-HR :0.86873: (Sim:0h4m35s) 
CPU  3 inst:    8000002 cyc:    4468057 now IPC :1.69715: AVG IPC :1.72057: L2-Pf-HR :0.94254: L2-HR :0.88380: (Sim:0h4m35s) 
CPU  0 inst:    8000002 cyc:    4468510 now IPC :1.70177: AVG IPC :1.72031: L2-Pf-HR :0.96370: L2-HR :0.92008: (Sim:0h4m35s) 
CPU  1 inst:    9000005 cyc:    5060435 now IPC :1.68165: AVG IPC :1.71584: L2-Pf-HR :0.94225: L2-HR :0.88744: (Sim:0h5m2s) 
CPU  3 inst:    9000004 cyc:    5065572 now IPC :1.67360: AVG IPC :1.71370: L2-Pf-HR :0.93915: L2-HR :0.88082: (Sim:0h5m3s) 
CPU  2 inst:    9000005 cyc:    5065694 now IPC :1.67282: AVG IPC :1.71370: L2-Pf-HR :0.92827: L2-HR :0.86839: (Sim:0h5m3s) 
CPU  0 inst:    9000005 cyc:    5066586 now IPC :1.67203: AVG IPC :1.71324: L2-Pf-HR :0.96267: L2-HR :0.91952: (Sim:0h5m3s) 
CPU  1 inst:   10000001 cyc:    5698986 now IPC :1.56604: AVG IPC :1.69556: L2-Pf-HR :0.93993: L2-HR :0.88682: (Sim:0h5m49s) 
CPU  2 inst:   10000001 cyc:    5700643 now IPC :1.57492: AVG IPC :1.69503: L2-Pf-HR :0.92628: L2-HR :0.86866: (Sim:0h5m49s) 
CPU  3 inst:   10000001 cyc:    5701303 now IPC :1.57299: AVG IPC :1.69475: L2-Pf-HR :0.93573: L2-HR :0.87818: (Sim:0h5m50s) 
CPU  0 inst:   10000001 cyc:    5701466 now IPC :1.57509: AVG IPC :1.69466: L2-Pf-HR :0.96098: L2-HR :0.91870: (Sim:0h5m50s) 
CPU  2 inst:   11000002 cyc:    6325895 now IPC :1.59936: AVG IPC :1.68384: L2-Pf-HR :0.92355: L2-HR :0.86693: (Sim:0h6m37s) 
CPU  1 inst:   11000002 cyc:    6326049 now IPC :1.59474: AVG IPC :1.68374: L2-Pf-HR :0.93860: L2-HR :0.88687: (Sim:0h6m37s) 
CPU  0 inst:   11000002 cyc:    6326649 now IPC :1.59953: AVG IPC :1.68353: L2-Pf-HR :0.95962: L2-HR :0.91786: (Sim:0h6m37s) 
CPU  3 inst:   11000002 cyc:    6326964 now IPC :1.59831: AVG IPC :1.68346: L2-Pf-HR :0.93314: L2-HR :0.87628: (Sim:0h6m37s) 
CPU  2 inst:   12000003 cyc:    6929173 now IPC :1.65761: AVG IPC :1.68118: L2-Pf-HR :0.92542: L2-HR :0.86696: (Sim:0h7m23s) 
CPU  1 inst:   12000003 cyc:    6934327 now IPC :1.64399: AVG IPC :1.67967: L2-Pf-HR :0.94077: L2-HR :0.88765: (Sim:0h7m24s) 
CPU  3 inst:   12000003 cyc:    6934747 now IPC :1.64533: AVG IPC :1.67957: L2-Pf-HR :0.93612: L2-HR :0.87778: (Sim:0h7m24s) 
CPU  0 inst:   12000003 cyc:    6934925 now IPC :1.64399: AVG IPC :1.67949: L2-Pf-HR :0.96143: L2-HR :0.91898: (Sim:0h7m24s) 
CPU  3 inst:   13000004 cyc:    7616207 now IPC :1.46744: AVG IPC :1.65778: L2-Pf-HR :0.93717: L2-HR :0.87694: (Sim:0h8m7s) 
CPU  2 inst:   13000004 cyc:    7616734 now IPC :1.45442: AVG IPC :1.65768: L2-Pf-HR :0.92873: L2-HR :0.86848: (Sim:0h8m7s) 
CPU  1 inst:   13000004 cyc:    7625253 now IPC :1.44733: AVG IPC :1.65551: L2-Pf-HR :0.94134: L2-HR :0.88582: (Sim:0h8m7s) 
CPU  0 inst:   13000004 cyc:    7625604 now IPC :1.44785: AVG IPC :1.65542: L2-Pf-HR :0.96204: L2-HR :0.91822: (Sim:0h8m7s) 
CPU  2 inst:   14000002 cyc:    8167004 now IPC :1.81729: AVG IPC :1.66990: L2-Pf-HR :0.92545: L2-HR :0.86861: (Sim:0h8m35s) 
CPU  0 inst:   14000002 cyc:    8168954 now IPC :1.84043: AVG IPC :1.66940: L2-Pf-HR :0.96083: L2-HR :0.91902: (Sim:0h8m35s) 
CPU  3 inst:   14000002 cyc:    8172983 now IPC :1.79605: AVG IPC :1.66849: L2-Pf-HR :0.93591: L2-HR :0.87897: (Sim:0h8m36s) 
CPU  1 inst:   14000002 cyc:    8178767 now IPC :1.80664: AVG IPC :1.66713: L2-Pf-HR :0.93912: L2-HR :0.88612: (Sim:0h8m36s) 
CPU  3 inst:   15000002 cyc:    8717583 now IPC :1.83621: AVG IPC :1.68029: L2-Pf-HR :0.93520: L2-HR :0.87926: (Sim:0h9m8s) 
CPU  2 inst:   15000002 cyc:    8725590 now IPC :1.79023: AVG IPC :1.67858: L2-Pf-HR :0.92226: L2-HR :0.86626: (Sim:0h9m9s) 
CPU  0 inst:   15000002 cyc:    8728705 now IPC :1.78651: AVG IPC :1.67786: L2-Pf-HR :0.96025: L2-HR :0.91897: (Sim:0h9m9s) 
CPU  1 inst:   15000002 cyc:    8731219 now IPC :1.81011: AVG IPC :1.67733: L2-Pf-HR :0.93856: L2-HR :0.88671: (Sim:0h9m9s) 
CPU  1 inst:   16000002 cyc:    9271867 now IPC :1.84963: AVG IPC :1.68856: L2-Pf-HR :0.93585: L2-HR :0.88598: (Sim:0h9m53s) 
CPU  0 inst:   16000002 cyc:    9275541 now IPC :1.82870: AVG IPC :1.68781: L2-Pf-HR :0.95846: L2-HR :0.91870: (Sim:0h9m53s) 
CPU  2 inst:   16000002 cyc:    9279684 now IPC :1.80475: AVG IPC :1.68701: L2-Pf-HR :0.91938: L2-HR :0.86564: (Sim:0h9m53s) 
CPU  3 inst:   16000002 cyc:    9282077 now IPC :1.77150: AVG IPC :1.68650: L2-Pf-HR :0.93295: L2-HR :0.87844: (Sim:0h9m54s) 
CPU  0 inst:   17000002 cyc:    9835763 now IPC :1.78501: AVG IPC :1.69396: L2-Pf-HR :0.95765: L2-HR :0.91880: (Sim:0h10m39s) 
CPU  1 inst:   17000002 cyc:    9845269 now IPC :1.74398: AVG IPC :1.69215: L2-Pf-HR :0.93492: L2-HR :0.88619: (Sim:0h10m40s) 
CPU  2 inst:   17000005 cyc:    9847252 now IPC :1.76191: AVG IPC :1.69180: L2-Pf-HR :0.91727: L2-HR :0.86469: (Sim:0h10m40s) 
CPU  3 inst:   17000002 cyc:    9848479 now IPC :1.76553: AVG IPC :1.69154: L2-Pf-HR :0.93137: L2-HR :0.87761: (Sim:0h10m40s) 
CPU  3 inst:   18000005 cyc:   10363653 now IPC :1.94110: AVG IPC :1.70525: L2-Pf-HR :0.93064: L2-HR :0.87743: (Sim:0h11m23s) 
CPU  2 inst:   18000005 cyc:   10368718 now IPC :1.91767: AVG IPC :1.70435: L2-Pf-HR :0.91596: L2-HR :0.86417: (Sim:0h11m24s) 
CPU  0 inst:   18000005 cyc:   10370320 now IPC :1.87071: AVG IPC :1.70402: L2-Pf-HR :0.95720: L2-HR :0.91883: (Sim:0h11m24s) 
CPU  1 inst:   18000005 cyc:   10370416 now IPC :1.90423: AVG IPC :1.70401: L2-Pf-HR :0.93391: L2-HR :0.88552: (Sim:0h11m24s) 
CPU  2 inst:   19000005 cyc:   10952026 now IPC :1.71436: AVG IPC :1.70493: L2-Pf-HR :0.91626: L2-HR :0.86545: (Sim:0h12m8s) 
CPU  3 inst:   19000002 cyc:   10952682 now IPC :1.69770: AVG IPC :1.70480: L2-Pf-HR :0.93114: L2-HR :0.87875: (Sim:0h12m8s) 
CPU  1 inst:   19000004 cyc:   10958166 now IPC :1.70140: AVG IPC :1.70386: L2-Pf-HR :0.93369: L2-HR :0.88598: (Sim:0h12m8s) 
CPU  0 inst:   19000005 cyc:   10959565 now IPC :1.69709: AVG IPC :1.70361: L2-Pf-HR :0.95730: L2-HR :0.91953: (Sim:0h12m8s) 
CPU  1 inst:   20000002 cyc:   11505019 now IPC :1.82864: AVG IPC :1.71034: L2-Pf-HR :0.93243: L2-HR :0.88552: (Sim:0h12m53s) 
CPU  2 inst:   20000002 cyc:   11517834 now IPC :1.76738: AVG IPC :1.70829: L2-Pf-HR :0.91489: L2-HR :0.86488: (Sim:0h12m54s) 
CPU  3 inst:   20000002 cyc:   11519063 now IPC :1.76560: AVG IPC :1.70807: L2-Pf-HR :0.93026: L2-HR :0.87848: (Sim:0h12m54s) 
CPU  0 inst:   20000002 cyc:   11527177 now IPC :1.76176: AVG IPC :1.70674: L2-Pf-HR :0.95653: L2-HR :0.91934: (Sim:0h12m55s) 
CPU  1 inst:   21000004 cyc:   12116084 now IPC :1.63649: AVG IPC :1.70629: L2-Pf-HR :0.93164: L2-HR :0.88569: (Sim:0h13m40s) 
CPU  3 inst:   21000004 cyc:   12126603 now IPC :1.64599: AVG IPC :1.70468: L2-Pf-HR :0.92924: L2-HR :0.87803: (Sim:0h13m41s) 
CPU  0 inst:   21000004 cyc:   12127670 now IPC :1.66530: AVG IPC :1.70451: L2-Pf-HR :0.95598: L2-HR :0.91956: (Sim:0h13m42s) 
CPU  2 inst:   21000004 cyc:   12132982 now IPC :1.62563: AVG IPC :1.70373: L2-Pf-HR :0.91387: L2-HR :0.86497: (Sim:0h13m42s) 
CPU  1 inst:   22000000 cyc:   12712232 now IPC :1.67743: AVG IPC :1.70482: L2-Pf-HR :0.93015: L2-HR :0.88538: (Sim:0h14m27s) 
CPU  0 inst:   22000000 cyc:   12724900 now IPC :1.67439: AVG IPC :1.70298: L2-Pf-HR :0.95490: L2-HR :0.91935: (Sim:0h14m28s) 
CPU  3 inst:   22000000 cyc:   12728755 now IPC :1.66070: AVG IPC :1.70243: L2-Pf-HR :0.92760: L2-HR :0.87713: (Sim:0h14m28s) 
CPU  2 inst:   22000000 cyc:   12730964 now IPC :1.67228: AVG IPC :1.70213: L2-Pf-HR :0.91237: L2-HR :0.86486: (Sim:0h14m29s) 
CPU  1 inst:   23000000 cyc:   13302397 now IPC :1.69444: AVG IPC :1.70432: L2-Pf-HR :0.92958: L2-HR :0.88581: (Sim:0h15m14s) 
CPU  2 inst:   23000001 cyc:   13307535 now IPC :1.73439: AVG IPC :1.70364: L2-Pf-HR :0.91111: L2-HR :0.86444: (Sim:0h15m14s) 
CPU  0 inst:   23000000 cyc:   13313918 now IPC :1.69774: AVG IPC :1.70273: L2-Pf-HR :0.95427: L2-HR :0.91935: (Sim:0h15m15s) 
CPU  3 inst:   23000000 cyc:   13318412 now IPC :1.69590: AVG IPC :1.70212: L2-Pf-HR :0.92671: L2-HR :0.87671: (Sim:0h15m15s) 
CPU  1 inst:   24000003 cyc:   13869598 now IPC :1.76305: AVG IPC :1.70691: L2-Pf-HR :0.92862: L2-HR :0.88552: (Sim:0h16m0s) 
CPU  0 inst:   24000000 cyc:   13872378 now IPC :1.79064: AVG IPC :1.70653: L2-Pf-HR :0.95382: L2-HR :0.91941: (Sim:0h16m0s) 
CPU  2 inst:   24000000 cyc:   13882883 now IPC :1.73808: AVG IPC :1.70517: L2-Pf-HR :0.91000: L2-HR :0.86409: (Sim:0h16m1s) 
CPU  3 inst:   24000003 cyc:   13888598 now IPC :1.75382: AVG IPC :1.70440: L2-Pf-HR :0.92594: L2-HR :0.87626: (Sim:0h16m2s) 
CPU  2 inst:   25000004 cyc:   14763183 now IPC :1.13598: AVG IPC :1.66882: L2-Pf-HR :0.91303: L2-HR :0.86542: (Sim:0h16m35s) 
CPU  3 inst:   25000004 cyc:   14771261 now IPC :1.13294: AVG IPC :1.66782: L2-Pf-HR :0.92788: L2-HR :0.87682: (Sim:0h16m35s) 
CPU  1 inst:   25000004 cyc:   14775399 now IPC :1.10400: AVG IPC :1.66732: L2-Pf-HR :0.93022: L2-HR :0.88546: (Sim:0h16m36s) 
CPU  0 inst:   25000003 cyc:   14782979 now IPC :1.09818: AVG IPC :1.66640: L2-Pf-HR :0.95481: L2-HR :0.91940: (Sim:0h16m36s) 
CPU  2 inst:   26000001 cyc:   15629878 now IPC :1.15381: AVG IPC :1.63835: L2-Pf-HR :0.91448: L2-HR :0.86534: (Sim:0h17m8s) 
CPU  1 inst:   26000004 cyc:   15631260 now IPC :1.16841: AVG IPC :1.63817: L2-Pf-HR :0.93169: L2-HR :0.88571: (Sim:0h17m8s) 
CPU  3 inst:   26000004 cyc:   15633095 now IPC :1.16032: AVG IPC :1.63797: L2-Pf-HR :0.93009: L2-HR :0.87802: (Sim:0h17m8s) 
CPU  0 inst:   26000004 cyc:   15633398 now IPC :1.17589: AVG IPC :1.63793: L2-Pf-HR :0.95603: L2-HR :0.91985: (Sim:0h17m8s) 
CPU  1 inst:   27000004 cyc:   16437201 now IPC :1.24079: AVG IPC :1.61745: L2-Pf-HR :0.93234: L2-HR :0.88578: (Sim:0h17m39s) 
CPU  2 inst:   27000004 cyc:   16452522 now IPC :1.21560: AVG IPC :1.61587: L2-Pf-HR :0.91409: L2-HR :0.86382: (Sim:0h17m40s) 
CPU  3 inst:   27000004 cyc:   16461244 now IPC :1.20751: AVG IPC :1.61494: L2-Pf-HR :0.93048: L2-HR :0.87745: (Sim:0h17m41s) 
CPU  0 inst:   27000004 cyc:   16472982 now IPC :1.19107: AVG IPC :1.61371: L2-Pf-HR :0.95640: L2-HR :0.91954: (Sim:0h17m41s) 
CPU  1 inst:   28000004 cyc:   17250541 now IPC :1.22950: AVG IPC :1.59806: L2-Pf-HR :0.93361: L2-HR :0.88579: (Sim:0h18m14s) 
CPU  3 inst:   28000004 cyc:   17279473 now IPC :1.22215: AVG IPC :1.59523: L2-Pf-HR :0.93171: L2-HR :0.87726: (Sim:0h18m16s) 
CPU  0 inst:   28000004 cyc:   17280322 now IPC :1.23864: AVG IPC :1.59513: L2-Pf-HR :0.95744: L2-HR :0.91956: (Sim:0h18m16s) 
CPU  2 inst:   28000004 cyc:   17284196 now IPC :1.20239: AVG IPC :1.59478: L2-Pf-HR :0.91605: L2-HR :0.86380: (Sim:0h18m16s) 
CPU  2 inst:   29000004 cyc:   18065895 now IPC :1.27926: AVG IPC :1.58034: L2-Pf-HR :0.91695: L2-HR :0.86348: (Sim:0h19m7s) 
CPU  1 inst:   29000004 cyc:   18072275 now IPC :1.21694: AVG IPC :1.57973: L2-Pf-HR :0.93461: L2-HR :0.88608: (Sim:0h19m8s) 
CPU  0 inst:   29000004 cyc:   18080068 now IPC :1.25040: AVG IPC :1.57901: L2-Pf-HR :0.95825: L2-HR :0.91961: (Sim:0h19m8s) 
CPU  3 inst:   29000001 cyc:   18086856 now IPC :1.23857: AVG IPC :1.57839: L2-Pf-HR :0.93241: L2-HR :0.87676: (Sim:0h19m9s) 
CPU  0 inst:   30000004 cyc:   18897368 now IPC :1.22354: AVG IPC :1.56279: L2-Pf-HR :0.95877: L2-HR :0.91956: (Sim:0h19m59s) 
CPU  1 inst:   30000001 cyc:   18909003 now IPC :1.19513: AVG IPC :1.56178: L2-Pf-HR :0.93529: L2-HR :0.88571: (Sim:0h20m0s) 
CPU  3 inst:   30000004 cyc:   18910061 now IPC :1.21477: AVG IPC :1.56170: L2-Pf-HR :0.93327: L2-HR :0.87652: (Sim:0h20m0s) 
CPU  2 inst:   30000004 cyc:   18918916 now IPC :1.17230: AVG IPC :1.56094: L2-Pf-HR :0.91834: L2-HR :0.86333: (Sim:0h20m1s) 
CPU  1 inst:   31000004 cyc:   19967929 now IPC :0.94436: AVG IPC :1.52735: L2-Pf-HR :0.93533: L2-HR :0.88557: (Sim:0h20m54s) 
CPU  2 inst:   31000001 cyc:   19974944 now IPC :0.94694: AVG IPC :1.52680: L2-Pf-HR :0.91831: L2-HR :0.86349: (Sim:0h20m54s) 
CPU  3 inst:   31000001 cyc:   19994924 now IPC :0.92177: AVG IPC :1.52518: L2-Pf-HR :0.93347: L2-HR :0.87680: (Sim:0h20m55s) 
CPU  0 inst:   31000002 cyc:   20003627 now IPC :0.90395: AVG IPC :1.52448: L2-Pf-HR :0.95904: L2-HR :0.91962: (Sim:0h20m56s) 
CPU  3 inst:   32000005 cyc:   21127888 now IPC :0.88264: AVG IPC :1.48905: L2-Pf-HR :0.93284: L2-HR :0.87628: (Sim:0h21m54s) 
CPU  1 inst:   32000005 cyc:   21174644 now IPC :0.82870: AVG IPC :1.48560: L2-Pf-HR :0.93426: L2-HR :0.88480: (Sim:0h21m56s) 
CPU  2 inst:   32000005 cyc:   21180649 now IPC :0.82939: AVG IPC :1.48517: L2-Pf-HR :0.91727: L2-HR :0.86275: (Sim:0h21m56s) 
CPU  0 inst:   32000001 cyc:   21181808 now IPC :0.84877: AVG IPC :1.48507: L2-Pf-HR :0.95834: L2-HR :0.91911: (Sim:0h21m56s) 
CPU  0 inst:   33000002 cyc:   22363434 now IPC :0.84629: AVG IPC :1.44977: L2-Pf-HR :0.95777: L2-HR :0.91882: (Sim:0h22m55s) 
CPU  2 inst:   33000002 cyc:   22376782 now IPC :0.83602: AVG IPC :1.44888: L2-Pf-HR :0.91627: L2-HR :0.86228: (Sim:0h22m56s) 
CPU  1 inst:   33000002 cyc:   22412351 now IPC :0.80794: AVG IPC :1.44646: L2-Pf-HR :0.93355: L2-HR :0.88445: (Sim:0h22m57s) 
CPU  3 inst:   33000002 cyc:   22415185 now IPC :0.77682: AVG IPC :1.44628: L2-Pf-HR :0.93190: L2-HR :0.87539: (Sim:0h22m58s) 
CPU  2 inst:   34000005 cyc:   23579321 now IPC :0.83158: AVG IPC :1.41603: L2-Pf-HR :0.91547: L2-HR :0.86172: (Sim:0h23m57s) 
CPU  0 inst:   34000002 cyc:   23587449 now IPC :0.81698: AVG IPC :1.41551: L2-Pf-HR :0.95728: L2-HR :0.91836: (Sim:0h23m57s) 
CPU  1 inst:   34000005 cyc:   23605347 now IPC :0.83823: AVG IPC :1.41439: L2-Pf-HR :0.93283: L2-HR :0.88393: (Sim:0h23m58s) 
CPU  3 inst:   34000005 cyc:   23633583 now IPC :0.82075: AVG IPC :1.41263: L2-Pf-HR :0.93115: L2-HR :0.87455: (Sim:0h24m0s) 
CPU  0 inst:   35000002 cyc:   24864715 now IPC :0.78292: AVG IPC :1.38168: L2-Pf-HR :0.95677: L2-HR :0.91801: (Sim:0h25m0s) 
CPU  1 inst:   35000005 cyc:   24866129 now IPC :0.79316: AVG IPC :1.38160: L2-Pf-HR :0.93238: L2-HR :0.88386: (Sim:0h25m0s) 
CPU  2 inst:   35000002 cyc:   24885123 now IPC :0.76581: AVG IPC :1.38051: L2-Pf-HR :0.91457: L2-HR :0.86083: (Sim:0h25m1s) 
CPU  3 inst:   35000005 cyc:   24898145 now IPC :0.79079: AVG IPC :1.37975: L2-Pf-HR :0.93044: L2-HR :0.87369: (Sim:0h25m1s) 
CPU  0 inst:   36000000 cyc:   26035140 now IPC :0.85439: AVG IPC :1.35705: L2-Pf-HR :0.95641: L2-HR :0.91771: (Sim:0h26m0s) 
CPU  2 inst:   36000000 cyc:   26037887 now IPC :0.86748: AVG IPC :1.35691: L2-Pf-HR :0.91384: L2-HR :0.86018: (Sim:0h26m0s) 
CPU  3 inst:   36000000 cyc:   26040454 now IPC :0.87542: AVG IPC :1.35676: L2-Pf-HR :0.92970: L2-HR :0.87282: (Sim:0h26m0s) 
CPU  1 inst:   36000000 cyc:   26041840 now IPC :0.85054: AVG IPC :1.35668: L2-Pf-HR :0.93174: L2-HR :0.88326: (Sim:0h26m0s) 
CPU  2 inst:   37000003 cyc:   27448678 now IPC :0.70882: AVG IPC :1.32237: L2-Pf-HR :0.91524: L2-HR :0.86047: (Sim:0h26m42s) 
CPU  3 inst:   37000003 cyc:   27457692 now IPC :0.70560: AVG IPC :1.32191: L2-Pf-HR :0.93052: L2-HR :0.87259: (Sim:0h26m42s) 
CPU  0 inst:   37000003 cyc:   27487581 now IPC :0.68850: AVG IPC :1.32041: L2-Pf-HR :0.95696: L2-HR :0.91753: (Sim:0h26m43s) 
CPU  1 inst:   37000002 cyc:   27487860 now IPC :0.69155: AVG IPC :1.32040: L2-Pf-HR :0.93254: L2-HR :0.88288: (Sim:0h26m43s) 
CPU  0 inst:   38000003 cyc:   28721213 now IPC :0.81061: AVG IPC :1.29774: L2-Pf-HR :0.95635: L2-HR :0.91725: (Sim:0h27m20s) 
CPU  2 inst:   38000000 cyc:   28732117 now IPC :0.77915: AVG IPC :1.29724: L2-Pf-HR :0.91413: L2-HR :0.85980: (Sim:0h27m21s) 
CPU  3 inst:   38000003 cyc:   28732801 now IPC :0.78425: AVG IPC :1.29720: L2-Pf-HR :0.92985: L2-HR :0.87241: (Sim:0h27m21s) 
CPU  1 inst:   38000003 cyc:   28733712 now IPC :0.80266: AVG IPC :1.29716: L2-Pf-HR :0.93165: L2-HR :0.88244: (Sim:0h27m21s) 
CPU  0 inst:   39000003 cyc:   29872913 now IPC :0.86828: AVG IPC :1.28062: L2-Pf-HR :0.95641: L2-HR :0.91728: (Sim:0h27m55s) 
CPU  1 inst:   39000000 cyc:   29904089 now IPC :0.85442: AVG IPC :1.27924: L2-Pf-HR :0.93166: L2-HR :0.88262: (Sim:0h27m57s) 
CPU  2 inst:   39000000 cyc:   29914763 now IPC :0.84556: AVG IPC :1.27878: L2-Pf-HR :0.91333: L2-HR :0.85900: (Sim:0h27m57s) 
CPU  3 inst:   39000000 cyc:   29943019 now IPC :0.82629: AVG IPC :1.27753: L2-Pf-HR :0.92969: L2-HR :0.87218: (Sim:0h27m58s) 
CPU  1 inst:   40000001 cyc:   31076816 now IPC :0.85271: AVG IPC :1.26262: L2-Pf-HR :0.93107: L2-HR :0.88219: (Sim:0h28m32s) 
CPU  0 inst:   40000003 cyc:   31090270 now IPC :0.82145: AVG IPC :1.26206: L2-Pf-HR :0.95616: L2-HR :0.91696: (Sim:0h28m33s) 
CPU  2 inst:   40000001 cyc:   31102072 now IPC :0.84224: AVG IPC :1.26157: L2-Pf-HR :0.91280: L2-HR :0.85848: (Sim:0h28m33s) 
CPU  3 inst:   40000001 cyc:   31182717 now IPC :0.80665: AVG IPC :1.25820: L2-Pf-HR :0.92954: L2-HR :0.87159: (Sim:0h28m35s) 
CPU  1 inst:   41000003 cyc:   32324549 now IPC :0.80146: AVG IPC :1.24426: L2-Pf-HR :0.93050: L2-HR :0.88209: (Sim:0h29m11s) 
CPU  2 inst:   41000000 cyc:   32330138 now IPC :0.81429: AVG IPC :1.24405: L2-Pf-HR :0.91192: L2-HR :0.85813: (Sim:0h29m11s) 
CPU  0 inst:   41000003 cyc:   32340222 now IPC :0.80003: AVG IPC :1.24364: L2-Pf-HR :0.95571: L2-HR :0.91665: (Sim:0h29m11s) 
CPU  3 inst:   41000000 cyc:   32345301 now IPC :0.86015: AVG IPC :1.24344: L2-Pf-HR :0.92881: L2-HR :0.87094: (Sim:0h29m11s) 
CPU  2 inst:   42000001 cyc:   33664342 now IPC :0.74951: AVG IPC :1.22386: L2-Pf-HR :0.91138: L2-HR :0.85746: (Sim:0h29m49s) 
CPU  0 inst:   42000002 cyc:   33664510 now IPC :0.75512: AVG IPC :1.22385: L2-Pf-HR :0.95541: L2-HR :0.91633: (Sim:0h29m49s) 
CPU  1 inst:   42000003 cyc:   33700389 now IPC :0.72683: AVG IPC :1.22251: L2-Pf-HR :0.93000: L2-HR :0.88141: (Sim:0h29m50s) 
CPU  3 inst:   42000003 cyc:   33714749 now IPC :0.73022: AVG IPC :1.22197: L2-Pf-HR :0.92849: L2-HR :0.87037: (Sim:0h29m51s) 
CPU  0 inst:   43000004 cyc:   34865258 now IPC :0.83282: AVG IPC :1.20999: L2-Pf-HR :0.95588: L2-HR :0.91679: (Sim:0h30m23s) 
CPU  1 inst:   43000004 cyc:   34887154 now IPC :0.84263: AVG IPC :1.20921: L2-Pf-HR :0.93067: L2-HR :0.88190: (Sim:0h30m24s) 
CPU  2 inst:   43000003 cyc:   34914177 now IPC :0.80011: AVG IPC :1.20826: L2-Pf-HR :0.91251: L2-HR :0.85820: (Sim:0h30m25s) 
CPU  3 inst:   43000004 cyc:   34949584 now IPC :0.80983: AVG IPC :1.20699: L2-Pf-HR :0.92957: L2-HR :0.87123: (Sim:0h30m26s) 
CPU  2 inst:   44000000 cyc:   36040259 now IPC :0.88803: AVG IPC :1.19797: L2-Pf-HR :0.91349: L2-HR :0.85807: (Sim:0h31m0s) 
CPU  1 inst:   44000001 cyc:   36045070 now IPC :0.86362: AVG IPC :1.19780: L2-Pf-HR :0.93136: L2-HR :0.88184: (Sim:0h31m0s) 
CPU  3 inst:   44000001 cyc:   36078198 now IPC :0.88604: AVG IPC :1.19667: L2-Pf-HR :0.93034: L2-HR :0.87115: (Sim:0h31m2s) 
CPU  0 inst:   44000001 cyc:   36079213 now IPC :0.82375: AVG IPC :1.19663: L2-Pf-HR :0.95634: L2-HR :0.91673: (Sim:0h31m2s) 
CPU  1 inst:   45000001 cyc:   37262180 now IPC :0.82162: AVG IPC :1.18518: L2-Pf-HR :0.93156: L2-HR :0.88174: (Sim:0h31m37s) 
CPU  0 inst:   45000001 cyc:   37293255 now IPC :0.82369: AVG IPC :1.18416: L2-Pf-HR :0.95656: L2-HR :0.91668: (Sim:0h31m38s) 
CPU  2 inst:   45000001 cyc:   37332314 now IPC :0.77396: AVG IPC :1.18290: L2-Pf-HR :0.91413: L2-HR :0.85811: (Sim:0h31m39s) 
CPU  3 inst:   45000001 cyc:   37337832 now IPC :0.79388: AVG IPC :1.18271: L2-Pf-HR :0.93066: L2-HR :0.87074: (Sim:0h31m39s) 
CPU  2 inst:   46000001 cyc:   38516724 now IPC :0.84430: AVG IPC :1.17222: L2-Pf-HR :0.91540: L2-HR :0.85856: (Sim:0h32m14s) 
CPU  1 inst:   46000001 cyc:   38521693 now IPC :0.79396: AVG IPC :1.17205: L2-Pf-HR :0.93227: L2-HR :0.88178: (Sim:0h32m15s) 
CPU  0 inst:   46000001 cyc:   38523783 now IPC :0.81266: AVG IPC :1.17199: L2-Pf-HR :0.95709: L2-HR :0.91679: (Sim:0h32m15s) 
CPU  3 inst:   46000001 cyc:   38532770 now IPC :0.83686: AVG IPC :1.17171: L2-Pf-HR :0.93130: L2-HR :0.87056: (Sim:0h32m15s) 
CPU  0 inst:   47000001 cyc:   39813559 now IPC :0.77533: AVG IPC :1.15881: L2-Pf-HR :0.95712: L2-HR :0.91661: (Sim:0h32m52s) 
CPU  2 inst:   47000001 cyc:   39819613 now IPC :0.76753: AVG IPC :1.15864: L2-Pf-HR :0.91563: L2-HR :0.85826: (Sim:0h32m52s) 
CPU  3 inst:   47000001 cyc:   39862500 now IPC :0.75203: AVG IPC :1.15736: L2-Pf-HR :0.93139: L2-HR :0.87018: (Sim:0h32m53s) 
CPU  1 inst:   47000000 cyc:   39890148 now IPC :0.73075: AVG IPC :1.15653: L2-Pf-HR :0.93237: L2-HR :0.88166: (Sim:0h32m53s) 
CPU  0 inst:   48000003 cyc:   41119789 now IPC :0.76556: AVG IPC :1.14601: L2-Pf-HR :0.95716: L2-HR :0.91648: (Sim:0h33m30s) 
CPU  1 inst:   48000003 cyc:   41126540 now IPC :0.80881: AVG IPC :1.14582: L2-Pf-HR :0.93226: L2-HR :0.88128: (Sim:0h33m30s) 
CPU  2 inst:   48000003 cyc:   41126572 now IPC :0.76514: AVG IPC :1.14583: L2-Pf-HR :0.91546: L2-HR :0.85790: (Sim:0h33m30s) 
CPU  3 inst:   48000003 cyc:   41149495 now IPC :0.77701: AVG IPC :1.14517: L2-Pf-HR :0.93121: L2-HR :0.86968: (Sim:0h33m31s) 
CPU  2 inst:   49000005 cyc:   42614828 now IPC :0.67193: AVG IPC :1.12889: L2-Pf-HR :0.91651: L2-HR :0.85837: (Sim:0h34m9s) 
CPU  3 inst:   49000005 cyc:   42639598 now IPC :0.67110: AVG IPC :1.12821: L2-Pf-HR :0.93185: L2-HR :0.86981: (Sim:0h34m10s) 
CPU  1 inst:   49000005 cyc:   42643997 now IPC :0.65900: AVG IPC :1.12809: L2-Pf-HR :0.93272: L2-HR :0.88112: (Sim:0h34m10s) 
CPU  0 inst:   49000005 cyc:   42668080 now IPC :0.64587: AVG IPC :1.12744: L2-Pf-HR :0.95741: L2-HR :0.91636: (Sim:0h34m11s) 
CPU  1 inst:   50000005 cyc:   44205425 now IPC :0.64044: AVG IPC :1.11048: L2-Pf-HR :0.93262: L2-HR :0.88111: (Sim:0h35m0s) 
CPU  2 inst:   50000002 cyc:   44205527 now IPC :0.62865: AVG IPC :1.11048: L2-Pf-HR :0.91624: L2-HR :0.85812: (Sim:0h35m0s) 
CPU  0 inst:   50000005 cyc:   44210467 now IPC :0.64835: AVG IPC :1.11034: L2-Pf-HR :0.95732: L2-HR :0.91635: (Sim:0h35m0s) 
CPU  3 inst:   50000005 cyc:   44212798 now IPC :0.63565: AVG IPC :1.11029: L2-Pf-HR :0.93197: L2-HR :0.86995: (Sim:0h35m0s) 
CPU  1 inst:   51000005 cyc:   45581373 now IPC :0.72677: AVG IPC :1.09864: L2-Pf-HR :0.93219: L2-HR :0.88090: (Sim:0h36m4s) 
CPU  2 inst:   51000005 cyc:   45590379 now IPC :0.72210: AVG IPC :1.09842: L2-Pf-HR :0.91538: L2-HR :0.85736: (Sim:0h36m4s) 
CPU  3 inst:   51000005 cyc:   45590605 now IPC :0.72579: AVG IPC :1.09841: L2-Pf-HR :0.93155: L2-HR :0.86970: (Sim:0h36m4s) 
CPU  0 inst:   51000005 cyc:   45700179 now IPC :0.67127: AVG IPC :1.09572: L2-Pf-HR :0.95696: L2-HR :0.91610: (Sim:0h36m10s) 
CPU  2 inst:   52000005 cyc:   47036886 now IPC :0.69132: AVG IPC :1.08564: L2-Pf-HR :0.91459: L2-HR :0.85694: (Sim:0h37m10s) 
CPU  0 inst:   52000005 cyc:   47079076 now IPC :0.72522: AVG IPC :1.08464: L2-Pf-HR :0.95652: L2-HR :0.91589: (Sim:0h37m12s) 
CPU  3 inst:   52000002 cyc:   47083826 now IPC :0.66969: AVG IPC :1.08453: L2-Pf-HR :0.93083: L2-HR :0.86914: (Sim:0h37m12s) 
CPU  1 inst:   52000002 cyc:   47093482 now IPC :0.66133: AVG IPC :1.08430: L2-Pf-HR :0.93146: L2-HR :0.88049: (Sim:0h37m13s) 
CPU  1 inst:   53000005 cyc:   48495014 now IPC :0.71351: AVG IPC :1.07336: L2-Pf-HR :0.93117: L2-HR :0.88046: (Sim:0h38m17s) 
CPU  2 inst:   53000000 cyc:   48498054 now IPC :0.68438: AVG IPC :1.07330: L2-Pf-HR :0.91399: L2-HR :0.85657: (Sim:0h38m17s) 
CPU  3 inst:   53000002 cyc:   48515196 now IPC :0.69863: AVG IPC :1.07291: L2-Pf-HR :0.93023: L2-HR :0.86866: (Sim:0h38m18s) 
CPU  0 inst:   53000000 cyc:   48525396 now IPC :0.69141: AVG IPC :1.07267: L2-Pf-HR :0.95617: L2-HR :0.91568: (Sim:0h38m18s) 
CPU  0 inst:   54000000 cyc:   49893159 now IPC :0.73112: AVG IPC :1.06312: L2-Pf-HR :0.95588: L2-HR :0.91539: (Sim:0h39m23s) 
CPU  2 inst:   54000000 cyc:   49907042 now IPC :0.70973: AVG IPC :1.06283: L2-Pf-HR :0.91330: L2-HR :0.85609: (Sim:0h39m23s) 
CPU  3 inst:   54000002 cyc:   49910771 now IPC :0.71655: AVG IPC :1.06274: L2-Pf-HR :0.92989: L2-HR :0.86827: (Sim:0h39m24s) 
CPU  1 inst:   54000002 cyc:   49922368 now IPC :0.70059: AVG IPC :1.06249: L2-Pf-HR :0.93071: L2-HR :0.87999: (Sim:0h39m24s) 
CPU  0 inst:   55000003 cyc:   51144509 now IPC :0.79914: AVG IPC :1.05654: L2-Pf-HR :0.95600: L2-HR :0.91559: (Sim:0h40m20s) 
CPU  1 inst:   55000003 cyc:   51153826 now IPC :0.81205: AVG IPC :1.05634: L2-Pf-HR :0.93092: L2-HR :0.88024: (Sim:0h40m21s) 
CPU  2 inst:   55000003 cyc:   51166219 now IPC :0.79417: AVG IPC :1.05609: L2-Pf-HR :0.91358: L2-HR :0.85640: (Sim:0h40m21s) 
CPU  3 inst:   55000003 cyc:   51233856 now IPC :0.75581: AVG IPC :1.05466: L2-Pf-HR :0.93008: L2-HR :0.86870: (Sim:0h40m25s) 
CPU  2 inst:   56000002 cyc:   52570284 now IPC :0.71222: AVG IPC :1.04673: L2-Pf-HR :0.91296: L2-HR :0.85605: (Sim:0h41m27s) 
CPU  3 inst:   56000002 cyc:   52591790 now IPC :0.73641: AVG IPC :1.04629: L2-Pf-HR :0.92968: L2-HR :0.86844: (Sim:0h41m28s) 
CPU  0 inst:   56000003 cyc:   52600679 now IPC :0.68673: AVG IPC :1.04611: L2-Pf-HR :0.95563: L2-HR :0.91531: (Sim:0h41m29s) 
CPU  1 inst:   56000002 cyc:   52610318 now IPC :0.68658: AVG IPC :1.04591: L2-Pf-HR :0.93036: L2-HR :0.87992: (Sim:0h41m29s) 
CPU  0 inst:   57000003 cyc:   54031193 now IPC :0.69905: AVG IPC :1.03675: L2-Pf-HR :0.95545: L2-HR :0.91519: (Sim:0h42m34s) 
CPU  1 inst:   57000003 cyc:   54035215 now IPC :0.70181: AVG IPC :1.03667: L2-Pf-HR :0.93005: L2-HR :0.87977: (Sim:0h42m34s) 
CPU  2 inst:   57000003 cyc:   54046218 now IPC :0.67754: AVG IPC :1.03646: L2-Pf-HR :0.91249: L2-HR :0.85581: (Sim:0h42m34s) 
CPU  3 inst:   57000000 cyc:   54103250 now IPC :0.66161: AVG IPC :1.03534: L2-Pf-HR :0.92922: L2-HR :0.86800: (Sim:0h42m37s) 
CPU  0 inst:   58000003 cyc:   55471883 now IPC :0.69411: AVG IPC :1.02769: L2-Pf-HR :0.95508: L2-HR :0.91489: (Sim:0h43m39s) 
CPU  1 inst:   58000003 cyc:   55489142 now IPC :0.68779: AVG IPC :1.02736: L2-Pf-HR :0.92947: L2-HR :0.87947: (Sim:0h43m40s) 
CPU  2 inst:   58000003 cyc:   55496767 now IPC :0.68939: AVG IPC :1.02723: L2-Pf-HR :0.91221: L2-HR :0.85568: (Sim:0h43m40s) 
CPU  3 inst:   58000000 cyc:   55519949 now IPC :0.70587: AVG IPC :1.02678: L2-Pf-HR :0.92866: L2-HR :0.86757: (Sim:0h43m41s) 
CPU  1 inst:   59000002 cyc:   57013148 now IPC :0.65616: AVG IPC :1.01727: L2-Pf-HR :0.92913: L2-HR :0.87943: (Sim:0h44m46s) 
CPU  0 inst:   59000005 cyc:   57088107 now IPC :0.61873: AVG IPC :1.01591: L2-Pf-HR :0.95481: L2-HR :0.91480: (Sim:0h44m48s) 
CPU  3 inst:   59000005 cyc:   57177209 now IPC :0.60341: AVG IPC :1.01430: L2-Pf-HR :0.92840: L2-HR :0.86741: (Sim:0h44m51s) 
CPU  2 inst:   59000004 cyc:   57190540 now IPC :0.59040: AVG IPC :1.01406: L2-Pf-HR :0.91194: L2-HR :0.85533: (Sim:0h44m51s) 
CPU  0 inst:   60000003 cyc:   58388562 now IPC :0.76896: AVG IPC :1.01031: L2-Pf-HR :0.95483: L2-HR :0.91488: (Sim:0h45m46s) 
CPU  1 inst:   60000000 cyc:   58438545 now IPC :0.70156: AVG IPC :1.00944: L2-Pf-HR :0.92889: L2-HR :0.87930: (Sim:0h45m49s) 
CPU  2 inst:   60000002 cyc:   58456349 now IPC :0.79001: AVG IPC :1.00913: L2-Pf-HR :0.91150: L2-HR :0.85518: (Sim:0h45m50s) 
CPU  3 inst:   60000002 cyc:   58463883 now IPC :0.77720: AVG IPC :1.00899: L2-Pf-HR :0.92791: L2-HR :0.86721: (Sim:0h45m50s) 
CPU  0 inst:   61000005 cyc:   59546492 now IPC :0.86361: AVG IPC :1.00741: L2-Pf-HR :0.95458: L2-HR :0.91437: (Sim:0h46m38s) 
CPU  3 inst:   61000005 cyc:   59845026 now IPC :0.72404: AVG IPC :1.00231: L2-Pf-HR :0.92760: L2-HR :0.86667: (Sim:0h46m52s) 
CPU  1 inst:   61000004 cyc:   59854213 now IPC :0.70638: AVG IPC :1.00215: L2-Pf-HR :0.92886: L2-HR :0.87902: (Sim:0h46m53s) 
CPU  2 inst:   61000001 cyc:   59873275 now IPC :0.70575: AVG IPC :1.00183: L2-Pf-HR :0.91076: L2-HR :0.85416: (Sim:0h46m54s) 
CPU  0 inst:   62000001 cyc:   60819760 now IPC :0.78538: AVG IPC :1.00269: L2-Pf-HR :0.95384: L2-HR :0.91368: (Sim:0h47m37s) 
CPU  1 inst:   62000001 cyc:   61138276 now IPC :0.77878: AVG IPC :0.99738: L2-Pf-HR :0.92782: L2-HR :0.87830: (Sim:0h47m53s) 
CPU  3 inst:   62000001 cyc:   61151125 now IPC :0.76564: AVG IPC :0.99717: L2-Pf-HR :0.92646: L2-HR :0.86584: (Sim:0h47m54s) 
CPU  2 inst:   62000001 cyc:   61200679 now IPC :0.75335: AVG IPC :0.99635: L2-Pf-HR :0.90952: L2-HR :0.85331: (Sim:0h47m56s) 
CPU  0 inst:   63000001 cyc:   62029756 now IPC :0.82645: AVG IPC :0.99919: L2-Pf-HR :0.95387: L2-HR :0.91347: (Sim:0h48m39s) 
CPU  2 inst:   63000005 cyc:   62277695 now IPC :0.92850: AVG IPC :0.99516: L2-Pf-HR :0.90968: L2-HR :0.85271: (Sim:0h48m52s) 
CPU  3 inst:   63000005 cyc:   62288487 now IPC :0.87923: AVG IPC :0.99498: L2-Pf-HR :0.92658: L2-HR :0.86532: (Sim:0h48m53s) 
CPU  1 inst:   63000005 cyc:   62290462 now IPC :0.86792: AVG IPC :0.99495: L2-Pf-HR :0.92810: L2-HR :0.87792: (Sim:0h48m53s) 
CPU  0 inst:   64000000 cyc:   63026026 now IPC :1.00374: AVG IPC :0.99927: L2-Pf-HR :0.95443: L2-HR :0.91342: (Sim:0h49m34s) 
CPU  2 inst:   64000000 cyc:   63281651 now IPC :0.99605: AVG IPC :0.99517: L2-Pf-HR :0.91019: L2-HR :0.85211: (Sim:0h49m47s) 
CPU  3 inst:   64000000 cyc:   63287139 now IPC :1.00134: AVG IPC :0.99508: L2-Pf-HR :0.92695: L2-HR :0.86468: (Sim:0h49m48s) 
CPU  1 inst:   64000005 cyc:   63290754 now IPC :0.99971: AVG IPC :0.99502: L2-Pf-HR :0.92840: L2-HR :0.87726: (Sim:0h49m48s) 
CPU  0 inst:   65000001 cyc:   64728588 now IPC :0.58735: AVG IPC :0.98827: L2-Pf-HR :0.95505: L2-HR :0.91331: (Sim:0h50m49s) 
CPU  1 inst:   65000001 cyc:   64767495 now IPC :0.67716: AVG IPC :0.98766: L2-Pf-HR :0.92900: L2-HR :0.87689: (Sim:0h50m50s) 
CPU  2 inst:   65000001 cyc:   64779249 now IPC :0.66774: AVG IPC :0.98749: L2-Pf-HR :0.91146: L2-HR :0.85228: (Sim:0h50m51s) 
CPU  3 inst:   65000001 cyc:   64779779 now IPC :0.66995: AVG IPC :0.98748: L2-Pf-HR :0.92765: L2-HR :0.86437: (Sim:0h50m51s) 
CPU  0 inst:   66000002 cyc:   66083738 now IPC :0.73793: AVG IPC :0.98306: L2-Pf-HR :0.95532: L2-HR :0.91321: (Sim:0h51m55s) 
CPU  2 inst:   66000003 cyc:   66104943 now IPC :0.75432: AVG IPC :0.98274: L2-Pf-HR :0.91210: L2-HR :0.85215: (Sim:0h51m56s) 
CPU  1 inst:   66000002 cyc:   66105150 now IPC :0.74758: AVG IPC :0.98273: L2-Pf-HR :0.92941: L2-HR :0.87671: (Sim:0h51m56s) 
CPU  3 inst:   66000002 cyc:   66116659 now IPC :0.74801: AVG IPC :0.98256: L2-Pf-HR :0.92805: L2-HR :0.86425: (Sim:0h51m57s) 
CPU  2 inst:   67000003 cyc:   67621540 now IPC :0.65937: AVG IPC :0.97538: L2-Pf-HR :0.91272: L2-HR :0.85185: (Sim:0h53m4s) 
CPU  0 inst:   67000000 cyc:   67622681 now IPC :0.64980: AVG IPC :0.97536: L2-Pf-HR :0.95576: L2-HR :0.91318: (Sim:0h53m4s) 
CPU  1 inst:   67000003 cyc:   67623618 now IPC :0.65856: AVG IPC :0.97535: L2-Pf-HR :0.93013: L2-HR :0.87676: (Sim:0h53m4s) 
CPU  3 inst:   67000000 cyc:   67626109 now IPC :0.66249: AVG IPC :0.97531: L2-Pf-HR :0.92871: L2-HR :0.86425: (Sim:0h53m4s) 
CPU  0 inst:   68000000 cyc:   68993722 now IPC :0.72937: AVG IPC :0.97040: L2-Pf-HR :0.95580: L2-HR :0.91303: (Sim:0h54m10s) 
CPU  2 inst:   68000005 cyc:   69000202 now IPC :0.72534: AVG IPC :0.97031: L2-Pf-HR :0.91299: L2-HR :0.85177: (Sim:0h54m10s) 
CPU  1 inst:   68000000 cyc:   69010685 now IPC :0.72094: AVG IPC :0.97016: L2-Pf-HR :0.93025: L2-HR :0.87660: (Sim:0h54m10s) 
CPU  3 inst:   68000005 cyc:   69048612 now IPC :0.70299: AVG IPC :0.96962: L2-Pf-HR :0.92896: L2-HR :0.86417: (Sim:0h54m12s) 
CPU  1 inst:   69000000 cyc:   70434436 now IPC :0.70237: AVG IPC :0.96467: L2-Pf-HR :0.93038: L2-HR :0.87663: (Sim:0h54m53s) 
CPU  0 inst:   69000005 cyc:   70435552 now IPC :0.69357: AVG IPC :0.96465: L2-Pf-HR :0.95576: L2-HR :0.91294: (Sim:0h54m53s) 
CPU  2 inst:   69000000 cyc:   70452432 now IPC :0.68859: AVG IPC :0.96442: L2-Pf-HR :0.91335: L2-HR :0.85192: (Sim:0h54m53s) 
CPU  3 inst:   69000000 cyc:   70468501 now IPC :0.70428: AVG IPC :0.96420: L2-Pf-HR :0.92899: L2-HR :0.86399: (Sim:0h54m54s) 
CPU  0 inst:   70000003 cyc:   71778495 now IPC :0.74463: AVG IPC :0.96048: L2-Pf-HR :0.95590: L2-HR :0.91282: (Sim:0h55m51s) 
CPU  2 inst:   70000003 cyc:   71806987 now IPC :0.73825: AVG IPC :0.96010: L2-Pf-HR :0.91356: L2-HR :0.85187: (Sim:0h55m52s) 
CPU  1 inst:   70000003 cyc:   71809688 now IPC :0.72714: AVG IPC :0.96006: L2-Pf-HR :0.93050: L2-HR :0.87646: (Sim:0h55m53s) 
CPU  3 inst:   70000003 cyc:   71820208 now IPC :0.73981: AVG IPC :0.95992: L2-Pf-HR :0.92915: L2-HR :0.86386: (Sim:0h55m53s) 
CPU  0 inst:   71000004 cyc:   73172844 now IPC :0.71718: AVG IPC :0.95578: L2-Pf-HR :0.95625: L2-HR :0.91288: (Sim:0h56m54s) 
CPU  1 inst:   71000000 cyc:   73176545 now IPC :0.73160: AVG IPC :0.95573: L2-Pf-HR :0.93107: L2-HR :0.87650: (Sim:0h56m54s) 
CPU  2 inst:   71000003 cyc:   73183166 now IPC :0.72665: AVG IPC :0.95565: L2-Pf-HR :0.91443: L2-HR :0.85223: (Sim:0h56m54s) 
CPU  3 inst:   71000002 cyc:   73278498 now IPC :0.68573: AVG IPC :0.95439: L2-Pf-HR :0.92971: L2-HR :0.86409: (Sim:0h57m0s) 
CPU  1 inst:   72000004 cyc:   74527655 now IPC :0.74014: AVG IPC :0.95177: L2-Pf-HR :0.93242: L2-HR :0.87687: (Sim:0h57m56s) 
CPU  0 inst:   72000004 cyc:   74530315 now IPC :0.73666: AVG IPC :0.95174: L2-Pf-HR :0.95701: L2-HR :0.91307: (Sim:0h57m57s) 
CPU  2 inst:   72000004 cyc:   74533694 now IPC :0.74045: AVG IPC :0.95170: L2-Pf-HR :0.91633: L2-HR :0.85294: (Sim:0h57m57s) 
CPU  3 inst:   72000004 cyc:   74540373 now IPC :0.79247: AVG IPC :0.95161: L2-Pf-HR :0.93111: L2-HR :0.86474: (Sim:0h57m57s) 
CPU  1 inst:   73000002 cyc:   76004216 now IPC :0.67725: AVG IPC :0.94637: L2-Pf-HR :0.93330: L2-HR :0.87697: (Sim:0h59m3s) 
CPU  2 inst:   73000002 cyc:   76013742 now IPC :0.67565: AVG IPC :0.94625: L2-Pf-HR :0.91722: L2-HR :0.85296: (Sim:0h59m4s) 
CPU  3 inst:   73000002 cyc:   76036728 now IPC :0.66829: AVG IPC :0.94596: L2-Pf-HR :0.93162: L2-HR :0.86443: (Sim:0h59m5s) 
CPU  0 inst:   73000002 cyc:   76045596 now IPC :0.65994: AVG IPC :0.94585: L2-Pf-HR :0.95749: L2-HR :0.91304: (Sim:0h59m6s) 
CPU  2 inst:   74000001 cyc:   77282033 now IPC :0.78846: AVG IPC :0.94363: L2-Pf-HR :0.91862: L2-HR :0.85332: (Sim:1h0m5s) 
CPU  1 inst:   74000001 cyc:   77308766 now IPC :0.76655: AVG IPC :0.94330: L2-Pf-HR :0.93436: L2-HR :0.87716: (Sim:1h0m6s) 
CPU  3 inst:   74000001 cyc:   77313491 now IPC :0.78323: AVG IPC :0.94324: L2-Pf-HR :0.93236: L2-HR :0.86435: (Sim:1h0m6s) 
CPU  0 inst:   74000001 cyc:   77363353 now IPC :0.75886: AVG IPC :0.94262: L2-Pf-HR :0.95808: L2-HR :0.91306: (Sim:1h0m9s) 
CPU  3 inst:   75000001 cyc:   78872059 now IPC :0.64161: AVG IPC :0.93720: L2-Pf-HR :0.93347: L2-HR :0.86458: (Sim:1h1m12s) 
CPU  2 inst:   75000001 cyc:   78872880 now IPC :0.62860: AVG IPC :0.93720: L2-Pf-HR :0.92002: L2-HR :0.85363: (Sim:1h1m12s) 
CPU  0 inst:   75000003 cyc:   78895759 now IPC :0.65257: AVG IPC :0.93692: L2-Pf-HR :0.95878: L2-HR :0.91325: (Sim:1h1m14s) 
CPU  1 inst:   75000001 cyc:   78917917 now IPC :0.62145: AVG IPC :0.93665: L2-Pf-HR :0.93576: L2-HR :0.87773: (Sim:1h1m15s) 
CPU  3 inst:   76000000 cyc:   80137535 now IPC :0.79022: AVG IPC :0.93485: L2-Pf-HR :0.93458: L2-HR :0.86480: (Sim:1h2m12s) 
CPU  1 inst:   76000000 cyc:   80166350 now IPC :0.80100: AVG IPC :0.93451: L2-Pf-HR :0.93681: L2-HR :0.87784: (Sim:1h2m14s) 
CPU  2 inst:   76000000 cyc:   80185502 now IPC :0.76183: AVG IPC :0.93429: L2-Pf-HR :0.92143: L2-HR :0.85391: (Sim:1h2m15s) 
CPU  0 inst:   76000000 cyc:   80218651 now IPC :0.75592: AVG IPC :0.93389: L2-Pf-HR :0.95952: L2-HR :0.91344: (Sim:1h2m16s) 
CPU  1 inst:   77000003 cyc:   81641738 now IPC :0.67779: AVG IPC :0.92982: L2-Pf-HR :0.93761: L2-HR :0.87792: (Sim:1h3m17s) 
CPU  3 inst:   77000003 cyc:   81644779 now IPC :0.66346: AVG IPC :0.92978: L2-Pf-HR :0.93564: L2-HR :0.86515: (Sim:1h3m17s) 
CPU  2 inst:   77000002 cyc:   81710157 now IPC :0.65589: AVG IPC :0.92903: L2-Pf-HR :0.92305: L2-HR :0.85463: (Sim:1h3m19s) 
CPU  0 inst:   77000003 cyc:   81744543 now IPC :0.65536: AVG IPC :0.92863: L2-Pf-HR :0.96009: L2-HR :0.91363: (Sim:1h3m20s) 
CPU  2 inst:   78000000 cyc:   83174390 now IPC :0.68295: AVG IPC :0.92465: L2-Pf-HR :0.92244: L2-HR :0.85434: (Sim:1h4m21s) 
CPU  0 inst:   78000003 cyc:   83225392 now IPC :0.67529: AVG IPC :0.92407: L2-Pf-HR :0.95984: L2-HR :0.91350: (Sim:1h4m23s) 
CPU  1 inst:   78000003 cyc:   83233723 now IPC :0.62815: AVG IPC :0.92398: L2-Pf-HR :0.93710: L2-HR :0.87778: (Sim:1h4m24s) 
CPU  3 inst:   78000003 cyc:   83252537 now IPC :0.62198: AVG IPC :0.92377: L2-Pf-HR :0.93538: L2-HR :0.86516: (Sim:1h4m25s) 
CPU  1 inst:   79000000 cyc:   84679363 now IPC :0.69173: AVG IPC :0.91997: L2-Pf-HR :0.93660: L2-HR :0.87772: (Sim:1h5m26s) 
CPU  3 inst:   79000000 cyc:   84680126 now IPC :0.70048: AVG IPC :0.91996: L2-Pf-HR :0.93481: L2-HR :0.86494: (Sim:1h5m26s) 
CPU  2 inst:   79000000 cyc:   84740423 now IPC :0.63856: AVG IPC :0.91930: L2-Pf-HR :0.92158: L2-HR :0.85390: (Sim:1h5m29s) 
CPU  0 inst:   79000000 cyc:   84741099 now IPC :0.65976: AVG IPC :0.91929: L2-Pf-HR :0.95950: L2-HR :0.91340: (Sim:1h5m29s) 
CPU  1 inst:   80000003 cyc:   86220881 now IPC :0.64871: AVG IPC :0.91506: L2-Pf-HR :0.93605: L2-HR :0.87747: (Sim:1h6m31s) 
CPU  0 inst:   80000003 cyc:   86231679 now IPC :0.67088: AVG IPC :0.91494: L2-Pf-HR :0.95910: L2-HR :0.91318: (Sim:1h6m32s) 
CPU  3 inst:   80000003 cyc:   86238095 now IPC :0.64186: AVG IPC :0.91488: L2-Pf-HR :0.93430: L2-HR :0.86461: (Sim:1h6m32s) 
CPU  2 inst:   80000003 cyc:   86241187 now IPC :0.66633: AVG IPC :0.91485: L2-Pf-HR :0.92084: L2-HR :0.85347: (Sim:1h6m33s) 
CPU  0 inst:   81000000 cyc:   87723589 now IPC :0.67028: AVG IPC :0.91074: L2-Pf-HR :0.95881: L2-HR :0.91300: (Sim:1h7m36s) 
CPU  1 inst:   81000002 cyc:   87728537 now IPC :0.66328: AVG IPC :0.91069: L2-Pf-HR :0.93575: L2-HR :0.87733: (Sim:1h7m37s) 
CPU  2 inst:   81000002 cyc:   87738715 now IPC :0.66777: AVG IPC :0.91058: L2-Pf-HR :0.92032: L2-HR :0.85317: (Sim:1h7m37s) 
CPU  3 inst:   81000001 cyc:   87784935 now IPC :0.64648: AVG IPC :0.91009: L2-Pf-HR :0.93381: L2-HR :0.86422: (Sim:1h7m39s) 
CPU  0 inst:   82000002 cyc:   89149582 now IPC :0.70127: AVG IPC :0.90735: L2-Pf-HR :0.95870: L2-HR :0.91292: (Sim:1h8m39s) 
CPU  2 inst:   82000002 cyc:   89149733 now IPC :0.70871: AVG IPC :0.90735: L2-Pf-HR :0.92013: L2-HR :0.85303: (Sim:1h8m39s) 
CPU  1 inst:   82000002 cyc:   89180343 now IPC :0.68880: AVG IPC :0.90703: L2-Pf-HR :0.93545: L2-HR :0.87712: (Sim:1h8m41s) 
CPU  3 inst:   82000000 cyc:   89185574 now IPC :0.71396: AVG IPC :0.90698: L2-Pf-HR :0.93359: L2-HR :0.86407: (Sim:1h8m41s) 
CPU  0 inst:   83000001 cyc:   90432144 now IPC :0.77969: AVG IPC :0.90552: L2-Pf-HR :0.95864: L2-HR :0.91295: (Sim:1h9m37s) 
CPU  2 inst:   83000000 cyc:   90433663 now IPC :0.77886: AVG IPC :0.90551: L2-Pf-HR :0.92010: L2-HR :0.85310: (Sim:1h9m37s) 
CPU  3 inst:   83000000 cyc:   90458723 now IPC :0.78545: AVG IPC :0.90525: L2-Pf-HR :0.93362: L2-HR :0.86422: (Sim:1h9m39s) 
CPU  1 inst:   83000000 cyc:   90466280 now IPC :0.77764: AVG IPC :0.90517: L2-Pf-HR :0.93535: L2-HR :0.87711: (Sim:1h9m39s) 
CPU  2 inst:   84000001 cyc:   91822375 now IPC :0.72009: AVG IPC :0.90267: L2-Pf-HR :0.91945: L2-HR :0.85314: (Sim:1h10m31s) 
CPU  1 inst:   84000001 cyc:   91874355 now IPC :0.71019: AVG IPC :0.90215: L2-Pf-HR :0.93473: L2-HR :0.87701: (Sim:1h10m32s) 
CPU  0 inst:   84000001 cyc:   91906767 now IPC :0.67814: AVG IPC :0.90183: L2-Pf-HR :0.95825: L2-HR :0.91288: (Sim:1h10m33s) 
CPU  3 inst:   84000001 cyc:   91907498 now IPC :0.69024: AVG IPC :0.90182: L2-Pf-HR :0.93303: L2-HR :0.86424: (Sim:1h10m33s) 
CPU  0 inst:   85000001 cyc:   93342709 now IPC :0.69641: AVG IPC :0.89864: L2-Pf-HR :0.95802: L2-HR :0.91272: (Sim:1h11m11s) 
CPU  1 inst:   85000001 cyc:   93345658 now IPC :0.67967: AVG IPC :0.89861: L2-Pf-HR :0.93433: L2-HR :0.87683: (Sim:1h11m11s) 
CPU  2 inst:   85000001 cyc:   93373450 now IPC :0.64471: AVG IPC :0.89834: L2-Pf-HR :0.91893: L2-HR :0.85283: (Sim:1h11m12s) 
CPU  3 inst:   85000001 cyc:   93383050 now IPC :0.67771: AVG IPC :0.89825: L2-Pf-HR :0.93260: L2-HR :0.86390: (Sim:1h11m12s) 
CPU  0 inst:   86000001 cyc:   94800024 now IPC :0.68619: AVG IPC :0.89534: L2-Pf-HR :0.95776: L2-HR :0.91254: (Sim:1h11m49s) 
CPU  1 inst:   86000001 cyc:   94807892 now IPC :0.68389: AVG IPC :0.89526: L2-Pf-HR :0.93401: L2-HR :0.87659: (Sim:1h11m49s) 
CPU  2 inst:   86000001 cyc:   94818739 now IPC :0.69190: AVG IPC :0.89516: L2-Pf-HR :0.91857: L2-HR :0.85262: (Sim:1h11m49s) 
CPU  3 inst:   86000001 cyc:   94844543 now IPC :0.68423: AVG IPC :0.89491: L2-Pf-HR :0.93210: L2-HR :0.86348: (Sim:1h11m50s) 
CPU  0 inst:   87000000 cyc:   96172465 now IPC :0.72863: AVG IPC :0.89293: L2-Pf-HR :0.95749: L2-HR :0.91239: (Sim:1h12m27s) 
CPU  1 inst:   87000005 cyc:   96179868 now IPC :0.72888: AVG IPC :0.89286: L2-Pf-HR :0.93367: L2-HR :0.87648: (Sim:1h12m27s) 
CPU  2 inst:   87000005 cyc:   96187460 now IPC :0.73061: AVG IPC :0.89280: L2-Pf-HR :0.91801: L2-HR :0.85238: (Sim:1h12m27s) 
CPU  3 inst:   87000005 cyc:   96246229 now IPC :0.71343: AVG IPC :0.89224: L2-Pf-HR :0.93169: L2-HR :0.86317: (Sim:1h12m28s) 
CPU  0 inst:   88000001 cyc:   97658395 now IPC :0.67298: AVG IPC :0.88955: L2-Pf-HR :0.95733: L2-HR :0.91219: (Sim:1h13m30s) 
CPU  2 inst:   88000001 cyc:   97664670 now IPC :0.67695: AVG IPC :0.88950: L2-Pf-HR :0.91764: L2-HR :0.85205: (Sim:1h13m30s) 
CPU  3 inst:   88000001 cyc:   97675256 now IPC :0.69977: AVG IPC :0.88940: L2-Pf-HR :0.93142: L2-HR :0.86282: (Sim:1h13m30s) 
CPU  1 inst:   88000001 cyc:   97693799 now IPC :0.66053: AVG IPC :0.88923: L2-Pf-HR :0.93341: L2-HR :0.87619: (Sim:1h13m31s) 
CPU  2 inst:   89000002 cyc:   99154493 now IPC :0.67122: AVG IPC :0.88619: L2-Pf-HR :0.91806: L2-HR :0.85219: (Sim:1h14m33s) 
CPU  0 inst:   89000005 cyc:   99161039 now IPC :0.66550: AVG IPC :0.88612: L2-Pf-HR :0.95749: L2-HR :0.91215: (Sim:1h14m33s) 
CPU  3 inst:   89000005 cyc:   99164797 now IPC :0.67135: AVG IPC :0.88609: L2-Pf-HR :0.93165: L2-HR :0.86286: (Sim:1h14m34s) 
CPU  1 inst:   89000005 cyc:   99166187 now IPC :0.67917: AVG IPC :0.88608: L2-Pf-HR :0.93352: L2-HR :0.87601: (Sim:1h14m34s) 
CPU  2 inst:   90000005 cyc:  100502080 now IPC :0.74207: AVG IPC :0.88423: L2-Pf-HR :0.91755: L2-HR :0.85207: (Sim:1h15m34s) 
CPU  0 inst:   90000005 cyc:  100533553 now IPC :0.72859: AVG IPC :0.88395: L2-Pf-HR :0.95727: L2-HR :0.91207: (Sim:1h15m35s) 
CPU  1 inst:   90000002 cyc:  100537882 now IPC :0.72902: AVG IPC :0.88391: L2-Pf-HR :0.93306: L2-HR :0.87586: (Sim:1h15m35s) 
CPU  3 inst:   90000002 cyc:  100544828 now IPC :0.72462: AVG IPC :0.88385: L2-Pf-HR :0.93136: L2-HR :0.86288: (Sim:1h15m36s) 
CPU  2 inst:   91000000 cyc:  101886469 now IPC :0.72234: AVG IPC :0.88201: L2-Pf-HR :0.91700: L2-HR :0.85173: (Sim:1h16m36s) 
CPU  0 inst:   91000005 cyc:  101887941 now IPC :0.73834: AVG IPC :0.88200: L2-Pf-HR :0.95703: L2-HR :0.91199: (Sim:1h16m36s) 
CPU  1 inst:   91000000 cyc:  101901937 now IPC :0.73311: AVG IPC :0.88188: L2-Pf-HR :0.93276: L2-HR :0.87585: (Sim:1h16m37s) 
CPU  3 inst:   91000000 cyc:  101919302 now IPC :0.72755: AVG IPC :0.88172: L2-Pf-HR :0.93111: L2-HR :0.86274: (Sim:1h16m38s) 
CPU  1 inst:   92000002 cyc:  103285253 now IPC :0.72290: AVG IPC :0.87973: L2-Pf-HR :0.93231: L2-HR :0.87564: (Sim:1h17m38s) 
CPU  0 inst:   92000002 cyc:  103300143 now IPC :0.70811: AVG IPC :0.87960: L2-Pf-HR :0.95671: L2-HR :0.91180: (Sim:1h17m39s) 
CPU  2 inst:   92000002 cyc:  103305216 now IPC :0.70485: AVG IPC :0.87956: L2-Pf-HR :0.91633: L2-HR :0.85138: (Sim:1h17m40s) 
CPU  3 inst:   92000002 cyc:  103330277 now IPC :0.70873: AVG IPC :0.87934: L2-Pf-HR :0.93067: L2-HR :0.86248: (Sim:1h17m41s) 
CPU  0 inst:   93000003 cyc:  104712482 now IPC :0.70805: AVG IPC :0.87726: L2-Pf-HR :0.95636: L2-HR :0.91163: (Sim:1h18m41s) 
CPU  1 inst:   93000004 cyc:  104726545 now IPC :0.69382: AVG IPC :0.87714: L2-Pf-HR :0.93183: L2-HR :0.87553: (Sim:1h18m42s) 
CPU  2 inst:   93000005 cyc:  104771551 now IPC :0.68197: AVG IPC :0.87677: L2-Pf-HR :0.91586: L2-HR :0.85117: (Sim:1h18m43s) 
CPU  3 inst:   93000005 cyc:  104776240 now IPC :0.69158: AVG IPC :0.87672: L2-Pf-HR :0.93021: L2-HR :0.86213: (Sim:1h18m43s) 
CPU  0 inst:   94000005 cyc:  106102437 now IPC :0.71945: AVG IPC :0.87517: L2-Pf-HR :0.95623: L2-HR :0.91151: (Sim:1h19m44s) 
CPU  2 inst:   94000005 cyc:  106106045 now IPC :0.74935: AVG IPC :0.87515: L2-Pf-HR :0.91542: L2-HR :0.85090: (Sim:1h19m44s) 
CPU  1 inst:   94000000 cyc:  106106320 now IPC :0.72475: AVG IPC :0.87514: L2-Pf-HR :0.93156: L2-HR :0.87534: (Sim:1h19m44s) 
CPU  3 inst:   94000005 cyc:  106138068 now IPC :0.73431: AVG IPC :0.87488: L2-Pf-HR :0.92999: L2-HR :0.86192: (Sim:1h19m45s) 
CPU  3 inst:   95000003 cyc:  107324774 now IPC :0.84267: AVG IPC :0.87452: L2-Pf-HR :0.93012: L2-HR :0.86217: (Sim:1h20m40s) 
CPU  1 inst:   95000003 cyc:  107330874 now IPC :0.81663: AVG IPC :0.87447: L2-Pf-HR :0.93157: L2-HR :0.87539: (Sim:1h20m41s) 
CPU  2 inst:   95000000 cyc:  107345442 now IPC :0.80684: AVG IPC :0.87435: L2-Pf-HR :0.91540: L2-HR :0.85096: (Sim:1h20m41s) 
CPU  0 inst:   95000003 cyc:  107348489 now IPC :0.80253: AVG IPC :0.87432: L2-Pf-HR :0.95627: L2-HR :0.91160: (Sim:1h20m42s) 
CPU  1 inst:   96000003 cyc:  108592478 now IPC :0.79264: AVG IPC :0.87351: L2-Pf-HR :0.93270: L2-HR :0.87598: (Sim:1h21m37s) 
CPU  2 inst:   96000000 cyc:  108614549 now IPC :0.78796: AVG IPC :0.87333: L2-Pf-HR :0.91699: L2-HR :0.85183: (Sim:1h21m38s) 
CPU  0 inst:   96000003 cyc:  108615675 now IPC :0.78915: AVG IPC :0.87332: L2-Pf-HR :0.95705: L2-HR :0.91214: (Sim:1h21m38s) 
CPU  3 inst:   96000003 cyc:  108616343 now IPC :0.77425: AVG IPC :0.87332: L2-Pf-HR :0.93153: L2-HR :0.86309: (Sim:1h21m38s) 
CPU  0 inst:   97000000 cyc:  109657217 now IPC :0.96011: AVG IPC :0.87415: L2-Pf-HR :0.95776: L2-HR :0.91259: (Sim:1h22m30s) 
CPU  1 inst:   97000000 cyc:  109658480 now IPC :0.93808: AVG IPC :0.87414: L2-Pf-HR :0.93378: L2-HR :0.87653: (Sim:1h22m30s) 
CPU  3 inst:   97000000 cyc:  109661221 now IPC :0.95705: AVG IPC :0.87412: L2-Pf-HR :0.93244: L2-HR :0.86351: (Sim:1h22m30s) 
CPU  2 inst:   97000000 cyc:  109661843 now IPC :0.95484: AVG IPC :0.87412: L2-Pf-HR :0.91818: L2-HR :0.85235: (Sim:1h22m30s) 
CPU  2 inst:   98000002 cyc:  110682688 now IPC :0.97958: AVG IPC :0.87510: L2-Pf-HR :0.91909: L2-HR :0.85272: (Sim:1h23m23s) 
CPU  1 inst:   98000001 cyc:  110682841 now IPC :0.97622: AVG IPC :0.87510: L2-Pf-HR :0.93446: L2-HR :0.87673: (Sim:1h23m23s) 
CPU  3 inst:   98000001 cyc:  110693748 now IPC :0.96850: AVG IPC :0.87501: L2-Pf-HR :0.93309: L2-HR :0.86372: (Sim:1h23m24s) 
CPU  0 inst:   98000001 cyc:  110713989 now IPC :0.94628: AVG IPC :0.87485: L2-Pf-HR :0.95827: L2-HR :0.91284: (Sim:1h23m25s) 
CPU  0 inst:   99000004 cyc:  111766964 now IPC :0.94969: AVG IPC :0.87556: L2-Pf-HR :0.95844: L2-HR :0.91290: (Sim:1h24m18s) 
CPU  1 inst:   99000005 cyc:  111786424 now IPC :0.90614: AVG IPC :0.87541: L2-Pf-HR :0.93472: L2-HR :0.87691: (Sim:1h24m19s) 
CPU  2 inst:   99000003 cyc:  111888401 now IPC :0.82939: AVG IPC :0.87460: L2-Pf-HR :0.91926: L2-HR :0.85269: (Sim:1h24m23s) 
CPU  3 inst:   99000005 cyc:  111896776 now IPC :0.83124: AVG IPC :0.87454: L2-Pf-HR :0.93323: L2-HR :0.86372: (Sim:1h24m23s) 
CPU  1 inst:  100000000 cyc:  112780219 now IPC :1.00624: AVG IPC :0.87657: L2-Pf-HR :0.93583: L2-HR :0.87745: (Sim:1h25m10s) 
CPU  0 inst:  100000003 cyc:  112793667 now IPC :0.97399: AVG IPC :0.87646: L2-Pf-HR :0.95917: L2-HR :0.91338: (Sim:1h25m10s) 
CPU  3 inst:  100000003 cyc:  112804792 now IPC :1.10130: AVG IPC :0.87638: L2-Pf-HR :0.93425: L2-HR :0.86427: (Sim:1h25m11s) 
CPU  2 inst:  100000003 cyc:  112806131 now IPC :1.08965: AVG IPC :0.87637: L2-Pf-HR :0.92051: L2-HR :0.85325: (Sim:1h25m11s) 
CPU  1 inst:  101000004 cyc:  114192727 now IPC :0.70796: AVG IPC :0.87446: L2-Pf-HR :0.93622: L2-HR :0.87746: (Sim:1h26m12s) 
CPU  3 inst:  101000004 cyc:  114193469 now IPC :0.72011: AVG IPC :0.87446: L2-Pf-HR :0.93484: L2-HR :0.86452: (Sim:1h26m12s) 
CPU  2 inst:  101000004 cyc:  114193509 now IPC :0.72078: AVG IPC :0.87446: L2-Pf-HR :0.92113: L2-HR :0.85346: (Sim:1h26m12s) 
CPU  0 inst:  101000004 cyc:  114194093 now IPC :0.71407: AVG IPC :0.87445: L2-Pf-HR :0.95939: L2-HR :0.91341: (Sim:1h26m12s) 
CPU  0 inst:  102000004 cyc:  115492531 now IPC :0.77016: AVG IPC :0.87327: L2-Pf-HR :0.95920: L2-HR :0.91331: (Sim:1h27m12s) 
CPU  1 inst:  102000004 cyc:  115511374 now IPC :0.75835: AVG IPC :0.87313: L2-Pf-HR :0.93592: L2-HR :0.87730: (Sim:1h27m13s) 
CPU  3 inst:  102000004 cyc:  115513173 now IPC :0.75775: AVG IPC :0.87312: L2-Pf-HR :0.93463: L2-HR :0.86452: (Sim:1h27m13s) 
CPU  2 inst:  102000004 cyc:  115531734 now IPC :0.74726: AVG IPC :0.87298: L2-Pf-HR :0.92076: L2-HR :0.85333: (Sim:1h27m14s) 
CPU  1 inst:  103000004 cyc:  116865839 now IPC :0.73830: AVG IPC :0.87155: L2-Pf-HR :0.93562: L2-HR :0.87724: (Sim:1h28m14s) 
CPU  0 inst:  103000004 cyc:  116882446 now IPC :0.71947: AVG IPC :0.87143: L2-Pf-HR :0.95899: L2-HR :0.91320: (Sim:1h28m15s) 
CPU  3 inst:  103000004 cyc:  116891710 now IPC :0.72541: AVG IPC :0.87136: L2-Pf-HR :0.93437: L2-HR :0.86437: (Sim:1h28m15s) 
CPU  2 inst:  103000004 cyc:  116918219 now IPC :0.72125: AVG IPC :0.87116: L2-Pf-HR :0.92022: L2-HR :0.85303: (Sim:1h28m16s) 
CPU  0 inst:  104000001 cyc:  118242460 now IPC :0.73528: AVG IPC :0.86985: L2-Pf-HR :0.95875: L2-HR :0.91304: (Sim:1h29m17s) 
CPU  1 inst:  104000001 cyc:  118258714 now IPC :0.71794: AVG IPC :0.86973: L2-Pf-HR :0.93523: L2-HR :0.87703: (Sim:1h29m17s) 
CPU  2 inst:  104000000 cyc:  118261505 now IPC :0.74444: AVG IPC :0.86971: L2-Pf-HR :0.91967: L2-HR :0.85271: (Sim:1h29m18s) 
CPU  3 inst:  104000001 cyc:  118290396 now IPC :0.71495: AVG IPC :0.86949: L2-Pf-HR :0.93391: L2-HR :0.86412: (Sim:1h29m19s) 
CPU  2 inst:  105000001 cyc:  119641766 now IPC :0.72450: AVG IPC :0.86802: L2-Pf-HR :0.91926: L2-HR :0.85250: (Sim:1h30m19s) 
CPU  0 inst:  105000001 cyc:  119657256 now IPC :0.70682: AVG IPC :0.86790: L2-Pf-HR :0.95851: L2-HR :0.91286: (Sim:1h30m20s) 
CPU  3 inst:  105000001 cyc:  119661479 now IPC :0.72935: AVG IPC :0.86787: L2-Pf-HR :0.93346: L2-HR :0.86384: (Sim:1h30m20s) 
CPU  1 inst:  105000004 cyc:  119695991 now IPC :0.69576: AVG IPC :0.86762: L2-Pf-HR :0.93486: L2-HR :0.87693: (Sim:1h30m22s) 
CPU  0 inst:  106000002 cyc:  120934770 now IPC :0.78277: AVG IPC :0.86700: L2-Pf-HR :0.95839: L2-HR :0.91280: (Sim:1h31m20s) 
CPU  1 inst:  106000002 cyc:  120975604 now IPC :0.78148: AVG IPC :0.86670: L2-Pf-HR :0.93463: L2-HR :0.87682: (Sim:1h31m22s) 
CPU  2 inst:  106000002 cyc:  120980583 now IPC :0.74693: AVG IPC :0.86667: L2-Pf-HR :0.91899: L2-HR :0.85230: (Sim:1h31m22s) 
CPU  3 inst:  106000002 cyc:  121004921 now IPC :0.74436: AVG IPC :0.86649: L2-Pf-HR :0.93325: L2-HR :0.86367: (Sim:1h31m23s) 
CPU  1 inst:  107000002 cyc:  122281510 now IPC :0.76575: AVG IPC :0.86562: L2-Pf-HR :0.93448: L2-HR :0.87686: (Sim:1h32m20s) 
CPU  0 inst:  107000002 cyc:  122283458 now IPC :0.74146: AVG IPC :0.86560: L2-Pf-HR :0.95838: L2-HR :0.91285: (Sim:1h32m20s) 
CPU  2 inst:  107000002 cyc:  122284399 now IPC :0.76698: AVG IPC :0.86560: L2-Pf-HR :0.91887: L2-HR :0.85232: (Sim:1h32m20s) 
CPU  3 inst:  107000002 cyc:  122284986 now IPC :0.78121: AVG IPC :0.86559: L2-Pf-HR :0.93316: L2-HR :0.86392: (Sim:1h32m20s) 
CPU  1 inst:  108000000 cyc:  123595335 now IPC :0.76113: AVG IPC :0.86450: L2-Pf-HR :0.93407: L2-HR :0.87672: (Sim:1h33m20s) 
CPU  3 inst:  108000000 cyc:  123651318 now IPC :0.73189: AVG IPC :0.86410: L2-Pf-HR :0.93273: L2-HR :0.86389: (Sim:1h33m22s) 
CPU  2 inst:  108000000 cyc:  123669741 now IPC :0.72184: AVG IPC :0.86397: L2-Pf-HR :0.91841: L2-HR :0.85225: (Sim:1h33m23s) 
CPU  0 inst:  108000000 cyc:  123681859 now IPC :0.71510: AVG IPC :0.86389: L2-Pf-HR :0.95809: L2-HR :0.91274: (Sim:1h33m23s) 
CPU  0 inst:  109000005 cyc:  125054996 now IPC :0.72826: AVG IPC :0.86239: L2-Pf-HR :0.95791: L2-HR :0.91263: (Sim:1h34m23s) 
CPU  1 inst:  109000005 cyc:  125080742 now IPC :0.67322: AVG IPC :0.86221: L2-Pf-HR :0.93374: L2-HR :0.87664: (Sim:1h34m25s) 
CPU  2 inst:  109000001 cyc:  125081386 now IPC :0.70839: AVG IPC :0.86220: L2-Pf-HR :0.91799: L2-HR :0.85211: (Sim:1h34m25s) 
CPU  3 inst:  109000004 cyc:  125098512 now IPC :0.69100: AVG IPC :0.86208: L2-Pf-HR :0.93242: L2-HR :0.86373: (Sim:1h34m26s) 
CPU  0 inst:  110000001 cyc:  126468799 now IPC :0.70731: AVG IPC :0.86064: L2-Pf-HR :0.95760: L2-HR :0.91247: (Sim:1h35m26s) 
CPU  2 inst:  110000000 cyc:  126476996 now IPC :0.71653: AVG IPC :0.86058: L2-Pf-HR :0.91754: L2-HR :0.85199: (Sim:1h35m27s) 
CPU  1 inst:  110000005 cyc:  126497340 now IPC :0.70592: AVG IPC :0.86044: L2-Pf-HR :0.93338: L2-HR :0.87648: (Sim:1h35m28s) 
CPU  3 inst:  110000004 cyc:  126508816 now IPC :0.70907: AVG IPC :0.86037: L2-Pf-HR :0.93202: L2-HR :0.86342: (Sim:1h35m28s) 
CPU  2 inst:  111000002 cyc:  127888795 now IPC :0.70832: AVG IPC :0.85889: L2-Pf-HR :0.91706: L2-HR :0.85176: (Sim:1h36m30s) 
CPU  1 inst:  111000003 cyc:  127894465 now IPC :0.71575: AVG IPC :0.85885: L2-Pf-HR :0.93312: L2-HR :0.87640: (Sim:1h36m30s) 
CPU  3 inst:  111000003 cyc:  127901844 now IPC :0.71786: AVG IPC :0.85880: L2-Pf-HR :0.93170: L2-HR :0.86324: (Sim:1h36m31s) 
CPU  0 inst:  111000003 cyc:  127901895 now IPC :0.69779: AVG IPC :0.85880: L2-Pf-HR :0.95732: L2-HR :0.91235: (Sim:1h36m31s) 
CPU  0 inst:  112000005 cyc:  129371296 now IPC :0.68055: AVG IPC :0.85676: L2-Pf-HR :0.95712: L2-HR :0.91224: (Sim:1h37m35s) 
CPU  1 inst:  112000001 cyc:  129379063 now IPC :0.67358: AVG IPC :0.85671: L2-Pf-HR :0.93278: L2-HR :0.87616: (Sim:1h37m35s) 
CPU  3 inst:  112000001 cyc:  129393934 now IPC :0.67020: AVG IPC :0.85661: L2-Pf-HR :0.93129: L2-HR :0.86300: (Sim:1h37m36s) 
CPU  2 inst:  112000001 cyc:  129403536 now IPC :0.66018: AVG IPC :0.85655: L2-Pf-HR :0.91672: L2-HR :0.85157: (Sim:1h37m37s) 
CPU  3 inst:  113000000 cyc:  130887448 now IPC :0.66956: AVG IPC :0.85446: L2-Pf-HR :0.93185: L2-HR :0.86315: (Sim:1h38m38s) 
CPU  1 inst:  113000000 cyc:  130887616 now IPC :0.66289: AVG IPC :0.85446: L2-Pf-HR :0.93329: L2-HR :0.87627: (Sim:1h38m38s) 
CPU  2 inst:  113000002 cyc:  130895560 now IPC :0.67023: AVG IPC :0.85441: L2-Pf-HR :0.91749: L2-HR :0.85189: (Sim:1h38m39s) 
CPU  0 inst:  113000000 cyc:  130896091 now IPC :0.65582: AVG IPC :0.85440: L2-Pf-HR :0.95747: L2-HR :0.91238: (Sim:1h38m39s) 
CPU  0 inst:  114000000 cyc:  132283252 now IPC :0.72090: AVG IPC :0.85299: L2-Pf-HR :0.95729: L2-HR :0.91226: (Sim:1h39m40s) 
CPU  3 inst:  114000000 cyc:  132289166 now IPC :0.71341: AVG IPC :0.85295: L2-Pf-HR :0.93159: L2-HR :0.86308: (Sim:1h39m41s) 
CPU  2 inst:  114000001 cyc:  132298800 now IPC :0.71264: AVG IPC :0.85289: L2-Pf-HR :0.91712: L2-HR :0.85174: (Sim:1h39m41s) 
CPU  1 inst:  114000000 cyc:  132312480 now IPC :0.70182: AVG IPC :0.85280: L2-Pf-HR :0.93305: L2-HR :0.87614: (Sim:1h39m42s) 
CPU  1 inst:  115000003 cyc:  133653812 now IPC :0.74553: AVG IPC :0.85172: L2-Pf-HR :0.93281: L2-HR :0.87610: (Sim:1h40m43s) 
CPU  2 inst:  115000003 cyc:  133658387 now IPC :0.73552: AVG IPC :0.85169: L2-Pf-HR :0.91670: L2-HR :0.85143: (Sim:1h40m43s) 
CPU  0 inst:  115000003 cyc:  133660422 now IPC :0.72613: AVG IPC :0.85167: L2-Pf-HR :0.95708: L2-HR :0.91216: (Sim:1h40m44s) 
CPU  3 inst:  115000003 cyc:  133702464 now IPC :0.70757: AVG IPC :0.85141: L2-Pf-HR :0.93130: L2-HR :0.86291: (Sim:1h40m45s) 
CPU  0 inst:  116000000 cyc:  135095826 now IPC :0.69667: AVG IPC :0.85002: L2-Pf-HR :0.95679: L2-HR :0.91205: (Sim:1h41m47s) 
CPU  1 inst:  116000003 cyc:  135119808 now IPC :0.68213: AVG IPC :0.84986: L2-Pf-HR :0.93233: L2-HR :0.87600: (Sim:1h41m47s) 
CPU  2 inst:  116000000 cyc:  135131602 now IPC :0.67879: AVG IPC :0.84979: L2-Pf-HR :0.91616: L2-HR :0.85128: (Sim:1h41m48s) 
CPU  3 inst:  116000003 cyc:  135145012 now IPC :0.69322: AVG IPC :0.84970: L2-Pf-HR :0.93087: L2-HR :0.86274: (Sim:1h41m48s) 
CPU  3 inst:  117000000 cyc:  136516833 now IPC :0.72896: AVG IPC :0.84848: L2-Pf-HR :0.93054: L2-HR :0.86249: (Sim:1h42m49s) 
CPU  2 inst:  117000000 cyc:  136536564 now IPC :0.71176: AVG IPC :0.84836: L2-Pf-HR :0.91584: L2-HR :0.85111: (Sim:1h42m50s) 
CPU  0 inst:  117000000 cyc:  136543458 now IPC :0.69078: AVG IPC :0.84831: L2-Pf-HR :0.95655: L2-HR :0.91192: (Sim:1h42m50s) 
CPU  1 inst:  117000003 cyc:  136573718 now IPC :0.68780: AVG IPC :0.84813: L2-Pf-HR :0.93207: L2-HR :0.87590: (Sim:1h42m51s) 
CPU  0 inst:  118000004 cyc:  137880424 now IPC :0.74797: AVG IPC :0.84733: L2-Pf-HR :0.95632: L2-HR :0.91184: (Sim:1h43m49s) 
CPU  2 inst:  118000005 cyc:  137947435 now IPC :0.70879: AVG IPC :0.84692: L2-Pf-HR :0.91540: L2-HR :0.85093: (Sim:1h43m52s) 
CPU  3 inst:  118000005 cyc:  137961937 now IPC :0.69200: AVG IPC :0.84683: L2-Pf-HR :0.93017: L2-HR :0.86235: (Sim:1h43m53s) 
CPU  1 inst:  118000005 cyc:  138031585 now IPC :0.68594: AVG IPC :0.84640: L2-Pf-HR :0.93173: L2-HR :0.87577: (Sim:1h43m56s) 
CPU  1 inst:  119000000 cyc:  139217564 now IPC :0.84318: AVG IPC :0.84637: L2-Pf-HR :0.93186: L2-HR :0.87584: (Sim:1h44m49s) 
CPU  0 inst:  119000004 cyc:  139222282 now IPC :0.74524: AVG IPC :0.84634: L2-Pf-HR :0.95641: L2-HR :0.91197: (Sim:1h44m50s) 
CPU  3 inst:  119000000 cyc:  139232908 now IPC :0.78680: AVG IPC :0.84628: L2-Pf-HR :0.93041: L2-HR :0.86266: (Sim:1h44m50s) 
CPU  2 inst:  119000000 cyc:  139234906 now IPC :0.77671: AVG IPC :0.84627: L2-Pf-HR :0.91551: L2-HR :0.85107: (Sim:1h44m50s) 
CPU  0 inst:  120000004 cyc:  140575318 now IPC :0.73908: AVG IPC :0.84530: L2-Pf-HR :0.95629: L2-HR :0.91190: (Sim:1h45m51s) 
CPU  1 inst:  120000004 cyc:  140598683 now IPC :0.72405: AVG IPC :0.84516: L2-Pf-HR :0.93159: L2-HR :0.87564: (Sim:1h45m52s) 
CPU  2 inst:  120000004 cyc:  140603006 now IPC :0.73094: AVG IPC :0.84514: L2-Pf-HR :0.91526: L2-HR :0.85098: (Sim:1h45m52s) 
CPU  3 inst:  120000004 cyc:  140624430 now IPC :0.71864: AVG IPC :0.84501: L2-Pf-HR :0.93018: L2-HR :0.86254: (Sim:1h45m53s) 
CPU  0 inst:  121000001 cyc:  142057035 now IPC :0.67489: AVG IPC :0.84351: L2-Pf-HR :0.95619: L2-HR :0.91179: (Sim:1h46m55s) 
CPU  1 inst:  121000001 cyc:  142091239 now IPC :0.66999: AVG IPC :0.84331: L2-Pf-HR :0.93144: L2-HR :0.87553: (Sim:1h46m56s) 
CPU  2 inst:  121000003 cyc:  142092296 now IPC :0.67146: AVG IPC :0.84331: L2-Pf-HR :0.91507: L2-HR :0.85085: (Sim:1h46m56s) 
CPU  3 inst:  121000004 cyc:  142100554 now IPC :0.67745: AVG IPC :0.84325: L2-Pf-HR :0.93001: L2-HR :0.86236: (Sim:1h46m57s) 
CPU  0 inst:  122000000 cyc:  143475482 now IPC :0.70500: AVG IPC :0.84214: L2-Pf-HR :0.95608: L2-HR :0.91167: (Sim:1h47m57s) 
CPU  2 inst:  122000000 cyc:  143504420 now IPC :0.70815: AVG IPC :0.84197: L2-Pf-HR :0.91490: L2-HR :0.85073: (Sim:1h47m58s) 
CPU  1 inst:  122000003 cyc:  143505850 now IPC :0.70691: AVG IPC :0.84196: L2-Pf-HR :0.93123: L2-HR :0.87534: (Sim:1h47m58s) 
CPU  3 inst:  122000000 cyc:  143524912 now IPC :0.70207: AVG IPC :0.84184: L2-Pf-HR :0.92972: L2-HR :0.86205: (Sim:1h47m59s) 
CPU  2 inst:  123000004 cyc:  144907020 now IPC :0.71296: AVG IPC :0.84071: L2-Pf-HR :0.91475: L2-HR :0.85055: (Sim:1h49m0s) 
CPU  1 inst:  123000004 cyc:  144936062 now IPC :0.69920: AVG IPC :0.84054: L2-Pf-HR :0.93116: L2-HR :0.87530: (Sim:1h49m1s) 
CPU  3 inst:  123000000 cyc:  144946417 now IPC :0.70348: AVG IPC :0.84048: L2-Pf-HR :0.92963: L2-HR :0.86193: (Sim:1h49m2s) 
CPU  0 inst:  123000004 cyc:  144949557 now IPC :0.67839: AVG IPC :0.84046: L2-Pf-HR :0.95603: L2-HR :0.91160: (Sim:1h49m2s) 
CPU  3 inst:  124000002 cyc:  146307192 now IPC :0.73488: AVG IPC :0.83949: L2-Pf-HR :0.92943: L2-HR :0.86177: (Sim:1h50m1s) 
CPU  0 inst:  124000002 cyc:  146325422 now IPC :0.72681: AVG IPC :0.83938: L2-Pf-HR :0.95589: L2-HR :0.91154: (Sim:1h50m2s) 
CPU  1 inst:  124000002 cyc:  146376220 now IPC :0.69437: AVG IPC :0.83909: L2-Pf-HR :0.93093: L2-HR :0.87514: (Sim:1h50m4s) 
CPU  2 inst:  124000003 cyc:  146386506 now IPC :0.67591: AVG IPC :0.83903: L2-Pf-HR :0.91457: L2-HR :0.85044: (Sim:1h50m5s) 
CPU  0 inst:  125000005 cyc:  147635700 now IPC :0.76320: AVG IPC :0.83870: L2-Pf-HR :0.95584: L2-HR :0.91138: (Sim:1h51m0s) 
CPU  3 inst:  125000005 cyc:  147675266 now IPC :0.73096: AVG IPC :0.83848: L2-Pf-HR :0.92929: L2-HR :0.86157: (Sim:1h51m2s) 
CPU  2 inst:  125000005 cyc:  147682633 now IPC :0.77153: AVG IPC :0.83844: L2-Pf-HR :0.91441: L2-HR :0.85024: (Sim:1h51m2s) 
CPU  1 inst:  125000005 cyc:  147776184 now IPC :0.71431: AVG IPC :0.83790: L2-Pf-HR :0.93103: L2-HR :0.87513: (Sim:1h51m7s) 
CPU  3 inst:  126000001 cyc:  148982520 now IPC :0.76496: AVG IPC :0.83783: L2-Pf-HR :0.92862: L2-HR :0.86111: (Sim:1h52m0s) 
CPU  0 inst:  126000001 cyc:  149008747 now IPC :0.72830: AVG IPC :0.83768: L2-Pf-HR :0.95542: L2-HR :0.91100: (Sim:1h52m2s) 
CPU  2 inst:  126000001 cyc:  149012514 now IPC :0.75194: AVG IPC :0.83766: L2-Pf-HR :0.91367: L2-HR :0.84978: (Sim:1h52m2s) 
CPU  1 inst:  126000001 cyc:  149013776 now IPC :0.80802: AVG IPC :0.83765: L2-Pf-HR :0.93039: L2-HR :0.87478: (Sim:1h52m2s) 
CPU  0 inst:  127000001 cyc:  150280255 now IPC :0.78647: AVG IPC :0.83724: L2-Pf-HR :0.95508: L2-HR :0.91079: (Sim:1h52m58s) 
CPU  2 inst:  127000002 cyc:  150303577 now IPC :0.77456: AVG IPC :0.83711: L2-Pf-HR :0.91301: L2-HR :0.84944: (Sim:1h52m59s) 
CPU  3 inst:  127000002 cyc:  150311610 now IPC :0.75240: AVG IPC :0.83707: L2-Pf-HR :0.92808: L2-HR :0.86076: (Sim:1h53m0s) 
CPU  1 inst:  127000002 cyc:  150341073 now IPC :0.75341: AVG IPC :0.83690: L2-Pf-HR :0.92986: L2-HR :0.87450: (Sim:1h53m1s) 
CPU  3 inst:  128000004 cyc:  151656277 now IPC :0.74368: AVG IPC :0.83623: L2-Pf-HR :0.92763: L2-HR :0.86039: (Sim:1h54m0s) 
CPU  2 inst:  128000004 cyc:  151668074 now IPC :0.73287: AVG IPC :0.83617: L2-Pf-HR :0.91246: L2-HR :0.84910: (Sim:1h54m1s) 
CPU  1 inst:  128000004 cyc:  151680205 now IPC :0.74675: AVG IPC :0.83610: L2-Pf-HR :0.92934: L2-HR :0.87415: (Sim:1h54m1s) 
CPU  0 inst:  128000004 cyc:  151687503 now IPC :0.71061: AVG IPC :0.83606: L2-Pf-HR :0.95481: L2-HR :0.91060: (Sim:1h54m2s) 
CPU  1 inst:  129000001 cyc:  153296132 now IPC :0.61884: AVG IPC :0.83380: L2-Pf-HR :0.92950: L2-HR :0.87393: (Sim:1h55m7s) 
CPU  0 inst:  129000001 cyc:  153299836 now IPC :0.62022: AVG IPC :0.83377: L2-Pf-HR :0.95490: L2-HR :0.91044: (Sim:1h55m8s) 
CPU  2 inst:  129000001 cyc:  153300782 now IPC :0.61248: AVG IPC :0.83377: L2-Pf-HR :0.91286: L2-HR :0.84909: (Sim:1h55m8s) 
CPU  3 inst:  129000001 cyc:  153304651 now IPC :0.60666: AVG IPC :0.83375: L2-Pf-HR :0.92777: L2-HR :0.86017: (Sim:1h55m8s) 
CPU  1 inst:  130000004 cyc:  154673859 now IPC :0.72584: AVG IPC :0.83283: L2-Pf-HR :0.92970: L2-HR :0.87390: (Sim:1h56m9s) 
CPU  2 inst:  130000004 cyc:  154683559 now IPC :0.72318: AVG IPC :0.83278: L2-Pf-HR :0.91315: L2-HR :0.84909: (Sim:1h56m10s) 
CPU  0 inst:  130000004 cyc:  154695327 now IPC :0.71660: AVG IPC :0.83271: L2-Pf-HR :0.95505: L2-HR :0.91042: (Sim:1h56m10s) 
CPU  3 inst:  130000004 cyc:  154715254 now IPC :0.70892: AVG IPC :0.83260: L2-Pf-HR :0.92811: L2-HR :0.86028: (Sim:1h56m11s) 
CPU  1 inst:  131000003 cyc:  155928446 now IPC :0.79707: AVG IPC :0.83254: L2-Pf-HR :0.92986: L2-HR :0.87385: (Sim:1h57m9s) 
CPU  0 inst:  131000000 cyc:  155952015 now IPC :0.79574: AVG IPC :0.83241: L2-Pf-HR :0.95513: L2-HR :0.91037: (Sim:1h57m10s) 
CPU  2 inst:  131000003 cyc:  156092357 now IPC :0.70982: AVG IPC :0.83166: L2-Pf-HR :0.91318: L2-HR :0.84891: (Sim:1h57m13s) 
CPU  3 inst:  131000003 cyc:  156116999 now IPC :0.71340: AVG IPC :0.83153: L2-Pf-HR :0.92820: L2-HR :0.86018: (Sim:1h57m13s) 
CPU  0 inst:  132000001 cyc:  157479842 now IPC :0.65453: AVG IPC :0.83067: L2-Pf-HR :0.95512: L2-HR :0.91023: (Sim:1h57m51s) 
CPU  1 inst:  132000001 cyc:  157482840 now IPC :0.64334: AVG IPC :0.83066: L2-Pf-HR :0.92984: L2-HR :0.87367: (Sim:1h57m51s) 
CPU  3 inst:  132000003 cyc:  157500251 now IPC :0.72293: AVG IPC :0.83057: L2-Pf-HR :0.92812: L2-HR :0.85998: (Sim:1h57m52s) 
CPU  2 inst:  132000004 cyc:  157528861 now IPC :0.69614: AVG IPC :0.83042: L2-Pf-HR :0.91310: L2-HR :0.84873: (Sim:1h57m53s) 
CPU  0 inst:  133000000 cyc:  158916239 now IPC :0.69619: AVG IPC :0.82945: L2-Pf-HR :0.95519: L2-HR :0.91013: (Sim:1h58m30s) 
CPU  2 inst:  133000000 cyc:  158965746 now IPC :0.69595: AVG IPC :0.82919: L2-Pf-HR :0.91327: L2-HR :0.84875: (Sim:1h58m32s) 
CPU  1 inst:  133000000 cyc:  158972687 now IPC :0.67121: AVG IPC :0.82916: L2-Pf-HR :0.92992: L2-HR :0.87357: (Sim:1h58m32s) 
CPU  3 inst:  133000000 cyc:  158987281 now IPC :0.67248: AVG IPC :0.82908: L2-Pf-HR :0.92808: L2-HR :0.85974: (Sim:1h58m32s) 
CPU  0 inst:  134000003 cyc:  160404611 now IPC :0.67188: AVG IPC :0.82798: L2-Pf-HR :0.95523: L2-HR :0.91003: (Sim:1h59m11s) 
CPU  1 inst:  134000003 cyc:  160419046 now IPC :0.69139: AVG IPC :0.82791: L2-Pf-HR :0.92997: L2-HR :0.87348: (Sim:1h59m11s) 
CPU  2 inst:  134000003 cyc:  160465401 now IPC :0.66682: AVG IPC :0.82767: L2-Pf-HR :0.91337: L2-HR :0.84864: (Sim:1h59m12s) 
CPU  3 inst:  134000003 cyc:  160476574 now IPC :0.67146: AVG IPC :0.82761: L2-Pf-HR :0.92807: L2-HR :0.85957: (Sim:1h59m13s) 
CPU  0 inst:  135000001 cyc:  161747707 now IPC :0.74455: AVG IPC :0.82728: L2-Pf-HR :0.95531: L2-HR :0.91004: (Sim:1h59m47s) 
CPU  1 inst:  135000001 cyc:  161755887 now IPC :0.74803: AVG IPC :0.82724: L2-Pf-HR :0.93011: L2-HR :0.87353: (Sim:1h59m47s) 
CPU  2 inst:  135000001 cyc:  161772980 now IPC :0.76477: AVG IPC :0.82716: L2-Pf-HR :0.91370: L2-HR :0.84886: (Sim:1h59m47s) 
CPU  3 inst:  135000001 cyc:  161778706 now IPC :0.76797: AVG IPC :0.82712: L2-Pf-HR :0.92841: L2-HR :0.85981: (Sim:1h59m47s) 
CPU  1 inst:  136000005 cyc:  163241147 now IPC :0.67329: AVG IPC :0.82583: L2-Pf-HR :0.93029: L2-HR :0.87355: (Sim:2h0m26s) 
CPU  0 inst:  136000002 cyc:  163241225 now IPC :0.66956: AVG IPC :0.82583: L2-Pf-HR :0.95541: L2-HR :0.91000: (Sim:2h0m26s) 
CPU  2 inst:  136000005 cyc:  163257748 now IPC :0.67351: AVG IPC :0.82575: L2-Pf-HR :0.91393: L2-HR :0.84896: (Sim:2h0m26s) 
CPU  3 inst:  136000005 cyc:  163259274 now IPC :0.67542: AVG IPC :0.82574: L2-Pf-HR :0.92863: L2-HR :0.85985: (Sim:2h0m26s) 
CPU  3 inst:  137000000 cyc:  164727950 now IPC :0.68088: AVG IPC :0.82444: L2-Pf-HR :0.92909: L2-HR :0.86007: (Sim:2h1m3s) 
CPU  2 inst:  137000000 cyc:  164755665 now IPC :0.66759: AVG IPC :0.82430: L2-Pf-HR :0.91459: L2-HR :0.84922: (Sim:2h1m4s) 
CPU  0 inst:  137000003 cyc:  164805757 now IPC :0.63917: AVG IPC :0.82405: L2-Pf-HR :0.95570: L2-HR :0.91011: (Sim:2h1m5s) 
CPU  1 inst:  137000003 cyc:  164807418 now IPC :0.63846: AVG IPC :0.82404: L2-Pf-HR :0.93080: L2-HR :0.87372: (Sim:2h1m5s) 
CPU  1 inst:  138000002 cyc:  165996728 now IPC :0.84082: AVG IPC :0.82416: L2-Pf-HR :0.93114: L2-HR :0.87387: (Sim:2h1m39s) 
CPU  0 inst:  138000001 cyc:  166012466 now IPC :0.82870: AVG IPC :0.82408: L2-Pf-HR :0.95586: L2-HR :0.91017: (Sim:2h1m39s) 
CPU  3 inst:  138000002 cyc:  166032691 now IPC :0.76644: AVG IPC :0.82398: L2-Pf-HR :0.92943: L2-HR :0.86026: (Sim:2h1m40s) 
CPU  2 inst:  138000001 cyc:  166035661 now IPC :0.78125: AVG IPC :0.82397: L2-Pf-HR :0.91504: L2-HR :0.84944: (Sim:2h1m40s) 
CPU  1 inst:  139000004 cyc:  167582441 now IPC :0.63063: AVG IPC :0.82232: L2-Pf-HR :0.93107: L2-HR :0.87378: (Sim:2h2m20s) 
CPU  0 inst:  139000004 cyc:  167594364 now IPC :0.63215: AVG IPC :0.82226: L2-Pf-HR :0.95579: L2-HR :0.91006: (Sim:2h2m20s) 
CPU  3 inst:  139000001 cyc:  167613027 now IPC :0.63278: AVG IPC :0.82217: L2-Pf-HR :0.92928: L2-HR :0.86008: (Sim:2h2m20s) 
CPU  2 inst:  139000005 cyc:  167654894 now IPC :0.61758: AVG IPC :0.82196: L2-Pf-HR :0.91495: L2-HR :0.84933: (Sim:2h2m21s) 
CPU  0 inst:  140000000 cyc:  169142487 now IPC :0.64594: AVG IPC :0.82064: L2-Pf-HR :0.95609: L2-HR :0.91015: (Sim:2h2m59s) 
CPU  2 inst:  140000000 cyc:  169143492 now IPC :0.67177: AVG IPC :0.82063: L2-Pf-HR :0.91545: L2-HR :0.84937: (Sim:2h2m59s) 
CPU  3 inst:  140000000 cyc:  169158931 now IPC :0.64687: AVG IPC :0.82056: L2-Pf-HR :0.92968: L2-HR :0.86014: (Sim:2h3m0s) 
CPU  1 inst:  140000003 cyc:  169332079 now IPC :0.57155: AVG IPC :0.81971: L2-Pf-HR :0.93150: L2-HR :0.87389: (Sim:2h3m5s) 
CPU  0 inst:  141000004 cyc:  170746141 now IPC :0.62358: AVG IPC :0.81878: L2-Pf-HR :0.95631: L2-HR :0.91014: (Sim:2h3m39s) 
CPU  2 inst:  141000004 cyc:  170763471 now IPC :0.61729: AVG IPC :0.81869: L2-Pf-HR :0.91603: L2-HR :0.84957: (Sim:2h3m40s) 
CPU  3 inst:  141000004 cyc:  170790654 now IPC :0.61285: AVG IPC :0.81856: L2-Pf-HR :0.93017: L2-HR :0.86024: (Sim:2h3m41s) 
CPU  1 inst:  141000004 cyc:  170798061 now IPC :0.68214: AVG IPC :0.81853: L2-Pf-HR :0.93189: L2-HR :0.87390: (Sim:2h3m41s) 
CPU  0 inst:  142000004 cyc:  171876703 now IPC :0.88452: AVG IPC :0.81921: L2-Pf-HR :0.95669: L2-HR :0.91032: (Sim:2h4m15s) 
CPU  1 inst:  142000004 cyc:  171885220 now IPC :0.91983: AVG IPC :0.81917: L2-Pf-HR :0.93248: L2-HR :0.87414: (Sim:2h4m15s) 
CPU  2 inst:  142000004 cyc:  171886326 now IPC :0.89059: AVG IPC :0.81917: L2-Pf-HR :0.91677: L2-HR :0.84985: (Sim:2h4m15s) 
CPU  3 inst:  142000004 cyc:  171917759 now IPC :0.88723: AVG IPC :0.81902: L2-Pf-HR :0.93087: L2-HR :0.86061: (Sim:2h4m15s) 
CPU  2 inst:  143000004 cyc:  173095320 now IPC :0.82713: AVG IPC :0.81922: L2-Pf-HR :0.91715: L2-HR :0.84979: (Sim:2h4m56s) 
CPU  0 inst:  143000003 cyc:  173119193 now IPC :0.80483: AVG IPC :0.81911: L2-Pf-HR :0.95703: L2-HR :0.91049: (Sim:2h4m57s) 
CPU  3 inst:  143000004 cyc:  173129161 now IPC :0.82549: AVG IPC :0.81906: L2-Pf-HR :0.93143: L2-HR :0.86086: (Sim:2h4m58s) 
CPU  1 inst:  143000004 cyc:  173141141 now IPC :0.79623: AVG IPC :0.81900: L2-Pf-HR :0.93301: L2-HR :0.87432: (Sim:2h4m59s) 
CPU  2 inst:  144000001 cyc:  174369953 now IPC :0.78454: AVG IPC :0.81897: L2-Pf-HR :0.91792: L2-HR :0.84999: (Sim:2h5m57s) 
CPU  3 inst:  144000001 cyc:  174371452 now IPC :0.80496: AVG IPC :0.81896: L2-Pf-HR :0.93210: L2-HR :0.86112: (Sim:2h5m57s) 
CPU  0 inst:  144000001 cyc:  174380075 now IPC :0.79309: AVG IPC :0.81892: L2-Pf-HR :0.95745: L2-HR :0.91068: (Sim:2h5m58s) 
CPU  1 inst:  144000001 cyc:  174380734 now IPC :0.80671: AVG IPC :0.81892: L2-Pf-HR :0.93360: L2-HR :0.87450: (Sim:2h5m58s) 
CPU  1 inst:  145000004 cyc:  175499480 now IPC :0.89386: AVG IPC :0.81940: L2-Pf-HR :0.93439: L2-HR :0.87492: (Sim:2h6m54s) 
CPU  2 inst:  145000004 cyc:  175510028 now IPC :0.87714: AVG IPC :0.81935: L2-Pf-HR :0.91873: L2-HR :0.85026: (Sim:2h6m54s) 
CPU  0 inst:  145000001 cyc:  175529338 now IPC :0.87012: AVG IPC :0.81926: L2-Pf-HR :0.95791: L2-HR :0.91092: (Sim:2h6m55s) 
CPU  3 inst:  145000004 cyc:  175530415 now IPC :0.86284: AVG IPC :0.81925: L2-Pf-HR :0.93273: L2-HR :0.86134: (Sim:2h6m55s) 
CPU  3 inst:  146000001 cyc:  176643659 now IPC :0.89827: AVG IPC :0.81975: L2-Pf-HR :0.93352: L2-HR :0.86168: (Sim:2h7m49s) 
CPU  1 inst:  146000004 cyc:  176663484 now IPC :0.85910: AVG IPC :0.81966: L2-Pf-HR :0.93515: L2-HR :0.87525: (Sim:2h7m50s) 
CPU  0 inst:  146000001 cyc:  176677656 now IPC :0.87084: AVG IPC :0.81959: L2-Pf-HR :0.95840: L2-HR :0.91118: (Sim:2h7m51s) 
CPU  2 inst:  146000001 cyc:  176695177 now IPC :0.84377: AVG IPC :0.81951: L2-Pf-HR :0.91961: L2-HR :0.85056: (Sim:2h7m52s) 
CPU  0 inst:  147000002 cyc:  177800184 now IPC :0.89085: AVG IPC :0.82004: L2-Pf-HR :0.95862: L2-HR :0.91138: (Sim:2h8m44s) 
CPU  1 inst:  147000002 cyc:  177802852 now IPC :0.87768: AVG IPC :0.82003: L2-Pf-HR :0.93548: L2-HR :0.87550: (Sim:2h8m44s) 
CPU  3 inst:  147000002 cyc:  177803570 now IPC :0.86214: AVG IPC :0.82003: L2-Pf-HR :0.93406: L2-HR :0.86214: (Sim:2h8m44s) 
CPU  2 inst:  147000002 cyc:  177803721 now IPC :0.90209: AVG IPC :0.82003: L2-Pf-HR :0.92002: L2-HR :0.85084: (Sim:2h8m44s) 
CPU  2 inst:  148000002 cyc:  179157176 now IPC :0.73885: AVG IPC :0.81941: L2-Pf-HR :0.91972: L2-HR :0.85084: (Sim:2h9m47s) 
CPU  3 inst:  148000000 cyc:  179160165 now IPC :0.73714: AVG IPC :0.81940: L2-Pf-HR :0.93378: L2-HR :0.86205: (Sim:2h9m47s) 
CPU  1 inst:  148000000 cyc:  179168933 now IPC :0.73202: AVG IPC :0.81936: L2-Pf-HR :0.93516: L2-HR :0.87538: (Sim:2h9m48s) 
CPU  0 inst:  148000000 cyc:  179181490 now IPC :0.72395: AVG IPC :0.81930: L2-Pf-HR :0.95842: L2-HR :0.91133: (Sim:2h9m48s) 
CPU  0 inst:  149000001 cyc:  180604006 now IPC :0.70298: AVG IPC :0.81838: L2-Pf-HR :0.95826: L2-HR :0.91128: (Sim:2h10m50s) 
CPU  2 inst:  149000003 cyc:  180616834 now IPC :0.68509: AVG IPC :0.81832: L2-Pf-HR :0.91943: L2-HR :0.85076: (Sim:2h10m51s) 
CPU  3 inst:  149000004 cyc:  180655343 now IPC :0.66882: AVG IPC :0.81815: L2-Pf-HR :0.93355: L2-HR :0.86187: (Sim:2h10m53s) 
CPU  1 inst:  149000003 cyc:  180662944 now IPC :0.66934: AVG IPC :0.81811: L2-Pf-HR :0.93495: L2-HR :0.87530: (Sim:2h10m53s) 
CPU  1 inst:  150000005 cyc:  182091720 now IPC :0.69990: AVG IPC :0.81718: L2-Pf-HR :0.93471: L2-HR :0.87518: (Sim:2h11m56s) 
CPU  0 inst:  150000001 cyc:  182097284 now IPC :0.66967: AVG IPC :0.81715: L2-Pf-HR :0.95813: L2-HR :0.91120: (Sim:2h11m56s) 
CPU  2 inst:  150000004 cyc:  182106172 now IPC :0.67144: AVG IPC :0.81711: L2-Pf-HR :0.91922: L2-HR :0.85069: (Sim:2h11m57s) 
CPU  3 inst:  150000002 cyc:  182106853 now IPC :0.68894: AVG IPC :0.81711: L2-Pf-HR :0.93331: L2-HR :0.86168: (Sim:2h11m57s) 
CPU  0 inst:  151000005 cyc:  183552137 now IPC :0.68736: AVG IPC :0.81612: L2-Pf-HR :0.95796: L2-HR :0.91111: (Sim:2h13m0s) 
CPU  3 inst:  151000002 cyc:  183578721 now IPC :0.67941: AVG IPC :0.81600: L2-Pf-HR :0.93300: L2-HR :0.86149: (Sim:2h13m2s) 
CPU  2 inst:  151000002 cyc:  183605284 now IPC :0.66706: AVG IPC :0.81588: L2-Pf-HR :0.91888: L2-HR :0.85056: (Sim:2h13m3s) 
CPU  1 inst:  151000005 cyc:  183616370 now IPC :0.65589: AVG IPC :0.81583: L2-Pf-HR :0.93445: L2-HR :0.87510: (Sim:2h13m3s) 
CPU  2 inst:  152000002 cyc:  184995889 now IPC :0.71911: AVG IPC :0.81515: L2-Pf-HR :0.91886: L2-HR :0.85075: (Sim:2h14m0s) 
CPU  3 inst:  152000002 cyc:  185028284 now IPC :0.68986: AVG IPC :0.81501: L2-Pf-HR :0.93293: L2-HR :0.86153: (Sim:2h14m2s) 
CPU  1 inst:  152000005 cyc:  185056092 now IPC :0.69458: AVG IPC :0.81488: L2-Pf-HR :0.93437: L2-HR :0.87513: (Sim:2h14m3s) 
CPU  0 inst:  152000005 cyc:  185061291 now IPC :0.66262: AVG IPC :0.81486: L2-Pf-HR :0.95797: L2-HR :0.91120: (Sim:2h14m3s) 
CPU  0 inst:  153000000 cyc:  186596843 now IPC :0.65123: AVG IPC :0.81351: L2-Pf-HR :0.95810: L2-HR :0.91127: (Sim:2h15m6s) 
CPU  3 inst:  153000001 cyc:  186614904 now IPC :0.63027: AVG IPC :0.81343: L2-Pf-HR :0.93313: L2-HR :0.86162: (Sim:2h15m7s) 
CPU  2 inst:  153000000 cyc:  186616864 now IPC :0.61691: AVG IPC :0.81342: L2-Pf-HR :0.91915: L2-HR :0.85086: (Sim:2h15m7s) 
CPU  1 inst:  153000001 cyc:  186652672 now IPC :0.62634: AVG IPC :0.81326: L2-Pf-HR :0.93452: L2-HR :0.87514: (Sim:2h15m10s) 
CPU  0 inst:  154000000 cyc:  187837791 now IPC :0.80584: AVG IPC :0.81346: L2-Pf-HR :0.95802: L2-HR :0.91130: (Sim:2h16m6s) 
CPU  2 inst:  154000005 cyc:  187847109 now IPC :0.81285: AVG IPC :0.81342: L2-Pf-HR :0.91895: L2-HR :0.85082: (Sim:2h16m7s) 
CPU  1 inst:  154000002 cyc:  187865309 now IPC :0.82465: AVG IPC :0.81334: L2-Pf-HR :0.93441: L2-HR :0.87514: (Sim:2h16m8s) 
CPU  3 inst:  154000005 cyc:  187891914 now IPC :0.78308: AVG IPC :0.81322: L2-Pf-HR :0.93309: L2-HR :0.86171: (Sim:2h16m9s) 
CPU  0 inst:  155000000 cyc:  189166037 now IPC :0.75287: AVG IPC :0.81303: L2-Pf-HR :0.95785: L2-HR :0.91124: (Sim:2h17m8s) 
CPU  1 inst:  155000000 cyc:  189196165 now IPC :0.75139: AVG IPC :0.81290: L2-Pf-HR :0.93421: L2-HR :0.87509: (Sim:2h17m9s) 
CPU  3 inst:  155000000 cyc:  189205464 now IPC :0.76129: AVG IPC :0.81286: L2-Pf-HR :0.93292: L2-HR :0.86167: (Sim:2h17m10s) 
CPU  2 inst:  155000000 cyc:  189219809 now IPC :0.72849: AVG IPC :0.81280: L2-Pf-HR :0.91860: L2-HR :0.85061: (Sim:2h17m11s) 
[...]
CPU  2 inst:  995000004 cyc: 1351886508 now IPC :0.75163: AVG IPC :0.73506: L2-Pf-HR :0.90521: L2-HR :0.84283: (Sim:15h22m20s) 
CPU  1 inst:  995000005 cyc: 1351895626 now IPC :0.71961: AVG IPC :0.73506: L2-Pf-HR :0.92371: L2-HR :0.86853: (Sim:15h22m20s) 
CPU  3 inst:  995000005 cyc: 1351922422 now IPC :0.72785: AVG IPC :0.73504: L2-Pf-HR :0.92250: L2-HR :0.85368: (Sim:15h22m21s) 
CPU  0 inst:  996000004 cyc: 1353288169 now IPC :0.71199: AVG IPC :0.73504: L2-Pf-HR :0.95062: L2-HR :0.90577: (Sim:15h23m24s) 
CPU  1 inst:  996000000 cyc: 1353290627 now IPC :0.71684: AVG IPC :0.73504: L2-Pf-HR :0.92367: L2-HR :0.86851: (Sim:15h23m25s) 
CPU  3 inst:  996000000 cyc: 1353291767 now IPC :0.73027: AVG IPC :0.73504: L2-Pf-HR :0.92247: L2-HR :0.85365: (Sim:15h23m25s) 
CPU  2 inst:  996000004 cyc: 1353323461 now IPC :0.69592: AVG IPC :0.73502: L2-Pf-HR :0.90517: L2-HR :0.84283: (Sim:15h23m26s) 
CPU  0 inst:  997000002 cyc: 1354655425 now IPC :0.73139: AVG IPC :0.73504: L2-Pf-HR :0.95061: L2-HR :0.90577: (Sim:15h24m29s) 
CPU  3 inst:  997000002 cyc: 1354694722 now IPC :0.71278: AVG IPC :0.73501: L2-Pf-HR :0.92244: L2-HR :0.85365: (Sim:15h24m30s) 
CPU  2 inst:  997000002 cyc: 1354708942 now IPC :0.72177: AVG IPC :0.73501: L2-Pf-HR :0.90514: L2-HR :0.84282: (Sim:15h24m31s) 
CPU  1 inst:  997000002 cyc: 1354712742 now IPC :0.70318: AVG IPC :0.73501: L2-Pf-HR :0.92365: L2-HR :0.86852: (Sim:15h24m31s) 
CPU  3 inst:  998000000 cyc: 1356078207 now IPC :0.72281: AVG IPC :0.73500: L2-Pf-HR :0.92245: L2-HR :0.85367: (Sim:15h25m34s) 
CPU  0 inst:  998000000 cyc: 1356078572 now IPC :0.70267: AVG IPC :0.73500: L2-Pf-HR :0.95061: L2-HR :0.90578: (Sim:15h25m34s) 
CPU  1 inst:  998000000 cyc: 1356086342 now IPC :0.72801: AVG IPC :0.73500: L2-Pf-HR :0.92364: L2-HR :0.86852: (Sim:15h25m34s) 
CPU  2 inst:  998000000 cyc: 1356086396 now IPC :0.72598: AVG IPC :0.73500: L2-Pf-HR :0.90513: L2-HR :0.84282: (Sim:15h25m34s) 
CPU  0 inst:  999000005 cyc: 1357455861 now IPC :0.72607: AVG IPC :0.73499: L2-Pf-HR :0.95062: L2-HR :0.90577: (Sim:15h26m36s) 
CPU  2 inst:  999000005 cyc: 1357463041 now IPC :0.72641: AVG IPC :0.73499: L2-Pf-HR :0.90520: L2-HR :0.84285: (Sim:15h26m36s) 
CPU  1 inst:  999000005 cyc: 1357484673 now IPC :0.71514: AVG IPC :0.73498: L2-Pf-HR :0.92367: L2-HR :0.86851: (Sim:15h26m37s) 
CPU  3 inst:  999000005 cyc: 1357488351 now IPC :0.70915: AVG IPC :0.73498: L2-Pf-HR :0.92248: L2-HR :0.85367: (Sim:15h26m37s) 
CPU  0 inst: 1000000002 cyc: 1358731475 now IPC :0.78393: AVG IPC :0.73504: L2-Pf-HR :0.95060: L2-HR :0.90577: (Sim:15h27m12s) 
CPU  1 inst: 1000000004 cyc: 1358736204 now IPC :0.79902: AVG IPC :0.73504: L2-Pf-HR :0.92364: L2-HR :0.86851: (Sim:15h27m12s) 
CPU  2 inst: 1000000004 cyc: 1358763040 now IPC :0.76923: AVG IPC :0.73502: L2-Pf-HR :0.90516: L2-HR :0.84283: (Sim:15h27m13s) 
CPU  3 inst: 1000000003 cyc: 1358796661 now IPC :0.76434: AVG IPC :0.73500: L2-Pf-HR :0.92247: L2-HR :0.85368: (Sim:15h27m15s) 
CPU  2 inst: 1001000001 cyc: 1360084112 now IPC :0.75696: AVG IPC :0.73504: L2-Pf-HR :0.90512: L2-HR :0.84280: (Sim:15h27m51s) 
CPU  0 inst: 1001000000 cyc: 1360101603 now IPC :0.72986: AVG IPC :0.73503: L2-Pf-HR :0.95059: L2-HR :0.90577: (Sim:15h27m51s) 
CPU  3 inst: 1001000001 cyc: 1360103672 now IPC :0.76510: AVG IPC :0.73503: L2-Pf-HR :0.92246: L2-HR :0.85367: (Sim:15h27m51s) 
CPU  1 inst: 1001000000 cyc: 1360143276 now IPC :0.71069: AVG IPC :0.73501: L2-Pf-HR :0.92364: L2-HR :0.86851: (Sim:15h27m52s) 
CPU  3 inst: 1002000000 cyc: 1361433246 now IPC :0.75212: AVG IPC :0.73505: L2-Pf-HR :0.92242: L2-HR :0.85366: (Sim:15h28m26s) 
CPU  2 inst: 1002000001 cyc: 1361454221 now IPC :0.72987: AVG IPC :0.73504: L2-Pf-HR :0.90507: L2-HR :0.84279: (Sim:15h28m27s) 
CPU  1 inst: 1002000000 cyc: 1361460047 now IPC :0.75943: AVG IPC :0.73504: L2-Pf-HR :0.92360: L2-HR :0.86850: (Sim:15h28m27s) 
CPU  0 inst: 1002000001 cyc: 1361496218 now IPC :0.71704: AVG IPC :0.73502: L2-Pf-HR :0.95056: L2-HR :0.90576: (Sim:15h28m28s) 
CPU  2 inst: 1003000000 cyc: 1362727162 now IPC :0.78558: AVG IPC :0.73509: L2-Pf-HR :0.90503: L2-HR :0.84278: (Sim:15h29m4s) 
CPU  0 inst: 1003000003 cyc: 1362765811 now IPC :0.78766: AVG IPC :0.73506: L2-Pf-HR :0.95055: L2-HR :0.90575: (Sim:15h29m5s) 
CPU  1 inst: 1003000003 cyc: 1362767513 now IPC :0.76484: AVG IPC :0.73506: L2-Pf-HR :0.92358: L2-HR :0.86850: (Sim:15h29m5s) 
CPU  3 inst: 1003000003 cyc: 1362771548 now IPC :0.74722: AVG IPC :0.73506: L2-Pf-HR :0.92238: L2-HR :0.85364: (Sim:15h29m5s) 
CPU  0 inst: 1004000003 cyc: 1364114618 now IPC :0.74140: AVG IPC :0.73507: L2-Pf-HR :0.95057: L2-HR :0.90578: (Sim:15h30m8s) 
CPU  2 inst: 1004000003 cyc: 1364120432 now IPC :0.71774: AVG IPC :0.73507: L2-Pf-HR :0.90507: L2-HR :0.84280: (Sim:15h30m8s) 
CPU  1 inst: 1004000003 cyc: 1364124532 now IPC :0.73691: AVG IPC :0.73507: L2-Pf-HR :0.92361: L2-HR :0.86852: (Sim:15h30m8s) 
CPU  3 inst: 1004000003 cyc: 1364135952 now IPC :0.73292: AVG IPC :0.73506: L2-Pf-HR :0.92243: L2-HR :0.85369: (Sim:15h30m8s) 
CPU  0 inst: 1005000003 cyc: 1365378977 now IPC :0.79091: AVG IPC :0.73512: L2-Pf-HR :0.95059: L2-HR :0.90579: (Sim:15h31m3s) 
CPU  2 inst: 1005000003 cyc: 1365413929 now IPC :0.77310: AVG IPC :0.73510: L2-Pf-HR :0.90509: L2-HR :0.84283: (Sim:15h31m4s) 
CPU  3 inst: 1005000000 cyc: 1365416909 now IPC :0.78066: AVG IPC :0.73510: L2-Pf-HR :0.92246: L2-HR :0.85371: (Sim:15h31m4s) 
CPU  1 inst: 1005000000 cyc: 1365423579 now IPC :0.76979: AVG IPC :0.73510: L2-Pf-HR :0.92362: L2-HR :0.86852: (Sim:15h31m4s) 
CPU  2 inst: 1006000003 cyc: 1366482316 now IPC :0.93599: AVG IPC :0.73526: L2-Pf-HR :0.90509: L2-HR :0.84283: (Sim:15h31m36s) 
CPU  1 inst: 1006000003 cyc: 1366491004 now IPC :0.93684: AVG IPC :0.73526: L2-Pf-HR :0.92361: L2-HR :0.86851: (Sim:15h31m36s) 
CPU  0 inst: 1006000003 cyc: 1366498683 now IPC :0.89309: AVG IPC :0.73525: L2-Pf-HR :0.95059: L2-HR :0.90579: (Sim:15h31m37s) 
CPU  3 inst: 1006000003 cyc: 1366509605 now IPC :0.91517: AVG IPC :0.73525: L2-Pf-HR :0.92247: L2-HR :0.85372: (Sim:15h31m37s) 
CPU  2 inst: 1007000000 cyc: 1367784301 now IPC :0.76806: AVG IPC :0.73529: L2-Pf-HR :0.90516: L2-HR :0.84287: (Sim:15h32m17s) 
CPU  0 inst: 1007000000 cyc: 1367792241 now IPC :0.77306: AVG IPC :0.73529: L2-Pf-HR :0.95061: L2-HR :0.90581: (Sim:15h32m17s) 
CPU  3 inst: 1007000000 cyc: 1367793051 now IPC :0.77915: AVG IPC :0.73529: L2-Pf-HR :0.92250: L2-HR :0.85372: (Sim:15h32m17s) 
CPU  1 inst: 1007000000 cyc: 1367811875 now IPC :0.75707: AVG IPC :0.73528: L2-Pf-HR :0.92365: L2-HR :0.86853: (Sim:15h32m18s) 
CPU  2 inst: 1008000003 cyc: 1368918102 now IPC :0.88199: AVG IPC :0.73541: L2-Pf-HR :0.90519: L2-HR :0.84286: (Sim:15h33m14s) 
CPU  3 inst: 1008000003 cyc: 1368920700 now IPC :0.88680: AVG IPC :0.73541: L2-Pf-HR :0.92251: L2-HR :0.85370: (Sim:15h33m14s) 
CPU  1 inst: 1008000003 cyc: 1368943581 now IPC :0.88362: AVG IPC :0.73540: L2-Pf-HR :0.92367: L2-HR :0.86852: (Sim:15h33m15s) 
CPU  0 inst: 1008000003 cyc: 1368945007 now IPC :0.86748: AVG IPC :0.73540: L2-Pf-HR :0.95062: L2-HR :0.90581: (Sim:15h33m15s) 
CPU  0 inst: 1009000001 cyc: 1370421667 now IPC :0.67720: AVG IPC :0.73534: L2-Pf-HR :0.95064: L2-HR :0.90582: (Sim:15h34m18s) 
CPU  1 inst: 1009000001 cyc: 1370422126 now IPC :0.67634: AVG IPC :0.73534: L2-Pf-HR :0.92371: L2-HR :0.86855: (Sim:15h34m18s) 
CPU  3 inst: 1009000001 cyc: 1370455167 now IPC :0.65169: AVG IPC :0.73532: L2-Pf-HR :0.92255: L2-HR :0.85372: (Sim:15h34m20s) 
CPU  2 inst: 1009000001 cyc: 1370526146 now IPC :0.62187: AVG IPC :0.73528: L2-Pf-HR :0.90522: L2-HR :0.84286: (Sim:15h34m24s) 
CPU  0 inst: 1010000005 cyc: 1371644125 now IPC :0.81803: AVG IPC :0.73541: L2-Pf-HR :0.95068: L2-HR :0.90585: (Sim:15h35m17s) 
CPU  1 inst: 1010000005 cyc: 1371645577 now IPC :0.81736: AVG IPC :0.73541: L2-Pf-HR :0.92377: L2-HR :0.86858: (Sim:15h35m17s) 
CPU  2 inst: 1010000001 cyc: 1371648647 now IPC :0.89087: AVG IPC :0.73541: L2-Pf-HR :0.90526: L2-HR :0.84288: (Sim:15h35m17s) 
CPU  3 inst: 1010000005 cyc: 1371652543 now IPC :0.83516: AVG IPC :0.73541: L2-Pf-HR :0.92263: L2-HR :0.85376: (Sim:15h35m18s) 
CPU  1 inst: 1011000000 cyc: 1373243679 now IPC :0.62574: AVG IPC :0.73528: L2-Pf-HR :0.92379: L2-HR :0.86857: (Sim:15h36m27s) 
CPU  0 inst: 1011000005 cyc: 1373256982 now IPC :0.62002: AVG IPC :0.73527: L2-Pf-HR :0.95069: L2-HR :0.90584: (Sim:15h36m28s) 
CPU  2 inst: 1011000000 cyc: 1373277252 now IPC :0.61402: AVG IPC :0.73526: L2-Pf-HR :0.90531: L2-HR :0.84291: (Sim:15h36m28s) 
CPU  3 inst: 1011000000 cyc: 1373279054 now IPC :0.61481: AVG IPC :0.73526: L2-Pf-HR :0.92265: L2-HR :0.85377: (Sim:15h36m28s) 
CPU  0 inst: 1012000001 cyc: 1374611569 now IPC :0.73823: AVG IPC :0.73528: L2-Pf-HR :0.95067: L2-HR :0.90584: (Sim:15h37m33s) 
CPU  3 inst: 1012000000 cyc: 1374641266 now IPC :0.73410: AVG IPC :0.73526: L2-Pf-HR :0.92263: L2-HR :0.85378: (Sim:15h37m34s) 
CPU  1 inst: 1012000005 cyc: 1374660190 now IPC :0.70596: AVG IPC :0.73525: L2-Pf-HR :0.92376: L2-HR :0.86857: (Sim:15h37m35s) 
CPU  2 inst: 1012000005 cyc: 1374668522 now IPC :0.71877: AVG IPC :0.73525: L2-Pf-HR :0.90525: L2-HR :0.84290: (Sim:15h37m35s) 
CPU  2 inst: 1013000003 cyc: 1376026248 now IPC :0.73652: AVG IPC :0.73525: L2-Pf-HR :0.90522: L2-HR :0.84286: (Sim:15h38m31s) 
CPU  0 inst: 1013000001 cyc: 1376050984 now IPC :0.69473: AVG IPC :0.73524: L2-Pf-HR :0.95065: L2-HR :0.90583: (Sim:15h38m32s) 
CPU  3 inst: 1013000003 cyc: 1376059451 now IPC :0.70513: AVG IPC :0.73523: L2-Pf-HR :0.92261: L2-HR :0.85377: (Sim:15h38m32s) 
CPU  1 inst: 1013000001 cyc: 1376079859 now IPC :0.70439: AVG IPC :0.73522: L2-Pf-HR :0.92375: L2-HR :0.86857: (Sim:15h38m33s) 
CPU  1 inst: 1014000005 cyc: 1377514283 now IPC :0.69715: AVG IPC :0.73518: L2-Pf-HR :0.92372: L2-HR :0.86856: (Sim:15h39m38s) 
CPU  2 inst: 1014000005 cyc: 1377540138 now IPC :0.66055: AVG IPC :0.73517: L2-Pf-HR :0.90519: L2-HR :0.84287: (Sim:15h39m39s) 
CPU  3 inst: 1014000005 cyc: 1377541795 now IPC :0.67461: AVG IPC :0.73517: L2-Pf-HR :0.92258: L2-HR :0.85376: (Sim:15h39m39s) 
CPU  0 inst: 1014000005 cyc: 1377541833 now IPC :0.67076: AVG IPC :0.73517: L2-Pf-HR :0.95063: L2-HR :0.90583: (Sim:15h39m39s) 
CPU  1 inst: 1015000005 cyc: 1378910304 now IPC :0.71632: AVG IPC :0.73516: L2-Pf-HR :0.92370: L2-HR :0.86857: (Sim:15h40m44s) 
CPU  2 inst: 1015000000 cyc: 1378925461 now IPC :0.72185: AVG IPC :0.73515: L2-Pf-HR :0.90514: L2-HR :0.84285: (Sim:15h40m45s) 
CPU  0 inst: 1015000005 cyc: 1378944694 now IPC :0.71283: AVG IPC :0.73514: L2-Pf-HR :0.95061: L2-HR :0.90582: (Sim:15h40m46s) 
CPU  3 inst: 1015000005 cyc: 1379046888 now IPC :0.66441: AVG IPC :0.73509: L2-Pf-HR :0.92255: L2-HR :0.85375: (Sim:15h40m51s) 
CPU  1 inst: 1016000000 cyc: 1380272390 now IPC :0.73416: AVG IPC :0.73516: L2-Pf-HR :0.92372: L2-HR :0.86858: (Sim:15h41m49s) 
CPU  0 inst: 1016000005 cyc: 1380290477 now IPC :0.74306: AVG IPC :0.73515: L2-Pf-HR :0.95062: L2-HR :0.90583: (Sim:15h41m50s) 
CPU  3 inst: 1016000000 cyc: 1380305823 now IPC :0.79432: AVG IPC :0.73514: L2-Pf-HR :0.92259: L2-HR :0.85378: (Sim:15h41m50s) 
CPU  2 inst: 1016000000 cyc: 1380307713 now IPC :0.72346: AVG IPC :0.73514: L2-Pf-HR :0.90515: L2-HR :0.84286: (Sim:15h41m50s) 
CPU  1 inst: 1017000001 cyc: 1381541330 now IPC :0.78806: AVG IPC :0.73521: L2-Pf-HR :0.92372: L2-HR :0.86858: (Sim:15h42m31s) 
CPU  0 inst: 1017000005 cyc: 1381547423 now IPC :0.79558: AVG IPC :0.73521: L2-Pf-HR :0.95063: L2-HR :0.90583: (Sim:15h42m31s) 
CPU  3 inst: 1017000001 cyc: 1381595617 now IPC :0.77532: AVG IPC :0.73518: L2-Pf-HR :0.92259: L2-HR :0.85379: (Sim:15h42m32s) 
CPU  2 inst: 1017000001 cyc: 1381632271 now IPC :0.75497: AVG IPC :0.73516: L2-Pf-HR :0.90516: L2-HR :0.84288: (Sim:15h42m33s) 
CPU  0 inst: 1018000005 cyc: 1383000967 now IPC :0.68797: AVG IPC :0.73516: L2-Pf-HR :0.95064: L2-HR :0.90584: (Sim:15h43m12s) 
CPU  1 inst: 1018000001 cyc: 1383011568 now IPC :0.68016: AVG IPC :0.73515: L2-Pf-HR :0.92373: L2-HR :0.86857: (Sim:15h43m13s) 
CPU  3 inst: 1018000001 cyc: 1383041667 now IPC :0.69154: AVG IPC :0.73513: L2-Pf-HR :0.92258: L2-HR :0.85379: (Sim:15h43m14s) 
CPU  2 inst: 1018000005 cyc: 1383087432 now IPC :0.68721: AVG IPC :0.73511: L2-Pf-HR :0.90514: L2-HR :0.84286: (Sim:15h43m16s) 
CPU  3 inst: 1019000005 cyc: 1384432566 now IPC :0.71896: AVG IPC :0.73512: L2-Pf-HR :0.92258: L2-HR :0.85378: (Sim:15h44m19s) 
CPU  2 inst: 1019000005 cyc: 1384468351 now IPC :0.72416: AVG IPC :0.73510: L2-Pf-HR :0.90516: L2-HR :0.84287: (Sim:15h44m20s) 
CPU  1 inst: 1019000002 cyc: 1384477016 now IPC :0.68239: AVG IPC :0.73509: L2-Pf-HR :0.92374: L2-HR :0.86856: (Sim:15h44m21s) 
CPU  0 inst: 1019000005 cyc: 1384517389 now IPC :0.65945: AVG IPC :0.73507: L2-Pf-HR :0.95065: L2-HR :0.90584: (Sim:15h44m22s) 
CPU  0 inst: 1020000005 cyc: 1385844476 now IPC :0.75353: AVG IPC :0.73509: L2-Pf-HR :0.95065: L2-HR :0.90584: (Sim:15h45m20s) 
CPU  1 inst: 1020000005 cyc: 1385911354 now IPC :0.69719: AVG IPC :0.73505: L2-Pf-HR :0.92374: L2-HR :0.86856: (Sim:15h45m21s) 
CPU  2 inst: 1020000005 cyc: 1385913423 now IPC :0.69201: AVG IPC :0.73505: L2-Pf-HR :0.90516: L2-HR :0.84287: (Sim:15h45m21s) 
CPU  3 inst: 1020000005 cyc: 1385914811 now IPC :0.67465: AVG IPC :0.73505: L2-Pf-HR :0.92257: L2-HR :0.85376: (Sim:15h45m21s) 
CPU  1 inst: 1021000003 cyc: 1387200029 now IPC :0.77599: AVG IPC :0.73509: L2-Pf-HR :0.92375: L2-HR :0.86856: (Sim:15h46m11s) 
CPU  3 inst: 1021000003 cyc: 1387210284 now IPC :0.77192: AVG IPC :0.73509: L2-Pf-HR :0.92255: L2-HR :0.85375: (Sim:15h46m11s) 
CPU  2 inst: 1021000005 cyc: 1387230912 now IPC :0.75902: AVG IPC :0.73508: L2-Pf-HR :0.90515: L2-HR :0.84286: (Sim:15h46m11s) 
CPU  0 inst: 1021000003 cyc: 1387232783 now IPC :0.72030: AVG IPC :0.73508: L2-Pf-HR :0.95065: L2-HR :0.90583: (Sim:15h46m12s) 
CPU  0 inst: 1022000005 cyc: 1388678224 now IPC :0.69183: AVG IPC :0.73503: L2-Pf-HR :0.95068: L2-HR :0.90585: (Sim:15h46m46s) 
CPU  2 inst: 1022000003 cyc: 1388726053 now IPC :0.66883: AVG IPC :0.73501: L2-Pf-HR :0.90521: L2-HR :0.84287: (Sim:15h46m47s) 
CPU  1 inst: 1022000003 cyc: 1388738728 now IPC :0.64990: AVG IPC :0.73500: L2-Pf-HR :0.92379: L2-HR :0.86858: (Sim:15h46m47s) 
CPU  3 inst: 1022000003 cyc: 1388750063 now IPC :0.64944: AVG IPC :0.73499: L2-Pf-HR :0.92260: L2-HR :0.85378: (Sim:15h46m48s) 
CPU  2 inst: 1023000005 cyc: 1390057356 now IPC :0.75115: AVG IPC :0.73502: L2-Pf-HR :0.90514: L2-HR :0.84281: (Sim:15h47m20s) 
CPU  0 inst: 1023000005 cyc: 1390065375 now IPC :0.72090: AVG IPC :0.73502: L2-Pf-HR :0.95064: L2-HR :0.90580: (Sim:15h47m21s) 
CPU  1 inst: 1023000005 cyc: 1390092473 now IPC :0.73869: AVG IPC :0.73500: L2-Pf-HR :0.92374: L2-HR :0.86853: (Sim:15h47m21s) 
CPU  3 inst: 1023000005 cyc: 1390138816 now IPC :0.72007: AVG IPC :0.73498: L2-Pf-HR :0.92252: L2-HR :0.85371: (Sim:15h47m22s) 
CPU  1 inst: 1024000002 cyc: 1391152287 now IPC :0.94356: AVG IPC :0.73516: L2-Pf-HR :0.92366: L2-HR :0.86849: (Sim:15h47m49s) 
CPU  0 inst: 1024000002 cyc: 1391447291 now IPC :0.72363: AVG IPC :0.73500: L2-Pf-HR :0.95058: L2-HR :0.90575: (Sim:15h47m56s) 
CPU  3 inst: 1024000002 cyc: 1391451359 now IPC :0.76188: AVG IPC :0.73500: L2-Pf-HR :0.92243: L2-HR :0.85366: (Sim:15h47m57s) 
CPU  2 inst: 1024000002 cyc: 1391464769 now IPC :0.71052: AVG IPC :0.73500: L2-Pf-HR :0.90504: L2-HR :0.84276: (Sim:15h47m57s) 
CPU  1 inst: 1025000004 cyc: 1392145648 now IPC :1.00669: AVG IPC :0.73535: L2-Pf-HR :0.92361: L2-HR :0.86845: (Sim:15h48m15s) 
CPU  0 inst: 1025000004 cyc: 1392802045 now IPC :0.73814: AVG IPC :0.73501: L2-Pf-HR :0.95055: L2-HR :0.90574: (Sim:15h48m37s) 
CPU  2 inst: 1025000004 cyc: 1392814439 now IPC :0.74092: AVG IPC :0.73500: L2-Pf-HR :0.90497: L2-HR :0.84272: (Sim:15h48m37s) 
CPU  3 inst: 1025000004 cyc: 1392819366 now IPC :0.73099: AVG IPC :0.73500: L2-Pf-HR :0.92236: L2-HR :0.85362: (Sim:15h48m38s) 
CPU  1 inst: 1026000004 cyc: 1393508852 now IPC :0.73357: AVG IPC :0.73535: L2-Pf-HR :0.92355: L2-HR :0.86841: (Sim:15h49m10s) 
CPU  0 inst: 1026000005 cyc: 1394005613 now IPC :0.83086: AVG IPC :0.73509: L2-Pf-HR :0.95052: L2-HR :0.90572: (Sim:15h49m30s) 
CPU  2 inst: 1026000004 cyc: 1394066331 now IPC :0.79879: AVG IPC :0.73506: L2-Pf-HR :0.90492: L2-HR :0.84268: (Sim:15h49m32s) 
CPU  3 inst: 1026000004 cyc: 1394072274 now IPC :0.79814: AVG IPC :0.73506: L2-Pf-HR :0.92231: L2-HR :0.85357: (Sim:15h49m32s) 
CPU  1 inst: 1027000000 cyc: 1414017256 now IPC :0.04876: AVG IPC :0.72539: L2-Pf-HR :0.92348: L2-HR :0.86628: (Sim:15h59m43s) 
CPU  0 inst: 1027000000 cyc: 1414549897 now IPC :0.04868: AVG IPC :0.72511: L2-Pf-HR :0.95048: L2-HR :0.90405: (Sim:16h0m0s) 
CPU  3 inst: 1027000000 cyc: 1414795091 now IPC :0.04826: AVG IPC :0.72499: L2-Pf-HR :0.92224: L2-HR :0.85129: (Sim:16h0m8s) 
CPU  2 inst: 1027000000 cyc: 1414910469 now IPC :0.04797: AVG IPC :0.72493: L2-Pf-HR :0.90484: L2-HR :0.84031: (Sim:16h0m12s) 
CPU  1 inst: 1028000002 cyc: 1434357161 now IPC :0.04916: AVG IPC :0.71579: L2-Pf-HR :0.92342: L2-HR :0.86406: (Sim:16h9m52s) 
CPU  3 inst: 1028000002 cyc: 1435004606 now IPC :0.04948: AVG IPC :0.71547: L2-Pf-HR :0.92217: L2-HR :0.84892: (Sim:16h10m12s) 
CPU  0 inst: 1028000002 cyc: 1435257225 now IPC :0.04829: AVG IPC :0.71534: L2-Pf-HR :0.95044: L2-HR :0.90229: (Sim:16h10m20s) 
CPU  2 inst: 1028000005 cyc: 1435384661 now IPC :0.04884: AVG IPC :0.71528: L2-Pf-HR :0.90477: L2-HR :0.83785: (Sim:16h10m24s) 
CPU  1 inst: 1029000001 cyc: 1454805492 now IPC :0.04890: AVG IPC :0.70641: L2-Pf-HR :0.92336: L2-HR :0.86186: (Sim:16h19m38s) 
CPU  3 inst: 1029000001 cyc: 1455595945 now IPC :0.04856: AVG IPC :0.70603: L2-Pf-HR :0.92209: L2-HR :0.84659: (Sim:16h19m57s) 
CPU  0 inst: 1029000004 cyc: 1455779127 now IPC :0.04873: AVG IPC :0.70594: L2-Pf-HR :0.95040: L2-HR :0.90056: (Sim:16h20m0s) 
CPU  2 inst: 1029000001 cyc: 1456036565 now IPC :0.04842: AVG IPC :0.70581: L2-Pf-HR :0.90469: L2-HR :0.83542: (Sim:16h20m4s) 
CPU  1 inst: 1030000000 cyc: 1475271307 now IPC :0.04886: AVG IPC :0.69728: L2-Pf-HR :0.92330: L2-HR :0.85969: (Sim:16h30m3s) 
CPU  3 inst: 1030000003 cyc: 1476183038 now IPC :0.04857: AVG IPC :0.69685: L2-Pf-HR :0.92201: L2-HR :0.84428: (Sim:16h30m32s) 
CPU  0 inst: 1030000000 cyc: 1476372179 now IPC :0.04856: AVG IPC :0.69676: L2-Pf-HR :0.95036: L2-HR :0.89883: (Sim:16h30m38s) 
CPU  2 inst: 1030000000 cyc: 1476716157 now IPC :0.04836: AVG IPC :0.69660: L2-Pf-HR :0.90461: L2-HR :0.83303: (Sim:16h30m49s) 
CPU  1 inst: 1031000002 cyc: 1495917334 now IPC :0.04844: AVG IPC :0.68832: L2-Pf-HR :0.92324: L2-HR :0.85755: (Sim:16h39m53s) 
CPU  3 inst: 1031000002 cyc: 1496634985 now IPC :0.04890: AVG IPC :0.68799: L2-Pf-HR :0.92194: L2-HR :0.84200: (Sim:16h40m7s) 
CPU  0 inst: 1031000005 cyc: 1496930243 now IPC :0.04864: AVG IPC :0.68786: L2-Pf-HR :0.95032: L2-HR :0.89713: (Sim:16h40m16s) 
CPU  2 inst: 1031000002 cyc: 1497296037 now IPC :0.04859: AVG IPC :0.68769: L2-Pf-HR :0.90453: L2-HR :0.83068: (Sim:16h40m28s) 
CPU  1 inst: 1032000001 cyc: 1516438126 now IPC :0.04873: AVG IPC :0.67966: L2-Pf-HR :0.92318: L2-HR :0.85543: (Sim:16h49m18s) 
CPU  3 inst: 1032000004 cyc: 1517255934 now IPC :0.04849: AVG IPC :0.67930: L2-Pf-HR :0.92187: L2-HR :0.83976: (Sim:16h49m34s) 
CPU  0 inst: 1032000004 cyc: 1517550168 now IPC :0.04850: AVG IPC :0.67916: L2-Pf-HR :0.95028: L2-HR :0.89543: (Sim:16h49m39s) 
CPU  2 inst: 1032000004 cyc: 1517768551 now IPC :0.04885: AVG IPC :0.67907: L2-Pf-HR :0.90445: L2-HR :0.82835: (Sim:16h49m43s) 
CPU  1 inst: 1033000000 cyc: 1536893595 now IPC :0.04889: AVG IPC :0.67126: L2-Pf-HR :0.92311: L2-HR :0.85334: (Sim:16h58m5s) 
CPU  3 inst: 1033000000 cyc: 1537689765 now IPC :0.04894: AVG IPC :0.67091: L2-Pf-HR :0.92179: L2-HR :0.83754: (Sim:16h58m18s) 
CPU  0 inst: 1033000000 cyc: 1538297498 now IPC :0.04820: AVG IPC :0.67065: L2-Pf-HR :0.95024: L2-HR :0.89375: (Sim:16h58m27s) 
CPU  2 inst: 1033000003 cyc: 1538361041 now IPC :0.04856: AVG IPC :0.67062: L2-Pf-HR :0.90437: L2-HR :0.82607: (Sim:16h58m28s) 
Caught signal: 2
     > Finished combination: TraceType=770-tot Sim:2634000000 Prefetcher=L2spp_berti_src L1=no
