TRACE: [2639000000]_FE_[OPT-350M]_[h16]_[s2048]_[d64] Warmup: 2000000 NumTraces: 2639000000
L1:bingo_dpc3:L2:bingo_dpc3
*************************************************
   ChampSim Multicore Out-of-Order Simulator
   Last compiled: Oct 30 2024 03:55:02
*************************************************

trace_0 770-tot_memTraces_v4_2048/memTraces[2639000000]_FE_[OPT-350M]_[h16]_[s2048]_[d64].champsim.9.xz
trace_1 770-tot_memTraces_v4_2048/memTraces[2639000000]_FE_[OPT-350M]_[h16]_[s2048]_[d64].champsim.9.xz
trace_2 770-tot_memTraces_v4_2048/memTraces[2639000000]_FE_[OPT-350M]_[h16]_[s2048]_[d64].champsim.9.xz
trace_3 770-tot_memTraces_v4_2048/memTraces[2639000000]_FE_[OPT-350M]_[h16]_[s2048]_[d64].champsim.9.xz
Bingo PHT WAYS: 16 and PHT_SIZE: 16384
Bingo2 PHT WAYS: 16 and PHT_SIZE: 16384
Bingo PHT WAYS: 16 and PHT_SIZE: 16384
Bingo2 PHT WAYS: 16 and PHT_SIZE: 16384
Bingo PHT WAYS: 16 and PHT_SIZE: 16384
Bingo2 PHT WAYS: 16 and PHT_SIZE: 16384
Bingo PHT WAYS: 16 and PHT_SIZE: 16384
Bingo2 PHT WAYS: 16 and PHT_SIZE: 16384
MAIN.cc ln 751 stats print skipped
CPU  1 inst:    1000000 cyc:     497001 now IPC :2.01207: AVG IPC :2.01207: L2-Pf-HR :0.68254: L2-HR :0.59300: (Sim:0h0m47s) 
CPU  0 inst:    1000000 cyc:     497204 now IPC :2.01125: AVG IPC :2.01125: L2-Pf-HR :0.67792: L2-HR :0.59525: (Sim:0h0m47s) 
CPU  3 inst:    1000000 cyc:     497289 now IPC :2.01090: AVG IPC :2.01090: L2-Pf-HR :0.70803: L2-HR :0.61676: (Sim:0h0m47s) 
CPU  2 inst:    1000000 cyc:     497344 now IPC :2.01068: AVG IPC :2.01068: L2-Pf-HR :0.75366: L2-HR :0.64239: (Sim:0h0m47s) 
CPU  1 inst:    2000001 cyc:     978966 now IPC :2.07484: AVG IPC :2.04297: L2-Pf-HR :0.72190: L2-HR :0.67337: (Sim:0h1m39s) 
CPU  0 inst:    2000001 cyc:     979185 now IPC :2.07477: AVG IPC :2.04252: L2-Pf-HR :0.70646: L2-HR :0.66792: (Sim:0h1m39s) 
CPU  2 inst:    2000001 cyc:     979279 now IPC :2.07497: AVG IPC :2.04232: L2-Pf-HR :0.80038: L2-HR :0.72561: (Sim:0h1m39s) 
CPU  3 inst:    2000001 cyc:     979281 now IPC :2.07473: AVG IPC :2.04232: L2-Pf-HR :0.75045: L2-HR :0.69394: (Sim:0h1m39s) 

Warmup complete CPU  0 instructions:    2000280 cycles:     979281 (Simulation time: 0 hr 1 min 39 sec) 
Warmup complete CPU  1 instructions:    2000667 cycles:     979281 (Simulation time: 0 hr 1 min 39 sec) 
Warmup complete CPU  2 instructions:    2000003 cycles:     979281 (Simulation time: 0 hr 1 min 39 sec) 
Warmup complete CPU  3 instructions:    2000001 cycles:     979281 (Simulation time: 0 hr 1 min 39 sec) 

CPU  1 inst:    3000001 cyc:    1764678 now IPC :1.27273: AVG IPC :1.27239: L2-Pf-HR :0.87815: L2-HR :0.76565: (Sim:0h2m29s) 
CPU  3 inst:    3000001 cyc:    1765033 now IPC :1.27267: AVG IPC :1.27267: L2-Pf-HR :0.88660: L2-HR :0.77226: (Sim:0h2m29s) 
CPU  0 inst:    3000001 cyc:    1765186 now IPC :1.27226: AVG IPC :1.27206: L2-Pf-HR :0.85188: L2-HR :0.74645: (Sim:0h2m29s) 
CPU  2 inst:    3000001 cyc:    1765390 now IPC :1.27208: AVG IPC :1.27209: L2-Pf-HR :0.92003: L2-HR :0.80390: (Sim:0h2m29s) 
CPU  1 inst:    4000004 cyc:    2529808 now IPC :1.30697: AVG IPC :1.28946: L2-Pf-HR :0.85074: L2-HR :0.77182: (Sim:0h3m17s) 
CPU  3 inst:    4000004 cyc:    2530463 now IPC :1.30646: AVG IPC :1.28934: L2-Pf-HR :0.85299: L2-HR :0.77365: (Sim:0h3m17s) 
CPU  2 inst:    4000004 cyc:    2530607 now IPC :1.30682: AVG IPC :1.28922: L2-Pf-HR :0.88142: L2-HR :0.79534: (Sim:0h3m17s) 
CPU  0 inst:    4000004 cyc:    2547393 now IPC :1.27844: AVG IPC :1.27524: L2-Pf-HR :0.80417: L2-HR :0.74184: (Sim:0h3m19s) 
CPU  1 inst:    5000002 cyc:    3258303 now IPC :1.37269: AVG IPC :1.31606: L2-Pf-HR :0.84284: L2-HR :0.78295: (Sim:0h3m46s) 
CPU  2 inst:    5000002 cyc:    3265376 now IPC :1.36097: AVG IPC :1.31228: L2-Pf-HR :0.86870: L2-HR :0.79877: (Sim:0h3m47s) 
CPU  3 inst:    5000005 cyc:    3269235 now IPC :1.35360: AVG IPC :1.31007: L2-Pf-HR :0.83491: L2-HR :0.77422: (Sim:0h3m47s) 
CPU  0 inst:    5000005 cyc:    3299695 now IPC :1.32925: AVG IPC :1.29275: L2-Pf-HR :0.78901: L2-HR :0.74760: (Sim:0h3m48s) 
CPU  1 inst:    6000000 cyc:    4029330 now IPC :1.29697: AVG IPC :1.31124: L2-Pf-HR :0.83871: L2-HR :0.78524: (Sim:0h4m32s) 
CPU  3 inst:    6000000 cyc:    4058372 now IPC :1.26720: AVG IPC :1.29908: L2-Pf-HR :0.82454: L2-HR :0.77055: (Sim:0h4m34s) 
CPU  0 inst:    6000000 cyc:    4074881 now IPC :1.29001: AVG IPC :1.29207: L2-Pf-HR :0.79211: L2-HR :0.75389: (Sim:0h4m35s) 
CPU  2 inst:    6000000 cyc:    4094013 now IPC :1.20680: AVG IPC :1.28422: L2-Pf-HR :0.87456: L2-HR :0.79687: (Sim:0h4m36s) 
CPU  1 inst:    7000000 cyc:    4745032 now IPC :1.39723: AVG IPC :1.32758: L2-Pf-HR :0.84026: L2-HR :0.78458: (Sim:0h5m18s) 
CPU  3 inst:    7000005 cyc:    4819828 now IPC :1.31328: AVG IPC :1.30190: L2-Pf-HR :0.82039: L2-HR :0.76731: (Sim:0h5m23s) 
CPU  0 inst:    7000005 cyc:    4827032 now IPC :1.32953: AVG IPC :1.29939: L2-Pf-HR :0.78616: L2-HR :0.75494: (Sim:0h5m24s) 
CPU  2 inst:    7000005 cyc:    4847026 now IPC :1.32800: AVG IPC :1.29274: L2-Pf-HR :0.87289: L2-HR :0.79715: (Sim:0h5m25s) 
CPU  1 inst:    8000003 cyc:    5434917 now IPC :1.44952: AVG IPC :1.34646: L2-Pf-HR :0.83966: L2-HR :0.77997: (Sim:0h6m5s) 
CPU  3 inst:    8000003 cyc:    5531228 now IPC :1.40568: AVG IPC :1.31812: L2-Pf-HR :0.81861: L2-HR :0.76384: (Sim:0h6m11s) 
CPU  0 inst:    8000003 cyc:    5556480 now IPC :1.37090: AVG IPC :1.31078: L2-Pf-HR :0.79579: L2-HR :0.75998: (Sim:0h6m13s) 
CPU  2 inst:    8000003 cyc:    5581884 now IPC :1.36080: AVG IPC :1.30361: L2-Pf-HR :0.87382: L2-HR :0.79538: (Sim:0h6m15s) 
CPU  1 inst:    9000004 cyc:    6112808 now IPC :1.47516: AVG IPC :1.36346: L2-Pf-HR :0.84096: L2-HR :0.77852: (Sim:0h6m51s) 
CPU  3 inst:    9000005 cyc:    6235376 now IPC :1.42016: AVG IPC :1.33179: L2-Pf-HR :0.81529: L2-HR :0.76190: (Sim:0h6m59s) 
CPU  0 inst:    9000005 cyc:    6300950 now IPC :1.34324: AVG IPC :1.31533: L2-Pf-HR :0.80161: L2-HR :0.76010: (Sim:0h7m4s) 
CPU  2 inst:    9000005 cyc:    6316083 now IPC :1.36203: AVG IPC :1.31165: L2-Pf-HR :0.87669: L2-HR :0.79445: (Sim:0h7m5s) 
CPU  1 inst:   10000004 cyc:    6781971 now IPC :1.49440: AVG IPC :1.37856: L2-Pf-HR :0.84081: L2-HR :0.77678: (Sim:0h7m32s) 
CPU  3 inst:   10000004 cyc:    6912506 now IPC :1.47682: AVG IPC :1.34834: L2-Pf-HR :0.81457: L2-HR :0.76060: (Sim:0h7m38s) 
CPU  0 inst:   10000004 cyc:    7009824 now IPC :1.41069: AVG IPC :1.32653: L2-Pf-HR :0.80483: L2-HR :0.76121: (Sim:0h7m42s) 
CPU  2 inst:   10000004 cyc:    7019605 now IPC :1.42142: AVG IPC :1.32443: L2-Pf-HR :0.87882: L2-HR :0.79298: (Sim:0h7m43s) 
CPU  1 inst:   11000002 cyc:    7453218 now IPC :1.48976: AVG IPC :1.39009: L2-Pf-HR :0.83696: L2-HR :0.77351: (Sim:0h8m1s) 
CPU  3 inst:   11000002 cyc:    7572255 now IPC :1.51572: AVG IPC :1.36509: L2-Pf-HR :0.81402: L2-HR :0.76127: (Sim:0h8m6s) 
CPU  0 inst:   11000002 cyc:    7714787 now IPC :1.41851: AVG IPC :1.33616: L2-Pf-HR :0.80348: L2-HR :0.75991: (Sim:0h8m15s) 
CPU  2 inst:   11000002 cyc:    7726337 now IPC :1.41496: AVG IPC :1.33391: L2-Pf-HR :0.88085: L2-HR :0.79211: (Sim:0h8m16s) 
CPU  1 inst:   12000003 cyc:    8131503 now IPC :1.47431: AVG IPC :1.39807: L2-Pf-HR :0.83660: L2-HR :0.77269: (Sim:0h8m45s) 
CPU  3 inst:   12000003 cyc:    8229695 now IPC :1.52105: AVG IPC :1.37923: L2-Pf-HR :0.80969: L2-HR :0.75984: (Sim:0h8m52s) 
CPU  0 inst:   12000003 cyc:    8410913 now IPC :1.43652: AVG IPC :1.34556: L2-Pf-HR :0.80299: L2-HR :0.75841: (Sim:0h9m4s) 
CPU  2 inst:   12000003 cyc:    8430364 now IPC :1.42040: AVG IPC :1.34209: L2-Pf-HR :0.88225: L2-HR :0.79195: (Sim:0h9m5s) 
CPU  1 inst:   13000001 cyc:    8843043 now IPC :1.40540: AVG IPC :1.39874: L2-Pf-HR :0.83365: L2-HR :0.77043: (Sim:0h9m32s) 
CPU  3 inst:   13000004 cyc:    8911069 now IPC :1.46762: AVG IPC :1.38683: L2-Pf-HR :0.80648: L2-HR :0.76007: (Sim:0h9m37s) 
CPU  0 inst:   13000001 cyc:    9156136 now IPC :1.34188: AVG IPC :1.34523: L2-Pf-HR :0.80485: L2-HR :0.75816: (Sim:0h9m55s) 
CPU  2 inst:   13000004 cyc:    9175722 now IPC :1.34164: AVG IPC :1.34205: L2-Pf-HR :0.88026: L2-HR :0.79085: (Sim:0h9m57s) 
CPU  1 inst:   14000001 cyc:    9422537 now IPC :1.72564: AVG IPC :1.42117: L2-Pf-HR :0.83295: L2-HR :0.77214: (Sim:0h10m15s) 
CPU  3 inst:   14000001 cyc:    9483532 now IPC :1.74683: AVG IPC :1.41106: L2-Pf-HR :0.81130: L2-HR :0.76417: (Sim:0h10m20s) 
CPU  0 inst:   14000001 cyc:    9797251 now IPC :1.55978: AVG IPC :1.36083: L2-Pf-HR :0.80625: L2-HR :0.75991: (Sim:0h10m42s) 
CPU  2 inst:   14000000 cyc:    9861509 now IPC :1.45817: AVG IPC :1.35101: L2-Pf-HR :0.88522: L2-HR :0.79240: (Sim:0h10m47s) 
CPU  1 inst:   15000004 cyc:   10093817 now IPC :1.48970: AVG IPC :1.42622: L2-Pf-HR :0.83645: L2-HR :0.77214: (Sim:0h11m4s) 
CPU  3 inst:   15000004 cyc:   10114436 now IPC :1.58503: AVG IPC :1.42307: L2-Pf-HR :0.81450: L2-HR :0.76513: (Sim:0h11m5s) 
CPU  0 inst:   15000004 cyc:   10417175 now IPC :1.61311: AVG IPC :1.37740: L2-Pf-HR :0.80765: L2-HR :0.76009: (Sim:0h11m27s) 
CPU  2 inst:   15000004 cyc:   10538223 now IPC :1.47774: AVG IPC :1.35998: L2-Pf-HR :0.88948: L2-HR :0.79336: (Sim:0h11m36s) 
CPU  3 inst:   16000005 cyc:   10757749 now IPC :1.55445: AVG IPC :1.43172: L2-Pf-HR :0.81715: L2-HR :0.76846: (Sim:0h11m52s) 
CPU  1 inst:   16000005 cyc:   10763086 now IPC :1.49417: AVG IPC :1.43087: L2-Pf-HR :0.83692: L2-HR :0.77347: (Sim:0h11m52s) 
CPU  0 inst:   16000005 cyc:   11030261 now IPC :1.63109: AVG IPC :1.39287: L2-Pf-HR :0.80698: L2-HR :0.76064: (Sim:0h12m12s) 
CPU  2 inst:   16000005 cyc:   11213470 now IPC :1.48094: AVG IPC :1.36796: L2-Pf-HR :0.89044: L2-HR :0.79539: (Sim:0h12m25s) 
CPU  1 inst:   17000005 cyc:   11433441 now IPC :1.49175: AVG IPC :1.43477: L2-Pf-HR :0.84065: L2-HR :0.77637: (Sim:0h12m41s) 
CPU  3 inst:   17000005 cyc:   11442429 now IPC :1.46054: AVG IPC :1.43360: L2-Pf-HR :0.81958: L2-HR :0.76933: (Sim:0h12m42s) 
CPU  0 inst:   17000005 cyc:   11613001 now IPC :1.71603: AVG IPC :1.41058: L2-Pf-HR :0.80705: L2-HR :0.76104: (Sim:0h12m54s) 
CPU  2 inst:   17000005 cyc:   11904661 now IPC :1.44678: AVG IPC :1.37295: L2-Pf-HR :0.89338: L2-HR :0.79600: (Sim:0h13m15s) 
CPU  1 inst:   18000005 cyc:   12131382 now IPC :1.43279: AVG IPC :1.43465: L2-Pf-HR :0.84330: L2-HR :0.77815: (Sim:0h13m27s) 
CPU  3 inst:   18000005 cyc:   12143541 now IPC :1.42631: AVG IPC :1.43315: L2-Pf-HR :0.81942: L2-HR :0.76911: (Sim:0h13m28s) 
CPU  0 inst:   18000005 cyc:   12206755 now IPC :1.68420: AVG IPC :1.42505: L2-Pf-HR :0.80933: L2-HR :0.76236: (Sim:0h13m31s) 
CPU  2 inst:   18000005 cyc:   12596865 now IPC :1.44466: AVG IPC :1.37722: L2-Pf-HR :0.89592: L2-HR :0.79670: (Sim:0h13m47s) 
CPU  3 inst:   19000004 cyc:   12848550 now IPC :1.41842: AVG IPC :1.43227: L2-Pf-HR :0.82232: L2-HR :0.76934: (Sim:0h13m58s) 
CPU  1 inst:   19000004 cyc:   12851884 now IPC :1.38792: AVG IPC :1.43181: L2-Pf-HR :0.84725: L2-HR :0.77988: (Sim:0h13m58s) 
CPU  0 inst:   19000004 cyc:   12891936 now IPC :1.45947: AVG IPC :1.42703: L2-Pf-HR :0.81042: L2-HR :0.76179: (Sim:0h14m0s) 
CPU  2 inst:   19000004 cyc:   13321630 now IPC :1.37976: AVG IPC :1.37737: L2-Pf-HR :0.89939: L2-HR :0.79860: (Sim:0h14m18s) 
CPU  3 inst:   20000002 cyc:   13616084 now IPC :1.30287: AVG IPC :1.42441: L2-Pf-HR :0.82315: L2-HR :0.76877: (Sim:0h14m30s) 
CPU  1 inst:   20000000 cyc:   13620038 now IPC :1.30182: AVG IPC :1.42391: L2-Pf-HR :0.84980: L2-HR :0.78014: (Sim:0h14m31s) 
CPU  0 inst:   20000002 cyc:   13625566 now IPC :1.36308: AVG IPC :1.42332: L2-Pf-HR :0.81199: L2-HR :0.76260: (Sim:0h14m31s) 
CPU  2 inst:   20000001 cyc:   14008499 now IPC :1.45588: AVG IPC :1.38151: L2-Pf-HR :0.90197: L2-HR :0.79890: (Sim:0h14m47s) 
CPU  3 inst:   21000005 cyc:   14310479 now IPC :1.44011: AVG IPC :1.42523: L2-Pf-HR :0.82381: L2-HR :0.77006: (Sim:0h15m6s) 
CPU  0 inst:   21000005 cyc:   14330847 now IPC :1.41788: AVG IPC :1.42303: L2-Pf-HR :0.81203: L2-HR :0.76338: (Sim:0h15m8s) 
CPU  1 inst:   21000005 cyc:   14334206 now IPC :1.40024: AVG IPC :1.42265: L2-Pf-HR :0.85122: L2-HR :0.78090: (Sim:0h15m8s) 
CPU  2 inst:   21000005 cyc:   14652592 now IPC :1.55258: AVG IPC :1.38957: L2-Pf-HR :0.90357: L2-HR :0.79963: (Sim:0h15m31s) 
CPU  3 inst:   22000002 cyc:   14948248 now IPC :1.56796: AVG IPC :1.43175: L2-Pf-HR :0.82301: L2-HR :0.77021: (Sim:0h15m52s) 
CPU  0 inst:   22000002 cyc:   15016641 now IPC :1.45816: AVG IPC :1.42475: L2-Pf-HR :0.81305: L2-HR :0.76376: (Sim:0h15m57s) 
CPU  1 inst:   22000002 cyc:   15019588 now IPC :1.45904: AVG IPC :1.42442: L2-Pf-HR :0.85172: L2-HR :0.78130: (Sim:0h15m58s) 
CPU  2 inst:   22000002 cyc:   15269169 now IPC :1.62185: AVG IPC :1.39959: L2-Pf-HR :0.90357: L2-HR :0.80027: (Sim:0h16m16s) 
CPU  3 inst:   23000001 cyc:   15584948 now IPC :1.57060: AVG IPC :1.43780: L2-Pf-HR :0.82519: L2-HR :0.77080: (Sim:0h16m39s) 
CPU  0 inst:   23000001 cyc:   15678560 now IPC :1.51076: AVG IPC :1.42862: L2-Pf-HR :0.81320: L2-HR :0.76311: (Sim:0h16m46s) 
CPU  1 inst:   23000001 cyc:   15679185 now IPC :1.51608: AVG IPC :1.42854: L2-Pf-HR :0.85303: L2-HR :0.78141: (Sim:0h16m46s) 
CPU  2 inst:   23000001 cyc:   15903814 now IPC :1.57568: AVG IPC :1.40708: L2-Pf-HR :0.90582: L2-HR :0.80079: (Sim:0h17m3s) 
CPU  3 inst:   24000003 cyc:   16187758 now IPC :1.65890: AVG IPC :1.44656: L2-Pf-HR :0.82526: L2-HR :0.77128: (Sim:0h17m25s) 
CPU  0 inst:   24000003 cyc:   16289638 now IPC :1.63646: AVG IPC :1.43692: L2-Pf-HR :0.81176: L2-HR :0.76281: (Sim:0h17m32s) 
CPU  1 inst:   24000003 cyc:   16326988 now IPC :1.54368: AVG IPC :1.43340: L2-Pf-HR :0.85523: L2-HR :0.78157: (Sim:0h17m35s) 
CPU  2 inst:   24000003 cyc:   16561327 now IPC :1.52089: AVG IPC :1.41188: L2-Pf-HR :0.90855: L2-HR :0.80168: (Sim:0h17m50s) 
CPU  3 inst:   25000003 cyc:   16945020 now IPC :1.32055: AVG IPC :1.44058: L2-Pf-HR :0.82581: L2-HR :0.77236: (Sim:0h18m14s) 
CPU  0 inst:   25000003 cyc:   17063328 now IPC :1.29251: AVG IPC :1.42997: L2-Pf-HR :0.81105: L2-HR :0.76307: (Sim:0h18m22s) 
CPU  1 inst:   25000003 cyc:   17144103 now IPC :1.22382: AVG IPC :1.42280: L2-Pf-HR :0.85411: L2-HR :0.78098: (Sim:0h18m27s) 
CPU  2 inst:   25000003 cyc:   17389125 now IPC :1.20802: AVG IPC :1.40160: L2-Pf-HR :0.90710: L2-HR :0.80123: (Sim:0h18m43s) 
CPU  3 inst:   26000001 cyc:   17696186 now IPC :1.33126: AVG IPC :1.43567: L2-Pf-HR :0.82784: L2-HR :0.77372: (Sim:0h19m3s) 
CPU  0 inst:   26000001 cyc:   17789725 now IPC :1.37665: AVG IPC :1.42767: L2-Pf-HR :0.81178: L2-HR :0.76408: (Sim:0h19m9s) 
CPU  1 inst:   26000001 cyc:   17876097 now IPC :1.36613: AVG IPC :1.42035: L2-Pf-HR :0.85340: L2-HR :0.78185: (Sim:0h19m15s) 
CPU  2 inst:   26000001 cyc:   18233472 now IPC :1.18434: AVG IPC :1.39097: L2-Pf-HR :0.90862: L2-HR :0.80188: (Sim:0h19m37s) 
CPU  3 inst:   27000001 cyc:   18488961 now IPC :1.26139: AVG IPC :1.42778: L2-Pf-HR :0.82819: L2-HR :0.77487: (Sim:0h19m53s) 
CPU  0 inst:   27000001 cyc:   18566356 now IPC :1.28761: AVG IPC :1.42148: L2-Pf-HR :0.81089: L2-HR :0.76454: (Sim:0h19m58s) 
CPU  1 inst:   27000001 cyc:   18632214 now IPC :1.32255: AVG IPC :1.41616: L2-Pf-HR :0.85373: L2-HR :0.78240: (Sim:0h20m2s) 
CPU  2 inst:   27000001 cyc:   19237484 now IPC :0.99600: AVG IPC :1.36925: L2-Pf-HR :0.91000: L2-HR :0.80210: (Sim:0h20m37s) 
CPU  3 inst:   28000001 cyc:   19266325 now IPC :1.28640: AVG IPC :1.42177: L2-Pf-HR :0.82866: L2-HR :0.77617: (Sim:0h20m39s) 
CPU  0 inst:   28000001 cyc:   19414123 now IPC :1.17957: AVG IPC :1.41036: L2-Pf-HR :0.80981: L2-HR :0.76482: (Sim:0h20m48s) 
CPU  1 inst:   28000001 cyc:   19505319 now IPC :1.14534: AVG IPC :1.40339: L2-Pf-HR :0.85396: L2-HR :0.78369: (Sim:0h20m54s) 
CPU  3 inst:   29000000 cyc:   20018141 now IPC :1.33011: AVG IPC :1.41815: L2-Pf-HR :0.83098: L2-HR :0.77701: (Sim:0h21m26s) 
CPU  2 inst:   28000001 cyc:   20113519 now IPC :1.14151: AVG IPC :1.35882: L2-Pf-HR :0.91015: L2-HR :0.80312: (Sim:0h21m32s) 
CPU  0 inst:   29000000 cyc:   20196246 now IPC :1.27857: AVG IPC :1.40499: L2-Pf-HR :0.81083: L2-HR :0.76530: (Sim:0h21m37s) 
CPU  1 inst:   29000000 cyc:   20344508 now IPC :1.19163: AVG IPC :1.39422: L2-Pf-HR :0.85607: L2-HR :0.78454: (Sim:0h21m46s) 
CPU  3 inst:   30000001 cyc:   20747769 now IPC :1.37056: AVG IPC :1.41640: L2-Pf-HR :0.83074: L2-HR :0.77651: (Sim:0h22m12s) 
CPU  0 inst:   30000001 cyc:   20941080 now IPC :1.34258: AVG IPC :1.40267: L2-Pf-HR :0.81198: L2-HR :0.76600: (Sim:0h22m24s) 
CPU  2 inst:   29000000 cyc:   20996698 now IPC :1.13227: AVG IPC :1.34883: L2-Pf-HR :0.91141: L2-HR :0.80341: (Sim:0h22m28s) 
CPU  1 inst:   30000001 cyc:   21190328 now IPC :1.18229: AVG IPC :1.38535: L2-Pf-HR :0.85722: L2-HR :0.78537: (Sim:0h22m39s) 
CPU  3 inst:   31000000 cyc:   21588819 now IPC :1.18899: AVG IPC :1.40712: L2-Pf-HR :0.83152: L2-HR :0.77673: (Sim:0h23m2s) 
CPU  0 inst:   31000000 cyc:   21748038 now IPC :1.23922: AVG IPC :1.39631: L2-Pf-HR :0.81212: L2-HR :0.76631: (Sim:0h23m11s) 
CPU  2 inst:   30000001 cyc:   21976757 now IPC :1.02035: AVG IPC :1.33349: L2-Pf-HR :0.91212: L2-HR :0.80352: (Sim:0h23m24s) 
CPU  1 inst:   31000003 cyc:   22104832 now IPC :1.09349: AVG IPC :1.37271: L2-Pf-HR :0.85869: L2-HR :0.78628: (Sim:0h23m32s) 
CPU  3 inst:   32000005 cyc:   22557542 now IPC :1.03229: AVG IPC :1.39029: L2-Pf-HR :0.83247: L2-HR :0.77631: (Sim:0h23m56s) 
CPU  0 inst:   32000001 cyc:   22638719 now IPC :1.12274: AVG IPC :1.38506: L2-Pf-HR :0.81395: L2-HR :0.76683: (Sim:0h24m1s) 
CPU  2 inst:   31000000 cyc:   22960867 now IPC :1.01615: AVG IPC :1.31929: L2-Pf-HR :0.91311: L2-HR :0.80419: (Sim:0h24m20s) 
CPU  1 inst:   32000001 cyc:   23029335 now IPC :1.08166: AVG IPC :1.36051: L2-Pf-HR :0.86006: L2-HR :0.78627: (Sim:0h24m23s) 
CPU  3 inst:   33000002 cyc:   23507053 now IPC :1.05317: AVG IPC :1.37608: L2-Pf-HR :0.83380: L2-HR :0.77671: (Sim:0h24m50s) 
CPU  0 inst:   33000002 cyc:   23626073 now IPC :1.01281: AVG IPC :1.36883: L2-Pf-HR :0.81521: L2-HR :0.76706: (Sim:0h24m56s) 
CPU  1 inst:   33000002 cyc:   23915468 now IPC :1.12850: AVG IPC :1.35155: L2-Pf-HR :0.86082: L2-HR :0.78617: (Sim:0h25m12s) 
CPU  2 inst:   32000004 cyc:   24053508 now IPC :0.91522: AVG IPC :1.30015: L2-Pf-HR :0.91425: L2-HR :0.80445: (Sim:0h25m20s) 
CPU  3 inst:   34000005 cyc:   24410943 now IPC :1.10633: AVG IPC :1.36567: L2-Pf-HR :0.83312: L2-HR :0.77682: (Sim:0h25m41s) 
CPU  0 inst:   34000005 cyc:   24577930 now IPC :1.05058: AVG IPC :1.35600: L2-Pf-HR :0.81573: L2-HR :0.76752: (Sim:0h25m50s) 
CPU  1 inst:   34000005 cyc:   24744149 now IPC :1.20674: AVG IPC :1.34650: L2-Pf-HR :0.86119: L2-HR :0.78656: (Sim:0h26m0s) 
CPU  2 inst:   33000002 cyc:   25047953 now IPC :1.00558: AVG IPC :1.28798: L2-Pf-HR :0.91505: L2-HR :0.80480: (Sim:0h26m16s) 
CPU  3 inst:   35000005 cyc:   25294035 now IPC :1.13238: AVG IPC :1.35720: L2-Pf-HR :0.83358: L2-HR :0.77696: (Sim:0h26m30s) 
CPU  0 inst:   35000005 cyc:   25557806 now IPC :1.02054: AVG IPC :1.34262: L2-Pf-HR :0.81583: L2-HR :0.76720: (Sim:0h26m46s) 
CPU  1 inst:   35000005 cyc:   25677437 now IPC :1.07148: AVG IPC :1.33611: L2-Pf-HR :0.86132: L2-HR :0.78605: (Sim:0h26m52s) 
CPU  2 inst:   34000005 cyc:   26065300 now IPC :0.98295: AVG IPC :1.27561: L2-Pf-HR :0.91493: L2-HR :0.80506: (Sim:0h27m14s) 
CPU  3 inst:   36000002 cyc:   26086742 now IPC :1.26150: AVG IPC :1.35418: L2-Pf-HR :0.83398: L2-HR :0.77721: (Sim:0h27m15s) 
CPU  0 inst:   36000002 cyc:   26563907 now IPC :0.99393: AVG IPC :1.32891: L2-Pf-HR :0.81577: L2-HR :0.76718: (Sim:0h27m39s) 
CPU  1 inst:   36000000 cyc:   26674904 now IPC :1.00253: AVG IPC :1.32316: L2-Pf-HR :0.86277: L2-HR :0.78638: (Sim:0h27m46s) 
CPU  3 inst:   37000002 cyc:   27134099 now IPC :0.95478: AVG IPC :1.33819: L2-Pf-HR :0.83438: L2-HR :0.77762: (Sim:0h28m7s) 
CPU  2 inst:   35000005 cyc:   27369939 now IPC :0.76650: AVG IPC :1.25044: L2-Pf-HR :0.91594: L2-HR :0.80516: (Sim:0h28m18s) 
CPU  0 inst:   37000002 cyc:   27752721 now IPC :0.84117: AVG IPC :1.30726: L2-Pf-HR :0.81652: L2-HR :0.76782: (Sim:0h28m37s) 
CPU  1 inst:   37000002 cyc:   27977842 now IPC :0.76750: AVG IPC :1.29634: L2-Pf-HR :0.86079: L2-HR :0.78573: (Sim:0h28m49s) 
CPU  3 inst:   38000000 cyc:   28216909 now IPC :0.92352: AVG IPC :1.32170: L2-Pf-HR :0.83588: L2-HR :0.77849: (Sim:0h29m1s) 
CPU  2 inst:   36000002 cyc:   28589318 now IPC :0.82009: AVG IPC :1.23144: L2-Pf-HR :0.91717: L2-HR :0.80550: (Sim:0h29m20s) 
CPU  0 inst:   38000000 cyc:   28611338 now IPC :1.16466: AVG IPC :1.30282: L2-Pf-HR :0.81739: L2-HR :0.76861: (Sim:0h29m22s) 
CPU  1 inst:   38000000 cyc:   29099570 now IPC :0.89148: AVG IPC :1.28019: L2-Pf-HR :0.86010: L2-HR :0.78604: (Sim:0h29m47s) 
CPU  3 inst:   39000000 cyc:   29273395 now IPC :0.94653: AVG IPC :1.30769: L2-Pf-HR :0.83664: L2-HR :0.77897: (Sim:0h29m56s) 
CPU  0 inst:   39000000 cyc:   29544417 now IPC :1.07172: AVG IPC :1.29528: L2-Pf-HR :0.81745: L2-HR :0.76869: (Sim:0h30m11s) 
CPU  2 inst:   37000002 cyc:   29779786 now IPC :0.84001: AVG IPC :1.21526: L2-Pf-HR :0.91613: L2-HR :0.80520: (Sim:0h30m24s) 
CPU  1 inst:   39000000 cyc:   30041996 now IPC :1.06109: AVG IPC :1.27309: L2-Pf-HR :0.86027: L2-HR :0.78606: (Sim:0h30m40s) 
CPU  3 inst:   40000003 cyc:   30185028 now IPC :1.09694: AVG IPC :1.30111: L2-Pf-HR :0.83680: L2-HR :0.77971: (Sim:0h30m47s) 
CPU  0 inst:   40000003 cyc:   30450295 now IPC :1.10390: AVG IPC :1.28939: L2-Pf-HR :0.81657: L2-HR :0.76890: (Sim:0h31m2s) 
CPU  2 inst:   38000000 cyc:   30742312 now IPC :1.03893: AVG IPC :1.20955: L2-Pf-HR :0.91683: L2-HR :0.80545: (Sim:0h31m19s) 
CPU  1 inst:   40000003 cyc:   30970857 now IPC :1.07659: AVG IPC :1.26700: L2-Pf-HR :0.85965: L2-HR :0.78650: (Sim:0h31m32s) 
CPU  3 inst:   41000000 cyc:   31085443 now IPC :1.11060: AVG IPC :1.29542: L2-Pf-HR :0.83755: L2-HR :0.78029: (Sim:0h31m39s) 
CPU  0 inst:   41000000 cyc:   31313326 now IPC :1.15870: AVG IPC :1.28567: L2-Pf-HR :0.81727: L2-HR :0.76958: (Sim:0h31m52s) 
CPU  2 inst:   39000000 cyc:   31658238 now IPC :1.09179: AVG IPC :1.20604: L2-Pf-HR :0.91745: L2-HR :0.80549: (Sim:0h32m11s) 
CPU  1 inst:   41000000 cyc:   32014811 now IPC :0.95789: AVG IPC :1.25660: L2-Pf-HR :0.86100: L2-HR :0.78752: (Sim:0h32m29s) 
CPU  3 inst:   42000002 cyc:   32121969 now IPC :0.96476: AVG IPC :1.28441: L2-Pf-HR :0.83742: L2-HR :0.77991: (Sim:0h32m34s) 
CPU  0 inst:   42000001 cyc:   32377398 now IPC :0.93979: AVG IPC :1.27395: L2-Pf-HR :0.81812: L2-HR :0.76998: (Sim:0h32m47s) 
CPU  2 inst:   40000003 cyc:   32737972 now IPC :0.92616: AVG IPC :1.19652: L2-Pf-HR :0.91743: L2-HR :0.80612: (Sim:0h33m5s) 
CPU  3 inst:   43000003 cyc:   33081495 now IPC :1.04218: AVG IPC :1.27717: L2-Pf-HR :0.83832: L2-HR :0.77996: (Sim:0h33m23s) 
CPU  1 inst:   42000005 cyc:   33214583 now IPC :0.83350: AVG IPC :1.24086: L2-Pf-HR :0.86145: L2-HR :0.78790: (Sim:0h33m29s) 
CPU  0 inst:   43000003 cyc:   33463421 now IPC :0.92079: AVG IPC :1.26215: L2-Pf-HR :0.81871: L2-HR :0.77018: (Sim:0h33m43s) 
CPU  2 inst:   41000000 cyc:   33902513 now IPC :0.85870: AVG IPC :1.18457: L2-Pf-HR :0.91811: L2-HR :0.80623: (Sim:0h34m5s) 
CPU  3 inst:   44000000 cyc:   34031976 now IPC :1.05210: AVG IPC :1.27070: L2-Pf-HR :0.83861: L2-HR :0.77972: (Sim:0h34m12s) 
CPU  1 inst:   43000001 cyc:   34377110 now IPC :0.86019: AVG IPC :1.22760: L2-Pf-HR :0.86273: L2-HR :0.78844: (Sim:0h34m29s) 
CPU  0 inst:   44000000 cyc:   34445534 now IPC :1.01821: AVG IPC :1.25499: L2-Pf-HR :0.81982: L2-HR :0.77070: (Sim:0h34m33s) 
CPU  2 inst:   42000001 cyc:   35105427 now IPC :0.83132: AVG IPC :1.17212: L2-Pf-HR :0.91820: L2-HR :0.80626: (Sim:0h35m6s) 
CPU  3 inst:   45000003 cyc:   35153763 now IPC :0.89144: AVG IPC :1.25825: L2-Pf-HR :0.83932: L2-HR :0.78002: (Sim:0h35m9s) 
CPU  0 inst:   45000003 cyc:   35387304 now IPC :1.06183: AVG IPC :1.24970: L2-Pf-HR :0.82094: L2-HR :0.77107: (Sim:0h35m20s) 
CPU  1 inst:   44000000 cyc:   35531341 now IPC :0.86638: AVG IPC :1.21554: L2-Pf-HR :0.86362: L2-HR :0.78834: (Sim:0h35m28s) 
CPU  3 inst:   46000004 cyc:   36174391 now IPC :0.97979: AVG IPC :1.25017: L2-Pf-HR :0.83891: L2-HR :0.78010: (Sim:0h36m1s) 
CPU  2 inst:   43000003 cyc:   36318353 now IPC :0.82445: AVG IPC :1.16019: L2-Pf-HR :0.91877: L2-HR :0.80673: (Sim:0h36m8s) 
CPU  0 inst:   46000004 cyc:   36393388 now IPC :0.99395: AVG IPC :1.24243: L2-Pf-HR :0.82085: L2-HR :0.77136: (Sim:0h36m11s) 
CPU  1 inst:   45000003 cyc:   36625053 now IPC :0.91432: AVG IPC :1.20630: L2-Pf-HR :0.86405: L2-HR :0.78845: (Sim:0h36m23s) 
CPU  3 inst:   47000000 cyc:   37263235 now IPC :0.91840: AVG IPC :1.24022: L2-Pf-HR :0.83888: L2-HR :0.78010: (Sim:0h36m56s) 
CPU  0 inst:   47000000 cyc:   37437177 now IPC :0.95804: AVG IPC :1.23429: L2-Pf-HR :0.82093: L2-HR :0.77123: (Sim:0h37m6s) 
CPU  2 inst:   44000000 cyc:   37492161 now IPC :0.85193: AVG IPC :1.15028: L2-Pf-HR :0.91952: L2-HR :0.80680: (Sim:0h37m9s) 
CPU  1 inst:   46000004 cyc:   37622314 now IPC :1.00275: AVG IPC :1.20076: L2-Pf-HR :0.86392: L2-HR :0.78872: (Sim:0h37m16s) 
CPU  3 inst:   48000003 cyc:   38320853 now IPC :0.94552: AVG IPC :1.23187: L2-Pf-HR :0.83910: L2-HR :0.78014: (Sim:0h37m51s) 
CPU  0 inst:   48000003 cyc:   38431079 now IPC :1.00614: AVG IPC :1.22824: L2-Pf-HR :0.82048: L2-HR :0.77098: (Sim:0h37m58s) 
CPU  2 inst:   45000003 cyc:   38553523 now IPC :0.94219: AVG IPC :1.14440: L2-Pf-HR :0.92011: L2-HR :0.80701: (Sim:0h38m4s) 
CPU  1 inst:   47000000 cyc:   38756120 now IPC :0.88198: AVG IPC :1.19119: L2-Pf-HR :0.86339: L2-HR :0.78837: (Sim:0h38m12s) 
CPU  3 inst:   49000005 cyc:   39547330 now IPC :0.81535: AVG IPC :1.21863: L2-Pf-HR :0.83916: L2-HR :0.78033: (Sim:0h38m50s) 
CPU  1 inst:   48000003 cyc:   39782819 now IPC :0.97400: AVG IPC :1.18544: L2-Pf-HR :0.86413: L2-HR :0.78862: (Sim:0h39m2s) 
CPU  0 inst:   49000005 cyc:   39799282 now IPC :0.73089: AVG IPC :1.21071: L2-Pf-HR :0.82148: L2-HR :0.77145: (Sim:0h39m3s) 
CPU  2 inst:   46000004 cyc:   39858060 now IPC :0.76656: AVG IPC :1.13172: L2-Pf-HR :0.91985: L2-HR :0.80717: (Sim:0h39m6s) 
CPU  3 inst:   50000002 cyc:   40556795 now IPC :0.99062: AVG IPC :1.21281: L2-Pf-HR :0.84047: L2-HR :0.78089: (Sim:0h39m40s) 
CPU  0 inst:   50000002 cyc:   40970654 now IPC :0.85370: AVG IPC :1.20025: L2-Pf-HR :0.82268: L2-HR :0.77190: (Sim:0h40m1s) 
CPU  1 inst:   49000005 cyc:   41002817 now IPC :0.81968: AVG IPC :1.17429: L2-Pf-HR :0.86316: L2-HR :0.78814: (Sim:0h40m2s) 
CPU  2 inst:   47000000 cyc:   41165413 now IPC :0.76490: AVG IPC :1.11979: L2-Pf-HR :0.92058: L2-HR :0.80721: (Sim:0h40m11s) 
CPU  3 inst:   51000000 cyc:   41589467 now IPC :0.96836: AVG IPC :1.20659: L2-Pf-HR :0.84093: L2-HR :0.78125: (Sim:0h40m33s) 
CPU  0 inst:   51000000 cyc:   41867426 now IPC :1.11511: AVG IPC :1.19838: L2-Pf-HR :0.82241: L2-HR :0.77209: (Sim:0h40m46s) 
CPU  1 inst:   50000002 cyc:   42159815 now IPC :0.86430: AVG IPC :1.16558: L2-Pf-HR :0.86285: L2-HR :0.78814: (Sim:0h41m1s) 
CPU  2 inst:   48000002 cyc:   42567612 now IPC :0.71317: AVG IPC :1.10608: L2-Pf-HR :0.92133: L2-HR :0.80746: (Sim:0h41m18s) 
CPU  3 inst:   52000002 cyc:   42856722 now IPC :0.78911: AVG IPC :1.19396: L2-Pf-HR :0.84074: L2-HR :0.78156: (Sim:0h41m31s) 
CPU  0 inst:   52000002 cyc:   42996292 now IPC :0.88585: AVG IPC :1.18999: L2-Pf-HR :0.82224: L2-HR :0.77218: (Sim:0h41m36s) 
CPU  1 inst:   51000000 cyc:   43528985 now IPC :0.73037: AVG IPC :1.15158: L2-Pf-HR :0.86270: L2-HR :0.78809: (Sim:0h41m58s) 
CPU  2 inst:   49000005 cyc:   44043176 now IPC :0.67771: AVG IPC :1.09140: L2-Pf-HR :0.92080: L2-HR :0.80743: (Sim:0h42m22s) 
CPU  3 inst:   53000004 cyc:   44133903 now IPC :0.78298: AVG IPC :1.18180: L2-Pf-HR :0.84185: L2-HR :0.78203: (Sim:0h42m27s) 
CPU  0 inst:   53000004 cyc:   44258565 now IPC :0.79222: AVG IPC :1.17839: L2-Pf-HR :0.82304: L2-HR :0.77243: (Sim:0h42m34s) 
CPU  1 inst:   52000002 cyc:   44630111 now IPC :0.90816: AVG IPC :1.14544: L2-Pf-HR :0.86210: L2-HR :0.78827: (Sim:0h42m51s) 
CPU  2 inst:   50000002 cyc:   45142495 now IPC :0.90965: AVG IPC :1.08688: L2-Pf-HR :0.92132: L2-HR :0.80770: (Sim:0h43m16s) 
CPU  3 inst:   54000000 cyc:   45363253 now IPC :0.81343: AVG IPC :1.17159: L2-Pf-HR :0.84195: L2-HR :0.78168: (Sim:0h43m26s) 
CPU  0 inst:   54000000 cyc:   45458495 now IPC :0.83338: AVG IPC :1.16908: L2-Pf-HR :0.82373: L2-HR :0.77267: (Sim:0h43m31s) 
CPU  1 inst:   53000003 cyc:   45780252 now IPC :0.86946: AVG IPC :1.13835: L2-Pf-HR :0.86315: L2-HR :0.78898: (Sim:0h43m45s) 
CPU  2 inst:   51000000 cyc:   46409796 now IPC :0.78908: AVG IPC :1.07857: L2-Pf-HR :0.92160: L2-HR :0.80781: (Sim:0h44m4s) 
CPU  3 inst:   55000000 cyc:   46590460 now IPC :0.81486: AVG IPC :1.16200: L2-Pf-HR :0.84233: L2-HR :0.78164: (Sim:0h44m9s) 
CPU  0 inst:   55000000 cyc:   46682209 now IPC :0.81718: AVG IPC :1.15966: L2-Pf-HR :0.82403: L2-HR :0.77270: (Sim:0h44m12s) 
CPU  1 inst:   54000000 cyc:   46898285 now IPC :0.89443: AVG IPC :1.13241: L2-Pf-HR :0.86403: L2-HR :0.78929: (Sim:0h44m18s) 
CPU  2 inst:   52000002 cyc:   47707598 now IPC :0.77054: AVG IPC :1.07001: L2-Pf-HR :0.92153: L2-HR :0.80823: (Sim:0h44m41s) 
CPU  3 inst:   56000002 cyc:   47795539 now IPC :0.82982: AVG IPC :1.15345: L2-Pf-HR :0.84256: L2-HR :0.78128: (Sim:0h44m44s) 
CPU  0 inst:   56000002 cyc:   47902926 now IPC :0.81919: AVG IPC :1.15080: L2-Pf-HR :0.82479: L2-HR :0.77286: (Sim:0h44m48s) 
CPU  1 inst:   55000000 cyc:   47946252 now IPC :0.95423: AVG IPC :1.12844: L2-Pf-HR :0.86497: L2-HR :0.78958: (Sim:0h44m49s) 
CPU  3 inst:   57000000 cyc:   48789581 now IPC :1.00599: AVG IPC :1.15038: L2-Pf-HR :0.84291: L2-HR :0.78141: (Sim:0h45m14s) 
CPU  2 inst:   53000004 cyc:   48898063 now IPC :0.84001: AVG IPC :1.06430: L2-Pf-HR :0.92213: L2-HR :0.80840: (Sim:0h45m18s) 
CPU  0 inst:   57000000 cyc:   48975313 now IPC :0.93250: AVG IPC :1.14592: L2-Pf-HR :0.82503: L2-HR :0.77300: (Sim:0h45m20s) 
CPU  1 inst:   56000002 cyc:   49075696 now IPC :0.88539: AVG IPC :1.12273: L2-Pf-HR :0.86525: L2-HR :0.78943: (Sim:0h45m23s) 
CPU  3 inst:   58000000 cyc:   49774492 now IPC :1.01532: AVG IPC :1.14765: L2-Pf-HR :0.84214: L2-HR :0.78132: (Sim:0h45m44s) 
CPU  0 inst:   58000000 cyc:   49891141 now IPC :1.09191: AVG IPC :1.14491: L2-Pf-HR :0.82467: L2-HR :0.77324: (Sim:0h45m47s) 
CPU  2 inst:   54000000 cyc:   50253361 now IPC :0.73784: AVG IPC :1.05532: L2-Pf-HR :0.92230: L2-HR :0.80829: (Sim:0h45m57s) 
CPU  1 inst:   57000000 cyc:   50386428 now IPC :0.76293: AVG IPC :1.11319: L2-Pf-HR :0.86554: L2-HR :0.78964: (Sim:0h46m1s) 
CPU  3 inst:   59000005 cyc:   51117012 now IPC :0.74487: AVG IPC :1.13687: L2-Pf-HR :0.84245: L2-HR :0.78129: (Sim:0h46m20s) 
CPU  0 inst:   59000005 cyc:   51157671 now IPC :0.78956: AVG IPC :1.13594: L2-Pf-HR :0.82526: L2-HR :0.77303: (Sim:0h46m21s) 
CPU  2 inst:   55000000 cyc:   51601597 now IPC :0.74171: AVG IPC :1.04697: L2-Pf-HR :0.92290: L2-HR :0.80868: (Sim:0h46m33s) 
CPU  1 inst:   58000000 cyc:   51664676 now IPC :0.78232: AVG IPC :1.10484: L2-Pf-HR :0.86543: L2-HR :0.78980: (Sim:0h46m35s) 
CPU  0 inst:   60000005 cyc:   52458497 now IPC :0.76874: AVG IPC :1.12666: L2-Pf-HR :0.82525: L2-HR :0.77285: (Sim:0h46m56s) 
CPU  3 inst:   60000005 cyc:   52465781 now IPC :0.74142: AVG IPC :1.12651: L2-Pf-HR :0.84231: L2-HR :0.78104: (Sim:0h46m56s) 
CPU  2 inst:   56000002 cyc:   52900029 now IPC :0.77016: AVG IPC :1.04005: L2-Pf-HR :0.92340: L2-HR :0.80873: (Sim:0h47m7s) 
CPU  1 inst:   59000003 cyc:   53096152 now IPC :0.69858: AVG IPC :1.09368: L2-Pf-HR :0.86552: L2-HR :0.78952: (Sim:0h47m12s) 
CPU  3 inst:   61000004 cyc:   53751922 now IPC :0.77752: AVG IPC :1.11800: L2-Pf-HR :0.84080: L2-HR :0.78048: (Sim:0h47m30s) 
CPU  0 inst:   61000005 cyc:   53775589 now IPC :0.75925: AVG IPC :1.11750: L2-Pf-HR :0.82449: L2-HR :0.77237: (Sim:0h47m31s) 
CPU  2 inst:   57000000 cyc:   54327209 now IPC :0.70068: AVG IPC :1.03097: L2-Pf-HR :0.92362: L2-HR :0.80883: (Sim:0h47m46s) 
CPU  1 inst:   60000002 cyc:   54440810 now IPC :0.74368: AVG IPC :1.08488: L2-Pf-HR :0.86641: L2-HR :0.78962: (Sim:0h47m49s) 
CPU  3 inst:   62000001 cyc:   54869603 now IPC :0.89471: AVG IPC :1.11337: L2-Pf-HR :0.83856: L2-HR :0.77996: (Sim:0h48m1s) 
CPU  0 inst:   62000001 cyc:   54883913 now IPC :0.90226: AVG IPC :1.11307: L2-Pf-HR :0.82251: L2-HR :0.77202: (Sim:0h48m2s) 
CPU  2 inst:   58000000 cyc:   55638891 now IPC :0.76238: AVG IPC :1.02452: L2-Pf-HR :0.92322: L2-HR :0.80891: (Sim:0h48m24s) 
CPU  1 inst:   61000004 cyc:   55669342 now IPC :0.81398: AVG IPC :1.07879: L2-Pf-HR :0.86500: L2-HR :0.78849: (Sim:0h48m25s) 
CPU  0 inst:   63000001 cyc:   55817846 now IPC :1.07074: AVG IPC :1.11235: L2-Pf-HR :0.81952: L2-HR :0.77181: (Sim:0h48m30s) 
CPU  3 inst:   63000001 cyc:   55830347 now IPC :1.04086: AVG IPC :1.11210: L2-Pf-HR :0.83615: L2-HR :0.77981: (Sim:0h48m31s) 
CPU  0 inst:   64000000 cyc:   56643768 now IPC :1.21077: AVG IPC :1.11381: L2-Pf-HR :0.81603: L2-HR :0.77194: (Sim:0h48m56s) 
CPU  1 inst:   62000001 cyc:   56731165 now IPC :0.94177: AVG IPC :1.07618: L2-Pf-HR :0.86219: L2-HR :0.78769: (Sim:0h49m0s) 
CPU  3 inst:   64000000 cyc:   56731846 now IPC :1.10926: AVG IPC :1.11206: L2-Pf-HR :0.83334: L2-HR :0.77976: (Sim:0h49m0s) 
CPU  2 inst:   59000004 cyc:   57002509 now IPC :0.73335: AVG IPC :1.01744: L2-Pf-HR :0.92381: L2-HR :0.80898: (Sim:0h49m7s) 
CPU  1 inst:   63000004 cyc:   57623580 now IPC :1.12056: AVG IPC :1.07688: L2-Pf-HR :0.85934: L2-HR :0.78778: (Sim:0h49m24s) 
CPU  0 inst:   65000001 cyc:   58046257 now IPC :0.71302: AVG IPC :1.10396: L2-Pf-HR :0.81602: L2-HR :0.77217: (Sim:0h49m37s) 
CPU  3 inst:   65000001 cyc:   58065335 now IPC :0.74991: AVG IPC :1.10360: L2-Pf-HR :0.83190: L2-HR :0.77964: (Sim:0h49m38s) 
CPU  2 inst:   60000002 cyc:   58326988 now IPC :0.75501: AVG IPC :1.01137: L2-Pf-HR :0.92417: L2-HR :0.80910: (Sim:0h49m46s) 
CPU  1 inst:   64000003 cyc:   58398423 now IPC :1.29058: AVG IPC :1.07977: L2-Pf-HR :0.85599: L2-HR :0.78782: (Sim:0h49m48s) 
CPU  3 inst:   66000003 cyc:   59065988 now IPC :0.99935: AVG IPC :1.10180: L2-Pf-HR :0.83222: L2-HR :0.78073: (Sim:0h50m6s) 
CPU  0 inst:   66000003 cyc:   59239205 now IPC :0.83826: AVG IPC :1.09852: L2-Pf-HR :0.81682: L2-HR :0.77306: (Sim:0h50m11s) 
CPU  1 inst:   65000001 cyc:   59751305 now IPC :0.73916: AVG IPC :1.07193: L2-Pf-HR :0.85432: L2-HR :0.78772: (Sim:0h50m27s) 
CPU  2 inst:   61000000 cyc:   59773943 now IPC :0.69111: AVG IPC :1.00349: L2-Pf-HR :0.92265: L2-HR :0.80799: (Sim:0h50m28s) 
CPU  3 inst:   67000003 cyc:   60121989 now IPC :0.94697: AVG IPC :1.09904: L2-Pf-HR :0.83246: L2-HR :0.78137: (Sim:0h50m39s) 
CPU  0 inst:   67000003 cyc:   60408922 now IPC :0.85491: AVG IPC :1.09373: L2-Pf-HR :0.81763: L2-HR :0.77353: (Sim:0h50m46s) 
CPU  1 inst:   66000003 cyc:   60901676 now IPC :0.86929: AVG IPC :1.06804: L2-Pf-HR :0.85416: L2-HR :0.78856: (Sim:0h51m1s) 
CPU  2 inst:   62000001 cyc:   61004876 now IPC :0.81239: AVG IPC :0.99957: L2-Pf-HR :0.92031: L2-HR :0.80710: (Sim:0h51m4s) 
CPU  3 inst:   68000005 cyc:   61277007 now IPC :0.86579: AVG IPC :1.09457: L2-Pf-HR :0.83145: L2-HR :0.78188: (Sim:0h51m12s) 
CPU  0 inst:   68000004 cyc:   61508047 now IPC :0.90982: AVG IPC :1.09039: L2-Pf-HR :0.81601: L2-HR :0.77360: (Sim:0h51m20s) 
CPU  1 inst:   67000003 cyc:   61932852 now IPC :0.96977: AVG IPC :1.06637: L2-Pf-HR :0.85386: L2-HR :0.78908: (Sim:0h51m33s) 
CPU  2 inst:   63000001 cyc:   61976406 now IPC :1.02930: AVG IPC :1.00005: L2-Pf-HR :0.91779: L2-HR :0.80681: (Sim:0h51m35s) 
CPU  3 inst:   69000000 cyc:   62535260 now IPC :0.79475: AVG IPC :1.08844: L2-Pf-HR :0.83143: L2-HR :0.78238: (Sim:0h51m50s) 
CPU  0 inst:   69000000 cyc:   62681742 now IPC :0.85201: AVG IPC :1.08585: L2-Pf-HR :0.81677: L2-HR :0.77430: (Sim:0h51m55s) 
CPU  2 inst:   64000003 cyc:   62938042 now IPC :1.03990: AVG IPC :1.00067: L2-Pf-HR :0.91505: L2-HR :0.80701: (Sim:0h52m3s) 
CPU  1 inst:   68000004 cyc:   63187893 now IPC :0.79679: AVG IPC :1.06094: L2-Pf-HR :0.85252: L2-HR :0.78943: (Sim:0h52m11s) 
CPU  3 inst:   70000003 cyc:   63686140 now IPC :0.86890: AVG IPC :1.08441: L2-Pf-HR :0.83133: L2-HR :0.78285: (Sim:0h52m23s) 
CPU  0 inst:   70000003 cyc:   63890132 now IPC :0.82755: AVG IPC :1.08089: L2-Pf-HR :0.81725: L2-HR :0.77464: (Sim:0h52m29s) 
CPU  2 inst:   65000001 cyc:   64258570 now IPC :0.75727: AVG IPC :0.99559: L2-Pf-HR :0.91296: L2-HR :0.80695: (Sim:0h52m39s) 
CPU  1 inst:   69000000 cyc:   64476275 now IPC :0.77616: AVG IPC :1.05516: L2-Pf-HR :0.85292: L2-HR :0.79034: (Sim:0h52m45s) 
CPU  3 inst:   71000003 cyc:   65143978 now IPC :0.68595: AVG IPC :1.07536: L2-Pf-HR :0.83183: L2-HR :0.78266: (Sim:0h53m2s) 
CPU  0 inst:   71000003 cyc:   65270809 now IPC :0.72428: AVG IPC :1.07323: L2-Pf-HR :0.81783: L2-HR :0.77478: (Sim:0h53m5s) 
CPU  2 inst:   66000003 cyc:   65562407 now IPC :0.76697: AVG IPC :0.99097: L2-Pf-HR :0.91182: L2-HR :0.80748: (Sim:0h53m13s) 
CPU  1 inst:   70000003 cyc:   65913958 now IPC :0.69557: AVG IPC :1.04720: L2-Pf-HR :0.85318: L2-HR :0.79097: (Sim:0h53m22s) 
CPU  3 inst:   72000004 cyc:   66619896 now IPC :0.67755: AVG IPC :1.06641: L2-Pf-HR :0.83209: L2-HR :0.78259: (Sim:0h53m42s) 
CPU  2 inst:   67000003 cyc:   66630924 now IPC :0.93588: AVG IPC :0.99007: L2-Pf-HR :0.91181: L2-HR :0.80853: (Sim:0h53m42s) 
CPU  0 inst:   72000004 cyc:   66724369 now IPC :0.68797: AVG IPC :1.06471: L2-Pf-HR :0.81843: L2-HR :0.77490: (Sim:0h53m44s) 
CPU  1 inst:   71000002 cyc:   67345003 now IPC :0.69879: AVG IPC :1.03968: L2-Pf-HR :0.85390: L2-HR :0.79120: (Sim:0h54m1s) 
CPU  2 inst:   68000000 cyc:   67609445 now IPC :1.02195: AVG IPC :0.99054: L2-Pf-HR :0.90985: L2-HR :0.80906: (Sim:0h54m8s) 
CPU  3 inst:   73000000 cyc:   68204056 now IPC :0.63125: AVG IPC :1.05616: L2-Pf-HR :0.83235: L2-HR :0.78230: (Sim:0h54m22s) 
CPU  0 inst:   73000001 cyc:   68271690 now IPC :0.64628: AVG IPC :1.05509: L2-Pf-HR :0.81897: L2-HR :0.77509: (Sim:0h54m24s) 
CPU  1 inst:   72000004 cyc:   68976290 now IPC :0.61301: AVG IPC :1.02945: L2-Pf-HR :0.85447: L2-HR :0.79116: (Sim:0h54m39s) 
CPU  2 inst:   69000000 cyc:   69177735 now IPC :0.63764: AVG IPC :0.98243: L2-Pf-HR :0.90942: L2-HR :0.80938: (Sim:0h54m45s) 
CPU  3 inst:   74000001 cyc:   69626917 now IPC :0.70281: AVG IPC :1.04883: L2-Pf-HR :0.83105: L2-HR :0.78211: (Sim:0h54m58s) 
CPU  0 inst:   74000001 cyc:   69724049 now IPC :0.68853: AVG IPC :1.04735: L2-Pf-HR :0.81807: L2-HR :0.77519: (Sim:0h55m1s) 
CPU  1 inst:   73000005 cyc:   70336010 now IPC :0.73545: AVG IPC :1.02368: L2-Pf-HR :0.85449: L2-HR :0.79095: (Sim:0h55m17s) 
CPU  2 inst:   70000003 cyc:   70359174 now IPC :0.84643: AVG IPC :0.98011: L2-Pf-HR :0.90893: L2-HR :0.80996: (Sim:0h55m18s) 
CPU  3 inst:   75000001 cyc:   71163334 now IPC :0.65086: AVG IPC :1.04012: L2-Pf-HR :0.83142: L2-HR :0.78235: (Sim:0h55m38s) 
CPU  0 inst:   75000001 cyc:   71222353 now IPC :0.66742: AVG IPC :1.03924: L2-Pf-HR :0.81857: L2-HR :0.77541: (Sim:0h55m39s) 
CPU  1 inst:   74000001 cyc:   71486603 now IPC :0.86911: AVG IPC :1.02116: L2-Pf-HR :0.85315: L2-HR :0.79079: (Sim:0h55m45s) 
CPU  2 inst:   71000003 cyc:   71963943 now IPC :0.62314: AVG IPC :0.97204: L2-Pf-HR :0.90944: L2-HR :0.81008: (Sim:0h55m58s) 
CPU  1 inst:   75000001 cyc:   72561097 now IPC :0.93067: AVG IPC :1.01980: L2-Pf-HR :0.85330: L2-HR :0.79090: (Sim:0h56m15s) 
CPU  0 inst:   76000000 cyc:   72771216 now IPC :0.64563: AVG IPC :1.03075: L2-Pf-HR :0.81808: L2-HR :0.77498: (Sim:0h56m20s) 
CPU  3 inst:   76000000 cyc:   72784523 now IPC :0.61683: AVG IPC :1.03057: L2-Pf-HR :0.83077: L2-HR :0.78188: (Sim:0h56m20s) 
CPU  2 inst:   72000004 cyc:   73228778 now IPC :0.79062: AVG IPC :0.96886: L2-Pf-HR :0.90993: L2-HR :0.80996: (Sim:0h56m32s) 
CPU  1 inst:   76000000 cyc:   73968212 now IPC :0.71067: AVG IPC :1.01384: L2-Pf-HR :0.85304: L2-HR :0.79038: (Sim:0h56m50s) 
CPU  3 inst:   77000002 cyc:   74342481 now IPC :0.64187: AVG IPC :1.02231: L2-Pf-HR :0.82966: L2-HR :0.78143: (Sim:0h57m1s) 
CPU  0 inst:   77000002 cyc:   74343083 now IPC :0.63619: AVG IPC :1.02230: L2-Pf-HR :0.81797: L2-HR :0.77493: (Sim:0h57m1s) 
CPU  2 inst:   73000001 cyc:   74472801 now IPC :0.80384: AVG IPC :0.96607: L2-Pf-HR :0.91018: L2-HR :0.80985: (Sim:0h57m4s) 
CPU  1 inst:   77000002 cyc:   75606564 now IPC :0.61037: AVG IPC :1.00499: L2-Pf-HR :0.85209: L2-HR :0.79005: (Sim:0h57m30s) 
CPU  2 inst:   74000001 cyc:   75786904 now IPC :0.76098: AVG IPC :0.96247: L2-Pf-HR :0.90877: L2-HR :0.80992: (Sim:0h57m34s) 
CPU  3 inst:   78000000 cyc:   76025010 now IPC :0.59434: AVG IPC :1.01272: L2-Pf-HR :0.83033: L2-HR :0.78153: (Sim:0h57m40s) 
CPU  0 inst:   78000000 cyc:   76052939 now IPC :0.58484: AVG IPC :1.01234: L2-Pf-HR :0.81834: L2-HR :0.77477: (Sim:0h57m40s) 
CPU  1 inst:   78000000 cyc:   77181750 now IPC :0.63484: AVG IPC :0.99733: L2-Pf-HR :0.85174: L2-HR :0.78990: (Sim:0h58m8s) 
CPU  2 inst:   75000005 cyc:   77394852 now IPC :0.62191: AVG IPC :0.95530: L2-Pf-HR :0.90901: L2-HR :0.80980: (Sim:0h58m14s) 
CPU  0 inst:   79000000 cyc:   77407063 now IPC :0.73848: AVG IPC :1.00748: L2-Pf-HR :0.81818: L2-HR :0.77480: (Sim:0h58m14s) 
CPU  3 inst:   79000000 cyc:   77512823 now IPC :0.67213: AVG IPC :1.00609: L2-Pf-HR :0.83063: L2-HR :0.78166: (Sim:0h58m16s) 
CPU  1 inst:   79000000 cyc:   78441591 now IPC :0.79375: AVG IPC :0.99402: L2-Pf-HR :0.85153: L2-HR :0.78990: (Sim:0h58m43s) 
CPU  0 inst:   80000003 cyc:   78512409 now IPC :0.90470: AVG IPC :1.00602: L2-Pf-HR :0.81650: L2-HR :0.77459: (Sim:0h58m45s) 
CPU  3 inst:   80000003 cyc:   78679755 now IPC :0.85695: AVG IPC :1.00385: L2-Pf-HR :0.82959: L2-HR :0.78178: (Sim:0h58m51s) 
CPU  2 inst:   76000000 cyc:   78695427 now IPC :0.76889: AVG IPC :0.95218: L2-Pf-HR :0.90911: L2-HR :0.80957: (Sim:0h58m51s) 
CPU  1 inst:   80000003 cyc:   79462295 now IPC :0.97972: AVG IPC :0.99384: L2-Pf-HR :0.85014: L2-HR :0.78983: (Sim:0h59m14s) 
CPU  0 inst:   81000000 cyc:   79679953 now IPC :0.85650: AVG IPC :1.00380: L2-Pf-HR :0.81682: L2-HR :0.77480: (Sim:0h59m20s) 
CPU  3 inst:   81000004 cyc:   79815783 now IPC :0.88026: AVG IPC :1.00207: L2-Pf-HR :0.83002: L2-HR :0.78198: (Sim:0h59m24s) 
CPU  2 inst:   77000002 cyc:   79949992 now IPC :0.79709: AVG IPC :0.94972: L2-Pf-HR :0.90803: L2-HR :0.80929: (Sim:0h59m28s) 
CPU  1 inst:   81000002 cyc:   80620448 now IPC :0.86344: AVG IPC :0.99194: L2-Pf-HR :0.85067: L2-HR :0.79038: (Sim:0h59m47s) 
CPU  0 inst:   82000002 cyc:   80793487 now IPC :0.89804: AVG IPC :1.00232: L2-Pf-HR :0.81700: L2-HR :0.77487: (Sim:0h59m53s) 
CPU  3 inst:   82000002 cyc:   80924201 now IPC :0.90218: AVG IPC :1.00069: L2-Pf-HR :0.82990: L2-HR :0.78195: (Sim:0h59m56s) 
CPU  2 inst:   78000000 cyc:   81143741 now IPC :0.83770: AVG IPC :0.94805: L2-Pf-HR :0.90830: L2-HR :0.80918: (Sim:1h0m3s) 
CPU  1 inst:   82000001 cyc:   81779667 now IPC :0.86265: AVG IPC :0.99009: L2-Pf-HR :0.85118: L2-HR :0.79071: (Sim:1h0m21s) 
CPU  0 inst:   83000000 cyc:   81961243 now IPC :0.85634: AVG IPC :1.00022: L2-Pf-HR :0.81697: L2-HR :0.77453: (Sim:1h0m26s) 
CPU  3 inst:   83000000 cyc:   82069793 now IPC :0.87291: AVG IPC :0.99888: L2-Pf-HR :0.82981: L2-HR :0.78162: (Sim:1h0m30s) 
CPU  2 inst:   79000000 cyc:   82253737 now IPC :0.90090: AVG IPC :0.94741: L2-Pf-HR :0.90875: L2-HR :0.80931: (Sim:1h0m36s) 
CPU  1 inst:   83000000 cyc:   82964064 now IPC :0.84431: AVG IPC :0.98798: L2-Pf-HR :0.85154: L2-HR :0.79069: (Sim:1h0m58s) 
CPU  0 inst:   84000003 cyc:   83007780 now IPC :0.95554: AVG IPC :0.99965: L2-Pf-HR :0.81767: L2-HR :0.77496: (Sim:1h0m59s) 
CPU  3 inst:   84000003 cyc:   83120555 now IPC :0.95169: AVG IPC :0.99828: L2-Pf-HR :0.82976: L2-HR :0.78170: (Sim:1h1m3s) 
CPU  2 inst:   80000003 cyc:   83155879 now IPC :1.10848: AVG IPC :0.94918: L2-Pf-HR :0.90769: L2-HR :0.80961: (Sim:1h1m4s) 
CPU  0 inst:   85000004 cyc:   84006114 now IPC :1.00167: AVG IPC :0.99967: L2-Pf-HR :0.81789: L2-HR :0.77489: (Sim:1h1m42s) 
CPU  1 inst:   84000003 cyc:   84039329 now IPC :0.93001: AVG IPC :0.98723: L2-Pf-HR :0.85181: L2-HR :0.79079: (Sim:1h1m44s) 
CPU  2 inst:   81000000 cyc:   84185596 now IPC :0.97114: AVG IPC :0.94945: L2-Pf-HR :0.90800: L2-HR :0.80960: (Sim:1h1m51s) 
CPU  3 inst:   85000004 cyc:   84200453 now IPC :0.92601: AVG IPC :0.99734: L2-Pf-HR :0.82988: L2-HR :0.78148: (Sim:1h1m51s) 
CPU  0 inst:   86000001 cyc:   84964174 now IPC :1.04377: AVG IPC :1.00018: L2-Pf-HR :0.81712: L2-HR :0.77493: (Sim:1h2m30s) 
CPU  3 inst:   86000001 cyc:   85176415 now IPC :1.02463: AVG IPC :0.99766: L2-Pf-HR :0.82904: L2-HR :0.78147: (Sim:1h2m41s) 
CPU  1 inst:   85000004 cyc:   85195444 now IPC :0.86497: AVG IPC :0.98555: L2-Pf-HR :0.85209: L2-HR :0.79067: (Sim:1h2m42s) 
CPU  2 inst:   82000002 cyc:   85309527 now IPC :0.88974: AVG IPC :0.94865: L2-Pf-HR :0.90830: L2-HR :0.80967: (Sim:1h2m49s) 
CPU  0 inst:   87000000 cyc:   86021058 now IPC :0.94618: AVG IPC :0.99951: L2-Pf-HR :0.81759: L2-HR :0.77519: (Sim:1h3m24s) 
CPU  1 inst:   86000001 cyc:   86134828 now IPC :1.06452: AVG IPC :0.98642: L2-Pf-HR :0.85115: L2-HR :0.79065: (Sim:1h3m30s) 
CPU  3 inst:   87000003 cyc:   86145634 now IPC :1.03176: AVG IPC :0.99805: L2-Pf-HR :0.82975: L2-HR :0.78174: (Sim:1h3m31s) 
CPU  2 inst:   83000000 cyc:   86546492 now IPC :0.80843: AVG IPC :0.94662: L2-Pf-HR :0.90850: L2-HR :0.80957: (Sim:1h3m50s) 
CPU  1 inst:   87000000 cyc:   87094087 now IPC :1.04247: AVG IPC :0.98705: L2-Pf-HR :0.85113: L2-HR :0.79064: (Sim:1h4m16s) 
CPU  0 inst:   88000001 cyc:   87331848 now IPC :0.76290: AVG IPC :0.99591: L2-Pf-HR :0.81709: L2-HR :0.77485: (Sim:1h4m26s) 
CPU  3 inst:   88000001 cyc:   87377095 now IPC :0.81204: AVG IPC :0.99540: L2-Pf-HR :0.82933: L2-HR :0.78145: (Sim:1h4m28s) 
CPU  2 inst:   84000003 cyc:   87760609 now IPC :0.82365: AVG IPC :0.94490: L2-Pf-HR :0.90886: L2-HR :0.80962: (Sim:1h4m47s) 
CPU  1 inst:   88000001 cyc:   88412195 now IPC :0.75866: AVG IPC :0.98360: L2-Pf-HR :0.85118: L2-HR :0.79055: (Sim:1h5m13s) 
CPU  0 inst:   89000002 cyc:   88692925 now IPC :0.73471: AVG IPC :0.99186: L2-Pf-HR :0.81771: L2-HR :0.77521: (Sim:1h5m27s) 
CPU  3 inst:   89000002 cyc:   88706383 now IPC :0.75228: AVG IPC :0.99171: L2-Pf-HR :0.82968: L2-HR :0.78174: (Sim:1h5m28s) 
CPU  2 inst:   85000004 cyc:   88990276 now IPC :0.81323: AVG IPC :0.94306: L2-Pf-HR :0.90924: L2-HR :0.80960: (Sim:1h5m40s) 
CPU  1 inst:   89000002 cyc:   89855633 now IPC :0.69279: AVG IPC :0.97888: L2-Pf-HR :0.85103: L2-HR :0.79048: (Sim:1h6m19s) 
CPU  2 inst:   86000001 cyc:   89988530 now IPC :1.00175: AVG IPC :0.94372: L2-Pf-HR :0.90825: L2-HR :0.80975: (Sim:1h6m24s) 
CPU  3 inst:   90000002 cyc:   90087079 now IPC :0.72427: AVG IPC :0.98757: L2-Pf-HR :0.83033: L2-HR :0.78188: (Sim:1h6m28s) 
CPU  0 inst:   90000002 cyc:   90150404 now IPC :0.68612: AVG IPC :0.98686: L2-Pf-HR :0.81786: L2-HR :0.77523: (Sim:1h6m31s) 
CPU  1 inst:   90000002 cyc:   91124469 now IPC :0.78812: AVG IPC :0.97620: L2-Pf-HR :0.85062: L2-HR :0.79039: (Sim:1h7m17s) 
CPU  3 inst:   91000002 cyc:   91200291 now IPC :0.89830: AVG IPC :0.98647: L2-Pf-HR :0.83056: L2-HR :0.78220: (Sim:1h7m21s) 
CPU  2 inst:   87000004 cyc:   91270835 now IPC :0.77985: AVG IPC :0.94139: L2-Pf-HR :0.90878: L2-HR :0.80985: (Sim:1h7m24s) 
CPU  0 inst:   91000002 cyc:   91309807 now IPC :0.86251: AVG IPC :0.98527: L2-Pf-HR :0.81756: L2-HR :0.77551: (Sim:1h7m26s) 
CPU  3 inst:   92000002 cyc:   92162514 now IPC :1.03926: AVG IPC :0.98702: L2-Pf-HR :0.82986: L2-HR :0.78234: (Sim:1h8m9s) 
CPU  1 inst:   91000000 cyc:   92173848 now IPC :0.95294: AVG IPC :0.97593: L2-Pf-HR :0.85044: L2-HR :0.79054: (Sim:1h8m10s) 
CPU  0 inst:   92000002 cyc:   92332180 now IPC :0.97812: AVG IPC :0.98519: L2-Pf-HR :0.81629: L2-HR :0.77541: (Sim:1h8m16s) 
CPU  2 inst:   88000001 cyc:   92414254 now IPC :0.87457: AVG IPC :0.94056: L2-Pf-HR :0.90924: L2-HR :0.80981: (Sim:1h8m19s) 
CPU  1 inst:   92000002 cyc:   93117185 now IPC :1.06007: AVG IPC :0.97679: L2-Pf-HR :0.84930: L2-HR :0.79053: (Sim:1h8m41s) 
CPU  3 inst:   93000004 cyc:   93258750 now IPC :0.91221: AVG IPC :0.98613: L2-Pf-HR :0.83030: L2-HR :0.78259: (Sim:1h8m45s) 
CPU  0 inst:   93000003 cyc:   93346278 now IPC :0.98610: AVG IPC :0.98520: L2-Pf-HR :0.81657: L2-HR :0.77569: (Sim:1h8m48s) 
CPU  2 inst:   89000002 cyc:   93622006 now IPC :0.82799: AVG IPC :0.93909: L2-Pf-HR :0.90896: L2-HR :0.80985: (Sim:1h8m56s) 
CPU  1 inst:   93000004 cyc:   94160597 now IPC :0.95840: AVG IPC :0.97658: L2-Pf-HR :0.84983: L2-HR :0.79098: (Sim:1h9m12s) 
CPU  3 inst:   94000000 cyc:   94333768 now IPC :0.93021: AVG IPC :0.98549: L2-Pf-HR :0.83027: L2-HR :0.78262: (Sim:1h9m18s) 
CPU  0 inst:   94000000 cyc:   94396277 now IPC :0.95238: AVG IPC :0.98483: L2-Pf-HR :0.81686: L2-HR :0.77591: (Sim:1h9m20s) 
CPU  2 inst:   90000002 cyc:   94797629 now IPC :0.85061: AVG IPC :0.93798: L2-Pf-HR :0.90931: L2-HR :0.80980: (Sim:1h9m31s) 
CPU  1 inst:   94000000 cyc:   95251271 now IPC :0.91686: AVG IPC :0.97589: L2-Pf-HR :0.85037: L2-HR :0.79143: (Sim:1h9m45s) 
CPU  3 inst:   95000000 cyc:   95520765 now IPC :0.84246: AVG IPC :0.98370: L2-Pf-HR :0.83065: L2-HR :0.78243: (Sim:1h9m53s) 
CPU  0 inst:   95000000 cyc:   95544933 now IPC :0.87058: AVG IPC :0.98344: L2-Pf-HR :0.81696: L2-HR :0.77566: (Sim:1h9m53s) 
CPU  2 inst:   91000000 cyc:   95827910 now IPC :0.97061: AVG IPC :0.93834: L2-Pf-HR :0.90967: L2-HR :0.80985: (Sim:1h10m1s) 
CPU  1 inst:   95000000 cyc:   96551077 now IPC :0.76935: AVG IPC :0.97308: L2-Pf-HR :0.85100: L2-HR :0.79156: (Sim:1h10m22s) 
CPU  2 inst:   92000002 cyc:   96668325 now IPC :1.18989: AVG IPC :0.94055: L2-Pf-HR :0.90867: L2-HR :0.81008: (Sim:1h10m26s) 
CPU  3 inst:   96000000 cyc:   96763413 now IPC :0.80473: AVG IPC :0.98137: L2-Pf-HR :0.83098: L2-HR :0.78228: (Sim:1h10m29s) 
CPU  0 inst:   96000000 cyc:   96880621 now IPC :0.74868: AVG IPC :0.98017: L2-Pf-HR :0.81780: L2-HR :0.77581: (Sim:1h10m32s) 
CPU  3 inst:   97000000 cyc:   97721344 now IPC :1.04392: AVG IPC :0.98199: L2-Pf-HR :0.83097: L2-HR :0.78211: (Sim:1h10m57s) 
CPU  1 inst:   96000000 cyc:   97742534 now IPC :0.83931: AVG IPC :0.97144: L2-Pf-HR :0.85148: L2-HR :0.79154: (Sim:1h10m58s) 
CPU  2 inst:   93000004 cyc:   97834394 now IPC :0.85758: AVG IPC :0.93955: L2-Pf-HR :0.90900: L2-HR :0.81012: (Sim:1h11m0s) 
CPU  0 inst:   97000000 cyc:   97972008 now IPC :0.91627: AVG IPC :0.97945: L2-Pf-HR :0.81790: L2-HR :0.77564: (Sim:1h11m4s) 
CPU  3 inst:   98000002 cyc:   98625038 now IPC :1.10657: AVG IPC :0.98315: L2-Pf-HR :0.82994: L2-HR :0.78202: (Sim:1h11m26s) 
CPU  1 inst:   97000000 cyc:   98837482 now IPC :0.91329: AVG IPC :0.97079: L2-Pf-HR :0.85175: L2-HR :0.79149: (Sim:1h11m33s) 
CPU  0 inst:   98000001 cyc:   98880750 now IPC :1.10042: AVG IPC :0.98057: L2-Pf-HR :0.81693: L2-HR :0.77570: (Sim:1h11m35s) 
CPU  2 inst:   94000000 cyc:   98937363 now IPC :0.90664: AVG IPC :0.93918: L2-Pf-HR :0.90940: L2-HR :0.81025: (Sim:1h11m37s) 
CPU  3 inst:   99000005 cyc:   99600533 now IPC :1.02512: AVG IPC :0.98356: L2-Pf-HR :0.83055: L2-HR :0.78226: (Sim:1h11m58s) 
CPU  1 inst:   98000000 cyc:   99726305 now IPC :1.12508: AVG IPC :0.97217: L2-Pf-HR :0.85085: L2-HR :0.79149: (Sim:1h12m2s) 
CPU  0 inst:   99000005 cyc:   99808895 now IPC :1.07742: AVG IPC :0.98148: L2-Pf-HR :0.81746: L2-HR :0.77590: (Sim:1h12m6s) 
CPU  2 inst:   95000000 cyc:  100018013 now IPC :0.92537: AVG IPC :0.93903: L2-Pf-HR :0.90963: L2-HR :0.81020: (Sim:1h12m12s) 
CPU  1 inst:   99000002 cyc:  100638829 now IPC :1.09586: AVG IPC :0.97331: L2-Pf-HR :0.85121: L2-HR :0.79153: (Sim:1h12m35s) 
CPU  3 inst:  100000000 cyc:  100687252 now IPC :0.92020: AVG IPC :0.98287: L2-Pf-HR :0.83034: L2-HR :0.78206: (Sim:1h12m37s) 
CPU  0 inst:  100000000 cyc:  100760833 now IPC :1.05048: AVG IPC :0.98214: L2-Pf-HR :0.81697: L2-HR :0.77559: (Sim:1h12m41s) 
CPU  2 inst:   96000000 cyc:  101087608 now IPC :0.93493: AVG IPC :0.93898: L2-Pf-HR :0.91006: L2-HR :0.81030: (Sim:1h12m58s) 
CPU  1 inst:  100000000 cyc:  101833775 now IPC :0.83686: AVG IPC :0.97169: L2-Pf-HR :0.85140: L2-HR :0.79136: (Sim:1h13m31s) 
CPU  3 inst:  101000004 cyc:  101858136 now IPC :0.85406: AVG IPC :0.98138: L2-Pf-HR :0.83024: L2-HR :0.78233: (Sim:1h13m32s) 
CPU  0 inst:  101000004 cyc:  101987559 now IPC :0.81518: AVG IPC :0.98011: L2-Pf-HR :0.81699: L2-HR :0.77580: (Sim:1h13m39s) 
CPU  2 inst:   97000000 cyc:  102281499 now IPC :0.83760: AVG IPC :0.93779: L2-Pf-HR :0.91036: L2-HR :0.81027: (Sim:1h13m54s) 
CPU  1 inst:  101000004 cyc:  102979669 now IPC :0.87268: AVG IPC :0.97058: L2-Pf-HR :0.85128: L2-HR :0.79138: (Sim:1h14m29s) 
CPU  3 inst:  102000004 cyc:  102982779 now IPC :0.88917: AVG IPC :0.98036: L2-Pf-HR :0.83093: L2-HR :0.78260: (Sim:1h14m30s) 
CPU  0 inst:  102000004 cyc:  103054826 now IPC :0.93697: AVG IPC :0.97966: L2-Pf-HR :0.81714: L2-HR :0.77591: (Sim:1h14m34s) 
CPU  2 inst:   98000002 cyc:  103152188 now IPC :1.14852: AVG IPC :0.93958: L2-Pf-HR :0.90957: L2-HR :0.81046: (Sim:1h14m39s) 
CPU  1 inst:  102000004 cyc:  103906486 now IPC :1.07896: AVG IPC :0.97155: L2-Pf-HR :0.85122: L2-HR :0.79134: (Sim:1h15m10s) 
CPU  3 inst:  103000004 cyc:  103967124 now IPC :1.01590: AVG IPC :0.98070: L2-Pf-HR :0.83099: L2-HR :0.78269: (Sim:1h15m12s) 
CPU  0 inst:  103000004 cyc:  104089427 now IPC :0.96656: AVG IPC :0.97953: L2-Pf-HR :0.81708: L2-HR :0.77604: (Sim:1h15m17s) 
CPU  2 inst:   99000002 cyc:  104098327 now IPC :1.05693: AVG IPC :0.94066: L2-Pf-HR :0.90989: L2-HR :0.81054: (Sim:1h15m17s) 
CPU  3 inst:  104000000 cyc:  104868434 now IPC :1.10949: AVG IPC :0.98182: L2-Pf-HR :0.83021: L2-HR :0.78283: (Sim:1h15m41s) 
CPU  1 inst:  103000004 cyc:  104932314 now IPC :0.97482: AVG IPC :0.97159: L2-Pf-HR :0.85126: L2-HR :0.79133: (Sim:1h15m43s) 
CPU  0 inst:  104000000 cyc:  105065044 now IPC :1.02499: AVG IPC :0.97996: L2-Pf-HR :0.81581: L2-HR :0.77593: (Sim:1h15m48s) 
CPU  2 inst:  100000000 cyc:  105160571 now IPC :0.94140: AVG IPC :0.94067: L2-Pf-HR :0.91032: L2-HR :0.81053: (Sim:1h15m51s) 
CPU  1 inst:  104000004 cyc:  105830353 now IPC :1.11354: AVG IPC :0.97280: L2-Pf-HR :0.85028: L2-HR :0.79140: (Sim:1h16m12s) 
CPU  3 inst:  105000004 cyc:  105913074 now IPC :0.95727: AVG IPC :0.98157: L2-Pf-HR :0.83057: L2-HR :0.78298: (Sim:1h16m14s) 
CPU  0 inst:  105000004 cyc:  106090439 now IPC :0.97524: AVG IPC :0.97991: L2-Pf-HR :0.81612: L2-HR :0.77601: (Sim:1h16m20s) 
CPU  2 inst:  101000004 cyc:  106332392 now IPC :0.85338: AVG IPC :0.93970: L2-Pf-HR :0.90997: L2-HR :0.81052: (Sim:1h16m27s) 
CPU  1 inst:  105000004 cyc:  106887432 now IPC :0.94600: AVG IPC :0.97253: L2-Pf-HR :0.85102: L2-HR :0.79179: (Sim:1h16m43s) 
CPU  3 inst:  106000002 cyc:  107044529 now IPC :0.88382: AVG IPC :0.98053: L2-Pf-HR :0.83082: L2-HR :0.78292: (Sim:1h16m48s) 
CPU  0 inst:  106000002 cyc:  107156161 now IPC :0.93833: AVG IPC :0.97949: L2-Pf-HR :0.81645: L2-HR :0.77610: (Sim:1h16m51s) 
CPU  2 inst:  102000004 cyc:  107463333 now IPC :0.88422: AVG IPC :0.93911: L2-Pf-HR :0.91022: L2-HR :0.81048: (Sim:1h17m0s) 
CPU  1 inst:  106000002 cyc:  108022802 now IPC :0.88077: AVG IPC :0.97156: L2-Pf-HR :0.85164: L2-HR :0.79195: (Sim:1h17m17s) 
CPU  3 inst:  107000002 cyc:  108230944 now IPC :0.84288: AVG IPC :0.97901: L2-Pf-HR :0.83103: L2-HR :0.78271: (Sim:1h17m23s) 
CPU  0 inst:  107000002 cyc:  108262153 now IPC :0.90417: AVG IPC :0.97872: L2-Pf-HR :0.81642: L2-HR :0.77589: (Sim:1h17m24s) 
CPU  2 inst:  103000001 cyc:  108567489 now IPC :0.90567: AVG IPC :0.93876: L2-Pf-HR :0.91058: L2-HR :0.81052: (Sim:1h17m33s) 
CPU  1 inst:  107000002 cyc:  109211325 now IPC :0.84138: AVG IPC :0.97013: L2-Pf-HR :0.85210: L2-HR :0.79203: (Sim:1h17m51s) 
CPU  3 inst:  108000000 cyc:  109357022 now IPC :0.88804: AVG IPC :0.97806: L2-Pf-HR :0.83112: L2-HR :0.78266: (Sim:1h17m57s) 
CPU  0 inst:  108000000 cyc:  109435727 now IPC :0.85210: AVG IPC :0.97735: L2-Pf-HR :0.81701: L2-HR :0.77618: (Sim:1h17m59s) 
CPU  2 inst:  104000000 cyc:  109477809 now IPC :1.09851: AVG IPC :0.94010: L2-Pf-HR :0.90979: L2-HR :0.81079: (Sim:1h18m0s) 
CPU  1 inst:  108000000 cyc:  110274458 now IPC :0.94061: AVG IPC :0.96984: L2-Pf-HR :0.85234: L2-HR :0.79200: (Sim:1h18m25s) 
CPU  2 inst:  105000004 cyc:  110460608 now IPC :1.01751: AVG IPC :0.94080: L2-Pf-HR :0.90999: L2-HR :0.81079: (Sim:1h18m30s) 
CPU  3 inst:  109000004 cyc:  110480165 now IPC :0.89036: AVG IPC :0.97716: L2-Pf-HR :0.83121: L2-HR :0.78253: (Sim:1h18m31s) 
CPU  0 inst:  109000004 cyc:  110562323 now IPC :0.88763: AVG IPC :0.97643: L2-Pf-HR :0.81737: L2-HR :0.77610: (Sim:1h18m34s) 
CPU  1 inst:  109000002 cyc:  111470781 now IPC :0.83590: AVG IPC :0.96839: L2-Pf-HR :0.85266: L2-HR :0.79196: (Sim:1h19m2s) 
CPU  3 inst:  110000001 cyc:  111476811 now IPC :1.00336: AVG IPC :0.97740: L2-Pf-HR :0.83027: L2-HR :0.78241: (Sim:1h19m2s) 
CPU  0 inst:  110000000 cyc:  111568418 now IPC :0.99394: AVG IPC :0.97659: L2-Pf-HR :0.81646: L2-HR :0.77603: (Sim:1h19m5s) 
CPU  2 inst:  106000002 cyc:  111584288 now IPC :0.88993: AVG IPC :0.94028: L2-Pf-HR :0.91027: L2-HR :0.81085: (Sim:1h19m6s) 
CPU  1 inst:  110000001 cyc:  112380368 now IPC :1.09940: AVG IPC :0.96946: L2-Pf-HR :0.85205: L2-HR :0.79190: (Sim:1h19m32s) 
CPU  3 inst:  111000001 cyc:  112410742 now IPC :1.07074: AVG IPC :0.97818: L2-Pf-HR :0.83063: L2-HR :0.78268: (Sim:1h19m33s) 
CPU  0 inst:  111000004 cyc:  112529353 now IPC :1.04066: AVG IPC :0.97714: L2-Pf-HR :0.81682: L2-HR :0.77626: (Sim:1h19m38s) 
CPU  2 inst:  107000002 cyc:  112621991 now IPC :0.96367: AVG IPC :0.94050: L2-Pf-HR :0.91043: L2-HR :0.81080: (Sim:1h19m40s) 
CPU  1 inst:  111000002 cyc:  113349597 now IPC :1.03175: AVG IPC :0.97000: L2-Pf-HR :0.85221: L2-HR :0.79199: (Sim:1h20m15s) 
CPU  3 inst:  112000001 cyc:  113430107 now IPC :0.98100: AVG IPC :0.97821: L2-Pf-HR :0.83067: L2-HR :0.78243: (Sim:1h20m19s) 
CPU  0 inst:  112000001 cyc:  113565273 now IPC :0.96532: AVG IPC :0.97703: L2-Pf-HR :0.81664: L2-HR :0.77593: (Sim:1h20m26s) 
CPU  2 inst:  108000000 cyc:  113602621 now IPC :1.01975: AVG IPC :0.94119: L2-Pf-HR :0.91077: L2-HR :0.81084: (Sim:1h20m28s) 
CPU  3 inst:  113000002 cyc:  114607364 now IPC :0.84943: AVG IPC :0.97687: L2-Pf-HR :0.83085: L2-HR :0.78257: (Sim:1h21m14s) 
CPU  1 inst:  112000001 cyc:  114607961 now IPC :0.79468: AVG IPC :0.96806: L2-Pf-HR :0.85257: L2-HR :0.79182: (Sim:1h21m14s) 
CPU  2 inst:  109000001 cyc:  114722507 now IPC :0.89295: AVG IPC :0.94072: L2-Pf-HR :0.91097: L2-HR :0.81084: (Sim:1h21m20s) 
CPU  0 inst:  113000002 cyc:  114866799 now IPC :0.76833: AVG IPC :0.97464: L2-Pf-HR :0.81729: L2-HR :0.77633: (Sim:1h21m28s) 
CPU  3 inst:  114000001 cyc:  115598984 now IPC :1.00845: AVG IPC :0.97714: L2-Pf-HR :0.83104: L2-HR :0.78266: (Sim:1h22m2s) 
CPU  2 inst:  110000001 cyc:  115742169 now IPC :0.98072: AVG IPC :0.94107: L2-Pf-HR :0.91020: L2-HR :0.81097: (Sim:1h22m9s) 
CPU  1 inst:  113000002 cyc:  115919605 now IPC :0.76240: AVG IPC :0.96571: L2-Pf-HR :0.85254: L2-HR :0.79179: (Sim:1h22m18s) 
CPU  0 inst:  114000001 cyc:  116181982 now IPC :0.76035: AVG IPC :0.97220: L2-Pf-HR :0.81751: L2-HR :0.77631: (Sim:1h22m30s) 
CPU  3 inst:  115000003 cyc:  116591670 now IPC :1.00737: AVG IPC :0.97740: L2-Pf-HR :0.83116: L2-HR :0.78283: (Sim:1h22m50s) 
CPU  2 inst:  111000001 cyc:  117037313 now IPC :0.77211: AVG IPC :0.93919: L2-Pf-HR :0.91051: L2-HR :0.81101: (Sim:1h23m9s) 
CPU  1 inst:  114000001 cyc:  117110307 now IPC :0.83984: AVG IPC :0.96442: L2-Pf-HR :0.85216: L2-HR :0.79174: (Sim:1h23m13s) 
CPU  0 inst:  115000003 cyc:  117440773 now IPC :0.79441: AVG IPC :0.97028: L2-Pf-HR :0.81757: L2-HR :0.77638: (Sim:1h23m29s) 
CPU  3 inst:  116000003 cyc:  117723190 now IPC :0.88377: AVG IPC :0.97650: L2-Pf-HR :0.83055: L2-HR :0.78292: (Sim:1h23m42s) 
CPU  2 inst:  112000001 cyc:  118422815 now IPC :0.72176: AVG IPC :0.93662: L2-Pf-HR :0.91082: L2-HR :0.81092: (Sim:1h24m12s) 
CPU  1 inst:  115000003 cyc:  118431060 now IPC :0.75715: AVG IPC :0.96209: L2-Pf-HR :0.85243: L2-HR :0.79176: (Sim:1h24m12s) 
CPU  0 inst:  116000003 cyc:  118695855 now IPC :0.79676: AVG IPC :0.96843: L2-Pf-HR :0.81655: L2-HR :0.77631: (Sim:1h24m24s) 
CPU  3 inst:  117000003 cyc:  119207670 now IPC :0.67364: AVG IPC :0.97269: L2-Pf-HR :0.83086: L2-HR :0.78303: (Sim:1h24m45s) 
CPU  1 inst:  116000003 cyc:  119450508 now IPC :0.98092: AVG IPC :0.96225: L2-Pf-HR :0.85170: L2-HR :0.79181: (Sim:1h24m58s) 
CPU  2 inst:  113000002 cyc:  119821443 now IPC :0.71499: AVG IPC :0.93401: L2-Pf-HR :0.91061: L2-HR :0.81105: (Sim:1h25m16s) 
CPU  0 inst:  117000003 cyc:  119998370 now IPC :0.76775: AVG IPC :0.96623: L2-Pf-HR :0.81653: L2-HR :0.77642: (Sim:1h25m24s) 
CPU  3 inst:  118000005 cyc:  120287096 now IPC :0.92642: AVG IPC :0.97227: L2-Pf-HR :0.83097: L2-HR :0.78314: (Sim:1h25m39s) 
CPU  1 inst:  117000003 cyc:  120476100 now IPC :0.97505: AVG IPC :0.96236: L2-Pf-HR :0.85226: L2-HR :0.79203: (Sim:1h25m48s) 
CPU  2 inst:  114000003 cyc:  120971815 now IPC :0.86928: AVG IPC :0.93339: L2-Pf-HR :0.91094: L2-HR :0.81112: (Sim:1h26m13s) 
CPU  0 inst:  118000005 cyc:  121054796 now IPC :0.94659: AVG IPC :0.96606: L2-Pf-HR :0.81692: L2-HR :0.77671: (Sim:1h26m17s) 
CPU  1 inst:  118000005 cyc:  121422513 now IPC :1.05662: AVG IPC :0.96310: L2-Pf-HR :0.85277: L2-HR :0.79241: (Sim:1h26m35s) 
CPU  3 inst:  119000000 cyc:  121509817 now IPC :0.81784: AVG IPC :0.97071: L2-Pf-HR :0.83132: L2-HR :0.78305: (Sim:1h26m38s) 
CPU  0 inst:  119000000 cyc:  122139684 now IPC :0.92175: AVG IPC :0.96566: L2-Pf-HR :0.81705: L2-HR :0.77654: (Sim:1h27m9s) 
CPU  2 inst:  115000003 cyc:  122172107 now IPC :0.83313: AVG IPC :0.93240: L2-Pf-HR :0.91111: L2-HR :0.81115: (Sim:1h27m11s) 
CPU  1 inst:  119000000 cyc:  122603147 now IPC :0.84700: AVG IPC :0.96198: L2-Pf-HR :0.85323: L2-HR :0.79251: (Sim:1h27m31s) 
CPU  3 inst:  120000001 cyc:  122633803 now IPC :0.88969: AVG IPC :0.96996: L2-Pf-HR :0.83122: L2-HR :0.78297: (Sim:1h27m32s) 
CPU  2 inst:  116000003 cyc:  123171810 now IPC :1.00030: AVG IPC :0.93295: L2-Pf-HR :0.91037: L2-HR :0.81138: (Sim:1h28m2s) 
CPU  0 inst:  120000004 cyc:  123222693 now IPC :0.92336: AVG IPC :0.96528: L2-Pf-HR :0.81735: L2-HR :0.77666: (Sim:1h28m4s) 
CPU  1 inst:  120000004 cyc:  123628656 now IPC :0.97513: AVG IPC :0.96209: L2-Pf-HR :0.85318: L2-HR :0.79248: (Sim:1h28m23s) 
CPU  3 inst:  121000003 cyc:  123798828 now IPC :0.85835: AVG IPC :0.96890: L2-Pf-HR :0.83114: L2-HR :0.78295: (Sim:1h28m31s) 
CPU  0 inst:  121000001 cyc:  124249794 now IPC :0.97361: AVG IPC :0.96535: L2-Pf-HR :0.81732: L2-HR :0.77656: (Sim:1h28m51s) 
CPU  2 inst:  117000003 cyc:  124605242 now IPC :0.69763: AVG IPC :0.93023: L2-Pf-HR :0.91062: L2-HR :0.81133: (Sim:1h29m7s) 
CPU  3 inst:  122000005 cyc:  124912604 now IPC :0.89785: AVG IPC :0.96826: L2-Pf-HR :0.83032: L2-HR :0.78282: (Sim:1h29m23s) 
CPU  1 inst:  121000000 cyc:  124952655 now IPC :0.75528: AVG IPC :0.95988: L2-Pf-HR :0.85351: L2-HR :0.79252: (Sim:1h29m25s) 
CPU  0 inst:  122000004 cyc:  125351821 now IPC :0.90742: AVG IPC :0.96484: L2-Pf-HR :0.81678: L2-HR :0.77656: (Sim:1h29m43s) 
CPU  2 inst:  118000005 cyc:  125827333 now IPC :0.81827: AVG IPC :0.92913: L2-Pf-HR :0.91085: L2-HR :0.81141: (Sim:1h30m8s) 
CPU  3 inst:  123000000 cyc:  125845979 now IPC :1.07138: AVG IPC :0.96903: L2-Pf-HR :0.83077: L2-HR :0.78298: (Sim:1h30m9s) 
CPU  1 inst:  122000005 cyc:  126096489 now IPC :0.87426: AVG IPC :0.95910: L2-Pf-HR :0.85296: L2-HR :0.79249: (Sim:1h30m20s) 
CPU  0 inst:  123000000 cyc:  126670972 now IPC :0.75806: AVG IPC :0.96267: L2-Pf-HR :0.81731: L2-HR :0.77673: (Sim:1h30m45s) 
CPU  3 inst:  124000003 cyc:  127014464 now IPC :0.85581: AVG IPC :0.96798: L2-Pf-HR :0.83047: L2-HR :0.78282: (Sim:1h31m0s) 
CPU  1 inst:  123000000 cyc:  127201272 now IPC :0.90515: AVG IPC :0.95862: L2-Pf-HR :0.85324: L2-HR :0.79251: (Sim:1h31m10s) 
CPU  2 inst:  119000000 cyc:  127290237 now IPC :0.68357: AVG IPC :0.92629: L2-Pf-HR :0.91106: L2-HR :0.81138: (Sim:1h31m14s) 
CPU  0 inst:  124000003 cyc:  127903050 now IPC :0.81164: AVG IPC :0.96120: L2-Pf-HR :0.81692: L2-HR :0.77648: (Sim:1h31m43s) 
CPU  3 inst:  125000005 cyc:  128074137 now IPC :0.94369: AVG IPC :0.96778: L2-Pf-HR :0.83030: L2-HR :0.78275: (Sim:1h31m52s) 
CPU  1 inst:  124000003 cyc:  128223839 now IPC :0.97793: AVG IPC :0.95878: L2-Pf-HR :0.85335: L2-HR :0.79232: (Sim:1h31m59s) 
CPU  2 inst:  120000004 cyc:  128547737 now IPC :0.79523: AVG IPC :0.92499: L2-Pf-HR :0.91139: L2-HR :0.81142: (Sim:1h32m15s) 
CPU  0 inst:  125000005 cyc:  129034139 now IPC :0.88411: AVG IPC :0.96052: L2-Pf-HR :0.81706: L2-HR :0.77645: (Sim:1h32m38s) 
CPU  3 inst:  126000001 cyc:  129086673 now IPC :0.98762: AVG IPC :0.96794: L2-Pf-HR :0.82904: L2-HR :0.78244: (Sim:1h32m41s) 
CPU  1 inst:  125000005 cyc:  129380452 now IPC :0.86460: AVG IPC :0.95793: L2-Pf-HR :0.85286: L2-HR :0.79197: (Sim:1h32m55s) 
CPU  2 inst:  121000003 cyc:  129884884 now IPC :0.74786: AVG IPC :0.92316: L2-Pf-HR :0.91164: L2-HR :0.81142: (Sim:1h33m19s) 
CPU  0 inst:  126000001 cyc:  130052582 now IPC :0.98189: AVG IPC :0.96069: L2-Pf-HR :0.81572: L2-HR :0.77619: (Sim:1h33m28s) 
CPU  3 inst:  127000002 cyc:  130054038 now IPC :1.03374: AVG IPC :0.96843: L2-Pf-HR :0.82798: L2-HR :0.78236: (Sim:1h33m28s) 
CPU  1 inst:  126000001 cyc:  130475529 now IPC :0.91317: AVG IPC :0.95755: L2-Pf-HR :0.85139: L2-HR :0.79150: (Sim:1h33m48s) 
CPU  3 inst:  128000004 cyc:  130961614 now IPC :1.10184: AVG IPC :0.96936: L2-Pf-HR :0.82655: L2-HR :0.78228: (Sim:1h34m15s) 
CPU  0 inst:  127000002 cyc:  131005300 now IPC :1.04963: AVG IPC :0.96134: L2-Pf-HR :0.81457: L2-HR :0.77622: (Sim:1h34m17s) 
CPU  2 inst:  122000001 cyc:  131011242 now IPC :0.88782: AVG IPC :0.92285: L2-Pf-HR :0.91094: L2-HR :0.81153: (Sim:1h34m18s) 
CPU  1 inst:  127000002 cyc:  131408721 now IPC :1.07159: AVG IPC :0.95837: L2-Pf-HR :0.84994: L2-HR :0.79142: (Sim:1h34m38s) 
CPU  0 inst:  128000004 cyc:  131827620 now IPC :1.21607: AVG IPC :0.96294: L2-Pf-HR :0.81315: L2-HR :0.77629: (Sim:1h34m58s) 
CPU  1 inst:  128000004 cyc:  132195283 now IPC :1.27136: AVG IPC :0.96024: L2-Pf-HR :0.84857: L2-HR :0.79148: (Sim:1h35m17s) 
CPU  3 inst:  129000001 cyc:  132287131 now IPC :0.75442: AVG IPC :0.96719: L2-Pf-HR :0.82600: L2-HR :0.78231: (Sim:1h35m21s) 
CPU  2 inst:  123000000 cyc:  132535363 now IPC :0.65612: AVG IPC :0.91976: L2-Pf-HR :0.91127: L2-HR :0.81162: (Sim:1h35m32s) 
CPU  0 inst:  129000001 cyc:  133234216 now IPC :0.71093: AVG IPC :0.96026: L2-Pf-HR :0.81299: L2-HR :0.77656: (Sim:1h36m1s) 
CPU  1 inst:  129000001 cyc:  133422616 now IPC :0.81477: AVG IPC :0.95890: L2-Pf-HR :0.84765: L2-HR :0.79136: (Sim:1h36m10s) 
CPU  3 inst:  130000004 cyc:  133464471 now IPC :0.84937: AVG IPC :0.96615: L2-Pf-HR :0.82620: L2-HR :0.78270: (Sim:1h36m12s) 
CPU  2 inst:  124000003 cyc:  134191971 now IPC :0.60364: AVG IPC :0.91583: L2-Pf-HR :0.91152: L2-HR :0.81153: (Sim:1h36m48s) 
CPU  0 inst:  130000004 cyc:  134312208 now IPC :0.92765: AVG IPC :0.96000: L2-Pf-HR :0.81305: L2-HR :0.77690: (Sim:1h36m53s) 
CPU  1 inst:  130000004 cyc:  134453953 now IPC :0.96962: AVG IPC :0.95898: L2-Pf-HR :0.84747: L2-HR :0.79159: (Sim:1h37m1s) 
CPU  3 inst:  131000003 cyc:  134474509 now IPC :0.99006: AVG IPC :0.96633: L2-Pf-HR :0.82671: L2-HR :0.78331: (Sim:1h37m2s) 
CPU  0 inst:  131000003 cyc:  135319206 now IPC :0.99305: AVG IPC :0.96025: L2-Pf-HR :0.81351: L2-HR :0.77747: (Sim:1h37m43s) 
CPU  1 inst:  131000003 cyc:  135454714 now IPC :0.99924: AVG IPC :0.95928: L2-Pf-HR :0.84754: L2-HR :0.79203: (Sim:1h37m51s) 
CPU  3 inst:  132000003 cyc:  135487442 now IPC :0.98723: AVG IPC :0.96648: L2-Pf-HR :0.82601: L2-HR :0.78350: (Sim:1h37m53s) 
CPU  2 inst:  125000005 cyc:  135511833 now IPC :0.75766: AVG IPC :0.91428: L2-Pf-HR :0.91086: L2-HR :0.81114: (Sim:1h37m54s) 
CPU  0 inst:  132000003 cyc:  136428600 now IPC :0.90139: AVG IPC :0.95977: L2-Pf-HR :0.81266: L2-HR :0.77751: (Sim:1h38m38s) 
CPU  1 inst:  132000003 cyc:  136515099 now IPC :0.94305: AVG IPC :0.95915: L2-Pf-HR :0.84673: L2-HR :0.79214: (Sim:1h38m41s) 
CPU  2 inst:  126000001 cyc:  136678615 now IPC :0.85705: AVG IPC :0.91378: L2-Pf-HR :0.90950: L2-HR :0.81067: (Sim:1h38m50s) 
CPU  3 inst:  133000000 cyc:  136749178 now IPC :0.79256: AVG IPC :0.96487: L2-Pf-HR :0.82653: L2-HR :0.78406: (Sim:1h38m53s) 
CPU  0 inst:  133000000 cyc:  137687472 now IPC :0.79436: AVG IPC :0.95824: L2-Pf-HR :0.81309: L2-HR :0.77802: (Sim:1h39m37s) 
CPU  2 inst:  127000002 cyc:  137750640 now IPC :0.93282: AVG IPC :0.91393: L2-Pf-HR :0.90842: L2-HR :0.81044: (Sim:1h39m40s) 
CPU  1 inst:  133000000 cyc:  137752183 now IPC :0.80835: AVG IPC :0.95779: L2-Pf-HR :0.84722: L2-HR :0.79273: (Sim:1h39m40s) 
CPU  3 inst:  134000001 cyc:  137926768 now IPC :0.84919: AVG IPC :0.96387: L2-Pf-HR :0.82639: L2-HR :0.78415: (Sim:1h39m49s) 
CPU  2 inst:  128000004 cyc:  138594201 now IPC :1.18545: AVG IPC :0.91560: L2-Pf-HR :0.90699: L2-HR :0.81040: (Sim:1h40m21s) 
CPU  0 inst:  134000001 cyc:  138860247 now IPC :0.85268: AVG IPC :0.95735: L2-Pf-HR :0.81320: L2-HR :0.77825: (Sim:1h40m35s) 
CPU  1 inst:  134000001 cyc:  139034629 now IPC :0.77976: AVG IPC :0.95613: L2-Pf-HR :0.84725: L2-HR :0.79293: (Sim:1h40m41s) 
CPU  3 inst:  135000001 cyc:  139386426 now IPC :0.68509: AVG IPC :0.96093: L2-Pf-HR :0.82670: L2-HR :0.78412: (Sim:1h40m57s) 
CPU  2 inst:  129000001 cyc:  139702623 now IPC :0.90218: AVG IPC :0.91549: L2-Pf-HR :0.90610: L2-HR :0.81040: (Sim:1h41m11s) 
CPU  0 inst:  135000001 cyc:  140145135 now IPC :0.77828: AVG IPC :0.95569: L2-Pf-HR :0.81341: L2-HR :0.77820: (Sim:1h41m32s) 
CPU  1 inst:  135000001 cyc:  140439152 now IPC :0.71199: AVG IPC :0.95367: L2-Pf-HR :0.84770: L2-HR :0.79304: (Sim:1h41m45s) 
CPU  3 inst:  136000005 cyc:  140725976 now IPC :0.74652: AVG IPC :0.95888: L2-Pf-HR :0.82688: L2-HR :0.78407: (Sim:1h41m53s) 
CPU  2 inst:  130000004 cyc:  140764735 now IPC :0.94152: AVG IPC :0.91569: L2-Pf-HR :0.90563: L2-HR :0.81058: (Sim:1h41m55s) 
CPU  0 inst:  136000005 cyc:  141270257 now IPC :0.88880: AVG IPC :0.95516: L2-Pf-HR :0.81380: L2-HR :0.77838: (Sim:1h42m14s) 
CPU  1 inst:  136000005 cyc:  141778903 now IPC :0.74641: AVG IPC :0.95170: L2-Pf-HR :0.84791: L2-HR :0.79305: (Sim:1h42m38s) 
CPU  2 inst:  131000003 cyc:  141808325 now IPC :0.95823: AVG IPC :0.91600: L2-Pf-HR :0.90548: L2-HR :0.81099: (Sim:1h42m40s) 
CPU  3 inst:  137000000 cyc:  142023367 now IPC :0.77077: AVG IPC :0.95715: L2-Pf-HR :0.82678: L2-HR :0.78383: (Sim:1h42m51s) 
CPU  0 inst:  137000000 cyc:  142422263 now IPC :0.86805: AVG IPC :0.95445: L2-Pf-HR :0.81396: L2-HR :0.77834: (Sim:1h43m9s) 
CPU  2 inst:  132000003 cyc:  142901762 now IPC :0.91455: AVG IPC :0.91599: L2-Pf-HR :0.90468: L2-HR :0.81113: (Sim:1h43m31s) 
CPU  1 inst:  137000000 cyc:  143117095 now IPC :0.74727: AVG IPC :0.94978: L2-Pf-HR :0.84814: L2-HR :0.79296: (Sim:1h43m42s) 
CPU  3 inst:  138000002 cyc:  143122828 now IPC :0.90954: AVG IPC :0.95678: L2-Pf-HR :0.82616: L2-HR :0.78387: (Sim:1h43m42s) 
CPU  0 inst:  138000002 cyc:  143543706 now IPC :0.89171: AVG IPC :0.95395: L2-Pf-HR :0.81335: L2-HR :0.77831: (Sim:1h44m4s) 
CPU  2 inst:  133000000 cyc:  143935756 now IPC :0.96712: AVG IPC :0.91636: L2-Pf-HR :0.90476: L2-HR :0.81153: (Sim:1h44m23s) 
CPU  1 inst:  138000002 cyc:  144179459 now IPC :0.94130: AVG IPC :0.94971: L2-Pf-HR :0.84755: L2-HR :0.79290: (Sim:1h44m36s) 
CPU  3 inst:  139000003 cyc:  144225963 now IPC :0.90651: AVG IPC :0.95639: L2-Pf-HR :0.82635: L2-HR :0.78386: (Sim:1h44m38s) 
CPU  0 inst:  139000003 cyc:  144685480 now IPC :0.87583: AVG IPC :0.95333: L2-Pf-HR :0.81363: L2-HR :0.77837: (Sim:1h45m0s) 
CPU  2 inst:  134000001 cyc:  145104023 now IPC :0.85597: AVG IPC :0.91587: L2-Pf-HR :0.90461: L2-HR :0.81158: (Sim:1h45m20s) 
CPU  1 inst:  139000004 cyc:  145293467 now IPC :0.89766: AVG IPC :0.94931: L2-Pf-HR :0.84755: L2-HR :0.79287: (Sim:1h45m29s) 
CPU  3 inst:  140000003 cyc:  145329878 now IPC :0.90587: AVG IPC :0.95601: L2-Pf-HR :0.82611: L2-HR :0.78368: (Sim:1h45m31s) 
CPU  0 inst:  140000003 cyc:  145922126 now IPC :0.80864: AVG IPC :0.95210: L2-Pf-HR :0.81364: L2-HR :0.77822: (Sim:1h45m59s) 
CPU  2 inst:  135000001 cyc:  146375787 now IPC :0.78631: AVG IPC :0.91474: L2-Pf-HR :0.90483: L2-HR :0.81167: (Sim:1h46m18s) 
CPU  1 inst:  140000003 cyc:  146500038 now IPC :0.82879: AVG IPC :0.94831: L2-Pf-HR :0.84773: L2-HR :0.79277: (Sim:1h46m24s) 
CPU  3 inst:  141000004 cyc:  146551266 now IPC :0.81874: AVG IPC :0.95485: L2-Pf-HR :0.82578: L2-HR :0.78348: (Sim:1h46m27s) 
CPU  0 inst:  141000004 cyc:  147433544 now IPC :0.66163: AVG IPC :0.94910: L2-Pf-HR :0.81355: L2-HR :0.77806: (Sim:1h47m4s) 
CPU  1 inst:  141000004 cyc:  147740889 now IPC :0.80590: AVG IPC :0.94711: L2-Pf-HR :0.84711: L2-HR :0.79238: (Sim:1h47m18s) 
CPU  2 inst:  136000005 cyc:  147752318 now IPC :0.72647: AVG IPC :0.91297: L2-Pf-HR :0.90509: L2-HR :0.81165: (Sim:1h47m19s) 
CPU  3 inst:  142000004 cyc:  147831562 now IPC :0.78107: AVG IPC :0.95334: L2-Pf-HR :0.82601: L2-HR :0.78358: (Sim:1h47m23s) 
CPU  0 inst:  142000004 cyc:  148724865 now IPC :0.77440: AVG IPC :0.94757: L2-Pf-HR :0.81375: L2-HR :0.77807: (Sim:1h48m3s) 
CPU  1 inst:  142000004 cyc:  148795803 now IPC :0.94794: AVG IPC :0.94712: L2-Pf-HR :0.84690: L2-HR :0.79239: (Sim:1h48m7s) 
CPU  2 inst:  137000000 cyc:  149035384 now IPC :0.77938: AVG IPC :0.91182: L2-Pf-HR :0.90523: L2-HR :0.81156: (Sim:1h48m17s) 
CPU  3 inst:  143000003 cyc:  149121270 now IPC :0.77537: AVG IPC :0.95179: L2-Pf-HR :0.82609: L2-HR :0.78356: (Sim:1h48m21s) 
CPU  0 inst:  143000002 cyc:  150091914 now IPC :0.73150: AVG IPC :0.94559: L2-Pf-HR :0.81363: L2-HR :0.77796: (Sim:1h49m5s) 
CPU  2 inst:  138000002 cyc:  150116186 now IPC :0.92524: AVG IPC :0.91191: L2-Pf-HR :0.90449: L2-HR :0.81150: (Sim:1h49m6s) 
CPU  1 inst:  143000003 cyc:  150160563 now IPC :0.73273: AVG IPC :0.94515: L2-Pf-HR :0.84699: L2-HR :0.79235: (Sim:1h49m9s) 
CPU  3 inst:  144000004 cyc:  150300607 now IPC :0.84793: AVG IPC :0.95097: L2-Pf-HR :0.82563: L2-HR :0.78362: (Sim:1h49m15s) 
CPU  0 inst:  144000004 cyc:  151149741 now IPC :0.94534: AVG IPC :0.94559: L2-Pf-HR :0.81282: L2-HR :0.77785: (Sim:1h49m40s) 
CPU  1 inst:  144000004 cyc:  151208593 now IPC :0.95417: AVG IPC :0.94522: L2-Pf-HR :0.84616: L2-HR :0.79222: (Sim:1h49m41s) 
CPU  2 inst:  139000002 cyc:  151316290 now IPC :0.83326: AVG IPC :0.91129: L2-Pf-HR :0.90466: L2-HR :0.81151: (Sim:1h49m44s) 
CPU  3 inst:  145000004 cyc:  151526228 now IPC :0.81591: AVG IPC :0.94987: L2-Pf-HR :0.82597: L2-HR :0.78384: (Sim:1h49m51s) 
CPU  0 inst:  145000004 cyc:  152287982 now IPC :0.87855: AVG IPC :0.94509: L2-Pf-HR :0.81323: L2-HR :0.77812: (Sim:1h50m12s) 
CPU  1 inst:  145000004 cyc:  152433353 now IPC :0.81649: AVG IPC :0.94418: L2-Pf-HR :0.84670: L2-HR :0.79256: (Sim:1h50m16s) 
CPU  2 inst:  140000003 cyc:  152475715 now IPC :0.86250: AVG IPC :0.91091: L2-Pf-HR :0.90474: L2-HR :0.81140: (Sim:1h50m17s) 
CPU  3 inst:  146000004 cyc:  152766676 now IPC :0.80616: AVG IPC :0.94870: L2-Pf-HR :0.82581: L2-HR :0.78364: (Sim:1h50m26s) 
CPU  0 inst:  146000004 cyc:  153441034 now IPC :0.86726: AVG IPC :0.94450: L2-Pf-HR :0.81303: L2-HR :0.77795: (Sim:1h50m44s) 
CPU  1 inst:  146000004 cyc:  153661142 now IPC :0.81447: AVG IPC :0.94313: L2-Pf-HR :0.84688: L2-HR :0.79263: (Sim:1h50m50s) 
CPU  2 inst:  141000004 cyc:  153936917 now IPC :0.68437: AVG IPC :0.90875: L2-Pf-HR :0.90421: L2-HR :0.81113: (Sim:1h50m58s) 
CPU  3 inst:  147000002 cyc:  154006290 now IPC :0.80670: AVG IPC :0.94755: L2-Pf-HR :0.82599: L2-HR :0.78364: (Sim:1h51m0s) 
CPU  0 inst:  147000002 cyc:  154442224 now IPC :0.99881: AVG IPC :0.94485: L2-Pf-HR :0.81327: L2-HR :0.77797: (Sim:1h51m11s) 
CPU  1 inst:  147000002 cyc:  155079049 now IPC :0.70526: AVG IPC :0.94094: L2-Pf-HR :0.84716: L2-HR :0.79274: (Sim:1h51m28s) 
CPU  3 inst:  148000002 cyc:  155404084 now IPC :0.71541: AVG IPC :0.94544: L2-Pf-HR :0.82599: L2-HR :0.78347: (Sim:1h51m37s) 
CPU  2 inst:  142000004 cyc:  155449760 now IPC :0.66101: AVG IPC :0.90632: L2-Pf-HR :0.90446: L2-HR :0.81115: (Sim:1h51m38s) 
CPU  0 inst:  148000002 cyc:  155582595 now IPC :0.87691: AVG IPC :0.94435: L2-Pf-HR :0.81356: L2-HR :0.77803: (Sim:1h51m41s) 
CPU  1 inst:  148000002 cyc:  156502879 now IPC :0.70233: AVG IPC :0.93876: L2-Pf-HR :0.84749: L2-HR :0.79268: (Sim:1h52m6s) 
CPU  3 inst:  149000003 cyc:  156507202 now IPC :0.90652: AVG IPC :0.94517: L2-Pf-HR :0.82621: L2-HR :0.78342: (Sim:1h52m6s) 
CPU  2 inst:  143000000 cyc:  156854000 now IPC :0.71213: AVG IPC :0.90457: L2-Pf-HR :0.90467: L2-HR :0.81114: (Sim:1h52m15s) 
CPU  0 inst:  149000004 cyc:  157000219 now IPC :0.70541: AVG IPC :0.94218: L2-Pf-HR :0.81379: L2-HR :0.77798: (Sim:1h52m18s) 
CPU  3 inst:  150000000 cyc:  157443844 now IPC :1.06764: AVG IPC :0.94590: L2-Pf-HR :0.82557: L2-HR :0.78331: (Sim:1h52m31s) 
CPU  2 inst:  144000004 cyc:  158030527 now IPC :0.84996: AVG IPC :0.90416: L2-Pf-HR :0.90406: L2-HR :0.81118: (Sim:1h52m47s) 
CPU  1 inst:  149000004 cyc:  158076025 now IPC :0.63567: AVG IPC :0.93572: L2-Pf-HR :0.84782: L2-HR :0.79264: (Sim:1h52m49s) 
CPU  0 inst:  150000000 cyc:  158275509 now IPC :0.78413: AVG IPC :0.94090: L2-Pf-HR :0.81325: L2-HR :0.77794: (Sim:1h52m55s) 
CPU  3 inst:  151000002 cyc:  158751196 now IPC :0.76491: AVG IPC :0.94440: L2-Pf-HR :0.82585: L2-HR :0.78343: (Sim:1h53m8s) 
CPU  2 inst:  145000004 cyc:  159022271 now IPC :1.00832: AVG IPC :0.90482: L2-Pf-HR :0.90431: L2-HR :0.81138: (Sim:1h53m17s) 
CPU  1 inst:  150000001 cyc:  159138370 now IPC :0.94131: AVG IPC :0.93576: L2-Pf-HR :0.84727: L2-HR :0.79252: (Sim:1h53m21s) 
CPU  0 inst:  151000002 cyc:  159478576 now IPC :0.83121: AVG IPC :0.94007: L2-Pf-HR :0.81357: L2-HR :0.77806: (Sim:1h53m31s) 
CPU  3 inst:  152000002 cyc:  159888742 now IPC :0.87909: AVG IPC :0.94393: L2-Pf-HR :0.82615: L2-HR :0.78339: (Sim:1h53m43s) 
CPU  2 inst:  146000004 cyc:  160033132 now IPC :0.98926: AVG IPC :0.90535: L2-Pf-HR :0.90448: L2-HR :0.81131: (Sim:1h53m46s) 
CPU  1 inst:  151000002 cyc:  160287136 now IPC :0.87050: AVG IPC :0.93529: L2-Pf-HR :0.84748: L2-HR :0.79260: (Sim:1h53m54s) 
CPU  0 inst:  152000002 cyc:  160786642 now IPC :0.76449: AVG IPC :0.93863: L2-Pf-HR :0.81347: L2-HR :0.77787: (Sim:1h54m8s) 
CPU  3 inst:  153000000 cyc:  161196114 now IPC :0.76489: AVG IPC :0.94247: L2-Pf-HR :0.82638: L2-HR :0.78341: (Sim:1h54m20s) 
CPU  2 inst:  147000002 cyc:  161231882 now IPC :0.83420: AVG IPC :0.90482: L2-Pf-HR :0.90463: L2-HR :0.81134: (Sim:1h54m22s) 
CPU  1 inst:  152000002 cyc:  161313182 now IPC :0.97462: AVG IPC :0.93554: L2-Pf-HR :0.84791: L2-HR :0.79263: (Sim:1h54m26s) 
CPU  0 inst:  153000001 cyc:  162179927 now IPC :0.71773: AVG IPC :0.93672: L2-Pf-HR :0.81399: L2-HR :0.77796: (Sim:1h55m3s) 
CPU  3 inst:  154000003 cyc:  162383816 now IPC :0.84196: AVG IPC :0.94173: L2-Pf-HR :0.82653: L2-HR :0.78357: (Sim:1h55m14s) 
CPU  1 inst:  153000001 cyc:  162467012 now IPC :0.86668: AVG IPC :0.93505: L2-Pf-HR :0.84794: L2-HR :0.79247: (Sim:1h55m17s) 
CPU  2 inst:  148000002 cyc:  162588546 now IPC :0.73710: AVG IPC :0.90341: L2-Pf-HR :0.90486: L2-HR :0.81128: (Sim:1h55m23s) 
CPU  0 inst:  154000005 cyc:  163362737 now IPC :0.84545: AVG IPC :0.93605: L2-Pf-HR :0.81420: L2-HR :0.77803: (Sim:1h56m0s) 
CPU  1 inst:  154000005 cyc:  163495971 now IPC :0.97186: AVG IPC :0.93528: L2-Pf-HR :0.84777: L2-HR :0.79243: (Sim:1h56m7s) 
CPU  3 inst:  155000000 cyc:  163533418 now IPC :0.86986: AVG IPC :0.94122: L2-Pf-HR :0.82664: L2-HR :0.78362: (Sim:1h56m9s) 
CPU  2 inst:  149000004 cyc:  163861607 now IPC :0.78551: AVG IPC :0.90249: L2-Pf-HR :0.90501: L2-HR :0.81123: (Sim:1h56m25s) 
CPU  0 inst:  155000000 cyc:  164427092 now IPC :0.93953: AVG IPC :0.93608: L2-Pf-HR :0.81410: L2-HR :0.77804: (Sim:1h56m53s) 
CPU  3 inst:  156000002 cyc:  164583843 now IPC :0.95200: AVG IPC :0.94129: L2-Pf-HR :0.82620: L2-HR :0.78371: (Sim:1h57m1s) 
CPU  1 inst:  155000000 cyc:  164598728 now IPC :0.90681: AVG IPC :0.93509: L2-Pf-HR :0.84779: L2-HR :0.79242: (Sim:1h57m2s) 
CPU  2 inst:  150000005 cyc:  164954300 now IPC :0.91517: AVG IPC :0.90258: L2-Pf-HR :0.90449: L2-HR :0.81120: (Sim:1h57m20s) 
CPU  0 inst:  156000002 cyc:  165385718 now IPC :1.04316: AVG IPC :0.93670: L2-Pf-HR :0.81326: L2-HR :0.77788: (Sim:1h57m43s) 
CPU  1 inst:  156000002 cyc:  165544076 now IPC :1.05781: AVG IPC :0.93580: L2-Pf-HR :0.84713: L2-HR :0.79232: (Sim:1h57m52s) 
CPU  3 inst:  157000003 cyc:  165661386 now IPC :0.92804: AVG IPC :0.94121: L2-Pf-HR :0.82662: L2-HR :0.78397: (Sim:1h57m59s) 
[...]
CPU  0 inst: 1024000005 cyc: 1147631049 now IPC :0.78080: AVG IPC :0.89129: L2-Pf-HR :0.81359: L2-HR :0.78163: (Sim:13h41m29s) 
CPU  2 inst:  970000001 cyc: 1148211027 now IPC :0.55362: AVG IPC :0.84377: L2-Pf-HR :0.90191: L2-HR :0.81406: (Sim:13h41m52s) 
CPU  1 inst: 1014000000 cyc: 1148263364 now IPC :0.71256: AVG IPC :0.88208: L2-Pf-HR :0.84313: L2-HR :0.79409: (Sim:13h41m53s) 
CPU  0 inst: 1025000004 cyc: 1149137518 now IPC :0.66380: AVG IPC :0.89099: L2-Pf-HR :0.81342: L2-HR :0.78161: (Sim:13h42m27s) 
CPU  1 inst: 1015000000 cyc: 1150212472 now IPC :0.51306: AVG IPC :0.88146: L2-Pf-HR :0.84316: L2-HR :0.79411: (Sim:13h43m7s) 
CPU  0 inst: 1026000004 cyc: 1150339258 now IPC :0.83213: AVG IPC :0.89093: L2-Pf-HR :0.81331: L2-HR :0.78165: (Sim:13h43m12s) 
CPU  2 inst:  971000002 cyc: 1150653217 now IPC :0.40947: AVG IPC :0.84285: L2-Pf-HR :0.90182: L2-HR :0.81400: (Sim:13h43m20s) 
CPU  1 inst: 1016000000 cyc: 1152489161 now IPC :0.43923: AVG IPC :0.88058: L2-Pf-HR :0.84323: L2-HR :0.79413: (Sim:13h44m17s) 
CPU  2 inst:  972000001 cyc: 1153114933 now IPC :0.40622: AVG IPC :0.84191: L2-Pf-HR :0.90184: L2-HR :0.81404: (Sim:13h44m37s) 
CPU  1 inst: 1017000001 cyc: 1155725085 now IPC :0.30903: AVG IPC :0.87898: L2-Pf-HR :0.84329: L2-HR :0.79414: (Sim:13h45m45s) 
CPU  3 inst: 1027000000 cyc: 1156281773 now IPC :0.10001: AVG IPC :0.88721: L2-Pf-HR :0.82205: L2-HR :0.78433: (Sim:13h46m2s) 
CPU  2 inst:  973000002 cyc: 1156604610 now IPC :0.28656: AVG IPC :0.84024: L2-Pf-HR :0.90186: L2-HR :0.81404: (Sim:13h46m12s) 
CPU  1 inst: 1018000001 cyc: 1158851184 now IPC :0.31989: AVG IPC :0.87747: L2-Pf-HR :0.84331: L2-HR :0.79412: (Sim:13h47m2s) 
CPU  2 inst:  974000003 cyc: 1159876088 now IPC :0.30567: AVG IPC :0.83873: L2-Pf-HR :0.90185: L2-HR :0.81400: (Sim:13h47m19s) 
CPU  1 inst: 1019000002 cyc: 1161670497 now IPC :0.35470: AVG IPC :0.87620: L2-Pf-HR :0.84322: L2-HR :0.79407: (Sim:13h48m5s) 
CPU  0 inst: 1027000000 cyc: 1162908757 now IPC :0.07956: AVG IPC :0.88215: L2-Pf-HR :0.81012: L2-HR :0.77917: (Sim:13h48m45s) 
CPU  2 inst:  975000001 cyc: 1162956952 now IPC :0.32458: AVG IPC :0.83737: L2-Pf-HR :0.90183: L2-HR :0.81399: (Sim:13h48m46s) 
CPU  1 inst: 1020000005 cyc: 1163821516 now IPC :0.46490: AVG IPC :0.87544: L2-Pf-HR :0.84328: L2-HR :0.79413: (Sim:13h49m0s) 
CPU  2 inst:  976000001 cyc: 1166107915 now IPC :0.31736: AVG IPC :0.83596: L2-Pf-HR :0.90187: L2-HR :0.81398: (Sim:13h49m45s) 
CPU  1 inst: 1021000005 cyc: 1166607757 now IPC :0.35891: AVG IPC :0.87421: L2-Pf-HR :0.84329: L2-HR :0.79412: (Sim:13h50m1s) 
CPU  3 inst: 1028000002 cyc: 1168038063 now IPC :0.08506: AVG IPC :0.87913: L2-Pf-HR :0.81872: L2-HR :0.78180: (Sim:13h50m45s) 
CPU  2 inst:  977000001 cyc: 1169623260 now IPC :0.28447: AVG IPC :0.83430: L2-Pf-HR :0.90182: L2-HR :0.81395: (Sim:13h51m34s) 
CPU  1 inst: 1022000003 cyc: 1169822922 now IPC :0.31103: AVG IPC :0.87266: L2-Pf-HR :0.84334: L2-HR :0.79413: (Sim:13h51m40s) 
CPU  2 inst:  978000004 cyc: 1172125118 now IPC :0.39970: AVG IPC :0.83337: L2-Pf-HR :0.90182: L2-HR :0.81400: (Sim:13h52m53s) 
CPU  1 inst: 1023000005 cyc: 1172899798 now IPC :0.32501: AVG IPC :0.87122: L2-Pf-HR :0.84318: L2-HR :0.79403: (Sim:13h53m10s) 
CPU  0 inst: 1028000005 cyc: 1174251845 now IPC :0.08816: AVG IPC :0.87448: L2-Pf-HR :0.80663: L2-HR :0.77664: (Sim:13h53m33s) 
CPU  1 inst: 1024000005 cyc: 1175164256 now IPC :0.44161: AVG IPC :0.87039: L2-Pf-HR :0.84305: L2-HR :0.79401: (Sim:13h53m48s) 
CPU  2 inst:  979000004 cyc: 1175532260 now IPC :0.29350: AVG IPC :0.83181: L2-Pf-HR :0.90186: L2-HR :0.81400: (Sim:13h53m54s) 
CPU  1 inst: 1025000004 cyc: 1177347899 now IPC :0.45795: AVG IPC :0.86962: L2-Pf-HR :0.84288: L2-HR :0.79398: (Sim:13h54m27s) 
CPU  2 inst:  980000005 cyc: 1178793058 now IPC :0.30667: AVG IPC :0.83035: L2-Pf-HR :0.90188: L2-HR :0.81400: (Sim:13h55m15s) 
CPU  1 inst: 1026000004 cyc: 1178977251 now IPC :0.61374: AVG IPC :0.86927: L2-Pf-HR :0.84275: L2-HR :0.79399: (Sim:13h55m21s) 
CPU  3 inst: 1029000004 cyc: 1179993314 now IPC :0.08365: AVG IPC :0.87107: L2-Pf-HR :0.81541: L2-HR :0.77932: (Sim:13h55m46s) 
CPU  2 inst:  981000005 cyc: 1182236525 now IPC :0.29040: AVG IPC :0.82878: L2-Pf-HR :0.90192: L2-HR :0.81400: (Sim:13h56m50s) 
CPU  2 inst:  982000005 cyc: 1186391438 now IPC :0.24068: AVG IPC :0.82672: L2-Pf-HR :0.90195: L2-HR :0.81399: (Sim:13h58m9s) 
CPU  0 inst: 1029000004 cyc: 1188988999 now IPC :0.06786: AVG IPC :0.86447: L2-Pf-HR :0.80326: L2-HR :0.77416: (Sim:13h59m23s) 
CPU  2 inst:  983000005 cyc: 1190655533 now IPC :0.23452: AVG IPC :0.82459: L2-Pf-HR :0.90191: L2-HR :0.81395: (Sim:14h0m14s) 
CPU  2 inst:  984000005 cyc: 1194181579 now IPC :0.28360: AVG IPC :0.82300: L2-Pf-HR :0.90192: L2-HR :0.81399: (Sim:14h1m55s) 
CPU  3 inst: 1030000000 cyc: 1196772534 now IPC :0.05960: AVG IPC :0.85968: L2-Pf-HR :0.81226: L2-HR :0.77688: (Sim:14h3m15s) 
CPU  1 inst: 1027000000 cyc: 1197512193 now IPC :0.05395: AVG IPC :0.85664: L2-Pf-HR :0.83990: L2-HR :0.79157: (Sim:14h3m37s) 
CPU  2 inst:  985000002 cyc: 1198373999 now IPC :0.23853: AVG IPC :0.82095: L2-Pf-HR :0.90196: L2-HR :0.81400: (Sim:14h4m4s) 
CPU  2 inst:  986000004 cyc: 1202561069 now IPC :0.23883: AVG IPC :0.81892: L2-Pf-HR :0.90202: L2-HR :0.81400: (Sim:14h6m12s) 
CPU  0 inst: 1030000003 cyc: 1206027326 now IPC :0.05869: AVG IPC :0.85308: L2-Pf-HR :0.79999: L2-HR :0.77172: (Sim:14h7m44s) 
CPU  2 inst:  987000003 cyc: 1206856759 now IPC :0.23279: AVG IPC :0.81683: L2-Pf-HR :0.90200: L2-HR :0.81399: (Sim:14h8m10s) 
CPU  2 inst:  988000000 cyc: 1210928288 now IPC :0.24561: AVG IPC :0.81491: L2-Pf-HR :0.90203: L2-HR :0.81399: (Sim:14h9m41s) 
CPU  3 inst: 1031000002 cyc: 1213660135 now IPC :0.05922: AVG IPC :0.84853: L2-Pf-HR :0.80910: L2-HR :0.77450: (Sim:14h11m5s) 
CPU  1 inst: 1028000005 cyc: 1214535579 now IPC :0.05874: AVG IPC :0.84545: L2-Pf-HR :0.83681: L2-HR :0.78908: (Sim:14h11m30s) 
CPU  2 inst:  989000002 cyc: 1215212888 now IPC :0.23339: AVG IPC :0.81286: L2-Pf-HR :0.90197: L2-HR :0.81394: (Sim:14h11m41s) 
CPU  2 inst:  990000002 cyc: 1218473275 now IPC :0.30671: AVG IPC :0.81150: L2-Pf-HR :0.90200: L2-HR :0.81401: (Sim:14h12m35s) 
CPU  2 inst:  991000001 cyc: 1222688990 now IPC :0.23721: AVG IPC :0.80952: L2-Pf-HR :0.90204: L2-HR :0.81401: (Sim:14h14m1s) 
CPU  0 inst: 1031000005 cyc: 1223012403 now IPC :0.05888: AVG IPC :0.84204: L2-Pf-HR :0.79676: L2-HR :0.76934: (Sim:14h14m11s) 
CPU  2 inst:  992000005 cyc: 1226560699 now IPC :0.25828: AVG IPC :0.80778: L2-Pf-HR :0.90206: L2-HR :0.81401: (Sim:14h16m3s) 
CPU  3 inst: 1032000004 cyc: 1230404866 now IPC :0.05972: AVG IPC :0.83779: L2-Pf-HR :0.80600: L2-HR :0.77217: (Sim:14h17m53s) 
CPU  2 inst:  993000001 cyc: 1230693705 now IPC :0.24195: AVG IPC :0.80588: L2-Pf-HR :0.90211: L2-HR :0.81401: (Sim:14h18m1s) 
CPU  1 inst: 1029000004 cyc: 1231180159 now IPC :0.06008: AVG IPC :0.83482: L2-Pf-HR :0.83377: L2-HR :0.78664: (Sim:14h18m16s) 
CPU  2 inst:  994000002 cyc: 1234750626 now IPC :0.24649: AVG IPC :0.80404: L2-Pf-HR :0.90215: L2-HR :0.81401: (Sim:14h19m44s) 
CPU  2 inst:  995000005 cyc: 1238907998 now IPC :0.24054: AVG IPC :0.80215: L2-Pf-HR :0.90210: L2-HR :0.81397: (Sim:14h21m38s) 
CPU  0 inst: 1032000001 cyc: 1239858664 now IPC :0.05936: AVG IPC :0.83140: L2-Pf-HR :0.79355: L2-HR :0.76701: (Sim:14h22m5s) 
CPU  2 inst:  996000000 cyc: 1242331301 now IPC :0.29211: AVG IPC :0.80074: L2-Pf-HR :0.90212: L2-HR :0.81402: (Sim:14h22m45s) 
CPU  2 inst:  997000002 cyc: 1246498830 now IPC :0.23995: AVG IPC :0.79886: L2-Pf-HR :0.90217: L2-HR :0.81403: (Sim:14h24m42s) 
CPU  3 inst: 1033000003 cyc: 1247244002 now IPC :0.05939: AVG IPC :0.82727: L2-Pf-HR :0.80293: L2-HR :0.76989: (Sim:14h24m54s) 
CPU  1 inst: 1030000000 cyc: 1248183487 now IPC :0.05881: AVG IPC :0.82424: L2-Pf-HR :0.83075: L2-HR :0.78425: (Sim:14h25m9s) 
CPU  2 inst:  998000000 cyc: 1250751692 now IPC :0.23514: AVG IPC :0.79695: L2-Pf-HR :0.90221: L2-HR :0.81403: (Sim:14h26m8s) 
CPU  2 inst:  999000005 cyc: 1254938563 now IPC :0.23884: AVG IPC :0.79508: L2-Pf-HR :0.90220: L2-HR :0.81403: (Sim:14h27m28s) 
CPU  0 inst: 1033000000 cyc: 1256621585 now IPC :0.05966: AVG IPC :0.82109: L2-Pf-HR :0.79041: L2-HR :0.76473: (Sim:14h27m58s) 
CPU  2 inst: 1000000003 cyc: 1258897904 now IPC :0.25257: AVG IPC :0.79337: L2-Pf-HR :0.90224: L2-HR :0.81404: (Sim:14h28m47s) 
CPU  2 inst: 1001000001 cyc: 1263044685 now IPC :0.24115: AVG IPC :0.79156: L2-Pf-HR :0.90217: L2-HR :0.81399: (Sim:14h30m34s) 
CPU  3 inst: 1034000005 cyc: 1264452873 now IPC :0.05811: AVG IPC :0.81680: L2-Pf-HR :0.79990: L2-HR :0.76766: (Sim:14h30m58s) 
CPU  1 inst: 1031000005 cyc: 1265227745 now IPC :0.05867: AVG IPC :0.81392: L2-Pf-HR :0.82777: L2-HR :0.78191: (Sim:14h31m15s) 
CPU  2 inst: 1002000000 cyc: 1266264026 now IPC :0.31062: AVG IPC :0.79034: L2-Pf-HR :0.90221: L2-HR :0.81405: (Sim:14h31m32s) 
CPU  2 inst: 1003000000 cyc: 1270306350 now IPC :0.24738: AVG IPC :0.78861: L2-Pf-HR :0.90225: L2-HR :0.81406: (Sim:14h32m54s) 
CPU  0 inst: 1034000002 cyc: 1273559037 now IPC :0.05904: AVG IPC :0.81095: L2-Pf-HR :0.78728: L2-HR :0.76250: (Sim:14h34m16s) 
CPU  2 inst: 1004000000 cyc: 1274042392 now IPC :0.26766: AVG IPC :0.78708: L2-Pf-HR :0.90229: L2-HR :0.81407: (Sim:14h34m31s) 
CPU  2 inst: 1005000000 cyc: 1278191817 now IPC :0.24100: AVG IPC :0.78530: L2-Pf-HR :0.90233: L2-HR :0.81407: (Sim:14h36m39s) 
CPU  3 inst: 1035000001 cyc: 1281089013 now IPC :0.06011: AVG IPC :0.80696: L2-Pf-HR :0.79692: L2-HR :0.76546: (Sim:14h38m8s) 
CPU  1 inst: 1032000004 cyc: 1281836545 now IPC :0.06021: AVG IPC :0.80415: L2-Pf-HR :0.82483: L2-HR :0.77961: (Sim:14h38m30s) 
CPU  2 inst: 1006000003 cyc: 1282409043 now IPC :0.23712: AVG IPC :0.78350: L2-Pf-HR :0.90237: L2-HR :0.81406: (Sim:14h38m48s) 
CPU  2 inst: 1007000000 cyc: 1286685411 now IPC :0.23384: AVG IPC :0.78167: L2-Pf-HR :0.90231: L2-HR :0.81402: (Sim:14h40m58s) 
CPU  2 inst: 1008000003 cyc: 1290120533 now IPC :0.29111: AVG IPC :0.78036: L2-Pf-HR :0.90233: L2-HR :0.81407: (Sim:14h42m44s) 
CPU  0 inst: 1035000001 cyc: 1290203532 now IPC :0.06008: AVG IPC :0.80126: L2-Pf-HR :0.78421: L2-HR :0.76031: (Sim:14h42m46s) 
CPU  2 inst: 1009000001 cyc: 1294264770 now IPC :0.24130: AVG IPC :0.77864: L2-Pf-HR :0.90238: L2-HR :0.81408: (Sim:14h44m49s) 
CPU  3 inst: 1036000003 cyc: 1297831023 now IPC :0.05973: AVG IPC :0.79732: L2-Pf-HR :0.79397: L2-HR :0.76331: (Sim:14h46m36s) 
CPU  2 inst: 1010000005 cyc: 1298360328 now IPC :0.24417: AVG IPC :0.77695: L2-Pf-HR :0.90242: L2-HR :0.81408: (Sim:14h46m52s) 
CPU  1 inst: 1033000000 cyc: 1298587076 now IPC :0.05970: AVG IPC :0.79454: L2-Pf-HR :0.82193: L2-HR :0.77736: (Sim:14h47m0s) 
CPU  2 inst: 1011000004 cyc: 1302826121 now IPC :0.22392: AVG IPC :0.77505: L2-Pf-HR :0.90241: L2-HR :0.81407: (Sim:14h49m12s) 
CPU  0 inst: 1036000003 cyc: 1307048457 now IPC :0.05937: AVG IPC :0.79169: L2-Pf-HR :0.78115: L2-HR :0.75817: (Sim:14h51m19s) 
CPU  2 inst: 1012000003 cyc: 1307050637 now IPC :0.23671: AVG IPC :0.77331: L2-Pf-HR :0.90244: L2-HR :0.81406: (Sim:14h51m19s) 
CPU  2 inst: 1013000003 cyc: 1311463634 now IPC :0.22660: AVG IPC :0.77147: L2-Pf-HR :0.90236: L2-HR :0.81401: (Sim:14h53m31s) 
CPU  2 inst: 1014000000 cyc: 1314722621 now IPC :0.30684: AVG IPC :0.77032: L2-Pf-HR :0.90240: L2-HR :0.81408: (Sim:14h54m56s) 
CPU  3 inst: 1037000003 cyc: 1314835969 now IPC :0.05881: AVG IPC :0.78776: L2-Pf-HR :0.79106: L2-HR :0.76121: (Sim:14h54m57s) 
CPU  1 inst: 1034000005 cyc: 1315646312 now IPC :0.05862: AVG IPC :0.78499: L2-Pf-HR :0.81905: L2-HR :0.77516: (Sim:14h55m10s) 
CPU  2 inst: 1015000000 cyc: 1318987849 now IPC :0.23445: AVG IPC :0.76858: L2-Pf-HR :0.90245: L2-HR :0.81408: (Sim:14h56m32s) 
CPU  2 inst: 1016000000 cyc: 1322901983 now IPC :0.25548: AVG IPC :0.76706: L2-Pf-HR :0.90248: L2-HR :0.81409: (Sim:14h58m35s) 
CPU  0 inst: 1037000005 cyc: 1323754931 now IPC :0.05986: AVG IPC :0.78245: L2-Pf-HR :0.77816: L2-HR :0.75607: (Sim:14h59m2s) 
CPU  2 inst: 1017000001 cyc: 1327040581 now IPC :0.24163: AVG IPC :0.76542: L2-Pf-HR :0.90252: L2-HR :0.81409: (Sim:15h0m45s) 
CPU  2 inst: 1018000001 cyc: 1331291760 now IPC :0.23523: AVG IPC :0.76373: L2-Pf-HR :0.90256: L2-HR :0.81409: (Sim:15h2m29s) 
CPU  3 inst: 1038000001 cyc: 1331437862 now IPC :0.06023: AVG IPC :0.77868: L2-Pf-HR :0.78818: L2-HR :0.75914: (Sim:15h2m31s) 
CPU  1 inst: 1035000004 cyc: 1332229536 now IPC :0.06030: AVG IPC :0.77596: L2-Pf-HR :0.81620: L2-HR :0.77300: (Sim:15h2m44s) 
CPU  2 inst: 1019000002 cyc: 1335591470 now IPC :0.23257: AVG IPC :0.76202: L2-Pf-HR :0.90249: L2-HR :0.81404: (Sim:15h3m38s) 
CPU  2 inst: 1020000005 cyc: 1339121241 now IPC :0.28331: AVG IPC :0.76076: L2-Pf-HR :0.90252: L2-HR :0.81409: (Sim:15h5m20s) 
CPU  0 inst: 1038000001 cyc: 1340409104 now IPC :0.06004: AVG IPC :0.77346: L2-Pf-HR :0.77519: L2-HR :0.75402: (Sim:15h5m59s) 
CPU  2 inst: 1021000005 cyc: 1343284211 now IPC :0.24021: AVG IPC :0.75914: L2-Pf-HR :0.90257: L2-HR :0.81410: (Sim:15h7m27s) 
CPU  2 inst: 1022000003 cyc: 1347457177 now IPC :0.23964: AVG IPC :0.75753: L2-Pf-HR :0.90262: L2-HR :0.81411: (Sim:15h9m38s) 
CPU  3 inst: 1039000003 cyc: 1348219119 now IPC :0.05959: AVG IPC :0.76972: L2-Pf-HR :0.78531: L2-HR :0.75713: (Sim:15h10m0s) 
CPU  1 inst: 1036000003 cyc: 1349070439 now IPC :0.05938: AVG IPC :0.76701: L2-Pf-HR :0.81339: L2-HR :0.77087: (Sim:15h10m26s) 
CPU  2 inst: 1023000000 cyc: 1351580782 now IPC :0.24251: AVG IPC :0.75596: L2-Pf-HR :0.90250: L2-HR :0.81402: (Sim:15h11m45s) 
CPU  2 inst: 1024000005 cyc: 1354586594 now IPC :0.33269: AVG IPC :0.75502: L2-Pf-HR :0.90238: L2-HR :0.81399: (Sim:15h13m21s) 
CPU  0 inst: 1039000003 cyc: 1357443531 now IPC :0.05870: AVG IPC :0.76449: L2-Pf-HR :0.77227: L2-HR :0.75200: (Sim:15h14m53s) 
CPU  2 inst: 1025000004 cyc: 1357449289 now IPC :0.34932: AVG IPC :0.75416: L2-Pf-HR :0.90224: L2-HR :0.81397: (Sim:15h14m53s) 
CPU  2 inst: 1026000004 cyc: 1359647464 now IPC :0.45492: AVG IPC :0.75368: L2-Pf-HR :0.90212: L2-HR :0.81399: (Sim:15h16m6s) 
CPU  3 inst: 1040000002 cyc: 1366112218 now IPC :0.05589: AVG IPC :0.76037: L2-Pf-HR :0.78252: L2-HR :0.75514: (Sim:15h19m12s) 
CPU  1 inst: 1037000005 cyc: 1367074151 now IPC :0.05554: AVG IPC :0.75763: L2-Pf-HR :0.81066: L2-HR :0.76878: (Sim:15h19m31s) 
CPU  0 inst: 1040000000 cyc: 1377615577 now IPC :0.04957: AVG IPC :0.75401: L2-Pf-HR :0.76944: L2-HR :0.75002: (Sim:15h24m19s) 
CPU  2 inst: 1027000000 cyc: 1383388605 now IPC :0.04212: AVG IPC :0.74146: L2-Pf-HR :0.89958: L2-HR :0.81162: (Sim:15h27m21s) 
CPU  3 inst: 1041000001 cyc: 1387249579 now IPC :0.04731: AVG IPC :0.74949: L2-Pf-HR :0.77978: L2-HR :0.75318: (Sim:15h29m18s) 
CPU  1 inst: 1038000004 cyc: 1388223491 now IPC :0.04728: AVG IPC :0.74680: L2-Pf-HR :0.80798: L2-HR :0.76673: (Sim:15h29m47s) 
CPU  0 inst: 1041000001 cyc: 1398257723 now IPC :0.04844: AVG IPC :0.74359: L2-Pf-HR :0.76664: L2-HR :0.74807: (Sim:15h35m0s) 
CPU  2 inst: 1028000002 cyc: 1404119164 now IPC :0.04824: AVG IPC :0.73122: L2-Pf-HR :0.89685: L2-HR :0.80918: (Sim:15h37m11s) 
CPU  3 inst: 1042000003 cyc: 1407813333 now IPC :0.04863: AVG IPC :0.73925: L2-Pf-HR :0.77709: L2-HR :0.75127: (Sim:15h39m9s) 
CPU  1 inst: 1039000003 cyc: 1408892105 now IPC :0.04838: AVG IPC :0.73655: L2-Pf-HR :0.80531: L2-HR :0.76472: (Sim:15h39m42s) 
CPU  0 inst: 1042000000 cyc: 1418927790 now IPC :0.04838: AVG IPC :0.73345: L2-Pf-HR :0.76387: L2-HR :0.74617: (Sim:15h43m58s) 
CPU  2 inst: 1029000001 cyc: 1424631595 now IPC :0.04875: AVG IPC :0.72138: L2-Pf-HR :0.89413: L2-HR :0.80678: (Sim:15h45m59s) 
CPU  3 inst: 1043000002 cyc: 1428346228 now IPC :0.04870: AVG IPC :0.72931: L2-Pf-HR :0.77440: L2-HR :0.74939: (Sim:15h47m59s) 
CPU  1 inst: 1040000005 cyc: 1429444476 now IPC :0.04866: AVG IPC :0.72665: L2-Pf-HR :0.80266: L2-HR :0.76275: (Sim:15h48m34s) 
CPU  0 inst: 1043000005 cyc: 1439683687 now IPC :0.04818: AVG IPC :0.72357: L2-Pf-HR :0.76115: L2-HR :0.74429: (Sim:15h53m55s) 
CPU  2 inst: 1030000000 cyc: 1445166318 now IPC :0.04870: AVG IPC :0.71182: L2-Pf-HR :0.89144: L2-HR :0.80442: (Sim:15h56m48s) 
CPU  3 inst: 1044000001 cyc: 1448935233 now IPC :0.04857: AVG IPC :0.71964: L2-Pf-HR :0.77174: L2-HR :0.74755: (Sim:15h57m58s) 
CPU  1 inst: 1041000001 cyc: 1449970085 now IPC :0.04872: AVG IPC :0.71705: L2-Pf-HR :0.80005: L2-HR :0.76081: (Sim:15h58m15s) 
CPU  0 inst: 1044000001 cyc: 1460193961 now IPC :0.04876: AVG IPC :0.71408: L2-Pf-HR :0.75845: L2-HR :0.74246: (Sim:16h2m20s) 
CPU  2 inst: 1031000005 cyc: 1465762752 now IPC :0.04855: AVG IPC :0.70249: L2-Pf-HR :0.88877: L2-HR :0.80211: (Sim:16h5m11s) 
CPU  3 inst: 1045000001 cyc: 1469468522 now IPC :0.04870: AVG IPC :0.71025: L2-Pf-HR :0.76913: L2-HR :0.74573: (Sim:16h6m44s) 
CPU  1 inst: 1042000000 cyc: 1470628694 now IPC :0.04841: AVG IPC :0.70765: L2-Pf-HR :0.79745: L2-HR :0.75891: (Sim:16h7m18s) 
CPU  0 inst: 1045000001 cyc: 1480866109 now IPC :0.04837: AVG IPC :0.70478: L2-Pf-HR :0.75578: L2-HR :0.74066: (Sim:16h11m35s) 
CPU  2 inst: 1032000001 cyc: 1486407621 now IPC :0.04844: AVG IPC :0.69340: L2-Pf-HR :0.88614: L2-HR :0.79984: (Sim:16h14m6s) 
CPU  3 inst: 1046000005 cyc: 1490028399 now IPC :0.04864: AVG IPC :0.70112: L2-Pf-HR :0.76654: L2-HR :0.74396: (Sim:16h16m4s) 
CPU  1 inst: 1043000005 cyc: 1491200337 now IPC :0.04861: AVG IPC :0.69855: L2-Pf-HR :0.79489: L2-HR :0.75704: (Sim:16h16m42s) 
CPU  0 inst: 1046000005 cyc: 1501542268 now IPC :0.04837: AVG IPC :0.69574: L2-Pf-HR :0.75315: L2-HR :0.73889: (Sim:16h21m53s) 
CPU  2 inst: 1033000000 cyc: 1506885226 now IPC :0.04883: AVG IPC :0.68464: L2-Pf-HR :0.88353: L2-HR :0.79761: (Sim:16h24m19s) 
CPU  3 inst: 1047000001 cyc: 1510632906 now IPC :0.04853: AVG IPC :0.69221: L2-Pf-HR :0.76398: L2-HR :0.74221: (Sim:16h25m56s) 
CPU  1 inst: 1044000001 cyc: 1511803124 now IPC :0.04854: AVG IPC :0.68969: L2-Pf-HR :0.79235: L2-HR :0.75520: (Sim:16h26m34s) 
CPU  0 inst: 1047000005 cyc: 1522035032 now IPC :0.04880: AVG IPC :0.68702: L2-Pf-HR :0.75054: L2-HR :0.73715: (Sim:16h31m37s) 
CPU  2 inst: 1034000002 cyc: 1527501927 now IPC :0.04850: AVG IPC :0.67605: L2-Pf-HR :0.88094: L2-HR :0.79541: (Sim:16h33m28s) 
CPU  3 inst: 1048000000 cyc: 1531195262 now IPC :0.04863: AVG IPC :0.68356: L2-Pf-HR :0.76146: L2-HR :0.74049: (Sim:16h34m40s) 
CPU  1 inst: 1045000001 cyc: 1532385351 now IPC :0.04859: AVG IPC :0.68107: L2-Pf-HR :0.78984: L2-HR :0.75340: (Sim:16h35m18s) 
CPU  0 inst: 1048000000 cyc: 1542642516 now IPC :0.04853: AVG IPC :0.67849: L2-Pf-HR :0.74796: L2-HR :0.73545: (Sim:16h40m5s) 
CPU  2 inst: 1035000004 cyc: 1547933778 now IPC :0.04894: AVG IPC :0.66776: L2-Pf-HR :0.87837: L2-HR :0.79326: (Sim:16h42m53s) 
CPU  3 inst: 1049000002 cyc: 1551812965 now IPC :0.04850: AVG IPC :0.67512: L2-Pf-HR :0.75896: L2-HR :0.73881: (Sim:16h44m57s) 
CPU  1 inst: 1046000002 cyc: 1553067806 now IPC :0.04835: AVG IPC :0.67264: L2-Pf-HR :0.78735: L2-HR :0.75163: (Sim:16h45m37s) 
CPU  0 inst: 1049000005 cyc: 1562944876 now IPC :0.04926: AVG IPC :0.67031: L2-Pf-HR :0.74541: L2-HR :0.73378: (Sim:16h50m54s) 
CPU  2 inst: 1036000003 cyc: 1568630496 now IPC :0.04832: AVG IPC :0.65959: L2-Pf-HR :0.87583: L2-HR :0.79114: (Sim:16h53m45s) 
CPU  3 inst: 1050000004 cyc: 1572400763 now IPC :0.04857: AVG IPC :0.66691: L2-Pf-HR :0.75648: L2-HR :0.73716: (Sim:16h55m23s) 
CPU  1 inst: 1047000004 cyc: 1573555335 now IPC :0.04881: AVG IPC :0.66451: L2-Pf-HR :0.78488: L2-HR :0.74989: (Sim:16h55m47s) 
CPU  0 inst: 1050000001 cyc: 1583575958 now IPC :0.04847: AVG IPC :0.66220: L2-Pf-HR :0.74289: L2-HR :0.73214: (Sim:17h0m4s) 
CPU  2 inst: 1037000003 cyc: 1589329006 now IPC :0.04831: AVG IPC :0.65162: L2-Pf-HR :0.87331: L2-HR :0.78907: (Sim:17h1m35s) 
CPU  3 inst: 1051000003 cyc: 1592941013 now IPC :0.04868: AVG IPC :0.65894: L2-Pf-HR :0.75403: L2-HR :0.73553: (Sim:17h3m16s) 
CPU  1 inst: 1048000000 cyc: 1594083107 now IPC :0.04871: AVG IPC :0.65658: L2-Pf-HR :0.78245: L2-HR :0.74818: (Sim:17h3m52s) 
Caught signal: 2
     > Finished combination: TraceType=770-tot Sim:2634000000 Prefetcher=L2bingo_dpc3 L1=bingo_dpc3
