TRACE: _v1[331000000]Pythia-70M_[h8][s1024][d64] Warmup: 2000000 NumTraces: 331000000
L1:no:L2:next_line
*************************************************
   ChampSim Multicore Out-of-Order Simulator
   Last compiled: Jul 21 2024 01:47:28
*************************************************

trace_0 770-tot_memTraces_v3/memTraces_v1[331000000]Pythia-70M_[h8][s1024][d64].champsim.xz
CPU 0 L2C next line prefetcher
warmup_instructions 2000000
simulation_instructions 326000000
champsim_seed 1507

num_cpus 1
cpu_freq 4000
dram_io_freq 2400
page_size 4096
block_size 64
max_read_per_cycle 8
max_fill_per_cycle 1
dram_channels 1
dram_ranks 1
dram_banks 8
dram_rows 65536
dram_columns 128
dram_row_size 8
dram_size 4096
dram_pages 1048576

fetch_width 6
decode_width 6
exec_width 4
lq_width 2
sq_width 2
retire_width 4
scheduler_size 128
branch_mispredict_penalty 20
rob_size 256
lq_size 72
sq_size 56
num_instr_destinations_sparc 4
num_instr_destinations 2
num_instr_sources 4

itlb_set 16
itlb_way 8
itlb_rq_size 16
itlb_wq_size 16
itlb_pq_size 0
itlb_mshr_size 8
itlb_latency 1

dtlb_set 16
dtlb_way 4
dtlb_rq_size 16
dtlb_wq_size 16
dtlb_pq_size 0
dtlb_mshr_size 8
dtlb_latency 1

stlb_set 128
stlb_way 12
stlb_rq_size 32
stlb_wq_size 32
stlb_pq_size 0
stlb_mshr_size 16
stlb_latency 8

l1i_size 32
l1i_set 64
l1i_way 8
l1i_rq_size 64
l1i_wq_size 64
l1i_pq_size 8
l1i_mshr_size 8
l1i_latency 1

l1d_size 32
l1d_set 64
l1d_way 8
l1d_rq_size 64
l1d_wq_size 64
l1d_pq_size 8
l1d_mshr_size 16
l1d_latency 4

l2c_size 512
l2c_set 1024
l2c_way 8
l2c_rq_size 32
l2c_wq_size 32
l2c_pq_size 16
l2c_mshr_size 32
l2c_latency 10

llc_size 2048
llc_set 2048
llc_way 16
llc_rq_size 32
llc_wq_size 32
llc_pq_size 32
llc_mshr_size 64
llc_latency 20

dram_channel_width 8
dram_wq_size 64
dram_rq_size 64
tRP 15
tRCD 15
tCAS 12.5
dram_dbus_turn_around_time 30
dram_write_high_wm 56
dram_write_low_wm 48
min_dram_writes_per_switch 16
dram_mtps 2400
dram_dbus_return_time 13


Heartbeat CPU  0 instructions:    1000001 cycles:     504271 heartbeat IPC: 1.98306 cumulative IPC: 1.98306 (Simulation time: 0 hr 0 min 5 sec) 
Heartbeat CPU  0 instructions:    2000000 cycles:     981075 heartbeat IPC: 2.09730 cumulative IPC: 2.03858 (Simulation time: 0 hr 0 min 9 sec) 

Warmup complete CPU  0 instructions:    2000001 cycles:     981076 (Simulation time: 0 hr 0 min 9 sec) 

Heartbeat CPU  0 instructions:    3000001 cycles:    1628606 heartbeat IPC: 1.54433 cumulative IPC: 1.54433 (Simulation time: 0 hr 0 min 13 sec) 
Heartbeat CPU  0 instructions:    4000000 cycles:    2297149 heartbeat IPC: 1.49579 cumulative IPC: 1.51967 (Simulation time: 0 hr 0 min 17 sec) 
Heartbeat CPU  0 instructions:    5000000 cycles:    2953984 heartbeat IPC: 1.52245 cumulative IPC: 1.52060 (Simulation time: 0 hr 0 min 22 sec) 
Heartbeat CPU  0 instructions:    6000001 cycles:    3632690 heartbeat IPC: 1.47339 cumulative IPC: 1.50852 (Simulation time: 0 hr 0 min 26 sec) 
Heartbeat CPU  0 instructions:    7000003 cycles:    4449364 heartbeat IPC: 1.22448 cumulative IPC: 1.44163 (Simulation time: 0 hr 0 min 30 sec) 
Heartbeat CPU  0 instructions:    8000000 cycles:    5147834 heartbeat IPC: 1.43170 cumulative IPC: 1.43997 (Simulation time: 0 hr 0 min 34 sec) 
Heartbeat CPU  0 instructions:    9000003 cycles:    5840732 heartbeat IPC: 1.44322 cumulative IPC: 1.44043 (Simulation time: 0 hr 0 min 37 sec) 
Heartbeat CPU  0 instructions:   10000000 cycles:    6546419 heartbeat IPC: 1.41705 cumulative IPC: 1.43747 (Simulation time: 0 hr 0 min 40 sec) 
Heartbeat CPU  0 instructions:   11000001 cycles:    7226004 heartbeat IPC: 1.47149 cumulative IPC: 1.44117 (Simulation time: 0 hr 0 min 43 sec) 
Heartbeat CPU  0 instructions:   12000000 cycles:    7923339 heartbeat IPC: 1.43403 cumulative IPC: 1.44045 (Simulation time: 0 hr 0 min 46 sec) 
Heartbeat CPU  0 instructions:   13000002 cycles:    8684593 heartbeat IPC: 1.31362 cumulative IPC: 1.42792 (Simulation time: 0 hr 0 min 50 sec) 
Heartbeat CPU  0 instructions:   14000001 cycles:    9365544 heartbeat IPC: 1.46853 cumulative IPC: 1.43122 (Simulation time: 0 hr 0 min 54 sec) 
Heartbeat CPU  0 instructions:   15000003 cycles:   10028330 heartbeat IPC: 1.50879 cumulative IPC: 1.43690 (Simulation time: 0 hr 0 min 58 sec) 
Heartbeat CPU  0 instructions:   16000000 cycles:   10690580 heartbeat IPC: 1.51000 cumulative IPC: 1.44189 (Simulation time: 0 hr 1 min 3 sec) 
Heartbeat CPU  0 instructions:   17000002 cycles:   11533969 heartbeat IPC: 1.18569 cumulative IPC: 1.42141 (Simulation time: 0 hr 1 min 7 sec) 
Heartbeat CPU  0 instructions:   18000003 cycles:   12208640 heartbeat IPC: 1.48221 cumulative IPC: 1.42506 (Simulation time: 0 hr 1 min 12 sec) 
Heartbeat CPU  0 instructions:   19000001 cycles:   12905098 heartbeat IPC: 1.43583 cumulative IPC: 1.42569 (Simulation time: 0 hr 1 min 16 sec) 
Heartbeat CPU  0 instructions:   20000000 cycles:   13586060 heartbeat IPC: 1.46851 cumulative IPC: 1.42801 (Simulation time: 0 hr 1 min 21 sec) 
Heartbeat CPU  0 instructions:   21000001 cycles:   14287416 heartbeat IPC: 1.42581 cumulative IPC: 1.42789 (Simulation time: 0 hr 1 min 25 sec) 
Heartbeat CPU  0 instructions:   22000001 cycles:   14985727 heartbeat IPC: 1.43203 cumulative IPC: 1.42810 (Simulation time: 0 hr 1 min 30 sec) 
Heartbeat CPU  0 instructions:   23000003 cycles:   15820633 heartbeat IPC: 1.19774 cumulative IPC: 1.41514 (Simulation time: 0 hr 1 min 34 sec) 
Heartbeat CPU  0 instructions:   24000000 cycles:   16518132 heartbeat IPC: 1.43369 cumulative IPC: 1.41597 (Simulation time: 0 hr 1 min 38 sec) 
Heartbeat CPU  0 instructions:   25000003 cycles:   17218894 heartbeat IPC: 1.42702 cumulative IPC: 1.41645 (Simulation time: 0 hr 1 min 43 sec) 
Heartbeat CPU  0 instructions:   26000000 cycles:   17903799 heartbeat IPC: 1.46005 cumulative IPC: 1.41821 (Simulation time: 0 hr 1 min 47 sec) 
Heartbeat CPU  0 instructions:   27000002 cycles:   18607637 heartbeat IPC: 1.42078 cumulative IPC: 1.41831 (Simulation time: 0 hr 1 min 52 sec) 
Heartbeat CPU  0 instructions:   28000000 cycles:   19289714 heartbeat IPC: 1.46611 cumulative IPC: 1.42009 (Simulation time: 0 hr 1 min 56 sec) 
Heartbeat CPU  0 instructions:   29000003 cycles:   20064686 heartbeat IPC: 1.29037 cumulative IPC: 1.41483 (Simulation time: 0 hr 2 min 1 sec) 
Heartbeat CPU  0 instructions:   30000001 cycles:   20735426 heartbeat IPC: 1.49089 cumulative IPC: 1.41741 (Simulation time: 0 hr 2 min 5 sec) 
Heartbeat CPU  0 instructions:   31000002 cycles:   21392180 heartbeat IPC: 1.52264 cumulative IPC: 1.42080 (Simulation time: 0 hr 2 min 9 sec) 
Heartbeat CPU  0 instructions:   32000000 cycles:   22057268 heartbeat IPC: 1.50356 cumulative IPC: 1.42341 (Simulation time: 0 hr 2 min 14 sec) 
Heartbeat CPU  0 instructions:   33000003 cycles:   22870893 heartbeat IPC: 1.22907 cumulative IPC: 1.41618 (Simulation time: 0 hr 2 min 18 sec) 
Heartbeat CPU  0 instructions:   34000000 cycles:   23568223 heartbeat IPC: 1.43404 cumulative IPC: 1.41673 (Simulation time: 0 hr 2 min 23 sec) 
Heartbeat CPU  0 instructions:   35000003 cycles:   24245654 heartbeat IPC: 1.47617 cumulative IPC: 1.41847 (Simulation time: 0 hr 2 min 26 sec) 
Heartbeat CPU  0 instructions:   36000000 cycles:   24941277 heartbeat IPC: 1.43756 cumulative IPC: 1.41902 (Simulation time: 0 hr 2 min 29 sec) 
Heartbeat CPU  0 instructions:   37000003 cycles:   25629528 heartbeat IPC: 1.45296 cumulative IPC: 1.41997 (Simulation time: 0 hr 2 min 32 sec) 
Heartbeat CPU  0 instructions:   38000002 cycles:   26330864 heartbeat IPC: 1.42585 cumulative IPC: 1.42013 (Simulation time: 0 hr 2 min 35 sec) 
Heartbeat CPU  0 instructions:   39000002 cycles:   27159358 heartbeat IPC: 1.20701 cumulative IPC: 1.41339 (Simulation time: 0 hr 2 min 38 sec) 
Heartbeat CPU  0 instructions:   40000000 cycles:   27853889 heartbeat IPC: 1.43982 cumulative IPC: 1.41407 (Simulation time: 0 hr 2 min 41 sec) 
Heartbeat CPU  0 instructions:   41000003 cycles:   28540159 heartbeat IPC: 1.45716 cumulative IPC: 1.41514 (Simulation time: 0 hr 2 min 43 sec) 
Heartbeat CPU  0 instructions:   42000000 cycles:   29237591 heartbeat IPC: 1.43383 cumulative IPC: 1.41560 (Simulation time: 0 hr 2 min 46 sec) 
Heartbeat CPU  0 instructions:   43000001 cycles:   29908806 heartbeat IPC: 1.48984 cumulative IPC: 1.41733 (Simulation time: 0 hr 2 min 49 sec) 
Heartbeat CPU  0 instructions:   44000000 cycles:   30609165 heartbeat IPC: 1.42784 cumulative IPC: 1.41757 (Simulation time: 0 hr 2 min 52 sec) 
Heartbeat CPU  0 instructions:   45000003 cycles:   31375617 heartbeat IPC: 1.30472 cumulative IPC: 1.41473 (Simulation time: 0 hr 2 min 55 sec) 
Heartbeat CPU  0 instructions:   46000003 cycles:   32041517 heartbeat IPC: 1.50173 cumulative IPC: 1.41659 (Simulation time: 0 hr 2 min 57 sec) 
Heartbeat CPU  0 instructions:   47000003 cycles:   32713671 heartbeat IPC: 1.48775 cumulative IPC: 1.41810 (Simulation time: 0 hr 3 min 0 sec) 
Heartbeat CPU  0 instructions:   48000000 cycles:   33377141 heartbeat IPC: 1.50722 cumulative IPC: 1.41993 (Simulation time: 0 hr 3 min 3 sec) 
Heartbeat CPU  0 instructions:   49000001 cycles:   34201288 heartbeat IPC: 1.21338 cumulative IPC: 1.41480 (Simulation time: 0 hr 3 min 6 sec) 
Heartbeat CPU  0 instructions:   50000000 cycles:   34881313 heartbeat IPC: 1.47053 cumulative IPC: 1.41592 (Simulation time: 0 hr 3 min 9 sec) 
Heartbeat CPU  0 instructions:   51000002 cycles:   35582063 heartbeat IPC: 1.42705 cumulative IPC: 1.41614 (Simulation time: 0 hr 3 min 12 sec) 
Heartbeat CPU  0 instructions:   52000000 cycles:   36266202 heartbeat IPC: 1.46169 cumulative IPC: 1.41703 (Simulation time: 0 hr 3 min 15 sec) 
Heartbeat CPU  0 instructions:   53000003 cycles:   36962566 heartbeat IPC: 1.43603 cumulative IPC: 1.41740 (Simulation time: 0 hr 3 min 18 sec) 
Heartbeat CPU  0 instructions:   54000003 cycles:   37666918 heartbeat IPC: 1.41974 cumulative IPC: 1.41744 (Simulation time: 0 hr 3 min 21 sec) 
Heartbeat CPU  0 instructions:   55000000 cycles:   38498643 heartbeat IPC: 1.20232 cumulative IPC: 1.41267 (Simulation time: 0 hr 3 min 24 sec) 
Heartbeat CPU  0 instructions:   56000000 cycles:   39184531 heartbeat IPC: 1.45796 cumulative IPC: 1.41348 (Simulation time: 0 hr 3 min 27 sec) 
Heartbeat CPU  0 instructions:   57000003 cycles:   39876122 heartbeat IPC: 1.44595 cumulative IPC: 1.41406 (Simulation time: 0 hr 3 min 29 sec) 
Heartbeat CPU  0 instructions:   58000003 cycles:   40544969 heartbeat IPC: 1.49511 cumulative IPC: 1.41543 (Simulation time: 0 hr 3 min 32 sec) 
Heartbeat CPU  0 instructions:   59000001 cycles:   41236082 heartbeat IPC: 1.44694 cumulative IPC: 1.41597 (Simulation time: 0 hr 3 min 37 sec) 
Heartbeat CPU  0 instructions:   60000000 cycles:   41900481 heartbeat IPC: 1.50512 cumulative IPC: 1.41742 (Simulation time: 0 hr 3 min 41 sec) 
Heartbeat CPU  0 instructions:   61000001 cycles:   42673060 heartbeat IPC: 1.29437 cumulative IPC: 1.41514 (Simulation time: 0 hr 3 min 46 sec) 
Heartbeat CPU  0 instructions:   62000003 cycles:   43351924 heartbeat IPC: 1.47305 cumulative IPC: 1.41607 (Simulation time: 0 hr 3 min 50 sec) 
Heartbeat CPU  0 instructions:   63000003 cycles:   44024420 heartbeat IPC: 1.48700 cumulative IPC: 1.41718 (Simulation time: 0 hr 3 min 55 sec) 
Heartbeat CPU  0 instructions:   64000000 cycles:   44680586 heartbeat IPC: 1.52400 cumulative IPC: 1.41878 (Simulation time: 0 hr 4 min 0 sec) 
Heartbeat CPU  0 instructions:   65000002 cycles:   45493502 heartbeat IPC: 1.23014 cumulative IPC: 1.41534 (Simulation time: 0 hr 4 min 4 sec) 
Heartbeat CPU  0 instructions:   66000002 cycles:   46182177 heartbeat IPC: 1.45206 cumulative IPC: 1.41589 (Simulation time: 0 hr 4 min 9 sec) 
Heartbeat CPU  0 instructions:   67000001 cycles:   46859861 heartbeat IPC: 1.47561 cumulative IPC: 1.41678 (Simulation time: 0 hr 4 min 13 sec) 
Heartbeat CPU  0 instructions:   68000000 cycles:   47547634 heartbeat IPC: 1.45397 cumulative IPC: 1.41733 (Simulation time: 0 hr 4 min 18 sec) 
Heartbeat CPU  0 instructions:   69000000 cycles:   48237819 heartbeat IPC: 1.44889 cumulative IPC: 1.41779 (Simulation time: 0 hr 4 min 22 sec) 
Heartbeat CPU  0 instructions:   70000002 cycles:   48935301 heartbeat IPC: 1.43373 cumulative IPC: 1.41802 (Simulation time: 0 hr 4 min 27 sec) 
Heartbeat CPU  0 instructions:   71000003 cycles:   49773718 heartbeat IPC: 1.19273 cumulative IPC: 1.41415 (Simulation time: 0 hr 4 min 31 sec) 
Heartbeat CPU  0 instructions:   72000000 cycles:   50497229 heartbeat IPC: 1.38214 cumulative IPC: 1.41368 (Simulation time: 0 hr 4 min 36 sec) 
Heartbeat CPU  0 instructions:   73000003 cycles:   51207425 heartbeat IPC: 1.40807 cumulative IPC: 1.41360 (Simulation time: 0 hr 4 min 40 sec) 
Heartbeat CPU  0 instructions:   74000003 cycles:   51925411 heartbeat IPC: 1.39278 cumulative IPC: 1.41331 (Simulation time: 0 hr 4 min 45 sec) 
Heartbeat CPU  0 instructions:   75000001 cycles:   52626775 heartbeat IPC: 1.42579 cumulative IPC: 1.41348 (Simulation time: 0 hr 4 min 49 sec) 
Heartbeat CPU  0 instructions:   76000000 cycles:   53345655 heartbeat IPC: 1.39105 cumulative IPC: 1.41317 (Simulation time: 0 hr 4 min 53 sec) 
Heartbeat CPU  0 instructions:   77000002 cycles:   54124233 heartbeat IPC: 1.28440 cumulative IPC: 1.41128 (Simulation time: 0 hr 4 min 58 sec) 
Heartbeat CPU  0 instructions:   78000001 cycles:   54808254 heartbeat IPC: 1.46194 cumulative IPC: 1.41193 (Simulation time: 0 hr 5 min 2 sec) 
Heartbeat CPU  0 instructions:   79000001 cycles:   55468667 heartbeat IPC: 1.51420 cumulative IPC: 1.41317 (Simulation time: 0 hr 5 min 7 sec) 
Heartbeat CPU  0 instructions:   80000000 cycles:   56135759 heartbeat IPC: 1.49904 cumulative IPC: 1.41420 (Simulation time: 0 hr 5 min 11 sec) 
Heartbeat CPU  0 instructions:   81000002 cycles:   56951432 heartbeat IPC: 1.22598 cumulative IPC: 1.41146 (Simulation time: 0 hr 5 min 15 sec) 
Heartbeat CPU  0 instructions:   82000000 cycles:   57630774 heartbeat IPC: 1.47201 cumulative IPC: 1.41219 (Simulation time: 0 hr 5 min 20 sec) 
Heartbeat CPU  0 instructions:   83000002 cycles:   58325597 heartbeat IPC: 1.43922 cumulative IPC: 1.41252 (Simulation time: 0 hr 5 min 24 sec) 
Heartbeat CPU  0 instructions:   84000000 cycles:   59010030 heartbeat IPC: 1.46106 cumulative IPC: 1.41309 (Simulation time: 0 hr 5 min 29 sec) 
Heartbeat CPU  0 instructions:   85000001 cycles:   59704688 heartbeat IPC: 1.43956 cumulative IPC: 1.41340 (Simulation time: 0 hr 5 min 33 sec) 
Heartbeat CPU  0 instructions:   86000002 cycles:   60404682 heartbeat IPC: 1.42859 cumulative IPC: 1.41358 (Simulation time: 0 hr 5 min 37 sec) 
Heartbeat CPU  0 instructions:   87000003 cycles:   61224091 heartbeat IPC: 1.22039 cumulative IPC: 1.41095 (Simulation time: 0 hr 5 min 42 sec) 
Heartbeat CPU  0 instructions:   88000000 cycles:   61931077 heartbeat IPC: 1.41445 cumulative IPC: 1.41099 (Simulation time: 0 hr 5 min 46 sec) 
Heartbeat CPU  0 instructions:   89000003 cycles:   62630003 heartbeat IPC: 1.43077 cumulative IPC: 1.41122 (Simulation time: 0 hr 5 min 51 sec) 
Heartbeat CPU  0 instructions:   90000002 cycles:   63298039 heartbeat IPC: 1.49692 cumulative IPC: 1.41214 (Simulation time: 0 hr 5 min 55 sec) 
Heartbeat CPU  0 instructions:   91000001 cycles:   63991162 heartbeat IPC: 1.44274 cumulative IPC: 1.41247 (Simulation time: 0 hr 5 min 59 sec) 
Heartbeat CPU  0 instructions:   92000000 cycles:   64662215 heartbeat IPC: 1.49019 cumulative IPC: 1.41329 (Simulation time: 0 hr 6 min 4 sec) 
Heartbeat CPU  0 instructions:   93000003 cycles:   65429678 heartbeat IPC: 1.30300 cumulative IPC: 1.41198 (Simulation time: 0 hr 6 min 8 sec) 
Heartbeat CPU  0 instructions:   94000000 cycles:   66112392 heartbeat IPC: 1.46474 cumulative IPC: 1.41253 (Simulation time: 0 hr 6 min 13 sec) 
Heartbeat CPU  0 instructions:   95000002 cycles:   66787116 heartbeat IPC: 1.48209 cumulative IPC: 1.41324 (Simulation time: 0 hr 6 min 17 sec) 
Heartbeat CPU  0 instructions:   96000000 cycles:   67462387 heartbeat IPC: 1.48088 cumulative IPC: 1.41393 (Simulation time: 0 hr 6 min 21 sec) 
Heartbeat CPU  0 instructions:   97000001 cycles:   68238960 heartbeat IPC: 1.28771 cumulative IPC: 1.41247 (Simulation time: 0 hr 6 min 26 sec) 
Heartbeat CPU  0 instructions:   98000002 cycles:   68954170 heartbeat IPC: 1.39819 cumulative IPC: 1.41232 (Simulation time: 0 hr 6 min 30 sec) 
Heartbeat CPU  0 instructions:   99000001 cycles:   69638141 heartbeat IPC: 1.46205 cumulative IPC: 1.41282 (Simulation time: 0 hr 6 min 35 sec) 
Heartbeat CPU  0 instructions:  100000000 cycles:   70325412 heartbeat IPC: 1.45503 cumulative IPC: 1.41324 (Simulation time: 0 hr 6 min 39 sec) 
Heartbeat CPU  0 instructions:  101000003 cycles:   71015696 heartbeat IPC: 1.44868 cumulative IPC: 1.41359 (Simulation time: 0 hr 6 min 43 sec) 
Heartbeat CPU  0 instructions:  102000003 cycles:   71707177 heartbeat IPC: 1.44617 cumulative IPC: 1.41391 (Simulation time: 0 hr 6 min 48 sec) 
Heartbeat CPU  0 instructions:  103000001 cycles:   72428013 heartbeat IPC: 1.38728 cumulative IPC: 1.41364 (Simulation time: 0 hr 6 min 52 sec) 
Heartbeat CPU  0 instructions:  104000000 cycles:   73240543 heartbeat IPC: 1.23072 cumulative IPC: 1.41158 (Simulation time: 0 hr 6 min 57 sec) 
Heartbeat CPU  0 instructions:  105000003 cycles:   73912539 heartbeat IPC: 1.48811 cumulative IPC: 1.41228 (Simulation time: 0 hr 7 min 1 sec) 
Heartbeat CPU  0 instructions:  106000001 cycles:   74609295 heartbeat IPC: 1.43522 cumulative IPC: 1.41250 (Simulation time: 0 hr 7 min 6 sec) 
Heartbeat CPU  0 instructions:  107000003 cycles:   75278831 heartbeat IPC: 1.49357 cumulative IPC: 1.41323 (Simulation time: 0 hr 7 min 10 sec) 
Heartbeat CPU  0 instructions:  108000000 cycles:   75959765 heartbeat IPC: 1.46857 cumulative IPC: 1.41374 (Simulation time: 0 hr 7 min 14 sec) 
Heartbeat CPU  0 instructions:  109000002 cycles:   76643291 heartbeat IPC: 1.46301 cumulative IPC: 1.41418 (Simulation time: 0 hr 7 min 19 sec) 
Heartbeat CPU  0 instructions:  110000000 cycles:   77401750 heartbeat IPC: 1.31846 cumulative IPC: 1.41323 (Simulation time: 0 hr 7 min 23 sec) 
Heartbeat CPU  0 instructions:  111000003 cycles:   78082402 heartbeat IPC: 1.46918 cumulative IPC: 1.41372 (Simulation time: 0 hr 7 min 27 sec) 
Heartbeat CPU  0 instructions:  112000000 cycles:   78744581 heartbeat IPC: 1.51016 cumulative IPC: 1.41455 (Simulation time: 0 hr 7 min 32 sec) 
Heartbeat CPU  0 instructions:  113000002 cycles:   79409402 heartbeat IPC: 1.50417 cumulative IPC: 1.41531 (Simulation time: 0 hr 7 min 36 sec) 
Heartbeat CPU  0 instructions:  114000002 cycles:   80233493 heartbeat IPC: 1.21346 cumulative IPC: 1.41321 (Simulation time: 0 hr 7 min 41 sec) 
Heartbeat CPU  0 instructions:  115000002 cycles:   80929138 heartbeat IPC: 1.43751 cumulative IPC: 1.41342 (Simulation time: 0 hr 7 min 45 sec) 
Heartbeat CPU  0 instructions:  116000000 cycles:   81613654 heartbeat IPC: 1.46088 cumulative IPC: 1.41382 (Simulation time: 0 hr 7 min 49 sec) 
Heartbeat CPU  0 instructions:  117000000 cycles:   82307142 heartbeat IPC: 1.44199 cumulative IPC: 1.41406 (Simulation time: 0 hr 7 min 54 sec) 
Heartbeat CPU  0 instructions:  118000001 cycles:   83008090 heartbeat IPC: 1.42664 cumulative IPC: 1.41417 (Simulation time: 0 hr 7 min 58 sec) 
Heartbeat CPU  0 instructions:  119000003 cycles:   83700230 heartbeat IPC: 1.44480 cumulative IPC: 1.41442 (Simulation time: 0 hr 8 min 3 sec) 
Heartbeat CPU  0 instructions:  120000000 cycles:   84519215 heartbeat IPC: 1.22102 cumulative IPC: 1.41253 (Simulation time: 0 hr 8 min 7 sec) 
Heartbeat CPU  0 instructions:  121000003 cycles:   85218363 heartbeat IPC: 1.43032 cumulative IPC: 1.41268 (Simulation time: 0 hr 8 min 12 sec) 
Heartbeat CPU  0 instructions:  122000002 cycles:   85884746 heartbeat IPC: 1.50064 cumulative IPC: 1.41337 (Simulation time: 0 hr 8 min 16 sec) 
Heartbeat CPU  0 instructions:  123000002 cycles:   86573625 heartbeat IPC: 1.45163 cumulative IPC: 1.41367 (Simulation time: 0 hr 8 min 20 sec) 
Heartbeat CPU  0 instructions:  124000000 cycles:   87244412 heartbeat IPC: 1.49078 cumulative IPC: 1.41427 (Simulation time: 0 hr 8 min 25 sec) 
Heartbeat CPU  0 instructions:  125000001 cycles:   87922289 heartbeat IPC: 1.47520 cumulative IPC: 1.41475 (Simulation time: 0 hr 8 min 29 sec) 
Heartbeat CPU  0 instructions:  126000001 cycles:   88700382 heartbeat IPC: 1.28519 cumulative IPC: 1.41360 (Simulation time: 0 hr 8 min 33 sec) 
Heartbeat CPU  0 instructions:  127000002 cycles:   89373075 heartbeat IPC: 1.48656 cumulative IPC: 1.41416 (Simulation time: 0 hr 8 min 38 sec) 
Heartbeat CPU  0 instructions:  128000000 cycles:   90034671 heartbeat IPC: 1.51149 cumulative IPC: 1.41488 (Simulation time: 0 hr 8 min 42 sec) 
Heartbeat CPU  0 instructions:  129000003 cycles:   90705612 heartbeat IPC: 1.49045 cumulative IPC: 1.41544 (Simulation time: 0 hr 8 min 46 sec) 
Heartbeat CPU  0 instructions:  130000000 cycles:   95866281 heartbeat IPC: 0.19377 cumulative IPC: 1.34900 (Simulation time: 0 hr 8 min 59 sec) 
Heartbeat CPU  0 instructions:  131000001 cycles:  102295068 heartbeat IPC: 0.15555 cumulative IPC: 1.27327 (Simulation time: 0 hr 9 min 14 sec) 
Heartbeat CPU  0 instructions:  132000000 cycles:  108723012 heartbeat IPC: 0.15557 cumulative IPC: 1.20659 (Simulation time: 0 hr 9 min 26 sec) 
Heartbeat CPU  0 instructions:  133000003 cycles:  115149943 heartbeat IPC: 0.15560 cumulative IPC: 1.14742 (Simulation time: 0 hr 9 min 35 sec) 
Heartbeat CPU  0 instructions:  134000002 cycles:  121433866 heartbeat IPC: 0.15914 cumulative IPC: 1.09587 (Simulation time: 0 hr 9 min 43 sec) 
Heartbeat CPU  0 instructions:  135000002 cycles:  125878109 heartbeat IPC: 0.22501 cumulative IPC: 1.06488 (Simulation time: 0 hr 9 min 49 sec) 
Heartbeat CPU  0 instructions:  136000000 cycles:  130283770 heartbeat IPC: 0.22698 cumulative IPC: 1.03633 (Simulation time: 0 hr 9 min 54 sec) 
Heartbeat CPU  0 instructions:  137000002 cycles:  134368088 heartbeat IPC: 0.24484 cumulative IPC: 1.01209 (Simulation time: 0 hr 9 min 59 sec) 
Heartbeat CPU  0 instructions:  138000002 cycles:  138522039 heartbeat IPC: 0.24073 cumulative IPC: 0.98880 (Simulation time: 0 hr 10 min 5 sec) 
Heartbeat CPU  0 instructions:  139000002 cycles:  142697447 heartbeat IPC: 0.23950 cumulative IPC: 0.96672 (Simulation time: 0 hr 10 min 10 sec) 
Heartbeat CPU  0 instructions:  140000000 cycles:  146901981 heartbeat IPC: 0.23784 cumulative IPC: 0.94572 (Simulation time: 0 hr 10 min 15 sec) 
Heartbeat CPU  0 instructions:  141000001 cycles:  151102380 heartbeat IPC: 0.23807 cumulative IPC: 0.92592 (Simulation time: 0 hr 10 min 21 sec) 
Heartbeat CPU  0 instructions:  142000000 cycles:  155263928 heartbeat IPC: 0.24029 cumulative IPC: 0.90742 (Simulation time: 0 hr 10 min 26 sec) 
Heartbeat CPU  0 instructions:  143000002 cycles:  159455519 heartbeat IPC: 0.23857 cumulative IPC: 0.88973 (Simulation time: 0 hr 10 min 31 sec) 
Heartbeat CPU  0 instructions:  144000000 cycles:  163689282 heartbeat IPC: 0.23620 cumulative IPC: 0.87273 (Simulation time: 0 hr 10 min 37 sec) 
Heartbeat CPU  0 instructions:  145000001 cycles:  167761905 heartbeat IPC: 0.24554 cumulative IPC: 0.85741 (Simulation time: 0 hr 10 min 42 sec) 
Heartbeat CPU  0 instructions:  146000000 cycles:  171983383 heartbeat IPC: 0.23688 cumulative IPC: 0.84209 (Simulation time: 0 hr 10 min 48 sec) 
Heartbeat CPU  0 instructions:  147000000 cycles:  176205863 heartbeat IPC: 0.23683 cumulative IPC: 0.82751 (Simulation time: 0 hr 10 min 53 sec) 
Heartbeat CPU  0 instructions:  148000000 cycles:  180445283 heartbeat IPC: 0.23588 cumulative IPC: 0.81353 (Simulation time: 0 hr 10 min 59 sec) 
Heartbeat CPU  0 instructions:  149000001 cycles:  184652548 heartbeat IPC: 0.23768 cumulative IPC: 0.80034 (Simulation time: 0 hr 11 min 4 sec) 
Heartbeat CPU  0 instructions:  150000002 cycles:  188874572 heartbeat IPC: 0.23685 cumulative IPC: 0.78768 (Simulation time: 0 hr 11 min 10 sec) 
Heartbeat CPU  0 instructions:  151000002 cycles:  193019559 heartbeat IPC: 0.24126 cumulative IPC: 0.77589 (Simulation time: 0 hr 11 min 15 sec) 
Heartbeat CPU  0 instructions:  152000000 cycles:  197147749 heartbeat IPC: 0.24224 cumulative IPC: 0.76466 (Simulation time: 0 hr 11 min 21 sec) 
Heartbeat CPU  0 instructions:  153000001 cycles:  201394965 heartbeat IPC: 0.23545 cumulative IPC: 0.75344 (Simulation time: 0 hr 11 min 26 sec) 
Heartbeat CPU  0 instructions:  154000002 cycles:  205545463 heartbeat IPC: 0.24094 cumulative IPC: 0.74304 (Simulation time: 0 hr 11 min 31 sec) 
Heartbeat CPU  0 instructions:  155000002 cycles:  209720851 heartbeat IPC: 0.23950 cumulative IPC: 0.73297 (Simulation time: 0 hr 11 min 37 sec) 
Heartbeat CPU  0 instructions:  156000000 cycles:  213950171 heartbeat IPC: 0.23644 cumulative IPC: 0.72311 (Simulation time: 0 hr 11 min 42 sec) 
Heartbeat CPU  0 instructions:  157000000 cycles:  218100552 heartbeat IPC: 0.24094 cumulative IPC: 0.71389 (Simulation time: 0 hr 11 min 48 sec) 
Heartbeat CPU  0 instructions:  158000001 cycles:  222385779 heartbeat IPC: 0.23336 cumulative IPC: 0.70459 (Simulation time: 0 hr 11 min 53 sec) 
Heartbeat CPU  0 instructions:  159000003 cycles:  226523321 heartbeat IPC: 0.24169 cumulative IPC: 0.69610 (Simulation time: 0 hr 11 min 58 sec) 
Heartbeat CPU  0 instructions:  160000000 cycles:  230795671 heartbeat IPC: 0.23406 cumulative IPC: 0.68751 (Simulation time: 0 hr 12 min 4 sec) 
Heartbeat CPU  0 instructions:  161000000 cycles:  235002917 heartbeat IPC: 0.23769 cumulative IPC: 0.67942 (Simulation time: 0 hr 12 min 9 sec) 
Heartbeat CPU  0 instructions:  162000001 cycles:  239153559 heartbeat IPC: 0.24093 cumulative IPC: 0.67178 (Simulation time: 0 hr 12 min 14 sec) 
Heartbeat CPU  0 instructions:  163000000 cycles:  243275112 heartbeat IPC: 0.24263 cumulative IPC: 0.66448 (Simulation time: 0 hr 12 min 20 sec) 
Heartbeat CPU  0 instructions:  164000000 cycles:  247368370 heartbeat IPC: 0.24430 cumulative IPC: 0.65750 (Simulation time: 0 hr 12 min 25 sec) 
Heartbeat CPU  0 instructions:  165000000 cycles:  251555446 heartbeat IPC: 0.23883 cumulative IPC: 0.65051 (Simulation time: 0 hr 12 min 31 sec) 
Heartbeat CPU  0 instructions:  166000002 cycles:  255790375 heartbeat IPC: 0.23613 cumulative IPC: 0.64362 (Simulation time: 0 hr 12 min 36 sec) 
Heartbeat CPU  0 instructions:  167000002 cycles:  260011731 heartbeat IPC: 0.23689 cumulative IPC: 0.63699 (Simulation time: 0 hr 12 min 41 sec) 
Heartbeat CPU  0 instructions:  168000000 cycles:  264226449 heartbeat IPC: 0.23726 cumulative IPC: 0.63059 (Simulation time: 0 hr 12 min 47 sec) 
Heartbeat CPU  0 instructions:  169000000 cycles:  268336593 heartbeat IPC: 0.24330 cumulative IPC: 0.62464 (Simulation time: 0 hr 12 min 52 sec) 
Heartbeat CPU  0 instructions:  170000001 cycles:  272558339 heartbeat IPC: 0.23687 cumulative IPC: 0.61861 (Simulation time: 0 hr 12 min 57 sec) 
Heartbeat CPU  0 instructions:  171000002 cycles:  276801114 heartbeat IPC: 0.23570 cumulative IPC: 0.61272 (Simulation time: 0 hr 13 min 3 sec) 
Heartbeat CPU  0 instructions:  172000000 cycles:  281034322 heartbeat IPC: 0.23623 cumulative IPC: 0.60703 (Simulation time: 0 hr 13 min 8 sec) 
Heartbeat CPU  0 instructions:  173000000 cycles:  285195054 heartbeat IPC: 0.24034 cumulative IPC: 0.60166 (Simulation time: 0 hr 13 min 14 sec) 
Heartbeat CPU  0 instructions:  174000002 cycles:  289377647 heartbeat IPC: 0.23909 cumulative IPC: 0.59640 (Simulation time: 0 hr 13 min 19 sec) 
Heartbeat CPU  0 instructions:  175000002 cycles:  293581822 heartbeat IPC: 0.23786 cumulative IPC: 0.59125 (Simulation time: 0 hr 13 min 24 sec) 
Heartbeat CPU  0 instructions:  176000000 cycles:  297733162 heartbeat IPC: 0.24089 cumulative IPC: 0.58635 (Simulation time: 0 hr 13 min 30 sec) 
Heartbeat CPU  0 instructions:  177000002 cycles:  301954864 heartbeat IPC: 0.23687 cumulative IPC: 0.58145 (Simulation time: 0 hr 13 min 35 sec) 
Heartbeat CPU  0 instructions:  178000000 cycles:  306139884 heartbeat IPC: 0.23895 cumulative IPC: 0.57675 (Simulation time: 0 hr 13 min 41 sec) 
Heartbeat CPU  0 instructions:  179000001 cycles:  310321982 heartbeat IPC: 0.23911 cumulative IPC: 0.57218 (Simulation time: 0 hr 13 min 46 sec) 
Heartbeat CPU  0 instructions:  180000000 cycles:  314521933 heartbeat IPC: 0.23810 cumulative IPC: 0.56771 (Simulation time: 0 hr 13 min 51 sec) 
Heartbeat CPU  0 instructions:  181000002 cycles:  318783960 heartbeat IPC: 0.23463 cumulative IPC: 0.56324 (Simulation time: 0 hr 13 min 57 sec) 
Heartbeat CPU  0 instructions:  182000000 cycles:  322994295 heartbeat IPC: 0.23751 cumulative IPC: 0.55898 (Simulation time: 0 hr 14 min 2 sec) 
Heartbeat CPU  0 instructions:  183000001 cycles:  327270373 heartbeat IPC: 0.23386 cumulative IPC: 0.55472 (Simulation time: 0 hr 14 min 8 sec) 
Heartbeat CPU  0 instructions:  184000000 cycles:  331453139 heartbeat IPC: 0.23908 cumulative IPC: 0.55073 (Simulation time: 0 hr 14 min 13 sec) 
Heartbeat CPU  0 instructions:  185000000 cycles:  335603201 heartbeat IPC: 0.24096 cumulative IPC: 0.54689 (Simulation time: 0 hr 14 min 19 sec) 
Heartbeat CPU  0 instructions:  186000000 cycles:  339742388 heartbeat IPC: 0.24159 cumulative IPC: 0.54316 (Simulation time: 0 hr 14 min 24 sec) 
Heartbeat CPU  0 instructions:  187000001 cycles:  343874908 heartbeat IPC: 0.24198 cumulative IPC: 0.53953 (Simulation time: 0 hr 14 min 29 sec) 
Heartbeat CPU  0 instructions:  188000000 cycles:  348028001 heartbeat IPC: 0.24078 cumulative IPC: 0.53595 (Simulation time: 0 hr 14 min 35 sec) 
Heartbeat CPU  0 instructions:  189000002 cycles:  352255441 heartbeat IPC: 0.23655 cumulative IPC: 0.53235 (Simulation time: 0 hr 14 min 40 sec) 
Heartbeat CPU  0 instructions:  190000000 cycles:  356444835 heartbeat IPC: 0.23870 cumulative IPC: 0.52889 (Simulation time: 0 hr 14 min 45 sec) 
Heartbeat CPU  0 instructions:  191000001 cycles:  360706814 heartbeat IPC: 0.23463 cumulative IPC: 0.52540 (Simulation time: 0 hr 14 min 51 sec) 
Heartbeat CPU  0 instructions:  192000000 cycles:  364903832 heartbeat IPC: 0.23826 cumulative IPC: 0.52209 (Simulation time: 0 hr 14 min 56 sec) 
Heartbeat CPU  0 instructions:  193000002 cycles:  369096689 heartbeat IPC: 0.23850 cumulative IPC: 0.51886 (Simulation time: 0 hr 15 min 1 sec) 
Heartbeat CPU  0 instructions:  194000002 cycles:  373257879 heartbeat IPC: 0.24032 cumulative IPC: 0.51575 (Simulation time: 0 hr 15 min 7 sec) 
Heartbeat CPU  0 instructions:  195000002 cycles:  377425820 heartbeat IPC: 0.23993 cumulative IPC: 0.51269 (Simulation time: 0 hr 15 min 12 sec) 
Heartbeat CPU  0 instructions:  196000000 cycles:  381621772 heartbeat IPC: 0.23832 cumulative IPC: 0.50967 (Simulation time: 0 hr 15 min 18 sec) 
Heartbeat CPU  0 instructions:  197000002 cycles:  385820280 heartbeat IPC: 0.23818 cumulative IPC: 0.50671 (Simulation time: 0 hr 15 min 23 sec) 
Heartbeat CPU  0 instructions:  198000002 cycles:  388692201 heartbeat IPC: 0.34820 cumulative IPC: 0.50553 (Simulation time: 0 hr 15 min 27 sec) 
Heartbeat CPU  0 instructions:  199000001 cycles:  389431921 heartbeat IPC: 1.35186 cumulative IPC: 0.50714 (Simulation time: 0 hr 15 min 30 sec) 
Heartbeat CPU  0 instructions:  200000000 cycles:  390129035 heartbeat IPC: 1.43448 cumulative IPC: 0.50880 (Simulation time: 0 hr 15 min 33 sec) 
Heartbeat CPU  0 instructions:  201000000 cycles:  390820060 heartbeat IPC: 1.44713 cumulative IPC: 0.51047 (Simulation time: 0 hr 15 min 36 sec) 
Heartbeat CPU  0 instructions:  202000002 cycles:  391563974 heartbeat IPC: 1.34424 cumulative IPC: 0.51206 (Simulation time: 0 hr 15 min 39 sec) 
Heartbeat CPU  0 instructions:  203000000 cycles:  392265052 heartbeat IPC: 1.42637 cumulative IPC: 0.51369 (Simulation time: 0 hr 15 min 42 sec) 
Heartbeat CPU  0 instructions:  204000000 cycles:  392949855 heartbeat IPC: 1.46027 cumulative IPC: 0.51535 (Simulation time: 0 hr 15 min 45 sec) 
Heartbeat CPU  0 instructions:  205000001 cycles:  393613511 heartbeat IPC: 1.50681 cumulative IPC: 0.51702 (Simulation time: 0 hr 15 min 47 sec) 
Heartbeat CPU  0 instructions:  206000000 cycles:  394319953 heartbeat IPC: 1.41554 cumulative IPC: 0.51864 (Simulation time: 0 hr 15 min 50 sec) 
Heartbeat CPU  0 instructions:  207000002 cycles:  395022052 heartbeat IPC: 1.42430 cumulative IPC: 0.52025 (Simulation time: 0 hr 15 min 53 sec) 
Heartbeat CPU  0 instructions:  208000000 cycles:  395712872 heartbeat IPC: 1.44755 cumulative IPC: 0.52187 (Simulation time: 0 hr 15 min 56 sec) 
Heartbeat CPU  0 instructions:  209000000 cycles:  396377874 heartbeat IPC: 1.50375 cumulative IPC: 0.52352 (Simulation time: 0 hr 15 min 59 sec) 
Heartbeat CPU  0 instructions:  210000001 cycles:  397056647 heartbeat IPC: 1.47325 cumulative IPC: 0.52515 (Simulation time: 0 hr 16 min 1 sec) 
Heartbeat CPU  0 instructions:  211000002 cycles:  397770006 heartbeat IPC: 1.40182 cumulative IPC: 0.52673 (Simulation time: 0 hr 16 min 4 sec) 
Heartbeat CPU  0 instructions:  212000000 cycles:  398460215 heartbeat IPC: 1.44883 cumulative IPC: 0.52833 (Simulation time: 0 hr 16 min 7 sec) 
Heartbeat CPU  0 instructions:  213000003 cycles:  399130443 heartbeat IPC: 1.49203 cumulative IPC: 0.52995 (Simulation time: 0 hr 16 min 10 sec) 
Heartbeat CPU  0 instructions:  214000001 cycles:  399792705 heartbeat IPC: 1.50997 cumulative IPC: 0.53158 (Simulation time: 0 hr 16 min 13 sec) 
Heartbeat CPU  0 instructions:  215000002 cycles:  400500998 heartbeat IPC: 1.41185 cumulative IPC: 0.53314 (Simulation time: 0 hr 16 min 16 sec) 
Heartbeat CPU  0 instructions:  216000000 cycles:  401192799 heartbeat IPC: 1.44550 cumulative IPC: 0.53472 (Simulation time: 0 hr 16 min 18 sec) 
Heartbeat CPU  0 instructions:  217000000 cycles:  401880494 heartbeat IPC: 1.45413 cumulative IPC: 0.53629 (Simulation time: 0 hr 16 min 21 sec) 
Heartbeat CPU  0 instructions:  218000000 cycles:  402566017 heartbeat IPC: 1.45874 cumulative IPC: 0.53787 (Simulation time: 0 hr 16 min 24 sec) 
Heartbeat CPU  0 instructions:  219000001 cycles:  403255954 heartbeat IPC: 1.44941 cumulative IPC: 0.53943 (Simulation time: 0 hr 16 min 27 sec) 
Heartbeat CPU  0 instructions:  220000000 cycles:  403916794 heartbeat IPC: 1.51322 cumulative IPC: 0.54103 (Simulation time: 0 hr 16 min 30 sec) 
Heartbeat CPU  0 instructions:  221000002 cycles:  404597353 heartbeat IPC: 1.46938 cumulative IPC: 0.54259 (Simulation time: 0 hr 16 min 33 sec) 
Heartbeat CPU  0 instructions:  222000003 cycles:  405264697 heartbeat IPC: 1.49848 cumulative IPC: 0.54417 (Simulation time: 0 hr 16 min 35 sec) 
Heartbeat CPU  0 instructions:  223000000 cycles:  405940131 heartbeat IPC: 1.48053 cumulative IPC: 0.54573 (Simulation time: 0 hr 16 min 38 sec) 
Heartbeat CPU  0 instructions:  224000000 cycles:  406591873 heartbeat IPC: 1.53435 cumulative IPC: 0.54732 (Simulation time: 0 hr 16 min 41 sec) 
Heartbeat CPU  0 instructions:  225000000 cycles:  407283774 heartbeat IPC: 1.44529 cumulative IPC: 0.54885 (Simulation time: 0 hr 16 min 44 sec) 
Heartbeat CPU  0 instructions:  226000001 cycles:  407949736 heartbeat IPC: 1.50159 cumulative IPC: 0.55041 (Simulation time: 0 hr 16 min 47 sec) 
Heartbeat CPU  0 instructions:  227000000 cycles:  408625760 heartbeat IPC: 1.47924 cumulative IPC: 0.55195 (Simulation time: 0 hr 16 min 49 sec) 
Heartbeat CPU  0 instructions:  228000000 cycles:  409289161 heartbeat IPC: 1.50738 cumulative IPC: 0.55350 (Simulation time: 0 hr 16 min 52 sec) 
Heartbeat CPU  0 instructions:  229000003 cycles:  409970112 heartbeat IPC: 1.46854 cumulative IPC: 0.55503 (Simulation time: 0 hr 16 min 55 sec) 
Heartbeat CPU  0 instructions:  230000003 cycles:  410639561 heartbeat IPC: 1.49377 cumulative IPC: 0.55656 (Simulation time: 0 hr 16 min 58 sec) 
Heartbeat CPU  0 instructions:  231000003 cycles:  411313949 heartbeat IPC: 1.48283 cumulative IPC: 0.55808 (Simulation time: 0 hr 17 min 1 sec) 
Heartbeat CPU  0 instructions:  232000000 cycles:  412011925 heartbeat IPC: 1.43271 cumulative IPC: 0.55957 (Simulation time: 0 hr 17 min 3 sec) 
Heartbeat CPU  0 instructions:  233000002 cycles:  412715140 heartbeat IPC: 1.42204 cumulative IPC: 0.56104 (Simulation time: 0 hr 17 min 6 sec) 
Heartbeat CPU  0 instructions:  234000002 cycles:  413400830 heartbeat IPC: 1.45838 cumulative IPC: 0.56253 (Simulation time: 0 hr 17 min 9 sec) 
Heartbeat CPU  0 instructions:  235000003 cycles:  414105051 heartbeat IPC: 1.42001 cumulative IPC: 0.56400 (Simulation time: 0 hr 17 min 12 sec) 
Heartbeat CPU  0 instructions:  236000000 cycles:  414767336 heartbeat IPC: 1.50992 cumulative IPC: 0.56551 (Simulation time: 0 hr 17 min 15 sec) 
Heartbeat CPU  0 instructions:  237000001 cycles:  415461316 heartbeat IPC: 1.44097 cumulative IPC: 0.56698 (Simulation time: 0 hr 17 min 18 sec) 
Heartbeat CPU  0 instructions:  238000002 cycles:  416125230 heartbeat IPC: 1.50622 cumulative IPC: 0.56848 (Simulation time: 0 hr 17 min 21 sec) 
Heartbeat CPU  0 instructions:  239000003 cycles:  416782922 heartbeat IPC: 1.52047 cumulative IPC: 0.56998 (Simulation time: 0 hr 17 min 23 sec) 
Heartbeat CPU  0 instructions:  240000000 cycles:  417463662 heartbeat IPC: 1.46899 cumulative IPC: 0.57145 (Simulation time: 0 hr 17 min 26 sec) 
Heartbeat CPU  0 instructions:  241000001 cycles:  418144945 heartbeat IPC: 1.46782 cumulative IPC: 0.57292 (Simulation time: 0 hr 17 min 29 sec) 
Heartbeat CPU  0 instructions:  242000001 cycles:  418810289 heartbeat IPC: 1.50298 cumulative IPC: 0.57440 (Simulation time: 0 hr 17 min 32 sec) 
Heartbeat CPU  0 instructions:  243000002 cycles:  419467983 heartbeat IPC: 1.52047 cumulative IPC: 0.57588 (Simulation time: 0 hr 17 min 35 sec) 
Heartbeat CPU  0 instructions:  244000000 cycles:  420158979 heartbeat IPC: 1.44718 cumulative IPC: 0.57732 (Simulation time: 0 hr 17 min 38 sec) 
Heartbeat CPU  0 instructions:  245000002 cycles:  420825146 heartbeat IPC: 1.50113 cumulative IPC: 0.57879 (Simulation time: 0 hr 17 min 41 sec) 
Heartbeat CPU  0 instructions:  246000002 cycles:  421498989 heartbeat IPC: 1.48403 cumulative IPC: 0.58024 (Simulation time: 0 hr 17 min 43 sec) 
Heartbeat CPU  0 instructions:  247000003 cycles:  422161965 heartbeat IPC: 1.50835 cumulative IPC: 0.58170 (Simulation time: 0 hr 17 min 46 sec) 
Heartbeat CPU  0 instructions:  248000000 cycles:  422864640 heartbeat IPC: 1.42313 cumulative IPC: 0.58310 (Simulation time: 0 hr 17 min 49 sec) 
Heartbeat CPU  0 instructions:  249000003 cycles:  423543591 heartbeat IPC: 1.47286 cumulative IPC: 0.58453 (Simulation time: 0 hr 17 min 52 sec) 
Heartbeat CPU  0 instructions:  250000002 cycles:  424243078 heartbeat IPC: 1.42962 cumulative IPC: 0.58593 (Simulation time: 0 hr 17 min 55 sec) 
Heartbeat CPU  0 instructions:  251000000 cycles:  424928554 heartbeat IPC: 1.45884 cumulative IPC: 0.58734 (Simulation time: 0 hr 17 min 58 sec) 
Heartbeat CPU  0 instructions:  252000000 cycles:  425636131 heartbeat IPC: 1.41327 cumulative IPC: 0.58871 (Simulation time: 0 hr 18 min 0 sec) 
Heartbeat CPU  0 instructions:  253000002 cycles:  426283703 heartbeat IPC: 1.54423 cumulative IPC: 0.59017 (Simulation time: 0 hr 18 min 3 sec) 
Heartbeat CPU  0 instructions:  254000003 cycles:  426978688 heartbeat IPC: 1.43888 cumulative IPC: 0.59155 (Simulation time: 0 hr 18 min 6 sec) 
Heartbeat CPU  0 instructions:  255000000 cycles:  427640611 heartbeat IPC: 1.51075 cumulative IPC: 0.59298 (Simulation time: 0 hr 18 min 9 sec) 
Heartbeat CPU  0 instructions:  256000000 cycles:  428315606 heartbeat IPC: 1.48149 cumulative IPC: 0.59438 (Simulation time: 0 hr 18 min 12 sec) 
Heartbeat CPU  0 instructions:  257000003 cycles:  428972763 heartbeat IPC: 1.52171 cumulative IPC: 0.59581 (Simulation time: 0 hr 18 min 15 sec) 
Heartbeat CPU  0 instructions:  258000002 cycles:  429662851 heartbeat IPC: 1.44909 cumulative IPC: 0.59718 (Simulation time: 0 hr 18 min 18 sec) 
Heartbeat CPU  0 instructions:  259000000 cycles:  430327038 heartbeat IPC: 1.50560 cumulative IPC: 0.59858 (Simulation time: 0 hr 18 min 21 sec) 
Heartbeat CPU  0 instructions:  260000000 cycles:  430995354 heartbeat IPC: 1.49630 cumulative IPC: 0.59998 (Simulation time: 0 hr 18 min 23 sec) 
Heartbeat CPU  0 instructions:  261000001 cycles:  431676534 heartbeat IPC: 1.46804 cumulative IPC: 0.60135 (Simulation time: 0 hr 18 min 26 sec) 
Heartbeat CPU  0 instructions:  262000002 cycles:  432350168 heartbeat IPC: 1.48449 cumulative IPC: 0.60273 (Simulation time: 0 hr 18 min 29 sec) 
Heartbeat CPU  0 instructions:  263000001 cycles:  433024250 heartbeat IPC: 1.48350 cumulative IPC: 0.60411 (Simulation time: 0 hr 18 min 32 sec) 
Heartbeat CPU  0 instructions:  264000000 cycles:  433696092 heartbeat IPC: 1.48844 cumulative IPC: 0.60548 (Simulation time: 0 hr 18 min 35 sec) 
Heartbeat CPU  0 instructions:  265000000 cycles:  434386864 heartbeat IPC: 1.44766 cumulative IPC: 0.60682 (Simulation time: 0 hr 18 min 38 sec) 
Heartbeat CPU  0 instructions:  266000000 cycles:  435091373 heartbeat IPC: 1.41943 cumulative IPC: 0.60814 (Simulation time: 0 hr 18 min 41 sec) 
Heartbeat CPU  0 instructions:  267000000 cycles:  435796641 heartbeat IPC: 1.41790 cumulative IPC: 0.60945 (Simulation time: 0 hr 18 min 44 sec) 
Heartbeat CPU  0 instructions:  268000000 cycles:  436482403 heartbeat IPC: 1.45823 cumulative IPC: 0.61079 (Simulation time: 0 hr 18 min 47 sec) 
Heartbeat CPU  0 instructions:  269000002 cycles:  437175343 heartbeat IPC: 1.44313 cumulative IPC: 0.61211 (Simulation time: 0 hr 18 min 49 sec) 
Heartbeat CPU  0 instructions:  270000002 cycles:  437850331 heartbeat IPC: 1.48151 cumulative IPC: 0.61346 (Simulation time: 0 hr 18 min 52 sec) 
Heartbeat CPU  0 instructions:  271000000 cycles:  438541430 heartbeat IPC: 1.44697 cumulative IPC: 0.61477 (Simulation time: 0 hr 18 min 55 sec) 
Heartbeat CPU  0 instructions:  272000000 cycles:  439206615 heartbeat IPC: 1.50334 cumulative IPC: 0.61612 (Simulation time: 0 hr 18 min 58 sec) 
Heartbeat CPU  0 instructions:  273000000 cycles:  439895472 heartbeat IPC: 1.45168 cumulative IPC: 0.61743 (Simulation time: 0 hr 19 min 1 sec) 
Heartbeat CPU  0 instructions:  274000000 cycles:  440552818 heartbeat IPC: 1.52127 cumulative IPC: 0.61878 (Simulation time: 0 hr 19 min 4 sec) 
Heartbeat CPU  0 instructions:  275000003 cycles:  441255430 heartbeat IPC: 1.42326 cumulative IPC: 0.62007 (Simulation time: 0 hr 19 min 7 sec) 
Heartbeat CPU  0 instructions:  276000000 cycles:  441919253 heartbeat IPC: 1.50642 cumulative IPC: 0.62140 (Simulation time: 0 hr 19 min 10 sec) 
Heartbeat CPU  0 instructions:  277000002 cycles:  442611895 heartbeat IPC: 1.44375 cumulative IPC: 0.62269 (Simulation time: 0 hr 19 min 13 sec) 
Heartbeat CPU  0 instructions:  278000001 cycles:  443277051 heartbeat IPC: 1.50341 cumulative IPC: 0.62402 (Simulation time: 0 hr 19 min 16 sec) 
Heartbeat CPU  0 instructions:  279000000 cycles:  443967513 heartbeat IPC: 1.44830 cumulative IPC: 0.62530 (Simulation time: 0 hr 19 min 18 sec) 
Heartbeat CPU  0 instructions:  280000000 cycles:  444635519 heartbeat IPC: 1.49699 cumulative IPC: 0.62661 (Simulation time: 0 hr 19 min 21 sec) 
Heartbeat CPU  0 instructions:  281000003 cycles:  445318131 heartbeat IPC: 1.46497 cumulative IPC: 0.62790 (Simulation time: 0 hr 19 min 24 sec) 
Heartbeat CPU  0 instructions:  282000003 cycles:  446011283 heartbeat IPC: 1.44269 cumulative IPC: 0.62917 (Simulation time: 0 hr 19 min 27 sec) 
Heartbeat CPU  0 instructions:  283000000 cycles:  446714293 heartbeat IPC: 1.42245 cumulative IPC: 0.63042 (Simulation time: 0 hr 19 min 30 sec) 
Heartbeat CPU  0 instructions:  284000000 cycles:  447398779 heartbeat IPC: 1.46095 cumulative IPC: 0.63170 (Simulation time: 0 hr 19 min 33 sec) 
Heartbeat CPU  0 instructions:  285000003 cycles:  448077397 heartbeat IPC: 1.47359 cumulative IPC: 0.63297 (Simulation time: 0 hr 19 min 36 sec) 
Heartbeat CPU  0 instructions:  286000001 cycles:  448764348 heartbeat IPC: 1.45571 cumulative IPC: 0.63424 (Simulation time: 0 hr 19 min 38 sec) 
Heartbeat CPU  0 instructions:  287000002 cycles:  449444477 heartbeat IPC: 1.47031 cumulative IPC: 0.63550 (Simulation time: 0 hr 19 min 41 sec) 
Heartbeat CPU  0 instructions:  288000000 cycles:  450118258 heartbeat IPC: 1.48416 cumulative IPC: 0.63678 (Simulation time: 0 hr 19 min 44 sec) 
Heartbeat CPU  0 instructions:  289000000 cycles:  450771493 heartbeat IPC: 1.53084 cumulative IPC: 0.63807 (Simulation time: 0 hr 19 min 47 sec) 
Heartbeat CPU  0 instructions:  290000000 cycles:  451453517 heartbeat IPC: 1.46622 cumulative IPC: 0.63933 (Simulation time: 0 hr 19 min 50 sec) 
Heartbeat CPU  0 instructions:  291000000 cycles:  452127508 heartbeat IPC: 1.48370 cumulative IPC: 0.64059 (Simulation time: 0 hr 19 min 53 sec) 
Heartbeat CPU  0 instructions:  292000000 cycles:  452806346 heartbeat IPC: 1.47311 cumulative IPC: 0.64184 (Simulation time: 0 hr 19 min 56 sec) 
Heartbeat CPU  0 instructions:  293000003 cycles:  453466632 heartbeat IPC: 1.51450 cumulative IPC: 0.64311 (Simulation time: 0 hr 19 min 59 sec) 
Heartbeat CPU  0 instructions:  294000001 cycles:  454151017 heartbeat IPC: 1.46116 cumulative IPC: 0.64435 (Simulation time: 0 hr 20 min 1 sec) 
Heartbeat CPU  0 instructions:  295000001 cycles:  454811306 heartbeat IPC: 1.51449 cumulative IPC: 0.64562 (Simulation time: 0 hr 20 min 4 sec) 
Heartbeat CPU  0 instructions:  296000000 cycles:  455497706 heartbeat IPC: 1.45687 cumulative IPC: 0.64684 (Simulation time: 0 hr 20 min 7 sec) 
Heartbeat CPU  0 instructions:  297000002 cycles:  456167436 heartbeat IPC: 1.49314 cumulative IPC: 0.64809 (Simulation time: 0 hr 20 min 10 sec) 
Heartbeat CPU  0 instructions:  298000000 cycles:  456854486 heartbeat IPC: 1.45550 cumulative IPC: 0.64930 (Simulation time: 0 hr 20 min 13 sec) 
Heartbeat CPU  0 instructions:  299000002 cycles:  457537786 heartbeat IPC: 1.46349 cumulative IPC: 0.65052 (Simulation time: 0 hr 20 min 16 sec) 
Heartbeat CPU  0 instructions:  300000000 cycles:  458246840 heartbeat IPC: 1.41033 cumulative IPC: 0.65170 (Simulation time: 0 hr 20 min 19 sec) 
Heartbeat CPU  0 instructions:  301000002 cycles:  458933106 heartbeat IPC: 1.45716 cumulative IPC: 0.65291 (Simulation time: 0 hr 20 min 22 sec) 
Heartbeat CPU  0 instructions:  302000001 cycles:  459625355 heartbeat IPC: 1.44457 cumulative IPC: 0.65410 (Simulation time: 0 hr 20 min 24 sec) 
Heartbeat CPU  0 instructions:  303000000 cycles:  460278974 heartbeat IPC: 1.52994 cumulative IPC: 0.65535 (Simulation time: 0 hr 20 min 27 sec) 
Heartbeat CPU  0 instructions:  304000000 cycles:  460975474 heartbeat IPC: 1.43575 cumulative IPC: 0.65653 (Simulation time: 0 hr 20 min 30 sec) 
Heartbeat CPU  0 instructions:  305000001 cycles:  461631339 heartbeat IPC: 1.52471 cumulative IPC: 0.65777 (Simulation time: 0 hr 20 min 33 sec) 
Heartbeat CPU  0 instructions:  306000001 cycles:  462305876 heartbeat IPC: 1.48250 cumulative IPC: 0.65897 (Simulation time: 0 hr 20 min 36 sec) 
Heartbeat CPU  0 instructions:  307000001 cycles:  462962378 heartbeat IPC: 1.52322 cumulative IPC: 0.66020 (Simulation time: 0 hr 20 min 39 sec) 
Heartbeat CPU  0 instructions:  308000000 cycles:  463653277 heartbeat IPC: 1.44739 cumulative IPC: 0.66138 (Simulation time: 0 hr 20 min 42 sec) 
Heartbeat CPU  0 instructions:  309000001 cycles:  464308282 heartbeat IPC: 1.52671 cumulative IPC: 0.66260 (Simulation time: 0 hr 20 min 45 sec) 
Heartbeat CPU  0 instructions:  310000002 cycles:  464964670 heartbeat IPC: 1.52349 cumulative IPC: 0.66382 (Simulation time: 0 hr 20 min 47 sec) 
Heartbeat CPU  0 instructions:  311000003 cycles:  465658332 heartbeat IPC: 1.44163 cumulative IPC: 0.66498 (Simulation time: 0 hr 20 min 50 sec) 
Heartbeat CPU  0 instructions:  312000000 cycles:  466330922 heartbeat IPC: 1.48679 cumulative IPC: 0.66617 (Simulation time: 0 hr 20 min 53 sec) 
Heartbeat CPU  0 instructions:  313000002 cycles:  466997271 heartbeat IPC: 1.50072 cumulative IPC: 0.66736 (Simulation time: 0 hr 20 min 56 sec) 
Heartbeat CPU  0 instructions:  314000000 cycles:  467657387 heartbeat IPC: 1.51488 cumulative IPC: 0.66856 (Simulation time: 0 hr 20 min 59 sec) 
Heartbeat CPU  0 instructions:  315000002 cycles:  468357515 heartbeat IPC: 1.42831 cumulative IPC: 0.66970 (Simulation time: 0 hr 21 min 2 sec) 
Heartbeat CPU  0 instructions:  316000000 cycles:  469043632 heartbeat IPC: 1.45747 cumulative IPC: 0.67085 (Simulation time: 0 hr 21 min 5 sec) 
Heartbeat CPU  0 instructions:  317000003 cycles:  469744225 heartbeat IPC: 1.42737 cumulative IPC: 0.67198 (Simulation time: 0 hr 21 min 8 sec) 
Heartbeat CPU  0 instructions:  318000003 cycles:  470427010 heartbeat IPC: 1.46459 cumulative IPC: 0.67313 (Simulation time: 0 hr 21 min 10 sec) 
Heartbeat CPU  0 instructions:  319000003 cycles:  471130053 heartbeat IPC: 1.42239 cumulative IPC: 0.67425 (Simulation time: 0 hr 21 min 13 sec) 
Heartbeat CPU  0 instructions:  320000000 cycles:  471784008 heartbeat IPC: 1.52915 cumulative IPC: 0.67544 (Simulation time: 0 hr 21 min 16 sec) 
Heartbeat CPU  0 instructions:  321000003 cycles:  472474870 heartbeat IPC: 1.44747 cumulative IPC: 0.67657 (Simulation time: 0 hr 21 min 19 sec) 
Heartbeat CPU  0 instructions:  322000003 cycles:  473132122 heartbeat IPC: 1.52149 cumulative IPC: 0.67775 (Simulation time: 0 hr 21 min 22 sec) 
Heartbeat CPU  0 instructions:  323000003 cycles:  473822187 heartbeat IPC: 1.44914 cumulative IPC: 0.67887 (Simulation time: 0 hr 21 min 25 sec) 
Heartbeat CPU  0 instructions:  324000000 cycles:  474471756 heartbeat IPC: 1.53948 cumulative IPC: 0.68006 (Simulation time: 0 hr 21 min 28 sec) 
Heartbeat CPU  0 instructions:  325000001 cycles:  475161902 heartbeat IPC: 1.44897 cumulative IPC: 0.68117 (Simulation time: 0 hr 21 min 31 sec) 
Heartbeat CPU  0 instructions:  326000003 cycles:  475820039 heartbeat IPC: 1.51944 cumulative IPC: 0.68234 (Simulation time: 0 hr 21 min 33 sec) 
Heartbeat CPU  0 instructions:  327000003 cycles:  476504502 heartbeat IPC: 1.46100 cumulative IPC: 0.68346 (Simulation time: 0 hr 21 min 36 sec) 
Heartbeat CPU  0 instructions:  328000000 cycles:  477181665 heartbeat IPC: 1.47674 cumulative IPC: 0.68459 (Simulation time: 0 hr 21 min 39 sec) 
Finished CPU 0 instructions: 326000003 cycles: 476200619 cumulative IPC: 0.68459 (Simulation time: 0 hr 21 min 39 sec) 

ChampSim completed all CPUs

[ROI Statistics]
Core_0_instructions 326000003
Core_0_cycles 476200619
Core_0_IPC 0.68459

Core_0_branch_prediction_accuracy 99.57887
Core_0_branch_MPKI 0.12288
Core_0_average_ROB_occupancy_at_mispredict 237.21252

Core_0_L1D_total_access 97615765
Core_0_L1D_total_hit 84505860
Core_0_L1D_total_miss 13109905
Core_0_L1D_loads 89106750
Core_0_L1D_load_hit 76581353
Core_0_L1D_load_miss 12525397
Core_0_L1D_RFOs 8509015
Core_0_L1D_RFO_hit 7924507
Core_0_L1D_RFO_miss 584508
Core_0_L1D_prefetches 0
Core_0_L1D_prefetch_hit 0
Core_0_L1D_prefetch_miss 0
Core_0_L1D_writebacks 0
Core_0_L1D_writeback_hit 0
Core_0_L1D_writeback_miss 0
Core_0_L1D_prefetch_requested 0
Core_0_L1D_prefetch_issued 0
Core_0_L1D_prefetch_useful 0
Core_0_L1D_prefetch_useless 0
Core_0_L1D_prefetch_late 0
Core_0_L1D_average_miss_latency 59.91874

Core_0_L1I_total_access 83220925
Core_0_L1I_total_hit 83215958
Core_0_L1I_total_miss 4967
Core_0_L1I_loads 83220925
Core_0_L1I_load_hit 83215958
Core_0_L1I_load_miss 4967
Core_0_L1I_RFOs 0
Core_0_L1I_RFO_hit 0
Core_0_L1I_RFO_miss 0
Core_0_L1I_prefetches 0
Core_0_L1I_prefetch_hit 0
Core_0_L1I_prefetch_miss 0
Core_0_L1I_writebacks 0
Core_0_L1I_writeback_hit 0
Core_0_L1I_writeback_miss 0
Core_0_L1I_prefetch_requested 0
Core_0_L1I_prefetch_issued 0
Core_0_L1I_prefetch_useful 0
Core_0_L1I_prefetch_useless 0
Core_0_L1I_prefetch_late 0
Core_0_L1I_average_miss_latency 300.33058

Core_0_L2C_total_access 25840756
Core_0_L2C_total_hit 22280558
Core_0_L2C_total_miss 3560198
Core_0_L2C_loads 12530356
Core_0_L2C_load_hit 10523940
Core_0_L2C_load_miss 2006416
Core_0_L2C_RFOs 584508
Core_0_L2C_RFO_hit 59756
Core_0_L2C_RFO_miss 524752
Core_0_L2C_prefetches 10787354
Core_0_L2C_prefetch_hit 9758379
Core_0_L2C_prefetch_miss 1028975
Core_0_L2C_writebacks 1938538
Core_0_L2C_writeback_hit 1938483
Core_0_L2C_writeback_miss 55
Core_0_L2C_prefetch_requested 12578461
Core_0_L2C_prefetch_issued 12384692
Core_0_L2C_prefetch_useful 661099
Core_0_L2C_prefetch_useless 380052
Core_0_L2C_prefetch_late 925147
Core_0_L2C_average_miss_latency 243.60559

Core_0_LLC_total_access 5443757
Core_0_LLC_total_hit 2550579
Core_0_LLC_total_miss 2893178
Core_0_LLC_loads 1081470
Core_0_LLC_load_hit 504169
Core_0_LLC_load_miss 577301
Core_0_LLC_RFOs 524750
Core_0_LLC_RFO_hit 85
Core_0_LLC_RFO_miss 524665
Core_0_LLC_prefetches 1953916
Core_0_LLC_prefetch_hit 163294
Core_0_LLC_prefetch_miss 1790622
Core_0_LLC_writebacks 1883621
Core_0_LLC_writeback_hit 1883031
Core_0_LLC_writeback_miss 590
Core_0_LLC_prefetch_requested 0
Core_0_LLC_prefetch_issued 0
Core_0_LLC_prefetch_useful 333661
Core_0_LLC_prefetch_useless 1439052
Core_0_LLC_prefetch_late 0
Core_0_LLC_average_miss_latency 291.53470

Core_0_major_page_fault 0
Core_0_minor_page_fault 19453

CPU 0 L2C next line prefetcher final stats
Channel_0_RQ_row_buffer_hit 1506793
Channel_0_RQ_row_buffer_miss 1385405
Channel_0_WQ_row_buffer_hit 577805
Channel_0_WQ_row_buffer_miss 1091683
Channel_0_WQ_full 0
Channel_0_dbus_congested 1503265

avg_congested_cycle 11
     > Finished combination: TraceType=770-tot Sim:326000000 Prefetcher=L2next_line L1=no
