TRACE: [20000000]_FE_[OPT-1_3B]_[h16]_[s128]_[d128] Warmup: 2000000 NumTraces: 20000000
L1:isb_ideal:L2:isb_ideal
*************************************************
   ChampSim Multicore Out-of-Order Simulator
   Last compiled: Oct 20 2024 05:12:04
*************************************************

trace_0 777-comparisonScript_memoryTraces_s128/memTraces[20000000]_FE_[OPT-1_3B]_[h16]_[s128]_[d128].champsim.xz
L1D: Ideal ISB Prefetching
Ideal ISB Prefetching
MAIN.cc ln 751 stats print skipped
CPU  0 inst:    1000003 cyc:     514887 now IPC :1.94218: AVG IPC :1.94218: L2-Pf-HR :1.00000: L2-HR :0.90277: (Sim:0h0m3s) 
CPU  0 inst:    2000002 cyc:    1007122 now IPC :2.03155: AVG IPC :1.98586: L2-Pf-HR :1.00000: L2-HR :0.92773: (Sim:0h0m5s) 

Warmup complete CPU  0 instructions:    2000002 cycles:    1007122 (Simulation time: 0 hr 0 min 5 sec) 

CPU  0 inst:    3000000 cyc:    1801021 now IPC :1.25960: AVG IPC :1.25960: L2-Pf-HR :1.00000: L2-HR :0.95019: (Sim:0h0m8s) 
CPU  0 inst:    4000000 cyc:    2593013 now IPC :1.26264: AVG IPC :1.26112: L2-Pf-HR :1.00000: L2-HR :0.95044: (Sim:0h0m11s) 
CPU  0 inst:    5000001 cyc:    3344650 now IPC :1.33043: AVG IPC :1.28341: L2-Pf-HR :1.00000: L2-HR :0.95211: (Sim:0h0m14s) 
CPU  0 inst:    6000000 cyc:    4151591 now IPC :1.23925: AVG IPC :1.27207: L2-Pf-HR :1.00000: L2-HR :0.95177: (Sim:0h0m16s) 
CPU  0 inst:    7000001 cyc:    4973895 now IPC :1.21610: AVG IPC :1.26047: L2-Pf-HR :1.00000: L2-HR :0.95143: (Sim:0h0m19s) 
CPU  0 inst:    8000000 cyc:    5808579 now IPC :1.19806: AVG IPC :1.24962: L2-Pf-HR :1.00000: L2-HR :0.95129: (Sim:0h0m21s) 
CPU  0 inst:    9000000 cyc:    6879101 now IPC :0.93412: AVG IPC :1.19210: L2-Pf-HR :0.99786: L2-HR :0.94659: (Sim:0h0m24s) 
CPU  0 inst:   10000000 cyc:    9979811 now IPC :0.32251: AVG IPC :0.89159: L2-Pf-HR :0.98204: L2-HR :0.91785: (Sim:0h0m28s) 
CPU  0 inst:   11000000 cyc:   13308152 now IPC :0.30045: AVG IPC :0.73165: L2-Pf-HR :0.97611: L2-HR :0.90297: (Sim:0h0m32s) 
CPU  0 inst:   12000000 cyc:   15247959 now IPC :0.51552: AVG IPC :0.70221: L2-Pf-HR :0.97532: L2-HR :0.89959: (Sim:0h0m35s) 
CPU  0 inst:   13000002 cyc:   16183288 now IPC :1.06914: AVG IPC :0.72482: L2-Pf-HR :0.97819: L2-HR :0.90521: (Sim:0h0m38s) 
CPU  0 inst:   14000000 cyc:   17063312 now IPC :1.13633: AVG IPC :0.74738: L2-Pf-HR :0.98043: L2-HR :0.91021: (Sim:0h0m41s) 
CPU  0 inst:   15000000 cyc:   18001707 now IPC :1.06565: AVG IPC :0.76495: L2-Pf-HR :0.98224: L2-HR :0.91364: (Sim:0h0m43s) 
CPU  0 inst:   16000000 cyc:   18937314 now IPC :1.06882: AVG IPC :0.78081: L2-Pf-HR :0.98377: L2-HR :0.91667: (Sim:0h0m46s) 
CPU  0 inst:   17000000 cyc:   19784549 now IPC :1.18031: AVG IPC :0.79883: L2-Pf-HR :0.98506: L2-HR :0.91933: (Sim:0h0m49s) 
Finished CPU 0 instr: 15000002 cyc: 18777438 AVG IPC: 0.79883 (Sim time: 0h0m49s)

ChampSim completed all CPUs

[ROI Statistics]
Core_0_instructions 15000002
Core_0_cycles 18777438
Core_0_IPC 0.79883

Core_0_branch_prediction_accuracy 97.87318
Core_0_branch_MPKI 0.60760
Core_0_average_ROB_occupancy_at_mispredict 215.02776

Core_0_L1D_total_access 3871808
Core_0_L1D_total_hit 3545973 L1D_total_Hit Ratio: 0.91584
Core_0_L1D_total_miss 325835
Core_0_L1D_loads 3441377
Core_0_L1D_load_hit 3136915 L1D_load_Hit Ratio: 0.91153
Core_0_L1D_load_miss 304462
Core_0_L1D_RFOs 428281
Core_0_L1D_RFO_hit 406908 L1D_RFO_Hit Ratio: 0.95010
Core_0_L1D_RFO_miss 21373
Core_0_L1D_prefetches 2150
Core_0_L1D_prefetch_hit 2150 L1D_prefetch_Hit Ratio: 1.00000
Core_0_L1D_prefetch_miss 0
Core_0_L1D_writebacks 0
Core_0_L1D_writeback_hit 0 L1D_writeback_Hit Ratio: -nan
Core_0_L1D_writeback_miss 0
Core_0_L1D_prefetch_requested 1984472
Core_0_L1D_prefetch_issued 1407091
Core_0_L1D_prefetch_useful 0 L1D_Useful Ratio: 0.00000
Core_0_L1D_prefetch_useless 0
Core_0_L1D_prefetch_late 0
Core_0_L1D_average_miss_latency 120.15524

Core_0_L1I_total_access 3397632
Core_0_L1I_total_hit 3392861 L1I_total_Hit Ratio: 0.99860
Core_0_L1I_total_miss 4771
Core_0_L1I_loads 3397632
Core_0_L1I_load_hit 3392861 L1I_load_Hit Ratio: 0.99860
Core_0_L1I_load_miss 4771
Core_0_L1I_RFOs 0
Core_0_L1I_RFO_hit 0 L1I_RFO_Hit Ratio: -nan
Core_0_L1I_RFO_miss 0
Core_0_L1I_prefetches 0
Core_0_L1I_prefetch_hit 0 L1I_prefetch_Hit Ratio: -nan
Core_0_L1I_prefetch_miss 0
Core_0_L1I_writebacks 0
Core_0_L1I_writeback_hit 0 L1I_writeback_Hit Ratio: -nan
Core_0_L1I_writeback_miss 0
Core_0_L1I_prefetch_requested 0
Core_0_L1I_prefetch_issued 0
Core_0_L1I_prefetch_useful 0 L1I_Useful Ratio: -nan
Core_0_L1I_prefetch_useless 0
Core_0_L1I_prefetch_late 0
Core_0_L1I_average_miss_latency 205.33033

Core_0_L2C_total_access 1568313
Core_0_L2C_total_hit 1441794 L2C_total_Hit Ratio: 0.91933
Core_0_L2C_total_miss 126519
Core_0_L2C_loads 309232
Core_0_L2C_load_hit 216517 L2C_load_Hit Ratio: 0.70018
Core_0_L2C_load_miss 92715
Core_0_L2C_RFOs 21373
Core_0_L2C_RFO_hit 4598 L2C_RFO_Hit Ratio: 0.21513
Core_0_L2C_RFO_miss 16775
Core_0_L2C_prefetches 1138770
Core_0_L2C_prefetch_hit 1121758 L2C_prefetch_Hit Ratio: 0.98506
Core_0_L2C_prefetch_miss 17012
Core_0_L2C_writebacks 98938
Core_0_L2C_writeback_hit 98921 L2C_writeback_Hit Ratio: 0.99983
Core_0_L2C_writeback_miss 17
Core_0_L2C_prefetch_requested 134456
Core_0_L2C_prefetch_issued 17537
Core_0_L2C_prefetch_useful 17011 L2C_Useful Ratio: 0.97001
Core_0_L2C_prefetch_useless 1
Core_0_L2C_prefetch_late 202
Core_0_L2C_average_miss_latency 305.99371

Core_0_LLC_total_access 184654
Core_0_LLC_total_hit 80920 LLC_total_Hit Ratio: 0.43823
Core_0_LLC_total_miss 103734
Core_0_LLC_loads 92513
Core_0_LLC_load_hit 12881 LLC_load_Hit Ratio: 0.13923
Core_0_LLC_load_miss 79632
Core_0_LLC_RFOs 16775
Core_0_LLC_RFO_hit 56 LLC_RFO_Hit Ratio: 0.00334
Core_0_LLC_RFO_miss 16719
Core_0_LLC_prefetches 17280
Core_0_LLC_prefetch_hit 11169 LLC_prefetch_Hit Ratio: 0.64635
Core_0_LLC_prefetch_miss 6111
Core_0_LLC_writebacks 58086
Core_0_LLC_writeback_hit 56814 LLC_writeback_Hit Ratio: 0.97810
Core_0_LLC_writeback_miss 1272
Core_0_LLC_prefetch_requested 0
Core_0_LLC_prefetch_issued 0
Core_0_LLC_prefetch_useful 11 LLC_Useful Ratio: inf
Core_0_LLC_prefetch_useless 5825
Core_0_LLC_prefetch_late 0
Core_0_LLC_average_miss_latency 337.41619

Core_0_major_page_fault 0
Core_0_minor_page_fault 2305

CPU 0 L1D next line prefetcher final stats
Prefetcher final stats
Training Unit Size: 4483
Addr table size: 84291 84292


Triggers: 108177
No Prediction: 90978 84.10106
Stream end: 489
No translation: 367818 340.01498
Predictions: 17537 16.21139


Stream divergence: 4 0.00370
Stream divergence -- new stream: 0
Channel_0_RQ_row_buffer_hit 81002
Channel_0_RQ_row_buffer_miss 21460
Channel_0_WQ_row_buffer_hit 25860
Channel_0_WQ_row_buffer_miss 17538
Channel_0_WQ_full 0
Channel_0_dbus_congested 31777

avg_congested_cycle 11

EzSearch AVG IPC :0.79883: L2-Pf-HR :0.98506 : L2-HR :0.91933 Uful:0.97001
Finished combination: TraceType=777-comparisonScript Sim:15000000 Prefetcher=L2isb_ideal L1=isb_ideal
