TRACE: [5000000]_FE_[Pythia-70M]_[h8]_[s128]_[d64] Warmup: 2000000 NumTraces: 5000000
L1:ipcp:L2:ipcp
*************************************************
   ChampSim Multicore Out-of-Order Simulator
   Last compiled: Oct 20 2024 04:58:10
*************************************************

trace_0 777-comparisonScript_memoryTraces_s128/memTraces[5000000]_FE_[Pythia-70M]_[h8]_[s128]_[d64].champsim.xz
MAIN.cc ln 751 stats print skipped
CPU  0 inst:    1000000 cyc:     515466 now IPC :1.93999: AVG IPC :1.93999: L2-Pf-HR :0.86720: L2-HR :0.82901: (Sim:0h0m2s) 
CPU  0 inst:    2000001 cyc:    1000768 now IPC :2.06057: AVG IPC :1.99847: L2-Pf-HR :0.89371: L2-HR :0.85922: (Sim:0h0m5s) 

Warmup complete CPU  0 instructions:    2000001 cycles:    1000768 (Simulation time: 0 hr 0 min 5 sec) 

Finished CPU 0 instr: 0 cyc: 0 AVG IPC: -nan (Sim time: 0h0m5s)

ChampSim completed all CPUs

[ROI Statistics]
Core_0_instructions 0
Core_0_cycles 0
Core_0_IPC -nan

Core_0_branch_prediction_accuracy -nan
Core_0_branch_MPKI 0.00000
Core_0_average_ROB_occupancy_at_mispredict -nan

Core_0_L1D_total_access 0
Core_0_L1D_total_hit 0 L1D_total_Hit Ratio: -nan
Core_0_L1D_total_miss 0
Core_0_L1D_loads 0
Core_0_L1D_load_hit 0 L1D_load_Hit Ratio: -nan
Core_0_L1D_load_miss 0
Core_0_L1D_RFOs 0
Core_0_L1D_RFO_hit 0 L1D_RFO_Hit Ratio: -nan
Core_0_L1D_RFO_miss 0
Core_0_L1D_prefetches 0
Core_0_L1D_prefetch_hit 0 L1D_prefetch_Hit Ratio: -nan
Core_0_L1D_prefetch_miss 0
Core_0_L1D_writebacks 0
Core_0_L1D_writeback_hit 0 L1D_writeback_Hit Ratio: -nan
Core_0_L1D_writeback_miss 0
Core_0_L1D_prefetch_requested 1950090
Core_0_L1D_prefetch_issued 798825
Core_0_L1D_prefetch_useful 29876 L1D_Useful Ratio: 0.03740
Core_0_L1D_prefetch_useless 1710
Core_0_L1D_prefetch_late 184
Core_0_L1D_average_miss_latency -nan

Core_0_L1I_total_access 0
Core_0_L1I_total_hit 0 L1I_total_Hit Ratio: -nan
Core_0_L1I_total_miss 0
Core_0_L1I_loads 0
Core_0_L1I_load_hit 0 L1I_load_Hit Ratio: -nan
Core_0_L1I_load_miss 0
Core_0_L1I_RFOs 0
Core_0_L1I_RFO_hit 0 L1I_RFO_Hit Ratio: -nan
Core_0_L1I_RFO_miss 0
Core_0_L1I_prefetches 0
Core_0_L1I_prefetch_hit 0 L1I_prefetch_Hit Ratio: -nan
Core_0_L1I_prefetch_miss 0
Core_0_L1I_writebacks 0
Core_0_L1I_writeback_hit 0 L1I_writeback_Hit Ratio: -nan
Core_0_L1I_writeback_miss 0
Core_0_L1I_prefetch_requested 0
Core_0_L1I_prefetch_issued 0
Core_0_L1I_prefetch_useful 0 L1I_Useful Ratio: -nan
Core_0_L1I_prefetch_useless 0
Core_0_L1I_prefetch_late 0
Core_0_L1I_average_miss_latency -nan

Core_0_L2C_total_access 0
Core_0_L2C_total_hit 0 L2C_total_Hit Ratio: -nan
Core_0_L2C_total_miss 0
Core_0_L2C_loads 0
Core_0_L2C_load_hit 0 L2C_load_Hit Ratio: -nan
Core_0_L2C_load_miss 0
Core_0_L2C_RFOs 0
Core_0_L2C_RFO_hit 0 L2C_RFO_Hit Ratio: -nan
Core_0_L2C_RFO_miss 0
Core_0_L2C_prefetches 0
Core_0_L2C_prefetch_hit 0 L2C_prefetch_Hit Ratio: -nan
Core_0_L2C_prefetch_miss 0
Core_0_L2C_writebacks 0
Core_0_L2C_writeback_hit 0 L2C_writeback_Hit Ratio: -nan
Core_0_L2C_writeback_miss 0
Core_0_L2C_prefetch_requested 92121
Core_0_L2C_prefetch_issued 90553
Core_0_L2C_prefetch_useful 5231 L2C_Useful Ratio: 0.05777
Core_0_L2C_prefetch_useless 3295
Core_0_L2C_prefetch_late 134
Core_0_L2C_average_miss_latency -nan

Core_0_LLC_total_access 0
Core_0_LLC_total_hit 0 LLC_total_Hit Ratio: -nan
Core_0_LLC_total_miss 0
Core_0_LLC_loads 0
Core_0_LLC_load_hit 0 LLC_load_Hit Ratio: -nan
Core_0_LLC_load_miss 0
Core_0_LLC_RFOs 0
Core_0_LLC_RFO_hit 0 LLC_RFO_Hit Ratio: -nan
Core_0_LLC_RFO_miss 0
Core_0_LLC_prefetches 0
Core_0_LLC_prefetch_hit 0 LLC_prefetch_Hit Ratio: -nan
Core_0_LLC_prefetch_miss 0
Core_0_LLC_writebacks 0
Core_0_LLC_writeback_hit 0 LLC_writeback_Hit Ratio: -nan
Core_0_LLC_writeback_miss 0
Core_0_LLC_prefetch_requested 0
Core_0_LLC_prefetch_issued 0
Core_0_LLC_prefetch_useful 1 LLC_Useful Ratio: inf
Core_0_LLC_prefetch_useless 0
Core_0_LLC_prefetch_late 0
Core_0_LLC_average_miss_latency -nan

Core_0_major_page_fault 0
Core_0_minor_page_fault 885


Channel_0_RQ_row_buffer_hit 0
Channel_0_RQ_row_buffer_miss 0
Channel_0_WQ_row_buffer_hit 0
Channel_0_WQ_row_buffer_miss 0
Channel_0_WQ_full 0
Channel_0_dbus_congested 0

avg_congested_cycle 0

EzSearch AVG IPC:-nan: L2-Pf-HR :-nan : L2-HR :-nan Uful:0.05777
Finished combination: TraceType=777-comparisonScript Sim:0 Prefetcher=L2ipcp L1=ipcp
