TRACE: [125000000][OPT-125M]_[h12][s512][d64] Warmup: 2000000 NumTraces: 125000000
L1:isb_ideal:L2:isb_ideal
*************************************************
   ChampSim Multicore Out-of-Order Simulator
   Last compiled: Oct 20 2024 05:12:04
*************************************************

trace_0 770-tot_memTraces_v3/memTraces[125000000][OPT-125M]_[h12][s512][d64].champsim.xz
L1D: Ideal ISB Prefetching
Ideal ISB Prefetching
MAIN.cc ln 751 stats print skipped
CPU  0 inst:    1000001 cyc:     503061 now IPC :1.98783: AVG IPC :1.98783: L2-Pf-HR :0.99082: L2-HR :0.87074: (Sim:0h0m5s) 
CPU  0 inst:    2000002 cyc:     978247 now IPC :2.10444: AVG IPC :2.04448: L2-Pf-HR :0.99027: L2-HR :0.89992: (Sim:0h0m10s) 

Warmup complete CPU  0 instructions:    2000002 cycles:     978247 (Simulation time: 0 hr 0 min 10 sec) 

CPU  0 inst:    3000001 cyc:    1725706 now IPC :1.33786: AVG IPC :1.33786: L2-Pf-HR :0.99056: L2-HR :0.93060: (Sim:0h0m13s) 
CPU  0 inst:    4000000 cyc:    2459875 now IPC :1.36208: AVG IPC :1.34987: L2-Pf-HR :0.98806: L2-HR :0.93715: (Sim:0h0m17s) 
CPU  0 inst:    5000000 cyc:    3271231 now IPC :1.23250: AVG IPC :1.30834: L2-Pf-HR :0.98437: L2-HR :0.93156: (Sim:0h0m21s) 
CPU  0 inst:    6000000 cyc:    4037251 now IPC :1.30545: AVG IPC :1.30761: L2-Pf-HR :0.98466: L2-HR :0.93179: (Sim:0h0m24s) 
CPU  0 inst:    7000003 cyc:    4801571 now IPC :1.30836: AVG IPC :1.30776: L2-Pf-HR :0.98459: L2-HR :0.93172: (Sim:0h0m27s) 
CPU  0 inst:    8000000 cyc:    5598853 now IPC :1.25426: AVG IPC :1.29853: L2-Pf-HR :0.98455: L2-HR :0.93322: (Sim:0h0m31s) 
CPU  0 inst:    9000002 cyc:    6474348 now IPC :1.14221: AVG IPC :1.27363: L2-Pf-HR :0.98358: L2-HR :0.93171: (Sim:0h0m36s) 
CPU  0 inst:   10000002 cyc:    7275354 now IPC :1.24843: AVG IPC :1.27042: L2-Pf-HR :0.98384: L2-HR :0.93178: (Sim:0h0m41s) 
CPU  0 inst:   11000001 cyc:    8078054 now IPC :1.24579: AVG IPC :1.26764: L2-Pf-HR :0.98400: L2-HR :0.93178: (Sim:0h0m47s) 
CPU  0 inst:   12000000 cyc:    8884292 now IPC :1.24033: AVG IPC :1.26485: L2-Pf-HR :0.98400: L2-HR :0.93242: (Sim:0h0m52s) 
CPU  0 inst:   13000000 cyc:    9756416 now IPC :1.14663: AVG IPC :1.25311: L2-Pf-HR :0.98340: L2-HR :0.93159: (Sim:0h0m57s) 
CPU  0 inst:   14000000 cyc:   10559995 now IPC :1.24443: AVG IPC :1.25238: L2-Pf-HR :0.98355: L2-HR :0.93159: (Sim:0h1m2s) 
CPU  0 inst:   15000003 cyc:   11361105 now IPC :1.24827: AVG IPC :1.25206: L2-Pf-HR :0.98366: L2-HR :0.93155: (Sim:0h1m7s) 
CPU  0 inst:   16000000 cyc:   12179124 now IPC :1.22246: AVG IPC :1.24990: L2-Pf-HR :0.98372: L2-HR :0.93192: (Sim:0h1m12s) 
CPU  0 inst:   17000001 cyc:   13051252 now IPC :1.14662: AVG IPC :1.24244: L2-Pf-HR :0.98338: L2-HR :0.93150: (Sim:0h1m17s) 
CPU  0 inst:   18000003 cyc:   13848359 now IPC :1.25454: AVG IPC :1.24319: L2-Pf-HR :0.98355: L2-HR :0.93148: (Sim:0h1m22s) 
CPU  0 inst:   19000002 cyc:   14651468 now IPC :1.24516: AVG IPC :1.24331: L2-Pf-HR :0.98369: L2-HR :0.93148: (Sim:0h1m27s) 
CPU  0 inst:   20000000 cyc:   15464717 now IPC :1.22963: AVG IPC :1.24254: L2-Pf-HR :0.98375: L2-HR :0.93169: (Sim:0h1m32s) 
CPU  0 inst:   21000000 cyc:   16336991 now IPC :1.14643: AVG IPC :1.23708: L2-Pf-HR :0.98346: L2-HR :0.93143: (Sim:0h1m38s) 
CPU  0 inst:   22000001 cyc:   17130127 now IPC :1.26082: AVG IPC :1.23825: L2-Pf-HR :0.98361: L2-HR :0.93144: (Sim:0h1m43s) 
CPU  0 inst:   23000001 cyc:   17921435 now IPC :1.26373: AVG IPC :1.23944: L2-Pf-HR :0.98373: L2-HR :0.93143: (Sim:0h1m48s) 
CPU  0 inst:   24000000 cyc:   18731007 now IPC :1.23522: AVG IPC :1.23924: L2-Pf-HR :0.98381: L2-HR :0.93151: (Sim:0h1m53s) 
CPU  0 inst:   25000002 cyc:   19596079 now IPC :1.15598: AVG IPC :1.23537: L2-Pf-HR :0.98361: L2-HR :0.93137: (Sim:0h1m58s) 
CPU  0 inst:   26000002 cyc:   20391597 now IPC :1.25704: AVG IPC :1.23626: L2-Pf-HR :0.98370: L2-HR :0.93135: (Sim:0h2m3s) 
CPU  0 inst:   27000001 cyc:   21186289 now IPC :1.25835: AVG IPC :1.23713: L2-Pf-HR :0.98378: L2-HR :0.93132: (Sim:0h2m8s) 
CPU  0 inst:   28000000 cyc:   22003413 now IPC :1.22380: AVG IPC :1.23661: L2-Pf-HR :0.98385: L2-HR :0.93131: (Sim:0h2m13s) 
CPU  0 inst:   29000000 cyc:   22868613 now IPC :1.15580: AVG IPC :1.23342: L2-Pf-HR :0.98364: L2-HR :0.93122: (Sim:0h2m18s) 
CPU  0 inst:   30000000 cyc:   23673058 now IPC :1.24309: AVG IPC :1.23376: L2-Pf-HR :0.98375: L2-HR :0.93123: (Sim:0h2m23s) 
CPU  0 inst:   31000003 cyc:   24471251 now IPC :1.25283: AVG IPC :1.23441: L2-Pf-HR :0.98382: L2-HR :0.93120: (Sim:0h2m27s) 
CPU  0 inst:   32000000 cyc:   25284772 now IPC :1.22922: AVG IPC :1.23424: L2-Pf-HR :0.98388: L2-HR :0.93115: (Sim:0h2m30s) 
CPU  0 inst:   33000001 cyc:   26101949 now IPC :1.22373: AVG IPC :1.23389: L2-Pf-HR :0.98392: L2-HR :0.93141: (Sim:0h2m34s) 
CPU  0 inst:   34000002 cyc:   26942150 now IPC :1.19019: AVG IPC :1.23248: L2-Pf-HR :0.98382: L2-HR :0.93113: (Sim:0h2m40s) 
CPU  0 inst:   35000001 cyc:   27737254 now IPC :1.25770: AVG IPC :1.23323: L2-Pf-HR :0.98389: L2-HR :0.93112: (Sim:0h2m45s) 
CPU  0 inst:   36000000 cyc:   28538878 now IPC :1.24747: AVG IPC :1.23364: L2-Pf-HR :0.98393: L2-HR :0.93109: (Sim:0h2m50s) 
CPU  0 inst:   37000000 cyc:   29338499 now IPC :1.25059: AVG IPC :1.23412: L2-Pf-HR :0.98412: L2-HR :0.93151: (Sim:0h2m55s) 
CPU  0 inst:   38000000 cyc:   30221080 now IPC :1.13304: AVG IPC :1.23107: L2-Pf-HR :0.98393: L2-HR :0.93107: (Sim:0h3m0s) 
CPU  0 inst:   39000000 cyc:   31023673 now IPC :1.24596: AVG IPC :1.23147: L2-Pf-HR :0.98398: L2-HR :0.93104: (Sim:0h3m6s) 
CPU  0 inst:   40000000 cyc:   31824948 now IPC :1.24801: AVG IPC :1.23190: L2-Pf-HR :0.98402: L2-HR :0.93101: (Sim:0h3m11s) 
CPU  0 inst:   41000002 cyc:   32629813 now IPC :1.24245: AVG IPC :1.23217: L2-Pf-HR :0.98416: L2-HR :0.93134: (Sim:0h3m16s) 
CPU  0 inst:   42000003 cyc:   33507748 now IPC :1.13904: AVG IPC :1.22965: L2-Pf-HR :0.98400: L2-HR :0.93101: (Sim:0h3m21s) 
CPU  0 inst:   43000002 cyc:   34307029 now IPC :1.25112: AVG IPC :1.23017: L2-Pf-HR :0.98407: L2-HR :0.93102: (Sim:0h3m26s) 
CPU  0 inst:   44000000 cyc:   35102022 now IPC :1.25787: AVG IPC :1.23081: L2-Pf-HR :0.98412: L2-HR :0.93100: (Sim:0h3m31s) 
CPU  0 inst:   45000001 cyc:   35911116 now IPC :1.23595: AVG IPC :1.23093: L2-Pf-HR :0.98419: L2-HR :0.93120: (Sim:0h3m37s) 
CPU  0 inst:   46000001 cyc:   36786820 now IPC :1.14194: AVG IPC :1.22876: L2-Pf-HR :0.98405: L2-HR :0.93096: (Sim:0h3m42s) 
CPU  0 inst:   47000001 cyc:   37587741 now IPC :1.24856: AVG IPC :1.22919: L2-Pf-HR :0.98410: L2-HR :0.93096: (Sim:0h3m47s) 
CPU  0 inst:   48000000 cyc:   38385936 now IPC :1.25283: AVG IPC :1.22969: L2-Pf-HR :0.98414: L2-HR :0.93093: (Sim:0h3m52s) 
CPU  0 inst:   49000001 cyc:   39192652 now IPC :1.23959: AVG IPC :1.22990: L2-Pf-HR :0.98420: L2-HR :0.93107: (Sim:0h3m57s) 
CPU  0 inst:   50000000 cyc:   43042111 now IPC :0.25978: AVG IPC :1.14112: L2-Pf-HR :0.98427: L2-HR :0.92147: (Sim:0h4m11s) 
CPU  0 inst:   51000001 cyc:   49476581 now IPC :0.15541: AVG IPC :1.01034: L2-Pf-HR :0.98427: L2-HR :0.90495: (Sim:0h4m34s) 
CPU  0 inst:   52000000 cyc:   55026709 now IPC :0.18018: AVG IPC :0.92510: L2-Pf-HR :0.98427: L2-HR :0.89935: (Sim:0h4m48s) 
CPU  0 inst:   53000000 cyc:   60416505 now IPC :0.18554: AVG IPC :0.85803: L2-Pf-HR :0.98427: L2-HR :0.89695: (Sim:0h4m59s) 
CPU  0 inst:   54000002 cyc:   65507336 now IPC :0.19643: AVG IPC :0.80584: L2-Pf-HR :0.98427: L2-HR :0.89457: (Sim:0h5m8s) 
CPU  0 inst:   55000001 cyc:   70465736 now IPC :0.20168: AVG IPC :0.76273: L2-Pf-HR :0.98427: L2-HR :0.89220: (Sim:0h5m16s) 
CPU  0 inst:   56000000 cyc:   75511113 now IPC :0.19820: AVG IPC :0.72451: L2-Pf-HR :0.98427: L2-HR :0.88986: (Sim:0h5m24s) 
CPU  0 inst:   57000003 cyc:   80550018 now IPC :0.19846: AVG IPC :0.69120: L2-Pf-HR :0.98427: L2-HR :0.88753: (Sim:0h5m35s) 
CPU  0 inst:   58000000 cyc:   85488646 now IPC :0.20248: AVG IPC :0.66264: L2-Pf-HR :0.98427: L2-HR :0.88523: (Sim:0h5m45s) 
CPU  0 inst:   59000000 cyc:   90409970 now IPC :0.20320: AVG IPC :0.63736: L2-Pf-HR :0.98427: L2-HR :0.88295: (Sim:0h5m56s) 
CPU  0 inst:   60000000 cyc:   95417270 now IPC :0.19971: AVG IPC :0.61415: L2-Pf-HR :0.98427: L2-HR :0.88068: (Sim:0h6m7s) 
CPU  0 inst:   61000002 cyc:  100305000 now IPC :0.20459: AVG IPC :0.59400: L2-Pf-HR :0.98427: L2-HR :0.87843: (Sim:0h6m17s) 
CPU  0 inst:   62000000 cyc:  105307393 now IPC :0.19990: AVG IPC :0.57510: L2-Pf-HR :0.98427: L2-HR :0.87620: (Sim:0h6m28s) 
CPU  0 inst:   63000000 cyc:  110050077 now IPC :0.21085: AVG IPC :0.55926: L2-Pf-HR :0.98427: L2-HR :0.87399: (Sim:0h6m39s) 
CPU  0 inst:   64000000 cyc:  115021397 now IPC :0.20115: AVG IPC :0.54365: L2-Pf-HR :0.98427: L2-HR :0.87180: (Sim:0h6m50s) 
CPU  0 inst:   65000002 cyc:  120059703 now IPC :0.19848: AVG IPC :0.52905: L2-Pf-HR :0.98427: L2-HR :0.86962: (Sim:0h7m1s) 
CPU  0 inst:   66000000 cyc:  125151739 now IPC :0.19638: AVG IPC :0.51541: L2-Pf-HR :0.98427: L2-HR :0.86746: (Sim:0h7m12s) 
CPU  0 inst:   67000000 cyc:  130253688 now IPC :0.19600: AVG IPC :0.50280: L2-Pf-HR :0.98427: L2-HR :0.86532: (Sim:0h7m23s) 
CPU  0 inst:   68000000 cyc:  135125215 now IPC :0.20527: AVG IPC :0.49200: L2-Pf-HR :0.98427: L2-HR :0.86320: (Sim:0h7m33s) 
CPU  0 inst:   69000002 cyc:  140049622 now IPC :0.20307: AVG IPC :0.48177: L2-Pf-HR :0.98427: L2-HR :0.86109: (Sim:0h7m44s) 
CPU  0 inst:   70000000 cyc:  145163857 now IPC :0.19553: AVG IPC :0.47161: L2-Pf-HR :0.98427: L2-HR :0.85901: (Sim:0h7m55s) 
CPU  0 inst:   71000000 cyc:  150249693 now IPC :0.19662: AVG IPC :0.46225: L2-Pf-HR :0.98427: L2-HR :0.85693: (Sim:0h8m6s) 
CPU  0 inst:   72000000 cyc:  155318448 now IPC :0.19729: AVG IPC :0.45354: L2-Pf-HR :0.98427: L2-HR :0.85488: (Sim:0h8m17s) 
CPU  0 inst:   73000000 cyc:  160387458 now IPC :0.19728: AVG IPC :0.44539: L2-Pf-HR :0.98427: L2-HR :0.85283: (Sim:0h8m28s) 
CPU  0 inst:   74000001 cyc:  165358327 now IPC :0.20117: AVG IPC :0.43801: L2-Pf-HR :0.98427: L2-HR :0.85081: (Sim:0h8m39s) 
CPU  0 inst:   75000000 cyc:  170536811 now IPC :0.19311: AVG IPC :0.43053: L2-Pf-HR :0.98427: L2-HR :0.84880: (Sim:0h8m50s) 
CPU  0 inst:   76000000 cyc:  173192879 now IPC :0.37650: AVG IPC :0.42970: L2-Pf-HR :0.98440: L2-HR :0.84901: (Sim:0h8m59s) 
CPU  0 inst:   77000002 cyc:  174162357 now IPC :1.03148: AVG IPC :0.43307: L2-Pf-HR :0.98461: L2-HR :0.85101: (Sim:0h9m7s) 
CPU  0 inst:   78000003 cyc:  175168214 now IPC :0.99418: AVG IPC :0.43631: L2-Pf-HR :0.98476: L2-HR :0.85297: (Sim:0h9m16s) 
CPU  0 inst:   79000001 cyc:  176043337 now IPC :1.14269: AVG IPC :0.43984: L2-Pf-HR :0.98476: L2-HR :0.85484: (Sim:0h9m24s) 
CPU  0 inst:   80000000 cyc:  177102121 now IPC :0.94448: AVG IPC :0.44287: L2-Pf-HR :0.98490: L2-HR :0.85650: (Sim:0h9m32s) 
CPU  0 inst:   81000000 cyc:  178021438 now IPC :1.08776: AVG IPC :0.44622: L2-Pf-HR :0.98509: L2-HR :0.85828: (Sim:0h9m40s) 
CPU  0 inst:   82000001 cyc:  178965818 now IPC :1.05890: AVG IPC :0.44947: L2-Pf-HR :0.98525: L2-HR :0.85998: (Sim:0h9m48s) 
CPU  0 inst:   83000002 cyc:  179808383 now IPC :1.18685: AVG IPC :0.45294: L2-Pf-HR :0.98526: L2-HR :0.86162: (Sim:0h9m56s) 
CPU  0 inst:   84000000 cyc:  180718914 now IPC :1.09826: AVG IPC :0.45621: L2-Pf-HR :0.98535: L2-HR :0.86304: (Sim:0h10m4s) 
CPU  0 inst:   85000003 cyc:  181603396 now IPC :1.13061: AVG IPC :0.45952: L2-Pf-HR :0.98552: L2-HR :0.86459: (Sim:0h10m12s) 
CPU  0 inst:   86000002 cyc:  182523557 now IPC :1.08677: AVG IPC :0.46269: L2-Pf-HR :0.98568: L2-HR :0.86606: (Sim:0h10m20s) 
CPU  0 inst:   87000000 cyc:  183333218 now IPC :1.23508: AVG IPC :0.46612: L2-Pf-HR :0.98570: L2-HR :0.86751: (Sim:0h10m28s) 
CPU  0 inst:   88000000 cyc:  184202777 now IPC :1.15001: AVG IPC :0.46937: L2-Pf-HR :0.98575: L2-HR :0.86876: (Sim:0h10m36s) 
CPU  0 inst:   89000000 cyc:  185114981 now IPC :1.09625: AVG IPC :0.47247: L2-Pf-HR :0.98592: L2-HR :0.87014: (Sim:0h10m43s) 
CPU  0 inst:   90000001 cyc:  185977162 now IPC :1.15985: AVG IPC :0.47568: L2-Pf-HR :0.98608: L2-HR :0.87152: (Sim:0h10m51s) 
CPU  0 inst:   91000000 cyc:  186862440 now IPC :1.12959: AVG IPC :0.47879: L2-Pf-HR :0.98611: L2-HR :0.87267: (Sim:0h10m59s) 
CPU  0 inst:   92000000 cyc:  187678045 now IPC :1.22608: AVG IPC :0.48206: L2-Pf-HR :0.98612: L2-HR :0.87387: (Sim:0h11m4s) 
CPU  0 inst:   93000003 cyc:  188611459 now IPC :1.07134: AVG IPC :0.48499: L2-Pf-HR :0.98628: L2-HR :0.87503: (Sim:0h11m10s) 
CPU  0 inst:   94000002 cyc:  189479045 now IPC :1.15262: AVG IPC :0.48806: L2-Pf-HR :0.98643: L2-HR :0.87624: (Sim:0h11m18s) 
CPU  0 inst:   95000000 cyc:  190407984 now IPC :1.07649: AVG IPC :0.49095: L2-Pf-HR :0.98649: L2-HR :0.87724: (Sim:0h11m26s) 
CPU  0 inst:   96000000 cyc:  191202741 now IPC :1.25825: AVG IPC :0.49415: L2-Pf-HR :0.98649: L2-HR :0.87834: (Sim:0h11m32s) 
CPU  0 inst:   97000002 cyc:  192104285 now IPC :1.10921: AVG IPC :0.49705: L2-Pf-HR :0.98662: L2-HR :0.87939: (Sim:0h11m37s) 
CPU  0 inst:   98000002 cyc:  192995390 now IPC :1.12220: AVG IPC :0.49996: L2-Pf-HR :0.98676: L2-HR :0.88046: (Sim:0h11m43s) 
CPU  0 inst:   99000001 cyc:  193927007 now IPC :1.07340: AVG IPC :0.50272: L2-Pf-HR :0.98684: L2-HR :0.88136: (Sim:0h11m49s) 
CPU  0 inst:  100000000 cyc:  194730405 now IPC :1.24471: AVG IPC :0.50580: L2-Pf-HR :0.98682: L2-HR :0.88235: (Sim:0h11m57s) 
CPU  0 inst:  101000001 cyc:  195614872 now IPC :1.13063: AVG IPC :0.50864: L2-Pf-HR :0.98693: L2-HR :0.88332: (Sim:0h12m4s) 
CPU  0 inst:  102000000 cyc:  196514027 now IPC :1.11215: AVG IPC :0.51142: L2-Pf-HR :0.98706: L2-HR :0.88429: (Sim:0h12m12s) 
CPU  0 inst:  103000002 cyc:  197451028 now IPC :1.06724: AVG IPC :0.51407: L2-Pf-HR :0.98715: L2-HR :0.88509: (Sim:0h12m19s) 
CPU  0 inst:  104000000 cyc:  198267969 now IPC :1.22408: AVG IPC :0.51701: L2-Pf-HR :0.98713: L2-HR :0.88597: (Sim:0h12m25s) 
CPU  0 inst:  105000001 cyc:  199130077 now IPC :1.15995: AVG IPC :0.51980: L2-Pf-HR :0.98722: L2-HR :0.88684: (Sim:0h12m31s) 
CPU  0 inst:  106000003 cyc:  200036505 now IPC :1.10323: AVG IPC :0.52246: L2-Pf-HR :0.98734: L2-HR :0.88769: (Sim:0h12m37s) 
CPU  0 inst:  107000003 cyc:  200973330 now IPC :1.06744: AVG IPC :0.52501: L2-Pf-HR :0.98744: L2-HR :0.88843: (Sim:0h12m42s) 
CPU  0 inst:  108000000 cyc:  201780803 now IPC :1.23843: AVG IPC :0.52788: L2-Pf-HR :0.98743: L2-HR :0.88924: (Sim:0h12m48s) 
CPU  0 inst:  109000003 cyc:  202638474 now IPC :1.16595: AVG IPC :0.53060: L2-Pf-HR :0.98747: L2-HR :0.89002: (Sim:0h12m53s) 
CPU  0 inst:  110000002 cyc:  203550170 now IPC :1.09686: AVG IPC :0.53314: L2-Pf-HR :0.98759: L2-HR :0.89077: (Sim:0h12m59s) 
CPU  0 inst:  111000000 cyc:  204454748 now IPC :1.10549: AVG IPC :0.53569: L2-Pf-HR :0.98769: L2-HR :0.89147: (Sim:0h13m5s) 
CPU  0 inst:  112000000 cyc:  205280353 now IPC :1.21123: AVG IPC :0.53842: L2-Pf-HR :0.98770: L2-HR :0.89223: (Sim:0h13m13s) 
CPU  0 inst:  113000003 cyc:  206082237 now IPC :1.24707: AVG IPC :0.54119: L2-Pf-HR :0.98771: L2-HR :0.89294: (Sim:0h13m21s) 
CPU  0 inst:  114000003 cyc:  207029719 now IPC :1.05543: AVG IPC :0.54355: L2-Pf-HR :0.98783: L2-HR :0.89359: (Sim:0h13m27s) 
CPU  0 inst:  115000003 cyc:  207894948 now IPC :1.15576: AVG IPC :0.54611: L2-Pf-HR :0.98793: L2-HR :0.89432: (Sim:0h13m33s) 
CPU  0 inst:  116000000 cyc:  208782766 now IPC :1.12635: AVG IPC :0.54859: L2-Pf-HR :0.98795: L2-HR :0.89495: (Sim:0h13m40s) 
CPU  0 inst:  117000003 cyc:  209576870 now IPC :1.25928: AVG IPC :0.55130: L2-Pf-HR :0.98794: L2-HR :0.89563: (Sim:0h13m48s) 
CPU  0 inst:  118000000 cyc:  210530813 now IPC :1.04828: AVG IPC :0.55356: L2-Pf-HR :0.98804: L2-HR :0.89617: (Sim:0h13m56s) 
CPU  0 inst:  119000001 cyc:  211405995 now IPC :1.14262: AVG IPC :0.55601: L2-Pf-HR :0.98814: L2-HR :0.89684: (Sim:0h14m4s) 
CPU  0 inst:  120000000 cyc:  212293018 now IPC :1.12737: AVG IPC :0.55841: L2-Pf-HR :0.98818: L2-HR :0.89745: (Sim:0h14m10s) 
CPU  0 inst:  121000000 cyc:  213094918 now IPC :1.24704: AVG IPC :0.56101: L2-Pf-HR :0.98816: L2-HR :0.89805: (Sim:0h14m16s) 
CPU  0 inst:  122000002 cyc:  214054559 now IPC :1.04206: AVG IPC :0.56318: L2-Pf-HR :0.98823: L2-HR :0.89855: (Sim:0h14m24s) 
Finished CPU 0 instr: 120000000 cyc: 213076312 AVG IPC: 0.56318 (Sim time: 0h14m24s)

ChampSim completed all CPUs

[ROI Statistics]
Core_0_instructions 120000000
Core_0_cycles 213076312
Core_0_IPC 0.56318

Core_0_branch_prediction_accuracy 99.19469
Core_0_branch_MPKI 0.24154
Core_0_average_ROB_occupancy_at_mispredict 236.26310

Core_0_L1D_total_access 36158103
Core_0_L1D_total_hit 31465912 L1D_total_Hit Ratio: 0.87023
Core_0_L1D_total_miss 4692191
Core_0_L1D_loads 32769493
Core_0_L1D_load_hit 28287368 L1D_load_Hit Ratio: 0.86322
Core_0_L1D_load_miss 4482125
Core_0_L1D_RFOs 3248398
Core_0_L1D_RFO_hit 3038332 L1D_RFO_Hit Ratio: 0.93533
Core_0_L1D_RFO_miss 210066
Core_0_L1D_prefetches 140212
Core_0_L1D_prefetch_hit 140212 L1D_prefetch_Hit Ratio: 1.00000
Core_0_L1D_prefetch_miss 0
Core_0_L1D_writebacks 0
Core_0_L1D_writeback_hit 0 L1D_writeback_Hit Ratio: -nan
Core_0_L1D_writeback_miss 0
Core_0_L1D_prefetch_requested 23999094
Core_0_L1D_prefetch_issued 7183983
Core_0_L1D_prefetch_useful 0 L1D_Useful Ratio: 0.00000
Core_0_L1D_prefetch_useless 0
Core_0_L1D_prefetch_late 0
Core_0_L1D_average_miss_latency 81.82734

Core_0_L1I_total_access 30127002
Core_0_L1I_total_hit 30122054 L1I_total_Hit Ratio: 0.99984
Core_0_L1I_total_miss 4948
Core_0_L1I_loads 30127002
Core_0_L1I_load_hit 30122054 L1I_load_Hit Ratio: 0.99984
Core_0_L1I_load_miss 4948
Core_0_L1I_RFOs 0
Core_0_L1I_RFO_hit 0 L1I_RFO_Hit Ratio: -nan
Core_0_L1I_RFO_miss 0
Core_0_L1I_prefetches 0
Core_0_L1I_prefetch_hit 0 L1I_prefetch_Hit Ratio: -nan
Core_0_L1I_prefetch_miss 0
Core_0_L1I_writebacks 0
Core_0_L1I_writeback_hit 0 L1I_writeback_Hit Ratio: -nan
Core_0_L1I_writeback_miss 0
Core_0_L1I_prefetch_requested 0
Core_0_L1I_prefetch_issued 0
Core_0_L1I_prefetch_useful 0 L1I_Useful Ratio: -nan
Core_0_L1I_prefetch_useless 0
Core_0_L1I_prefetch_late 0
Core_0_L1I_average_miss_latency 266.12510

Core_0_L2C_total_access 12027163
Core_0_L2C_total_hit 10807019 L2C_total_Hit Ratio: 0.89855
Core_0_L2C_total_miss 1220144
Core_0_L2C_loads 4487073
Core_0_L2C_load_hit 3543153 L2C_load_Hit Ratio: 0.78964
Core_0_L2C_load_miss 943920
Core_0_L2C_RFOs 210066
Core_0_L2C_RFO_hit 12865 L2C_RFO_Hit Ratio: 0.06124
Core_0_L2C_RFO_miss 197201
Core_0_L2C_prefetches 6583698
Core_0_L2C_prefetch_hit 6506238 L2C_prefetch_Hit Ratio: 0.98823
Core_0_L2C_prefetch_miss 77460
Core_0_L2C_writebacks 746326
Core_0_L2C_writeback_hit 744763 L2C_writeback_Hit Ratio: 0.99791
Core_0_L2C_writeback_miss 1563
Core_0_L2C_prefetch_requested 3694219
Core_0_L2C_prefetch_issued 60256
Core_0_L2C_prefetch_useful 78783 L2C_Useful Ratio: 1.30747
Core_0_L2C_prefetch_useless 120
Core_0_L2C_prefetch_late 752
Core_0_L2C_average_miss_latency 262.30294

Core_0_LLC_total_access 1963499
Core_0_LLC_total_hit 902194 LLC_total_Hit Ratio: 0.45948
Core_0_LLC_total_miss 1061305
Core_0_LLC_loads 943168
Core_0_LLC_load_hit 78925 LLC_load_Hit Ratio: 0.08368
Core_0_LLC_load_miss 864243
Core_0_LLC_RFOs 197201
Core_0_LLC_RFO_hit 400 LLC_RFO_Hit Ratio: 0.00203
Core_0_LLC_RFO_miss 196801
Core_0_LLC_prefetches 107184
Core_0_LLC_prefetch_hit 107127 LLC_prefetch_Hit Ratio: 0.99947
Core_0_LLC_prefetch_miss 57
Core_0_LLC_writebacks 715946
Core_0_LLC_writeback_hit 715742 LLC_writeback_Hit Ratio: 0.99972
Core_0_LLC_writeback_miss 204
Core_0_LLC_prefetch_requested 0
Core_0_LLC_prefetch_issued 0
Core_0_LLC_prefetch_useful 21 LLC_Useful Ratio: inf
Core_0_LLC_prefetch_useless 35
Core_0_LLC_prefetch_late 1
Core_0_LLC_average_miss_latency 266.71668

Core_0_major_page_fault 0
Core_0_minor_page_fault 8629

CPU 0 L1D next line prefetcher final stats
Prefetcher final stats
Training Unit Size: 4818
Addr table size: 479822 479824


Triggers: 962838
No Prediction: 489321 50.82070
Stream end: 17837
No translation: 14200678 1474.87719
Predictions: 60256 6.25817


Stream divergence: 17088 1.77475
Stream divergence -- new stream: 0
Channel_0_RQ_row_buffer_hit 553852
Channel_0_RQ_row_buffer_miss 507249
Channel_0_WQ_row_buffer_hit 263117
Channel_0_WQ_row_buffer_miss 350408
Channel_0_WQ_full 0
Channel_0_dbus_congested 531034

avg_congested_cycle 11

EzSearch AVG IPC :0.56318: L2-Pf-HR :0.98823 : L2-HR :0.89855 Uful:1.30747
     > Finished combination: TraceType=770-tot Sim:120000000 Prefetcher=L2isb_ideal L1=isb_ideal
