TRACE: [662000000][OPT-350M]_[h16][s1024][d64] Warmup: 2000000 NumTraces: 662000000
L1:next_line:L2:029-TOPTOP-L2-MultiMarkovDelta_ip_stride_v3
*************************************************
   ChampSim Multicore Out-of-Order Simulator
   Last compiled: Oct 21 2024 08:08:41
*************************************************

trace_0 770-tot_memTraces_v3/memTraces[662000000][OPT-350M]_[h16][s1024][d64].champsim.xz
CPU 0 L1D next line prefetcher
MK1: Size: 256 TMAX: 64 TMIN: 32 MKPTHRESH: 12
MK2: Size: 256 TMAX: 32 TMIN: 16 MKPTHRESH: 30
MK3: Size: 256 TMAX: 16 TMIN: 0 MKPTHRESH: 40
MK4: Size: 32 TMAX: 4 TMIN: 0 MKPTHRESH: 0
Stride Size: 64 Prefetch Degree: 14

CPU 0 L2C prefetcher
MAIN.cc ln 751 stats print skipped
CPU 0 L2C prefetcher initialized


Cache Size: 512
number of cache lines: 8192
CPU  0 inst:    1000003 cyc:     503040 now IPC :1.98792: AVG IPC :1.98792: L2-Pf-HR :0.83722: L2-HR :0.79826: (Sim:0h0m4s) 
CPU  0 inst:    2000000 cyc:     978427 now IPC :2.10354: AVG IPC :2.04410: L2-Pf-HR :0.87078: L2-HR :0.83274: (Sim:0h0m7s) 

Warmup complete CPU  0 instructions:    2000001 cycles:     978428 (Simulation time: 0 hr 0 min 7 sec) 

CPU  0 inst:    3000002 cyc:    1564774 now IPC :1.70548: AVG IPC :1.70548: L2-Pf-HR :0.85887: L2-HR :0.82815: (Sim:0h0m10s) 
CPU  0 inst:    4000000 cyc:    2157809 now IPC :1.68624: AVG IPC :1.69580: L2-Pf-HR :0.85800: L2-HR :0.82751: (Sim:0h0m15s) 
CPU  0 inst:    5000002 cyc:    2748836 now IPC :1.69197: AVG IPC :1.69453: L2-Pf-HR :0.85813: L2-HR :0.82755: (Sim:0h0m19s) 
CPU  0 inst:    6000002 cyc:    3353811 now IPC :1.65296: AVG IPC :1.68394: L2-Pf-HR :0.86263: L2-HR :0.83104: (Sim:0h0m24s) 
CPU  0 inst:    7000001 cyc:    4095751 now IPC :1.34782: AVG IPC :1.60394: L2-Pf-HR :0.86104: L2-HR :0.83004: (Sim:0h0m28s) 
CPU  0 inst:    8000000 cyc:    4694175 now IPC :1.67105: AVG IPC :1.61475: L2-Pf-HR :0.86134: L2-HR :0.83046: (Sim:0h0m33s) 
CPU  0 inst:    9000000 cyc:    5291405 now IPC :1.67440: AVG IPC :1.62301: L2-Pf-HR :0.86085: L2-HR :0.83016: (Sim:0h0m38s) 
CPU  0 inst:   10000001 cyc:    5894294 now IPC :1.65868: AVG IPC :1.62738: L2-Pf-HR :0.86158: L2-HR :0.83099: (Sim:0h0m42s) 
CPU  0 inst:   11000002 cyc:    6485220 now IPC :1.69226: AVG IPC :1.63435: L2-Pf-HR :0.86190: L2-HR :0.83137: (Sim:0h0m47s) 
CPU  0 inst:   12000000 cyc:    7078930 now IPC :1.68432: AVG IPC :1.63921: L2-Pf-HR :0.86310: L2-HR :0.83231: (Sim:0h0m51s) 
CPU  0 inst:   13000003 cyc:    7769991 now IPC :1.44705: AVG IPC :1.61966: L2-Pf-HR :0.86425: L2-HR :0.83329: (Sim:0h0m56s) 
CPU  0 inst:   14000003 cyc:    8376471 now IPC :1.64886: AVG IPC :1.62205: L2-Pf-HR :0.86487: L2-HR :0.83383: (Sim:0h1m0s) 
CPU  0 inst:   15000003 cyc:    8977089 now IPC :1.66495: AVG IPC :1.62527: L2-Pf-HR :0.86582: L2-HR :0.83473: (Sim:0h1m5s) 
CPU  0 inst:   16000000 cyc:    9579056 now IPC :1.66122: AVG IPC :1.62779: L2-Pf-HR :0.86681: L2-HR :0.83559: (Sim:0h1m9s) 
CPU  0 inst:   17000000 cyc:   10388558 now IPC :1.23533: AVG IPC :1.59403: L2-Pf-HR :0.86632: L2-HR :0.83503: (Sim:0h1m14s) 
CPU  0 inst:   18000000 cyc:   11022138 now IPC :1.57833: AVG IPC :1.59304: L2-Pf-HR :0.86537: L2-HR :0.83408: (Sim:0h1m19s) 
CPU  0 inst:   19000003 cyc:   11656473 now IPC :1.57646: AVG IPC :1.59205: L2-Pf-HR :0.86470: L2-HR :0.83339: (Sim:0h1m23s) 
CPU  0 inst:   20000000 cyc:   12282125 now IPC :1.59833: AVG IPC :1.59240: L2-Pf-HR :0.86412: L2-HR :0.83289: (Sim:0h1m28s) 
CPU  0 inst:   21000002 cyc:   12920101 now IPC :1.56746: AVG IPC :1.59107: L2-Pf-HR :0.86319: L2-HR :0.83203: (Sim:0h1m33s) 
CPU  0 inst:   22000000 cyc:   13554865 now IPC :1.57539: AVG IPC :1.59028: L2-Pf-HR :0.86292: L2-HR :0.83171: (Sim:0h1m37s) 
CPU  0 inst:   23000002 cyc:   14324196 now IPC :1.29983: AVG IPC :1.57353: L2-Pf-HR :0.86368: L2-HR :0.83245: (Sim:0h1m42s) 
CPU  0 inst:   24000000 cyc:   14927678 now IPC :1.65705: AVG IPC :1.57715: L2-Pf-HR :0.86354: L2-HR :0.83236: (Sim:0h1m47s) 
CPU  0 inst:   25000000 cyc:   15528396 now IPC :1.66467: AVG IPC :1.58076: L2-Pf-HR :0.86336: L2-HR :0.83224: (Sim:0h1m51s) 
CPU  0 inst:   26000001 cyc:   16124805 now IPC :1.67670: AVG IPC :1.58454: L2-Pf-HR :0.86335: L2-HR :0.83227: (Sim:0h1m55s) 
CPU  0 inst:   27000000 cyc:   16718039 now IPC :1.68567: AVG IPC :1.58835: L2-Pf-HR :0.86342: L2-HR :0.83238: (Sim:0h2m0s) 
CPU  0 inst:   28000000 cyc:   17310738 now IPC :1.68720: AVG IPC :1.59194: L2-Pf-HR :0.86381: L2-HR :0.83274: (Sim:0h2m4s) 
CPU  0 inst:   29000001 cyc:   18005729 now IPC :1.43887: AVG IPC :1.58569: L2-Pf-HR :0.86444: L2-HR :0.83328: (Sim:0h2m7s) 
CPU  0 inst:   30000002 cyc:   18607254 now IPC :1.66244: AVG IPC :1.58831: L2-Pf-HR :0.86507: L2-HR :0.83385: (Sim:0h2m11s) 
CPU  0 inst:   31000001 cyc:   19204694 now IPC :1.67381: AVG IPC :1.59111: L2-Pf-HR :0.86536: L2-HR :0.83411: (Sim:0h2m14s) 
CPU  0 inst:   32000000 cyc:   19806882 now IPC :1.66061: AVG IPC :1.59333: L2-Pf-HR :0.86584: L2-HR :0.83455: (Sim:0h2m17s) 
CPU  0 inst:   33000002 cyc:   20600731 now IPC :1.25969: AVG IPC :1.57983: L2-Pf-HR :0.86565: L2-HR :0.83430: (Sim:0h2m20s) 
CPU  0 inst:   34000001 cyc:   21225734 now IPC :1.59999: AVG IPC :1.58046: L2-Pf-HR :0.86551: L2-HR :0.83413: (Sim:0h2m23s) 
CPU  0 inst:   35000002 cyc:   21834360 now IPC :1.64305: AVG IPC :1.58228: L2-Pf-HR :0.86507: L2-HR :0.83373: (Sim:0h2m26s) 
CPU  0 inst:   36000000 cyc:   22446416 now IPC :1.63383: AVG IPC :1.58375: L2-Pf-HR :0.86487: L2-HR :0.83354: (Sim:0h2m29s) 
CPU  0 inst:   37000001 cyc:   23067278 now IPC :1.61067: AVG IPC :1.58451: L2-Pf-HR :0.86444: L2-HR :0.83313: (Sim:0h2m32s) 
CPU  0 inst:   38000001 cyc:   23684274 now IPC :1.62076: AVG IPC :1.58549: L2-Pf-HR :0.86431: L2-HR :0.83300: (Sim:0h2m35s) 
CPU  0 inst:   39000001 cyc:   24439672 now IPC :1.32381: AVG IPC :1.57707: L2-Pf-HR :0.86453: L2-HR :0.83316: (Sim:0h2m38s) 
CPU  0 inst:   40000000 cyc:   25044837 now IPC :1.65244: AVG IPC :1.57896: L2-Pf-HR :0.86442: L2-HR :0.83308: (Sim:0h2m41s) 
CPU  0 inst:   41000000 cyc:   25649092 now IPC :1.65493: AVG IPC :1.58082: L2-Pf-HR :0.86442: L2-HR :0.83311: (Sim:0h2m44s) 
CPU  0 inst:   42000002 cyc:   26251410 now IPC :1.66026: AVG IPC :1.58272: L2-Pf-HR :0.86438: L2-HR :0.83310: (Sim:0h2m47s) 
CPU  0 inst:   43000002 cyc:   26847344 now IPC :1.67804: AVG IPC :1.58491: L2-Pf-HR :0.86422: L2-HR :0.83297: (Sim:0h2m50s) 
CPU  0 inst:   44000000 cyc:   27447181 now IPC :1.66712: AVG IPC :1.58678: L2-Pf-HR :0.86445: L2-HR :0.83320: (Sim:0h2m53s) 
CPU  0 inst:   45000002 cyc:   28132612 now IPC :1.45894: AVG IPC :1.58355: L2-Pf-HR :0.86483: L2-HR :0.83351: (Sim:0h2m56s) 
CPU  0 inst:   46000000 cyc:   28738128 now IPC :1.65148: AVG IPC :1.58503: L2-Pf-HR :0.86490: L2-HR :0.83358: (Sim:0h2m59s) 
CPU  0 inst:   47000001 cyc:   29341711 now IPC :1.65677: AVG IPC :1.58656: L2-Pf-HR :0.86501: L2-HR :0.83371: (Sim:0h3m2s) 
CPU  0 inst:   48000000 cyc:   29948508 now IPC :1.64800: AVG IPC :1.58785: L2-Pf-HR :0.86523: L2-HR :0.83392: (Sim:0h3m6s) 
CPU  0 inst:   49000003 cyc:   30737406 now IPC :1.26759: AVG IPC :1.57936: L2-Pf-HR :0.86526: L2-HR :0.83394: (Sim:0h3m9s) 
CPU  0 inst:   50000002 cyc:   31359422 now IPC :1.60767: AVG IPC :1.57994: L2-Pf-HR :0.86512: L2-HR :0.83379: (Sim:0h3m12s) 
CPU  0 inst:   51000002 cyc:   31981296 now IPC :1.60804: AVG IPC :1.58050: L2-Pf-HR :0.86492: L2-HR :0.83358: (Sim:0h3m15s) 
CPU  0 inst:   52000000 cyc:   32596402 now IPC :1.62573: AVG IPC :1.58138: L2-Pf-HR :0.86465: L2-HR :0.83334: (Sim:0h3m18s) 
CPU  0 inst:   53000000 cyc:   33210351 now IPC :1.62880: AVG IPC :1.58228: L2-Pf-HR :0.86422: L2-HR :0.83294: (Sim:0h3m21s) 
CPU  0 inst:   54000002 cyc:   33829911 now IPC :1.61405: AVG IPC :1.58288: L2-Pf-HR :0.86395: L2-HR :0.83269: (Sim:0h3m24s) 
CPU  0 inst:   55000001 cyc:   34593056 now IPC :1.31037: AVG IPC :1.57669: L2-Pf-HR :0.86414: L2-HR :0.83284: (Sim:0h3m29s) 
CPU  0 inst:   56000000 cyc:   35197089 now IPC :1.65554: AVG IPC :1.57809: L2-Pf-HR :0.86402: L2-HR :0.83273: (Sim:0h3m33s) 
CPU  0 inst:   57000000 cyc:   35799628 now IPC :1.65964: AVG IPC :1.57950: L2-Pf-HR :0.86404: L2-HR :0.83277: (Sim:0h3m38s) 
CPU  0 inst:   58000001 cyc:   36393868 now IPC :1.68282: AVG IPC :1.58123: L2-Pf-HR :0.86403: L2-HR :0.83278: (Sim:0h3m42s) 
CPU  0 inst:   59000003 cyc:   36995091 now IPC :1.66328: AVG IPC :1.58260: L2-Pf-HR :0.86391: L2-HR :0.83268: (Sim:0h3m47s) 
CPU  0 inst:   60000000 cyc:   37590814 now IPC :1.67863: AVG IPC :1.58416: L2-Pf-HR :0.86401: L2-HR :0.83277: (Sim:0h3m51s) 
CPU  0 inst:   61000002 cyc:   38272630 now IPC :1.46667: AVG IPC :1.58202: L2-Pf-HR :0.86419: L2-HR :0.83291: (Sim:0h3m56s) 
CPU  0 inst:   62000000 cyc:   38868229 now IPC :1.67898: AVG IPC :1.58354: L2-Pf-HR :0.86435: L2-HR :0.83307: (Sim:0h4m0s) 
CPU  0 inst:   63000002 cyc:   39469264 now IPC :1.66380: AVG IPC :1.58479: L2-Pf-HR :0.86455: L2-HR :0.83326: (Sim:0h4m4s) 
CPU  0 inst:   64000000 cyc:   40067988 now IPC :1.67022: AVG IPC :1.58610: L2-Pf-HR :0.86470: L2-HR :0.83342: (Sim:0h4m9s) 
CPU  0 inst:   65000003 cyc:   40843387 now IPC :1.28966: AVG IPC :1.58034: L2-Pf-HR :0.86475: L2-HR :0.83346: (Sim:0h4m13s) 
CPU  0 inst:   66000000 cyc:   41456732 now IPC :1.63040: AVG IPC :1.58109: L2-Pf-HR :0.86454: L2-HR :0.83325: (Sim:0h4m18s) 
CPU  0 inst:   67000000 cyc:   42069797 now IPC :1.63115: AVG IPC :1.58184: L2-Pf-HR :0.86458: L2-HR :0.83327: (Sim:0h4m22s) 
CPU  0 inst:   68000000 cyc:   42681934 now IPC :1.63362: AVG IPC :1.58260: L2-Pf-HR :0.86446: L2-HR :0.83316: (Sim:0h4m27s) 
CPU  0 inst:   69000003 cyc:   43298249 now IPC :1.62255: AVG IPC :1.58318: L2-Pf-HR :0.86432: L2-HR :0.83302: (Sim:0h4m31s) 
CPU  0 inst:   70000001 cyc:   43913654 now IPC :1.62494: AVG IPC :1.58378: L2-Pf-HR :0.86415: L2-HR :0.83287: (Sim:0h4m36s) 
CPU  0 inst:   71000003 cyc:   44658645 now IPC :1.34230: AVG IPC :1.57966: L2-Pf-HR :0.86434: L2-HR :0.83301: (Sim:0h4m40s) 
CPU  0 inst:   72000000 cyc:   45265984 now IPC :1.64652: AVG IPC :1.58058: L2-Pf-HR :0.86414: L2-HR :0.83284: (Sim:0h4m45s) 
CPU  0 inst:   73000003 cyc:   45863688 now IPC :1.67307: AVG IPC :1.58181: L2-Pf-HR :0.86408: L2-HR :0.83281: (Sim:0h4m49s) 
CPU  0 inst:   74000002 cyc:   46462936 now IPC :1.66876: AVG IPC :1.58296: L2-Pf-HR :0.86398: L2-HR :0.83274: (Sim:0h4m54s) 
CPU  0 inst:   75000000 cyc:   47062835 now IPC :1.66694: AVG IPC :1.58405: L2-Pf-HR :0.86386: L2-HR :0.83264: (Sim:0h4m58s) 
CPU  0 inst:   76000000 cyc:   47663502 now IPC :1.66482: AVG IPC :1.58509: L2-Pf-HR :0.86385: L2-HR :0.83265: (Sim:0h5m3s) 
CPU  0 inst:   77000002 cyc:   48351824 now IPC :1.45281: AVG IPC :1.58317: L2-Pf-HR :0.86408: L2-HR :0.83286: (Sim:0h5m7s) 
CPU  0 inst:   78000003 cyc:   48965701 now IPC :1.62899: AVG IPC :1.58375: L2-Pf-HR :0.86425: L2-HR :0.83302: (Sim:0h5m12s) 
CPU  0 inst:   79000002 cyc:   49568882 now IPC :1.65788: AVG IPC :1.58467: L2-Pf-HR :0.86443: L2-HR :0.83320: (Sim:0h5m16s) 
CPU  0 inst:   80000000 cyc:   50174669 now IPC :1.65074: AVG IPC :1.58549: L2-Pf-HR :0.86459: L2-HR :0.83334: (Sim:0h5m21s) 
CPU  0 inst:   81000000 cyc:   50943155 now IPC :1.30126: AVG IPC :1.58112: L2-Pf-HR :0.86467: L2-HR :0.83340: (Sim:0h5m25s) 
CPU  0 inst:   82000000 cyc:   51573946 now IPC :1.58531: AVG IPC :1.58117: L2-Pf-HR :0.86465: L2-HR :0.83335: (Sim:0h5m30s) 
CPU  0 inst:   83000001 cyc:   52191149 now IPC :1.62021: AVG IPC :1.58164: L2-Pf-HR :0.86461: L2-HR :0.83331: (Sim:0h5m34s) 
CPU  0 inst:   84000000 cyc:   52797951 now IPC :1.64798: AVG IPC :1.58242: L2-Pf-HR :0.86450: L2-HR :0.83321: (Sim:0h5m39s) 
CPU  0 inst:   85000003 cyc:   53410984 now IPC :1.63124: AVG IPC :1.58299: L2-Pf-HR :0.86436: L2-HR :0.83309: (Sim:0h5m43s) 
CPU  0 inst:   86000003 cyc:   54022722 now IPC :1.63469: AVG IPC :1.58358: L2-Pf-HR :0.86432: L2-HR :0.83305: (Sim:0h5m47s) 
CPU  0 inst:   87000001 cyc:   54733047 now IPC :1.40780: AVG IPC :1.58126: L2-Pf-HR :0.86441: L2-HR :0.83313: (Sim:0h5m52s) 
CPU  0 inst:   88000000 cyc:   55382318 now IPC :1.54019: AVG IPC :1.58077: L2-Pf-HR :0.86431: L2-HR :0.83303: (Sim:0h5m56s) 
CPU  0 inst:   89000001 cyc:   55987076 now IPC :1.65356: AVG IPC :1.58157: L2-Pf-HR :0.86428: L2-HR :0.83302: (Sim:0h6m0s) 
CPU  0 inst:   90000002 cyc:   56585019 now IPC :1.67240: AVG IPC :1.58255: L2-Pf-HR :0.86424: L2-HR :0.83300: (Sim:0h6m4s) 
CPU  0 inst:   91000003 cyc:   57188056 now IPC :1.65827: AVG IPC :1.58336: L2-Pf-HR :0.86423: L2-HR :0.83300: (Sim:0h6m9s) 
CPU  0 inst:   92000000 cyc:   57783504 now IPC :1.67940: AVG IPC :1.58437: L2-Pf-HR :0.86429: L2-HR :0.83307: (Sim:0h6m12s) 
CPU  0 inst:   93000000 cyc:   58455842 now IPC :1.48735: AVG IPC :1.58323: L2-Pf-HR :0.86448: L2-HR :0.83324: (Sim:0h6m16s) 
CPU  0 inst:   94000001 cyc:   59082125 now IPC :1.59672: AVG IPC :1.58338: L2-Pf-HR :0.86456: L2-HR :0.83331: (Sim:0h6m19s) 
CPU  0 inst:   95000001 cyc:   59680197 now IPC :1.67204: AVG IPC :1.58428: L2-Pf-HR :0.86470: L2-HR :0.83345: (Sim:0h6m22s) 
CPU  0 inst:   96000000 cyc:   60279427 now IPC :1.66881: AVG IPC :1.58513: L2-Pf-HR :0.86479: L2-HR :0.83353: (Sim:0h6m25s) 
CPU  0 inst:   97000002 cyc:   61003575 now IPC :1.38094: AVG IPC :1.58267: L2-Pf-HR :0.86489: L2-HR :0.83361: (Sim:0h6m28s) 
CPU  0 inst:   98000000 cyc:   61687671 now IPC :1.46178: AVG IPC :1.58131: L2-Pf-HR :0.86485: L2-HR :0.83355: (Sim:0h6m31s) 
CPU  0 inst:   99000001 cyc:   62308150 now IPC :1.61166: AVG IPC :1.58161: L2-Pf-HR :0.86486: L2-HR :0.83356: (Sim:0h6m34s) 
CPU  0 inst:  100000000 cyc:   62923445 now IPC :1.62524: AVG IPC :1.58205: L2-Pf-HR :0.86479: L2-HR :0.83348: (Sim:0h6m37s) 
CPU  0 inst:  101000003 cyc:   63529486 now IPC :1.65006: AVG IPC :1.58271: L2-Pf-HR :0.86459: L2-HR :0.83330: (Sim:0h6m40s) 
CPU  0 inst:  102000002 cyc:   64136462 now IPC :1.64751: AVG IPC :1.58333: L2-Pf-HR :0.86452: L2-HR :0.83323: (Sim:0h6m43s) 
CPU  0 inst:  103000000 cyc:   64752276 now IPC :1.62386: AVG IPC :1.58372: L2-Pf-HR :0.86463: L2-HR :0.83330: (Sim:0h6m46s) 
CPU  0 inst:  104000000 cyc:   65510415 now IPC :1.31902: AVG IPC :1.58061: L2-Pf-HR :0.86448: L2-HR :0.83319: (Sim:0h6m49s) 
CPU  0 inst:  105000003 cyc:   66106413 now IPC :1.67786: AVG IPC :1.58150: L2-Pf-HR :0.86445: L2-HR :0.83318: (Sim:0h6m53s) 
CPU  0 inst:  106000003 cyc:   66711536 now IPC :1.65256: AVG IPC :1.58216: L2-Pf-HR :0.86435: L2-HR :0.83309: (Sim:0h6m57s) 
CPU  0 inst:  107000003 cyc:   67308227 now IPC :1.67591: AVG IPC :1.58300: L2-Pf-HR :0.86429: L2-HR :0.83305: (Sim:0h7m2s) 
CPU  0 inst:  108000000 cyc:   67905905 now IPC :1.67314: AVG IPC :1.58380: L2-Pf-HR :0.86425: L2-HR :0.83303: (Sim:0h7m6s) 
CPU  0 inst:  109000002 cyc:   68497641 now IPC :1.68995: AVG IPC :1.58473: L2-Pf-HR :0.86441: L2-HR :0.83316: (Sim:0h7m10s) 
CPU  0 inst:  110000001 cyc:   69192017 now IPC :1.44014: AVG IPC :1.58326: L2-Pf-HR :0.86439: L2-HR :0.83318: (Sim:0h7m15s) 
CPU  0 inst:  111000000 cyc:   69794781 now IPC :1.65902: AVG IPC :1.58393: L2-Pf-HR :0.86446: L2-HR :0.83325: (Sim:0h7m19s) 
CPU  0 inst:  112000000 cyc:   70398398 now IPC :1.65668: AVG IPC :1.58456: L2-Pf-HR :0.86455: L2-HR :0.83334: (Sim:0h7m23s) 
CPU  0 inst:  113000001 cyc:   71000506 now IPC :1.66083: AVG IPC :1.58521: L2-Pf-HR :0.86476: L2-HR :0.83353: (Sim:0h7m26s) 
CPU  0 inst:  114000003 cyc:   71798662 now IPC :1.25289: AVG IPC :1.58147: L2-Pf-HR :0.86456: L2-HR :0.83334: (Sim:0h7m29s) 
CPU  0 inst:  115000002 cyc:   72409975 now IPC :1.63582: AVG IPC :1.58193: L2-Pf-HR :0.86454: L2-HR :0.83332: (Sim:0h7m32s) 
CPU  0 inst:  116000000 cyc:   73030526 now IPC :1.61147: AVG IPC :1.58219: L2-Pf-HR :0.86452: L2-HR :0.83329: (Sim:0h7m35s) 
CPU  0 inst:  117000001 cyc:   73650165 now IPC :1.61384: AVG IPC :1.58246: L2-Pf-HR :0.86453: L2-HR :0.83330: (Sim:0h7m39s) 
CPU  0 inst:  118000001 cyc:   74255727 now IPC :1.65136: AVG IPC :1.58303: L2-Pf-HR :0.86446: L2-HR :0.83324: (Sim:0h7m43s) 
CPU  0 inst:  119000001 cyc:   74864931 now IPC :1.64149: AVG IPC :1.58351: L2-Pf-HR :0.86454: L2-HR :0.83328: (Sim:0h7m48s) 
CPU  0 inst:  120000000 cyc:   75623522 now IPC :1.31823: AVG IPC :1.58081: L2-Pf-HR :0.86448: L2-HR :0.83324: (Sim:0h7m52s) 
CPU  0 inst:  121000003 cyc:   76225770 now IPC :1.66045: AVG IPC :1.58145: L2-Pf-HR :0.86447: L2-HR :0.83323: (Sim:0h7m57s) 
CPU  0 inst:  122000000 cyc:   76820226 now IPC :1.68221: AVG IPC :1.58224: L2-Pf-HR :0.86440: L2-HR :0.83317: (Sim:0h8m1s) 
CPU  0 inst:  123000000 cyc:   77423780 now IPC :1.65685: AVG IPC :1.58283: L2-Pf-HR :0.86441: L2-HR :0.83319: (Sim:0h8m6s) 
CPU  0 inst:  124000000 cyc:   78019874 now IPC :1.67759: AVG IPC :1.58356: L2-Pf-HR :0.86442: L2-HR :0.83321: (Sim:0h8m10s) 
CPU  0 inst:  125000002 cyc:   78610917 now IPC :1.69193: AVG IPC :1.58439: L2-Pf-HR :0.86456: L2-HR :0.83333: (Sim:0h8m14s) 
CPU  0 inst:  126000003 cyc:   79302247 now IPC :1.44649: AVG IPC :1.58317: L2-Pf-HR :0.86458: L2-HR :0.83335: (Sim:0h8m19s) 
CPU  0 inst:  127000001 cyc:   79900501 now IPC :1.67153: AVG IPC :1.58384: L2-Pf-HR :0.86462: L2-HR :0.83340: (Sim:0h8m23s) 
CPU  0 inst:  128000000 cyc:   80496329 now IPC :1.67834: AVG IPC :1.58455: L2-Pf-HR :0.86469: L2-HR :0.83347: (Sim:0h8m28s) 
CPU  0 inst:  129000003 cyc:   81091887 now IPC :1.67910: AVG IPC :1.58525: L2-Pf-HR :0.86483: L2-HR :0.83360: (Sim:0h8m32s) 
CPU  0 inst:  130000000 cyc:   81879006 now IPC :1.27045: AVG IPC :1.58219: L2-Pf-HR :0.86473: L2-HR :0.83351: (Sim:0h8m37s) 
CPU  0 inst:  131000001 cyc:   82494283 now IPC :1.62529: AVG IPC :1.58251: L2-Pf-HR :0.86468: L2-HR :0.83345: (Sim:0h8m41s) 
CPU  0 inst:  132000000 cyc:   83111517 now IPC :1.62013: AVG IPC :1.58280: L2-Pf-HR :0.86463: L2-HR :0.83340: (Sim:0h8m46s) 
CPU  0 inst:  133000002 cyc:   83730163 now IPC :1.61644: AVG IPC :1.58305: L2-Pf-HR :0.86464: L2-HR :0.83341: (Sim:0h8m50s) 
CPU  0 inst:  134000003 cyc:   84338761 now IPC :1.64312: AVG IPC :1.58349: L2-Pf-HR :0.86459: L2-HR :0.83336: (Sim:0h8m55s) 
CPU  0 inst:  135000000 cyc:   84944141 now IPC :1.65185: AVG IPC :1.58398: L2-Pf-HR :0.86459: L2-HR :0.83335: (Sim:0h8m59s) 
CPU  0 inst:  136000000 cyc:   85701896 now IPC :1.31969: AVG IPC :1.58162: L2-Pf-HR :0.86463: L2-HR :0.83338: (Sim:0h9m4s) 
CPU  0 inst:  137000000 cyc:   86298470 now IPC :1.67624: AVG IPC :1.58228: L2-Pf-HR :0.86460: L2-HR :0.83336: (Sim:0h9m8s) 
CPU  0 inst:  138000003 cyc:   86901392 now IPC :1.65859: AVG IPC :1.58281: L2-Pf-HR :0.86455: L2-HR :0.83332: (Sim:0h9m13s) 
CPU  0 inst:  139000000 cyc:   87504817 now IPC :1.65720: AVG IPC :1.58333: L2-Pf-HR :0.86456: L2-HR :0.83335: (Sim:0h9m17s) 
CPU  0 inst:  140000000 cyc:   88105688 now IPC :1.66425: AVG IPC :1.58389: L2-Pf-HR :0.86453: L2-HR :0.83333: (Sim:0h9m22s) 
CPU  0 inst:  141000003 cyc:   88702206 now IPC :1.67640: AVG IPC :1.58452: L2-Pf-HR :0.86454: L2-HR :0.83333: (Sim:0h9m26s) 
CPU  0 inst:  142000003 cyc:   89395717 now IPC :1.44194: AVG IPC :1.58340: L2-Pf-HR :0.86462: L2-HR :0.83340: (Sim:0h9m31s) 
CPU  0 inst:  143000002 cyc:   90003521 now IPC :1.64527: AVG IPC :1.58382: L2-Pf-HR :0.86467: L2-HR :0.83345: (Sim:0h9m35s) 
CPU  0 inst:  144000000 cyc:   90611750 now IPC :1.64411: AVG IPC :1.58423: L2-Pf-HR :0.86471: L2-HR :0.83349: (Sim:0h9m39s) 
CPU  0 inst:  145000003 cyc:   91211308 now IPC :1.66790: AVG IPC :1.58479: L2-Pf-HR :0.86479: L2-HR :0.83357: (Sim:0h9m42s) 
CPU  0 inst:  146000001 cyc:   92000228 now IPC :1.26755: AVG IPC :1.58204: L2-Pf-HR :0.86472: L2-HR :0.83350: (Sim:0h9m45s) 
CPU  0 inst:  147000000 cyc:   92618342 now IPC :1.61782: AVG IPC :1.58228: L2-Pf-HR :0.86469: L2-HR :0.83346: (Sim:0h9m49s) 
CPU  0 inst:  148000000 cyc:   93237662 now IPC :1.61467: AVG IPC :1.58250: L2-Pf-HR :0.86463: L2-HR :0.83340: (Sim:0h9m52s) 
CPU  0 inst:  149000003 cyc:   93842965 now IPC :1.65207: AVG IPC :1.58295: L2-Pf-HR :0.86458: L2-HR :0.83337: (Sim:0h9m55s) 
CPU  0 inst:  150000003 cyc:   94465808 now IPC :1.60554: AVG IPC :1.58310: L2-Pf-HR :0.86454: L2-HR :0.83332: (Sim:0h9m59s) 
CPU  0 inst:  151000003 cyc:   95078229 now IPC :1.63286: AVG IPC :1.58343: L2-Pf-HR :0.86451: L2-HR :0.83329: (Sim:0h10m3s) 
CPU  0 inst:  152000000 cyc:   95841277 now IPC :1.31053: AVG IPC :1.58123: L2-Pf-HR :0.86458: L2-HR :0.83334: (Sim:0h10m8s) 
CPU  0 inst:  153000003 cyc:   96453289 now IPC :1.63396: AVG IPC :1.58157: L2-Pf-HR :0.86453: L2-HR :0.83330: (Sim:0h10m12s) 
CPU  0 inst:  154000003 cyc:   97053118 now IPC :1.66714: AVG IPC :1.58210: L2-Pf-HR :0.86450: L2-HR :0.83328: (Sim:0h10m17s) 
CPU  0 inst:  155000003 cyc:   97657635 now IPC :1.65421: AVG IPC :1.58255: L2-Pf-HR :0.86450: L2-HR :0.83329: (Sim:0h10m21s) 
CPU  0 inst:  156000000 cyc:   98252723 now IPC :1.68042: AVG IPC :1.58315: L2-Pf-HR :0.86444: L2-HR :0.83324: (Sim:0h10m26s) 
CPU  0 inst:  157000003 cyc:   98854098 now IPC :1.66286: AVG IPC :1.58364: L2-Pf-HR :0.86446: L2-HR :0.83326: (Sim:0h10m30s) 
CPU  0 inst:  158000000 cyc:   99545978 now IPC :1.44533: AVG IPC :1.58267: L2-Pf-HR :0.86453: L2-HR :0.83331: (Sim:0h10m35s) 
CPU  0 inst:  159000002 cyc:  100150562 now IPC :1.65403: AVG IPC :1.58311: L2-Pf-HR :0.86458: L2-HR :0.83336: (Sim:0h10m39s) 
CPU  0 inst:  160000000 cyc:  100751795 now IPC :1.66325: AVG IPC :1.58359: L2-Pf-HR :0.86466: L2-HR :0.83344: (Sim:0h10m43s) 
CPU  0 inst:  161000001 cyc:  101354079 now IPC :1.66035: AVG IPC :1.58405: L2-Pf-HR :0.86474: L2-HR :0.83352: (Sim:0h10m48s) 
CPU  0 inst:  162000003 cyc:  102131105 now IPC :1.28696: AVG IPC :1.58177: L2-Pf-HR :0.86471: L2-HR :0.83349: (Sim:0h10m52s) 
CPU  0 inst:  163000002 cyc:  102746861 now IPC :1.62402: AVG IPC :1.58202: L2-Pf-HR :0.86460: L2-HR :0.83338: (Sim:0h10m57s) 
CPU  0 inst:  164000000 cyc:  103364863 now IPC :1.61811: AVG IPC :1.58224: L2-Pf-HR :0.86458: L2-HR :0.83336: (Sim:0h11m1s) 
CPU  0 inst:  165000001 cyc:  103982278 now IPC :1.61966: AVG IPC :1.58247: L2-Pf-HR :0.86460: L2-HR :0.83337: (Sim:0h11m6s) 
CPU  0 inst:  166000003 cyc:  104594890 now IPC :1.63236: AVG IPC :1.58276: L2-Pf-HR :0.86453: L2-HR :0.83331: (Sim:0h11m10s) 
CPU  0 inst:  167000001 cyc:  105206514 now IPC :1.63499: AVG IPC :1.58307: L2-Pf-HR :0.86450: L2-HR :0.83328: (Sim:0h11m15s) 
CPU  0 inst:  168000000 cyc:  105967872 now IPC :1.31344: AVG IPC :1.58111: L2-Pf-HR :0.86457: L2-HR :0.83333: (Sim:0h11m20s) 
CPU  0 inst:  169000003 cyc:  106567826 now IPC :1.66680: AVG IPC :1.58160: L2-Pf-HR :0.86451: L2-HR :0.83328: (Sim:0h11m24s) 
CPU  0 inst:  170000000 cyc:  107168759 now IPC :1.66407: AVG IPC :1.58206: L2-Pf-HR :0.86450: L2-HR :0.83327: (Sim:0h11m28s) 
CPU  0 inst:  171000001 cyc:  107763281 now IPC :1.68203: AVG IPC :1.58262: L2-Pf-HR :0.86447: L2-HR :0.83326: (Sim:0h11m33s) 
CPU  0 inst:  172000000 cyc:  108356798 now IPC :1.68487: AVG IPC :1.58319: L2-Pf-HR :0.86442: L2-HR :0.83322: (Sim:0h11m37s) 
CPU  0 inst:  173000002 cyc:  108955548 now IPC :1.67015: AVG IPC :1.58367: L2-Pf-HR :0.86441: L2-HR :0.83322: (Sim:0h11m42s) 
CPU  0 inst:  174000002 cyc:  109644537 now IPC :1.45140: AVG IPC :1.58283: L2-Pf-HR :0.86449: L2-HR :0.83329: (Sim:0h11m46s) 
CPU  0 inst:  175000001 cyc:  110249082 now IPC :1.65413: AVG IPC :1.58322: L2-Pf-HR :0.86452: L2-HR :0.83332: (Sim:0h11m51s) 
CPU  0 inst:  176000000 cyc:  110847132 now IPC :1.67210: AVG IPC :1.58371: L2-Pf-HR :0.86460: L2-HR :0.83340: (Sim:0h11m55s) 
CPU  0 inst:  177000002 cyc:  111452385 now IPC :1.65220: AVG IPC :1.58408: L2-Pf-HR :0.86466: L2-HR :0.83346: (Sim:0h12m0s) 
CPU  0 inst:  178000003 cyc:  112240006 now IPC :1.26965: AVG IPC :1.58186: L2-Pf-HR :0.86466: L2-HR :0.83345: (Sim:0h12m4s) 
CPU  0 inst:  179000002 cyc:  112860150 now IPC :1.61253: AVG IPC :1.58203: L2-Pf-HR :0.86457: L2-HR :0.83336: (Sim:0h12m9s) 
CPU  0 inst:  180000000 cyc:  113474584 now IPC :1.62751: AVG IPC :1.58228: L2-Pf-HR :0.86452: L2-HR :0.83331: (Sim:0h12m13s) 
CPU  0 inst:  181000001 cyc:  114087771 now IPC :1.63083: AVG IPC :1.58254: L2-Pf-HR :0.86451: L2-HR :0.83330: (Sim:0h12m18s) 
CPU  0 inst:  182000002 cyc:  114705014 now IPC :1.62011: AVG IPC :1.58274: L2-Pf-HR :0.86448: L2-HR :0.83327: (Sim:0h12m22s) 
CPU  0 inst:  183000001 cyc:  115315774 now IPC :1.63730: AVG IPC :1.58303: L2-Pf-HR :0.86445: L2-HR :0.83323: (Sim:0h12m27s) 
CPU  0 inst:  184000000 cyc:  116067808 now IPC :1.32973: AVG IPC :1.58138: L2-Pf-HR :0.86449: L2-HR :0.83327: (Sim:0h12m31s) 
CPU  0 inst:  185000002 cyc:  116680442 now IPC :1.63230: AVG IPC :1.58165: L2-Pf-HR :0.86445: L2-HR :0.83324: (Sim:0h12m36s) 
CPU  0 inst:  186000001 cyc:  117280618 now IPC :1.66618: AVG IPC :1.58209: L2-Pf-HR :0.86445: L2-HR :0.83325: (Sim:0h12m40s) 
CPU  0 inst:  187000002 cyc:  117880708 now IPC :1.66642: AVG IPC :1.58252: L2-Pf-HR :0.86442: L2-HR :0.83323: (Sim:0h12m45s) 
CPU  0 inst:  188000000 cyc:  118479037 now IPC :1.67132: AVG IPC :1.58297: L2-Pf-HR :0.86442: L2-HR :0.83323: (Sim:0h12m49s) 
CPU  0 inst:  189000002 cyc:  119080175 now IPC :1.66351: AVG IPC :1.58338: L2-Pf-HR :0.86443: L2-HR :0.83324: (Sim:0h12m54s) 
CPU  0 inst:  190000003 cyc:  119765470 now IPC :1.45923: AVG IPC :1.58266: L2-Pf-HR :0.86450: L2-HR :0.83330: (Sim:0h12m58s) 
CPU  0 inst:  191000003 cyc:  120368107 now IPC :1.65937: AVG IPC :1.58305: L2-Pf-HR :0.86455: L2-HR :0.83335: (Sim:0h13m3s) 
CPU  0 inst:  192000000 cyc:  120970434 now IPC :1.66022: AVG IPC :1.58344: L2-Pf-HR :0.86460: L2-HR :0.83340: (Sim:0h13m7s) 
CPU  0 inst:  193000002 cyc:  121574505 now IPC :1.65544: AVG IPC :1.58380: L2-Pf-HR :0.86464: L2-HR :0.83343: (Sim:0h13m11s) 
CPU  0 inst:  194000001 cyc:  122347711 now IPC :1.29332: AVG IPC :1.58195: L2-Pf-HR :0.86467: L2-HR :0.83345: (Sim:0h13m14s) 
CPU  0 inst:  195000000 cyc:  122969681 now IPC :1.60779: AVG IPC :1.58208: L2-Pf-HR :0.86458: L2-HR :0.83337: (Sim:0h13m17s) 
CPU  0 inst:  196000000 cyc:  123582554 now IPC :1.63166: AVG IPC :1.58233: L2-Pf-HR :0.86453: L2-HR :0.83332: (Sim:0h13m20s) 
CPU  0 inst:  197000003 cyc:  124203167 now IPC :1.61131: AVG IPC :1.58247: L2-Pf-HR :0.86451: L2-HR :0.83329: (Sim:0h13m25s) 
CPU  0 inst:  198000002 cyc:  124826626 now IPC :1.60395: AVG IPC :1.58258: L2-Pf-HR :0.86448: L2-HR :0.83327: (Sim:0h13m29s) 
CPU  0 inst:  199000002 cyc:  125445614 now IPC :1.61554: AVG IPC :1.58275: L2-Pf-HR :0.86448: L2-HR :0.83326: (Sim:0h13m34s) 
CPU  0 inst:  200000000 cyc:  126190034 now IPC :1.34333: AVG IPC :1.58132: L2-Pf-HR :0.86455: L2-HR :0.83332: (Sim:0h13m39s) 
CPU  0 inst:  201000003 cyc:  126840882 now IPC :1.53646: AVG IPC :1.58109: L2-Pf-HR :0.86453: L2-HR :0.83330: (Sim:0h13m42s) 
CPU  0 inst:  202000003 cyc:  127467895 now IPC :1.59486: AVG IPC :1.58116: L2-Pf-HR :0.86454: L2-HR :0.83331: (Sim:0h13m45s) 
CPU  0 inst:  203000001 cyc:  128096934 now IPC :1.58972: AVG IPC :1.58120: L2-Pf-HR :0.86451: L2-HR :0.83329: (Sim:0h13m49s) 
CPU  0 inst:  204000000 cyc:  128723696 now IPC :1.59550: AVG IPC :1.58127: L2-Pf-HR :0.86451: L2-HR :0.83330: (Sim:0h13m52s) 
CPU  0 inst:  205000003 cyc:  129354937 now IPC :1.58419: AVG IPC :1.58129: L2-Pf-HR :0.86454: L2-HR :0.83333: (Sim:0h13m55s) 
CPU  0 inst:  206000002 cyc:  130064573 now IPC :1.40917: AVG IPC :1.58034: L2-Pf-HR :0.86460: L2-HR :0.83338: (Sim:0h13m58s) 
CPU  0 inst:  207000003 cyc:  130673937 now IPC :1.64106: AVG IPC :1.58063: L2-Pf-HR :0.86466: L2-HR :0.83344: (Sim:0h14m1s) 
CPU  0 inst:  208000000 cyc:  131281430 now IPC :1.64610: AVG IPC :1.58093: L2-Pf-HR :0.86474: L2-HR :0.83351: (Sim:0h14m4s) 
CPU  0 inst:  209000003 cyc:  131879106 now IPC :1.67315: AVG IPC :1.58135: L2-Pf-HR :0.86482: L2-HR :0.83359: (Sim:0h14m7s) 
CPU  0 inst:  210000003 cyc:  132625148 now IPC :1.34041: AVG IPC :1.57999: L2-Pf-HR :0.86486: L2-HR :0.83362: (Sim:0h14m10s) 
CPU  0 inst:  211000001 cyc:  133276524 now IPC :1.53521: AVG IPC :1.57977: L2-Pf-HR :0.86479: L2-HR :0.83355: (Sim:0h14m13s) 
CPU  0 inst:  212000000 cyc:  133890796 now IPC :1.62794: AVG IPC :1.57999: L2-Pf-HR :0.86473: L2-HR :0.83349: (Sim:0h14m16s) 
CPU  0 inst:  213000003 cyc:  134497958 now IPC :1.64701: AVG IPC :1.58029: L2-Pf-HR :0.86467: L2-HR :0.83344: (Sim:0h14m20s) 
CPU  0 inst:  214000000 cyc:  135114993 now IPC :1.62065: AVG IPC :1.58048: L2-Pf-HR :0.86467: L2-HR :0.83343: (Sim:0h14m24s) 
CPU  0 inst:  215000000 cyc:  135726311 now IPC :1.63581: AVG IPC :1.58073: L2-Pf-HR :0.86465: L2-HR :0.83341: (Sim:0h14m29s) 
CPU  0 inst:  216000000 cyc:  136391795 now IPC :1.50267: AVG IPC :1.58035: L2-Pf-HR :0.86471: L2-HR :0.83346: (Sim:0h14m33s) 
CPU  0 inst:  217000002 cyc:  137096111 now IPC :1.41982: AVG IPC :1.57952: L2-Pf-HR :0.86467: L2-HR :0.83341: (Sim:0h14m37s) 
CPU  0 inst:  218000000 cyc:  137693644 now IPC :1.67354: AVG IPC :1.57993: L2-Pf-HR :0.86465: L2-HR :0.83341: (Sim:0h14m40s) 
CPU  0 inst:  219000002 cyc:  138293093 now IPC :1.66820: AVG IPC :1.58031: L2-Pf-HR :0.86459: L2-HR :0.83336: (Sim:0h14m43s) 
CPU  0 inst:  220000000 cyc:  138890526 now IPC :1.67382: AVG IPC :1.58072: L2-Pf-HR :0.86457: L2-HR :0.83334: (Sim:0h14m46s) 
CPU  0 inst:  221000003 cyc:  139485534 now IPC :1.68065: AVG IPC :1.58115: L2-Pf-HR :0.86455: L2-HR :0.83334: (Sim:0h14m49s) 
CPU  0 inst:  222000003 cyc:  140110176 now IPC :1.60092: AVG IPC :1.58124: L2-Pf-HR :0.86461: L2-HR :0.83338: (Sim:0h14m52s) 
CPU  0 inst:  223000003 cyc:  140784091 now IPC :1.48387: AVG IPC :1.58077: L2-Pf-HR :0.86461: L2-HR :0.83338: (Sim:0h14m55s) 
CPU  0 inst:  224000000 cyc:  141382557 now IPC :1.67093: AVG IPC :1.58115: L2-Pf-HR :0.86465: L2-HR :0.83343: (Sim:0h14m59s) 
CPU  0 inst:  225000003 cyc:  141982766 now IPC :1.66609: AVG IPC :1.58151: L2-Pf-HR :0.86469: L2-HR :0.83347: (Sim:0h15m2s) 
CPU  0 inst:  226000002 cyc:  142605081 now IPC :1.60690: AVG IPC :1.58162: L2-Pf-HR :0.86478: L2-HR :0.83354: (Sim:0h15m5s) 
CPU  0 inst:  227000002 cyc:  143383024 now IPC :1.28544: AVG IPC :1.58001: L2-Pf-HR :0.86470: L2-HR :0.83347: (Sim:0h15m8s) 
CPU  0 inst:  228000000 cyc:  143989924 now IPC :1.64771: AVG IPC :1.58029: L2-Pf-HR :0.86463: L2-HR :0.83341: (Sim:0h15m11s) 
CPU  0 inst:  229000002 cyc:  144601596 now IPC :1.63487: AVG IPC :1.58052: L2-Pf-HR :0.86455: L2-HR :0.83333: (Sim:0h15m14s) 
CPU  0 inst:  230000000 cyc:  145215163 now IPC :1.62981: AVG IPC :1.58073: L2-Pf-HR :0.86455: L2-HR :0.83333: (Sim:0h15m18s) 
CPU  0 inst:  231000002 cyc:  145844562 now IPC :1.58882: AVG IPC :1.58077: L2-Pf-HR :0.86452: L2-HR :0.83331: (Sim:0h15m21s) 
CPU  0 inst:  232000000 cyc:  146453860 now IPC :1.64123: AVG IPC :1.58102: L2-Pf-HR :0.86460: L2-HR :0.83336: (Sim:0h15m24s) 
CPU  0 inst:  233000002 cyc:  147230122 now IPC :1.28823: AVG IPC :1.57947: L2-Pf-HR :0.86459: L2-HR :0.83337: (Sim:0h15m29s) 
CPU  0 inst:  234000002 cyc:  147839162 now IPC :1.64193: AVG IPC :1.57973: L2-Pf-HR :0.86459: L2-HR :0.83337: (Sim:0h15m32s) 
CPU  0 inst:  235000000 cyc:  148448731 now IPC :1.64050: AVG IPC :1.57998: L2-Pf-HR :0.86457: L2-HR :0.83336: (Sim:0h15m35s) 
CPU  0 inst:  236000000 cyc:  149056025 now IPC :1.64665: AVG IPC :1.58025: L2-Pf-HR :0.86456: L2-HR :0.83335: (Sim:0h15m38s) 
CPU  0 inst:  237000002 cyc:  149669417 now IPC :1.63028: AVG IPC :1.58046: L2-Pf-HR :0.86455: L2-HR :0.83334: (Sim:0h15m41s) 
CPU  0 inst:  238000002 cyc:  150264999 now IPC :1.67903: AVG IPC :1.58085: L2-Pf-HR :0.86460: L2-HR :0.83338: (Sim:0h15m44s) 
CPU  0 inst:  239000000 cyc:  150967761 now IPC :1.42295: AVG IPC :1.58011: L2-Pf-HR :0.86460: L2-HR :0.83338: (Sim:0h15m47s) 
CPU  0 inst:  240000000 cyc:  151572594 now IPC :1.65335: AVG IPC :1.58041: L2-Pf-HR :0.86468: L2-HR :0.83345: (Sim:0h15m51s) 
CPU  0 inst:  241000003 cyc:  152175663 now IPC :1.65819: AVG IPC :1.58072: L2-Pf-HR :0.86472: L2-HR :0.83350: (Sim:0h15m56s) 
CPU  0 inst:  242000002 cyc:  152770077 now IPC :1.68233: AVG IPC :1.58111: L2-Pf-HR :0.86478: L2-HR :0.83355: (Sim:0h16m0s) 
CPU  0 inst:  243000003 cyc:  153563992 now IPC :1.25958: AVG IPC :1.57944: L2-Pf-HR :0.86471: L2-HR :0.83349: (Sim:0h16m3s) 
CPU  0 inst:  244000000 cyc:  154176276 now IPC :1.63322: AVG IPC :1.57966: L2-Pf-HR :0.86468: L2-HR :0.83345: (Sim:0h16m8s) 
CPU  0 inst:  245000002 cyc:  154788381 now IPC :1.63371: AVG IPC :1.57987: L2-Pf-HR :0.86458: L2-HR :0.83336: (Sim:0h16m12s) 
CPU  0 inst:  246000002 cyc:  155410452 now IPC :1.60753: AVG IPC :1.57998: L2-Pf-HR :0.86453: L2-HR :0.83332: (Sim:0h16m17s) 
CPU  0 inst:  247000000 cyc:  156029097 now IPC :1.61643: AVG IPC :1.58013: L2-Pf-HR :0.86450: L2-HR :0.83329: (Sim:0h16m21s) 
CPU  0 inst:  248000000 cyc:  156654927 now IPC :1.59788: AVG IPC :1.58020: L2-Pf-HR :0.86453: L2-HR :0.83331: (Sim:0h16m26s) 
CPU  0 inst:  249000003 cyc:  157409131 now IPC :1.32591: AVG IPC :1.57897: L2-Pf-HR :0.86455: L2-HR :0.83333: (Sim:0h16m31s) 
CPU  0 inst:  250000000 cyc:  158006644 now IPC :1.67360: AVG IPC :1.57933: L2-Pf-HR :0.86452: L2-HR :0.83330: (Sim:0h16m35s) 
CPU  0 inst:  251000002 cyc:  158606301 now IPC :1.66762: AVG IPC :1.57967: L2-Pf-HR :0.86449: L2-HR :0.83328: (Sim:0h16m39s) 
CPU  0 inst:  252000000 cyc:  159201095 now IPC :1.68125: AVG IPC :1.58005: L2-Pf-HR :0.86448: L2-HR :0.83328: (Sim:0h16m44s) 
CPU  0 inst:  253000001 cyc:  159797534 now IPC :1.67662: AVG IPC :1.58041: L2-Pf-HR :0.86446: L2-HR :0.83327: (Sim:0h16m48s) 
CPU  0 inst:  254000002 cyc:  160395361 now IPC :1.67273: AVG IPC :1.58076: L2-Pf-HR :0.86447: L2-HR :0.83328: (Sim:0h16m53s) 
CPU  0 inst:  255000003 cyc:  161089706 now IPC :1.44021: AVG IPC :1.58015: L2-Pf-HR :0.86453: L2-HR :0.83333: (Sim:0h16m57s) 
CPU  0 inst:  256000000 cyc:  161694881 now IPC :1.65241: AVG IPC :1.58042: L2-Pf-HR :0.86457: L2-HR :0.83337: (Sim:0h17m2s) 
CPU  0 inst:  257000001 cyc:  162297819 now IPC :1.65855: AVG IPC :1.58072: L2-Pf-HR :0.86463: L2-HR :0.83343: (Sim:0h17m6s) 
CPU  0 inst:  258000003 cyc:  162899752 now IPC :1.66132: AVG IPC :1.58101: L2-Pf-HR :0.86469: L2-HR :0.83348: (Sim:0h17m11s) 
CPU  0 inst:  259000001 cyc:  167538646 now IPC :0.21557: AVG IPC :1.54299: L2-Pf-HR :0.86158: L2-HR :0.83135: (Sim:0h17m22s) 
CPU  0 inst:  260000000 cyc:  174008160 now IPC :0.15457: AVG IPC :1.49107: L2-Pf-HR :0.85714: L2-HR :0.82844: (Sim:0h17m39s) 
CPU  0 inst:  261000002 cyc:  180475901 now IPC :0.15461: AVG IPC :1.44292: L2-Pf-HR :0.85275: L2-HR :0.82559: (Sim:0h17m54s) 
CPU  0 inst:  262000002 cyc:  186944588 now IPC :0.15459: AVG IPC :1.39810: L2-Pf-HR :0.84842: L2-HR :0.82279: (Sim:0h18m10s) 
CPU  0 inst:  263000000 cyc:  193412814 now IPC :0.15460: AVG IPC :1.35631: L2-Pf-HR :0.84413: L2-HR :0.82004: (Sim:0h18m26s) 
CPU  0 inst:  264000000 cyc:  199880003 now IPC :0.15463: AVG IPC :1.31723: L2-Pf-HR :0.83990: L2-HR :0.81734: (Sim:0h18m42s) 
CPU  0 inst:  265000000 cyc:  206352413 now IPC :0.15450: AVG IPC :1.28059: L2-Pf-HR :0.83571: L2-HR :0.81470: (Sim:0h18m58s) 
CPU  0 inst:  266000003 cyc:  212821741 now IPC :0.15458: AVG IPC :1.24620: L2-Pf-HR :0.83157: L2-HR :0.81210: (Sim:0h19m14s) 
CPU  0 inst:  267000003 cyc:  219296925 now IPC :0.15444: AVG IPC :1.21382: L2-Pf-HR :0.82748: L2-HR :0.80954: (Sim:0h19m30s) 
CPU  0 inst:  268000000 cyc:  225061227 now IPC :0.17348: AVG IPC :1.18706: L2-Pf-HR :0.82436: L2-HR :0.80753: (Sim:0h19m45s) 
CPU  0 inst:  269000000 cyc:  228659716 now IPC :0.27789: AVG IPC :1.17269: L2-Pf-HR :0.82422: L2-HR :0.80726: (Sim:0h19m54s) 
CPU  0 inst:  270000000 cyc:  232246998 now IPC :0.27876: AVG IPC :1.15883: L2-Pf-HR :0.82409: L2-HR :0.80700: (Sim:0h20m3s) 
CPU  0 inst:  271000000 cyc:  235820056 now IPC :0.27987: AVG IPC :1.14545: L2-Pf-HR :0.82401: L2-HR :0.80677: (Sim:0h20m12s) 
CPU  0 inst:  272000000 cyc:  239387179 now IPC :0.28034: AVG IPC :1.13251: L2-Pf-HR :0.82395: L2-HR :0.80657: (Sim:0h20m21s) 
CPU  0 inst:  273000000 cyc:  242950283 now IPC :0.28065: AVG IPC :1.11996: L2-Pf-HR :0.82389: L2-HR :0.80637: (Sim:0h20m31s) 
CPU  0 inst:  274000002 cyc:  246526069 now IPC :0.27966: AVG IPC :1.10773: L2-Pf-HR :0.82381: L2-HR :0.80615: (Sim:0h20m37s) 
CPU  0 inst:  275000001 cyc:  250100643 now IPC :0.27975: AVG IPC :1.09585: L2-Pf-HR :0.82373: L2-HR :0.80593: (Sim:0h20m43s) 
CPU  0 inst:  276000000 cyc:  253671628 now IPC :0.28003: AVG IPC :1.08432: L2-Pf-HR :0.82365: L2-HR :0.80571: (Sim:0h20m50s) 
CPU  0 inst:  277000000 cyc:  257247740 now IPC :0.27963: AVG IPC :1.07309: L2-Pf-HR :0.82356: L2-HR :0.80549: (Sim:0h21m0s) 
CPU  0 inst:  278000000 cyc:  260818220 now IPC :0.28007: AVG IPC :1.06219: L2-Pf-HR :0.82349: L2-HR :0.80528: (Sim:0h21m9s) 
CPU  0 inst:  279000000 cyc:  264390815 now IPC :0.27991: AVG IPC :1.05158: L2-Pf-HR :0.82341: L2-HR :0.80506: (Sim:0h21m18s) 
CPU  0 inst:  280000000 cyc:  267967867 now IPC :0.27956: AVG IPC :1.04124: L2-Pf-HR :0.82332: L2-HR :0.80484: (Sim:0h21m27s) 
CPU  0 inst:  281000002 cyc:  271536350 now IPC :0.28023: AVG IPC :1.03120: L2-Pf-HR :0.82325: L2-HR :0.80463: (Sim:0h21m36s) 
CPU  0 inst:  282000003 cyc:  275109232 now IPC :0.27989: AVG IPC :1.02141: L2-Pf-HR :0.82317: L2-HR :0.80442: (Sim:0h21m46s) 
CPU  0 inst:  283000000 cyc:  278682595 now IPC :0.27985: AVG IPC :1.01187: L2-Pf-HR :0.82308: L2-HR :0.80420: (Sim:0h21m55s) 
CPU  0 inst:  284000000 cyc:  282257806 now IPC :0.27970: AVG IPC :1.00256: L2-Pf-HR :0.82301: L2-HR :0.80399: (Sim:0h22m4s) 
CPU  0 inst:  285000003 cyc:  285833603 now IPC :0.27966: AVG IPC :0.99349: L2-Pf-HR :0.82292: L2-HR :0.80377: (Sim:0h22m11s) 
CPU  0 inst:  286000000 cyc:  289407112 now IPC :0.27984: AVG IPC :0.98465: L2-Pf-HR :0.82284: L2-HR :0.80356: (Sim:0h22m18s) 
CPU  0 inst:  287000000 cyc:  292970745 now IPC :0.28061: AVG IPC :0.97605: L2-Pf-HR :0.82278: L2-HR :0.80337: (Sim:0h22m24s) 
CPU  0 inst:  288000000 cyc:  296545085 now IPC :0.27977: AVG IPC :0.96763: L2-Pf-HR :0.82270: L2-HR :0.80316: (Sim:0h22m30s) 
CPU  0 inst:  289000003 cyc:  300121191 now IPC :0.27963: AVG IPC :0.95941: L2-Pf-HR :0.82262: L2-HR :0.80295: (Sim:0h22m36s) 
CPU  0 inst:  290000001 cyc:  303690062 now IPC :0.28020: AVG IPC :0.95140: L2-Pf-HR :0.82255: L2-HR :0.80275: (Sim:0h22m43s) 
CPU  0 inst:  291000000 cyc:  307256442 now IPC :0.28040: AVG IPC :0.94359: L2-Pf-HR :0.82249: L2-HR :0.80255: (Sim:0h22m52s) 
CPU  0 inst:  292000000 cyc:  310827172 now IPC :0.28005: AVG IPC :0.93594: L2-Pf-HR :0.82242: L2-HR :0.80236: (Sim:0h23m1s) 
CPU  0 inst:  293000002 cyc:  314400968 now IPC :0.27982: AVG IPC :0.92846: L2-Pf-HR :0.82234: L2-HR :0.80215: (Sim:0h23m10s) 
CPU  0 inst:  294000000 cyc:  317970928 now IPC :0.28011: AVG IPC :0.92116: L2-Pf-HR :0.82227: L2-HR :0.80195: (Sim:0h23m20s) 
CPU  0 inst:  295000000 cyc:  321541677 now IPC :0.28005: AVG IPC :0.91402: L2-Pf-HR :0.82219: L2-HR :0.80175: (Sim:0h23m29s) 
CPU  0 inst:  296000000 cyc:  325112709 now IPC :0.28003: AVG IPC :0.90703: L2-Pf-HR :0.82213: L2-HR :0.80156: (Sim:0h23m38s) 
CPU  0 inst:  297000003 cyc:  328677173 now IPC :0.28055: AVG IPC :0.90022: L2-Pf-HR :0.82208: L2-HR :0.80138: (Sim:0h23m47s) 
CPU  0 inst:  298000000 cyc:  332249383 now IPC :0.27994: AVG IPC :0.89353: L2-Pf-HR :0.82201: L2-HR :0.80118: (Sim:0h23m56s) 
CPU  0 inst:  299000000 cyc:  335822473 now IPC :0.27987: AVG IPC :0.88698: L2-Pf-HR :0.82193: L2-HR :0.80098: (Sim:0h24m5s) 
CPU  0 inst:  300000000 cyc:  339391548 now IPC :0.28018: AVG IPC :0.88058: L2-Pf-HR :0.82186: L2-HR :0.80079: (Sim:0h24m14s) 
CPU  0 inst:  301000000 cyc:  342950641 now IPC :0.28097: AVG IPC :0.87434: L2-Pf-HR :0.82183: L2-HR :0.80062: (Sim:0h24m23s) 
CPU  0 inst:  302000003 cyc:  346515520 now IPC :0.28052: AVG IPC :0.86821: L2-Pf-HR :0.82177: L2-HR :0.80044: (Sim:0h24m33s) 
CPU  0 inst:  303000000 cyc:  350078024 now IPC :0.28070: AVG IPC :0.86222: L2-Pf-HR :0.82172: L2-HR :0.80027: (Sim:0h24m42s) 
CPU  0 inst:  304000000 cyc:  353646571 now IPC :0.28023: AVG IPC :0.85633: L2-Pf-HR :0.82167: L2-HR :0.80009: (Sim:0h24m51s) 
CPU  0 inst:  305000001 cyc:  357204838 now IPC :0.28104: AVG IPC :0.85058: L2-Pf-HR :0.82164: L2-HR :0.79994: (Sim:0h25m0s) 
CPU  0 inst:  306000003 cyc:  360775268 now IPC :0.28008: AVG IPC :0.84492: L2-Pf-HR :0.82157: L2-HR :0.79975: (Sim:0h25m9s) 
CPU  0 inst:  307000000 cyc:  364351692 now IPC :0.27961: AVG IPC :0.83936: L2-Pf-HR :0.82149: L2-HR :0.79954: (Sim:0h25m19s) 
CPU  0 inst:  308000000 cyc:  367930357 now IPC :0.27943: AVG IPC :0.83390: L2-Pf-HR :0.82140: L2-HR :0.79934: (Sim:0h25m28s) 
CPU  0 inst:  309000000 cyc:  371509270 now IPC :0.27941: AVG IPC :0.82854: L2-Pf-HR :0.82132: L2-HR :0.79914: (Sim:0h25m37s) 
CPU  0 inst:  310000002 cyc:  375070242 now IPC :0.28082: AVG IPC :0.82333: L2-Pf-HR :0.82127: L2-HR :0.79896: (Sim:0h25m46s) 
CPU  0 inst:  311000000 cyc:  378640001 now IPC :0.28013: AVG IPC :0.81819: L2-Pf-HR :0.82120: L2-HR :0.79878: (Sim:0h25m54s) 
CPU  0 inst:  312000000 cyc:  382231379 now IPC :0.27844: AVG IPC :0.81311: L2-Pf-HR :0.82109: L2-HR :0.79855: (Sim:0h26m0s) 
CPU  0 inst:  313000000 cyc:  385804225 now IPC :0.27989: AVG IPC :0.80816: L2-Pf-HR :0.82102: L2-HR :0.79837: (Sim:0h26m9s) 
CPU  0 inst:  314000002 cyc:  389371657 now IPC :0.28031: AVG IPC :0.80331: L2-Pf-HR :0.82096: L2-HR :0.79819: (Sim:0h26m18s) 
CPU  0 inst:  315000000 cyc:  392948521 now IPC :0.27957: AVG IPC :0.79853: L2-Pf-HR :0.82089: L2-HR :0.79800: (Sim:0h26m28s) 
CPU  0 inst:  316000000 cyc:  396527609 now IPC :0.27940: AVG IPC :0.79383: L2-Pf-HR :0.82081: L2-HR :0.79780: (Sim:0h26m37s) 
CPU  0 inst:  317000000 cyc:  400099926 now IPC :0.27993: AVG IPC :0.78923: L2-Pf-HR :0.82074: L2-HR :0.79762: (Sim:0h26m46s) 
CPU  0 inst:  318000001 cyc:  403670371 now IPC :0.28008: AVG IPC :0.78472: L2-Pf-HR :0.82068: L2-HR :0.79744: (Sim:0h26m55s) 
CPU  0 inst:  319000003 cyc:  407239520 now IPC :0.28018: AVG IPC :0.78029: L2-Pf-HR :0.82061: L2-HR :0.79726: (Sim:0h27m4s) 
CPU  0 inst:  320000000 cyc:  410803181 now IPC :0.28061: AVG IPC :0.77594: L2-Pf-HR :0.82056: L2-HR :0.79709: (Sim:0h27m13s) 
CPU  0 inst:  321000000 cyc:  414370673 now IPC :0.28031: AVG IPC :0.77166: L2-Pf-HR :0.82051: L2-HR :0.79692: (Sim:0h27m22s) 
CPU  0 inst:  322000000 cyc:  417949902 now IPC :0.27939: AVG IPC :0.76744: L2-Pf-HR :0.82042: L2-HR :0.79672: (Sim:0h27m32s) 
CPU  0 inst:  323000003 cyc:  421539374 now IPC :0.27859: AVG IPC :0.76327: L2-Pf-HR :0.82031: L2-HR :0.79651: (Sim:0h27m41s) 
CPU  0 inst:  324000000 cyc:  425117130 now IPC :0.27950: AVG IPC :0.75919: L2-Pf-HR :0.82023: L2-HR :0.79631: (Sim:0h27m50s) 
CPU  0 inst:  325000000 cyc:  428691905 now IPC :0.27974: AVG IPC :0.75518: L2-Pf-HR :0.82016: L2-HR :0.79613: (Sim:0h27m57s) 
CPU  0 inst:  326000002 cyc:  432264697 now IPC :0.27989: AVG IPC :0.75124: L2-Pf-HR :0.82010: L2-HR :0.79595: (Sim:0h28m3s) 
CPU  0 inst:  327000001 cyc:  435841776 now IPC :0.27956: AVG IPC :0.74736: L2-Pf-HR :0.82003: L2-HR :0.79577: (Sim:0h28m9s) 
CPU  0 inst:  328000000 cyc:  439421995 now IPC :0.27931: AVG IPC :0.74354: L2-Pf-HR :0.81994: L2-HR :0.79558: (Sim:0h28m16s) 
CPU  0 inst:  329000000 cyc:  443003092 now IPC :0.27924: AVG IPC :0.73978: L2-Pf-HR :0.81985: L2-HR :0.79538: (Sim:0h28m22s) 
CPU  0 inst:  330000000 cyc:  446581389 now IPC :0.27946: AVG IPC :0.73608: L2-Pf-HR :0.81976: L2-HR :0.79519: (Sim:0h28m28s) 
CPU  0 inst:  331000002 cyc:  450159989 now IPC :0.27944: AVG IPC :0.73244: L2-Pf-HR :0.81968: L2-HR :0.79499: (Sim:0h28m34s) 
CPU  0 inst:  332000000 cyc:  453725059 now IPC :0.28050: AVG IPC :0.72888: L2-Pf-HR :0.81963: L2-HR :0.79483: (Sim:0h28m41s) 
CPU  0 inst:  333000002 cyc:  457300312 now IPC :0.27970: AVG IPC :0.72537: L2-Pf-HR :0.81956: L2-HR :0.79465: (Sim:0h28m51s) 
CPU  0 inst:  334000003 cyc:  460877097 now IPC :0.27958: AVG IPC :0.72190: L2-Pf-HR :0.81949: L2-HR :0.79447: (Sim:0h29m0s) 
CPU  0 inst:  335000002 cyc:  464453834 now IPC :0.27958: AVG IPC :0.71848: L2-Pf-HR :0.81942: L2-HR :0.79430: (Sim:0h29m9s) 
CPU  0 inst:  336000000 cyc:  468015559 now IPC :0.28076: AVG IPC :0.71515: L2-Pf-HR :0.81938: L2-HR :0.79415: (Sim:0h29m19s) 
CPU  0 inst:  337000000 cyc:  471589521 now IPC :0.27980: AVG IPC :0.71184: L2-Pf-HR :0.81931: L2-HR :0.79397: (Sim:0h29m25s) 
CPU  0 inst:  338000000 cyc:  475161978 now IPC :0.27992: AVG IPC :0.70859: L2-Pf-HR :0.81924: L2-HR :0.79380: (Sim:0h29m33s) 
CPU  0 inst:  339000000 cyc:  478733380 now IPC :0.28000: AVG IPC :0.70538: L2-Pf-HR :0.81918: L2-HR :0.79363: (Sim:0h29m43s) 
CPU  0 inst:  340000000 cyc:  482301547 now IPC :0.28026: AVG IPC :0.70223: L2-Pf-HR :0.81913: L2-HR :0.79347: (Sim:0h29m52s) 
CPU  0 inst:  341000001 cyc:  485876121 now IPC :0.27975: AVG IPC :0.69912: L2-Pf-HR :0.81906: L2-HR :0.79330: (Sim:0h30m0s) 
CPU  0 inst:  342000001 cyc:  489445929 now IPC :0.28013: AVG IPC :0.69605: L2-Pf-HR :0.81901: L2-HR :0.79314: (Sim:0h30m9s) 
CPU  0 inst:  343000000 cyc:  493013851 now IPC :0.28027: AVG IPC :0.69304: L2-Pf-HR :0.81896: L2-HR :0.79298: (Sim:0h30m18s) 
CPU  0 inst:  344000000 cyc:  496594186 now IPC :0.27930: AVG IPC :0.69005: L2-Pf-HR :0.81888: L2-HR :0.79280: (Sim:0h30m27s) 
CPU  0 inst:  345000000 cyc:  500164645 now IPC :0.28008: AVG IPC :0.68712: L2-Pf-HR :0.81882: L2-HR :0.79264: (Sim:0h30m36s) 
CPU  0 inst:  346000000 cyc:  503734500 now IPC :0.28012: AVG IPC :0.68423: L2-Pf-HR :0.81877: L2-HR :0.79248: (Sim:0h30m45s) 
CPU  0 inst:  347000000 cyc:  507302959 now IPC :0.28023: AVG IPC :0.68138: L2-Pf-HR :0.81871: L2-HR :0.79232: (Sim:0h30m54s) 
CPU  0 inst:  348000000 cyc:  510876961 now IPC :0.27980: AVG IPC :0.67857: L2-Pf-HR :0.81864: L2-HR :0.79215: (Sim:0h31m3s) 
CPU  0 inst:  349000003 cyc:  514450936 now IPC :0.27980: AVG IPC :0.67579: L2-Pf-HR :0.81858: L2-HR :0.79198: (Sim:0h31m11s) 
CPU  0 inst:  350000000 cyc:  518008455 now IPC :0.28109: AVG IPC :0.67308: L2-Pf-HR :0.81855: L2-HR :0.79185: (Sim:0h31m20s) 
CPU  0 inst:  351000000 cyc:  521580486 now IPC :0.27995: AVG IPC :0.67038: L2-Pf-HR :0.81848: L2-HR :0.79168: (Sim:0h31m29s) 
CPU  0 inst:  352000000 cyc:  525151617 now IPC :0.28002: AVG IPC :0.66772: L2-Pf-HR :0.81842: L2-HR :0.79152: (Sim:0h31m37s) 
CPU  0 inst:  353000000 cyc:  528718945 now IPC :0.28032: AVG IPC :0.66510: L2-Pf-HR :0.81837: L2-HR :0.79137: (Sim:0h31m44s) 
CPU  0 inst:  354000000 cyc:  532285567 now IPC :0.28038: AVG IPC :0.66252: L2-Pf-HR :0.81833: L2-HR :0.79122: (Sim:0h31m53s) 
CPU  0 inst:  355000000 cyc:  535859138 now IPC :0.27983: AVG IPC :0.65996: L2-Pf-HR :0.81826: L2-HR :0.79105: (Sim:0h32m2s) 
CPU  0 inst:  356000000 cyc:  539420109 now IPC :0.28082: AVG IPC :0.65745: L2-Pf-HR :0.81822: L2-HR :0.79091: (Sim:0h32m11s) 
CPU  0 inst:  357000001 cyc:  542989431 now IPC :0.28017: AVG IPC :0.65497: L2-Pf-HR :0.81817: L2-HR :0.79076: (Sim:0h32m20s) 
CPU  0 inst:  358000000 cyc:  546559325 now IPC :0.28012: AVG IPC :0.65252: L2-Pf-HR :0.81811: L2-HR :0.79060: (Sim:0h32m29s) 
CPU  0 inst:  359000000 cyc:  550133212 now IPC :0.27981: AVG IPC :0.65009: L2-Pf-HR :0.81805: L2-HR :0.79044: (Sim:0h32m38s) 
CPU  0 inst:  360000000 cyc:  553706672 now IPC :0.27984: AVG IPC :0.64770: L2-Pf-HR :0.81799: L2-HR :0.79028: (Sim:0h32m47s) 
CPU  0 inst:  361000003 cyc:  557288678 now IPC :0.27917: AVG IPC :0.64532: L2-Pf-HR :0.81791: L2-HR :0.79010: (Sim:0h32m57s) 
CPU  0 inst:  362000000 cyc:  560864877 now IPC :0.27963: AVG IPC :0.64299: L2-Pf-HR :0.81783: L2-HR :0.78994: (Sim:0h33m4s) 
CPU  0 inst:  363000000 cyc:  564439463 now IPC :0.27975: AVG IPC :0.64068: L2-Pf-HR :0.81777: L2-HR :0.78977: (Sim:0h33m10s) 
CPU  0 inst:  364000000 cyc:  568008302 now IPC :0.28020: AVG IPC :0.63841: L2-Pf-HR :0.81772: L2-HR :0.78962: (Sim:0h33m18s) 
CPU  0 inst:  365000003 cyc:  571568822 now IPC :0.28086: AVG IPC :0.63618: L2-Pf-HR :0.81769: L2-HR :0.78950: (Sim:0h33m28s) 
CPU  0 inst:  366000000 cyc:  575124435 now IPC :0.28124: AVG IPC :0.63399: L2-Pf-HR :0.81767: L2-HR :0.78937: (Sim:0h33m34s) 
CPU  0 inst:  367000000 cyc:  578699333 now IPC :0.27973: AVG IPC :0.63179: L2-Pf-HR :0.81760: L2-HR :0.78921: (Sim:0h33m40s) 
CPU  0 inst:  368000000 cyc:  582275651 now IPC :0.27962: AVG IPC :0.62963: L2-Pf-HR :0.81753: L2-HR :0.78905: (Sim:0h33m46s) 
CPU  0 inst:  369000002 cyc:  585849072 now IPC :0.27984: AVG IPC :0.62749: L2-Pf-HR :0.81747: L2-HR :0.78890: (Sim:0h33m55s) 
CPU  0 inst:  370000000 cyc:  589418809 now IPC :0.28013: AVG IPC :0.62538: L2-Pf-HR :0.81742: L2-HR :0.78875: (Sim:0h34m4s) 
CPU  0 inst:  371000002 cyc:  593000739 now IPC :0.27918: AVG IPC :0.62329: L2-Pf-HR :0.81734: L2-HR :0.78858: (Sim:0h34m13s) 
CPU  0 inst:  372000000 cyc:  596576418 now IPC :0.27967: AVG IPC :0.62122: L2-Pf-HR :0.81728: L2-HR :0.78842: (Sim:0h34m20s) 
CPU  0 inst:  373000002 cyc:  600148795 now IPC :0.27993: AVG IPC :0.61919: L2-Pf-HR :0.81722: L2-HR :0.78827: (Sim:0h34m26s) 
CPU  0 inst:  374000000 cyc:  603718670 now IPC :0.28012: AVG IPC :0.61718: L2-Pf-HR :0.81717: L2-HR :0.78812: (Sim:0h34m32s) 
CPU  0 inst:  375000000 cyc:  607288934 now IPC :0.28009: AVG IPC :0.61520: L2-Pf-HR :0.81711: L2-HR :0.78797: (Sim:0h34m38s) 
CPU  0 inst:  376000000 cyc:  610865950 now IPC :0.27956: AVG IPC :0.61323: L2-Pf-HR :0.81704: L2-HR :0.78781: (Sim:0h34m44s) 
CPU  0 inst:  377000000 cyc:  614427297 now IPC :0.28079: AVG IPC :0.61130: L2-Pf-HR :0.81700: L2-HR :0.78768: (Sim:0h34m51s) 
CPU  0 inst:  378000002 cyc:  617992385 now IPC :0.28050: AVG IPC :0.60939: L2-Pf-HR :0.81696: L2-HR :0.78754: (Sim:0h34m57s) 
CPU  0 inst:  379000003 cyc:  621557335 now IPC :0.28051: AVG IPC :0.60750: L2-Pf-HR :0.81693: L2-HR :0.78741: (Sim:0h35m3s) 
CPU  0 inst:  380000000 cyc:  625139038 now IPC :0.27920: AVG IPC :0.60561: L2-Pf-HR :0.81685: L2-HR :0.78725: (Sim:0h35m9s) 
CPU  0 inst:  381000000 cyc:  628716951 now IPC :0.27949: AVG IPC :0.60375: L2-Pf-HR :0.81679: L2-HR :0.78710: (Sim:0h35m16s) 
CPU  0 inst:  382000003 cyc:  632287738 now IPC :0.28005: AVG IPC :0.60192: L2-Pf-HR :0.81673: L2-HR :0.78695: (Sim:0h35m25s) 
CPU  0 inst:  383000000 cyc:  635865411 now IPC :0.27951: AVG IPC :0.60011: L2-Pf-HR :0.81667: L2-HR :0.78679: (Sim:0h35m34s) 
CPU  0 inst:  384000000 cyc:  639433035 now IPC :0.28030: AVG IPC :0.59832: L2-Pf-HR :0.81662: L2-HR :0.78666: (Sim:0h35m43s) 
CPU  0 inst:  385000000 cyc:  643003916 now IPC :0.28004: AVG IPC :0.59655: L2-Pf-HR :0.81657: L2-HR :0.78652: (Sim:0h35m50s) 
CPU  0 inst:  386000003 cyc:  646575464 now IPC :0.27999: AVG IPC :0.59480: L2-Pf-HR :0.81652: L2-HR :0.78638: (Sim:0h35m58s) 
CPU  0 inst:  387000001 cyc:  650160670 now IPC :0.27892: AVG IPC :0.59305: L2-Pf-HR :0.81645: L2-HR :0.78622: (Sim:0h36m7s) 
CPU  0 inst:  388000000 cyc:  653722743 now IPC :0.28074: AVG IPC :0.59135: L2-Pf-HR :0.81642: L2-HR :0.78609: (Sim:0h36m16s) 
CPU  0 inst:  389000000 cyc:  657297568 now IPC :0.27973: AVG IPC :0.58965: L2-Pf-HR :0.81636: L2-HR :0.78594: (Sim:0h36m25s) 
CPU  0 inst:  390000002 cyc:  660864850 now IPC :0.28033: AVG IPC :0.58798: L2-Pf-HR :0.81631: L2-HR :0.78581: (Sim:0h36m34s) 
CPU  0 inst:  391000000 cyc:  664424160 now IPC :0.28095: AVG IPC :0.58633: L2-Pf-HR :0.81628: L2-HR :0.78568: (Sim:0h36m43s) 
CPU  0 inst:  392000000 cyc:  667989105 now IPC :0.28051: AVG IPC :0.58470: L2-Pf-HR :0.81624: L2-HR :0.78556: (Sim:0h36m53s) 
CPU  0 inst:  393000001 cyc:  671545328 now IPC :0.28120: AVG IPC :0.58309: L2-Pf-HR :0.81622: L2-HR :0.78544: (Sim:0h37m2s) 
CPU  0 inst:  394000001 cyc:  675109800 now IPC :0.28055: AVG IPC :0.58149: L2-Pf-HR :0.81618: L2-HR :0.78532: (Sim:0h37m11s) 
CPU  0 inst:  395000001 cyc:  678735852 now IPC :0.27578: AVG IPC :0.57985: L2-Pf-HR :0.81607: L2-HR :0.78512: (Sim:0h37m20s) 
CPU  0 inst:  396000000 cyc:  679463647 now IPC :1.37401: AVG IPC :0.58071: L2-Pf-HR :0.81727: L2-HR :0.78650: (Sim:0h37m25s) 
CPU  0 inst:  397000002 cyc:  680165079 now IPC :1.42566: AVG IPC :0.58158: L2-Pf-HR :0.81846: L2-HR :0.78787: (Sim:0h37m31s) 
CPU  0 inst:  398000003 cyc:  680841076 now IPC :1.47930: AVG IPC :0.58247: L2-Pf-HR :0.81963: L2-HR :0.78921: (Sim:0h37m36s) 
CPU  0 inst:  399000002 cyc:  681533126 now IPC :1.44498: AVG IPC :0.58335: L2-Pf-HR :0.82077: L2-HR :0.79052: (Sim:0h37m41s) 
CPU  0 inst:  400000000 cyc:  682186565 now IPC :1.53036: AVG IPC :0.58426: L2-Pf-HR :0.82186: L2-HR :0.79180: (Sim:0h37m47s) 
CPU  0 inst:  401000000 cyc:  682813420 now IPC :1.59527: AVG IPC :0.58519: L2-Pf-HR :0.82296: L2-HR :0.79308: (Sim:0h37m52s) 
CPU  0 inst:  402000002 cyc:  683437673 now IPC :1.60192: AVG IPC :0.58612: L2-Pf-HR :0.82403: L2-HR :0.79434: (Sim:0h37m57s) 
CPU  0 inst:  403000001 cyc:  684061192 now IPC :1.60380: AVG IPC :0.58704: L2-Pf-HR :0.82509: L2-HR :0.79558: (Sim:0h38m3s) 
CPU  0 inst:  404000000 cyc:  684719657 now IPC :1.51868: AVG IPC :0.58794: L2-Pf-HR :0.82612: L2-HR :0.79679: (Sim:0h38m8s) 
CPU  0 inst:  405000002 cyc:  685346907 now IPC :1.59426: AVG IPC :0.58886: L2-Pf-HR :0.82720: L2-HR :0.79804: (Sim:0h38m13s) 
CPU  0 inst:  406000003 cyc:  685970547 now IPC :1.60349: AVG IPC :0.58979: L2-Pf-HR :0.82827: L2-HR :0.79927: (Sim:0h38m18s) 
CPU  0 inst:  407000001 cyc:  686590994 now IPC :1.61174: AVG IPC :0.59071: L2-Pf-HR :0.82932: L2-HR :0.80049: (Sim:0h38m24s) 
CPU  0 inst:  408000000 cyc:  687245692 now IPC :1.52742: AVG IPC :0.59161: L2-Pf-HR :0.83034: L2-HR :0.80167: (Sim:0h38m29s) 
CPU  0 inst:  409000000 cyc:  687884651 now IPC :1.56505: AVG IPC :0.59251: L2-Pf-HR :0.83141: L2-HR :0.80290: (Sim:0h38m34s) 
CPU  0 inst:  410000001 cyc:  688526087 now IPC :1.55900: AVG IPC :0.59341: L2-Pf-HR :0.83246: L2-HR :0.80409: (Sim:0h38m40s) 
CPU  0 inst:  411000000 cyc:  689164275 now IPC :1.56693: AVG IPC :0.59432: L2-Pf-HR :0.83350: L2-HR :0.80528: (Sim:0h38m45s) 
CPU  0 inst:  412000000 cyc:  689841345 now IPC :1.47695: AVG IPC :0.59518: L2-Pf-HR :0.83443: L2-HR :0.80637: (Sim:0h38m50s) 
CPU  0 inst:  413000002 cyc:  690514511 now IPC :1.48552: AVG IPC :0.59605: L2-Pf-HR :0.83537: L2-HR :0.80746: (Sim:0h38m56s) 
CPU  0 inst:  414000002 cyc:  691191607 now IPC :1.47690: AVG IPC :0.59692: L2-Pf-HR :0.83629: L2-HR :0.80853: (Sim:0h39m1s) 
CPU  0 inst:  415000000 cyc:  691869878 now IPC :1.47433: AVG IPC :0.59778: L2-Pf-HR :0.83719: L2-HR :0.80957: (Sim:0h39m6s) 
CPU  0 inst:  416000000 cyc:  692556271 now IPC :1.45689: AVG IPC :0.59863: L2-Pf-HR :0.83805: L2-HR :0.81059: (Sim:0h39m12s) 
CPU  0 inst:  417000003 cyc:  693180801 now IPC :1.60121: AVG IPC :0.59954: L2-Pf-HR :0.83892: L2-HR :0.81162: (Sim:0h39m17s) 
CPU  0 inst:  418000003 cyc:  693809525 now IPC :1.59052: AVG IPC :0.60043: L2-Pf-HR :0.83975: L2-HR :0.81261: (Sim:0h39m22s) 
CPU  0 inst:  419000002 cyc:  694436164 now IPC :1.59581: AVG IPC :0.60133: L2-Pf-HR :0.84056: L2-HR :0.81359: (Sim:0h39m28s) 
CPU  0 inst:  420000000 cyc:  695069422 now IPC :1.57913: AVG IPC :0.60223: L2-Pf-HR :0.84139: L2-HR :0.81457: (Sim:0h39m33s) 
CPU  0 inst:  421000000 cyc:  695708754 now IPC :1.56413: AVG IPC :0.60311: L2-Pf-HR :0.84221: L2-HR :0.81554: (Sim:0h39m38s) 
CPU  0 inst:  422000000 cyc:  696336804 now IPC :1.59223: AVG IPC :0.60401: L2-Pf-HR :0.84304: L2-HR :0.81652: (Sim:0h39m44s) 
CPU  0 inst:  423000000 cyc:  696960986 now IPC :1.60210: AVG IPC :0.60490: L2-Pf-HR :0.84386: L2-HR :0.81749: (Sim:0h39m49s) 
CPU  0 inst:  424000000 cyc:  697596308 now IPC :1.57401: AVG IPC :0.60578: L2-Pf-HR :0.84465: L2-HR :0.81843: (Sim:0h39m54s) 
CPU  0 inst:  425000000 cyc:  698241006 now IPC :1.55111: AVG IPC :0.60666: L2-Pf-HR :0.84550: L2-HR :0.81941: (Sim:0h39m59s) 
CPU  0 inst:  426000000 cyc:  698886370 now IPC :1.54951: AVG IPC :0.60753: L2-Pf-HR :0.84634: L2-HR :0.82038: (Sim:0h40m5s) 
CPU  0 inst:  427000001 cyc:  699523678 now IPC :1.56910: AVG IPC :0.60841: L2-Pf-HR :0.84717: L2-HR :0.82133: (Sim:0h40m10s) 
CPU  0 inst:  428000000 cyc:  700163055 now IPC :1.56402: AVG IPC :0.60928: L2-Pf-HR :0.84799: L2-HR :0.82228: (Sim:0h40m15s) 
CPU  0 inst:  429000003 cyc:  700853095 now IPC :1.44920: AVG IPC :0.61011: L2-Pf-HR :0.84871: L2-HR :0.82315: (Sim:0h40m21s) 
CPU  0 inst:  430000002 cyc:  701528876 now IPC :1.47977: AVG IPC :0.61095: L2-Pf-HR :0.84945: L2-HR :0.82401: (Sim:0h40m26s) 
CPU  0 inst:  431000003 cyc:  702204105 now IPC :1.48098: AVG IPC :0.61179: L2-Pf-HR :0.85018: L2-HR :0.82487: (Sim:0h40m31s) 
CPU  0 inst:  432000000 cyc:  702878444 now IPC :1.48293: AVG IPC :0.61262: L2-Pf-HR :0.85090: L2-HR :0.82572: (Sim:0h40m36s) 
CPU  0 inst:  433000001 cyc:  703547974 now IPC :1.49359: AVG IPC :0.61346: L2-Pf-HR :0.85157: L2-HR :0.82653: (Sim:0h40m42s) 
CPU  0 inst:  434000002 cyc:  704173921 now IPC :1.59758: AVG IPC :0.61434: L2-Pf-HR :0.85225: L2-HR :0.82734: (Sim:0h40m47s) 
CPU  0 inst:  435000000 cyc:  704799248 now IPC :1.59916: AVG IPC :0.61521: L2-Pf-HR :0.85292: L2-HR :0.82816: (Sim:0h40m53s) 
CPU  0 inst:  436000000 cyc:  705419075 now IPC :1.61335: AVG IPC :0.61609: L2-Pf-HR :0.85359: L2-HR :0.82896: (Sim:0h40m58s) 
CPU  0 inst:  437000002 cyc:  706064284 now IPC :1.54989: AVG IPC :0.61695: L2-Pf-HR :0.85423: L2-HR :0.82974: (Sim:0h41m4s) 
CPU  0 inst:  438000000 cyc:  706689691 now IPC :1.59896: AVG IPC :0.61782: L2-Pf-HR :0.85492: L2-HR :0.83056: (Sim:0h41m9s) 
CPU  0 inst:  439000003 cyc:  707315115 now IPC :1.59892: AVG IPC :0.61869: L2-Pf-HR :0.85560: L2-HR :0.83137: (Sim:0h41m14s) 
CPU  0 inst:  440000000 cyc:  707936298 now IPC :1.60983: AVG IPC :0.61956: L2-Pf-HR :0.85627: L2-HR :0.83216: (Sim:0h41m20s) 
CPU  0 inst:  441000003 cyc:  708583394 now IPC :1.54537: AVG IPC :0.62040: L2-Pf-HR :0.85691: L2-HR :0.83292: (Sim:0h41m24s) 
CPU  0 inst:  442000003 cyc:  709219749 now IPC :1.57145: AVG IPC :0.62126: L2-Pf-HR :0.85760: L2-HR :0.83373: (Sim:0h41m27s) 
CPU  0 inst:  443000003 cyc:  709859278 now IPC :1.56365: AVG IPC :0.62211: L2-Pf-HR :0.85829: L2-HR :0.83453: (Sim:0h41m33s) 
CPU  0 inst:  444000000 cyc:  710494881 now IPC :1.57330: AVG IPC :0.62296: L2-Pf-HR :0.85897: L2-HR :0.83532: (Sim:0h41m38s) 
CPU  0 inst:  445000001 cyc:  711142977 now IPC :1.54298: AVG IPC :0.62380: L2-Pf-HR :0.85962: L2-HR :0.83609: (Sim:0h41m43s) 
CPU  0 inst:  446000002 cyc:  711828708 now IPC :1.45830: AVG IPC :0.62460: L2-Pf-HR :0.86021: L2-HR :0.83679: (Sim:0h41m49s) 
CPU  0 inst:  447000003 cyc:  712503288 now IPC :1.48241: AVG IPC :0.62542: L2-Pf-HR :0.86081: L2-HR :0.83750: (Sim:0h41m54s) 
CPU  0 inst:  448000000 cyc:  713175911 now IPC :1.48671: AVG IPC :0.62623: L2-Pf-HR :0.86140: L2-HR :0.83821: (Sim:0h42m0s) 
CPU  0 inst:  449000001 cyc:  713855441 now IPC :1.47161: AVG IPC :0.62704: L2-Pf-HR :0.86197: L2-HR :0.83889: (Sim:0h42m6s) 
CPU  0 inst:  450000000 cyc:  714512971 now IPC :1.52084: AVG IPC :0.62786: L2-Pf-HR :0.86252: L2-HR :0.83956: (Sim:0h42m11s) 
CPU  0 inst:  451000002 cyc:  715135683 now IPC :1.60588: AVG IPC :0.62871: L2-Pf-HR :0.86307: L2-HR :0.84023: (Sim:0h42m16s) 
CPU  0 inst:  452000000 cyc:  715763598 now IPC :1.59257: AVG IPC :0.62956: L2-Pf-HR :0.86361: L2-HR :0.84089: (Sim:0h42m22s) 
CPU  0 inst:  453000003 cyc:  716388651 now IPC :1.59987: AVG IPC :0.63041: L2-Pf-HR :0.86414: L2-HR :0.84154: (Sim:0h42m27s) 
CPU  0 inst:  454000002 cyc:  717026715 now IPC :1.56724: AVG IPC :0.63124: L2-Pf-HR :0.86470: L2-HR :0.84221: (Sim:0h42m32s) 
CPU  0 inst:  455000000 cyc:  717653224 now IPC :1.59614: AVG IPC :0.63209: L2-Pf-HR :0.86525: L2-HR :0.84288: (Sim:0h42m38s) 
CPU  0 inst:  456000000 cyc:  718281702 now IPC :1.59115: AVG IPC :0.63293: L2-Pf-HR :0.86580: L2-HR :0.84354: (Sim:0h42m43s) 
CPU  0 inst:  457000003 cyc:  718903110 now IPC :1.60925: AVG IPC :0.63377: L2-Pf-HR :0.86634: L2-HR :0.84419: (Sim:0h42m47s) 
CPU  0 inst:  458000002 cyc:  719543333 now IPC :1.56195: AVG IPC :0.63460: L2-Pf-HR :0.86689: L2-HR :0.84485: (Sim:0h42m50s) 
CPU  0 inst:  459000003 cyc:  720183394 now IPC :1.56235: AVG IPC :0.63542: L2-Pf-HR :0.86747: L2-HR :0.84552: (Sim:0h42m54s) 
CPU  0 inst:  460000000 cyc:  720830046 now IPC :1.54642: AVG IPC :0.63624: L2-Pf-HR :0.86802: L2-HR :0.84618: (Sim:0h43m0s) 
CPU  0 inst:  461000002 cyc:  721466087 now IPC :1.57223: AVG IPC :0.63707: L2-Pf-HR :0.86859: L2-HR :0.84684: (Sim:0h43m5s) 
CPU  0 inst:  462000003 cyc:  722130529 now IPC :1.50502: AVG IPC :0.63787: L2-Pf-HR :0.86911: L2-HR :0.84746: (Sim:0h43m11s) 
CPU  0 inst:  463000002 cyc:  722808132 now IPC :1.47579: AVG IPC :0.63865: L2-Pf-HR :0.86960: L2-HR :0.84805: (Sim:0h43m16s) 
CPU  0 inst:  464000000 cyc:  723483630 now IPC :1.48039: AVG IPC :0.63944: L2-Pf-HR :0.87009: L2-HR :0.84864: (Sim:0h43m22s) 
CPU  0 inst:  465000003 cyc:  724157316 now IPC :1.48438: AVG IPC :0.64023: L2-Pf-HR :0.87058: L2-HR :0.84923: (Sim:0h43m27s) 
CPU  0 inst:  466000001 cyc:  724849484 now IPC :1.44473: AVG IPC :0.64100: L2-Pf-HR :0.87104: L2-HR :0.84978: (Sim:0h43m33s) 
CPU  0 inst:  467000000 cyc:  725475276 now IPC :1.59797: AVG IPC :0.64182: L2-Pf-HR :0.87151: L2-HR :0.85036: (Sim:0h43m38s) 
CPU  0 inst:  468000000 cyc:  726102650 now IPC :1.59395: AVG IPC :0.64265: L2-Pf-HR :0.87197: L2-HR :0.85092: (Sim:0h43m44s) 
CPU  0 inst:  469000000 cyc:  726726408 now IPC :1.60319: AVG IPC :0.64347: L2-Pf-HR :0.87242: L2-HR :0.85148: (Sim:0h43m49s) 
CPU  0 inst:  470000002 cyc:  727357774 now IPC :1.58387: AVG IPC :0.64429: L2-Pf-HR :0.87286: L2-HR :0.85202: (Sim:0h43m55s) 
CPU  0 inst:  471000000 cyc:  727993345 now IPC :1.57339: AVG IPC :0.64510: L2-Pf-HR :0.87332: L2-HR :0.85258: (Sim:0h44m0s) 
CPU  0 inst:  472000000 cyc:  728621777 now IPC :1.59126: AVG IPC :0.64592: L2-Pf-HR :0.87379: L2-HR :0.85315: (Sim:0h44m6s) 
CPU  0 inst:  473000003 cyc:  729240473 now IPC :1.61631: AVG IPC :0.64675: L2-Pf-HR :0.87426: L2-HR :0.85372: (Sim:0h44m11s) 
CPU  0 inst:  474000001 cyc:  729862605 now IPC :1.60737: AVG IPC :0.64757: L2-Pf-HR :0.87472: L2-HR :0.85428: (Sim:0h44m16s) 
CPU  0 inst:  475000001 cyc:  730519622 now IPC :1.52203: AVG IPC :0.64835: L2-Pf-HR :0.87518: L2-HR :0.85482: (Sim:0h44m22s) 
CPU  0 inst:  476000000 cyc:  731159263 now IPC :1.56338: AVG IPC :0.64915: L2-Pf-HR :0.87566: L2-HR :0.85539: (Sim:0h44m27s) 
CPU  0 inst:  477000000 cyc:  731799610 now IPC :1.56165: AVG IPC :0.64995: L2-Pf-HR :0.87614: L2-HR :0.85596: (Sim:0h44m33s) 
CPU  0 inst:  478000000 cyc:  732435737 now IPC :1.57201: AVG IPC :0.65076: L2-Pf-HR :0.87662: L2-HR :0.85651: (Sim:0h44m38s) 
CPU  0 inst:  479000001 cyc:  733118493 now IPC :1.46465: AVG IPC :0.65151: L2-Pf-HR :0.87703: L2-HR :0.85702: (Sim:0h44m43s) 
CPU  0 inst:  480000000 cyc:  733793033 now IPC :1.48249: AVG IPC :0.65228: L2-Pf-HR :0.87745: L2-HR :0.85752: (Sim:0h44m49s) 
CPU  0 inst:  481000002 cyc:  734466778 now IPC :1.48424: AVG IPC :0.65304: L2-Pf-HR :0.87786: L2-HR :0.85802: (Sim:0h44m54s) 
CPU  0 inst:  482000000 cyc:  735141751 now IPC :1.48154: AVG IPC :0.65381: L2-Pf-HR :0.87827: L2-HR :0.85852: (Sim:0h44m59s) 
CPU  0 inst:  483000000 cyc:  735819828 now IPC :1.47476: AVG IPC :0.65456: L2-Pf-HR :0.87866: L2-HR :0.85899: (Sim:0h45m5s) 
CPU  0 inst:  484000000 cyc:  736443578 now IPC :1.60321: AVG IPC :0.65537: L2-Pf-HR :0.87905: L2-HR :0.85948: (Sim:0h45m10s) 
CPU  0 inst:  485000002 cyc:  737071006 now IPC :1.59381: AVG IPC :0.65617: L2-Pf-HR :0.87944: L2-HR :0.85996: (Sim:0h45m15s) 
CPU  0 inst:  486000002 cyc:  737693788 now IPC :1.60570: AVG IPC :0.65697: L2-Pf-HR :0.87982: L2-HR :0.86043: (Sim:0h45m21s) 
CPU  0 inst:  487000000 cyc:  738335639 now IPC :1.55799: AVG IPC :0.65775: L2-Pf-HR :0.88018: L2-HR :0.86089: (Sim:0h45m26s) 
CPU  0 inst:  488000000 cyc:  738961589 now IPC :1.59757: AVG IPC :0.65855: L2-Pf-HR :0.88059: L2-HR :0.86138: (Sim:0h45m31s) 
CPU  0 inst:  489000001 cyc:  739588231 now IPC :1.59581: AVG IPC :0.65935: L2-Pf-HR :0.88098: L2-HR :0.86187: (Sim:0h45m36s) 
CPU  0 inst:  490000001 cyc:  740212368 now IPC :1.60221: AVG IPC :0.66014: L2-Pf-HR :0.88137: L2-HR :0.86234: (Sim:0h45m42s) 
CPU  0 inst:  491000002 cyc:  740839369 now IPC :1.59490: AVG IPC :0.66093: L2-Pf-HR :0.88177: L2-HR :0.86282: (Sim:0h45m47s) 
CPU  0 inst:  492000000 cyc:  741491176 now IPC :1.53419: AVG IPC :0.66170: L2-Pf-HR :0.88217: L2-HR :0.86330: (Sim:0h45m52s) 
CPU  0 inst:  493000000 cyc:  742136105 now IPC :1.55056: AVG IPC :0.66248: L2-Pf-HR :0.88258: L2-HR :0.86378: (Sim:0h45m57s) 
CPU  0 inst:  494000002 cyc:  742777524 now IPC :1.55905: AVG IPC :0.66325: L2-Pf-HR :0.88298: L2-HR :0.86426: (Sim:0h46m3s) 
CPU  0 inst:  495000001 cyc:  743421875 now IPC :1.55195: AVG IPC :0.66402: L2-Pf-HR :0.88338: L2-HR :0.86474: (Sim:0h46m8s) 
CPU  0 inst:  496000000 cyc:  744100508 now IPC :1.47355: AVG IPC :0.66476: L2-Pf-HR :0.88374: L2-HR :0.86517: (Sim:0h46m13s) 
CPU  0 inst:  497000001 cyc:  744779191 now IPC :1.47344: AVG IPC :0.66550: L2-Pf-HR :0.88408: L2-HR :0.86560: (Sim:0h46m17s) 
CPU  0 inst:  498000000 cyc:  745452414 now IPC :1.48539: AVG IPC :0.66624: L2-Pf-HR :0.88444: L2-HR :0.86603: (Sim:0h46m22s) 
CPU  0 inst:  499000000 cyc:  746125784 now IPC :1.48507: AVG IPC :0.66698: L2-Pf-HR :0.88480: L2-HR :0.86646: (Sim:0h46m27s) 
CPU  0 inst:  500000000 cyc:  746795574 now IPC :1.49301: AVG IPC :0.66772: L2-Pf-HR :0.88512: L2-HR :0.86686: (Sim:0h46m33s) 
CPU  0 inst:  501000000 cyc:  747427002 now IPC :1.58371: AVG IPC :0.66850: L2-Pf-HR :0.88545: L2-HR :0.86727: (Sim:0h46m38s) 
CPU  0 inst:  502000000 cyc:  748051980 now IPC :1.60006: AVG IPC :0.66928: L2-Pf-HR :0.88578: L2-HR :0.86768: (Sim:0h46m43s) 
CPU  0 inst:  503000000 cyc:  748674107 now IPC :1.60739: AVG IPC :0.67006: L2-Pf-HR :0.88611: L2-HR :0.86810: (Sim:0h46m48s) 
CPU  0 inst:  504000000 cyc:  749324150 now IPC :1.53836: AVG IPC :0.67081: L2-Pf-HR :0.88642: L2-HR :0.86849: (Sim:0h46m54s) 
CPU  0 inst:  505000000 cyc:  749950019 now IPC :1.59778: AVG IPC :0.67159: L2-Pf-HR :0.88677: L2-HR :0.86892: (Sim:0h46m59s) 
CPU  0 inst:  506000000 cyc:  750571945 now IPC :1.60791: AVG IPC :0.67236: L2-Pf-HR :0.88712: L2-HR :0.86934: (Sim:0h47m4s) 
CPU  0 inst:  507000003 cyc:  751192258 now IPC :1.61209: AVG IPC :0.67314: L2-Pf-HR :0.88746: L2-HR :0.86976: (Sim:0h47m9s) 
CPU  0 inst:  508000000 cyc:  751843564 now IPC :1.53537: AVG IPC :0.67389: L2-Pf-HR :0.88778: L2-HR :0.87016: (Sim:0h47m15s) 
CPU  0 inst:  509000001 cyc:  752478383 now IPC :1.57525: AVG IPC :0.67465: L2-Pf-HR :0.88814: L2-HR :0.87058: (Sim:0h47m20s) 
CPU  0 inst:  510000002 cyc:  753117185 now IPC :1.56543: AVG IPC :0.67541: L2-Pf-HR :0.88850: L2-HR :0.87101: (Sim:0h47m25s) 
CPU  0 inst:  511000000 cyc:  753756959 now IPC :1.56305: AVG IPC :0.67616: L2-Pf-HR :0.88886: L2-HR :0.87143: (Sim:0h47m31s) 
CPU  0 inst:  512000000 cyc:  754425427 now IPC :1.49596: AVG IPC :0.67689: L2-Pf-HR :0.88918: L2-HR :0.87182: (Sim:0h47m36s) 
CPU  0 inst:  513000002 cyc:  755101982 now IPC :1.47808: AVG IPC :0.67761: L2-Pf-HR :0.88949: L2-HR :0.87220: (Sim:0h47m41s) 
CPU  0 inst:  514000001 cyc:  755777741 now IPC :1.47982: AVG IPC :0.67833: L2-Pf-HR :0.88980: L2-HR :0.87258: (Sim:0h47m46s) 
CPU  0 inst:  515000002 cyc:  756452424 now IPC :1.48218: AVG IPC :0.67904: L2-Pf-HR :0.89010: L2-HR :0.87295: (Sim:0h47m52s) 
CPU  0 inst:  516000000 cyc:  757140614 now IPC :1.45308: AVG IPC :0.67975: L2-Pf-HR :0.89040: L2-HR :0.87331: (Sim:0h47m57s) 
CPU  0 inst:  517000002 cyc:  757788025 now IPC :1.54462: AVG IPC :0.68049: L2-Pf-HR :0.89068: L2-HR :0.87366: (Sim:0h48m3s) 
CPU  0 inst:  518000002 cyc:  758411081 now IPC :1.60499: AVG IPC :0.68125: L2-Pf-HR :0.89097: L2-HR :0.87402: (Sim:0h48m8s) 
CPU  0 inst:  519000000 cyc:  759037527 now IPC :1.59630: AVG IPC :0.68200: L2-Pf-HR :0.89125: L2-HR :0.87439: (Sim:0h48m13s) 
CPU  0 inst:  520000000 cyc:  759662756 now IPC :1.59941: AVG IPC :0.68276: L2-Pf-HR :0.89153: L2-HR :0.87473: (Sim:0h48m19s) 
CPU  0 inst:  521000001 cyc:  760310821 now IPC :1.54306: AVG IPC :0.68350: L2-Pf-HR :0.89182: L2-HR :0.87509: (Sim:0h48m24s) 
CPU  0 inst:  522000003 cyc:  760936640 now IPC :1.59791: AVG IPC :0.68425: L2-Pf-HR :0.89212: L2-HR :0.87546: (Sim:0h48m29s) 
CPU  0 inst:  523000002 cyc:  761562968 now IPC :1.59661: AVG IPC :0.68500: L2-Pf-HR :0.89241: L2-HR :0.87582: (Sim:0h48m35s) 
CPU  0 inst:  524000000 cyc:  762185832 now IPC :1.60548: AVG IPC :0.68575: L2-Pf-HR :0.89270: L2-HR :0.87618: (Sim:0h48m39s) 
CPU  0 inst:  525000002 cyc:  762834609 now IPC :1.54136: AVG IPC :0.68648: L2-Pf-HR :0.89300: L2-HR :0.87655: (Sim:0h48m43s) 
CPU  0 inst:  526000003 cyc:  763475350 now IPC :1.56069: AVG IPC :0.68722: L2-Pf-HR :0.89331: L2-HR :0.87692: (Sim:0h48m48s) 
CPU  0 inst:  527000001 cyc:  764121484 now IPC :1.54766: AVG IPC :0.68794: L2-Pf-HR :0.89362: L2-HR :0.87728: (Sim:0h48m54s) 
CPU  0 inst:  528000000 cyc:  764761842 now IPC :1.56162: AVG IPC :0.68868: L2-Pf-HR :0.89392: L2-HR :0.87764: (Sim:0h48m59s) 
CPU  0 inst:  529000003 cyc:  765431676 now IPC :1.49291: AVG IPC :0.68938: L2-Pf-HR :0.89421: L2-HR :0.87799: (Sim:0h49m4s) 
CPU  0 inst:  530000002 cyc:  766108982 now IPC :1.47644: AVG IPC :0.69008: L2-Pf-HR :0.89447: L2-HR :0.87831: (Sim:0h49m10s) 
CPU  0 inst:  531000002 cyc:  766787864 now IPC :1.47301: AVG IPC :0.69077: L2-Pf-HR :0.89473: L2-HR :0.87864: (Sim:0h49m15s) 
CPU  0 inst:  532000000 cyc:  767461606 now IPC :1.48424: AVG IPC :0.69147: L2-Pf-HR :0.89500: L2-HR :0.87896: (Sim:0h49m20s) 
CPU  0 inst:  533000001 cyc:  768144146 now IPC :1.46512: AVG IPC :0.69216: L2-Pf-HR :0.89525: L2-HR :0.87927: (Sim:0h49m26s) 
CPU  0 inst:  534000002 cyc:  768773590 now IPC :1.58871: AVG IPC :0.69289: L2-Pf-HR :0.89550: L2-HR :0.87959: (Sim:0h49m31s) 
CPU  0 inst:  535000003 cyc:  769403977 now IPC :1.58633: AVG IPC :0.69363: L2-Pf-HR :0.89575: L2-HR :0.87991: (Sim:0h49m36s) 
CPU  0 inst:  536000000 cyc:  770024805 now IPC :1.61075: AVG IPC :0.69437: L2-Pf-HR :0.89600: L2-HR :0.88022: (Sim:0h49m41s) 
CPU  0 inst:  537000002 cyc:  770670519 now IPC :1.54868: AVG IPC :0.69508: L2-Pf-HR :0.89623: L2-HR :0.88052: (Sim:0h49m44s) 
CPU  0 inst:  538000000 cyc:  771294241 now IPC :1.60328: AVG IPC :0.69582: L2-Pf-HR :0.89649: L2-HR :0.88085: (Sim:0h49m48s) 
CPU  0 inst:  539000000 cyc:  771920544 now IPC :1.59667: AVG IPC :0.69655: L2-Pf-HR :0.89676: L2-HR :0.88117: (Sim:0h49m51s) 
CPU  0 inst:  540000000 cyc:  772539170 now IPC :1.61649: AVG IPC :0.69729: L2-Pf-HR :0.89702: L2-HR :0.88150: (Sim:0h49m55s) 
CPU  0 inst:  541000003 cyc:  773169333 now IPC :1.58690: AVG IPC :0.69801: L2-Pf-HR :0.89727: L2-HR :0.88181: (Sim:0h49m59s) 
CPU  0 inst:  542000001 cyc:  773814774 now IPC :1.54933: AVG IPC :0.69872: L2-Pf-HR :0.89754: L2-HR :0.88213: (Sim:0h50m3s) 
CPU  0 inst:  543000001 cyc:  774455378 now IPC :1.56103: AVG IPC :0.69944: L2-Pf-HR :0.89782: L2-HR :0.88247: (Sim:0h50m8s) 
CPU  0 inst:  544000000 cyc:  775093902 now IPC :1.56611: AVG IPC :0.70015: L2-Pf-HR :0.89810: L2-HR :0.88279: (Sim:0h50m14s) 
CPU  0 inst:  545000001 cyc:  775730174 now IPC :1.57166: AVG IPC :0.70087: L2-Pf-HR :0.89837: L2-HR :0.88312: (Sim:0h50m19s) 
CPU  0 inst:  546000001 cyc:  776415342 now IPC :1.45950: AVG IPC :0.70154: L2-Pf-HR :0.89860: L2-HR :0.88340: (Sim:0h50m25s) 
CPU  0 inst:  547000003 cyc:  777090079 now IPC :1.48206: AVG IPC :0.70222: L2-Pf-HR :0.89883: L2-HR :0.88369: (Sim:0h50m30s) 
CPU  0 inst:  548000000 cyc:  777763139 now IPC :1.48575: AVG IPC :0.70290: L2-Pf-HR :0.89907: L2-HR :0.88398: (Sim:0h50m36s) 
CPU  0 inst:  549000003 cyc:  778439187 now IPC :1.47919: AVG IPC :0.70357: L2-Pf-HR :0.89930: L2-HR :0.88427: (Sim:0h50m41s) 
CPU  0 inst:  550000000 cyc:  779113833 now IPC :1.48225: AVG IPC :0.70425: L2-Pf-HR :0.89951: L2-HR :0.88454: (Sim:0h50m45s) 
CPU  0 inst:  551000000 cyc:  779739033 now IPC :1.59949: AVG IPC :0.70497: L2-Pf-HR :0.89974: L2-HR :0.88482: (Sim:0h50m48s) 
CPU  0 inst:  552000000 cyc:  780368297 now IPC :1.58916: AVG IPC :0.70568: L2-Pf-HR :0.89996: L2-HR :0.88510: (Sim:0h50m52s) 
CPU  0 inst:  553000000 cyc:  780988817 now IPC :1.61155: AVG IPC :0.70640: L2-Pf-HR :0.90017: L2-HR :0.88538: (Sim:0h50m56s) 
CPU  0 inst:  554000003 cyc:  781633607 now IPC :1.55090: AVG IPC :0.70710: L2-Pf-HR :0.90038: L2-HR :0.88564: (Sim:0h51m0s) 
CPU  0 inst:  555000000 cyc:  782256151 now IPC :1.60631: AVG IPC :0.70781: L2-Pf-HR :0.90062: L2-HR :0.88594: (Sim:0h51m5s) 
CPU  0 inst:  556000000 cyc:  782880626 now IPC :1.60135: AVG IPC :0.70853: L2-Pf-HR :0.90085: L2-HR :0.88623: (Sim:0h51m9s) 
CPU  0 inst:  557000002 cyc:  783503873 now IPC :1.60450: AVG IPC :0.70924: L2-Pf-HR :0.90108: L2-HR :0.88651: (Sim:0h51m12s) 
CPU  0 inst:  558000001 cyc:  784148485 now IPC :1.55132: AVG IPC :0.70994: L2-Pf-HR :0.90130: L2-HR :0.88678: (Sim:0h51m17s) 
CPU  0 inst:  559000002 cyc:  784784962 now IPC :1.57115: AVG IPC :0.71063: L2-Pf-HR :0.90155: L2-HR :0.88708: (Sim:0h51m22s) 
CPU  0 inst:  560000000 cyc:  785427004 now IPC :1.55753: AVG IPC :0.71133: L2-Pf-HR :0.90179: L2-HR :0.88737: (Sim:0h51m27s) 
CPU  0 inst:  561000003 cyc:  786067912 now IPC :1.56029: AVG IPC :0.71202: L2-Pf-HR :0.90203: L2-HR :0.88766: (Sim:0h51m32s) 
CPU  0 inst:  562000002 cyc:  786707965 now IPC :1.56237: AVG IPC :0.71271: L2-Pf-HR :0.90228: L2-HR :0.88795: (Sim:0h51m38s) 
CPU  0 inst:  563000000 cyc:  787397260 now IPC :1.45075: AVG IPC :0.71336: L2-Pf-HR :0.90247: L2-HR :0.88820: (Sim:0h51m43s) 
CPU  0 inst:  564000000 cyc:  788081814 now IPC :1.46081: AVG IPC :0.71401: L2-Pf-HR :0.90268: L2-HR :0.88845: (Sim:0h51m49s) 
CPU  0 inst:  565000003 cyc:  788759741 now IPC :1.47509: AVG IPC :0.71467: L2-Pf-HR :0.90288: L2-HR :0.88871: (Sim:0h51m54s) 
CPU  0 inst:  566000002 cyc:  789442431 now IPC :1.46479: AVG IPC :0.71531: L2-Pf-HR :0.90308: L2-HR :0.88895: (Sim:0h51m59s) 
CPU  0 inst:  567000001 cyc:  790087277 now IPC :1.55076: AVG IPC :0.71600: L2-Pf-HR :0.90328: L2-HR :0.88920: (Sim:0h52m3s) 
CPU  0 inst:  568000000 cyc:  790719204 now IPC :1.58246: AVG IPC :0.71669: L2-Pf-HR :0.90347: L2-HR :0.88945: (Sim:0h52m7s) 
CPU  0 inst:  569000001 cyc:  791340205 now IPC :1.61030: AVG IPC :0.71739: L2-Pf-HR :0.90366: L2-HR :0.88970: (Sim:0h52m13s) 
CPU  0 inst:  570000001 cyc:  791960275 now IPC :1.61272: AVG IPC :0.71809: L2-Pf-HR :0.90386: L2-HR :0.88995: (Sim:0h52m18s) 
CPU  0 inst:  571000002 cyc:  792604335 now IPC :1.55265: AVG IPC :0.71877: L2-Pf-HR :0.90404: L2-HR :0.89019: (Sim:0h52m22s) 
CPU  0 inst:  572000000 cyc:  793230887 now IPC :1.59603: AVG IPC :0.71947: L2-Pf-HR :0.90426: L2-HR :0.89045: (Sim:0h52m26s) 
CPU  0 inst:  573000001 cyc:  793853935 now IPC :1.60501: AVG IPC :0.72016: L2-Pf-HR :0.90446: L2-HR :0.89071: (Sim:0h52m31s) 
CPU  0 inst:  574000003 cyc:  794473306 now IPC :1.61454: AVG IPC :0.72086: L2-Pf-HR :0.90467: L2-HR :0.89096: (Sim:0h52m37s) 
CPU  0 inst:  575000002 cyc:  795123904 now IPC :1.53705: AVG IPC :0.72153: L2-Pf-HR :0.90487: L2-HR :0.89121: (Sim:0h52m42s) 
CPU  0 inst:  576000000 cyc:  795761910 now IPC :1.56738: AVG IPC :0.72221: L2-Pf-HR :0.90509: L2-HR :0.89147: (Sim:0h52m47s) 
CPU  0 inst:  577000000 cyc:  796404004 now IPC :1.55740: AVG IPC :0.72288: L2-Pf-HR :0.90531: L2-HR :0.89174: (Sim:0h52m53s) 
CPU  0 inst:  578000003 cyc:  797036580 now IPC :1.58084: AVG IPC :0.72357: L2-Pf-HR :0.90553: L2-HR :0.89200: (Sim:0h52m58s) 
CPU  0 inst:  579000000 cyc:  797706334 now IPC :1.49308: AVG IPC :0.72421: L2-Pf-HR :0.90572: L2-HR :0.89223: (Sim:0h53m3s) 
CPU  0 inst:  580000000 cyc:  798381755 now IPC :1.48056: AVG IPC :0.72485: L2-Pf-HR :0.90591: L2-HR :0.89247: (Sim:0h53m8s) 
CPU  0 inst:  581000000 cyc:  799056704 now IPC :1.48159: AVG IPC :0.72549: L2-Pf-HR :0.90609: L2-HR :0.89270: (Sim:0h53m14s) 
CPU  0 inst:  582000003 cyc:  799731698 now IPC :1.48150: AVG IPC :0.72613: L2-Pf-HR :0.90628: L2-HR :0.89293: (Sim:0h53m19s) 
CPU  0 inst:  583000003 cyc:  800424979 now IPC :1.44242: AVG IPC :0.72675: L2-Pf-HR :0.90645: L2-HR :0.89314: (Sim:0h53m25s) 
CPU  0 inst:  584000000 cyc:  801053051 now IPC :1.59217: AVG IPC :0.72743: L2-Pf-HR :0.90662: L2-HR :0.89336: (Sim:0h53m30s) 
CPU  0 inst:  585000001 cyc:  801678797 now IPC :1.59809: AVG IPC :0.72811: L2-Pf-HR :0.90680: L2-HR :0.89359: (Sim:0h53m35s) 
CPU  0 inst:  586000001 cyc:  802303358 now IPC :1.60112: AVG IPC :0.72879: L2-Pf-HR :0.90697: L2-HR :0.89381: (Sim:0h53m41s) 
CPU  0 inst:  587000001 cyc:  802939922 now IPC :1.57093: AVG IPC :0.72946: L2-Pf-HR :0.90713: L2-HR :0.89402: (Sim:0h53m46s) 
CPU  0 inst:  588000000 cyc:  803577076 now IPC :1.56948: AVG IPC :0.73013: L2-Pf-HR :0.90731: L2-HR :0.89425: (Sim:0h53m51s) 
CPU  0 inst:  589000001 cyc:  804203373 now IPC :1.59669: AVG IPC :0.73080: L2-Pf-HR :0.90750: L2-HR :0.89449: (Sim:0h53m57s) 
CPU  0 inst:  590000002 cyc:  804828056 now IPC :1.60081: AVG IPC :0.73148: L2-Pf-HR :0.90769: L2-HR :0.89472: (Sim:0h54m2s) 
CPU  0 inst:  591000003 cyc:  805451705 now IPC :1.60347: AVG IPC :0.73216: L2-Pf-HR :0.90787: L2-HR :0.89494: (Sim:0h54m8s) 
CPU  0 inst:  592000000 cyc:  806105600 now IPC :1.52929: AVG IPC :0.73280: L2-Pf-HR :0.90805: L2-HR :0.89517: (Sim:0h54m13s) 
CPU  0 inst:  593000000 cyc:  806742683 now IPC :1.56965: AVG IPC :0.73347: L2-Pf-HR :0.90826: L2-HR :0.89541: (Sim:0h54m18s) 
CPU  0 inst:  594000000 cyc:  807386833 now IPC :1.55243: AVG IPC :0.73412: L2-Pf-HR :0.90845: L2-HR :0.89565: (Sim:0h54m24s) 
CPU  0 inst:  595000003 cyc:  808028190 now IPC :1.55920: AVG IPC :0.73478: L2-Pf-HR :0.90864: L2-HR :0.89588: (Sim:0h54m29s) 
CPU  0 inst:  596000000 cyc:  808703256 now IPC :1.48133: AVG IPC :0.73540: L2-Pf-HR :0.90881: L2-HR :0.89609: (Sim:0h54m35s) 
CPU  0 inst:  597000001 cyc:  809381900 now IPC :1.47353: AVG IPC :0.73602: L2-Pf-HR :0.90898: L2-HR :0.89630: (Sim:0h54m40s) 
CPU  0 inst:  598000000 cyc:  810062506 now IPC :1.46928: AVG IPC :0.73664: L2-Pf-HR :0.90914: L2-HR :0.89650: (Sim:0h54m46s) 
CPU  0 inst:  599000001 cyc:  810738059 now IPC :1.48027: AVG IPC :0.73726: L2-Pf-HR :0.90930: L2-HR :0.89670: (Sim:0h54m51s) 
CPU  0 inst:  600000000 cyc:  811407398 now IPC :1.49401: AVG IPC :0.73788: L2-Pf-HR :0.90946: L2-HR :0.89690: (Sim:0h54m57s) 
CPU  0 inst:  601000002 cyc:  812038340 now IPC :1.58493: AVG IPC :0.73854: L2-Pf-HR :0.90961: L2-HR :0.89710: (Sim:0h55m2s) 
CPU  0 inst:  602000000 cyc:  812665221 now IPC :1.59520: AVG IPC :0.73920: L2-Pf-HR :0.90977: L2-HR :0.89730: (Sim:0h55m8s) 
CPU  0 inst:  603000002 cyc:  813285126 now IPC :1.61315: AVG IPC :0.73987: L2-Pf-HR :0.90992: L2-HR :0.89750: (Sim:0h55m13s) 
CPU  0 inst:  604000000 cyc:  813926954 now IPC :1.55805: AVG IPC :0.74051: L2-Pf-HR :0.91007: L2-HR :0.89769: (Sim:0h55m19s) 
CPU  0 inst:  605000003 cyc:  814556208 now IPC :1.58919: AVG IPC :0.74117: L2-Pf-HR :0.91024: L2-HR :0.89790: (Sim:0h55m24s) 
CPU  0 inst:  606000000 cyc:  815181997 now IPC :1.59798: AVG IPC :0.74183: L2-Pf-HR :0.91041: L2-HR :0.89811: (Sim:0h55m30s) 
CPU  0 inst:  607000000 cyc:  815800289 now IPC :1.61736: AVG IPC :0.74249: L2-Pf-HR :0.91058: L2-HR :0.89833: (Sim:0h55m35s) 
CPU  0 inst:  608000000 cyc:  816445348 now IPC :1.55025: AVG IPC :0.74313: L2-Pf-HR :0.91074: L2-HR :0.89852: (Sim:0h55m40s) 
CPU  0 inst:  609000002 cyc:  817079117 now IPC :1.57787: AVG IPC :0.74378: L2-Pf-HR :0.91092: L2-HR :0.89874: (Sim:0h55m46s) 
CPU  0 inst:  610000000 cyc:  817724249 now IPC :1.55007: AVG IPC :0.74442: L2-Pf-HR :0.91110: L2-HR :0.89896: (Sim:0h55m51s) 
CPU  0 inst:  611000001 cyc:  818363984 now IPC :1.56315: AVG IPC :0.74506: L2-Pf-HR :0.91128: L2-HR :0.89917: (Sim:0h55m57s) 
CPU  0 inst:  612000000 cyc:  819009792 now IPC :1.54845: AVG IPC :0.74569: L2-Pf-HR :0.91145: L2-HR :0.89938: (Sim:0h56m2s) 
CPU  0 inst:  613000001 cyc:  819693509 now IPC :1.46259: AVG IPC :0.74629: L2-Pf-HR :0.91159: L2-HR :0.89956: (Sim:0h56m8s) 
CPU  0 inst:  614000002 cyc:  820368220 now IPC :1.48212: AVG IPC :0.74690: L2-Pf-HR :0.91175: L2-HR :0.89975: (Sim:0h56m13s) 
CPU  0 inst:  615000001 cyc:  821042955 now IPC :1.48206: AVG IPC :0.74750: L2-Pf-HR :0.91190: L2-HR :0.89994: (Sim:0h56m18s) 
CPU  0 inst:  616000000 cyc:  821717026 now IPC :1.48352: AVG IPC :0.74811: L2-Pf-HR :0.91205: L2-HR :0.90013: (Sim:0h56m24s) 
CPU  0 inst:  617000002 cyc:  822381814 now IPC :1.50424: AVG IPC :0.74872: L2-Pf-HR :0.91218: L2-HR :0.90030: (Sim:0h56m29s) 
CPU  0 inst:  618000001 cyc:  823008666 now IPC :1.59527: AVG IPC :0.74936: L2-Pf-HR :0.91232: L2-HR :0.90049: (Sim:0h56m35s) 
CPU  0 inst:  619000001 cyc:  823635561 now IPC :1.59516: AVG IPC :0.75001: L2-Pf-HR :0.91246: L2-HR :0.90067: (Sim:0h56m40s) 
CPU  0 inst:  620000000 cyc:  824255102 now IPC :1.61410: AVG IPC :0.75066: L2-Pf-HR :0.91260: L2-HR :0.90085: (Sim:0h56m45s) 
CPU  0 inst:  621000001 cyc:  824904846 now IPC :1.53907: AVG IPC :0.75128: L2-Pf-HR :0.91274: L2-HR :0.90102: (Sim:0h56m51s) 
CPU  0 inst:  622000000 cyc:  825528878 now IPC :1.60248: AVG IPC :0.75192: L2-Pf-HR :0.91289: L2-HR :0.90122: (Sim:0h56m56s) 
CPU  0 inst:  623000000 cyc:  826153068 now IPC :1.60208: AVG IPC :0.75257: L2-Pf-HR :0.91305: L2-HR :0.90141: (Sim:0h57m1s) 
CPU  0 inst:  624000000 cyc:  826773917 now IPC :1.61070: AVG IPC :0.75321: L2-Pf-HR :0.91320: L2-HR :0.90160: (Sim:0h57m6s) 
CPU  0 inst:  625000003 cyc:  827427566 now IPC :1.52988: AVG IPC :0.75383: L2-Pf-HR :0.91334: L2-HR :0.90178: (Sim:0h57m11s) 
CPU  0 inst:  626000003 cyc:  828064294 now IPC :1.57053: AVG IPC :0.75446: L2-Pf-HR :0.91351: L2-HR :0.90198: (Sim:0h57m17s) 
CPU  0 inst:  627000003 cyc:  828707950 now IPC :1.55362: AVG IPC :0.75508: L2-Pf-HR :0.91367: L2-HR :0.90218: (Sim:0h57m22s) 
CPU  0 inst:  628000000 cyc:  829345887 now IPC :1.56755: AVG IPC :0.75570: L2-Pf-HR :0.91384: L2-HR :0.90237: (Sim:0h57m28s) 
CPU  0 inst:  629000002 cyc:  830011555 now IPC :1.50225: AVG IPC :0.75630: L2-Pf-HR :0.91398: L2-HR :0.90255: (Sim:0h57m33s) 
CPU  0 inst:  630000001 cyc:  830684509 now IPC :1.48598: AVG IPC :0.75689: L2-Pf-HR :0.91412: L2-HR :0.90272: (Sim:0h57m38s) 
CPU  0 inst:  631000003 cyc:  831365532 now IPC :1.46838: AVG IPC :0.75748: L2-Pf-HR :0.91426: L2-HR :0.90289: (Sim:0h57m44s) 
CPU  0 inst:  632000000 cyc:  832043411 now IPC :1.47519: AVG IPC :0.75806: L2-Pf-HR :0.91439: L2-HR :0.90306: (Sim:0h57m49s) 
CPU  0 inst:  633000001 cyc:  832719824 now IPC :1.47839: AVG IPC :0.75865: L2-Pf-HR :0.91453: L2-HR :0.90323: (Sim:0h57m55s) 
CPU  0 inst:  634000002 cyc:  833360805 now IPC :1.56011: AVG IPC :0.75927: L2-Pf-HR :0.91464: L2-HR :0.90339: (Sim:0h58m0s) 
CPU  0 inst:  635000002 cyc:  833993398 now IPC :1.58080: AVG IPC :0.75989: L2-Pf-HR :0.91477: L2-HR :0.90355: (Sim:0h58m6s) 
CPU  0 inst:  636000000 cyc:  834615516 now IPC :1.60741: AVG IPC :0.76052: L2-Pf-HR :0.91489: L2-HR :0.90371: (Sim:0h58m11s) 
CPU  0 inst:  637000002 cyc:  835249076 now IPC :1.57839: AVG IPC :0.76114: L2-Pf-HR :0.91502: L2-HR :0.90387: (Sim:0h58m15s) 
CPU  0 inst:  638000002 cyc:  835878975 now IPC :1.58756: AVG IPC :0.76177: L2-Pf-HR :0.91515: L2-HR :0.90405: (Sim:0h58m19s) 
CPU  0 inst:  639000002 cyc:  836509464 now IPC :1.58607: AVG IPC :0.76239: L2-Pf-HR :0.91529: L2-HR :0.90422: (Sim:0h58m24s) 
CPU  0 inst:  640000000 cyc:  837129362 now IPC :1.61317: AVG IPC :0.76302: L2-Pf-HR :0.91543: L2-HR :0.90440: (Sim:0h58m29s) 
CPU  0 inst:  641000003 cyc:  837747794 now IPC :1.61700: AVG IPC :0.76365: L2-Pf-HR :0.91557: L2-HR :0.90457: (Sim:0h58m35s) 
CPU  0 inst:  642000003 cyc:  838403330 now IPC :1.52547: AVG IPC :0.76425: L2-Pf-HR :0.91570: L2-HR :0.90474: (Sim:0h58m40s) 
CPU  0 inst:  643000002 cyc:  839042600 now IPC :1.56428: AVG IPC :0.76486: L2-Pf-HR :0.91585: L2-HR :0.90492: (Sim:0h58m46s) 
CPU  0 inst:  644000000 cyc:  839683092 now IPC :1.56130: AVG IPC :0.76547: L2-Pf-HR :0.91600: L2-HR :0.90510: (Sim:0h58m51s) 
CPU  0 inst:  645000001 cyc:  840319527 now IPC :1.57125: AVG IPC :0.76608: L2-Pf-HR :0.91615: L2-HR :0.90528: (Sim:0h58m57s) 
CPU  0 inst:  646000001 cyc:  841000665 now IPC :1.46813: AVG IPC :0.76665: L2-Pf-HR :0.91628: L2-HR :0.90543: (Sim:0h59m2s) 
CPU  0 inst:  647000003 cyc:  841675807 now IPC :1.48117: AVG IPC :0.76722: L2-Pf-HR :0.91640: L2-HR :0.90559: (Sim:0h59m8s) 
CPU  0 inst:  648000000 cyc:  842350743 now IPC :1.48162: AVG IPC :0.76779: L2-Pf-HR :0.91653: L2-HR :0.90575: (Sim:0h59m13s) 
CPU  0 inst:  649000003 cyc:  843024677 now IPC :1.48383: AVG IPC :0.76837: L2-Pf-HR :0.91665: L2-HR :0.90590: (Sim:0h59m19s) 
CPU  0 inst:  650000001 cyc:  843714053 now IPC :1.45058: AVG IPC :0.76892: L2-Pf-HR :0.91676: L2-HR :0.90604: (Sim:0h59m24s) 
CPU  0 inst:  651000003 cyc:  844340928 now IPC :1.59522: AVG IPC :0.76954: L2-Pf-HR :0.91688: L2-HR :0.90620: (Sim:0h59m30s) 
CPU  0 inst:  652000000 cyc:  844967822 now IPC :1.59516: AVG IPC :0.77015: L2-Pf-HR :0.91700: L2-HR :0.90635: (Sim:0h59m35s) 
CPU  0 inst:  653000003 cyc:  845586839 now IPC :1.61547: AVG IPC :0.77077: L2-Pf-HR :0.91711: L2-HR :0.90650: (Sim:0h59m41s) 
CPU  0 inst:  654000003 cyc:  846234096 now IPC :1.54498: AVG IPC :0.77136: L2-Pf-HR :0.91722: L2-HR :0.90664: (Sim:0h59m46s) 
CPU  0 inst:  655000002 cyc:  846858750 now IPC :1.60088: AVG IPC :0.77198: L2-Pf-HR :0.91735: L2-HR :0.90680: (Sim:0h59m51s) 
CPU  0 inst:  656000000 cyc:  847483492 now IPC :1.60066: AVG IPC :0.77259: L2-Pf-HR :0.91748: L2-HR :0.90697: (Sim:0h59m57s) 
CPU  0 inst:  657000002 cyc:  848100419 now IPC :1.62094: AVG IPC :0.77321: L2-Pf-HR :0.91761: L2-HR :0.90713: (Sim:1h0m2s) 
CPU  0 inst:  658000000 cyc:  848737367 now IPC :1.56998: AVG IPC :0.77380: L2-Pf-HR :0.91773: L2-HR :0.90728: (Sim:1h0m7s) 
CPU  0 inst:  659000003 cyc:  849383028 now IPC :1.54880: AVG IPC :0.77439: L2-Pf-HR :0.91786: L2-HR :0.90744: (Sim:1h0m13s) 
Finished CPU 0 instr: 657000002 cyc: 848404600 AVG IPC: 0.77439 (Sim time: 1h0m13s)

ChampSim completed all CPUs

[ROI Statistics]
Core_0_instructions 657000002
Core_0_cycles 848404600
Core_0_IPC 0.77439

Core_0_branch_prediction_accuracy 99.58944
Core_0_branch_MPKI 0.11916
Core_0_average_ROB_occupancy_at_mispredict 241.24642

Core_0_L1D_total_access 446899097
Core_0_L1D_total_hit 407731726 L1D_total_Hit Ratio: 0.91236
Core_0_L1D_total_miss 39167371
Core_0_L1D_loads 179960269
Core_0_L1D_load_hit 162974685 L1D_load_Hit Ratio: 0.90561
Core_0_L1D_load_miss 16985584
Core_0_L1D_RFOs 17156578
Core_0_L1D_RFO_hit 16094572 L1D_RFO_Hit Ratio: 0.93810
Core_0_L1D_RFO_miss 1062006
Core_0_L1D_prefetches 249782250
Core_0_L1D_prefetch_hit 228662469 L1D_prefetch_Hit Ratio: 0.91545
Core_0_L1D_prefetch_miss 21119781
Core_0_L1D_writebacks 0
Core_0_L1D_writeback_hit 0 L1D_writeback_Hit Ratio: -nan
Core_0_L1D_writeback_miss 0
Core_0_L1D_prefetch_requested 543263187
Core_0_L1D_prefetch_issued 285559218
Core_0_L1D_prefetch_useful 8381695 L1D_Useful Ratio: 0.02935
Core_0_L1D_prefetch_useless 12766132
Core_0_L1D_prefetch_late 2257266
Core_0_L1D_average_miss_latency 24276089.79315

Core_0_L1I_total_access 167523305
Core_0_L1I_total_hit 167518269 L1I_total_Hit Ratio: 0.99997
Core_0_L1I_total_miss 5036
Core_0_L1I_loads 167523305
Core_0_L1I_load_hit 167518269 L1I_load_Hit Ratio: 0.99997
Core_0_L1I_load_miss 5036
Core_0_L1I_RFOs 0
Core_0_L1I_RFO_hit 0 L1I_RFO_Hit Ratio: -nan
Core_0_L1I_RFO_miss 0
Core_0_L1I_prefetches 0
Core_0_L1I_prefetch_hit 0 L1I_prefetch_Hit Ratio: -nan
Core_0_L1I_prefetch_miss 0
Core_0_L1I_writebacks 0
Core_0_L1I_writeback_hit 0 L1I_writeback_Hit Ratio: -nan
Core_0_L1I_writeback_miss 0
Core_0_L1I_prefetch_requested 0
Core_0_L1I_prefetch_issued 0
Core_0_L1I_prefetch_useful 0 L1I_Useful Ratio: -nan
Core_0_L1I_prefetch_useless 0
Core_0_L1I_prefetch_late 0
Core_0_L1I_average_miss_latency 349.62212

Core_0_L2C_total_access 102050554
Core_0_L2C_total_hit 92605072 L2C_total_Hit Ratio: 0.90744
Core_0_L2C_total_miss 9445482
Core_0_L2C_loads 14734004
Core_0_L2C_load_hit 13058127 L2C_load_Hit Ratio: 0.88626
Core_0_L2C_load_miss 1675877
Core_0_L2C_RFOs 1061993
Core_0_L2C_RFO_hit 62332 L2C_RFO_Hit Ratio: 0.05869
Core_0_L2C_RFO_miss 999661
Core_0_L2C_prefetches 82361436
Core_0_L2C_prefetch_hit 75596208 L2C_prefetch_Hit Ratio: 0.91786
Core_0_L2C_prefetch_miss 6765228
Core_0_L2C_writebacks 3893121
Core_0_L2C_writeback_hit 3888405 L2C_writeback_Hit Ratio: 0.99879
Core_0_L2C_writeback_miss 4716
Core_0_L2C_prefetch_requested 161331687
Core_0_L2C_prefetch_issued 80960764
Core_0_L2C_prefetch_useful 522598 L2C_Useful Ratio: 0.00645
Core_0_L2C_prefetch_useless 6261471
Core_0_L2C_prefetch_late 14609
Core_0_L2C_average_miss_latency 210.13225

Core_0_LLC_total_access 13464995
Core_0_LLC_total_hit 6855449 LLC_total_Hit Ratio: 0.50913
Core_0_LLC_total_miss 6609546
Core_0_LLC_loads 1661275
Core_0_LLC_load_hit 1132988 LLC_load_Hit Ratio: 0.68200
Core_0_LLC_load_miss 528287
Core_0_LLC_RFOs 999661
Core_0_LLC_RFO_hit 71 LLC_RFO_Hit Ratio: 0.00007
Core_0_LLC_RFO_miss 999590
Core_0_LLC_prefetches 6966683
Core_0_LLC_prefetch_hit 1886854 LLC_prefetch_Hit Ratio: 0.27084
Core_0_LLC_prefetch_miss 5079829
Core_0_LLC_writebacks 3837376
Core_0_LLC_writeback_hit 3835536 LLC_writeback_Hit Ratio: 0.99952
Core_0_LLC_writeback_miss 1840
Core_0_LLC_prefetch_requested 0
Core_0_LLC_prefetch_issued 0
Core_0_LLC_prefetch_useful 829093 LLC_Useful Ratio: inf
Core_0_LLC_prefetch_useless 4238044
Core_0_LLC_prefetch_late 728
Core_0_LLC_average_miss_latency 266.51191

Core_0_major_page_fault 0
Core_0_minor_page_fault 37887

CPU 0 L1D next line prefetcher final stats
CPU 0 L2C PC-based stride prefetcher final stats
Stride Degree: 14
MK1  MARKOV_LRU_SIZE: 256
MK1  MARKOV_PREDICTION_PERCENTTHRESHOLD: 12.00000
MK1  OUTLIERS_THRESHOLD_Max: 64
MK1  OUTLIERS_THRESHOLD_Min: 32
MK2  MARKOV_LRU_SIZE: 256
MK2  MARKOV_PREDICTION_PERCENTTHRESHOLD: 30.00000
MK2  OUTLIERS_THRESHOLD_Max: 32
MK2  OUTLIERS_THRESHOLD_Min: 16
MK3  MARKOV_LRU_SIZE: 32
MK3  MARKOV_PREDICTION_PERCENTTHRESHOLD: 0.00000
MK3  OUTLIERS_THRESHOLD_Max: 4
MK3  OUTLIERS_THRESHOLD_Min: 0
MK4  MARKOV_LRU_SIZE: 32
MK4  MARKOV_PREDICTION_PERCENTTHRESHOLD: 0.00000
MK4  OUTLIERS_THRESHOLD_Max: 4
MK4  OUTLIERS_THRESHOLD_Min: 0
IPStride Degree/Access Ratio: 2.95045
MK1 IPDEltaMarkov  Degree/Access Ratio: 0.53449
MK2 IPDEltaMarkov  Degree/Access Ratio: 0.38362
MK3 IPDEltaMarkov  Degree/Access Ratio: 0.00000
MK4 IPDEltaMarkov  Degree/Access Ratio: 1.17945
Channel_0_RQ_row_buffer_hit 3199902
Channel_0_RQ_row_buffer_miss 3407598
Channel_0_WQ_row_buffer_hit 808343
Channel_0_WQ_row_buffer_miss 2564878
Channel_0_WQ_full 0
Channel_0_dbus_congested 5885912

avg_congested_cycle 10

EzSearch AVG IPC :0.77439: L2-Pf-HR :0.91786 : L2-HR :0.90744 Uful:0.00645
     > Finished combination: TraceType=770-tot Sim:657000000 Prefetcher=L2029-TOPTOP-L2-MultiMarkovDelta_ip_stride_v3 L1=next_line
