TRACE: [32000000]_FE_[OPT-125M]_[h12]_[s256]_[d64] Warmup: 2000000 NumTraces: 32000000
L1:bingo_dpc3_PHT1k:L2:bingo_dpc3_PHT1k
*************************************************
   ChampSim Multicore Out-of-Order Simulator
   Last compiled: Oct 20 2024 06:49:05
*************************************************

trace_0 770-tot_memTraces_v3/memTraces[32000000]_FE_[OPT-125M]_[h12]_[s256]_[d64].champsim.xz
Bingo PHT WAYS: 16 and PHT_SIZE: 1024
Bingo2 PHT WAYS: 16 and PHT_SIZE: 1024
MAIN.cc ln 751 stats print skipped
CPU  0 inst:    1000000 cyc:     502556 now IPC :1.98983: AVG IPC :1.98983: L2-Pf-HR :0.79427: L2-HR :0.67113: (Sim:0h0m4s) 
CPU  0 inst:    2000000 cyc:     981674 now IPC :2.08717: AVG IPC :2.03734: L2-Pf-HR :0.79785: L2-HR :0.74360: (Sim:0h0m9s) 

Warmup complete CPU  0 instructions:    2000004 cycles:     981675 (Simulation time: 0 hr 0 min 9 sec) 

CPU  0 inst:    3000003 cyc:    1587536 now IPC :1.65055: AVG IPC :1.65054: L2-Pf-HR :0.79612: L2-HR :0.81730: (Sim:0h0m14s) 
CPU  0 inst:    4000000 cyc:    2184833 now IPC :1.67420: AVG IPC :1.66229: L2-Pf-HR :0.78711: L2-HR :0.81400: (Sim:0h0m18s) 
CPU  0 inst:    5000001 cyc:    2761575 now IPC :1.73388: AVG IPC :1.68549: L2-Pf-HR :0.79410: L2-HR :0.82098: (Sim:0h0m22s) 
CPU  0 inst:    6000000 cyc:    3389160 now IPC :1.59341: AVG IPC :1.66148: L2-Pf-HR :0.79493: L2-HR :0.81985: (Sim:0h0m27s) 
CPU  0 inst:    7000002 cyc:    4053007 now IPC :1.50637: AVG IPC :1.62796: L2-Pf-HR :0.79264: L2-HR :0.81822: (Sim:0h0m31s) 
CPU  0 inst:    8000000 cyc:    4715827 now IPC :1.50870: AVG IPC :1.60679: L2-Pf-HR :0.79443: L2-HR :0.81991: (Sim:0h0m36s) 
CPU  0 inst:    9000001 cyc:    5362882 now IPC :1.54547: AVG IPC :1.59773: L2-Pf-HR :0.79570: L2-HR :0.82114: (Sim:0h0m41s) 
CPU  0 inst:   10000001 cyc:    6026077 now IPC :1.50785: AVG IPC :1.58592: L2-Pf-HR :0.79429: L2-HR :0.81991: (Sim:0h0m45s) 
CPU  0 inst:   11000000 cyc:    6680772 now IPC :1.52743: AVG IPC :1.57920: L2-Pf-HR :0.79297: L2-HR :0.81873: (Sim:0h0m50s) 
CPU  0 inst:   12000000 cyc:    7338912 now IPC :1.51943: AVG IPC :1.57301: L2-Pf-HR :0.79147: L2-HR :0.81733: (Sim:0h0m54s) 
CPU  0 inst:   13000003 cyc:    9134062 now IPC :0.55706: AVG IPC :1.34930: L2-Pf-HR :0.73053: L2-HR :0.78067: (Sim:0h1m1s) 
CPU  0 inst:   14000000 cyc:   13176429 now IPC :0.24738: AVG IPC :0.98403: L2-Pf-HR :0.63635: L2-HR :0.73088: (Sim:0h1m11s) 
CPU  0 inst:   15000000 cyc:   16603804 now IPC :0.29177: AVG IPC :0.83215: L2-Pf-HR :0.60218: L2-HR :0.71172: (Sim:0h1m19s) 
CPU  0 inst:   16000000 cyc:   20032062 now IPC :0.29169: AVG IPC :0.73489: L2-Pf-HR :0.57146: L2-HR :0.69432: (Sim:0h1m27s) 
CPU  0 inst:   17000000 cyc:   23461212 now IPC :0.29162: AVG IPC :0.66727: L2-Pf-HR :0.54374: L2-HR :0.67845: (Sim:0h1m36s) 
CPU  0 inst:   18000000 cyc:   26893023 now IPC :0.29139: AVG IPC :0.61749: L2-Pf-HR :0.51857: L2-HR :0.66392: (Sim:0h1m44s) 
CPU  0 inst:   19000000 cyc:   30328831 now IPC :0.29105: AVG IPC :0.57927: L2-Pf-HR :0.49565: L2-HR :0.65056: (Sim:0h1m51s) 
CPU  0 inst:   20000000 cyc:   32429508 now IPC :0.47604: AVG IPC :0.57238: L2-Pf-HR :0.51442: L2-HR :0.65930: (Sim:0h1m55s) 
CPU  0 inst:   21000003 cyc:   33122431 now IPC :1.44317: AVG IPC :0.59115: L2-Pf-HR :0.55973: L2-HR :0.68631: (Sim:0h1m59s) 
CPU  0 inst:   22000002 cyc:   33781529 now IPC :1.51722: AVG IPC :0.60976: L2-Pf-HR :0.59554: L2-HR :0.70856: (Sim:0h2m2s) 
CPU  0 inst:   23000002 cyc:   34413155 now IPC :1.58322: AVG IPC :0.62815: L2-Pf-HR :0.62478: L2-HR :0.72725: (Sim:0h2m5s) 
CPU  0 inst:   24000000 cyc:   35035950 now IPC :1.60566: AVG IPC :0.64603: L2-Pf-HR :0.64927: L2-HR :0.74323: (Sim:0h2m8s) 
CPU  0 inst:   25000003 cyc:   35659741 now IPC :1.60311: AVG IPC :0.66324: L2-Pf-HR :0.66899: L2-HR :0.75632: (Sim:0h2m12s) 
CPU  0 inst:   26000001 cyc:   36280445 now IPC :1.61107: AVG IPC :0.67991: L2-Pf-HR :0.68569: L2-HR :0.76758: (Sim:0h2m15s) 
CPU  0 inst:   27000001 cyc:   36897705 now IPC :1.62006: AVG IPC :0.69607: L2-Pf-HR :0.70028: L2-HR :0.77750: (Sim:0h2m18s) 
CPU  0 inst:   28000000 cyc:   37503264 now IPC :1.65137: AVG IPC :0.71191: L2-Pf-HR :0.71347: L2-HR :0.78655: (Sim:0h2m21s) 
CPU  0 inst:   29000000 cyc:   38116724 now IPC :1.63010: AVG IPC :0.72708: L2-Pf-HR :0.72472: L2-HR :0.79434: (Sim:0h2m25s) 
Finished CPU 0 instr: 27000000 cyc: 37135050 AVG IPC: 0.72708 (Sim time: 0h2m25s)

ChampSim completed all CPUs

[ROI Statistics]
Core_0_instructions 27000000
Core_0_cycles 37135050
Core_0_IPC 0.72708

Core_0_branch_prediction_accuracy 98.37822
Core_0_branch_MPKI 0.53456
Core_0_average_ROB_occupancy_at_mispredict 195.32543

Core_0_L1D_total_access 8911676
Core_0_L1D_total_hit 7892601 L1D_total_Hit Ratio: 0.88565
Core_0_L1D_total_miss 1019075
Core_0_L1D_loads 7367747
Core_0_L1D_load_hit 6953242 L1D_load_Hit Ratio: 0.94374
Core_0_L1D_load_miss 414505
Core_0_L1D_RFOs 866071
Core_0_L1D_RFO_hit 862171 L1D_RFO_Hit Ratio: 0.99550
Core_0_L1D_RFO_miss 3900
Core_0_L1D_prefetches 677858
Core_0_L1D_prefetch_hit 77188 L1D_prefetch_Hit Ratio: 0.11387
Core_0_L1D_prefetch_miss 600670
Core_0_L1D_writebacks 0
Core_0_L1D_writeback_hit 0 L1D_writeback_Hit Ratio: -nan
Core_0_L1D_writeback_miss 0
Core_0_L1D_prefetch_requested 936751
Core_0_L1D_prefetch_issued 936751
Core_0_L1D_prefetch_useful 610469 L1D_Useful Ratio: 0.65169
Core_0_L1D_prefetch_useless 16864
Core_0_L1D_prefetch_late 105245
Core_0_L1D_average_miss_latency 2228846.23886

Core_0_L1I_total_access 6794478
Core_0_L1I_total_hit 6789754 L1I_total_Hit Ratio: 0.99930
Core_0_L1I_total_miss 4724
Core_0_L1I_loads 6794478
Core_0_L1I_load_hit 6789754 L1I_load_Hit Ratio: 0.99930
Core_0_L1I_load_miss 4724
Core_0_L1I_RFOs 0
Core_0_L1I_RFO_hit 0 L1I_RFO_Hit Ratio: -nan
Core_0_L1I_RFO_miss 0
Core_0_L1I_prefetches 0
Core_0_L1I_prefetch_hit 0 L1I_prefetch_Hit Ratio: -nan
Core_0_L1I_prefetch_miss 0
Core_0_L1I_writebacks 0
Core_0_L1I_writeback_hit 0 L1I_writeback_Hit Ratio: -nan
Core_0_L1I_writeback_miss 0
Core_0_L1I_prefetch_requested 0
Core_0_L1I_prefetch_issued 0
Core_0_L1I_prefetch_useful 0 L1I_Useful Ratio: -nan
Core_0_L1I_prefetch_useless 0
Core_0_L1I_prefetch_late 0
Core_0_L1I_average_miss_latency 242.91152

Core_0_L2C_total_access 1330565
Core_0_L2C_total_hit 1056916 L2C_total_Hit Ratio: 0.79434
Core_0_L2C_total_miss 273649
Core_0_L2C_loads 314979
Core_0_L2C_load_hit 274946 L2C_load_Hit Ratio: 0.87290
Core_0_L2C_load_miss 40033
Core_0_L2C_RFOs 3823
Core_0_L2C_RFO_hit 217 L2C_RFO_Hit Ratio: 0.05676
Core_0_L2C_RFO_miss 3606
Core_0_L2C_prefetches 835492
Core_0_L2C_prefetch_hit 605501 L2C_prefetch_Hit Ratio: 0.72472
Core_0_L2C_prefetch_miss 229991
Core_0_L2C_writebacks 176271
Core_0_L2C_writeback_hit 176252 L2C_writeback_Hit Ratio: 0.99989
Core_0_L2C_writeback_miss 19
Core_0_L2C_prefetch_requested 151585
Core_0_L2C_prefetch_issued 151585
Core_0_L2C_prefetch_useful 64908 L2C_Useful Ratio: 0.42820
Core_0_L2C_prefetch_useless 170021
Core_0_L2C_prefetch_late 3542
Core_0_L2C_average_miss_latency 329.95583

Core_0_LLC_total_access 428223
Core_0_LLC_total_hit 154857 LLC_total_Hit Ratio: 0.36163
Core_0_LLC_total_miss 273366
Core_0_LLC_loads 36524
Core_0_LLC_load_hit 667 LLC_load_Hit Ratio: 0.01826
Core_0_LLC_load_miss 35857
Core_0_LLC_RFOs 3606
Core_0_LLC_RFO_hit 114 LLC_RFO_Hit Ratio: 0.03161
Core_0_LLC_RFO_miss 3492
Core_0_LLC_prefetches 233498
Core_0_LLC_prefetch_hit 625 LLC_prefetch_Hit Ratio: 0.00268
Core_0_LLC_prefetch_miss 232873
Core_0_LLC_writebacks 154595
Core_0_LLC_writeback_hit 153451 LLC_writeback_Hit Ratio: 0.99260
Core_0_LLC_writeback_miss 1144
Core_0_LLC_prefetch_requested 0
Core_0_LLC_prefetch_issued 0
Core_0_LLC_prefetch_useful 308 LLC_Useful Ratio: inf
Core_0_LLC_prefetch_useless 210144
Core_0_LLC_prefetch_late 0
Core_0_LLC_average_miss_latency 301.02393

Core_0_major_page_fault 0
Core_0_minor_page_fault 3170

[Bingo] PHT Access: 114089
[Bingo] PHT Hit PC+Addr: 50331
[Bingo] PHT Hit PC+Offs: 52358
[Bingo] PHT Miss: 11400
[Bingo] Prefetch PC+Addr: 0
[Bingo] Prefetch PC+Offs: 0
[Bingo] Useful PC+Addr: 0
[Bingo] Useful PC+Offs: 0
[Bingo] Useless PC+Addr: 0
[Bingo] Useless PC+Offs: 0
[Bingo] L1 Prefetch per Region: 9.72354
[Bingo] L2 Prefetch per Region: 0.55374
[Bingo] L3 Prefetch per Region: 0.00000
[Bingo] No Prefetch per Region: 21.72272
[Bingo] Number of Voters Mean: 9.98413
[Bingo] Number of Voters SD: 7.02130
PHT read accesses: 1470018
PHT write accesses: 108257
AT read accesses: 6873260
AT write accesses: 6873259
FT read accesses: 1360534
FT write accesses: 114089
PS read accesses: 442317
PS write accesses: 102689
PHT tag read accesses: 4130288
PHT tag write accesses: 158588
AT tag read accesses: 138305053
AT tag write accesses: 6981516
FT tag read accesses: 31808623
FT tag write accesses: 851333
PS tag read accesses: 121781597
PS tag write accesses: 542695
[Bingo2] PHT Access: 18067
[Bingo2] PHT Hit PC+Addr: 1197
[Bingo2] PHT Hit PC+Offs: 14449
[Bingo2] PHT Miss: 2421
[Bingo2] Prefetch PC+Addr: 0
[Bingo2] Prefetch PC+Offs: 0
[Bingo2] Useful PC+Addr: 0
[Bingo2] Useful PC+Offs: 0
[Bingo2] Useless PC+Addr: 0
[Bingo2] Useless PC+Offs: 0
[Bingo2] L1 Prefetch per Region: 0.00000
[Bingo2] L2 Prefetch per Region: 12.49233
[Bingo2] L3 Prefetch per Region: 0.00000
[Bingo2] No Prefetch per Region: 19.50767
[Bingo2] Number of Voters Mean: 13.32715
[Bingo2] Number of Voters SD: 5.36333
PHT read accesses: 273662
PHT write accesses: 14651
AT read accesses: 293437
AT write accesses: 307545
FT read accesses: 52378
FT write accesses: 18067
PS read accesses: 44487
PS write accesses: 15646
PHT tag read accesses: 733150
PHT tag write accesses: 15848
AT tag read accesses: 10117214
AT tag write accesses: 308088
FT tag read accesses: 5635346
FT tag write accesses: 51776
PS tag read accesses: 5566532
PS tag write accesses: 58777
Channel_0_RQ_row_buffer_hit 156582
Channel_0_RQ_row_buffer_miss 115640
Channel_0_WQ_row_buffer_hit 54020
Channel_0_WQ_row_buffer_miss 99064
Channel_0_WQ_full 0
Channel_0_dbus_congested 336976

avg_congested_cycle 11

EzSearch AVG IPC :0.72708: L2-Pf-HR :0.72472 : L2-HR :0.79434 Uful:0.42820
     > Finished combination: TraceType=770-tot Sim:27000000 Prefetcher=L2bingo_dpc3_PHT1k L1=bingo_dpc3_PHT1k
