TRACE: [1622000000][GPT-Neo-2_7B]_[h32][s1024][d80] Warmup: 2000000 NumTraces: 1622000000
L1:ipcp:L2:ipcp
*************************************************
   ChampSim Multicore Out-of-Order Simulator
   Last compiled: Oct 20 2024 04:58:10
*************************************************

trace_0 770-tot_memTraces_v3/memTraces[1622000000][GPT-Neo-2_7B]_[h32][s1024][d80].champsim.xz
MAIN.cc ln 751 stats print skipped
CPU  0 inst:    1000003 cyc:     503021 now IPC :1.98799: AVG IPC :1.98799: L2-Pf-HR :0.85819: L2-HR :0.80151: (Sim:0h0m5s) 
CPU  0 inst:    2000000 cyc:     979084 now IPC :2.10056: AVG IPC :2.04273: L2-Pf-HR :0.90682: L2-HR :0.84294: (Sim:0h0m9s) 

Warmup complete CPU  0 instructions:    2000003 cycles:     979085 (Simulation time: 0 hr 0 min 9 sec) 

CPU  0 inst:    3000003 cyc:    1650795 now IPC :1.48874: AVG IPC :1.48874: L2-Pf-HR :0.95107: L2-HR :0.87601: (Sim:0h0m14s) 
CPU  0 inst:    4000000 cyc:    2324629 now IPC :1.48404: AVG IPC :1.48639: L2-Pf-HR :0.95377: L2-HR :0.87956: (Sim:0h0m17s) 
CPU  0 inst:    5000002 cyc:    3000425 now IPC :1.47974: AVG IPC :1.48416: L2-Pf-HR :0.95490: L2-HR :0.88064: (Sim:0h0m21s) 
CPU  0 inst:    6000002 cyc:    3679751 now IPC :1.47205: AVG IPC :1.48112: L2-Pf-HR :0.95295: L2-HR :0.87903: (Sim:0h0m25s) 
CPU  0 inst:    7000000 cyc:    4363535 now IPC :1.46245: AVG IPC :1.47734: L2-Pf-HR :0.95302: L2-HR :0.87886: (Sim:0h0m30s) 
CPU  0 inst:    8000000 cyc:    5184179 now IPC :1.21856: AVG IPC :1.42684: L2-Pf-HR :0.94860: L2-HR :0.87552: (Sim:0h0m34s) 
CPU  0 inst:    9000000 cyc:    5904699 now IPC :1.38789: AVG IPC :1.42114: L2-Pf-HR :0.95065: L2-HR :0.87710: (Sim:0h0m39s) 
CPU  0 inst:   10000002 cyc:    6620677 now IPC :1.39669: AVG IPC :1.41804: L2-Pf-HR :0.95196: L2-HR :0.87815: (Sim:0h0m44s) 
CPU  0 inst:   11000002 cyc:    7333837 now IPC :1.40221: AVG IPC :1.41626: L2-Pf-HR :0.95323: L2-HR :0.87938: (Sim:0h0m49s) 
CPU  0 inst:   12000000 cyc:    8053640 now IPC :1.38927: AVG IPC :1.41352: L2-Pf-HR :0.95461: L2-HR :0.88064: (Sim:0h0m52s) 
CPU  0 inst:   13000000 cyc:    8764528 now IPC :1.40669: AVG IPC :1.41289: L2-Pf-HR :0.95550: L2-HR :0.88145: (Sim:0h0m56s) 
CPU  0 inst:   14000001 cyc:    9479876 now IPC :1.39792: AVG IPC :1.41163: L2-Pf-HR :0.95628: L2-HR :0.88200: (Sim:0h1m1s) 
CPU  0 inst:   15000000 cyc:   10192308 now IPC :1.40364: AVG IPC :1.41102: L2-Pf-HR :0.95658: L2-HR :0.88206: (Sim:0h1m6s) 
CPU  0 inst:   16000000 cyc:   10970944 now IPC :1.28430: AVG IPC :1.40114: L2-Pf-HR :0.95527: L2-HR :0.88138: (Sim:0h1m10s) 
CPU  0 inst:   17000003 cyc:   11664628 now IPC :1.44158: AVG IPC :1.40377: L2-Pf-HR :0.95533: L2-HR :0.88167: (Sim:0h1m15s) 
CPU  0 inst:   18000000 cyc:   12365828 now IPC :1.42612: AVG IPC :1.40514: L2-Pf-HR :0.95577: L2-HR :0.88221: (Sim:0h1m18s) 
CPU  0 inst:   19000001 cyc:   13062026 now IPC :1.43637: AVG IPC :1.40694: L2-Pf-HR :0.95594: L2-HR :0.88250: (Sim:0h1m23s) 
CPU  0 inst:   20000000 cyc:   13760554 now IPC :1.43158: AVG IPC :1.40829: L2-Pf-HR :0.95611: L2-HR :0.88257: (Sim:0h1m28s) 
CPU  0 inst:   21000000 cyc:   14623160 now IPC :1.15928: AVG IPC :1.39255: L2-Pf-HR :0.95350: L2-HR :0.88044: (Sim:0h1m33s) 
CPU  0 inst:   22000001 cyc:   15332191 now IPC :1.41038: AVG IPC :1.39343: L2-Pf-HR :0.95343: L2-HR :0.88030: (Sim:0h1m37s) 
CPU  0 inst:   23000002 cyc:   16047443 now IPC :1.39811: AVG IPC :1.39365: L2-Pf-HR :0.95333: L2-HR :0.88017: (Sim:0h1m40s) 
CPU  0 inst:   24000000 cyc:   16756705 now IPC :1.40991: AVG IPC :1.39438: L2-Pf-HR :0.95354: L2-HR :0.88030: (Sim:0h1m43s) 
CPU  0 inst:   25000000 cyc:   17472742 now IPC :1.39658: AVG IPC :1.39448: L2-Pf-HR :0.95364: L2-HR :0.88036: (Sim:0h1m47s) 
CPU  0 inst:   26000003 cyc:   18179672 now IPC :1.41457: AVG IPC :1.39530: L2-Pf-HR :0.95351: L2-HR :0.88021: (Sim:0h1m50s) 
CPU  0 inst:   27000001 cyc:   18894662 now IPC :1.39862: AVG IPC :1.39543: L2-Pf-HR :0.95342: L2-HR :0.88003: (Sim:0h1m53s) 
CPU  0 inst:   28000000 cyc:   19735313 now IPC :1.18955: AVG IPC :1.38621: L2-Pf-HR :0.95250: L2-HR :0.87930: (Sim:0h1m57s) 
CPU  0 inst:   29000001 cyc:   20449368 now IPC :1.40045: AVG IPC :1.38673: L2-Pf-HR :0.95281: L2-HR :0.87951: (Sim:0h2m1s) 
CPU  0 inst:   30000000 cyc:   21167141 now IPC :1.39320: AVG IPC :1.38696: L2-Pf-HR :0.95318: L2-HR :0.87982: (Sim:0h2m6s) 
CPU  0 inst:   31000002 cyc:   21883292 now IPC :1.39636: AVG IPC :1.38728: L2-Pf-HR :0.95361: L2-HR :0.88020: (Sim:0h2m10s) 
CPU  0 inst:   32000000 cyc:   22602146 now IPC :1.39110: AVG IPC :1.38741: L2-Pf-HR :0.95407: L2-HR :0.88061: (Sim:0h2m15s) 
CPU  0 inst:   33000000 cyc:   23318016 now IPC :1.39690: AVG IPC :1.38771: L2-Pf-HR :0.95444: L2-HR :0.88091: (Sim:0h2m20s) 
CPU  0 inst:   34000002 cyc:   24025507 now IPC :1.41345: AVG IPC :1.38850: L2-Pf-HR :0.95471: L2-HR :0.88109: (Sim:0h2m24s) 
CPU  0 inst:   35000001 cyc:   24742377 now IPC :1.39495: AVG IPC :1.38870: L2-Pf-HR :0.95493: L2-HR :0.88117: (Sim:0h2m29s) 
CPU  0 inst:   36000000 cyc:   25525814 now IPC :1.27643: AVG IPC :1.38511: L2-Pf-HR :0.95445: L2-HR :0.88091: (Sim:0h2m34s) 
CPU  0 inst:   37000002 cyc:   26234942 now IPC :1.41019: AVG IPC :1.38582: L2-Pf-HR :0.95451: L2-HR :0.88104: (Sim:0h2m39s) 
CPU  0 inst:   38000001 cyc:   26950511 now IPC :1.39749: AVG IPC :1.38614: L2-Pf-HR :0.95471: L2-HR :0.88126: (Sim:0h2m43s) 
CPU  0 inst:   39000003 cyc:   27661390 now IPC :1.40671: AVG IPC :1.38669: L2-Pf-HR :0.95488: L2-HR :0.88144: (Sim:0h2m48s) 
CPU  0 inst:   40000000 cyc:   28373543 now IPC :1.40419: AVG IPC :1.38714: L2-Pf-HR :0.95496: L2-HR :0.88148: (Sim:0h2m53s) 
CPU  0 inst:   41000000 cyc:   29231681 now IPC :1.16531: AVG IPC :1.38040: L2-Pf-HR :0.95380: L2-HR :0.88055: (Sim:0h2m58s) 
CPU  0 inst:   42000000 cyc:   29948734 now IPC :1.39460: AVG IPC :1.38076: L2-Pf-HR :0.95374: L2-HR :0.88044: (Sim:0h3m2s) 
CPU  0 inst:   43000001 cyc:   30667513 now IPC :1.39125: AVG IPC :1.38101: L2-Pf-HR :0.95373: L2-HR :0.88040: (Sim:0h3m7s) 
CPU  0 inst:   44000000 cyc:   31384297 now IPC :1.39512: AVG IPC :1.38134: L2-Pf-HR :0.95372: L2-HR :0.88038: (Sim:0h3m12s) 
CPU  0 inst:   45000002 cyc:   32104255 now IPC :1.38897: AVG IPC :1.38152: L2-Pf-HR :0.95374: L2-HR :0.88036: (Sim:0h3m16s) 
CPU  0 inst:   46000000 cyc:   32817893 now IPC :1.40127: AVG IPC :1.38196: L2-Pf-HR :0.95361: L2-HR :0.88021: (Sim:0h3m21s) 
CPU  0 inst:   47000001 cyc:   33545032 now IPC :1.37525: AVG IPC :1.38181: L2-Pf-HR :0.95357: L2-HR :0.88011: (Sim:0h3m26s) 
CPU  0 inst:   48000000 cyc:   34399123 now IPC :1.17083: AVG IPC :1.37642: L2-Pf-HR :0.95309: L2-HR :0.87972: (Sim:0h3m31s) 
CPU  0 inst:   49000003 cyc:   35116456 now IPC :1.39406: AVG IPC :1.37679: L2-Pf-HR :0.95319: L2-HR :0.87980: (Sim:0h3m35s) 
CPU  0 inst:   50000000 cyc:   35831847 now IPC :1.39783: AVG IPC :1.37722: L2-Pf-HR :0.95333: L2-HR :0.87991: (Sim:0h3m40s) 
CPU  0 inst:   51000001 cyc:   36549082 now IPC :1.39424: AVG IPC :1.37757: L2-Pf-HR :0.95352: L2-HR :0.88008: (Sim:0h3m45s) 
CPU  0 inst:   52000000 cyc:   37265016 now IPC :1.39678: AVG IPC :1.37794: L2-Pf-HR :0.95378: L2-HR :0.88031: (Sim:0h3m50s) 
CPU  0 inst:   53000000 cyc:   37982867 now IPC :1.39305: AVG IPC :1.37824: L2-Pf-HR :0.95403: L2-HR :0.88051: (Sim:0h3m54s) 
CPU  0 inst:   54000001 cyc:   38699995 now IPC :1.39445: AVG IPC :1.37855: L2-Pf-HR :0.95423: L2-HR :0.88065: (Sim:0h3m59s) 
CPU  0 inst:   55000001 cyc:   39411731 now IPC :1.40502: AVG IPC :1.37904: L2-Pf-HR :0.95436: L2-HR :0.88071: (Sim:0h4m4s) 
CPU  0 inst:   56000000 cyc:   40189583 now IPC :1.28559: AVG IPC :1.37718: L2-Pf-HR :0.95407: L2-HR :0.88056: (Sim:0h4m8s) 
CPU  0 inst:   57000000 cyc:   40889573 now IPC :1.42859: AVG IPC :1.37808: L2-Pf-HR :0.95411: L2-HR :0.88064: (Sim:0h4m13s) 
CPU  0 inst:   58000000 cyc:   41596892 now IPC :1.41379: AVG IPC :1.37871: L2-Pf-HR :0.95422: L2-HR :0.88079: (Sim:0h4m18s) 
CPU  0 inst:   59000001 cyc:   42303248 now IPC :1.41572: AVG IPC :1.37934: L2-Pf-HR :0.95435: L2-HR :0.88093: (Sim:0h4m22s) 
CPU  0 inst:   60000000 cyc:   43012946 now IPC :1.40905: AVG IPC :1.37984: L2-Pf-HR :0.95444: L2-HR :0.88098: (Sim:0h4m27s) 
CPU  0 inst:   61000000 cyc:   43883854 now IPC :1.14823: AVG IPC :1.37514: L2-Pf-HR :0.95369: L2-HR :0.88035: (Sim:0h4m32s) 
CPU  0 inst:   62000003 cyc:   44606245 now IPC :1.38430: AVG IPC :1.37529: L2-Pf-HR :0.95364: L2-HR :0.88030: (Sim:0h4m37s) 
CPU  0 inst:   63000003 cyc:   45329645 now IPC :1.38236: AVG IPC :1.37541: L2-Pf-HR :0.95365: L2-HR :0.88029: (Sim:0h4m41s) 
CPU  0 inst:   64000000 cyc:   46055125 now IPC :1.37839: AVG IPC :1.37545: L2-Pf-HR :0.95366: L2-HR :0.88030: (Sim:0h4m46s) 
CPU  0 inst:   65000000 cyc:   46779810 now IPC :1.37991: AVG IPC :1.37552: L2-Pf-HR :0.95369: L2-HR :0.88031: (Sim:0h4m51s) 
CPU  0 inst:   66000000 cyc:   47509307 now IPC :1.37081: AVG IPC :1.37545: L2-Pf-HR :0.95368: L2-HR :0.88028: (Sim:0h4m55s) 
CPU  0 inst:   67000001 cyc:   48242833 now IPC :1.36328: AVG IPC :1.37526: L2-Pf-HR :0.95367: L2-HR :0.88023: (Sim:0h5m0s) 
CPU  0 inst:   68000000 cyc:   49094834 now IPC :1.17371: AVG IPC :1.37169: L2-Pf-HR :0.95332: L2-HR :0.87997: (Sim:0h5m5s) 
CPU  0 inst:   69000002 cyc:   49806451 now IPC :1.40525: AVG IPC :1.37218: L2-Pf-HR :0.95348: L2-HR :0.88007: (Sim:0h5m10s) 
CPU  0 inst:   70000001 cyc:   50513039 now IPC :1.41525: AVG IPC :1.37280: L2-Pf-HR :0.95359: L2-HR :0.88015: (Sim:0h5m13s) 
CPU  0 inst:   71000003 cyc:   51222200 now IPC :1.41012: AVG IPC :1.37332: L2-Pf-HR :0.95376: L2-HR :0.88031: (Sim:0h5m16s) 
CPU  0 inst:   72000000 cyc:   51929906 now IPC :1.41301: AVG IPC :1.37387: L2-Pf-HR :0.95394: L2-HR :0.88047: (Sim:0h5m20s) 
CPU  0 inst:   73000001 cyc:   52632217 now IPC :1.42387: AVG IPC :1.37455: L2-Pf-HR :0.95411: L2-HR :0.88061: (Sim:0h5m24s) 
CPU  0 inst:   74000000 cyc:   53336978 now IPC :1.41892: AVG IPC :1.37515: L2-Pf-HR :0.95425: L2-HR :0.88070: (Sim:0h5m27s) 
CPU  0 inst:   75000000 cyc:   54044326 now IPC :1.41373: AVG IPC :1.37567: L2-Pf-HR :0.95437: L2-HR :0.88076: (Sim:0h5m30s) 
CPU  0 inst:   76000000 cyc:   54809268 now IPC :1.30729: AVG IPC :1.37469: L2-Pf-HR :0.95418: L2-HR :0.88065: (Sim:0h5m33s) 
CPU  0 inst:   77000003 cyc:   55501381 now IPC :1.44486: AVG IPC :1.37558: L2-Pf-HR :0.95419: L2-HR :0.88071: (Sim:0h5m37s) 
CPU  0 inst:   78000000 cyc:   56196610 now IPC :1.43837: AVG IPC :1.37637: L2-Pf-HR :0.95427: L2-HR :0.88081: (Sim:0h5m42s) 
CPU  0 inst:   79000001 cyc:   56892928 now IPC :1.43613: AVG IPC :1.37712: L2-Pf-HR :0.95436: L2-HR :0.88089: (Sim:0h5m47s) 
CPU  0 inst:   80000000 cyc:   57590272 now IPC :1.43401: AVG IPC :1.37782: L2-Pf-HR :0.95440: L2-HR :0.88092: (Sim:0h5m51s) 
CPU  0 inst:   81000000 cyc:   58458272 now IPC :1.15207: AVG IPC :1.37441: L2-Pf-HR :0.95378: L2-HR :0.88040: (Sim:0h5m56s) 
CPU  0 inst:   82000001 cyc:   59177260 now IPC :1.39085: AVG IPC :1.37461: L2-Pf-HR :0.95373: L2-HR :0.88034: (Sim:0h6m1s) 
CPU  0 inst:   83000001 cyc:   59896558 now IPC :1.39024: AVG IPC :1.37480: L2-Pf-HR :0.95369: L2-HR :0.88031: (Sim:0h6m6s) 
CPU  0 inst:   84000000 cyc:   60622566 now IPC :1.37739: AVG IPC :1.37484: L2-Pf-HR :0.95372: L2-HR :0.88033: (Sim:0h6m11s) 
CPU  0 inst:   85000003 cyc:   61339510 now IPC :1.39481: AVG IPC :1.37507: L2-Pf-HR :0.95371: L2-HR :0.88032: (Sim:0h6m15s) 
CPU  0 inst:   86000000 cyc:   62069054 now IPC :1.37072: AVG IPC :1.37502: L2-Pf-HR :0.95370: L2-HR :0.88029: (Sim:0h6m20s) 
CPU  0 inst:   87000001 cyc:   62802399 now IPC :1.36362: AVG IPC :1.37489: L2-Pf-HR :0.95367: L2-HR :0.88024: (Sim:0h6m25s) 
CPU  0 inst:   88000000 cyc:   63645752 now IPC :1.18574: AVG IPC :1.37234: L2-Pf-HR :0.95338: L2-HR :0.88002: (Sim:0h6m30s) 
CPU  0 inst:   89000000 cyc:   64367171 now IPC :1.38616: AVG IPC :1.37250: L2-Pf-HR :0.95350: L2-HR :0.88010: (Sim:0h6m34s) 
CPU  0 inst:   90000003 cyc:   65082129 now IPC :1.39869: AVG IPC :1.37279: L2-Pf-HR :0.95359: L2-HR :0.88016: (Sim:0h6m39s) 
CPU  0 inst:   91000003 cyc:   65801429 now IPC :1.39024: AVG IPC :1.37298: L2-Pf-HR :0.95372: L2-HR :0.88027: (Sim:0h6m44s) 
CPU  0 inst:   92000000 cyc:   66521573 now IPC :1.38861: AVG IPC :1.37315: L2-Pf-HR :0.95385: L2-HR :0.88038: (Sim:0h6m49s) 
CPU  0 inst:   93000000 cyc:   67238989 now IPC :1.39389: AVG IPC :1.37338: L2-Pf-HR :0.95399: L2-HR :0.88049: (Sim:0h6m53s) 
CPU  0 inst:   94000003 cyc:   67956913 now IPC :1.39291: AVG IPC :1.37359: L2-Pf-HR :0.95410: L2-HR :0.88056: (Sim:0h6m58s) 
CPU  0 inst:   95000003 cyc:   68661194 now IPC :1.41989: AVG IPC :1.37407: L2-Pf-HR :0.95413: L2-HR :0.88057: (Sim:0h7m3s) 
CPU  0 inst:   96000000 cyc:   69448681 now IPC :1.26986: AVG IPC :1.37287: L2-Pf-HR :0.95397: L2-HR :0.88046: (Sim:0h7m8s) 
CPU  0 inst:   97000003 cyc:   70163290 now IPC :1.39937: AVG IPC :1.37315: L2-Pf-HR :0.95403: L2-HR :0.88054: (Sim:0h7m12s) 
CPU  0 inst:   98000001 cyc:   70881143 now IPC :1.39304: AVG IPC :1.37335: L2-Pf-HR :0.95410: L2-HR :0.88062: (Sim:0h7m17s) 
CPU  0 inst:   99000002 cyc:   71593355 now IPC :1.40408: AVG IPC :1.37366: L2-Pf-HR :0.95417: L2-HR :0.88069: (Sim:0h7m22s) 
CPU  0 inst:  100000000 cyc:   72310385 now IPC :1.39464: AVG IPC :1.37387: L2-Pf-HR :0.95422: L2-HR :0.88073: (Sim:0h7m27s) 
CPU  0 inst:  101000002 cyc:   73180168 now IPC :1.14971: AVG IPC :1.37117: L2-Pf-HR :0.95376: L2-HR :0.88033: (Sim:0h7m32s) 
CPU  0 inst:  102000000 cyc:   73901783 now IPC :1.38578: AVG IPC :1.37132: L2-Pf-HR :0.95374: L2-HR :0.88030: (Sim:0h7m36s) 
CPU  0 inst:  103000000 cyc:   74613578 now IPC :1.40490: AVG IPC :1.37164: L2-Pf-HR :0.95372: L2-HR :0.88027: (Sim:0h7m41s) 
CPU  0 inst:  104000000 cyc:   75336492 now IPC :1.38329: AVG IPC :1.37175: L2-Pf-HR :0.95371: L2-HR :0.88026: (Sim:0h7m45s) 
CPU  0 inst:  105000003 cyc:   76056403 now IPC :1.38906: AVG IPC :1.37192: L2-Pf-HR :0.95371: L2-HR :0.88025: (Sim:0h7m48s) 
CPU  0 inst:  106000002 cyc:   76782926 now IPC :1.37642: AVG IPC :1.37196: L2-Pf-HR :0.95368: L2-HR :0.88022: (Sim:0h7m52s) 
CPU  0 inst:  107000003 cyc:   77511430 now IPC :1.37268: AVG IPC :1.37197: L2-Pf-HR :0.95364: L2-HR :0.88016: (Sim:0h7m56s) 
CPU  0 inst:  108000000 cyc:   78364755 now IPC :1.17188: AVG IPC :1.36976: L2-Pf-HR :0.95343: L2-HR :0.87999: (Sim:0h8m0s) 
CPU  0 inst:  109000000 cyc:   79083679 now IPC :1.39097: AVG IPC :1.36996: L2-Pf-HR :0.95352: L2-HR :0.88006: (Sim:0h8m5s) 
CPU  0 inst:  110000001 cyc:   79798876 now IPC :1.39822: AVG IPC :1.37021: L2-Pf-HR :0.95358: L2-HR :0.88011: (Sim:0h8m9s) 
CPU  0 inst:  111000001 cyc:   80516508 now IPC :1.39347: AVG IPC :1.37042: L2-Pf-HR :0.95369: L2-HR :0.88020: (Sim:0h8m14s) 
CPU  0 inst:  112000000 cyc:   81236275 now IPC :1.38934: AVG IPC :1.37059: L2-Pf-HR :0.95380: L2-HR :0.88029: (Sim:0h8m19s) 
CPU  0 inst:  113000002 cyc:   81946636 now IPC :1.40774: AVG IPC :1.37092: L2-Pf-HR :0.95389: L2-HR :0.88038: (Sim:0h8m23s) 
CPU  0 inst:  114000001 cyc:   82658512 now IPC :1.40474: AVG IPC :1.37121: L2-Pf-HR :0.95399: L2-HR :0.88045: (Sim:0h8m28s) 
CPU  0 inst:  115000000 cyc:   83378236 now IPC :1.38942: AVG IPC :1.37137: L2-Pf-HR :0.95407: L2-HR :0.88049: (Sim:0h8m32s) 
CPU  0 inst:  116000000 cyc:   84161730 now IPC :1.27633: AVG IPC :1.37048: L2-Pf-HR :0.95393: L2-HR :0.88041: (Sim:0h8m37s) 
CPU  0 inst:  117000001 cyc:   84867308 now IPC :1.41728: AVG IPC :1.37087: L2-Pf-HR :0.95394: L2-HR :0.88045: (Sim:0h8m42s) 
CPU  0 inst:  118000002 cyc:   85579826 now IPC :1.40347: AVG IPC :1.37115: L2-Pf-HR :0.95398: L2-HR :0.88051: (Sim:0h8m46s) 
CPU  0 inst:  119000001 cyc:   86285187 now IPC :1.41771: AVG IPC :1.37153: L2-Pf-HR :0.95402: L2-HR :0.88057: (Sim:0h8m51s) 
CPU  0 inst:  120000000 cyc:   87000860 now IPC :1.39728: AVG IPC :1.37175: L2-Pf-HR :0.95406: L2-HR :0.88060: (Sim:0h8m55s) 
CPU  0 inst:  121000000 cyc:   87867300 now IPC :1.15415: AVG IPC :1.36958: L2-Pf-HR :0.95365: L2-HR :0.88026: (Sim:0h9m0s) 
CPU  0 inst:  122000002 cyc:   88593960 now IPC :1.37616: AVG IPC :1.36963: L2-Pf-HR :0.95361: L2-HR :0.88021: (Sim:0h9m5s) 
CPU  0 inst:  123000001 cyc:   89319970 now IPC :1.37739: AVG IPC :1.36969: L2-Pf-HR :0.95360: L2-HR :0.88020: (Sim:0h9m8s) 
CPU  0 inst:  124000000 cyc:   90045185 now IPC :1.37890: AVG IPC :1.36977: L2-Pf-HR :0.95359: L2-HR :0.88019: (Sim:0h9m12s) 
CPU  0 inst:  125000001 cyc:   90774232 now IPC :1.37166: AVG IPC :1.36978: L2-Pf-HR :0.95359: L2-HR :0.88019: (Sim:0h9m17s) 
CPU  0 inst:  126000002 cyc:   91499899 now IPC :1.37804: AVG IPC :1.36985: L2-Pf-HR :0.95356: L2-HR :0.88015: (Sim:0h9m22s) 
CPU  0 inst:  127000002 cyc:   92233242 now IPC :1.36362: AVG IPC :1.36980: L2-Pf-HR :0.95352: L2-HR :0.88009: (Sim:0h9m27s) 
CPU  0 inst:  128000000 cyc:   93077824 now IPC :1.18402: AVG IPC :1.36810: L2-Pf-HR :0.95330: L2-HR :0.87993: (Sim:0h9m31s) 
CPU  0 inst:  129000002 cyc:   93790080 now IPC :1.40399: AVG IPC :1.36837: L2-Pf-HR :0.95338: L2-HR :0.87999: (Sim:0h9m36s) 
CPU  0 inst:  130000000 cyc:   94501343 now IPC :1.40595: AVG IPC :1.36866: L2-Pf-HR :0.95346: L2-HR :0.88004: (Sim:0h9m41s) 
CPU  0 inst:  131000000 cyc:   95214102 now IPC :1.40300: AVG IPC :1.36892: L2-Pf-HR :0.95355: L2-HR :0.88012: (Sim:0h9m46s) 
CPU  0 inst:  132000000 cyc:   95925084 now IPC :1.40651: AVG IPC :1.36920: L2-Pf-HR :0.95363: L2-HR :0.88019: (Sim:0h9m50s) 
CPU  0 inst:  133000001 cyc:   96631413 now IPC :1.41577: AVG IPC :1.36954: L2-Pf-HR :0.95373: L2-HR :0.88027: (Sim:0h9m55s) 
CPU  0 inst:  134000000 cyc:   97335616 now IPC :1.42004: AVG IPC :1.36991: L2-Pf-HR :0.95382: L2-HR :0.88034: (Sim:0h10m0s) 
CPU  0 inst:  135000000 cyc:   98042902 now IPC :1.41386: AVG IPC :1.37023: L2-Pf-HR :0.95384: L2-HR :0.88034: (Sim:0h10m4s) 
CPU  0 inst:  136000000 cyc:   98814448 now IPC :1.29610: AVG IPC :1.36965: L2-Pf-HR :0.95370: L2-HR :0.88026: (Sim:0h10m9s) 
CPU  0 inst:  137000000 cyc:   99519303 now IPC :1.41873: AVG IPC :1.37000: L2-Pf-HR :0.95371: L2-HR :0.88030: (Sim:0h10m14s) 
CPU  0 inst:  138000001 cyc:  100233363 now IPC :1.40044: AVG IPC :1.37022: L2-Pf-HR :0.95377: L2-HR :0.88036: (Sim:0h10m18s) 
CPU  0 inst:  139000003 cyc:  100945579 now IPC :1.40407: AVG IPC :1.37046: L2-Pf-HR :0.95383: L2-HR :0.88041: (Sim:0h10m23s) 
CPU  0 inst:  140000000 cyc:  101659393 now IPC :1.40092: AVG IPC :1.37068: L2-Pf-HR :0.95385: L2-HR :0.88044: (Sim:0h10m28s) 
CPU  0 inst:  141000000 cyc:  102524665 now IPC :1.15571: AVG IPC :1.36884: L2-Pf-HR :0.95349: L2-HR :0.88014: (Sim:0h10m32s) 
CPU  0 inst:  142000002 cyc:  103245161 now IPC :1.38794: AVG IPC :1.36898: L2-Pf-HR :0.95347: L2-HR :0.88012: (Sim:0h10m36s) 
CPU  0 inst:  143000000 cyc:  103972056 now IPC :1.37571: AVG IPC :1.36903: L2-Pf-HR :0.95350: L2-HR :0.88013: (Sim:0h10m40s) 
CPU  0 inst:  144000000 cyc:  104693611 now IPC :1.38590: AVG IPC :1.36914: L2-Pf-HR :0.95351: L2-HR :0.88013: (Sim:0h10m45s) 
CPU  0 inst:  145000000 cyc:  105422787 now IPC :1.37141: AVG IPC :1.36916: L2-Pf-HR :0.95352: L2-HR :0.88014: (Sim:0h10m49s) 
CPU  0 inst:  146000000 cyc:  106154643 now IPC :1.36639: AVG IPC :1.36914: L2-Pf-HR :0.95352: L2-HR :0.88012: (Sim:0h10m54s) 
CPU  0 inst:  147000000 cyc:  106884158 now IPC :1.37077: AVG IPC :1.36915: L2-Pf-HR :0.95350: L2-HR :0.88009: (Sim:0h10m59s) 
CPU  0 inst:  148000000 cyc:  107735444 now IPC :1.17469: AVG IPC :1.36760: L2-Pf-HR :0.95331: L2-HR :0.87995: (Sim:0h11m4s) 
CPU  0 inst:  149000000 cyc:  108454517 now IPC :1.39068: AVG IPC :1.36775: L2-Pf-HR :0.95339: L2-HR :0.88001: (Sim:0h11m8s) 
CPU  0 inst:  150000001 cyc:  109173274 now IPC :1.39129: AVG IPC :1.36791: L2-Pf-HR :0.95346: L2-HR :0.88006: (Sim:0h11m13s) 
CPU  0 inst:  151000003 cyc:  109890777 now IPC :1.39373: AVG IPC :1.36808: L2-Pf-HR :0.95354: L2-HR :0.88013: (Sim:0h11m17s) 
CPU  0 inst:  152000000 cyc:  110610311 now IPC :1.38978: AVG IPC :1.36822: L2-Pf-HR :0.95362: L2-HR :0.88020: (Sim:0h11m22s) 
CPU  0 inst:  153000000 cyc:  111329028 now IPC :1.39137: AVG IPC :1.36837: L2-Pf-HR :0.95371: L2-HR :0.88026: (Sim:0h11m27s) 
CPU  0 inst:  154000001 cyc:  112045663 now IPC :1.39541: AVG IPC :1.36855: L2-Pf-HR :0.95379: L2-HR :0.88032: (Sim:0h11m31s) 
CPU  0 inst:  155000003 cyc:  112765060 now IPC :1.39006: AVG IPC :1.36869: L2-Pf-HR :0.95384: L2-HR :0.88035: (Sim:0h11m34s) 
CPU  0 inst:  156000000 cyc:  113523923 now IPC :1.31776: AVG IPC :1.36834: L2-Pf-HR :0.95374: L2-HR :0.88029: (Sim:0h11m38s) 
CPU  0 inst:  157000001 cyc:  114209376 now IPC :1.45889: AVG IPC :1.36889: L2-Pf-HR :0.95375: L2-HR :0.88031: (Sim:0h11m41s) 
CPU  0 inst:  158000003 cyc:  114905361 now IPC :1.43682: AVG IPC :1.36931: L2-Pf-HR :0.95379: L2-HR :0.88036: (Sim:0h11m44s) 
CPU  0 inst:  159000001 cyc:  115599526 now IPC :1.44058: AVG IPC :1.36974: L2-Pf-HR :0.95384: L2-HR :0.88040: (Sim:0h11m49s) 
CPU  0 inst:  160000000 cyc:  116300432 now IPC :1.42672: AVG IPC :1.37008: L2-Pf-HR :0.95388: L2-HR :0.88043: (Sim:0h11m53s) 
CPU  0 inst:  161000001 cyc:  117164741 now IPC :1.15699: AVG IPC :1.36850: L2-Pf-HR :0.95359: L2-HR :0.88019: (Sim:0h11m58s) 
CPU  0 inst:  162000002 cyc:  117889797 now IPC :1.37921: AVG IPC :1.36857: L2-Pf-HR :0.95357: L2-HR :0.88017: (Sim:0h12m3s) 
CPU  0 inst:  163000000 cyc:  118608823 now IPC :1.39077: AVG IPC :1.36870: L2-Pf-HR :0.95357: L2-HR :0.88016: (Sim:0h12m7s) 
CPU  0 inst:  164000000 cyc:  119342089 now IPC :1.36376: AVG IPC :1.36867: L2-Pf-HR :0.95358: L2-HR :0.88017: (Sim:0h12m12s) 
CPU  0 inst:  165000001 cyc:  120070745 now IPC :1.37239: AVG IPC :1.36869: L2-Pf-HR :0.95359: L2-HR :0.88015: (Sim:0h12m17s) 
CPU  0 inst:  166000000 cyc:  120801715 now IPC :1.36804: AVG IPC :1.36869: L2-Pf-HR :0.95357: L2-HR :0.88013: (Sim:0h12m22s) 
CPU  0 inst:  167000003 cyc:  121537428 now IPC :1.35923: AVG IPC :1.36863: L2-Pf-HR :0.95353: L2-HR :0.88008: (Sim:0h12m26s) 
CPU  0 inst:  168000000 cyc:  122378013 now IPC :1.18964: AVG IPC :1.36739: L2-Pf-HR :0.95338: L2-HR :0.87997: (Sim:0h12m31s) 
CPU  0 inst:  169000003 cyc:  123094626 now IPC :1.39546: AVG IPC :1.36756: L2-Pf-HR :0.95343: L2-HR :0.88000: (Sim:0h12m36s) 
CPU  0 inst:  170000002 cyc:  123816078 now IPC :1.38609: AVG IPC :1.36767: L2-Pf-HR :0.95350: L2-HR :0.88005: (Sim:0h12m41s) 
CPU  0 inst:  171000000 cyc:  124534796 now IPC :1.39136: AVG IPC :1.36780: L2-Pf-HR :0.95357: L2-HR :0.88012: (Sim:0h12m45s) 
CPU  0 inst:  172000000 cyc:  125253724 now IPC :1.39096: AVG IPC :1.36794: L2-Pf-HR :0.95364: L2-HR :0.88018: (Sim:0h12m50s) 
CPU  0 inst:  173000002 cyc:  125971267 now IPC :1.39365: AVG IPC :1.36809: L2-Pf-HR :0.95372: L2-HR :0.88024: (Sim:0h12m55s) 
CPU  0 inst:  174000001 cyc:  126683664 now IPC :1.40371: AVG IPC :1.36829: L2-Pf-HR :0.95378: L2-HR :0.88028: (Sim:0h12m59s) 
CPU  0 inst:  175000001 cyc:  127396868 now IPC :1.40212: AVG IPC :1.36848: L2-Pf-HR :0.95382: L2-HR :0.88030: (Sim:0h13m4s) 
CPU  0 inst:  176000000 cyc:  128170390 now IPC :1.29279: AVG IPC :1.36802: L2-Pf-HR :0.95371: L2-HR :0.88024: (Sim:0h13m9s) 
CPU  0 inst:  177000000 cyc:  128884848 now IPC :1.39966: AVG IPC :1.36819: L2-Pf-HR :0.95376: L2-HR :0.88028: (Sim:0h13m14s) 
CPU  0 inst:  178000003 cyc:  129595231 now IPC :1.40770: AVG IPC :1.36841: L2-Pf-HR :0.95379: L2-HR :0.88033: (Sim:0h13m18s) 
CPU  0 inst:  179000000 cyc:  130304683 now IPC :1.40953: AVG IPC :1.36864: L2-Pf-HR :0.95382: L2-HR :0.88037: (Sim:0h13m23s) 
CPU  0 inst:  180000000 cyc:  131020196 now IPC :1.39760: AVG IPC :1.36880: L2-Pf-HR :0.95385: L2-HR :0.88040: (Sim:0h13m28s) 
CPU  0 inst:  181000003 cyc:  131886337 now IPC :1.15455: AVG IPC :1.36738: L2-Pf-HR :0.95358: L2-HR :0.88017: (Sim:0h13m33s) 
CPU  0 inst:  182000002 cyc:  132604378 now IPC :1.39268: AVG IPC :1.36752: L2-Pf-HR :0.95358: L2-HR :0.88016: (Sim:0h13m37s) 
CPU  0 inst:  183000002 cyc:  133334585 now IPC :1.36947: AVG IPC :1.36753: L2-Pf-HR :0.95358: L2-HR :0.88016: (Sim:0h13m41s) 
CPU  0 inst:  184000000 cyc:  134059696 now IPC :1.37910: AVG IPC :1.36759: L2-Pf-HR :0.95359: L2-HR :0.88016: (Sim:0h13m44s) 
CPU  0 inst:  185000000 cyc:  134784224 now IPC :1.38021: AVG IPC :1.36766: L2-Pf-HR :0.95359: L2-HR :0.88015: (Sim:0h13m48s) 
CPU  0 inst:  186000001 cyc:  135511481 now IPC :1.37503: AVG IPC :1.36770: L2-Pf-HR :0.95358: L2-HR :0.88014: (Sim:0h13m53s) 
CPU  0 inst:  187000002 cyc:  136238980 now IPC :1.37457: AVG IPC :1.36774: L2-Pf-HR :0.95357: L2-HR :0.88011: (Sim:0h13m58s) 
CPU  0 inst:  188000000 cyc:  137092797 now IPC :1.17121: AVG IPC :1.36650: L2-Pf-HR :0.95344: L2-HR :0.88001: (Sim:0h14m2s) 
CPU  0 inst:  189000003 cyc:  137810521 now IPC :1.39330: AVG IPC :1.36664: L2-Pf-HR :0.95348: L2-HR :0.88004: (Sim:0h14m7s) 
CPU  0 inst:  190000001 cyc:  138534458 now IPC :1.38133: AVG IPC :1.36672: L2-Pf-HR :0.95354: L2-HR :0.88009: (Sim:0h14m12s) 
CPU  0 inst:  191000003 cyc:  139255614 now IPC :1.38667: AVG IPC :1.36683: L2-Pf-HR :0.95360: L2-HR :0.88014: (Sim:0h14m17s) 
CPU  0 inst:  192000000 cyc:  139976278 now IPC :1.38761: AVG IPC :1.36693: L2-Pf-HR :0.95366: L2-HR :0.88020: (Sim:0h14m21s) 
CPU  0 inst:  193000000 cyc:  140697195 now IPC :1.38712: AVG IPC :1.36704: L2-Pf-HR :0.95373: L2-HR :0.88025: (Sim:0h14m26s) 
CPU  0 inst:  194000003 cyc:  141413311 now IPC :1.39643: AVG IPC :1.36719: L2-Pf-HR :0.95379: L2-HR :0.88029: (Sim:0h14m31s) 
CPU  0 inst:  195000000 cyc:  142138494 now IPC :1.37896: AVG IPC :1.36725: L2-Pf-HR :0.95384: L2-HR :0.88032: (Sim:0h14m36s) 
CPU  0 inst:  196000000 cyc:  142921892 now IPC :1.27649: AVG IPC :1.36675: L2-Pf-HR :0.95376: L2-HR :0.88027: (Sim:0h14m41s) 
CPU  0 inst:  197000000 cyc:  143632701 now IPC :1.40685: AVG IPC :1.36695: L2-Pf-HR :0.95379: L2-HR :0.88030: (Sim:0h14m45s) 
CPU  0 inst:  198000002 cyc:  144340115 now IPC :1.41360: AVG IPC :1.36718: L2-Pf-HR :0.95382: L2-HR :0.88035: (Sim:0h14m50s) 
CPU  0 inst:  199000002 cyc:  145049234 now IPC :1.41020: AVG IPC :1.36739: L2-Pf-HR :0.95385: L2-HR :0.88038: (Sim:0h14m55s) 
CPU  0 inst:  200000000 cyc:  145766541 now IPC :1.39410: AVG IPC :1.36752: L2-Pf-HR :0.95388: L2-HR :0.88041: (Sim:0h15m0s) 
CPU  0 inst:  201000003 cyc:  146619751 now IPC :1.17205: AVG IPC :1.36638: L2-Pf-HR :0.95363: L2-HR :0.88020: (Sim:0h15m5s) 
CPU  0 inst:  202000002 cyc:  147344594 now IPC :1.37961: AVG IPC :1.36644: L2-Pf-HR :0.95361: L2-HR :0.88018: (Sim:0h15m9s) 
CPU  0 inst:  203000002 cyc:  148069723 now IPC :1.37906: AVG IPC :1.36650: L2-Pf-HR :0.95362: L2-HR :0.88018: (Sim:0h15m14s) 
CPU  0 inst:  204000000 cyc:  148795086 now IPC :1.37862: AVG IPC :1.36656: L2-Pf-HR :0.95363: L2-HR :0.88020: (Sim:0h15m19s) 
CPU  0 inst:  205000001 cyc:  149522099 now IPC :1.37549: AVG IPC :1.36661: L2-Pf-HR :0.95363: L2-HR :0.88019: (Sim:0h15m24s) 
CPU  0 inst:  206000003 cyc:  150246748 now IPC :1.37998: AVG IPC :1.36667: L2-Pf-HR :0.95362: L2-HR :0.88017: (Sim:0h15m29s) 
CPU  0 inst:  207000000 cyc:  150978533 now IPC :1.36652: AVG IPC :1.36667: L2-Pf-HR :0.95362: L2-HR :0.88016: (Sim:0h15m34s) 
CPU  0 inst:  208000000 cyc:  151828732 now IPC :1.17620: AVG IPC :1.36560: L2-Pf-HR :0.95350: L2-HR :0.88007: (Sim:0h15m39s) 
CPU  0 inst:  209000000 cyc:  152544954 now IPC :1.39622: AVG IPC :1.36574: L2-Pf-HR :0.95354: L2-HR :0.88010: (Sim:0h15m44s) 
CPU  0 inst:  210000001 cyc:  153261303 now IPC :1.39597: AVG IPC :1.36589: L2-Pf-HR :0.95359: L2-HR :0.88013: (Sim:0h15m49s) 
CPU  0 inst:  211000002 cyc:  153972347 now IPC :1.40638: AVG IPC :1.36607: L2-Pf-HR :0.95364: L2-HR :0.88018: (Sim:0h15m54s) 
CPU  0 inst:  212000000 cyc:  154676546 now IPC :1.42005: AVG IPC :1.36632: L2-Pf-HR :0.95368: L2-HR :0.88022: (Sim:0h15m59s) 
CPU  0 inst:  213000001 cyc:  155388077 now IPC :1.40542: AVG IPC :1.36650: L2-Pf-HR :0.95373: L2-HR :0.88026: (Sim:0h16m4s) 
CPU  0 inst:  214000002 cyc:  156099305 now IPC :1.40602: AVG IPC :1.36668: L2-Pf-HR :0.95378: L2-HR :0.88030: (Sim:0h16m8s) 
CPU  0 inst:  215000003 cyc:  156813696 now IPC :1.39980: AVG IPC :1.36683: L2-Pf-HR :0.95381: L2-HR :0.88031: (Sim:0h16m13s) 
CPU  0 inst:  216000000 cyc:  157588492 now IPC :1.29066: AVG IPC :1.36646: L2-Pf-HR :0.95374: L2-HR :0.88026: (Sim:0h16m18s) 
CPU  0 inst:  217000001 cyc:  158296970 now IPC :1.41148: AVG IPC :1.36666: L2-Pf-HR :0.95376: L2-HR :0.88029: (Sim:0h16m22s) 
CPU  0 inst:  218000002 cyc:  159007248 now IPC :1.40790: AVG IPC :1.36685: L2-Pf-HR :0.95380: L2-HR :0.88033: (Sim:0h16m25s) 
CPU  0 inst:  219000000 cyc:  159716141 now IPC :1.41065: AVG IPC :1.36704: L2-Pf-HR :0.95382: L2-HR :0.88036: (Sim:0h16m28s) 
CPU  0 inst:  220000000 cyc:  160437422 now IPC :1.38642: AVG IPC :1.36713: L2-Pf-HR :0.95385: L2-HR :0.88039: (Sim:0h16m31s) 
CPU  0 inst:  221000001 cyc:  161295148 now IPC :1.16587: AVG IPC :1.36605: L2-Pf-HR :0.95364: L2-HR :0.88021: (Sim:0h16m35s) 
CPU  0 inst:  222000001 cyc:  162019365 now IPC :1.38080: AVG IPC :1.36612: L2-Pf-HR :0.95363: L2-HR :0.88019: (Sim:0h16m40s) 
CPU  0 inst:  223000001 cyc:  162742580 now IPC :1.38271: AVG IPC :1.36619: L2-Pf-HR :0.95364: L2-HR :0.88020: (Sim:0h16m44s) 
CPU  0 inst:  224000000 cyc:  163467052 now IPC :1.38031: AVG IPC :1.36626: L2-Pf-HR :0.95363: L2-HR :0.88019: (Sim:0h16m49s) 
CPU  0 inst:  225000003 cyc:  164192492 now IPC :1.37848: AVG IPC :1.36631: L2-Pf-HR :0.95362: L2-HR :0.88018: (Sim:0h16m54s) 
CPU  0 inst:  226000001 cyc:  164921176 now IPC :1.37233: AVG IPC :1.36634: L2-Pf-HR :0.95363: L2-HR :0.88018: (Sim:0h16m58s) 
CPU  0 inst:  227000000 cyc:  165646648 now IPC :1.37841: AVG IPC :1.36639: L2-Pf-HR :0.95361: L2-HR :0.88015: (Sim:0h17m3s) 
CPU  0 inst:  228000000 cyc:  166498574 now IPC :1.17381: AVG IPC :1.36540: L2-Pf-HR :0.95350: L2-HR :0.88007: (Sim:0h17m8s) 
CPU  0 inst:  229000000 cyc:  167210286 now IPC :1.40506: AVG IPC :1.36557: L2-Pf-HR :0.95353: L2-HR :0.88009: (Sim:0h17m12s) 
CPU  0 inst:  230000003 cyc:  167922660 now IPC :1.40376: AVG IPC :1.36573: L2-Pf-HR :0.95356: L2-HR :0.88012: (Sim:0h17m17s) 
CPU  0 inst:  231000003 cyc:  168641278 now IPC :1.39156: AVG IPC :1.36584: L2-Pf-HR :0.95362: L2-HR :0.88017: (Sim:0h17m22s) 
CPU  0 inst:  232000000 cyc:  169362394 now IPC :1.38674: AVG IPC :1.36593: L2-Pf-HR :0.95367: L2-HR :0.88022: (Sim:0h17m26s) 
CPU  0 inst:  233000003 cyc:  170079567 now IPC :1.39437: AVG IPC :1.36605: L2-Pf-HR :0.95372: L2-HR :0.88026: (Sim:0h17m31s) 
CPU  0 inst:  234000001 cyc:  170794055 now IPC :1.39960: AVG IPC :1.36619: L2-Pf-HR :0.95377: L2-HR :0.88030: (Sim:0h17m36s) 
CPU  0 inst:  235000000 cyc:  171515643 now IPC :1.38583: AVG IPC :1.36628: L2-Pf-HR :0.95381: L2-HR :0.88033: (Sim:0h17m41s) 
CPU  0 inst:  236000000 cyc:  172285897 now IPC :1.29827: AVG IPC :1.36597: L2-Pf-HR :0.95372: L2-HR :0.88027: (Sim:0h17m45s) 
CPU  0 inst:  237000003 cyc:  173000007 now IPC :1.40035: AVG IPC :1.36611: L2-Pf-HR :0.95375: L2-HR :0.88030: (Sim:0h17m50s) 
CPU  0 inst:  238000003 cyc:  173710476 now IPC :1.40752: AVG IPC :1.36628: L2-Pf-HR :0.95378: L2-HR :0.88034: (Sim:0h17m55s) 
CPU  0 inst:  239000001 cyc:  174422157 now IPC :1.40512: AVG IPC :1.36644: L2-Pf-HR :0.95381: L2-HR :0.88037: (Sim:0h18m0s) 
CPU  0 inst:  240000000 cyc:  175142284 now IPC :1.38864: AVG IPC :1.36653: L2-Pf-HR :0.95383: L2-HR :0.88039: (Sim:0h18m4s) 
CPU  0 inst:  241000003 cyc:  175996121 now IPC :1.17119: AVG IPC :1.36558: L2-Pf-HR :0.95363: L2-HR :0.88023: (Sim:0h18m9s) 
CPU  0 inst:  242000000 cyc:  176721719 now IPC :1.37817: AVG IPC :1.36563: L2-Pf-HR :0.95362: L2-HR :0.88021: (Sim:0h18m14s) 
CPU  0 inst:  243000003 cyc:  177439081 now IPC :1.39400: AVG IPC :1.36575: L2-Pf-HR :0.95363: L2-HR :0.88021: (Sim:0h18m19s) 
CPU  0 inst:  244000000 cyc:  178154026 now IPC :1.39870: AVG IPC :1.36588: L2-Pf-HR :0.95362: L2-HR :0.88020: (Sim:0h18m23s) 
CPU  0 inst:  245000002 cyc:  178878683 now IPC :1.37997: AVG IPC :1.36594: L2-Pf-HR :0.95362: L2-HR :0.88020: (Sim:0h18m28s) 
CPU  0 inst:  246000000 cyc:  179601092 now IPC :1.38425: AVG IPC :1.36601: L2-Pf-HR :0.95362: L2-HR :0.88020: (Sim:0h18m33s) 
CPU  0 inst:  247000001 cyc:  180320635 now IPC :1.38977: AVG IPC :1.36611: L2-Pf-HR :0.95360: L2-HR :0.88017: (Sim:0h18m38s) 
CPU  0 inst:  248000000 cyc:  181174372 now IPC :1.17132: AVG IPC :1.36519: L2-Pf-HR :0.95351: L2-HR :0.88010: (Sim:0h18m41s) 
CPU  0 inst:  249000001 cyc:  181890236 now IPC :1.39691: AVG IPC :1.36531: L2-Pf-HR :0.95354: L2-HR :0.88012: (Sim:0h18m46s) 
CPU  0 inst:  250000001 cyc:  182598459 now IPC :1.41198: AVG IPC :1.36549: L2-Pf-HR :0.95356: L2-HR :0.88014: (Sim:0h18m50s) 
CPU  0 inst:  251000001 cyc:  183316394 now IPC :1.39288: AVG IPC :1.36560: L2-Pf-HR :0.95361: L2-HR :0.88018: (Sim:0h18m55s) 
CPU  0 inst:  252000000 cyc:  184036205 now IPC :1.38925: AVG IPC :1.36569: L2-Pf-HR :0.95365: L2-HR :0.88022: (Sim:0h19m0s) 
CPU  0 inst:  253000002 cyc:  184751892 now IPC :1.39726: AVG IPC :1.36582: L2-Pf-HR :0.95369: L2-HR :0.88025: (Sim:0h19m5s) 
CPU  0 inst:  254000001 cyc:  185468014 now IPC :1.39641: AVG IPC :1.36594: L2-Pf-HR :0.95374: L2-HR :0.88028: (Sim:0h19m9s) 
CPU  0 inst:  255000000 cyc:  186186429 now IPC :1.39195: AVG IPC :1.36604: L2-Pf-HR :0.95376: L2-HR :0.88029: (Sim:0h19m13s) 
CPU  0 inst:  256000000 cyc:  186949006 now IPC :1.31134: AVG IPC :1.36581: L2-Pf-HR :0.95370: L2-HR :0.88026: (Sim:0h19m18s) 
CPU  0 inst:  257000002 cyc:  187653436 now IPC :1.41959: AVG IPC :1.36602: L2-Pf-HR :0.95371: L2-HR :0.88028: (Sim:0h19m23s) 
CPU  0 inst:  258000000 cyc:  188360684 now IPC :1.41393: AVG IPC :1.36620: L2-Pf-HR :0.95374: L2-HR :0.88031: (Sim:0h19m27s) 
CPU  0 inst:  259000001 cyc:  189068901 now IPC :1.41200: AVG IPC :1.36637: L2-Pf-HR :0.95377: L2-HR :0.88035: (Sim:0h19m32s) 
CPU  0 inst:  260000000 cyc:  189796368 now IPC :1.37463: AVG IPC :1.36640: L2-Pf-HR :0.95377: L2-HR :0.88034: (Sim:0h19m37s) 
CPU  0 inst:  261000001 cyc:  190638544 now IPC :1.18740: AVG IPC :1.36561: L2-Pf-HR :0.95360: L2-HR :0.88021: (Sim:0h19m42s) 
CPU  0 inst:  262000003 cyc:  191369969 now IPC :1.36720: AVG IPC :1.36561: L2-Pf-HR :0.95360: L2-HR :0.88019: (Sim:0h19m46s) 
CPU  0 inst:  263000000 cyc:  192092306 now IPC :1.38439: AVG IPC :1.36568: L2-Pf-HR :0.95360: L2-HR :0.88019: (Sim:0h19m51s) 
CPU  0 inst:  264000000 cyc:  192810549 now IPC :1.39229: AVG IPC :1.36578: L2-Pf-HR :0.95360: L2-HR :0.88019: (Sim:0h19m56s) 
CPU  0 inst:  265000002 cyc:  193540322 now IPC :1.37029: AVG IPC :1.36580: L2-Pf-HR :0.95360: L2-HR :0.88019: (Sim:0h20m0s) 
CPU  0 inst:  266000001 cyc:  194261988 now IPC :1.38568: AVG IPC :1.36587: L2-Pf-HR :0.95360: L2-HR :0.88018: (Sim:0h20m5s) 
CPU  0 inst:  267000003 cyc:  194991466 now IPC :1.37085: AVG IPC :1.36589: L2-Pf-HR :0.95360: L2-HR :0.88017: (Sim:0h20m10s) 
CPU  0 inst:  268000000 cyc:  195844937 now IPC :1.17168: AVG IPC :1.36504: L2-Pf-HR :0.95350: L2-HR :0.88010: (Sim:0h20m15s) 
CPU  0 inst:  269000001 cyc:  196568075 now IPC :1.38286: AVG IPC :1.36511: L2-Pf-HR :0.95354: L2-HR :0.88012: (Sim:0h20m20s) 
CPU  0 inst:  270000003 cyc:  197290391 now IPC :1.38444: AVG IPC :1.36518: L2-Pf-HR :0.95358: L2-HR :0.88015: (Sim:0h20m24s) 
CPU  0 inst:  271000001 cyc:  198013438 now IPC :1.38303: AVG IPC :1.36524: L2-Pf-HR :0.95363: L2-HR :0.88019: (Sim:0h20m29s) 
CPU  0 inst:  272000000 cyc:  198735087 now IPC :1.38571: AVG IPC :1.36532: L2-Pf-HR :0.95367: L2-HR :0.88022: (Sim:0h20m34s) 
CPU  0 inst:  273000001 cyc:  199446831 now IPC :1.40500: AVG IPC :1.36546: L2-Pf-HR :0.95370: L2-HR :0.88026: (Sim:0h20m38s) 
CPU  0 inst:  274000002 cyc:  200165855 now IPC :1.39078: AVG IPC :1.36555: L2-Pf-HR :0.95374: L2-HR :0.88028: (Sim:0h20m43s) 
CPU  0 inst:  275000003 cyc:  200887668 now IPC :1.38540: AVG IPC :1.36562: L2-Pf-HR :0.95377: L2-HR :0.88030: (Sim:0h20m46s) 
CPU  0 inst:  276000000 cyc:  201658176 now IPC :1.29784: AVG IPC :1.36536: L2-Pf-HR :0.95370: L2-HR :0.88026: (Sim:0h20m50s) 
CPU  0 inst:  277000001 cyc:  202365849 now IPC :1.41308: AVG IPC :1.36553: L2-Pf-HR :0.95371: L2-HR :0.88028: (Sim:0h20m53s) 
CPU  0 inst:  278000001 cyc:  203078133 now IPC :1.40393: AVG IPC :1.36567: L2-Pf-HR :0.95374: L2-HR :0.88031: (Sim:0h20m58s) 
CPU  0 inst:  279000000 cyc:  203784822 now IPC :1.41505: AVG IPC :1.36584: L2-Pf-HR :0.95376: L2-HR :0.88033: (Sim:0h21m3s) 
CPU  0 inst:  280000000 cyc:  204532558 now IPC :1.33737: AVG IPC :1.36573: L2-Pf-HR :0.95374: L2-HR :0.88032: (Sim:0h21m7s) 
CPU  0 inst:  281000000 cyc:  205353688 now IPC :1.21783: AVG IPC :1.36514: L2-Pf-HR :0.95360: L2-HR :0.88020: (Sim:0h21m12s) 
CPU  0 inst:  282000002 cyc:  206076040 now IPC :1.38437: AVG IPC :1.36521: L2-Pf-HR :0.95358: L2-HR :0.88018: (Sim:0h21m17s) 
CPU  0 inst:  283000003 cyc:  206791552 now IPC :1.39760: AVG IPC :1.36532: L2-Pf-HR :0.95359: L2-HR :0.88019: (Sim:0h21m22s) 
CPU  0 inst:  284000000 cyc:  207506021 now IPC :1.39964: AVG IPC :1.36544: L2-Pf-HR :0.95358: L2-HR :0.88018: (Sim:0h21m26s) 
CPU  0 inst:  285000000 cyc:  208220663 now IPC :1.39930: AVG IPC :1.36556: L2-Pf-HR :0.95358: L2-HR :0.88018: (Sim:0h21m31s) 
CPU  0 inst:  286000002 cyc:  208936690 now IPC :1.39660: AVG IPC :1.36566: L2-Pf-HR :0.95359: L2-HR :0.88017: (Sim:0h21m35s) 
CPU  0 inst:  287000003 cyc:  209656845 now IPC :1.38859: AVG IPC :1.36574: L2-Pf-HR :0.95358: L2-HR :0.88016: (Sim:0h21m40s) 
CPU  0 inst:  288000000 cyc:  210503590 now IPC :1.18099: AVG IPC :1.36500: L2-Pf-HR :0.95350: L2-HR :0.88010: (Sim:0h21m45s) 
CPU  0 inst:  289000002 cyc:  211210760 now IPC :1.41409: AVG IPC :1.36516: L2-Pf-HR :0.95353: L2-HR :0.88012: (Sim:0h21m50s) 
CPU  0 inst:  290000001 cyc:  211913885 now IPC :1.42222: AVG IPC :1.36535: L2-Pf-HR :0.95356: L2-HR :0.88014: (Sim:0h21m54s) 
CPU  0 inst:  291000003 cyc:  212622853 now IPC :1.41050: AVG IPC :1.36550: L2-Pf-HR :0.95361: L2-HR :0.88018: (Sim:0h21m59s) 
CPU  0 inst:  292000000 cyc:  213320488 now IPC :1.43341: AVG IPC :1.36573: L2-Pf-HR :0.95364: L2-HR :0.88021: (Sim:0h22m4s) 
CPU  0 inst:  293000001 cyc:  214027585 now IPC :1.41423: AVG IPC :1.36589: L2-Pf-HR :0.95368: L2-HR :0.88024: (Sim:0h22m8s) 
CPU  0 inst:  294000001 cyc:  214731592 now IPC :1.42044: AVG IPC :1.36607: L2-Pf-HR :0.95371: L2-HR :0.88026: (Sim:0h22m13s) 
CPU  0 inst:  295000001 cyc:  215444811 now IPC :1.40209: AVG IPC :1.36619: L2-Pf-HR :0.95374: L2-HR :0.88028: (Sim:0h22m17s) 
CPU  0 inst:  296000000 cyc:  216219453 now IPC :1.29092: AVG IPC :1.36591: L2-Pf-HR :0.95367: L2-HR :0.88024: (Sim:0h22m22s) 
CPU  0 inst:  297000003 cyc:  216930361 now IPC :1.40666: AVG IPC :1.36605: L2-Pf-HR :0.95369: L2-HR :0.88026: (Sim:0h22m27s) 
CPU  0 inst:  298000000 cyc:  217643215 now IPC :1.40281: AVG IPC :1.36617: L2-Pf-HR :0.95372: L2-HR :0.88029: (Sim:0h22m31s) 
CPU  0 inst:  299000003 cyc:  218354155 now IPC :1.40659: AVG IPC :1.36630: L2-Pf-HR :0.95374: L2-HR :0.88032: (Sim:0h22m36s) 
CPU  0 inst:  300000000 cyc:  219102669 now IPC :1.33598: AVG IPC :1.36620: L2-Pf-HR :0.95371: L2-HR :0.88030: (Sim:0h22m41s) 
CPU  0 inst:  301000000 cyc:  219916697 now IPC :1.22846: AVG IPC :1.36569: L2-Pf-HR :0.95359: L2-HR :0.88019: (Sim:0h22m44s) 
CPU  0 inst:  302000000 cyc:  220647346 now IPC :1.36865: AVG IPC :1.36570: L2-Pf-HR :0.95358: L2-HR :0.88018: (Sim:0h22m48s) 
CPU  0 inst:  303000001 cyc:  221368739 now IPC :1.38621: AVG IPC :1.36576: L2-Pf-HR :0.95358: L2-HR :0.88018: (Sim:0h22m51s) 
CPU  0 inst:  304000000 cyc:  222087638 now IPC :1.39101: AVG IPC :1.36584: L2-Pf-HR :0.95358: L2-HR :0.88018: (Sim:0h22m54s) 
CPU  0 inst:  305000002 cyc:  222811002 now IPC :1.38243: AVG IPC :1.36590: L2-Pf-HR :0.95357: L2-HR :0.88017: (Sim:0h22m57s) 
CPU  0 inst:  306000003 cyc:  223537353 now IPC :1.37675: AVG IPC :1.36593: L2-Pf-HR :0.95356: L2-HR :0.88016: (Sim:0h23m1s) 
CPU  0 inst:  307000002 cyc:  224260906 now IPC :1.38207: AVG IPC :1.36599: L2-Pf-HR :0.95355: L2-HR :0.88014: (Sim:0h23m5s) 
CPU  0 inst:  308000000 cyc:  225123037 now IPC :1.15991: AVG IPC :1.36519: L2-Pf-HR :0.95348: L2-HR :0.88009: (Sim:0h23m10s) 
CPU  0 inst:  309000003 cyc:  225843913 now IPC :1.38721: AVG IPC :1.36526: L2-Pf-HR :0.95351: L2-HR :0.88010: (Sim:0h23m15s) 
CPU  0 inst:  310000001 cyc:  226549279 now IPC :1.41770: AVG IPC :1.36543: L2-Pf-HR :0.95353: L2-HR :0.88012: (Sim:0h23m20s) 
CPU  0 inst:  311000002 cyc:  227266339 now IPC :1.39458: AVG IPC :1.36552: L2-Pf-HR :0.95357: L2-HR :0.88016: (Sim:0h23m25s) 
CPU  0 inst:  312000000 cyc:  227983144 now IPC :1.39508: AVG IPC :1.36561: L2-Pf-HR :0.95361: L2-HR :0.88019: (Sim:0h23m30s) 
CPU  0 inst:  313000001 cyc:  228700043 now IPC :1.39490: AVG IPC :1.36571: L2-Pf-HR :0.95365: L2-HR :0.88022: (Sim:0h23m35s) 
CPU  0 inst:  314000003 cyc:  229406472 now IPC :1.41557: AVG IPC :1.36586: L2-Pf-HR :0.95367: L2-HR :0.88024: (Sim:0h23m39s) 
CPU  0 inst:  315000000 cyc:  230133170 now IPC :1.37608: AVG IPC :1.36589: L2-Pf-HR :0.95371: L2-HR :0.88026: (Sim:0h23m44s) 
CPU  0 inst:  316000000 cyc:  230885659 now IPC :1.32892: AVG IPC :1.36577: L2-Pf-HR :0.95365: L2-HR :0.88022: (Sim:0h23m49s) 
CPU  0 inst:  317000000 cyc:  231583850 now IPC :1.43227: AVG IPC :1.36597: L2-Pf-HR :0.95366: L2-HR :0.88024: (Sim:0h23m54s) 
CPU  0 inst:  318000000 cyc:  232280066 now IPC :1.43634: AVG IPC :1.36619: L2-Pf-HR :0.95369: L2-HR :0.88027: (Sim:0h23m59s) 
CPU  0 inst:  319000002 cyc:  232975646 now IPC :1.43765: AVG IPC :1.36640: L2-Pf-HR :0.95371: L2-HR :0.88029: (Sim:0h24m3s) 
CPU  0 inst:  320000000 cyc:  233733616 now IPC :1.31931: AVG IPC :1.36625: L2-Pf-HR :0.95368: L2-HR :0.88026: (Sim:0h24m8s) 
CPU  0 inst:  321000002 cyc:  234542423 now IPC :1.23639: AVG IPC :1.36580: L2-Pf-HR :0.95357: L2-HR :0.88018: (Sim:0h24m13s) 
CPU  0 inst:  322000000 cyc:  235265536 now IPC :1.38291: AVG IPC :1.36585: L2-Pf-HR :0.95356: L2-HR :0.88017: (Sim:0h24m18s) 
CPU  0 inst:  323000003 cyc:  235988252 now IPC :1.38367: AVG IPC :1.36590: L2-Pf-HR :0.95356: L2-HR :0.88016: (Sim:0h24m22s) 
CPU  0 inst:  324000000 cyc:  236705745 now IPC :1.39374: AVG IPC :1.36599: L2-Pf-HR :0.95356: L2-HR :0.88016: (Sim:0h24m27s) 
CPU  0 inst:  325000000 cyc:  237426750 now IPC :1.38695: AVG IPC :1.36605: L2-Pf-HR :0.95355: L2-HR :0.88015: (Sim:0h24m32s) 
CPU  0 inst:  326000002 cyc:  238144750 now IPC :1.39276: AVG IPC :1.36613: L2-Pf-HR :0.95353: L2-HR :0.88013: (Sim:0h24m36s) 
CPU  0 inst:  327000000 cyc:  238866513 now IPC :1.38549: AVG IPC :1.36619: L2-Pf-HR :0.95352: L2-HR :0.88011: (Sim:0h24m41s) 
CPU  0 inst:  328000000 cyc:  239718189 now IPC :1.17416: AVG IPC :1.36551: L2-Pf-HR :0.95344: L2-HR :0.88006: (Sim:0h24m46s) 
CPU  0 inst:  329000003 cyc:  240434825 now IPC :1.39541: AVG IPC :1.36560: L2-Pf-HR :0.95347: L2-HR :0.88008: (Sim:0h24m50s) 
CPU  0 inst:  330000003 cyc:  241152830 now IPC :1.39275: AVG IPC :1.36568: L2-Pf-HR :0.95350: L2-HR :0.88010: (Sim:0h24m55s) 
CPU  0 inst:  331000001 cyc:  241864981 now IPC :1.40419: AVG IPC :1.36579: L2-Pf-HR :0.95354: L2-HR :0.88013: (Sim:0h25m0s) 
CPU  0 inst:  332000000 cyc:  242583501 now IPC :1.39175: AVG IPC :1.36587: L2-Pf-HR :0.95357: L2-HR :0.88016: (Sim:0h25m4s) 
CPU  0 inst:  333000002 cyc:  243300405 now IPC :1.39489: AVG IPC :1.36595: L2-Pf-HR :0.95361: L2-HR :0.88019: (Sim:0h25m9s) 
CPU  0 inst:  334000002 cyc:  244017945 now IPC :1.39365: AVG IPC :1.36604: L2-Pf-HR :0.95365: L2-HR :0.88022: (Sim:0h25m14s) 
CPU  0 inst:  335000003 cyc:  244751766 now IPC :1.36273: AVG IPC :1.36603: L2-Pf-HR :0.95367: L2-HR :0.88023: (Sim:0h25m18s) 
CPU  0 inst:  336000000 cyc:  245512328 now IPC :1.31481: AVG IPC :1.36587: L2-Pf-HR :0.95362: L2-HR :0.88020: (Sim:0h25m23s) 
CPU  0 inst:  337000000 cyc:  246222952 now IPC :1.40721: AVG IPC :1.36599: L2-Pf-HR :0.95363: L2-HR :0.88022: (Sim:0h25m28s) 
CPU  0 inst:  338000002 cyc:  246935583 now IPC :1.40325: AVG IPC :1.36610: L2-Pf-HR :0.95366: L2-HR :0.88024: (Sim:0h25m33s) 
CPU  0 inst:  339000001 cyc:  247650950 now IPC :1.39788: AVG IPC :1.36619: L2-Pf-HR :0.95368: L2-HR :0.88027: (Sim:0h25m37s) 
CPU  0 inst:  340000000 cyc:  248430743 now IPC :1.28239: AVG IPC :1.36592: L2-Pf-HR :0.95363: L2-HR :0.88023: (Sim:0h25m40s) 
CPU  0 inst:  341000003 cyc:  249217644 now IPC :1.27081: AVG IPC :1.36562: L2-Pf-HR :0.95355: L2-HR :0.88016: (Sim:0h25m43s) 
CPU  0 inst:  342000000 cyc:  249929117 now IPC :1.40553: AVG IPC :1.36574: L2-Pf-HR :0.95354: L2-HR :0.88014: (Sim:0h25m47s) 
CPU  0 inst:  343000003 cyc:  250640508 now IPC :1.40570: AVG IPC :1.36585: L2-Pf-HR :0.95355: L2-HR :0.88015: (Sim:0h25m51s) 
CPU  0 inst:  344000000 cyc:  251350027 now IPC :1.40940: AVG IPC :1.36597: L2-Pf-HR :0.95355: L2-HR :0.88015: (Sim:0h25m56s) 
CPU  0 inst:  345000003 cyc:  252062720 now IPC :1.40313: AVG IPC :1.36608: L2-Pf-HR :0.95355: L2-HR :0.88015: (Sim:0h26m1s) 
CPU  0 inst:  346000001 cyc:  252773757 now IPC :1.40639: AVG IPC :1.36619: L2-Pf-HR :0.95354: L2-HR :0.88014: (Sim:0h26m5s) 
CPU  0 inst:  347000002 cyc:  253487353 now IPC :1.40135: AVG IPC :1.36629: L2-Pf-HR :0.95354: L2-HR :0.88013: (Sim:0h26m10s) 
CPU  0 inst:  348000000 cyc:  254326794 now IPC :1.19127: AVG IPC :1.36571: L2-Pf-HR :0.95347: L2-HR :0.88008: (Sim:0h26m15s) 
CPU  0 inst:  349000000 cyc:  255040696 now IPC :1.40075: AVG IPC :1.36581: L2-Pf-HR :0.95349: L2-HR :0.88009: (Sim:0h26m19s) 
CPU  0 inst:  350000002 cyc:  255760088 now IPC :1.39007: AVG IPC :1.36588: L2-Pf-HR :0.95352: L2-HR :0.88011: (Sim:0h26m24s) 
CPU  0 inst:  351000000 cyc:  256477002 now IPC :1.39486: AVG IPC :1.36596: L2-Pf-HR :0.95356: L2-HR :0.88015: (Sim:0h26m29s) 
CPU  0 inst:  352000000 cyc:  257196917 now IPC :1.38905: AVG IPC :1.36603: L2-Pf-HR :0.95359: L2-HR :0.88018: (Sim:0h26m33s) 
CPU  0 inst:  353000001 cyc:  257913015 now IPC :1.39646: AVG IPC :1.36611: L2-Pf-HR :0.95362: L2-HR :0.88020: (Sim:0h26m38s) 
CPU  0 inst:  354000001 cyc:  258625885 now IPC :1.40278: AVG IPC :1.36621: L2-Pf-HR :0.95365: L2-HR :0.88023: (Sim:0h26m42s) 
CPU  0 inst:  355000001 cyc:  259365509 now IPC :1.35204: AVG IPC :1.36617: L2-Pf-HR :0.95365: L2-HR :0.88022: (Sim:0h26m47s) 
CPU  0 inst:  356000000 cyc:  260127582 now IPC :1.31221: AVG IPC :1.36601: L2-Pf-HR :0.95362: L2-HR :0.88021: (Sim:0h26m52s) 
CPU  0 inst:  357000003 cyc:  260843691 now IPC :1.39644: AVG IPC :1.36610: L2-Pf-HR :0.95364: L2-HR :0.88023: (Sim:0h26m56s) 
CPU  0 inst:  358000001 cyc:  261555624 now IPC :1.40462: AVG IPC :1.36620: L2-Pf-HR :0.95366: L2-HR :0.88025: (Sim:0h27m1s) 
CPU  0 inst:  359000001 cyc:  262265141 now IPC :1.40941: AVG IPC :1.36632: L2-Pf-HR :0.95368: L2-HR :0.88027: (Sim:0h27m6s) 
CPU  0 inst:  360000000 cyc:  263063253 now IPC :1.25296: AVG IPC :1.36597: L2-Pf-HR :0.95360: L2-HR :0.88022: (Sim:0h27m10s) 
CPU  0 inst:  361000002 cyc:  263835070 now IPC :1.29565: AVG IPC :1.36577: L2-Pf-HR :0.95356: L2-HR :0.88018: (Sim:0h27m15s) 
CPU  0 inst:  362000001 cyc:  264553090 now IPC :1.39272: AVG IPC :1.36584: L2-Pf-HR :0.95356: L2-HR :0.88017: (Sim:0h27m20s) 
CPU  0 inst:  363000002 cyc:  265269828 now IPC :1.39521: AVG IPC :1.36592: L2-Pf-HR :0.95356: L2-HR :0.88017: (Sim:0h27m24s) 
CPU  0 inst:  364000000 cyc:  265982327 now IPC :1.40351: AVG IPC :1.36602: L2-Pf-HR :0.95357: L2-HR :0.88018: (Sim:0h27m29s) 
CPU  0 inst:  365000001 cyc:  266697091 now IPC :1.39906: AVG IPC :1.36611: L2-Pf-HR :0.95357: L2-HR :0.88018: (Sim:0h27m34s) 
CPU  0 inst:  366000000 cyc:  267417105 now IPC :1.38886: AVG IPC :1.36617: L2-Pf-HR :0.95357: L2-HR :0.88017: (Sim:0h27m38s) 
CPU  0 inst:  367000001 cyc:  268136169 now IPC :1.39070: AVG IPC :1.36624: L2-Pf-HR :0.95357: L2-HR :0.88017: (Sim:0h27m43s) 
CPU  0 inst:  368000000 cyc:  268978282 now IPC :1.18749: AVG IPC :1.36568: L2-Pf-HR :0.95351: L2-HR :0.88012: (Sim:0h27m48s) 
CPU  0 inst:  369000003 cyc:  269683934 now IPC :1.41713: AVG IPC :1.36581: L2-Pf-HR :0.95353: L2-HR :0.88013: (Sim:0h27m52s) 
CPU  0 inst:  370000002 cyc:  270378171 now IPC :1.44043: AVG IPC :1.36600: L2-Pf-HR :0.95355: L2-HR :0.88015: (Sim:0h27m57s) 
CPU  0 inst:  371000003 cyc:  271080242 now IPC :1.42436: AVG IPC :1.36615: L2-Pf-HR :0.95358: L2-HR :0.88018: (Sim:0h28m1s) 
CPU  0 inst:  372000000 cyc:  271786117 now IPC :1.41668: AVG IPC :1.36629: L2-Pf-HR :0.95362: L2-HR :0.88021: (Sim:0h28m6s) 
CPU  0 inst:  373000003 cyc:  272488908 now IPC :1.42290: AVG IPC :1.36643: L2-Pf-HR :0.95365: L2-HR :0.88023: (Sim:0h28m11s) 
CPU  0 inst:  374000001 cyc:  273185565 now IPC :1.43542: AVG IPC :1.36661: L2-Pf-HR :0.95367: L2-HR :0.88025: (Sim:0h28m15s) 
CPU  0 inst:  375000002 cyc:  273917220 now IPC :1.36677: AVG IPC :1.36661: L2-Pf-HR :0.95367: L2-HR :0.88024: (Sim:0h28m20s) 
CPU  0 inst:  376000000 cyc:  274673967 now IPC :1.32144: AVG IPC :1.36649: L2-Pf-HR :0.95364: L2-HR :0.88023: (Sim:0h28m25s) 
CPU  0 inst:  377000003 cyc:  275390674 now IPC :1.39527: AVG IPC :1.36656: L2-Pf-HR :0.95366: L2-HR :0.88025: (Sim:0h28m29s) 
CPU  0 inst:  378000002 cyc:  276108710 now IPC :1.39269: AVG IPC :1.36663: L2-Pf-HR :0.95368: L2-HR :0.88027: (Sim:0h28m34s) 
CPU  0 inst:  379000001 cyc:  276825891 now IPC :1.39435: AVG IPC :1.36670: L2-Pf-HR :0.95370: L2-HR :0.88030: (Sim:0h28m38s) 
CPU  0 inst:  380000000 cyc:  277629335 now IPC :1.24464: AVG IPC :1.36635: L2-Pf-HR :0.95360: L2-HR :0.88022: (Sim:0h28m43s) 
CPU  0 inst:  381000002 cyc:  278390629 now IPC :1.31356: AVG IPC :1.36620: L2-Pf-HR :0.95358: L2-HR :0.88020: (Sim:0h28m48s) 
CPU  0 inst:  382000002 cyc:  279114173 now IPC :1.38209: AVG IPC :1.36624: L2-Pf-HR :0.95357: L2-HR :0.88018: (Sim:0h28m52s) 
CPU  0 inst:  383000002 cyc:  279837330 now IPC :1.38283: AVG IPC :1.36629: L2-Pf-HR :0.95357: L2-HR :0.88018: (Sim:0h28m57s) 
CPU  0 inst:  384000000 cyc:  280562078 now IPC :1.37979: AVG IPC :1.36632: L2-Pf-HR :0.95357: L2-HR :0.88018: (Sim:0h29m2s) 
CPU  0 inst:  385000002 cyc:  281286132 now IPC :1.38112: AVG IPC :1.36636: L2-Pf-HR :0.95357: L2-HR :0.88018: (Sim:0h29m6s) 
CPU  0 inst:  386000001 cyc:  281999789 now IPC :1.40123: AVG IPC :1.36645: L2-Pf-HR :0.95355: L2-HR :0.88016: (Sim:0h29m11s) 
CPU  0 inst:  387000003 cyc:  282728112 now IPC :1.37302: AVG IPC :1.36646: L2-Pf-HR :0.95355: L2-HR :0.88015: (Sim:0h29m16s) 
CPU  0 inst:  388000000 cyc:  283581584 now IPC :1.17168: AVG IPC :1.36588: L2-Pf-HR :0.95349: L2-HR :0.88011: (Sim:0h29m20s) 
CPU  0 inst:  389000003 cyc:  284294389 now IPC :1.40291: AVG IPC :1.36597: L2-Pf-HR :0.95351: L2-HR :0.88012: (Sim:0h29m25s) 
CPU  0 inst:  390000000 cyc:  285003803 now IPC :1.40961: AVG IPC :1.36608: L2-Pf-HR :0.95353: L2-HR :0.88014: (Sim:0h29m30s) 
CPU  0 inst:  391000000 cyc:  285717505 now IPC :1.40114: AVG IPC :1.36617: L2-Pf-HR :0.95357: L2-HR :0.88017: (Sim:0h29m34s) 
CPU  0 inst:  392000000 cyc:  286431894 now IPC :1.39980: AVG IPC :1.36625: L2-Pf-HR :0.95360: L2-HR :0.88020: (Sim:0h29m39s) 
CPU  0 inst:  393000000 cyc:  287143361 now IPC :1.40555: AVG IPC :1.36635: L2-Pf-HR :0.95363: L2-HR :0.88023: (Sim:0h29m44s) 
CPU  0 inst:  394000002 cyc:  287851154 now IPC :1.41285: AVG IPC :1.36646: L2-Pf-HR :0.95366: L2-HR :0.88024: (Sim:0h29m48s) 
CPU  0 inst:  395000001 cyc:  288596672 now IPC :1.34135: AVG IPC :1.36640: L2-Pf-HR :0.95364: L2-HR :0.88023: (Sim:0h29m53s) 
CPU  0 inst:  396000000 cyc:  289336630 now IPC :1.35143: AVG IPC :1.36636: L2-Pf-HR :0.95364: L2-HR :0.88024: (Sim:0h29m57s) 
CPU  0 inst:  397000002 cyc:  290039221 now IPC :1.42331: AVG IPC :1.36650: L2-Pf-HR :0.95365: L2-HR :0.88026: (Sim:0h30m2s) 
CPU  0 inst:  398000002 cyc:  290743871 now IPC :1.41914: AVG IPC :1.36663: L2-Pf-HR :0.95367: L2-HR :0.88028: (Sim:0h30m7s) 
CPU  0 inst:  399000000 cyc:  291451335 now IPC :1.41350: AVG IPC :1.36674: L2-Pf-HR :0.95369: L2-HR :0.88030: (Sim:0h30m11s) 
CPU  0 inst:  400000000 cyc:  292255354 now IPC :1.24375: AVG IPC :1.36640: L2-Pf-HR :0.95360: L2-HR :0.88023: (Sim:0h30m16s) 
CPU  0 inst:  401000003 cyc:  293015696 now IPC :1.31520: AVG IPC :1.36627: L2-Pf-HR :0.95359: L2-HR :0.88021: (Sim:0h30m21s) 
CPU  0 inst:  402000001 cyc:  293733201 now IPC :1.39372: AVG IPC :1.36633: L2-Pf-HR :0.95358: L2-HR :0.88020: (Sim:0h30m25s) 
CPU  0 inst:  403000001 cyc:  294454956 now IPC :1.38551: AVG IPC :1.36638: L2-Pf-HR :0.95357: L2-HR :0.88019: (Sim:0h30m30s) 
CPU  0 inst:  404000000 cyc:  295170284 now IPC :1.39796: AVG IPC :1.36646: L2-Pf-HR :0.95358: L2-HR :0.88020: (Sim:0h30m35s) 
CPU  0 inst:  405000002 cyc:  295894120 now IPC :1.38153: AVG IPC :1.36650: L2-Pf-HR :0.95358: L2-HR :0.88019: (Sim:0h30m39s) 
CPU  0 inst:  406000001 cyc:  296615374 now IPC :1.38647: AVG IPC :1.36654: L2-Pf-HR :0.95358: L2-HR :0.88019: (Sim:0h30m44s) 
CPU  0 inst:  407000002 cyc:  297337819 now IPC :1.38419: AVG IPC :1.36659: L2-Pf-HR :0.95357: L2-HR :0.88018: (Sim:0h30m49s) 
CPU  0 inst:  408000000 cyc:  298191906 now IPC :1.17084: AVG IPC :1.36602: L2-Pf-HR :0.95352: L2-HR :0.88014: (Sim:0h30m53s) 
CPU  0 inst:  409000000 cyc:  298914545 now IPC :1.38382: AVG IPC :1.36607: L2-Pf-HR :0.95354: L2-HR :0.88015: (Sim:0h30m58s) 
CPU  0 inst:  410000001 cyc:  299632054 now IPC :1.39371: AVG IPC :1.36613: L2-Pf-HR :0.95356: L2-HR :0.88016: (Sim:0h31m2s) 
CPU  0 inst:  411000000 cyc:  300344052 now IPC :1.40450: AVG IPC :1.36623: L2-Pf-HR :0.95358: L2-HR :0.88018: (Sim:0h31m5s) 
CPU  0 inst:  412000000 cyc:  301065566 now IPC :1.38597: AVG IPC :1.36627: L2-Pf-HR :0.95361: L2-HR :0.88021: (Sim:0h31m8s) 
CPU  0 inst:  413000003 cyc:  301786045 now IPC :1.38797: AVG IPC :1.36632: L2-Pf-HR :0.95364: L2-HR :0.88023: (Sim:0h31m12s) 
CPU  0 inst:  414000002 cyc:  302498780 now IPC :1.40304: AVG IPC :1.36641: L2-Pf-HR :0.95366: L2-HR :0.88025: (Sim:0h31m17s) 
CPU  0 inst:  415000001 cyc:  303261358 now IPC :1.31134: AVG IPC :1.36627: L2-Pf-HR :0.95363: L2-HR :0.88023: (Sim:0h31m20s) 
CPU  0 inst:  416000000 cyc:  303999192 now IPC :1.35532: AVG IPC :1.36625: L2-Pf-HR :0.95363: L2-HR :0.88023: (Sim:0h31m24s) 
CPU  0 inst:  417000001 cyc:  304708024 now IPC :1.41077: AVG IPC :1.36635: L2-Pf-HR :0.95365: L2-HR :0.88025: (Sim:0h31m27s) 
CPU  0 inst:  418000003 cyc:  305421953 now IPC :1.40070: AVG IPC :1.36643: L2-Pf-HR :0.95367: L2-HR :0.88027: (Sim:0h31m30s) 
CPU  0 inst:  419000001 cyc:  306137455 now IPC :1.39762: AVG IPC :1.36650: L2-Pf-HR :0.95368: L2-HR :0.88029: (Sim:0h31m33s) 
CPU  0 inst:  420000000 cyc:  306951734 now IPC :1.22808: AVG IPC :1.36614: L2-Pf-HR :0.95359: L2-HR :0.88022: (Sim:0h31m37s) 
CPU  0 inst:  421000002 cyc:  307714255 now IPC :1.31144: AVG IPC :1.36600: L2-Pf-HR :0.95358: L2-HR :0.88020: (Sim:0h31m40s) 
CPU  0 inst:  422000001 cyc:  308442529 now IPC :1.37311: AVG IPC :1.36602: L2-Pf-HR :0.95358: L2-HR :0.88020: (Sim:0h31m43s) 
CPU  0 inst:  423000001 cyc:  309170086 now IPC :1.37446: AVG IPC :1.36604: L2-Pf-HR :0.95357: L2-HR :0.88019: (Sim:0h31m47s) 
CPU  0 inst:  424000000 cyc:  309894566 now IPC :1.38030: AVG IPC :1.36607: L2-Pf-HR :0.95356: L2-HR :0.88018: (Sim:0h31m50s) 
CPU  0 inst:  425000002 cyc:  310609433 now IPC :1.39886: AVG IPC :1.36615: L2-Pf-HR :0.95356: L2-HR :0.88018: (Sim:0h31m53s) 
CPU  0 inst:  426000000 cyc:  311337543 now IPC :1.37342: AVG IPC :1.36616: L2-Pf-HR :0.95355: L2-HR :0.88017: (Sim:0h31m57s) 
CPU  0 inst:  427000001 cyc:  312062877 now IPC :1.37868: AVG IPC :1.36619: L2-Pf-HR :0.95354: L2-HR :0.88015: (Sim:0h32m0s) 
CPU  0 inst:  428000000 cyc:  312909422 now IPC :1.18127: AVG IPC :1.36569: L2-Pf-HR :0.95348: L2-HR :0.88010: (Sim:0h32m3s) 
CPU  0 inst:  429000003 cyc:  313615802 now IPC :1.41567: AVG IPC :1.36580: L2-Pf-HR :0.95349: L2-HR :0.88012: (Sim:0h32m8s) 
CPU  0 inst:  430000001 cyc:  314331248 now IPC :1.39773: AVG IPC :1.36588: L2-Pf-HR :0.95352: L2-HR :0.88014: (Sim:0h32m13s) 
CPU  0 inst:  431000001 cyc:  315047055 now IPC :1.39702: AVG IPC :1.36595: L2-Pf-HR :0.95355: L2-HR :0.88016: (Sim:0h32m18s) 
CPU  0 inst:  432000000 cyc:  315762504 now IPC :1.39772: AVG IPC :1.36602: L2-Pf-HR :0.95358: L2-HR :0.88019: (Sim:0h32m22s) 
CPU  0 inst:  433000003 cyc:  316478529 now IPC :1.39660: AVG IPC :1.36609: L2-Pf-HR :0.95361: L2-HR :0.88021: (Sim:0h32m25s) 
CPU  0 inst:  434000000 cyc:  317189800 now IPC :1.40593: AVG IPC :1.36618: L2-Pf-HR :0.95363: L2-HR :0.88023: (Sim:0h32m28s) 
CPU  0 inst:  435000003 cyc:  317936344 now IPC :1.33951: AVG IPC :1.36611: L2-Pf-HR :0.95360: L2-HR :0.88021: (Sim:0h32m31s) 
CPU  0 inst:  436000000 cyc:  318673700 now IPC :1.35619: AVG IPC :1.36609: L2-Pf-HR :0.95360: L2-HR :0.88021: (Sim:0h32m35s) 
CPU  0 inst:  437000003 cyc:  319378507 now IPC :1.41883: AVG IPC :1.36621: L2-Pf-HR :0.95361: L2-HR :0.88023: (Sim:0h32m38s) 
CPU  0 inst:  438000000 cyc:  320086560 now IPC :1.41232: AVG IPC :1.36631: L2-Pf-HR :0.95363: L2-HR :0.88025: (Sim:0h32m41s) 
CPU  0 inst:  439000000 cyc:  320798774 now IPC :1.40407: AVG IPC :1.36639: L2-Pf-HR :0.95364: L2-HR :0.88026: (Sim:0h32m45s) 
CPU  0 inst:  440000000 cyc:  321614847 now IPC :1.22538: AVG IPC :1.36604: L2-Pf-HR :0.95355: L2-HR :0.88019: (Sim:0h32m48s) 
CPU  0 inst:  441000002 cyc:  322379379 now IPC :1.30799: AVG IPC :1.36590: L2-Pf-HR :0.95355: L2-HR :0.88018: (Sim:0h32m52s) 
CPU  0 inst:  442000002 cyc:  323106583 now IPC :1.37513: AVG IPC :1.36592: L2-Pf-HR :0.95354: L2-HR :0.88018: (Sim:0h32m55s) 
CPU  0 inst:  443000002 cyc:  323834884 now IPC :1.37306: AVG IPC :1.36593: L2-Pf-HR :0.95355: L2-HR :0.88018: (Sim:0h32m58s) 
CPU  0 inst:  444000000 cyc:  324560413 now IPC :1.37830: AVG IPC :1.36596: L2-Pf-HR :0.95355: L2-HR :0.88018: (Sim:0h33m2s) 
CPU  0 inst:  445000000 cyc:  325282417 now IPC :1.38503: AVG IPC :1.36601: L2-Pf-HR :0.95355: L2-HR :0.88018: (Sim:0h33m5s) 
CPU  0 inst:  446000000 cyc:  326004745 now IPC :1.38441: AVG IPC :1.36605: L2-Pf-HR :0.95355: L2-HR :0.88017: (Sim:0h33m8s) 
CPU  0 inst:  447000002 cyc:  326734345 now IPC :1.37062: AVG IPC :1.36606: L2-Pf-HR :0.95354: L2-HR :0.88017: (Sim:0h33m11s) 
CPU  0 inst:  448000000 cyc:  327591927 now IPC :1.16607: AVG IPC :1.36553: L2-Pf-HR :0.95350: L2-HR :0.88013: (Sim:0h33m15s) 
CPU  0 inst:  449000001 cyc:  328304877 now IPC :1.40262: AVG IPC :1.36561: L2-Pf-HR :0.95351: L2-HR :0.88014: (Sim:0h33m18s) 
CPU  0 inst:  450000002 cyc:  329020281 now IPC :1.39781: AVG IPC :1.36568: L2-Pf-HR :0.95353: L2-HR :0.88016: (Sim:0h33m21s) 
CPU  0 inst:  451000000 cyc:  329738284 now IPC :1.39275: AVG IPC :1.36574: L2-Pf-HR :0.95356: L2-HR :0.88018: (Sim:0h33m25s) 
CPU  0 inst:  452000000 cyc:  330459321 now IPC :1.38689: AVG IPC :1.36579: L2-Pf-HR :0.95359: L2-HR :0.88021: (Sim:0h33m28s) 
CPU  0 inst:  453000000 cyc:  331175370 now IPC :1.39655: AVG IPC :1.36585: L2-Pf-HR :0.95361: L2-HR :0.88023: (Sim:0h33m31s) 
CPU  0 inst:  454000001 cyc:  331892968 now IPC :1.39354: AVG IPC :1.36591: L2-Pf-HR :0.95364: L2-HR :0.88025: (Sim:0h33m34s) 
CPU  0 inst:  455000003 cyc:  332654562 now IPC :1.31304: AVG IPC :1.36579: L2-Pf-HR :0.95361: L2-HR :0.88023: (Sim:0h33m38s) 
CPU  0 inst:  456000000 cyc:  333390758 now IPC :1.35833: AVG IPC :1.36578: L2-Pf-HR :0.95361: L2-HR :0.88023: (Sim:0h33m41s) 
CPU  0 inst:  457000001 cyc:  334099547 now IPC :1.41086: AVG IPC :1.36587: L2-Pf-HR :0.95362: L2-HR :0.88025: (Sim:0h33m45s) 
CPU  0 inst:  458000000 cyc:  334807903 now IPC :1.41172: AVG IPC :1.36597: L2-Pf-HR :0.95363: L2-HR :0.88026: (Sim:0h33m48s) 
CPU  0 inst:  459000000 cyc:  335525101 now IPC :1.39432: AVG IPC :1.36603: L2-Pf-HR :0.95365: L2-HR :0.88028: (Sim:0h33m53s) 
CPU  0 inst:  460000000 cyc:  336339043 now IPC :1.22859: AVG IPC :1.36570: L2-Pf-HR :0.95356: L2-HR :0.88021: (Sim:0h33m57s) 
CPU  0 inst:  461000003 cyc:  337086200 now IPC :1.33841: AVG IPC :1.36564: L2-Pf-HR :0.95356: L2-HR :0.88020: (Sim:0h34m1s) 
CPU  0 inst:  462000001 cyc:  337802001 now IPC :1.39703: AVG IPC :1.36570: L2-Pf-HR :0.95355: L2-HR :0.88019: (Sim:0h34m4s) 
CPU  0 inst:  463000002 cyc:  338522265 now IPC :1.38838: AVG IPC :1.36575: L2-Pf-HR :0.95355: L2-HR :0.88019: (Sim:0h34m8s) 
CPU  0 inst:  464000000 cyc:  339235902 now IPC :1.40127: AVG IPC :1.36583: L2-Pf-HR :0.95355: L2-HR :0.88019: (Sim:0h34m12s) 
CPU  0 inst:  465000000 cyc:  339954352 now IPC :1.39189: AVG IPC :1.36588: L2-Pf-HR :0.95355: L2-HR :0.88018: (Sim:0h34m17s) 
CPU  0 inst:  466000002 cyc:  340670558 now IPC :1.39625: AVG IPC :1.36595: L2-Pf-HR :0.95354: L2-HR :0.88017: (Sim:0h34m22s) 
CPU  0 inst:  467000000 cyc:  341391996 now IPC :1.38612: AVG IPC :1.36599: L2-Pf-HR :0.95353: L2-HR :0.88016: (Sim:0h34m26s) 
CPU  0 inst:  468000000 cyc:  342238176 now IPC :1.18178: AVG IPC :1.36553: L2-Pf-HR :0.95348: L2-HR :0.88013: (Sim:0h34m31s) 
CPU  0 inst:  469000000 cyc:  342956512 now IPC :1.39211: AVG IPC :1.36559: L2-Pf-HR :0.95351: L2-HR :0.88014: (Sim:0h34m36s) 
CPU  0 inst:  470000000 cyc:  343673089 now IPC :1.39552: AVG IPC :1.36565: L2-Pf-HR :0.95353: L2-HR :0.88016: (Sim:0h34m40s) 
CPU  0 inst:  471000002 cyc:  344391147 now IPC :1.39265: AVG IPC :1.36571: L2-Pf-HR :0.95356: L2-HR :0.88018: (Sim:0h34m45s) 
CPU  0 inst:  472000000 cyc:  345109669 now IPC :1.39174: AVG IPC :1.36576: L2-Pf-HR :0.95358: L2-HR :0.88020: (Sim:0h34m50s) 
CPU  0 inst:  473000002 cyc:  345827012 now IPC :1.39404: AVG IPC :1.36582: L2-Pf-HR :0.95361: L2-HR :0.88022: (Sim:0h34m54s) 
CPU  0 inst:  474000001 cyc:  346544848 now IPC :1.39307: AVG IPC :1.36588: L2-Pf-HR :0.95363: L2-HR :0.88024: (Sim:0h34m59s) 
CPU  0 inst:  475000002 cyc:  347307629 now IPC :1.31099: AVG IPC :1.36576: L2-Pf-HR :0.95360: L2-HR :0.88022: (Sim:0h35m4s) 
CPU  0 inst:  476000000 cyc:  348038056 now IPC :1.36906: AVG IPC :1.36576: L2-Pf-HR :0.95360: L2-HR :0.88022: (Sim:0h35m8s) 
CPU  0 inst:  477000002 cyc:  348745178 now IPC :1.41419: AVG IPC :1.36586: L2-Pf-HR :0.95361: L2-HR :0.88024: (Sim:0h35m13s) 
CPU  0 inst:  478000003 cyc:  349459907 now IPC :1.39913: AVG IPC :1.36593: L2-Pf-HR :0.95363: L2-HR :0.88026: (Sim:0h35m18s) 
CPU  0 inst:  479000001 cyc:  350174040 now IPC :1.40030: AVG IPC :1.36600: L2-Pf-HR :0.95365: L2-HR :0.88027: (Sim:0h35m22s) 
CPU  0 inst:  480000000 cyc:  350991487 now IPC :1.22332: AVG IPC :1.36567: L2-Pf-HR :0.95356: L2-HR :0.88021: (Sim:0h35m27s) 
CPU  0 inst:  481000002 cyc:  351740608 now IPC :1.33490: AVG IPC :1.36560: L2-Pf-HR :0.95355: L2-HR :0.88020: (Sim:0h35m32s) 
CPU  0 inst:  482000003 cyc:  352461101 now IPC :1.38794: AVG IPC :1.36565: L2-Pf-HR :0.95355: L2-HR :0.88019: (Sim:0h35m37s) 
CPU  0 inst:  483000003 cyc:  353182965 now IPC :1.38530: AVG IPC :1.36569: L2-Pf-HR :0.95355: L2-HR :0.88019: (Sim:0h35m41s) 
CPU  0 inst:  484000000 cyc:  353901142 now IPC :1.39241: AVG IPC :1.36574: L2-Pf-HR :0.95355: L2-HR :0.88019: (Sim:0h35m46s) 
CPU  0 inst:  485000001 cyc:  354613710 now IPC :1.40338: AVG IPC :1.36582: L2-Pf-HR :0.95355: L2-HR :0.88018: (Sim:0h35m51s) 
CPU  0 inst:  486000000 cyc:  355341544 now IPC :1.37394: AVG IPC :1.36583: L2-Pf-HR :0.95355: L2-HR :0.88018: (Sim:0h35m55s) 
CPU  0 inst:  487000000 cyc:  356060879 now IPC :1.39017: AVG IPC :1.36588: L2-Pf-HR :0.95354: L2-HR :0.88017: (Sim:0h36m0s) 
CPU  0 inst:  488000000 cyc:  356910367 now IPC :1.17718: AVG IPC :1.36543: L2-Pf-HR :0.95350: L2-HR :0.88014: (Sim:0h36m5s) 
CPU  0 inst:  489000000 cyc:  357627295 now IPC :1.39484: AVG IPC :1.36549: L2-Pf-HR :0.95352: L2-HR :0.88015: (Sim:0h36m9s) 
CPU  0 inst:  490000001 cyc:  358344220 now IPC :1.39485: AVG IPC :1.36555: L2-Pf-HR :0.95354: L2-HR :0.88017: (Sim:0h36m14s) 
CPU  0 inst:  491000003 cyc:  359061045 now IPC :1.39504: AVG IPC :1.36561: L2-Pf-HR :0.95356: L2-HR :0.88019: (Sim:0h36m19s) 
CPU  0 inst:  492000000 cyc:  359775523 now IPC :1.39962: AVG IPC :1.36568: L2-Pf-HR :0.95359: L2-HR :0.88021: (Sim:0h36m23s) 
CPU  0 inst:  493000001 cyc:  360490544 now IPC :1.39856: AVG IPC :1.36574: L2-Pf-HR :0.95362: L2-HR :0.88023: (Sim:0h36m28s) 
CPU  0 inst:  494000003 cyc:  361203064 now IPC :1.40347: AVG IPC :1.36582: L2-Pf-HR :0.95364: L2-HR :0.88025: (Sim:0h36m33s) 
CPU  0 inst:  495000000 cyc:  361962322 now IPC :1.31707: AVG IPC :1.36571: L2-Pf-HR :0.95361: L2-HR :0.88023: (Sim:0h36m37s) 
CPU  0 inst:  496000000 cyc:  362698218 now IPC :1.35889: AVG IPC :1.36570: L2-Pf-HR :0.95362: L2-HR :0.88023: (Sim:0h36m42s) 
CPU  0 inst:  497000003 cyc:  363407951 now IPC :1.40898: AVG IPC :1.36579: L2-Pf-HR :0.95364: L2-HR :0.88025: (Sim:0h36m47s) 
CPU  0 inst:  498000001 cyc:  364120219 now IPC :1.40396: AVG IPC :1.36586: L2-Pf-HR :0.95365: L2-HR :0.88027: (Sim:0h36m52s) 
CPU  0 inst:  499000000 cyc:  364829248 now IPC :1.41038: AVG IPC :1.36595: L2-Pf-HR :0.95366: L2-HR :0.88028: (Sim:0h36m56s) 
CPU  0 inst:  500000000 cyc:  365651971 now IPC :1.21548: AVG IPC :1.36561: L2-Pf-HR :0.95358: L2-HR :0.88022: (Sim:0h37m0s) 
CPU  0 inst:  501000000 cyc:  366411707 now IPC :1.31625: AVG IPC :1.36550: L2-Pf-HR :0.95357: L2-HR :0.88021: (Sim:0h37m3s) 
CPU  0 inst:  502000003 cyc:  367134595 now IPC :1.38334: AVG IPC :1.36554: L2-Pf-HR :0.95357: L2-HR :0.88020: (Sim:0h37m6s) 
CPU  0 inst:  503000002 cyc:  367862245 now IPC :1.37429: AVG IPC :1.36556: L2-Pf-HR :0.95357: L2-HR :0.88020: (Sim:0h37m9s) 
CPU  0 inst:  504000000 cyc:  368586226 now IPC :1.38125: AVG IPC :1.36559: L2-Pf-HR :0.95356: L2-HR :0.88019: (Sim:0h37m12s) 
CPU  0 inst:  505000001 cyc:  369310074 now IPC :1.38151: AVG IPC :1.36562: L2-Pf-HR :0.95356: L2-HR :0.88019: (Sim:0h37m16s) 
CPU  0 inst:  506000001 cyc:  370032591 now IPC :1.38405: AVG IPC :1.36566: L2-Pf-HR :0.95355: L2-HR :0.88018: (Sim:0h37m20s) 
CPU  0 inst:  507000000 cyc:  370755743 now IPC :1.38283: AVG IPC :1.36569: L2-Pf-HR :0.95354: L2-HR :0.88017: (Sim:0h37m25s) 
CPU  0 inst:  508000000 cyc:  371610819 now IPC :1.16949: AVG IPC :1.36524: L2-Pf-HR :0.95350: L2-HR :0.88014: (Sim:0h37m30s) 
CPU  0 inst:  509000001 cyc:  372328738 now IPC :1.39292: AVG IPC :1.36529: L2-Pf-HR :0.95352: L2-HR :0.88015: (Sim:0h37m34s) 
CPU  0 inst:  510000003 cyc:  373045588 now IPC :1.39499: AVG IPC :1.36535: L2-Pf-HR :0.95354: L2-HR :0.88016: (Sim:0h37m39s) 
CPU  0 inst:  511000002 cyc:  373761206 now IPC :1.39739: AVG IPC :1.36541: L2-Pf-HR :0.95356: L2-HR :0.88019: (Sim:0h37m44s) 
CPU  0 inst:  512000000 cyc:  374479442 now IPC :1.39230: AVG IPC :1.36546: L2-Pf-HR :0.95359: L2-HR :0.88021: (Sim:0h37m48s) 
CPU  0 inst:  513000001 cyc:  375192911 now IPC :1.40160: AVG IPC :1.36553: L2-Pf-HR :0.95361: L2-HR :0.88022: (Sim:0h37m53s) 
CPU  0 inst:  514000000 cyc:  375910622 now IPC :1.39332: AVG IPC :1.36558: L2-Pf-HR :0.95363: L2-HR :0.88024: (Sim:0h37m58s) 
CPU  0 inst:  515000000 cyc:  376667074 now IPC :1.32196: AVG IPC :1.36549: L2-Pf-HR :0.95361: L2-HR :0.88022: (Sim:0h38m2s) 
CPU  0 inst:  516000000 cyc:  377395523 now IPC :1.37278: AVG IPC :1.36551: L2-Pf-HR :0.95361: L2-HR :0.88023: (Sim:0h38m7s) 
CPU  0 inst:  517000003 cyc:  378105410 now IPC :1.40868: AVG IPC :1.36559: L2-Pf-HR :0.95362: L2-HR :0.88024: (Sim:0h38m12s) 
CPU  0 inst:  518000000 cyc:  378819269 now IPC :1.40083: AVG IPC :1.36566: L2-Pf-HR :0.95363: L2-HR :0.88025: (Sim:0h38m16s) 
CPU  0 inst:  519000001 cyc:  379528052 now IPC :1.41087: AVG IPC :1.36574: L2-Pf-HR :0.95364: L2-HR :0.88026: (Sim:0h38m21s) 
CPU  0 inst:  520000000 cyc:  380346511 now IPC :1.22181: AVG IPC :1.36543: L2-Pf-HR :0.95356: L2-HR :0.88020: (Sim:0h38m26s) 
CPU  0 inst:  521000003 cyc:  381107152 now IPC :1.31468: AVG IPC :1.36533: L2-Pf-HR :0.95355: L2-HR :0.88019: (Sim:0h38m31s) 
CPU  0 inst:  522000000 cyc:  381834080 now IPC :1.37565: AVG IPC :1.36535: L2-Pf-HR :0.95355: L2-HR :0.88019: (Sim:0h38m35s) 
CPU  0 inst:  523000001 cyc:  382567052 now IPC :1.36431: AVG IPC :1.36535: L2-Pf-HR :0.95356: L2-HR :0.88019: (Sim:0h38m40s) 
CPU  0 inst:  524000000 cyc:  383292353 now IPC :1.37874: AVG IPC :1.36537: L2-Pf-HR :0.95356: L2-HR :0.88019: (Sim:0h38m45s) 
CPU  0 inst:  525000002 cyc:  384016168 now IPC :1.38157: AVG IPC :1.36540: L2-Pf-HR :0.95356: L2-HR :0.88019: (Sim:0h38m49s) 
CPU  0 inst:  526000003 cyc:  384745960 now IPC :1.37025: AVG IPC :1.36541: L2-Pf-HR :0.95356: L2-HR :0.88019: (Sim:0h38m54s) 
CPU  0 inst:  527000003 cyc:  385475604 now IPC :1.37053: AVG IPC :1.36542: L2-Pf-HR :0.95356: L2-HR :0.88018: (Sim:0h38m59s) 
CPU  0 inst:  528000000 cyc:  386323596 now IPC :1.17925: AVG IPC :1.36501: L2-Pf-HR :0.95351: L2-HR :0.88015: (Sim:0h39m3s) 
CPU  0 inst:  529000000 cyc:  387034936 now IPC :1.40580: AVG IPC :1.36509: L2-Pf-HR :0.95353: L2-HR :0.88016: (Sim:0h39m8s) 
CPU  0 inst:  530000000 cyc:  387745716 now IPC :1.40691: AVG IPC :1.36516: L2-Pf-HR :0.95356: L2-HR :0.88018: (Sim:0h39m13s) 
CPU  0 inst:  531000002 cyc:  388451536 now IPC :1.41679: AVG IPC :1.36526: L2-Pf-HR :0.95358: L2-HR :0.88020: (Sim:0h39m17s) 
CPU  0 inst:  532000000 cyc:  389162947 now IPC :1.40565: AVG IPC :1.36533: L2-Pf-HR :0.95360: L2-HR :0.88022: (Sim:0h39m22s) 
CPU  0 inst:  533000000 cyc:  389872623 now IPC :1.40909: AVG IPC :1.36541: L2-Pf-HR :0.95362: L2-HR :0.88024: (Sim:0h39m26s) 
CPU  0 inst:  534000001 cyc:  390577613 now IPC :1.41846: AVG IPC :1.36551: L2-Pf-HR :0.95364: L2-HR :0.88025: (Sim:0h39m29s) 
CPU  0 inst:  535000001 cyc:  391341207 now IPC :1.30960: AVG IPC :1.36540: L2-Pf-HR :0.95362: L2-HR :0.88023: (Sim:0h39m33s) 
CPU  0 inst:  536000000 cyc:  392069836 now IPC :1.37244: AVG IPC :1.36541: L2-Pf-HR :0.95362: L2-HR :0.88023: (Sim:0h39m36s) 
CPU  0 inst:  537000000 cyc:  392781200 now IPC :1.40575: AVG IPC :1.36549: L2-Pf-HR :0.95363: L2-HR :0.88025: (Sim:0h39m39s) 
CPU  0 inst:  538000002 cyc:  393496342 now IPC :1.39833: AVG IPC :1.36555: L2-Pf-HR :0.95365: L2-HR :0.88026: (Sim:0h39m42s) 
CPU  0 inst:  539000003 cyc:  394200711 now IPC :1.41971: AVG IPC :1.36564: L2-Pf-HR :0.95365: L2-HR :0.88028: (Sim:0h39m45s) 
CPU  0 inst:  540000000 cyc:  395025781 now IPC :1.21201: AVG IPC :1.36532: L2-Pf-HR :0.95358: L2-HR :0.88022: (Sim:0h39m49s) 
CPU  0 inst:  541000000 cyc:  395774459 now IPC :1.33569: AVG IPC :1.36526: L2-Pf-HR :0.95357: L2-HR :0.88021: (Sim:0h39m52s) 
CPU  0 inst:  542000000 cyc:  396489593 now IPC :1.39834: AVG IPC :1.36532: L2-Pf-HR :0.95357: L2-HR :0.88020: (Sim:0h39m55s) 
CPU  0 inst:  543000003 cyc:  397214708 now IPC :1.37910: AVG IPC :1.36535: L2-Pf-HR :0.95357: L2-HR :0.88020: (Sim:0h39m59s) 
CPU  0 inst:  544000000 cyc:  397941814 now IPC :1.37531: AVG IPC :1.36537: L2-Pf-HR :0.95357: L2-HR :0.88020: (Sim:0h40m4s) 
CPU  0 inst:  545000001 cyc:  398663004 now IPC :1.38660: AVG IPC :1.36541: L2-Pf-HR :0.95357: L2-HR :0.88020: (Sim:0h40m9s) 
CPU  0 inst:  546000002 cyc:  399387688 now IPC :1.37991: AVG IPC :1.36543: L2-Pf-HR :0.95357: L2-HR :0.88020: (Sim:0h40m14s) 
CPU  0 inst:  547000001 cyc:  400108323 now IPC :1.38766: AVG IPC :1.36547: L2-Pf-HR :0.95356: L2-HR :0.88019: (Sim:0h40m18s) 
CPU  0 inst:  548000000 cyc:  400956082 now IPC :1.17958: AVG IPC :1.36508: L2-Pf-HR :0.95352: L2-HR :0.88016: (Sim:0h40m23s) 
CPU  0 inst:  549000002 cyc:  401661704 now IPC :1.41719: AVG IPC :1.36517: L2-Pf-HR :0.95353: L2-HR :0.88017: (Sim:0h40m28s) 
CPU  0 inst:  550000001 cyc:  402367853 now IPC :1.41613: AVG IPC :1.36526: L2-Pf-HR :0.95355: L2-HR :0.88018: (Sim:0h40m33s) 
CPU  0 inst:  551000002 cyc:  403075086 now IPC :1.41396: AVG IPC :1.36535: L2-Pf-HR :0.95358: L2-HR :0.88020: (Sim:0h40m36s) 
CPU  0 inst:  552000000 cyc:  403781477 now IPC :1.41564: AVG IPC :1.36543: L2-Pf-HR :0.95360: L2-HR :0.88022: (Sim:0h40m39s) 
CPU  0 inst:  553000002 cyc:  404488789 now IPC :1.41381: AVG IPC :1.36552: L2-Pf-HR :0.95363: L2-HR :0.88024: (Sim:0h40m43s) 
CPU  0 inst:  554000000 cyc:  405196144 now IPC :1.41371: AVG IPC :1.36560: L2-Pf-HR :0.95365: L2-HR :0.88026: (Sim:0h40m46s) 
CPU  0 inst:  555000000 cyc:  405954217 now IPC :1.31913: AVG IPC :1.36552: L2-Pf-HR :0.95363: L2-HR :0.88024: (Sim:0h40m50s) 
CPU  0 inst:  556000000 cyc:  406666955 now IPC :1.40304: AVG IPC :1.36558: L2-Pf-HR :0.95363: L2-HR :0.88025: (Sim:0h40m53s) 
CPU  0 inst:  557000003 cyc:  407363378 now IPC :1.43591: AVG IPC :1.36570: L2-Pf-HR :0.95364: L2-HR :0.88026: (Sim:0h40m56s) 
CPU  0 inst:  558000001 cyc:  408063052 now IPC :1.42923: AVG IPC :1.36581: L2-Pf-HR :0.95365: L2-HR :0.88028: (Sim:0h40m59s) 
CPU  0 inst:  559000002 cyc:  408753075 now IPC :1.44923: AVG IPC :1.36595: L2-Pf-HR :0.95366: L2-HR :0.88029: (Sim:0h41m3s) 
CPU  0 inst:  560000000 cyc:  409572551 now IPC :1.22029: AVG IPC :1.36566: L2-Pf-HR :0.95358: L2-HR :0.88023: (Sim:0h41m6s) 
CPU  0 inst:  561000002 cyc:  410319034 now IPC :1.33962: AVG IPC :1.36561: L2-Pf-HR :0.95357: L2-HR :0.88022: (Sim:0h41m9s) 
CPU  0 inst:  562000002 cyc:  411037003 now IPC :1.39282: AVG IPC :1.36566: L2-Pf-HR :0.95357: L2-HR :0.88021: (Sim:0h41m12s) 
CPU  0 inst:  563000002 cyc:  411756452 now IPC :1.38995: AVG IPC :1.36570: L2-Pf-HR :0.95357: L2-HR :0.88021: (Sim:0h41m16s) 
CPU  0 inst:  564000000 cyc:  412474987 now IPC :1.39172: AVG IPC :1.36575: L2-Pf-HR :0.95357: L2-HR :0.88021: (Sim:0h41m19s) 
CPU  0 inst:  565000003 cyc:  413190919 now IPC :1.39678: AVG IPC :1.36580: L2-Pf-HR :0.95357: L2-HR :0.88021: (Sim:0h41m24s) 
CPU  0 inst:  566000003 cyc:  413910257 now IPC :1.39017: AVG IPC :1.36585: L2-Pf-HR :0.95357: L2-HR :0.88020: (Sim:0h41m28s) 
CPU  0 inst:  567000001 cyc:  414629334 now IPC :1.39067: AVG IPC :1.36589: L2-Pf-HR :0.95356: L2-HR :0.88019: (Sim:0h41m33s) 
CPU  0 inst:  568000000 cyc:  415474391 now IPC :1.18335: AVG IPC :1.36552: L2-Pf-HR :0.95352: L2-HR :0.88016: (Sim:0h41m38s) 
CPU  0 inst:  569000000 cyc:  416183899 now IPC :1.40943: AVG IPC :1.36559: L2-Pf-HR :0.95354: L2-HR :0.88017: (Sim:0h41m43s) 
CPU  0 inst:  570000002 cyc:  416893202 now IPC :1.40984: AVG IPC :1.36567: L2-Pf-HR :0.95356: L2-HR :0.88019: (Sim:0h41m48s) 
CPU  0 inst:  571000002 cyc:  417601501 now IPC :1.41183: AVG IPC :1.36575: L2-Pf-HR :0.95358: L2-HR :0.88021: (Sim:0h41m53s) 
CPU  0 inst:  572000000 cyc:  418310283 now IPC :1.41087: AVG IPC :1.36582: L2-Pf-HR :0.95360: L2-HR :0.88022: (Sim:0h41m58s) 
CPU  0 inst:  573000000 cyc:  419018161 now IPC :1.41267: AVG IPC :1.36590: L2-Pf-HR :0.95362: L2-HR :0.88024: (Sim:0h42m2s) 
CPU  0 inst:  574000003 cyc:  419721027 now IPC :1.42275: AVG IPC :1.36600: L2-Pf-HR :0.95364: L2-HR :0.88025: (Sim:0h42m6s) 
CPU  0 inst:  575000002 cyc:  420487756 now IPC :1.30424: AVG IPC :1.36588: L2-Pf-HR :0.95362: L2-HR :0.88024: (Sim:0h42m10s) 
CPU  0 inst:  576000000 cyc:  421192527 now IPC :1.41890: AVG IPC :1.36597: L2-Pf-HR :0.95362: L2-HR :0.88024: (Sim:0h42m14s) 
CPU  0 inst:  577000003 cyc:  421884191 now IPC :1.44579: AVG IPC :1.36610: L2-Pf-HR :0.95363: L2-HR :0.88025: (Sim:0h42m19s) 
CPU  0 inst:  578000003 cyc:  422575508 now IPC :1.44651: AVG IPC :1.36624: L2-Pf-HR :0.95364: L2-HR :0.88026: (Sim:0h42m23s) 
CPU  0 inst:  579000003 cyc:  423271883 now IPC :1.43601: AVG IPC :1.36635: L2-Pf-HR :0.95365: L2-HR :0.88028: (Sim:0h42m28s) 
CPU  0 inst:  580000000 cyc:  424091198 now IPC :1.22053: AVG IPC :1.36607: L2-Pf-HR :0.95358: L2-HR :0.88022: (Sim:0h42m33s) 
CPU  0 inst:  581000001 cyc:  424838498 now IPC :1.33815: AVG IPC :1.36602: L2-Pf-HR :0.95357: L2-HR :0.88021: (Sim:0h42m37s) 
CPU  0 inst:  582000000 cyc:  425555383 now IPC :1.39492: AVG IPC :1.36607: L2-Pf-HR :0.95356: L2-HR :0.88020: (Sim:0h42m41s) 
CPU  0 inst:  583000001 cyc:  426279664 now IPC :1.38068: AVG IPC :1.36609: L2-Pf-HR :0.95356: L2-HR :0.88020: (Sim:0h42m45s) 
CPU  0 inst:  584000000 cyc:  427004521 now IPC :1.37958: AVG IPC :1.36612: L2-Pf-HR :0.95355: L2-HR :0.88019: (Sim:0h42m48s) 
CPU  0 inst:  585000003 cyc:  427726841 now IPC :1.38443: AVG IPC :1.36615: L2-Pf-HR :0.95355: L2-HR :0.88019: (Sim:0h42m51s) 
CPU  0 inst:  586000000 cyc:  428453632 now IPC :1.37591: AVG IPC :1.36616: L2-Pf-HR :0.95355: L2-HR :0.88018: (Sim:0h42m56s) 
CPU  0 inst:  587000001 cyc:  429180428 now IPC :1.37590: AVG IPC :1.36618: L2-Pf-HR :0.95354: L2-HR :0.88017: (Sim:0h43m0s) 
CPU  0 inst:  588000000 cyc:  430028429 now IPC :1.17924: AVG IPC :1.36581: L2-Pf-HR :0.95350: L2-HR :0.88014: (Sim:0h43m5s) 
CPU  0 inst:  589000003 cyc:  430740727 now IPC :1.40391: AVG IPC :1.36587: L2-Pf-HR :0.95351: L2-HR :0.88015: (Sim:0h43m10s) 
CPU  0 inst:  590000000 cyc:  431452977 now IPC :1.40400: AVG IPC :1.36594: L2-Pf-HR :0.95353: L2-HR :0.88017: (Sim:0h43m14s) 
CPU  0 inst:  591000000 cyc:  432169071 now IPC :1.39646: AVG IPC :1.36599: L2-Pf-HR :0.95355: L2-HR :0.88019: (Sim:0h43m19s) 
CPU  0 inst:  592000000 cyc:  432882699 now IPC :1.40129: AVG IPC :1.36605: L2-Pf-HR :0.95357: L2-HR :0.88020: (Sim:0h43m24s) 
CPU  0 inst:  593000002 cyc:  433594113 now IPC :1.40565: AVG IPC :1.36611: L2-Pf-HR :0.95359: L2-HR :0.88022: (Sim:0h43m28s) 
CPU  0 inst:  594000000 cyc:  434300942 now IPC :1.41477: AVG IPC :1.36619: L2-Pf-HR :0.95361: L2-HR :0.88023: (Sim:0h43m33s) 
CPU  0 inst:  595000001 cyc:  435069163 now IPC :1.30171: AVG IPC :1.36608: L2-Pf-HR :0.95358: L2-HR :0.88021: (Sim:0h43m38s) 
CPU  0 inst:  596000000 cyc:  435774529 now IPC :1.41770: AVG IPC :1.36616: L2-Pf-HR :0.95359: L2-HR :0.88022: (Sim:0h43m42s) 
CPU  0 inst:  597000000 cyc:  436470749 now IPC :1.43633: AVG IPC :1.36627: L2-Pf-HR :0.95360: L2-HR :0.88023: (Sim:0h43m47s) 
CPU  0 inst:  598000001 cyc:  437167606 now IPC :1.43502: AVG IPC :1.36638: L2-Pf-HR :0.95361: L2-HR :0.88024: (Sim:0h43m52s) 
CPU  0 inst:  599000003 cyc:  437863438 now IPC :1.43713: AVG IPC :1.36649: L2-Pf-HR :0.95363: L2-HR :0.88026: (Sim:0h43m56s) 
CPU  0 inst:  600000000 cyc:  438684642 now IPC :1.21772: AVG IPC :1.36622: L2-Pf-HR :0.95355: L2-HR :0.88020: (Sim:0h44m1s) 
CPU  0 inst:  601000001 cyc:  439425428 now IPC :1.34992: AVG IPC :1.36619: L2-Pf-HR :0.95355: L2-HR :0.88019: (Sim:0h44m6s) 
CPU  0 inst:  602000003 cyc:  440147753 now IPC :1.38442: AVG IPC :1.36622: L2-Pf-HR :0.95354: L2-HR :0.88018: (Sim:0h44m10s) 
CPU  0 inst:  603000003 cyc:  440873590 now IPC :1.37772: AVG IPC :1.36624: L2-Pf-HR :0.95355: L2-HR :0.88018: (Sim:0h44m15s) 
CPU  0 inst:  604000000 cyc:  441596508 now IPC :1.38328: AVG IPC :1.36626: L2-Pf-HR :0.95354: L2-HR :0.88018: (Sim:0h44m20s) 
CPU  0 inst:  605000002 cyc:  442323842 now IPC :1.37489: AVG IPC :1.36628: L2-Pf-HR :0.95354: L2-HR :0.88017: (Sim:0h44m24s) 
CPU  0 inst:  606000000 cyc:  443051916 now IPC :1.37348: AVG IPC :1.36629: L2-Pf-HR :0.95353: L2-HR :0.88017: (Sim:0h44m30s) 
CPU  0 inst:  607000002 cyc:  443778949 now IPC :1.37546: AVG IPC :1.36631: L2-Pf-HR :0.95353: L2-HR :0.88016: (Sim:0h44m34s) 
CPU  0 inst:  608000000 cyc:  444633910 now IPC :1.16964: AVG IPC :1.36593: L2-Pf-HR :0.95349: L2-HR :0.88013: (Sim:0h44m39s) 
CPU  0 inst:  609000003 cyc:  445344480 now IPC :1.40733: AVG IPC :1.36599: L2-Pf-HR :0.95350: L2-HR :0.88014: (Sim:0h44m44s) 
CPU  0 inst:  610000002 cyc:  446056561 now IPC :1.40433: AVG IPC :1.36605: L2-Pf-HR :0.95351: L2-HR :0.88015: (Sim:0h44m48s) 
CPU  0 inst:  611000002 cyc:  446774184 now IPC :1.39349: AVG IPC :1.36610: L2-Pf-HR :0.95353: L2-HR :0.88017: (Sim:0h44m53s) 
CPU  0 inst:  612000000 cyc:  447492863 now IPC :1.39144: AVG IPC :1.36614: L2-Pf-HR :0.95355: L2-HR :0.88019: (Sim:0h44m57s) 
CPU  0 inst:  613000000 cyc:  448210283 now IPC :1.39388: AVG IPC :1.36618: L2-Pf-HR :0.95357: L2-HR :0.88020: (Sim:0h45m1s) 
CPU  0 inst:  614000000 cyc:  448927192 now IPC :1.39488: AVG IPC :1.36623: L2-Pf-HR :0.95360: L2-HR :0.88022: (Sim:0h45m6s) 
CPU  0 inst:  615000001 cyc:  449701267 now IPC :1.29187: AVG IPC :1.36610: L2-Pf-HR :0.95358: L2-HR :0.88020: (Sim:0h45m11s) 
CPU  0 inst:  616000000 cyc:  450409596 now IPC :1.41177: AVG IPC :1.36617: L2-Pf-HR :0.95358: L2-HR :0.88021: (Sim:0h45m14s) 
CPU  0 inst:  617000000 cyc:  451108744 now IPC :1.43031: AVG IPC :1.36627: L2-Pf-HR :0.95359: L2-HR :0.88022: (Sim:0h45m19s) 
CPU  0 inst:  618000001 cyc:  451809612 now IPC :1.42680: AVG IPC :1.36637: L2-Pf-HR :0.95360: L2-HR :0.88023: (Sim:0h45m23s) 
CPU  0 inst:  619000002 cyc:  452505207 now IPC :1.43762: AVG IPC :1.36648: L2-Pf-HR :0.95362: L2-HR :0.88025: (Sim:0h45m27s) 
CPU  0 inst:  620000000 cyc:  453329266 now IPC :1.21350: AVG IPC :1.36620: L2-Pf-HR :0.95355: L2-HR :0.88019: (Sim:0h45m31s) 
CPU  0 inst:  621000000 cyc:  454071798 now IPC :1.34674: AVG IPC :1.36617: L2-Pf-HR :0.95354: L2-HR :0.88018: (Sim:0h45m35s) 
CPU  0 inst:  622000002 cyc:  454794592 now IPC :1.38352: AVG IPC :1.36619: L2-Pf-HR :0.95354: L2-HR :0.88018: (Sim:0h45m40s) 
CPU  0 inst:  623000001 cyc:  455520538 now IPC :1.37751: AVG IPC :1.36621: L2-Pf-HR :0.95355: L2-HR :0.88018: (Sim:0h45m44s) 
CPU  0 inst:  624000000 cyc:  456242447 now IPC :1.38521: AVG IPC :1.36624: L2-Pf-HR :0.95354: L2-HR :0.88018: (Sim:0h45m49s) 
CPU  0 inst:  625000003 cyc:  456959986 now IPC :1.39366: AVG IPC :1.36629: L2-Pf-HR :0.95354: L2-HR :0.88018: (Sim:0h45m54s) 
CPU  0 inst:  626000001 cyc:  457683061 now IPC :1.38298: AVG IPC :1.36631: L2-Pf-HR :0.95353: L2-HR :0.88017: (Sim:0h45m59s) 
CPU  0 inst:  627000001 cyc:  458407120 now IPC :1.38110: AVG IPC :1.36634: L2-Pf-HR :0.95352: L2-HR :0.88015: (Sim:0h46m3s) 
[...]
CPU  0 inst: 1494000003 cyc: 1860605160 now IPC :1.40737: AVG IPC :0.80231: L2-Pf-HR :0.82194: L2-HR :0.79507: (Sim:2h6m1s) 
CPU  0 inst: 1495000000 cyc: 1861199192 now IPC :1.68341: AVG IPC :0.80259: L2-Pf-HR :0.82194: L2-HR :0.79510: (Sim:2h6m6s) 
CPU  0 inst: 1496000000 cyc: 1861772447 now IPC :1.74442: AVG IPC :0.80288: L2-Pf-HR :0.82192: L2-HR :0.79511: (Sim:2h6m10s) 
CPU  0 inst: 1497000003 cyc: 1862369600 now IPC :1.67462: AVG IPC :0.80316: L2-Pf-HR :0.82194: L2-HR :0.79515: (Sim:2h6m15s) 
CPU  0 inst: 1498000003 cyc: 1863070272 now IPC :1.42720: AVG IPC :0.80340: L2-Pf-HR :0.82192: L2-HR :0.79516: (Sim:2h6m19s) 
CPU  0 inst: 1499000000 cyc: 1863602573 now IPC :1.87863: AVG IPC :0.80371: L2-Pf-HR :0.82195: L2-HR :0.79519: (Sim:2h6m24s) 
CPU  0 inst: 1500000000 cyc: 1864236357 now IPC :1.57782: AVG IPC :0.80397: L2-Pf-HR :0.82190: L2-HR :0.79519: (Sim:2h6m28s) 
CPU  0 inst: 1501000002 cyc: 1864829226 now IPC :1.68672: AVG IPC :0.80425: L2-Pf-HR :0.82192: L2-HR :0.79522: (Sim:2h6m32s) 
CPU  0 inst: 1502000002 cyc: 1865515414 now IPC :1.45733: AVG IPC :0.80449: L2-Pf-HR :0.82191: L2-HR :0.79524: (Sim:2h6m37s) 
CPU  0 inst: 1503000002 cyc: 1866031048 now IPC :1.93936: AVG IPC :0.80480: L2-Pf-HR :0.82192: L2-HR :0.79527: (Sim:2h6m41s) 
CPU  0 inst: 1504000000 cyc: 1866675993 now IPC :1.55052: AVG IPC :0.80506: L2-Pf-HR :0.82188: L2-HR :0.79526: (Sim:2h6m46s) 
CPU  0 inst: 1505000000 cyc: 1867266958 now IPC :1.69215: AVG IPC :0.80534: L2-Pf-HR :0.82190: L2-HR :0.79530: (Sim:2h6m50s) 
CPU  0 inst: 1506000001 cyc: 1867930036 now IPC :1.50812: AVG IPC :0.80559: L2-Pf-HR :0.82192: L2-HR :0.79534: (Sim:2h6m55s) 
CPU  0 inst: 1507000000 cyc: 1868440272 now IPC :1.95988: AVG IPC :0.80591: L2-Pf-HR :0.82192: L2-HR :0.79536: (Sim:2h7m0s) 
CPU  0 inst: 1508000000 cyc: 1869067665 now IPC :1.59390: AVG IPC :0.80617: L2-Pf-HR :0.82191: L2-HR :0.79537: (Sim:2h7m4s) 
CPU  0 inst: 1509000000 cyc: 1869635226 now IPC :1.76193: AVG IPC :0.80646: L2-Pf-HR :0.82194: L2-HR :0.79542: (Sim:2h7m9s) 
CPU  0 inst: 1510000001 cyc: 1870215365 now IPC :1.72373: AVG IPC :0.80675: L2-Pf-HR :0.82199: L2-HR :0.79548: (Sim:2h7m13s) 
CPU  0 inst: 1511000001 cyc: 1870885105 now IPC :1.49312: AVG IPC :0.80699: L2-Pf-HR :0.82202: L2-HR :0.79552: (Sim:2h7m18s) 
CPU  0 inst: 1512000000 cyc: 1871667208 now IPC :1.27860: AVG IPC :0.80719: L2-Pf-HR :0.82195: L2-HR :0.79548: (Sim:2h7m23s) 
CPU  0 inst: 1513000003 cyc: 1872253118 now IPC :1.70675: AVG IPC :0.80747: L2-Pf-HR :0.82198: L2-HR :0.79552: (Sim:2h7m27s) 
CPU  0 inst: 1514000003 cyc: 1872866424 now IPC :1.63051: AVG IPC :0.80774: L2-Pf-HR :0.82195: L2-HR :0.79553: (Sim:2h7m32s) 
CPU  0 inst: 1515000003 cyc: 1873486934 now IPC :1.61158: AVG IPC :0.80801: L2-Pf-HR :0.82198: L2-HR :0.79558: (Sim:2h7m36s) 
CPU  0 inst: 1516000000 cyc: 1874192568 now IPC :1.41716: AVG IPC :0.80824: L2-Pf-HR :0.82196: L2-HR :0.79559: (Sim:2h7m40s) 
CPU  0 inst: 1517000002 cyc: 1874730948 now IPC :1.85743: AVG IPC :0.80854: L2-Pf-HR :0.82199: L2-HR :0.79562: (Sim:2h7m44s) 
CPU  0 inst: 1518000000 cyc: 1875365367 now IPC :1.57624: AVG IPC :0.80880: L2-Pf-HR :0.82195: L2-HR :0.79562: (Sim:2h7m49s) 
CPU  0 inst: 1519000000 cyc: 1875961249 now IPC :1.67818: AVG IPC :0.80907: L2-Pf-HR :0.82197: L2-HR :0.79566: (Sim:2h7m52s) 
CPU  0 inst: 1520000000 cyc: 1876650283 now IPC :1.45131: AVG IPC :0.80931: L2-Pf-HR :0.82196: L2-HR :0.79568: (Sim:2h7m57s) 
CPU  0 inst: 1521000001 cyc: 1877173379 now IPC :1.91170: AVG IPC :0.80962: L2-Pf-HR :0.82198: L2-HR :0.79571: (Sim:2h8m1s) 
CPU  0 inst: 1522000001 cyc: 1877812170 now IPC :1.56546: AVG IPC :0.80987: L2-Pf-HR :0.82195: L2-HR :0.79571: (Sim:2h8m6s) 
CPU  0 inst: 1523000000 cyc: 1878402357 now IPC :1.69438: AVG IPC :0.81015: L2-Pf-HR :0.82196: L2-HR :0.79575: (Sim:2h8m10s) 
CPU  0 inst: 1524000000 cyc: 1879088846 now IPC :1.45669: AVG IPC :0.81039: L2-Pf-HR :0.82197: L2-HR :0.79577: (Sim:2h8m15s) 
CPU  0 inst: 1525000002 cyc: 1879605083 now IPC :1.93710: AVG IPC :0.81070: L2-Pf-HR :0.82198: L2-HR :0.79580: (Sim:2h8m19s) 
CPU  0 inst: 1526000003 cyc: 1880249317 now IPC :1.55223: AVG IPC :0.81095: L2-Pf-HR :0.82194: L2-HR :0.79580: (Sim:2h8m24s) 
CPU  0 inst: 1527000003 cyc: 1880812490 now IPC :1.77565: AVG IPC :0.81124: L2-Pf-HR :0.82198: L2-HR :0.79585: (Sim:2h8m28s) 
CPU  0 inst: 1528000000 cyc: 1881356985 now IPC :1.83656: AVG IPC :0.81154: L2-Pf-HR :0.82204: L2-HR :0.79592: (Sim:2h8m32s) 
CPU  0 inst: 1529000002 cyc: 1882006245 now IPC :1.54022: AVG IPC :0.81179: L2-Pf-HR :0.82200: L2-HR :0.79590: (Sim:2h8m37s) 
CPU  0 inst: 1530000000 cyc: 1882627155 now IPC :1.61054: AVG IPC :0.81205: L2-Pf-HR :0.82198: L2-HR :0.79592: (Sim:2h8m41s) 
CPU  0 inst: 1531000001 cyc: 1883135796 now IPC :1.96603: AVG IPC :0.81237: L2-Pf-HR :0.82204: L2-HR :0.79598: (Sim:2h8m45s) 
CPU  0 inst: 1532000000 cyc: 1883703578 now IPC :1.76124: AVG IPC :0.81265: L2-Pf-HR :0.82208: L2-HR :0.79603: (Sim:2h8m50s) 
CPU  0 inst: 1533000003 cyc: 1884435166 now IPC :1.36689: AVG IPC :0.81287: L2-Pf-HR :0.82209: L2-HR :0.79605: (Sim:2h8m55s) 
CPU  0 inst: 1534000002 cyc: 1885209105 now IPC :1.29209: AVG IPC :0.81306: L2-Pf-HR :0.82204: L2-HR :0.79603: (Sim:2h8m59s) 
CPU  0 inst: 1535000000 cyc: 1885756935 now IPC :1.82538: AVG IPC :0.81336: L2-Pf-HR :0.82206: L2-HR :0.79607: (Sim:2h9m4s) 
CPU  0 inst: 1536000000 cyc: 1886416659 now IPC :1.51579: AVG IPC :0.81360: L2-Pf-HR :0.82203: L2-HR :0.79608: (Sim:2h9m8s) 
CPU  0 inst: 1537000002 cyc: 1887040805 now IPC :1.60219: AVG IPC :0.81387: L2-Pf-HR :0.82205: L2-HR :0.79611: (Sim:2h9m13s) 
CPU  0 inst: 1538000003 cyc: 1887745353 now IPC :1.41935: AVG IPC :0.81409: L2-Pf-HR :0.82205: L2-HR :0.79614: (Sim:2h9m17s) 
CPU  0 inst: 1539000002 cyc: 1888273799 now IPC :1.89234: AVG IPC :0.81439: L2-Pf-HR :0.82206: L2-HR :0.79616: (Sim:2h9m21s) 
CPU  0 inst: 1540000000 cyc: 1888917186 now IPC :1.55427: AVG IPC :0.81465: L2-Pf-HR :0.82202: L2-HR :0.79616: (Sim:2h9m26s) 
CPU  0 inst: 1541000003 cyc: 1889516076 now IPC :1.66976: AVG IPC :0.81492: L2-Pf-HR :0.82204: L2-HR :0.79620: (Sim:2h9m30s) 
CPU  0 inst: 1542000002 cyc: 1890208404 now IPC :1.44440: AVG IPC :0.81515: L2-Pf-HR :0.82204: L2-HR :0.79622: (Sim:2h9m35s) 
CPU  0 inst: 1543000003 cyc: 1890732769 now IPC :1.90707: AVG IPC :0.81545: L2-Pf-HR :0.82205: L2-HR :0.79624: (Sim:2h9m39s) 
CPU  0 inst: 1544000000 cyc: 1891369323 now IPC :1.57095: AVG IPC :0.81570: L2-Pf-HR :0.82202: L2-HR :0.79624: (Sim:2h9m43s) 
CPU  0 inst: 1545000001 cyc: 1891929153 now IPC :1.78626: AVG IPC :0.81599: L2-Pf-HR :0.82206: L2-HR :0.79630: (Sim:2h9m46s) 
CPU  0 inst: 1546000001 cyc: 1892478500 now IPC :1.82034: AVG IPC :0.81628: L2-Pf-HR :0.82211: L2-HR :0.79636: (Sim:2h9m49s) 
CPU  0 inst: 1547000001 cyc: 1893166644 now IPC :1.45318: AVG IPC :0.81652: L2-Pf-HR :0.82205: L2-HR :0.79633: (Sim:2h9m52s) 
CPU  0 inst: 1548000000 cyc: 1893809640 now IPC :1.55522: AVG IPC :0.81677: L2-Pf-HR :0.82202: L2-HR :0.79633: (Sim:2h9m57s) 
CPU  0 inst: 1549000002 cyc: 1894318472 now IPC :1.96529: AVG IPC :0.81707: L2-Pf-HR :0.82207: L2-HR :0.79639: (Sim:2h10m1s) 
CPU  0 inst: 1550000002 cyc: 1894896735 now IPC :1.72932: AVG IPC :0.81735: L2-Pf-HR :0.82209: L2-HR :0.79643: (Sim:2h10m5s) 
CPU  0 inst: 1551000001 cyc: 1895568529 now IPC :1.48855: AVG IPC :0.81759: L2-Pf-HR :0.82207: L2-HR :0.79643: (Sim:2h10m10s) 
CPU  0 inst: 1552000000 cyc: 1896193364 now IPC :1.60042: AVG IPC :0.81785: L2-Pf-HR :0.82206: L2-HR :0.79645: (Sim:2h10m14s) 
CPU  0 inst: 1553000003 cyc: 1896690189 now IPC :2.01279: AVG IPC :0.81816: L2-Pf-HR :0.82210: L2-HR :0.79650: (Sim:2h10m19s) 
CPU  0 inst: 1554000003 cyc: 1897270240 now IPC :1.72399: AVG IPC :0.81844: L2-Pf-HR :0.82214: L2-HR :0.79655: (Sim:2h10m23s) 
CPU  0 inst: 1555000001 cyc: 1897997476 now IPC :1.37507: AVG IPC :0.81865: L2-Pf-HR :0.82215: L2-HR :0.79658: (Sim:2h10m28s) 
CPU  0 inst: 1556000000 cyc: 1898767866 now IPC :1.29804: AVG IPC :0.81885: L2-Pf-HR :0.82211: L2-HR :0.79656: (Sim:2h10m31s) 
CPU  0 inst: 1557000001 cyc: 1899311169 now IPC :1.84060: AVG IPC :0.81914: L2-Pf-HR :0.82212: L2-HR :0.79659: (Sim:2h10m34s) 
CPU  0 inst: 1558000003 cyc: 1899980504 now IPC :1.49402: AVG IPC :0.81938: L2-Pf-HR :0.82210: L2-HR :0.79660: (Sim:2h10m37s) 
CPU  0 inst: 1559000001 cyc: 1900597757 now IPC :1.62008: AVG IPC :0.81964: L2-Pf-HR :0.82212: L2-HR :0.79664: (Sim:2h10m40s) 
CPU  0 inst: 1560000000 cyc: 1901302375 now IPC :1.41921: AVG IPC :0.81986: L2-Pf-HR :0.82212: L2-HR :0.79666: (Sim:2h10m43s) 
CPU  0 inst: 1561000001 cyc: 1901836507 now IPC :1.87220: AVG IPC :0.82016: L2-Pf-HR :0.82212: L2-HR :0.79668: (Sim:2h10m46s) 
CPU  0 inst: 1562000002 cyc: 1902481730 now IPC :1.54985: AVG IPC :0.82040: L2-Pf-HR :0.82209: L2-HR :0.79668: (Sim:2h10m50s) 
CPU  0 inst: 1563000002 cyc: 1903037658 now IPC :1.79879: AVG IPC :0.82069: L2-Pf-HR :0.82214: L2-HR :0.79674: (Sim:2h10m54s) 
CPU  0 inst: 1564000000 cyc: 1903595355 now IPC :1.79308: AVG IPC :0.82097: L2-Pf-HR :0.82218: L2-HR :0.79680: (Sim:2h10m59s) 
CPU  0 inst: 1565000002 cyc: 1904293447 now IPC :1.43248: AVG IPC :0.82120: L2-Pf-HR :0.82212: L2-HR :0.79676: (Sim:2h11m3s) 
CPU  0 inst: 1566000002 cyc: 1904930715 now IPC :1.56920: AVG IPC :0.82145: L2-Pf-HR :0.82208: L2-HR :0.79676: (Sim:2h11m8s) 
CPU  0 inst: 1567000002 cyc: 1905442560 now IPC :1.95372: AVG IPC :0.82175: L2-Pf-HR :0.82214: L2-HR :0.79682: (Sim:2h11m11s) 
CPU  0 inst: 1568000000 cyc: 1906024394 now IPC :1.71870: AVG IPC :0.82203: L2-Pf-HR :0.82216: L2-HR :0.79686: (Sim:2h11m14s) 
CPU  0 inst: 1569000003 cyc: 1906722054 now IPC :1.43337: AVG IPC :0.82225: L2-Pf-HR :0.82212: L2-HR :0.79685: (Sim:2h11m17s) 
CPU  0 inst: 1570000002 cyc: 1907367777 now IPC :1.54865: AVG IPC :0.82250: L2-Pf-HR :0.82209: L2-HR :0.79685: (Sim:2h11m20s) 
CPU  0 inst: 1571000001 cyc: 1907865787 now IPC :2.00799: AVG IPC :0.82281: L2-Pf-HR :0.82213: L2-HR :0.79690: (Sim:2h11m24s) 
CPU  0 inst: 1572000000 cyc: 1908461558 now IPC :1.67850: AVG IPC :0.82307: L2-Pf-HR :0.82215: L2-HR :0.79694: (Sim:2h11m27s) 
CPU  0 inst: 1573000000 cyc: 1909134285 now IPC :1.48649: AVG IPC :0.82331: L2-Pf-HR :0.82214: L2-HR :0.79695: (Sim:2h11m31s) 
CPU  0 inst: 1574000002 cyc: 1909758978 now IPC :1.60079: AVG IPC :0.82356: L2-Pf-HR :0.82214: L2-HR :0.79697: (Sim:2h11m35s) 
CPU  0 inst: 1575000003 cyc: 1910256600 now IPC :2.00956: AVG IPC :0.82387: L2-Pf-HR :0.82216: L2-HR :0.79701: (Sim:2h11m37s) 
CPU  0 inst: 1576000000 cyc: 1910833889 now IPC :1.73223: AVG IPC :0.82415: L2-Pf-HR :0.82220: L2-HR :0.79706: (Sim:2h11m40s) 
CPU  0 inst: 1577000002 cyc: 1911490209 now IPC :1.52365: AVG IPC :0.82439: L2-Pf-HR :0.82225: L2-HR :0.79711: (Sim:2h11m44s) 
CPU  0 inst: 1578000001 cyc: 1912284591 now IPC :1.25884: AVG IPC :0.82457: L2-Pf-HR :0.82220: L2-HR :0.79710: (Sim:2h11m47s) 
CPU  0 inst: 1579000001 cyc: 1912869793 now IPC :1.70881: AVG IPC :0.82484: L2-Pf-HR :0.82219: L2-HR :0.79710: (Sim:2h11m52s) 
CPU  0 inst: 1580000000 cyc: 1913544307 now IPC :1.48255: AVG IPC :0.82507: L2-Pf-HR :0.82216: L2-HR :0.79710: (Sim:2h11m56s) 
CPU  0 inst: 1581000002 cyc: 1914099498 now IPC :1.80119: AVG IPC :0.82535: L2-Pf-HR :0.82222: L2-HR :0.79717: (Sim:2h12m1s) 
CPU  0 inst: 1582000003 cyc: 1914692997 now IPC :1.68492: AVG IPC :0.82562: L2-Pf-HR :0.82226: L2-HR :0.79722: (Sim:2h12m5s) 
CPU  0 inst: 1583000002 cyc: 1915399381 now IPC :1.41566: AVG IPC :0.82584: L2-Pf-HR :0.82219: L2-HR :0.79719: (Sim:2h12m10s) 
CPU  0 inst: 1584000000 cyc: 1916047101 now IPC :1.54387: AVG IPC :0.82608: L2-Pf-HR :0.82216: L2-HR :0.79719: (Sim:2h12m14s) 
CPU  0 inst: 1585000001 cyc: 1916561043 now IPC :1.94575: AVG IPC :0.82638: L2-Pf-HR :0.82221: L2-HR :0.79725: (Sim:2h12m18s) 
CPU  0 inst: 1586000000 cyc: 1917147467 now IPC :1.70525: AVG IPC :0.82665: L2-Pf-HR :0.82224: L2-HR :0.79729: (Sim:2h12m23s) 
CPU  0 inst: 1587000000 cyc: 1917856427 now IPC :1.41052: AVG IPC :0.82687: L2-Pf-HR :0.82220: L2-HR :0.79728: (Sim:2h12m27s) 
CPU  0 inst: 1588000000 cyc: 1918508112 now IPC :1.53448: AVG IPC :0.82711: L2-Pf-HR :0.82217: L2-HR :0.79728: (Sim:2h12m30s) 
CPU  0 inst: 1589000003 cyc: 1919010668 now IPC :1.98983: AVG IPC :0.82741: L2-Pf-HR :0.82220: L2-HR :0.79733: (Sim:2h12m33s) 
CPU  0 inst: 1590000001 cyc: 1919602291 now IPC :1.69026: AVG IPC :0.82768: L2-Pf-HR :0.82223: L2-HR :0.79737: (Sim:2h12m37s) 
CPU  0 inst: 1591000001 cyc: 1920303527 now IPC :1.42605: AVG IPC :0.82790: L2-Pf-HR :0.82220: L2-HR :0.79737: (Sim:2h12m42s) 
CPU  0 inst: 1592000000 cyc: 1920954266 now IPC :1.53671: AVG IPC :0.82814: L2-Pf-HR :0.82218: L2-HR :0.79738: (Sim:2h12m47s) 
CPU  0 inst: 1593000000 cyc: 1921453165 now IPC :2.00441: AVG IPC :0.82844: L2-Pf-HR :0.82221: L2-HR :0.79741: (Sim:2h12m51s) 
CPU  0 inst: 1594000002 cyc: 1922041990 now IPC :1.69830: AVG IPC :0.82871: L2-Pf-HR :0.82223: L2-HR :0.79745: (Sim:2h12m55s) 
CPU  0 inst: 1595000003 cyc: 1922715870 now IPC :1.48395: AVG IPC :0.82894: L2-Pf-HR :0.82222: L2-HR :0.79746: (Sim:2h13m0s) 
CPU  0 inst: 1596000000 cyc: 1923241533 now IPC :1.90235: AVG IPC :0.82923: L2-Pf-HR :0.82225: L2-HR :0.79750: (Sim:2h13m4s) 
CPU  0 inst: 1597000002 cyc: 1923838237 now IPC :1.67588: AVG IPC :0.82949: L2-Pf-HR :0.82223: L2-HR :0.79751: (Sim:2h13m8s) 
CPU  0 inst: 1598000001 cyc: 1924419851 now IPC :1.71935: AVG IPC :0.82976: L2-Pf-HR :0.82226: L2-HR :0.79756: (Sim:2h13m13s) 
CPU  0 inst: 1599000001 cyc: 1925041413 now IPC :1.60885: AVG IPC :0.83001: L2-Pf-HR :0.82231: L2-HR :0.79760: (Sim:2h13m17s) 
CPU  0 inst: 1600000000 cyc: 1925730728 now IPC :1.45071: AVG IPC :0.83024: L2-Pf-HR :0.82234: L2-HR :0.79764: (Sim:2h13m22s) 
CPU  0 inst: 1601000002 cyc: 1926455929 now IPC :1.37893: AVG IPC :0.83044: L2-Pf-HR :0.82226: L2-HR :0.79761: (Sim:2h13m26s) 
CPU  0 inst: 1602000002 cyc: 1927124072 now IPC :1.49669: AVG IPC :0.83067: L2-Pf-HR :0.82223: L2-HR :0.79761: (Sim:2h13m31s) 
CPU  0 inst: 1603000002 cyc: 1927651954 now IPC :1.89436: AVG IPC :0.83097: L2-Pf-HR :0.82228: L2-HR :0.79767: (Sim:2h13m35s) 
CPU  0 inst: 1604000000 cyc: 1928258876 now IPC :1.64765: AVG IPC :0.83122: L2-Pf-HR :0.82231: L2-HR :0.79771: (Sim:2h13m38s) 
CPU  0 inst: 1605000003 cyc: 1928968455 now IPC :1.40929: AVG IPC :0.83144: L2-Pf-HR :0.82227: L2-HR :0.79770: (Sim:2h13m42s) 
CPU  0 inst: 1606000003 cyc: 1929622090 now IPC :1.52991: AVG IPC :0.83167: L2-Pf-HR :0.82224: L2-HR :0.79770: (Sim:2h13m46s) 
CPU  0 inst: 1607000002 cyc: 1930130321 now IPC :1.96761: AVG IPC :0.83197: L2-Pf-HR :0.82227: L2-HR :0.79774: (Sim:2h13m50s) 
CPU  0 inst: 1608000000 cyc: 1930722558 now IPC :1.68851: AVG IPC :0.83223: L2-Pf-HR :0.82229: L2-HR :0.79778: (Sim:2h13m55s) 
CPU  0 inst: 1609000003 cyc: 1931428744 now IPC :1.41606: AVG IPC :0.83245: L2-Pf-HR :0.82226: L2-HR :0.79777: (Sim:2h13m59s) 
CPU  0 inst: 1610000003 cyc: 1932066184 now IPC :1.56878: AVG IPC :0.83269: L2-Pf-HR :0.82224: L2-HR :0.79778: (Sim:2h14m4s) 
CPU  0 inst: 1611000002 cyc: 1932577246 now IPC :1.95671: AVG IPC :0.83299: L2-Pf-HR :0.82226: L2-HR :0.79781: (Sim:2h14m8s) 
CPU  0 inst: 1612000000 cyc: 1933170472 now IPC :1.68569: AVG IPC :0.83325: L2-Pf-HR :0.82228: L2-HR :0.79785: (Sim:2h14m11s) 
CPU  0 inst: 1613000001 cyc: 1933863940 now IPC :1.44203: AVG IPC :0.83347: L2-Pf-HR :0.82226: L2-HR :0.79785: (Sim:2h14m14s) 
CPU  0 inst: 1614000003 cyc: 1934396327 now IPC :1.87834: AVG IPC :0.83376: L2-Pf-HR :0.82229: L2-HR :0.79789: (Sim:2h14m17s) 
CPU  0 inst: 1615000003 cyc: 1935016173 now IPC :1.61330: AVG IPC :0.83401: L2-Pf-HR :0.82225: L2-HR :0.79789: (Sim:2h14m21s) 
CPU  0 inst: 1616000000 cyc: 1935602856 now IPC :1.70449: AVG IPC :0.83427: L2-Pf-HR :0.82227: L2-HR :0.79792: (Sim:2h14m25s) 
CPU  0 inst: 1617000001 cyc: 1936270540 now IPC :1.49772: AVG IPC :0.83450: L2-Pf-HR :0.82228: L2-HR :0.79795: (Sim:2h14m30s) 
CPU  0 inst: 1618000000 cyc: 1936782845 now IPC :1.95196: AVG IPC :0.83480: L2-Pf-HR :0.82230: L2-HR :0.79797: (Sim:2h14m34s) 
CPU  0 inst: 1619000001 cyc: 1937398053 now IPC :1.62547: AVG IPC :0.83505: L2-Pf-HR :0.82228: L2-HR :0.79798: (Sim:2h14m38s) 
Finished CPU 0 instr: 1617000002 cyc: 1936418969 AVG IPC: 0.83505 (Sim time: 2h14m38s)

ChampSim completed all CPUs

[ROI Statistics]
Core_0_instructions 1617000002
Core_0_cycles 1936418969
Core_0_IPC 0.83505

Core_0_branch_prediction_accuracy 99.26547
Core_0_branch_MPKI 0.21633
Core_0_average_ROB_occupancy_at_mispredict 250.59019

Core_0_L1D_total_access 818934026
Core_0_L1D_total_hit 783271208 L1D_total_Hit Ratio: 0.95645
Core_0_L1D_total_miss 35662818
Core_0_L1D_loads 376893821
Core_0_L1D_load_hit 363693273 L1D_load_Hit Ratio: 0.96498
Core_0_L1D_load_miss 13200548
Core_0_L1D_RFOs 44024508
Core_0_L1D_RFO_hit 41939686 L1D_RFO_Hit Ratio: 0.95264
Core_0_L1D_RFO_miss 2084822
Core_0_L1D_prefetches 398015697
Core_0_L1D_prefetch_hit 377638249 L1D_prefetch_Hit Ratio: 0.94880
Core_0_L1D_prefetch_miss 20377448
Core_0_L1D_writebacks 0
Core_0_L1D_writeback_hit 0 L1D_writeback_Hit Ratio: -nan
Core_0_L1D_writeback_miss 0
Core_0_L1D_prefetch_requested 974878576
Core_0_L1D_prefetch_issued 546623088
Core_0_L1D_prefetch_useful 19705495 L1D_Useful Ratio: 0.03605
Core_0_L1D_prefetch_useless 700047
Core_0_L1D_prefetch_late 3735534
Core_0_L1D_average_miss_latency 101452662.69733

Core_0_L1I_total_access 402376934
Core_0_L1I_total_hit 402372029 L1I_total_Hit Ratio: 0.99999
Core_0_L1I_total_miss 4905
Core_0_L1I_loads 402376934
Core_0_L1I_load_hit 402372029 L1I_load_Hit Ratio: 0.99999
Core_0_L1I_load_miss 4905
Core_0_L1I_RFOs 0
Core_0_L1I_RFO_hit 0 L1I_RFO_Hit Ratio: -nan
Core_0_L1I_RFO_miss 0
Core_0_L1I_prefetches 0
Core_0_L1I_prefetch_hit 0 L1I_prefetch_Hit Ratio: -nan
Core_0_L1I_prefetch_miss 0
Core_0_L1I_writebacks 0
Core_0_L1I_writeback_hit 0 L1I_writeback_Hit Ratio: -nan
Core_0_L1I_writeback_miss 0
Core_0_L1I_prefetch_requested 0
Core_0_L1I_prefetch_issued 0
Core_0_L1I_prefetch_useful 0 L1I_Useful Ratio: -nan
Core_0_L1I_prefetch_useless 0
Core_0_L1I_prefetch_late 0
Core_0_L1I_average_miss_latency 307.15556

Core_0_L2C_total_access 85958563
Core_0_L2C_total_hit 68593566 L2C_total_Hit Ratio: 0.79798
Core_0_L2C_total_miss 17364997
Core_0_L2C_loads 9469912
Core_0_L2C_load_hit 5222315 L2C_load_Hit Ratio: 0.55146
Core_0_L2C_load_miss 4247597
Core_0_L2C_RFOs 2084814
Core_0_L2C_RFO_hit 269509 L2C_RFO_Hit Ratio: 0.12927
Core_0_L2C_RFO_miss 1815305
Core_0_L2C_prefetches 63454330
Core_0_L2C_prefetch_hit 52177112 L2C_prefetch_Hit Ratio: 0.82228
Core_0_L2C_prefetch_miss 11277218
Core_0_L2C_writebacks 10949507
Core_0_L2C_writeback_hit 10924630 L2C_writeback_Hit Ratio: 0.99773
Core_0_L2C_writeback_miss 24877
Core_0_L2C_prefetch_requested 79150936
Core_0_L2C_prefetch_issued 78215573
Core_0_L2C_prefetch_useful 2231078 L2C_Useful Ratio: 0.02852
Core_0_L2C_prefetch_useless 9051350
Core_0_L2C_prefetch_late 215141
Core_0_L2C_average_miss_latency 257.53109

Core_0_LLC_total_access 26897878
Core_0_LLC_total_hit 14062953 LLC_total_Hit Ratio: 0.52283
Core_0_LLC_total_miss 12834925
Core_0_LLC_loads 4032605
Core_0_LLC_load_hit 1081843 LLC_load_Hit Ratio: 0.26827
Core_0_LLC_load_miss 2950762
Core_0_LLC_RFOs 1815244
Core_0_LLC_RFO_hit 32511 LLC_RFO_Hit Ratio: 0.01791
Core_0_LLC_RFO_miss 1782733
Core_0_LLC_prefetches 11492139
Core_0_LLC_prefetch_hit 3396091 LLC_prefetch_Hit Ratio: 0.29551
Core_0_LLC_prefetch_miss 8096048
Core_0_LLC_writebacks 9557890
Core_0_LLC_writeback_hit 9552508 LLC_writeback_Hit Ratio: 0.99944
Core_0_LLC_writeback_miss 5382
Core_0_LLC_prefetch_requested 0
Core_0_LLC_prefetch_issued 0
Core_0_LLC_prefetch_useful 190697 LLC_Useful Ratio: inf
Core_0_LLC_prefetch_useless 7889597
Core_0_LLC_prefetch_late 0
Core_0_LLC_average_miss_latency 309.19884

Core_0_major_page_fault 0
Core_0_minor_page_fault 76848


Channel_0_RQ_row_buffer_hit 6478519
Channel_0_RQ_row_buffer_miss 6344971
Channel_0_WQ_row_buffer_hit 1836580
Channel_0_WQ_row_buffer_miss 5196753
Channel_0_WQ_full 0
Channel_0_dbus_congested 11330854

avg_congested_cycle 11

EzSearch AVG IPC :0.83505: L2-Pf-HR :0.82228 : L2-HR :0.79798 Uful:0.02852
     > Finished combination: TraceType=770-tot Sim:1617000000 Prefetcher=L2ipcp L1=ipcp
