TRACE: [103000000]_FE_[OPT-2_7B]_[h32]_[s256]_[d80] Warmup: 2000000 NumTraces: 103000000
L1:no:L2:no
*************************************************
   ChampSim Multicore Out-of-Order Simulator
   Last compiled: Oct 18 2024 17:01:11
*************************************************

trace_0 770-tot_memTraces_v3/memTraces[103000000]_FE_[OPT-2_7B]_[h32]_[s256]_[d80].champsim.xz
MAIN.cc ln 751 stats print skipped
CPU  0 inst:    1000001 cyc:     503897 now IPC :1.98453: AVG IPC :1.98453: L2-Pf-HR :-nan: L2-HR :0.64904: (Sim:0h0m4s) 
CPU  0 inst:    2000002 cyc:     985270 now IPC :2.07739: AVG IPC :2.02990: L2-Pf-HR :-nan: L2-HR :0.71615: (Sim:0h0m8s) 

Warmup complete CPU  0 instructions:    2000002 cycles:     985270 (Simulation time: 0 hr 0 min 8 sec) 

CPU  0 inst:    3000002 cyc:    1708612 now IPC :1.38247: AVG IPC :1.38247: L2-Pf-HR :-nan: L2-HR :0.79017: (Sim:0h0m12s) 
CPU  0 inst:    4000000 cyc:    2392616 now IPC :1.46198: AVG IPC :1.42111: L2-Pf-HR :-nan: L2-HR :0.80156: (Sim:0h0m16s) 
CPU  0 inst:    5000001 cyc:    3116149 now IPC :1.38211: AVG IPC :1.40787: L2-Pf-HR :-nan: L2-HR :0.79515: (Sim:0h0m20s) 
CPU  0 inst:    6000002 cyc:    3847715 now IPC :1.36693: AVG IPC :1.39741: L2-Pf-HR :-nan: L2-HR :0.79392: (Sim:0h0m25s) 
CPU  0 inst:    7000001 cyc:    4615315 now IPC :1.30276: AVG IPC :1.37739: L2-Pf-HR :-nan: L2-HR :0.79295: (Sim:0h0m29s) 
CPU  0 inst:    8000000 cyc:    5415557 now IPC :1.24962: AVG IPC :1.35431: L2-Pf-HR :-nan: L2-HR :0.79243: (Sim:0h0m33s) 
CPU  0 inst:    9000001 cyc:    6147682 now IPC :1.36589: AVG IPC :1.35596: L2-Pf-HR :-nan: L2-HR :0.79450: (Sim:0h0m37s) 
CPU  0 inst:   10000000 cyc:    6950196 now IPC :1.24608: AVG IPC :1.34117: L2-Pf-HR :-nan: L2-HR :0.79395: (Sim:0h0m42s) 
CPU  0 inst:   11000003 cyc:    7752245 now IPC :1.24681: AVG IPC :1.32999: L2-Pf-HR :-nan: L2-HR :0.79345: (Sim:0h0m45s) 
CPU  0 inst:   12000000 cyc:    8556156 now IPC :1.24392: AVG IPC :1.32085: L2-Pf-HR :-nan: L2-HR :0.79280: (Sim:0h0m48s) 
CPU  0 inst:   13000003 cyc:    9293996 now IPC :1.35531: AVG IPC :1.32391: L2-Pf-HR :-nan: L2-HR :0.79412: (Sim:0h0m51s) 
CPU  0 inst:   14000000 cyc:   10094881 now IPC :1.24862: AVG IPC :1.31729: L2-Pf-HR :-nan: L2-HR :0.79368: (Sim:0h0m55s) 
CPU  0 inst:   15000002 cyc:   10892833 now IPC :1.25321: AVG IPC :1.31213: L2-Pf-HR :-nan: L2-HR :0.79337: (Sim:0h0m59s) 
CPU  0 inst:   16000000 cyc:   11699674 now IPC :1.23940: AVG IPC :1.30665: L2-Pf-HR :-nan: L2-HR :0.79313: (Sim:0h1m3s) 
CPU  0 inst:   17000002 cyc:   12433123 now IPC :1.36342: AVG IPC :1.31029: L2-Pf-HR :-nan: L2-HR :0.79417: (Sim:0h1m7s) 
CPU  0 inst:   18000002 cyc:   13228626 now IPC :1.25707: AVG IPC :1.30683: L2-Pf-HR :-nan: L2-HR :0.79366: (Sim:0h1m12s) 
CPU  0 inst:   19000001 cyc:   14032802 now IPC :1.24351: AVG IPC :1.30293: L2-Pf-HR :-nan: L2-HR :0.79332: (Sim:0h1m16s) 
CPU  0 inst:   20000000 cyc:   14833507 now IPC :1.24890: AVG IPC :1.29980: L2-Pf-HR :-nan: L2-HR :0.79312: (Sim:0h1m20s) 
CPU  0 inst:   21000001 cyc:   15584829 now IPC :1.33099: AVG IPC :1.30141: L2-Pf-HR :-nan: L2-HR :0.79382: (Sim:0h1m24s) 
CPU  0 inst:   22000003 cyc:   16359832 now IPC :1.29032: AVG IPC :1.30085: L2-Pf-HR :-nan: L2-HR :0.79363: (Sim:0h1m28s) 
CPU  0 inst:   23000003 cyc:   17165276 now IPC :1.24155: AVG IPC :1.29790: L2-Pf-HR :-nan: L2-HR :0.79352: (Sim:0h1m30s) 
CPU  0 inst:   24000000 cyc:   17968435 now IPC :1.24508: AVG IPC :1.29540: L2-Pf-HR :-nan: L2-HR :0.79301: (Sim:0h1m34s) 
CPU  0 inst:   25000001 cyc:   18767312 now IPC :1.25176: AVG IPC :1.29344: L2-Pf-HR :-nan: L2-HR :0.79304: (Sim:0h1m38s) 
CPU  0 inst:   26000003 cyc:   19501954 now IPC :1.36121: AVG IPC :1.29613: L2-Pf-HR :-nan: L2-HR :0.79359: (Sim:0h1m42s) 
CPU  0 inst:   27000001 cyc:   20304590 now IPC :1.24589: AVG IPC :1.29404: L2-Pf-HR :-nan: L2-HR :0.79351: (Sim:0h1m46s) 
CPU  0 inst:   28000000 cyc:   21105432 now IPC :1.24868: AVG IPC :1.29224: L2-Pf-HR :-nan: L2-HR :0.79349: (Sim:0h1m51s) 
CPU  0 inst:   29000003 cyc:   21903060 now IPC :1.25372: AVG IPC :1.29077: L2-Pf-HR :-nan: L2-HR :0.79308: (Sim:0h1m55s) 
CPU  0 inst:   30000001 cyc:   22636037 now IPC :1.36430: AVG IPC :1.29326: L2-Pf-HR :-nan: L2-HR :0.79374: (Sim:0h1m59s) 
CPU  0 inst:   31000003 cyc:   23441946 now IPC :1.24084: AVG IPC :1.29138: L2-Pf-HR :-nan: L2-HR :0.79347: (Sim:0h2m3s) 
CPU  0 inst:   32000000 cyc:   24241316 now IPC :1.25098: AVG IPC :1.28999: L2-Pf-HR :-nan: L2-HR :0.79340: (Sim:0h2m7s) 
CPU  0 inst:   33000003 cyc:   25038481 now IPC :1.25445: AVG IPC :1.28881: L2-Pf-HR :-nan: L2-HR :0.79342: (Sim:0h2m12s) 
CPU  0 inst:   34000000 cyc:   25775350 now IPC :1.35709: AVG IPC :1.29084: L2-Pf-HR :-nan: L2-HR :0.79389: (Sim:0h2m16s) 
CPU  0 inst:   35000001 cyc:   26573046 now IPC :1.25361: AVG IPC :1.28968: L2-Pf-HR :-nan: L2-HR :0.79365: (Sim:0h2m20s) 
CPU  0 inst:   36000000 cyc:   27378065 now IPC :1.24221: AVG IPC :1.28823: L2-Pf-HR :-nan: L2-HR :0.79341: (Sim:0h2m24s) 
CPU  0 inst:   37000001 cyc:   28173228 now IPC :1.25761: AVG IPC :1.28733: L2-Pf-HR :-nan: L2-HR :0.79333: (Sim:0h2m29s) 
CPU  0 inst:   38000001 cyc:   28957681 now IPC :1.27477: AVG IPC :1.28698: L2-Pf-HR :-nan: L2-HR :0.79336: (Sim:0h2m33s) 
CPU  0 inst:   39000001 cyc:   29707172 now IPC :1.33424: AVG IPC :1.28822: L2-Pf-HR :-nan: L2-HR :0.79366: (Sim:0h2m37s) 
CPU  0 inst:   40000000 cyc:   30507221 now IPC :1.24992: AVG IPC :1.28718: L2-Pf-HR :-nan: L2-HR :0.79358: (Sim:0h2m42s) 
CPU  0 inst:   41000003 cyc:   31307589 now IPC :1.24943: AVG IPC :1.28618: L2-Pf-HR :-nan: L2-HR :0.79329: (Sim:0h2m46s) 
CPU  0 inst:   42000002 cyc:   32590427 now IPC :0.77952: AVG IPC :1.26562: L2-Pf-HR :-nan: L2-HR :0.78797: (Sim:0h2m51s) 
CPU  0 inst:   43000001 cyc:   38681299 now IPC :0.16418: AVG IPC :1.08765: L2-Pf-HR :-nan: L2-HR :0.73622: (Sim:0h3m5s) 
CPU  0 inst:   44000000 cyc:   43995078 now IPC :0.18819: AVG IPC :0.97652: L2-Pf-HR :-nan: L2-HR :0.72450: (Sim:0h3m15s) 
CPU  0 inst:   45000002 cyc:   49241507 now IPC :0.19061: AVG IPC :0.89108: L2-Pf-HR :-nan: L2-HR :0.71733: (Sim:0h3m22s) 
CPU  0 inst:   46000002 cyc:   54265828 now IPC :0.19903: AVG IPC :0.82582: L2-Pf-HR :-nan: L2-HR :0.71041: (Sim:0h3m32s) 
CPU  0 inst:   47000002 cyc:   59241024 now IPC :0.20100: AVG IPC :0.77246: L2-Pf-HR :-nan: L2-HR :0.70373: (Sim:0h3m42s) 
CPU  0 inst:   48000000 cyc:   64256341 now IPC :0.19939: AVG IPC :0.72703: L2-Pf-HR :-nan: L2-HR :0.69729: (Sim:0h3m51s) 
CPU  0 inst:   49000002 cyc:   69295062 now IPC :0.19846: AVG IPC :0.68804: L2-Pf-HR :-nan: L2-HR :0.69107: (Sim:0h4m1s) 
CPU  0 inst:   50000002 cyc:   74319878 now IPC :0.19901: AVG IPC :0.65453: L2-Pf-HR :-nan: L2-HR :0.68506: (Sim:0h4m11s) 
CPU  0 inst:   51000002 cyc:   79331243 now IPC :0.19955: AVG IPC :0.62543: L2-Pf-HR :-nan: L2-HR :0.67925: (Sim:0h4m21s) 
CPU  0 inst:   52000000 cyc:   84408844 now IPC :0.19694: AVG IPC :0.59935: L2-Pf-HR :-nan: L2-HR :0.67362: (Sim:0h4m30s) 
CPU  0 inst:   53000002 cyc:   89381374 now IPC :0.20111: AVG IPC :0.57695: L2-Pf-HR :-nan: L2-HR :0.66818: (Sim:0h4m36s) 
CPU  0 inst:   54000002 cyc:   94400622 now IPC :0.19923: AVG IPC :0.55665: L2-Pf-HR :-nan: L2-HR :0.66290: (Sim:0h4m43s) 
CPU  0 inst:   55000002 cyc:   99459444 now IPC :0.19767: AVG IPC :0.53821: L2-Pf-HR :-nan: L2-HR :0.65779: (Sim:0h4m49s) 
CPU  0 inst:   56000000 cyc:  104381480 now IPC :0.20317: AVG IPC :0.52226: L2-Pf-HR :-nan: L2-HR :0.65284: (Sim:0h4m59s) 
CPU  0 inst:   57000002 cyc:  109269720 now IPC :0.20457: AVG IPC :0.50792: L2-Pf-HR :-nan: L2-HR :0.64804: (Sim:0h5m9s) 
CPU  0 inst:   58000002 cyc:  114203370 now IPC :0.20269: AVG IPC :0.49462: L2-Pf-HR :-nan: L2-HR :0.64337: (Sim:0h5m18s) 
CPU  0 inst:   59000002 cyc:  119193088 now IPC :0.20041: AVG IPC :0.48220: L2-Pf-HR :-nan: L2-HR :0.63885: (Sim:0h5m25s) 
CPU  0 inst:   60000000 cyc:  122836978 now IPC :0.27443: AVG IPC :0.47599: L2-Pf-HR :-nan: L2-HR :0.63432: (Sim:0h5m33s) 
CPU  0 inst:   61000000 cyc:  123584212 now IPC :1.33827: AVG IPC :0.48124: L2-Pf-HR :-nan: L2-HR :0.63855: (Sim:0h5m37s) 
CPU  0 inst:   62000003 cyc:  124325874 now IPC :1.34833: AVG IPC :0.48646: L2-Pf-HR :-nan: L2-HR :0.64140: (Sim:0h5m41s) 
CPU  0 inst:   63000001 cyc:  125186187 now IPC :1.16237: AVG IPC :0.49114: L2-Pf-HR :-nan: L2-HR :0.64451: (Sim:0h5m46s) 
CPU  0 inst:   64000000 cyc:  126042384 now IPC :1.16795: AVG IPC :0.49577: L2-Pf-HR :-nan: L2-HR :0.64736: (Sim:0h5m50s) 
CPU  0 inst:   65000003 cyc:  126644092 now IPC :1.66194: AVG IPC :0.50136: L2-Pf-HR :-nan: L2-HR :0.65102: (Sim:0h5m54s) 
CPU  0 inst:   66000002 cyc:  127441390 now IPC :1.25423: AVG IPC :0.50610: L2-Pf-HR :-nan: L2-HR :0.65341: (Sim:0h5m58s) 
CPU  0 inst:   67000000 cyc:  128242062 now IPC :1.24895: AVG IPC :0.51078: L2-Pf-HR :-nan: L2-HR :0.65601: (Sim:0h6m3s) 
CPU  0 inst:   68000000 cyc:  129033277 now IPC :1.26388: AVG IPC :0.51543: L2-Pf-HR :-nan: L2-HR :0.65870: (Sim:0h6m7s) 
CPU  0 inst:   69000002 cyc:  129631355 now IPC :1.67203: AVG IPC :0.52081: L2-Pf-HR :-nan: L2-HR :0.66153: (Sim:0h6m9s) 
CPU  0 inst:   70000000 cyc:  130436872 now IPC :1.24144: AVG IPC :0.52529: L2-Pf-HR :-nan: L2-HR :0.66383: (Sim:0h6m12s) 
CPU  0 inst:   71000002 cyc:  131257137 now IPC :1.21912: AVG IPC :0.52966: L2-Pf-HR :-nan: L2-HR :0.66583: (Sim:0h6m15s) 
CPU  0 inst:   72000000 cyc:  131938882 now IPC :1.46682: AVG IPC :0.53454: L2-Pf-HR :-nan: L2-HR :0.66891: (Sim:0h6m18s) 
CPU  0 inst:   73000000 cyc:  132652992 now IPC :1.40034: AVG IPC :0.53924: L2-Pf-HR :-nan: L2-HR :0.67078: (Sim:0h6m21s) 
CPU  0 inst:   74000003 cyc:  133444133 now IPC :1.26400: AVG IPC :0.54356: L2-Pf-HR :-nan: L2-HR :0.67278: (Sim:0h6m23s) 
CPU  0 inst:   75000001 cyc:  134254139 now IPC :1.23456: AVG IPC :0.54776: L2-Pf-HR :-nan: L2-HR :0.67462: (Sim:0h6m26s) 
CPU  0 inst:   76000000 cyc:  134845509 now IPC :1.69099: AVG IPC :0.55282: L2-Pf-HR :-nan: L2-HR :0.67739: (Sim:0h6m29s) 
CPU  0 inst:   77000002 cyc:  135654955 now IPC :1.23542: AVG IPC :0.55692: L2-Pf-HR :-nan: L2-HR :0.67902: (Sim:0h6m32s) 
CPU  0 inst:   78000001 cyc:  136464853 now IPC :1.23472: AVG IPC :0.56097: L2-Pf-HR :-nan: L2-HR :0.68072: (Sim:0h6m35s) 
CPU  0 inst:   79000000 cyc:  137262721 now IPC :1.25334: AVG IPC :0.56502: L2-Pf-HR :-nan: L2-HR :0.68259: (Sim:0h6m38s) 
CPU  0 inst:   80000000 cyc:  137854101 now IPC :1.69096: AVG IPC :0.56989: L2-Pf-HR :-nan: L2-HR :0.68474: (Sim:0h6m40s) 
CPU  0 inst:   81000003 cyc:  138646951 now IPC :1.26128: AVG IPC :0.57387: L2-Pf-HR :-nan: L2-HR :0.68655: (Sim:0h6m43s) 
CPU  0 inst:   82000001 cyc:  139455140 now IPC :1.23733: AVG IPC :0.57774: L2-Pf-HR :-nan: L2-HR :0.68800: (Sim:0h6m46s) 
CPU  0 inst:   83000001 cyc:  140114717 now IPC :1.51612: AVG IPC :0.58219: L2-Pf-HR :-nan: L2-HR :0.69038: (Sim:0h6m48s) 
CPU  0 inst:   84000000 cyc:  140844383 now IPC :1.37049: AVG IPC :0.58630: L2-Pf-HR :-nan: L2-HR :0.69173: (Sim:0h6m51s) 
CPU  0 inst:   85000000 cyc:  141649529 now IPC :1.24201: AVG IPC :0.59006: L2-Pf-HR :-nan: L2-HR :0.69319: (Sim:0h6m54s) 
CPU  0 inst:   86000000 cyc:  142465138 now IPC :1.22608: AVG IPC :0.59372: L2-Pf-HR :-nan: L2-HR :0.69450: (Sim:0h6m57s) 
CPU  0 inst:   87000000 cyc:  143060854 now IPC :1.67865: AVG IPC :0.59827: L2-Pf-HR :-nan: L2-HR :0.69667: (Sim:0h6m59s) 
CPU  0 inst:   88000000 cyc:  143860669 now IPC :1.25029: AVG IPC :0.60192: L2-Pf-HR :-nan: L2-HR :0.69791: (Sim:0h7m2s) 
CPU  0 inst:   89000001 cyc:  144663858 now IPC :1.24504: AVG IPC :0.60552: L2-Pf-HR :-nan: L2-HR :0.69922: (Sim:0h7m4s) 
CPU  0 inst:   90000003 cyc:  145454697 now IPC :1.26448: AVG IPC :0.60913: L2-Pf-HR :-nan: L2-HR :0.70067: (Sim:0h7m7s) 
CPU  0 inst:   91000000 cyc:  146045781 now IPC :1.69180: AVG IPC :0.61354: L2-Pf-HR :-nan: L2-HR :0.70239: (Sim:0h7m9s) 
CPU  0 inst:   92000000 cyc:  146841977 now IPC :1.25597: AVG IPC :0.61704: L2-Pf-HR :-nan: L2-HR :0.70367: (Sim:0h7m12s) 
CPU  0 inst:   93000001 cyc:  147655560 now IPC :1.22913: AVG IPC :0.62044: L2-Pf-HR :-nan: L2-HR :0.70476: (Sim:0h7m15s) 
CPU  0 inst:   94000003 cyc:  148298446 now IPC :1.55549: AVG IPC :0.62452: L2-Pf-HR :-nan: L2-HR :0.70671: (Sim:0h7m17s) 
CPU  0 inst:   95000003 cyc:  149045310 now IPC :1.33893: AVG IPC :0.62812: L2-Pf-HR :-nan: L2-HR :0.70771: (Sim:0h7m20s) 
CPU  0 inst:   96000000 cyc:  149842735 now IPC :1.25403: AVG IPC :0.63148: L2-Pf-HR :-nan: L2-HR :0.70884: (Sim:0h7m22s) 
CPU  0 inst:   97000000 cyc:  150645704 now IPC :1.24538: AVG IPC :0.63477: L2-Pf-HR :-nan: L2-HR :0.70989: (Sim:0h7m25s) 
CPU  0 inst:   98000000 cyc:  151232863 now IPC :1.70312: AVG IPC :0.63895: L2-Pf-HR :-nan: L2-HR :0.71164: (Sim:0h7m28s) 
CPU  0 inst:   99000002 cyc:  152034018 now IPC :1.24820: AVG IPC :0.64218: L2-Pf-HR :-nan: L2-HR :0.71244: (Sim:0h7m30s) 
CPU  0 inst:  100000000 cyc:  152837347 now IPC :1.24482: AVG IPC :0.64536: L2-Pf-HR :-nan: L2-HR :0.71345: (Sim:0h7m33s) 
Finished CPU 0 instr: 98000002 cyc: 151852097 AVG IPC: 0.64536 (Sim time: 0h7m33s)

ChampSim completed all CPUs

[ROI Statistics]
Core_0_instructions 98000002
Core_0_cycles 151852097
Core_0_IPC 0.64536

Core_0_branch_prediction_accuracy 98.32538
Core_0_branch_MPKI 0.51239
Core_0_average_ROB_occupancy_at_mispredict 220.52021

Core_0_L1D_total_access 25611324
Core_0_L1D_total_hit 23327722 L1D_total_Hit Ratio: 0.91084
Core_0_L1D_total_miss 2283602
Core_0_L1D_loads 22755295
Core_0_L1D_load_hit 20640824 L1D_load_Hit Ratio: 0.90708
Core_0_L1D_load_miss 2114471
Core_0_L1D_RFOs 2856029
Core_0_L1D_RFO_hit 2686898 L1D_RFO_Hit Ratio: 0.94078
Core_0_L1D_RFO_miss 169131
Core_0_L1D_prefetches 0
Core_0_L1D_prefetch_hit 0 L1D_prefetch_Hit Ratio: -nan
Core_0_L1D_prefetch_miss 0
Core_0_L1D_writebacks 0
Core_0_L1D_writeback_hit 0 L1D_writeback_Hit Ratio: -nan
Core_0_L1D_writeback_miss 0
Core_0_L1D_prefetch_requested 0
Core_0_L1D_prefetch_issued 0
Core_0_L1D_prefetch_useful 0 L1D_Useful Ratio: -nan
Core_0_L1D_prefetch_useless 0
Core_0_L1D_prefetch_late 0
Core_0_L1D_average_miss_latency 115.26522

Core_0_L1I_total_access 23362790
Core_0_L1I_total_hit 23358012 L1I_total_Hit Ratio: 0.99980
Core_0_L1I_total_miss 4778
Core_0_L1I_loads 23362790
Core_0_L1I_load_hit 23358012 L1I_load_Hit Ratio: 0.99980
Core_0_L1I_load_miss 4778
Core_0_L1I_RFOs 0
Core_0_L1I_RFO_hit 0 L1I_RFO_Hit Ratio: -nan
Core_0_L1I_RFO_miss 0
Core_0_L1I_prefetches 0
Core_0_L1I_prefetch_hit 0 L1I_prefetch_Hit Ratio: -nan
Core_0_L1I_prefetch_miss 0
Core_0_L1I_writebacks 0
Core_0_L1I_writeback_hit 0 L1I_writeback_Hit Ratio: -nan
Core_0_L1I_writeback_miss 0
Core_0_L1I_prefetch_requested 0
Core_0_L1I_prefetch_issued 0
Core_0_L1I_prefetch_useful 0 L1I_Useful Ratio: -nan
Core_0_L1I_prefetch_useless 0
Core_0_L1I_prefetch_late 0
Core_0_L1I_average_miss_latency 266.46672

Core_0_L2C_total_access 2977514
Core_0_L2C_total_hit 2124300 L2C_total_Hit Ratio: 0.71345
Core_0_L2C_total_miss 853214
Core_0_L2C_loads 2119199
Core_0_L2C_load_hit 1409432 L2C_load_Hit Ratio: 0.66508
Core_0_L2C_load_miss 709767
Core_0_L2C_RFOs 169131
Core_0_L2C_RFO_hit 25995 L2C_RFO_Hit Ratio: 0.15370
Core_0_L2C_RFO_miss 143136
Core_0_L2C_prefetches 0
Core_0_L2C_prefetch_hit 0 L2C_prefetch_Hit Ratio: -nan
Core_0_L2C_prefetch_miss 0
Core_0_L2C_writebacks 689184
Core_0_L2C_writeback_hit 688873 L2C_writeback_Hit Ratio: 0.99955
Core_0_L2C_writeback_miss 311
Core_0_L2C_prefetch_requested 0
Core_0_L2C_prefetch_issued 0
Core_0_L2C_prefetch_useful 0 L2C_Useful Ratio: -nan
Core_0_L2C_prefetch_useless 0
Core_0_L2C_prefetch_late 0
Core_0_L2C_average_miss_latency 270.59949

Core_0_LLC_total_access 1323865
Core_0_LLC_total_hit 516253 LLC_total_Hit Ratio: 0.38996
Core_0_LLC_total_miss 807612
Core_0_LLC_loads 709760
Core_0_LLC_load_hit 37519 LLC_load_Hit Ratio: 0.05286
Core_0_LLC_load_miss 672241
Core_0_LLC_RFOs 143136
Core_0_LLC_RFO_hit 11465 LLC_RFO_Hit Ratio: 0.08010
Core_0_LLC_RFO_miss 131671
Core_0_LLC_prefetches 0
Core_0_LLC_prefetch_hit 0 LLC_prefetch_Hit Ratio: -nan
Core_0_LLC_prefetch_miss 0
Core_0_LLC_writebacks 470969
Core_0_LLC_writeback_hit 467269 LLC_writeback_Hit Ratio: 0.99214
Core_0_LLC_writeback_miss 3700
Core_0_LLC_prefetch_requested 0
Core_0_LLC_prefetch_issued 0
Core_0_LLC_prefetch_useful 0 LLC_Useful Ratio: -nan
Core_0_LLC_prefetch_useless 0
Core_0_LLC_prefetch_late 0
Core_0_LLC_average_miss_latency 253.55677

Core_0_major_page_fault 0
Core_0_minor_page_fault 7592

Channel_0_RQ_row_buffer_hit 395758
Channel_0_RQ_row_buffer_miss 408154
Channel_0_WQ_row_buffer_hit 177248
Channel_0_WQ_row_buffer_miss 252046
Channel_0_WQ_full 0
Channel_0_dbus_congested 493055

avg_congested_cycle 11

EzSearch AVG IPC :0.64536: L2-Pf-HR :-nan : L2-HR :0.71345 Uful:-nan
     > Finished combination: TraceType=770-tot Sim:98000000 Prefetcher=L2no L1=no
