TRACE: [597000000][OPT-6_7B]_[h32][s512][d128] Warmup: 2000000 NumTraces: 597000000
L1:no:L2:no
*************************************************
   ChampSim Multicore Out-of-Order Simulator
   Last compiled: Oct 18 2024 17:01:11
*************************************************

trace_0 770-tot_memTraces_v3/memTraces[597000000][OPT-6_7B]_[h32][s512][d128].champsim.xz
MAIN.cc ln 751 stats print skipped
CPU  0 inst:    1000000 cyc:     503612 now IPC :1.98566: AVG IPC :1.98566: L2-Pf-HR :-nan: L2-HR :0.56466: (Sim:0h0m2s) 
CPU  0 inst:    2000000 cyc:     981865 now IPC :2.09094: AVG IPC :2.03694: L2-Pf-HR :-nan: L2-HR :0.63633: (Sim:0h0m5s) 

Warmup complete CPU  0 instructions:    2000001 cycles:     981866 (Simulation time: 0 hr 0 min 5 sec) 

CPU  0 inst:    3000002 cyc:    1680288 now IPC :1.43180: AVG IPC :1.43180: L2-Pf-HR :-nan: L2-HR :0.74703: (Sim:0h0m7s) 
CPU  0 inst:    4000000 cyc:    2368498 now IPC :1.45304: AVG IPC :1.44234: L2-Pf-HR :-nan: L2-HR :0.74710: (Sim:0h0m9s) 
CPU  0 inst:    5000003 cyc:    3067713 now IPC :1.43018: AVG IPC :1.43827: L2-Pf-HR :-nan: L2-HR :0.74887: (Sim:0h0m12s) 
CPU  0 inst:    6000001 cyc:    3762784 now IPC :1.43870: AVG IPC :1.43837: L2-Pf-HR :-nan: L2-HR :0.75181: (Sim:0h0m14s) 
CPU  0 inst:    7000003 cyc:    4451413 now IPC :1.45216: AVG IPC :1.44111: L2-Pf-HR :-nan: L2-HR :0.75802: (Sim:0h0m17s) 
CPU  0 inst:    8000000 cyc:    5078680 now IPC :1.59421: AVG IPC :1.46455: L2-Pf-HR :-nan: L2-HR :0.76442: (Sim:0h0m20s) 
CPU  0 inst:    9000001 cyc:    5919433 now IPC :1.18941: AVG IPC :1.41770: L2-Pf-HR :-nan: L2-HR :0.74557: (Sim:0h0m24s) 
CPU  0 inst:   10000000 cyc:    6629971 now IPC :1.40738: AVG IPC :1.41640: L2-Pf-HR :-nan: L2-HR :0.74572: (Sim:0h0m28s) 
CPU  0 inst:   11000002 cyc:    7339215 now IPC :1.40995: AVG IPC :1.41568: L2-Pf-HR :-nan: L2-HR :0.74518: (Sim:0h0m32s) 
CPU  0 inst:   12000000 cyc:    8037924 now IPC :1.43121: AVG IPC :1.41722: L2-Pf-HR :-nan: L2-HR :0.74529: (Sim:0h0m37s) 
CPU  0 inst:   13000002 cyc:    8751869 now IPC :1.40067: AVG IPC :1.41570: L2-Pf-HR :-nan: L2-HR :0.74552: (Sim:0h0m41s) 
CPU  0 inst:   14000002 cyc:    9454595 now IPC :1.42303: AVG IPC :1.41631: L2-Pf-HR :-nan: L2-HR :0.74651: (Sim:0h0m45s) 
CPU  0 inst:   15000000 cyc:   10187617 now IPC :1.36421: AVG IPC :1.41216: L2-Pf-HR :-nan: L2-HR :0.74949: (Sim:0h0m49s) 
CPU  0 inst:   16000000 cyc:   10853257 now IPC :1.50231: AVG IPC :1.41824: L2-Pf-HR :-nan: L2-HR :0.75268: (Sim:0h0m53s) 
CPU  0 inst:   17000001 cyc:   11732685 now IPC :1.13710: AVG IPC :1.39524: L2-Pf-HR :-nan: L2-HR :0.74487: (Sim:0h0m58s) 
CPU  0 inst:   18000003 cyc:   12449371 now IPC :1.39531: AVG IPC :1.39525: L2-Pf-HR :-nan: L2-HR :0.74499: (Sim:0h1m2s) 
CPU  0 inst:   19000002 cyc:   13156577 now IPC :1.41401: AVG IPC :1.39634: L2-Pf-HR :-nan: L2-HR :0.74477: (Sim:0h1m6s) 
CPU  0 inst:   20000000 cyc:   13871389 now IPC :1.39897: AVG IPC :1.39648: L2-Pf-HR :-nan: L2-HR :0.74480: (Sim:0h1m11s) 
CPU  0 inst:   21000002 cyc:   14587725 now IPC :1.39600: AVG IPC :1.39646: L2-Pf-HR :-nan: L2-HR :0.74483: (Sim:0h1m15s) 
CPU  0 inst:   22000002 cyc:   15299807 now IPC :1.40433: AVG IPC :1.39685: L2-Pf-HR :-nan: L2-HR :0.74560: (Sim:0h1m19s) 
CPU  0 inst:   23000000 cyc:   16031364 now IPC :1.36694: AVG IPC :1.39540: L2-Pf-HR :-nan: L2-HR :0.74743: (Sim:0h1m23s) 
CPU  0 inst:   24000000 cyc:   16687316 now IPC :1.52450: AVG IPC :1.40079: L2-Pf-HR :-nan: L2-HR :0.74943: (Sim:0h1m25s) 
CPU  0 inst:   25000001 cyc:   17571315 now IPC :1.13122: AVG IPC :1.38642: L2-Pf-HR :-nan: L2-HR :0.74471: (Sim:0h1m29s) 
CPU  0 inst:   26000000 cyc:   18287918 now IPC :1.39547: AVG IPC :1.38680: L2-Pf-HR :-nan: L2-HR :0.74476: (Sim:0h1m31s) 
CPU  0 inst:   27000002 cyc:   18999500 now IPC :1.40532: AVG IPC :1.38753: L2-Pf-HR :-nan: L2-HR :0.74474: (Sim:0h1m34s) 
CPU  0 inst:   28000000 cyc:   19716051 now IPC :1.39557: AVG IPC :1.38784: L2-Pf-HR :-nan: L2-HR :0.74477: (Sim:0h1m37s) 
CPU  0 inst:   29000003 cyc:   20435591 now IPC :1.38978: AVG IPC :1.38791: L2-Pf-HR :-nan: L2-HR :0.74464: (Sim:0h1m40s) 
CPU  0 inst:   30000002 cyc:   21145116 now IPC :1.40939: AVG IPC :1.38867: L2-Pf-HR :-nan: L2-HR :0.74529: (Sim:0h1m43s) 
CPU  0 inst:   31000002 cyc:   21875831 now IPC :1.36852: AVG IPC :1.38796: L2-Pf-HR :-nan: L2-HR :0.74666: (Sim:0h1m46s) 
CPU  0 inst:   32000000 cyc:   22527330 now IPC :1.53492: AVG IPC :1.39240: L2-Pf-HR :-nan: L2-HR :0.74811: (Sim:0h1m49s) 
CPU  0 inst:   33000001 cyc:   23406964 now IPC :1.13684: AVG IPC :1.38238: L2-Pf-HR :-nan: L2-HR :0.74472: (Sim:0h1m52s) 
CPU  0 inst:   34000000 cyc:   24123659 now IPC :1.39529: AVG IPC :1.38278: L2-Pf-HR :-nan: L2-HR :0.74466: (Sim:0h1m57s) 
CPU  0 inst:   35000002 cyc:   24833589 now IPC :1.40859: AVG IPC :1.38355: L2-Pf-HR :-nan: L2-HR :0.74470: (Sim:0h2m1s) 
CPU  0 inst:   36000000 cyc:   25548863 now IPC :1.39806: AVG IPC :1.38397: L2-Pf-HR :-nan: L2-HR :0.74471: (Sim:0h2m5s) 
CPU  0 inst:   37000002 cyc:   26255330 now IPC :1.41550: AVG IPC :1.38485: L2-Pf-HR :-nan: L2-HR :0.74472: (Sim:0h2m9s) 
CPU  0 inst:   38000001 cyc:   26975870 now IPC :1.38785: AVG IPC :1.38493: L2-Pf-HR :-nan: L2-HR :0.74514: (Sim:0h2m13s) 
CPU  0 inst:   39000003 cyc:   27707253 now IPC :1.36728: AVG IPC :1.38445: L2-Pf-HR :-nan: L2-HR :0.74612: (Sim:0h2m17s) 
CPU  0 inst:   40000000 cyc:   28361214 now IPC :1.52914: AVG IPC :1.38791: L2-Pf-HR :-nan: L2-HR :0.74727: (Sim:0h2m21s) 
CPU  0 inst:   41000001 cyc:   29236347 now IPC :1.14268: AVG IPC :1.38031: L2-Pf-HR :-nan: L2-HR :0.74465: (Sim:0h2m25s) 
CPU  0 inst:   42000000 cyc:   29941001 now IPC :1.41913: AVG IPC :1.38126: L2-Pf-HR :-nan: L2-HR :0.74465: (Sim:0h2m29s) 
CPU  0 inst:   43000002 cyc:   30657552 now IPC :1.39558: AVG IPC :1.38160: L2-Pf-HR :-nan: L2-HR :0.74467: (Sim:0h2m34s) 
CPU  0 inst:   44000000 cyc:   31368603 now IPC :1.40637: AVG IPC :1.38218: L2-Pf-HR :-nan: L2-HR :0.74464: (Sim:0h2m38s) 
CPU  0 inst:   45000002 cyc:   32075277 now IPC :1.41508: AVG IPC :1.38293: L2-Pf-HR :-nan: L2-HR :0.74469: (Sim:0h2m42s) 
CPU  0 inst:   46000001 cyc:   32790718 now IPC :1.39774: AVG IPC :1.38326: L2-Pf-HR :-nan: L2-HR :0.74507: (Sim:0h2m46s) 
CPU  0 inst:   47000001 cyc:   33523710 now IPC :1.36427: AVG IPC :1.38284: L2-Pf-HR :-nan: L2-HR :0.74578: (Sim:0h2m50s) 
CPU  0 inst:   48000000 cyc:   34183352 now IPC :1.51597: AVG IPC :1.38548: L2-Pf-HR :-nan: L2-HR :0.74678: (Sim:0h2m54s) 
CPU  0 inst:   49000001 cyc:   35052692 now IPC :1.15030: AVG IPC :1.37948: L2-Pf-HR :-nan: L2-HR :0.74463: (Sim:0h2m58s) 
CPU  0 inst:   50000000 cyc:   35755830 now IPC :1.42219: AVG IPC :1.38034: L2-Pf-HR :-nan: L2-HR :0.74466: (Sim:0h3m2s) 
CPU  0 inst:   51000002 cyc:   36468258 now IPC :1.40365: AVG IPC :1.38081: L2-Pf-HR :-nan: L2-HR :0.74467: (Sim:0h3m6s) 
CPU  0 inst:   52000000 cyc:   37179220 now IPC :1.40654: AVG IPC :1.38132: L2-Pf-HR :-nan: L2-HR :0.74458: (Sim:0h3m11s) 
CPU  0 inst:   53000002 cyc:   37880760 now IPC :1.42544: AVG IPC :1.38216: L2-Pf-HR :-nan: L2-HR :0.74465: (Sim:0h3m14s) 
CPU  0 inst:   54000001 cyc:   38592637 now IPC :1.40474: AVG IPC :1.38258: L2-Pf-HR :-nan: L2-HR :0.74492: (Sim:0h3m17s) 
CPU  0 inst:   55000003 cyc:   39332595 now IPC :1.35143: AVG IPC :1.38198: L2-Pf-HR :-nan: L2-HR :0.74555: (Sim:0h3m19s) 
CPU  0 inst:   56000000 cyc:   39990297 now IPC :1.52044: AVG IPC :1.38432: L2-Pf-HR :-nan: L2-HR :0.74641: (Sim:0h3m22s) 
CPU  0 inst:   57000001 cyc:   40870697 now IPC :1.13585: AVG IPC :1.37883: L2-Pf-HR :-nan: L2-HR :0.74454: (Sim:0h3m27s) 
CPU  0 inst:   58000000 cyc:   41577152 now IPC :1.41552: AVG IPC :1.37947: L2-Pf-HR :-nan: L2-HR :0.74460: (Sim:0h3m30s) 
CPU  0 inst:   59000003 cyc:   42295971 now IPC :1.39117: AVG IPC :1.37967: L2-Pf-HR :-nan: L2-HR :0.74461: (Sim:0h3m33s) 
CPU  0 inst:   60000000 cyc:   43000054 now IPC :1.42028: AVG IPC :1.38035: L2-Pf-HR :-nan: L2-HR :0.74457: (Sim:0h3m36s) 
CPU  0 inst:   61000003 cyc:   43716415 now IPC :1.39595: AVG IPC :1.38062: L2-Pf-HR :-nan: L2-HR :0.74461: (Sim:0h3m39s) 
CPU  0 inst:   62000000 cyc:   44434287 now IPC :1.39300: AVG IPC :1.38082: L2-Pf-HR :-nan: L2-HR :0.74480: (Sim:0h3m43s) 
CPU  0 inst:   63000003 cyc:   45165029 now IPC :1.36848: AVG IPC :1.38062: L2-Pf-HR :-nan: L2-HR :0.74537: (Sim:0h3m46s) 
CPU  0 inst:   64000000 cyc:   45815391 now IPC :1.53760: AVG IPC :1.38289: L2-Pf-HR :-nan: L2-HR :0.74611: (Sim:0h3m48s) 
CPU  0 inst:   65000001 cyc:   46685820 now IPC :1.14886: AVG IPC :1.37844: L2-Pf-HR :-nan: L2-HR :0.74456: (Sim:0h3m51s) 
CPU  0 inst:   66000003 cyc:   47408321 now IPC :1.38408: AVG IPC :1.37852: L2-Pf-HR :-nan: L2-HR :0.74461: (Sim:0h3m54s) 
CPU  0 inst:   67000002 cyc:   48126342 now IPC :1.39272: AVG IPC :1.37874: L2-Pf-HR :-nan: L2-HR :0.74459: (Sim:0h3m57s) 
CPU  0 inst:   68000000 cyc:   48829521 now IPC :1.42211: AVG IPC :1.37938: L2-Pf-HR :-nan: L2-HR :0.74460: (Sim:0h4m0s) 
CPU  0 inst:   69000002 cyc:   49544695 now IPC :1.39826: AVG IPC :1.37966: L2-Pf-HR :-nan: L2-HR :0.74466: (Sim:0h4m3s) 
CPU  0 inst:   70000003 cyc:   50252196 now IPC :1.41343: AVG IPC :1.38014: L2-Pf-HR :-nan: L2-HR :0.74480: (Sim:0h4m6s) 
CPU  0 inst:   71000003 cyc:   51002509 now IPC :1.33278: AVG IPC :1.37943: L2-Pf-HR :-nan: L2-HR :0.74530: (Sim:0h4m9s) 
CPU  0 inst:   72000000 cyc:   51665293 now IPC :1.50878: AVG IPC :1.38112: L2-Pf-HR :-nan: L2-HR :0.74588: (Sim:0h4m12s) 
CPU  0 inst:   73000001 cyc:   52528060 now IPC :1.15906: AVG IPC :1.37741: L2-Pf-HR :-nan: L2-HR :0.74456: (Sim:0h4m15s) 
CPU  0 inst:   74000000 cyc:   53240224 now IPC :1.40417: AVG IPC :1.37777: L2-Pf-HR :-nan: L2-HR :0.74462: (Sim:0h4m18s) 
CPU  0 inst:   75000001 cyc:   53954494 now IPC :1.40003: AVG IPC :1.37807: L2-Pf-HR :-nan: L2-HR :0.74457: (Sim:0h4m21s) 
CPU  0 inst:   76000000 cyc:   54653150 now IPC :1.43132: AVG IPC :1.37876: L2-Pf-HR :-nan: L2-HR :0.74460: (Sim:0h4m23s) 
CPU  0 inst:   77000002 cyc:   55363353 now IPC :1.40805: AVG IPC :1.37915: L2-Pf-HR :-nan: L2-HR :0.74462: (Sim:0h4m26s) 
CPU  0 inst:   78000001 cyc:   56069968 now IPC :1.41520: AVG IPC :1.37961: L2-Pf-HR :-nan: L2-HR :0.74476: (Sim:0h4m29s) 
CPU  0 inst:   79000000 cyc:   56817217 now IPC :1.33824: AVG IPC :1.37905: L2-Pf-HR :-nan: L2-HR :0.74519: (Sim:0h4m32s) 
CPU  0 inst:   80000000 cyc:   57477540 now IPC :1.51441: AVG IPC :1.38064: L2-Pf-HR :-nan: L2-HR :0.74572: (Sim:0h4m35s) 
CPU  0 inst:   81000001 cyc:   58337817 now IPC :1.16242: AVG IPC :1.37736: L2-Pf-HR :-nan: L2-HR :0.74452: (Sim:0h4m38s) 
CPU  0 inst:   82000000 cyc:   59053315 now IPC :1.39763: AVG IPC :1.37761: L2-Pf-HR :-nan: L2-HR :0.74459: (Sim:0h4m42s) 
CPU  0 inst:   83000002 cyc:   59755415 now IPC :1.42430: AVG IPC :1.37817: L2-Pf-HR :-nan: L2-HR :0.74456: (Sim:0h4m45s) 
CPU  0 inst:   84000000 cyc:   60465366 now IPC :1.40855: AVG IPC :1.37853: L2-Pf-HR :-nan: L2-HR :0.74457: (Sim:0h4m49s) 
CPU  0 inst:   85000002 cyc:   61177622 now IPC :1.40399: AVG IPC :1.37883: L2-Pf-HR :-nan: L2-HR :0.74456: (Sim:0h4m54s) 
CPU  0 inst:   86000000 cyc:   61879145 now IPC :1.42547: AVG IPC :1.37937: L2-Pf-HR :-nan: L2-HR :0.74471: (Sim:0h4m58s) 
CPU  0 inst:   87000000 cyc:   62626174 now IPC :1.33864: AVG IPC :1.37888: L2-Pf-HR :-nan: L2-HR :0.74507: (Sim:0h5m2s) 
CPU  0 inst:   88000000 cyc:   63281822 now IPC :1.52521: AVG IPC :1.38042: L2-Pf-HR :-nan: L2-HR :0.74558: (Sim:0h5m6s) 
CPU  0 inst:   89000001 cyc:   64141080 now IPC :1.16380: AVG IPC :1.37747: L2-Pf-HR :-nan: L2-HR :0.74451: (Sim:0h5m10s) 
CPU  0 inst:   90000000 cyc:   64857281 now IPC :1.39625: AVG IPC :1.37768: L2-Pf-HR :-nan: L2-HR :0.74455: (Sim:0h5m14s) 
CPU  0 inst:   91000002 cyc:   65564283 now IPC :1.41443: AVG IPC :1.37808: L2-Pf-HR :-nan: L2-HR :0.74454: (Sim:0h5m18s) 
CPU  0 inst:   92000000 cyc:   66275337 now IPC :1.40636: AVG IPC :1.37839: L2-Pf-HR :-nan: L2-HR :0.74456: (Sim:0h5m23s) 
CPU  0 inst:   93000002 cyc:   66989669 now IPC :1.39991: AVG IPC :1.37862: L2-Pf-HR :-nan: L2-HR :0.74451: (Sim:0h5m27s) 
CPU  0 inst:   94000002 cyc:   67700002 now IPC :1.40779: AVG IPC :1.37894: L2-Pf-HR :-nan: L2-HR :0.74467: (Sim:0h5m31s) 
CPU  0 inst:   95000002 cyc:   68446622 now IPC :1.33937: AVG IPC :1.37850: L2-Pf-HR :-nan: L2-HR :0.74499: (Sim:0h5m35s) 
CPU  0 inst:   96000000 cyc:   69102439 now IPC :1.52481: AVG IPC :1.37991: L2-Pf-HR :-nan: L2-HR :0.74547: (Sim:0h5m39s) 
CPU  0 inst:   97000000 cyc:   69968570 now IPC :1.15456: AVG IPC :1.37708: L2-Pf-HR :-nan: L2-HR :0.74448: (Sim:0h5m43s) 
CPU  0 inst:   98000003 cyc:   70688447 now IPC :1.38913: AVG IPC :1.37720: L2-Pf-HR :-nan: L2-HR :0.74450: (Sim:0h5m47s) 
CPU  0 inst:   99000003 cyc:   71396348 now IPC :1.41263: AVG IPC :1.37756: L2-Pf-HR :-nan: L2-HR :0.74452: (Sim:0h5m51s) 
CPU  0 inst:  100000000 cyc:   72109712 now IPC :1.40180: AVG IPC :1.37780: L2-Pf-HR :-nan: L2-HR :0.74454: (Sim:0h5m56s) 
CPU  0 inst:  101000002 cyc:   72814091 now IPC :1.41969: AVG IPC :1.37821: L2-Pf-HR :-nan: L2-HR :0.74453: (Sim:0h6m0s) 
CPU  0 inst:  102000001 cyc:   73533687 now IPC :1.38967: AVG IPC :1.37833: L2-Pf-HR :-nan: L2-HR :0.74465: (Sim:0h6m4s) 
CPU  0 inst:  103000002 cyc:   74279352 now IPC :1.34109: AVG IPC :1.37795: L2-Pf-HR :-nan: L2-HR :0.74493: (Sim:0h6m7s) 
CPU  0 inst:  104000000 cyc:   74933594 now IPC :1.52848: AVG IPC :1.37928: L2-Pf-HR :-nan: L2-HR :0.74535: (Sim:0h6m9s) 
CPU  0 inst:  105000000 cyc:   75796227 now IPC :1.15924: AVG IPC :1.37674: L2-Pf-HR :-nan: L2-HR :0.74447: (Sim:0h6m12s) 
CPU  0 inst:  106000000 cyc:   76505473 now IPC :1.40995: AVG IPC :1.37705: L2-Pf-HR :-nan: L2-HR :0.74452: (Sim:0h6m15s) 
CPU  0 inst:  107000001 cyc:   77222144 now IPC :1.39534: AVG IPC :1.37722: L2-Pf-HR :-nan: L2-HR :0.74452: (Sim:0h6m18s) 
CPU  0 inst:  108000000 cyc:   77938267 now IPC :1.39641: AVG IPC :1.37740: L2-Pf-HR :-nan: L2-HR :0.74452: (Sim:0h6m21s) 
CPU  0 inst:  109000002 cyc:   78646890 now IPC :1.41119: AVG IPC :1.37771: L2-Pf-HR :-nan: L2-HR :0.74453: (Sim:0h6m23s) 
CPU  0 inst:  110000001 cyc:   79364734 now IPC :1.39306: AVG IPC :1.37785: L2-Pf-HR :-nan: L2-HR :0.74464: (Sim:0h6m26s) 
CPU  0 inst:  111000003 cyc:   80113225 now IPC :1.33602: AVG IPC :1.37746: L2-Pf-HR :-nan: L2-HR :0.74489: (Sim:0h6m29s) 
CPU  0 inst:  112000000 cyc:   80766604 now IPC :1.53050: AVG IPC :1.37871: L2-Pf-HR :-nan: L2-HR :0.74528: (Sim:0h6m32s) 
CPU  0 inst:  113000000 cyc:   81626034 now IPC :1.16356: AVG IPC :1.37642: L2-Pf-HR :-nan: L2-HR :0.74448: (Sim:0h6m35s) 
CPU  0 inst:  114000003 cyc:   82335103 now IPC :1.41030: AVG IPC :1.37671: L2-Pf-HR :-nan: L2-HR :0.74453: (Sim:0h6m37s) 
CPU  0 inst:  115000001 cyc:   83049779 now IPC :1.39923: AVG IPC :1.37691: L2-Pf-HR :-nan: L2-HR :0.74455: (Sim:0h6m40s) 
CPU  0 inst:  116000000 cyc:   83766137 now IPC :1.39595: AVG IPC :1.37707: L2-Pf-HR :-nan: L2-HR :0.74451: (Sim:0h6m43s) 
CPU  0 inst:  117000002 cyc:   84471906 now IPC :1.41690: AVG IPC :1.37741: L2-Pf-HR :-nan: L2-HR :0.74453: (Sim:0h6m46s) 
CPU  0 inst:  118000001 cyc:   85188946 now IPC :1.39462: AVG IPC :1.37756: L2-Pf-HR :-nan: L2-HR :0.74462: (Sim:0h6m49s) 
CPU  0 inst:  119000003 cyc:   85941110 now IPC :1.32950: AVG IPC :1.37713: L2-Pf-HR :-nan: L2-HR :0.74487: (Sim:0h6m51s) 
CPU  0 inst:  120000000 cyc:   86598576 now IPC :1.52099: AVG IPC :1.37824: L2-Pf-HR :-nan: L2-HR :0.74521: (Sim:0h6m54s) 
CPU  0 inst:  121000000 cyc:   87463641 now IPC :1.15598: AVG IPC :1.37601: L2-Pf-HR :-nan: L2-HR :0.74445: (Sim:0h6m57s) 
CPU  0 inst:  122000000 cyc:   88165790 now IPC :1.42420: AVG IPC :1.37640: L2-Pf-HR :-nan: L2-HR :0.74452: (Sim:0h7m0s) 
CPU  0 inst:  123000001 cyc:   88877991 now IPC :1.40410: AVG IPC :1.37662: L2-Pf-HR :-nan: L2-HR :0.74454: (Sim:0h7m3s) 
CPU  0 inst:  124000000 cyc:   89580735 now IPC :1.42299: AVG IPC :1.37699: L2-Pf-HR :-nan: L2-HR :0.74452: (Sim:0h7m7s) 
CPU  0 inst:  125000002 cyc:   90290184 now IPC :1.40955: AVG IPC :1.37725: L2-Pf-HR :-nan: L2-HR :0.74452: (Sim:0h7m11s) 
CPU  0 inst:  126000001 cyc:   91004712 now IPC :1.39952: AVG IPC :1.37743: L2-Pf-HR :-nan: L2-HR :0.74458: (Sim:0h7m15s) 
CPU  0 inst:  127000003 cyc:   91757721 now IPC :1.32801: AVG IPC :1.37702: L2-Pf-HR :-nan: L2-HR :0.74480: (Sim:0h7m19s) 
CPU  0 inst:  128000000 cyc:   92415830 now IPC :1.51950: AVG IPC :1.37804: L2-Pf-HR :-nan: L2-HR :0.74514: (Sim:0h7m23s) 
CPU  0 inst:  129000001 cyc:   93266254 now IPC :1.17589: AVG IPC :1.37618: L2-Pf-HR :-nan: L2-HR :0.74444: (Sim:0h7m28s) 
CPU  0 inst:  130000000 cyc:   93983379 now IPC :1.39446: AVG IPC :1.37632: L2-Pf-HR :-nan: L2-HR :0.74451: (Sim:0h7m32s) 
CPU  0 inst:  131000001 cyc:   94697825 now IPC :1.39969: AVG IPC :1.37650: L2-Pf-HR :-nan: L2-HR :0.74451: (Sim:0h7m36s) 
CPU  0 inst:  132000000 cyc:   95403268 now IPC :1.41755: AVG IPC :1.37681: L2-Pf-HR :-nan: L2-HR :0.74451: (Sim:0h7m40s) 
CPU  0 inst:  133000002 cyc:   96116054 now IPC :1.40295: AVG IPC :1.37700: L2-Pf-HR :-nan: L2-HR :0.74452: (Sim:0h7m44s) 
CPU  0 inst:  134000002 cyc:   96837269 now IPC :1.38655: AVG IPC :1.37707: L2-Pf-HR :-nan: L2-HR :0.74455: (Sim:0h7m48s) 
CPU  0 inst:  135000003 cyc:   97595232 now IPC :1.31933: AVG IPC :1.37662: L2-Pf-HR :-nan: L2-HR :0.74475: (Sim:0h7m52s) 
CPU  0 inst:  136000000 cyc:   98255260 now IPC :1.51508: AVG IPC :1.37756: L2-Pf-HR :-nan: L2-HR :0.74508: (Sim:0h7m56s) 
CPU  0 inst:  137000001 cyc:   99108903 now IPC :1.17145: AVG IPC :1.37577: L2-Pf-HR :-nan: L2-HR :0.74442: (Sim:0h8m1s) 
CPU  0 inst:  138000000 cyc:   99831794 now IPC :1.38333: AVG IPC :1.37582: L2-Pf-HR :-nan: L2-HR :0.74450: (Sim:0h8m5s) 
CPU  0 inst:  139000001 cyc:  100549257 now IPC :1.39380: AVG IPC :1.37595: L2-Pf-HR :-nan: L2-HR :0.74447: (Sim:0h8m8s) 
CPU  0 inst:  140000000 cyc:  101258249 now IPC :1.41045: AVG IPC :1.37620: L2-Pf-HR :-nan: L2-HR :0.74448: (Sim:0h8m12s) 
CPU  0 inst:  141000002 cyc:  101974634 now IPC :1.39590: AVG IPC :1.37634: L2-Pf-HR :-nan: L2-HR :0.74449: (Sim:0h8m16s) 
CPU  0 inst:  142000000 cyc:  102684458 now IPC :1.40880: AVG IPC :1.37656: L2-Pf-HR :-nan: L2-HR :0.74454: (Sim:0h8m20s) 
CPU  0 inst:  143000002 cyc:  103444282 now IPC :1.31610: AVG IPC :1.37611: L2-Pf-HR :-nan: L2-HR :0.74472: (Sim:0h8m24s) 
CPU  0 inst:  144000000 cyc:  104098201 now IPC :1.52924: AVG IPC :1.37709: L2-Pf-HR :-nan: L2-HR :0.74503: (Sim:0h8m28s) 
CPU  0 inst:  145000000 cyc:  104939304 now IPC :1.18892: AVG IPC :1.37556: L2-Pf-HR :-nan: L2-HR :0.74441: (Sim:0h8m33s) 
CPU  0 inst:  146000003 cyc:  105661447 now IPC :1.38477: AVG IPC :1.37563: L2-Pf-HR :-nan: L2-HR :0.74449: (Sim:0h8m37s) 
CPU  0 inst:  147000003 cyc:  106370704 now IPC :1.40993: AVG IPC :1.37586: L2-Pf-HR :-nan: L2-HR :0.74448: (Sim:0h8m41s) 
CPU  0 inst:  148000000 cyc:  107089612 now IPC :1.39099: AVG IPC :1.37596: L2-Pf-HR :-nan: L2-HR :0.74448: (Sim:0h8m45s) 
CPU  0 inst:  149000002 cyc:  107806405 now IPC :1.39511: AVG IPC :1.37609: L2-Pf-HR :-nan: L2-HR :0.74447: (Sim:0h8m49s) 
CPU  0 inst:  150000000 cyc:  108513491 now IPC :1.41425: AVG IPC :1.37634: L2-Pf-HR :-nan: L2-HR :0.74453: (Sim:0h8m52s) 
CPU  0 inst:  151000000 cyc:  109277658 now IPC :1.30861: AVG IPC :1.37586: L2-Pf-HR :-nan: L2-HR :0.74469: (Sim:0h8m55s) 
CPU  0 inst:  152000000 cyc:  109935712 now IPC :1.51963: AVG IPC :1.37673: L2-Pf-HR :-nan: L2-HR :0.74497: (Sim:0h8m58s) 
CPU  0 inst:  153000000 cyc:  110775335 now IPC :1.19101: AVG IPC :1.37531: L2-Pf-HR :-nan: L2-HR :0.74440: (Sim:0h9m2s) 
CPU  0 inst:  154000003 cyc:  111498946 now IPC :1.38196: AVG IPC :1.37535: L2-Pf-HR :-nan: L2-HR :0.74448: (Sim:0h9m6s) 
CPU  0 inst:  155000001 cyc:  112208360 now IPC :1.40961: AVG IPC :1.37557: L2-Pf-HR :-nan: L2-HR :0.74448: (Sim:0h9m10s) 
CPU  0 inst:  156000000 cyc:  112927616 now IPC :1.39032: AVG IPC :1.37567: L2-Pf-HR :-nan: L2-HR :0.74449: (Sim:0h9m14s) 
CPU  0 inst:  157000001 cyc:  113642913 now IPC :1.39802: AVG IPC :1.37581: L2-Pf-HR :-nan: L2-HR :0.74446: (Sim:0h9m19s) 
CPU  0 inst:  158000001 cyc:  114350635 now IPC :1.41298: AVG IPC :1.37604: L2-Pf-HR :-nan: L2-HR :0.74454: (Sim:0h9m23s) 
CPU  0 inst:  159000002 cyc:  115113837 now IPC :1.31027: AVG IPC :1.37560: L2-Pf-HR :-nan: L2-HR :0.74470: (Sim:0h9m27s) 
CPU  0 inst:  160000000 cyc:  115768603 now IPC :1.52726: AVG IPC :1.37647: L2-Pf-HR :-nan: L2-HR :0.74495: (Sim:0h9m31s) 
CPU  0 inst:  161000000 cyc:  116605443 now IPC :1.19497: AVG IPC :1.37515: L2-Pf-HR :-nan: L2-HR :0.74443: (Sim:0h9m36s) 
CPU  0 inst:  162000003 cyc:  117331079 now IPC :1.37811: AVG IPC :1.37517: L2-Pf-HR :-nan: L2-HR :0.74449: (Sim:0h9m40s) 
CPU  0 inst:  163000001 cyc:  118039875 now IPC :1.41084: AVG IPC :1.37539: L2-Pf-HR :-nan: L2-HR :0.74450: (Sim:0h9m44s) 
CPU  0 inst:  164000000 cyc:  118759816 now IPC :1.38900: AVG IPC :1.37547: L2-Pf-HR :-nan: L2-HR :0.74450: (Sim:0h9m48s) 
CPU  0 inst:  165000002 cyc:  119463151 now IPC :1.42180: AVG IPC :1.37574: L2-Pf-HR :-nan: L2-HR :0.74449: (Sim:0h9m52s) 
CPU  0 inst:  166000000 cyc:  120186064 now IPC :1.38329: AVG IPC :1.37579: L2-Pf-HR :-nan: L2-HR :0.74455: (Sim:0h9m56s) 
CPU  0 inst:  167000002 cyc:  120950644 now IPC :1.30791: AVG IPC :1.37536: L2-Pf-HR :-nan: L2-HR :0.74466: (Sim:0h10m1s) 
CPU  0 inst:  168000000 cyc:  121608424 now IPC :1.52026: AVG IPC :1.37615: L2-Pf-HR :-nan: L2-HR :0.74492: (Sim:0h10m5s) 
CPU  0 inst:  169000000 cyc:  122450553 now IPC :1.18747: AVG IPC :1.37484: L2-Pf-HR :-nan: L2-HR :0.74442: (Sim:0h10m10s) 
CPU  0 inst:  170000000 cyc:  123167801 now IPC :1.39422: AVG IPC :1.37495: L2-Pf-HR :-nan: L2-HR :0.74449: (Sim:0h10m14s) 
CPU  0 inst:  171000001 cyc:  123885839 now IPC :1.39269: AVG IPC :1.37506: L2-Pf-HR :-nan: L2-HR :0.74451: (Sim:0h10m18s) 
CPU  0 inst:  172000000 cyc:  124600258 now IPC :1.39974: AVG IPC :1.37520: L2-Pf-HR :-nan: L2-HR :0.74450: (Sim:0h10m22s) 
CPU  0 inst:  173000002 cyc:  125302105 now IPC :1.42481: AVG IPC :1.37548: L2-Pf-HR :-nan: L2-HR :0.74451: (Sim:0h10m26s) 
CPU  0 inst:  174000001 cyc:  126020053 now IPC :1.39286: AVG IPC :1.37558: L2-Pf-HR :-nan: L2-HR :0.74457: (Sim:0h10m30s) 
CPU  0 inst:  175000002 cyc:  126782564 now IPC :1.31146: AVG IPC :1.37519: L2-Pf-HR :-nan: L2-HR :0.74465: (Sim:0h10m34s) 
CPU  0 inst:  176000000 cyc:  127442483 now IPC :1.51533: AVG IPC :1.37592: L2-Pf-HR :-nan: L2-HR :0.74492: (Sim:0h10m38s) 
CPU  0 inst:  177000003 cyc:  128271989 now IPC :1.20554: AVG IPC :1.37481: L2-Pf-HR :-nan: L2-HR :0.74443: (Sim:0h10m42s) 
CPU  0 inst:  178000003 cyc:  128990070 now IPC :1.39260: AVG IPC :1.37491: L2-Pf-HR :-nan: L2-HR :0.74451: (Sim:0h10m46s) 
CPU  0 inst:  179000001 cyc:  129703529 now IPC :1.40162: AVG IPC :1.37506: L2-Pf-HR :-nan: L2-HR :0.74451: (Sim:0h10m51s) 
CPU  0 inst:  180000000 cyc:  130416512 now IPC :1.40256: AVG IPC :1.37521: L2-Pf-HR :-nan: L2-HR :0.74449: (Sim:0h10m55s) 
CPU  0 inst:  181000002 cyc:  131116105 now IPC :1.42941: AVG IPC :1.37550: L2-Pf-HR :-nan: L2-HR :0.74450: (Sim:0h10m59s) 
CPU  0 inst:  182000000 cyc:  131827249 now IPC :1.40618: AVG IPC :1.37567: L2-Pf-HR :-nan: L2-HR :0.74455: (Sim:0h11m3s) 
CPU  0 inst:  183000003 cyc:  132592613 now IPC :1.30657: AVG IPC :1.37527: L2-Pf-HR :-nan: L2-HR :0.74463: (Sim:0h11m7s) 
CPU  0 inst:  184000000 cyc:  133257664 now IPC :1.50364: AVG IPC :1.37591: L2-Pf-HR :-nan: L2-HR :0.74489: (Sim:0h11m11s) 
CPU  0 inst:  185000000 cyc:  134092539 now IPC :1.19778: AVG IPC :1.37480: L2-Pf-HR :-nan: L2-HR :0.74442: (Sim:0h11m15s) 
CPU  0 inst:  186000003 cyc:  134817174 now IPC :1.38001: AVG IPC :1.37482: L2-Pf-HR :-nan: L2-HR :0.74450: (Sim:0h11m19s) 
CPU  0 inst:  187000001 cyc:  135535281 now IPC :1.39255: AVG IPC :1.37492: L2-Pf-HR :-nan: L2-HR :0.74451: (Sim:0h11m23s) 
CPU  0 inst:  188000000 cyc:  136246520 now IPC :1.40600: AVG IPC :1.37508: L2-Pf-HR :-nan: L2-HR :0.74449: (Sim:0h11m27s) 
CPU  0 inst:  189000002 cyc:  136959129 now IPC :1.40330: AVG IPC :1.37523: L2-Pf-HR :-nan: L2-HR :0.74450: (Sim:0h11m31s) 
CPU  0 inst:  190000000 cyc:  137674581 now IPC :1.39771: AVG IPC :1.37535: L2-Pf-HR :-nan: L2-HR :0.74453: (Sim:0h11m36s) 
CPU  0 inst:  191000003 cyc:  138441550 now IPC :1.30384: AVG IPC :1.37495: L2-Pf-HR :-nan: L2-HR :0.74461: (Sim:0h11m40s) 
CPU  0 inst:  192000000 cyc:  139101438 now IPC :1.51540: AVG IPC :1.37562: L2-Pf-HR :-nan: L2-HR :0.74485: (Sim:0h11m44s) 
CPU  0 inst:  193000000 cyc:  139926186 now IPC :1.21249: AVG IPC :1.37465: L2-Pf-HR :-nan: L2-HR :0.74442: (Sim:0h11m48s) 
CPU  0 inst:  194000003 cyc:  140652778 now IPC :1.37629: AVG IPC :1.37466: L2-Pf-HR :-nan: L2-HR :0.74449: (Sim:0h11m51s) 
CPU  0 inst:  195000001 cyc:  141368299 now IPC :1.39758: AVG IPC :1.37478: L2-Pf-HR :-nan: L2-HR :0.74449: (Sim:0h11m55s) 
CPU  0 inst:  196000000 cyc:  142072083 now IPC :1.42089: AVG IPC :1.37501: L2-Pf-HR :-nan: L2-HR :0.74448: (Sim:0h11m59s) 
CPU  0 inst:  197000002 cyc:  142780022 now IPC :1.41255: AVG IPC :1.37519: L2-Pf-HR :-nan: L2-HR :0.74450: (Sim:0h12m3s) 
CPU  0 inst:  198000000 cyc:  143493574 now IPC :1.40144: AVG IPC :1.37533: L2-Pf-HR :-nan: L2-HR :0.74451: (Sim:0h12m5s) 
CPU  0 inst:  199000003 cyc:  144253993 now IPC :1.31507: AVG IPC :1.37501: L2-Pf-HR :-nan: L2-HR :0.74459: (Sim:0h12m8s) 
CPU  0 inst:  200000000 cyc:  144910771 now IPC :1.52258: AVG IPC :1.37568: L2-Pf-HR :-nan: L2-HR :0.74481: (Sim:0h12m11s) 
CPU  0 inst:  201000001 cyc:  145657652 now IPC :1.33890: AVG IPC :1.37549: L2-Pf-HR :-nan: L2-HR :0.74481: (Sim:0h12m15s) 
CPU  0 inst:  202000002 cyc:  146455725 now IPC :1.25302: AVG IPC :1.37482: L2-Pf-HR :-nan: L2-HR :0.74450: (Sim:0h12m20s) 
CPU  0 inst:  203000002 cyc:  147176570 now IPC :1.38726: AVG IPC :1.37488: L2-Pf-HR :-nan: L2-HR :0.74449: (Sim:0h12m24s) 
CPU  0 inst:  204000000 cyc:  147883857 now IPC :1.41385: AVG IPC :1.37507: L2-Pf-HR :-nan: L2-HR :0.74449: (Sim:0h12m28s) 
CPU  0 inst:  205000001 cyc:  148596304 now IPC :1.40361: AVG IPC :1.37520: L2-Pf-HR :-nan: L2-HR :0.74450: (Sim:0h12m32s) 
CPU  0 inst:  206000001 cyc:  149306521 now IPC :1.40802: AVG IPC :1.37536: L2-Pf-HR :-nan: L2-HR :0.74452: (Sim:0h12m36s) 
CPU  0 inst:  207000003 cyc:  150029455 now IPC :1.38325: AVG IPC :1.37540: L2-Pf-HR :-nan: L2-HR :0.74466: (Sim:0h12m40s) 
CPU  0 inst:  208000000 cyc:  150740691 now IPC :1.40600: AVG IPC :1.37555: L2-Pf-HR :-nan: L2-HR :0.74481: (Sim:0h12m44s) 
CPU  0 inst:  209000002 cyc:  151433263 now IPC :1.44390: AVG IPC :1.37586: L2-Pf-HR :-nan: L2-HR :0.74504: (Sim:0h12m48s) 
CPU  0 inst:  210000003 cyc:  152288846 now IPC :1.16879: AVG IPC :1.37469: L2-Pf-HR :-nan: L2-HR :0.74450: (Sim:0h12m52s) 
CPU  0 inst:  211000001 cyc:  152991946 now IPC :1.42227: AVG IPC :1.37491: L2-Pf-HR :-nan: L2-HR :0.74449: (Sim:0h12m57s) 
CPU  0 inst:  212000000 cyc:  153705136 now IPC :1.40215: AVG IPC :1.37504: L2-Pf-HR :-nan: L2-HR :0.74449: (Sim:0h13m1s) 
CPU  0 inst:  213000001 cyc:  154412115 now IPC :1.41447: AVG IPC :1.37522: L2-Pf-HR :-nan: L2-HR :0.74449: (Sim:0h13m5s) 
CPU  0 inst:  214000001 cyc:  155114366 now IPC :1.42399: AVG IPC :1.37544: L2-Pf-HR :-nan: L2-HR :0.74452: (Sim:0h13m9s) 
CPU  0 inst:  215000003 cyc:  155828905 now IPC :1.39951: AVG IPC :1.37555: L2-Pf-HR :-nan: L2-HR :0.74465: (Sim:0h13m13s) 
CPU  0 inst:  216000000 cyc:  156545546 now IPC :1.39539: AVG IPC :1.37564: L2-Pf-HR :-nan: L2-HR :0.74479: (Sim:0h13m17s) 
CPU  0 inst:  217000001 cyc:  157204577 now IPC :1.51738: AVG IPC :1.37624: L2-Pf-HR :-nan: L2-HR :0.74505: (Sim:0h13m21s) 
CPU  0 inst:  218000000 cyc:  158085118 now IPC :1.13566: AVG IPC :1.37489: L2-Pf-HR :-nan: L2-HR :0.74449: (Sim:0h13m25s) 
CPU  0 inst:  219000001 cyc:  158787331 now IPC :1.42407: AVG IPC :1.37511: L2-Pf-HR :-nan: L2-HR :0.74449: (Sim:0h13m29s) 
CPU  0 inst:  220000000 cyc:  159500750 now IPC :1.40170: AVG IPC :1.37523: L2-Pf-HR :-nan: L2-HR :0.74450: (Sim:0h13m33s) 
CPU  0 inst:  221000001 cyc:  160209168 now IPC :1.41160: AVG IPC :1.37539: L2-Pf-HR :-nan: L2-HR :0.74449: (Sim:0h13m38s) 
CPU  0 inst:  222000001 cyc:  160911928 now IPC :1.42296: AVG IPC :1.37560: L2-Pf-HR :-nan: L2-HR :0.74452: (Sim:0h13m42s) 
CPU  0 inst:  223000002 cyc:  161627865 now IPC :1.39677: AVG IPC :1.37570: L2-Pf-HR :-nan: L2-HR :0.74463: (Sim:0h13m46s) 
CPU  0 inst:  224000000 cyc:  162349690 now IPC :1.38537: AVG IPC :1.37574: L2-Pf-HR :-nan: L2-HR :0.74479: (Sim:0h13m50s) 
CPU  0 inst:  225000001 cyc:  163009737 now IPC :1.51505: AVG IPC :1.37631: L2-Pf-HR :-nan: L2-HR :0.74500: (Sim:0h13m53s) 
CPU  0 inst:  226000003 cyc:  163891893 now IPC :1.13359: AVG IPC :1.37499: L2-Pf-HR :-nan: L2-HR :0.74449: (Sim:0h13m56s) 
CPU  0 inst:  227000001 cyc:  164594054 now IPC :1.42417: AVG IPC :1.37520: L2-Pf-HR :-nan: L2-HR :0.74450: (Sim:0h13m59s) 
CPU  0 inst:  228000000 cyc:  165306690 now IPC :1.40324: AVG IPC :1.37532: L2-Pf-HR :-nan: L2-HR :0.74451: (Sim:0h14m1s) 
CPU  0 inst:  229000002 cyc:  166004592 now IPC :1.43287: AVG IPC :1.37557: L2-Pf-HR :-nan: L2-HR :0.74450: (Sim:0h14m4s) 
CPU  0 inst:  230000000 cyc:  166720734 now IPC :1.39637: AVG IPC :1.37566: L2-Pf-HR :-nan: L2-HR :0.74452: (Sim:0h14m8s) 
CPU  0 inst:  231000001 cyc:  167434662 now IPC :1.40070: AVG IPC :1.37577: L2-Pf-HR :-nan: L2-HR :0.74460: (Sim:0h14m11s) 
CPU  0 inst:  232000000 cyc:  168156720 now IPC :1.38493: AVG IPC :1.37581: L2-Pf-HR :-nan: L2-HR :0.74477: (Sim:0h14m14s) 
CPU  0 inst:  233000001 cyc:  168817517 now IPC :1.51333: AVG IPC :1.37635: L2-Pf-HR :-nan: L2-HR :0.74497: (Sim:0h14m17s) 
CPU  0 inst:  234000003 cyc:  169697767 now IPC :1.13604: AVG IPC :1.37509: L2-Pf-HR :-nan: L2-HR :0.74450: (Sim:0h14m20s) 
CPU  0 inst:  235000001 cyc:  170412000 now IPC :1.40010: AVG IPC :1.37520: L2-Pf-HR :-nan: L2-HR :0.74450: (Sim:0h14m23s) 
CPU  0 inst:  236000000 cyc:  171125612 now IPC :1.40132: AVG IPC :1.37531: L2-Pf-HR :-nan: L2-HR :0.74450: (Sim:0h14m26s) 
CPU  0 inst:  237000001 cyc:  171827755 now IPC :1.42421: AVG IPC :1.37551: L2-Pf-HR :-nan: L2-HR :0.74450: (Sim:0h14m28s) 
CPU  0 inst:  238000000 cyc:  172543056 now IPC :1.39801: AVG IPC :1.37560: L2-Pf-HR :-nan: L2-HR :0.74452: (Sim:0h14m31s) 
CPU  0 inst:  239000003 cyc:  173257670 now IPC :1.39936: AVG IPC :1.37570: L2-Pf-HR :-nan: L2-HR :0.74457: (Sim:0h14m34s) 
CPU  0 inst:  240000000 cyc:  173984464 now IPC :1.37590: AVG IPC :1.37570: L2-Pf-HR :-nan: L2-HR :0.74474: (Sim:0h14m37s) 
CPU  0 inst:  241000001 cyc:  174645573 now IPC :1.51261: AVG IPC :1.37622: L2-Pf-HR :-nan: L2-HR :0.74495: (Sim:0h14m40s) 
CPU  0 inst:  242000003 cyc:  175522622 now IPC :1.14019: AVG IPC :1.37504: L2-Pf-HR :-nan: L2-HR :0.74450: (Sim:0h14m43s) 
CPU  0 inst:  243000002 cyc:  176233968 now IPC :1.40578: AVG IPC :1.37516: L2-Pf-HR :-nan: L2-HR :0.74450: (Sim:0h14m46s) 
CPU  0 inst:  244000000 cyc:  176946475 now IPC :1.40349: AVG IPC :1.37528: L2-Pf-HR :-nan: L2-HR :0.74449: (Sim:0h14m49s) 
CPU  0 inst:  245000001 cyc:  177645616 now IPC :1.43033: AVG IPC :1.37549: L2-Pf-HR :-nan: L2-HR :0.74449: (Sim:0h14m52s) 
CPU  0 inst:  246000000 cyc:  178359505 now IPC :1.40078: AVG IPC :1.37560: L2-Pf-HR :-nan: L2-HR :0.74451: (Sim:0h14m55s) 
CPU  0 inst:  247000002 cyc:  179067308 now IPC :1.41283: AVG IPC :1.37574: L2-Pf-HR :-nan: L2-HR :0.74456: (Sim:0h14m57s) 
CPU  0 inst:  248000000 cyc:  179796756 now IPC :1.37090: AVG IPC :1.37572: L2-Pf-HR :-nan: L2-HR :0.74473: (Sim:0h15m0s) 
CPU  0 inst:  249000003 cyc:  180455683 now IPC :1.51762: AVG IPC :1.37625: L2-Pf-HR :-nan: L2-HR :0.74492: (Sim:0h15m3s) 
CPU  0 inst:  250000002 cyc:  181335210 now IPC :1.13697: AVG IPC :1.37508: L2-Pf-HR :-nan: L2-HR :0.74449: (Sim:0h15m6s) 
CPU  0 inst:  251000002 cyc:  182050932 now IPC :1.39719: AVG IPC :1.37517: L2-Pf-HR :-nan: L2-HR :0.74450: (Sim:0h15m10s) 
CPU  0 inst:  252000000 cyc:  182755724 now IPC :1.41886: AVG IPC :1.37534: L2-Pf-HR :-nan: L2-HR :0.74449: (Sim:0h15m14s) 
CPU  0 inst:  253000001 cyc:  183467644 now IPC :1.40465: AVG IPC :1.37545: L2-Pf-HR :-nan: L2-HR :0.74449: (Sim:0h15m18s) 
CPU  0 inst:  254000000 cyc:  184182992 now IPC :1.39792: AVG IPC :1.37554: L2-Pf-HR :-nan: L2-HR :0.74449: (Sim:0h15m23s) 
CPU  0 inst:  255000002 cyc:  184891452 now IPC :1.41152: AVG IPC :1.37568: L2-Pf-HR :-nan: L2-HR :0.74455: (Sim:0h15m27s) 
CPU  0 inst:  256000000 cyc:  185623064 now IPC :1.36684: AVG IPC :1.37564: L2-Pf-HR :-nan: L2-HR :0.74471: (Sim:0h15m31s) 
CPU  0 inst:  257000003 cyc:  186279019 now IPC :1.52450: AVG IPC :1.37617: L2-Pf-HR :-nan: L2-HR :0.74489: (Sim:0h15m35s) 
CPU  0 inst:  258000001 cyc:  191298720 now IPC :0.19921: AVG IPC :1.34513: L2-Pf-HR :-nan: L2-HR :0.73755: (Sim:0h15m47s) 
CPU  0 inst:  259000000 cyc:  197702682 now IPC :0.15615: AVG IPC :1.30642: L2-Pf-HR :-nan: L2-HR :0.72873: (Sim:0h16m3s) 
CPU  0 inst:  260000000 cyc:  204107288 now IPC :0.15614: AVG IPC :1.27015: L2-Pf-HR :-nan: L2-HR :0.72054: (Sim:0h16m19s) 
CPU  0 inst:  261000001 cyc:  210514863 now IPC :0.15607: AVG IPC :1.23608: L2-Pf-HR :-nan: L2-HR :0.71292: (Sim:0h16m34s) 
CPU  0 inst:  262000001 cyc:  216792890 now IPC :0.15929: AVG IPC :1.20476: L2-Pf-HR :-nan: L2-HR :0.70596: (Sim:0h16m49s) 
CPU  0 inst:  263000000 cyc:  222192948 now IPC :0.18518: AVG IPC :1.17987: L2-Pf-HR :-nan: L2-HR :0.70460: (Sim:0h17m0s) 
CPU  0 inst:  264000000 cyc:  227533967 now IPC :0.18723: AVG IPC :1.15647: L2-Pf-HR :-nan: L2-HR :0.70324: (Sim:0h17m11s) 
CPU  0 inst:  265000002 cyc:  232510503 now IPC :0.20094: AVG IPC :1.13593: L2-Pf-HR :-nan: L2-HR :0.70189: (Sim:0h17m21s) 
CPU  0 inst:  266000002 cyc:  237508117 now IPC :0.20010: AVG IPC :1.11616: L2-Pf-HR :-nan: L2-HR :0.70055: (Sim:0h17m31s) 
CPU  0 inst:  267000002 cyc:  242540135 now IPC :0.19873: AVG IPC :1.09704: L2-Pf-HR :-nan: L2-HR :0.69922: (Sim:0h17m41s) 
CPU  0 inst:  268000000 cyc:  247658683 now IPC :0.19537: AVG IPC :1.07833: L2-Pf-HR :-nan: L2-HR :0.69791: (Sim:0h17m48s) 
CPU  0 inst:  269000001 cyc:  252678426 now IPC :0.19921: AVG IPC :1.06080: L2-Pf-HR :-nan: L2-HR :0.69660: (Sim:0h17m55s) 
CPU  0 inst:  270000000 cyc:  257681520 now IPC :0.19988: AVG IPC :1.04402: L2-Pf-HR :-nan: L2-HR :0.69530: (Sim:0h18m4s) 
CPU  0 inst:  271000001 cyc:  262764015 now IPC :0.19675: AVG IPC :1.02757: L2-Pf-HR :-nan: L2-HR :0.69401: (Sim:0h18m14s) 
CPU  0 inst:  272000000 cyc:  267704083 now IPC :0.20243: AVG IPC :1.01229: L2-Pf-HR :-nan: L2-HR :0.69272: (Sim:0h18m24s) 
CPU  0 inst:  273000002 cyc:  272777942 now IPC :0.19709: AVG IPC :0.99707: L2-Pf-HR :-nan: L2-HR :0.69145: (Sim:0h18m33s) 
CPU  0 inst:  274000002 cyc:  277775133 now IPC :0.20011: AVG IPC :0.98268: L2-Pf-HR :-nan: L2-HR :0.69019: (Sim:0h18m39s) 
CPU  0 inst:  275000002 cyc:  282804905 now IPC :0.19882: AVG IPC :0.96869: L2-Pf-HR :-nan: L2-HR :0.68893: (Sim:0h18m46s) 
CPU  0 inst:  276000000 cyc:  287805320 now IPC :0.19998: AVG IPC :0.95529: L2-Pf-HR :-nan: L2-HR :0.68768: (Sim:0h18m52s) 
CPU  0 inst:  277000001 cyc:  292684504 now IPC :0.20495: AVG IPC :0.94274: L2-Pf-HR :-nan: L2-HR :0.68645: (Sim:0h19m0s) 
CPU  0 inst:  278000000 cyc:  297690768 now IPC :0.19975: AVG IPC :0.93020: L2-Pf-HR :-nan: L2-HR :0.68522: (Sim:0h19m10s) 
CPU  0 inst:  279000000 cyc:  302612973 now IPC :0.20316: AVG IPC :0.91834: L2-Pf-HR :-nan: L2-HR :0.68400: (Sim:0h19m20s) 
CPU  0 inst:  280000000 cyc:  307667783 now IPC :0.19783: AVG IPC :0.90646: L2-Pf-HR :-nan: L2-HR :0.68279: (Sim:0h19m29s) 
CPU  0 inst:  281000001 cyc:  312528009 now IPC :0.20575: AVG IPC :0.89553: L2-Pf-HR :-nan: L2-HR :0.68158: (Sim:0h19m38s) 
CPU  0 inst:  282000001 cyc:  317439401 now IPC :0.20361: AVG IPC :0.88479: L2-Pf-HR :-nan: L2-HR :0.68039: (Sim:0h19m48s) 
CPU  0 inst:  283000002 cyc:  322385270 now IPC :0.20219: AVG IPC :0.87429: L2-Pf-HR :-nan: L2-HR :0.67920: (Sim:0h19m58s) 
CPU  0 inst:  284000000 cyc:  327489421 now IPC :0.19592: AVG IPC :0.86369: L2-Pf-HR :-nan: L2-HR :0.67802: (Sim:0h20m8s) 
CPU  0 inst:  285000001 cyc:  332454701 now IPC :0.20140: AVG IPC :0.85377: L2-Pf-HR :-nan: L2-HR :0.67685: (Sim:0h20m18s) 
CPU  0 inst:  286000000 cyc:  337593726 now IPC :0.19459: AVG IPC :0.84370: L2-Pf-HR :-nan: L2-HR :0.67569: (Sim:0h20m29s) 
CPU  0 inst:  287000000 cyc:  342559937 now IPC :0.20136: AVG IPC :0.83436: L2-Pf-HR :-nan: L2-HR :0.67453: (Sim:0h20m38s) 
CPU  0 inst:  288000000 cyc:  347739014 now IPC :0.19308: AVG IPC :0.82478: L2-Pf-HR :-nan: L2-HR :0.67338: (Sim:0h20m49s) 
CPU  0 inst:  289000001 cyc:  352531854 now IPC :0.20864: AVG IPC :0.81638: L2-Pf-HR :-nan: L2-HR :0.67224: (Sim:0h20m58s) 
CPU  0 inst:  290000003 cyc:  357470793 now IPC :0.20247: AVG IPC :0.80788: L2-Pf-HR :-nan: L2-HR :0.67111: (Sim:0h21m8s) 
CPU  0 inst:  291000001 cyc:  362345637 now IPC :0.20513: AVG IPC :0.79975: L2-Pf-HR :-nan: L2-HR :0.66999: (Sim:0h21m18s) 
CPU  0 inst:  292000000 cyc:  367121114 now IPC :0.20940: AVG IPC :0.79205: L2-Pf-HR :-nan: L2-HR :0.66887: (Sim:0h21m28s) 
CPU  0 inst:  293000001 cyc:  372053297 now IPC :0.20275: AVG IPC :0.78422: L2-Pf-HR :-nan: L2-HR :0.66776: (Sim:0h21m38s) 
CPU  0 inst:  294000000 cyc:  377140197 now IPC :0.19658: AVG IPC :0.77627: L2-Pf-HR :-nan: L2-HR :0.66666: (Sim:0h21m48s) 
CPU  0 inst:  295000000 cyc:  382151700 now IPC :0.19954: AVG IPC :0.76869: L2-Pf-HR :-nan: L2-HR :0.66556: (Sim:0h21m56s) 
CPU  0 inst:  296000000 cyc:  387261343 now IPC :0.19571: AVG IPC :0.76111: L2-Pf-HR :-nan: L2-HR :0.66447: (Sim:0h22m3s) 
CPU  0 inst:  297000001 cyc:  392335855 now IPC :0.19706: AVG IPC :0.75379: L2-Pf-HR :-nan: L2-HR :0.66339: (Sim:0h22m11s) 
CPU  0 inst:  298000002 cyc:  397404593 now IPC :0.19729: AVG IPC :0.74668: L2-Pf-HR :-nan: L2-HR :0.66232: (Sim:0h22m21s) 
CPU  0 inst:  299000002 cyc:  402390071 now IPC :0.20058: AVG IPC :0.73990: L2-Pf-HR :-nan: L2-HR :0.66125: (Sim:0h22m31s) 
CPU  0 inst:  300000000 cyc:  407468141 now IPC :0.19692: AVG IPC :0.73311: L2-Pf-HR :-nan: L2-HR :0.66019: (Sim:0h22m41s) 
CPU  0 inst:  301000001 cyc:  412436756 now IPC :0.20126: AVG IPC :0.72669: L2-Pf-HR :-nan: L2-HR :0.65914: (Sim:0h22m51s) 
CPU  0 inst:  302000000 cyc:  417466004 now IPC :0.19884: AVG IPC :0.72032: L2-Pf-HR :-nan: L2-HR :0.65809: (Sim:0h23m1s) 
CPU  0 inst:  303000000 cyc:  422466066 now IPC :0.20000: AVG IPC :0.71414: L2-Pf-HR :-nan: L2-HR :0.65705: (Sim:0h23m8s) 
CPU  0 inst:  304000000 cyc:  427385943 now IPC :0.20326: AVG IPC :0.70825: L2-Pf-HR :-nan: L2-HR :0.65602: (Sim:0h23m17s) 
CPU  0 inst:  305000001 cyc:  432305486 now IPC :0.20327: AVG IPC :0.70249: L2-Pf-HR :-nan: L2-HR :0.65499: (Sim:0h23m27s) 
CPU  0 inst:  306000002 cyc:  437284477 now IPC :0.20084: AVG IPC :0.69676: L2-Pf-HR :-nan: L2-HR :0.65397: (Sim:0h23m37s) 
CPU  0 inst:  307000002 cyc:  442264983 now IPC :0.20078: AVG IPC :0.69117: L2-Pf-HR :-nan: L2-HR :0.65296: (Sim:0h23m47s) 
CPU  0 inst:  308000000 cyc:  447323344 now IPC :0.19769: AVG IPC :0.68557: L2-Pf-HR :-nan: L2-HR :0.65195: (Sim:0h23m57s) 
CPU  0 inst:  309000000 cyc:  452485007 now IPC :0.19374: AVG IPC :0.67995: L2-Pf-HR :-nan: L2-HR :0.65095: (Sim:0h24m7s) 
CPU  0 inst:  310000003 cyc:  457631977 now IPC :0.19429: AVG IPC :0.67448: L2-Pf-HR :-nan: L2-HR :0.64996: (Sim:0h24m18s) 
CPU  0 inst:  311000002 cyc:  462721653 now IPC :0.19648: AVG IPC :0.66921: L2-Pf-HR :-nan: L2-HR :0.64897: (Sim:0h24m28s) 
CPU  0 inst:  312000000 cyc:  467866388 now IPC :0.19437: AVG IPC :0.66398: L2-Pf-HR :-nan: L2-HR :0.64799: (Sim:0h24m38s) 
CPU  0 inst:  313000001 cyc:  472877997 now IPC :0.19954: AVG IPC :0.65904: L2-Pf-HR :-nan: L2-HR :0.64701: (Sim:0h24m48s) 
CPU  0 inst:  314000002 cyc:  477929638 now IPC :0.19796: AVG IPC :0.65416: L2-Pf-HR :-nan: L2-HR :0.64604: (Sim:0h24m58s) 
CPU  0 inst:  315000002 cyc:  483039168 now IPC :0.19571: AVG IPC :0.64930: L2-Pf-HR :-nan: L2-HR :0.64508: (Sim:0h25m8s) 
CPU  0 inst:  316000000 cyc:  488022112 now IPC :0.20068: AVG IPC :0.64471: L2-Pf-HR :-nan: L2-HR :0.64412: (Sim:0h25m18s) 
CPU  0 inst:  317000000 cyc:  492959177 now IPC :0.20255: AVG IPC :0.64027: L2-Pf-HR :-nan: L2-HR :0.64317: (Sim:0h25m28s) 
CPU  0 inst:  318000001 cyc:  497907697 now IPC :0.20208: AVG IPC :0.63591: L2-Pf-HR :-nan: L2-HR :0.64222: (Sim:0h25m38s) 
CPU  0 inst:  319000000 cyc:  502969926 now IPC :0.19754: AVG IPC :0.63149: L2-Pf-HR :-nan: L2-HR :0.64128: (Sim:0h25m48s) 
CPU  0 inst:  320000000 cyc:  508072592 now IPC :0.19598: AVG IPC :0.62711: L2-Pf-HR :-nan: L2-HR :0.64034: (Sim:0h25m58s) 
CPU  0 inst:  321000000 cyc:  512891923 now IPC :0.20750: AVG IPC :0.62316: L2-Pf-HR :-nan: L2-HR :0.63942: (Sim:0h26m7s) 
CPU  0 inst:  322000002 cyc:  517792963 now IPC :0.20404: AVG IPC :0.61918: L2-Pf-HR :-nan: L2-HR :0.63849: (Sim:0h26m17s) 
CPU  0 inst:  323000002 cyc:  522773677 now IPC :0.20077: AVG IPC :0.61519: L2-Pf-HR :-nan: L2-HR :0.63757: (Sim:0h26m27s) 
CPU  0 inst:  324000000 cyc:  527857470 now IPC :0.19670: AVG IPC :0.61115: L2-Pf-HR :-nan: L2-HR :0.63666: (Sim:0h26m37s) 
CPU  0 inst:  325000000 cyc:  532906609 now IPC :0.19805: AVG IPC :0.60723: L2-Pf-HR :-nan: L2-HR :0.63575: (Sim:0h26m47s) 
CPU  0 inst:  326000001 cyc:  537944603 now IPC :0.19849: AVG IPC :0.60339: L2-Pf-HR :-nan: L2-HR :0.63485: (Sim:0h26m57s) 
CPU  0 inst:  327000001 cyc:  540356751 now IPC :0.41457: AVG IPC :0.60255: L2-Pf-HR :-nan: L2-HR :0.63395: (Sim:0h27m3s) 
CPU  0 inst:  328000000 cyc:  541096051 now IPC :1.35263: AVG IPC :0.60358: L2-Pf-HR :-nan: L2-HR :0.63410: (Sim:0h27m8s) 
CPU  0 inst:  329000003 cyc:  541908201 now IPC :1.23130: AVG IPC :0.60452: L2-Pf-HR :-nan: L2-HR :0.63441: (Sim:0h27m12s) 
CPU  0 inst:  330000000 cyc:  542817718 now IPC :1.09948: AVG IPC :0.60535: L2-Pf-HR :-nan: L2-HR :0.63426: (Sim:0h27m16s) 
CPU  0 inst:  331000001 cyc:  543414337 now IPC :1.67611: AVG IPC :0.60653: L2-Pf-HR :-nan: L2-HR :0.63442: (Sim:0h27m20s) 
CPU  0 inst:  332000000 cyc:  544107380 now IPC :1.44291: AVG IPC :0.60759: L2-Pf-HR :-nan: L2-HR :0.63466: (Sim:0h27m24s) 
CPU  0 inst:  333000002 cyc:  544837371 now IPC :1.36988: AVG IPC :0.60862: L2-Pf-HR :-nan: L2-HR :0.63486: (Sim:0h27m28s) 
CPU  0 inst:  334000000 cyc:  545402047 now IPC :1.77092: AVG IPC :0.60982: L2-Pf-HR :-nan: L2-HR :0.63525: (Sim:0h27m32s) 
CPU  0 inst:  335000001 cyc:  546305588 now IPC :1.10676: AVG IPC :0.61065: L2-Pf-HR :-nan: L2-HR :0.63533: (Sim:0h27m36s) 
CPU  0 inst:  336000000 cyc:  546991606 now IPC :1.45769: AVG IPC :0.61171: L2-Pf-HR :-nan: L2-HR :0.63543: (Sim:0h27m40s) 
CPU  0 inst:  337000001 cyc:  547673847 now IPC :1.46576: AVG IPC :0.61278: L2-Pf-HR :-nan: L2-HR :0.63563: (Sim:0h27m44s) 
CPU  0 inst:  338000003 cyc:  548601950 now IPC :1.07747: AVG IPC :0.61356: L2-Pf-HR :-nan: L2-HR :0.63566: (Sim:0h27m49s) 
CPU  0 inst:  339000000 cyc:  549209943 now IPC :1.64475: AVG IPC :0.61471: L2-Pf-HR :-nan: L2-HR :0.63572: (Sim:0h27m53s) 
CPU  0 inst:  340000000 cyc:  549799366 now IPC :1.69657: AVG IPC :0.61587: L2-Pf-HR :-nan: L2-HR :0.63586: (Sim:0h27m56s) 
CPU  0 inst:  341000002 cyc:  550456183 now IPC :1.52250: AVG IPC :0.61695: L2-Pf-HR :-nan: L2-HR :0.63629: (Sim:0h28m0s) 
CPU  0 inst:  342000001 cyc:  551187508 now IPC :1.36738: AVG IPC :0.61795: L2-Pf-HR :-nan: L2-HR :0.63643: (Sim:0h28m4s) 
CPU  0 inst:  343000001 cyc:  551808385 now IPC :1.61063: AVG IPC :0.61907: L2-Pf-HR :-nan: L2-HR :0.63690: (Sim:0h28m8s) 
CPU  0 inst:  344000000 cyc:  552733230 now IPC :1.08126: AVG IPC :0.61984: L2-Pf-HR :-nan: L2-HR :0.63667: (Sim:0h28m13s) 
CPU  0 inst:  345000003 cyc:  553425745 now IPC :1.44402: AVG IPC :0.62088: L2-Pf-HR :-nan: L2-HR :0.63683: (Sim:0h28m17s) 
CPU  0 inst:  346000000 cyc:  554177615 now IPC :1.33001: AVG IPC :0.62184: L2-Pf-HR :-nan: L2-HR :0.63710: (Sim:0h28m21s) 
CPU  0 inst:  347000000 cyc:  555013470 now IPC :1.19638: AVG IPC :0.62271: L2-Pf-HR :-nan: L2-HR :0.63694: (Sim:0h28m25s) 
CPU  0 inst:  348000000 cyc:  555604124 now IPC :1.69304: AVG IPC :0.62385: L2-Pf-HR :-nan: L2-HR :0.63709: (Sim:0h28m29s) 
CPU  0 inst:  349000002 cyc:  556282997 now IPC :1.47303: AVG IPC :0.62489: L2-Pf-HR :-nan: L2-HR :0.63735: (Sim:0h28m33s) 
CPU  0 inst:  350000002 cyc:  556998586 now IPC :1.39745: AVG IPC :0.62588: L2-Pf-HR :-nan: L2-HR :0.63752: (Sim:0h28m37s) 
CPU  0 inst:  351000001 cyc:  557577488 now IPC :1.72741: AVG IPC :0.62703: L2-Pf-HR :-nan: L2-HR :0.63789: (Sim:0h28m41s) 
CPU  0 inst:  352000000 cyc:  558496199 now IPC :1.08848: AVG IPC :0.62779: L2-Pf-HR :-nan: L2-HR :0.63788: (Sim:0h28m45s) 
CPU  0 inst:  353000000 cyc:  559195899 now IPC :1.42918: AVG IPC :0.62879: L2-Pf-HR :-nan: L2-HR :0.63799: (Sim:0h28m48s) 
CPU  0 inst:  354000000 cyc:  559880777 now IPC :1.46011: AVG IPC :0.62981: L2-Pf-HR :-nan: L2-HR :0.63821: (Sim:0h28m51s) 
CPU  0 inst:  355000003 cyc:  560810457 now IPC :1.07564: AVG IPC :0.63055: L2-Pf-HR :-nan: L2-HR :0.63817: (Sim:0h28m54s) 
CPU  0 inst:  356000000 cyc:  561415350 now IPC :1.65318: AVG IPC :0.63165: L2-Pf-HR :-nan: L2-HR :0.63821: (Sim:0h28m57s) 
CPU  0 inst:  357000002 cyc:  562007298 now IPC :1.68934: AVG IPC :0.63277: L2-Pf-HR :-nan: L2-HR :0.63837: (Sim:0h28m59s) 
CPU  0 inst:  358000003 cyc:  562704785 now IPC :1.43372: AVG IPC :0.63376: L2-Pf-HR :-nan: L2-HR :0.63875: (Sim:0h29m2s) 
CPU  0 inst:  359000000 cyc:  563387002 now IPC :1.46580: AVG IPC :0.63477: L2-Pf-HR :-nan: L2-HR :0.63887: (Sim:0h29m5s) 
CPU  0 inst:  360000000 cyc:  564006053 now IPC :1.61538: AVG IPC :0.63585: L2-Pf-HR :-nan: L2-HR :0.63930: (Sim:0h29m7s) 
CPU  0 inst:  361000000 cyc:  564934111 now IPC :1.07752: AVG IPC :0.63658: L2-Pf-HR :-nan: L2-HR :0.63905: (Sim:0h29m10s) 
CPU  0 inst:  362000002 cyc:  565631168 now IPC :1.43461: AVG IPC :0.63756: L2-Pf-HR :-nan: L2-HR :0.63920: (Sim:0h29m13s) 
CPU  0 inst:  363000000 cyc:  566377193 now IPC :1.34044: AVG IPC :0.63849: L2-Pf-HR :-nan: L2-HR :0.63949: (Sim:0h29m16s) 
CPU  0 inst:  364000000 cyc:  567213438 now IPC :1.19582: AVG IPC :0.63931: L2-Pf-HR :-nan: L2-HR :0.63929: (Sim:0h29m20s) 
CPU  0 inst:  365000000 cyc:  567803301 now IPC :1.69531: AVG IPC :0.64041: L2-Pf-HR :-nan: L2-HR :0.63944: (Sim:0h29m24s) 
CPU  0 inst:  366000000 cyc:  568477487 now IPC :1.48327: AVG IPC :0.64141: L2-Pf-HR :-nan: L2-HR :0.63970: (Sim:0h29m27s) 
CPU  0 inst:  367000002 cyc:  569193989 now IPC :1.39567: AVG IPC :0.64237: L2-Pf-HR :-nan: L2-HR :0.63987: (Sim:0h29m30s) 
CPU  0 inst:  368000000 cyc:  569776652 now IPC :1.71625: AVG IPC :0.64347: L2-Pf-HR :-nan: L2-HR :0.64028: (Sim:0h29m32s) 
CPU  0 inst:  369000000 cyc:  570699349 now IPC :1.08378: AVG IPC :0.64418: L2-Pf-HR :-nan: L2-HR :0.64017: (Sim:0h29m35s) 
CPU  0 inst:  370000003 cyc:  571388037 now IPC :1.45204: AVG IPC :0.64515: L2-Pf-HR :-nan: L2-HR :0.64033: (Sim:0h29m38s) 
CPU  0 inst:  371000003 cyc:  572148437 now IPC :1.31510: AVG IPC :0.64605: L2-Pf-HR :-nan: L2-HR :0.64051: (Sim:0h29m41s) 
CPU  0 inst:  372000000 cyc:  573002846 now IPC :1.17040: AVG IPC :0.64683: L2-Pf-HR :-nan: L2-HR :0.64047: (Sim:0h29m44s) 
CPU  0 inst:  373000002 cyc:  573599301 now IPC :1.67658: AVG IPC :0.64790: L2-Pf-HR :-nan: L2-HR :0.64054: (Sim:0h29m46s) 
CPU  0 inst:  374000000 cyc:  574198126 now IPC :1.66993: AVG IPC :0.64897: L2-Pf-HR :-nan: L2-HR :0.64073: (Sim:0h29m49s) 
CPU  0 inst:  375000001 cyc:  574984391 now IPC :1.27184: AVG IPC :0.64982: L2-Pf-HR :-nan: L2-HR :0.64091: (Sim:0h29m52s) 
CPU  0 inst:  376000000 cyc:  575566698 now IPC :1.71731: AVG IPC :0.65090: L2-Pf-HR :-nan: L2-HR :0.64122: (Sim:0h29m55s) 
CPU  0 inst:  377000002 cyc:  576186644 now IPC :1.61305: AVG IPC :0.65194: L2-Pf-HR :-nan: L2-HR :0.64167: (Sim:0h29m57s) 
CPU  0 inst:  378000001 cyc:  577126022 now IPC :1.06453: AVG IPC :0.65261: L2-Pf-HR :-nan: L2-HR :0.64140: (Sim:0h30m0s) 
CPU  0 inst:  379000001 cyc:  577819047 now IPC :1.44295: AVG IPC :0.65356: L2-Pf-HR :-nan: L2-HR :0.64153: (Sim:0h30m3s) 
CPU  0 inst:  380000000 cyc:  578552554 now IPC :1.36331: AVG IPC :0.65447: L2-Pf-HR :-nan: L2-HR :0.64182: (Sim:0h30m6s) 
CPU  0 inst:  381000001 cyc:  579370945 now IPC :1.22191: AVG IPC :0.65527: L2-Pf-HR :-nan: L2-HR :0.64161: (Sim:0h30m9s) 
CPU  0 inst:  382000003 cyc:  579970711 now IPC :1.66732: AVG IPC :0.65632: L2-Pf-HR :-nan: L2-HR :0.64175: (Sim:0h30m11s) 
CPU  0 inst:  383000003 cyc:  580629197 now IPC :1.51864: AVG IPC :0.65730: L2-Pf-HR :-nan: L2-HR :0.64201: (Sim:0h30m14s) 
CPU  0 inst:  384000000 cyc:  581352139 now IPC :1.38323: AVG IPC :0.65820: L2-Pf-HR :-nan: L2-HR :0.64215: (Sim:0h30m17s) 
CPU  0 inst:  385000003 cyc:  581981694 now IPC :1.58843: AVG IPC :0.65921: L2-Pf-HR :-nan: L2-HR :0.64254: (Sim:0h30m20s) 
CPU  0 inst:  386000003 cyc:  582850614 now IPC :1.15085: AVG IPC :0.65994: L2-Pf-HR :-nan: L2-HR :0.64242: (Sim:0h30m22s) 
CPU  0 inst:  387000001 cyc:  583536337 now IPC :1.45831: AVG IPC :0.66088: L2-Pf-HR :-nan: L2-HR :0.64257: (Sim:0h30m25s) 
CPU  0 inst:  388000000 cyc:  584306120 now IPC :1.29907: AVG IPC :0.66172: L2-Pf-HR :-nan: L2-HR :0.64275: (Sim:0h30m28s) 
CPU  0 inst:  389000003 cyc:  585139127 now IPC :1.20047: AVG IPC :0.66249: L2-Pf-HR :-nan: L2-HR :0.64267: (Sim:0h30m31s) 
CPU  0 inst:  390000002 cyc:  585732293 now IPC :1.68587: AVG IPC :0.66353: L2-Pf-HR :-nan: L2-HR :0.64276: (Sim:0h30m34s) 
CPU  0 inst:  391000002 cyc:  586341423 now IPC :1.64169: AVG IPC :0.66455: L2-Pf-HR :-nan: L2-HR :0.64296: (Sim:0h30m36s) 
CPU  0 inst:  392000000 cyc:  587123710 now IPC :1.27830: AVG IPC :0.66537: L2-Pf-HR :-nan: L2-HR :0.64309: (Sim:0h30m39s) 
CPU  0 inst:  393000002 cyc:  587698434 now IPC :1.73997: AVG IPC :0.66642: L2-Pf-HR :-nan: L2-HR :0.64338: (Sim:0h30m42s) 
CPU  0 inst:  394000000 cyc:  588405437 now IPC :1.41442: AVG IPC :0.66732: L2-Pf-HR :-nan: L2-HR :0.64379: (Sim:0h30m45s) 
CPU  0 inst:  395000000 cyc:  589272043 now IPC :1.15393: AVG IPC :0.66804: L2-Pf-HR :-nan: L2-HR :0.64355: (Sim:0h30m48s) 
CPU  0 inst:  396000000 cyc:  589966478 now IPC :1.44002: AVG IPC :0.66895: L2-Pf-HR :-nan: L2-HR :0.64364: (Sim:0h30m50s) 
CPU  0 inst:  397000003 cyc:  590699530 now IPC :1.36416: AVG IPC :0.66981: L2-Pf-HR :-nan: L2-HR :0.64393: (Sim:0h30m53s) 
CPU  0 inst:  398000000 cyc:  591525258 now IPC :1.21105: AVG IPC :0.67057: L2-Pf-HR :-nan: L2-HR :0.64371: (Sim:0h30m56s) 
CPU  0 inst:  399000002 cyc:  592127696 now IPC :1.65993: AVG IPC :0.67158: L2-Pf-HR :-nan: L2-HR :0.64384: (Sim:0h30m59s) 
CPU  0 inst:  400000000 cyc:  592790662 now IPC :1.50837: AVG IPC :0.67251: L2-Pf-HR :-nan: L2-HR :0.64408: (Sim:0h31m1s) 
CPU  0 inst:  401000003 cyc:  593512855 now IPC :1.38468: AVG IPC :0.67338: L2-Pf-HR :-nan: L2-HR :0.64421: (Sim:0h31m4s) 
CPU  0 inst:  402000003 cyc:  594143497 now IPC :1.58569: AVG IPC :0.67435: L2-Pf-HR :-nan: L2-HR :0.64456: (Sim:0h31m7s) 
CPU  0 inst:  403000002 cyc:  595042152 now IPC :1.11277: AVG IPC :0.67502: L2-Pf-HR :-nan: L2-HR :0.64443: (Sim:0h31m10s) 
CPU  0 inst:  404000000 cyc:  595716031 now IPC :1.48394: AVG IPC :0.67593: L2-Pf-HR :-nan: L2-HR :0.64456: (Sim:0h31m14s) 
CPU  0 inst:  405000003 cyc:  596483207 now IPC :1.30349: AVG IPC :0.67674: L2-Pf-HR :-nan: L2-HR :0.64476: (Sim:0h31m18s) 
CPU  0 inst:  406000003 cyc:  597317909 now IPC :1.19803: AVG IPC :0.67747: L2-Pf-HR :-nan: L2-HR :0.64464: (Sim:0h31m22s) 
CPU  0 inst:  407000002 cyc:  597916670 now IPC :1.67011: AVG IPC :0.67847: L2-Pf-HR :-nan: L2-HR :0.64476: (Sim:0h31m26s) 
CPU  0 inst:  408000000 cyc:  598590526 now IPC :1.48399: AVG IPC :0.67937: L2-Pf-HR :-nan: L2-HR :0.64494: (Sim:0h31m30s) 
CPU  0 inst:  409000000 cyc:  599303104 now IPC :1.40336: AVG IPC :0.68024: L2-Pf-HR :-nan: L2-HR :0.64505: (Sim:0h31m33s) 
CPU  0 inst:  410000002 cyc:  599876493 now IPC :1.74402: AVG IPC :0.68126: L2-Pf-HR :-nan: L2-HR :0.64537: (Sim:0h31m35s) 
CPU  0 inst:  411000002 cyc:  600701523 now IPC :1.21208: AVG IPC :0.68199: L2-Pf-HR :-nan: L2-HR :0.64554: (Sim:0h31m40s) 
CPU  0 inst:  412000000 cyc:  601442779 now IPC :1.34906: AVG IPC :0.68281: L2-Pf-HR :-nan: L2-HR :0.64552: (Sim:0h31m44s) 
CPU  0 inst:  413000003 cyc:  602138099 now IPC :1.43819: AVG IPC :0.68368: L2-Pf-HR :-nan: L2-HR :0.64562: (Sim:0h31m48s) 
CPU  0 inst:  414000000 cyc:  602865647 now IPC :1.37448: AVG IPC :0.68452: L2-Pf-HR :-nan: L2-HR :0.64594: (Sim:0h31m52s) 
CPU  0 inst:  415000002 cyc:  603687517 now IPC :1.21674: AVG IPC :0.68524: L2-Pf-HR :-nan: L2-HR :0.64569: (Sim:0h31m56s) 
CPU  0 inst:  416000000 cyc:  604274032 now IPC :1.70498: AVG IPC :0.68623: L2-Pf-HR :-nan: L2-HR :0.64581: (Sim:0h32m0s) 
CPU  0 inst:  417000001 cyc:  604930070 now IPC :1.52430: AVG IPC :0.68714: L2-Pf-HR :-nan: L2-HR :0.64607: (Sim:0h32m4s) 
CPU  0 inst:  418000003 cyc:  605649579 now IPC :1.38984: AVG IPC :0.68798: L2-Pf-HR :-nan: L2-HR :0.64619: (Sim:0h32m8s) 
CPU  0 inst:  419000003 cyc:  606275758 now IPC :1.59699: AVG IPC :0.68892: L2-Pf-HR :-nan: L2-HR :0.64655: (Sim:0h32m12s) 
CPU  0 inst:  420000000 cyc:  607174661 now IPC :1.11246: AVG IPC :0.68955: L2-Pf-HR :-nan: L2-HR :0.64641: (Sim:0h32m17s) 
CPU  0 inst:  421000000 cyc:  607849761 now IPC :1.48126: AVG IPC :0.69043: L2-Pf-HR :-nan: L2-HR :0.64652: (Sim:0h32m21s) 
CPU  0 inst:  422000002 cyc:  608606651 now IPC :1.32120: AVG IPC :0.69122: L2-Pf-HR :-nan: L2-HR :0.64673: (Sim:0h32m25s) 
CPU  0 inst:  423000000 cyc:  609442151 now IPC :1.19689: AVG IPC :0.69191: L2-Pf-HR :-nan: L2-HR :0.64658: (Sim:0h32m30s) 
CPU  0 inst:  424000000 cyc:  610040288 now IPC :1.67186: AVG IPC :0.69287: L2-Pf-HR :-nan: L2-HR :0.64669: (Sim:0h32m34s) 
CPU  0 inst:  425000002 cyc:  610725780 now IPC :1.45881: AVG IPC :0.69373: L2-Pf-HR :-nan: L2-HR :0.64686: (Sim:0h32m38s) 
CPU  0 inst:  426000000 cyc:  611429870 now IPC :1.42027: AVG IPC :0.69457: L2-Pf-HR :-nan: L2-HR :0.64696: (Sim:0h32m42s) 
CPU  0 inst:  427000001 cyc:  612011399 now IPC :1.71961: AVG IPC :0.69555: L2-Pf-HR :-nan: L2-HR :0.64727: (Sim:0h32m46s) 
CPU  0 inst:  428000000 cyc:  612889773 now IPC :1.13847: AVG IPC :0.69618: L2-Pf-HR :-nan: L2-HR :0.64733: (Sim:0h32m51s) 
CPU  0 inst:  429000000 cyc:  613588189 now IPC :1.43181: AVG IPC :0.69702: L2-Pf-HR :-nan: L2-HR :0.64739: (Sim:0h32m55s) 
CPU  0 inst:  430000002 cyc:  614278809 now IPC :1.44798: AVG IPC :0.69787: L2-Pf-HR :-nan: L2-HR :0.64749: (Sim:0h32m59s) 
CPU  0 inst:  431000001 cyc:  615032563 now IPC :1.32669: AVG IPC :0.69864: L2-Pf-HR :-nan: L2-HR :0.64781: (Sim:0h33m3s) 
CPU  0 inst:  432000000 cyc:  615814908 now IPC :1.27821: AVG IPC :0.69938: L2-Pf-HR :-nan: L2-HR :0.64755: (Sim:0h33m7s) 
CPU  0 inst:  433000000 cyc:  616404597 now IPC :1.69581: AVG IPC :0.70033: L2-Pf-HR :-nan: L2-HR :0.64765: (Sim:0h33m11s) 
CPU  0 inst:  434000000 cyc:  617058700 now IPC :1.52881: AVG IPC :0.70121: L2-Pf-HR :-nan: L2-HR :0.64791: (Sim:0h33m15s) 
CPU  0 inst:  435000002 cyc:  617778600 now IPC :1.38908: AVG IPC :0.70201: L2-Pf-HR :-nan: L2-HR :0.64801: (Sim:0h33m19s) 
CPU  0 inst:  436000000 cyc:  618409907 now IPC :1.58401: AVG IPC :0.70292: L2-Pf-HR :-nan: L2-HR :0.64836: (Sim:0h33m23s) 
CPU  0 inst:  437000001 cyc:  619312770 now IPC :1.10759: AVG IPC :0.70351: L2-Pf-HR :-nan: L2-HR :0.64818: (Sim:0h33m27s) 
CPU  0 inst:  438000001 cyc:  619986312 now IPC :1.48469: AVG IPC :0.70436: L2-Pf-HR :-nan: L2-HR :0.64829: (Sim:0h33m31s) 
CPU  0 inst:  439000000 cyc:  620745601 now IPC :1.31702: AVG IPC :0.70511: L2-Pf-HR :-nan: L2-HR :0.64849: (Sim:0h33m35s) 
CPU  0 inst:  440000000 cyc:  621583575 now IPC :1.19335: AVG IPC :0.70577: L2-Pf-HR :-nan: L2-HR :0.64834: (Sim:0h33m40s) 
CPU  0 inst:  441000000 cyc:  622172476 now IPC :1.69808: AVG IPC :0.70671: L2-Pf-HR :-nan: L2-HR :0.64844: (Sim:0h33m43s) 
CPU  0 inst:  442000000 cyc:  622852163 now IPC :1.47127: AVG IPC :0.70754: L2-Pf-HR :-nan: L2-HR :0.64861: (Sim:0h33m47s) 
CPU  0 inst:  443000000 cyc:  623559021 now IPC :1.41471: AVG IPC :0.70835: L2-Pf-HR :-nan: L2-HR :0.64871: (Sim:0h33m52s) 
CPU  0 inst:  444000000 cyc:  624128064 now IPC :1.75734: AVG IPC :0.70930: L2-Pf-HR :-nan: L2-HR :0.64899: (Sim:0h33m55s) 
CPU  0 inst:  445000002 cyc:  625021714 now IPC :1.11901: AVG IPC :0.70989: L2-Pf-HR :-nan: L2-HR :0.64901: (Sim:0h34m0s) 
CPU  0 inst:  446000002 cyc:  625720326 now IPC :1.43141: AVG IPC :0.71070: L2-Pf-HR :-nan: L2-HR :0.64906: (Sim:0h34m4s) 
CPU  0 inst:  447000001 cyc:  626411801 now IPC :1.44618: AVG IPC :0.71151: L2-Pf-HR :-nan: L2-HR :0.64919: (Sim:0h34m8s) 
CPU  0 inst:  448000000 cyc:  627271291 now IPC :1.16348: AVG IPC :0.71213: L2-Pf-HR :-nan: L2-HR :0.64928: (Sim:0h34m12s) 
CPU  0 inst:  449000001 cyc:  627946813 now IPC :1.48034: AVG IPC :0.71296: L2-Pf-HR :-nan: L2-HR :0.64921: (Sim:0h34m16s) 
CPU  0 inst:  450000001 cyc:  628537179 now IPC :1.69386: AVG IPC :0.71388: L2-Pf-HR :-nan: L2-HR :0.64929: (Sim:0h34m20s) 
CPU  0 inst:  451000002 cyc:  629192824 now IPC :1.52522: AVG IPC :0.71473: L2-Pf-HR :-nan: L2-HR :0.64956: (Sim:0h34m24s) 
CPU  0 inst:  452000000 cyc:  629931548 now IPC :1.35368: AVG IPC :0.71548: L2-Pf-HR :-nan: L2-HR :0.64965: (Sim:0h34m28s) 
CPU  0 inst:  453000000 cyc:  630548617 now IPC :1.62056: AVG IPC :0.71637: L2-Pf-HR :-nan: L2-HR :0.64998: (Sim:0h34m32s) 
CPU  0 inst:  454000000 cyc:  631471773 now IPC :1.08324: AVG IPC :0.71690: L2-Pf-HR :-nan: L2-HR :0.64979: (Sim:0h34m36s) 
CPU  0 inst:  455000002 cyc:  632163417 now IPC :1.44583: AVG IPC :0.71770: L2-Pf-HR :-nan: L2-HR :0.64990: (Sim:0h34m39s) 
CPU  0 inst:  456000000 cyc:  632910741 now IPC :1.33811: AVG IPC :0.71844: L2-Pf-HR :-nan: L2-HR :0.65010: (Sim:0h34m42s) 
CPU  0 inst:  457000001 cyc:  633755374 now IPC :1.18395: AVG IPC :0.71906: L2-Pf-HR :-nan: L2-HR :0.64995: (Sim:0h34m46s) 
CPU  0 inst:  458000002 cyc:  634345088 now IPC :1.69574: AVG IPC :0.71997: L2-Pf-HR :-nan: L2-HR :0.65005: (Sim:0h34m49s) 
CPU  0 inst:  459000001 cyc:  635026824 now IPC :1.46684: AVG IPC :0.72077: L2-Pf-HR :-nan: L2-HR :0.65022: (Sim:0h34m54s) 
CPU  0 inst:  460000000 cyc:  635743460 now IPC :1.39541: AVG IPC :0.72153: L2-Pf-HR :-nan: L2-HR :0.65032: (Sim:0h34m58s) 
CPU  0 inst:  461000000 cyc:  636316983 now IPC :1.74361: AVG IPC :0.72245: L2-Pf-HR :-nan: L2-HR :0.65057: (Sim:0h35m1s) 
CPU  0 inst:  462000000 cyc:  637218015 now IPC :1.10984: AVG IPC :0.72300: L2-Pf-HR :-nan: L2-HR :0.65056: (Sim:0h35m6s) 
CPU  0 inst:  463000000 cyc:  637905533 now IPC :1.45451: AVG IPC :0.72379: L2-Pf-HR :-nan: L2-HR :0.65064: (Sim:0h35m10s) 
CPU  0 inst:  464000000 cyc:  638592515 now IPC :1.45564: AVG IPC :0.72458: L2-Pf-HR :-nan: L2-HR :0.65079: (Sim:0h35m14s) 
CPU  0 inst:  465000002 cyc:  639507412 now IPC :1.09302: AVG IPC :0.72511: L2-Pf-HR :-nan: L2-HR :0.65075: (Sim:0h35m18s) 
CPU  0 inst:  466000001 cyc:  640114260 now IPC :1.64786: AVG IPC :0.72598: L2-Pf-HR :-nan: L2-HR :0.65078: (Sim:0h35m22s) 
CPU  0 inst:  467000000 cyc:  640703864 now IPC :1.69605: AVG IPC :0.72688: L2-Pf-HR :-nan: L2-HR :0.65086: (Sim:0h35m26s) 
CPU  0 inst:  468000000 cyc:  641357855 now IPC :1.52907: AVG IPC :0.72770: L2-Pf-HR :-nan: L2-HR :0.65116: (Sim:0h35m30s) 
CPU  0 inst:  469000000 cyc:  642082567 now IPC :1.37986: AVG IPC :0.72843: L2-Pf-HR :-nan: L2-HR :0.65121: (Sim:0h35m34s) 
CPU  0 inst:  470000002 cyc:  642703691 now IPC :1.60999: AVG IPC :0.72929: L2-Pf-HR :-nan: L2-HR :0.65154: (Sim:0h35m38s) 
CPU  0 inst:  471000001 cyc:  643631271 now IPC :1.07807: AVG IPC :0.72979: L2-Pf-HR :-nan: L2-HR :0.65133: (Sim:0h35m42s) 
CPU  0 inst:  472000000 cyc:  644326644 now IPC :1.43808: AVG IPC :0.73056: L2-Pf-HR :-nan: L2-HR :0.65144: (Sim:0h35m46s) 
CPU  0 inst:  473000003 cyc:  645077643 now IPC :1.33156: AVG IPC :0.73126: L2-Pf-HR :-nan: L2-HR :0.65163: (Sim:0h35m51s) 
CPU  0 inst:  474000003 cyc:  645915566 now IPC :1.19343: AVG IPC :0.73186: L2-Pf-HR :-nan: L2-HR :0.65146: (Sim:0h35m55s) 
CPU  0 inst:  475000003 cyc:  646503340 now IPC :1.70133: AVG IPC :0.73274: L2-Pf-HR :-nan: L2-HR :0.65155: (Sim:0h35m59s) 
CPU  0 inst:  476000000 cyc:  647182541 now IPC :1.47231: AVG IPC :0.73352: L2-Pf-HR :-nan: L2-HR :0.65173: (Sim:0h36m3s) 
CPU  0 inst:  477000001 cyc:  647891628 now IPC :1.41027: AVG IPC :0.73426: L2-Pf-HR :-nan: L2-HR :0.65182: (Sim:0h36m7s) 
CPU  0 inst:  478000002 cyc:  648469710 now IPC :1.72986: AVG IPC :0.73515: L2-Pf-HR :-nan: L2-HR :0.65209: (Sim:0h36m11s) 
CPU  0 inst:  479000002 cyc:  649399018 now IPC :1.07607: AVG IPC :0.73564: L2-Pf-HR :-nan: L2-HR :0.65202: (Sim:0h36m15s) 
CPU  0 inst:  480000000 cyc:  650095447 now IPC :1.43589: AVG IPC :0.73639: L2-Pf-HR :-nan: L2-HR :0.65212: (Sim:0h36m19s) 
CPU  0 inst:  481000002 cyc:  650823884 now IPC :1.37281: AVG IPC :0.73710: L2-Pf-HR :-nan: L2-HR :0.65227: (Sim:0h36m23s) 
CPU  0 inst:  482000002 cyc:  651707225 now IPC :1.13207: AVG IPC :0.73764: L2-Pf-HR :-nan: L2-HR :0.65220: (Sim:0h36m28s) 
CPU  0 inst:  483000001 cyc:  652308895 now IPC :1.66204: AVG IPC :0.73849: L2-Pf-HR :-nan: L2-HR :0.65224: (Sim:0h36m32s) 
CPU  0 inst:  484000000 cyc:  652905300 now IPC :1.67671: AVG IPC :0.73935: L2-Pf-HR :-nan: L2-HR :0.65235: (Sim:0h36m36s) 
CPU  0 inst:  485000003 cyc:  653659686 now IPC :1.32559: AVG IPC :0.74003: L2-Pf-HR :-nan: L2-HR :0.65252: (Sim:0h36m40s) 
CPU  0 inst:  486000002 cyc:  654280264 now IPC :1.61140: AVG IPC :0.74086: L2-Pf-HR :-nan: L2-HR :0.65266: (Sim:0h36m44s) 
CPU  0 inst:  487000000 cyc:  654897436 now IPC :1.62029: AVG IPC :0.74169: L2-Pf-HR :-nan: L2-HR :0.65296: (Sim:0h36m48s) 
CPU  0 inst:  488000000 cyc:  655820563 now IPC :1.08327: AVG IPC :0.74217: L2-Pf-HR :-nan: L2-HR :0.65273: (Sim:0h36m52s) 
CPU  0 inst:  489000001 cyc:  656521624 now IPC :1.42641: AVG IPC :0.74290: L2-Pf-HR :-nan: L2-HR :0.65280: (Sim:0h36m56s) 
CPU  0 inst:  490000001 cyc:  657264332 now IPC :1.34642: AVG IPC :0.74358: L2-Pf-HR :-nan: L2-HR :0.65300: (Sim:0h37m0s) 
CPU  0 inst:  491000000 cyc:  658100597 now IPC :1.19579: AVG IPC :0.74416: L2-Pf-HR :-nan: L2-HR :0.65281: (Sim:0h37m5s) 
CPU  0 inst:  492000000 cyc:  658708410 now IPC :1.64524: AVG IPC :0.74499: L2-Pf-HR :-nan: L2-HR :0.65287: (Sim:0h37m9s) 
CPU  0 inst:  493000002 cyc:  659371185 now IPC :1.50881: AVG IPC :0.74576: L2-Pf-HR :-nan: L2-HR :0.65304: (Sim:0h37m13s) 
CPU  0 inst:  494000001 cyc:  660078007 now IPC :1.41478: AVG IPC :0.74648: L2-Pf-HR :-nan: L2-HR :0.65314: (Sim:0h37m17s) 
CPU  0 inst:  495000002 cyc:  660665036 now IPC :1.70350: AVG IPC :0.74733: L2-Pf-HR :-nan: L2-HR :0.65342: (Sim:0h37m21s) 
CPU  0 inst:  496000000 cyc:  661582774 now IPC :1.08963: AVG IPC :0.74780: L2-Pf-HR :-nan: L2-HR :0.65329: (Sim:0h37m25s) 
CPU  0 inst:  497000001 cyc:  662268873 now IPC :1.45752: AVG IPC :0.74854: L2-Pf-HR :-nan: L2-HR :0.65339: (Sim:0h37m30s) 
CPU  0 inst:  498000000 cyc:  663030073 now IPC :1.31371: AVG IPC :0.74919: L2-Pf-HR :-nan: L2-HR :0.65351: (Sim:0h37m34s) 
CPU  0 inst:  499000000 cyc:  663870522 now IPC :1.18984: AVG IPC :0.74975: L2-Pf-HR :-nan: L2-HR :0.65343: (Sim:0h37m38s) 
CPU  0 inst:  500000000 cyc:  664470181 now IPC :1.66761: AVG IPC :0.75058: L2-Pf-HR :-nan: L2-HR :0.65348: (Sim:0h37m42s) 
CPU  0 inst:  501000001 cyc:  665075766 now IPC :1.65130: AVG IPC :0.75140: L2-Pf-HR :-nan: L2-HR :0.65361: (Sim:0h37m46s) 
CPU  0 inst:  502000002 cyc:  665854619 now IPC :1.28394: AVG IPC :0.75202: L2-Pf-HR :-nan: L2-HR :0.65370: (Sim:0h37m50s) 
CPU  0 inst:  503000003 cyc:  666433018 now IPC :1.72891: AVG IPC :0.75287: L2-Pf-HR :-nan: L2-HR :0.65390: (Sim:0h37m54s) 
CPU  0 inst:  504000000 cyc:  667058909 now IPC :1.59772: AVG IPC :0.75367: L2-Pf-HR :-nan: L2-HR :0.65423: (Sim:0h37m58s) 
CPU  0 inst:  505000002 cyc:  667994669 now IPC :1.06865: AVG IPC :0.75411: L2-Pf-HR :-nan: L2-HR :0.65397: (Sim:0h38m3s) 
CPU  0 inst:  506000002 cyc:  668687700 now IPC :1.44294: AVG IPC :0.75482: L2-Pf-HR :-nan: L2-HR :0.65404: (Sim:0h38m7s) 
CPU  0 inst:  507000000 cyc:  669426352 now IPC :1.35381: AVG IPC :0.75549: L2-Pf-HR :-nan: L2-HR :0.65424: (Sim:0h38m11s) 
CPU  0 inst:  508000000 cyc:  670247845 now IPC :1.21730: AVG IPC :0.75605: L2-Pf-HR :-nan: L2-HR :0.65404: (Sim:0h38m14s) 
CPU  0 inst:  509000002 cyc:  670846209 now IPC :1.67123: AVG IPC :0.75687: L2-Pf-HR :-nan: L2-HR :0.65413: (Sim:0h38m17s) 
CPU  0 inst:  510000001 cyc:  671508314 now IPC :1.51033: AVG IPC :0.75761: L2-Pf-HR :-nan: L2-HR :0.65430: (Sim:0h38m20s) 
CPU  0 inst:  511000000 cyc:  672217560 now IPC :1.40995: AVG IPC :0.75830: L2-Pf-HR :-nan: L2-HR :0.65438: (Sim:0h38m22s) 
CPU  0 inst:  512000000 cyc:  672843553 now IPC :1.59746: AVG IPC :0.75908: L2-Pf-HR :-nan: L2-HR :0.65464: (Sim:0h38m25s) 
CPU  0 inst:  513000001 cyc:  673727289 now IPC :1.13156: AVG IPC :0.75957: L2-Pf-HR :-nan: L2-HR :0.65451: (Sim:0h38m28s) 
CPU  0 inst:  514000000 cyc:  674399609 now IPC :1.48739: AVG IPC :0.76030: L2-Pf-HR :-nan: L2-HR :0.65461: (Sim:0h38m31s) 
CPU  0 inst:  515000002 cyc:  675160861 now IPC :1.31363: AVG IPC :0.76093: L2-Pf-HR :-nan: L2-HR :0.65475: (Sim:0h38m34s) 
CPU  0 inst:  516000000 cyc:  675995976 now IPC :1.19744: AVG IPC :0.76147: L2-Pf-HR :-nan: L2-HR :0.65464: (Sim:0h38m38s) 
CPU  0 inst:  517000002 cyc:  676599712 now IPC :1.65636: AVG IPC :0.76227: L2-Pf-HR :-nan: L2-HR :0.65471: (Sim:0h38m42s) 
CPU  0 inst:  518000001 cyc:  677204154 now IPC :1.65442: AVG IPC :0.76306: L2-Pf-HR :-nan: L2-HR :0.65486: (Sim:0h38m46s) 
CPU  0 inst:  519000002 cyc:  677980669 now IPC :1.28781: AVG IPC :0.76366: L2-Pf-HR :-nan: L2-HR :0.65491: (Sim:0h38m50s) 
CPU  0 inst:  520000000 cyc:  678564997 now IPC :1.71136: AVG IPC :0.76448: L2-Pf-HR :-nan: L2-HR :0.65512: (Sim:0h38m54s) 
CPU  0 inst:  521000000 cyc:  679319104 now IPC :1.32607: AVG IPC :0.76511: L2-Pf-HR :-nan: L2-HR :0.65534: (Sim:0h38m58s) 
CPU  0 inst:  522000001 cyc:  680115082 now IPC :1.25632: AVG IPC :0.76568: L2-Pf-HR :-nan: L2-HR :0.65520: (Sim:0h39m2s) 
CPU  0 inst:  523000000 cyc:  680806797 now IPC :1.44568: AVG IPC :0.76637: L2-Pf-HR :-nan: L2-HR :0.65526: (Sim:0h39m6s) 
CPU  0 inst:  524000000 cyc:  681533096 now IPC :1.37684: AVG IPC :0.76703: L2-Pf-HR :-nan: L2-HR :0.65548: (Sim:0h39m10s) 
CPU  0 inst:  525000001 cyc:  682347475 now IPC :1.22793: AVG IPC :0.76758: L2-Pf-HR :-nan: L2-HR :0.65528: (Sim:0h39m15s) 
CPU  0 inst:  526000002 cyc:  682948474 now IPC :1.66390: AVG IPC :0.76837: L2-Pf-HR :-nan: L2-HR :0.65536: (Sim:0h39m19s) 
CPU  0 inst:  527000000 cyc:  683608705 now IPC :1.51462: AVG IPC :0.76909: L2-Pf-HR :-nan: L2-HR :0.65554: (Sim:0h39m23s) 
CPU  0 inst:  528000000 cyc:  684332575 now IPC :1.38146: AVG IPC :0.76974: L2-Pf-HR :-nan: L2-HR :0.65561: (Sim:0h39m27s) 
CPU  0 inst:  529000000 cyc:  684963712 now IPC :1.58444: AVG IPC :0.77049: L2-Pf-HR :-nan: L2-HR :0.65587: (Sim:0h39m31s) 
CPU  0 inst:  530000002 cyc:  685861764 now IPC :1.11352: AVG IPC :0.77094: L2-Pf-HR :-nan: L2-HR :0.65574: (Sim:0h39m35s) 
CPU  0 inst:  531000002 cyc:  686535038 now IPC :1.48528: AVG IPC :0.77164: L2-Pf-HR :-nan: L2-HR :0.65581: (Sim:0h39m39s) 
CPU  0 inst:  532000000 cyc:  687296820 now IPC :1.31271: AVG IPC :0.77224: L2-Pf-HR :-nan: L2-HR :0.65595: (Sim:0h39m43s) 
CPU  0 inst:  533000003 cyc:  688139169 now IPC :1.18716: AVG IPC :0.77275: L2-Pf-HR :-nan: L2-HR :0.65582: (Sim:0h39m48s) 
CPU  0 inst:  534000001 cyc:  688737991 now IPC :1.66994: AVG IPC :0.77353: L2-Pf-HR :-nan: L2-HR :0.65591: (Sim:0h39m52s) 
CPU  0 inst:  535000002 cyc:  689427813 now IPC :1.44965: AVG IPC :0.77421: L2-Pf-HR :-nan: L2-HR :0.65601: (Sim:0h39m56s) 
CPU  0 inst:  536000000 cyc:  690120795 now IPC :1.44304: AVG IPC :0.77488: L2-Pf-HR :-nan: L2-HR :0.65608: (Sim:0h40m0s) 
CPU  0 inst:  537000002 cyc:  690700914 now IPC :1.72379: AVG IPC :0.77568: L2-Pf-HR :-nan: L2-HR :0.65631: (Sim:0h40m4s) 
CPU  0 inst:  538000002 cyc:  691579357 now IPC :1.13838: AVG IPC :0.77614: L2-Pf-HR :-nan: L2-HR :0.65634: (Sim:0h40m8s) 
CPU  0 inst:  539000002 cyc:  692283771 now IPC :1.41962: AVG IPC :0.77680: L2-Pf-HR :-nan: L2-HR :0.65636: (Sim:0h40m12s) 
CPU  0 inst:  540000000 cyc:  692977141 now IPC :1.44223: AVG IPC :0.77746: L2-Pf-HR :-nan: L2-HR :0.65643: (Sim:0h40m16s) 
CPU  0 inst:  541000001 cyc:  693701197 now IPC :1.38111: AVG IPC :0.77809: L2-Pf-HR :-nan: L2-HR :0.65668: (Sim:0h40m20s) 
CPU  0 inst:  542000002 cyc:  694532672 now IPC :1.20268: AVG IPC :0.77860: L2-Pf-HR :-nan: L2-HR :0.65645: (Sim:0h40m25s) 
CPU  0 inst:  543000000 cyc:  695120252 now IPC :1.70189: AVG IPC :0.77938: L2-Pf-HR :-nan: L2-HR :0.65652: (Sim:0h40m28s) 
CPU  0 inst:  544000000 cyc:  695776952 now IPC :1.52277: AVG IPC :0.78009: L2-Pf-HR :-nan: L2-HR :0.65671: (Sim:0h40m32s) 
CPU  0 inst:  545000002 cyc:  696495989 now IPC :1.39075: AVG IPC :0.78072: L2-Pf-HR :-nan: L2-HR :0.65677: (Sim:0h40m37s) 
CPU  0 inst:  546000003 cyc:  697126160 now IPC :1.58687: AVG IPC :0.78145: L2-Pf-HR :-nan: L2-HR :0.65703: (Sim:0h40m41s) 
CPU  0 inst:  547000000 cyc:  698037102 now IPC :1.09776: AVG IPC :0.78186: L2-Pf-HR :-nan: L2-HR :0.65688: (Sim:0h40m45s) 
CPU  0 inst:  548000000 cyc:  698712390 now IPC :1.48085: AVG IPC :0.78254: L2-Pf-HR :-nan: L2-HR :0.65696: (Sim:0h40m49s) 
CPU  0 inst:  549000000 cyc:  699474159 now IPC :1.31273: AVG IPC :0.78312: L2-Pf-HR :-nan: L2-HR :0.65710: (Sim:0h40m53s) 
CPU  0 inst:  550000002 cyc:  700314625 now IPC :1.18982: AVG IPC :0.78360: L2-Pf-HR :-nan: L2-HR :0.65696: (Sim:0h40m56s) 
CPU  0 inst:  551000002 cyc:  700914653 now IPC :1.66659: AVG IPC :0.78436: L2-Pf-HR :-nan: L2-HR :0.65703: (Sim:0h40m59s) 
CPU  0 inst:  552000000 cyc:  701596926 now IPC :1.46569: AVG IPC :0.78502: L2-Pf-HR :-nan: L2-HR :0.65715: (Sim:0h41m2s) 
CPU  0 inst:  553000003 cyc:  702294737 now IPC :1.43306: AVG IPC :0.78567: L2-Pf-HR :-nan: L2-HR :0.65720: (Sim:0h41m5s) 
CPU  0 inst:  554000002 cyc:  702874181 now IPC :1.72579: AVG IPC :0.78645: L2-Pf-HR :-nan: L2-HR :0.65742: (Sim:0h41m7s) 
CPU  0 inst:  555000002 cyc:  703760206 now IPC :1.12864: AVG IPC :0.78688: L2-Pf-HR :-nan: L2-HR :0.65743: (Sim:0h41m10s) 
CPU  0 inst:  556000000 cyc:  704459637 now IPC :1.42973: AVG IPC :0.78752: L2-Pf-HR :-nan: L2-HR :0.65746: (Sim:0h41m13s) 
CPU  0 inst:  557000001 cyc:  705150490 now IPC :1.44749: AVG IPC :0.78816: L2-Pf-HR :-nan: L2-HR :0.65755: (Sim:0h41m16s) 
CPU  0 inst:  558000001 cyc:  705950172 now IPC :1.25050: AVG IPC :0.78869: L2-Pf-HR :-nan: L2-HR :0.65770: (Sim:0h41m19s) 
CPU  0 inst:  559000001 cyc:  706686456 now IPC :1.35817: AVG IPC :0.78928: L2-Pf-HR :-nan: L2-HR :0.65754: (Sim:0h41m23s) 
CPU  0 inst:  560000000 cyc:  707276481 now IPC :1.69484: AVG IPC :0.79004: L2-Pf-HR :-nan: L2-HR :0.65760: (Sim:0h41m26s) 
CPU  0 inst:  561000002 cyc:  707926838 now IPC :1.53762: AVG IPC :0.79073: L2-Pf-HR :-nan: L2-HR :0.65779: (Sim:0h41m29s) 
CPU  0 inst:  562000000 cyc:  708650848 now IPC :1.38119: AVG IPC :0.79133: L2-Pf-HR :-nan: L2-HR :0.65784: (Sim:0h41m33s) 
CPU  0 inst:  563000002 cyc:  709280435 now IPC :1.58835: AVG IPC :0.79204: L2-Pf-HR :-nan: L2-HR :0.65810: (Sim:0h41m37s) 
CPU  0 inst:  564000000 cyc:  710196528 now IPC :1.09159: AVG IPC :0.79243: L2-Pf-HR :-nan: L2-HR :0.65794: (Sim:0h41m41s) 
CPU  0 inst:  565000000 cyc:  710870273 now IPC :1.48424: AVG IPC :0.79308: L2-Pf-HR :-nan: L2-HR :0.65802: (Sim:0h41m45s) 
CPU  0 inst:  566000000 cyc:  711639235 now IPC :1.30045: AVG IPC :0.79363: L2-Pf-HR :-nan: L2-HR :0.65816: (Sim:0h41m49s) 
CPU  0 inst:  567000002 cyc:  712483461 now IPC :1.18452: AVG IPC :0.79410: L2-Pf-HR :-nan: L2-HR :0.65802: (Sim:0h41m54s) 
CPU  0 inst:  568000000 cyc:  713071824 now IPC :1.69963: AVG IPC :0.79484: L2-Pf-HR :-nan: L2-HR :0.65810: (Sim:0h41m58s) 
CPU  0 inst:  569000001 cyc:  713752298 now IPC :1.46957: AVG IPC :0.79549: L2-Pf-HR :-nan: L2-HR :0.65822: (Sim:0h42m2s) 
CPU  0 inst:  570000003 cyc:  714453723 now IPC :1.42567: AVG IPC :0.79611: L2-Pf-HR :-nan: L2-HR :0.65829: (Sim:0h42m6s) 
CPU  0 inst:  571000000 cyc:  715025380 now IPC :1.74930: AVG IPC :0.79687: L2-Pf-HR :-nan: L2-HR :0.65849: (Sim:0h42m10s) 
CPU  0 inst:  572000000 cyc:  715933536 now IPC :1.10113: AVG IPC :0.79726: L2-Pf-HR :-nan: L2-HR :0.65847: (Sim:0h42m14s) 
CPU  0 inst:  573000002 cyc:  716627263 now IPC :1.44149: AVG IPC :0.79788: L2-Pf-HR :-nan: L2-HR :0.65850: (Sim:0h42m19s) 
CPU  0 inst:  574000001 cyc:  717320581 now IPC :1.44234: AVG IPC :0.79850: L2-Pf-HR :-nan: L2-HR :0.65859: (Sim:0h42m23s) 
CPU  0 inst:  575000003 cyc:  718246300 now IPC :1.08024: AVG IPC :0.79887: L2-Pf-HR :-nan: L2-HR :0.65855: (Sim:0h42m26s) 
CPU  0 inst:  576000000 cyc:  718859921 now IPC :1.62967: AVG IPC :0.79958: L2-Pf-HR :-nan: L2-HR :0.65855: (Sim:0h42m29s) 
CPU  0 inst:  577000003 cyc:  719452430 now IPC :1.68774: AVG IPC :0.80031: L2-Pf-HR :-nan: L2-HR :0.65860: (Sim:0h42m31s) 
CPU  0 inst:  578000000 cyc:  720102897 now IPC :1.53735: AVG IPC :0.80098: L2-Pf-HR :-nan: L2-HR :0.65882: (Sim:0h42m34s) 
CPU  0 inst:  579000001 cyc:  720827373 now IPC :1.38031: AVG IPC :0.80156: L2-Pf-HR :-nan: L2-HR :0.65887: (Sim:0h42m37s) 
CPU  0 inst:  580000000 cyc:  721444829 now IPC :1.61955: AVG IPC :0.80226: L2-Pf-HR :-nan: L2-HR :0.65912: (Sim:0h42m40s) 
CPU  0 inst:  581000003 cyc:  722366609 now IPC :1.08486: AVG IPC :0.80262: L2-Pf-HR :-nan: L2-HR :0.65894: (Sim:0h42m43s) 
CPU  0 inst:  582000001 cyc:  723057603 now IPC :1.44719: AVG IPC :0.80324: L2-Pf-HR :-nan: L2-HR :0.65900: (Sim:0h42m46s) 
CPU  0 inst:  583000003 cyc:  723807760 now IPC :1.33306: AVG IPC :0.80379: L2-Pf-HR :-nan: L2-HR :0.65913: (Sim:0h42m49s) 
CPU  0 inst:  584000000 cyc:  724640060 now IPC :1.20149: AVG IPC :0.80425: L2-Pf-HR :-nan: L2-HR :0.65898: (Sim:0h42m52s) 
CPU  0 inst:  585000003 cyc:  725233360 now IPC :1.68549: AVG IPC :0.80497: L2-Pf-HR :-nan: L2-HR :0.65904: (Sim:0h42m54s) 
CPU  0 inst:  586000003 cyc:  725910817 now IPC :1.47611: AVG IPC :0.80560: L2-Pf-HR :-nan: L2-HR :0.65916: (Sim:0h42m58s) 
CPU  0 inst:  587000002 cyc:  726617073 now IPC :1.41592: AVG IPC :0.80619: L2-Pf-HR :-nan: L2-HR :0.65922: (Sim:0h43m2s) 
CPU  0 inst:  588000000 cyc:  727192763 now IPC :1.73704: AVG IPC :0.80693: L2-Pf-HR :-nan: L2-HR :0.65943: (Sim:0h43m6s) 
CPU  0 inst:  589000000 cyc:  728112520 now IPC :1.08724: AVG IPC :0.80728: L2-Pf-HR :-nan: L2-HR :0.65937: (Sim:0h43m11s) 
CPU  0 inst:  590000002 cyc:  728813987 now IPC :1.42559: AVG IPC :0.80788: L2-Pf-HR :-nan: L2-HR :0.65943: (Sim:0h43m15s) 
CPU  0 inst:  591000001 cyc:  729496625 now IPC :1.46490: AVG IPC :0.80849: L2-Pf-HR :-nan: L2-HR :0.65954: (Sim:0h43m19s) 
CPU  0 inst:  592000000 cyc:  730411096 now IPC :1.09353: AVG IPC :0.80885: L2-Pf-HR :-nan: L2-HR :0.65947: (Sim:0h43m23s) 
CPU  0 inst:  593000000 cyc:  731010719 now IPC :1.66771: AVG IPC :0.80956: L2-Pf-HR :-nan: L2-HR :0.65949: (Sim:0h43m27s) 
CPU  0 inst:  594000002 cyc:  731602112 now IPC :1.69093: AVG IPC :0.81027: L2-Pf-HR :-nan: L2-HR :0.65956: (Sim:0h43m31s) 
Finished CPU 0 instr: 592000001 cyc: 730620246 AVG IPC: 0.81027 (Sim time: 0h43m31s)

ChampSim completed all CPUs

[ROI Statistics]
Core_0_instructions 592000001
Core_0_cycles 730620246
Core_0_IPC 0.81027

Core_0_branch_prediction_accuracy 98.24511
Core_0_branch_MPKI 0.42508
Core_0_average_ROB_occupancy_at_mispredict 249.20422

Core_0_L1D_total_access 146156448
Core_0_L1D_total_hit 134534620 L1D_total_Hit Ratio: 0.92048
Core_0_L1D_total_miss 11621828
Core_0_L1D_loads 134268480
Core_0_L1D_load_hit 123319268 L1D_load_Hit Ratio: 0.91845
Core_0_L1D_load_miss 10949212
Core_0_L1D_RFOs 11887968
Core_0_L1D_RFO_hit 11215352 L1D_RFO_Hit Ratio: 0.94342
Core_0_L1D_RFO_miss 672616
Core_0_L1D_prefetches 0
Core_0_L1D_prefetch_hit 0 L1D_prefetch_Hit Ratio: -nan
Core_0_L1D_prefetch_miss 0
Core_0_L1D_writebacks 0
Core_0_L1D_writeback_hit 0 L1D_writeback_Hit Ratio: -nan
Core_0_L1D_writeback_miss 0
Core_0_L1D_prefetch_requested 0
Core_0_L1D_prefetch_issued 0
Core_0_L1D_prefetch_useful 0 L1D_Useful Ratio: -nan
Core_0_L1D_prefetch_useless 0
Core_0_L1D_prefetch_late 0
Core_0_L1D_average_miss_latency 106.14263

Core_0_L1I_total_access 133981233
Core_0_L1I_total_hit 133976354 L1I_total_Hit Ratio: 0.99996
Core_0_L1I_total_miss 4879
Core_0_L1I_loads 133981233
Core_0_L1I_load_hit 133976354 L1I_load_Hit Ratio: 0.99996
Core_0_L1I_load_miss 4879
Core_0_L1I_RFOs 0
Core_0_L1I_RFO_hit 0 L1I_RFO_Hit Ratio: -nan
Core_0_L1I_RFO_miss 0
Core_0_L1I_prefetches 0
Core_0_L1I_prefetch_hit 0 L1I_prefetch_Hit Ratio: -nan
Core_0_L1I_prefetch_miss 0
Core_0_L1I_writebacks 0
Core_0_L1I_writeback_hit 0 L1I_writeback_Hit Ratio: -nan
Core_0_L1I_writeback_miss 0
Core_0_L1I_prefetch_requested 0
Core_0_L1I_prefetch_issued 0
Core_0_L1I_prefetch_useful 0 L1I_Useful Ratio: -nan
Core_0_L1I_prefetch_useless 0
Core_0_L1I_prefetch_late 0
Core_0_L1I_average_miss_latency 261.05083

Core_0_L2C_total_access 14831476
Core_0_L2C_total_hit 9782189 L2C_total_Hit Ratio: 0.65956
Core_0_L2C_total_miss 5049287
Core_0_L2C_loads 10954054
Core_0_L2C_load_hit 6450739 L2C_load_Hit Ratio: 0.58889
Core_0_L2C_load_miss 4503315
Core_0_L2C_RFOs 672616
Core_0_L2C_RFO_hit 130600 L2C_RFO_Hit Ratio: 0.19417
Core_0_L2C_RFO_miss 542016
Core_0_L2C_prefetches 0
Core_0_L2C_prefetch_hit 0 L2C_prefetch_Hit Ratio: -nan
Core_0_L2C_prefetch_miss 0
Core_0_L2C_writebacks 3204806
Core_0_L2C_writeback_hit 3200850 L2C_writeback_Hit Ratio: 0.99877
Core_0_L2C_writeback_miss 3956
Core_0_L2C_prefetch_requested 0
Core_0_L2C_prefetch_issued 0
Core_0_L2C_prefetch_useful 0 L2C_Useful Ratio: -nan
Core_0_L2C_prefetch_useless 0
Core_0_L2C_prefetch_late 0
Core_0_L2C_average_miss_latency 211.15091

Core_0_LLC_total_access 7847537
Core_0_LLC_total_hit 4677954 LLC_total_Hit Ratio: 0.59610
Core_0_LLC_total_miss 3169583
Core_0_LLC_loads 4503281
Core_0_LLC_load_hit 1860692 LLC_load_Hit Ratio: 0.41319
Core_0_LLC_load_miss 2642589
Core_0_LLC_RFOs 542016
Core_0_LLC_RFO_hit 16708 LLC_RFO_Hit Ratio: 0.03083
Core_0_LLC_RFO_miss 525308
Core_0_LLC_prefetches 0
Core_0_LLC_prefetch_hit 0 LLC_prefetch_Hit Ratio: -nan
Core_0_LLC_prefetch_miss 0
Core_0_LLC_writebacks 2802240
Core_0_LLC_writeback_hit 2800554 LLC_writeback_Hit Ratio: 0.99940
Core_0_LLC_writeback_miss 1686
Core_0_LLC_prefetch_requested 0
Core_0_LLC_prefetch_issued 0
Core_0_LLC_prefetch_useful 0 LLC_Useful Ratio: -nan
Core_0_LLC_prefetch_useless 0
Core_0_LLC_prefetch_late 0
Core_0_LLC_average_miss_latency 287.84433

Core_0_major_page_fault 0
Core_0_minor_page_fault 25625

Channel_0_RQ_row_buffer_hit 1808819
Channel_0_RQ_row_buffer_miss 1359069
Channel_0_WQ_row_buffer_hit 766384
Channel_0_WQ_row_buffer_miss 952465
Channel_0_WQ_full 0
Channel_0_dbus_congested 1403955

avg_congested_cycle 11

EzSearch AVG IPC :0.81027: L2-Pf-HR :-nan : L2-HR :0.65956 Uful:-nan
     > Finished combination: TraceType=770-tot Sim:592000000 Prefetcher=L2no L1=no
