TRACE: [125000000][OPT-125M]_[h12][s512][d64] Warmup: 2000000 NumTraces: 125000000
L1:no:L2:spp_berti_src
Initialize SIGNATURE TABLE
ST_SET: 1
ST_WAY: 256
ST_TAG_BIT: 16
ST_TAG_MASK: ffff

Initialize PATTERN TABLE
PT_SET: 512
PT_WAY: 4
SIG_DELTA_BIT: 7
C_SIG_BIT: 4
C_DELTA_BIT: 4

Initialize PREFETCH FILTER
FILTER_SET: 1024
*************************************************
   ChampSim Multicore Out-of-Order Simulator
   Last compiled: Oct 28 2024 06:01:54
*************************************************

trace_0 770-tot_memTraces_v3/memTraces[125000000][OPT-125M]_[h12][s512][d64].champsim.xz
trace_1 770-tot_memTraces_v3/memTraces[125000000][OPT-125M]_[h12][s512][d64].champsim.xz
trace_2 770-tot_memTraces_v3/memTraces[125000000][OPT-125M]_[h12][s512][d64].champsim.xz
trace_3 770-tot_memTraces_v3/memTraces[125000000][OPT-125M]_[h12][s512][d64].champsim.xz
ST_WAYS: 256
PT_SETS: 512
ST_WAYS: 256
PT_SETS: 512
ST_WAYS: 256
PT_SETS: 512
ST_WAYS: 256
PT_SETS: 512
MAIN.cc ln 751 stats print skipped
CPU  3 inst:    1000001 cyc:     499307 now IPC :2.00278: AVG IPC :2.00278: L2-Pf-HR :0.94802: L2-HR :0.83677: (Sim:0h0m49s) 
CPU  1 inst:    1000001 cyc:     499541 now IPC :2.00184: AVG IPC :2.00184: L2-Pf-HR :0.94994: L2-HR :0.85382: (Sim:0h0m49s) 
CPU  0 inst:    1000001 cyc:     499613 now IPC :2.00155: AVG IPC :2.00155: L2-Pf-HR :0.95250: L2-HR :0.84997: (Sim:0h0m49s) 
CPU  2 inst:    1000001 cyc:     499862 now IPC :2.00055: AVG IPC :2.00055: L2-Pf-HR :0.94433: L2-HR :0.83797: (Sim:0h0m49s) 
CPU  3 inst:    2000000 cyc:     982066 now IPC :2.07142: AVG IPC :2.03652: L2-Pf-HR :0.95618: L2-HR :0.87549: (Sim:0h1m41s) 
CPU  1 inst:    2000000 cyc:     982333 now IPC :2.07128: AVG IPC :2.03597: L2-Pf-HR :0.95878: L2-HR :0.89323: (Sim:0h1m41s) 
CPU  0 inst:    2000000 cyc:     982394 now IPC :2.07133: AVG IPC :2.03584: L2-Pf-HR :0.96161: L2-HR :0.88884: (Sim:0h1m41s) 
CPU  2 inst:    2000000 cyc:     982595 now IPC :2.07154: AVG IPC :2.03543: L2-Pf-HR :0.95216: L2-HR :0.87558: (Sim:0h1m41s) 

Warmup complete CPU  0 instructions:    2000361 cycles:     982596 (Simulation time: 0 hr 1 min 41 sec) 
Warmup complete CPU  1 instructions:    2000512 cycles:     982596 (Simulation time: 0 hr 1 min 41 sec) 
Warmup complete CPU  2 instructions:    2000003 cycles:     982596 (Simulation time: 0 hr 1 min 41 sec) 
Warmup complete CPU  3 instructions:    2000999 cycles:     982595 (Simulation time: 0 hr 1 min 41 sec) 

CPU  3 inst:    3000004 cyc:    1695261 now IPC :1.40215: AVG IPC :1.40179: L2-Pf-HR :0.97061: L2-HR :0.90884: (Sim:0h2m30s) 
CPU  1 inst:    3000001 cyc:    1695454 now IPC :1.40229: AVG IPC :1.40209: L2-Pf-HR :0.97403: L2-HR :0.92839: (Sim:0h2m30s) 
CPU  2 inst:    3000001 cyc:    1695802 now IPC :1.40212: AVG IPC :1.40212: L2-Pf-HR :0.97064: L2-HR :0.90744: (Sim:0h2m30s) 
CPU  0 inst:    3000001 cyc:    1696062 now IPC :1.40121: AVG IPC :1.40110: L2-Pf-HR :0.97445: L2-HR :0.92340: (Sim:0h2m30s) 
CPU  1 inst:    4000004 cyc:    2401108 now IPC :1.41713: AVG IPC :1.40957: L2-Pf-HR :0.97873: L2-HR :0.91287: (Sim:0h3m18s) 
CPU  0 inst:    4000004 cyc:    2401978 now IPC :1.41660: AVG IPC :1.40881: L2-Pf-HR :0.98069: L2-HR :0.91510: (Sim:0h3m18s) 
CPU  3 inst:    4000004 cyc:    2405825 now IPC :1.40733: AVG IPC :1.40456: L2-Pf-HR :0.97724: L2-HR :0.90085: (Sim:0h3m18s) 
CPU  2 inst:    4000004 cyc:    2408476 now IPC :1.40317: AVG IPC :1.40264: L2-Pf-HR :0.97809: L2-HR :0.90361: (Sim:0h3m18s) 
CPU  0 inst:    5000000 cyc:    3106699 now IPC :1.41900: AVG IPC :1.41219: L2-Pf-HR :0.98808: L2-HR :0.91985: (Sim:0h4m7s) 
CPU  1 inst:    5000000 cyc:    3108773 now IPC :1.41309: AVG IPC :1.41074: L2-Pf-HR :0.98592: L2-HR :0.91425: (Sim:0h4m8s) 
CPU  3 inst:    5000000 cyc:    3109836 now IPC :1.42043: AVG IPC :1.40981: L2-Pf-HR :0.98585: L2-HR :0.90881: (Sim:0h4m8s) 
CPU  2 inst:    5000000 cyc:    3126837 now IPC :1.39205: AVG IPC :1.39910: L2-Pf-HR :0.98610: L2-HR :0.91027: (Sim:0h4m9s) 
CPU  0 inst:    6000004 cyc:    3766881 now IPC :1.51474: AVG IPC :1.43651: L2-Pf-HR :0.99183: L2-HR :0.92895: (Sim:0h4m56s) 
CPU  1 inst:    6000004 cyc:    3773374 now IPC :1.50467: AVG IPC :1.43311: L2-Pf-HR :0.99027: L2-HR :0.92436: (Sim:0h4m57s) 
CPU  3 inst:    6000004 cyc:    3777320 now IPC :1.49817: AVG IPC :1.43091: L2-Pf-HR :0.99029: L2-HR :0.91957: (Sim:0h4m57s) 
CPU  2 inst:    6000004 cyc:    3789679 now IPC :1.50866: AVG IPC :1.42497: L2-Pf-HR :0.99017: L2-HR :0.92067: (Sim:0h4m58s) 
CPU  0 inst:    7000005 cyc:    4401903 now IPC :1.57475: AVG IPC :1.46218: L2-Pf-HR :0.99351: L2-HR :0.93362: (Sim:0h5m45s) 
CPU  1 inst:    7000005 cyc:    4404135 now IPC :1.58539: AVG IPC :1.46118: L2-Pf-HR :0.99240: L2-HR :0.93005: (Sim:0h5m45s) 
CPU  3 inst:    7000002 cyc:    4406970 now IPC :1.58818: AVG IPC :1.45983: L2-Pf-HR :0.99225: L2-HR :0.92518: (Sim:0h5m45s) 
CPU  2 inst:    7000002 cyc:    4412151 now IPC :1.60649: AVG IPC :1.45791: L2-Pf-HR :0.99203: L2-HR :0.92609: (Sim:0h5m46s) 
CPU  0 inst:    8000005 cyc:    5112759 now IPC :1.40675: AVG IPC :1.45264: L2-Pf-HR :0.99366: L2-HR :0.93068: (Sim:0h6m35s) 
CPU  1 inst:    8000005 cyc:    5114907 now IPC :1.40692: AVG IPC :1.45185: L2-Pf-HR :0.99267: L2-HR :0.92717: (Sim:0h6m35s) 
CPU  3 inst:    8000005 cyc:    5122327 now IPC :1.39791: AVG IPC :1.44913: L2-Pf-HR :0.99275: L2-HR :0.92404: (Sim:0h6m35s) 
CPU  2 inst:    8000005 cyc:    5125075 now IPC :1.40268: AVG IPC :1.44841: L2-Pf-HR :0.99224: L2-HR :0.92380: (Sim:0h6m35s) 
CPU  1 inst:    9000004 cyc:    6082135 now IPC :1.03388: AVG IPC :1.37257: L2-Pf-HR :0.99334: L2-HR :0.92610: (Sim:0h7m30s) 
CPU  2 inst:    9000004 cyc:    6090995 now IPC :1.03528: AVG IPC :1.37029: L2-Pf-HR :0.99296: L2-HR :0.92396: (Sim:0h7m31s) 
CPU  0 inst:    9000004 cyc:    6095464 now IPC :1.01760: AVG IPC :1.36902: L2-Pf-HR :0.99425: L2-HR :0.93003: (Sim:0h7m31s) 
CPU  3 inst:    9000004 cyc:    6101264 now IPC :1.02152: AVG IPC :1.36735: L2-Pf-HR :0.99335: L2-HR :0.92323: (Sim:0h7m31s) 
CPU  1 inst:   10000001 cyc:    7258443 now IPC :0.85011: AVG IPC :1.27465: L2-Pf-HR :0.99411: L2-HR :0.92940: (Sim:0h8m30s) 
CPU  2 inst:   10000001 cyc:    7270158 now IPC :0.84806: AVG IPC :1.27235: L2-Pf-HR :0.99390: L2-HR :0.92869: (Sim:0h8m30s) 
CPU  3 inst:   10000001 cyc:    7274394 now IPC :0.85242: AVG IPC :1.27134: L2-Pf-HR :0.99409: L2-HR :0.92698: (Sim:0h8m31s) 
CPU  0 inst:   10000001 cyc:    7291879 now IPC :0.83583: AVG IPC :1.26792: L2-Pf-HR :0.99508: L2-HR :0.93433: (Sim:0h8m32s) 
CPU  1 inst:   11000005 cyc:    8296654 now IPC :0.96320: AVG IPC :1.23044: L2-Pf-HR :0.99466: L2-HR :0.93189: (Sim:0h9m27s) 
CPU  3 inst:   11000005 cyc:    8308164 now IPC :0.96734: AVG IPC :1.22844: L2-Pf-HR :0.99451: L2-HR :0.92951: (Sim:0h9m28s) 
CPU  2 inst:   11000005 cyc:    8312260 now IPC :0.95960: AVG IPC :1.22789: L2-Pf-HR :0.99448: L2-HR :0.93191: (Sim:0h9m28s) 
CPU  0 inst:   11000005 cyc:    8330168 now IPC :0.96313: AVG IPC :1.22485: L2-Pf-HR :0.99559: L2-HR :0.93722: (Sim:0h9m29s) 
CPU  3 inst:   12000005 cyc:    9465688 now IPC :0.86391: AVG IPC :1.17870: L2-Pf-HR :0.99405: L2-HR :0.92843: (Sim:0h10m28s) 
CPU  2 inst:   12000005 cyc:    9489139 now IPC :0.84971: AVG IPC :1.17557: L2-Pf-HR :0.99408: L2-HR :0.93094: (Sim:0h10m29s) 
CPU  1 inst:   12000005 cyc:    9497232 now IPC :0.83293: AVG IPC :1.17439: L2-Pf-HR :0.99435: L2-HR :0.93054: (Sim:0h10m29s) 
CPU  0 inst:   12000005 cyc:    9503334 now IPC :0.85239: AVG IPC :1.17357: L2-Pf-HR :0.99519: L2-HR :0.93584: (Sim:0h10m29s) 
CPU  1 inst:   13000002 cyc:   10940087 now IPC :0.69307: AVG IPC :1.10464: L2-Pf-HR :0.99440: L2-HR :0.92913: (Sim:0h11m37s) 
CPU  0 inst:   13000002 cyc:   10963933 now IPC :0.68465: AVG IPC :1.10202: L2-Pf-HR :0.99530: L2-HR :0.93446: (Sim:0h11m38s) 
CPU  3 inst:   13000002 cyc:   11008284 now IPC :0.64826: AVG IPC :1.09708: L2-Pf-HR :0.99412: L2-HR :0.92727: (Sim:0h11m40s) 
CPU  2 inst:   13000002 cyc:   11046789 now IPC :0.64199: AVG IPC :1.09298: L2-Pf-HR :0.99426: L2-HR :0.92967: (Sim:0h11m42s) 
CPU  3 inst:   14000005 cyc:   12433091 now IPC :0.70185: AVG IPC :1.04790: L2-Pf-HR :0.99476: L2-HR :0.93039: (Sim:0h12m57s) 
CPU  1 inst:   14000002 cyc:   12457714 now IPC :0.65892: AVG IPC :1.04570: L2-Pf-HR :0.99494: L2-HR :0.93177: (Sim:0h12m59s) 
CPU  0 inst:   14000005 cyc:   12464819 now IPC :0.66628: AVG IPC :1.04506: L2-Pf-HR :0.99576: L2-HR :0.93652: (Sim:0h13m0s) 
CPU  2 inst:   14000005 cyc:   12475141 now IPC :0.70011: AVG IPC :1.04416: L2-Pf-HR :0.99476: L2-HR :0.93179: (Sim:0h13m1s) 
CPU  0 inst:   15000001 cyc:   13930555 now IPC :0.68225: AVG IPC :1.00399: L2-Pf-HR :0.99610: L2-HR :0.93857: (Sim:0h15m1s) 
CPU  3 inst:   15000001 cyc:   13938625 now IPC :0.66421: AVG IPC :1.00332: L2-Pf-HR :0.99526: L2-HR :0.93336: (Sim:0h15m2s) 
CPU  1 inst:   15000001 cyc:   13947330 now IPC :0.67131: AVG IPC :1.00268: L2-Pf-HR :0.99537: L2-HR :0.93446: (Sim:0h15m3s) 
CPU  2 inst:   15000001 cyc:   13958636 now IPC :0.67408: AVG IPC :1.00185: L2-Pf-HR :0.99519: L2-HR :0.93403: (Sim:0h15m4s) 
CPU  2 inst:   16000002 cyc:   15303278 now IPC :0.74369: AVG IPC :0.97761: L2-Pf-HR :0.99501: L2-HR :0.93381: (Sim:0h17m5s) 
CPU  0 inst:   16000005 cyc:   15328867 now IPC :0.71515: AVG IPC :0.97584: L2-Pf-HR :0.99593: L2-HR :0.93850: (Sim:0h17m7s) 
CPU  1 inst:   16000002 cyc:   15329488 now IPC :0.72351: AVG IPC :0.97579: L2-Pf-HR :0.99513: L2-HR :0.93410: (Sim:0h17m7s) 
CPU  3 inst:   16000002 cyc:   15333838 now IPC :0.71674: AVG IPC :0.97546: L2-Pf-HR :0.99513: L2-HR :0.93346: (Sim:0h17m8s) 
CPU  1 inst:   17000000 cyc:   16854686 now IPC :0.65565: AVG IPC :0.94502: L2-Pf-HR :0.99517: L2-HR :0.93269: (Sim:0h19m19s) 
CPU  2 inst:   17000000 cyc:   16876520 now IPC :0.63563: AVG IPC :0.94376: L2-Pf-HR :0.99505: L2-HR :0.93233: (Sim:0h19m20s) 
CPU  3 inst:   17000000 cyc:   16900481 now IPC :0.63831: AVG IPC :0.94227: L2-Pf-HR :0.99514: L2-HR :0.93197: (Sim:0h19m23s) 
CPU  0 inst:   17000000 cyc:   16905131 now IPC :0.63441: AVG IPC :0.94204: L2-Pf-HR :0.99599: L2-HR :0.93700: (Sim:0h19m24s) 
CPU  1 inst:   18000001 cyc:   18106052 now IPC :0.79913: AVG IPC :0.93436: L2-Pf-HR :0.99538: L2-HR :0.93358: (Sim:0h21m15s) 
CPU  2 inst:   18000001 cyc:   18149862 now IPC :0.78534: AVG IPC :0.93201: L2-Pf-HR :0.99520: L2-HR :0.93281: (Sim:0h21m19s) 
CPU  0 inst:   18000001 cyc:   18161089 now IPC :0.79621: AVG IPC :0.93138: L2-Pf-HR :0.99616: L2-HR :0.93753: (Sim:0h21m20s) 
CPU  3 inst:   18000001 cyc:   18171280 now IPC :0.78691: AVG IPC :0.93079: L2-Pf-HR :0.99535: L2-HR :0.93267: (Sim:0h21m21s) 
CPU  1 inst:   19000004 cyc:   19597272 now IPC :0.67059: AVG IPC :0.91323: L2-Pf-HR :0.99560: L2-HR :0.93446: (Sim:0h23m21s) 
CPU  0 inst:   19000004 cyc:   19628145 now IPC :0.68164: AVG IPC :0.91173: L2-Pf-HR :0.99632: L2-HR :0.93811: (Sim:0h23m24s) 
CPU  3 inst:   19000004 cyc:   19646564 now IPC :0.67784: AVG IPC :0.91079: L2-Pf-HR :0.99555: L2-HR :0.93342: (Sim:0h23m26s) 
CPU  2 inst:   19000004 cyc:   19656398 now IPC :0.66378: AVG IPC :0.91037: L2-Pf-HR :0.99536: L2-HR :0.93332: (Sim:0h23m27s) 
CPU  0 inst:   20000002 cyc:   21022654 now IPC :0.71710: AVG IPC :0.89818: L2-Pf-HR :0.99624: L2-HR :0.93788: (Sim:0h25m30s) 
CPU  2 inst:   20000002 cyc:   21024685 now IPC :0.73084: AVG IPC :0.89811: L2-Pf-HR :0.99530: L2-HR :0.93311: (Sim:0h25m30s) 
CPU  1 inst:   20000002 cyc:   21026227 now IPC :0.69981: AVG IPC :0.89802: L2-Pf-HR :0.99556: L2-HR :0.93441: (Sim:0h25m31s) 
CPU  3 inst:   20000002 cyc:   21029669 now IPC :0.72301: AVG IPC :0.89784: L2-Pf-HR :0.99548: L2-HR :0.93326: (Sim:0h25m31s) 
CPU  3 inst:   21000003 cyc:   22452580 now IPC :0.70279: AVG IPC :0.88491: L2-Pf-HR :0.99552: L2-HR :0.93182: (Sim:0h27m41s) 
CPU  0 inst:   21000004 cyc:   22458664 now IPC :0.69638: AVG IPC :0.88469: L2-Pf-HR :0.99625: L2-HR :0.93641: (Sim:0h27m41s) 
CPU  1 inst:   21000003 cyc:   22467859 now IPC :0.69366: AVG IPC :0.88430: L2-Pf-HR :0.99553: L2-HR :0.93267: (Sim:0h27m42s) 
CPU  2 inst:   21000005 cyc:   22473200 now IPC :0.69036: AVG IPC :0.88411: L2-Pf-HR :0.99534: L2-HR :0.93164: (Sim:0h27m43s) 
CPU  3 inst:   22000004 cyc:   23773767 now IPC :0.75690: AVG IPC :0.87749: L2-Pf-HR :0.99569: L2-HR :0.93244: (Sim:0h29m39s) 
CPU  0 inst:   22000004 cyc:   23780190 now IPC :0.75670: AVG IPC :0.87727: L2-Pf-HR :0.99638: L2-HR :0.93687: (Sim:0h29m40s) 
CPU  1 inst:   22000004 cyc:   23781952 now IPC :0.76098: AVG IPC :0.87720: L2-Pf-HR :0.99566: L2-HR :0.93309: (Sim:0h29m40s) 
CPU  2 inst:   22000004 cyc:   23797120 now IPC :0.75533: AVG IPC :0.87663: L2-Pf-HR :0.99550: L2-HR :0.93212: (Sim:0h29m41s) 
CPU  0 inst:   23000002 cyc:   25175123 now IPC :0.71688: AVG IPC :0.86802: L2-Pf-HR :0.99646: L2-HR :0.93716: (Sim:0h31m38s) 
CPU  3 inst:   23000002 cyc:   25184615 now IPC :0.70879: AVG IPC :0.86765: L2-Pf-HR :0.99579: L2-HR :0.93290: (Sim:0h31m39s) 
CPU  1 inst:   23000002 cyc:   25187084 now IPC :0.71168: AVG IPC :0.86759: L2-Pf-HR :0.99578: L2-HR :0.93349: (Sim:0h31m39s) 
CPU  2 inst:   23000002 cyc:   25189817 now IPC :0.71803: AVG IPC :0.86751: L2-Pf-HR :0.99561: L2-HR :0.93244: (Sim:0h31m39s) 
CPU  2 inst:   24000004 cyc:   26613467 now IPC :0.70242: AVG IPC :0.85834: L2-Pf-HR :0.99565: L2-HR :0.93269: (Sim:0h33m40s) 
CPU  0 inst:   24000004 cyc:   26616869 now IPC :0.69360: AVG IPC :0.85821: L2-Pf-HR :0.99648: L2-HR :0.93733: (Sim:0h33m41s) 
CPU  3 inst:   24000004 cyc:   26618868 now IPC :0.69723: AVG IPC :0.85812: L2-Pf-HR :0.99582: L2-HR :0.93322: (Sim:0h33m41s) 
CPU  1 inst:   24000004 cyc:   26618869 now IPC :0.69843: AVG IPC :0.85814: L2-Pf-HR :0.99582: L2-HR :0.93373: (Sim:0h33m41s) 
CPU  3 inst:   25000003 cyc:   28084084 now IPC :0.68249: AVG IPC :0.84863: L2-Pf-HR :0.99574: L2-HR :0.93179: (Sim:0h35m48s) 
CPU  1 inst:   25000001 cyc:   28085619 now IPC :0.68178: AVG IPC :0.84859: L2-Pf-HR :0.99568: L2-HR :0.93181: (Sim:0h35m48s) 
CPU  0 inst:   25000001 cyc:   28085972 now IPC :0.68069: AVG IPC :0.84859: L2-Pf-HR :0.99641: L2-HR :0.93585: (Sim:0h35m48s) 
CPU  2 inst:   25000003 cyc:   28093023 now IPC :0.67588: AVG IPC :0.84838: L2-Pf-HR :0.99564: L2-HR :0.93140: (Sim:0h35m49s) 
CPU  3 inst:   26000005 cyc:   29401558 now IPC :0.75903: AVG IPC :0.84447: L2-Pf-HR :0.99594: L2-HR :0.93312: (Sim:0h37m52s) 
CPU  2 inst:   26000005 cyc:   29421699 now IPC :0.75263: AVG IPC :0.84391: L2-Pf-HR :0.99584: L2-HR :0.93263: (Sim:0h37m53s) 
CPU  0 inst:   26000005 cyc:   29426883 now IPC :0.74576: AVG IPC :0.84374: L2-Pf-HR :0.99658: L2-HR :0.93700: (Sim:0h37m54s) 
CPU  1 inst:   26000005 cyc:   29433791 now IPC :0.74175: AVG IPC :0.84353: L2-Pf-HR :0.99583: L2-HR :0.93292: (Sim:0h37m54s) 
CPU  2 inst:   27000003 cyc:   30810582 now IPC :0.72000: AVG IPC :0.83814: L2-Pf-HR :0.99602: L2-HR :0.93377: (Sim:0h39m58s) 
CPU  3 inst:   27000003 cyc:   30811794 now IPC :0.70910: AVG IPC :0.83807: L2-Pf-HR :0.99609: L2-HR :0.93431: (Sim:0h39m58s) 
CPU  0 inst:   27000003 cyc:   30823309 now IPC :0.71611: AVG IPC :0.83777: L2-Pf-HR :0.99672: L2-HR :0.93808: (Sim:0h39m59s) 
CPU  1 inst:   27000003 cyc:   30825972 now IPC :0.71830: AVG IPC :0.83769: L2-Pf-HR :0.99597: L2-HR :0.93402: (Sim:0h39m59s) 
CPU  1 inst:   28000001 cyc:   32104033 now IPC :0.78243: AVG IPC :0.83542: L2-Pf-HR :0.99604: L2-HR :0.93456: (Sim:0h42m0s) 
CPU  3 inst:   28000005 cyc:   32112550 now IPC :0.76879: AVG IPC :0.83518: L2-Pf-HR :0.99614: L2-HR :0.93490: (Sim:0h42m1s) 
CPU  0 inst:   28000005 cyc:   32115279 now IPC :0.77401: AVG IPC :0.83512: L2-Pf-HR :0.99677: L2-HR :0.93857: (Sim:0h42m1s) 
CPU  2 inst:   28000005 cyc:   32115330 now IPC :0.76643: AVG IPC :0.83513: L2-Pf-HR :0.99611: L2-HR :0.93438: (Sim:0h42m1s) 
CPU  0 inst:   29000000 cyc:   33395364 now IPC :0.78119: AVG IPC :0.83299: L2-Pf-HR :0.99662: L2-HR :0.93703: (Sim:0h44m6s) 
CPU  3 inst:   29000000 cyc:   33408636 now IPC :0.77155: AVG IPC :0.83263: L2-Pf-HR :0.99596: L2-HR :0.93330: (Sim:0h44m7s) 
CPU  1 inst:   29000000 cyc:   33433685 now IPC :0.75208: AVG IPC :0.83201: L2-Pf-HR :0.99586: L2-HR :0.93293: (Sim:0h44m8s) 
CPU  2 inst:   29000000 cyc:   33441520 now IPC :0.75404: AVG IPC :0.83182: L2-Pf-HR :0.99598: L2-HR :0.93293: (Sim:0h44m9s) 
CPU  0 inst:   30000000 cyc:   34792302 now IPC :0.71585: AVG IPC :0.82815: L2-Pf-HR :0.99674: L2-HR :0.93791: (Sim:0h46m10s) 
CPU  3 inst:   30000000 cyc:   34859397 now IPC :0.68929: AVG IPC :0.82649: L2-Pf-HR :0.99609: L2-HR :0.93423: (Sim:0h46m16s) 
CPU  2 inst:   30000000 cyc:   34871281 now IPC :0.69942: AVG IPC :0.82623: L2-Pf-HR :0.99610: L2-HR :0.93372: (Sim:0h46m17s) 
CPU  1 inst:   30000000 cyc:   34921012 now IPC :0.67235: AVG IPC :0.82501: L2-Pf-HR :0.99598: L2-HR :0.93365: (Sim:0h46m21s) 
CPU  0 inst:   31000001 cyc:   35931580 now IPC :0.87775: AVG IPC :0.82977: L2-Pf-HR :0.99684: L2-HR :0.93870: (Sim:0h47m58s) 
CPU  3 inst:   31000001 cyc:   36104165 now IPC :0.80336: AVG IPC :0.82568: L2-Pf-HR :0.99620: L2-HR :0.93510: (Sim:0h48m18s) 
CPU  2 inst:   31000001 cyc:   36107935 now IPC :0.80863: AVG IPC :0.82561: L2-Pf-HR :0.99617: L2-HR :0.93438: (Sim:0h48m19s) 
CPU  1 inst:   31000001 cyc:   36161268 now IPC :0.80629: AVG IPC :0.82435: L2-Pf-HR :0.99608: L2-HR :0.93436: (Sim:0h48m24s) 
CPU  0 inst:   32000002 cyc:   36797743 now IPC :1.15452: AVG IPC :0.83762: L2-Pf-HR :0.99690: L2-HR :0.93943: (Sim:0h49m37s) 
CPU  3 inst:   32000002 cyc:   37256506 now IPC :0.86780: AVG IPC :0.82701: L2-Pf-HR :0.99629: L2-HR :0.93578: (Sim:0h50m21s) 
CPU  2 inst:   32000002 cyc:   37281761 now IPC :0.85192: AVG IPC :0.82647: L2-Pf-HR :0.99621: L2-HR :0.93487: (Sim:0h50m23s) 
CPU  1 inst:   32000002 cyc:   37304171 now IPC :0.87497: AVG IPC :0.82594: L2-Pf-HR :0.99613: L2-HR :0.93482: (Sim:0h50m25s) 
CPU  0 inst:   33000001 cyc:   37754877 now IPC :1.04478: AVG IPC :0.84302: L2-Pf-HR :0.99673: L2-HR :0.93819: (Sim:0h51m18s) 
CPU  3 inst:   33000003 cyc:   38346384 now IPC :0.91753: AVG IPC :0.82965: L2-Pf-HR :0.99611: L2-HR :0.93448: (Sim:0h52m15s) 
CPU  1 inst:   33000003 cyc:   38347479 now IPC :0.95849: AVG IPC :0.82964: L2-Pf-HR :0.99595: L2-HR :0.93353: (Sim:0h52m16s) 
CPU  2 inst:   33000003 cyc:   38351306 now IPC :0.93498: AVG IPC :0.82957: L2-Pf-HR :0.99602: L2-HR :0.93347: (Sim:0h52m16s) 
CPU  0 inst:   34000004 cyc:   38882289 now IPC :0.88699: AVG IPC :0.84432: L2-Pf-HR :0.99681: L2-HR :0.93841: (Sim:0h53m4s) 
CPU  1 inst:   34000004 cyc:   39709619 now IPC :0.73414: AVG IPC :0.82628: L2-Pf-HR :0.99607: L2-HR :0.93407: (Sim:0h54m29s) 
CPU  3 inst:   34000004 cyc:   39724579 now IPC :0.72559: AVG IPC :0.82595: L2-Pf-HR :0.99621: L2-HR :0.93488: (Sim:0h54m30s) 
CPU  2 inst:   34000004 cyc:   39739455 now IPC :0.72038: AVG IPC :0.82566: L2-Pf-HR :0.99611: L2-HR :0.93386: (Sim:0h54m32s) 
CPU  0 inst:   35000005 cyc:   39782789 now IPC :1.11050: AVG IPC :0.85050: L2-Pf-HR :0.99690: L2-HR :0.93911: (Sim:0h54m37s) 
CPU  3 inst:   35000005 cyc:   40851902 now IPC :0.88706: AVG IPC :0.82768: L2-Pf-HR :0.99626: L2-HR :0.93515: (Sim:0h56m25s) 
CPU  1 inst:   35000005 cyc:   40857793 now IPC :0.87095: AVG IPC :0.82757: L2-Pf-HR :0.99612: L2-HR :0.93446: (Sim:0h56m25s) 
CPU  2 inst:   35000005 cyc:   40872834 now IPC :0.88232: AVG IPC :0.82727: L2-Pf-HR :0.99616: L2-HR :0.93413: (Sim:0h56m27s) 
CPU  0 inst:   36000004 cyc:   40935512 now IPC :0.86751: AVG IPC :0.85099: L2-Pf-HR :0.99693: L2-HR :0.93931: (Sim:0h56m33s) 
CPU  0 inst:   37000000 cyc:   41857164 now IPC :1.08500: AVG IPC :0.85627: L2-Pf-HR :0.99672: L2-HR :0.93862: (Sim:0h58m2s) 
CPU  1 inst:   36000004 cyc:   42102908 now IPC :0.80314: AVG IPC :0.82683: L2-Pf-HR :0.99598: L2-HR :0.93477: (Sim:0h58m17s) 
CPU  3 inst:   36000004 cyc:   42115233 now IPC :0.79156: AVG IPC :0.82657: L2-Pf-HR :0.99615: L2-HR :0.93528: (Sim:0h58m17s) 
CPU  2 inst:   36000004 cyc:   42116411 now IPC :0.80413: AVG IPC :0.82657: L2-Pf-HR :0.99607: L2-HR :0.93430: (Sim:0h58m17s) 
CPU  0 inst:   38000004 cyc:   43080662 now IPC :0.81733: AVG IPC :0.85514: L2-Pf-HR :0.99671: L2-HR :0.93849: (Sim:0h59m10s) 
CPU  3 inst:   37000000 cyc:   43211353 now IPC :0.91231: AVG IPC :0.82880: L2-Pf-HR :0.99598: L2-HR :0.93450: (Sim:0h59m18s) 
CPU  1 inst:   37000000 cyc:   43224940 now IPC :0.89124: AVG IPC :0.82854: L2-Pf-HR :0.99586: L2-HR :0.93407: (Sim:0h59m19s) 
CPU  2 inst:   37000000 cyc:   43227085 now IPC :0.90035: AVG IPC :0.82851: L2-Pf-HR :0.99594: L2-HR :0.93351: (Sim:0h59m20s) 
CPU  0 inst:   39000002 cyc:   44231924 now IPC :0.86861: AVG IPC :0.85550: L2-Pf-HR :0.99678: L2-HR :0.93892: (Sim:1h0m7s) 
CPU  3 inst:   38000004 cyc:   44640270 now IPC :0.69983: AVG IPC :0.82457: L2-Pf-HR :0.99606: L2-HR :0.93460: (Sim:1h0m29s) 
CPU  2 inst:   38000004 cyc:   44724105 now IPC :0.66800: AVG IPC :0.82302: L2-Pf-HR :0.99601: L2-HR :0.93370: (Sim:1h0m33s) 
CPU  1 inst:   38000004 cyc:   44739131 now IPC :0.66042: AVG IPC :0.82272: L2-Pf-HR :0.99594: L2-HR :0.93418: (Sim:1h0m34s) 
CPU  0 inst:   40000000 cyc:   45284906 now IPC :0.94968: AVG IPC :0.85773: L2-Pf-HR :0.99686: L2-HR :0.93953: (Sim:1h1m2s) 
CPU  3 inst:   39000002 cyc:   45917961 now IPC :0.78266: AVG IPC :0.82338: L2-Pf-HR :0.99609: L2-HR :0.93504: (Sim:1h1m37s) 
CPU  1 inst:   39000002 cyc:   45919083 now IPC :0.84749: AVG IPC :0.82337: L2-Pf-HR :0.99598: L2-HR :0.93458: (Sim:1h1m38s) 
CPU  2 inst:   39000002 cyc:   45931602 now IPC :0.82816: AVG IPC :0.82315: L2-Pf-HR :0.99606: L2-HR :0.93424: (Sim:1h1m38s) 
CPU  0 inst:   41000003 cyc:   46343500 now IPC :0.94465: AVG IPC :0.85976: L2-Pf-HR :0.99675: L2-HR :0.93910: (Sim:1h2m3s) 
CPU  2 inst:   40000000 cyc:   46917931 now IPC :1.01386: AVG IPC :0.82725: L2-Pf-HR :0.99614: L2-HR :0.93490: (Sim:1h3m0s) 
CPU  1 inst:   40000000 cyc:   46929426 now IPC :0.98976: AVG IPC :0.82703: L2-Pf-HR :0.99604: L2-HR :0.93507: (Sim:1h3m1s) 
CPU  3 inst:   40000000 cyc:   46932305 now IPC :0.98586: AVG IPC :0.82697: L2-Pf-HR :0.99615: L2-HR :0.93552: (Sim:1h3m2s) 
CPU  0 inst:   42000002 cyc:   47345532 now IPC :0.99797: AVG IPC :0.86275: L2-Pf-HR :0.99676: L2-HR :0.93897: (Sim:1h3m43s) 
CPU  3 inst:   41000003 cyc:   48002233 now IPC :0.93465: AVG IPC :0.82942: L2-Pf-HR :0.99606: L2-HR :0.93496: (Sim:1h4m57s) 
CPU  2 inst:   41000003 cyc:   48017765 now IPC :0.90923: AVG IPC :0.82917: L2-Pf-HR :0.99606: L2-HR :0.93432: (Sim:1h4m59s) 
CPU  1 inst:   41000003 cyc:   48027125 now IPC :0.91100: AVG IPC :0.82899: L2-Pf-HR :0.99595: L2-HR :0.93444: (Sim:1h5m0s) 
CPU  0 inst:   43000000 cyc:   48172145 now IPC :1.20975: AVG IPC :0.86883: L2-Pf-HR :0.99670: L2-HR :0.93916: (Sim:1h5m13s) 
CPU  0 inst:   44000001 cyc:   49335573 now IPC :0.85953: AVG IPC :0.86861: L2-Pf-HR :0.99674: L2-HR :0.93943: (Sim:1h6m58s) 
CPU  2 inst:   42000002 cyc:   49603885 now IPC :0.63047: AVG IPC :0.82268: L2-Pf-HR :0.99608: L2-HR :0.93413: (Sim:1h7m24s) 
CPU  1 inst:   42000002 cyc:   49629982 now IPC :0.62389: AVG IPC :0.82223: L2-Pf-HR :0.99595: L2-HR :0.93419: (Sim:1h7m26s) 
CPU  3 inst:   42000002 cyc:   49646868 now IPC :0.60804: AVG IPC :0.82194: L2-Pf-HR :0.99609: L2-HR :0.93476: (Sim:1h7m28s) 
CPU  0 inst:   45000000 cyc:   50716556 now IPC :0.72412: AVG IPC :0.86459: L2-Pf-HR :0.99653: L2-HR :0.93899: (Sim:1h9m6s) 
CPU  1 inst:   43000000 cyc:   50917806 now IPC :0.77650: AVG IPC :0.82105: L2-Pf-HR :0.99574: L2-HR :0.93427: (Sim:1h9m28s) 
CPU  3 inst:   43000000 cyc:   50959299 now IPC :0.76194: AVG IPC :0.82036: L2-Pf-HR :0.99588: L2-HR :0.93482: (Sim:1h9m33s) 
CPU  2 inst:   43000000 cyc:   51053180 now IPC :0.68999: AVG IPC :0.81884: L2-Pf-HR :0.99591: L2-HR :0.93415: (Sim:1h9m41s) 
CPU  0 inst:   46000001 cyc:   52029213 now IPC :0.76181: AVG IPC :0.86195: L2-Pf-HR :0.99656: L2-HR :0.93886: (Sim:1h11m16s) 
CPU  1 inst:   44000001 cyc:   52160523 now IPC :0.80469: AVG IPC :0.82066: L2-Pf-HR :0.99582: L2-HR :0.93473: (Sim:1h11m28s) 
CPU  3 inst:   44000001 cyc:   52171163 now IPC :0.82518: AVG IPC :0.82048: L2-Pf-HR :0.99594: L2-HR :0.93523: (Sim:1h11m29s) 
CPU  2 inst:   44000001 cyc:   52195055 now IPC :0.87575: AVG IPC :0.82011: L2-Pf-HR :0.99596: L2-HR :0.93453: (Sim:1h11m32s) 
CPU  0 inst:   47000004 cyc:   53057770 now IPC :0.97224: AVG IPC :0.86413: L2-Pf-HR :0.99662: L2-HR :0.93922: (Sim:1h13m0s) 
CPU  2 inst:   45000000 cyc:   53246254 now IPC :0.95129: AVG IPC :0.82275: L2-Pf-HR :0.99590: L2-HR :0.93404: (Sim:1h13m19s) 
CPU  3 inst:   45000000 cyc:   53270299 now IPC :0.90980: AVG IPC :0.82235: L2-Pf-HR :0.99588: L2-HR :0.93477: (Sim:1h13m21s) 
CPU  1 inst:   45000000 cyc:   53276348 now IPC :0.89620: AVG IPC :0.82227: L2-Pf-HR :0.99576: L2-HR :0.93419: (Sim:1h13m22s) 
CPU  0 inst:   48000005 cyc:   54331806 now IPC :0.78491: AVG IPC :0.86224: L2-Pf-HR :0.99667: L2-HR :0.93952: (Sim:1h14m57s) 
CPU  2 inst:   46000002 cyc:   54645869 now IPC :0.71448: AVG IPC :0.81993: L2-Pf-HR :0.99593: L2-HR :0.93391: (Sim:1h15m27s) 
CPU  3 inst:   46000002 cyc:   54664325 now IPC :0.71735: AVG IPC :0.81963: L2-Pf-HR :0.99593: L2-HR :0.93467: (Sim:1h15m28s) 
CPU  1 inst:   46000002 cyc:   54664778 now IPC :0.72024: AVG IPC :0.81963: L2-Pf-HR :0.99579: L2-HR :0.93403: (Sim:1h15m28s) 
CPU  0 inst:   49000000 cyc:   55305061 now IPC :1.02747: AVG IPC :0.86520: L2-Pf-HR :0.99655: L2-HR :0.93930: (Sim:1h16m32s) 
CPU  1 inst:   47000004 cyc:   55821538 now IPC :0.86449: AVG IPC :0.82058: L2-Pf-HR :0.99578: L2-HR :0.93442: (Sim:1h17m27s) 
CPU  3 inst:   47000004 cyc:   55824652 now IPC :0.86183: AVG IPC :0.82052: L2-Pf-HR :0.99591: L2-HR :0.93505: (Sim:1h17m27s) 
CPU  2 inst:   47000004 cyc:   55837925 now IPC :0.83889: AVG IPC :0.82034: L2-Pf-HR :0.99589: L2-HR :0.93419: (Sim:1h17m28s) 
CPU  2 inst:   48000005 cyc:   57680677 now IPC :0.54267: AVG IPC :0.81132: L2-Pf-HR :0.99595: L2-HR :0.93463: (Sim:1h19m45s) 
CPU  1 inst:   48000005 cyc:   57740101 now IPC :0.52122: AVG IPC :0.81046: L2-Pf-HR :0.99587: L2-HR :0.93497: (Sim:1h19m49s) 
CPU  3 inst:   48000005 cyc:   57747904 now IPC :0.51995: AVG IPC :0.81034: L2-Pf-HR :0.99601: L2-HR :0.93563: (Sim:1h19m49s) 
CPU  3 inst:   49000000 cyc:   59190504 now IPC :0.69319: AVG IPC :0.80743: L2-Pf-HR :0.99586: L2-HR :0.93552: (Sim:1h21m53s) 
CPU  1 inst:   49000000 cyc:   59201096 now IPC :0.68446: AVG IPC :0.80729: L2-Pf-HR :0.99570: L2-HR :0.93473: (Sim:1h21m53s) 
CPU  2 inst:   49000000 cyc:   59207352 now IPC :0.65501: AVG IPC :0.80722: L2-Pf-HR :0.99580: L2-HR :0.93440: (Sim:1h21m54s) 
CPU  0 inst:   50000001 cyc:   62503106 now IPC :0.13893: AVG IPC :0.78022: L2-Pf-HR :0.99621: L2-HR :0.92660: (Sim:1h25m8s) 
CPU  2 inst:   50000001 cyc:   71706196 now IPC :0.08001: AVG IPC :0.67870: L2-Pf-HR :0.99544: L2-HR :0.92166: (Sim:1h35m2s) 
CPU  3 inst:   50000004 cyc:   71896724 now IPC :0.07870: AVG IPC :0.67686: L2-Pf-HR :0.99548: L2-HR :0.92278: (Sim:1h35m14s) 
CPU  1 inst:   50000001 cyc:   71982336 now IPC :0.07824: AVG IPC :0.67605: L2-Pf-HR :0.99532: L2-HR :0.92202: (Sim:1h35m20s) 
CPU  0 inst:   51000000 cyc:   83506818 now IPC :0.04761: AVG IPC :0.59376: L2-Pf-HR :0.99581: L2-HR :0.90590: (Sim:1h47m50s) 
CPU  2 inst:   51000003 cyc:   92710648 now IPC :0.04761: AVG IPC :0.53419: L2-Pf-HR :0.99504: L2-HR :0.90094: (Sim:1h57m42s) 
CPU  3 inst:   51000000 cyc:   93228340 now IPC :0.04688: AVG IPC :0.53118: L2-Pf-HR :0.99508: L2-HR :0.90203: (Sim:1h58m15s) 
CPU  1 inst:   51000003 cyc:   93342707 now IPC :0.04682: AVG IPC :0.53053: L2-Pf-HR :0.99492: L2-HR :0.90137: (Sim:1h58m22s) 
CPU  0 inst:   52000000 cyc:   93956976 now IPC :0.09569: AVG IPC :0.53778: L2-Pf-HR :0.99504: L2-HR :0.89900: (Sim:1h59m2s) 
CPU  0 inst:   53000000 cyc:   99353185 now IPC :0.18532: AVG IPC :0.51844: L2-Pf-HR :0.99409: L2-HR :0.89610: (Sim:2h4m29s) 
CPU  2 inst:   52000000 cyc:  100598493 now IPC :0.12678: AVG IPC :0.50193: L2-Pf-HR :0.99419: L2-HR :0.89405: (Sim:2h5m46s) 
CPU  3 inst:   52000000 cyc:  100794114 now IPC :0.13217: AVG IPC :0.50093: L2-Pf-HR :0.99424: L2-HR :0.89514: (Sim:2h5m59s) 
CPU  1 inst:   52000000 cyc:  100849099 now IPC :0.13322: AVG IPC :0.50066: L2-Pf-HR :0.99407: L2-HR :0.89451: (Sim:2h6m2s) 
CPU  0 inst:   54000000 cyc:  103289278 now IPC :0.25406: AVG IPC :0.50827: L2-Pf-HR :0.99309: L2-HR :0.89324: (Sim:2h8m34s) 
CPU  2 inst:   53000000 cyc:  104520790 now IPC :0.25495: AVG IPC :0.49257: L2-Pf-HR :0.99319: L2-HR :0.89114: (Sim:2h9m51s) 
CPU  3 inst:   53000000 cyc:  104716441 now IPC :0.25495: AVG IPC :0.49163: L2-Pf-HR :0.99323: L2-HR :0.89224: (Sim:2h10m3s) 
CPU  1 inst:   53000000 cyc:  104770491 now IPC :0.25501: AVG IPC :0.49138: L2-Pf-HR :0.99306: L2-HR :0.89161: (Sim:2h10m6s) 
CPU  0 inst:   55000001 cyc:  107176735 now IPC :0.25724: AVG IPC :0.49908: L2-Pf-HR :0.99209: L2-HR :0.89041: (Sim:2h12m41s) 
CPU  2 inst:   54000000 cyc:  108394049 now IPC :0.25818: AVG IPC :0.48412: L2-Pf-HR :0.99219: L2-HR :0.88827: (Sim:2h14m0s) 
CPU  3 inst:   54000000 cyc:  108584599 now IPC :0.25852: AVG IPC :0.48325: L2-Pf-HR :0.99224: L2-HR :0.88936: (Sim:2h14m13s) 
CPU  1 inst:   54000000 cyc:  108639788 now IPC :0.25844: AVG IPC :0.48301: L2-Pf-HR :0.99206: L2-HR :0.88875: (Sim:2h14m16s) 
CPU  0 inst:   56000000 cyc:  111032961 now IPC :0.25932: AVG IPC :0.49068: L2-Pf-HR :0.99108: L2-HR :0.88761: (Sim:2h16m52s) 
CPU  2 inst:   55000001 cyc:  112236350 now IPC :0.26026: AVG IPC :0.47639: L2-Pf-HR :0.99118: L2-HR :0.88543: (Sim:2h18m11s) 
CPU  3 inst:   55000001 cyc:  112426972 now IPC :0.26026: AVG IPC :0.47556: L2-Pf-HR :0.99123: L2-HR :0.88652: (Sim:2h18m23s) 
CPU  1 inst:   55000001 cyc:  112480345 now IPC :0.26038: AVG IPC :0.47534: L2-Pf-HR :0.99105: L2-HR :0.88593: (Sim:2h18m26s) 
CPU  0 inst:   57000000 cyc:  114853740 now IPC :0.26173: AVG IPC :0.48300: L2-Pf-HR :0.99007: L2-HR :0.88485: (Sim:2h21m1s) 
CPU  2 inst:   56000000 cyc:  116060737 now IPC :0.26148: AVG IPC :0.46925: L2-Pf-HR :0.99018: L2-HR :0.88263: (Sim:2h22m19s) 
CPU  3 inst:   56000000 cyc:  116249505 now IPC :0.26161: AVG IPC :0.46847: L2-Pf-HR :0.99023: L2-HR :0.88372: (Sim:2h22m32s) 
CPU  1 inst:   56000000 cyc:  116304910 now IPC :0.26147: AVG IPC :0.46825: L2-Pf-HR :0.99003: L2-HR :0.88313: (Sim:2h22m35s) 
CPU  0 inst:   58000000 cyc:  118666758 now IPC :0.26226: AVG IPC :0.47585: L2-Pf-HR :0.98908: L2-HR :0.88212: (Sim:2h25m9s) 
CPU  2 inst:   57000000 cyc:  119873823 now IPC :0.26225: AVG IPC :0.46261: L2-Pf-HR :0.98919: L2-HR :0.87986: (Sim:2h26m28s) 
CPU  3 inst:   57000000 cyc:  120064618 now IPC :0.26212: AVG IPC :0.46186: L2-Pf-HR :0.98926: L2-HR :0.88095: (Sim:2h26m40s) 
CPU  1 inst:   57000000 cyc:  120121572 now IPC :0.26201: AVG IPC :0.46164: L2-Pf-HR :0.98903: L2-HR :0.88037: (Sim:2h26m44s) 
CPU  0 inst:   59000000 cyc:  122490019 now IPC :0.26156: AVG IPC :0.46910: L2-Pf-HR :0.98810: L2-HR :0.87942: (Sim:2h29m18s) 
CPU  2 inst:   58000000 cyc:  123696339 now IPC :0.26161: AVG IPC :0.45635: L2-Pf-HR :0.98820: L2-HR :0.87712: (Sim:2h30m36s) 
CPU  3 inst:   58000000 cyc:  123885956 now IPC :0.26169: AVG IPC :0.45563: L2-Pf-HR :0.98828: L2-HR :0.87821: (Sim:2h30m48s) 
CPU  1 inst:   58000000 cyc:  123943515 now IPC :0.26165: AVG IPC :0.45543: L2-Pf-HR :0.98803: L2-HR :0.87765: (Sim:2h30m52s) 
CPU  0 inst:   60000000 cyc:  126309034 now IPC :0.26185: AVG IPC :0.46279: L2-Pf-HR :0.98711: L2-HR :0.87675: (Sim:2h33m26s) 
CPU  2 inst:   59000000 cyc:  127517449 now IPC :0.26170: AVG IPC :0.45047: L2-Pf-HR :0.98721: L2-HR :0.87442: (Sim:2h34m44s) 
CPU  3 inst:   59000000 cyc:  127708742 now IPC :0.26159: AVG IPC :0.44978: L2-Pf-HR :0.98731: L2-HR :0.87550: (Sim:2h34m57s) 
CPU  1 inst:   59000000 cyc:  127765398 now IPC :0.26165: AVG IPC :0.44958: L2-Pf-HR :0.98700: L2-HR :0.87495: (Sim:2h35m1s) 
CPU  0 inst:   61000004 cyc:  130137329 now IPC :0.26121: AVG IPC :0.45681: L2-Pf-HR :0.98611: L2-HR :0.87411: (Sim:2h37m34s) 
CPU  2 inst:   60000000 cyc:  131347513 now IPC :0.26109: AVG IPC :0.44490: L2-Pf-HR :0.98621: L2-HR :0.87174: (Sim:2h38m53s) 
CPU  3 inst:   60000000 cyc:  131538114 now IPC :0.26114: AVG IPC :0.44425: L2-Pf-HR :0.98631: L2-HR :0.87282: (Sim:2h39m6s) 
CPU  1 inst:   60000000 cyc:  131594808 now IPC :0.26114: AVG IPC :0.44406: L2-Pf-HR :0.98599: L2-HR :0.87229: (Sim:2h39m9s) 
CPU  0 inst:   62000000 cyc:  133960598 now IPC :0.26156: AVG IPC :0.45120: L2-Pf-HR :0.98513: L2-HR :0.87150: (Sim:2h41m43s) 
CPU  2 inst:   61000004 cyc:  135163507 now IPC :0.26206: AVG IPC :0.43970: L2-Pf-HR :0.98522: L2-HR :0.86910: (Sim:2h43m1s) 
CPU  3 inst:   61000004 cyc:  135354301 now IPC :0.26204: AVG IPC :0.43907: L2-Pf-HR :0.98533: L2-HR :0.87017: (Sim:2h43m14s) 
CPU  1 inst:   61000004 cyc:  135409675 now IPC :0.26213: AVG IPC :0.43890: L2-Pf-HR :0.98498: L2-HR :0.86965: (Sim:2h43m17s) 
CPU  0 inst:   63000000 cyc:  137773812 now IPC :0.26225: AVG IPC :0.44593: L2-Pf-HR :0.98413: L2-HR :0.86892: (Sim:2h45m52s) 
CPU  2 inst:   62000000 cyc:  138980571 now IPC :0.26198: AVG IPC :0.43479: L2-Pf-HR :0.98422: L2-HR :0.86649: (Sim:2h47m10s) 
CPU  3 inst:   62000000 cyc:  139171665 now IPC :0.26196: AVG IPC :0.43418: L2-Pf-HR :0.98434: L2-HR :0.86756: (Sim:2h47m23s) 
CPU  1 inst:   62000000 cyc:  139227682 now IPC :0.26192: AVG IPC :0.43401: L2-Pf-HR :0.98400: L2-HR :0.86705: (Sim:2h47m26s) 
CPU  0 inst:   64000005 cyc:  141589420 now IPC :0.26208: AVG IPC :0.44094: L2-Pf-HR :0.98315: L2-HR :0.86636: (Sim:2h49m58s) 
CPU  2 inst:   63000000 cyc:  142792648 now IPC :0.26232: AVG IPC :0.43015: L2-Pf-HR :0.98323: L2-HR :0.86390: (Sim:2h51m16s) 
CPU  3 inst:   63000000 cyc:  142984625 now IPC :0.26226: AVG IPC :0.42956: L2-Pf-HR :0.98335: L2-HR :0.86497: (Sim:2h51m28s) 
CPU  1 inst:   63000000 cyc:  143039929 now IPC :0.26231: AVG IPC :0.42940: L2-Pf-HR :0.98301: L2-HR :0.86447: (Sim:2h51m32s) 
CPU  0 inst:   65000002 cyc:  145406408 now IPC :0.26199: AVG IPC :0.43621: L2-Pf-HR :0.98219: L2-HR :0.86383: (Sim:2h54m5s) 
CPU  2 inst:   64000001 cyc:  146616424 now IPC :0.26152: AVG IPC :0.42573: L2-Pf-HR :0.98225: L2-HR :0.86134: (Sim:2h55m23s) 
CPU  3 inst:   64000001 cyc:  146808037 now IPC :0.26155: AVG IPC :0.42516: L2-Pf-HR :0.98238: L2-HR :0.86241: (Sim:2h55m35s) 
CPU  1 inst:   64000001 cyc:  146863492 now IPC :0.26154: AVG IPC :0.42500: L2-Pf-HR :0.98200: L2-HR :0.86192: (Sim:2h55m39s) 
CPU  0 inst:   66000000 cyc:  149230683 now IPC :0.26149: AVG IPC :0.43171: L2-Pf-HR :0.98121: L2-HR :0.86134: (Sim:2h58m11s) 
CPU  2 inst:   65000002 cyc:  150436939 now IPC :0.26175: AVG IPC :0.42153: L2-Pf-HR :0.98127: L2-HR :0.85881: (Sim:2h59m29s) 
CPU  3 inst:   65000002 cyc:  150626097 now IPC :0.26191: AVG IPC :0.42099: L2-Pf-HR :0.98140: L2-HR :0.85988: (Sim:2h59m41s) 
CPU  1 inst:   65000002 cyc:  150682904 now IPC :0.26182: AVG IPC :0.42084: L2-Pf-HR :0.98100: L2-HR :0.85940: (Sim:2h59m45s) 
CPU  0 inst:   67000000 cyc:  153055685 now IPC :0.26144: AVG IPC :0.42742: L2-Pf-HR :0.98022: L2-HR :0.85887: (Sim:3h2m18s) 
CPU  2 inst:   66000000 cyc:  154258673 now IPC :0.26166: AVG IPC :0.41755: L2-Pf-HR :0.98029: L2-HR :0.85631: (Sim:3h3m36s) 
CPU  3 inst:   66000000 cyc:  154449813 now IPC :0.26153: AVG IPC :0.41702: L2-Pf-HR :0.98041: L2-HR :0.85737: (Sim:3h3m48s) 
CPU  1 inst:   66000000 cyc:  154501110 now IPC :0.26190: AVG IPC :0.41688: L2-Pf-HR :0.98002: L2-HR :0.85691: (Sim:3h3m52s) 
CPU  0 inst:   68000000 cyc:  156876915 now IPC :0.26170: AVG IPC :0.42336: L2-Pf-HR :0.97922: L2-HR :0.85643: (Sim:3h6m25s) 
CPU  2 inst:   67000000 cyc:  158083185 now IPC :0.26147: AVG IPC :0.41375: L2-Pf-HR :0.97931: L2-HR :0.85384: (Sim:3h7m43s) 
CPU  3 inst:   67000000 cyc:  158273084 now IPC :0.26156: AVG IPC :0.41324: L2-Pf-HR :0.97943: L2-HR :0.85490: (Sim:3h7m55s) 
CPU  1 inst:   67000000 cyc:  158324982 now IPC :0.26152: AVG IPC :0.41311: L2-Pf-HR :0.97901: L2-HR :0.85445: (Sim:3h7m59s) 
CPU  0 inst:   69000004 cyc:  160696641 now IPC :0.26180: AVG IPC :0.41950: L2-Pf-HR :0.97822: L2-HR :0.85401: (Sim:3h10m32s) 
CPU  2 inst:   68000000 cyc:  161904937 now IPC :0.26166: AVG IPC :0.41014: L2-Pf-HR :0.97833: L2-HR :0.85140: (Sim:3h11m50s) 
CPU  3 inst:   68000000 cyc:  162094104 now IPC :0.26171: AVG IPC :0.40965: L2-Pf-HR :0.97846: L2-HR :0.85245: (Sim:3h12m3s) 
CPU  1 inst:   68000000 cyc:  162146310 now IPC :0.26169: AVG IPC :0.40952: L2-Pf-HR :0.97803: L2-HR :0.85201: (Sim:3h12m6s) 
CPU  0 inst:   70000000 cyc:  164518737 now IPC :0.26164: AVG IPC :0.41581: L2-Pf-HR :0.97725: L2-HR :0.85162: (Sim:3h14m39s) 
CPU  2 inst:   69000004 cyc:  165726970 now IPC :0.26164: AVG IPC :0.40669: L2-Pf-HR :0.97735: L2-HR :0.84898: (Sim:3h15m57s) 
CPU  3 inst:   69000004 cyc:  165914698 now IPC :0.26174: AVG IPC :0.40622: L2-Pf-HR :0.97747: L2-HR :0.85003: (Sim:3h16m9s) 
CPU  1 inst:   69000004 cyc:  165957085 now IPC :0.26241: AVG IPC :0.40612: L2-Pf-HR :0.97705: L2-HR :0.84960: (Sim:3h16m12s) 
CPU  0 inst:   71000000 cyc:  168332460 now IPC :0.26221: AVG IPC :0.41231: L2-Pf-HR :0.97629: L2-HR :0.84925: (Sim:3h17m45s) 
CPU  2 inst:   70000000 cyc:  169535425 now IPC :0.26257: AVG IPC :0.40343: L2-Pf-HR :0.97636: L2-HR :0.84659: (Sim:3h18m27s) 
CPU  3 inst:   70000000 cyc:  169725314 now IPC :0.26242: AVG IPC :0.40297: L2-Pf-HR :0.97649: L2-HR :0.84764: (Sim:3h18m33s) 
CPU  1 inst:   70000000 cyc:  169767650 now IPC :0.26243: AVG IPC :0.40288: L2-Pf-HR :0.97609: L2-HR :0.84722: (Sim:3h18m35s) 
CPU  0 inst:   72000000 cyc:  172141976 now IPC :0.26250: AVG IPC :0.40897: L2-Pf-HR :0.97531: L2-HR :0.84691: (Sim:3h19m56s) 
CPU  2 inst:   71000000 cyc:  173352914 now IPC :0.26195: AVG IPC :0.40030: L2-Pf-HR :0.97538: L2-HR :0.84422: (Sim:3h20m37s) 
CPU  3 inst:   71000000 cyc:  173543638 now IPC :0.26190: AVG IPC :0.39985: L2-Pf-HR :0.97550: L2-HR :0.84527: (Sim:3h20m43s) 
CPU  1 inst:   71000000 cyc:  173584820 now IPC :0.26197: AVG IPC :0.39976: L2-Pf-HR :0.97512: L2-HR :0.84486: (Sim:3h20m45s) 
CPU  0 inst:   73000000 cyc:  175969097 now IPC :0.26129: AVG IPC :0.40574: L2-Pf-HR :0.97434: L2-HR :0.84460: (Sim:3h22m6s) 
CPU  2 inst:   72000000 cyc:  177168223 now IPC :0.26210: AVG IPC :0.39731: L2-Pf-HR :0.97440: L2-HR :0.84188: (Sim:3h22m47s) 
CPU  3 inst:   72000000 cyc:  177367785 now IPC :0.26150: AVG IPC :0.39685: L2-Pf-HR :0.97451: L2-HR :0.84293: (Sim:3h22m54s) 
CPU  1 inst:   72000000 cyc:  177403497 now IPC :0.26187: AVG IPC :0.39678: L2-Pf-HR :0.97409: L2-HR :0.84253: (Sim:3h22m55s) 
CPU  0 inst:   74000001 cyc:  179794545 now IPC :0.26141: AVG IPC :0.40266: L2-Pf-HR :0.97336: L2-HR :0.84231: (Sim:3h24m17s) 
CPU  2 inst:   73000000 cyc:  180992191 now IPC :0.26151: AVG IPC :0.39442: L2-Pf-HR :0.97344: L2-HR :0.83957: (Sim:3h25m19s) 
CPU  3 inst:   73000000 cyc:  181189038 now IPC :0.26169: AVG IPC :0.39399: L2-Pf-HR :0.97353: L2-HR :0.84061: (Sim:3h25m31s) 
CPU  1 inst:   73000000 cyc:  181223652 now IPC :0.26177: AVG IPC :0.39391: L2-Pf-HR :0.97311: L2-HR :0.84022: (Sim:3h25m33s) 
CPU  0 inst:   75000002 cyc:  183611254 now IPC :0.26201: AVG IPC :0.39972: L2-Pf-HR :0.97241: L2-HR :0.84004: (Sim:3h27m58s) 
CPU  2 inst:   74000001 cyc:  184815786 now IPC :0.26153: AVG IPC :0.39166: L2-Pf-HR :0.97247: L2-HR :0.83728: (Sim:3h29m11s) 
CPU  3 inst:   74000001 cyc:  185020193 now IPC :0.26102: AVG IPC :0.39122: L2-Pf-HR :0.97254: L2-HR :0.83832: (Sim:3h29m23s) 
CPU  1 inst:   74000001 cyc:  185051155 now IPC :0.26127: AVG IPC :0.39116: L2-Pf-HR :0.97213: L2-HR :0.83794: (Sim:3h29m24s) 
CPU  0 inst:   76000001 cyc:  185852774 now IPC :0.44613: AVG IPC :0.40028: L2-Pf-HR :0.97224: L2-HR :0.84091: (Sim:3h30m20s) 
CPU  0 inst:   77000003 cyc:  186614822 now IPC :1.31226: AVG IPC :0.40402: L2-Pf-HR :0.97266: L2-HR :0.84437: (Sim:3h31m22s) 
CPU  0 inst:   78000005 cyc:  187309741 now IPC :1.43902: AVG IPC :0.40788: L2-Pf-HR :0.97313: L2-HR :0.84768: (Sim:3h32m19s) 
CPU  0 inst:   79000000 cyc:  187926948 now IPC :1.62019: AVG IPC :0.41189: L2-Pf-HR :0.97373: L2-HR :0.85112: (Sim:3h33m19s) 
CPU  0 inst:   80000000 cyc:  188675394 now IPC :1.33610: AVG IPC :0.41557: L2-Pf-HR :0.97408: L2-HR :0.85388: (Sim:3h34m22s) 
CPU  2 inst:   75000002 cyc:  188882335 now IPC :0.24591: AVG IPC :0.38851: L2-Pf-HR :0.97153: L2-HR :0.83500: (Sim:3h34m40s) 
CPU  3 inst:   75000002 cyc:  189107885 now IPC :0.24464: AVG IPC :0.38803: L2-Pf-HR :0.97160: L2-HR :0.83605: (Sim:3h34m58s) 
CPU  1 inst:   75000002 cyc:  189142635 now IPC :0.24441: AVG IPC :0.38796: L2-Pf-HR :0.97120: L2-HR :0.83567: (Sim:3h35m1s) 
CPU  0 inst:   81000002 cyc:  189413016 now IPC :1.35571: AVG IPC :0.41925: L2-Pf-HR :0.97445: L2-HR :0.85673: (Sim:3h35m23s) 
CPU  0 inst:   82000002 cyc:  190161232 now IPC :1.33651: AVG IPC :0.42288: L2-Pf-HR :0.97479: L2-HR :0.85934: (Sim:3h36m25s) 
CPU  0 inst:   83000004 cyc:  190903244 now IPC :1.34769: AVG IPC :0.42649: L2-Pf-HR :0.97524: L2-HR :0.86206: (Sim:3h37m19s) 
CPU  2 inst:   76000001 cyc:  191491981 now IPC :0.38319: AVG IPC :0.38843: L2-Pf-HR :0.97151: L2-HR :0.83618: (Sim:3h38m20s) 
CPU  3 inst:   76000001 cyc:  191748347 now IPC :0.37872: AVG IPC :0.38791: L2-Pf-HR :0.97160: L2-HR :0.83723: (Sim:3h38m53s) 
CPU  1 inst:   76000001 cyc:  191835388 now IPC :0.37137: AVG IPC :0.38773: L2-Pf-HR :0.97120: L2-HR :0.83687: (Sim:3h39m2s) 
CPU  0 inst:   84000005 cyc:  191868316 now IPC :1.03619: AVG IPC :0.42957: L2-Pf-HR :0.97565: L2-HR :0.86455: (Sim:3h39m5s) 
CPU  2 inst:   77000003 cyc:  192464795 now IPC :1.02795: AVG IPC :0.39168: L2-Pf-HR :0.97217: L2-HR :0.84017: (Sim:3h40m23s) 
CPU  3 inst:   77000003 cyc:  192647408 now IPC :1.11227: AVG IPC :0.39130: L2-Pf-HR :0.97225: L2-HR :0.84119: (Sim:3h40m49s) 
CPU  0 inst:   85000000 cyc:  192698338 now IPC :1.20478: AVG IPC :0.43293: L2-Pf-HR :0.97608: L2-HR :0.86713: (Sim:3h40m58s) 
CPU  1 inst:   77000003 cyc:  192782880 now IPC :1.05542: AVG IPC :0.39103: L2-Pf-HR :0.97187: L2-HR :0.84085: (Sim:3h41m8s) 
CPU  2 inst:   78000005 cyc:  193319833 now IPC :1.16954: AVG IPC :0.39514: L2-Pf-HR :0.97277: L2-HR :0.84391: (Sim:3h42m18s) 
CPU  3 inst:   78000005 cyc:  193508675 now IPC :1.16108: AVG IPC :0.39475: L2-Pf-HR :0.97288: L2-HR :0.84489: (Sim:3h42m48s) 
CPU  0 inst:   86000004 cyc:  193541454 now IPC :1.18608: AVG IPC :0.43623: L2-Pf-HR :0.97647: L2-HR :0.86949: (Sim:3h42m53s) 
CPU  1 inst:   78000005 cyc:  193602796 now IPC :1.21964: AVG IPC :0.39456: L2-Pf-HR :0.97249: L2-HR :0.84457: (Sim:3h43m3s) 
CPU  2 inst:   79000000 cyc:  193934090 now IPC :1.62797: AVG IPC :0.39906: L2-Pf-HR :0.97344: L2-HR :0.84768: (Sim:3h44m1s) 
CPU  3 inst:   79000000 cyc:  194096385 now IPC :1.70151: AVG IPC :0.39872: L2-Pf-HR :0.97355: L2-HR :0.84863: (Sim:3h44m30s) 
CPU  0 inst:   87000005 cyc:  194145846 now IPC :1.65456: AVG IPC :0.44004: L2-Pf-HR :0.97693: L2-HR :0.87192: (Sim:3h44m40s) 
CPU  1 inst:   79000000 cyc:  194183210 now IPC :1.72290: AVG IPC :0.39855: L2-Pf-HR :0.97317: L2-HR :0.84830: (Sim:3h44m48s) 
CPU  2 inst:   80000000 cyc:  194702386 now IPC :1.30158: AVG IPC :0.40264: L2-Pf-HR :0.97398: L2-HR :0.85089: (Sim:3h46m7s) 
CPU  0 inst:   88000004 cyc:  194874458 now IPC :1.37247: AVG IPC :0.44354: L2-Pf-HR :0.97732: L2-HR :0.87415: (Sim:3h46m30s) 
CPU  3 inst:   80000000 cyc:  194919191 now IPC :1.21535: AVG IPC :0.40219: L2-Pf-HR :0.97406: L2-HR :0.85184: (Sim:3h46m36s) 
CPU  1 inst:   80000000 cyc:  195002439 now IPC :1.22066: AVG IPC :0.40202: L2-Pf-HR :0.97369: L2-HR :0.85148: (Sim:3h46m48s) 
CPU  2 inst:   81000002 cyc:  195510838 now IPC :1.23693: AVG IPC :0.40611: L2-Pf-HR :0.97451: L2-HR :0.85414: (Sim:3h48m1s) 
CPU  3 inst:   81000002 cyc:  195703319 now IPC :1.27530: AVG IPC :0.40570: L2-Pf-HR :0.97459: L2-HR :0.85504: (Sim:3h48m29s) 
CPU  0 inst:   89000001 cyc:  195707069 now IPC :1.20104: AVG IPC :0.44678: L2-Pf-HR :0.97766: L2-HR :0.87624: (Sim:3h48m29s) 
CPU  1 inst:   81000002 cyc:  195731005 now IPC :1.37256: AVG IPC :0.40565: L2-Pf-HR :0.97421: L2-HR :0.85466: (Sim:3h48m34s) 
CPU  2 inst:   82000002 cyc:  196278694 now IPC :1.30233: AVG IPC :0.40963: L2-Pf-HR :0.97497: L2-HR :0.85710: (Sim:3h49m51s) 
CPU  0 inst:   90000001 cyc:  196470267 now IPC :1.31028: AVG IPC :0.45015: L2-Pf-HR :0.97802: L2-HR :0.87834: (Sim:3h50m23s) 
CPU  3 inst:   82000002 cyc:  196477862 now IPC :1.29108: AVG IPC :0.40921: L2-Pf-HR :0.97507: L2-HR :0.85797: (Sim:3h50m24s) 
CPU  1 inst:   82000002 cyc:  196504546 now IPC :1.29276: AVG IPC :0.40916: L2-Pf-HR :0.97469: L2-HR :0.85759: (Sim:3h50m29s) 
CPU  2 inst:   83000004 cyc:  196887024 now IPC :1.64385: AVG IPC :0.41347: L2-Pf-HR :0.97551: L2-HR :0.86010: (Sim:3h51m34s) 
CPU  3 inst:   83000004 cyc:  197068655 now IPC :1.69264: AVG IPC :0.41308: L2-Pf-HR :0.97561: L2-HR :0.86097: (Sim:3h52m7s) 
CPU  0 inst:   91000003 cyc:  197106864 now IPC :1.57086: AVG IPC :0.45379: L2-Pf-HR :0.97835: L2-HR :0.88021: (Sim:3h52m14s) 
CPU  1 inst:   83000004 cyc:  197116035 now IPC :1.63536: AVG IPC :0.41298: L2-Pf-HR :0.97525: L2-HR :0.86059: (Sim:3h52m16s) 
CPU  2 inst:   84000005 cyc:  197565983 now IPC :1.47284: AVG IPC :0.41713: L2-Pf-HR :0.97596: L2-HR :0.86268: (Sim:3h53m32s) 
CPU  0 inst:   92000001 cyc:  197725530 now IPC :1.61638: AVG IPC :0.45745: L2-Pf-HR :0.97871: L2-HR :0.88216: (Sim:3h53m55s) 
CPU  3 inst:   84000005 cyc:  197740180 now IPC :1.48915: AVG IPC :0.41675: L2-Pf-HR :0.97602: L2-HR :0.86351: (Sim:3h53m57s) 
CPU  1 inst:   84000005 cyc:  197792326 now IPC :1.47865: AVG IPC :0.41664: L2-Pf-HR :0.97568: L2-HR :0.86315: (Sim:3h54m6s) 
CPU  2 inst:   85000000 cyc:  198277792 now IPC :1.40486: AVG IPC :0.42069: L2-Pf-HR :0.97639: L2-HR :0.86529: (Sim:3h55m17s) 
CPU  3 inst:   85000000 cyc:  198477299 now IPC :1.35663: AVG IPC :0.42026: L2-Pf-HR :0.97643: L2-HR :0.86611: (Sim:3h55m50s) 
CPU  1 inst:   85000000 cyc:  198503240 now IPC :1.40663: AVG IPC :0.42021: L2-Pf-HR :0.97611: L2-HR :0.86574: (Sim:3h55m54s) 
CPU  0 inst:   93000002 cyc:  198504140 now IPC :1.28434: AVG IPC :0.46071: L2-Pf-HR :0.97896: L2-HR :0.88382: (Sim:3h55m55s) 
CPU  2 inst:   86000004 cyc:  198985359 now IPC :1.41330: AVG IPC :0.42424: L2-Pf-HR :0.97675: L2-HR :0.86771: (Sim:3h57m10s) 
CPU  3 inst:   86000004 cyc:  199176769 now IPC :1.42966: AVG IPC :0.42382: L2-Pf-HR :0.97680: L2-HR :0.86849: (Sim:3h57m39s) 
CPU  0 inst:   94000005 cyc:  199213686 now IPC :1.40936: AVG IPC :0.46410: L2-Pf-HR :0.97926: L2-HR :0.88557: (Sim:3h57m46s) 
CPU  1 inst:   86000004 cyc:  199218022 now IPC :1.39903: AVG IPC :0.42374: L2-Pf-HR :0.97650: L2-HR :0.86811: (Sim:3h57m47s) 
CPU  2 inst:   87000005 cyc:  199604073 now IPC :1.61626: AVG IPC :0.42795: L2-Pf-HR :0.97720: L2-HR :0.87020: (Sim:3h58m54s) 
CPU  3 inst:   87000005 cyc:  199745820 now IPC :1.75731: AVG IPC :0.42764: L2-Pf-HR :0.97724: L2-HR :0.87095: (Sim:3h59m18s) 
CPU  1 inst:   87000005 cyc:  199813945 now IPC :1.67807: AVG IPC :0.42750: L2-Pf-HR :0.97695: L2-HR :0.87056: (Sim:3h59m30s) 
CPU  0 inst:   95000000 cyc:  199879075 now IPC :1.50287: AVG IPC :0.46758: L2-Pf-HR :0.97954: L2-HR :0.88710: (Sim:3h59m42s) 
CPU  2 inst:   88000004 cyc:  200218812 now IPC :1.62671: AVG IPC :0.43165: L2-Pf-HR :0.97761: L2-HR :0.87243: (Sim:4h0m44s) 
CPU  3 inst:   88000004 cyc:  200377601 now IPC :1.58283: AVG IPC :0.43130: L2-Pf-HR :0.97763: L2-HR :0.87314: (Sim:4h1m8s) 
CPU  1 inst:   88000004 cyc:  200412248 now IPC :1.67139: AVG IPC :0.43123: L2-Pf-HR :0.97731: L2-HR :0.87274: (Sim:4h1m14s) 
CPU  0 inst:   96000001 cyc:  200474328 now IPC :1.67996: AVG IPC :0.47120: L2-Pf-HR :0.97986: L2-HR :0.88882: (Sim:4h1m24s) 
CPU  2 inst:   89000001 cyc:  200904972 now IPC :1.45738: AVG IPC :0.43517: L2-Pf-HR :0.97793: L2-HR :0.87455: (Sim:4h2m35s) 
CPU  3 inst:   89000001 cyc:  201047098 now IPC :1.49365: AVG IPC :0.43485: L2-Pf-HR :0.97796: L2-HR :0.87525: (Sim:4h3m0s) 
CPU  1 inst:   89000001 cyc:  201071489 now IPC :1.51689: AVG IPC :0.43480: L2-Pf-HR :0.97765: L2-HR :0.87485: (Sim:4h3m5s) 
CPU  0 inst:   97000000 cyc:  201124229 now IPC :1.53869: AVG IPC :0.47466: L2-Pf-HR :0.98008: L2-HR :0.89027: (Sim:4h3m14s) 
CPU  2 inst:   90000001 cyc:  201548329 now IPC :1.55435: AVG IPC :0.43876: L2-Pf-HR :0.97827: L2-HR :0.87669: (Sim:4h4m27s) 
CPU  3 inst:   90000001 cyc:  201700072 now IPC :1.53145: AVG IPC :0.43842: L2-Pf-HR :0.97831: L2-HR :0.87737: (Sim:4h4m52s) 
CPU  1 inst:   90000001 cyc:  201729861 now IPC :1.51890: AVG IPC :0.43836: L2-Pf-HR :0.97801: L2-HR :0.87697: (Sim:4h4m55s) 
CPU  0 inst:   98000000 cyc:  201785638 now IPC :1.51192: AVG IPC :0.47808: L2-Pf-HR :0.98032: L2-HR :0.89175: (Sim:4h5m4s) 
CPU  2 inst:   91000003 cyc:  202164969 now IPC :1.62170: AVG IPC :0.44238: L2-Pf-HR :0.97856: L2-HR :0.87855: (Sim:4h6m13s) 
CPU  3 inst:   91000003 cyc:  202294437 now IPC :1.68247: AVG IPC :0.44210: L2-Pf-HR :0.97861: L2-HR :0.87919: (Sim:4h6m38s) 
CPU  1 inst:   91000003 cyc:  202320839 now IPC :1.69211: AVG IPC :0.44204: L2-Pf-HR :0.97831: L2-HR :0.87882: (Sim:4h6m43s) 
CPU  0 inst:   99000003 cyc:  202386934 now IPC :1.66308: AVG IPC :0.48162: L2-Pf-HR :0.98054: L2-HR :0.89305: (Sim:4h6m56s) 
CPU  2 inst:   92000001 cyc:  202722404 now IPC :1.79393: AVG IPC :0.44612: L2-Pf-HR :0.97893: L2-HR :0.88057: (Sim:4h8m0s) 
CPU  3 inst:   92000001 cyc:  202851404 now IPC :1.79543: AVG IPC :0.44583: L2-Pf-HR :0.97897: L2-HR :0.88117: (Sim:4h8m23s) 
CPU  1 inst:   92000001 cyc:  202867068 now IPC :1.83073: AVG IPC :0.44580: L2-Pf-HR :0.97867: L2-HR :0.88080: (Sim:4h8m26s) 
CPU  0 inst:  100000002 cyc:  202951984 now IPC :1.76975: AVG IPC :0.48522: L2-Pf-HR :0.98081: L2-HR :0.89454: (Sim:4h8m38s) 
CPU  2 inst:   93000002 cyc:  203475799 now IPC :1.32733: AVG IPC :0.44940: L2-Pf-HR :0.97919: L2-HR :0.88225: (Sim:4h9m56s) 
CPU  3 inst:   93000002 cyc:  203635071 now IPC :1.27605: AVG IPC :0.44904: L2-Pf-HR :0.97922: L2-HR :0.88283: (Sim:4h10m22s) 
CPU  1 inst:   93000002 cyc:  203640559 now IPC :1.29284: AVG IPC :0.44903: L2-Pf-HR :0.97893: L2-HR :0.88248: (Sim:4h10m23s) 
CPU  0 inst:  101000004 cyc:  203664046 now IPC :1.40437: AVG IPC :0.48845: L2-Pf-HR :0.98101: L2-HR :0.89583: (Sim:4h10m27s) 
CPU  2 inst:   94000005 cyc:  204140573 now IPC :1.50428: AVG IPC :0.45285: L2-Pf-HR :0.97946: L2-HR :0.88403: (Sim:4h11m41s) 
CPU  3 inst:   94000005 cyc:  204335852 now IPC :1.42698: AVG IPC :0.45241: L2-Pf-HR :0.97949: L2-HR :0.88459: (Sim:4h12m11s) 
CPU  1 inst:   94000005 cyc:  204353640 now IPC :1.40237: AVG IPC :0.45237: L2-Pf-HR :0.97922: L2-HR :0.88426: (Sim:4h12m15s) 
CPU  0 inst:  102000005 cyc:  204381937 now IPC :1.39297: AVG IPC :0.49164: L2-Pf-HR :0.98122: L2-HR :0.89712: (Sim:4h12m18s) 
CPU  2 inst:   95000000 cyc:  204789643 now IPC :1.54066: AVG IPC :0.45631: L2-Pf-HR :0.97971: L2-HR :0.88559: (Sim:4h13m27s) 
CPU  3 inst:   95000000 cyc:  204949479 now IPC :1.62965: AVG IPC :0.45595: L2-Pf-HR :0.97972: L2-HR :0.88614: (Sim:4h13m56s) 
CPU  1 inst:   95000000 cyc:  204992302 now IPC :1.56577: AVG IPC :0.45586: L2-Pf-HR :0.97948: L2-HR :0.88585: (Sim:4h14m4s) 
CPU  0 inst:  103000005 cyc:  205032965 now IPC :1.53603: AVG IPC :0.49497: L2-Pf-HR :0.98142: L2-HR :0.89822: (Sim:4h14m11s) 
CPU  2 inst:   96000001 cyc:  205353247 now IPC :1.77430: AVG IPC :0.45995: L2-Pf-HR :0.98003: L2-HR :0.88733: (Sim:4h15m16s) 
CPU  3 inst:   96000001 cyc:  205488037 now IPC :1.85681: AVG IPC :0.45964: L2-Pf-HR :0.98003: L2-HR :0.88786: (Sim:4h15m43s) 
CPU  1 inst:   96000001 cyc:  205549507 now IPC :1.79467: AVG IPC :0.45950: L2-Pf-HR :0.97979: L2-HR :0.88756: (Sim:4h15m53s) 
CPU  0 inst:  104000000 cyc:  205600050 now IPC :1.76340: AVG IPC :0.49849: L2-Pf-HR :0.98166: L2-HR :0.89949: (Sim:4h16m2s) 
CPU  2 inst:   97000000 cyc:  206004591 now IPC :1.53529: AVG IPC :0.46336: L2-Pf-HR :0.98026: L2-HR :0.88881: (Sim:4h17m9s) 
CPU  3 inst:   97000000 cyc:  206154893 now IPC :1.49957: AVG IPC :0.46302: L2-Pf-HR :0.98026: L2-HR :0.88934: (Sim:4h17m33s) 
CPU  1 inst:   97000000 cyc:  206208409 now IPC :1.51767: AVG IPC :0.46290: L2-Pf-HR :0.98001: L2-HR :0.88904: (Sim:4h17m42s) 
CPU  0 inst:  105000002 cyc:  206237846 now IPC :1.56790: AVG IPC :0.50181: L2-Pf-HR :0.98183: L2-HR :0.90063: (Sim:4h17m47s) 
CPU  2 inst:   98000000 cyc:  206653453 now IPC :1.54116: AVG IPC :0.46677: L2-Pf-HR :0.98051: L2-HR :0.89032: (Sim:4h18m57s) 
CPU  3 inst:   98000000 cyc:  206799001 now IPC :1.55253: AVG IPC :0.46643: L2-Pf-HR :0.98050: L2-HR :0.89084: (Sim:4h19m21s) 
CPU  1 inst:   98000000 cyc:  206862878 now IPC :1.52796: AVG IPC :0.46629: L2-Pf-HR :0.98025: L2-HR :0.89055: (Sim:4h19m32s) 
CPU  0 inst:  106000005 cyc:  206903233 now IPC :1.50289: AVG IPC :0.50505: L2-Pf-HR :0.98201: L2-HR :0.90174: (Sim:4h19m38s) 
CPU  2 inst:   99000003 cyc:  207321241 now IPC :1.49749: AVG IPC :0.47010: L2-Pf-HR :0.98070: L2-HR :0.89161: (Sim:4h20m46s) 
CPU  3 inst:   99000003 cyc:  207454163 now IPC :1.52634: AVG IPC :0.46979: L2-Pf-HR :0.98070: L2-HR :0.89213: (Sim:4h21m10s) 
CPU  1 inst:   99000003 cyc:  207481629 now IPC :1.61616: AVG IPC :0.46973: L2-Pf-HR :0.98045: L2-HR :0.89183: (Sim:4h21m15s) 
CPU  0 inst:  107000001 cyc:  207593187 now IPC :1.44937: AVG IPC :0.50820: L2-Pf-HR :0.98218: L2-HR :0.90269: (Sim:4h21m36s) 
CPU  2 inst:  100000002 cyc:  207872227 now IPC :1.81493: AVG IPC :0.47368: L2-Pf-HR :0.98095: L2-HR :0.89309: (Sim:4h22m29s) 
CPU  3 inst:  100000002 cyc:  208008507 now IPC :1.80393: AVG IPC :0.47337: L2-Pf-HR :0.98098: L2-HR :0.89364: (Sim:4h22m54s) 
CPU  1 inst:  100000002 cyc:  208037803 now IPC :1.79800: AVG IPC :0.47330: L2-Pf-HR :0.98072: L2-HR :0.89326: (Sim:4h23m0s) 
CPU  0 inst:  108000005 cyc:  208153100 now IPC :1.78600: AVG IPC :0.51165: L2-Pf-HR :0.98240: L2-HR :0.90382: (Sim:4h23m21s) 
CPU  2 inst:  101000004 cyc:  208520412 now IPC :1.54277: AVG IPC :0.47702: L2-Pf-HR :0.98117: L2-HR :0.89439: (Sim:4h24m18s) 
CPU  3 inst:  101000004 cyc:  208676570 now IPC :1.49687: AVG IPC :0.47666: L2-Pf-HR :0.98120: L2-HR :0.89496: (Sim:4h24m45s) 
CPU  1 inst:  101000004 cyc:  208707106 now IPC :1.49409: AVG IPC :0.47659: L2-Pf-HR :0.98094: L2-HR :0.89457: (Sim:4h24m50s) 
CPU  0 inst:  109000003 cyc:  208808751 now IPC :1.52520: AVG IPC :0.51485: L2-Pf-HR :0.98257: L2-HR :0.90487: (Sim:4h25m6s) 
CPU  2 inst:  102000005 cyc:  209196460 now IPC :1.47919: AVG IPC :0.48028: L2-Pf-HR :0.98138: L2-HR :0.89570: (Sim:4h26m10s) 
CPU  3 inst:  102000005 cyc:  209369294 now IPC :1.44358: AVG IPC :0.47987: L2-Pf-HR :0.98141: L2-HR :0.89625: (Sim:4h26m37s) 
CPU  1 inst:  102000005 cyc:  209378017 now IPC :1.49051: AVG IPC :0.47985: L2-Pf-HR :0.98115: L2-HR :0.89587: (Sim:4h26m38s) 
CPU  0 inst:  110000001 cyc:  209508105 now IPC :1.42989: AVG IPC :0.51792: L2-Pf-HR :0.98272: L2-HR :0.90582: (Sim:4h26m59s) 
CPU  2 inst:  103000005 cyc:  209869474 now IPC :1.48585: AVG IPC :0.48352: L2-Pf-HR :0.98153: L2-HR :0.89685: (Sim:4h27m55s) 
CPU  3 inst:  103000005 cyc:  210063907 now IPC :1.43965: AVG IPC :0.48306: L2-Pf-HR :0.98159: L2-HR :0.89739: (Sim:4h28m29s) 
CPU  1 inst:  103000005 cyc:  210076327 now IPC :1.43203: AVG IPC :0.48303: L2-Pf-HR :0.98134: L2-HR :0.89701: (Sim:4h28m32s) 
CPU  0 inst:  111000000 cyc:  210193021 now IPC :1.46003: AVG IPC :0.52100: L2-Pf-HR :0.98286: L2-HR :0.90668: (Sim:4h28m52s) 
CPU  2 inst:  104000000 cyc:  210439106 now IPC :1.75551: AVG IPC :0.48697: L2-Pf-HR :0.98177: L2-HR :0.89815: (Sim:4h29m37s) 
CPU  3 inst:  104000000 cyc:  210646044 now IPC :1.71780: AVG IPC :0.48649: L2-Pf-HR :0.98183: L2-HR :0.89866: (Sim:4h30m13s) 
CPU  1 inst:  104000000 cyc:  210663107 now IPC :1.70421: AVG IPC :0.48645: L2-Pf-HR :0.98159: L2-HR :0.89829: (Sim:4h30m16s) 
CPU  0 inst:  112000005 cyc:  210776595 now IPC :1.71359: AVG IPC :0.52432: L2-Pf-HR :0.98305: L2-HR :0.90766: (Sim:4h30m36s) 
CPU  2 inst:  105000002 cyc:  211077093 now IPC :1.56743: AVG IPC :0.49026: L2-Pf-HR :0.98197: L2-HR :0.89931: (Sim:4h31m25s) 
CPU  3 inst:  105000002 cyc:  211352316 now IPC :1.41589: AVG IPC :0.48961: L2-Pf-HR :0.98202: L2-HR :0.89981: (Sim:4h32m7s) 
CPU  1 inst:  105000002 cyc:  211359228 now IPC :1.43653: AVG IPC :0.48960: L2-Pf-HR :0.98178: L2-HR :0.89945: (Sim:4h32m9s) 
CPU  0 inst:  113000002 cyc:  211425859 now IPC :1.54020: AVG IPC :0.52746: L2-Pf-HR :0.98322: L2-HR :0.90860: (Sim:4h32m16s) 
CPU  2 inst:  106000005 cyc:  211826309 now IPC :1.33473: AVG IPC :0.49326: L2-Pf-HR :0.98216: L2-HR :0.90043: (Sim:4h33m18s) 
CPU  3 inst:  106000005 cyc:  212049299 now IPC :1.43476: AVG IPC :0.49273: L2-Pf-HR :0.98219: L2-HR :0.90092: (Sim:4h33m53s) 
CPU  1 inst:  106000005 cyc:  212088809 now IPC :1.37065: AVG IPC :0.49264: L2-Pf-HR :0.98196: L2-HR :0.90057: (Sim:4h34m0s) 
CPU  0 inst:  114000001 cyc:  212154216 now IPC :1.37295: AVG IPC :0.53037: L2-Pf-HR :0.98333: L2-HR :0.90936: (Sim:4h34m9s) 
CPU  2 inst:  107000001 cyc:  212561844 now IPC :1.35955: AVG IPC :0.49627: L2-Pf-HR :0.98230: L2-HR :0.90144: (Sim:4h35m3s) 
CPU  3 inst:  107000001 cyc:  212726738 now IPC :1.47614: AVG IPC :0.49588: L2-Pf-HR :0.98233: L2-HR :0.90189: (Sim:4h35m17s) 
CPU  1 inst:  107000001 cyc:  212806811 now IPC :1.39275: AVG IPC :0.49569: L2-Pf-HR :0.98210: L2-HR :0.90156: (Sim:4h35m25s) 
CPU  0 inst:  115000001 cyc:  212837423 now IPC :1.46369: AVG IPC :0.53338: L2-Pf-HR :0.98350: L2-HR :0.91024: (Sim:4h35m28s) 
CPU  2 inst:  108000005 cyc:  213128301 now IPC :1.76537: AVG IPC :0.49966: L2-Pf-HR :0.98252: L2-HR :0.90262: (Sim:4h35m56s) 
CPU  3 inst:  108000005 cyc:  213288784 now IPC :1.77922: AVG IPC :0.49927: L2-Pf-HR :0.98254: L2-HR :0.90306: (Sim:4h36m12s) 
CPU  1 inst:  108000005 cyc:  213361137 now IPC :1.80400: AVG IPC :0.49911: L2-Pf-HR :0.98232: L2-HR :0.90272: (Sim:4h36m19s) 
CPU  0 inst:  116000003 cyc:  213427925 now IPC :1.69348: AVG IPC :0.53661: L2-Pf-HR :0.98366: L2-HR :0.91109: (Sim:4h36m26s) 
CPU  2 inst:  109000003 cyc:  213717306 now IPC :1.69778: AVG IPC :0.50297: L2-Pf-HR :0.98270: L2-HR :0.90368: (Sim:4h36m53s) 
CPU  3 inst:  109000003 cyc:  213929678 now IPC :1.56032: AVG IPC :0.50247: L2-Pf-HR :0.98272: L2-HR :0.90412: (Sim:4h37m10s) 
CPU  1 inst:  109000003 cyc:  213993802 now IPC :1.58061: AVG IPC :0.50232: L2-Pf-HR :0.98250: L2-HR :0.90376: (Sim:4h37m15s) 
CPU  0 inst:  117000005 cyc:  214020353 now IPC :1.68797: AVG IPC :0.53981: L2-Pf-HR :0.98383: L2-HR :0.91200: (Sim:4h37m17s) 
CPU  2 inst:  110000004 cyc:  214477387 now IPC :1.31565: AVG IPC :0.50587: L2-Pf-HR :0.98285: L2-HR :0.90464: (Sim:4h37m53s) 
CPU  3 inst:  110000001 cyc:  214663025 now IPC :1.36361: AVG IPC :0.50542: L2-Pf-HR :0.98287: L2-HR :0.90507: (Sim:4h38m6s) 
CPU  1 inst:  110000004 cyc:  214778501 now IPC :1.27438: AVG IPC :0.50515: L2-Pf-HR :0.98265: L2-HR :0.90472: (Sim:4h38m16s) 
CPU  0 inst:  118000001 cyc:  214836678 now IPC :1.22500: AVG IPC :0.54242: L2-Pf-HR :0.98390: L2-HR :0.91264: (Sim:4h38m19s) 
CPU  2 inst:  111000000 cyc:  215236219 now IPC :1.31781: AVG IPC :0.50874: L2-Pf-HR :0.98296: L2-HR :0.90552: (Sim:4h38m51s) 
CPU  3 inst:  111000000 cyc:  215430706 now IPC :1.30262: AVG IPC :0.50828: L2-Pf-HR :0.98300: L2-HR :0.90594: (Sim:4h39m7s) 
CPU  1 inst:  111000000 cyc:  215541840 now IPC :1.31003: AVG IPC :0.50802: L2-Pf-HR :0.98279: L2-HR :0.90560: (Sim:4h39m16s) 
CPU  0 inst:  119000005 cyc:  215547687 now IPC :1.40646: AVG IPC :0.54529: L2-Pf-HR :0.98404: L2-HR :0.91342: (Sim:4h39m16s) 
CPU  2 inst:  112000005 cyc:  215831617 now IPC :1.67956: AVG IPC :0.51199: L2-Pf-HR :0.98314: L2-HR :0.90652: (Sim:4h39m42s) 
CPU  3 inst:  112000005 cyc:  216052610 now IPC :1.60797: AVG IPC :0.51146: L2-Pf-HR :0.98318: L2-HR :0.90693: (Sim:4h40m2s) 
CPU  1 inst:  112000005 cyc:  216138621 now IPC :1.67566: AVG IPC :0.51125: L2-Pf-HR :0.98298: L2-HR :0.90658: (Sim:4h40m9s) 
CPU  0 inst:  120000005 cyc:  216195435 now IPC :1.54381: AVG IPC :0.54829: L2-Pf-HR :0.98417: L2-HR :0.91416: (Sim:4h40m15s) 
CPU  2 inst:  113000002 cyc:  216444370 now IPC :1.63197: AVG IPC :0.51517: L2-Pf-HR :0.98333: L2-HR :0.90751: (Sim:4h40m38s) 
CPU  3 inst:  113000002 cyc:  216645206 now IPC :1.68749: AVG IPC :0.51469: L2-Pf-HR :0.98336: L2-HR :0.90793: (Sim:4h40m57s) 
CPU  1 inst:  113000001 cyc:  216712721 now IPC :1.74185: AVG IPC :0.51453: L2-Pf-HR :0.98315: L2-HR :0.90756: (Sim:4h41m2s) 
CPU  0 inst:  121000004 cyc:  216781477 now IPC :1.70636: AVG IPC :0.55144: L2-Pf-HR :0.98433: L2-HR :0.91498: (Sim:4h41m7s) 
CPU  2 inst:  114000001 cyc:  217155994 now IPC :1.40524: AVG IPC :0.51810: L2-Pf-HR :0.98345: L2-HR :0.90828: (Sim:4h41m38s) 
CPU  3 inst:  114000001 cyc:  217369313 now IPC :1.38101: AVG IPC :0.51759: L2-Pf-HR :0.98347: L2-HR :0.90870: (Sim:4h41m55s) 
CPU  1 inst:  114000003 cyc:  217456646 now IPC :1.34422: AVG IPC :0.51738: L2-Pf-HR :0.98326: L2-HR :0.90833: (Sim:4h42m3s) 
CPU  0 inst:  122000004 cyc:  217529756 now IPC :1.33640: AVG IPC :0.55415: L2-Pf-HR :0.98441: L2-HR :0.91559: (Sim:4h42m8s) 
Finished CPU 0 instr: 120000004 cyc: 216547436 AVG IPC: 0.55415 (Sim time: 4h42m8s)
CPU  2 inst:  115000001 cyc:  217836175 now IPC :1.47020: AVG IPC :0.52109: L2-Pf-HR :0.98359: L2-HR :0.90918: (Sim:4h42m34s) 
CPU  3 inst:  115000001 cyc:  218090274 now IPC :1.38704: AVG IPC :0.52047: L2-Pf-HR :0.98361: L2-HR :0.90958: (Sim:4h42m54s) 
CPU  1 inst:  115000001 cyc:  218118287 now IPC :1.51139: AVG IPC :0.52041: L2-Pf-HR :0.98340: L2-HR :0.90922: (Sim:4h42m57s) 
CPU  0 inst:  123000002 cyc:  218256198 now IPC :1.37657: AVG IPC :0.55690: L2-Pf-HR :0.98453: L2-HR :0.91628: (Sim:4h43m7s) 
CPU  2 inst:  116000003 cyc:  218498953 now IPC :1.50880: AVG IPC :0.52410: L2-Pf-HR :0.98372: L2-HR :0.90998: (Sim:4h43m29s) 
CPU  3 inst:  116000003 cyc:  218747073 now IPC :1.52254: AVG IPC :0.52350: L2-Pf-HR :0.98375: L2-HR :0.91039: (Sim:4h43m51s) 
CPU  1 inst:  116000003 cyc:  218771774 now IPC :1.53026: AVG IPC :0.52344: L2-Pf-HR :0.98354: L2-HR :0.91002: (Sim:4h43m54s) 
CPU  0 inst:  124000001 cyc:  218911821 now IPC :1.52527: AVG IPC :0.55981: L2-Pf-HR :0.98465: L2-HR :0.91691: (Sim:4h44m8s) 
CPU  2 inst:  117000001 cyc:  219064736 now IPC :1.76746: AVG IPC :0.52732: L2-Pf-HR :0.98388: L2-HR :0.91087: (Sim:4h44m23s) 
CPU  3 inst:  117000005 cyc:  219293516 now IPC :1.83002: AVG IPC :0.52677: L2-Pf-HR :0.98391: L2-HR :0.91127: (Sim:4h44m56s) 
CPU  1 inst:  117000005 cyc:  219338478 now IPC :1.76459: AVG IPC :0.52666: L2-Pf-HR :0.98370: L2-HR :0.91091: (Sim:4h45m4s) 
CPU  0 inst:  125000003 cyc:  219487428 now IPC :1.73730: AVG IPC :0.56291: L2-Pf-HR :0.98478: L2-HR :0.91762: (Sim:4h45m27s) 
CPU  2 inst:  118000001 cyc:  219754542 now IPC :1.44968: AVG IPC :0.53023: L2-Pf-HR :0.98398: L2-HR :0.91153: (Sim:4h46m10s) 
*** Reached end of trace for Core: 0 Repeating trace: 770-tot_memTraces_v3/memTraces[125000000][OPT-125M]_[h12][s512][d64].champsim.xz
CPU  3 inst:  118000001 cyc:  220056416 now IPC :1.31078: AVG IPC :0.52950: L2-Pf-HR :0.98400: L2-HR :0.91191: (Sim:4h46m31s) 
CPU  1 inst:  118000000 cyc:  220072124 now IPC :1.36305: AVG IPC :0.52946: L2-Pf-HR :0.98379: L2-HR :0.91155: (Sim:4h46m32s) 
CPU  2 inst:  119000005 cyc:  220489439 now IPC :1.36074: AVG IPC :0.53301: L2-Pf-HR :0.98410: L2-HR :0.91231: (Sim:4h47m12s) 
CPU  0 inst:  126000003 cyc:  220690527 now IPC :0.83119: AVG IPC :0.56438: L2-Pf-HR :0.98483: L2-HR :0.91753: (Sim:4h47m38s) 
CPU  3 inst:  119000005 cyc:  220779896 now IPC :1.38221: AVG IPC :0.53230: L2-Pf-HR :0.98412: L2-HR :0.91269: (Sim:4h47m45s) 
CPU  1 inst:  119000005 cyc:  220783736 now IPC :1.40527: AVG IPC :0.53230: L2-Pf-HR :0.98392: L2-HR :0.91233: (Sim:4h47m45s) 
CPU  2 inst:  120000005 cyc:  221112379 now IPC :1.60529: AVG IPC :0.53605: L2-Pf-HR :0.98420: L2-HR :0.91305: (Sim:4h48m13s) 
CPU  0 inst:  127000003 cyc:  221270071 now IPC :1.72549: AVG IPC :0.56744: L2-Pf-HR :0.98493: L2-HR :0.91768: (Sim:4h48m28s) 
CPU  3 inst:  120000005 cyc:  221429894 now IPC :1.53847: AVG IPC :0.53527: L2-Pf-HR :0.98425: L2-HR :0.91343: (Sim:4h48m43s) 
CPU  1 inst:  120000005 cyc:  221443789 now IPC :1.51503: AVG IPC :0.53524: L2-Pf-HR :0.98405: L2-HR :0.91309: (Sim:4h48m44s) 
CPU  2 inst:  121000004 cyc:  221692145 now IPC :1.72483: AVG IPC :0.53917: L2-Pf-HR :0.98436: L2-HR :0.91385: (Sim:4h49m8s) 
CPU  0 inst:  128000001 cyc:  221796210 now IPC :1.90063: AVG IPC :0.57062: L2-Pf-HR :0.98504: L2-HR :0.91783: (Sim:4h49m17s) 
CPU  3 inst:  121000004 cyc:  222000526 now IPC :1.75244: AVG IPC :0.53841: L2-Pf-HR :0.98440: L2-HR :0.91421: (Sim:4h49m35s) 
CPU  1 inst:  121000004 cyc:  222028502 now IPC :1.71024: AVG IPC :0.53835: L2-Pf-HR :0.98420: L2-HR :0.91388: (Sim:4h49m38s) 
CPU  2 inst:  122000004 cyc:  222385852 now IPC :1.44153: AVG IPC :0.54200: L2-Pf-HR :0.98446: L2-HR :0.91445: (Sim:4h50m7s) 
Finished CPU 2 instr: 120000001 cyc: 221403256 AVG IPC: 0.54200 (Sim time: 4h50m7s)
CPU  0 inst:  129000000 cyc:  222410677 now IPC :1.62743: AVG IPC :0.57355: L2-Pf-HR :0.98514: L2-HR :0.91794: (Sim:4h50m9s) 
CPU  3 inst:  122000004 cyc:  222702240 now IPC :1.42508: AVG IPC :0.54122: L2-Pf-HR :0.98448: L2-HR :0.91481: (Sim:4h50m35s) 
Finished CPU 3 instr: 120000001 cyc: 221720674 AVG IPC: 0.54122 (Sim time: 4h50m35s)
CPU  1 inst:  122000004 cyc:  222730579 now IPC :1.42435: AVG IPC :0.54115: L2-Pf-HR :0.98429: L2-HR :0.91449: (Sim:4h50m37s) 
Finished CPU 1 instr: 120000003 cyc: 221748284 AVG IPC: 0.54115 (Sim time: 4h50m37s)

ChampSim completed all CPUs

Total Simulation Statistics (not including warmup)

CPU 0 cumulative IPC: 0.57555 instructions: 127627896 cycles: 221748284
Core_0_L1D_total_access 34896168
Core_0_L1D_total_hit 30025865
Core_0_L1D_total_miss 4870303
Core_0_L1D_loads 31630860
Core_0_L1D_load_hit 26960717
Core_0_L1D_load_miss 4670143
Core_0_L1D_RFOs 3265308
Core_0_L1D_RFO_hit 3065148
Core_0_L1D_RFO_miss 200160
Core_0_L1D_prefetches 0
Core_0_L1D_prefetch_hit 0
Core_0_L1D_prefetch_miss 0
Core_0_L1D_writebacks 0
Core_0_L1D_writeback_hit 0
Core_0_L1D_writeback_miss 0

Core_0_L1I_total_access 17751280
Core_0_L1I_total_hit 17740718
Core_0_L1I_total_miss 10562
Core_0_L1I_loads 17751280
Core_0_L1I_load_hit 17740718
Core_0_L1I_load_miss 10562
Core_0_L1I_RFOs 0
Core_0_L1I_RFO_hit 0
Core_0_L1I_RFO_miss 0
Core_0_L1I_prefetches 0
Core_0_L1I_prefetch_hit 0
Core_0_L1I_prefetch_miss 0
Core_0_L1I_writebacks 0
Core_0_L1I_writeback_hit 0
Core_0_L1I_writeback_miss 0

Core_0_L2C_total_access 13950800
Core_0_L2C_total_hit 12804594
Core_0_L2C_total_miss 1146206
Core_0_L2C_loads 4680705
Core_0_L2C_load_hit 3855011
Core_0_L2C_load_miss 825694
Core_0_L2C_RFOs 200160
Core_0_L2C_RFO_hit 3171
Core_0_L2C_RFO_miss 196989
Core_0_L2C_prefetches 8294423
Core_0_L2C_prefetch_hit 8171094
Core_0_L2C_prefetch_miss 123329
Core_0_L2C_writebacks 775512
Core_0_L2C_writeback_hit 775318
Core_0_L2C_writeback_miss 194

 All Calls: 17996845
 Critical Calls: 17996845
------------------
Depth Distribution
------------------
depth 0: 0
depth 1: 14206005
depth 2: 13238616
depth 3: 12146741
depth 4: 10524790
depth 5: 8221362
depth 6: 5477531
depth 7: 3462989
depth 8: 2351966
depth 9: 1723961
depth 10: 1238662
depth 11: 780991
depth 12: 421811
depth 13: 146817
depth 14: 3086
depth 15: 3032
depth 16: 0
depth 17: 0
depth 18: 0
depth 19: 0
depth 20: 0
depth 21: 0
depth 22: 0
depth 23: 0
depth 24: 0
depth 25: 0
depth 26: 0
depth 27: 0
depth 28: 0
depth 29: 0
Total: 73948360
-----------------------------
-----------------------------
	Captured at Filter
-----------------------------
depth 0: 0
depth 1: 2308119
depth 2: 2051268
depth 3: 1870750
depth 4: 1567601
depth 5: 1175063
depth 6: 598465
depth 7: 212893
depth 8: 69160
depth 9: 19561
depth 10: 9284
depth 11: 5506
depth 12: 2839
depth 13: 850
depth 14: 9
depth 15: 13
depth 16: 0
depth 17: 0
depth 18: 0
depth 19: 0
depth 20: 0
depth 21: 0
depth 22: 0
depth 23: 0
depth 24: 0
depth 25: 0
depth 26: 0
depth 27: 0
depth 28: 0
depth 29: 0
-----------------------------
-----------------------------
		Lost at Page
-----------------------------
depth 0: 0
depth 1: 993731
depth 2: 1574583
depth 3: 2199050
depth 4: 2694336
depth 5: 2926937
depth 6: 2679628
depth 7: 1779138
depth 8: 1000217
depth 9: 341697
depth 10: 242727
depth 11: 170647
depth 12: 106847
depth 13: 41633
depth 14: 915
depth 15: 960
depth 16: 0
depth 17: 0
depth 18: 0
depth 19: 0
depth 20: 0
depth 21: 0
depth 22: 0
depth 23: 0
depth 24: 0
depth 25: 0
depth 26: 0
depth 27: 0
depth 28: 0
depth 29: 0
-----------------------------
-----------------------------
	Lost due to PQ Size
-----------------------------
5707664
-----------------------------
ST read accesses: 17462489
ST write accesses: 358398
PT read accesses: 630362809
PT write accesses: 25876485
FILTER read accesses: 111220910
FILTER write accesses: 18254960
GHR read accesses: 111615999
GHR write accesses: 16723471
GHR counter read accesses: 526884686
GHR counter write accesses: 31962649
ST tag read accesses: 7041344414
ST tag write accesses: 236914307
Core_0_LLC_total_access 3804281
Core_0_LLC_total_hit 2668934
Core_0_LLC_total_miss 1135347
Core_0_LLC_loads 643911
Core_0_LLC_load_hit 365315
Core_0_LLC_load_miss 278596
Core_0_LLC_RFOs 196989
Core_0_LLC_RFO_hit 168
Core_0_LLC_RFO_miss 196821
Core_0_LLC_prefetches 2317390
Core_0_LLC_prefetch_hit 1677734
Core_0_LLC_prefetch_miss 639656
Core_0_LLC_writebacks 645991
Core_0_LLC_writeback_hit 625717
Core_0_LLC_writeback_miss 20274


CPU 1 cumulative IPC: 0.54115 instructions: 120000003 cycles: 221748284
Core_1_L1D_total_access 33102645
Core_1_L1D_total_hit 28540774
Core_1_L1D_total_miss 4561871
Core_1_L1D_loads 29894941
Core_1_L1D_load_hit 25532908
Core_1_L1D_load_miss 4362033
Core_1_L1D_RFOs 3207704
Core_1_L1D_RFO_hit 3007866
Core_1_L1D_RFO_miss 199838
Core_1_L1D_prefetches 0
Core_1_L1D_prefetch_hit 0
Core_1_L1D_prefetch_miss 0
Core_1_L1D_writebacks 0
Core_1_L1D_writeback_hit 0
Core_1_L1D_writeback_miss 0

Core_1_L1I_total_access 16975137
Core_1_L1I_total_hit 16970199
Core_1_L1I_total_miss 4938
Core_1_L1I_loads 16975137
Core_1_L1I_load_hit 16970199
Core_1_L1I_load_miss 4938
Core_1_L1I_RFOs 0
Core_1_L1I_RFO_hit 0
Core_1_L1I_RFO_miss 0
Core_1_L1I_prefetches 0
Core_1_L1I_prefetch_hit 0
Core_1_L1I_prefetch_miss 0
Core_1_L1I_writebacks 0
Core_1_L1I_writeback_hit 0
Core_1_L1I_writeback_miss 0

Core_1_L2C_total_access 13068630
Core_1_L2C_total_hit 11951089
Core_1_L2C_total_miss 1117541
Core_1_L2C_loads 4366970
Core_1_L2C_load_hit 3568600
Core_1_L2C_load_miss 798370
Core_1_L2C_RFOs 199838
Core_1_L2C_RFO_hit 2882
Core_1_L2C_RFO_miss 196956
Core_1_L2C_prefetches 7755431
Core_1_L2C_prefetch_hit 7633623
Core_1_L2C_prefetch_miss 121808
Core_1_L2C_writebacks 746391
Core_1_L2C_writeback_hit 745984
Core_1_L2C_writeback_miss 407

 All Calls: 17996845
 Critical Calls: 17996845
------------------
Depth Distribution
------------------
depth 0: 0
depth 1: 14206005
depth 2: 13238616
depth 3: 12146741
depth 4: 10524790
depth 5: 8221362
depth 6: 5477531
depth 7: 3462989
depth 8: 2351966
depth 9: 1723961
depth 10: 1238662
depth 11: 780991
depth 12: 421811
depth 13: 146817
depth 14: 3086
depth 15: 3032
depth 16: 0
depth 17: 0
depth 18: 0
depth 19: 0
depth 20: 0
depth 21: 0
depth 22: 0
depth 23: 0
depth 24: 0
depth 25: 0
depth 26: 0
depth 27: 0
depth 28: 0
depth 29: 0
Total: 73948360
-----------------------------
-----------------------------
	Captured at Filter
-----------------------------
depth 0: 0
depth 1: 2308119
depth 2: 2051268
depth 3: 1870750
depth 4: 1567601
depth 5: 1175063
depth 6: 598465
depth 7: 212893
depth 8: 69160
depth 9: 19561
depth 10: 9284
depth 11: 5506
depth 12: 2839
depth 13: 850
depth 14: 9
depth 15: 13
depth 16: 0
depth 17: 0
depth 18: 0
depth 19: 0
depth 20: 0
depth 21: 0
depth 22: 0
depth 23: 0
depth 24: 0
depth 25: 0
depth 26: 0
depth 27: 0
depth 28: 0
depth 29: 0
-----------------------------
-----------------------------
		Lost at Page
-----------------------------
depth 0: 0
depth 1: 993731
depth 2: 1574583
depth 3: 2199050
depth 4: 2694336
depth 5: 2926937
depth 6: 2679628
depth 7: 1779138
depth 8: 1000217
depth 9: 341697
depth 10: 242727
depth 11: 170647
depth 12: 106847
depth 13: 41633
depth 14: 915
depth 15: 960
depth 16: 0
depth 17: 0
depth 18: 0
depth 19: 0
depth 20: 0
depth 21: 0
depth 22: 0
depth 23: 0
depth 24: 0
depth 25: 0
depth 26: 0
depth 27: 0
depth 28: 0
depth 29: 0
-----------------------------
-----------------------------
	Lost due to PQ Size
-----------------------------
5707664
-----------------------------
ST read accesses: 17462489
ST write accesses: 358398
PT read accesses: 630362809
PT write accesses: 25876485
FILTER read accesses: 111220910
FILTER write accesses: 18254960
GHR read accesses: 111615999
GHR write accesses: 16723471
GHR counter read accesses: 526884686
GHR counter write accesses: 31962649
ST tag read accesses: 7041344414
ST tag write accesses: 236914307
Core_1_LLC_total_access 3740019
Core_1_LLC_total_hit 2649219
Core_1_LLC_total_miss 1090800
Core_1_LLC_loads 616533
Core_1_LLC_load_hit 351263
Core_1_LLC_load_miss 265270
Core_1_LLC_RFOs 196956
Core_1_LLC_RFO_hit 190
Core_1_LLC_RFO_miss 196766
Core_1_LLC_prefetches 2280295
Core_1_LLC_prefetch_hit 1674703
Core_1_LLC_prefetch_miss 605592
Core_1_LLC_writebacks 646235
Core_1_LLC_writeback_hit 623063
Core_1_LLC_writeback_miss 23172


CPU 2 cumulative IPC: 0.54360 instructions: 120541796 cycles: 221748284
Core_2_L1D_total_access 33257337
Core_2_L1D_total_hit 28659529
Core_2_L1D_total_miss 4597808
Core_2_L1D_loads 30048152
Core_2_L1D_load_hit 25650197
Core_2_L1D_load_miss 4397955
Core_2_L1D_RFOs 3209185
Core_2_L1D_RFO_hit 3009332
Core_2_L1D_RFO_miss 199853
Core_2_L1D_prefetches 0
Core_2_L1D_prefetch_hit 0
Core_2_L1D_prefetch_miss 0
Core_2_L1D_writebacks 0
Core_2_L1D_writeback_hit 0
Core_2_L1D_writeback_miss 0

Core_2_L1I_total_access 17029576
Core_2_L1I_total_hit 17024635
Core_2_L1I_total_miss 4941
Core_2_L1I_loads 17029576
Core_2_L1I_load_hit 17024635
Core_2_L1I_load_miss 4941
Core_2_L1I_RFOs 0
Core_2_L1I_RFO_hit 0
Core_2_L1I_RFO_miss 0
Core_2_L1I_prefetches 0
Core_2_L1I_prefetch_hit 0
Core_2_L1I_prefetch_miss 0
Core_2_L1I_writebacks 0
Core_2_L1I_writeback_hit 0
Core_2_L1I_writeback_miss 0

Core_2_L2C_total_access 13133703
Core_2_L2C_total_hit 12014986
Core_2_L2C_total_miss 1118717
Core_2_L2C_loads 4402901
Core_2_L2C_load_hit 3601796
Core_2_L2C_load_miss 801105
Core_2_L2C_RFOs 199853
Core_2_L2C_RFO_hit 2847
Core_2_L2C_RFO_miss 197006
Core_2_L2C_prefetches 7783986
Core_2_L2C_prefetch_hit 7663485
Core_2_L2C_prefetch_miss 120501
Core_2_L2C_writebacks 746963
Core_2_L2C_writeback_hit 746858
Core_2_L2C_writeback_miss 105

 All Calls: 17996845
 Critical Calls: 17996845
------------------
Depth Distribution
------------------
depth 0: 0
depth 1: 14206005
depth 2: 13238616
depth 3: 12146741
depth 4: 10524790
depth 5: 8221362
depth 6: 5477531
depth 7: 3462989
depth 8: 2351966
depth 9: 1723961
depth 10: 1238662
depth 11: 780991
depth 12: 421811
depth 13: 146817
depth 14: 3086
depth 15: 3032
depth 16: 0
depth 17: 0
depth 18: 0
depth 19: 0
depth 20: 0
depth 21: 0
depth 22: 0
depth 23: 0
depth 24: 0
depth 25: 0
depth 26: 0
depth 27: 0
depth 28: 0
depth 29: 0
Total: 73948360
-----------------------------
-----------------------------
	Captured at Filter
-----------------------------
depth 0: 0
depth 1: 2308119
depth 2: 2051268
depth 3: 1870750
depth 4: 1567601
depth 5: 1175063
depth 6: 598465
depth 7: 212893
depth 8: 69160
depth 9: 19561
depth 10: 9284
depth 11: 5506
depth 12: 2839
depth 13: 850
depth 14: 9
depth 15: 13
depth 16: 0
depth 17: 0
depth 18: 0
depth 19: 0
depth 20: 0
depth 21: 0
depth 22: 0
depth 23: 0
depth 24: 0
depth 25: 0
depth 26: 0
depth 27: 0
depth 28: 0
depth 29: 0
-----------------------------
-----------------------------
		Lost at Page
-----------------------------
depth 0: 0
depth 1: 993731
depth 2: 1574583
depth 3: 2199050
depth 4: 2694336
depth 5: 2926937
depth 6: 2679628
depth 7: 1779138
depth 8: 1000217
depth 9: 341697
depth 10: 242727
depth 11: 170647
depth 12: 106847
depth 13: 41633
depth 14: 915
depth 15: 960
depth 16: 0
depth 17: 0
depth 18: 0
depth 19: 0
depth 20: 0
depth 21: 0
depth 22: 0
depth 23: 0
depth 24: 0
depth 25: 0
depth 26: 0
depth 27: 0
depth 28: 0
depth 29: 0
-----------------------------
-----------------------------
	Lost due to PQ Size
-----------------------------
5707664
-----------------------------
ST read accesses: 17462489
ST write accesses: 358398
PT read accesses: 630362809
PT write accesses: 25876485
FILTER read accesses: 111220910
FILTER write accesses: 18254960
GHR read accesses: 111615999
GHR write accesses: 16723471
GHR counter read accesses: 526884686
GHR counter write accesses: 31962649
ST tag read accesses: 7041344414
ST tag write accesses: 236914307
Core_2_LLC_total_access 3748696
Core_2_LLC_total_hit 2653981
Core_2_LLC_total_miss 1094715
Core_2_LLC_loads 615902
Core_2_LLC_load_hit 349721
Core_2_LLC_load_miss 266181
Core_2_LLC_RFOs 197006
Core_2_LLC_RFO_hit 244
Core_2_LLC_RFO_miss 196762
Core_2_LLC_prefetches 2287481
Core_2_LLC_prefetch_hit 1679046
Core_2_LLC_prefetch_miss 608435
Core_2_LLC_writebacks 648307
Core_2_LLC_writeback_hit 624970
Core_2_LLC_writeback_miss 23337


CPU 3 cumulative IPC: 0.54137 instructions: 120048517 cycles: 221748285
Core_3_L1D_total_access 33123826
Core_3_L1D_total_hit 28558695
Core_3_L1D_total_miss 4565131
Core_3_L1D_loads 29916455
Core_3_L1D_load_hit 25551163
Core_3_L1D_load_miss 4365292
Core_3_L1D_RFOs 3207371
Core_3_L1D_RFO_hit 3007532
Core_3_L1D_RFO_miss 199839
Core_3_L1D_prefetches 0
Core_3_L1D_prefetch_hit 0
Core_3_L1D_prefetch_miss 0
Core_3_L1D_writebacks 0
Core_3_L1D_writeback_hit 0
Core_3_L1D_writeback_miss 0

Core_3_L1I_total_access 16979562
Core_3_L1I_total_hit 16974613
Core_3_L1I_total_miss 4949
Core_3_L1I_loads 16979562
Core_3_L1I_load_hit 16974613
Core_3_L1I_load_miss 4949
Core_3_L1I_RFOs 0
Core_3_L1I_RFO_hit 0
Core_3_L1I_RFO_miss 0
Core_3_L1I_prefetches 0
Core_3_L1I_prefetch_hit 0
Core_3_L1I_prefetch_miss 0
Core_3_L1I_writebacks 0
Core_3_L1I_writeback_hit 0
Core_3_L1I_writeback_miss 0

Core_3_L2C_total_access 13061072
Core_3_L2C_total_hit 11949014
Core_3_L2C_total_miss 1112058
Core_3_L2C_loads 4370243
Core_3_L2C_load_hit 3575396
Core_3_L2C_load_miss 794847
Core_3_L2C_RFOs 199839
Core_3_L2C_RFO_hit 2799
Core_3_L2C_RFO_miss 197040
Core_3_L2C_prefetches 7744554
Core_3_L2C_prefetch_hit 7624438
Core_3_L2C_prefetch_miss 120116
Core_3_L2C_writebacks 746436
Core_3_L2C_writeback_hit 746381
Core_3_L2C_writeback_miss 55

 All Calls: 17996845
 Critical Calls: 17996845
------------------
Depth Distribution
------------------
depth 0: 0
depth 1: 14206005
depth 2: 13238616
depth 3: 12146741
depth 4: 10524790
depth 5: 8221362
depth 6: 5477531
depth 7: 3462989
depth 8: 2351966
depth 9: 1723961
depth 10: 1238662
depth 11: 780991
depth 12: 421811
depth 13: 146817
depth 14: 3086
depth 15: 3032
depth 16: 0
depth 17: 0
depth 18: 0
depth 19: 0
depth 20: 0
depth 21: 0
depth 22: 0
depth 23: 0
depth 24: 0
depth 25: 0
depth 26: 0
depth 27: 0
depth 28: 0
depth 29: 0
Total: 73948360
-----------------------------
-----------------------------
	Captured at Filter
-----------------------------
depth 0: 0
depth 1: 2308119
depth 2: 2051268
depth 3: 1870750
depth 4: 1567601
depth 5: 1175063
depth 6: 598465
depth 7: 212893
depth 8: 69160
depth 9: 19561
depth 10: 9284
depth 11: 5506
depth 12: 2839
depth 13: 850
depth 14: 9
depth 15: 13
depth 16: 0
depth 17: 0
depth 18: 0
depth 19: 0
depth 20: 0
depth 21: 0
depth 22: 0
depth 23: 0
depth 24: 0
depth 25: 0
depth 26: 0
depth 27: 0
depth 28: 0
depth 29: 0
-----------------------------
-----------------------------
		Lost at Page
-----------------------------
depth 0: 0
depth 1: 993731
depth 2: 1574583
depth 3: 2199050
depth 4: 2694336
depth 5: 2926937
depth 6: 2679628
depth 7: 1779138
depth 8: 1000217
depth 9: 341697
depth 10: 242727
depth 11: 170647
depth 12: 106847
depth 13: 41633
depth 14: 915
depth 15: 960
depth 16: 0
depth 17: 0
depth 18: 0
depth 19: 0
depth 20: 0
depth 21: 0
depth 22: 0
depth 23: 0
depth 24: 0
depth 25: 0
depth 26: 0
depth 27: 0
depth 28: 0
depth 29: 0
-----------------------------
-----------------------------
	Lost due to PQ Size
-----------------------------
5707664
-----------------------------
ST read accesses: 17462489
ST write accesses: 358398
PT read accesses: 630362809
PT write accesses: 25876485
FILTER read accesses: 111220910
FILTER write accesses: 18254960
GHR read accesses: 111615999
GHR write accesses: 16723471
GHR counter read accesses: 526884686
GHR counter write accesses: 31962649
ST tag read accesses: 7041344414
ST tag write accesses: 236914307
Core_3_LLC_total_access 3723999
Core_3_LLC_total_hit 2633237
Core_3_LLC_total_miss 1090762
Core_3_LLC_loads 610625
Core_3_LLC_load_hit 345397
Core_3_LLC_load_miss 265228
Core_3_LLC_RFOs 197040
Core_3_LLC_RFO_hit 263
Core_3_LLC_RFO_miss 196777
Core_3_LLC_prefetches 2271946
Core_3_LLC_prefetch_hit 1666245
[...]
Core_0_LLC_load_miss 265441
Core_0_LLC_RFOs 196882
Core_0_LLC_RFO_hit 126 LLC_RFO_Hit Ratio: 0.00064
Core_0_LLC_RFO_miss 196756
Core_0_LLC_prefetches 2245039
Core_0_LLC_prefetch_hit 1638948 LLC_prefetch_Hit Ratio: 0.73003
Core_0_LLC_prefetch_miss 606091
Core_0_LLC_writebacks 635060
Core_0_LLC_writeback_hit 615057 LLC_writeback_Hit Ratio: 0.96850
Core_0_LLC_writeback_miss 20003
Core_0_LLC_prefetch_requested 0
Core_0_LLC_prefetch_issued 0
Core_0_LLC_prefetch_useful 1292137 LLC_Useful Ratio: inf
Core_0_LLC_prefetch_useless 1172491
Core_0_LLC_prefetch_late 314931
Core_0_LLC_average_miss_latency 4122.04090

Core_0_major_page_fault 0
Core_0_minor_page_fault 8740

Core_1_instructions 120000003
Core_1_cycles 221748284
Core_1_IPC 0.54115

Core_1_branch_prediction_accuracy 99.19469
Core_1_branch_MPKI 0.24154
Core_1_average_ROB_occupancy_at_mispredict 447.63140

Core_1_L1D_total_access 33102645
Core_1_L1D_total_hit 28540774 L1D_total_Hit Ratio: 0.86219
Core_1_L1D_total_miss 4561871
Core_1_L1D_loads 29894941
Core_1_L1D_load_hit 25532908 L1D_load_Hit Ratio: 0.85409
Core_1_L1D_load_miss 4362033
Core_1_L1D_RFOs 3207704
Core_1_L1D_RFO_hit 3007866 L1D_RFO_Hit Ratio: 0.93770
Core_1_L1D_RFO_miss 199838
Core_1_L1D_prefetches 0
Core_1_L1D_prefetch_hit 0 L1D_prefetch_Hit Ratio: -nan
Core_1_L1D_prefetch_miss 0
Core_1_L1D_writebacks 0
Core_1_L1D_writeback_hit 0 L1D_writeback_Hit Ratio: -nan
Core_1_L1D_writeback_miss 0
Core_1_L1D_prefetch_requested 0
Core_1_L1D_prefetch_issued 0
Core_1_L1D_prefetch_useful 0 L1D_Useful Ratio: -nan
Core_1_L1D_prefetch_useless 0
Core_1_L1D_prefetch_late 0
Core_1_L1D_average_miss_latency 169.08281

Core_1_L1I_total_access 16975137
Core_1_L1I_total_hit 16970199 L1I_total_Hit Ratio: 0.99971
Core_1_L1I_total_miss 4938
Core_1_L1I_loads 16975137
Core_1_L1I_load_hit 16970199 L1I_load_Hit Ratio: 0.99971
Core_1_L1I_load_miss 4938
Core_1_L1I_RFOs 0
Core_1_L1I_RFO_hit 0 L1I_RFO_Hit Ratio: -nan
Core_1_L1I_RFO_miss 0
Core_1_L1I_prefetches 0
Core_1_L1I_prefetch_hit 0 L1I_prefetch_Hit Ratio: -nan
Core_1_L1I_prefetch_miss 0
Core_1_L1I_writebacks 0
Core_1_L1I_writeback_hit 0 L1I_writeback_Hit Ratio: -nan
Core_1_L1I_writeback_miss 0
Core_1_L1I_prefetch_requested 0
Core_1_L1I_prefetch_issued 0
Core_1_L1I_prefetch_useful 0 L1I_Useful Ratio: -nan
Core_1_L1I_prefetch_useless 0
Core_1_L1I_prefetch_late 0
Core_1_L1I_average_miss_latency 1066.83880

Core_1_L2C_total_access 13068630
Core_1_L2C_total_hit 11951089 L2C_total_Hit Ratio: 0.91449
Core_1_L2C_total_miss 1117541
Core_1_L2C_loads 4366970
Core_1_L2C_load_hit 3568600 L2C_load_Hit Ratio: 0.81718
Core_1_L2C_load_miss 798370
Core_1_L2C_RFOs 199838
Core_1_L2C_RFO_hit 2882 L2C_RFO_Hit Ratio: 0.01442
Core_1_L2C_RFO_miss 196956
Core_1_L2C_prefetches 7755431
Core_1_L2C_prefetch_hit 7633623 L2C_prefetch_Hit Ratio: 0.98429
Core_1_L2C_prefetch_miss 121808
Core_1_L2C_writebacks 746391
Core_1_L2C_writeback_hit 745984 L2C_writeback_Hit Ratio: 0.99945
Core_1_L2C_writeback_miss 407
Core_1_L2C_prefetch_requested 19657997
Core_1_L2C_prefetch_issued 18236268
Core_1_L2C_prefetch_useful 122821 L2C_Useful Ratio: 0.00673
Core_1_L2C_prefetch_useless 3595
Core_1_L2C_prefetch_late 182324
Core_1_L2C_average_miss_latency 659.97398

Core_1_LLC_total_access 3740019
Core_1_LLC_total_hit 2649219 LLC_total_Hit Ratio: 0.70834
Core_1_LLC_total_miss 1090800
Core_1_LLC_loads 616533
Core_1_LLC_load_hit 351263 LLC_load_Hit Ratio: 0.56974
Core_1_LLC_load_miss 265270
Core_1_LLC_RFOs 196956
Core_1_LLC_RFO_hit 190 LLC_RFO_Hit Ratio: 0.00096
Core_1_LLC_RFO_miss 196766
Core_1_LLC_prefetches 2280295
Core_1_LLC_prefetch_hit 1674703 LLC_prefetch_Hit Ratio: 0.73442
Core_1_LLC_prefetch_miss 605592
Core_1_LLC_writebacks 646235
Core_1_LLC_writeback_hit 623063 LLC_writeback_Hit Ratio: 0.96414
Core_1_LLC_writeback_miss 23172
Core_1_LLC_prefetch_requested 0
Core_1_LLC_prefetch_issued 0
Core_1_LLC_prefetch_useful 1292137 LLC_Useful Ratio: inf
Core_1_LLC_prefetch_useless 1172491
Core_1_LLC_prefetch_late 314931
Core_1_LLC_average_miss_latency 4112.55961

Core_1_major_page_fault 0
Core_1_minor_page_fault 8629

Core_2_instructions 120000001
Core_2_cycles 221403256
Core_2_IPC 0.54200

Core_2_branch_prediction_accuracy 99.19501
Core_2_branch_MPKI 0.24060
Core_2_average_ROB_occupancy_at_mispredict 447.72571

Core_2_L1D_total_access 33110172
Core_2_L1D_total_hit 28548364 L1D_total_Hit Ratio: 0.86222
Core_2_L1D_total_miss 4561808
Core_2_L1D_loads 29902196
Core_2_L1D_load_hit 25540200 L1D_load_Hit Ratio: 0.85412
Core_2_L1D_load_miss 4361996
Core_2_L1D_RFOs 3207976
Core_2_L1D_RFO_hit 3008164 L1D_RFO_Hit Ratio: 0.93771
Core_2_L1D_RFO_miss 199812
Core_2_L1D_prefetches 0
Core_2_L1D_prefetch_hit 0 L1D_prefetch_Hit Ratio: -nan
Core_2_L1D_prefetch_miss 0
Core_2_L1D_writebacks 0
Core_2_L1D_writeback_hit 0 L1D_writeback_Hit Ratio: -nan
Core_2_L1D_writeback_miss 0
Core_2_L1D_prefetch_requested 0
Core_2_L1D_prefetch_issued 0
Core_2_L1D_prefetch_useful 0 L1D_Useful Ratio: -nan
Core_2_L1D_prefetch_useless 0
Core_2_L1D_prefetch_late 0
Core_2_L1D_average_miss_latency 168.04312

Core_2_L1I_total_access 16976731
Core_2_L1I_total_hit 16971790 L1I_total_Hit Ratio: 0.99971
Core_2_L1I_total_miss 4941
Core_2_L1I_loads 16976731
Core_2_L1I_load_hit 16971790 L1I_load_Hit Ratio: 0.99971
Core_2_L1I_load_miss 4941
Core_2_L1I_RFOs 0
Core_2_L1I_RFO_hit 0 L1I_RFO_Hit Ratio: -nan
Core_2_L1I_RFO_miss 0
Core_2_L1I_prefetches 0
Core_2_L1I_prefetch_hit 0 L1I_prefetch_Hit Ratio: -nan
Core_2_L1I_prefetch_miss 0
Core_2_L1I_writebacks 0
Core_2_L1I_writeback_hit 0 L1I_writeback_Hit Ratio: -nan
Core_2_L1I_writeback_miss 0
Core_2_L1I_prefetch_requested 0
Core_2_L1I_prefetch_issued 0
Core_2_L1I_prefetch_useful 0 L1I_Useful Ratio: -nan
Core_2_L1I_prefetch_useless 0
Core_2_L1I_prefetch_late 0
Core_2_L1I_average_miss_latency 1145.34608

Core_2_L2C_total_access 13044094
Core_2_L2C_total_hit 11928139 L2C_total_Hit Ratio: 0.91445
Core_2_L2C_total_miss 1115955
Core_2_L2C_loads 4366937
Core_2_L2C_load_hit 3568244 L2C_load_Hit Ratio: 0.81710
Core_2_L2C_load_miss 798693
Core_2_L2C_RFOs 199812
Core_2_L2C_RFO_hit 2806 L2C_RFO_Hit Ratio: 0.01404
Core_2_L2C_RFO_miss 197006
Core_2_L2C_prefetches 7730954
Core_2_L2C_prefetch_hit 7610803 L2C_prefetch_Hit Ratio: 0.98446
Core_2_L2C_prefetch_miss 120151
Core_2_L2C_writebacks 746391
Core_2_L2C_writeback_hit 746286 L2C_writeback_Hit Ratio: 0.99986
Core_2_L2C_writeback_miss 105
Core_2_L2C_prefetch_requested 19777423
Core_2_L2C_prefetch_issued 18345784
Core_2_L2C_prefetch_useful 120656 L2C_Useful Ratio: 0.00658
Core_2_L2C_prefetch_useless 4942
Core_2_L2C_prefetch_late 185709
Core_2_L2C_average_miss_latency 654.79392

Core_2_LLC_total_access 3740050
Core_2_LLC_total_hit 2648512 LLC_total_Hit Ratio: 0.70815
Core_2_LLC_total_miss 1091538
Core_2_LLC_loads 613612
Core_2_LLC_load_hit 348166 LLC_load_Hit Ratio: 0.56740
Core_2_LLC_load_miss 265446
Core_2_LLC_RFOs 197006
Core_2_LLC_RFO_hit 244 LLC_RFO_Hit Ratio: 0.00124
Core_2_LLC_RFO_miss 196762
Core_2_LLC_prefetches 2281325
Core_2_LLC_prefetch_hit 1675319 LLC_prefetch_Hit Ratio: 0.73436
Core_2_LLC_prefetch_miss 606006
Core_2_LLC_writebacks 648107
Core_2_LLC_writeback_hit 624783 LLC_writeback_Hit Ratio: 0.96401
Core_2_LLC_writeback_miss 23324
Core_2_LLC_prefetch_requested 0
Core_2_LLC_prefetch_issued 0
Core_2_LLC_prefetch_useful 1292137 LLC_Useful Ratio: inf
Core_2_LLC_prefetch_useless 1172491
Core_2_LLC_prefetch_late 314931
Core_2_LLC_average_miss_latency 4109.77906

Core_2_major_page_fault 0
Core_2_minor_page_fault 8637

Core_3_instructions 120000001
Core_3_cycles 221720674
Core_3_IPC 0.54122

Core_3_branch_prediction_accuracy 99.19473
Core_3_branch_MPKI 0.24145
Core_3_average_ROB_occupancy_at_mispredict 447.72890

Core_3_L1D_total_access 33110416
Core_3_L1D_total_hit 28548497 L1D_total_Hit Ratio: 0.86222
Core_3_L1D_total_miss 4561919
Core_3_L1D_loads 29903152
Core_3_L1D_load_hit 25541072 L1D_load_Hit Ratio: 0.85413
Core_3_L1D_load_miss 4362080
Core_3_L1D_RFOs 3207264
Core_3_L1D_RFO_hit 3007425 L1D_RFO_Hit Ratio: 0.93769
Core_3_L1D_RFO_miss 199839
Core_3_L1D_prefetches 0
Core_3_L1D_prefetch_hit 0 L1D_prefetch_Hit Ratio: -nan
Core_3_L1D_prefetch_miss 0
Core_3_L1D_writebacks 0
Core_3_L1D_writeback_hit 0 L1D_writeback_Hit Ratio: -nan
Core_3_L1D_writeback_miss 0
Core_3_L1D_prefetch_requested 0
Core_3_L1D_prefetch_issued 0
Core_3_L1D_prefetch_useful 0 L1D_Useful Ratio: -nan
Core_3_L1D_prefetch_useless 0
Core_3_L1D_prefetch_late 0
Core_3_L1D_average_miss_latency 169.06337

Core_3_L1I_total_access 16974847
Core_3_L1I_total_hit 16969898 L1I_total_Hit Ratio: 0.99971
Core_3_L1I_total_miss 4949
Core_3_L1I_loads 16974847
Core_3_L1I_load_hit 16969898 L1I_load_Hit Ratio: 0.99971
Core_3_L1I_load_miss 4949
Core_3_L1I_RFOs 0
Core_3_L1I_RFO_hit 0 L1I_RFO_Hit Ratio: -nan
Core_3_L1I_RFO_miss 0
Core_3_L1I_prefetches 0
Core_3_L1I_prefetch_hit 0 L1I_prefetch_Hit Ratio: -nan
Core_3_L1I_prefetch_miss 0
Core_3_L1I_writebacks 0
Core_3_L1I_writeback_hit 0 L1I_writeback_Hit Ratio: -nan
Core_3_L1I_writeback_miss 0
Core_3_L1I_prefetch_requested 0
Core_3_L1I_prefetch_issued 0
Core_3_L1I_prefetch_useful 0 L1I_Useful Ratio: -nan
Core_3_L1I_prefetch_useless 0
Core_3_L1I_prefetch_late 0
Core_3_L1I_average_miss_latency 1053.52536

Core_3_L2C_total_access 13052687
Core_3_L2C_total_hit 11940684 L2C_total_Hit Ratio: 0.91481
Core_3_L2C_total_miss 1112003
Core_3_L2C_loads 4367029
Core_3_L2C_load_hit 3572226 L2C_load_Hit Ratio: 0.81800
Core_3_L2C_load_miss 794803
Core_3_L2C_RFOs 199839
Core_3_L2C_RFO_hit 2799 L2C_RFO_Hit Ratio: 0.01401
Core_3_L2C_RFO_miss 197040
Core_3_L2C_prefetches 7739431
Core_3_L2C_prefetch_hit 7619326 L2C_prefetch_Hit Ratio: 0.98448
Core_3_L2C_prefetch_miss 120105
Core_3_L2C_writebacks 746388
Core_3_L2C_writeback_hit 746333 L2C_writeback_Hit Ratio: 0.99993
Core_3_L2C_writeback_miss 55
Core_3_L2C_prefetch_requested 19658513
Core_3_L2C_prefetch_issued 18237472
Core_3_L2C_prefetch_useful 120080 L2C_Useful Ratio: 0.00658
Core_3_L2C_prefetch_useless 4696
Core_3_L2C_prefetch_late 184594
Core_3_L2C_average_miss_latency 662.81970

Core_3_LLC_total_access 3723613
Core_3_LLC_total_hit 2632919 LLC_total_Hit Ratio: 0.70709
Core_3_LLC_total_miss 1090694
Core_3_LLC_loads 610581
Core_3_LLC_load_hit 345375 LLC_load_Hit Ratio: 0.56565
Core_3_LLC_load_miss 265206
Core_3_LLC_RFOs 197040
Core_3_LLC_RFO_hit 263 LLC_RFO_Hit Ratio: 0.00133
Core_3_LLC_RFO_miss 196777
Core_3_LLC_prefetches 2271613
Core_3_LLC_prefetch_hit 1665958 LLC_prefetch_Hit Ratio: 0.73338
Core_3_LLC_prefetch_miss 605655
Core_3_LLC_writebacks 644379
Core_3_LLC_writeback_hit 621323 LLC_writeback_Hit Ratio: 0.96422
Core_3_LLC_writeback_miss 23056
Core_3_LLC_prefetch_requested 0
Core_3_LLC_prefetch_issued 0
Core_3_LLC_prefetch_useful 1292137 LLC_Useful Ratio: inf
Core_3_LLC_prefetch_useless 1172491
Core_3_LLC_prefetch_late 314931
Core_3_LLC_average_miss_latency 4112.95929

Core_3_major_page_fault 0
Core_3_minor_page_fault 8629

 All Calls: 17996845
 Critical Calls: 17996845
------------------
Depth Distribution
------------------
depth 0: 0
depth 1: 14206005
depth 2: 13238616
depth 3: 12146741
depth 4: 10524790
depth 5: 8221362
depth 6: 5477531
depth 7: 3462989
depth 8: 2351966
depth 9: 1723961
depth 10: 1238662
depth 11: 780991
depth 12: 421811
depth 13: 146817
depth 14: 3086
depth 15: 3032
depth 16: 0
depth 17: 0
depth 18: 0
depth 19: 0
depth 20: 0
depth 21: 0
depth 22: 0
depth 23: 0
depth 24: 0
depth 25: 0
depth 26: 0
depth 27: 0
depth 28: 0
depth 29: 0
Total: 73948360
-----------------------------
-----------------------------
	Captured at Filter
-----------------------------
depth 0: 0
depth 1: 2308119
depth 2: 2051268
depth 3: 1870750
depth 4: 1567601
depth 5: 1175063
depth 6: 598465
depth 7: 212893
depth 8: 69160
depth 9: 19561
depth 10: 9284
depth 11: 5506
depth 12: 2839
depth 13: 850
depth 14: 9
depth 15: 13
depth 16: 0
depth 17: 0
depth 18: 0
depth 19: 0
depth 20: 0
depth 21: 0
depth 22: 0
depth 23: 0
depth 24: 0
depth 25: 0
depth 26: 0
depth 27: 0
depth 28: 0
depth 29: 0
-----------------------------
-----------------------------
		Lost at Page
-----------------------------
depth 0: 0
depth 1: 993731
depth 2: 1574583
depth 3: 2199050
depth 4: 2694336
depth 5: 2926937
depth 6: 2679628
depth 7: 1779138
depth 8: 1000217
depth 9: 341697
depth 10: 242727
depth 11: 170647
depth 12: 106847
depth 13: 41633
depth 14: 915
depth 15: 960
depth 16: 0
depth 17: 0
depth 18: 0
depth 19: 0
depth 20: 0
depth 21: 0
depth 22: 0
depth 23: 0
depth 24: 0
depth 25: 0
depth 26: 0
depth 27: 0
depth 28: 0
depth 29: 0
-----------------------------
-----------------------------
	Lost due to PQ Size
-----------------------------
5707664
-----------------------------
ST read accesses: 17462489
ST write accesses: 358398
PT read accesses: 630362809
PT write accesses: 25876485
FILTER read accesses: 111220910
FILTER write accesses: 18254960
GHR read accesses: 111615999
GHR write accesses: 16723471
GHR counter read accesses: 526884686
GHR counter write accesses: 31962649
ST tag read accesses: 7041344414
ST tag write accesses: 236914307
 All Calls: 17996845
 Critical Calls: 17996845
------------------
Depth Distribution
------------------
depth 0: 0
depth 1: 14206005
depth 2: 13238616
depth 3: 12146741
depth 4: 10524790
depth 5: 8221362
depth 6: 5477531
depth 7: 3462989
depth 8: 2351966
depth 9: 1723961
depth 10: 1238662
depth 11: 780991
depth 12: 421811
depth 13: 146817
depth 14: 3086
depth 15: 3032
depth 16: 0
depth 17: 0
depth 18: 0
depth 19: 0
depth 20: 0
depth 21: 0
depth 22: 0
depth 23: 0
depth 24: 0
depth 25: 0
depth 26: 0
depth 27: 0
depth 28: 0
depth 29: 0
Total: 73948360
-----------------------------
-----------------------------
	Captured at Filter
-----------------------------
depth 0: 0
depth 1: 2308119
depth 2: 2051268
depth 3: 1870750
depth 4: 1567601
depth 5: 1175063
depth 6: 598465
depth 7: 212893
depth 8: 69160
depth 9: 19561
depth 10: 9284
depth 11: 5506
depth 12: 2839
depth 13: 850
depth 14: 9
depth 15: 13
depth 16: 0
depth 17: 0
depth 18: 0
depth 19: 0
depth 20: 0
depth 21: 0
depth 22: 0
depth 23: 0
depth 24: 0
depth 25: 0
depth 26: 0
depth 27: 0
depth 28: 0
depth 29: 0
-----------------------------
-----------------------------
		Lost at Page
-----------------------------
depth 0: 0
depth 1: 993731
depth 2: 1574583
depth 3: 2199050
depth 4: 2694336
depth 5: 2926937
depth 6: 2679628
depth 7: 1779138
depth 8: 1000217
depth 9: 341697
depth 10: 242727
depth 11: 170647
depth 12: 106847
depth 13: 41633
depth 14: 915
depth 15: 960
depth 16: 0
depth 17: 0
depth 18: 0
depth 19: 0
depth 20: 0
depth 21: 0
depth 22: 0
depth 23: 0
depth 24: 0
depth 25: 0
depth 26: 0
depth 27: 0
depth 28: 0
depth 29: 0
-----------------------------
-----------------------------
	Lost due to PQ Size
-----------------------------
5707664
-----------------------------
ST read accesses: 17462489
ST write accesses: 358398
PT read accesses: 630362809
PT write accesses: 25876485
FILTER read accesses: 111220910
FILTER write accesses: 18254960
GHR read accesses: 111615999
GHR write accesses: 16723471
GHR counter read accesses: 526884686
GHR counter write accesses: 31962649
ST tag read accesses: 7041344414
ST tag write accesses: 236914307
 All Calls: 17996845
 Critical Calls: 17996845
------------------
Depth Distribution
------------------
depth 0: 0
depth 1: 14206005
depth 2: 13238616
depth 3: 12146741
depth 4: 10524790
depth 5: 8221362
depth 6: 5477531
depth 7: 3462989
depth 8: 2351966
depth 9: 1723961
depth 10: 1238662
depth 11: 780991
depth 12: 421811
depth 13: 146817
depth 14: 3086
depth 15: 3032
depth 16: 0
depth 17: 0
depth 18: 0
depth 19: 0
depth 20: 0
depth 21: 0
depth 22: 0
depth 23: 0
depth 24: 0
depth 25: 0
depth 26: 0
depth 27: 0
depth 28: 0
depth 29: 0
Total: 73948360
-----------------------------
-----------------------------
	Captured at Filter
-----------------------------
depth 0: 0
depth 1: 2308119
depth 2: 2051268
depth 3: 1870750
depth 4: 1567601
depth 5: 1175063
depth 6: 598465
depth 7: 212893
depth 8: 69160
depth 9: 19561
depth 10: 9284
depth 11: 5506
depth 12: 2839
depth 13: 850
depth 14: 9
depth 15: 13
depth 16: 0
depth 17: 0
depth 18: 0
depth 19: 0
depth 20: 0
depth 21: 0
depth 22: 0
depth 23: 0
depth 24: 0
depth 25: 0
depth 26: 0
depth 27: 0
depth 28: 0
depth 29: 0
-----------------------------
-----------------------------
		Lost at Page
-----------------------------
depth 0: 0
depth 1: 993731
depth 2: 1574583
depth 3: 2199050
depth 4: 2694336
depth 5: 2926937
depth 6: 2679628
depth 7: 1779138
depth 8: 1000217
depth 9: 341697
depth 10: 242727
depth 11: 170647
depth 12: 106847
depth 13: 41633
depth 14: 915
depth 15: 960
depth 16: 0
depth 17: 0
depth 18: 0
depth 19: 0
depth 20: 0
depth 21: 0
depth 22: 0
depth 23: 0
depth 24: 0
depth 25: 0
depth 26: 0
depth 27: 0
depth 28: 0
depth 29: 0
-----------------------------
-----------------------------
	Lost due to PQ Size
-----------------------------
5707664
-----------------------------
ST read accesses: 17462489
ST write accesses: 358398
PT read accesses: 630362809
PT write accesses: 25876485
FILTER read accesses: 111220910
FILTER write accesses: 18254960
GHR read accesses: 111615999
GHR write accesses: 16723471
GHR counter read accesses: 526884686
GHR counter write accesses: 31962649
ST tag read accesses: 7041344414
ST tag write accesses: 236914307
 All Calls: 17996845
 Critical Calls: 17996845
------------------
Depth Distribution
------------------
depth 0: 0
depth 1: 14206005
depth 2: 13238616
depth 3: 12146741
depth 4: 10524790
depth 5: 8221362
depth 6: 5477531
depth 7: 3462989
depth 8: 2351966
depth 9: 1723961
depth 10: 1238662
depth 11: 780991
depth 12: 421811
depth 13: 146817
depth 14: 3086
depth 15: 3032
depth 16: 0
depth 17: 0
depth 18: 0
depth 19: 0
depth 20: 0
depth 21: 0
depth 22: 0
depth 23: 0
depth 24: 0
depth 25: 0
depth 26: 0
depth 27: 0
depth 28: 0
depth 29: 0
Total: 73948360
-----------------------------
-----------------------------
	Captured at Filter
-----------------------------
depth 0: 0
depth 1: 2308119
depth 2: 2051268
depth 3: 1870750
depth 4: 1567601
depth 5: 1175063
depth 6: 598465
depth 7: 212893
depth 8: 69160
depth 9: 19561
depth 10: 9284
depth 11: 5506
depth 12: 2839
depth 13: 850
depth 14: 9
depth 15: 13
depth 16: 0
depth 17: 0
depth 18: 0
depth 19: 0
depth 20: 0
depth 21: 0
depth 22: 0
depth 23: 0
depth 24: 0
depth 25: 0
depth 26: 0
depth 27: 0
depth 28: 0
depth 29: 0
-----------------------------
-----------------------------
		Lost at Page
-----------------------------
depth 0: 0
depth 1: 993731
depth 2: 1574583
depth 3: 2199050
depth 4: 2694336
depth 5: 2926937
depth 6: 2679628
depth 7: 1779138
depth 8: 1000217
depth 9: 341697
depth 10: 242727
depth 11: 170647
depth 12: 106847
depth 13: 41633
depth 14: 915
depth 15: 960
depth 16: 0
depth 17: 0
depth 18: 0
depth 19: 0
depth 20: 0
depth 21: 0
depth 22: 0
depth 23: 0
depth 24: 0
depth 25: 0
depth 26: 0
depth 27: 0
depth 28: 0
depth 29: 0
-----------------------------
-----------------------------
	Lost due to PQ Size
-----------------------------
5707664
-----------------------------
ST read accesses: 17462489
ST write accesses: 358398
PT read accesses: 630362809
PT write accesses: 25876485
FILTER read accesses: 111220910
FILTER write accesses: 18254960
GHR read accesses: 111615999
GHR write accesses: 16723471
GHR counter read accesses: 526884686
GHR counter write accesses: 31962649
ST tag read accesses: 7041344414
ST tag write accesses: 236914307
Channel_0_RQ_row_buffer_hit 1744151
Channel_0_RQ_row_buffer_miss 2577598
Channel_0_WQ_row_buffer_hit 803982
Channel_0_WQ_row_buffer_miss 1665914
Channel_0_WQ_full 4459
Channel_0_dbus_congested 4435502

avg_congested_cycle 11

EzSearch AVG IPC :0.55415: L2-Pf-HR :0.98441 : L2-HR :0.91784 Uful:0.00644
EzSearch AVG IPC :0.54115: L2-Pf-HR :0.98429 : L2-HR :0.91449 Uful:0.00673
EzSearch AVG IPC :0.54200: L2-Pf-HR :0.98446 : L2-HR :0.91482 Uful:0.00658
EzSearch AVG IPC :0.54122: L2-Pf-HR :0.98448 : L2-HR :0.91486 Uful:0.00658
     > Finished combination: TraceType=770-tot Sim:120000000 Prefetcher=L2spp_berti_src L1=no
