TRACE: [103000000]_FE_[GPT-Neo_2_7B]_[h32]_[s256]_[d80] Warmup: 2000000 NumTraces: 103000000
L1:no:L2:no
*************************************************
   ChampSim Multicore Out-of-Order Simulator
   Last compiled: Oct 28 2024 09:06:54
*************************************************

trace_0 770-tot_memTraces_v3/memTraces[103000000]_FE_[GPT-Neo_2_7B]_[h32]_[s256]_[d80].champsim.xz
trace_1 770-tot_memTraces_v3/memTraces[103000000]_FE_[GPT-Neo_2_7B]_[h32]_[s256]_[d80].champsim.xz
trace_2 770-tot_memTraces_v3/memTraces[103000000]_FE_[GPT-Neo_2_7B]_[h32]_[s256]_[d80].champsim.xz
trace_3 770-tot_memTraces_v3/memTraces[103000000]_FE_[GPT-Neo_2_7B]_[h32]_[s256]_[d80].champsim.xz
MAIN.cc ln 751 stats print skipped
CPU  1 inst:    1000001 cyc:     500544 now IPC :1.99783: AVG IPC :1.99783: L2-Pf-HR :-nan: L2-HR :0.65020: (Sim:0h1m43s) 
CPU  2 inst:    1000001 cyc:     500675 now IPC :1.99731: AVG IPC :1.99731: L2-Pf-HR :-nan: L2-HR :0.65020: (Sim:0h1m43s) 
CPU  3 inst:    1000001 cyc:     500816 now IPC :1.99674: AVG IPC :1.99674: L2-Pf-HR :-nan: L2-HR :0.65021: (Sim:0h1m43s) 
CPU  0 inst:    1000001 cyc:     500817 now IPC :1.99674: AVG IPC :1.99674: L2-Pf-HR :-nan: L2-HR :0.65020: (Sim:0h1m43s) 
CPU  1 inst:    2000002 cyc:     989414 now IPC :2.04554: AVG IPC :2.02140: L2-Pf-HR :-nan: L2-HR :0.71874: (Sim:0h3m33s) 
CPU  2 inst:    2000002 cyc:     989542 now IPC :2.04555: AVG IPC :2.02114: L2-Pf-HR :-nan: L2-HR :0.71878: (Sim:0h3m33s) 
CPU  3 inst:    2000002 cyc:     989773 now IPC :2.04517: AVG IPC :2.02067: L2-Pf-HR :-nan: L2-HR :0.71879: (Sim:0h3m33s) 
CPU  0 inst:    2000002 cyc:     989774 now IPC :2.04517: AVG IPC :2.02067: L2-Pf-HR :-nan: L2-HR :0.71876: (Sim:0h3m33s) 

Warmup complete CPU  0 instructions:    2000002 cycles:     989774 (Simulation time: 0 hr 3 min 33 sec) 
Warmup complete CPU  1 instructions:    2000839 cycles:     989773 (Simulation time: 0 hr 3 min 33 sec) 
Warmup complete CPU  2 instructions:    2000476 cycles:     989773 (Simulation time: 0 hr 3 min 33 sec) 
Warmup complete CPU  3 instructions:    2000002 cycles:     989773 (Simulation time: 0 hr 3 min 33 sec) 

CPU  2 inst:    3000001 cyc:    1722158 now IPC :1.36497: AVG IPC :1.36475: L2-Pf-HR :-nan: L2-HR :0.79385: (Sim:0h5m14s) 
CPU  1 inst:    3000001 cyc:    1723438 now IPC :1.36235: AVG IPC :1.36188: L2-Pf-HR :-nan: L2-HR :0.79381: (Sim:0h5m14s) 
CPU  3 inst:    3000000 cyc:    1726331 now IPC :1.35766: AVG IPC :1.35766: L2-Pf-HR :-nan: L2-HR :0.79387: (Sim:0h5m15s) 
CPU  0 inst:    3000001 cyc:    1744101 now IPC :1.32568: AVG IPC :1.32568: L2-Pf-HR :-nan: L2-HR :0.79383: (Sim:0h5m17s) 
CPU  2 inst:    4000004 cyc:    2387027 now IPC :1.50406: AVG IPC :1.43104: L2-Pf-HR :-nan: L2-HR :0.80439: (Sim:0h6m50s) 
CPU  1 inst:    4000004 cyc:    2387231 now IPC :1.50650: AVG IPC :1.43057: L2-Pf-HR :-nan: L2-HR :0.80437: (Sim:0h6m50s) 
CPU  3 inst:    4000004 cyc:    2393325 now IPC :1.49927: AVG IPC :1.42496: L2-Pf-HR :-nan: L2-HR :0.80441: (Sim:0h6m51s) 
CPU  0 inst:    4000004 cyc:    2411403 now IPC :1.49858: AVG IPC :1.40684: L2-Pf-HR :-nan: L2-HR :0.80439: (Sim:0h6m53s) 
CPU  2 inst:    5000003 cyc:    3110372 now IPC :1.38246: AVG IPC :1.41447: L2-Pf-HR :-nan: L2-HR :0.79843: (Sim:0h8m18s) 
CPU  1 inst:    5000003 cyc:    3110993 now IPC :1.38167: AVG IPC :1.41389: L2-Pf-HR :-nan: L2-HR :0.79842: (Sim:0h8m18s) 
CPU  3 inst:    5000003 cyc:    3115005 now IPC :1.38565: AVG IPC :1.41161: L2-Pf-HR :-nan: L2-HR :0.79844: (Sim:0h8m18s) 
CPU  0 inst:    5000003 cyc:    3126884 now IPC :1.39766: AVG IPC :1.40377: L2-Pf-HR :-nan: L2-HR :0.79843: (Sim:0h8m20s) 
CPU  2 inst:    6000002 cyc:    3829041 now IPC :1.39146: AVG IPC :1.40865: L2-Pf-HR :-nan: L2-HR :0.79692: (Sim:0h9m45s) 
CPU  3 inst:    6000002 cyc:    3832396 now IPC :1.39394: AVG IPC :1.40715: L2-Pf-HR :-nan: L2-HR :0.79694: (Sim:0h9m45s) 
CPU  1 inst:    6000002 cyc:    3832600 now IPC :1.38579: AVG IPC :1.40676: L2-Pf-HR :-nan: L2-HR :0.79693: (Sim:0h9m45s) 
CPU  0 inst:    6000002 cyc:    3848657 now IPC :1.38548: AVG IPC :1.39915: L2-Pf-HR :-nan: L2-HR :0.79693: (Sim:0h9m48s) 
CPU  2 inst:    7000001 cyc:    4548198 now IPC :1.39052: AVG IPC :1.40498: L2-Pf-HR :-nan: L2-HR :0.79606: (Sim:0h11m12s) 
CPU  1 inst:    7000001 cyc:    4551708 now IPC :1.39061: AVG IPC :1.40350: L2-Pf-HR :-nan: L2-HR :0.79607: (Sim:0h11m13s) 
CPU  3 inst:    7000001 cyc:    4552534 now IPC :1.38862: AVG IPC :1.40341: L2-Pf-HR :-nan: L2-HR :0.79608: (Sim:0h11m13s) 
CPU  0 inst:    7000001 cyc:    4577476 now IPC :1.37208: AVG IPC :1.39365: L2-Pf-HR :-nan: L2-HR :0.79607: (Sim:0h11m16s) 
CPU  2 inst:    8000003 cyc:    5285775 now IPC :1.35579: AVG IPC :1.39654: L2-Pf-HR :-nan: L2-HR :0.79564: (Sim:0h12m41s) 
CPU  1 inst:    8000003 cyc:    5288589 now IPC :1.35707: AVG IPC :1.39554: L2-Pf-HR :-nan: L2-HR :0.79565: (Sim:0h12m41s) 
CPU  3 inst:    8000003 cyc:    5291734 now IPC :1.35282: AVG IPC :1.39471: L2-Pf-HR :-nan: L2-HR :0.79566: (Sim:0h12m42s) 
CPU  0 inst:    8000003 cyc:    5322567 now IPC :1.34212: AVG IPC :1.38479: L2-Pf-HR :-nan: L2-HR :0.79565: (Sim:0h12m45s) 
CPU  2 inst:    9000005 cyc:    5978218 now IPC :1.44417: AVG IPC :1.40315: L2-Pf-HR :-nan: L2-HR :0.79738: (Sim:0h14m7s) 
CPU  1 inst:    9000005 cyc:    5981476 now IPC :1.44324: AVG IPC :1.40216: L2-Pf-HR :-nan: L2-HR :0.79739: (Sim:0h14m7s) 
CPU  3 inst:    9000005 cyc:    5984644 now IPC :1.44319: AVG IPC :1.40144: L2-Pf-HR :-nan: L2-HR :0.79740: (Sim:0h14m8s) 
CPU  0 inst:    9000005 cyc:    6014609 now IPC :1.44500: AVG IPC :1.39308: L2-Pf-HR :-nan: L2-HR :0.79739: (Sim:0h14m11s) 
CPU  2 inst:   10000000 cyc:    6875986 now IPC :1.11387: AVG IPC :1.35903: L2-Pf-HR :-nan: L2-HR :0.79691: (Sim:0h15m44s) 
CPU  1 inst:   10000000 cyc:    6905392 now IPC :1.08234: AVG IPC :1.35221: L2-Pf-HR :-nan: L2-HR :0.79691: (Sim:0h15m47s) 
CPU  3 inst:   10000000 cyc:    6915334 now IPC :1.07447: AVG IPC :1.35008: L2-Pf-HR :-nan: L2-HR :0.79692: (Sim:0h15m48s) 
CPU  0 inst:   10000000 cyc:    6937211 now IPC :1.08389: AVG IPC :1.34512: L2-Pf-HR :-nan: L2-HR :0.79691: (Sim:0h15m51s) 
CPU  2 inst:   11000003 cyc:    7980967 now IPC :0.90500: AVG IPC :1.28727: L2-Pf-HR :-nan: L2-HR :0.79654: (Sim:0h17m41s) 
CPU  3 inst:   11000003 cyc:    8065933 now IPC :0.86912: AVG IPC :1.27188: L2-Pf-HR :-nan: L2-HR :0.79655: (Sim:0h17m50s) 
CPU  1 inst:   11000003 cyc:    8072644 now IPC :0.85672: AVG IPC :1.27055: L2-Pf-HR :-nan: L2-HR :0.79655: (Sim:0h17m51s) 
CPU  0 inst:   11000003 cyc:    8076075 now IPC :0.87807: AVG IPC :1.27006: L2-Pf-HR :-nan: L2-HR :0.79655: (Sim:0h17m51s) 
CPU  2 inst:   12000005 cyc:    8946379 now IPC :1.03583: AVG IPC :1.25676: L2-Pf-HR :-nan: L2-HR :0.79605: (Sim:0h19m30s) 
CPU  3 inst:   12000005 cyc:    9157405 now IPC :0.91620: AVG IPC :1.22435: L2-Pf-HR :-nan: L2-HR :0.79606: (Sim:0h19m49s) 
CPU  1 inst:   12000005 cyc:    9204234 now IPC :0.88371: AVG IPC :1.21726: L2-Pf-HR :-nan: L2-HR :0.79605: (Sim:0h19m54s) 
CPU  0 inst:   12000005 cyc:    9206238 now IPC :0.88483: AVG IPC :1.21707: L2-Pf-HR :-nan: L2-HR :0.79605: (Sim:0h19m55s) 
CPU  2 inst:   13000001 cyc:    9905356 now IPC :1.04277: AVG IPC :1.23374: L2-Pf-HR :-nan: L2-HR :0.79718: (Sim:0h21m13s) 
CPU  3 inst:   13000001 cyc:   10159320 now IPC :0.99808: AVG IPC :1.19962: L2-Pf-HR :-nan: L2-HR :0.79719: (Sim:0h21m40s) 
CPU  1 inst:   13000001 cyc:   10244402 now IPC :0.96138: AVG IPC :1.18850: L2-Pf-HR :-nan: L2-HR :0.79719: (Sim:0h21m51s) 
CPU  0 inst:   13000001 cyc:   10247434 now IPC :0.96043: AVG IPC :1.18821: L2-Pf-HR :-nan: L2-HR :0.79719: (Sim:0h21m51s) 
CPU  2 inst:   14000003 cyc:   10867660 now IPC :1.03917: AVG IPC :1.21479: L2-Pf-HR :-nan: L2-HR :0.79682: (Sim:0h23m2s) 
CPU  3 inst:   14000003 cyc:   11087852 now IPC :1.07697: AVG IPC :1.18834: L2-Pf-HR :-nan: L2-HR :0.79683: (Sim:0h23m31s) 
CPU  1 inst:   14000003 cyc:   11200624 now IPC :1.04578: AVG IPC :1.17514: L2-Pf-HR :-nan: L2-HR :0.79682: (Sim:0h23m45s) 
CPU  0 inst:   14000003 cyc:   11206782 now IPC :1.04238: AVG IPC :1.17451: L2-Pf-HR :-nan: L2-HR :0.79682: (Sim:0h23m46s) 
CPU  2 inst:   15000002 cyc:   11831152 now IPC :1.03789: AVG IPC :1.19907: L2-Pf-HR :-nan: L2-HR :0.79659: (Sim:0h24m54s) 
CPU  3 inst:   15000002 cyc:   12047343 now IPC :1.04222: AVG IPC :1.17567: L2-Pf-HR :-nan: L2-HR :0.79660: (Sim:0h25m22s) 
CPU  1 inst:   15000002 cyc:   12225955 now IPC :0.97529: AVG IPC :1.15690: L2-Pf-HR :-nan: L2-HR :0.79660: (Sim:0h25m43s) 
CPU  0 inst:   15000002 cyc:   12228878 now IPC :0.97838: AVG IPC :1.15668: L2-Pf-HR :-nan: L2-HR :0.79660: (Sim:0h25m44s) 
CPU  2 inst:   16000001 cyc:   12788917 now IPC :1.04410: AVG IPC :1.18649: L2-Pf-HR :-nan: L2-HR :0.79644: (Sim:0h26m47s) 
CPU  3 inst:   16000001 cyc:   12976206 now IPC :1.07658: AVG IPC :1.16799: L2-Pf-HR :-nan: L2-HR :0.79645: (Sim:0h27m10s) 
CPU  1 inst:   16000001 cyc:   13256347 now IPC :0.97050: AVG IPC :1.14124: L2-Pf-HR :-nan: L2-HR :0.79644: (Sim:0h27m41s) 
CPU  0 inst:   16000001 cyc:   13258884 now IPC :0.97087: AVG IPC :1.14108: L2-Pf-HR :-nan: L2-HR :0.79645: (Sim:0h27m41s) 
CPU  2 inst:   17000004 cyc:   13705336 now IPC :1.09121: AVG IPC :1.17962: L2-Pf-HR :-nan: L2-HR :0.79730: (Sim:0h28m35s) 
CPU  3 inst:   17000004 cyc:   13855782 now IPC :1.13691: AVG IPC :1.16586: L2-Pf-HR :-nan: L2-HR :0.79730: (Sim:0h28m52s) 
CPU  1 inst:   17000004 cyc:   14198636 now IPC :1.06125: AVG IPC :1.13554: L2-Pf-HR :-nan: L2-HR :0.79730: (Sim:0h29m32s) 
CPU  0 inst:   17000004 cyc:   14207970 now IPC :1.05365: AVG IPC :1.13480: L2-Pf-HR :-nan: L2-HR :0.79730: (Sim:0h29m33s) 
CPU  2 inst:   18000000 cyc:   14731736 now IPC :0.97428: AVG IPC :1.16428: L2-Pf-HR :-nan: L2-HR :0.79689: (Sim:0h30m30s) 
CPU  3 inst:   18000000 cyc:   14839595 now IPC :1.01645: AVG IPC :1.15525: L2-Pf-HR :-nan: L2-HR :0.79690: (Sim:0h30m43s) 
CPU  1 inst:   18000000 cyc:   15289928 now IPC :0.91634: AVG IPC :1.11881: L2-Pf-HR :-nan: L2-HR :0.79690: (Sim:0h31m34s) 
CPU  0 inst:   18000000 cyc:   15295057 now IPC :0.91989: AVG IPC :1.11847: L2-Pf-HR :-nan: L2-HR :0.79690: (Sim:0h31m34s) 
CPU  2 inst:   19000001 cyc:   15724598 now IPC :1.00719: AVG IPC :1.15370: L2-Pf-HR :-nan: L2-HR :0.79659: (Sim:0h32m25s) 
CPU  3 inst:   19000001 cyc:   15793063 now IPC :1.04880: AVG IPC :1.14839: L2-Pf-HR :-nan: L2-HR :0.79659: (Sim:0h32m32s) 
CPU  0 inst:   19000001 cyc:   16377536 now IPC :0.92381: AVG IPC :1.10477: L2-Pf-HR :-nan: L2-HR :0.79659: (Sim:0h33m34s) 
CPU  1 inst:   19000001 cyc:   16391168 now IPC :0.90807: AVG IPC :1.10374: L2-Pf-HR :-nan: L2-HR :0.79659: (Sim:0h33m35s) 
CPU  2 inst:   20000003 cyc:   16924072 now IPC :0.83370: AVG IPC :1.12961: L2-Pf-HR :-nan: L2-HR :0.79644: (Sim:0h34m31s) 
CPU  3 inst:   20000003 cyc:   16938327 now IPC :0.87316: AVG IPC :1.12863: L2-Pf-HR :-nan: L2-HR :0.79645: (Sim:0h34m32s) 
CPU  0 inst:   20000003 cyc:   17576998 now IPC :0.83371: AVG IPC :1.08517: L2-Pf-HR :-nan: L2-HR :0.79645: (Sim:0h35m38s) 
CPU  1 inst:   20000003 cyc:   17619526 now IPC :0.81410: AVG IPC :1.08235: L2-Pf-HR :-nan: L2-HR :0.79645: (Sim:0h35m42s) 
CPU  3 inst:   21000002 cyc:   18121951 now IPC :0.84486: AVG IPC :1.10902: L2-Pf-HR :-nan: L2-HR :0.79705: (Sim:0h36m34s) 
CPU  2 inst:   21000002 cyc:   18129897 now IPC :0.82931: AVG IPC :1.10848: L2-Pf-HR :-nan: L2-HR :0.79705: (Sim:0h36m35s) 
CPU  0 inst:   21000002 cyc:   18586674 now IPC :0.99042: AVG IPC :1.07974: L2-Pf-HR :-nan: L2-HR :0.79705: (Sim:0h37m28s) 
CPU  1 inst:   21000000 cyc:   18700260 now IPC :0.92529: AVG IPC :1.07276: L2-Pf-HR :-nan: L2-HR :0.79705: (Sim:0h37m38s) 
CPU  3 inst:   22000001 cyc:   19204641 now IPC :0.92362: AVG IPC :1.09800: L2-Pf-HR :-nan: L2-HR :0.79687: (Sim:0h38m34s) 
CPU  2 inst:   22000001 cyc:   19206386 now IPC :0.92894: AVG IPC :1.09787: L2-Pf-HR :-nan: L2-HR :0.79686: (Sim:0h38m34s) 
CPU  0 inst:   22000001 cyc:   19572220 now IPC :1.01467: AVG IPC :1.07628: L2-Pf-HR :-nan: L2-HR :0.79686: (Sim:0h39m16s) 
CPU  1 inst:   22000001 cyc:   19740855 now IPC :0.96099: AVG IPC :1.06656: L2-Pf-HR :-nan: L2-HR :0.79686: (Sim:0h39m34s) 
CPU  3 inst:   23000005 cyc:   20252748 now IPC :0.95410: AVG IPC :1.09017: L2-Pf-HR :-nan: L2-HR :0.79675: (Sim:0h40m34s) 
CPU  2 inst:   23000005 cyc:   20252952 now IPC :0.95551: AVG IPC :1.09014: L2-Pf-HR :-nan: L2-HR :0.79674: (Sim:0h40m34s) 
CPU  0 inst:   23000005 cyc:   20525609 now IPC :1.04889: AVG IPC :1.07495: L2-Pf-HR :-nan: L2-HR :0.79674: (Sim:0h40m59s) 
CPU  1 inst:   23000005 cyc:   20676011 now IPC :1.06934: AVG IPC :1.06669: L2-Pf-HR :-nan: L2-HR :0.79674: (Sim:0h41m8s) 
CPU  3 inst:   24000002 cyc:   21270971 now IPC :0.98210: AVG IPC :1.08475: L2-Pf-HR :-nan: L2-HR :0.79633: (Sim:0h41m42s) 
CPU  2 inst:   24000002 cyc:   21272987 now IPC :0.98036: AVG IPC :1.08462: L2-Pf-HR :-nan: L2-HR :0.79633: (Sim:0h41m43s) 
CPU  0 inst:   24000002 cyc:   21490783 now IPC :1.03608: AVG IPC :1.07312: L2-Pf-HR :-nan: L2-HR :0.79633: (Sim:0h41m56s) 
CPU  1 inst:   24000002 cyc:   21618940 now IPC :1.06052: AVG IPC :1.06641: L2-Pf-HR :-nan: L2-HR :0.79633: (Sim:0h42m5s) 
CPU  2 inst:   25000001 cyc:   22236969 now IPC :1.03736: AVG IPC :1.08247: L2-Pf-HR :-nan: L2-HR :0.79636: (Sim:0h42m42s) 
CPU  3 inst:   25000001 cyc:   22243252 now IPC :1.02851: AVG IPC :1.08218: L2-Pf-HR :-nan: L2-HR :0.79636: (Sim:0h42m43s) 
CPU  0 inst:   25000001 cyc:   22403928 now IPC :1.09512: AVG IPC :1.07406: L2-Pf-HR :-nan: L2-HR :0.79636: (Sim:0h42m52s) 
CPU  1 inst:   25000001 cyc:   22620461 now IPC :0.99848: AVG IPC :1.06327: L2-Pf-HR :-nan: L2-HR :0.79636: (Sim:0h43m4s) 
CPU  2 inst:   26000005 cyc:   23198989 now IPC :1.03948: AVG IPC :1.08061: L2-Pf-HR :-nan: L2-HR :0.79682: (Sim:0h43m40s) 
CPU  3 inst:   26000005 cyc:   23210781 now IPC :1.03356: AVG IPC :1.08006: L2-Pf-HR :-nan: L2-HR :0.79682: (Sim:0h43m40s) 
CPU  0 inst:   26000005 cyc:   23276912 now IPC :1.14550: AVG IPC :1.07685: L2-Pf-HR :-nan: L2-HR :0.79682: (Sim:0h43m45s) 
CPU  1 inst:   26000005 cyc:   23564375 now IPC :1.05942: AVG IPC :1.06310: L2-Pf-HR :-nan: L2-HR :0.79682: (Sim:0h43m59s) 
CPU  2 inst:   27000005 cyc:   24304939 now IPC :0.90420: AVG IPC :1.07224: L2-Pf-HR :-nan: L2-HR :0.79670: (Sim:0h44m44s) 
CPU  3 inst:   27000005 cyc:   24331635 now IPC :0.89218: AVG IPC :1.07104: L2-Pf-HR :-nan: L2-HR :0.79671: (Sim:0h44m45s) 
CPU  0 inst:   27000005 cyc:   24358880 now IPC :0.92424: AVG IPC :1.06979: L2-Pf-HR :-nan: L2-HR :0.79670: (Sim:0h44m47s) 
CPU  1 inst:   27000005 cyc:   24501863 now IPC :1.06668: AVG IPC :1.06325: L2-Pf-HR :-nan: L2-HR :0.79670: (Sim:0h44m56s) 
CPU  2 inst:   28000001 cyc:   25344993 now IPC :0.96148: AVG IPC :1.06751: L2-Pf-HR :-nan: L2-HR :0.79665: (Sim:0h45m44s) 
CPU  3 inst:   28000001 cyc:   25424203 now IPC :0.91527: AVG IPC :1.06407: L2-Pf-HR :-nan: L2-HR :0.79665: (Sim:0h45m48s) 
CPU  0 inst:   28000001 cyc:   25429229 now IPC :0.93427: AVG IPC :1.06385: L2-Pf-HR :-nan: L2-HR :0.79665: (Sim:0h45m49s) 
CPU  1 inst:   28000001 cyc:   25476996 now IPC :1.02550: AVG IPC :1.06174: L2-Pf-HR :-nan: L2-HR :0.79665: (Sim:0h45m51s) 
CPU  2 inst:   29000003 cyc:   26348373 now IPC :0.99663: AVG IPC :1.06471: L2-Pf-HR :-nan: L2-HR :0.79631: (Sim:0h46m40s) 
CPU  3 inst:   29000003 cyc:   26603126 now IPC :0.84823: AVG IPC :1.05414: L2-Pf-HR :-nan: L2-HR :0.79632: (Sim:0h46m53s) 
CPU  0 inst:   29000003 cyc:   26628913 now IPC :0.83355: AVG IPC :1.05308: L2-Pf-HR :-nan: L2-HR :0.79632: (Sim:0h46m54s) 
CPU  1 inst:   29000003 cyc:   26642471 now IPC :0.85802: AVG IPC :1.05249: L2-Pf-HR :-nan: L2-HR :0.79632: (Sim:0h46m55s) 
CPU  2 inst:   30000001 cyc:   27275261 now IPC :1.07888: AVG IPC :1.06521: L2-Pf-HR :-nan: L2-HR :0.79689: (Sim:0h47m33s) 
CPU  3 inst:   30000001 cyc:   27553926 now IPC :1.05174: AVG IPC :1.05405: L2-Pf-HR :-nan: L2-HR :0.79690: (Sim:0h47m49s) 
CPU  0 inst:   30000001 cyc:   27594850 now IPC :1.03526: AVG IPC :1.05243: L2-Pf-HR :-nan: L2-HR :0.79689: (Sim:0h47m51s) 
CPU  1 inst:   30000001 cyc:   27603766 now IPC :1.04026: AVG IPC :1.05205: L2-Pf-HR :-nan: L2-HR :0.79689: (Sim:0h47m52s) 
CPU  2 inst:   31000001 cyc:   28293070 now IPC :0.98250: AVG IPC :1.06213: L2-Pf-HR :-nan: L2-HR :0.79658: (Sim:0h48m29s) 
CPU  3 inst:   31000001 cyc:   28692624 now IPC :0.87820: AVG IPC :1.04682: L2-Pf-HR :-nan: L2-HR :0.79658: (Sim:0h48m53s) 
CPU  1 inst:   31000001 cyc:   28759831 now IPC :0.86500: AVG IPC :1.04426: L2-Pf-HR :-nan: L2-HR :0.79658: (Sim:0h48m56s) 
CPU  0 inst:   31000001 cyc:   28763527 now IPC :0.85567: AVG IPC :1.04415: L2-Pf-HR :-nan: L2-HR :0.79658: (Sim:0h48m57s) 
CPU  2 inst:   32000003 cyc:   29216507 now IPC :1.08291: AVG IPC :1.06281: L2-Pf-HR :-nan: L2-HR :0.79659: (Sim:0h49m24s) 
CPU  3 inst:   32000003 cyc:   29654970 now IPC :1.03913: AVG IPC :1.04657: L2-Pf-HR :-nan: L2-HR :0.79660: (Sim:0h49m48s) 
CPU  1 inst:   32000003 cyc:   29837335 now IPC :0.92807: AVG IPC :1.03992: L2-Pf-HR :-nan: L2-HR :0.79659: (Sim:0h49m58s) 
CPU  0 inst:   32000003 cyc:   29854141 now IPC :0.91692: AVG IPC :1.03934: L2-Pf-HR :-nan: L2-HR :0.79659: (Sim:0h50m0s) 
CPU  2 inst:   33000002 cyc:   30291362 now IPC :0.93036: AVG IPC :1.05795: L2-Pf-HR :-nan: L2-HR :0.79659: (Sim:0h50m26s) 
CPU  3 inst:   33000002 cyc:   30623355 now IPC :1.03265: AVG IPC :1.04611: L2-Pf-HR :-nan: L2-HR :0.79659: (Sim:0h50m45s) 
CPU  1 inst:   33000002 cyc:   30859614 now IPC :0.97821: AVG IPC :1.03781: L2-Pf-HR :-nan: L2-HR :0.79659: (Sim:0h50m58s) 
CPU  0 inst:   33000002 cyc:   30907713 now IPC :0.94915: AVG IPC :1.03617: L2-Pf-HR :-nan: L2-HR :0.79659: (Sim:0h51m1s) 
CPU  2 inst:   34000002 cyc:   31258898 now IPC :1.03355: AVG IPC :1.05717: L2-Pf-HR :-nan: L2-HR :0.79697: (Sim:0h51m23s) 
CPU  3 inst:   34000002 cyc:   31519922 now IPC :1.11537: AVG IPC :1.04814: L2-Pf-HR :-nan: L2-HR :0.79698: (Sim:0h51m37s) 
CPU  1 inst:   34000002 cyc:   31804449 now IPC :1.05839: AVG IPC :1.03844: L2-Pf-HR :-nan: L2-HR :0.79698: (Sim:0h51m54s) 
CPU  0 inst:   34000002 cyc:   31841158 now IPC :1.07130: AVG IPC :1.03723: L2-Pf-HR :-nan: L2-HR :0.79698: (Sim:0h51m57s) 
CPU  2 inst:   35000005 cyc:   32314771 now IPC :0.94709: AVG IPC :1.05346: L2-Pf-HR :-nan: L2-HR :0.79680: (Sim:0h52m23s) 
CPU  3 inst:   35000005 cyc:   32445337 now IPC :1.08060: AVG IPC :1.04910: L2-Pf-HR :-nan: L2-HR :0.79680: (Sim:0h52m31s) 
CPU  1 inst:   35000005 cyc:   32833391 now IPC :0.97188: AVG IPC :1.03629: L2-Pf-HR :-nan: L2-HR :0.79680: (Sim:0h52m54s) 
CPU  0 inst:   35000005 cyc:   32921125 now IPC :0.92596: AVG IPC :1.03347: L2-Pf-HR :-nan: L2-HR :0.79680: (Sim:0h52m59s) 
CPU  2 inst:   36000000 cyc:   33316145 now IPC :0.99862: AVG IPC :1.05176: L2-Pf-HR :-nan: L2-HR :0.79652: (Sim:0h53m23s) 
CPU  3 inst:   36000000 cyc:   33391902 now IPC :1.05645: AVG IPC :1.04931: L2-Pf-HR :-nan: L2-HR :0.79653: (Sim:0h53m28s) 
CPU  1 inst:   36000000 cyc:   33737679 now IPC :1.10584: AVG IPC :1.03821: L2-Pf-HR :-nan: L2-HR :0.79653: (Sim:0h53m50s) 
CPU  0 inst:   36000000 cyc:   33882164 now IPC :1.04054: AVG IPC :1.03367: L2-Pf-HR :-nan: L2-HR :0.79653: (Sim:0h53m59s) 
CPU  2 inst:   37000004 cyc:   34298344 now IPC :1.01813: AVG IPC :1.05077: L2-Pf-HR :-nan: L2-HR :0.79651: (Sim:0h54m23s) 
CPU  3 inst:   37000004 cyc:   34381617 now IPC :1.01040: AVG IPC :1.04816: L2-Pf-HR :-nan: L2-HR :0.79652: (Sim:0h54m27s) 
CPU  1 inst:   37000004 cyc:   34711956 now IPC :1.02641: AVG IPC :1.03787: L2-Pf-HR :-nan: L2-HR :0.79651: (Sim:0h54m46s) 
CPU  0 inst:   37000004 cyc:   34907702 now IPC :0.97510: AVG IPC :1.03190: L2-Pf-HR :-nan: L2-HR :0.79651: (Sim:0h54m58s) 
CPU  2 inst:   38000000 cyc:   35272793 now IPC :1.02622: AVG IPC :1.05007: L2-Pf-HR :-nan: L2-HR :0.79646: (Sim:0h55m20s) 
CPU  3 inst:   38000000 cyc:   35402143 now IPC :0.97988: AVG IPC :1.04614: L2-Pf-HR :-nan: L2-HR :0.79647: (Sim:0h55m27s) 
CPU  1 inst:   38000004 cyc:   35706103 now IPC :1.00589: AVG IPC :1.03695: L2-Pf-HR :-nan: L2-HR :0.79646: (Sim:0h55m44s) 
CPU  0 inst:   38000000 cyc:   35990814 now IPC :0.92326: AVG IPC :1.02854: L2-Pf-HR :-nan: L2-HR :0.79646: (Sim:0h56m0s) 
CPU  2 inst:   39000003 cyc:   36286147 now IPC :0.98682: AVG IPC :1.04825: L2-Pf-HR :-nan: L2-HR :0.79674: (Sim:0h56m18s) 
CPU  3 inst:   39000004 cyc:   36372643 now IPC :1.03040: AVG IPC :1.04570: L2-Pf-HR :-nan: L2-HR :0.79674: (Sim:0h56m23s) 
CPU  1 inst:   39000004 cyc:   36619036 now IPC :1.09537: AVG IPC :1.03845: L2-Pf-HR :-nan: L2-HR :0.79674: (Sim:0h56m38s) 
CPU  0 inst:   39000003 cyc:   36969656 now IPC :1.02162: AVG IPC :1.02835: L2-Pf-HR :-nan: L2-HR :0.79674: (Sim:0h56m57s) 
CPU  2 inst:   40000001 cyc:   37313641 now IPC :0.97324: AVG IPC :1.04613: L2-Pf-HR :-nan: L2-HR :0.79673: (Sim:0h57m17s) 
CPU  3 inst:   40000001 cyc:   37398012 now IPC :0.97526: AVG IPC :1.04372: L2-Pf-HR :-nan: L2-HR :0.79673: (Sim:0h57m22s) 
CPU  1 inst:   40000001 cyc:   37600119 now IPC :1.01928: AVG IPC :1.03794: L2-Pf-HR :-nan: L2-HR :0.79673: (Sim:0h57m35s) 
CPU  0 inst:   40000001 cyc:   37934708 now IPC :1.03621: AVG IPC :1.02856: L2-Pf-HR :-nan: L2-HR :0.79673: (Sim:0h57m55s) 
CPU  2 inst:   41000003 cyc:   38327856 now IPC :0.98599: AVG IPC :1.04450: L2-Pf-HR :-nan: L2-HR :0.79649: (Sim:0h58m17s) 
CPU  3 inst:   41000003 cyc:   38390742 now IPC :1.00733: AVG IPC :1.04275: L2-Pf-HR :-nan: L2-HR :0.79650: (Sim:0h58m21s) 
CPU  1 inst:   41000003 cyc:   38565828 now IPC :1.03551: AVG IPC :1.03787: L2-Pf-HR :-nan: L2-HR :0.79649: (Sim:0h58m32s) 
CPU  0 inst:   41000003 cyc:   38999364 now IPC :0.93927: AVG IPC :1.02606: L2-Pf-HR :-nan: L2-HR :0.79649: (Sim:0h58m57s) 
CPU  2 inst:   42000003 cyc:   40185699 now IPC :0.53826: AVG IPC :1.02050: L2-Pf-HR :-nan: L2-HR :0.79119: (Sim:0h59m35s) 
CPU  3 inst:   42000004 cyc:   40500999 now IPC :0.47388: AVG IPC :1.01237: L2-Pf-HR :-nan: L2-HR :0.79119: (Sim:0h59m44s) 
CPU  1 inst:   42000001 cyc:   40910280 now IPC :0.42654: AVG IPC :1.00197: L2-Pf-HR :-nan: L2-HR :0.79119: (Sim:0h59m55s) 
CPU  0 inst:   42000004 cyc:   42612454 now IPC :0.27677: AVG IPC :0.96101: L2-Pf-HR :-nan: L2-HR :0.79119: (Sim:1h0m45s) 
CPU  2 inst:   43000004 cyc:   59429855 now IPC :0.05196: AVG IPC :0.70157: L2-Pf-HR :-nan: L2-HR :0.73884: (Sim:1h14m57s) 
CPU  3 inst:   43000001 cyc:   59691064 now IPC :0.05211: AVG IPC :0.69845: L2-Pf-HR :-nan: L2-HR :0.73884: (Sim:1h15m13s) 
CPU  1 inst:   43000004 cyc:   60558146 now IPC :0.05090: AVG IPC :0.68827: L2-Pf-HR :-nan: L2-HR :0.73884: (Sim:1h16m5s) 
CPU  0 inst:   43000004 cyc:   62661885 now IPC :0.04988: AVG IPC :0.66481: L2-Pf-HR :-nan: L2-HR :0.73884: (Sim:1h18m4s) 
CPU  2 inst:   44000002 cyc:   68003118 now IPC :0.11664: AVG IPC :0.62673: L2-Pf-HR :-nan: L2-HR :0.72705: (Sim:1h22m40s) 
CPU  3 inst:   44000002 cyc:   68054003 now IPC :0.11958: AVG IPC :0.62627: L2-Pf-HR :-nan: L2-HR :0.72705: (Sim:1h22m43s) 
CPU  1 inst:   44000002 cyc:   68235014 now IPC :0.13026: AVG IPC :0.62457: L2-Pf-HR :-nan: L2-HR :0.72705: (Sim:1h22m52s) 
CPU  0 inst:   44000002 cyc:   68665938 now IPC :0.16655: AVG IPC :0.62060: L2-Pf-HR :-nan: L2-HR :0.72705: (Sim:1h23m15s) 
CPU  2 inst:   45000002 cyc:   73769698 now IPC :0.17341: AVG IPC :0.59082: L2-Pf-HR :-nan: L2-HR :0.71982: (Sim:1h27m42s) 
CPU  3 inst:   45000002 cyc:   73812676 now IPC :0.17365: AVG IPC :0.59047: L2-Pf-HR :-nan: L2-HR :0.71983: (Sim:1h27m44s) 
CPU  1 inst:   45000002 cyc:   74004493 now IPC :0.17333: AVG IPC :0.58891: L2-Pf-HR :-nan: L2-HR :0.71983: (Sim:1h27m55s) 
CPU  0 inst:   45000002 cyc:   74411579 now IPC :0.17404: AVG IPC :0.58566: L2-Pf-HR :-nan: L2-HR :0.71983: (Sim:1h28m16s) 
CPU  2 inst:   46000002 cyc:   79426557 now IPC :0.17678: AVG IPC :0.56096: L2-Pf-HR :-nan: L2-HR :0.71286: (Sim:1h32m41s) 
CPU  3 inst:   46000002 cyc:   79472097 now IPC :0.17670: AVG IPC :0.56064: L2-Pf-HR :-nan: L2-HR :0.71286: (Sim:1h32m43s) 
CPU  1 inst:   46000002 cyc:   79662729 now IPC :0.17673: AVG IPC :0.55927: L2-Pf-HR :-nan: L2-HR :0.71286: (Sim:1h32m53s) 
CPU  0 inst:   46000002 cyc:   80056211 now IPC :0.17716: AVG IPC :0.55649: L2-Pf-HR :-nan: L2-HR :0.71286: (Sim:1h33m14s) 
CPU  2 inst:   47000002 cyc:   84982952 now IPC :0.17997: AVG IPC :0.53575: L2-Pf-HR :-nan: L2-HR :0.70614: (Sim:1h37m38s) 
CPU  3 inst:   47000002 cyc:   85046583 now IPC :0.17939: AVG IPC :0.53535: L2-Pf-HR :-nan: L2-HR :0.70614: (Sim:1h37m41s) 
CPU  1 inst:   47000002 cyc:   85243829 now IPC :0.17918: AVG IPC :0.53409: L2-Pf-HR :-nan: L2-HR :0.70614: (Sim:1h37m52s) 
CPU  0 inst:   47000002 cyc:   85624194 now IPC :0.17960: AVG IPC :0.53170: L2-Pf-HR :-nan: L2-HR :0.70614: (Sim:1h38m12s) 
CPU  2 inst:   48000002 cyc:   90455466 now IPC :0.18273: AVG IPC :0.51416: L2-Pf-HR :-nan: L2-HR :0.69966: (Sim:1h42m30s) 
CPU  3 inst:   48000002 cyc:   90524538 now IPC :0.18255: AVG IPC :0.51377: L2-Pf-HR :-nan: L2-HR :0.69966: (Sim:1h42m33s) 
CPU  1 inst:   48000002 cyc:   90701045 now IPC :0.18324: AVG IPC :0.51275: L2-Pf-HR :-nan: L2-HR :0.69966: (Sim:1h42m43s) 
CPU  0 inst:   48000002 cyc:   91086821 now IPC :0.18306: AVG IPC :0.51056: L2-Pf-HR :-nan: L2-HR :0.69966: (Sim:1h43m3s) 
CPU  2 inst:   49000002 cyc:   95966752 now IPC :0.18145: AVG IPC :0.49485: L2-Pf-HR :-nan: L2-HR :0.69339: (Sim:1h47m24s) 
CPU  3 inst:   49000002 cyc:   96053938 now IPC :0.18085: AVG IPC :0.49440: L2-Pf-HR :-nan: L2-HR :0.69339: (Sim:1h47m29s) 
CPU  1 inst:   49000002 cyc:   96202757 now IPC :0.18176: AVG IPC :0.49362: L2-Pf-HR :-nan: L2-HR :0.69339: (Sim:1h47m37s) 
CPU  0 inst:   49000002 cyc:   96578260 now IPC :0.18210: AVG IPC :0.49169: L2-Pf-HR :-nan: L2-HR :0.69339: (Sim:1h47m58s) 
CPU  2 inst:   50000002 cyc:  101432496 now IPC :0.18296: AVG IPC :0.47788: L2-Pf-HR :-nan: L2-HR :0.68734: (Sim:1h52m17s) 
CPU  3 inst:   50000002 cyc:  101528052 now IPC :0.18268: AVG IPC :0.47743: L2-Pf-HR :-nan: L2-HR :0.68734: (Sim:1h52m22s) 
CPU  1 inst:   50000002 cyc:  101675301 now IPC :0.18273: AVG IPC :0.47672: L2-Pf-HR :-nan: L2-HR :0.68734: (Sim:1h52m30s) 
CPU  0 inst:   50000002 cyc:  102050630 now IPC :0.18274: AVG IPC :0.47496: L2-Pf-HR :-nan: L2-HR :0.68734: (Sim:1h52m50s) 
CPU  2 inst:   51000002 cyc:  106891892 now IPC :0.18317: AVG IPC :0.46269: L2-Pf-HR :-nan: L2-HR :0.68149: (Sim:1h57m10s) 
CPU  3 inst:   51000002 cyc:  106983607 now IPC :0.18330: AVG IPC :0.46229: L2-Pf-HR :-nan: L2-HR :0.68149: (Sim:1h57m15s) 
CPU  1 inst:   51000002 cyc:  107144566 now IPC :0.18284: AVG IPC :0.46158: L2-Pf-HR :-nan: L2-HR :0.68149: (Sim:1h57m24s) 
CPU  0 inst:   51000002 cyc:  107536506 now IPC :0.18229: AVG IPC :0.45989: L2-Pf-HR :-nan: L2-HR :0.68149: (Sim:1h57m45s) 
CPU  2 inst:   52000002 cyc:  112372429 now IPC :0.18246: AVG IPC :0.44890: L2-Pf-HR :-nan: L2-HR :0.67583: (Sim:2h2m13s) 
CPU  3 inst:   52000002 cyc:  112463574 now IPC :0.18248: AVG IPC :0.44854: L2-Pf-HR :-nan: L2-HR :0.67583: (Sim:2h2m18s) 
CPU  1 inst:   52000002 cyc:  112632947 now IPC :0.18220: AVG IPC :0.44785: L2-Pf-HR :-nan: L2-HR :0.67583: (Sim:2h2m27s) 
CPU  0 inst:   52000002 cyc:  112996900 now IPC :0.18314: AVG IPC :0.44640: L2-Pf-HR :-nan: L2-HR :0.67583: (Sim:2h2m47s) 
CPU  2 inst:   53000002 cyc:  117844728 now IPC :0.18274: AVG IPC :0.43643: L2-Pf-HR :-nan: L2-HR :0.67034: (Sim:2h7m15s) 
CPU  3 inst:   53000002 cyc:  117930105 now IPC :0.18293: AVG IPC :0.43612: L2-Pf-HR :-nan: L2-HR :0.67035: (Sim:2h7m20s) 
CPU  1 inst:   53000002 cyc:  118103051 now IPC :0.18281: AVG IPC :0.43547: L2-Pf-HR :-nan: L2-HR :0.67035: (Sim:2h7m30s) 
CPU  0 inst:   53000002 cyc:  118476367 now IPC :0.18250: AVG IPC :0.43409: L2-Pf-HR :-nan: L2-HR :0.67035: (Sim:2h7m50s) 
CPU  2 inst:   54000002 cyc:  123283299 now IPC :0.18387: AVG IPC :0.42520: L2-Pf-HR :-nan: L2-HR :0.66504: (Sim:2h11m33s) 
CPU  3 inst:   54000002 cyc:  123372883 now IPC :0.18373: AVG IPC :0.42490: L2-Pf-HR :-nan: L2-HR :0.66504: (Sim:2h11m36s) 
CPU  1 inst:   54000002 cyc:  123568511 now IPC :0.18297: AVG IPC :0.42421: L2-Pf-HR :-nan: L2-HR :0.66504: (Sim:2h11m45s) 
CPU  0 inst:   54000002 cyc:  123950231 now IPC :0.18269: AVG IPC :0.42290: L2-Pf-HR :-nan: L2-HR :0.66504: (Sim:2h12m4s) 
CPU  2 inst:   55000002 cyc:  128789617 now IPC :0.18161: AVG IPC :0.41471: L2-Pf-HR :-nan: L2-HR :0.65989: (Sim:2h15m52s) 
CPU  3 inst:   55000002 cyc:  128880749 now IPC :0.18156: AVG IPC :0.41442: L2-Pf-HR :-nan: L2-HR :0.65989: (Sim:2h15m56s) 
CPU  1 inst:   55000002 cyc:  129075152 now IPC :0.18160: AVG IPC :0.41378: L2-Pf-HR :-nan: L2-HR :0.65989: (Sim:2h16m5s) 
CPU  0 inst:   55000002 cyc:  129427256 now IPC :0.18258: AVG IPC :0.41265: L2-Pf-HR :-nan: L2-HR :0.65989: (Sim:2h16m22s) 
CPU  2 inst:   56000002 cyc:  134250798 now IPC :0.18311: AVG IPC :0.40522: L2-Pf-HR :-nan: L2-HR :0.65491: (Sim:2h20m3s) 
CPU  3 inst:   56000002 cyc:  134346915 now IPC :0.18294: AVG IPC :0.40493: L2-Pf-HR :-nan: L2-HR :0.65491: (Sim:2h20m8s) 
CPU  1 inst:   56000002 cyc:  134559379 now IPC :0.18234: AVG IPC :0.40428: L2-Pf-HR :-nan: L2-HR :0.65491: (Sim:2h20m19s) 
CPU  0 inst:   56000002 cyc:  134900913 now IPC :0.18269: AVG IPC :0.40325: L2-Pf-HR :-nan: L2-HR :0.65491: (Sim:2h20m35s) 
CPU  2 inst:   57000002 cyc:  139743635 now IPC :0.18206: AVG IPC :0.39638: L2-Pf-HR :-nan: L2-HR :0.65007: (Sim:2h24m22s) 
CPU  3 inst:   57000002 cyc:  139828801 now IPC :0.18242: AVG IPC :0.39614: L2-Pf-HR :-nan: L2-HR :0.65007: (Sim:2h24m25s) 
CPU  1 inst:   57000002 cyc:  140038024 now IPC :0.18253: AVG IPC :0.39554: L2-Pf-HR :-nan: L2-HR :0.65007: (Sim:2h24m36s) 
CPU  0 inst:   57000002 cyc:  140385469 now IPC :0.18233: AVG IPC :0.39456: L2-Pf-HR :-nan: L2-HR :0.65007: (Sim:2h24m53s) 
CPU  2 inst:   58000002 cyc:  145236465 now IPC :0.18206: AVG IPC :0.38822: L2-Pf-HR :-nan: L2-HR :0.64538: (Sim:2h28m37s) 
CPU  3 inst:   58000002 cyc:  145327520 now IPC :0.18186: AVG IPC :0.38798: L2-Pf-HR :-nan: L2-HR :0.64538: (Sim:2h28m41s) 
CPU  1 inst:   58000002 cyc:  145542887 now IPC :0.18166: AVG IPC :0.38740: L2-Pf-HR :-nan: L2-HR :0.64538: (Sim:2h28m52s) 
CPU  0 inst:   58000002 cyc:  145886884 now IPC :0.18177: AVG IPC :0.38648: L2-Pf-HR :-nan: L2-HR :0.64538: (Sim:2h29m8s) 
CPU  2 inst:   59000002 cyc:  150724336 now IPC :0.18222: AVG IPC :0.38067: L2-Pf-HR :-nan: L2-HR :0.64082: (Sim:2h32m54s) 
CPU  3 inst:   59000002 cyc:  150808930 now IPC :0.18243: AVG IPC :0.38046: L2-Pf-HR :-nan: L2-HR :0.64082: (Sim:2h32m58s) 
CPU  1 inst:   59000002 cyc:  151031828 now IPC :0.18218: AVG IPC :0.37989: L2-Pf-HR :-nan: L2-HR :0.64082: (Sim:2h33m8s) 
CPU  0 inst:   59000002 cyc:  151359633 now IPC :0.18272: AVG IPC :0.37907: L2-Pf-HR :-nan: L2-HR :0.64082: (Sim:2h33m25s) 
CPU  2 inst:   60000004 cyc:  154917608 now IPC :0.23848: AVG IPC :0.37680: L2-Pf-HR :-nan: L2-HR :0.63606: (Sim:2h36m24s) 
CPU  3 inst:   60000004 cyc:  155129406 now IPC :0.23146: AVG IPC :0.37628: L2-Pf-HR :-nan: L2-HR :0.63603: (Sim:2h36m42s) 
CPU  1 inst:   60000004 cyc:  155569920 now IPC :0.22036: AVG IPC :0.37520: L2-Pf-HR :-nan: L2-HR :0.63606: (Sim:2h37m36s) 
CPU  2 inst:   61000001 cyc:  155821001 now IPC :1.10693: AVG IPC :0.38106: L2-Pf-HR :-nan: L2-HR :0.63915: (Sim:2h38m9s) 
CPU  0 inst:   60000004 cyc:  155980026 now IPC :0.21643: AVG IPC :0.37422: L2-Pf-HR :-nan: L2-HR :0.63605: (Sim:2h38m27s) 
CPU  3 inst:   61000001 cyc:  156056010 now IPC :1.07921: AVG IPC :0.38048: L2-Pf-HR :-nan: L2-HR :0.63911: (Sim:2h38m38s) 
CPU  1 inst:   61000001 cyc:  156357252 now IPC :1.27011: AVG IPC :0.37974: L2-Pf-HR :-nan: L2-HR :0.63916: (Sim:2h39m19s) 
CPU  2 inst:   62000005 cyc:  156605327 now IPC :1.27499: AVG IPC :0.38556: L2-Pf-HR :-nan: L2-HR :0.64138: (Sim:2h39m56s) 
CPU  0 inst:   61000001 cyc:  156732520 now IPC :1.32891: AVG IPC :0.37883: L2-Pf-HR :-nan: L2-HR :0.63914: (Sim:2h40m10s) 
CPU  3 inst:   62000005 cyc:  156762619 now IPC :1.41522: AVG IPC :0.38518: L2-Pf-HR :-nan: L2-HR :0.64134: (Sim:2h40m15s) 
CPU  1 inst:   62000005 cyc:  157116647 now IPC :1.31684: AVG IPC :0.38430: L2-Pf-HR :-nan: L2-HR :0.64133: (Sim:2h40m56s) 
CPU  2 inst:   63000003 cyc:  157463026 now IPC :1.16591: AVG IPC :0.38984: L2-Pf-HR :-nan: L2-HR :0.64434: (Sim:2h41m46s) 
CPU  0 inst:   62000005 cyc:  157517330 now IPC :1.27420: AVG IPC :0.38332: L2-Pf-HR :-nan: L2-HR :0.64144: (Sim:2h41m54s) 
CPU  3 inst:   63000003 cyc:  157631372 now IPC :1.15107: AVG IPC :0.38942: L2-Pf-HR :-nan: L2-HR :0.64429: (Sim:2h42m7s) 
CPU  1 inst:   63000003 cyc:  157926902 now IPC :1.23418: AVG IPC :0.38869: L2-Pf-HR :-nan: L2-HR :0.64426: (Sim:2h42m30s) 
CPU  2 inst:   64000003 cyc:  158353196 now IPC :1.12338: AVG IPC :0.39399: L2-Pf-HR :-nan: L2-HR :0.64702: (Sim:2h43m3s) 
CPU  0 inst:   63000003 cyc:  158383172 now IPC :1.15494: AVG IPC :0.38756: L2-Pf-HR :-nan: L2-HR :0.64440: (Sim:2h43m6s) 
CPU  3 inst:   64000003 cyc:  158503069 now IPC :1.14719: AVG IPC :0.39362: L2-Pf-HR :-nan: L2-HR :0.64697: (Sim:2h43m16s) 
CPU  1 inst:   64000003 cyc:  158812013 now IPC :1.12980: AVG IPC :0.39284: L2-Pf-HR :-nan: L2-HR :0.64695: (Sim:2h43m43s) 
CPU  2 inst:   65000001 cyc:  158989939 now IPC :1.57049: AVG IPC :0.39873: L2-Pf-HR :-nan: L2-HR :0.64967: (Sim:2h43m57s) 
CPU  3 inst:   65000001 cyc:  159127598 now IPC :1.60120: AVG IPC :0.39839: L2-Pf-HR :-nan: L2-HR :0.64962: (Sim:2h44m7s) 
CPU  0 inst:   64000003 cyc:  159247095 now IPC :1.15751: AVG IPC :0.39177: L2-Pf-HR :-nan: L2-HR :0.64708: (Sim:2h44m16s) 
CPU  1 inst:   65000001 cyc:  159515825 now IPC :1.42083: AVG IPC :0.39741: L2-Pf-HR :-nan: L2-HR :0.64959: (Sim:2h44m35s) 
CPU  2 inst:   66000004 cyc:  159900586 now IPC :1.09812: AVG IPC :0.40274: L2-Pf-HR :-nan: L2-HR :0.65188: (Sim:2h45m7s) 
CPU  0 inst:   65000001 cyc:  159933185 now IPC :1.45753: AVG IPC :0.39637: L2-Pf-HR :-nan: L2-HR :0.64973: (Sim:2h45m10s) 
CPU  3 inst:   66000004 cyc:  160032406 now IPC :1.10521: AVG IPC :0.40241: L2-Pf-HR :-nan: L2-HR :0.65183: (Sim:2h45m18s) 
CPU  1 inst:   66000004 cyc:  160351800 now IPC :1.19621: AVG IPC :0.40160: L2-Pf-HR :-nan: L2-HR :0.65181: (Sim:2h45m43s) 
CPU  2 inst:   67000002 cyc:  160793889 now IPC :1.11944: AVG IPC :0.40675: L2-Pf-HR :-nan: L2-HR :0.65444: (Sim:2h46m17s) 
CPU  0 inst:   66000004 cyc:  160816084 now IPC :1.13264: AVG IPC :0.40043: L2-Pf-HR :-nan: L2-HR :0.65194: (Sim:2h46m18s) 
CPU  3 inst:   67000002 cyc:  160921517 now IPC :1.12472: AVG IPC :0.40642: L2-Pf-HR :-nan: L2-HR :0.65439: (Sim:2h46m27s) 
CPU  1 inst:   67000002 cyc:  161191363 now IPC :1.19109: AVG IPC :0.40573: L2-Pf-HR :-nan: L2-HR :0.65425: (Sim:2h47m1s) 
CPU  2 inst:   68000002 cyc:  161613515 now IPC :1.22007: AVG IPC :0.41090: L2-Pf-HR :-nan: L2-HR :0.65686: (Sim:2h47m55s) 
CPU  0 inst:   67000002 cyc:  161643162 now IPC :1.20907: AVG IPC :0.40460: L2-Pf-HR :-nan: L2-HR :0.65447: (Sim:2h47m59s) 
CPU  3 inst:   68000002 cyc:  161712725 now IPC :1.26389: AVG IPC :0.41064: L2-Pf-HR :-nan: L2-HR :0.65681: (Sim:2h48m10s) 
CPU  1 inst:   68000002 cyc:  161982001 now IPC :1.26480: AVG IPC :0.40995: L2-Pf-HR :-nan: L2-HR :0.65667: (Sim:2h48m48s) 
CPU  2 inst:   69000004 cyc:  162201418 now IPC :1.70096: AVG IPC :0.41560: L2-Pf-HR :-nan: L2-HR :0.65884: (Sim:2h49m18s) 
CPU  3 inst:   69000004 cyc:  162304951 now IPC :1.68855: AVG IPC :0.41534: L2-Pf-HR :-nan: L2-HR :0.65880: (Sim:2h49m32s) 
CPU  0 inst:   68000002 cyc:  162351060 now IPC :1.41263: AVG IPC :0.40902: L2-Pf-HR :-nan: L2-HR :0.65688: (Sim:2h49m39s) 
CPU  1 inst:   69000004 cyc:  162584116 now IPC :1.66082: AVG IPC :0.41461: L2-Pf-HR :-nan: L2-HR :0.65866: (Sim:2h50m8s) 
CPU  2 inst:   70000003 cyc:  162937147 now IPC :1.35919: AVG IPC :0.41989: L2-Pf-HR :-nan: L2-HR :0.66128: (Sim:2h50m57s) 
CPU  0 inst:   69000004 cyc:  162970618 now IPC :1.61406: AVG IPC :0.41363: L2-Pf-HR :-nan: L2-HR :0.65886: (Sim:2h51m3s) 
CPU  3 inst:   70000003 cyc:  163047095 now IPC :1.34745: AVG IPC :0.41960: L2-Pf-HR :-nan: L2-HR :0.66124: (Sim:2h51m13s) 
CPU  1 inst:   70000003 cyc:  163290536 now IPC :1.41559: AVG IPC :0.41897: L2-Pf-HR :-nan: L2-HR :0.66110: (Sim:2h51m48s) 
CPU  2 inst:   71000003 cyc:  163663104 now IPC :1.37749: AVG IPC :0.42416: L2-Pf-HR :-nan: L2-HR :0.66331: (Sim:2h52m39s) 
CPU  0 inst:   70000003 cyc:  163674350 now IPC :1.42099: AVG IPC :0.41799: L2-Pf-HR :-nan: L2-HR :0.66130: (Sim:2h52m40s) 
CPU  3 inst:   71000003 cyc:  163784291 now IPC :1.35649: AVG IPC :0.42385: L2-Pf-HR :-nan: L2-HR :0.66332: (Sim:2h52m55s) 
CPU  1 inst:   71000003 cyc:  164016491 now IPC :1.37750: AVG IPC :0.42324: L2-Pf-HR :-nan: L2-HR :0.66315: (Sim:2h53m30s) 
CPU  2 inst:   72000001 cyc:  164284720 now IPC :1.60871: AVG IPC :0.42867: L2-Pf-HR :-nan: L2-HR :0.66564: (Sim:2h54m7s) 
CPU  0 inst:   71000003 cyc:  164394074 now IPC :1.38942: AVG IPC :0.42227: L2-Pf-HR :-nan: L2-HR :0.66337: (Sim:2h54m19s) 
CPU  3 inst:   72000001 cyc:  164422448 now IPC :1.56701: AVG IPC :0.42831: L2-Pf-HR :-nan: L2-HR :0.66564: (Sim:2h54m24s) 
CPU  1 inst:   72000001 cyc:  164680067 now IPC :1.50698: AVG IPC :0.42763: L2-Pf-HR :-nan: L2-HR :0.66549: (Sim:2h55m1s) 
CPU  2 inst:   73000001 cyc:  164958428 now IPC :1.48432: AVG IPC :0.43301: L2-Pf-HR :-nan: L2-HR :0.66721: (Sim:2h55m42s) 
CPU  0 inst:   72000001 cyc:  165033842 now IPC :1.56306: AVG IPC :0.42671: L2-Pf-HR :-nan: L2-HR :0.66570: (Sim:2h55m52s) 
CPU  3 inst:   73000001 cyc:  165066937 now IPC :1.55162: AVG IPC :0.43272: L2-Pf-HR :-nan: L2-HR :0.66732: (Sim:2h55m56s) 
CPU  1 inst:   73000001 cyc:  165332198 now IPC :1.53343: AVG IPC :0.43202: L2-Pf-HR :-nan: L2-HR :0.66717: (Sim:2h56m30s) 
CPU  0 inst:   73000001 cyc:  165717443 now IPC :1.46284: AVG IPC :0.43101: L2-Pf-HR :-nan: L2-HR :0.66732: (Sim:2h57m23s) 
CPU  2 inst:   74000002 cyc:  165717984 now IPC :1.31656: AVG IPC :0.43708: L2-Pf-HR :-nan: L2-HR :0.66936: (Sim:2h57m24s) 
CPU  3 inst:   74000002 cyc:  165814391 now IPC :1.33788: AVG IPC :0.43683: L2-Pf-HR :-nan: L2-HR :0.66947: (Sim:2h57m40s) 
CPU  1 inst:   74000002 cyc:  166060716 now IPC :1.37265: AVG IPC :0.43617: L2-Pf-HR :-nan: L2-HR :0.66932: (Sim:2h58m12s) 
CPU  0 inst:   74000002 cyc:  166446477 now IPC :1.37168: AVG IPC :0.43516: L2-Pf-HR :-nan: L2-HR :0.66946: (Sim:2h59m3s) 
CPU  2 inst:   75000002 cyc:  166455865 now IPC :1.35523: AVG IPC :0.44118: L2-Pf-HR :-nan: L2-HR :0.67123: (Sim:2h59m4s) 
CPU  3 inst:   75000002 cyc:  166557495 now IPC :1.34571: AVG IPC :0.44091: L2-Pf-HR :-nan: L2-HR :0.67141: (Sim:2h59m19s) 
CPU  1 inst:   75000002 cyc:  166791723 now IPC :1.36798: AVG IPC :0.44028: L2-Pf-HR :-nan: L2-HR :0.67127: (Sim:2h59m52s) 
CPU  2 inst:   76000005 cyc:  167022888 now IPC :1.76360: AVG IPC :0.44569: L2-Pf-HR :-nan: L2-HR :0.67326: (Sim:3h0m25s) 
CPU  3 inst:   76000005 cyc:  167136399 now IPC :1.72741: AVG IPC :0.44539: L2-Pf-HR :-nan: L2-HR :0.67344: (Sim:3h0m43s) 
CPU  0 inst:   75000002 cyc:  167154091 now IPC :1.41320: AVG IPC :0.43932: L2-Pf-HR :-nan: L2-HR :0.67140: (Sim:3h0m45s) 
CPU  1 inst:   76000005 cyc:  167388386 now IPC :1.67599: AVG IPC :0.44471: L2-Pf-HR :-nan: L2-HR :0.67329: (Sim:3h1m14s) 
CPU  0 inst:   76000005 cyc:  167762084 now IPC :1.64476: AVG IPC :0.44372: L2-Pf-HR :-nan: L2-HR :0.67343: (Sim:3h2m7s) 
CPU  2 inst:   77000000 cyc:  167765724 now IPC :1.34619: AVG IPC :0.44970: L2-Pf-HR :-nan: L2-HR :0.67475: (Sim:3h2m7s) 
CPU  3 inst:   77000000 cyc:  167889785 now IPC :1.32733: AVG IPC :0.44937: L2-Pf-HR :-nan: L2-HR :0.67489: (Sim:3h2m25s) 
CPU  1 inst:   77000000 cyc:  168111355 now IPC :1.38318: AVG IPC :0.44877: L2-Pf-HR :-nan: L2-HR :0.67479: (Sim:3h2m55s) 
CPU  2 inst:   78000001 cyc:  168496074 now IPC :1.36921: AVG IPC :0.45371: L2-Pf-HR :-nan: L2-HR :0.67663: (Sim:3h3m46s) 
CPU  0 inst:   77000000 cyc:  168498677 now IPC :1.35760: AVG IPC :0.44774: L2-Pf-HR :-nan: L2-HR :0.67495: (Sim:3h3m46s) 
CPU  3 inst:   78000001 cyc:  168606872 now IPC :1.39453: AVG IPC :0.45341: L2-Pf-HR :-nan: L2-HR :0.67677: (Sim:3h4m2s) 
CPU  1 inst:   78000001 cyc:  168825705 now IPC :1.39988: AVG IPC :0.45282: L2-Pf-HR :-nan: L2-HR :0.67667: (Sim:3h4m35s) 
CPU  2 inst:   79000000 cyc:  169216046 now IPC :1.38894: AVG IPC :0.45771: L2-Pf-HR :-nan: L2-HR :0.67842: (Sim:3h5m30s) 
CPU  0 inst:   78000001 cyc:  169216407 now IPC :1.39328: AVG IPC :0.45177: L2-Pf-HR :-nan: L2-HR :0.67682: (Sim:3h5m30s) 
CPU  3 inst:   79000000 cyc:  169321644 now IPC :1.39905: AVG IPC :0.45743: L2-Pf-HR :-nan: L2-HR :0.67855: (Sim:3h5m45s) 
CPU  1 inst:   79000000 cyc:  169569052 now IPC :1.34527: AVG IPC :0.45675: L2-Pf-HR :-nan: L2-HR :0.67828: (Sim:3h6m21s) 
CPU  2 inst:   80000004 cyc:  169793554 now IPC :1.73158: AVG IPC :0.46207: L2-Pf-HR :-nan: L2-HR :0.67997: (Sim:3h6m53s) 
CPU  3 inst:   80000004 cyc:  169909190 now IPC :1.70200: AVG IPC :0.46176: L2-Pf-HR :-nan: L2-HR :0.68011: (Sim:3h7m9s) 
CPU  0 inst:   79000000 cyc:  169920238 now IPC :1.42079: AVG IPC :0.45581: L2-Pf-HR :-nan: L2-HR :0.67850: (Sim:3h7m10s) 
CPU  1 inst:   80000004 cyc:  170175145 now IPC :1.64992: AVG IPC :0.46103: L2-Pf-HR :-nan: L2-HR :0.67980: (Sim:3h7m44s) 
CPU  2 inst:   81000005 cyc:  170526447 now IPC :1.36446: AVG IPC :0.46597: L2-Pf-HR :-nan: L2-HR :0.68180: (Sim:3h8m34s) 
CPU  0 inst:   80000004 cyc:  170538388 now IPC :1.61774: AVG IPC :0.46005: L2-Pf-HR :-nan: L2-HR :0.68006: (Sim:3h8m36s) 
CPU  3 inst:   81000005 cyc:  170635579 now IPC :1.37667: AVG IPC :0.46568: L2-Pf-HR :-nan: L2-HR :0.68193: (Sim:3h8m51s) 
CPU  1 inst:   81000005 cyc:  170877150 now IPC :1.42449: AVG IPC :0.46501: L2-Pf-HR :-nan: L2-HR :0.68159: (Sim:3h9m24s) 
CPU  0 inst:   81000005 cyc:  171265600 now IPC :1.37512: AVG IPC :0.46395: L2-Pf-HR :-nan: L2-HR :0.68187: (Sim:3h10m14s) 
CPU  2 inst:   82000005 cyc:  171272017 now IPC :1.34126: AVG IPC :0.46981: L2-Pf-HR :-nan: L2-HR :0.68338: (Sim:3h10m15s) 
CPU  3 inst:   82000005 cyc:  171398334 now IPC :1.31104: AVG IPC :0.46946: L2-Pf-HR :-nan: L2-HR :0.68350: (Sim:3h10m32s) 
CPU  1 inst:   82000005 cyc:  171630420 now IPC :1.32755: AVG IPC :0.46882: L2-Pf-HR :-nan: L2-HR :0.68315: (Sim:3h11m7s) 
CPU  2 inst:   83000002 cyc:  171886236 now IPC :1.62808: AVG IPC :0.47397: L2-Pf-HR :-nan: L2-HR :0.68523: (Sim:3h11m42s) 
CPU  0 inst:   82000005 cyc:  171995082 now IPC :1.37084: AVG IPC :0.46782: L2-Pf-HR :-nan: L2-HR :0.68344: (Sim:3h11m55s) 
CPU  3 inst:   83000002 cyc:  172026926 now IPC :1.59085: AVG IPC :0.47358: L2-Pf-HR :-nan: L2-HR :0.68535: (Sim:3h11m59s) 
CPU  1 inst:   83000002 cyc:  172264278 now IPC :1.57764: AVG IPC :0.47292: L2-Pf-HR :-nan: L2-HR :0.68500: (Sim:3h12m33s) 
CPU  2 inst:   84000003 cyc:  172558845 now IPC :1.48675: AVG IPC :0.47794: L2-Pf-HR :-nan: L2-HR :0.68647: (Sim:3h13m16s) 
CPU  0 inst:   83000002 cyc:  172629003 now IPC :1.57748: AVG IPC :0.47192: L2-Pf-HR :-nan: L2-HR :0.68529: (Sim:3h13m26s) 
CPU  3 inst:   84000003 cyc:  172696266 now IPC :1.49401: AVG IPC :0.47756: L2-Pf-HR :-nan: L2-HR :0.68659: (Sim:3h13m35s) 
CPU  1 inst:   84000003 cyc:  172932092 now IPC :1.49742: AVG IPC :0.47690: L2-Pf-HR :-nan: L2-HR :0.68625: (Sim:3h14m6s) 
CPU  2 inst:   85000004 cyc:  173293215 now IPC :1.36171: AVG IPC :0.48171: L2-Pf-HR :-nan: L2-HR :0.68809: (Sim:3h14m55s) 
CPU  0 inst:   84000003 cyc:  173310474 now IPC :1.46742: AVG IPC :0.47586: L2-Pf-HR :-nan: L2-HR :0.68654: (Sim:3h14m57s) 
CPU  3 inst:   85000004 cyc:  173409918 now IPC :1.40124: AVG IPC :0.48138: L2-Pf-HR :-nan: L2-HR :0.68820: (Sim:3h15m14s) 
CPU  1 inst:   85000004 cyc:  173662479 now IPC :1.36914: AVG IPC :0.48067: L2-Pf-HR :-nan: L2-HR :0.68787: (Sim:3h15m47s) 
CPU  2 inst:   86000004 cyc:  174039910 now IPC :1.33923: AVG IPC :0.48541: L2-Pf-HR :-nan: L2-HR :0.68956: (Sim:3h16m37s) 
CPU  0 inst:   85000004 cyc:  174046172 now IPC :1.35925: AVG IPC :0.47961: L2-Pf-HR :-nan: L2-HR :0.68813: (Sim:3h16m38s) 
CPU  3 inst:   86000004 cyc:  174147502 now IPC :1.35578: AVG IPC :0.48511: L2-Pf-HR :-nan: L2-HR :0.68966: (Sim:3h16m54s) 
CPU  1 inst:   86000004 cyc:  174414272 now IPC :1.33015: AVG IPC :0.48436: L2-Pf-HR :-nan: L2-HR :0.68934: (Sim:3h17m33s) 
CPU  2 inst:   87000004 cyc:  174618912 now IPC :1.72711: AVG IPC :0.48955: L2-Pf-HR :-nan: L2-HR :0.69117: (Sim:3h18m1s) 
CPU  3 inst:   87000004 cyc:  174730370 now IPC :1.71565: AVG IPC :0.48924: L2-Pf-HR :-nan: L2-HR :0.69128: (Sim:3h18m18s) 
CPU  0 inst:   86000004 cyc:  174760773 now IPC :1.39938: AVG IPC :0.48339: L2-Pf-HR :-nan: L2-HR :0.68954: (Sim:3h18m22s) 
CPU  1 inst:   87000004 cyc:  175013790 now IPC :1.66801: AVG IPC :0.48843: L2-Pf-HR :-nan: L2-HR :0.69095: (Sim:3h18m53s) 
CPU  2 inst:   88000002 cyc:  175350134 now IPC :1.36757: AVG IPC :0.49323: L2-Pf-HR :-nan: L2-HR :0.69238: (Sim:3h19m42s) 
CPU  0 inst:   87000004 cyc:  175371488 now IPC :1.63742: AVG IPC :0.48744: L2-Pf-HR :-nan: L2-HR :0.69111: (Sim:3h19m46s) 
CPU  3 inst:   88000002 cyc:  175471934 now IPC :1.34850: AVG IPC :0.49289: L2-Pf-HR :-nan: L2-HR :0.69249: (Sim:3h20m0s) 
CPU  1 inst:   88000002 cyc:  175725722 now IPC :1.40463: AVG IPC :0.49217: L2-Pf-HR :-nan: L2-HR :0.69217: (Sim:3h20m35s) 
CPU  2 inst:   89000003 cyc:  176091323 now IPC :1.34918: AVG IPC :0.49685: L2-Pf-HR :-nan: L2-HR :0.69382: (Sim:3h21m24s) 
CPU  0 inst:   88000002 cyc:  176099898 now IPC :1.37285: AVG IPC :0.49112: L2-Pf-HR :-nan: L2-HR :0.69232: (Sim:3h21m25s) 
CPU  3 inst:   89000003 cyc:  176205035 now IPC :1.36407: AVG IPC :0.49653: L2-Pf-HR :-nan: L2-HR :0.69392: (Sim:3h21m39s) 
CPU  1 inst:   89000003 cyc:  176447620 now IPC :1.38524: AVG IPC :0.49584: L2-Pf-HR :-nan: L2-HR :0.69361: (Sim:3h22m15s) 
CPU  2 inst:   90000003 cyc:  176800754 now IPC :1.40958: AVG IPC :0.50053: L2-Pf-HR :-nan: L2-HR :0.69518: (Sim:3h23m0s) 
CPU  0 inst:   89000003 cyc:  176829603 now IPC :1.37042: AVG IPC :0.49477: L2-Pf-HR :-nan: L2-HR :0.69376: (Sim:3h23m4s) 
CPU  3 inst:   90000003 cyc:  176923623 now IPC :1.39162: AVG IPC :0.50019: L2-Pf-HR :-nan: L2-HR :0.69521: (Sim:3h23m17s) 
CPU  1 inst:   90000003 cyc:  177171832 now IPC :1.38081: AVG IPC :0.49948: L2-Pf-HR :-nan: L2-HR :0.69493: (Sim:3h23m53s) 
CPU  2 inst:   91000000 cyc:  177379751 now IPC :1.72712: AVG IPC :0.50456: L2-Pf-HR :-nan: L2-HR :0.69644: (Sim:3h24m24s) 
CPU  3 inst:   91000000 cyc:  177518156 now IPC :1.68199: AVG IPC :0.50417: L2-Pf-HR :-nan: L2-HR :0.69645: (Sim:3h24m43s) 
CPU  0 inst:   90000003 cyc:  177535823 now IPC :1.41599: AVG IPC :0.49845: L2-Pf-HR :-nan: L2-HR :0.69512: (Sim:3h24m46s) 
CPU  1 inst:   91000000 cyc:  177759661 now IPC :1.70117: AVG IPC :0.50347: L2-Pf-HR :-nan: L2-HR :0.69619: (Sim:3h25m15s) 
CPU  2 inst:   92000001 cyc:  178101850 now IPC :1.38485: AVG IPC :0.50815: L2-Pf-HR :-nan: L2-HR :0.69784: (Sim:3h26m2s) 
CPU  0 inst:   91000000 cyc:  178138417 now IPC :1.65949: AVG IPC :0.50240: L2-Pf-HR :-nan: L2-HR :0.69638: (Sim:3h26m8s) 
CPU  3 inst:   92000001 cyc:  178228695 now IPC :1.40738: AVG IPC :0.50779: L2-Pf-HR :-nan: L2-HR :0.69786: (Sim:3h26m21s) 
CPU  1 inst:   92000001 cyc:  178472828 now IPC :1.40220: AVG IPC :0.50709: L2-Pf-HR :-nan: L2-HR :0.69761: (Sim:3h26m55s) 
CPU  2 inst:   93000001 cyc:  178831058 now IPC :1.37135: AVG IPC :0.51169: L2-Pf-HR :-nan: L2-HR :0.69897: (Sim:3h27m43s) 
CPU  0 inst:   92000001 cyc:  178854426 now IPC :1.39663: AVG IPC :0.50600: L2-Pf-HR :-nan: L2-HR :0.69779: (Sim:3h27m46s) 
CPU  3 inst:   93000001 cyc:  178982056 now IPC :1.32738: AVG IPC :0.51126: L2-Pf-HR :-nan: L2-HR :0.69894: (Sim:3h28m3s) 
CPU  1 inst:   93000001 cyc:  179209992 now IPC :1.35655: AVG IPC :0.51060: L2-Pf-HR :-nan: L2-HR :0.69882: (Sim:3h28m37s) 
CPU  2 inst:   94000005 cyc:  179448345 now IPC :1.62000: AVG IPC :0.51552: L2-Pf-HR :-nan: L2-HR :0.70049: (Sim:3h29m10s) 
CPU  0 inst:   93000001 cyc:  179591590 now IPC :1.35655: AVG IPC :0.50951: L2-Pf-HR :-nan: L2-HR :0.69900: (Sim:3h29m29s) 
CPU  3 inst:   94000005 cyc:  179603688 now IPC :1.60868: AVG IPC :0.51508: L2-Pf-HR :-nan: L2-HR :0.70047: (Sim:3h29m30s) 
CPU  1 inst:   94000005 cyc:  179845663 now IPC :1.57315: AVG IPC :0.51438: L2-Pf-HR :-nan: L2-HR :0.70035: (Sim:3h30m5s) 
CPU  2 inst:   95000005 cyc:  180123047 now IPC :1.48214: AVG IPC :0.51916: L2-Pf-HR :-nan: L2-HR :0.70142: (Sim:3h30m32s) 
CPU  0 inst:   94000001 cyc:  180210677 now IPC :1.61528: AVG IPC :0.51333: L2-Pf-HR :-nan: L2-HR :0.70053: (Sim:3h30m39s) 
CPU  3 inst:   95000005 cyc:  180287945 now IPC :1.46144: AVG IPC :0.51869: L2-Pf-HR :-nan: L2-HR :0.70139: (Sim:3h30m45s) 
CPU  1 inst:   95000005 cyc:  180534099 now IPC :1.45257: AVG IPC :0.51797: L2-Pf-HR :-nan: L2-HR :0.70128: (Sim:3h31m4s) 
CPU  2 inst:   96000000 cyc:  180844532 now IPC :1.38602: AVG IPC :0.52264: L2-Pf-HR :-nan: L2-HR :0.70268: (Sim:3h31m29s) 
CPU  0 inst:   95000005 cyc:  180900463 now IPC :1.44973: AVG IPC :0.51692: L2-Pf-HR :-nan: L2-HR :0.70145: (Sim:3h31m33s) 
CPU  3 inst:   96000000 cyc:  181005037 now IPC :1.39451: AVG IPC :0.52218: L2-Pf-HR :-nan: L2-HR :0.70266: (Sim:3h31m43s) 
CPU  1 inst:   96000000 cyc:  181261774 now IPC :1.37423: AVG IPC :0.52143: L2-Pf-HR :-nan: L2-HR :0.70255: (Sim:3h32m4s) 
CPU  2 inst:   97000002 cyc:  181609271 now IPC :1.30764: AVG IPC :0.52596: L2-Pf-HR :-nan: L2-HR :0.70379: (Sim:3h32m31s) 
CPU  0 inst:   96000000 cyc:  181654744 now IPC :1.32576: AVG IPC :0.52030: L2-Pf-HR :-nan: L2-HR :0.70271: (Sim:3h32m34s) 
CPU  3 inst:   97000002 cyc:  181744889 now IPC :1.35162: AVG IPC :0.52557: L2-Pf-HR :-nan: L2-HR :0.70379: (Sim:3h32m42s) 
CPU  1 inst:   97000002 cyc:  182019165 now IPC :1.32032: AVG IPC :0.52477: L2-Pf-HR :-nan: L2-HR :0.70366: (Sim:3h33m6s) 
CPU  2 inst:   98000004 cyc:  182181423 now IPC :1.74779: AVG IPC :0.52982: L2-Pf-HR :-nan: L2-HR :0.70510: (Sim:3h33m19s) 
CPU  3 inst:   98000004 cyc:  182349729 now IPC :1.65333: AVG IPC :0.52933: L2-Pf-HR :-nan: L2-HR :0.70511: (Sim:3h33m32s) 
CPU  0 inst:   97000002 cyc:  182400959 now IPC :1.34010: AVG IPC :0.52367: L2-Pf-HR :-nan: L2-HR :0.70385: (Sim:3h33m37s) 
CPU  1 inst:   98000004 cyc:  182639957 now IPC :1.61085: AVG IPC :0.52848: L2-Pf-HR :-nan: L2-HR :0.70497: (Sim:3h33m54s) 
CPU  2 inst:   99000004 cyc:  182936808 now IPC :1.32383: AVG IPC :0.53312: L2-Pf-HR :-nan: L2-HR :0.70605: (Sim:3h34m23s) 
CPU  0 inst:   98000004 cyc:  182998096 now IPC :1.67466: AVG IPC :0.52745: L2-Pf-HR :-nan: L2-HR :0.70517: (Sim:3h34m32s) 
CPU  3 inst:   99000004 cyc:  183070739 now IPC :1.38694: AVG IPC :0.53273: L2-Pf-HR :-nan: L2-HR :0.70604: (Sim:3h34m43s) 
CPU  1 inst:   99000004 cyc:  183345427 now IPC :1.41749: AVG IPC :0.53192: L2-Pf-HR :-nan: L2-HR :0.70591: (Sim:3h35m23s) 
CPU  2 inst:  100000005 cyc:  183632622 now IPC :1.43717: AVG IPC :0.53656: L2-Pf-HR :-nan: L2-HR :0.70718: (Sim:3h36m4s) 
Finished CPU 2 instr: 98000000 cyc: 182643377 AVG IPC: 0.53656 (Sim time: 3h36m5s)
CPU  0 inst:   99000004 cyc:  183712288 now IPC :1.40018: AVG IPC :0.53086: L2-Pf-HR :-nan: L2-HR :0.70609: (Sim:3h36m16s) 
CPU  3 inst:  100000005 cyc:  183794202 now IPC :1.38224: AVG IPC :0.53609: L2-Pf-HR :-nan: L2-HR :0.70716: (Sim:3h36m27s) 
Finished CPU 3 instr: 98000003 cyc: 182804429 AVG IPC: 0.53609 (Sim time: 3h36m27s)
CPU  1 inst:  100000005 cyc:  184052416 now IPC :1.41445: AVG IPC :0.53533: L2-Pf-HR :-nan: L2-HR :0.70704: (Sim:3h37m7s) 
Finished CPU 1 instr: 98000001 cyc: 183063339 AVG IPC: 0.53533 (Sim time: 3h37m7s)
CPU  2 inst:  101000001 cyc:  184339121 now IPC :1.41542: AVG IPC :0.53995: L2-Pf-HR :-nan: L2-HR :0.70825: (Sim:3h37m48s) 
CPU  0 inst:  100000005 cyc:  184426867 now IPC :1.39943: AVG IPC :0.53424: L2-Pf-HR :-nan: L2-HR :0.70718: (Sim:3h37m59s) 
Finished CPU 0 instr: 98000003 cyc: 183437093 AVG IPC: 0.53424 (Sim time: 3h37m59s)

ChampSim completed all CPUs

Total Simulation Statistics (not including warmup)

CPU 0 cumulative IPC: 0.53424 instructions: 98000003 cycles: 183437093
Core_0_L1D_total_access 23734260
Core_0_L1D_total_hit 21666242
Core_0_L1D_total_miss 2068018
Core_0_L1D_loads 20880687
Core_0_L1D_load_hit 18966722
Core_0_L1D_load_miss 1913965
Core_0_L1D_RFOs 2853573
Core_0_L1D_RFO_hit 2699520
Core_0_L1D_RFO_miss 154053
Core_0_L1D_prefetches 0
Core_0_L1D_prefetch_hit 0
Core_0_L1D_prefetch_miss 0
Core_0_L1D_writebacks 0
Core_0_L1D_writeback_hit 0
Core_0_L1D_writeback_miss 0

Core_0_L1I_total_access 12605939
Core_0_L1I_total_hit 12601167
Core_0_L1I_total_miss 4772
Core_0_L1I_loads 12605939
Core_0_L1I_load_hit 12601167
Core_0_L1I_load_miss 4772
Core_0_L1I_RFOs 0
Core_0_L1I_RFO_hit 0
Core_0_L1I_RFO_miss 0
Core_0_L1I_prefetches 0
Core_0_L1I_prefetch_hit 0
Core_0_L1I_prefetch_miss 0
Core_0_L1I_writebacks 0
Core_0_L1I_writeback_hit 0
Core_0_L1I_writeback_miss 0

Core_0_L2C_total_access 2750275
Core_0_L2C_total_hit 1944932
Core_0_L2C_total_miss 805343
Core_0_L2C_loads 1918712
Core_0_L2C_load_hit 1245634
Core_0_L2C_load_miss 673078
Core_0_L2C_RFOs 154034
Core_0_L2C_RFO_hit 21774
Core_0_L2C_RFO_miss 132260
Core_0_L2C_prefetches 0
Core_0_L2C_prefetch_hit 0
Core_0_L2C_prefetch_miss 0
Core_0_L2C_writebacks 677529
Core_0_L2C_writeback_hit 677524
Core_0_L2C_writeback_miss 5

Core_0_LLC_total_access 1235550
Core_0_LLC_total_hit 425686
Core_0_LLC_total_miss 809864
Core_0_LLC_loads 673078
Core_0_LLC_load_hit 642
Core_0_LLC_load_miss 672436
Core_0_LLC_RFOs 132260
Core_0_LLC_RFO_hit 588
Core_0_LLC_RFO_miss 131672
Core_0_LLC_prefetches 0
Core_0_LLC_prefetch_hit 0
Core_0_LLC_prefetch_miss 0
Core_0_LLC_writebacks 430212
Core_0_LLC_writeback_hit 424456
Core_0_LLC_writeback_miss 5756


CPU 1 cumulative IPC: 0.53767 instructions: 98628746 cycles: 183437094
Core_1_L1D_total_access 23860444
Core_1_L1D_total_hit 21783290
Core_1_L1D_total_miss 2077154
Core_1_L1D_loads 21004958
Core_1_L1D_load_hit 19081950
Core_1_L1D_load_miss 1923008
Core_1_L1D_RFOs 2855486
Core_1_L1D_RFO_hit 2701340
Core_1_L1D_RFO_miss 154146
Core_1_L1D_prefetches 0
Core_1_L1D_prefetch_hit 0
Core_1_L1D_prefetch_miss 0
Core_1_L1D_writebacks 0
Core_1_L1D_writeback_hit 0
Core_1_L1D_writeback_miss 0

Core_1_L1I_total_access 12672628
Core_1_L1I_total_hit 12667854
Core_1_L1I_total_miss 4774
Core_1_L1I_loads 12672628
Core_1_L1I_load_hit 12667854
Core_1_L1I_load_miss 4774
Core_1_L1I_RFOs 0
Core_1_L1I_RFO_hit 0
Core_1_L1I_RFO_miss 0
Core_1_L1I_prefetches 0
Core_1_L1I_prefetch_hit 0
Core_1_L1I_prefetch_miss 0
Core_1_L1I_writebacks 0
Core_1_L1I_writeback_hit 0
Core_1_L1I_writeback_miss 0

Core_1_L2C_total_access 2760534
Core_1_L2C_total_hit 1953636
Core_1_L2C_total_miss 806898
Core_1_L2C_loads 1927760
Core_1_L2C_load_hit 1253162
Core_1_L2C_load_miss 674598
Core_1_L2C_RFOs 154126
Core_1_L2C_RFO_hit 21831
Core_1_L2C_RFO_miss 132295
Core_1_L2C_prefetches 0
Core_1_L2C_prefetch_hit 0
Core_1_L2C_prefetch_miss 0
Core_1_L2C_writebacks 678648
Core_1_L2C_writeback_hit 678643
Core_1_L2C_writeback_miss 5

Core_1_LLC_total_access 1236173
Core_1_LLC_total_hit 422012
Core_1_LLC_total_miss 814161
Core_1_LLC_loads 674598
Core_1_LLC_load_hit 1082
Core_1_LLC_load_miss 673516
Core_1_LLC_RFOs 132295
Core_1_LLC_RFO_hit 625
Core_1_LLC_RFO_miss 131670
Core_1_LLC_prefetches 0
Core_1_LLC_prefetch_hit 0
Core_1_LLC_prefetch_miss 0
Core_1_LLC_writebacks 429280
Core_1_LLC_writeback_hit 420305
Core_1_LLC_writeback_miss 8975


CPU 2 cumulative IPC: 0.54049 instructions: 99146700 cycles: 183437094
Core_2_L1D_total_access 23971214
Core_2_L1D_total_hit 21876988
Core_2_L1D_total_miss 2094226
Core_2_L1D_loads 21097198
Core_2_L1D_load_hit 19157446
Core_2_L1D_load_miss 1939752
Core_2_L1D_RFOs 2874016
Core_2_L1D_RFO_hit 2719542
Core_2_L1D_RFO_miss 154474
Core_2_L1D_prefetches 0
Core_2_L1D_prefetch_hit 0
Core_2_L1D_prefetch_miss 0
Core_2_L1D_writebacks 0
Core_2_L1D_writeback_hit 0
Core_2_L1D_writeback_miss 0

Core_2_L1I_total_access 12733087
Core_2_L1I_total_hit 12728313
Core_2_L1I_total_miss 4774
Core_2_L1I_loads 12733087
Core_2_L1I_load_hit 12728313
Core_2_L1I_load_miss 4774
Core_2_L1I_RFOs 0
Core_2_L1I_RFO_hit 0
Core_2_L1I_RFO_miss 0
Core_2_L1I_prefetches 0
Core_2_L1I_prefetch_hit 0
Core_2_L1I_prefetch_miss 0
Core_2_L1I_writebacks 0
Core_2_L1I_writeback_hit 0
Core_2_L1I_writeback_miss 0

Core_2_L2C_total_access 2782717
Core_2_L2C_total_hit 1971295
Core_2_L2C_total_miss 811422
Core_2_L2C_loads 1944504
Core_2_L2C_load_hit 1265265
Core_2_L2C_load_miss 679239
Core_2_L2C_RFOs 154449
Core_2_L2C_RFO_hit 22271
Core_2_L2C_RFO_miss 132178
Core_2_L2C_prefetches 0
Core_2_L2C_prefetch_hit 0
Core_2_L2C_prefetch_miss 0
Core_2_L2C_writebacks 683764
Core_2_L2C_writeback_hit 683759
Core_2_L2C_writeback_miss 5

Core_2_LLC_total_access 1243545
Core_2_LLC_total_hit 429373
Core_2_LLC_total_miss 814172
Core_2_LLC_loads 679239
Core_2_LLC_load_hit 833
Core_2_LLC_load_miss 678406
Core_2_LLC_RFOs 132178
Core_2_LLC_RFO_hit 496
Core_2_LLC_RFO_miss 131682
Core_2_LLC_prefetches 0
Core_2_LLC_prefetch_hit 0
Core_2_LLC_prefetch_miss 0
Core_2_LLC_writebacks 432128
Core_2_LLC_writeback_hit 428044
Core_2_LLC_writeback_miss 4084


CPU 3 cumulative IPC: 0.53938 instructions: 98941572 cycles: 183437094
Core_3_L1D_total_access 23927830
Core_3_L1D_total_hit 21838680
Core_3_L1D_total_miss 2089150
Core_3_L1D_loads 21058318
Core_3_L1D_load_hit 19123260
Core_3_L1D_load_miss 1935058
Core_3_L1D_RFOs 2869512
Core_3_L1D_RFO_hit 2715420
Core_3_L1D_RFO_miss 154092
Core_3_L1D_prefetches 0
Core_3_L1D_prefetch_hit 0
Core_3_L1D_prefetch_miss 0
Core_3_L1D_writebacks 0
Core_3_L1D_writeback_hit 0
Core_3_L1D_writeback_miss 0

Core_3_L1I_total_access 12713085
Core_3_L1I_total_hit 12708313
Core_3_L1I_total_miss 4772
Core_3_L1I_loads 12713085
Core_3_L1I_load_hit 12708313
Core_3_L1I_load_miss 4772
Core_3_L1I_RFOs 0
Core_3_L1I_RFO_hit 0
Core_3_L1I_RFO_miss 0
Core_3_L1I_prefetches 0
Core_3_L1I_prefetch_hit 0
Core_3_L1I_prefetch_miss 0
Core_3_L1I_writebacks 0
Core_3_L1I_writeback_hit 0
Core_3_L1I_writeback_miss 0

Core_3_L2C_total_access 2776160
Core_3_L2C_total_hit 1966268
Core_3_L2C_total_miss 809892
Core_3_L2C_loads 1939811
Core_3_L2C_load_hit 1262035
Core_3_L2C_load_miss 677776
Core_3_L2C_RFOs 154069
Core_3_L2C_RFO_hit 21958
Core_3_L2C_RFO_miss 132111
Core_3_L2C_prefetches 0
Core_3_L2C_prefetch_hit 0
Core_3_L2C_prefetch_miss 0
Core_3_L2C_writebacks 682280
Core_3_L2C_writeback_hit 682275
Core_3_L2C_writeback_miss 5

Core_3_LLC_total_access 1241509
Core_3_LLC_total_hit 426810
Core_3_LLC_total_miss 814699
Core_3_LLC_loads 677776
Core_3_LLC_load_hit 943
Core_3_LLC_load_miss 676833
Core_3_LLC_RFOs 132111
Core_3_LLC_RFO_hit 442
Core_3_LLC_RFO_miss 131669
Core_3_LLC_prefetches 0
Core_3_LLC_prefetch_hit 0
Core_3_LLC_prefetch_miss 0
Core_3_LLC_writebacks 431622
Core_3_LLC_writeback_hit 425425
Core_3_LLC_writeback_miss 6197


[ROI Statistics]
Core_0_instructions 98000003
Core_0_cycles 183437093
Core_0_IPC 0.53424

Core_0_branch_prediction_accuracy 98.32534
Core_0_branch_MPKI 0.51240
Core_0_average_ROB_occupancy_at_mispredict 435.44821

Core_0_L1D_total_access 23734260
Core_0_L1D_total_hit 21666242 L1D_total_Hit Ratio: 0.91287
Core_0_L1D_total_miss 2068018
Core_0_L1D_loads 20880687
Core_0_L1D_load_hit 18966722 L1D_load_Hit Ratio: 0.90834
Core_0_L1D_load_miss 1913965
Core_0_L1D_RFOs 2853573
Core_0_L1D_RFO_hit 2699520 L1D_RFO_Hit Ratio: 0.94601
Core_0_L1D_RFO_miss 154053
Core_0_L1D_prefetches 0
Core_0_L1D_prefetch_hit 0 L1D_prefetch_Hit Ratio: -nan
Core_0_L1D_prefetch_miss 0
Core_0_L1D_writebacks 0
Core_0_L1D_writeback_hit 0 L1D_writeback_Hit Ratio: -nan
Core_0_L1D_writeback_miss 0
Core_0_L1D_prefetch_requested 0
Core_0_L1D_prefetch_issued 0
Core_0_L1D_prefetch_useful 0 L1D_Useful Ratio: -nan
Core_0_L1D_prefetch_useless 0
Core_0_L1D_prefetch_late 0
Core_0_L1D_average_miss_latency 293.00585

Core_0_L1I_total_access 12605939
Core_0_L1I_total_hit 12601167 L1I_total_Hit Ratio: 0.99962
Core_0_L1I_total_miss 4772
Core_0_L1I_loads 12605939
Core_0_L1I_load_hit 12601167 L1I_load_Hit Ratio: 0.99962
Core_0_L1I_load_miss 4772
Core_0_L1I_RFOs 0
Core_0_L1I_RFO_hit 0 L1I_RFO_Hit Ratio: -nan
Core_0_L1I_RFO_miss 0
Core_0_L1I_prefetches 0
Core_0_L1I_prefetch_hit 0 L1I_prefetch_Hit Ratio: -nan
Core_0_L1I_prefetch_miss 0
Core_0_L1I_writebacks 0
Core_0_L1I_writeback_hit 0 L1I_writeback_Hit Ratio: -nan
Core_0_L1I_writeback_miss 0
Core_0_L1I_prefetch_requested 0
Core_0_L1I_prefetch_issued 0
Core_0_L1I_prefetch_useful 0 L1I_Useful Ratio: -nan
Core_0_L1I_prefetch_useless 0
Core_0_L1I_prefetch_late 0
Core_0_L1I_average_miss_latency 1099.76341

Core_0_L2C_total_access 2750275
Core_0_L2C_total_hit 1944932 L2C_total_Hit Ratio: 0.70718
Core_0_L2C_total_miss 805343
Core_0_L2C_loads 1918712
Core_0_L2C_load_hit 1245634 L2C_load_Hit Ratio: 0.64920
Core_0_L2C_load_miss 673078
Core_0_L2C_RFOs 154034
Core_0_L2C_RFO_hit 21774 L2C_RFO_Hit Ratio: 0.14136
Core_0_L2C_RFO_miss 132260
Core_0_L2C_prefetches 0
Core_0_L2C_prefetch_hit 0 L2C_prefetch_Hit Ratio: -nan
Core_0_L2C_prefetch_miss 0
Core_0_L2C_writebacks 677529
Core_0_L2C_writeback_hit 677524 L2C_writeback_Hit Ratio: 0.99999
Core_0_L2C_writeback_miss 5
Core_0_L2C_prefetch_requested 0
Core_0_L2C_prefetch_issued 0
Core_0_L2C_prefetch_useful 0 L2C_Useful Ratio: -nan
Core_0_L2C_prefetch_useless 0
Core_0_L2C_prefetch_late 0
Core_0_L2C_average_miss_latency 719.31447

Core_0_LLC_total_access 1235550
Core_0_LLC_total_hit 425686 LLC_total_Hit Ratio: 0.34453
Core_0_LLC_total_miss 809864
Core_0_LLC_loads 673078
Core_0_LLC_load_hit 642 LLC_load_Hit Ratio: 0.00095
Core_0_LLC_load_miss 672436
Core_0_LLC_RFOs 132260
Core_0_LLC_RFO_hit 588 LLC_RFO_Hit Ratio: 0.00445
Core_0_LLC_RFO_miss 131672
Core_0_LLC_prefetches 0
Core_0_LLC_prefetch_hit 0 LLC_prefetch_Hit Ratio: -nan
Core_0_LLC_prefetch_miss 0
Core_0_LLC_writebacks 430212
Core_0_LLC_writeback_hit 424456 LLC_writeback_Hit Ratio: 0.98662
Core_0_LLC_writeback_miss 5756
Core_0_LLC_prefetch_requested 0
Core_0_LLC_prefetch_issued 0
Core_0_LLC_prefetch_useful 0 LLC_Useful Ratio: -nan
Core_0_LLC_prefetch_useless 0
Core_0_LLC_prefetch_late 0
Core_0_LLC_average_miss_latency 2693.03088

Core_0_major_page_fault 0
Core_0_minor_page_fault 7592

Core_1_instructions 98000001
Core_1_cycles 183063339
Core_1_IPC 0.53533

Core_1_branch_prediction_accuracy 98.32214
Core_1_branch_MPKI 0.51140
Core_1_average_ROB_occupancy_at_mispredict 436.26711

Core_1_L1D_total_access 23733993
Core_1_L1D_total_hit 21665956 L1D_total_Hit Ratio: 0.91287
Core_1_L1D_total_miss 2068037
Core_1_L1D_loads 20880517
Core_1_L1D_load_hit 18966487 L1D_load_Hit Ratio: 0.90833
Core_1_L1D_load_miss 1914030
Core_1_L1D_RFOs 2853476
Core_1_L1D_RFO_hit 2699469 L1D_RFO_Hit Ratio: 0.94603
Core_1_L1D_RFO_miss 154007
Core_1_L1D_prefetches 0
Core_1_L1D_prefetch_hit 0 L1D_prefetch_Hit Ratio: -nan
Core_1_L1D_prefetch_miss 0
Core_1_L1D_writebacks 0
Core_1_L1D_writeback_hit 0 L1D_writeback_Hit Ratio: -nan
Core_1_L1D_writeback_miss 0
Core_1_L1D_prefetch_requested 0
Core_1_L1D_prefetch_issued 0
Core_1_L1D_prefetch_useful 0 L1D_Useful Ratio: -nan
Core_1_L1D_prefetch_useless 0
Core_1_L1D_prefetch_late 0
Core_1_L1D_average_miss_latency 297.15406

Core_1_L1I_total_access 12606937
Core_1_L1I_total_hit 12602163 L1I_total_Hit Ratio: 0.99962
Core_1_L1I_total_miss 4774
Core_1_L1I_loads 12606937
Core_1_L1I_load_hit 12602163 L1I_load_Hit Ratio: 0.99962
Core_1_L1I_load_miss 4774
Core_1_L1I_RFOs 0
Core_1_L1I_RFO_hit 0 L1I_RFO_Hit Ratio: -nan
Core_1_L1I_RFO_miss 0
Core_1_L1I_prefetches 0
Core_1_L1I_prefetch_hit 0 L1I_prefetch_Hit Ratio: -nan
Core_1_L1I_prefetch_miss 0
Core_1_L1I_writebacks 0
Core_1_L1I_writeback_hit 0 L1I_writeback_Hit Ratio: -nan
Core_1_L1I_writeback_miss 0
Core_1_L1I_prefetch_requested 0
Core_1_L1I_prefetch_issued 0
Core_1_L1I_prefetch_useful 0 L1I_Useful Ratio: -nan
Core_1_L1I_prefetch_useless 0
Core_1_L1I_prefetch_late 0
Core_1_L1I_average_miss_latency 855.99874

Core_1_L2C_total_access 2750286
Core_1_L2C_total_hit 1944568 L2C_total_Hit Ratio: 0.70704
Core_1_L2C_total_miss 805718
Core_1_L2C_loads 1918782
Core_1_L2C_load_hit 1245364 L2C_load_Hit Ratio: 0.64904
Core_1_L2C_load_miss 673418
Core_1_L2C_RFOs 153987
Core_1_L2C_RFO_hit 21692 L2C_RFO_Hit Ratio: 0.14087
Core_1_L2C_RFO_miss 132295
Core_1_L2C_prefetches 0
Core_1_L2C_prefetch_hit 0 L2C_prefetch_Hit Ratio: -nan
Core_1_L2C_prefetch_miss 0
Core_1_L2C_writebacks 677517
Core_1_L2C_writeback_hit 677512 L2C_writeback_Hit Ratio: 0.99999
Core_1_L2C_writeback_miss 5
Core_1_L2C_prefetch_requested 0
Core_1_L2C_prefetch_issued 0
Core_1_L2C_prefetch_useful 0 L2C_Useful Ratio: -nan
Core_1_L2C_prefetch_useless 0
Core_1_L2C_prefetch_late 0
Core_1_L2C_average_miss_latency 728.01937

Core_1_LLC_total_access 1234776
Core_1_LLC_total_hit 421795 LLC_total_Hit Ratio: 0.34160
Core_1_LLC_total_miss 812981
Core_1_LLC_loads 673418
Core_1_LLC_load_hit 1082 LLC_load_Hit Ratio: 0.00161
Core_1_LLC_load_miss 672336
Core_1_LLC_RFOs 132295
Core_1_LLC_RFO_hit 625 LLC_RFO_Hit Ratio: 0.00472
Core_1_LLC_RFO_miss 131670
Core_1_LLC_prefetches 0
Core_1_LLC_prefetch_hit 0 LLC_prefetch_Hit Ratio: -nan
Core_1_LLC_prefetch_miss 0
Core_1_LLC_writebacks 429063
Core_1_LLC_writeback_hit 420088 LLC_writeback_Hit Ratio: 0.97908
Core_1_LLC_writeback_miss 8975
Core_1_LLC_prefetch_requested 0
Core_1_LLC_prefetch_issued 0
Core_1_LLC_prefetch_useful 0 LLC_Useful Ratio: -nan
Core_1_LLC_prefetch_useless 0
Core_1_LLC_prefetch_late 0
Core_1_LLC_average_miss_latency 2682.70570

Core_1_major_page_fault 0
Core_1_minor_page_fault 7593

Core_2_instructions 98000000
Core_2_cycles 182643377
Core_2_IPC 0.53656

Core_2_branch_prediction_accuracy 98.32145
Core_2_branch_MPKI 0.51092
Core_2_average_ROB_occupancy_at_mispredict 436.97398

Core_2_L1D_total_access 23734658
Core_2_L1D_total_hit 21666683 L1D_total_Hit Ratio: 0.91287
Core_2_L1D_total_miss 2067975
Core_2_L1D_loads 20880779
Core_2_L1D_load_hit 18966725 L1D_load_Hit Ratio: 0.90833
Core_2_L1D_load_miss 1914054
Core_2_L1D_RFOs 2853879
Core_2_L1D_RFO_hit 2699958 L1D_RFO_Hit Ratio: 0.94607
Core_2_L1D_RFO_miss 153921
Core_2_L1D_prefetches 0
Core_2_L1D_prefetch_hit 0 L1D_prefetch_Hit Ratio: -nan
Core_2_L1D_prefetch_miss 0
Core_2_L1D_writebacks 0
Core_2_L1D_writeback_hit 0 L1D_writeback_Hit Ratio: -nan
Core_2_L1D_writeback_miss 0
Core_2_L1D_prefetch_requested 0
Core_2_L1D_prefetch_issued 0
Core_2_L1D_prefetch_useful 0 L1D_Useful Ratio: -nan
Core_2_L1D_prefetch_useless 0
Core_2_L1D_prefetch_late 0
Core_2_L1D_average_miss_latency 298.36505

Core_2_L1I_total_access 12609390
Core_2_L1I_total_hit 12604616 L1I_total_Hit Ratio: 0.99962
Core_2_L1I_total_miss 4774
Core_2_L1I_loads 12609390
Core_2_L1I_load_hit 12604616 L1I_load_Hit Ratio: 0.99962
Core_2_L1I_load_miss 4774
Core_2_L1I_RFOs 0
Core_2_L1I_RFO_hit 0 L1I_RFO_Hit Ratio: -nan
Core_2_L1I_RFO_miss 0
Core_2_L1I_prefetches 0
Core_2_L1I_prefetch_hit 0 L1I_prefetch_Hit Ratio: -nan
Core_2_L1I_prefetch_miss 0
Core_2_L1I_writebacks 0
Core_2_L1I_writeback_hit 0 L1I_writeback_Hit Ratio: -nan
Core_2_L1I_writeback_miss 0
Core_2_L1I_prefetch_requested 0
Core_2_L1I_prefetch_issued 0
Core_2_L1I_prefetch_useful 0 L1I_Useful Ratio: -nan
Core_2_L1I_prefetch_useless 0
Core_2_L1I_prefetch_late 0
Core_2_L1I_average_miss_latency 789.70968

Core_2_L2C_total_access 2750154
Core_2_L2C_total_hit 1944845 L2C_total_Hit Ratio: 0.70718
Core_2_L2C_total_miss 805309
Core_2_L2C_loads 1918806
Core_2_L2C_load_hit 1245679 L2C_load_Hit Ratio: 0.64919
Core_2_L2C_load_miss 673127
Core_2_L2C_RFOs 153896
Core_2_L2C_RFO_hit 21719 L2C_RFO_Hit Ratio: 0.14113
Core_2_L2C_RFO_miss 132177
Core_2_L2C_prefetches 0
Core_2_L2C_prefetch_hit 0 L2C_prefetch_Hit Ratio: -nan
Core_2_L2C_prefetch_miss 0
Core_2_L2C_writebacks 677452
Core_2_L2C_writeback_hit 677447 L2C_writeback_Hit Ratio: 0.99999
Core_2_L2C_writeback_miss 5
Core_2_L2C_prefetch_requested 0
Core_2_L2C_prefetch_issued 0
Core_2_L2C_prefetch_useful 0 L2C_Useful Ratio: -nan
Core_2_L2C_prefetch_useless 0
Core_2_L2C_prefetch_late 0
Core_2_L2C_average_miss_latency 730.75798

Core_2_LLC_total_access 1236299
Core_2_LLC_total_hit 428240 LLC_total_Hit Ratio: 0.34639
Core_2_LLC_total_miss 808059
Core_2_LLC_loads 673127
Core_2_LLC_load_hit 833 LLC_load_Hit Ratio: 0.00124
Core_2_LLC_load_miss 672294
Core_2_LLC_RFOs 132177
Core_2_LLC_RFO_hit 495 LLC_RFO_Hit Ratio: 0.00374
Core_2_LLC_RFO_miss 131682
Core_2_LLC_prefetches 0
Core_2_LLC_prefetch_hit 0 LLC_prefetch_Hit Ratio: -nan
Core_2_LLC_prefetch_miss 0
Core_2_LLC_writebacks 430995
Core_2_LLC_writeback_hit 426912 LLC_writeback_Hit Ratio: 0.99053
Core_2_LLC_writeback_miss 4083
Core_2_LLC_prefetch_requested 0
Core_2_LLC_prefetch_issued 0
Core_2_LLC_prefetch_useful 0 LLC_Useful Ratio: -nan
Core_2_LLC_prefetch_useless 0
Core_2_LLC_prefetch_late 0
Core_2_LLC_average_miss_latency 2699.04643

Core_2_major_page_fault 0
Core_2_minor_page_fault 7623

Core_3_instructions 98000003
Core_3_cycles 182804429
Core_3_IPC 0.53609

Core_3_branch_prediction_accuracy 98.32235
Core_3_branch_MPKI 0.51117
Core_3_average_ROB_occupancy_at_mispredict 436.70830

Core_3_L1D_total_access 23734405
Core_3_L1D_total_hit 21666358 L1D_total_Hit Ratio: 0.91287
Core_3_L1D_total_miss 2068047
Core_3_L1D_loads 20880686
Core_3_L1D_load_hit 18966574 L1D_load_Hit Ratio: 0.90833
Core_3_L1D_load_miss 1914112
Core_3_L1D_RFOs 2853719
Core_3_L1D_RFO_hit 2699784 L1D_RFO_Hit Ratio: 0.94606
Core_3_L1D_RFO_miss 153935
Core_3_L1D_prefetches 0
Core_3_L1D_prefetch_hit 0 L1D_prefetch_Hit Ratio: -nan
Core_3_L1D_prefetch_miss 0
Core_3_L1D_writebacks 0
Core_3_L1D_writeback_hit 0 L1D_writeback_Hit Ratio: -nan
Core_3_L1D_writeback_miss 0
Core_3_L1D_prefetch_requested 0
Core_3_L1D_prefetch_issued 0
Core_3_L1D_prefetch_useful 0 L1D_Useful Ratio: -nan
Core_3_L1D_prefetch_useless 0
Core_3_L1D_prefetch_late 0
Core_3_L1D_average_miss_latency 298.62190

Core_3_L1I_total_access 12611249
Core_3_L1I_total_hit 12606477 L1I_total_Hit Ratio: 0.99962
Core_3_L1I_total_miss 4772
Core_3_L1I_loads 12611249
Core_3_L1I_load_hit 12606477 L1I_load_Hit Ratio: 0.99962
Core_3_L1I_load_miss 4772
Core_3_L1I_RFOs 0
Core_3_L1I_RFO_hit 0 L1I_RFO_Hit Ratio: -nan
Core_3_L1I_RFO_miss 0
Core_3_L1I_prefetches 0
Core_3_L1I_prefetch_hit 0 L1I_prefetch_Hit Ratio: -nan
Core_3_L1I_prefetch_miss 0
Core_3_L1I_writebacks 0
Core_3_L1I_writeback_hit 0 L1I_writeback_Hit Ratio: -nan
Core_3_L1I_writeback_miss 0
Core_3_L1I_prefetch_requested 0
Core_3_L1I_prefetch_issued 0
Core_3_L1I_prefetch_useful 0 L1I_Useful Ratio: -nan
Core_3_L1I_prefetch_useless 0
Core_3_L1I_prefetch_late 0
Core_3_L1I_average_miss_latency 812.71689

Core_3_L2C_total_access 2750303
Core_3_L2C_total_hit 1944901 L2C_total_Hit Ratio: 0.70716
Core_3_L2C_total_miss 805402
Core_3_L2C_loads 1918865
Core_3_L2C_load_hit 1245573 L2C_load_Hit Ratio: 0.64912
Core_3_L2C_load_miss 673292
Core_3_L2C_RFOs 153913
Core_3_L2C_RFO_hit 21808 L2C_RFO_Hit Ratio: 0.14169
Core_3_L2C_RFO_miss 132105
Core_3_L2C_prefetches 0
Core_3_L2C_prefetch_hit 0 L2C_prefetch_Hit Ratio: -nan
Core_3_L2C_prefetch_miss 0
Core_3_L2C_writebacks 677525
Core_3_L2C_writeback_hit 677520 L2C_writeback_Hit Ratio: 0.99999
Core_3_L2C_writeback_miss 5
Core_3_L2C_prefetch_requested 0
Core_3_L2C_prefetch_issued 0
Core_3_L2C_prefetch_useful 0 L2C_Useful Ratio: -nan
Core_3_L2C_prefetch_useless 0
Core_3_L2C_prefetch_late 0
Core_3_L2C_average_miss_latency 731.58571

Core_3_LLC_total_access 1235748
Core_3_LLC_total_hit 425523 LLC_total_Hit Ratio: 0.34434
Core_3_LLC_total_miss 810225
Core_3_LLC_loads 673292
Core_3_LLC_load_hit 933 LLC_load_Hit Ratio: 0.00139
Core_3_LLC_load_miss 672359
Core_3_LLC_RFOs 132105
Core_3_LLC_RFO_hit 436 LLC_RFO_Hit Ratio: 0.00330
Core_3_LLC_RFO_miss 131669
Core_3_LLC_prefetches 0
Core_3_LLC_prefetch_hit 0 LLC_prefetch_Hit Ratio: -nan
Core_3_LLC_prefetch_miss 0
Core_3_LLC_writebacks 430351
Core_3_LLC_writeback_hit 424154 LLC_writeback_Hit Ratio: 0.98560
Core_3_LLC_writeback_miss 6197
Core_3_LLC_prefetch_requested 0
Core_3_LLC_prefetch_issued 0
Core_3_LLC_prefetch_useful 0 LLC_Useful Ratio: -nan
Core_3_LLC_prefetch_useless 0
Core_3_LLC_prefetch_late 0
Core_3_LLC_average_miss_latency 2691.83099

Core_3_major_page_fault 0
Core_3_minor_page_fault 7594

Channel_0_RQ_row_buffer_hit 1314137
Channel_0_RQ_row_buffer_miss 1913748
Channel_0_WQ_row_buffer_hit 682443
Channel_0_WQ_row_buffer_miss 1015224
Channel_0_WQ_full 801
Channel_0_dbus_congested 2983943

avg_congested_cycle 10

EzSearch AVG IPC :0.53424: L2-Pf-HR :-nan : L2-HR :0.70718 Uful:-nan
EzSearch AVG IPC :0.53533: L2-Pf-HR :-nan : L2-HR :0.70770 Uful:-nan
EzSearch AVG IPC :0.53656: L2-Pf-HR :-nan : L2-HR :0.70841 Uful:-nan
EzSearch AVG IPC :0.53609: L2-Pf-HR :-nan : L2-HR :0.70827 Uful:-nan
     > Finished combination: TraceType=770-tot Sim:98000000 Prefetcher=L2no L1=no
