TRACE: [42000000]_FE_[OPT-350M]_[h16]_[s256]_[d64] Warmup: 2000000 NumTraces: 42000000
L1:next_line:L2:029-SecTOP-L2-MultiMarkovDelta_ip_stride_v4-IPStrS256
*************************************************
   ChampSim Multicore Out-of-Order Simulator
   Last compiled: Oct 28 2024 15:29:15
*************************************************

trace_0 770-tot_memTraces_v3/memTraces[42000000]_FE_[OPT-350M]_[h16]_[s256]_[d64].champsim.xz
trace_1 770-tot_memTraces_v3/memTraces[42000000]_FE_[OPT-350M]_[h16]_[s256]_[d64].champsim.xz
trace_2 770-tot_memTraces_v3/memTraces[42000000]_FE_[OPT-350M]_[h16]_[s256]_[d64].champsim.xz
trace_3 770-tot_memTraces_v3/memTraces[42000000]_FE_[OPT-350M]_[h16]_[s256]_[d64].champsim.xz
CPU 0 L1D next line prefetcher
MK1: Size: 128 TMAX: 64 TMIN: 32 MKPTHRESH: 40
MK2: Size: 256 TMAX: 32 TMIN: 16 MK2PTHRESH: 30
MK3: Size: 384 TMAX: 16 TMIN: 8 MK3PTHRESH: 25
MK4: Size: 512 TMAX: 8 TMIN: 0 MK4PTHRESH: 20
Stride Size: 256 Prefetch Degree: 15

CPU 0 L2C prefetcher
CPU 1 L1D next line prefetcher
MK1: Size: 128 TMAX: 64 TMIN: 32 MKPTHRESH: 40
MK2: Size: 256 TMAX: 32 TMIN: 16 MK2PTHRESH: 30
MK3: Size: 384 TMAX: 16 TMIN: 8 MK3PTHRESH: 25
MK4: Size: 512 TMAX: 8 TMIN: 0 MK4PTHRESH: 20
Stride Size: 256 Prefetch Degree: 15

CPU 1 L2C prefetcher
CPU 2 L1D next line prefetcher
MK1: Size: 128 TMAX: 64 TMIN: 32 MKPTHRESH: 40
MK2: Size: 256 TMAX: 32 TMIN: 16 MK2PTHRESH: 30
MK3: Size: 384 TMAX: 16 TMIN: 8 MK3PTHRESH: 25
MK4: Size: 512 TMAX: 8 TMIN: 0 MK4PTHRESH: 20
Stride Size: 256 Prefetch Degree: 15

CPU 2 L2C prefetcher
CPU 3 L1D next line prefetcher
MK1: Size: 128 TMAX: 64 TMIN: 32 MKPTHRESH: 40
MK2: Size: 256 TMAX: 32 TMIN: 16 MK2PTHRESH: 30
MK3: Size: 384 TMAX: 16 TMIN: 8 MK3PTHRESH: 25
MK4: Size: 512 TMAX: 8 TMIN: 0 MK4PTHRESH: 20
Stride Size: 256 Prefetch Degree: 15

CPU 3 L2C prefetcher
MAIN.cc ln 751 stats print skipped
CPU 0 L2C prefetcher initialized


Cache Size: 1280
number of cache lines: 20480
CPU  3 inst:    1000002 cyc:     503558 now IPC :1.98587: AVG IPC :1.98587: L2-Pf-HR :0.81781: L2-HR :0.79327: (Sim:0h1m36s) 
CPU  1 inst:    1000002 cyc:     503908 now IPC :1.98449: AVG IPC :1.98449: L2-Pf-HR :0.84911: L2-HR :0.82870: (Sim:0h1m37s) 
CPU  0 inst:    1000002 cyc:     503961 now IPC :1.98428: AVG IPC :1.98428: L2-Pf-HR :0.84349: L2-HR :0.82541: (Sim:0h1m37s) 
CPU  2 inst:    1000002 cyc:     503995 now IPC :1.98415: AVG IPC :1.98415: L2-Pf-HR :0.83913: L2-HR :0.82256: (Sim:0h1m37s) 
CPU  3 inst:    2000000 cyc:     991157 now IPC :2.05086: AVG IPC :2.01784: L2-Pf-HR :0.87184: L2-HR :0.85708: (Sim:0h3m20s) 
CPU  1 inst:    2000000 cyc:     991464 now IPC :2.05104: AVG IPC :2.01722: L2-Pf-HR :0.89258: L2-HR :0.88046: (Sim:0h3m20s) 
CPU  0 inst:    2000000 cyc:     991558 now IPC :2.05087: AVG IPC :2.01703: L2-Pf-HR :0.89170: L2-HR :0.88009: (Sim:0h3m20s) 
CPU  2 inst:    2000000 cyc:     991614 now IPC :2.05078: AVG IPC :2.01691: L2-Pf-HR :0.89243: L2-HR :0.88091: (Sim:0h3m20s) 

Warmup complete CPU  0 instructions:    2000164 cycles:     991615 (Simulation time: 0 hr 3 min 20 sec) 
Warmup complete CPU  1 instructions:    2000282 cycles:     991615 (Simulation time: 0 hr 3 min 20 sec) 
Warmup complete CPU  2 instructions:    2000002 cycles:     991615 (Simulation time: 0 hr 3 min 20 sec) 
Warmup complete CPU  3 instructions:    2000912 cycles:     991614 (Simulation time: 0 hr 3 min 20 sec) 

CPU  1 inst:    3000004 cyc:    1599611 now IPC :1.64435: AVG IPC :1.64429: L2-Pf-HR :0.92290: L2-HR :0.92021: (Sim:0h4m11s) 
CPU  3 inst:    3000004 cyc:    1604335 now IPC :1.63085: AVG IPC :1.63058: L2-Pf-HR :0.92178: L2-HR :0.91929: (Sim:0h4m11s) 
CPU  2 inst:    3000004 cyc:    1606681 now IPC :1.62585: AVG IPC :1.62585: L2-Pf-HR :0.92165: L2-HR :0.91890: (Sim:0h4m11s) 
CPU  0 inst:    3000001 cyc:    1607756 now IPC :1.62286: AVG IPC :1.62274: L2-Pf-HR :0.92087: L2-HR :0.91847: (Sim:0h4m11s) 
CPU  1 inst:    4000003 cyc:    2191695 now IPC :1.68895: AVG IPC :1.66632: L2-Pf-HR :0.91978: L2-HR :0.91859: (Sim:0h5m0s) 
CPU  3 inst:    4000003 cyc:    2200441 now IPC :1.67755: AVG IPC :1.65374: L2-Pf-HR :0.91898: L2-HR :0.91777: (Sim:0h5m1s) 
CPU  2 inst:    4000003 cyc:    2202344 now IPC :1.67880: AVG IPC :1.65190: L2-Pf-HR :0.91853: L2-HR :0.91750: (Sim:0h5m1s) 
CPU  0 inst:    4000003 cyc:    2207041 now IPC :1.66866: AVG IPC :1.64538: L2-Pf-HR :0.91811: L2-HR :0.91707: (Sim:0h5m1s) 
CPU  1 inst:    5000002 cyc:    2778344 now IPC :1.70460: AVG IPC :1.67889: L2-Pf-HR :0.91922: L2-HR :0.91868: (Sim:0h5m49s) 
CPU  3 inst:    5000002 cyc:    2793151 now IPC :1.68716: AVG IPC :1.66474: L2-Pf-HR :0.91851: L2-HR :0.91799: (Sim:0h5m50s) 
CPU  2 inst:    5000002 cyc:    2797478 now IPC :1.68029: AVG IPC :1.66126: L2-Pf-HR :0.91804: L2-HR :0.91765: (Sim:0h5m51s) 
CPU  0 inst:    5000002 cyc:    2807525 now IPC :1.66532: AVG IPC :1.65198: L2-Pf-HR :0.91783: L2-HR :0.91750: (Sim:0h5m52s) 
CPU  1 inst:    6000000 cyc:    3357042 now IPC :1.72801: AVG IPC :1.69091: L2-Pf-HR :0.91894: L2-HR :0.91863: (Sim:0h6m38s) 
CPU  3 inst:    6000000 cyc:    3379578 now IPC :1.70524: AVG IPC :1.67469: L2-Pf-HR :0.91810: L2-HR :0.91795: (Sim:0h6m40s) 
CPU  2 inst:    6000000 cyc:    3389449 now IPC :1.68927: AVG IPC :1.66817: L2-Pf-HR :0.91767: L2-HR :0.91753: (Sim:0h6m41s) 
CPU  0 inst:    6000000 cyc:    3401127 now IPC :1.68463: AVG IPC :1.66002: L2-Pf-HR :0.91737: L2-HR :0.91744: (Sim:0h6m42s) 
CPU  1 inst:    7000005 cyc:    3939811 now IPC :1.71595: AVG IPC :1.69586: L2-Pf-HR :0.92050: L2-HR :0.92035: (Sim:0h7m26s) 
CPU  3 inst:    7000005 cyc:    3972444 now IPC :1.68673: AVG IPC :1.67708: L2-Pf-HR :0.91950: L2-HR :0.91958: (Sim:0h7m29s) 
CPU  2 inst:    7000005 cyc:    3982552 now IPC :1.68606: AVG IPC :1.67172: L2-Pf-HR :0.91943: L2-HR :0.91943: (Sim:0h7m30s) 
CPU  0 inst:    7000005 cyc:    4007935 now IPC :1.64798: AVG IPC :1.65760: L2-Pf-HR :0.91949: L2-HR :0.91958: (Sim:0h7m32s) 
CPU  1 inst:    8000003 cyc:    4638414 now IPC :1.43143: AVG IPC :1.64520: L2-Pf-HR :0.92201: L2-HR :0.92165: (Sim:0h8m18s) 
CPU  3 inst:    8000003 cyc:    4671864 now IPC :1.42975: AVG IPC :1.63008: L2-Pf-HR :0.92096: L2-HR :0.92077: (Sim:0h8m22s) 
CPU  2 inst:    8000003 cyc:    4674987 now IPC :1.44418: AVG IPC :1.62894: L2-Pf-HR :0.92104: L2-HR :0.92074: (Sim:0h8m22s) 
CPU  0 inst:    8000003 cyc:    4681472 now IPC :1.48470: AVG IPC :1.62604: L2-Pf-HR :0.92125: L2-HR :0.92101: (Sim:0h8m22s) 
CPU  1 inst:    9000005 cyc:    5383363 now IPC :1.34238: AVG IPC :1.59384: L2-Pf-HR :0.92413: L2-HR :0.92338: (Sim:0h9m8s) 
CPU  0 inst:    9000005 cyc:    5550984 now IPC :1.15007: AVG IPC :1.53527: L2-Pf-HR :0.92322: L2-HR :0.92259: (Sim:0h9m20s) 
CPU  2 inst:    9000002 cyc:    5551512 now IPC :1.14087: AVG IPC :1.53512: L2-Pf-HR :0.92295: L2-HR :0.92225: (Sim:0h9m20s) 
CPU  3 inst:    9000002 cyc:    5551531 now IPC :1.13679: AVG IPC :1.53492: L2-Pf-HR :0.92270: L2-HR :0.92214: (Sim:0h9m20s) 
CPU  1 inst:   10000000 cyc:    6252462 now IPC :1.15061: AVG IPC :1.52061: L2-Pf-HR :0.92570: L2-HR :0.92461: (Sim:0h10m4s) 
CPU  0 inst:   10000000 cyc:    6435746 now IPC :1.13024: AVG IPC :1.46944: L2-Pf-HR :0.92352: L2-HR :0.92280: (Sim:0h10m18s) 
CPU  2 inst:   10000000 cyc:    6449022 now IPC :1.11419: AVG IPC :1.46590: L2-Pf-HR :0.92306: L2-HR :0.92236: (Sim:0h10m19s) 
CPU  3 inst:   10000000 cyc:    6452401 now IPC :1.11004: AVG IPC :1.46482: L2-Pf-HR :0.92301: L2-HR :0.92238: (Sim:0h10m19s) 
CPU  1 inst:   11000002 cyc:    7167609 now IPC :1.09272: AVG IPC :1.45721: L2-Pf-HR :0.92704: L2-HR :0.92571: (Sim:0h11m2s) 
CPU  0 inst:   11000002 cyc:    7507647 now IPC :0.93292: AVG IPC :1.38118: L2-Pf-HR :0.92487: L2-HR :0.92395: (Sim:0h11m22s) 
CPU  2 inst:   11000002 cyc:    7516371 now IPC :0.93690: AVG IPC :1.37936: L2-Pf-HR :0.92441: L2-HR :0.92342: (Sim:0h11m23s) 
CPU  3 inst:   11000002 cyc:    7517119 now IPC :0.93922: AVG IPC :1.37906: L2-Pf-HR :0.92434: L2-HR :0.92343: (Sim:0h11m23s) 
CPU  1 inst:   12000004 cyc:    7977903 now IPC :1.23412: AVG IPC :1.43134: L2-Pf-HR :0.92876: L2-HR :0.92710: (Sim:0h11m58s) 
CPU  2 inst:   12000004 cyc:    8481113 now IPC :1.03655: AVG IPC :1.33520: L2-Pf-HR :0.92566: L2-HR :0.92441: (Sim:0h12m24s) 
CPU  0 inst:   12000004 cyc:    8532470 now IPC :0.97578: AVG IPC :1.32609: L2-Pf-HR :0.92596: L2-HR :0.92482: (Sim:0h12m27s) 
CPU  3 inst:   12000004 cyc:    8539934 now IPC :0.97770: AVG IPC :1.32468: L2-Pf-HR :0.92543: L2-HR :0.92428: (Sim:0h12m28s) 
CPU  1 inst:   13000002 cyc:    8934464 now IPC :1.04541: AVG IPC :1.38486: L2-Pf-HR :0.93028: L2-HR :0.92831: (Sim:0h12m56s) 
CPU  2 inst:   13000002 cyc:    9401410 now IPC :1.08660: AVG IPC :1.30800: L2-Pf-HR :0.92679: L2-HR :0.92532: (Sim:0h13m22s) 
CPU  3 inst:   13000002 cyc:    9572388 now IPC :0.96856: AVG IPC :1.28183: L2-Pf-HR :0.92665: L2-HR :0.92514: (Sim:0h13m32s) 
CPU  0 inst:   13000002 cyc:    9578571 now IPC :0.95593: AVG IPC :1.28099: L2-Pf-HR :0.92714: L2-HR :0.92568: (Sim:0h13m33s) 
CPU  1 inst:   14000004 cyc:    9933806 now IPC :1.00066: AVG IPC :1.34192: L2-Pf-HR :0.93176: L2-HR :0.92949: (Sim:0h13m56s) 
CPU  2 inst:   14000004 cyc:   10306457 now IPC :1.10492: AVG IPC :1.28827: L2-Pf-HR :0.92834: L2-HR :0.92655: (Sim:0h14m20s) 
CPU  0 inst:   14000004 cyc:   10598637 now IPC :0.98033: AVG IPC :1.24907: L2-Pf-HR :0.92811: L2-HR :0.92641: (Sim:0h14m36s) 
CPU  3 inst:   14000004 cyc:   10605117 now IPC :0.96831: AVG IPC :1.24815: L2-Pf-HR :0.92776: L2-HR :0.92600: (Sim:0h14m37s) 
CPU  1 inst:   15000000 cyc:   10965606 now IPC :0.96918: AVG IPC :1.30336: L2-Pf-HR :0.93284: L2-HR :0.93033: (Sim:0h15m0s) 
CPU  2 inst:   15000000 cyc:   11267292 now IPC :1.04076: AVG IPC :1.26512: L2-Pf-HR :0.92944: L2-HR :0.92743: (Sim:0h15m20s) 
CPU  3 inst:   15000000 cyc:   11673906 now IPC :0.93563: AVG IPC :1.21688: L2-Pf-HR :0.92847: L2-HR :0.92651: (Sim:0h15m42s) 
CPU  0 inst:   15000000 cyc:   11684250 now IPC :0.92113: AVG IPC :1.21577: L2-Pf-HR :0.92885: L2-HR :0.92691: (Sim:0h15m42s) 
CPU  1 inst:   16000001 cyc:   11892693 now IPC :1.07865: AVG IPC :1.28425: L2-Pf-HR :0.93392: L2-HR :0.93130: (Sim:0h15m57s) 
CPU  2 inst:   16000001 cyc:   12193486 now IPC :1.07969: AVG IPC :1.24979: L2-Pf-HR :0.93072: L2-HR :0.92855: (Sim:0h16m17s) 
CPU  0 inst:   16000001 cyc:   12586229 now IPC :1.10867: AVG IPC :1.20744: L2-Pf-HR :0.92983: L2-HR :0.92780: (Sim:0h16m40s) 
CPU  3 inst:   16000001 cyc:   12599942 now IPC :1.07987: AVG IPC :1.20595: L2-Pf-HR :0.92947: L2-HR :0.92741: (Sim:0h16m41s) 
CPU  1 inst:   17000003 cyc:   13062371 now IPC :0.85494: AVG IPC :1.24265: L2-Pf-HR :0.93405: L2-HR :0.93098: (Sim:0h17m5s) 
CPU  2 inst:   17000002 cyc:   13226016 now IPC :0.96850: AVG IPC :1.22605: L2-Pf-HR :0.93136: L2-HR :0.92861: (Sim:0h17m13s) 
CPU  0 inst:   17000003 cyc:   13702831 now IPC :0.89558: AVG IPC :1.18005: L2-Pf-HR :0.93041: L2-HR :0.92780: (Sim:0h17m23s) 
CPU  3 inst:   17000003 cyc:   13702909 now IPC :0.90665: AVG IPC :1.17998: L2-Pf-HR :0.93001: L2-HR :0.92737: (Sim:0h17m23s) 
CPU  1 inst:   18000001 cyc:   25080873 now IPC :0.08320: AVG IPC :0.66418: L2-Pf-HR :0.90755: L2-HR :0.88724: (Sim:0h23m42s) 
CPU  2 inst:   18000001 cyc:   25508039 now IPC :0.08142: AVG IPC :0.65262: L2-Pf-HR :0.90348: L2-HR :0.88371: (Sim:0h23m56s) 
CPU  0 inst:   18000001 cyc:   26063655 now IPC :0.08090: AVG IPC :0.63815: L2-Pf-HR :0.90226: L2-HR :0.88264: (Sim:0h24m14s) 
CPU  3 inst:   18000001 cyc:   26168775 now IPC :0.08022: AVG IPC :0.63546: L2-Pf-HR :0.90159: L2-HR :0.88214: (Sim:0h24m17s) 
CPU  1 inst:   19000000 cyc:   28682194 now IPC :0.27768: AVG IPC :0.61392: L2-Pf-HR :0.89759: L2-HR :0.88027: (Sim:0h25m36s) 
CPU  2 inst:   19000000 cyc:   29103439 now IPC :0.27813: AVG IPC :0.60473: L2-Pf-HR :0.89330: L2-HR :0.87671: (Sim:0h25m49s) 
CPU  0 inst:   19000000 cyc:   29646723 now IPC :0.27909: AVG IPC :0.59326: L2-Pf-HR :0.89205: L2-HR :0.87566: (Sim:0h26m7s) 
CPU  3 inst:   19000000 cyc:   29765734 now IPC :0.27801: AVG IPC :0.59078: L2-Pf-HR :0.89117: L2-HR :0.87502: (Sim:0h26m10s) 
CPU  1 inst:   20000000 cyc:   32284542 now IPC :0.27760: AVG IPC :0.57520: L2-Pf-HR :0.88818: L2-HR :0.87369: (Sim:0h27m30s) 
CPU  2 inst:   20000000 cyc:   32702655 now IPC :0.27784: AVG IPC :0.56763: L2-Pf-HR :0.88381: L2-HR :0.87013: (Sim:0h27m44s) 
CPU  0 inst:   20000000 cyc:   33213740 now IPC :0.28035: AVG IPC :0.55862: L2-Pf-HR :0.88281: L2-HR :0.86937: (Sim:0h28m0s) 
CPU  3 inst:   20000000 cyc:   33337256 now IPC :0.27999: AVG IPC :0.55646: L2-Pf-HR :0.88183: L2-HR :0.86866: (Sim:0h28m4s) 
CPU  1 inst:   21000000 cyc:   35745815 now IPC :0.28891: AVG IPC :0.54669: L2-Pf-HR :0.88103: L2-HR :0.86885: (Sim:0h29m21s) 
CPU  2 inst:   21000000 cyc:   36135244 now IPC :0.29133: AVG IPC :0.54064: L2-Pf-HR :0.87665: L2-HR :0.86537: (Sim:0h29m33s) 
CPU  0 inst:   21000000 cyc:   36640696 now IPC :0.29180: AVG IPC :0.53297: L2-Pf-HR :0.87586: L2-HR :0.86478: (Sim:0h29m49s) 
CPU  3 inst:   21000000 cyc:   36760458 now IPC :0.29212: AVG IPC :0.53116: L2-Pf-HR :0.87482: L2-HR :0.86404: (Sim:0h29m53s) 
CPU  1 inst:   22000000 cyc:   39149554 now IPC :0.29379: AVG IPC :0.52413: L2-Pf-HR :0.87478: L2-HR :0.86463: (Sim:0h31m9s) 
CPU  2 inst:   22000000 cyc:   39541595 now IPC :0.29357: AVG IPC :0.51881: L2-Pf-HR :0.87051: L2-HR :0.86127: (Sim:0h31m22s) 
CPU  0 inst:   22000000 cyc:   40048397 now IPC :0.29345: AVG IPC :0.51207: L2-Pf-HR :0.86966: L2-HR :0.86065: (Sim:0h31m38s) 
CPU  3 inst:   22000000 cyc:   40167262 now IPC :0.29353: AVG IPC :0.51050: L2-Pf-HR :0.86850: L2-HR :0.85982: (Sim:0h31m41s) 
CPU  1 inst:   23000000 cyc:   42552077 now IPC :0.29390: AVG IPC :0.50528: L2-Pf-HR :0.86884: L2-HR :0.86056: (Sim:0h33m42s) 
CPU  2 inst:   23000000 cyc:   42946969 now IPC :0.29365: AVG IPC :0.50053: L2-Pf-HR :0.86435: L2-HR :0.85709: (Sim:0h34m6s) 
CPU  0 inst:   23000000 cyc:   43458273 now IPC :0.29327: AVG IPC :0.49450: L2-Pf-HR :0.86340: L2-HR :0.85641: (Sim:0h34m36s) 
CPU  3 inst:   23000000 cyc:   43570419 now IPC :0.29384: AVG IPC :0.49318: L2-Pf-HR :0.86228: L2-HR :0.85563: (Sim:0h34m43s) 
CPU  1 inst:   24000000 cyc:   45954059 now IPC :0.29395: AVG IPC :0.48929: L2-Pf-HR :0.86294: L2-HR :0.85648: (Sim:0h37m4s) 
CPU  2 inst:   24000000 cyc:   46348487 now IPC :0.29399: AVG IPC :0.48504: L2-Pf-HR :0.85816: L2-HR :0.85284: (Sim:0h37m27s) 
CPU  0 inst:   24000000 cyc:   46864233 now IPC :0.29360: AVG IPC :0.47959: L2-Pf-HR :0.85729: L2-HR :0.85223: (Sim:0h37m58s) 
CPU  3 inst:   24000000 cyc:   46982042 now IPC :0.29312: AVG IPC :0.47834: L2-Pf-HR :0.85608: L2-HR :0.85138: (Sim:0h38m5s) 
CPU  1 inst:   25000000 cyc:   49370318 now IPC :0.29272: AVG IPC :0.47541: L2-Pf-HR :0.85738: L2-HR :0.85260: (Sim:0h40m27s) 
CPU  2 inst:   25000000 cyc:   49757790 now IPC :0.29332: AVG IPC :0.47164: L2-Pf-HR :0.85250: L2-HR :0.84893: (Sim:0h40m50s) 
CPU  0 inst:   25000000 cyc:   50275089 now IPC :0.29318: AVG IPC :0.46668: L2-Pf-HR :0.85155: L2-HR :0.84825: (Sim:0h41m20s) 
CPU  3 inst:   25000000 cyc:   50392445 now IPC :0.29322: AVG IPC :0.46556: L2-Pf-HR :0.85034: L2-HR :0.84740: (Sim:0h41m28s) 
CPU  1 inst:   26000003 cyc:   52709574 now IPC :0.29947: AVG IPC :0.46405: L2-Pf-HR :0.85307: L2-HR :0.84933: (Sim:0h43m43s) 
CPU  2 inst:   26000003 cyc:   53140146 now IPC :0.29565: AVG IPC :0.46022: L2-Pf-HR :0.84827: L2-HR :0.84572: (Sim:0h44m18s) 
CPU  1 inst:   27000003 cyc:   53592793 now IPC :1.13222: AVG IPC :0.47527: L2-Pf-HR :0.86549: L2-HR :0.86148: (Sim:0h44m57s) 
CPU  0 inst:   26000003 cyc:   53847083 now IPC :0.27996: AVG IPC :0.45407: L2-Pf-HR :0.84702: L2-HR :0.84483: (Sim:0h45m22s) 
CPU  3 inst:   26000003 cyc:   54013681 now IPC :0.27615: AVG IPC :0.45262: L2-Pf-HR :0.84589: L2-HR :0.84405: (Sim:0h45m44s) 
CPU  2 inst:   27000003 cyc:   54065289 now IPC :1.08091: AVG IPC :0.47104: L2-Pf-HR :0.86153: L2-HR :0.85846: (Sim:0h45m52s) 
CPU  1 inst:   28000000 cyc:   54599922 now IPC :0.99292: AVG IPC :0.48499: L2-Pf-HR :0.87549: L2-HR :0.87142: (Sim:0h47m3s) 
CPU  0 inst:   27000003 cyc:   54843053 now IPC :1.00405: AVG IPC :0.46424: L2-Pf-HR :0.86044: L2-HR :0.85768: (Sim:0h47m34s) 
CPU  3 inst:   27000003 cyc:   54965551 now IPC :1.05056: AVG IPC :0.46317: L2-Pf-HR :0.85954: L2-HR :0.85704: (Sim:0h47m52s) 
CPU  2 inst:   28000000 cyc:   55038367 now IPC :1.02766: AVG IPC :0.48106: L2-Pf-HR :0.87216: L2-HR :0.86886: (Sim:0h48m3s) 
CPU  1 inst:   29000005 cyc:   55497671 now IPC :1.11390: AVG IPC :0.49535: L2-Pf-HR :0.88414: L2-HR :0.88005: (Sim:0h49m10s) 
CPU  0 inst:   28000000 cyc:   55738251 now IPC :1.11707: AVG IPC :0.47491: L2-Pf-HR :0.87120: L2-HR :0.86816: (Sim:0h49m42s) 
CPU  3 inst:   28000000 cyc:   55794240 now IPC :1.20672: AVG IPC :0.47441: L2-Pf-HR :0.87044: L2-HR :0.86762: (Sim:0h49m51s) 
CPU  2 inst:   29000005 cyc:   55878153 now IPC :1.19079: AVG IPC :0.49192: L2-Pf-HR :0.88133: L2-HR :0.87787: (Sim:0h50m4s) 
CPU  1 inst:   30000004 cyc:   56382097 now IPC :1.13068: AVG IPC :0.50550: L2-Pf-HR :0.89111: L2-HR :0.88715: (Sim:0h51m17s) 
CPU  0 inst:   29000005 cyc:   56551783 now IPC :1.22921: AVG IPC :0.48596: L2-Pf-HR :0.88047: L2-HR :0.87723: (Sim:0h51m36s) 
CPU  3 inst:   29000001 cyc:   56730934 now IPC :1.06759: AVG IPC :0.48438: L2-Pf-HR :0.87977: L2-HR :0.87672: (Sim:0h52m3s) 
CPU  2 inst:   30000004 cyc:   56791897 now IPC :1.09440: AVG IPC :0.50179: L2-Pf-HR :0.88865: L2-HR :0.88522: (Sim:0h52m13s) 
CPU  1 inst:   31000004 cyc:   57263431 now IPC :1.13464: AVG IPC :0.51535: L2-Pf-HR :0.89684: L2-HR :0.89303: (Sim:0h53m22s) 
CPU  0 inst:   30000004 cyc:   57435640 now IPC :1.13140: AVG IPC :0.49606: L2-Pf-HR :0.88785: L2-HR :0.88463: (Sim:0h53m46s) 
CPU  3 inst:   30000004 cyc:   57624297 now IPC :1.11937: AVG IPC :0.49440: L2-Pf-HR :0.88726: L2-HR :0.88421: (Sim:0h54m10s) 
CPU  2 inst:   31000004 cyc:   57697725 now IPC :1.10396: AVG IPC :0.51141: L2-Pf-HR :0.89463: L2-HR :0.89129: (Sim:0h54m23s) 
CPU  1 inst:   32000003 cyc:   58186008 now IPC :1.08392: AVG IPC :0.52452: L2-Pf-HR :0.90171: L2-HR :0.89810: (Sim:0h55m39s) 
CPU  0 inst:   31000004 cyc:   58344342 now IPC :1.10047: AVG IPC :0.50564: L2-Pf-HR :0.89388: L2-HR :0.89073: (Sim:0h56m3s) 
CPU  3 inst:   31000004 cyc:   58471840 now IPC :1.17988: AVG IPC :0.50451: L2-Pf-HR :0.89338: L2-HR :0.89038: (Sim:0h56m20s) 
CPU  2 inst:   32000003 cyc:   58516754 now IPC :1.22096: AVG IPC :0.52151: L2-Pf-HR :0.89976: L2-HR :0.89655: (Sim:0h56m28s) 
CPU  1 inst:   33000003 cyc:   59054927 now IPC :1.15086: AVG IPC :0.53390: L2-Pf-HR :0.90601: L2-HR :0.90257: (Sim:0h57m52s) 
CPU  0 inst:   32000003 cyc:   59164240 now IPC :1.21966: AVG IPC :0.51570: L2-Pf-HR :0.89912: L2-HR :0.89607: (Sim:0h58m10s) 
CPU  3 inst:   32000003 cyc:   59286212 now IPC :1.22794: AVG IPC :0.51461: L2-Pf-HR :0.89869: L2-HR :0.89578: (Sim:0h58m20s) 
CPU  2 inst:   33000003 cyc:   59390717 now IPC :1.14421: AVG IPC :0.53083: L2-Pf-HR :0.90426: L2-HR :0.90118: (Sim:0h58m28s) 
CPU  1 inst:   34000002 cyc:   59841619 now IPC :1.27114: AVG IPC :0.54375: L2-Pf-HR :0.90987: L2-HR :0.90659: (Sim:0h59m3s) 
CPU  0 inst:   33000003 cyc:   59986908 now IPC :1.21556: AVG IPC :0.52546: L2-Pf-HR :0.90371: L2-HR :0.90077: (Sim:0h59m15s) 
CPU  3 inst:   33000003 cyc:   60126016 now IPC :1.19075: AVG IPC :0.52421: L2-Pf-HR :0.90329: L2-HR :0.90049: (Sim:0h59m25s) 
CPU  2 inst:   34000003 cyc:   60232447 now IPC :1.18803: AVG IPC :0.54017: L2-Pf-HR :0.90827: L2-HR :0.90531: (Sim:0h59m34s) 
CPU  1 inst:   35000005 cyc:   60630548 now IPC :1.26754: AVG IPC :0.55333: L2-Pf-HR :0.91348: L2-HR :0.91033: (Sim:1h0m6s) 
CPU  0 inst:   34000003 cyc:   60814297 now IPC :1.20862: AVG IPC :0.53491: L2-Pf-HR :0.90783: L2-HR :0.90498: (Sim:1h0m21s) 
CPU  3 inst:   34000003 cyc:   60940039 now IPC :1.22847: AVG IPC :0.53378: L2-Pf-HR :0.90745: L2-HR :0.90473: (Sim:1h0m31s) 
CPU  2 inst:   35000005 cyc:   61030826 now IPC :1.25254: AVG IPC :0.54964: L2-Pf-HR :0.91206: L2-HR :0.90919: (Sim:1h0m39s) 
CPU  1 inst:   36000004 cyc:   61374625 now IPC :1.34395: AVG IPC :0.56307: L2-Pf-HR :0.91654: L2-HR :0.91353: (Sim:1h1m7s) 
CPU  0 inst:   35000005 cyc:   61545251 now IPC :1.36808: AVG IPC :0.54497: L2-Pf-HR :0.91165: L2-HR :0.90888: (Sim:1h1m21s) 
CPU  3 inst:   35000005 cyc:   61659547 now IPC :1.38984: AVG IPC :0.54393: L2-Pf-HR :0.91130: L2-HR :0.90865: (Sim:1h1m32s) 
CPU  2 inst:   36000004 cyc:   61718382 now IPC :1.45443: AVG IPC :0.55988: L2-Pf-HR :0.91523: L2-HR :0.91249: (Sim:1h1m37s) 
CPU  1 inst:   37000002 cyc:   62073530 now IPC :1.43081: AVG IPC :0.57300: L2-Pf-HR :0.91922: L2-HR :0.91636: (Sim:1h2m9s) 
CPU  0 inst:   36000004 cyc:   62227562 now IPC :1.46561: AVG IPC :0.55523: L2-Pf-HR :0.91487: L2-HR :0.91221: (Sim:1h2m22s) 
CPU  3 inst:   36000004 cyc:   62334093 now IPC :1.48248: AVG IPC :0.55425: L2-Pf-HR :0.91454: L2-HR :0.91199: (Sim:1h2m31s) 
CPU  2 inst:   37000002 cyc:   62414761 now IPC :1.43600: AVG IPC :0.56982: L2-Pf-HR :0.91801: L2-HR :0.91540: (Sim:1h2m38s) 
CPU  1 inst:   38000000 cyc:   62787289 now IPC :1.40103: AVG IPC :0.58256: L2-Pf-HR :0.92163: L2-HR :0.91892: (Sim:1h3m10s) 
CPU  0 inst:   37000002 cyc:   62925346 now IPC :1.43311: AVG IPC :0.56512: L2-Pf-HR :0.91767: L2-HR :0.91513: (Sim:1h3m22s) 
CPU  3 inst:   37000002 cyc:   63026067 now IPC :1.44514: AVG IPC :0.56419: L2-Pf-HR :0.91736: L2-HR :0.91494: (Sim:1h3m32s) 
CPU  2 inst:   38000000 cyc:   63086708 now IPC :1.48821: AVG IPC :0.57976: L2-Pf-HR :0.92052: L2-HR :0.91804: (Sim:1h3m36s) 
CPU  1 inst:   39000003 cyc:   63465445 now IPC :1.47459: AVG IPC :0.59224: L2-Pf-HR :0.92388: L2-HR :0.92129: (Sim:1h4m10s) 
Finished CPU 1 instr: 37000004 cyc: 62474100 AVG IPC: 0.59225 (Sim time: 1h4m10s)
CPU  0 inst:   38000000 cyc:   63579300 now IPC :1.52916: AVG IPC :0.57519: L2-Pf-HR :0.92021: L2-HR :0.91779: (Sim:1h4m21s) 
CPU  3 inst:   38000000 cyc:   63674569 now IPC :1.54201: AVG IPC :0.57430: L2-Pf-HR :0.91992: L2-HR :0.91761: (Sim:1h4m30s) 
CPU  2 inst:   39000003 cyc:   63762190 now IPC :1.48043: AVG IPC :0.58945: L2-Pf-HR :0.92285: L2-HR :0.92048: (Sim:1h4m37s) 
Finished CPU 2 instr: 37000001 cyc: 62770575 AVG IPC: 0.58945 (Sim time: 1h4m37s)
CPU  1 inst:   40000001 cyc:   64103518 now IPC :1.56722: AVG IPC :0.60210: L2-Pf-HR :0.92603: L2-HR :0.92356: (Sim:1h5m8s) 
CPU  0 inst:   39000003 cyc:   64233105 now IPC :1.52951: AVG IPC :0.58506: L2-Pf-HR :0.92257: L2-HR :0.92025: (Sim:1h5m20s) 
Finished CPU 0 instr: 37000002 cyc: 63241740 AVG IPC: 0.58506 (Sim time: 1h5m20s)
CPU  3 inst:   39000005 cyc:   64330304 now IPC :1.52501: AVG IPC :0.58415: L2-Pf-HR :0.92230: L2-HR :0.92008: (Sim:1h5m29s) 
Finished CPU 3 instr: 37000001 cyc: 63339286 AVG IPC: 0.58416 (Sim time: 1h5m29s)

ChampSim completed all CPUs

Total Simulation Statistics (not including warmup)

CPU 0 cumulative IPC: 0.58683 instructions: 37169300 cycles: 63339285
Core_0_L1D_total_access 23482044
Core_0_L1D_total_hit 21700937
Core_0_L1D_total_miss 1781107
Core_0_L1D_loads 9195637
Core_0_L1D_load_hit 8276681
Core_0_L1D_load_miss 918956
Core_0_L1D_RFOs 1152219
Core_0_L1D_RFO_hit 1100281
Core_0_L1D_RFO_miss 51938
Core_0_L1D_prefetches 13134188
Core_0_L1D_prefetch_hit 12323975
Core_0_L1D_prefetch_miss 810213
Core_0_L1D_writebacks 0
Core_0_L1D_writeback_hit 0
Core_0_L1D_writeback_miss 0

Core_0_L1I_total_access 5023650
Core_0_L1I_total_hit 5018934
Core_0_L1I_total_miss 4716
Core_0_L1I_loads 5023650
Core_0_L1I_load_hit 5018934
Core_0_L1I_load_miss 4716
Core_0_L1I_RFOs 0
Core_0_L1I_RFO_hit 0
Core_0_L1I_RFO_miss 0
Core_0_L1I_prefetches 0
Core_0_L1I_prefetch_hit 0
Core_0_L1I_prefetch_miss 0
Core_0_L1I_writebacks 0
Core_0_L1I_writeback_hit 0
Core_0_L1I_writeback_miss 0

Core_0_L2C_total_access 4692044
Core_0_L2C_total_hit 4320200
Core_0_L2C_total_miss 371844
Core_0_L2C_loads 869909
Core_0_L2C_load_hit 785501
Core_0_L2C_load_miss 84408
Core_0_L2C_RFOs 51652
Core_0_L2C_RFO_hit 35840
Core_0_L2C_RFO_miss 15812
Core_0_L2C_prefetches 3530694
Core_0_L2C_prefetch_hit 3259081
Core_0_L2C_prefetch_miss 271613
Core_0_L2C_writebacks 239789
Core_0_L2C_writeback_hit 239778
Core_0_L2C_writeback_miss 11

CPU 0 L1D next line prefetcher final stats
CPU 0 L2C PC-based stride prefetcher final stats
Stride Degree: 15
MK1  MARKOV_LRU_SIZE: 128
MK1  MARKOV_PREDICTION_PERCENTTHRESHOLD: 40.00000
MK1  OUTLIERS_THRESHOLD_Max: 64
MK1  OUTLIERS_THRESHOLD_Min: 32
MK2  MARKOV_LRU_SIZE: 256
MK2  MARKOV_PREDICTION_PERCENTTHRESHOLD: 30.00000
MK2  OUTLIERS_THRESHOLD_Max: 32
MK2  OUTLIERS_THRESHOLD_Min: 16
MK3  MARKOV_LRU_SIZE: 384
MK3  MARKOV_PREDICTION_PERCENTTHRESHOLD: 25.00000
MK3  OUTLIERS_THRESHOLD_Max: 16
MK3  OUTLIERS_THRESHOLD_Min: 8
MK4  MARKOV_LRU_SIZE: 512
MK4  MARKOV_PREDICTION_PERCENTTHRESHOLD: 20.00000
MK4  OUTLIERS_THRESHOLD_Max: 8
MK4  OUTLIERS_THRESHOLD_Min: 0
IPStride Degree/Access Ratio: 1.75468
MK1 IPDEltaMarkov  Degree/Access Ratio: 0.40752
MK2 IPDEltaMarkov  Degree/Access Ratio: 0.84611
MK3 IPDEltaMarkov  Degree/Access Ratio: 1.06052
MK4 IPDEltaMarkov  Degree/Access Ratio: 1.43321
Core_0_LLC_total_access 589568
Core_0_LLC_total_hit 217434
Core_0_LLC_total_miss 372134
Core_0_LLC_loads 42863
Core_0_LLC_load_hit 1069
Core_0_LLC_load_miss 41794
Core_0_LLC_RFOs 15791
Core_0_LLC_RFO_hit 1
Core_0_LLC_RFO_miss 15790
Core_0_LLC_prefetches 324633
Core_0_LLC_prefetch_hit 12622
Core_0_LLC_prefetch_miss 312011
Core_0_LLC_writebacks 206281
Core_0_LLC_writeback_hit 203742
Core_0_LLC_writeback_miss 2539


CPU 1 cumulative IPC: 0.60561 instructions: 38358651 cycles: 63339285
Core_1_L1D_total_access 24080619
Core_1_L1D_total_hit 22191936
Core_1_L1D_total_miss 1888683
Core_1_L1D_loads 9514256
Core_1_L1D_load_hit 8539488
Core_1_L1D_load_miss 974768
Core_1_L1D_RFOs 1154756
Core_1_L1D_RFO_hit 1102708
Core_1_L1D_RFO_miss 52048
Core_1_L1D_prefetches 13411607
Core_1_L1D_prefetch_hit 12549740
Core_1_L1D_prefetch_miss 861867
Core_1_L1D_writebacks 0
Core_1_L1D_writeback_hit 0
Core_1_L1D_writeback_miss 0

Core_1_L1I_total_access 5142374
Core_1_L1I_total_hit 5137657
Core_1_L1I_total_miss 4717
Core_1_L1I_loads 5142374
Core_1_L1I_load_hit 5137657
Core_1_L1I_load_miss 4717
Core_1_L1I_RFOs 0
Core_1_L1I_RFO_hit 0
Core_1_L1I_RFO_miss 0
Core_1_L1I_prefetches 0
Core_1_L1I_prefetch_hit 0
Core_1_L1I_prefetch_miss 0
Core_1_L1I_writebacks 0
Core_1_L1I_writeback_hit 0
Core_1_L1I_writeback_miss 0

Core_1_L2C_total_access 5006321
Core_1_L2C_total_hit 4626825
Core_1_L2C_total_miss 379496
Core_1_L2C_loads 924410
Core_1_L2C_load_hit 839059
Core_1_L2C_load_miss 85351
Core_1_L2C_RFOs 51723
Core_1_L2C_RFO_hit 35713
Core_1_L2C_RFO_miss 16010
Core_1_L2C_prefetches 3789131
Core_1_L2C_prefetch_hit 3511007
Core_1_L2C_prefetch_miss 278124
Core_1_L2C_writebacks 241057
Core_1_L2C_writeback_hit 241046
Core_1_L2C_writeback_miss 11

CPU 1 L1D next line prefetcher final stats
CPU 1 L2C PC-based stride prefetcher final stats
Stride Degree: 15
MK1  MARKOV_LRU_SIZE: 128
MK1  MARKOV_PREDICTION_PERCENTTHRESHOLD: 40.00000
MK1  OUTLIERS_THRESHOLD_Max: 64
MK1  OUTLIERS_THRESHOLD_Min: 32
MK2  MARKOV_LRU_SIZE: 256
MK2  MARKOV_PREDICTION_PERCENTTHRESHOLD: 30.00000
MK2  OUTLIERS_THRESHOLD_Max: 32
MK2  OUTLIERS_THRESHOLD_Min: 16
MK3  MARKOV_LRU_SIZE: 384
MK3  MARKOV_PREDICTION_PERCENTTHRESHOLD: 25.00000
MK3  OUTLIERS_THRESHOLD_Max: 16
MK3  OUTLIERS_THRESHOLD_Min: 8
MK4  MARKOV_LRU_SIZE: 512
MK4  MARKOV_PREDICTION_PERCENTTHRESHOLD: 20.00000
MK4  OUTLIERS_THRESHOLD_Max: 8
MK4  OUTLIERS_THRESHOLD_Min: 0
IPStride Degree/Access Ratio: 1.75468
MK1 IPDEltaMarkov  Degree/Access Ratio: 0.40752
MK2 IPDEltaMarkov  Degree/Access Ratio: 0.84611
MK3 IPDEltaMarkov  Degree/Access Ratio: 1.06052
MK4 IPDEltaMarkov  Degree/Access Ratio: 1.43321
Core_1_LLC_total_access 596718
Core_1_LLC_total_hit 214641
Core_1_LLC_total_miss 382077
Core_1_LLC_loads 43029
Core_1_LLC_load_hit 667
Core_1_LLC_load_miss 42362
Core_1_LLC_RFOs 15986
Core_1_LLC_RFO_hit 4
Core_1_LLC_RFO_miss 15982
Core_1_LLC_prefetches 329839
Core_1_LLC_prefetch_hit 9954
Core_1_LLC_prefetch_miss 319885
Core_1_LLC_writebacks 207864
Core_1_LLC_writeback_hit 204016
Core_1_LLC_writeback_miss 3848


CPU 2 cumulative IPC: 0.59792 instructions: 37871778 cycles: 63339285
Core_2_L1D_total_access 23831567
Core_2_L1D_total_hit 21986731
Core_2_L1D_total_miss 1844836
Core_2_L1D_loads 9383176
Core_2_L1D_load_hit 8431055
Core_2_L1D_load_miss 952121
Core_2_L1D_RFOs 1153634
Core_2_L1D_RFO_hit 1101571
Core_2_L1D_RFO_miss 52063
Core_2_L1D_prefetches 13294757
Core_2_L1D_prefetch_hit 12454105
Core_2_L1D_prefetch_miss 840652
Core_2_L1D_writebacks 0
Core_2_L1D_writeback_hit 0
Core_2_L1D_writeback_miss 0

Core_2_L1I_total_access 5093824
Core_2_L1I_total_hit 5089107
Core_2_L1I_total_miss 4717
Core_2_L1I_loads 5093824
Core_2_L1I_load_hit 5089107
Core_2_L1I_load_miss 4717
Core_2_L1I_RFOs 0
Core_2_L1I_RFO_hit 0
Core_2_L1I_RFO_miss 0
Core_2_L1I_prefetches 0
Core_2_L1I_prefetch_hit 0
Core_2_L1I_prefetch_miss 0
Core_2_L1I_writebacks 0
Core_2_L1I_writeback_hit 0
Core_2_L1I_writeback_miss 0

Core_2_L2C_total_access 4854277
Core_2_L2C_total_hit 4477461
Core_2_L2C_total_miss 376816
Core_2_L2C_loads 902312
Core_2_L2C_load_hit 817272
Core_2_L2C_load_miss 85040
Core_2_L2C_RFOs 51715
Core_2_L2C_RFO_hit 35761
Core_2_L2C_RFO_miss 15954
Core_2_L2C_prefetches 3659706
Core_2_L2C_prefetch_hit 3383895
Core_2_L2C_prefetch_miss 275811
Core_2_L2C_writebacks 240544
Core_2_L2C_writeback_hit 240533
Core_2_L2C_writeback_miss 11

CPU 2 L1D next line prefetcher final stats
CPU 2 L2C PC-based stride prefetcher final stats
Stride Degree: 15
MK1  MARKOV_LRU_SIZE: 128
MK1  MARKOV_PREDICTION_PERCENTTHRESHOLD: 40.00000
MK1  OUTLIERS_THRESHOLD_Max: 64
MK1  OUTLIERS_THRESHOLD_Min: 32
MK2  MARKOV_LRU_SIZE: 256
MK2  MARKOV_PREDICTION_PERCENTTHRESHOLD: 30.00000
MK2  OUTLIERS_THRESHOLD_Max: 32
MK2  OUTLIERS_THRESHOLD_Min: 16
MK3  MARKOV_LRU_SIZE: 384
MK3  MARKOV_PREDICTION_PERCENTTHRESHOLD: 25.00000
MK3  OUTLIERS_THRESHOLD_Max: 16
MK3  OUTLIERS_THRESHOLD_Min: 8
MK4  MARKOV_LRU_SIZE: 512
MK4  MARKOV_PREDICTION_PERCENTTHRESHOLD: 20.00000
MK4  OUTLIERS_THRESHOLD_Max: 8
MK4  OUTLIERS_THRESHOLD_Min: 0
IPStride Degree/Access Ratio: 1.75468
MK1 IPDEltaMarkov  Degree/Access Ratio: 0.40752
MK2 IPDEltaMarkov  Degree/Access Ratio: 0.84611
MK3 IPDEltaMarkov  Degree/Access Ratio: 1.06052
MK4 IPDEltaMarkov  Degree/Access Ratio: 1.43321
Core_2_LLC_total_access 595562
Core_2_LLC_total_hit 216566
Core_2_LLC_total_miss 378996
Core_2_LLC_loads 43195
Core_2_LLC_load_hit 1079
Core_2_LLC_load_miss 42116
Core_2_LLC_RFOs 15941
Core_2_LLC_RFO_hit 0
Core_2_LLC_RFO_miss 15941
Core_2_LLC_prefetches 328501
Core_2_LLC_prefetch_hit 11815
Core_2_LLC_prefetch_miss 316686
Core_2_LLC_writebacks 207925
Core_2_LLC_writeback_hit 203672
Core_2_LLC_writeback_miss 4253


CPU 3 cumulative IPC: 0.58416 instructions: 37000001 cycles: 63339286
Core_3_L1D_total_access 23404006
Core_3_L1D_total_hit 21637793
Core_3_L1D_total_miss 1766213
Core_3_L1D_loads 9152591
Core_3_L1D_load_hit 8241739
Core_3_L1D_load_miss 910852
Core_3_L1D_RFOs 1151788
Core_3_L1D_RFO_hit 1099805
Core_3_L1D_RFO_miss 51983
Core_3_L1D_prefetches 13099627
Core_3_L1D_prefetch_hit 12296249
Core_3_L1D_prefetch_miss 803378
Core_3_L1D_writebacks 0
Core_3_L1D_writeback_hit 0
Core_3_L1D_writeback_miss 0

Core_3_L1I_total_access 5010613
Core_3_L1I_total_hit 5005894
Core_3_L1I_total_miss 4719
Core_3_L1I_loads 5010613
Core_3_L1I_load_hit 5005894
Core_3_L1I_load_miss 4719
Core_3_L1I_RFOs 0
Core_3_L1I_RFO_hit 0
Core_3_L1I_RFO_miss 0
Core_3_L1I_prefetches 0
Core_3_L1I_prefetch_hit 0
Core_3_L1I_prefetch_miss 0
Core_3_L1I_writebacks 0
Core_3_L1I_writeback_hit 0
Core_3_L1I_writeback_miss 0

Core_3_L2C_total_access 4647443
Core_3_L2C_total_hit 4276028
Core_3_L2C_total_miss 371415
Core_3_L2C_loads 861878
Core_3_L2C_load_hit 777785
Core_3_L2C_load_miss 84093
Core_3_L2C_RFOs 51658
Core_3_L2C_RFO_hit 35857
Core_3_L2C_RFO_miss 15801
Core_3_L2C_prefetches 3494299
Core_3_L2C_prefetch_hit 3222789
Core_3_L2C_prefetch_miss 271510
Core_3_L2C_writebacks 239608
Core_3_L2C_writeback_hit 239597
Core_3_L2C_writeback_miss 11

CPU 3 L1D next line prefetcher final stats
CPU 3 L2C PC-based stride prefetcher final stats
Stride Degree: 15
MK1  MARKOV_LRU_SIZE: 128
MK1  MARKOV_PREDICTION_PERCENTTHRESHOLD: 40.00000
MK1  OUTLIERS_THRESHOLD_Max: 64
MK1  OUTLIERS_THRESHOLD_Min: 32
MK2  MARKOV_LRU_SIZE: 256
MK2  MARKOV_PREDICTION_PERCENTTHRESHOLD: 30.00000
MK2  OUTLIERS_THRESHOLD_Max: 32
MK2  OUTLIERS_THRESHOLD_Min: 16
MK3  MARKOV_LRU_SIZE: 384
MK3  MARKOV_PREDICTION_PERCENTTHRESHOLD: 25.00000
MK3  OUTLIERS_THRESHOLD_Max: 16
MK3  OUTLIERS_THRESHOLD_Min: 8
MK4  MARKOV_LRU_SIZE: 512
MK4  MARKOV_PREDICTION_PERCENTTHRESHOLD: 20.00000
MK4  OUTLIERS_THRESHOLD_Max: 8
MK4  OUTLIERS_THRESHOLD_Min: 0
IPStride Degree/Access Ratio: 1.75468
MK1 IPDEltaMarkov  Degree/Access Ratio: 0.40752
MK2 IPDEltaMarkov  Degree/Access Ratio: 0.84611
MK3 IPDEltaMarkov  Degree/Access Ratio: 1.06052
MK4 IPDEltaMarkov  Degree/Access Ratio: 1.43321
Core_3_LLC_total_access 589600
Core_3_LLC_total_hit 216168
Core_3_LLC_total_miss 373432
Core_3_LLC_loads 42721
Core_3_LLC_load_hit 974
Core_3_LLC_load_miss 41747
Core_3_LLC_RFOs 15790
Core_3_LLC_RFO_hit 2
Core_3_LLC_RFO_miss 15788
Core_3_LLC_prefetches 324665
Core_3_LLC_prefetch_hit 12414
Core_3_LLC_prefetch_miss 312251
Core_3_LLC_writebacks 206424
Core_3_LLC_writeback_hit 202778
Core_3_LLC_writeback_miss 3646


[ROI Statistics]
Core_0_instructions 37000002
Core_0_cycles 63241740
Core_0_IPC 0.58506

Core_0_branch_prediction_accuracy 98.43940
Core_0_branch_MPKI 0.50324
Core_0_average_ROB_occupancy_at_mispredict 342.94718

Core_0_L1D_total_access 23397935
Core_0_L1D_total_hit 21632326 L1D_total_Hit Ratio: 0.92454
Core_0_L1D_total_miss 1765609
Core_0_L1D_loads 9150020
Core_0_L1D_load_hit 8238935 L1D_load_Hit Ratio: 0.90043
Core_0_L1D_load_miss 911085
Core_0_L1D_RFOs 1151828
Core_0_L1D_RFO_hit 1099902 L1D_RFO_Hit Ratio: 0.95492
Core_0_L1D_RFO_miss 51926
Core_0_L1D_prefetches 13096087
Core_0_L1D_prefetch_hit 12293489 L1D_prefetch_Hit Ratio: 0.93871
Core_0_L1D_prefetch_miss 802598
Core_0_L1D_writebacks 0
Core_0_L1D_writeback_hit 0 L1D_writeback_Hit Ratio: -nan
Core_0_L1D_writeback_miss 0
Core_0_L1D_prefetch_requested 30359904
Core_0_L1D_prefetch_issued 15844454
Core_0_L1D_prefetch_useful 431143 L1D_Useful Ratio: 0.02721
Core_0_L1D_prefetch_useless 400983
Core_0_L1D_prefetch_late 55365
Core_0_L1D_average_miss_latency 691826.63739

Core_0_L1I_total_access 5007115
Core_0_L1I_total_hit 5002399 L1I_total_Hit Ratio: 0.99906
Core_0_L1I_total_miss 4716
Core_0_L1I_loads 5007115
Core_0_L1I_load_hit 5002399 L1I_load_Hit Ratio: 0.99906
Core_0_L1I_load_miss 4716
Core_0_L1I_RFOs 0
Core_0_L1I_RFO_hit 0 L1I_RFO_Hit Ratio: -nan
Core_0_L1I_RFO_miss 0
Core_0_L1I_prefetches 0
Core_0_L1I_prefetch_hit 0 L1I_prefetch_Hit Ratio: -nan
Core_0_L1I_prefetch_miss 0
Core_0_L1I_writebacks 0
Core_0_L1I_writeback_hit 0 L1I_writeback_Hit Ratio: -nan
Core_0_L1I_writeback_miss 0
Core_0_L1I_prefetch_requested 0
Core_0_L1I_prefetch_issued 0
Core_0_L1I_prefetch_useful 0 L1I_Useful Ratio: -nan
Core_0_L1I_prefetch_useless 0
Core_0_L1I_prefetch_late 0
Core_0_L1I_average_miss_latency 1111.90755

Core_0_L2C_total_access 4656307
Core_0_L2C_total_hit 4284940 L2C_total_Hit Ratio: 0.92024
Core_0_L2C_total_miss 371367
Core_0_L2C_loads 862118
Core_0_L2C_load_hit 777810 L2C_load_Hit Ratio: 0.90221
Core_0_L2C_load_miss 84308
Core_0_L2C_RFOs 51640
Core_0_L2C_RFO_hit 35828 L2C_RFO_Hit Ratio: 0.69380
Core_0_L2C_RFO_miss 15812
Core_0_L2C_prefetches 3502934
Core_0_L2C_prefetch_hit 3231698 L2C_prefetch_Hit Ratio: 0.92257
Core_0_L2C_prefetch_miss 271236
Core_0_L2C_writebacks 239615
Core_0_L2C_writeback_hit 239604 L2C_writeback_Hit Ratio: 0.99995
Core_0_L2C_writeback_miss 11
Core_0_L2C_prefetch_requested 9269021
Core_0_L2C_prefetch_issued 4257149
Core_0_L2C_prefetch_useful 114756 L2C_Useful Ratio: 0.02696
Core_0_L2C_prefetch_useless 161585
Core_0_L2C_prefetch_late 41656
Core_0_L2C_average_miss_latency 1030.15285

Core_0_LLC_total_access 589029
Core_0_LLC_total_hit 217371 LLC_total_Hit Ratio: 0.36903
Core_0_LLC_total_miss 371658
Core_0_LLC_loads 42767
Core_0_LLC_load_hit 1067 LLC_load_Hit Ratio: 0.02495
Core_0_LLC_load_miss 41700
Core_0_LLC_RFOs 15791
Core_0_LLC_RFO_hit 1 LLC_RFO_Hit Ratio: 0.00006
Core_0_LLC_RFO_miss 15790
Core_0_LLC_prefetches 324242
Core_0_LLC_prefetch_hit 12613 LLC_prefetch_Hit Ratio: 0.03890
Core_0_LLC_prefetch_miss 311629
Core_0_LLC_writebacks 206229
Core_0_LLC_writeback_hit 203690 LLC_writeback_Hit Ratio: 0.98769
Core_0_LLC_writeback_miss 2539
Core_0_LLC_prefetch_requested 0
Core_0_LLC_prefetch_issued 0
Core_0_LLC_prefetch_useful 4423 LLC_Useful Ratio: inf
Core_0_LLC_prefetch_useless 1147048
Core_0_LLC_prefetch_late 9098
Core_0_LLC_average_miss_latency 4034.84390

Core_0_major_page_fault 0
Core_0_minor_page_fault 3915

Core_1_instructions 37000004
Core_1_cycles 62474100
Core_1_IPC 0.59225

Core_1_branch_prediction_accuracy 98.44617
Core_1_branch_MPKI 0.48867
Core_1_average_ROB_occupancy_at_mispredict 343.08157

Core_1_L1D_total_access 23419770
Core_1_L1D_total_hit 21654193 L1D_total_Hit Ratio: 0.92461
Core_1_L1D_total_miss 1765577
Core_1_L1D_loads 9151912
Core_1_L1D_load_hit 8241234 L1D_load_Hit Ratio: 0.90049
Core_1_L1D_load_miss 910678
Core_1_L1D_RFOs 1151550
Core_1_L1D_RFO_hit 1099584 L1D_RFO_Hit Ratio: 0.95487
Core_1_L1D_RFO_miss 51966
Core_1_L1D_prefetches 13116308
Core_1_L1D_prefetch_hit 12313375 L1D_prefetch_Hit Ratio: 0.93878
Core_1_L1D_prefetch_miss 802933
Core_1_L1D_writebacks 0
Core_1_L1D_writeback_hit 0 L1D_writeback_Hit Ratio: -nan
Core_1_L1D_writeback_miss 0
Core_1_L1D_prefetch_requested 31363311
Core_1_L1D_prefetch_issued 16175117
Core_1_L1D_prefetch_useful 453692 L1D_Useful Ratio: 0.02805
Core_1_L1D_prefetch_useless 430012
Core_1_L1D_prefetch_late 56694
Core_1_L1D_average_miss_latency 696803.70268

Core_1_L1I_total_access 5009304
Core_1_L1I_total_hit 5004587 L1I_total_Hit Ratio: 0.99906
Core_1_L1I_total_miss 4717
Core_1_L1I_loads 5009304
Core_1_L1I_load_hit 5004587 L1I_load_Hit Ratio: 0.99906
Core_1_L1I_load_miss 4717
Core_1_L1I_RFOs 0
Core_1_L1I_RFO_hit 0 L1I_RFO_Hit Ratio: -nan
Core_1_L1I_RFO_miss 0
Core_1_L1I_prefetches 0
Core_1_L1I_prefetch_hit 0 L1I_prefetch_Hit Ratio: -nan
Core_1_L1I_prefetch_miss 0
Core_1_L1I_writebacks 0
Core_1_L1I_writeback_hit 0 L1I_writeback_Hit Ratio: -nan
Core_1_L1I_writeback_miss 0
Core_1_L1I_prefetch_requested 0
Core_1_L1I_prefetch_issued 0
Core_1_L1I_prefetch_useful 0 L1I_Useful Ratio: -nan
Core_1_L1I_prefetch_useless 0
Core_1_L1I_prefetch_late 0
Core_1_L1I_average_miss_latency 1181.90969

Core_1_L2C_total_access 4719903
Core_1_L2C_total_hit 4348407 L2C_total_Hit Ratio: 0.92129
Core_1_L2C_total_miss 371496
Core_1_L2C_loads 861160
Core_1_L2C_load_hit 777253 L2C_load_Hit Ratio: 0.90257
Core_1_L2C_load_miss 83907
Core_1_L2C_RFOs 51641
Core_1_L2C_RFO_hit 35631 L2C_RFO_Hit Ratio: 0.68998
Core_1_L2C_RFO_miss 16010
Core_1_L2C_prefetches 3567487
Core_1_L2C_prefetch_hit 3295919 L2C_prefetch_Hit Ratio: 0.92388
Core_1_L2C_prefetch_miss 271568
Core_1_L2C_writebacks 239615
Core_1_L2C_writeback_hit 239604 L2C_writeback_Hit Ratio: 0.99995
Core_1_L2C_writeback_miss 11
Core_1_L2C_prefetch_requested 10141492
Core_1_L2C_prefetch_issued 4558439
Core_1_L2C_prefetch_useful 116387 L2C_Useful Ratio: 0.02553
Core_1_L2C_prefetch_useless 165803
Core_1_L2C_prefetch_late 42427
Core_1_L2C_average_miss_latency 981.89885

Core_1_LLC_total_access 587719
Core_1_LLC_total_hit 213755 LLC_total_Hit Ratio: 0.36370
Core_1_LLC_total_miss 373964
Core_1_LLC_loads 41713
Core_1_LLC_load_hit 659 LLC_load_Hit Ratio: 0.01580
Core_1_LLC_load_miss 41054
Core_1_LLC_RFOs 15986
Core_1_LLC_RFO_hit 4 LLC_RFO_Hit Ratio: 0.00025
Core_1_LLC_RFO_miss 15982
Core_1_LLC_prefetches 323013
Core_1_LLC_prefetch_hit 9816 LLC_prefetch_Hit Ratio: 0.03039
Core_1_LLC_prefetch_miss 313197
Core_1_LLC_writebacks 207007
Core_1_LLC_writeback_hit 203276 LLC_writeback_Hit Ratio: 0.98198
Core_1_LLC_writeback_miss 3731
Core_1_LLC_prefetch_requested 0
Core_1_LLC_prefetch_issued 0
Core_1_LLC_prefetch_useful 4423 LLC_Useful Ratio: inf
Core_1_LLC_prefetch_useless 1147048
Core_1_LLC_prefetch_late 9098
Core_1_LLC_average_miss_latency 4009.96357

Core_1_major_page_fault 0
Core_1_minor_page_fault 3956

Core_2_instructions 37000001
Core_2_cycles 62770575
Core_2_IPC 0.58945

Core_2_branch_prediction_accuracy 98.44343
Core_2_branch_MPKI 0.49454
Core_2_average_ROB_occupancy_at_mispredict 343.13738

Core_2_L1D_total_access 23409190
Core_2_L1D_total_hit 21643136 L1D_total_Hit Ratio: 0.92456
Core_2_L1D_total_miss 1766054
Core_2_L1D_loads 9150901
Core_2_L1D_load_hit 8240040 L1D_load_Hit Ratio: 0.90046
Core_2_L1D_load_miss 910861
Core_2_L1D_RFOs 1151519
Core_2_L1D_RFO_hit 1099515 L1D_RFO_Hit Ratio: 0.95484
Core_2_L1D_RFO_miss 52004
Core_2_L1D_prefetches 13106770
Core_2_L1D_prefetch_hit 12303581 L1D_prefetch_Hit Ratio: 0.93872
Core_2_L1D_prefetch_miss 803189
Core_2_L1D_writebacks 0
Core_2_L1D_writeback_hit 0 L1D_writeback_Hit Ratio: -nan
Core_2_L1D_writeback_miss 0
Core_2_L1D_prefetch_requested 30949629
Core_2_L1D_prefetch_issued 16035425
Core_2_L1D_prefetch_useful 444202 L1D_Useful Ratio: 0.02770
Core_2_L1D_prefetch_useless 418302
Core_2_L1D_prefetch_late 56150
Core_2_L1D_average_miss_latency 692362.85409

Core_2_L1I_total_access 5008300
Core_2_L1I_total_hit 5003583 L1I_total_Hit Ratio: 0.99906
Core_2_L1I_total_miss 4717
Core_2_L1I_loads 5008300
Core_2_L1I_load_hit 5003583 L1I_load_Hit Ratio: 0.99906
Core_2_L1I_load_miss 4717
Core_2_L1I_RFOs 0
Core_2_L1I_RFO_hit 0 L1I_RFO_Hit Ratio: -nan
Core_2_L1I_RFO_miss 0
Core_2_L1I_prefetches 0
Core_2_L1I_prefetch_hit 0 L1I_prefetch_Hit Ratio: -nan
Core_2_L1I_prefetch_miss 0
Core_2_L1I_writebacks 0
Core_2_L1I_writeback_hit 0 L1I_writeback_Hit Ratio: -nan
Core_2_L1I_writeback_miss 0
Core_2_L1I_prefetch_requested 0
Core_2_L1I_prefetch_issued 0
Core_2_L1I_prefetch_useful 0 L1I_Useful Ratio: -nan
Core_2_L1I_prefetch_useless 0
Core_2_L1I_prefetch_late 0
Core_2_L1I_average_miss_latency 1014.10028

Core_2_L2C_total_access 4671221
Core_2_L2C_total_hit 4299770 L2C_total_Hit Ratio: 0.92048
Core_2_L2C_total_miss 371451
Core_2_L2C_loads 861638
Core_2_L2C_load_hit 777579 L2C_load_Hit Ratio: 0.90244
Core_2_L2C_load_miss 84059
Core_2_L2C_RFOs 51656
Core_2_L2C_RFO_hit 35702 L2C_RFO_Hit Ratio: 0.69115
Core_2_L2C_RFO_miss 15954
Core_2_L2C_prefetches 3518313
Core_2_L2C_prefetch_hit 3246886 L2C_prefetch_Hit Ratio: 0.92285
Core_2_L2C_prefetch_miss 271427
Core_2_L2C_writebacks 239614
Core_2_L2C_writeback_hit 239603 L2C_writeback_Hit Ratio: 0.99995
Core_2_L2C_writeback_miss 11
Core_2_L2C_prefetch_requested 9765218
Core_2_L2C_prefetch_issued 4403898
Core_2_L2C_prefetch_useful 116055 L2C_Useful Ratio: 0.02635
Core_2_L2C_prefetch_useless 163074
Core_2_L2C_prefetch_late 41986
Core_2_L2C_average_miss_latency 1011.12023

Core_2_LLC_total_access 589048
Core_2_LLC_total_hit 215633 LLC_total_Hit Ratio: 0.36607
Core_2_LLC_total_miss 373415
Core_2_LLC_loads 42304
Core_2_LLC_load_hit 1070 LLC_load_Hit Ratio: 0.02529
Core_2_LLC_load_miss 41234
Core_2_LLC_RFOs 15941
Core_2_LLC_RFO_hit 0 LLC_RFO_Hit Ratio: 0.00000
Core_2_LLC_RFO_miss 15941
Core_2_LLC_prefetches 323935
Core_2_LLC_prefetch_hit 11720 LLC_prefetch_Hit Ratio: 0.03618
Core_2_LLC_prefetch_miss 312215
Core_2_LLC_writebacks 206868
Core_2_LLC_writeback_hit 202843 LLC_writeback_Hit Ratio: 0.98054
Core_2_LLC_writeback_miss 4025
Core_2_LLC_prefetch_requested 0
Core_2_LLC_prefetch_issued 0
Core_2_LLC_prefetch_useful 4423 LLC_Useful Ratio: inf
Core_2_LLC_prefetch_useless 1147048
Core_2_LLC_prefetch_late 9098
Core_2_LLC_average_miss_latency 4015.85907

Core_2_major_page_fault 0
Core_2_minor_page_fault 3943

Core_3_instructions 37000001
Core_3_cycles 63339286
Core_3_IPC 0.58416

Core_3_branch_prediction_accuracy 98.43854
Core_3_branch_MPKI 0.50534
Core_3_average_ROB_occupancy_at_mispredict 343.08215

Core_3_L1D_total_access 23404006
Core_3_L1D_total_hit 21637793 L1D_total_Hit Ratio: 0.92453
Core_3_L1D_total_miss 1766213
Core_3_L1D_loads 9152591
Core_3_L1D_load_hit 8241739 L1D_load_Hit Ratio: 0.90048
Core_3_L1D_load_miss 910852
Core_3_L1D_RFOs 1151788
Core_3_L1D_RFO_hit 1099805 L1D_RFO_Hit Ratio: 0.95487
Core_3_L1D_RFO_miss 51983
Core_3_L1D_prefetches 13099627
Core_3_L1D_prefetch_hit 12296249 L1D_prefetch_Hit Ratio: 0.93867
Core_3_L1D_prefetch_miss 803378
Core_3_L1D_writebacks 0
Core_3_L1D_writeback_hit 0 L1D_writeback_Hit Ratio: -nan
Core_3_L1D_writeback_miss 0
Core_3_L1D_prefetch_requested 30221136
Core_3_L1D_prefetch_issued 15804500
Core_3_L1D_prefetch_useful 428197 L1D_Useful Ratio: 0.02709
Core_3_L1D_prefetch_useless 396878
Core_3_L1D_prefetch_late 55137
Core_3_L1D_average_miss_latency 688843.89180

Core_3_L1I_total_access 5010613
Core_3_L1I_total_hit 5005894 L1I_total_Hit Ratio: 0.99906
Core_3_L1I_total_miss 4719
Core_3_L1I_loads 5010613
Core_3_L1I_load_hit 5005894 L1I_load_Hit Ratio: 0.99906
Core_3_L1I_load_miss 4719
Core_3_L1I_RFOs 0
Core_3_L1I_RFO_hit 0 L1I_RFO_Hit Ratio: -nan
Core_3_L1I_RFO_miss 0
Core_3_L1I_prefetches 0
Core_3_L1I_prefetch_hit 0 L1I_prefetch_Hit Ratio: -nan
Core_3_L1I_prefetch_miss 0
Core_3_L1I_writebacks 0
Core_3_L1I_writeback_hit 0 L1I_writeback_Hit Ratio: -nan
Core_3_L1I_writeback_miss 0
Core_3_L1I_prefetch_requested 0
Core_3_L1I_prefetch_issued 0
Core_3_L1I_prefetch_useful 0 L1I_Useful Ratio: -nan
Core_3_L1I_prefetch_useless 0
Core_3_L1I_prefetch_late 0
Core_3_L1I_average_miss_latency 1089.88154

Core_3_L2C_total_access 4647443
Core_3_L2C_total_hit 4276028 L2C_total_Hit Ratio: 0.92008
Core_3_L2C_total_miss 371415
Core_3_L2C_loads 861878
Core_3_L2C_load_hit 777785 L2C_load_Hit Ratio: 0.90243
Core_3_L2C_load_miss 84093
Core_3_L2C_RFOs 51658
Core_3_L2C_RFO_hit 35857 L2C_RFO_Hit Ratio: 0.69412
Core_3_L2C_RFO_miss 15801
Core_3_L2C_prefetches 3494299
Core_3_L2C_prefetch_hit 3222789 L2C_prefetch_Hit Ratio: 0.92230
Core_3_L2C_prefetch_miss 271510
Core_3_L2C_writebacks 239608
Core_3_L2C_writeback_hit 239597 L2C_writeback_Hit Ratio: 0.99995
Core_3_L2C_writeback_miss 11
Core_3_L2C_prefetch_requested 9194690
Core_3_L2C_prefetch_issued 4216295
Core_3_L2C_prefetch_useful 115016 L2C_Useful Ratio: 0.02728
Core_3_L2C_prefetch_useless 162532
Core_3_L2C_prefetch_late 41447
Core_3_L2C_average_miss_latency 1035.27989

Core_3_LLC_total_access 589600
Core_3_LLC_total_hit 216168 LLC_total_Hit Ratio: 0.36664
Core_3_LLC_total_miss 373432
Core_3_LLC_loads 42721
Core_3_LLC_load_hit 974 LLC_load_Hit Ratio: 0.02280
Core_3_LLC_load_miss 41747
Core_3_LLC_RFOs 15790
Core_3_LLC_RFO_hit 2 LLC_RFO_Hit Ratio: 0.00013
Core_3_LLC_RFO_miss 15788
Core_3_LLC_prefetches 324665
Core_3_LLC_prefetch_hit 12414 LLC_prefetch_Hit Ratio: 0.03824
Core_3_LLC_prefetch_miss 312251
Core_3_LLC_writebacks 206424
Core_3_LLC_writeback_hit 202778 LLC_writeback_Hit Ratio: 0.98234
Core_3_LLC_writeback_miss 3646
Core_3_LLC_prefetch_requested 0
Core_3_LLC_prefetch_issued 0
Core_3_LLC_prefetch_useful 4423 LLC_Useful Ratio: inf
Core_3_LLC_prefetch_useless 1147048
Core_3_LLC_prefetch_late 9098
Core_3_LLC_average_miss_latency 4015.67625

Core_3_major_page_fault 0
Core_3_minor_page_fault 3913

CPU 0 L1D next line prefetcher final stats
CPU 0 L2C PC-based stride prefetcher final stats
Stride Degree: 15
MK1  MARKOV_LRU_SIZE: 128
MK1  MARKOV_PREDICTION_PERCENTTHRESHOLD: 40.00000
MK1  OUTLIERS_THRESHOLD_Max: 64
MK1  OUTLIERS_THRESHOLD_Min: 32
MK2  MARKOV_LRU_SIZE: 256
MK2  MARKOV_PREDICTION_PERCENTTHRESHOLD: 30.00000
MK2  OUTLIERS_THRESHOLD_Max: 32
MK2  OUTLIERS_THRESHOLD_Min: 16
MK3  MARKOV_LRU_SIZE: 384
MK3  MARKOV_PREDICTION_PERCENTTHRESHOLD: 25.00000
MK3  OUTLIERS_THRESHOLD_Max: 16
MK3  OUTLIERS_THRESHOLD_Min: 8
MK4  MARKOV_LRU_SIZE: 512
MK4  MARKOV_PREDICTION_PERCENTTHRESHOLD: 20.00000
MK4  OUTLIERS_THRESHOLD_Max: 8
MK4  OUTLIERS_THRESHOLD_Min: 0
IPStride Degree/Access Ratio: 1.75468
MK1 IPDEltaMarkov  Degree/Access Ratio: 0.40752
MK2 IPDEltaMarkov  Degree/Access Ratio: 0.84611
MK3 IPDEltaMarkov  Degree/Access Ratio: 1.06052
MK4 IPDEltaMarkov  Degree/Access Ratio: 1.43321
CPU 1 L1D next line prefetcher final stats
CPU 1 L2C PC-based stride prefetcher final stats
Stride Degree: 15
MK1  MARKOV_LRU_SIZE: 128
MK1  MARKOV_PREDICTION_PERCENTTHRESHOLD: 40.00000
MK1  OUTLIERS_THRESHOLD_Max: 64
MK1  OUTLIERS_THRESHOLD_Min: 32
MK2  MARKOV_LRU_SIZE: 256
MK2  MARKOV_PREDICTION_PERCENTTHRESHOLD: 30.00000
MK2  OUTLIERS_THRESHOLD_Max: 32
MK2  OUTLIERS_THRESHOLD_Min: 16
MK3  MARKOV_LRU_SIZE: 384
MK3  MARKOV_PREDICTION_PERCENTTHRESHOLD: 25.00000
MK3  OUTLIERS_THRESHOLD_Max: 16
MK3  OUTLIERS_THRESHOLD_Min: 8
MK4  MARKOV_LRU_SIZE: 512
MK4  MARKOV_PREDICTION_PERCENTTHRESHOLD: 20.00000
MK4  OUTLIERS_THRESHOLD_Max: 8
MK4  OUTLIERS_THRESHOLD_Min: 0
IPStride Degree/Access Ratio: 1.75468
MK1 IPDEltaMarkov  Degree/Access Ratio: 0.40752
MK2 IPDEltaMarkov  Degree/Access Ratio: 0.84611
MK3 IPDEltaMarkov  Degree/Access Ratio: 1.06052
MK4 IPDEltaMarkov  Degree/Access Ratio: 1.43321
CPU 2 L1D next line prefetcher final stats
CPU 2 L2C PC-based stride prefetcher final stats
Stride Degree: 15
MK1  MARKOV_LRU_SIZE: 128
MK1  MARKOV_PREDICTION_PERCENTTHRESHOLD: 40.00000
MK1  OUTLIERS_THRESHOLD_Max: 64
MK1  OUTLIERS_THRESHOLD_Min: 32
MK2  MARKOV_LRU_SIZE: 256
MK2  MARKOV_PREDICTION_PERCENTTHRESHOLD: 30.00000
MK2  OUTLIERS_THRESHOLD_Max: 32
MK2  OUTLIERS_THRESHOLD_Min: 16
MK3  MARKOV_LRU_SIZE: 384
MK3  MARKOV_PREDICTION_PERCENTTHRESHOLD: 25.00000
MK3  OUTLIERS_THRESHOLD_Max: 16
MK3  OUTLIERS_THRESHOLD_Min: 8
MK4  MARKOV_LRU_SIZE: 512
MK4  MARKOV_PREDICTION_PERCENTTHRESHOLD: 20.00000
MK4  OUTLIERS_THRESHOLD_Max: 8
MK4  OUTLIERS_THRESHOLD_Min: 0
IPStride Degree/Access Ratio: 1.75468
MK1 IPDEltaMarkov  Degree/Access Ratio: 0.40752
MK2 IPDEltaMarkov  Degree/Access Ratio: 0.84611
MK3 IPDEltaMarkov  Degree/Access Ratio: 1.06052
MK4 IPDEltaMarkov  Degree/Access Ratio: 1.43321
CPU 3 L1D next line prefetcher final stats
CPU 3 L2C PC-based stride prefetcher final stats
Stride Degree: 15
MK1  MARKOV_LRU_SIZE: 128
MK1  MARKOV_PREDICTION_PERCENTTHRESHOLD: 40.00000
MK1  OUTLIERS_THRESHOLD_Max: 64
MK1  OUTLIERS_THRESHOLD_Min: 32
MK2  MARKOV_LRU_SIZE: 256
MK2  MARKOV_PREDICTION_PERCENTTHRESHOLD: 30.00000
MK2  OUTLIERS_THRESHOLD_Max: 32
MK2  OUTLIERS_THRESHOLD_Min: 16
MK3  MARKOV_LRU_SIZE: 384
MK3  MARKOV_PREDICTION_PERCENTTHRESHOLD: 25.00000
MK3  OUTLIERS_THRESHOLD_Max: 16
MK3  OUTLIERS_THRESHOLD_Min: 8
MK4  MARKOV_LRU_SIZE: 512
MK4  MARKOV_PREDICTION_PERCENTTHRESHOLD: 20.00000
MK4  OUTLIERS_THRESHOLD_Max: 8
MK4  OUTLIERS_THRESHOLD_Min: 0
IPStride Degree/Access Ratio: 1.75468
MK1 IPDEltaMarkov  Degree/Access Ratio: 0.40752
MK2 IPDEltaMarkov  Degree/Access Ratio: 0.84611
MK3 IPDEltaMarkov  Degree/Access Ratio: 1.06052
MK4 IPDEltaMarkov  Degree/Access Ratio: 1.43321
Channel_0_RQ_row_buffer_hit 709748
Channel_0_RQ_row_buffer_miss 782591
Channel_0_WQ_row_buffer_hit 263284
Channel_0_WQ_row_buffer_miss 545569
Channel_0_WQ_full 596
Channel_0_dbus_congested 1845146

avg_congested_cycle 11

EzSearch AVG IPC :0.58506: L2-Pf-HR :0.92257 : L2-HR :0.92075 Uful:0.02696
EzSearch AVG IPC :0.59225: L2-Pf-HR :0.92388 : L2-HR :0.92420 Uful:0.02553
EzSearch AVG IPC :0.58945: L2-Pf-HR :0.92285 : L2-HR :0.92237 Uful:0.02635
EzSearch AVG IPC :0.58416: L2-Pf-HR :0.92230 : L2-HR :0.92008 Uful:0.02728
     > Finished combination: TraceType=770-tot Sim:37000000 Prefetcher=L2029-SecTOP-L2-MultiMarkovDelta_ip_stride_v4-IPStrS256 L1=next_line
