TRACE: [331000000][Pythia-70M]_[h8][s1024][d64] Warmup: 2000000 NumTraces: 331000000
L1:bingo_dpc3_PHT1k:L2:bingo_dpc3_PHT1k
*************************************************
   ChampSim Multicore Out-of-Order Simulator
   Last compiled: Oct 28 2024 09:30:24
*************************************************

trace_0 770-tot_memTraces_v3/memTraces[331000000][Pythia-70M]_[h8][s1024][d64].champsim.xz
trace_1 770-tot_memTraces_v3/memTraces[331000000][Pythia-70M]_[h8][s1024][d64].champsim.xz
trace_2 770-tot_memTraces_v3/memTraces[331000000][Pythia-70M]_[h8][s1024][d64].champsim.xz
trace_3 770-tot_memTraces_v3/memTraces[331000000][Pythia-70M]_[h8][s1024][d64].champsim.xz
Bingo PHT WAYS: 16 and PHT_SIZE: 1024
Bingo2 PHT WAYS: 16 and PHT_SIZE: 1024
Bingo PHT WAYS: 16 and PHT_SIZE: 1024
Bingo2 PHT WAYS: 16 and PHT_SIZE: 1024
Bingo PHT WAYS: 16 and PHT_SIZE: 1024
Bingo2 PHT WAYS: 16 and PHT_SIZE: 1024
Bingo PHT WAYS: 16 and PHT_SIZE: 1024
Bingo2 PHT WAYS: 16 and PHT_SIZE: 1024
MAIN.cc ln 751 stats print skipped
CPU  1 inst:    1000000 cyc:     500010 now IPC :1.99996: AVG IPC :1.99996: L2-Pf-HR :0.72851: L2-HR :0.65832: (Sim:0h1m36s) 
CPU  0 inst:    1000000 cyc:     500093 now IPC :1.99963: AVG IPC :1.99963: L2-Pf-HR :0.73208: L2-HR :0.66241: (Sim:0h1m36s) 
CPU  3 inst:    1000000 cyc:     500147 now IPC :1.99941: AVG IPC :1.99941: L2-Pf-HR :0.77191: L2-HR :0.68381: (Sim:0h1m36s) 
CPU  2 inst:    1000000 cyc:     500249 now IPC :1.99900: AVG IPC :1.99900: L2-Pf-HR :0.73228: L2-HR :0.65737: (Sim:0h1m36s) 
CPU  1 inst:    2000003 cyc:     983395 now IPC :2.06875: AVG IPC :2.03377: L2-Pf-HR :0.76582: L2-HR :0.71638: (Sim:0h3m19s) 
CPU  0 inst:    2000003 cyc:     983535 now IPC :2.06851: AVG IPC :2.03348: L2-Pf-HR :0.76898: L2-HR :0.72173: (Sim:0h3m19s) 
CPU  3 inst:    2000003 cyc:     983585 now IPC :2.06852: AVG IPC :2.03338: L2-Pf-HR :0.78819: L2-HR :0.73110: (Sim:0h3m19s) 
CPU  2 inst:    2000003 cyc:     983632 now IPC :2.06876: AVG IPC :2.03328: L2-Pf-HR :0.76969: L2-HR :0.71678: (Sim:0h3m19s) 

Warmup complete CPU  0 instructions:    2000283 cycles:     983632 (Simulation time: 0 hr 3 min 19 sec) 
Warmup complete CPU  1 instructions:    2000535 cycles:     983632 (Simulation time: 0 hr 3 min 19 sec) 
Warmup complete CPU  2 instructions:    2000003 cycles:     983632 (Simulation time: 0 hr 3 min 19 sec) 
Warmup complete CPU  3 instructions:    2000242 cycles:     983631 (Simulation time: 0 hr 3 min 19 sec) 

CPU  1 inst:    3000000 cyc:    1774993 now IPC :1.26326: AVG IPC :1.26297: L2-Pf-HR :0.91442: L2-HR :0.77492: (Sim:0h4m55s) 
CPU  3 inst:    3000000 cyc:    1775197 now IPC :1.26324: AVG IPC :1.26301: L2-Pf-HR :0.91789: L2-HR :0.78151: (Sim:0h4m55s) 
CPU  0 inst:    3000000 cyc:    1775401 now IPC :1.26284: AVG IPC :1.26264: L2-Pf-HR :0.91567: L2-HR :0.78051: (Sim:0h4m55s) 
CPU  2 inst:    3000000 cyc:    1780251 now IPC :1.25530: AVG IPC :1.25530: L2-Pf-HR :0.91551: L2-HR :0.77478: (Sim:0h4m56s) 
CPU  1 inst:    4000002 cyc:    2610681 now IPC :1.19662: AVG IPC :1.22889: L2-Pf-HR :0.91364: L2-HR :0.77218: (Sim:0h6m33s) 
CPU  3 inst:    4000002 cyc:    2610885 now IPC :1.19662: AVG IPC :1.22892: L2-Pf-HR :0.91663: L2-HR :0.77670: (Sim:0h6m33s) 
CPU  0 inst:    4000002 cyc:    2611089 now IPC :1.19662: AVG IPC :1.22874: L2-Pf-HR :0.91671: L2-HR :0.77838: (Sim:0h6m33s) 
CPU  2 inst:    4000002 cyc:    2628042 now IPC :1.17954: AVG IPC :1.21624: L2-Pf-HR :0.91358: L2-HR :0.77160: (Sim:0h6m35s) 
CPU  1 inst:    5000000 cyc:    3400421 now IPC :1.26624: AVG IPC :1.24110: L2-Pf-HR :0.90256: L2-HR :0.76803: (Sim:0h8m9s) 
CPU  3 inst:    5000000 cyc:    3400625 now IPC :1.26624: AVG IPC :1.24111: L2-Pf-HR :0.90446: L2-HR :0.77267: (Sim:0h8m9s) 
CPU  0 inst:    5000000 cyc:    3400778 now IPC :1.26632: AVG IPC :1.24102: L2-Pf-HR :0.90096: L2-HR :0.77420: (Sim:0h8m9s) 
CPU  2 inst:    5000000 cyc:    3435639 now IPC :1.23824: AVG IPC :1.22349: L2-Pf-HR :0.90360: L2-HR :0.76640: (Sim:0h8m14s) 
CPU  0 inst:    6000000 cyc:    4236043 now IPC :1.19722: AVG IPC :1.22977: L2-Pf-HR :0.90214: L2-HR :0.77095: (Sim:0h9m47s) 
CPU  1 inst:    6000000 cyc:    4236347 now IPC :1.19628: AVG IPC :1.22958: L2-Pf-HR :0.90289: L2-HR :0.76491: (Sim:0h9m47s) 
CPU  3 inst:    6000000 cyc:    4236661 now IPC :1.19612: AVG IPC :1.22955: L2-Pf-HR :0.90508: L2-HR :0.76978: (Sim:0h9m47s) 
CPU  2 inst:    6000000 cyc:    4275571 now IPC :1.19057: AVG IPC :1.21509: L2-Pf-HR :0.90328: L2-HR :0.76353: (Sim:0h9m51s) 
CPU  3 inst:    7000004 cyc:    5556279 now IPC :0.75780: AVG IPC :1.09341: L2-Pf-HR :0.90764: L2-HR :0.76857: (Sim:0h11m44s) 
CPU  0 inst:    7000004 cyc:    5560075 now IPC :0.75527: AVG IPC :1.09249: L2-Pf-HR :0.90503: L2-HR :0.76813: (Sim:0h11m44s) 
CPU  1 inst:    7000004 cyc:    5568103 now IPC :0.75089: AVG IPC :1.09052: L2-Pf-HR :0.90504: L2-HR :0.76478: (Sim:0h11m45s) 
CPU  2 inst:    7000004 cyc:    5583866 now IPC :0.76436: AVG IPC :1.08690: L2-Pf-HR :0.90519: L2-HR :0.76264: (Sim:0h11m47s) 
CPU  3 inst:    8000000 cyc:    6796570 now IPC :0.80626: AVG IPC :1.03214: L2-Pf-HR :0.91141: L2-HR :0.76811: (Sim:0h13m32s) 
CPU  0 inst:    8000000 cyc:    6929070 now IPC :0.73046: AVG IPC :1.00913: L2-Pf-HR :0.91000: L2-HR :0.76783: (Sim:0h13m45s) 
CPU  1 inst:    8000000 cyc:    6955602 now IPC :0.72072: AVG IPC :1.00460: L2-Pf-HR :0.91001: L2-HR :0.76602: (Sim:0h13m48s) 
CPU  2 inst:    8000000 cyc:    6970681 now IPC :0.72107: AVG IPC :1.00216: L2-Pf-HR :0.90974: L2-HR :0.76409: (Sim:0h13m49s) 
CPU  3 inst:    9000002 cyc:    7647629 now IPC :1.17501: AVG IPC :1.05038: L2-Pf-HR :0.91361: L2-HR :0.76742: (Sim:0h14m57s) 
CPU  0 inst:    9000002 cyc:    8022689 now IPC :0.91440: AVG IPC :0.99441: L2-Pf-HR :0.91209: L2-HR :0.76656: (Sim:0h15m36s) 
CPU  2 inst:    9000002 cyc:    8111743 now IPC :0.87638: AVG IPC :0.98203: L2-Pf-HR :0.91249: L2-HR :0.76463: (Sim:0h15m45s) 
CPU  1 inst:    9000002 cyc:    8112047 now IPC :0.86472: AVG IPC :0.98191: L2-Pf-HR :0.91230: L2-HR :0.76616: (Sim:0h15m46s) 
CPU  3 inst:   10000001 cyc:    8509883 now IPC :1.15975: AVG IPC :1.06291: L2-Pf-HR :0.91601: L2-HR :0.76718: (Sim:0h16m29s) 
CPU  0 inst:   10000001 cyc:    8876716 now IPC :1.17092: AVG IPC :1.01351: L2-Pf-HR :0.91413: L2-HR :0.76602: (Sim:0h17m6s) 
CPU  2 inst:   10000001 cyc:    9211251 now IPC :0.90950: AVG IPC :0.97233: L2-Pf-HR :0.91492: L2-HR :0.76515: (Sim:0h17m40s) 
CPU  1 inst:   10000001 cyc:    9216980 now IPC :0.90503: AVG IPC :0.97159: L2-Pf-HR :0.91527: L2-HR :0.76655: (Sim:0h17m41s) 
CPU  3 inst:   11000002 cyc:    9582456 now IPC :0.93234: AVG IPC :1.04663: L2-Pf-HR :0.91761: L2-HR :0.76688: (Sim:0h18m19s) 
CPU  0 inst:   11000002 cyc:    9711118 now IPC :1.19846: AVG IPC :1.03119: L2-Pf-HR :0.91536: L2-HR :0.76551: (Sim:0h18m32s) 
CPU  2 inst:   11000002 cyc:   10294263 now IPC :0.92335: AVG IPC :0.96664: L2-Pf-HR :0.91592: L2-HR :0.76544: (Sim:0h19m29s) 
CPU  1 inst:   11000002 cyc:   10384001 now IPC :0.85688: AVG IPC :0.95735: L2-Pf-HR :0.91654: L2-HR :0.76690: (Sim:0h19m38s) 
CPU  3 inst:   12000001 cyc:   10683941 now IPC :0.90786: AVG IPC :1.03087: L2-Pf-HR :0.91880: L2-HR :0.76631: (Sim:0h20m10s) 
CPU  0 inst:   12000001 cyc:   10717648 now IPC :0.99351: AVG IPC :1.02730: L2-Pf-HR :0.91690: L2-HR :0.76491: (Sim:0h20m13s) 
CPU  2 inst:   12000001 cyc:   11200530 now IPC :1.10343: AVG IPC :0.97877: L2-Pf-HR :0.91676: L2-HR :0.76549: (Sim:0h20m59s) 
CPU  1 inst:   12000001 cyc:   11567817 now IPC :0.84473: AVG IPC :0.94476: L2-Pf-HR :0.91798: L2-HR :0.76679: (Sim:0h21m32s) 
CPU  3 inst:   13000005 cyc:   12006571 now IPC :0.75607: AVG IPC :0.99790: L2-Pf-HR :0.91720: L2-HR :0.76787: (Sim:0h22m17s) 
CPU  0 inst:   13000000 cyc:   12031957 now IPC :0.76086: AVG IPC :0.99560: L2-Pf-HR :0.91558: L2-HR :0.76666: (Sim:0h22m20s) 
CPU  2 inst:   13000000 cyc:   12288593 now IPC :0.91906: AVG IPC :0.97302: L2-Pf-HR :0.91550: L2-HR :0.76733: (Sim:0h22m49s) 
CPU  1 inst:   13000004 cyc:   12785065 now IPC :0.82153: AVG IPC :0.93205: L2-Pf-HR :0.91682: L2-HR :0.76883: (Sim:0h23m41s) 
CPU  3 inst:   14000003 cyc:   13071859 now IPC :0.93871: AVG IPC :0.99268: L2-Pf-HR :0.91752: L2-HR :0.77067: (Sim:0h24m12s) 
CPU  0 inst:   14000003 cyc:   13132359 now IPC :0.90876: AVG IPC :0.98773: L2-Pf-HR :0.91616: L2-HR :0.76965: (Sim:0h24m19s) 
CPU  2 inst:   14000003 cyc:   13398607 now IPC :0.90089: AVG IPC :0.96657: L2-Pf-HR :0.91587: L2-HR :0.77009: (Sim:0h24m48s) 
CPU  1 inst:   14000001 cyc:   13894003 now IPC :0.90176: AVG IPC :0.92944: L2-Pf-HR :0.91710: L2-HR :0.77148: (Sim:0h25m41s) 
CPU  3 inst:   15000004 cyc:   14116680 now IPC :0.95710: AVG IPC :0.98985: L2-Pf-HR :0.91707: L2-HR :0.77359: (Sim:0h26m4s) 
CPU  0 inst:   15000004 cyc:   14186871 now IPC :0.94831: AVG IPC :0.98459: L2-Pf-HR :0.91602: L2-HR :0.77254: (Sim:0h26m12s) 
CPU  2 inst:   15000004 cyc:   14599876 now IPC :0.83245: AVG IPC :0.95474: L2-Pf-HR :0.91586: L2-HR :0.77291: (Sim:0h26m54s) 
CPU  1 inst:   15000004 cyc:   15092856 now IPC :0.83413: AVG IPC :0.92135: L2-Pf-HR :0.91694: L2-HR :0.77428: (Sim:0h27m43s) 
CPU  3 inst:   16000005 cyc:   15317964 now IPC :0.83244: AVG IPC :0.97666: L2-Pf-HR :0.91521: L2-HR :0.77601: (Sim:0h28m6s) 
CPU  0 inst:   16000005 cyc:   15359006 now IPC :0.85314: AVG IPC :0.97387: L2-Pf-HR :0.91537: L2-HR :0.77557: (Sim:0h28m10s) 
CPU  2 inst:   16000005 cyc:   15846023 now IPC :0.80247: AVG IPC :0.94198: L2-Pf-HR :0.91528: L2-HR :0.77580: (Sim:0h28m56s) 
CPU  1 inst:   16000005 cyc:   16262311 now IPC :0.85510: AVG IPC :0.91627: L2-Pf-HR :0.91529: L2-HR :0.77678: (Sim:0h29m33s) 
CPU  3 inst:   17000001 cyc:   16953521 now IPC :0.61141: AVG IPC :0.93925: L2-Pf-HR :0.91223: L2-HR :0.77351: (Sim:0h30m38s) 
CPU  0 inst:   17000001 cyc:   16966219 now IPC :0.62219: AVG IPC :0.93850: L2-Pf-HR :0.91255: L2-HR :0.77346: (Sim:0h30m39s) 
CPU  2 inst:   17000001 cyc:   17222121 now IPC :0.72669: AVG IPC :0.92373: L2-Pf-HR :0.91344: L2-HR :0.77386: (Sim:0h31m6s) 
CPU  1 inst:   17000001 cyc:   17587277 now IPC :0.75473: AVG IPC :0.90338: L2-Pf-HR :0.91388: L2-HR :0.77450: (Sim:0h31m43s) 
CPU  0 inst:   18000000 cyc:   18250578 now IPC :0.77860: AVG IPC :0.92661: L2-Pf-HR :0.91204: L2-HR :0.77244: (Sim:0h32m50s) 
CPU  3 inst:   18000000 cyc:   18306944 now IPC :0.73887: AVG IPC :0.92360: L2-Pf-HR :0.91151: L2-HR :0.77262: (Sim:0h32m56s) 
CPU  2 inst:   18000000 cyc:   18406517 now IPC :0.84431: AVG IPC :0.91833: L2-Pf-HR :0.91269: L2-HR :0.77301: (Sim:0h33m6s) 
CPU  1 inst:   18000000 cyc:   18693607 now IPC :0.90389: AVG IPC :0.90342: L2-Pf-HR :0.91308: L2-HR :0.77344: (Sim:0h33m34s) 
CPU  0 inst:   19000001 cyc:   19455188 now IPC :0.83015: AVG IPC :0.92032: L2-Pf-HR :0.91107: L2-HR :0.77119: (Sim:0h34m52s) 
CPU  3 inst:   19000001 cyc:   19670009 now IPC :0.73364: AVG IPC :0.90974: L2-Pf-HR :0.91102: L2-HR :0.77143: (Sim:0h35m13s) 
CPU  2 inst:   19000001 cyc:   19742954 now IPC :0.74826: AVG IPC :0.90622: L2-Pf-HR :0.91178: L2-HR :0.77171: (Sim:0h35m21s) 
CPU  1 inst:   19000001 cyc:   19843406 now IPC :0.86972: AVG IPC :0.90136: L2-Pf-HR :0.91241: L2-HR :0.77220: (Sim:0h35m32s) 
CPU  0 inst:   20000004 cyc:   20558014 now IPC :0.90676: AVG IPC :0.91956: L2-Pf-HR :0.91075: L2-HR :0.77037: (Sim:0h36m45s) 
CPU  3 inst:   20000004 cyc:   20802099 now IPC :0.88332: AVG IPC :0.90823: L2-Pf-HR :0.91077: L2-HR :0.77073: (Sim:0h37m10s) 
CPU  2 inst:   20000004 cyc:   21077276 now IPC :0.74945: AVG IPC :0.89581: L2-Pf-HR :0.91140: L2-HR :0.77078: (Sim:0h37m39s) 
CPU  1 inst:   20000004 cyc:   21121716 now IPC :0.78229: AVG IPC :0.89380: L2-Pf-HR :0.91215: L2-HR :0.77141: (Sim:0h37m43s) 
CPU  0 inst:   21000003 cyc:   21664689 now IPC :0.90361: AVG IPC :0.91870: L2-Pf-HR :0.91043: L2-HR :0.76937: (Sim:0h38m38s) 
CPU  3 inst:   21000003 cyc:   21925646 now IPC :0.89004: AVG IPC :0.90726: L2-Pf-HR :0.91049: L2-HR :0.76982: (Sim:0h39m4s) 
CPU  2 inst:   21000003 cyc:   22432281 now IPC :0.73800: AVG IPC :0.88584: L2-Pf-HR :0.91107: L2-HR :0.76980: (Sim:0h39m52s) 
CPU  1 inst:   21000003 cyc:   22556497 now IPC :0.69697: AVG IPC :0.88071: L2-Pf-HR :0.91193: L2-HR :0.77044: (Sim:0h40m3s) 
CPU  0 inst:   22000000 cyc:   23013371 now IPC :0.74146: AVG IPC :0.90785: L2-Pf-HR :0.91006: L2-HR :0.76844: (Sim:0h40m43s) 
CPU  3 inst:   22000000 cyc:   23143265 now IPC :0.82127: AVG IPC :0.90253: L2-Pf-HR :0.91032: L2-HR :0.76891: (Sim:0h40m55s) 
CPU  2 inst:   22000000 cyc:   23601621 now IPC :0.85518: AVG IPC :0.88425: L2-Pf-HR :0.91073: L2-HR :0.76879: (Sim:0h41m37s) 
CPU  1 inst:   22000000 cyc:   23982334 now IPC :0.70134: AVG IPC :0.86959: L2-Pf-HR :0.91165: L2-HR :0.76943: (Sim:0h42m2s) 
CPU  0 inst:   23000002 cyc:   24572062 now IPC :0.64157: AVG IPC :0.89026: L2-Pf-HR :0.90962: L2-HR :0.76771: (Sim:0h42m30s) 
CPU  3 inst:   23000002 cyc:   24653547 now IPC :0.66213: AVG IPC :0.88719: L2-Pf-HR :0.90985: L2-HR :0.76820: (Sim:0h42m34s) 
CPU  2 inst:   23000002 cyc:   24928258 now IPC :0.75379: AVG IPC :0.87702: L2-Pf-HR :0.91017: L2-HR :0.76757: (Sim:0h42m49s) 
CPU  1 inst:   23000002 cyc:   25221771 now IPC :0.80682: AVG IPC :0.86638: L2-Pf-HR :0.91146: L2-HR :0.76866: (Sim:0h43m6s) 
CPU  0 inst:   24000002 cyc:   25759166 now IPC :0.84239: AVG IPC :0.88796: L2-Pf-HR :0.91058: L2-HR :0.76809: (Sim:0h43m35s) 
CPU  3 inst:   24000002 cyc:   25785591 now IPC :0.88336: AVG IPC :0.88702: L2-Pf-HR :0.91081: L2-HR :0.76872: (Sim:0h43m37s) 
CPU  2 inst:   24000002 cyc:   25919651 now IPC :1.00868: AVG IPC :0.88226: L2-Pf-HR :0.91107: L2-HR :0.76737: (Sim:0h43m44s) 
CPU  1 inst:   24000002 cyc:   26207072 now IPC :1.01492: AVG IPC :0.87218: L2-Pf-HR :0.91239: L2-HR :0.76848: (Sim:0h44m0s) 
CPU  3 inst:   25000004 cyc:   27025779 now IPC :0.80633: AVG IPC :0.88317: L2-Pf-HR :0.91145: L2-HR :0.76892: (Sim:0h45m17s) 
CPU  0 inst:   25000004 cyc:   27051404 now IPC :0.77385: AVG IPC :0.88230: L2-Pf-HR :0.91126: L2-HR :0.76826: (Sim:0h45m19s) 
CPU  2 inst:   25000001 cyc:   27138554 now IPC :0.82041: AVG IPC :0.87938: L2-Pf-HR :0.91161: L2-HR :0.76692: (Sim:0h45m28s) 
CPU  1 inst:   25000001 cyc:   27197274 now IPC :1.00989: AVG IPC :0.87739: L2-Pf-HR :0.91303: L2-HR :0.76807: (Sim:0h45m33s) 
CPU  3 inst:   26000004 cyc:   28047136 now IPC :0.97909: AVG IPC :0.88679: L2-Pf-HR :0.91198: L2-HR :0.76911: (Sim:0h46m53s) 
CPU  0 inst:   26000004 cyc:   28376234 now IPC :0.75481: AVG IPC :0.87614: L2-Pf-HR :0.91168: L2-HR :0.76851: (Sim:0h47m25s) 
CPU  1 inst:   26000004 cyc:   28471012 now IPC :0.78509: AVG IPC :0.87311: L2-Pf-HR :0.91360: L2-HR :0.76777: (Sim:0h47m34s) 
CPU  2 inst:   26000004 cyc:   28474435 now IPC :0.74857: AVG IPC :0.87302: L2-Pf-HR :0.91208: L2-HR :0.76655: (Sim:0h47m35s) 
CPU  3 inst:   27000000 cyc:   29001565 now IPC :1.04774: AVG IPC :0.89228: L2-Pf-HR :0.91266: L2-HR :0.76931: (Sim:0h48m24s) 
CPU  0 inst:   27000000 cyc:   29412693 now IPC :0.96482: AVG IPC :0.87937: L2-Pf-HR :0.91221: L2-HR :0.76887: (Sim:0h49m4s) 
CPU  1 inst:   27000000 cyc:   29644298 now IPC :0.85230: AVG IPC :0.87226: L2-Pf-HR :0.91425: L2-HR :0.76755: (Sim:0h49m16s) 
CPU  2 inst:   27000000 cyc:   29690408 now IPC :0.82238: AVG IPC :0.87087: L2-Pf-HR :0.91248: L2-HR :0.76632: (Sim:0h49m18s) 
CPU  3 inst:   28000003 cyc:   30086938 now IPC :0.92134: AVG IPC :0.89336: L2-Pf-HR :0.91328: L2-HR :0.76957: (Sim:0h49m41s) 
CPU  0 inst:   28000003 cyc:   30356843 now IPC :1.05916: AVG IPC :0.88515: L2-Pf-HR :0.91272: L2-HR :0.76913: (Sim:0h49m56s) 
CPU  1 inst:   28000003 cyc:   30641172 now IPC :1.00314: AVG IPC :0.87666: L2-Pf-HR :0.91484: L2-HR :0.76735: (Sim:0h50m12s) 
CPU  2 inst:   28000003 cyc:   30795430 now IPC :0.90496: AVG IPC :0.87214: L2-Pf-HR :0.91309: L2-HR :0.76612: (Sim:0h50m21s) 
CPU  3 inst:   29000002 cyc:   31322794 now IPC :0.80915: AVG IPC :0.88993: L2-Pf-HR :0.91291: L2-HR :0.76990: (Sim:0h50m47s) 
CPU  0 inst:   29000002 cyc:   31519247 now IPC :0.86029: AVG IPC :0.88420: L2-Pf-HR :0.91242: L2-HR :0.76948: (Sim:0h50m58s) 
CPU  1 inst:   29000002 cyc:   31848139 now IPC :0.82852: AVG IPC :0.87477: L2-Pf-HR :0.91442: L2-HR :0.76762: (Sim:0h51m16s) 
CPU  2 inst:   29000002 cyc:   32009410 now IPC :0.82374: AVG IPC :0.87024: L2-Pf-HR :0.91269: L2-HR :0.76640: (Sim:0h51m25s) 
CPU  3 inst:   30000001 cyc:   32407248 now IPC :0.92212: AVG IPC :0.89104: L2-Pf-HR :0.91320: L2-HR :0.77119: (Sim:0h51m47s) 
CPU  0 inst:   30000001 cyc:   32624308 now IPC :0.90493: AVG IPC :0.88493: L2-Pf-HR :0.91276: L2-HR :0.77082: (Sim:0h51m59s) 
CPU  1 inst:   30000004 cyc:   32971800 now IPC :0.88995: AVG IPC :0.87531: L2-Pf-HR :0.91464: L2-HR :0.76898: (Sim:0h52m18s) 
CPU  2 inst:   30000004 cyc:   33081907 now IPC :0.93241: AVG IPC :0.87232: L2-Pf-HR :0.91301: L2-HR :0.76782: (Sim:0h52m24s) 
CPU  3 inst:   31000005 cyc:   33497708 now IPC :0.91705: AVG IPC :0.89191: L2-Pf-HR :0.91336: L2-HR :0.77252: (Sim:0h52m48s) 
CPU  0 inst:   31000005 cyc:   33705280 now IPC :0.92510: AVG IPC :0.88625: L2-Pf-HR :0.91273: L2-HR :0.77197: (Sim:0h52m59s) 
CPU  1 inst:   31000003 cyc:   34144709 now IPC :0.85258: AVG IPC :0.87450: L2-Pf-HR :0.91474: L2-HR :0.77037: (Sim:0h53m22s) 
CPU  2 inst:   31000005 cyc:   34249038 now IPC :0.85680: AVG IPC :0.87178: L2-Pf-HR :0.91322: L2-HR :0.76922: (Sim:0h53m27s) 
CPU  3 inst:   32000001 cyc:   34612808 now IPC :0.89678: AVG IPC :0.89208: L2-Pf-HR :0.91258: L2-HR :0.77339: (Sim:0h53m47s) 
CPU  0 inst:   32000005 cyc:   34851625 now IPC :0.87234: AVG IPC :0.88578: L2-Pf-HR :0.91174: L2-HR :0.77302: (Sim:0h54m0s) 
CPU  1 inst:   32000002 cyc:   35280274 now IPC :0.88062: AVG IPC :0.87471: L2-Pf-HR :0.91376: L2-HR :0.77144: (Sim:0h54m22s) 
CPU  2 inst:   32000000 cyc:   35448722 now IPC :0.83355: AVG IPC :0.87045: L2-Pf-HR :0.91248: L2-HR :0.77039: (Sim:0h54m30s) 
CPU  3 inst:   33000002 cyc:   35919578 now IPC :0.76525: AVG IPC :0.88733: L2-Pf-HR :0.91128: L2-HR :0.77234: (Sim:0h54m53s) 
CPU  0 inst:   33000002 cyc:   36207727 now IPC :0.73741: AVG IPC :0.88007: L2-Pf-HR :0.91096: L2-HR :0.77252: (Sim:0h55m7s) 
CPU  1 inst:   33000002 cyc:   36598388 now IPC :0.75866: AVG IPC :0.87041: L2-Pf-HR :0.91311: L2-HR :0.77098: (Sim:0h55m28s) 
CPU  2 inst:   33000002 cyc:   36838927 now IPC :0.71932: AVG IPC :0.86459: L2-Pf-HR :0.91169: L2-HR :0.76977: (Sim:0h55m41s) 
CPU  3 inst:   34000002 cyc:   37223660 now IPC :0.76682: AVG IPC :0.88299: L2-Pf-HR :0.91120: L2-HR :0.77189: (Sim:0h56m1s) 
CPU  0 inst:   34000002 cyc:   37357888 now IPC :0.86944: AVG IPC :0.87974: L2-Pf-HR :0.91079: L2-HR :0.77210: (Sim:0h56m8s) 
CPU  1 inst:   34000002 cyc:   37724651 now IPC :0.88789: AVG IPC :0.87095: L2-Pf-HR :0.91295: L2-HR :0.77072: (Sim:0h56m27s) 
CPU  2 inst:   34000002 cyc:   38244337 now IPC :0.71154: AVG IPC :0.85881: L2-Pf-HR :0.91153: L2-HR :0.76955: (Sim:0h56m53s) 
CPU  3 inst:   35000005 cyc:   38652387 now IPC :0.69993: AVG IPC :0.87605: L2-Pf-HR :0.91103: L2-HR :0.77134: (Sim:0h57m13s) 
CPU  0 inst:   35000000 cyc:   38779020 now IPC :0.70366: AVG IPC :0.87311: L2-Pf-HR :0.91048: L2-HR :0.77155: (Sim:0h57m19s) 
CPU  1 inst:   35000003 cyc:   38861667 now IPC :0.87950: AVG IPC :0.87120: L2-Pf-HR :0.91260: L2-HR :0.77029: (Sim:0h57m23s) 
CPU  2 inst:   35000000 cyc:   39734248 now IPC :0.67118: AVG IPC :0.85160: L2-Pf-HR :0.91116: L2-HR :0.76902: (Sim:0h58m5s) 
CPU  3 inst:   36000004 cyc:   39896351 now IPC :0.80388: AVG IPC :0.87374: L2-Pf-HR :0.91100: L2-HR :0.77080: (Sim:0h58m13s) 
CPU  1 inst:   36000004 cyc:   40278083 now IPC :0.70601: AVG IPC :0.86525: L2-Pf-HR :0.91260: L2-HR :0.76990: (Sim:0h58m33s) 
CPU  0 inst:   36000004 cyc:   40280158 now IPC :0.66616: AVG IPC :0.86521: L2-Pf-HR :0.91034: L2-HR :0.77108: (Sim:0h58m33s) 
CPU  2 inst:   36000004 cyc:   40939078 now IPC :0.83000: AVG IPC :0.85095: L2-Pf-HR :0.91093: L2-HR :0.76856: (Sim:0h59m7s) 
CPU  3 inst:   37000004 cyc:   41070214 now IPC :0.85189: AVG IPC :0.87310: L2-Pf-HR :0.91084: L2-HR :0.77034: (Sim:0h59m14s) 
CPU  1 inst:   37000004 cyc:   41625651 now IPC :0.74208: AVG IPC :0.86116: L2-Pf-HR :0.91259: L2-HR :0.76955: (Sim:0h59m48s) 
CPU  0 inst:   37000004 cyc:   41627920 now IPC :0.74197: AVG IPC :0.86112: L2-Pf-HR :0.91019: L2-HR :0.77062: (Sim:0h59m49s) 
CPU  2 inst:   37000004 cyc:   42158026 now IPC :0.82038: AVG IPC :0.85004: L2-Pf-HR :0.91076: L2-HR :0.76815: (Sim:1h0m38s) 
CPU  3 inst:   38000001 cyc:   42297473 now IPC :0.81482: AVG IPC :0.87137: L2-Pf-HR :0.91078: L2-HR :0.76980: (Sim:1h0m51s) 
CPU  1 inst:   38000001 cyc:   43023056 now IPC :0.71561: AVG IPC :0.85633: L2-Pf-HR :0.91251: L2-HR :0.76909: (Sim:1h1m58s) 
CPU  0 inst:   38000001 cyc:   43036834 now IPC :0.70976: AVG IPC :0.85605: L2-Pf-HR :0.91014: L2-HR :0.77010: (Sim:1h1m59s) 
CPU  2 inst:   38000001 cyc:   43392939 now IPC :0.80977: AVG IPC :0.84887: L2-Pf-HR :0.91069: L2-HR :0.76764: (Sim:1h2m30s) 
CPU  3 inst:   39000002 cyc:   43704586 now IPC :0.71068: AVG IPC :0.86608: L2-Pf-HR :0.91062: L2-HR :0.76925: (Sim:1h2m59s) 
CPU  1 inst:   39000002 cyc:   44516333 now IPC :0.66967: AVG IPC :0.84992: L2-Pf-HR :0.91219: L2-HR :0.76862: (Sim:1h4m9s) 
CPU  0 inst:   39000002 cyc:   44597876 now IPC :0.64060: AVG IPC :0.84834: L2-Pf-HR :0.90978: L2-HR :0.76937: (Sim:1h4m17s) 
CPU  2 inst:   39000002 cyc:   44808269 now IPC :0.70655: AVG IPC :0.84427: L2-Pf-HR :0.91022: L2-HR :0.76695: (Sim:1h4m37s) 
CPU  3 inst:   40000004 cyc:   45064513 now IPC :0.73534: AVG IPC :0.86205: L2-Pf-HR :0.91126: L2-HR :0.76921: (Sim:1h5m1s) 
CPU  1 inst:   40000004 cyc:   45608944 now IPC :0.91524: AVG IPC :0.85152: L2-Pf-HR :0.91266: L2-HR :0.76857: (Sim:1h5m57s) 
CPU  0 inst:   40000004 cyc:   45764452 now IPC :0.85721: AVG IPC :0.84857: L2-Pf-HR :0.91034: L2-HR :0.76922: (Sim:1h6m12s) 
CPU  2 inst:   40000004 cyc:   45950197 now IPC :0.87571: AVG IPC :0.84507: L2-Pf-HR :0.91074: L2-HR :0.76685: (Sim:1h6m32s) 
CPU  3 inst:   41000002 cyc:   46214809 now IPC :0.86934: AVG IPC :0.86223: L2-Pf-HR :0.91169: L2-HR :0.76899: (Sim:1h7m0s) 
CPU  1 inst:   41000002 cyc:   46606094 now IPC :1.00286: AVG IPC :0.85483: L2-Pf-HR :0.91296: L2-HR :0.76840: (Sim:1h7m42s) 
CPU  0 inst:   41000002 cyc:   46750777 now IPC :1.01386: AVG IPC :0.85213: L2-Pf-HR :0.91075: L2-HR :0.76897: (Sim:1h7m57s) 
CPU  2 inst:   41000002 cyc:   47057946 now IPC :0.90273: AVG IPC :0.84646: L2-Pf-HR :0.91105: L2-HR :0.76662: (Sim:1h8m30s) 
CPU  3 inst:   42000003 cyc:   47331568 now IPC :0.89545: AVG IPC :0.86303: L2-Pf-HR :0.91212: L2-HR :0.76881: (Sim:1h8m58s) 
CPU  1 inst:   42000005 cyc:   47590328 now IPC :1.01602: AVG IPC :0.85823: L2-Pf-HR :0.91331: L2-HR :0.76825: (Sim:1h9m26s) 
CPU  0 inst:   42000003 cyc:   47730654 now IPC :1.02054: AVG IPC :0.85566: L2-Pf-HR :0.91111: L2-HR :0.76875: (Sim:1h9m41s) 
CPU  2 inst:   42000005 cyc:   48161614 now IPC :0.90607: AVG IPC :0.84785: L2-Pf-HR :0.91141: L2-HR :0.76643: (Sim:1h10m26s) 
CPU  3 inst:   43000001 cyc:   48402881 now IPC :0.93343: AVG IPC :0.86462: L2-Pf-HR :0.91242: L2-HR :0.76868: (Sim:1h10m52s) 
CPU  1 inst:   43000003 cyc:   48584905 now IPC :1.00545: AVG IPC :0.86131: L2-Pf-HR :0.91362: L2-HR :0.76817: (Sim:1h11m11s) 
CPU  0 inst:   43000003 cyc:   48687051 now IPC :1.04559: AVG IPC :0.85947: L2-Pf-HR :0.91141: L2-HR :0.76865: (Sim:1h11m22s) 
CPU  2 inst:   43000005 cyc:   49332687 now IPC :0.85392: AVG IPC :0.84800: L2-Pf-HR :0.91173: L2-HR :0.76631: (Sim:1h12m26s) 
CPU  3 inst:   44000001 cyc:   49472771 now IPC :0.93468: AVG IPC :0.86617: L2-Pf-HR :0.91290: L2-HR :0.76850: (Sim:1h12m39s) 
CPU  1 inst:   44000001 cyc:   49768275 now IPC :0.84504: AVG IPC :0.86092: L2-Pf-HR :0.91402: L2-HR :0.76805: (Sim:1h13m9s) 
CPU  0 inst:   44000001 cyc:   49827502 now IPC :0.87684: AVG IPC :0.85988: L2-Pf-HR :0.91174: L2-HR :0.76852: (Sim:1h13m15s) 
CPU  2 inst:   44000001 cyc:   50450455 now IPC :0.89464: AVG IPC :0.84905: L2-Pf-HR :0.91210: L2-HR :0.76616: (Sim:1h14m15s) 
CPU  3 inst:   45000004 cyc:   50634509 now IPC :0.86078: AVG IPC :0.86604: L2-Pf-HR :0.91266: L2-HR :0.76846: (Sim:1h14m32s) 
CPU  1 inst:   45000004 cyc:   51041891 now IPC :0.78517: AVG IPC :0.85899: L2-Pf-HR :0.91381: L2-HR :0.76819: (Sim:1h15m13s) 
CPU  0 inst:   45000004 cyc:   51146668 now IPC :0.75806: AVG IPC :0.85720: L2-Pf-HR :0.91148: L2-HR :0.76843: (Sim:1h15m22s) 
CPU  2 inst:   45000004 cyc:   51687360 now IPC :0.80847: AVG IPC :0.84806: L2-Pf-HR :0.91184: L2-HR :0.76616: (Sim:1h15m54s) 
CPU  3 inst:   46000005 cyc:   51787009 now IPC :0.86768: AVG IPC :0.86608: L2-Pf-HR :0.91282: L2-HR :0.76939: (Sim:1h16m0s) 
CPU  1 inst:   46000005 cyc:   52030445 now IPC :1.01158: AVG IPC :0.86194: L2-Pf-HR :0.91394: L2-HR :0.76909: (Sim:1h16m13s) 
CPU  0 inst:   46000005 cyc:   52351887 now IPC :0.82973: AVG IPC :0.85655: L2-Pf-HR :0.91162: L2-HR :0.76923: (Sim:1h16m31s) 
CPU  2 inst:   46000005 cyc:   52693987 now IPC :0.99342: AVG IPC :0.85089: L2-Pf-HR :0.91204: L2-HR :0.76712: (Sim:1h16m51s) 
CPU  3 inst:   47000002 cyc:   52898654 now IPC :0.89957: AVG IPC :0.86680: L2-Pf-HR :0.91302: L2-HR :0.77020: (Sim:1h17m2s) 
CPU  1 inst:   47000002 cyc:   53014939 now IPC :1.01575: AVG IPC :0.86485: L2-Pf-HR :0.91411: L2-HR :0.76992: (Sim:1h17m11s) 
CPU  0 inst:   47000002 cyc:   53493712 now IPC :0.87579: AVG IPC :0.85697: L2-Pf-HR :0.91192: L2-HR :0.76997: (Sim:1h17m50s) 
CPU  2 inst:   47000002 cyc:   53683391 now IPC :1.01071: AVG IPC :0.85389: L2-Pf-HR :0.91224: L2-HR :0.76793: (Sim:1h18m1s) 
CPU  3 inst:   48000002 cyc:   53934649 now IPC :0.96526: AVG IPC :0.86872: L2-Pf-HR :0.91283: L2-HR :0.77100: (Sim:1h18m15s) 
CPU  1 inst:   48000002 cyc:   54149091 now IPC :0.88172: AVG IPC :0.86521: L2-Pf-HR :0.91390: L2-HR :0.77071: (Sim:1h18m27s) 
CPU  0 inst:   48000002 cyc:   54617244 now IPC :0.89005: AVG IPC :0.85767: L2-Pf-HR :0.91186: L2-HR :0.77079: (Sim:1h18m52s) 
CPU  2 inst:   48000002 cyc:   54725289 now IPC :0.95979: AVG IPC :0.85595: L2-Pf-HR :0.91181: L2-HR :0.76886: (Sim:1h18m57s) 
CPU  3 inst:   49000005 cyc:   55188410 now IPC :0.79760: AVG IPC :0.86708: L2-Pf-HR :0.91190: L2-HR :0.77056: (Sim:1h19m21s) 
CPU  1 inst:   49000005 cyc:   55495211 now IPC :0.74288: AVG IPC :0.86219: L2-Pf-HR :0.91295: L2-HR :0.77021: (Sim:1h19m35s) 
CPU  0 inst:   49000005 cyc:   55984865 now IPC :0.73120: AVG IPC :0.85452: L2-Pf-HR :0.91137: L2-HR :0.77060: (Sim:1h20m0s) 
CPU  2 inst:   49000005 cyc:   56149827 now IPC :0.70198: AVG IPC :0.85197: L2-Pf-HR :0.91096: L2-HR :0.76860: (Sim:1h20m8s) 
CPU  3 inst:   50000003 cyc:   56573284 now IPC :0.72209: AVG IPC :0.86347: L2-Pf-HR :0.91171: L2-HR :0.77032: (Sim:1h20m29s) 
CPU  1 inst:   50000003 cyc:   56679220 now IPC :0.84459: AVG IPC :0.86182: L2-Pf-HR :0.91269: L2-HR :0.77005: (Sim:1h20m35s) 
CPU  0 inst:   50000003 cyc:   57067426 now IPC :0.92373: AVG IPC :0.85586: L2-Pf-HR :0.91120: L2-HR :0.77049: (Sim:1h20m54s) 
CPU  2 inst:   50000003 cyc:   57672135 now IPC :0.65690: AVG IPC :0.84673: L2-Pf-HR :0.91106: L2-HR :0.76876: (Sim:1h21m22s) 
CPU  3 inst:   51000004 cyc:   58212157 now IPC :0.61018: AVG IPC :0.85621: L2-Pf-HR :0.91151: L2-HR :0.76996: (Sim:1h21m46s) 
CPU  1 inst:   51000004 cyc:   58253328 now IPC :0.63528: AVG IPC :0.85559: L2-Pf-HR :0.91242: L2-HR :0.76970: (Sim:1h21m48s) 
CPU  0 inst:   51000004 cyc:   58306932 now IPC :0.80677: AVG IPC :0.85480: L2-Pf-HR :0.91099: L2-HR :0.77025: (Sim:1h21m50s) 
CPU  2 inst:   51000004 cyc:   59031847 now IPC :0.73545: AVG IPC :0.84413: L2-Pf-HR :0.91092: L2-HR :0.76865: (Sim:1h22m26s) 
CPU  3 inst:   52000005 cyc:   59755980 now IPC :0.64774: AVG IPC :0.85074: L2-Pf-HR :0.91142: L2-HR :0.76962: (Sim:1h23m2s) 
CPU  0 inst:   52000001 cyc:   59855925 now IPC :0.64558: AVG IPC :0.84929: L2-Pf-HR :0.91088: L2-HR :0.77007: (Sim:1h23m7s) 
CPU  1 inst:   52000005 cyc:   59900419 now IPC :0.60713: AVG IPC :0.84865: L2-Pf-HR :0.91224: L2-HR :0.76942: (Sim:1h23m9s) 
CPU  2 inst:   52000001 cyc:   60118108 now IPC :0.92059: AVG IPC :0.84553: L2-Pf-HR :0.91076: L2-HR :0.76865: (Sim:1h23m20s) 
CPU  3 inst:   53000003 cyc:   60976386 now IPC :0.81940: AVG IPC :0.85010: L2-Pf-HR :0.91141: L2-HR :0.76931: (Sim:1h24m5s) 
CPU  0 inst:   53000003 cyc:   61231063 now IPC :0.72720: AVG IPC :0.84650: L2-Pf-HR :0.91069: L2-HR :0.76984: (Sim:1h24m18s) 
CPU  1 inst:   53000003 cyc:   61341299 now IPC :0.69402: AVG IPC :0.84495: L2-Pf-HR :0.91214: L2-HR :0.76914: (Sim:1h24m23s) 
CPU  2 inst:   53000003 cyc:   61414656 now IPC :0.77128: AVG IPC :0.84394: L2-Pf-HR :0.91078: L2-HR :0.76857: (Sim:1h24m27s) 
CPU  3 inst:   54000001 cyc:   62106929 now IPC :0.88453: AVG IPC :0.85074: L2-Pf-HR :0.91145: L2-HR :0.76894: (Sim:1h25m4s) 
CPU  0 inst:   54000001 cyc:   62377245 now IPC :0.87246: AVG IPC :0.84699: L2-Pf-HR :0.91064: L2-HR :0.76962: (Sim:1h25m18s) 
CPU  1 inst:   54000001 cyc:   62653679 now IPC :0.76197: AVG IPC :0.84319: L2-Pf-HR :0.91205: L2-HR :0.76879: (Sim:1h25m32s) 
CPU  2 inst:   54000001 cyc:   62732912 now IPC :0.75858: AVG IPC :0.84212: L2-Pf-HR :0.91083: L2-HR :0.76844: (Sim:1h25m36s) 
CPU  3 inst:   55000001 cyc:   63435726 now IPC :0.75256: AVG IPC :0.84865: L2-Pf-HR :0.91116: L2-HR :0.76838: (Sim:1h26m10s) 
CPU  0 inst:   55000001 cyc:   63747707 now IPC :0.72968: AVG IPC :0.84443: L2-Pf-HR :0.91035: L2-HR :0.76916: (Sim:1h26m24s) 
CPU  1 inst:   55000001 cyc:   64116338 now IPC :0.68369: AVG IPC :0.83949: L2-Pf-HR :0.91170: L2-HR :0.76828: (Sim:1h26m43s) 
CPU  2 inst:   55000001 cyc:   64239478 now IPC :0.66376: AVG IPC :0.83787: L2-Pf-HR :0.91049: L2-HR :0.76810: (Sim:1h26m49s) 
CPU  3 inst:   56000001 cyc:   64627891 now IPC :0.83881: AVG IPC :0.84846: L2-Pf-HR :0.91158: L2-HR :0.76833: (Sim:1h27m11s) 
CPU  0 inst:   56000001 cyc:   64779601 now IPC :0.96909: AVG IPC :0.84644: L2-Pf-HR :0.91078: L2-HR :0.76909: (Sim:1h27m19s) 
CPU  1 inst:   56000001 cyc:   65155502 now IPC :0.96231: AVG IPC :0.84148: L2-Pf-HR :0.91212: L2-HR :0.76832: (Sim:1h27m40s) 
CPU  2 inst:   56000001 cyc:   65384238 now IPC :0.87355: AVG IPC :0.83850: L2-Pf-HR :0.91093: L2-HR :0.76823: (Sim:1h27m53s) 
CPU  3 inst:   57000001 cyc:   65831029 now IPC :0.83116: AVG IPC :0.84814: L2-Pf-HR :0.91188: L2-HR :0.76821: (Sim:1h28m17s) 
CPU  0 inst:   57000001 cyc:   65901713 now IPC :0.89118: AVG IPC :0.84722: L2-Pf-HR :0.91107: L2-HR :0.76895: (Sim:1h28m21s) 
CPU  1 inst:   57000001 cyc:   66168978 now IPC :0.98670: AVG IPC :0.84374: L2-Pf-HR :0.91243: L2-HR :0.76829: (Sim:1h28m36s) 
CPU  2 inst:   57000001 cyc:   66393855 now IPC :0.99047: AVG IPC :0.84085: L2-Pf-HR :0.91124: L2-HR :0.76828: (Sim:1h28m49s) 
CPU  3 inst:   58000002 cyc:   66958657 now IPC :0.88682: AVG IPC :0.84880: L2-Pf-HR :0.91218: L2-HR :0.76807: (Sim:1h29m21s) 
CPU  0 inst:   58000002 cyc:   67001627 now IPC :0.90916: AVG IPC :0.84825: L2-Pf-HR :0.91140: L2-HR :0.76882: (Sim:1h29m24s) 
CPU  1 inst:   58000002 cyc:   67145768 now IPC :1.02376: AVG IPC :0.84640: L2-Pf-HR :0.91278: L2-HR :0.76828: (Sim:1h29m32s) 
CPU  2 inst:   58000002 cyc:   67340258 now IPC :1.05663: AVG IPC :0.84392: L2-Pf-HR :0.91159: L2-HR :0.76837: (Sim:1h29m43s) 
CPU  3 inst:   59000001 cyc:   68046631 now IPC :0.91914: AVG IPC :0.84994: L2-Pf-HR :0.91253: L2-HR :0.76800: (Sim:1h30m23s) 
CPU  0 inst:   59000000 cyc:   68143912 now IPC :0.87544: AVG IPC :0.84871: L2-Pf-HR :0.91177: L2-HR :0.76874: (Sim:1h30m29s) 
CPU  1 inst:   59000001 cyc:   68212751 now IPC :0.93722: AVG IPC :0.84784: L2-Pf-HR :0.91311: L2-HR :0.76831: (Sim:1h30m33s) 
CPU  2 inst:   59000004 cyc:   68314556 now IPC :1.02638: AVG IPC :0.84656: L2-Pf-HR :0.91198: L2-HR :0.76845: (Sim:1h30m38s) 
CPU  3 inst:   60000004 cyc:   69042268 now IPC :1.00439: AVG IPC :0.85220: L2-Pf-HR :0.91293: L2-HR :0.76787: (Sim:1h31m20s) 
CPU  0 inst:   60000004 cyc:   69180804 now IPC :0.96442: AVG IPC :0.85047: L2-Pf-HR :0.91210: L2-HR :0.76856: (Sim:1h31m27s) 
CPU  1 inst:   60000003 cyc:   69341795 now IPC :0.88571: AVG IPC :0.84846: L2-Pf-HR :0.91344: L2-HR :0.76822: (Sim:1h31m37s) 
CPU  2 inst:   60000003 cyc:   69383336 now IPC :0.93565: AVG IPC :0.84796: L2-Pf-HR :0.91240: L2-HR :0.76850: (Sim:1h31m39s) 
CPU  3 inst:   61000005 cyc:   70147864 now IPC :0.90449: AVG IPC :0.85304: L2-Pf-HR :0.91275: L2-HR :0.76772: (Sim:1h32m19s) 
CPU  0 inst:   61000005 cyc:   70309388 now IPC :0.88607: AVG IPC :0.85105: L2-Pf-HR :0.91188: L2-HR :0.76844: (Sim:1h32m27s) 
CPU  1 inst:   61000005 cyc:   70642765 now IPC :0.76866: AVG IPC :0.84697: L2-Pf-HR :0.91330: L2-HR :0.76809: (Sim:1h32m44s) 
CPU  2 inst:   61000005 cyc:   70753487 now IPC :0.72985: AVG IPC :0.84564: L2-Pf-HR :0.91224: L2-HR :0.76840: (Sim:1h32m50s) 
CPU  3 inst:   62000002 cyc:   71510283 now IPC :0.73399: AVG IPC :0.85074: L2-Pf-HR :0.91293: L2-HR :0.76834: (Sim:1h33m28s) 
CPU  0 inst:   62000002 cyc:   71526097 now IPC :0.82189: AVG IPC :0.85055: L2-Pf-HR :0.91204: L2-HR :0.76894: (Sim:1h33m29s) 
CPU  1 inst:   62000002 cyc:   71621327 now IPC :1.02190: AVG IPC :0.84940: L2-Pf-HR :0.91343: L2-HR :0.76839: (Sim:1h33m34s) 
CPU  2 inst:   62000002 cyc:   71955039 now IPC :0.83225: AVG IPC :0.84541: L2-Pf-HR :0.91231: L2-HR :0.76871: (Sim:1h33m51s) 
CPU  3 inst:   63000001 cyc:   72703233 now IPC :0.83826: AVG IPC :0.85053: L2-Pf-HR :0.91304: L2-HR :0.76896: (Sim:1h34m31s) 
CPU  0 inst:   63000001 cyc:   72833463 now IPC :0.76490: AVG IPC :0.84899: L2-Pf-HR :0.91210: L2-HR :0.76940: (Sim:1h34m38s) 
CPU  1 inst:   63000001 cyc:   72859234 now IPC :0.80781: AVG IPC :0.84868: L2-Pf-HR :0.91342: L2-HR :0.76866: (Sim:1h34m40s) 
CPU  2 inst:   63000001 cyc:   72953018 now IPC :1.00202: AVG IPC :0.84758: L2-Pf-HR :0.91236: L2-HR :0.76901: (Sim:1h34m45s) 
CPU  3 inst:   64000000 cyc:   73690874 now IPC :1.01251: AVG IPC :0.85273: L2-Pf-HR :0.91268: L2-HR :0.76957: (Sim:1h35m24s) 
CPU  0 inst:   64000005 cyc:   74004677 now IPC :0.85382: AVG IPC :0.84907: L2-Pf-HR :0.91178: L2-HR :0.76990: (Sim:1h35m44s) 
CPU  1 inst:   64000000 cyc:   74068573 now IPC :0.82690: AVG IPC :0.84832: L2-Pf-HR :0.91307: L2-HR :0.76904: (Sim:1h35m52s) 
CPU  2 inst:   64000000 cyc:   74089438 now IPC :0.87996: AVG IPC :0.84809: L2-Pf-HR :0.91216: L2-HR :0.76940: (Sim:1h35m54s) 
CPU  3 inst:   65000002 cyc:   74964634 now IPC :0.78508: AVG IPC :0.85157: L2-Pf-HR :0.91221: L2-HR :0.76928: (Sim:1h36m39s) 
CPU  0 inst:   65000002 cyc:   75363163 now IPC :0.73611: AVG IPC :0.84700: L2-Pf-HR :0.91141: L2-HR :0.76974: (Sim:1h36m57s) 
CPU  1 inst:   65000002 cyc:   75576381 now IPC :0.66322: AVG IPC :0.84458: L2-Pf-HR :0.91283: L2-HR :0.76879: (Sim:1h37m13s) 
CPU  2 inst:   65000002 cyc:   75598543 now IPC :0.66265: AVG IPC :0.84434: L2-Pf-HR :0.91158: L2-HR :0.76906: (Sim:1h37m15s) 
CPU  3 inst:   66000002 cyc:   76162711 now IPC :0.83467: AVG IPC :0.85130: L2-Pf-HR :0.91226: L2-HR :0.76928: (Sim:1h37m47s) 
CPU  0 inst:   66000002 cyc:   76501112 now IPC :0.87877: AVG IPC :0.84748: L2-Pf-HR :0.91144: L2-HR :0.76964: (Sim:1h38m4s) 
CPU  1 inst:   66000002 cyc:   76985872 now IPC :0.70948: AVG IPC :0.84207: L2-Pf-HR :0.91292: L2-HR :0.76890: (Sim:1h38m28s) 
CPU  2 inst:   66000002 cyc:   77010376 now IPC :0.70830: AVG IPC :0.84181: L2-Pf-HR :0.91166: L2-HR :0.76915: (Sim:1h38m30s) 
CPU  3 inst:   67000000 cyc:   77517268 now IPC :0.73825: AVG IPC :0.84930: L2-Pf-HR :0.91229: L2-HR :0.76907: (Sim:1h38m56s) 
CPU  0 inst:   67000000 cyc:   77624813 now IPC :0.88991: AVG IPC :0.84810: L2-Pf-HR :0.91140: L2-HR :0.76941: (Sim:1h39m3s) 
CPU  1 inst:   67000000 cyc:   78346891 now IPC :0.73474: AVG IPC :0.84019: L2-Pf-HR :0.91296: L2-HR :0.76888: (Sim:1h39m37s) 
CPU  2 inst:   67000000 cyc:   78519095 now IPC :0.66281: AVG IPC :0.83833: L2-Pf-HR :0.91157: L2-HR :0.76902: (Sim:1h39m45s) 
CPU  0 inst:   68000005 cyc:   79042595 now IPC :0.70533: AVG IPC :0.84551: L2-Pf-HR :0.91132: L2-HR :0.76915: (Sim:1h40m13s) 
CPU  3 inst:   68000005 cyc:   79048102 now IPC :0.65324: AVG IPC :0.84545: L2-Pf-HR :0.91225: L2-HR :0.76880: (Sim:1h40m13s) 
CPU  1 inst:   68000005 cyc:   79481713 now IPC :0.88120: AVG IPC :0.84078: L2-Pf-HR :0.91297: L2-HR :0.76880: (Sim:1h40m36s) 
CPU  2 inst:   68000005 cyc:   79637430 now IPC :0.89419: AVG IPC :0.83912: L2-Pf-HR :0.91142: L2-HR :0.76888: (Sim:1h40m43s) 
CPU  0 inst:   69000000 cyc:   80337528 now IPC :0.77224: AVG IPC :0.84432: L2-Pf-HR :0.91117: L2-HR :0.76892: (Sim:1h41m22s) 
CPU  3 inst:   69000000 cyc:   80389011 now IPC :0.74576: AVG IPC :0.84377: L2-Pf-HR :0.91225: L2-HR :0.76859: (Sim:1h41m27s) 
CPU  1 inst:   69000000 cyc:   80628568 now IPC :0.87195: AVG IPC :0.84123: L2-Pf-HR :0.91295: L2-HR :0.76874: (Sim:1h41m42s) 
CPU  2 inst:   69000000 cyc:   80775431 now IPC :0.87873: AVG IPC :0.83969: L2-Pf-HR :0.91135: L2-HR :0.76878: (Sim:1h41m50s) 
CPU  0 inst:   70000004 cyc:   81603847 now IPC :0.78969: AVG IPC :0.84346: L2-Pf-HR :0.91109: L2-HR :0.76868: (Sim:1h42m32s) 
CPU  3 inst:   70000004 cyc:   81682632 now IPC :0.77303: AVG IPC :0.84263: L2-Pf-HR :0.91227: L2-HR :0.76831: (Sim:1h42m37s) 
CPU  1 inst:   70000004 cyc:   81832977 now IPC :0.83029: AVG IPC :0.84106: L2-Pf-HR :0.91295: L2-HR :0.76864: (Sim:1h42m44s) 
CPU  2 inst:   70000004 cyc:   81944041 now IPC :0.85572: AVG IPC :0.83992: L2-Pf-HR :0.91126: L2-HR :0.76862: (Sim:1h42m49s) 
CPU  0 inst:   71000001 cyc:   83043278 now IPC :0.69472: AVG IPC :0.84085: L2-Pf-HR :0.91081: L2-HR :0.76834: (Sim:1h43m40s) 
CPU  3 inst:   71000004 cyc:   83200690 now IPC :0.65874: AVG IPC :0.83924: L2-Pf-HR :0.91201: L2-HR :0.76794: (Sim:1h43m47s) 
CPU  1 inst:   71000001 cyc:   83370824 now IPC :0.65026: AVG IPC :0.83750: L2-Pf-HR :0.91263: L2-HR :0.76839: (Sim:1h43m55s) 
CPU  2 inst:   71000001 cyc:   83461461 now IPC :0.65901: AVG IPC :0.83659: L2-Pf-HR :0.91103: L2-HR :0.76836: (Sim:1h44m0s) 
CPU  0 inst:   72000000 cyc:   84177123 now IPC :0.88195: AVG IPC :0.84141: L2-Pf-HR :0.91113: L2-HR :0.76845: (Sim:1h44m39s) 
CPU  3 inst:   72000000 cyc:   84301097 now IPC :0.90875: AVG IPC :0.84016: L2-Pf-HR :0.91230: L2-HR :0.76805: (Sim:1h44m46s) 
CPU  1 inst:   72000000 cyc:   84454569 now IPC :0.92273: AVG IPC :0.83861: L2-Pf-HR :0.91295: L2-HR :0.76863: (Sim:1h44m54s) 
CPU  2 inst:   72000000 cyc:   84553489 now IPC :0.91573: AVG IPC :0.83762: L2-Pf-HR :0.91144: L2-HR :0.76869: (Sim:1h44m59s) 
CPU  0 inst:   73000000 cyc:   85212353 now IPC :0.96597: AVG IPC :0.84294: L2-Pf-HR :0.91138: L2-HR :0.76850: (Sim:1h45m36s) 
CPU  3 inst:   73000000 cyc:   85331181 now IPC :0.97079: AVG IPC :0.84175: L2-Pf-HR :0.91253: L2-HR :0.76812: (Sim:1h45m43s) 
CPU  1 inst:   73000000 cyc:   85513332 now IPC :0.94450: AVG IPC :0.83994: L2-Pf-HR :0.91310: L2-HR :0.76871: (Sim:1h46m0s) 
CPU  2 inst:   73000000 cyc:   85602551 now IPC :0.95323: AVG IPC :0.83906: L2-Pf-HR :0.91170: L2-HR :0.76885: (Sim:1h46m10s) 
CPU  0 inst:   74000005 cyc:   86208738 now IPC :1.00363: AVG IPC :0.84482: L2-Pf-HR :0.91164: L2-HR :0.76850: (Sim:1h47m20s) 
CPU  3 inst:   74000005 cyc:   86344065 now IPC :0.98728: AVG IPC :0.84348: L2-Pf-HR :0.91278: L2-HR :0.76816: (Sim:1h47m36s) 
CPU  1 inst:   74000005 cyc:   86563061 now IPC :0.95263: AVG IPC :0.84132: L2-Pf-HR :0.91331: L2-HR :0.76875: (Sim:1h48m1s) 
CPU  2 inst:   74000005 cyc:   86640836 now IPC :0.96313: AVG IPC :0.84056: L2-Pf-HR :0.91198: L2-HR :0.76896: (Sim:1h48m10s) 
CPU  0 inst:   75000000 cyc:   87162274 now IPC :1.04872: AVG IPC :0.84707: L2-Pf-HR :0.91189: L2-HR :0.76859: (Sim:1h49m12s) 
CPU  3 inst:   75000000 cyc:   87307615 now IPC :1.03782: AVG IPC :0.84565: L2-Pf-HR :0.91299: L2-HR :0.76827: (Sim:1h49m29s) 
CPU  1 inst:   75000000 cyc:   87571900 now IPC :0.99123: AVG IPC :0.84306: L2-Pf-HR :0.91350: L2-HR :0.76890: (Sim:1h50m1s) 
CPU  2 inst:   75000000 cyc:   87669974 now IPC :0.97168: AVG IPC :0.84212: L2-Pf-HR :0.91226: L2-HR :0.76917: (Sim:1h50m12s) 
CPU  0 inst:   76000003 cyc:   88090359 now IPC :1.07749: AVG IPC :0.84953: L2-Pf-HR :0.91218: L2-HR :0.76864: (Sim:1h51m4s) 
CPU  3 inst:   76000003 cyc:   88250148 now IPC :1.06097: AVG IPC :0.84797: L2-Pf-HR :0.91325: L2-HR :0.76832: (Sim:1h51m23s) 
CPU  1 inst:   76000003 cyc:   88506729 now IPC :1.06972: AVG IPC :0.84549: L2-Pf-HR :0.91374: L2-HR :0.76904: (Sim:1h51m55s) 
CPU  2 inst:   76000003 cyc:   88614751 now IPC :1.05845: AVG IPC :0.84445: L2-Pf-HR :0.91262: L2-HR :0.76928: (Sim:1h52m8s) 
CPU  0 inst:   77000004 cyc:   89144534 now IPC :0.94861: AVG IPC :0.85071: L2-Pf-HR :0.91212: L2-HR :0.76859: (Sim:1h53m7s) 
CPU  3 inst:   77000004 cyc:   89290959 now IPC :0.96079: AVG IPC :0.84930: L2-Pf-HR :0.91324: L2-HR :0.76829: (Sim:1h53m25s) 
CPU  1 inst:   77000004 cyc:   89671620 now IPC :0.85845: AVG IPC :0.84566: L2-Pf-HR :0.91361: L2-HR :0.76900: (Sim:1h54m2s) 
CPU  2 inst:   77000004 cyc:   89824187 now IPC :0.82683: AVG IPC :0.84421: L2-Pf-HR :0.91265: L2-HR :0.76936: (Sim:1h54m19s) 
CPU  0 inst:   78000002 cyc:   90311343 now IPC :0.85704: AVG IPC :0.85080: L2-Pf-HR :0.91219: L2-HR :0.76896: (Sim:1h55m12s) 
CPU  3 inst:   78000002 cyc:   90437487 now IPC :0.87220: AVG IPC :0.84960: L2-Pf-HR :0.91333: L2-HR :0.76875: (Sim:1h55m26s) 
CPU  1 inst:   78000002 cyc:   90688291 now IPC :0.98360: AVG IPC :0.84722: L2-Pf-HR :0.91374: L2-HR :0.76948: (Sim:1h55m54s) 
CPU  2 inst:   78000002 cyc:   90962416 now IPC :0.87856: AVG IPC :0.84464: L2-Pf-HR :0.91283: L2-HR :0.76984: (Sim:1h56m26s) 
CPU  0 inst:   79000000 cyc:   91314399 now IPC :0.99695: AVG IPC :0.85242: L2-Pf-HR :0.91226: L2-HR :0.76941: (Sim:1h57m5s) 
CPU  3 inst:   79000000 cyc:   91586410 now IPC :0.87038: AVG IPC :0.84986: L2-Pf-HR :0.91342: L2-HR :0.76929: (Sim:1h57m36s) 
CPU  1 inst:   79000000 cyc:   91670700 now IPC :1.01790: AVG IPC :0.84907: L2-Pf-HR :0.91379: L2-HR :0.77003: (Sim:1h57m46s) 
CPU  2 inst:   79000000 cyc:   92080904 now IPC :0.89406: AVG IPC :0.84525: L2-Pf-HR :0.91292: L2-HR :0.77034: (Sim:1h58m32s) 
CPU  0 inst:   80000002 cyc:   92323736 now IPC :0.99075: AVG IPC :0.85395: L2-Pf-HR :0.91205: L2-HR :0.76981: (Sim:1h58m57s) 
CPU  3 inst:   80000002 cyc:   92781547 now IPC :0.83673: AVG IPC :0.84969: L2-Pf-HR :0.91316: L2-HR :0.76973: (Sim:1h59m46s) 
CPU  1 inst:   80000002 cyc:   92854805 now IPC :0.84452: AVG IPC :0.84901: L2-Pf-HR :0.91352: L2-HR :0.77049: (Sim:1h59m53s) 
CPU  2 inst:   80000002 cyc:   93141594 now IPC :0.94278: AVG IPC :0.84637: L2-Pf-HR :0.91267: L2-HR :0.77077: (Sim:2h0m27s) 
CPU  0 inst:   81000001 cyc:   93639867 now IPC :0.75980: AVG IPC :0.85261: L2-Pf-HR :0.91164: L2-HR :0.76981: (Sim:2h1m19s) 
CPU  3 inst:   81000005 cyc:   94050329 now IPC :0.78816: AVG IPC :0.84885: L2-Pf-HR :0.91279: L2-HR :0.76965: (Sim:2h1m59s) 
CPU  1 inst:   81000001 cyc:   94188639 now IPC :0.74972: AVG IPC :0.84759: L2-Pf-HR :0.91307: L2-HR :0.77038: (Sim:2h2m12s) 
CPU  2 inst:   81000001 cyc:   94535034 now IPC :0.71765: AVG IPC :0.84446: L2-Pf-HR :0.91226: L2-HR :0.77064: (Sim:2h2m46s) 
CPU  0 inst:   82000003 cyc:   94921546 now IPC :0.78023: AVG IPC :0.85162: L2-Pf-HR :0.91168: L2-HR :0.76976: (Sim:2h3m27s) 
CPU  3 inst:   82000003 cyc:   95254773 now IPC :0.83026: AVG IPC :0.84861: L2-Pf-HR :0.91277: L2-HR :0.76977: (Sim:2h4m2s) 
CPU  1 inst:   82000003 cyc:   95376510 now IPC :0.84184: AVG IPC :0.84752: L2-Pf-HR :0.91316: L2-HR :0.77059: (Sim:2h4m15s) 
CPU  2 inst:   82000003 cyc:   95821967 now IPC :0.77704: AVG IPC :0.84354: L2-Pf-HR :0.91229: L2-HR :0.77059: (Sim:2h5m2s) 
CPU  0 inst:   83000004 cyc:   96210047 now IPC :0.77610: AVG IPC :0.85060: L2-Pf-HR :0.91165: L2-HR :0.76958: (Sim:2h5m43s) 
CPU  3 inst:   83000004 cyc:   96408705 now IPC :0.86660: AVG IPC :0.84883: L2-Pf-HR :0.91271: L2-HR :0.76974: (Sim:2h6m4s) 
CPU  1 inst:   83000004 cyc:   96534476 now IPC :0.86358: AVG IPC :0.84771: L2-Pf-HR :0.91318: L2-HR :0.77064: (Sim:2h6m17s) 
CPU  2 inst:   83000004 cyc:   97119603 now IPC :0.77063: AVG IPC :0.84256: L2-Pf-HR :0.91218: L2-HR :0.77037: (Sim:2h7m16s) 
CPU  0 inst:   84000002 cyc:   97561564 now IPC :0.73991: AVG IPC :0.84905: L2-Pf-HR :0.91152: L2-HR :0.76938: (Sim:2h7m59s) 
CPU  3 inst:   84000002 cyc:   97712934 now IPC :0.76673: AVG IPC :0.84772: L2-Pf-HR :0.91257: L2-HR :0.76971: (Sim:2h8m12s) 
CPU  1 inst:   84000002 cyc:   97749805 now IPC :0.82282: AVG IPC :0.84740: L2-Pf-HR :0.91311: L2-HR :0.77067: (Sim:2h8m16s) 
CPU  2 inst:   84000002 cyc:   98440386 now IPC :0.75713: AVG IPC :0.84140: L2-Pf-HR :0.91205: L2-HR :0.77013: (Sim:2h9m23s) 
CPU  0 inst:   85000002 cyc:   98898118 now IPC :0.74819: AVG IPC :0.84768: L2-Pf-HR :0.91146: L2-HR :0.76920: (Sim:2h10m7s) 
CPU  3 inst:   85000002 cyc:   99093842 now IPC :0.72416: AVG IPC :0.84598: L2-Pf-HR :0.91250: L2-HR :0.76971: (Sim:2h10m26s) 
CPU  1 inst:   85000002 cyc:   99123347 now IPC :0.72804: AVG IPC :0.84573: L2-Pf-HR :0.91310: L2-HR :0.77070: (Sim:2h10m29s) 
CPU  2 inst:   85000002 cyc:   99710992 now IPC :0.78703: AVG IPC :0.84070: L2-Pf-HR :0.91195: L2-HR :0.76993: (Sim:2h11m27s) 
CPU  0 inst:   86000001 cyc:  100137402 now IPC :0.80692: AVG IPC :0.84717: L2-Pf-HR :0.91138: L2-HR :0.76899: (Sim:2h12m9s) 
CPU  3 inst:   86000001 cyc:  100446077 now IPC :0.73952: AVG IPC :0.84454: L2-Pf-HR :0.91243: L2-HR :0.76963: (Sim:2h12m39s) 
CPU  1 inst:   86000001 cyc:  100471325 now IPC :0.74185: AVG IPC :0.84432: L2-Pf-HR :0.91311: L2-HR :0.77071: (Sim:2h12m41s) 
CPU  2 inst:   86000001 cyc:  100990591 now IPC :0.78149: AVG IPC :0.83994: L2-Pf-HR :0.91195: L2-HR :0.76969: (Sim:2h13m31s) 
CPU  0 inst:   87000000 cyc:  101547957 now IPC :0.70894: AVG IPC :0.84523: L2-Pf-HR :0.91109: L2-HR :0.76863: (Sim:2h14m24s) 
CPU  3 inst:   87000001 cyc:  102033057 now IPC :0.63013: AVG IPC :0.84117: L2-Pf-HR :0.91212: L2-HR :0.76940: (Sim:2h15m7s) 
CPU  1 inst:   87000002 cyc:  102039930 now IPC :0.63751: AVG IPC :0.84111: L2-Pf-HR :0.91288: L2-HR :0.77056: (Sim:2h15m8s) 
CPU  2 inst:   87000001 cyc:  102412987 now IPC :0.70304: AVG IPC :0.83802: L2-Pf-HR :0.91165: L2-HR :0.76930: (Sim:2h15m43s) 
CPU  0 inst:   88000003 cyc:  102801787 now IPC :0.79756: AVG IPC :0.84464: L2-Pf-HR :0.91131: L2-HR :0.76862: (Sim:2h16m21s) 
CPU  1 inst:   88000003 cyc:  103280096 now IPC :0.80634: AVG IPC :0.84069: L2-Pf-HR :0.91310: L2-HR :0.77058: (Sim:2h17m11s) 
CPU  3 inst:   88000003 cyc:  103286914 now IPC :0.79754: AVG IPC :0.84064: L2-Pf-HR :0.91238: L2-HR :0.76945: (Sim:2h17m11s) 
CPU  2 inst:   88000003 cyc:  103611233 now IPC :0.83455: AVG IPC :0.83798: L2-Pf-HR :0.91182: L2-HR :0.76925: (Sim:2h17m44s) 
CPU  0 inst:   89000003 cyc:  103969527 now IPC :0.85636: AVG IPC :0.84477: L2-Pf-HR :0.91153: L2-HR :0.76854: (Sim:2h18m21s) 
CPU  3 inst:   89000003 cyc:  104432015 now IPC :0.87329: AVG IPC :0.84100: L2-Pf-HR :0.91259: L2-HR :0.76938: (Sim:2h19m9s) 
CPU  1 inst:   89000003 cyc:  104453902 now IPC :0.85193: AVG IPC :0.84082: L2-Pf-HR :0.91327: L2-HR :0.77047: (Sim:2h19m11s) 
CPU  2 inst:   89000003 cyc:  104810903 now IPC :0.83356: AVG IPC :0.83793: L2-Pf-HR :0.91201: L2-HR :0.76915: (Sim:2h19m48s) 
CPU  0 inst:   90000000 cyc:  105126053 now IPC :0.86466: AVG IPC :0.84499: L2-Pf-HR :0.91173: L2-HR :0.76846: (Sim:2h20m19s) 
CPU  3 inst:   90000000 cyc:  105597489 now IPC :0.85802: AVG IPC :0.84119: L2-Pf-HR :0.91278: L2-HR :0.76928: (Sim:2h21m9s) 
CPU  1 inst:   90000000 cyc:  105601138 now IPC :0.87166: AVG IPC :0.84115: L2-Pf-HR :0.91345: L2-HR :0.77037: (Sim:2h21m9s) 
CPU  2 inst:   90000000 cyc:  105955304 now IPC :0.87382: AVG IPC :0.83832: L2-Pf-HR :0.91219: L2-HR :0.76905: (Sim:2h21m47s) 
CPU  0 inst:   91000002 cyc:  106232777 now IPC :0.90357: AVG IPC :0.84561: L2-Pf-HR :0.91189: L2-HR :0.76841: (Sim:2h22m15s) 
CPU  3 inst:   91000002 cyc:  106747425 now IPC :0.86962: AVG IPC :0.84150: L2-Pf-HR :0.91296: L2-HR :0.76921: (Sim:2h23m9s) 
CPU  1 inst:   91000002 cyc:  106763731 now IPC :0.86015: AVG IPC :0.84136: L2-Pf-HR :0.91360: L2-HR :0.77028: (Sim:2h23m11s) 
CPU  2 inst:   91000002 cyc:  107052534 now IPC :0.91139: AVG IPC :0.83908: L2-Pf-HR :0.91232: L2-HR :0.76898: (Sim:2h23m41s) 
CPU  0 inst:   92000004 cyc:  107328724 now IPC :0.91245: AVG IPC :0.84630: L2-Pf-HR :0.91201: L2-HR :0.76833: (Sim:2h24m10s) 
CPU  3 inst:   92000004 cyc:  107866019 now IPC :0.89398: AVG IPC :0.84204: L2-Pf-HR :0.91314: L2-HR :0.76915: (Sim:2h25m7s) 
CPU  1 inst:   92000004 cyc:  107904734 now IPC :0.87642: AVG IPC :0.84174: L2-Pf-HR :0.91379: L2-HR :0.77016: (Sim:2h25m11s) 
CPU  2 inst:   92000004 cyc:  108129470 now IPC :0.92856: AVG IPC :0.83998: L2-Pf-HR :0.91252: L2-HR :0.76887: (Sim:2h25m35s) 
CPU  0 inst:   93000002 cyc:  108537896 now IPC :0.82701: AVG IPC :0.84608: L2-Pf-HR :0.91196: L2-HR :0.76809: (Sim:2h26m16s) 
CPU  3 inst:   93000005 cyc:  109204856 now IPC :0.74692: AVG IPC :0.84087: L2-Pf-HR :0.91306: L2-HR :0.76892: (Sim:2h27m20s) 
CPU  1 inst:   93000005 cyc:  109288231 now IPC :0.72281: AVG IPC :0.84022: L2-Pf-HR :0.91369: L2-HR :0.76990: (Sim:2h27m26s) 
CPU  2 inst:   93000002 cyc:  109355958 now IPC :0.81533: AVG IPC :0.83970: L2-Pf-HR :0.91242: L2-HR :0.76861: (Sim:2h27m34s) 
CPU  0 inst:   94000004 cyc:  109745039 now IPC :0.82840: AVG IPC :0.84589: L2-Pf-HR :0.91205: L2-HR :0.76848: (Sim:2h28m14s) 
CPU  3 inst:   94000004 cyc:  110323933 now IPC :0.89359: AVG IPC :0.84141: L2-Pf-HR :0.91314: L2-HR :0.76923: (Sim:2h29m15s) 
CPU  1 inst:   94000004 cyc:  110485355 now IPC :0.83533: AVG IPC :0.84016: L2-Pf-HR :0.91383: L2-HR :0.77017: (Sim:2h29m32s) 
CPU  2 inst:   94000004 cyc:  110498793 now IPC :0.87502: AVG IPC :0.84007: L2-Pf-HR :0.91254: L2-HR :0.76902: (Sim:2h29m33s) 
CPU  0 inst:   95000005 cyc:  110781874 now IPC :0.96447: AVG IPC :0.84701: L2-Pf-HR :0.91216: L2-HR :0.76887: (Sim:2h30m4s) 
CPU  3 inst:   95000005 cyc:  111372959 now IPC :0.95327: AVG IPC :0.84247: L2-Pf-HR :0.91330: L2-HR :0.76959: (Sim:2h31m6s) 
CPU  1 inst:   95000005 cyc:  111694368 now IPC :0.82712: AVG IPC :0.84002: L2-Pf-HR :0.91387: L2-HR :0.77035: (Sim:2h31m40s) 
CPU  2 inst:   95000005 cyc:  111709727 now IPC :0.82581: AVG IPC :0.83991: L2-Pf-HR :0.91258: L2-HR :0.76935: (Sim:2h31m41s) 
CPU  0 inst:   96000000 cyc:  111839870 now IPC :0.94518: AVG IPC :0.84794: L2-Pf-HR :0.91208: L2-HR :0.76918: (Sim:2h31m54s) 
CPU  3 inst:   96000000 cyc:  112539391 now IPC :0.85731: AVG IPC :0.84263: L2-Pf-HR :0.91318: L2-HR :0.76993: (Sim:2h32m59s) 
CPU  1 inst:   96000000 cyc:  113012453 now IPC :0.75867: AVG IPC :0.83907: L2-Pf-HR :0.91372: L2-HR :0.77050: (Sim:2h33m45s) 
CPU  2 inst:   96000000 cyc:  113200342 now IPC :0.67086: AVG IPC :0.83766: L2-Pf-HR :0.91242: L2-HR :0.76972: (Sim:2h34m2s) 
CPU  0 inst:   97000000 cyc:  113304914 now IPC :0.68257: AVG IPC :0.84579: L2-Pf-HR :0.91173: L2-HR :0.76926: (Sim:2h34m13s) 
CPU  3 inst:   97000000 cyc:  113903923 now IPC :0.73285: AVG IPC :0.84130: L2-Pf-HR :0.91282: L2-HR :0.76994: (Sim:2h35m14s) 
CPU  1 inst:   97000000 cyc:  114366628 now IPC :0.73846: AVG IPC :0.83786: L2-Pf-HR :0.91341: L2-HR :0.77041: (Sim:2h35m56s) 
CPU  2 inst:   97000000 cyc:  114531862 now IPC :0.75102: AVG IPC :0.83665: L2-Pf-HR :0.91203: L2-HR :0.76976: (Sim:2h36m11s) 
CPU  0 inst:   98000002 cyc:  114645467 now IPC :0.74596: AVG IPC :0.84461: L2-Pf-HR :0.91177: L2-HR :0.76929: (Sim:2h36m22s) 
CPU  3 inst:   98000002 cyc:  115076034 now IPC :0.85316: AVG IPC :0.84142: L2-Pf-HR :0.91289: L2-HR :0.76994: (Sim:2h37m5s) 
CPU  1 inst:   98000002 cyc:  115763997 now IPC :0.71563: AVG IPC :0.83638: L2-Pf-HR :0.91354: L2-HR :0.77043: (Sim:2h38m11s) 
CPU  2 inst:   98000001 cyc:  115865146 now IPC :0.75003: AVG IPC :0.83564: L2-Pf-HR :0.91204: L2-HR :0.76974: (Sim:2h38m22s) 
CPU  0 inst:   99000004 cyc:  115960649 now IPC :0.76035: AVG IPC :0.84364: L2-Pf-HR :0.91171: L2-HR :0.76914: (Sim:2h38m31s) 
CPU  3 inst:   99000004 cyc:  116313655 now IPC :0.80800: AVG IPC :0.84106: L2-Pf-HR :0.91286: L2-HR :0.76980: (Sim:2h39m4s) 
CPU  1 inst:   99000004 cyc:  117127760 now IPC :0.73327: AVG IPC :0.83516: L2-Pf-HR :0.91351: L2-HR :0.77026: (Sim:2h40m23s) 
CPU  0 inst:  100000005 cyc:  117175397 now IPC :0.82322: AVG IPC :0.84343: L2-Pf-HR :0.91162: L2-HR :0.76898: (Sim:2h40m28s) 
CPU  2 inst:   99000004 cyc:  117300202 now IPC :0.69684: AVG IPC :0.83393: L2-Pf-HR :0.91205: L2-HR :0.76959: (Sim:2h40m41s) 
CPU  3 inst:  100000000 cyc:  117657340 now IPC :0.74422: AVG IPC :0.83995: L2-Pf-HR :0.91280: L2-HR :0.76965: (Sim:2h41m17s) 
CPU  1 inst:  100000001 cyc:  118284141 now IPC :0.86476: AVG IPC :0.83546: L2-Pf-HR :0.91342: L2-HR :0.77008: (Sim:2h42m20s) 
CPU  0 inst:  101000003 cyc:  118318473 now IPC :0.87483: AVG IPC :0.84374: L2-Pf-HR :0.91156: L2-HR :0.76883: (Sim:2h42m24s) 
CPU  2 inst:  100000004 cyc:  118601556 now IPC :0.76843: AVG IPC :0.83321: L2-Pf-HR :0.91193: L2-HR :0.76940: (Sim:2h42m53s) 
CPU  3 inst:  101000003 cyc:  118928800 now IPC :0.78650: AVG IPC :0.83937: L2-Pf-HR :0.91284: L2-HR :0.76951: (Sim:2h43m26s) 
CPU  1 inst:  101000003 cyc:  119442394 now IPC :0.86337: AVG IPC :0.83573: L2-Pf-HR :0.91339: L2-HR :0.76994: (Sim:2h44m18s) 
CPU  0 inst:  102000002 cyc:  119481689 now IPC :0.85968: AVG IPC :0.84389: L2-Pf-HR :0.91150: L2-HR :0.76866: (Sim:2h44m22s) 
CPU  2 inst:  101000003 cyc:  119876721 now IPC :0.78421: AVG IPC :0.83268: L2-Pf-HR :0.91183: L2-HR :0.76925: (Sim:2h45m2s) 
CPU  3 inst:  102000002 cyc:  120233225 now IPC :0.76662: AVG IPC :0.83858: L2-Pf-HR :0.91278: L2-HR :0.76933: (Sim:2h45m37s) 
CPU  1 inst:  102000002 cyc:  120595629 now IPC :0.86713: AVG IPC :0.83603: L2-Pf-HR :0.91328: L2-HR :0.76977: (Sim:2h46m12s) 
CPU  0 inst:  103000003 cyc:  120779663 now IPC :0.77043: AVG IPC :0.84310: L2-Pf-HR :0.91145: L2-HR :0.76851: (Sim:2h46m30s) 
CPU  2 inst:  102000002 cyc:  121259447 now IPC :0.72321: AVG IPC :0.83142: L2-Pf-HR :0.91178: L2-HR :0.76909: (Sim:2h47m13s) 
CPU  3 inst:  103000003 cyc:  121612981 now IPC :0.72477: AVG IPC :0.83727: L2-Pf-HR :0.91274: L2-HR :0.76919: (Sim:2h47m48s) 
CPU  1 inst:  103000003 cyc:  121940325 now IPC :0.74366: AVG IPC :0.83501: L2-Pf-HR :0.91322: L2-HR :0.76963: (Sim:2h48m19s) 
CPU  0 inst:  104000004 cyc:  122223248 now IPC :0.69272: AVG IPC :0.84131: L2-Pf-HR :0.91143: L2-HR :0.76836: (Sim:2h48m45s) 
CPU  2 inst:  103000003 cyc:  122452462 now IPC :0.83821: AVG IPC :0.83149: L2-Pf-HR :0.91175: L2-HR :0.76894: (Sim:2h49m10s) 
CPU  3 inst:  104000000 cyc:  122974894 now IPC :0.73426: AVG IPC :0.83612: L2-Pf-HR :0.91264: L2-HR :0.76893: (Sim:2h49m59s) 
CPU  1 inst:  104000003 cyc:  123250080 now IPC :0.76350: AVG IPC :0.83424: L2-Pf-HR :0.91318: L2-HR :0.76946: (Sim:2h50m27s) 
CPU  0 inst:  105000001 cyc:  123429285 now IPC :0.82916: AVG IPC :0.84119: L2-Pf-HR :0.91159: L2-HR :0.76829: (Sim:2h50m46s) 
CPU  2 inst:  104000000 cyc:  123841414 now IPC :0.71997: AVG IPC :0.83023: L2-Pf-HR :0.91170: L2-HR :0.76876: (Sim:2h51m27s) 
CPU  3 inst:  105000001 cyc:  124183056 now IPC :0.82770: AVG IPC :0.83604: L2-Pf-HR :0.91281: L2-HR :0.76887: (Sim:2h52m1s) 
CPU  1 inst:  105000001 cyc:  124358798 now IPC :0.90194: AVG IPC :0.83485: L2-Pf-HR :0.91333: L2-HR :0.76939: (Sim:2h52m19s) 
CPU  0 inst:  106000005 cyc:  124686749 now IPC :0.79525: AVG IPC :0.84072: L2-Pf-HR :0.91176: L2-HR :0.76822: (Sim:2h52m51s) 
CPU  2 inst:  105000001 cyc:  125066178 now IPC :0.81648: AVG IPC :0.83009: L2-Pf-HR :0.91184: L2-HR :0.76869: (Sim:2h53m31s) 
CPU  3 inst:  106000005 cyc:  125323138 now IPC :0.87713: AVG IPC :0.83642: L2-Pf-HR :0.91297: L2-HR :0.76880: (Sim:2h53m56s) 
CPU  1 inst:  106000005 cyc:  125542436 now IPC :0.84486: AVG IPC :0.83494: L2-Pf-HR :0.91350: L2-HR :0.76931: (Sim:2h54m20s) 
CPU  0 inst:  107000005 cyc:  125849663 now IPC :0.85991: AVG IPC :0.84090: L2-Pf-HR :0.91191: L2-HR :0.76817: (Sim:2h54m52s) 
CPU  2 inst:  106000005 cyc:  126204137 now IPC :0.87877: AVG IPC :0.83053: L2-Pf-HR :0.91199: L2-HR :0.76860: (Sim:2h55m30s) 
CPU  3 inst:  107000005 cyc:  126317203 now IPC :1.00597: AVG IPC :0.83776: L2-Pf-HR :0.91315: L2-HR :0.76875: (Sim:2h55m43s) 
CPU  1 inst:  107000005 cyc:  126664047 now IPC :0.89157: AVG IPC :0.83545: L2-Pf-HR :0.91368: L2-HR :0.76927: (Sim:2h56m21s) 
CPU  0 inst:  108000005 cyc:  126935900 now IPC :0.92061: AVG IPC :0.84159: L2-Pf-HR :0.91205: L2-HR :0.76812: (Sim:2h56m50s) 
CPU  2 inst:  107000005 cyc:  127205355 now IPC :0.99878: AVG IPC :0.83187: L2-Pf-HR :0.91214: L2-HR :0.76854: (Sim:2h57m20s) 
CPU  3 inst:  108000005 cyc:  127338071 now IPC :0.97956: AVG IPC :0.83891: L2-Pf-HR :0.91333: L2-HR :0.76869: (Sim:2h57m34s) 
CPU  1 inst:  108000005 cyc:  127730257 now IPC :0.93790: AVG IPC :0.83631: L2-Pf-HR :0.91382: L2-HR :0.76920: (Sim:2h58m18s) 
CPU  0 inst:  109000001 cyc:  128017269 now IPC :0.92475: AVG IPC :0.84229: L2-Pf-HR :0.91218: L2-HR :0.76809: (Sim:2h58m49s) 
CPU  2 inst:  108000005 cyc:  128243976 now IPC :0.96282: AVG IPC :0.83294: L2-Pf-HR :0.91229: L2-HR :0.76845: (Sim:2h59m12s) 
CPU  3 inst:  109000001 cyc:  128345192 now IPC :0.99293: AVG IPC :0.84013: L2-Pf-HR :0.91349: L2-HR :0.76863: (Sim:2h59m24s) 
CPU  1 inst:  109000001 cyc:  128807936 now IPC :0.92792: AVG IPC :0.83708: L2-Pf-HR :0.91397: L2-HR :0.76914: (Sim:3h0m12s) 
CPU  0 inst:  110000004 cyc:  129177422 now IPC :0.86196: AVG IPC :0.84247: L2-Pf-HR :0.91203: L2-HR :0.76822: (Sim:3h0m50s) 
CPU  2 inst:  109000001 cyc:  129337853 now IPC :0.91418: AVG IPC :0.83363: L2-Pf-HR :0.91244: L2-HR :0.76839: (Sim:3h1m8s) 
CPU  3 inst:  110000002 cyc:  129518320 now IPC :0.85242: AVG IPC :0.84024: L2-Pf-HR :0.91333: L2-HR :0.76879: (Sim:3h1m25s) 
CPU  1 inst:  110000002 cyc:  130088507 now IPC :0.78090: AVG IPC :0.83653: L2-Pf-HR :0.91381: L2-HR :0.76930: (Sim:3h2m22s) 
CPU  0 inst:  111000000 cyc:  130218413 now IPC :0.96062: AVG IPC :0.84342: L2-Pf-HR :0.91212: L2-HR :0.76853: (Sim:3h2m34s) 
CPU  2 inst:  110000002 cyc:  130562316 now IPC :0.81669: AVG IPC :0.83347: L2-Pf-HR :0.91229: L2-HR :0.76852: (Sim:3h3m10s) 
CPU  3 inst:  111000004 cyc:  130789966 now IPC :0.78638: AVG IPC :0.83971: L2-Pf-HR :0.91340: L2-HR :0.76910: (Sim:3h3m33s) 
CPU  1 inst:  111000001 cyc:  131277825 now IPC :0.84082: AVG IPC :0.83656: L2-Pf-HR :0.91387: L2-HR :0.76960: (Sim:3h4m24s) 
CPU  0 inst:  112000002 cyc:  131349019 now IPC :0.88448: AVG IPC :0.84378: L2-Pf-HR :0.91209: L2-HR :0.76886: (Sim:3h4m32s) 
CPU  2 inst:  111000001 cyc:  131524076 now IPC :1.03976: AVG IPC :0.83499: L2-Pf-HR :0.91234: L2-HR :0.76878: (Sim:3h4m50s) 
CPU  3 inst:  112000002 cyc:  131953307 now IPC :0.85959: AVG IPC :0.83989: L2-Pf-HR :0.91337: L2-HR :0.76945: (Sim:3h5m36s) 
CPU  1 inst:  112000002 cyc:  132376242 now IPC :0.91040: AVG IPC :0.83718: L2-Pf-HR :0.91382: L2-HR :0.76993: (Sim:3h6m20s) 
CPU  0 inst:  113000004 cyc:  132512548 now IPC :0.85946: AVG IPC :0.84392: L2-Pf-HR :0.91226: L2-HR :0.76928: (Sim:3h6m34s) 
CPU  2 inst:  112000002 cyc:  132573644 now IPC :0.95277: AVG IPC :0.83593: L2-Pf-HR :0.91230: L2-HR :0.76909: (Sim:3h6m41s) 
CPU  3 inst:  113000004 cyc:  133109845 now IPC :0.86465: AVG IPC :0.84010: L2-Pf-HR :0.91336: L2-HR :0.76981: (Sim:3h7m35s) 
CPU  1 inst:  113000004 cyc:  133455743 now IPC :0.92636: AVG IPC :0.83791: L2-Pf-HR :0.91381: L2-HR :0.77030: (Sim:3h8m8s) 
CPU  2 inst:  113000004 cyc:  133755873 now IPC :0.84586: AVG IPC :0.83602: L2-Pf-HR :0.91236: L2-HR :0.76946: (Sim:3h8m36s) 
CPU  0 inst:  114000003 cyc:  133892166 now IPC :0.72484: AVG IPC :0.84268: L2-Pf-HR :0.91194: L2-HR :0.76897: (Sim:3h8m49s) 
CPU  3 inst:  114000003 cyc:  134446157 now IPC :0.74833: AVG IPC :0.83919: L2-Pf-HR :0.91301: L2-HR :0.76944: (Sim:3h9m44s) 
CPU  1 inst:  114000003 cyc:  134867549 now IPC :0.70831: AVG IPC :0.83654: L2-Pf-HR :0.91348: L2-HR :0.76995: (Sim:3h10m28s) 
CPU  2 inst:  114000003 cyc:  135050026 now IPC :0.77271: AVG IPC :0.83541: L2-Pf-HR :0.91214: L2-HR :0.76915: (Sim:3h10m47s) 
CPU  0 inst:  115000000 cyc:  135101063 now IPC :0.82720: AVG IPC :0.84254: L2-Pf-HR :0.91190: L2-HR :0.76888: (Sim:3h10m53s) 
CPU  3 inst:  115000000 cyc:  135530392 now IPC :0.92231: AVG IPC :0.83985: L2-Pf-HR :0.91298: L2-HR :0.76933: (Sim:3h11m37s) 
CPU  1 inst:  115000000 cyc:  136111757 now IPC :0.80372: AVG IPC :0.83624: L2-Pf-HR :0.91343: L2-HR :0.76984: (Sim:3h12m35s) 
CPU  2 inst:  115000000 cyc:  136252646 now IPC :0.83152: AVG IPC :0.83537: L2-Pf-HR :0.91211: L2-HR :0.76904: (Sim:3h12m50s) 
CPU  0 inst:  116000004 cyc:  136325512 now IPC :0.81670: AVG IPC :0.84231: L2-Pf-HR :0.91179: L2-HR :0.76874: (Sim:3h12m57s) 
CPU  3 inst:  116000004 cyc:  136693922 now IPC :0.85946: AVG IPC :0.84002: L2-Pf-HR :0.91288: L2-HR :0.76917: (Sim:3h13m34s) 
CPU  1 inst:  116000004 cyc:  137337910 now IPC :0.81556: AVG IPC :0.83605: L2-Pf-HR :0.91328: L2-HR :0.76969: (Sim:3h14m34s) 
CPU  2 inst:  116000004 cyc:  137531113 now IPC :0.78219: AVG IPC :0.83487: L2-Pf-HR :0.91194: L2-HR :0.76888: (Sim:3h14m44s) 
CPU  0 inst:  117000002 cyc:  137569183 now IPC :0.80407: AVG IPC :0.84196: L2-Pf-HR :0.91176: L2-HR :0.76861: (Sim:3h14m46s) 
CPU  3 inst:  117000005 cyc:  137924618 now IPC :0.81255: AVG IPC :0.83978: L2-Pf-HR :0.91283: L2-HR :0.76904: (Sim:3h15m3s) 
CPU  1 inst:  117000002 cyc:  138558201 now IPC :0.81948: AVG IPC :0.83591: L2-Pf-HR :0.91330: L2-HR :0.76956: (Sim:3h15m34s) 
CPU  0 inst:  118000000 cyc:  138789984 now IPC :0.81913: AVG IPC :0.84176: L2-Pf-HR :0.91173: L2-HR :0.76847: (Sim:3h15m45s) 
CPU  2 inst:  117000002 cyc:  138820188 now IPC :0.77575: AVG IPC :0.83432: L2-Pf-HR :0.91192: L2-HR :0.76875: (Sim:3h15m46s) 
CPU  3 inst:  118000000 cyc:  139216221 now IPC :0.77423: AVG IPC :0.83916: L2-Pf-HR :0.91279: L2-HR :0.76889: (Sim:3h16m6s) 
CPU  1 inst:  118000000 cyc:  139783536 now IPC :0.81610: AVG IPC :0.83573: L2-Pf-HR :0.91328: L2-HR :0.76941: (Sim:3h16m33s) 
CPU  0 inst:  119000005 cyc:  140009089 now IPC :0.82028: AVG IPC :0.84157: L2-Pf-HR :0.91168: L2-HR :0.76833: (Sim:3h16m44s) 
CPU  2 inst:  118000000 cyc:  140135627 now IPC :0.76020: AVG IPC :0.83362: L2-Pf-HR :0.91189: L2-HR :0.76860: (Sim:3h16m50s) 
CPU  3 inst:  119000005 cyc:  140565089 now IPC :0.74137: AVG IPC :0.83822: L2-Pf-HR :0.91273: L2-HR :0.76873: (Sim:3h17m8s) 
CPU  1 inst:  119000005 cyc:  141065730 now IPC :0.77992: AVG IPC :0.83522: L2-Pf-HR :0.91320: L2-HR :0.76925: (Sim:3h17m32s) 
CPU  2 inst:  119000005 cyc:  141441817 now IPC :0.76559: AVG IPC :0.83299: L2-Pf-HR :0.91180: L2-HR :0.76844: (Sim:3h17m50s) 
CPU  0 inst:  120000005 cyc:  141459378 now IPC :0.68952: AVG IPC :0.84000: L2-Pf-HR :0.91166: L2-HR :0.76823: (Sim:3h17m51s) 
CPU  3 inst:  120000005 cyc:  141874835 now IPC :0.76351: AVG IPC :0.83752: L2-Pf-HR :0.91271: L2-HR :0.76863: (Sim:3h18m11s) 
CPU  1 inst:  120000005 cyc:  142362969 now IPC :0.77087: AVG IPC :0.83463: L2-Pf-HR :0.91318: L2-HR :0.76914: (Sim:3h18m36s) 
CPU  0 inst:  121000001 cyc:  142633928 now IPC :0.85139: AVG IPC :0.84010: L2-Pf-HR :0.91179: L2-HR :0.76817: (Sim:3h18m50s) 
CPU  2 inst:  120000005 cyc:  142733304 now IPC :0.77430: AVG IPC :0.83245: L2-Pf-HR :0.91177: L2-HR :0.76833: (Sim:3h18m55s) 
CPU  3 inst:  121000001 cyc:  142997599 now IPC :0.89066: AVG IPC :0.83794: L2-Pf-HR :0.91283: L2-HR :0.76857: (Sim:3h19m8s) 
CPU  1 inst:  121000001 cyc:  143469923 now IPC :0.90338: AVG IPC :0.83516: L2-Pf-HR :0.91329: L2-HR :0.76907: (Sim:3h19m33s) 
CPU  0 inst:  122000002 cyc:  143740415 now IPC :0.90376: AVG IPC :0.84059: L2-Pf-HR :0.91192: L2-HR :0.76811: (Sim:3h19m47s) 
CPU  2 inst:  121000004 cyc:  143869811 now IPC :0.87989: AVG IPC :0.83283: L2-Pf-HR :0.91188: L2-HR :0.76826: (Sim:3h19m53s) 
CPU  3 inst:  122000004 cyc:  144071797 now IPC :0.93093: AVG IPC :0.83864: L2-Pf-HR :0.91295: L2-HR :0.76851: (Sim:3h20m4s) 
CPU  1 inst:  122000005 cyc:  144564210 now IPC :0.91384: AVG IPC :0.83576: L2-Pf-HR :0.91342: L2-HR :0.76901: (Sim:3h20m30s) 
CPU  0 inst:  123000002 cyc:  144853092 now IPC :0.89873: AVG IPC :0.84104: L2-Pf-HR :0.91208: L2-HR :0.76808: (Sim:3h20m45s) 
CPU  2 inst:  122000005 cyc:  144932621 now IPC :0.94090: AVG IPC :0.83363: L2-Pf-HR :0.91199: L2-HR :0.76819: (Sim:3h20m49s) 
CPU  3 inst:  123000002 cyc:  145152539 now IPC :0.92529: AVG IPC :0.83929: L2-Pf-HR :0.91313: L2-HR :0.76847: (Sim:3h21m1s) 
CPU  1 inst:  123000002 cyc:  145649226 now IPC :0.92164: AVG IPC :0.83641: L2-Pf-HR :0.91361: L2-HR :0.76897: (Sim:3h21m27s) 
CPU  0 inst:  124000003 cyc:  145958600 now IPC :0.90456: AVG IPC :0.84152: L2-Pf-HR :0.91222: L2-HR :0.76801: (Sim:3h21m43s) 
CPU  2 inst:  123000002 cyc:  146011775 now IPC :0.92665: AVG IPC :0.83432: L2-Pf-HR :0.91215: L2-HR :0.76814: (Sim:3h21m46s) 
CPU  3 inst:  124000003 cyc:  146206788 now IPC :0.94854: AVG IPC :0.84008: L2-Pf-HR :0.91329: L2-HR :0.76841: (Sim:3h21m57s) 
CPU  1 inst:  124000003 cyc:  146711848 now IPC :0.94107: AVG IPC :0.83717: L2-Pf-HR :0.91376: L2-HR :0.76891: (Sim:3h22m23s) 
CPU  0 inst:  125000003 cyc:  147039269 now IPC :0.92535: AVG IPC :0.84214: L2-Pf-HR :0.91237: L2-HR :0.76796: (Sim:3h22m41s) 
CPU  2 inst:  124000003 cyc:  147048951 now IPC :0.96416: AVG IPC :0.83524: L2-Pf-HR :0.91230: L2-HR :0.76807: (Sim:3h22m41s) 
CPU  3 inst:  125000003 cyc:  147257553 now IPC :0.95169: AVG IPC :0.84089: L2-Pf-HR :0.91342: L2-HR :0.76834: (Sim:3h22m53s) 
CPU  1 inst:  125000003 cyc:  147784090 now IPC :0.93263: AVG IPC :0.83787: L2-Pf-HR :0.91388: L2-HR :0.76884: (Sim:3h23m19s) 
CPU  2 inst:  125000003 cyc:  148152960 now IPC :0.90579: AVG IPC :0.83577: L2-Pf-HR :0.91241: L2-HR :0.76799: (Sim:3h23m38s) 
CPU  0 inst:  126000005 cyc:  148197560 now IPC :0.86334: AVG IPC :0.84231: L2-Pf-HR :0.91227: L2-HR :0.76807: (Sim:3h23m40s) 
CPU  3 inst:  126000005 cyc:  148506454 now IPC :0.80071: AVG IPC :0.84055: L2-Pf-HR :0.91332: L2-HR :0.76846: (Sim:3h23m56s) 
CPU  1 inst:  126000005 cyc:  148937214 now IPC :0.86721: AVG IPC :0.83810: L2-Pf-HR :0.91381: L2-HR :0.76899: (Sim:3h24m19s) 
CPU  0 inst:  127000002 cyc:  149253892 now IPC :0.94667: AVG IPC :0.84305: L2-Pf-HR :0.91233: L2-HR :0.76837: (Sim:3h24m36s) 
CPU  2 inst:  126000005 cyc:  149310196 now IPC :0.86413: AVG IPC :0.83599: L2-Pf-HR :0.91236: L2-HR :0.76816: (Sim:3h24m39s) 
CPU  3 inst:  127000002 cyc:  149520557 now IPC :0.98609: AVG IPC :0.84154: L2-Pf-HR :0.91337: L2-HR :0.76877: (Sim:3h24m50s) 
CPU  1 inst:  127000002 cyc:  149991059 now IPC :0.94890: AVG IPC :0.83888: L2-Pf-HR :0.91386: L2-HR :0.76929: (Sim:3h25m15s) 
CPU  0 inst:  128000000 cyc:  150332145 now IPC :0.92742: AVG IPC :0.84366: L2-Pf-HR :0.91232: L2-HR :0.76866: (Sim:3h25m33s) 
CPU  2 inst:  127000002 cyc:  150377344 now IPC :0.93707: AVG IPC :0.83672: L2-Pf-HR :0.91241: L2-HR :0.76844: (Sim:3h25m36s) 
CPU  3 inst:  128000000 cyc:  150592392 now IPC :0.93298: AVG IPC :0.84220: L2-Pf-HR :0.91336: L2-HR :0.76908: (Sim:3h25m47s) 
CPU  1 inst:  128000000 cyc:  151104352 now IPC :0.89823: AVG IPC :0.83932: L2-Pf-HR :0.91385: L2-HR :0.76960: (Sim:3h26m13s) 
CPU  0 inst:  129000004 cyc:  151449879 now IPC :0.89467: AVG IPC :0.84404: L2-Pf-HR :0.91237: L2-HR :0.76899: (Sim:3h26m31s) 
CPU  2 inst:  128000000 cyc:  151525679 now IPC :0.87082: AVG IPC :0.83698: L2-Pf-HR :0.91248: L2-HR :0.76875: (Sim:3h26m35s) 
CPU  3 inst:  129000004 cyc:  151705333 now IPC :0.89852: AVG IPC :0.84261: L2-Pf-HR :0.91327: L2-HR :0.76935: (Sim:3h26m44s) 
CPU  1 inst:  129000004 cyc:  152224296 now IPC :0.89291: AVG IPC :0.83972: L2-Pf-HR :0.91378: L2-HR :0.76988: (Sim:3h27m2s) 
CPU  2 inst:  129000004 cyc:  152887385 now IPC :0.73438: AVG IPC :0.83606: L2-Pf-HR :0.91245: L2-HR :0.76903: (Sim:3h27m21s) 
CPU  0 inst:  130000002 cyc:  165741797 now IPC :0.06997: AVG IPC :0.77689: L2-Pf-HR :0.89892: L2-HR :0.75749: (Sim:3h34m17s) 
CPU  3 inst:  130000002 cyc:  167255459 now IPC :0.06431: AVG IPC :0.76982: L2-Pf-HR :0.89982: L2-HR :0.75781: (Sim:3h35m8s) 
CPU  1 inst:  130000002 cyc:  170635921 now IPC :0.05431: AVG IPC :0.75448: L2-Pf-HR :0.90048: L2-HR :0.75832: (Sim:3h37m2s) 
CPU  2 inst:  130000002 cyc:  172824452 now IPC :0.05016: AVG IPC :0.74488: L2-Pf-HR :0.89922: L2-HR :0.75752: (Sim:3h38m16s) 
CPU  0 inst:  131000004 cyc:  187625406 now IPC :0.04570: AVG IPC :0.69116: L2-Pf-HR :0.88204: L2-HR :0.74467: (Sim:3h46m38s) 
CPU  3 inst:  131000001 cyc:  189051857 now IPC :0.04588: AVG IPC :0.68592: L2-Pf-HR :0.88282: L2-HR :0.74495: (Sim:3h47m26s) 
CPU  1 inst:  131000003 cyc:  192485439 now IPC :0.04577: AVG IPC :0.67362: L2-Pf-HR :0.88356: L2-HR :0.74546: (Sim:3h49m22s) 
CPU  2 inst:  131000003 cyc:  194450836 now IPC :0.04624: AVG IPC :0.66678: L2-Pf-HR :0.88230: L2-HR :0.74468: (Sim:3h50m29s) 
CPU  0 inst:  132000000 cyc:  209472521 now IPC :0.04577: AVG IPC :0.62353: L2-Pf-HR :0.86614: L2-HR :0.73331: (Sim:3h59m3s) 
CPU  3 inst:  132000003 cyc:  210882886 now IPC :0.04581: AVG IPC :0.61934: L2-Pf-HR :0.86688: L2-HR :0.73357: (Sim:3h59m52s) 
CPU  1 inst:  132000000 cyc:  214409126 now IPC :0.04561: AVG IPC :0.60911: L2-Pf-HR :0.86766: L2-HR :0.73407: (Sim:4h1m52s) 
CPU  2 inst:  132000003 cyc:  216102875 now IPC :0.04619: AVG IPC :0.60432: L2-Pf-HR :0.86637: L2-HR :0.73332: (Sim:4h2m49s) 
CPU  0 inst:  133000002 cyc:  231295312 now IPC :0.04582: AVG IPC :0.56879: L2-Pf-HR :0.85106: L2-HR :0.72320: (Sim:4h11m26s) 
CPU  3 inst:  133000002 cyc:  232606687 now IPC :0.04603: AVG IPC :0.56557: L2-Pf-HR :0.85179: L2-HR :0.72344: (Sim:4h12m10s) 
CPU  1 inst:  133000002 cyc:  236288340 now IPC :0.04571: AVG IPC :0.55672: L2-Pf-HR :0.85259: L2-HR :0.72393: (Sim:4h14m16s) 
CPU  2 inst:  133000002 cyc:  237952001 now IPC :0.04577: AVG IPC :0.55282: L2-Pf-HR :0.85128: L2-HR :0.72321: (Sim:4h15m13s) 
CPU  0 inst:  134000000 cyc:  253274054 now IPC :0.04550: AVG IPC :0.52321: L2-Pf-HR :0.83742: L2-HR :0.71439: (Sim:4h32m17s) 
CPU  3 inst:  134000000 cyc:  253994360 now IPC :0.04676: AVG IPC :0.52172: L2-Pf-HR :0.83811: L2-HR :0.71460: (Sim:4h32m58s) 
CPU  1 inst:  134000000 cyc:  256031156 now IPC :0.05065: AVG IPC :0.51755: L2-Pf-HR :0.83883: L2-HR :0.71509: (Sim:4h35m6s) 
CPU  2 inst:  134000000 cyc:  256302162 now IPC :0.05450: AVG IPC :0.51700: L2-Pf-HR :0.83751: L2-HR :0.71440: (Sim:4h35m21s) 
CPU  0 inst:  135000000 cyc:  258528127 now IPC :0.19033: AVG IPC :0.51641: L2-Pf-HR :0.83361: L2-HR :0.71243: (Sim:4h37m54s) 
CPU  3 inst:  135000000 cyc:  259131537 now IPC :0.19466: AVG IPC :0.51521: L2-Pf-HR :0.83427: L2-HR :0.71264: (Sim:4h38m34s) 
CPU  1 inst:  135000000 cyc:  260288503 now IPC :0.23489: AVG IPC :0.51291: L2-Pf-HR :0.83500: L2-HR :0.71314: (Sim:4h39m53s) 
CPU  2 inst:  135000000 cyc:  260533215 now IPC :0.23635: AVG IPC :0.51243: L2-Pf-HR :0.83368: L2-HR :0.71245: (Sim:4h40m9s) 
CPU  0 inst:  136000002 cyc:  262707421 now IPC :0.23928: AVG IPC :0.51199: L2-Pf-HR :0.82972: L2-HR :0.71051: (Sim:4h42m38s) 
CPU  3 inst:  136000002 cyc:  263255474 now IPC :0.24249: AVG IPC :0.51092: L2-Pf-HR :0.83034: L2-HR :0.71072: (Sim:4h43m15s) 
CPU  1 inst:  136000002 cyc:  264384674 now IPC :0.24413: AVG IPC :0.50873: L2-Pf-HR :0.83108: L2-HR :0.71121: (Sim:4h44m33s) 
CPU  2 inst:  136000002 cyc:  264657137 now IPC :0.24249: AVG IPC :0.50820: L2-Pf-HR :0.82978: L2-HR :0.71053: (Sim:4h44m52s) 
CPU  0 inst:  137000000 cyc:  266773066 now IPC :0.24596: AVG IPC :0.50792: L2-Pf-HR :0.82585: L2-HR :0.70861: (Sim:4h47m16s) 
CPU  3 inst:  137000000 cyc:  267324658 now IPC :0.24575: AVG IPC :0.50687: L2-Pf-HR :0.82644: L2-HR :0.70881: (Sim:4h47m54s) 
CPU  1 inst:  137000000 cyc:  268425901 now IPC :0.24745: AVG IPC :0.50478: L2-Pf-HR :0.82722: L2-HR :0.70930: (Sim:4h49m10s) 
CPU  2 inst:  137000000 cyc:  268675086 now IPC :0.24888: AVG IPC :0.50431: L2-Pf-HR :0.82590: L2-HR :0.70863: (Sim:4h49m28s) 
CPU  0 inst:  138000000 cyc:  270680388 now IPC :0.25593: AVG IPC :0.50427: L2-Pf-HR :0.82199: L2-HR :0.70672: (Sim:4h51m46s) 
CPU  3 inst:  138000000 cyc:  271193503 now IPC :0.25848: AVG IPC :0.50331: L2-Pf-HR :0.82256: L2-HR :0.70691: (Sim:4h52m22s) 
CPU  1 inst:  138000000 cyc:  272308773 now IPC :0.25754: AVG IPC :0.50124: L2-Pf-HR :0.82339: L2-HR :0.70741: (Sim:4h53m40s) 
CPU  2 inst:  138000000 cyc:  272551955 now IPC :0.25794: AVG IPC :0.50079: L2-Pf-HR :0.82203: L2-HR :0.70674: (Sim:4h53m57s) 
CPU  0 inst:  139000000 cyc:  274508680 now IPC :0.26121: AVG IPC :0.50087: L2-Pf-HR :0.81817: L2-HR :0.70484: (Sim:4h56m13s) 
CPU  3 inst:  139000000 cyc:  275023371 now IPC :0.26111: AVG IPC :0.49993: L2-Pf-HR :0.81865: L2-HR :0.70504: (Sim:4h56m48s) 
CPU  1 inst:  139000000 cyc:  276136810 now IPC :0.26123: AVG IPC :0.49790: L2-Pf-HR :0.81954: L2-HR :0.70553: (Sim:4h58m6s) 
CPU  2 inst:  139000000 cyc:  276391989 now IPC :0.26041: AVG IPC :0.49744: L2-Pf-HR :0.81818: L2-HR :0.70486: (Sim:4h58m24s) 
CPU  0 inst:  140000002 cyc:  278344126 now IPC :0.26073: AVG IPC :0.49755: L2-Pf-HR :0.81436: L2-HR :0.70298: (Sim:5h0m39s) 
CPU  3 inst:  140000002 cyc:  278863969 now IPC :0.26038: AVG IPC :0.49662: L2-Pf-HR :0.81483: L2-HR :0.70317: (Sim:5h1m16s) 
CPU  1 inst:  140000002 cyc:  279988656 now IPC :0.25962: AVG IPC :0.49461: L2-Pf-HR :0.81574: L2-HR :0.70368: (Sim:5h2m34s) 
CPU  2 inst:  140000002 cyc:  280236553 now IPC :0.26011: AVG IPC :0.49418: L2-Pf-HR :0.81435: L2-HR :0.70301: (Sim:5h2m51s) 
CPU  0 inst:  141000004 cyc:  282213384 now IPC :0.25845: AVG IPC :0.49426: L2-Pf-HR :0.81059: L2-HR :0.70115: (Sim:5h5m7s) 
CPU  3 inst:  141000004 cyc:  282768486 now IPC :0.25611: AVG IPC :0.49328: L2-Pf-HR :0.81104: L2-HR :0.70134: (Sim:5h5m45s) 
CPU  1 inst:  141000004 cyc:  283876000 now IPC :0.25725: AVG IPC :0.49135: L2-Pf-HR :0.81197: L2-HR :0.70184: (Sim:5h7m2s) 
CPU  2 inst:  141000004 cyc:  284140431 now IPC :0.25616: AVG IPC :0.49089: L2-Pf-HR :0.81060: L2-HR :0.70117: (Sim:5h7m20s) 
CPU  0 inst:  142000004 cyc:  286048273 now IPC :0.26076: AVG IPC :0.49112: L2-Pf-HR :0.80684: L2-HR :0.69933: (Sim:5h9m33s) 
CPU  3 inst:  142000004 cyc:  286594972 now IPC :0.26134: AVG IPC :0.49018: L2-Pf-HR :0.80729: L2-HR :0.69951: (Sim:5h10m12s) 
CPU  1 inst:  142000004 cyc:  287729383 now IPC :0.25951: AVG IPC :0.48824: L2-Pf-HR :0.80824: L2-HR :0.70003: (Sim:5h11m27s) 
CPU  2 inst:  142000004 cyc:  287979903 now IPC :0.26045: AVG IPC :0.48781: L2-Pf-HR :0.80684: L2-HR :0.69935: (Sim:5h11m36s) 
CPU  0 inst:  143000000 cyc:  289863851 now IPC :0.26208: AVG IPC :0.48809: L2-Pf-HR :0.80312: L2-HR :0.69752: (Sim:5h12m43s) 
CPU  3 inst:  143000000 cyc:  290427949 now IPC :0.26089: AVG IPC :0.48714: L2-Pf-HR :0.80357: L2-HR :0.69770: (Sim:5h13m3s) 
CPU  1 inst:  143000000 cyc:  291561055 now IPC :0.26098: AVG IPC :0.48524: L2-Pf-HR :0.80454: L2-HR :0.69822: (Sim:5h13m44s) 
CPU  2 inst:  143000000 cyc:  291824528 now IPC :0.26010: AVG IPC :0.48480: L2-Pf-HR :0.80312: L2-HR :0.69755: (Sim:5h13m53s) 
CPU  0 inst:  144000003 cyc:  293696257 now IPC :0.26093: AVG IPC :0.48512: L2-Pf-HR :0.79946: L2-HR :0.69573: (Sim:5h15m29s) 
CPU  3 inst:  144000003 cyc:  294266019 now IPC :0.26055: AVG IPC :0.48417: L2-Pf-HR :0.79988: L2-HR :0.69592: (Sim:5h16m5s) 
CPU  1 inst:  144000003 cyc:  295373509 now IPC :0.26230: AVG IPC :0.48235: L2-Pf-HR :0.80084: L2-HR :0.69643: (Sim:5h17m7s) 
CPU  2 inst:  144000003 cyc:  295618338 now IPC :0.26359: AVG IPC :0.48195: L2-Pf-HR :0.79942: L2-HR :0.69576: (Sim:5h17m22s) 
CPU  0 inst:  145000002 cyc:  297488154 now IPC :0.26372: AVG IPC :0.48229: L2-Pf-HR :0.79578: L2-HR :0.69397: (Sim:5h19m14s) 
CPU  3 inst:  145000002 cyc:  298071554 now IPC :0.26277: AVG IPC :0.48134: L2-Pf-HR :0.79623: L2-HR :0.69415: (Sim:5h19m50s) 
CPU  1 inst:  145000002 cyc:  299172535 now IPC :0.26323: AVG IPC :0.47956: L2-Pf-HR :0.79720: L2-HR :0.69467: (Sim:5h20m53s) 
CPU  2 inst:  145000002 cyc:  299435098 now IPC :0.26200: AVG IPC :0.47914: L2-Pf-HR :0.79581: L2-HR :0.69400: (Sim:5h21m9s) 
CPU  0 inst:  146000000 cyc:  301364730 now IPC :0.25796: AVG IPC :0.47939: L2-Pf-HR :0.79219: L2-HR :0.69222: (Sim:5h23m3s) 
CPU  3 inst:  146000000 cyc:  301919217 now IPC :0.25990: AVG IPC :0.47851: L2-Pf-HR :0.79263: L2-HR :0.69240: (Sim:5h23m37s) 
CPU  1 inst:  146000000 cyc:  303041192 now IPC :0.25849: AVG IPC :0.47673: L2-Pf-HR :0.79360: L2-HR :0.69292: (Sim:5h24m42s) 
CPU  2 inst:  146000000 cyc:  303287781 now IPC :0.25956: AVG IPC :0.47634: L2-Pf-HR :0.79222: L2-HR :0.69225: (Sim:5h24m55s) 
CPU  0 inst:  147000000 cyc:  305192694 now IPC :0.26124: AVG IPC :0.47664: L2-Pf-HR :0.78864: L2-HR :0.69049: (Sim:5h26m50s) 
CPU  3 inst:  147000000 cyc:  305754485 now IPC :0.26074: AVG IPC :0.47577: L2-Pf-HR :0.78903: L2-HR :0.69067: (Sim:5h27m21s) 
CPU  1 inst:  147000000 cyc:  306879031 now IPC :0.26056: AVG IPC :0.47402: L2-Pf-HR :0.79004: L2-HR :0.69120: (Sim:5h28m25s) 
CPU  2 inst:  147000000 cyc:  307090478 now IPC :0.26297: AVG IPC :0.47369: L2-Pf-HR :0.78865: L2-HR :0.69051: (Sim:5h28m36s) 
CPU  0 inst:  148000003 cyc:  308994979 now IPC :0.26300: AVG IPC :0.47401: L2-Pf-HR :0.78509: L2-HR :0.68877: (Sim:5h30m30s) 
CPU  3 inst:  148000003 cyc:  309573216 now IPC :0.26187: AVG IPC :0.47312: L2-Pf-HR :0.78550: L2-HR :0.68895: (Sim:5h31m3s) 
CPU  1 inst:  148000003 cyc:  310713743 now IPC :0.26078: AVG IPC :0.47138: L2-Pf-HR :0.78648: L2-HR :0.68948: (Sim:5h32m9s) 
CPU  2 inst:  148000003 cyc:  310918853 now IPC :0.26121: AVG IPC :0.47107: L2-Pf-HR :0.78511: L2-HR :0.68880: (Sim:5h32m21s) 
CPU  0 inst:  149000002 cyc:  312835077 now IPC :0.26041: AVG IPC :0.47138: L2-Pf-HR :0.78158: L2-HR :0.68708: (Sim:5h33m54s) 
CPU  3 inst:  149000002 cyc:  313401474 now IPC :0.26122: AVG IPC :0.47052: L2-Pf-HR :0.78198: L2-HR :0.68725: (Sim:5h34m15s) 
CPU  1 inst:  149000002 cyc:  314535905 now IPC :0.26163: AVG IPC :0.46882: L2-Pf-HR :0.78294: L2-HR :0.68778: (Sim:5h34m55s) 
CPU  2 inst:  149000002 cyc:  314728669 now IPC :0.26248: AVG IPC :0.46853: L2-Pf-HR :0.78159: L2-HR :0.68710: (Sim:5h35m2s) 
CPU  0 inst:  150000000 cyc:  316659432 now IPC :0.26148: AVG IPC :0.46883: L2-Pf-HR :0.77808: L2-HR :0.68540: (Sim:5h36m11s) 
CPU  3 inst:  150000000 cyc:  317226534 now IPC :0.26143: AVG IPC :0.46799: L2-Pf-HR :0.77850: L2-HR :0.68556: (Sim:5h36m31s) 
CPU  1 inst:  150000000 cyc:  318368653 now IPC :0.26091: AVG IPC :0.46631: L2-Pf-HR :0.77947: L2-HR :0.68609: (Sim:5h37m22s) 
CPU  2 inst:  150000000 cyc:  318582375 now IPC :0.25949: AVG IPC :0.46600: L2-Pf-HR :0.77817: L2-HR :0.68542: (Sim:5h37m34s) 
CPU  0 inst:  151000000 cyc:  320459926 now IPC :0.26312: AVG IPC :0.46639: L2-Pf-HR :0.77462: L2-HR :0.68373: (Sim:5h39m0s) 
CPU  3 inst:  151000000 cyc:  321027663 now IPC :0.26308: AVG IPC :0.46556: L2-Pf-HR :0.77499: L2-HR :0.68389: (Sim:5h39m20s) 
CPU  1 inst:  151000000 cyc:  322206603 now IPC :0.26056: AVG IPC :0.46385: L2-Pf-HR :0.77606: L2-HR :0.68443: (Sim:5h40m2s) 
CPU  2 inst:  151000000 cyc:  322397706 now IPC :0.26210: AVG IPC :0.46358: L2-Pf-HR :0.77469: L2-HR :0.68375: (Sim:5h40m8s) 
CPU  0 inst:  152000002 cyc:  324337709 now IPC :0.25788: AVG IPC :0.46389: L2-Pf-HR :0.77124: L2-HR :0.68208: (Sim:5h41m17s) 
CPU  3 inst:  152000002 cyc:  324881228 now IPC :0.25950: AVG IPC :0.46311: L2-Pf-HR :0.77161: L2-HR :0.68224: (Sim:5h41m36s) 
CPU  1 inst:  152000002 cyc:  326047992 now IPC :0.26032: AVG IPC :0.46145: L2-Pf-HR :0.77262: L2-HR :0.68278: (Sim:5h42m17s) 
CPU  2 inst:  152000002 cyc:  326235235 now IPC :0.26058: AVG IPC :0.46118: L2-Pf-HR :0.77130: L2-HR :0.68211: (Sim:5h42m24s) 
CPU  0 inst:  153000002 cyc:  328187905 now IPC :0.25973: AVG IPC :0.46148: L2-Pf-HR :0.76791: L2-HR :0.68046: (Sim:5h43m33s) 
CPU  3 inst:  153000002 cyc:  328714093 now IPC :0.26090: AVG IPC :0.46074: L2-Pf-HR :0.76824: L2-HR :0.68062: (Sim:5h43m52s) 
CPU  1 inst:  153000002 cyc:  329858862 now IPC :0.26241: AVG IPC :0.45914: L2-Pf-HR :0.76920: L2-HR :0.68115: (Sim:5h44m33s) 
CPU  2 inst:  153000002 cyc:  330046198 now IPC :0.26240: AVG IPC :0.45888: L2-Pf-HR :0.76796: L2-HR :0.68047: (Sim:5h44m40s) 
CPU  0 inst:  154000000 cyc:  332012543 now IPC :0.26146: AVG IPC :0.45917: L2-Pf-HR :0.76457: L2-HR :0.67884: (Sim:5h45m49s) 
CPU  3 inst:  154000000 cyc:  332526518 now IPC :0.26230: AVG IPC :0.45846: L2-Pf-HR :0.76491: L2-HR :0.67900: (Sim:5h46m8s) 
CPU  1 inst:  154000000 cyc:  333697207 now IPC :0.26053: AVG IPC :0.45685: L2-Pf-HR :0.76584: L2-HR :0.67953: (Sim:5h46m49s) 
CPU  2 inst:  154000000 cyc:  333884651 now IPC :0.26052: AVG IPC :0.45659: L2-Pf-HR :0.76462: L2-HR :0.67885: (Sim:5h46m56s) 
CPU  0 inst:  155000000 cyc:  335847989 now IPC :0.26073: AVG IPC :0.45690: L2-Pf-HR :0.76125: L2-HR :0.67724: (Sim:5h48m8s) 
CPU  3 inst:  155000000 cyc:  336377556 now IPC :0.25967: AVG IPC :0.45618: L2-Pf-HR :0.76161: L2-HR :0.67739: (Sim:5h48m27s) 
CPU  1 inst:  155000000 cyc:  337512437 now IPC :0.26211: AVG IPC :0.45464: L2-Pf-HR :0.76249: L2-HR :0.67792: (Sim:5h49m7s) 
CPU  2 inst:  155000000 cyc:  337699131 now IPC :0.26216: AVG IPC :0.45439: L2-Pf-HR :0.76127: L2-HR :0.67725: (Sim:5h49m14s) 
[...]
Core_0_L2C_prefetch_useful 469450 L2C_Useful Ratio: 0.26472
Core_0_L2C_prefetch_useless 1054369
Core_0_L2C_prefetch_late 318432
Core_0_L2C_average_miss_latency 965.34981

Core_0_LLC_total_access 4864172
Core_0_LLC_total_hit 2053913 LLC_total_Hit Ratio: 0.42225
Core_0_LLC_total_miss 2810259
Core_0_LLC_loads 834413
Core_0_LLC_load_hit 143490 LLC_load_Hit Ratio: 0.17197
Core_0_LLC_load_miss 690923
Core_0_LLC_RFOs 387777
Core_0_LLC_RFO_hit 85 LLC_RFO_Hit Ratio: 0.00022
Core_0_LLC_RFO_miss 387692
Core_0_LLC_prefetches 1830637
Core_0_LLC_prefetch_hit 120543 LLC_prefetch_Hit Ratio: 0.06585
Core_0_LLC_prefetch_miss 1710094
Core_0_LLC_writebacks 1811345
Core_0_LLC_writeback_hit 1789795 LLC_writeback_Hit Ratio: 0.98810
Core_0_LLC_writeback_miss 21550
Core_0_LLC_prefetch_requested 0
Core_0_LLC_prefetch_issued 0
Core_0_LLC_prefetch_useful 54798 LLC_Useful Ratio: inf
Core_0_LLC_prefetch_useless 6656664
Core_0_LLC_prefetch_late 0
Core_0_LLC_average_miss_latency 3896.03781

Core_0_major_page_fault 0
Core_0_minor_page_fault 19454

Core_1_instructions 326000005
Core_1_cycles 584953954
Core_1_IPC 0.55731

Core_1_branch_prediction_accuracy 99.57881
Core_1_branch_MPKI 0.12276
Core_1_average_ROB_occupancy_at_mispredict 562.57269

Core_1_L1D_total_access 97045925
Core_1_L1D_total_hit 84244384 L1D_total_Hit Ratio: 0.86809
Core_1_L1D_total_miss 12801541
Core_1_L1D_loads 82232706
Core_1_L1D_load_hit 74922250 L1D_load_Hit Ratio: 0.91110
Core_1_L1D_load_miss 7310456
Core_1_L1D_RFOs 8546580
Core_1_L1D_RFO_hit 8118729 L1D_RFO_Hit Ratio: 0.94994
Core_1_L1D_RFO_miss 427851
Core_1_L1D_prefetches 6266639
Core_1_L1D_prefetch_hit 1203405 L1D_prefetch_Hit Ratio: 0.19203
Core_1_L1D_prefetch_miss 5063234
Core_1_L1D_writebacks 0
Core_1_L1D_writeback_hit 0 L1D_writeback_Hit Ratio: -nan
Core_1_L1D_writeback_miss 0
Core_1_L1D_prefetch_requested 10185610
Core_1_L1D_prefetch_issued 10185610
Core_1_L1D_prefetch_useful 4994520 L1D_Useful Ratio: 0.49035
Core_1_L1D_prefetch_useless 104628
Core_1_L1D_prefetch_late 905752
Core_1_L1D_average_miss_latency 32234199.25710

Core_1_L1I_total_access 47986811
Core_1_L1I_total_hit 47981887 L1I_total_Hit Ratio: 0.99990
Core_1_L1I_total_miss 4924
Core_1_L1I_loads 47986811
Core_1_L1I_load_hit 47981887 L1I_load_Hit Ratio: 0.99990
Core_1_L1I_load_miss 4924
Core_1_L1I_RFOs 0
Core_1_L1I_RFO_hit 0 L1I_RFO_Hit Ratio: -nan
Core_1_L1I_RFO_miss 0
Core_1_L1I_prefetches 0
Core_1_L1I_prefetch_hit 0 L1I_prefetch_Hit Ratio: -nan
Core_1_L1I_prefetch_miss 0
Core_1_L1I_writebacks 0
Core_1_L1I_writeback_hit 0 L1I_writeback_Hit Ratio: -nan
Core_1_L1I_writeback_miss 0
Core_1_L1I_prefetch_requested 0
Core_1_L1I_prefetch_issued 0
Core_1_L1I_prefetch_useful 0 L1I_Useful Ratio: -nan
Core_1_L1I_prefetch_useless 0
Core_1_L1I_prefetch_late 0
Core_1_L1I_average_miss_latency 1253.05199

Core_1_L2C_total_access 15947636
Core_1_L2C_total_hit 12896477 L2C_total_Hit Ratio: 0.80868
Core_1_L2C_total_miss 3051159
Core_1_L2C_loads 6414112
Core_1_L2C_load_hit 5261424 L2C_load_Hit Ratio: 0.82029
Core_1_L2C_load_miss 1152688
Core_1_L2C_RFOs 427851
Core_1_L2C_RFO_hit 40691 L2C_RFO_Hit Ratio: 0.09511
Core_1_L2C_RFO_miss 387160
Core_1_L2C_prefetches 7168096
Core_1_L2C_prefetch_hit 5657598 L2C_prefetch_Hit Ratio: 0.78927
Core_1_L2C_prefetch_miss 1510498
Core_1_L2C_writebacks 1937577
Core_1_L2C_writeback_hit 1936764 L2C_writeback_Hit Ratio: 0.99958
Core_1_L2C_writeback_miss 813
Core_1_L2C_prefetch_requested 1768640
Core_1_L2C_prefetch_issued 1768640
Core_1_L2C_prefetch_useful 462137 L2C_Useful Ratio: 0.26130
Core_1_L2C_prefetch_useless 1052315
Core_1_L2C_prefetch_late 317181
Core_1_L2C_average_miss_latency 966.45592

Core_1_LLC_total_access 4858100
Core_1_LLC_total_hit 2042304 LLC_total_Hit Ratio: 0.42039
Core_1_LLC_total_miss 2815796
Core_1_LLC_loads 835627
Core_1_LLC_load_hit 141240 LLC_load_Hit Ratio: 0.16902
Core_1_LLC_load_miss 694387
Core_1_LLC_RFOs 387160
Core_1_LLC_RFO_hit 148 LLC_RFO_Hit Ratio: 0.00038
Core_1_LLC_RFO_miss 387012
Core_1_LLC_prefetches 1827559
Core_1_LLC_prefetch_hit 121115 LLC_prefetch_Hit Ratio: 0.06627
Core_1_LLC_prefetch_miss 1706444
Core_1_LLC_writebacks 1807754
Core_1_LLC_writeback_hit 1779801 LLC_writeback_Hit Ratio: 0.98454
Core_1_LLC_writeback_miss 27953
Core_1_LLC_prefetch_requested 0
Core_1_LLC_prefetch_issued 0
Core_1_LLC_prefetch_useful 54798 LLC_Useful Ratio: inf
Core_1_LLC_prefetch_useless 6656664
Core_1_LLC_prefetch_late 0
Core_1_LLC_average_miss_latency 3888.37661

Core_1_major_page_fault 0
Core_1_minor_page_fault 19454

Core_2_instructions 326000005
Core_2_cycles 585236483
Core_2_IPC 0.55704

Core_2_branch_prediction_accuracy 99.57883
Core_2_branch_MPKI 0.12289
Core_2_average_ROB_occupancy_at_mispredict 562.72767

Core_2_L1D_total_access 97041092
Core_2_L1D_total_hit 84240484 L1D_total_Hit Ratio: 0.86809
Core_2_L1D_total_miss 12800608
Core_2_L1D_loads 82230665
Core_2_L1D_load_hit 74920414 L1D_load_Hit Ratio: 0.91110
Core_2_L1D_load_miss 7310251
Core_2_L1D_RFOs 8545449
Core_2_L1D_RFO_hit 8116514 L1D_RFO_Hit Ratio: 0.94981
Core_2_L1D_RFO_miss 428935
Core_2_L1D_prefetches 6264978
Core_2_L1D_prefetch_hit 1203556 L1D_prefetch_Hit Ratio: 0.19211
Core_2_L1D_prefetch_miss 5061422
Core_2_L1D_writebacks 0
Core_2_L1D_writeback_hit 0 L1D_writeback_Hit Ratio: -nan
Core_2_L1D_writeback_miss 0
Core_2_L1D_prefetch_requested 10160020
Core_2_L1D_prefetch_issued 10160020
Core_2_L1D_prefetch_useful 4982660 L1D_Useful Ratio: 0.49042
Core_2_L1D_prefetch_useless 104397
Core_2_L1D_prefetch_late 903979
Core_2_L1D_average_miss_latency 32194185.69914

Core_2_L1I_total_access 47981047
Core_2_L1I_total_hit 47976124 L1I_total_Hit Ratio: 0.99990
Core_2_L1I_total_miss 4923
Core_2_L1I_loads 47981047
Core_2_L1I_load_hit 47976124 L1I_load_Hit Ratio: 0.99990
Core_2_L1I_load_miss 4923
Core_2_L1I_RFOs 0
Core_2_L1I_RFO_hit 0 L1I_RFO_Hit Ratio: -nan
Core_2_L1I_RFO_miss 0
Core_2_L1I_prefetches 0
Core_2_L1I_prefetch_hit 0 L1I_prefetch_Hit Ratio: -nan
Core_2_L1I_prefetch_miss 0
Core_2_L1I_writebacks 0
Core_2_L1I_writeback_hit 0 L1I_writeback_Hit Ratio: -nan
Core_2_L1I_writeback_miss 0
Core_2_L1I_prefetch_requested 0
Core_2_L1I_prefetch_issued 0
Core_2_L1I_prefetch_useful 0 L1I_Useful Ratio: -nan
Core_2_L1I_prefetch_useless 0
Core_2_L1I_prefetch_late 0
Core_2_L1I_average_miss_latency 1373.90656

Core_2_L2C_total_access 15936721
Core_2_L2C_total_hit 12885286 L2C_total_Hit Ratio: 0.80853
Core_2_L2C_total_miss 3051435
Core_2_L2C_loads 6413220
Core_2_L2C_load_hit 5261003 L2C_load_Hit Ratio: 0.82034
Core_2_L2C_load_miss 1152217
Core_2_L2C_RFOs 428935
Core_2_L2C_RFO_hit 40647 L2C_RFO_Hit Ratio: 0.09476
Core_2_L2C_RFO_miss 388288
Core_2_L2C_prefetches 7156982
Core_2_L2C_prefetch_hit 5646895 L2C_prefetch_Hit Ratio: 0.78901
Core_2_L2C_prefetch_miss 1510087
Core_2_L2C_writebacks 1937584
Core_2_L2C_writeback_hit 1936741 L2C_writeback_Hit Ratio: 0.99956
Core_2_L2C_writeback_miss 843
Core_2_L2C_prefetch_requested 1759771
Core_2_L2C_prefetch_issued 1759771
Core_2_L2C_prefetch_useful 461045 L2C_Useful Ratio: 0.26199
Core_2_L2C_prefetch_useless 1051276
Core_2_L2C_prefetch_late 318517
Core_2_L2C_average_miss_latency 964.98632

Core_2_LLC_total_access 4858901
Core_2_LLC_total_hit 2035390 LLC_total_Hit Ratio: 0.41890
Core_2_LLC_total_miss 2823511
Core_2_LLC_loads 833780
Core_2_LLC_load_hit 142080 LLC_load_Hit Ratio: 0.17040
Core_2_LLC_load_miss 691700
Core_2_LLC_RFOs 388288
Core_2_LLC_RFO_hit 172 LLC_RFO_Hit Ratio: 0.00044
Core_2_LLC_RFO_miss 388116
Core_2_LLC_prefetches 1828518
Core_2_LLC_prefetch_hit 123607 LLC_prefetch_Hit Ratio: 0.06760
Core_2_LLC_prefetch_miss 1704911
Core_2_LLC_writebacks 1808315
Core_2_LLC_writeback_hit 1769531 LLC_writeback_Hit Ratio: 0.97855
Core_2_LLC_writeback_miss 38784
Core_2_LLC_prefetch_requested 0
Core_2_LLC_prefetch_issued 0
Core_2_LLC_prefetch_useful 54798 LLC_Useful Ratio: inf
Core_2_LLC_prefetch_useless 6656664
Core_2_LLC_prefetch_late 0
Core_2_LLC_average_miss_latency 3877.75196

Core_2_major_page_fault 0
Core_2_minor_page_fault 19454

Core_3_instructions 326000000
Core_3_cycles 584124559
Core_3_IPC 0.55810

Core_3_branch_prediction_accuracy 99.57875
Core_3_branch_MPKI 0.12239
Core_3_average_ROB_occupancy_at_mispredict 562.41542

Core_3_L1D_total_access 97039790
Core_3_L1D_total_hit 84238446 L1D_total_Hit Ratio: 0.86808
Core_3_L1D_total_miss 12801344
Core_3_L1D_loads 82228313
Core_3_L1D_load_hit 74917132 L1D_load_Hit Ratio: 0.91109
Core_3_L1D_load_miss 7311181
Core_3_L1D_RFOs 8546701
Core_3_L1D_RFO_hit 8118533 L1D_RFO_Hit Ratio: 0.94990
Core_3_L1D_RFO_miss 428168
Core_3_L1D_prefetches 6264776
Core_3_L1D_prefetch_hit 1202781 L1D_prefetch_Hit Ratio: 0.19199
Core_3_L1D_prefetch_miss 5061995
Core_3_L1D_writebacks 0
Core_3_L1D_writeback_hit 0 L1D_writeback_Hit Ratio: -nan
Core_3_L1D_writeback_miss 0
Core_3_L1D_prefetch_requested 10254394
Core_3_L1D_prefetch_issued 10254394
Core_3_L1D_prefetch_useful 5022861 L1D_Useful Ratio: 0.48983
Core_3_L1D_prefetch_useless 105489
Core_3_L1D_prefetch_late 913714
Core_3_L1D_average_miss_latency 32486270.27997

Core_3_L1I_total_access 47993120
Core_3_L1I_total_hit 47988199 L1I_total_Hit Ratio: 0.99990
Core_3_L1I_total_miss 4921
Core_3_L1I_loads 47993120
Core_3_L1I_load_hit 47988199 L1I_load_Hit Ratio: 0.99990
Core_3_L1I_load_miss 4921
Core_3_L1I_RFOs 0
Core_3_L1I_RFO_hit 0 L1I_RFO_Hit Ratio: -nan
Core_3_L1I_RFO_miss 0
Core_3_L1I_prefetches 0
Core_3_L1I_prefetch_hit 0 L1I_prefetch_Hit Ratio: -nan
Core_3_L1I_prefetch_miss 0
Core_3_L1I_writebacks 0
Core_3_L1I_writeback_hit 0 L1I_writeback_Hit Ratio: -nan
Core_3_L1I_writeback_miss 0
Core_3_L1I_prefetch_requested 0
Core_3_L1I_prefetch_issued 0
Core_3_L1I_prefetch_useful 0 L1I_Useful Ratio: -nan
Core_3_L1I_prefetch_useless 0
Core_3_L1I_prefetch_late 0
Core_3_L1I_average_miss_latency 921.24446

Core_3_L2C_total_access 15940237
Core_3_L2C_total_hit 12890150 L2C_total_Hit Ratio: 0.80865
Core_3_L2C_total_miss 3050087
Core_3_L2C_loads 6414053
Core_3_L2C_load_hit 5261700 L2C_load_Hit Ratio: 0.82034
Core_3_L2C_load_miss 1152353
Core_3_L2C_RFOs 428168
Core_3_L2C_RFO_hit 40862 L2C_RFO_Hit Ratio: 0.09543
Core_3_L2C_RFO_miss 387306
Core_3_L2C_prefetches 7160438
Core_3_L2C_prefetch_hit 5650782 L2C_prefetch_Hit Ratio: 0.78917
Core_3_L2C_prefetch_miss 1509656
Core_3_L2C_writebacks 1937578
Core_3_L2C_writeback_hit 1936806 L2C_writeback_Hit Ratio: 0.99960
Core_3_L2C_writeback_miss 772
Core_3_L2C_prefetch_requested 1766445
Core_3_L2C_prefetch_issued 1766445
Core_3_L2C_prefetch_useful 464727 L2C_Useful Ratio: 0.26309
Core_3_L2C_prefetch_useless 1053349
Core_3_L2C_prefetch_late 318785
Core_3_L2C_average_miss_latency 972.21882

Core_3_LLC_total_access 4855366
Core_3_LLC_total_hit 2045096 LLC_total_Hit Ratio: 0.42120
Core_3_LLC_total_miss 2810270
Core_3_LLC_loads 833752
Core_3_LLC_load_hit 138844 LLC_load_Hit Ratio: 0.16653
Core_3_LLC_load_miss 694908
Core_3_LLC_RFOs 387306
Core_3_LLC_RFO_hit 91 LLC_RFO_Hit Ratio: 0.00023
Core_3_LLC_RFO_miss 387215
Core_3_LLC_prefetches 1828254
Core_3_LLC_prefetch_hit 120838 LLC_prefetch_Hit Ratio: 0.06609
Core_3_LLC_prefetch_miss 1707416
Core_3_LLC_writebacks 1806054
Core_3_LLC_writeback_hit 1785323 LLC_writeback_Hit Ratio: 0.98852
Core_3_LLC_writeback_miss 20731
Core_3_LLC_prefetch_requested 0
Core_3_LLC_prefetch_issued 0
Core_3_LLC_prefetch_useful 54798 LLC_Useful Ratio: inf
Core_3_LLC_prefetch_useless 6656664
Core_3_LLC_prefetch_late 0
Core_3_LLC_average_miss_latency 3896.02256

Core_3_major_page_fault 0
Core_3_minor_page_fault 19454

[Bingo] PHT Access: 1821718
[Bingo] PHT Hit PC+Addr: 570797
[Bingo] PHT Hit PC+Offs: 1033901
[Bingo] PHT Miss: 217020
[Bingo] Prefetch PC+Addr: 0
[Bingo] Prefetch PC+Offs: 0
[Bingo] Useful PC+Addr: 0
[Bingo] Useful PC+Offs: 0
[Bingo] Useless PC+Addr: 0
[Bingo] Useless PC+Offs: 0
[Bingo] L1 Prefetch per Region: 7.85325
[Bingo] L2 Prefetch per Region: 0.43412
[Bingo] L3 Prefetch per Region: 0.00000
[Bingo] No Prefetch per Region: 23.71263
[Bingo] Number of Voters Mean: 9.24091
[Bingo] Number of Voters SD: 5.78666
PHT read accesses: 25300106
PHT write accesses: 1724635
AT read accesses: 79085132
AT write accesses: 79085164
FT read accesses: 17250022
FT write accesses: 1821718
PS read accesses: 8080110
PS write accesses: 1604698
PHT tag read accesses: 72941501
PHT tag write accesses: 2295432
AT tag read accesses: 2249932470
AT tag write accesses: 80809799
FT tag read accesses: 1039115937
FT tag write accesses: 11357462
PS tag read accesses: 1416062161
PS tag write accesses: 9658125
[Bingo2] PHT Access: 491085
[Bingo2] PHT Hit PC+Addr: 12195
[Bingo2] PHT Hit PC+Offs: 345048
[Bingo2] PHT Miss: 133842
[Bingo2] Prefetch PC+Addr: 0
[Bingo2] Prefetch PC+Offs: 0
[Bingo2] Useful PC+Addr: 0
[Bingo2] Useful PC+Offs: 0
[Bingo2] Useless PC+Addr: 0
[Bingo2] Useless PC+Offs: 0
[Bingo2] L1 Prefetch per Region: 0.00000
[Bingo2] L2 Prefetch per Region: 6.84436
[Bingo2] L3 Prefetch per Region: 0.00000
[Bingo2] No Prefetch per Region: 25.15564
[Bingo2] Number of Voters Mean: 12.72233
[Bingo2] Number of Voters SD: 5.12259
PHT read accesses: 7733460
PHT write accesses: 383590
AT read accesses: 5978475
AT write accesses: 6354576
FT read accesses: 1298972
FT write accesses: 491085
PS read accesses: 883170
PS write accesses: 357243
PHT tag read accesses: 19878247
PHT tag write accesses: 395785
AT tag read accesses: 318391576
AT tag write accesses: 6362193
FT tag read accesses: 229165924
FT tag write accesses: 1340148
PS tag read accesses: 117711152
PS tag write accesses: 1237694
[Bingo] PHT Access: 1793737
[Bingo] PHT Hit PC+Addr: 559872
[Bingo] PHT Hit PC+Offs: 1020250
[Bingo] PHT Miss: 213615
[Bingo] Prefetch PC+Addr: 0
[Bingo] Prefetch PC+Offs: 0
[Bingo] Useful PC+Addr: 0
[Bingo] Useful PC+Offs: 0
[Bingo] Useless PC+Addr: 0
[Bingo] Useless PC+Offs: 0
[Bingo] L1 Prefetch per Region: 7.86987
[Bingo] L2 Prefetch per Region: 0.43615
[Bingo] L3 Prefetch per Region: 0.00000
[Bingo] No Prefetch per Region: 23.69399
[Bingo] Number of Voters Mean: 9.26046
[Bingo] Number of Voters SD: 5.90005
PHT read accesses: 24912567
PHT write accesses: 1697931
AT read accesses: 77824723
AT write accesses: 77824718
FT read accesses: 17127581
FT write accesses: 1793737
PS read accesses: 7958947
PS write accesses: 1580122
PHT tag read accesses: 71838991
PHT tag write accesses: 2257803
AT tag read accesses: 2225557813
AT tag write accesses: 79522649
FT tag read accesses: 1034058731
FT tag write accesses: 11254330
PS tag read accesses: 1394705689
PS tag write accesses: 9512646
[Bingo2] PHT Access: 483055
[Bingo2] PHT Hit PC+Addr: 11350
[Bingo2] PHT Hit PC+Offs: 340280
[Bingo2] PHT Miss: 131425
[Bingo2] Prefetch PC+Addr: 0
[Bingo2] Prefetch PC+Offs: 0
[Bingo2] Useful PC+Addr: 0
[Bingo2] Useful PC+Offs: 0
[Bingo2] Useless PC+Addr: 0
[Bingo2] Useless PC+Offs: 0
[Bingo2] L1 Prefetch per Region: 0.00000
[Bingo2] L2 Prefetch per Region: 6.92092
[Bingo2] L3 Prefetch per Region: 0.00000
[Bingo2] No Prefetch per Region: 25.07908
[Bingo2] Number of Voters Mean: 12.77877
[Bingo2] Number of Voters SD: 5.07670
PHT read accesses: 7642490
PHT write accesses: 380583
AT read accesses: 5891421
AT write accesses: 6264527
FT read accesses: 1286790
FT write accesses: 483055
PS read accesses: 869767
PS write accesses: 351630
PHT tag read accesses: 19715087
PHT tag write accesses: 391933
AT tag read accesses: 316254808
AT tag write accesses: 6272017
FT tag read accesses: 228279938
FT tag write accesses: 1324480
PS tag read accesses: 115915361
PS tag write accesses: 1218436
[Bingo] PHT Access: 1795714
[Bingo] PHT Hit PC+Addr: 558313
[Bingo] PHT Hit PC+Offs: 1023706
[Bingo] PHT Miss: 213695
[Bingo] Prefetch PC+Addr: 0
[Bingo] Prefetch PC+Offs: 0
[Bingo] Useful PC+Addr: 0
[Bingo] Useful PC+Offs: 0
[Bingo] Useless PC+Addr: 0
[Bingo] Useless PC+Offs: 0
[Bingo] L1 Prefetch per Region: 7.86614
[Bingo] L2 Prefetch per Region: 0.43327
[Bingo] L3 Prefetch per Region: 0.00000
[Bingo] No Prefetch per Region: 23.70059
[Bingo] Number of Voters Mean: 9.29755
[Bingo] Number of Voters SD: 5.80055
PHT read accesses: 24987669
PHT write accesses: 1700100
AT read accesses: 78384058
AT write accesses: 78384082
FT read accesses: 17142155
FT write accesses: 1795714
PS read accesses: 7964672
PS write accesses: 1582019
PHT tag read accesses: 72016025
PHT tag write accesses: 2258413
AT tag read accesses: 2237570108
AT tag write accesses: 80084182
FT tag read accesses: 1037210520
FT tag write accesses: 11264524
PS tag read accesses: 1403796893
PS tag write accesses: 9520258
[Bingo2] PHT Access: 489720
[Bingo2] PHT Hit PC+Addr: 11237
[Bingo2] PHT Hit PC+Offs: 344943
[Bingo2] PHT Miss: 133540
[Bingo2] Prefetch PC+Addr: 0
[Bingo2] Prefetch PC+Offs: 0
[Bingo2] Useful PC+Addr: 0
[Bingo2] Useful PC+Offs: 0
[Bingo2] Useless PC+Addr: 0
[Bingo2] Useless PC+Offs: 0
[Bingo2] L1 Prefetch per Region: 0.00000
[Bingo2] L2 Prefetch per Region: 6.81747
[Bingo2] L3 Prefetch per Region: 0.00000
[Bingo2] No Prefetch per Region: 25.18253
[Bingo2] Number of Voters Mean: 12.67385
[Bingo2] Number of Voters SD: 5.09756
PHT read accesses: 7715354
PHT write accesses: 382458
AT read accesses: 5884221
AT write accesses: 6258365
FT read accesses: 1293452
FT write accesses: 489720
PS read accesses: 878536
PS write accesses: 356180
PHT tag read accesses: 19869723
PHT tag write accesses: 393695
AT tag read accesses: 316760908
AT tag write accesses: 6266807
FT tag read accesses: 229099794
FT tag write accesses: 1336033
PS tag read accesses: 116205681
PS tag write accesses: 1232192
[Bingo] PHT Access: 1814245
[Bingo] PHT Hit PC+Addr: 565022
[Bingo] PHT Hit PC+Offs: 1033254
[Bingo] PHT Miss: 215969
[Bingo] Prefetch PC+Addr: 0
[Bingo] Prefetch PC+Offs: 0
[Bingo] Useful PC+Addr: 0
[Bingo] Useful PC+Offs: 0
[Bingo] Useless PC+Addr: 0
[Bingo] Useless PC+Offs: 0
[Bingo] L1 Prefetch per Region: 7.85929
[Bingo] L2 Prefetch per Region: 0.43350
[Bingo] L3 Prefetch per Region: 0.00000
[Bingo] No Prefetch per Region: 23.70720
[Bingo] Number of Voters Mean: 9.27121
[Bingo] Number of Voters SD: 5.79147
PHT read accesses: 25213802
PHT write accesses: 1717547
AT read accesses: 78880211
AT write accesses: 78880237
FT read accesses: 17219095
FT write accesses: 1814245
PS read accesses: 8046380
PS write accesses: 1598276
PHT tag read accesses: 72717634
PHT tag write accesses: 2282569
AT tag read accesses: 2246336593
AT tag write accesses: 80597784
FT tag read accesses: 1038581752
FT tag write accesses: 11330791
PS tag read accesses: 1412511901
PS tag write accesses: 9618038
[Bingo2] PHT Access: 491816
[Bingo2] PHT Hit PC+Addr: 12494
[Bingo2] PHT Hit PC+Offs: 342391
[Bingo2] PHT Miss: 136931
[Bingo2] Prefetch PC+Addr: 0
[Bingo2] Prefetch PC+Offs: 0
[Bingo2] Useful PC+Addr: 0
[Bingo2] Useful PC+Offs: 0
[Bingo2] Useless PC+Addr: 0
[Bingo2] Useless PC+Offs: 0
[Bingo2] L1 Prefetch per Region: 0.00000
[Bingo2] L2 Prefetch per Region: 6.86897
[Bingo2] L3 Prefetch per Region: 0.00000
[Bingo2] No Prefetch per Region: 25.13103
[Bingo2] Number of Voters Mean: 12.81259
[Bingo2] Number of Voters SD: 5.06659
PHT read accesses: 7738421
PHT write accesses: 383162
AT read accesses: 5949393
AT write accesses: 6325230
FT read accesses: 1295763
FT write accesses: 491816
PS read accesses: 877016
PS write accesses: 354885
PHT tag read accesses: 19922169
PHT tag write accesses: 395656
AT tag read accesses: 317904206
AT tag write accesses: 6332677
FT tag read accesses: 229183154
FT tag write accesses: 1339174
PS tag read accesses: 117267541
PS tag write accesses: 1229188
Channel_0_RQ_row_buffer_hit 4943371
Channel_0_RQ_row_buffer_miss 6228058
Channel_0_WQ_row_buffer_hit 2574253
Channel_0_WQ_row_buffer_miss 3969310
Channel_0_WQ_full 16175
Channel_0_dbus_congested 12356398

avg_congested_cycle 11

EzSearch AVG IPC :0.55850: L2-Pf-HR :0.78888 : L2-HR :0.80993 Uful:0.26472
EzSearch AVG IPC :0.55731: L2-Pf-HR :0.78927 : L2-HR :0.80892 Uful:0.26130
EzSearch AVG IPC :0.55704: L2-Pf-HR :0.78901 : L2-HR :0.80853 Uful:0.26199
EzSearch AVG IPC :0.55810: L2-Pf-HR :0.78917 : L2-HR :0.80968 Uful:0.26309
     > Finished combination: TraceType=770-tot Sim:326000000 Prefetcher=L2bingo_dpc3_PHT1k L1=bingo_dpc3_PHT1k
