TRACE: [32000000]_FE_[OPT-125M]_[h12]_[s256]_[d64] Warmup: 2000000 NumTraces: 32000000
L1:bingo_dpc3:L2:bingo_dpc3
*************************************************
   ChampSim Multicore Out-of-Order Simulator
   Last compiled: Oct 28 2024 16:51:47
*************************************************

trace_0 770-tot_memTraces_v3/memTraces[32000000]_FE_[OPT-125M]_[h12]_[s256]_[d64].champsim.xz
trace_1 770-tot_memTraces_v3/memTraces[32000000]_FE_[OPT-125M]_[h12]_[s256]_[d64].champsim.xz
trace_2 770-tot_memTraces_v3/memTraces[32000000]_FE_[OPT-125M]_[h12]_[s256]_[d64].champsim.xz
trace_3 770-tot_memTraces_v3/memTraces[32000000]_FE_[OPT-125M]_[h12]_[s256]_[d64].champsim.xz
Bingo PHT WAYS: 16 and PHT_SIZE: 16384
Bingo2 PHT WAYS: 16 and PHT_SIZE: 16384
Bingo PHT WAYS: 16 and PHT_SIZE: 16384
Bingo2 PHT WAYS: 16 and PHT_SIZE: 16384
Bingo PHT WAYS: 16 and PHT_SIZE: 16384
Bingo2 PHT WAYS: 16 and PHT_SIZE: 16384
Bingo PHT WAYS: 16 and PHT_SIZE: 16384
Bingo2 PHT WAYS: 16 and PHT_SIZE: 16384
MAIN.cc ln 751 stats print skipped
CPU  2 inst:    1000000 cyc:     500302 now IPC :1.99879: AVG IPC :1.99879: L2-Pf-HR :0.80999: L2-HR :0.67113: (Sim:0h1m42s) 
CPU  0 inst:    1000000 cyc:     500387 now IPC :1.99845: AVG IPC :1.99845: L2-Pf-HR :0.81074: L2-HR :0.67070: (Sim:0h1m42s) 
CPU  1 inst:    1000000 cyc:     500452 now IPC :1.99819: AVG IPC :1.99819: L2-Pf-HR :0.81518: L2-HR :0.67110: (Sim:0h1m42s) 
CPU  3 inst:    1000000 cyc:     500495 now IPC :1.99802: AVG IPC :1.99802: L2-Pf-HR :0.77213: L2-HR :0.63870: (Sim:0h1m42s) 
CPU  2 inst:    2000004 cyc:     987683 now IPC :2.05179: AVG IPC :2.02495: L2-Pf-HR :0.79885: L2-HR :0.74454: (Sim:0h3m32s) 
CPU  0 inst:    2000004 cyc:     987743 now IPC :2.05190: AVG IPC :2.02482: L2-Pf-HR :0.79738: L2-HR :0.74501: (Sim:0h3m32s) 
CPU  1 inst:    2000004 cyc:     987821 now IPC :2.05184: AVG IPC :2.02466: L2-Pf-HR :0.80561: L2-HR :0.74367: (Sim:0h3m32s) 
CPU  3 inst:    2000004 cyc:     987908 now IPC :2.05166: AVG IPC :2.02448: L2-Pf-HR :0.78350: L2-HR :0.72809: (Sim:0h3m32s) 

Warmup complete CPU  0 instructions:    2000281 cycles:     987908 (Simulation time: 0 hr 3 min 32 sec) 
Warmup complete CPU  1 instructions:    2000252 cycles:     987908 (Simulation time: 0 hr 3 min 32 sec) 
Warmup complete CPU  2 instructions:    2000415 cycles:     987908 (Simulation time: 0 hr 3 min 32 sec) 
Warmup complete CPU  3 instructions:    2000004 cycles:     987908 (Simulation time: 0 hr 3 min 32 sec) 

CPU  3 inst:    3000001 cyc:    1701847 now IPC :1.40068: AVG IPC :1.40068: L2-Pf-HR :0.79997: L2-HR :0.81053: (Sim:0h5m11s) 
CPU  2 inst:    3000001 cyc:    1721397 now IPC :1.36292: AVG IPC :1.36278: L2-Pf-HR :0.79851: L2-HR :0.81089: (Sim:0h5m14s) 
CPU  0 inst:    3000001 cyc:    1722177 now IPC :1.36159: AVG IPC :1.36152: L2-Pf-HR :0.81064: L2-HR :0.81072: (Sim:0h5m14s) 
CPU  1 inst:    3000001 cyc:    1722461 now IPC :1.36121: AVG IPC :1.36103: L2-Pf-HR :0.80207: L2-HR :0.80635: (Sim:0h5m14s) 
CPU  1 inst:    4000000 cyc:    2374111 now IPC :1.53456: AVG IPC :1.44261: L2-Pf-HR :0.79991: L2-HR :0.81561: (Sim:0h6m49s) 
CPU  0 inst:    4000000 cyc:    2398039 now IPC :1.47959: AVG IPC :1.41811: L2-Pf-HR :0.80882: L2-HR :0.82071: (Sim:0h6m52s) 
CPU  3 inst:    4000000 cyc:    2409365 now IPC :1.41339: AVG IPC :1.40700: L2-Pf-HR :0.80278: L2-HR :0.81957: (Sim:0h6m54s) 
CPU  2 inst:    4000000 cyc:    2410836 now IPC :1.45045: AVG IPC :1.40526: L2-Pf-HR :0.79861: L2-HR :0.81603: (Sim:0h6m54s) 
CPU  1 inst:    5000001 cyc:    3057093 now IPC :1.46417: AVG IPC :1.44972: L2-Pf-HR :0.80545: L2-HR :0.82086: (Sim:0h8m28s) 
CPU  2 inst:    5000005 cyc:    3084074 now IPC :1.48537: AVG IPC :1.43099: L2-Pf-HR :0.80055: L2-HR :0.81871: (Sim:0h8m32s) 
CPU  3 inst:    5000005 cyc:    3085454 now IPC :1.47910: AVG IPC :1.43024: L2-Pf-HR :0.79818: L2-HR :0.81887: (Sim:0h8m32s) 
CPU  0 inst:    5000001 cyc:    3100083 now IPC :1.42441: AVG IPC :1.42020: L2-Pf-HR :0.80821: L2-HR :0.82014: (Sim:0h8m34s) 
CPU  1 inst:    6000001 cyc:    3768420 now IPC :1.40582: AVG IPC :1.43849: L2-Pf-HR :0.80060: L2-HR :0.81739: (Sim:0h10m3s) 
CPU  3 inst:    6000001 cyc:    3773176 now IPC :1.45407: AVG IPC :1.43613: L2-Pf-HR :0.80321: L2-HR :0.82231: (Sim:0h10m4s) 
CPU  2 inst:    6000001 cyc:    3776675 now IPC :1.44383: AVG IPC :1.43418: L2-Pf-HR :0.80104: L2-HR :0.81930: (Sim:0h10m4s) 
CPU  0 inst:    6000001 cyc:    3799222 now IPC :1.43033: AVG IPC :1.42272: L2-Pf-HR :0.80488: L2-HR :0.81851: (Sim:0h10m8s) 
CPU  3 inst:    7000004 cyc:    4488130 now IPC :1.39870: AVG IPC :1.42848: L2-Pf-HR :0.79741: L2-HR :0.81903: (Sim:0h11m37s) 
CPU  2 inst:    7000004 cyc:    4513446 now IPC :1.35728: AVG IPC :1.41811: L2-Pf-HR :0.80098: L2-HR :0.81946: (Sim:0h11m40s) 
CPU  1 inst:    7000004 cyc:    4514352 now IPC :1.34061: AVG IPC :1.41779: L2-Pf-HR :0.80178: L2-HR :0.81798: (Sim:0h11m41s) 
CPU  0 inst:    7000004 cyc:    4534896 now IPC :1.35930: AVG IPC :1.40957: L2-Pf-HR :0.80634: L2-HR :0.81899: (Sim:0h11m43s) 
CPU  3 inst:    8000002 cyc:    5235369 now IPC :1.33826: AVG IPC :1.41261: L2-Pf-HR :0.80366: L2-HR :0.82350: (Sim:0h13m11s) 
CPU  2 inst:    8000002 cyc:    5293137 now IPC :1.28256: AVG IPC :1.39356: L2-Pf-HR :0.80153: L2-HR :0.81952: (Sim:0h13m19s) 
CPU  0 inst:    8000002 cyc:    5296053 now IPC :1.31379: AVG IPC :1.39265: L2-Pf-HR :0.80424: L2-HR :0.81855: (Sim:0h13m19s) 
CPU  1 inst:    8000002 cyc:    5296966 now IPC :1.27777: AVG IPC :1.39236: L2-Pf-HR :0.80135: L2-HR :0.81740: (Sim:0h13m19s) 
CPU  3 inst:    9000000 cyc:    6147746 now IPC :1.09604: AVG IPC :1.35663: L2-Pf-HR :0.80019: L2-HR :0.82019: (Sim:0h14m55s) 
CPU  1 inst:    9000000 cyc:    6174439 now IPC :1.13963: AVG IPC :1.34960: L2-Pf-HR :0.80322: L2-HR :0.81944: (Sim:0h14m59s) 
CPU  2 inst:    9000000 cyc:    6177697 now IPC :1.13050: AVG IPC :1.34872: L2-Pf-HR :0.80084: L2-HR :0.81902: (Sim:0h15m0s) 
CPU  0 inst:    9000000 cyc:    6223952 now IPC :1.07770: AVG IPC :1.33683: L2-Pf-HR :0.80339: L2-HR :0.81776: (Sim:0h15m6s) 
CPU  1 inst:   10000000 cyc:    7172911 now IPC :1.00153: AVG IPC :1.29341: L2-Pf-HR :0.80291: L2-HR :0.81963: (Sim:0h16m42s) 
CPU  3 inst:   10000000 cyc:    7232614 now IPC :0.92177: AVG IPC :1.28108: L2-Pf-HR :0.80074: L2-HR :0.81949: (Sim:0h16m49s) 
CPU  0 inst:   10000000 cyc:    7253178 now IPC :0.97160: AVG IPC :1.27684: L2-Pf-HR :0.80409: L2-HR :0.81826: (Sim:0h16m51s) 
CPU  2 inst:   10000000 cyc:    7265068 now IPC :0.91965: AVG IPC :1.27440: L2-Pf-HR :0.80050: L2-HR :0.81899: (Sim:0h16m52s) 
CPU  1 inst:   11000002 cyc:    8270270 now IPC :0.91128: AVG IPC :1.23583: L2-Pf-HR :0.80079: L2-HR :0.81765: (Sim:0h18m28s) 
CPU  0 inst:   11000002 cyc:    8444745 now IPC :0.83923: AVG IPC :1.20691: L2-Pf-HR :0.80313: L2-HR :0.81791: (Sim:0h18m48s) 
CPU  3 inst:   11000002 cyc:    8445251 now IPC :0.82465: AVG IPC :1.20686: L2-Pf-HR :0.80074: L2-HR :0.81927: (Sim:0h18m48s) 
CPU  2 inst:   11000002 cyc:    8451891 now IPC :0.84259: AVG IPC :1.20574: L2-Pf-HR :0.79860: L2-HR :0.81745: (Sim:0h18m49s) 
CPU  1 inst:   12000003 cyc:    9167349 now IPC :1.11473: AVG IPC :1.22255: L2-Pf-HR :0.80114: L2-HR :0.81822: (Sim:0h19m35s) 
CPU  3 inst:   12000003 cyc:    9698522 now IPC :0.79791: AVG IPC :1.14802: L2-Pf-HR :0.79957: L2-HR :0.81876: (Sim:0h20m0s) 
CPU  2 inst:   12000003 cyc:    9711809 now IPC :0.79370: AVG IPC :1.14623: L2-Pf-HR :0.79943: L2-HR :0.81820: (Sim:0h20m1s) 
CPU  0 inst:   12000003 cyc:    9714087 now IPC :0.78781: AVG IPC :1.14595: L2-Pf-HR :0.80328: L2-HR :0.81815: (Sim:0h20m1s) 
CPU  1 inst:   13000005 cyc:   11466293 now IPC :0.43498: AVG IPC :1.04976: L2-Pf-HR :0.77942: L2-HR :0.78467: (Sim:0h20m57s) 
CPU  0 inst:   13000005 cyc:   13903173 now IPC :0.23872: AVG IPC :0.85168: L2-Pf-HR :0.78404: L2-HR :0.78382: (Sim:0h23m25s) 
CPU  3 inst:   13000005 cyc:   14102201 now IPC :0.22708: AVG IPC :0.83878: L2-Pf-HR :0.77986: L2-HR :0.78434: (Sim:0h23m38s) 
CPU  2 inst:   13000002 cyc:   14125757 now IPC :0.22655: AVG IPC :0.83724: L2-Pf-HR :0.77999: L2-HR :0.78392: (Sim:0h23m40s) 
CPU  1 inst:   14000000 cyc:   15564031 now IPC :0.24404: AVG IPC :0.82325: L2-Pf-HR :0.72085: L2-HR :0.73756: (Sim:0h25m10s) 
CPU  1 inst:   15000000 cyc:   19340358 now IPC :0.26481: AVG IPC :0.70834: L2-Pf-HR :0.68073: L2-HR :0.71892: (Sim:0h28m49s) 
CPU  0 inst:   14000001 cyc:   19439661 now IPC :0.18062: AVG IPC :0.65033: L2-Pf-HR :0.72138: L2-HR :0.73712: (Sim:0h28m54s) 
CPU  2 inst:   14000003 cyc:   19482518 now IPC :0.18668: AVG IPC :0.64882: L2-Pf-HR :0.71712: L2-HR :0.73741: (Sim:0h28m57s) 
CPU  3 inst:   14000003 cyc:   19484621 now IPC :0.18579: AVG IPC :0.64876: L2-Pf-HR :0.71754: L2-HR :0.73764: (Sim:0h28m57s) 
CPU  1 inst:   16000003 cyc:   22724925 now IPC :0.29546: AVG IPC :0.64405: L2-Pf-HR :0.64435: L2-HR :0.70177: (Sim:0h32m4s) 
CPU  0 inst:   15000000 cyc:   22824040 now IPC :0.29547: AVG IPC :0.59533: L2-Pf-HR :0.68020: L2-HR :0.71820: (Sim:0h32m10s) 
CPU  2 inst:   15000000 cyc:   22867809 now IPC :0.29539: AVG IPC :0.59413: L2-Pf-HR :0.67624: L2-HR :0.71845: (Sim:0h32m13s) 
CPU  3 inst:   15000000 cyc:   22869263 now IPC :0.29545: AVG IPC :0.59411: L2-Pf-HR :0.67667: L2-HR :0.71867: (Sim:0h32m13s) 
CPU  1 inst:   17000003 cyc:   26112350 now IPC :0.29521: AVG IPC :0.59702: L2-Pf-HR :0.61147: L2-HR :0.68596: (Sim:0h35m19s) 
CPU  0 inst:   16000003 cyc:   26209608 now IPC :0.29537: AVG IPC :0.55507: L2-Pf-HR :0.64354: L2-HR :0.70098: (Sim:0h35m25s) 
CPU  2 inst:   16000000 cyc:   26253678 now IPC :0.29535: AVG IPC :0.55409: L2-Pf-HR :0.63994: L2-HR :0.70123: (Sim:0h35m28s) 
CPU  3 inst:   16000003 cyc:   26255733 now IPC :0.29529: AVG IPC :0.55406: L2-Pf-HR :0.64057: L2-HR :0.70153: (Sim:0h35m28s) 
CPU  1 inst:   18000000 cyc:   29499850 now IPC :0.29520: AVG IPC :0.56116: L2-Pf-HR :0.58162: L2-HR :0.67139: (Sim:0h38m36s) 
CPU  0 inst:   17000001 cyc:   29597327 now IPC :0.29518: AVG IPC :0.52429: L2-Pf-HR :0.61029: L2-HR :0.68506: (Sim:0h38m42s) 
CPU  2 inst:   17000003 cyc:   29641252 now IPC :0.29520: AVG IPC :0.52348: L2-Pf-HR :0.60716: L2-HR :0.68539: (Sim:0h38m44s) 
CPU  3 inst:   17000003 cyc:   29644438 now IPC :0.29510: AVG IPC :0.52344: L2-Pf-HR :0.60769: L2-HR :0.68565: (Sim:0h38m44s) 
CPU  1 inst:   19000000 cyc:   32886264 now IPC :0.29530: AVG IPC :0.53293: L2-Pf-HR :0.55451: L2-HR :0.65796: (Sim:0h41m53s) 
CPU  0 inst:   18000000 cyc:   32983261 now IPC :0.29534: AVG IPC :0.50006: L2-Pf-HR :0.58070: L2-HR :0.67063: (Sim:0h41m58s) 
CPU  2 inst:   18000000 cyc:   33028313 now IPC :0.29524: AVG IPC :0.49936: L2-Pf-HR :0.57755: L2-HR :0.67085: (Sim:0h42m1s) 
CPU  3 inst:   18000000 cyc:   33032613 now IPC :0.29514: AVG IPC :0.49930: L2-Pf-HR :0.57795: L2-HR :0.67104: (Sim:0h42m1s) 
CPU  1 inst:   20000004 cyc:   35123139 now IPC :0.44705: AVG IPC :0.52731: L2-Pf-HR :0.55678: L2-HR :0.66496: (Sim:0h44m10s) 
CPU  1 inst:   21000000 cyc:   35916760 now IPC :1.26004: AVG IPC :0.54396: L2-Pf-HR :0.58225: L2-HR :0.68945: (Sim:0h44m45s) 
CPU  0 inst:   19000003 cyc:   36456777 now IPC :0.28789: AVG IPC :0.47929: L2-Pf-HR :0.55424: L2-HR :0.65743: (Sim:0h45m8s) 
CPU  2 inst:   19000003 cyc:   36490182 now IPC :0.28886: AVG IPC :0.47883: L2-Pf-HR :0.55115: L2-HR :0.65759: (Sim:0h45m10s) 
CPU  3 inst:   19000000 cyc:   36502384 now IPC :0.28820: AVG IPC :0.47868: L2-Pf-HR :0.55167: L2-HR :0.65782: (Sim:0h45m10s) 
CPU  1 inst:   22000004 cyc:   36647137 now IPC :1.36916: AVG IPC :0.56086: L2-Pf-HR :0.60384: L2-HR :0.70992: (Sim:0h45m17s) 
CPU  1 inst:   23000004 cyc:   37369831 now IPC :1.38371: AVG IPC :0.57720: L2-Pf-HR :0.62305: L2-HR :0.72746: (Sim:0h45m47s) 
CPU  1 inst:   24000004 cyc:   38071070 now IPC :1.42605: AVG IPC :0.59325: L2-Pf-HR :0.64008: L2-HR :0.74254: (Sim:0h46m16s) 
CPU  1 inst:   25000001 cyc:   38849036 now IPC :1.28540: AVG IPC :0.60748: L2-Pf-HR :0.65362: L2-HR :0.75495: (Sim:0h46m55s) 
CPU  0 inst:   20000004 cyc:   38917501 now IPC :0.40638: AVG IPC :0.47456: L2-Pf-HR :0.55696: L2-HR :0.66464: (Sim:0h47m0s) 
CPU  3 inst:   20000004 cyc:   38980275 now IPC :0.40357: AVG IPC :0.47378: L2-Pf-HR :0.55461: L2-HR :0.66502: (Sim:0h47m6s) 
CPU  2 inst:   20000004 cyc:   38997604 now IPC :0.39882: AVG IPC :0.47355: L2-Pf-HR :0.55418: L2-HR :0.66476: (Sim:0h47m7s) 
CPU  1 inst:   26000002 cyc:   39662568 now IPC :1.22921: AVG IPC :0.62055: L2-Pf-HR :0.66559: L2-HR :0.76571: (Sim:0h47m53s) 
CPU  0 inst:   21000000 cyc:   39731740 now IPC :1.22814: AVG IPC :0.49039: L2-Pf-HR :0.58257: L2-HR :0.68927: (Sim:0h47m57s) 
CPU  3 inst:   21000000 cyc:   39888904 now IPC :1.10055: AVG IPC :0.48842: L2-Pf-HR :0.57991: L2-HR :0.68938: (Sim:0h48m11s) 
CPU  2 inst:   21000000 cyc:   39917037 now IPC :1.08762: AVG IPC :0.48806: L2-Pf-HR :0.57962: L2-HR :0.68929: (Sim:0h48m13s) 
CPU  1 inst:   27000000 cyc:   40464679 now IPC :1.24671: AVG IPC :0.63328: L2-Pf-HR :0.67616: L2-HR :0.77514: (Sim:0h48m50s) 
CPU  0 inst:   22000004 cyc:   40522136 now IPC :1.26519: AVG IPC :0.50588: L2-Pf-HR :0.60421: L2-HR :0.70982: (Sim:0h48m55s) 
CPU  3 inst:   22000004 cyc:   40725452 now IPC :1.19539: AVG IPC :0.50330: L2-Pf-HR :0.60166: L2-HR :0.70989: (Sim:0h49m12s) 
CPU  2 inst:   22000004 cyc:   40786965 now IPC :1.14953: AVG IPC :0.50251: L2-Pf-HR :0.60148: L2-HR :0.70983: (Sim:0h49m17s) 
CPU  1 inst:   28000004 cyc:   41267816 now IPC :1.24512: AVG IPC :0.64548: L2-Pf-HR :0.68641: L2-HR :0.78388: (Sim:0h49m50s) 
CPU  0 inst:   23000004 cyc:   41348398 now IPC :1.21027: AVG IPC :0.52030: L2-Pf-HR :0.62332: L2-HR :0.72739: (Sim:0h49m54s) 
CPU  3 inst:   23000004 cyc:   41530436 now IPC :1.24226: AVG IPC :0.51797: L2-Pf-HR :0.62112: L2-HR :0.72745: (Sim:0h50m10s) 
CPU  2 inst:   23000004 cyc:   41642874 now IPC :1.16835: AVG IPC :0.51653: L2-Pf-HR :0.62071: L2-HR :0.72738: (Sim:0h50m19s) 
CPU  1 inst:   29000004 cyc:   42056990 now IPC :1.26715: AVG IPC :0.65742: L2-Pf-HR :0.69504: L2-HR :0.79137: (Sim:0h50m47s) 
Finished CPU 1 instr: 27000000 cyc: 41069225 AVG IPC: 0.65743 (Sim time: 0h50m47s)
CPU  0 inst:   24000004 cyc:   42142710 now IPC :1.25895: AVG IPC :0.53456: L2-Pf-HR :0.64039: L2-HR :0.74250: (Sim:0h50m53s) 
CPU  3 inst:   24000004 cyc:   42370821 now IPC :1.18993: AVG IPC :0.53162: L2-Pf-HR :0.63828: L2-HR :0.74254: (Sim:0h51m11s) 
CPU  2 inst:   24000004 cyc:   42429715 now IPC :1.27090: AVG IPC :0.53085: L2-Pf-HR :0.63784: L2-HR :0.74246: (Sim:0h51m15s) 
CPU  1 inst:   30000002 cyc:   42850754 now IPC :1.25982: AVG IPC :0.66884: L2-Pf-HR :0.70255: L2-HR :0.79795: (Sim:0h51m48s) 
CPU  0 inst:   25000001 cyc:   42871949 now IPC :1.37129: AVG IPC :0.54913: L2-Pf-HR :0.65397: L2-HR :0.75493: (Sim:0h51m49s) 
CPU  3 inst:   25000001 cyc:   43077768 now IPC :1.41453: AVG IPC :0.54645: L2-Pf-HR :0.65198: L2-HR :0.75495: (Sim:0h52m6s) 
CPU  2 inst:   25000001 cyc:   43180960 now IPC :1.33112: AVG IPC :0.54510: L2-Pf-HR :0.65153: L2-HR :0.75484: (Sim:0h52m15s) 
CPU  1 inst:   31000002 cyc:   43538927 now IPC :1.45312: AVG IPC :0.68153: L2-Pf-HR :0.70947: L2-HR :0.80390: (Sim:0h52m42s) 
CPU  0 inst:   26000002 cyc:   43610690 now IPC :1.35366: AVG IPC :0.56307: L2-Pf-HR :0.66603: L2-HR :0.76571: (Sim:0h52m48s) 
CPU  3 inst:   26000002 cyc:   43834809 now IPC :1.32093: AVG IPC :0.56013: L2-Pf-HR :0.66413: L2-HR :0.76572: (Sim:0h53m6s) 
CPU  2 inst:   26000002 cyc:   43896752 now IPC :1.39706: AVG IPC :0.55932: L2-Pf-HR :0.66370: L2-HR :0.76563: (Sim:0h53m11s) 
CPU  0 inst:   27000000 cyc:   44321309 now IPC :1.40722: AVG IPC :0.57692: L2-Pf-HR :0.67670: L2-HR :0.77514: (Sim:0h53m44s) 
CPU  1 inst:   32000000 cyc:   44376417 now IPC :1.19404: AVG IPC :0.69142: L2-Pf-HR :0.71646: L2-HR :0.80905: (Sim:0h53m48s) 
*** Reached end of trace for Core: 1 Repeating trace: 770-tot_memTraces_v3/memTraces[32000000]_FE_[OPT-125M]_[h12]_[s256]_[d64].champsim.xz
CPU  3 inst:   27000000 cyc:   44582969 now IPC :1.33661: AVG IPC :0.57346: L2-Pf-HR :0.67489: L2-HR :0.77516: (Sim:0h54m0s) 
CPU  2 inst:   27000000 cyc:   44647774 now IPC :1.33152: AVG IPC :0.57260: L2-Pf-HR :0.67446: L2-HR :0.77509: (Sim:0h54m4s) 
CPU  0 inst:   28000004 cyc:   45089813 now IPC :1.30123: AVG IPC :0.58954: L2-Pf-HR :0.68691: L2-HR :0.78389: (Sim:0h54m35s) 
CPU  3 inst:   28000001 cyc:   45257673 now IPC :1.48213: AVG IPC :0.58731: L2-Pf-HR :0.68521: L2-HR :0.78391: (Sim:0h54m47s) 
CPU  2 inst:   28000001 cyc:   45351467 now IPC :1.42108: AVG IPC :0.58606: L2-Pf-HR :0.68478: L2-HR :0.78383: (Sim:0h54m55s) 
CPU  1 inst:   33000003 cyc:   45657130 now IPC :0.78082: AVG IPC :0.69398: L2-Pf-HR :0.71621: L2-HR :0.80691: (Sim:0h55m18s) 
CPU  0 inst:   29000004 cyc:   45800526 now IPC :1.40704: AVG IPC :0.60250: L2-Pf-HR :0.69556: L2-HR :0.79138: (Sim:0h55m29s) 
Finished CPU 0 instr: 27000001 cyc: 44812766 AVG IPC: 0.60251 (Sim time: 0h55m29s)
CPU  3 inst:   29000004 cyc:   45990400 now IPC :1.36477: AVG IPC :0.59997: L2-Pf-HR :0.69391: L2-HR :0.79138: (Sim:0h55m42s) 
Finished CPU 3 instr: 27000000 cyc: 45002492 AVG IPC: 0.59997 (Sim time: 0h55m42s)
CPU  2 inst:   29000004 cyc:   46054123 now IPC :1.42318: AVG IPC :0.59911: L2-Pf-HR :0.69349: L2-HR :0.79132: (Sim:0h55m46s) 
Finished CPU 2 instr: 27000005 cyc: 45066386 AVG IPC: 0.59912 (Sim time: 0h55m46s)

ChampSim completed all CPUs

Total Simulation Statistics (not including warmup)

CPU 0 cumulative IPC: 0.60609 instructions: 27314461 cycles: 45066386
Core_0_L1D_total_access 8255733
Core_0_L1D_total_hit 7234455
Core_0_L1D_total_miss 1021278
Core_0_L1D_loads 6841937
Core_0_L1D_load_hit 6284179
Core_0_L1D_load_miss 557758
Core_0_L1D_RFOs 866359
Core_0_L1D_RFO_hit 862019
Core_0_L1D_RFO_miss 4340
Core_0_L1D_prefetches 547437
Core_0_L1D_prefetch_hit 88257
Core_0_L1D_prefetch_miss 459180
Core_0_L1D_writebacks 0
Core_0_L1D_writeback_hit 0
Core_0_L1D_writeback_miss 0

Core_0_L1I_total_access 3722548
Core_0_L1I_total_hit 3717824
Core_0_L1I_total_miss 4724
Core_0_L1I_loads 3722548
Core_0_L1I_load_hit 3717824
Core_0_L1I_load_miss 4724
Core_0_L1I_RFOs 0
Core_0_L1I_RFO_hit 0
Core_0_L1I_RFO_miss 0
Core_0_L1I_prefetches 0
Core_0_L1I_prefetch_hit 0
Core_0_L1I_prefetch_miss 0
Core_0_L1I_writebacks 0
Core_0_L1I_writeback_hit 0
Core_0_L1I_writeback_miss 0

Core_0_L2C_total_access 1327641
Core_0_L2C_total_hit 1053447
Core_0_L2C_total_miss 274194
Core_0_L2C_loads 478863
Core_0_L2C_load_hit 410343
Core_0_L2C_load_miss 68520
Core_0_L2C_RFOs 4109
Core_0_L2C_RFO_hit 295
Core_0_L2C_RFO_miss 3814
Core_0_L2C_prefetches 668067
Core_0_L2C_prefetch_hit 466213
Core_0_L2C_prefetch_miss 201854
Core_0_L2C_writebacks 176602
Core_0_L2C_writeback_hit 176596
Core_0_L2C_writeback_miss 6

[Bingo] PHT Access: 112735
[Bingo] PHT Hit PC+Addr: 57177
[Bingo] PHT Hit PC+Offs: 52201
[Bingo] PHT Miss: 3357
[Bingo] Prefetch PC+Addr: 0
[Bingo] Prefetch PC+Offs: 0
[Bingo] Useful PC+Addr: 0
[Bingo] Useful PC+Offs: 0
[Bingo] Useless PC+Addr: 0
[Bingo] Useless PC+Offs: 0
[Bingo] L1 Prefetch per Region: 10.12085
[Bingo] L2 Prefetch per Region: 0.55536
[Bingo] L3 Prefetch per Region: 0.00000
[Bingo] No Prefetch per Region: 21.32379
[Bingo] Number of Voters Mean: 13.87274
[Bingo] Number of Voters SD: 4.20241
PHT read accesses: 1287592
PHT write accesses: 106791
AT read accesses: 7145654
AT write accesses: 7145680
FT read accesses: 1352826
FT write accesses: 112735
PS read accesses: 681981
PS write accesses: 109378
PHT tag read accesses: 3857822
PHT tag write accesses: 163968
AT tag read accesses: 196936979
AT tag write accesses: 7252471
FT tag read accesses: 85975529
FT tag write accesses: 845394
PS tag read accesses: 126336284
PS tag write accesses: 785949
[Bingo2] PHT Access: 21205
[Bingo2] PHT Hit PC+Addr: 1908
[Bingo2] PHT Hit PC+Offs: 15488
[Bingo2] PHT Miss: 3809
[Bingo2] Prefetch PC+Addr: 0
[Bingo2] Prefetch PC+Offs: 0
[Bingo2] Useful PC+Addr: 0
[Bingo2] Useful PC+Offs: 0
[Bingo2] Useless PC+Addr: 0
[Bingo2] Useless PC+Offs: 0
[Bingo2] L1 Prefetch per Region: 0.00000
[Bingo2] L2 Prefetch per Region: 14.66527
[Bingo2] L3 Prefetch per Region: 0.00000
[Bingo2] No Prefetch per Region: 17.33473
[Bingo2] Number of Voters Mean: 15.00291
[Bingo2] Number of Voters SD: 2.94251
PHT read accesses: 246216
PHT write accesses: 17381
AT read accesses: 469385
AT write accesses: 486730
FT read accesses: 61499
FT write accesses: 21205
PS read accesses: 53339
PS write accesses: 17396
PHT tag read accesses: 829634
PHT tag write accesses: 19289
AT tag read accesses: 26485218
AT tag write accesses: 486894
FT tag read accesses: 19219846
FT tag write accesses: 60785
PS tag read accesses: 8498422
PS tag write accesses: 69363
Core_0_LLC_total_access 428670
Core_0_LLC_total_hit 163234
Core_0_LLC_total_miss 265436
Core_0_LLC_loads 38152
Core_0_LLC_load_hit 1600
Core_0_LLC_load_miss 36552
Core_0_LLC_RFOs 3814
Core_0_LLC_RFO_hit 9
Core_0_LLC_RFO_miss 3805
Core_0_LLC_prefetches 232222
Core_0_LLC_prefetch_hit 12593
Core_0_LLC_prefetch_miss 219629
Core_0_LLC_writebacks 154482
Core_0_LLC_writeback_hit 149032
Core_0_LLC_writeback_miss 5450


CPU 1 cumulative IPC: 0.69590 instructions: 31361686 cycles: 45066386
Core_1_L1D_total_access 9350737
Core_1_L1D_total_hit 8128707
Core_1_L1D_total_miss 1222030
Core_1_L1D_loads 7805699
Core_1_L1D_load_hit 7124382
Core_1_L1D_load_miss 681317
Core_1_L1D_RFOs 897881
Core_1_L1D_RFO_hit 892430
Core_1_L1D_RFO_miss 5451
Core_1_L1D_prefetches 647157
Core_1_L1D_prefetch_hit 111895
Core_1_L1D_prefetch_miss 535262
Core_1_L1D_writebacks 0
Core_1_L1D_writeback_hit 0
Core_1_L1D_writeback_miss 0

Core_1_L1I_total_access 4133333
Core_1_L1I_total_hit 4122976
Core_1_L1I_total_miss 10357
Core_1_L1I_loads 4133333
Core_1_L1I_load_hit 4122976
Core_1_L1I_load_miss 10357
Core_1_L1I_RFOs 0
Core_1_L1I_RFO_hit 0
Core_1_L1I_RFO_miss 0
Core_1_L1I_prefetches 0
Core_1_L1I_prefetch_hit 0
Core_1_L1I_prefetch_miss 0
Core_1_L1I_writebacks 0
Core_1_L1I_writeback_hit 0
Core_1_L1I_writeback_miss 0

Core_1_L2C_total_access 1572329
Core_1_L2C_total_hit 1268396
Core_1_L2C_total_miss 303933
Core_1_L2C_loads 592623
Core_1_L2C_load_hit 515681
Core_1_L2C_load_miss 76942
Core_1_L2C_RFOs 4169
Core_1_L2C_RFO_hit 379
Core_1_L2C_RFO_miss 3790
Core_1_L2C_prefetches 787668
Core_1_L2C_prefetch_hit 564473
Core_1_L2C_prefetch_miss 223195
Core_1_L2C_writebacks 187869
Core_1_L2C_writeback_hit 187863
Core_1_L2C_writeback_miss 6

[Bingo] PHT Access: 137448
[Bingo] PHT Hit PC+Addr: 72266
[Bingo] PHT Hit PC+Offs: 61262
[Bingo] PHT Miss: 3920
[Bingo] Prefetch PC+Addr: 0
[Bingo] Prefetch PC+Offs: 0
[Bingo] Useful PC+Addr: 0
[Bingo] Useful PC+Offs: 0
[Bingo] Useless PC+Addr: 0
[Bingo] Useless PC+Offs: 0
[Bingo] L1 Prefetch per Region: 9.89081
[Bingo] L2 Prefetch per Region: 0.59149
[Bingo] L3 Prefetch per Region: 0.00000
[Bingo] No Prefetch per Region: 21.51770
[Bingo] Number of Voters Mean: 13.86455
[Bingo] Number of Voters SD: 4.14815
PHT read accesses: 1572601
PHT write accesses: 129949
AT read accesses: 8134591
AT write accesses: 8134618
FT read accesses: 1429981
FT write accesses: 137448
PS read accesses: 823482
PS write accesses: 133528
PHT tag read accesses: 4653183
PHT tag write accesses: 202215
AT tag read accesses: 213643662
AT tag write accesses: 8264566
FT tag read accesses: 87594977
FT tag write accesses: 920960
PS tag read accesses: 143125563
PS tag write accesses: 950102
[Bingo2] PHT Access: 25092
[Bingo2] PHT Hit PC+Addr: 2564
[Bingo2] PHT Hit PC+Offs: 18035
[Bingo2] PHT Miss: 4493
[Bingo2] Prefetch PC+Addr: 0
[Bingo2] Prefetch PC+Offs: 0
[Bingo2] Useful PC+Addr: 0
[Bingo2] Useful PC+Offs: 0
[Bingo2] Useless PC+Addr: 0
[Bingo2] Useless PC+Offs: 0
[Bingo2] L1 Prefetch per Region: 0.00000
[Bingo2] L2 Prefetch per Region: 13.67149
[Bingo2] L3 Prefetch per Region: 0.00000
[Bingo2] No Prefetch per Region: 18.32851
[Bingo2] Number of Voters Mean: 14.96501
[Bingo2] Number of Voters SD: 3.01103
PHT read accesses: 287585
PHT write accesses: 20551
AT read accesses: 578799
AT write accesses: 599315
FT read accesses: 72264
FT write accesses: 25092
PS read accesses: 65568
PS write accesses: 20599
PHT tag read accesses: 971814
PHT tag write accesses: 23115
AT tag read accesses: 28460246
AT tag write accesses: 599478
FT tag read accesses: 19486811
FT tag write accesses: 71640
PS tag read accesses: 10446288
PS tag write accesses: 84805
Core_1_LLC_total_access 463367
Core_1_LLC_total_hit 191729
Core_1_LLC_total_miss 271638
Core_1_LLC_loads 50552
Core_1_LLC_load_hit 9547
Core_1_LLC_load_miss 41005
Core_1_LLC_RFOs 3790
Core_1_LLC_RFO_hit 15
Core_1_LLC_RFO_miss 3775
Core_1_LLC_prefetches 249585
Core_1_LLC_prefetch_hit 29764
Core_1_LLC_prefetch_miss 219821
Core_1_LLC_writebacks 159440
Core_1_LLC_writeback_hit 152403
Core_1_LLC_writeback_miss 7037


CPU 2 cumulative IPC: 0.59912 instructions: 27000005 cycles: 45066386
Core_2_L1D_total_access 8158696
Core_2_L1D_total_hit 7157891
Core_2_L1D_total_miss 1000805
Core_2_L1D_loads 6755965
Core_2_L1D_load_hit 6211251
Core_2_L1D_load_miss 544714
Core_2_L1D_RFOs 865465
Core_2_L1D_RFO_hit 861085
Core_2_L1D_RFO_miss 4380
Core_2_L1D_prefetches 537266
Core_2_L1D_prefetch_hit 85555
Core_2_L1D_prefetch_miss 451711
Core_2_L1D_writebacks 0
Core_2_L1D_writeback_hit 0
Core_2_L1D_writeback_miss 0

Core_2_L1I_total_access 3689146
Core_2_L1I_total_hit 3684421
Core_2_L1I_total_miss 4725
Core_2_L1I_loads 3689146
Core_2_L1I_load_hit 3684421
Core_2_L1I_load_miss 4725
Core_2_L1I_RFOs 0
Core_2_L1I_RFO_hit 0
Core_2_L1I_RFO_miss 0
Core_2_L1I_prefetches 0
Core_2_L1I_prefetch_hit 0
Core_2_L1I_prefetch_miss 0
Core_2_L1I_writebacks 0
Core_2_L1I_writeback_hit 0
Core_2_L1I_writeback_miss 0

Core_2_L2C_total_access 1305343
Core_2_L2C_total_hit 1032954
Core_2_L2C_total_miss 272389
Core_2_L2C_loads 467261
Core_2_L2C_load_hit 400279
Core_2_L2C_load_miss 66982
Core_2_L2C_RFOs 4141
Core_2_L2C_RFO_hit 300
Core_2_L2C_RFO_miss 3841
Core_2_L2C_prefetches 657644
Core_2_L2C_prefetch_hit 456084
Core_2_L2C_prefetch_miss 201560
Core_2_L2C_writebacks 176297
Core_2_L2C_writeback_hit 176291
Core_2_L2C_writeback_miss 6

[Bingo] PHT Access: 106014
[Bingo] PHT Hit PC+Addr: 55104
[Bingo] PHT Hit PC+Offs: 48193
[Bingo] PHT Miss: 2717
[Bingo] Prefetch PC+Addr: 0
[Bingo] Prefetch PC+Offs: 0
[Bingo] Useful PC+Addr: 0
[Bingo] Useful PC+Offs: 0
[Bingo] Useless PC+Addr: 0
[Bingo] Useless PC+Offs: 0
[Bingo] L1 Prefetch per Region: 10.12554
[Bingo] L2 Prefetch per Region: 0.56794
[Bingo] L3 Prefetch per Region: 0.00000
[Bingo] No Prefetch per Region: 21.30651
[Bingo] Number of Voters Mean: 13.83435
[Bingo] Number of Voters SD: 5.73044
PHT read accesses: 1209523
PHT write accesses: 100524
AT read accesses: 6357808
AT write accesses: 6357804
FT read accesses: 1331179
FT write accesses: 106014
PS read accesses: 651460
PS write accesses: 103297
PHT tag read accesses: 3602932
PHT tag write accesses: 155628
AT tag read accesses: 181506462
AT tag write accesses: 6458328
FT tag read accesses: 82943238
FT tag write accesses: 824545
PS tag read accesses: 113509823
PS tag write accesses: 749522
[Bingo2] PHT Access: 18282
[Bingo2] PHT Hit PC+Addr: 1572
[Bingo2] PHT Hit PC+Offs: 15084
[Bingo2] PHT Miss: 1626
[Bingo2] Prefetch PC+Addr: 0
[Bingo2] Prefetch PC+Offs: 0
[Bingo2] Useful PC+Addr: 0
[Bingo2] Useful PC+Offs: 0
[Bingo2] Useless PC+Addr: 0
[Bingo2] Useless PC+Offs: 0
[Bingo2] L1 Prefetch per Region: 0.00000
[Bingo2] L2 Prefetch per Region: 14.52774
[Bingo2] L3 Prefetch per Region: 0.00000
[Bingo2] No Prefetch per Region: 17.47226
[Bingo2] Number of Voters Mean: 15.15811
[Bingo2] Number of Voters SD: 4.59473
PHT read accesses: 240995
PHT write accesses: 15322
AT read accesses: 445389
AT write accesses: 460572
FT read accesses: 53562
FT write accesses: 18282
PS read accesses: 50220
PS write accesses: 16656
PHT tag read accesses: 736783
PHT tag write accesses: 16894
AT tag read accesses: 25749777
AT tag write accesses: 460711
FT tag read accesses: 18823286
FT tag write accesses: 52793
PS tag read accesses: 8038678
PS tag write accesses: 65718
Core_2_LLC_total_access 427106
Core_2_LLC_total_hit 163830
Core_2_LLC_total_miss 263276
Core_2_LLC_loads 37104
Core_2_LLC_load_hit 1589
Core_2_LLC_load_miss 35515
Core_2_LLC_RFOs 3841
Core_2_LLC_RFO_hit 7
Core_2_LLC_RFO_miss 3834
Core_2_LLC_prefetches 231438
Core_2_LLC_prefetch_hit 11491
Core_2_LLC_prefetch_miss 219947
Core_2_LLC_writebacks 154723
Core_2_LLC_writeback_hit 150743
Core_2_LLC_writeback_miss 3980


CPU 3 cumulative IPC: 0.60080 instructions: 27075790 cycles: 45066386
Core_3_L1D_total_access 8183493
Core_3_L1D_total_hit 7177773
Core_3_L1D_total_miss 1005720
Core_3_L1D_loads 6777793
Core_3_L1D_load_hit 6230177
Core_3_L1D_load_miss 547616
Core_3_L1D_RFOs 865802
Core_3_L1D_RFO_hit 861442
Core_3_L1D_RFO_miss 4360
Core_3_L1D_prefetches 539898
Core_3_L1D_prefetch_hit 86154
Core_3_L1D_prefetch_miss 453744
Core_3_L1D_writebacks 0
Core_3_L1D_writeback_hit 0
Core_3_L1D_writeback_miss 0

Core_3_L1I_total_access 3696777
Core_3_L1I_total_hit 3692059
Core_3_L1I_total_miss 4718
Core_3_L1I_loads 3696777
Core_3_L1I_load_hit 3692059
Core_3_L1I_load_miss 4718
Core_3_L1I_RFOs 0
Core_3_L1I_RFO_hit 0
Core_3_L1I_RFO_miss 0
Core_3_L1I_prefetches 0
Core_3_L1I_prefetch_hit 0
Core_3_L1I_prefetch_miss 0
Core_3_L1I_writebacks 0
Core_3_L1I_writeback_hit 0
Core_3_L1I_writeback_miss 0

Core_3_L2C_total_access 1311874
Core_3_L2C_total_hit 1038520
Core_3_L2C_total_miss 273354
Core_3_L2C_loads 470046
Core_3_L2C_load_hit 402949
Core_3_L2C_load_miss 67097
Core_3_L2C_RFOs 4150
Core_3_L2C_RFO_hit 292
Core_3_L2C_RFO_miss 3858
Core_3_L2C_prefetches 661323
Core_3_L2C_prefetch_hit 458930
Core_3_L2C_prefetch_miss 202393
Core_3_L2C_writebacks 176355
Core_3_L2C_writeback_hit 176349
Core_3_L2C_writeback_miss 6

[Bingo] PHT Access: 110754
[Bingo] PHT Hit PC+Addr: 55786
[Bingo] PHT Hit PC+Offs: 51591
[Bingo] PHT Miss: 3377
[Bingo] Prefetch PC+Addr: 0
[Bingo] Prefetch PC+Offs: 0
[Bingo] Useful PC+Addr: 0
[Bingo] Useful PC+Offs: 0
[Bingo] Useless PC+Addr: 0
[Bingo] Useless PC+Offs: 0
[Bingo] L1 Prefetch per Region: 10.14598
[Bingo] L2 Prefetch per Region: 0.55310
[Bingo] L3 Prefetch per Region: 0.00000
[Bingo] No Prefetch per Region: 21.30092
[Bingo] Number of Voters Mean: 13.89132
[Bingo] Number of Voters SD: 4.18864
PHT read accesses: 1264468
PHT write accesses: 104961
AT read accesses: 7079296
AT write accesses: 7079326
FT read accesses: 1346755
FT write accesses: 110754
PS read accesses: 671633
PS write accesses: 107377
PHT tag read accesses: 3796628
PHT tag write accesses: 160747
AT tag read accesses: 195808181
AT tag write accesses: 7184284
FT tag read accesses: 85847916
FT tag write accesses: 839390
PS tag read accesses: 125203562
PS tag write accesses: 773787
[Bingo2] PHT Access: 22027
[Bingo2] PHT Hit PC+Addr: 1746
[Bingo2] PHT Hit PC+Offs: 16600
[Bingo2] PHT Miss: 3681
[Bingo2] Prefetch PC+Addr: 0
[Bingo2] Prefetch PC+Offs: 0
[Bingo2] Useful PC+Addr: 0
[Bingo2] Useful PC+Offs: 0
[Bingo2] Useless PC+Addr: 0
[Bingo2] Useless PC+Offs: 0
[Bingo2] L1 Prefetch per Region: 0.00000
[Bingo2] L2 Prefetch per Region: 13.50082
[Bingo2] L3 Prefetch per Region: 0.00000
[Bingo2] No Prefetch per Region: 18.49918
[Bingo2] Number of Voters Mean: 14.72440
[Bingo2] Number of Voters SD: 3.63867
PHT read accesses: 258095
PHT write accesses: 18039
AT read accesses: 460339
AT write accesses: 478035
FT read accesses: 63223
FT write accesses: 22027
PS read accesses: 54264
PS write accesses: 18346
PHT tag read accesses: 868011
PHT tag write accesses: 19785
AT tag read accesses: 26374544
AT tag write accesses: 478506
FT tag read accesses: 19267943
FT tag write accesses: 62900
PS tag read accesses: 8394846
PS tag write accesses: 71295
Core_3_LLC_total_access 427575
Core_3_LLC_total_hit 162203
Core_3_LLC_total_miss 265372
Core_3_LLC_loads 36827
Core_3_LLC_load_hit 1431
Core_3_LLC_load_miss 35396
Core_3_LLC_RFOs 3858
Core_3_LLC_RFO_hit 4
Core_3_LLC_RFO_miss 3854
Core_3_LLC_prefetches 232663
Core_3_LLC_prefetch_hit 11579
Core_3_LLC_prefetch_miss 221084
Core_3_LLC_writebacks 154227
Core_3_LLC_writeback_hit 149189
Core_3_LLC_writeback_miss 5038


[ROI Statistics]
Core_0_instructions 27000001
Core_0_cycles 44812766
Core_0_IPC 0.60251

Core_0_branch_prediction_accuracy 98.38089
Core_0_branch_MPKI 0.52873
Core_0_average_ROB_occupancy_at_mispredict 335.79525

Core_0_L1D_total_access 8160186
Core_0_L1D_total_hit 7159342 L1D_total_Hit Ratio: 0.87735
Core_0_L1D_total_miss 1000844
Core_0_L1D_loads 6757156
Core_0_L1D_load_hit 6212595 L1D_load_Hit Ratio: 0.91941
Core_0_L1D_load_miss 544561
Core_0_L1D_RFOs 865622
Core_0_L1D_RFO_hit 861282 L1D_RFO_Hit Ratio: 0.99499
Core_0_L1D_RFO_miss 4340
Core_0_L1D_prefetches 537408
Core_0_L1D_prefetch_hit 85465 L1D_prefetch_Hit Ratio: 0.15903
Core_0_L1D_prefetch_miss 451943
Core_0_L1D_writebacks 0
Core_0_L1D_writeback_hit 0 L1D_writeback_Hit Ratio: -nan
Core_0_L1D_writeback_miss 0
Core_0_L1D_prefetch_requested 893926
Core_0_L1D_prefetch_issued 893926
Core_0_L1D_prefetch_useful 478200 L1D_Useful Ratio: 0.53494
Core_0_L1D_prefetch_useless 8065
Core_0_L1D_prefetch_late 85181
Core_0_L1D_average_miss_latency 2385521.61473

Core_0_L1I_total_access 3691564
Core_0_L1I_total_hit 3686840 L1I_total_Hit Ratio: 0.99872
Core_0_L1I_total_miss 4724
Core_0_L1I_loads 3691564
Core_0_L1I_load_hit 3686840 L1I_load_Hit Ratio: 0.99872
Core_0_L1I_load_miss 4724
Core_0_L1I_RFOs 0
Core_0_L1I_RFO_hit 0 L1I_RFO_Hit Ratio: -nan
Core_0_L1I_RFO_miss 0
Core_0_L1I_prefetches 0
Core_0_L1I_prefetch_hit 0 L1I_prefetch_Hit Ratio: -nan
Core_0_L1I_prefetch_miss 0
Core_0_L1I_writebacks 0
Core_0_L1I_writeback_hit 0 L1I_writeback_Hit Ratio: -nan
Core_0_L1I_writeback_miss 0
Core_0_L1I_prefetch_requested 0
Core_0_L1I_prefetch_issued 0
Core_0_L1I_prefetch_useful 0 L1I_Useful Ratio: -nan
Core_0_L1I_prefetch_useless 0
Core_0_L1I_prefetch_late 0
Core_0_L1I_average_miss_latency 768.24704

Core_0_L2C_total_access 1305265
Core_0_L2C_total_hit 1032971 L2C_total_Hit Ratio: 0.79139
Core_0_L2C_total_miss 272294
Core_0_L2C_loads 467184
Core_0_L2C_load_hit 398918 L2C_load_Hit Ratio: 0.85388
Core_0_L2C_load_miss 68266
Core_0_L2C_RFOs 4109
Core_0_L2C_RFO_hit 295 L2C_RFO_Hit Ratio: 0.07179
Core_0_L2C_RFO_miss 3814
Core_0_L2C_prefetches 657675
Core_0_L2C_prefetch_hit 457467 L2C_prefetch_Hit Ratio: 0.69558
Core_0_L2C_prefetch_miss 200208
Core_0_L2C_writebacks 176297
Core_0_L2C_writeback_hit 176291 L2C_writeback_Hit Ratio: 0.99997
Core_0_L2C_writeback_miss 6
Core_0_L2C_prefetch_requested 189434
Core_0_L2C_prefetch_issued 189434
Core_0_L2C_prefetch_useful 58426 L2C_Useful Ratio: 0.30842
Core_0_L2C_prefetch_useless 143808
Core_0_L2C_prefetch_late 30448
Core_0_L2C_average_miss_latency 780.22766

Core_0_LLC_total_access 426647
Core_0_LLC_total_hit 163113 LLC_total_Hit Ratio: 0.38231
Core_0_LLC_total_miss 263534
Core_0_LLC_loads 37950
Core_0_LLC_load_hit 1600 LLC_load_Hit Ratio: 0.04216
Core_0_LLC_load_miss 36350
Core_0_LLC_RFOs 3814
Core_0_LLC_RFO_hit 9 LLC_RFO_Hit Ratio: 0.00236
Core_0_LLC_RFO_miss 3805
Core_0_LLC_prefetches 230524
Core_0_LLC_prefetch_hit 12593 LLC_prefetch_Hit Ratio: 0.05463
Core_0_LLC_prefetch_miss 217931
Core_0_LLC_writebacks 154359
Core_0_LLC_writeback_hit 148911 LLC_writeback_Hit Ratio: 0.96471
Core_0_LLC_writeback_miss 5448
Core_0_LLC_prefetch_requested 0
Core_0_LLC_prefetch_issued 0
Core_0_LLC_prefetch_useful 8005 LLC_Useful Ratio: inf
Core_0_LLC_prefetch_useless 731713
Core_0_LLC_prefetch_late 0
Core_0_LLC_average_miss_latency 3070.40492

Core_0_major_page_fault 0
Core_0_minor_page_fault 3176

Core_1_instructions 27000000
Core_1_cycles 41069225
Core_1_IPC 0.65743

Core_1_branch_prediction_accuracy 98.35523
Core_1_branch_MPKI 0.48894
Core_1_average_ROB_occupancy_at_mispredict 324.17478

Core_1_L1D_total_access 8157463
Core_1_L1D_total_hit 7156484 L1D_total_Hit Ratio: 0.87729
Core_1_L1D_total_miss 1000979
Core_1_L1D_loads 6756401
Core_1_L1D_load_hit 6211676 L1D_load_Hit Ratio: 0.91938
Core_1_L1D_load_miss 544725
Core_1_L1D_RFOs 864773
Core_1_L1D_RFO_hit 859470 L1D_RFO_Hit Ratio: 0.99387
Core_1_L1D_RFO_miss 5303
Core_1_L1D_prefetches 536289
Core_1_L1D_prefetch_hit 85338 L1D_prefetch_Hit Ratio: 0.15913
Core_1_L1D_prefetch_miss 450951
Core_1_L1D_writebacks 0
Core_1_L1D_writeback_hit 0 L1D_writeback_Hit Ratio: -nan
Core_1_L1D_writeback_miss 0
Core_1_L1D_prefetch_requested 1066929
Core_1_L1D_prefetch_issued 1066929
Core_1_L1D_prefetch_useful 552197 L1D_Useful Ratio: 0.51756
Core_1_L1D_prefetch_useless 9887
Core_1_L1D_prefetch_late 100698
Core_1_L1D_average_miss_latency 2850623.17074

Core_1_L1I_total_access 3688516
Core_1_L1I_total_hit 3683796 L1I_total_Hit Ratio: 0.99872
Core_1_L1I_total_miss 4720
Core_1_L1I_loads 3688516
Core_1_L1I_load_hit 3683796 L1I_load_Hit Ratio: 0.99872
Core_1_L1I_load_miss 4720
Core_1_L1I_RFOs 0
Core_1_L1I_RFO_hit 0 L1I_RFO_Hit Ratio: -nan
Core_1_L1I_RFO_miss 0
Core_1_L1I_prefetches 0
Core_1_L1I_prefetch_hit 0 L1I_prefetch_Hit Ratio: -nan
Core_1_L1I_prefetch_miss 0
Core_1_L1I_writebacks 0
Core_1_L1I_writeback_hit 0 L1I_writeback_Hit Ratio: -nan
Core_1_L1I_writeback_miss 0
Core_1_L1I_prefetch_requested 0
Core_1_L1I_prefetch_issued 0
Core_1_L1I_prefetch_useful 0 L1I_Useful Ratio: -nan
Core_1_L1I_prefetch_useless 0
Core_1_L1I_prefetch_late 0
Core_1_L1I_average_miss_latency 964.08453

Core_1_L2C_total_access 1306123
Core_1_L2C_total_hit 1033646 L2C_total_Hit Ratio: 0.79138
Core_1_L2C_total_miss 272477
Core_1_L2C_loads 467578
Core_1_L2C_load_hit 399560 L2C_load_Hit Ratio: 0.85453
Core_1_L2C_load_miss 68018
Core_1_L2C_RFOs 4030
Core_1_L2C_RFO_hit 298 L2C_RFO_Hit Ratio: 0.07395
Core_1_L2C_RFO_miss 3732
Core_1_L2C_prefetches 658218
Core_1_L2C_prefetch_hit 457497 L2C_prefetch_Hit Ratio: 0.69505
Core_1_L2C_prefetch_miss 200721
Core_1_L2C_writebacks 176297
Core_1_L2C_writeback_hit 176291 L2C_writeback_Hit Ratio: 0.99997
Core_1_L2C_writeback_miss 6
Core_1_L2C_prefetch_requested 213679
Core_1_L2C_prefetch_issued 213679
Core_1_L2C_prefetch_useful 70412 L2C_Useful Ratio: 0.32952
Core_1_L2C_prefetch_useless 153950
Core_1_L2C_prefetch_late 26511
Core_1_L2C_average_miss_latency 706.67684

Core_1_LLC_total_access 427498
Core_1_LLC_total_hit 186896 LLC_total_Hit Ratio: 0.43719
Core_1_LLC_total_miss 240602
Core_1_LLC_loads 43212
Core_1_LLC_load_hit 9467 LLC_load_Hit Ratio: 0.21908
Core_1_LLC_load_miss 33745
Core_1_LLC_RFOs 3732
Core_1_LLC_RFO_hit 15 LLC_RFO_Hit Ratio: 0.00402
Core_1_LLC_RFO_miss 3717
Core_1_LLC_prefetches 225527
Core_1_LLC_prefetch_hit 29329 LLC_prefetch_Hit Ratio: 0.13005
Core_1_LLC_prefetch_miss 196198
Core_1_LLC_writebacks 155027
Core_1_LLC_writeback_hit 148085 LLC_writeback_Hit Ratio: 0.95522
Core_1_LLC_writeback_miss 6942
Core_1_LLC_prefetch_requested 0
Core_1_LLC_prefetch_issued 0
Core_1_LLC_prefetch_useful 8005 LLC_Useful Ratio: inf
Core_1_LLC_prefetch_useless 731713
Core_1_LLC_prefetch_late 0
Core_1_LLC_average_miss_latency 3363.04806

Core_1_major_page_fault 0
Core_1_minor_page_fault 3318

Core_2_instructions 27000005
Core_2_cycles 45066386
Core_2_IPC 0.59912

Core_2_branch_prediction_accuracy 98.37821
Core_2_branch_MPKI 0.53455
Core_2_average_ROB_occupancy_at_mispredict 336.21811

Core_2_L1D_total_access 8158696
Core_2_L1D_total_hit 7157891 L1D_total_Hit Ratio: 0.87733
Core_2_L1D_total_miss 1000805
Core_2_L1D_loads 6755965
Core_2_L1D_load_hit 6211251 L1D_load_Hit Ratio: 0.91937
Core_2_L1D_load_miss 544714
Core_2_L1D_RFOs 865465
Core_2_L1D_RFO_hit 861085 L1D_RFO_Hit Ratio: 0.99494
Core_2_L1D_RFO_miss 4380
Core_2_L1D_prefetches 537266
Core_2_L1D_prefetch_hit 85555 L1D_prefetch_Hit Ratio: 0.15924
Core_2_L1D_prefetch_miss 451711
Core_2_L1D_writebacks 0
Core_2_L1D_writeback_hit 0 L1D_writeback_Hit Ratio: -nan
Core_2_L1D_writeback_miss 0
Core_2_L1D_prefetch_requested 875306
Core_2_L1D_prefetch_issued 875306
Core_2_L1D_prefetch_useful 470790 L1D_Useful Ratio: 0.53786
Core_2_L1D_prefetch_useless 7840
Core_2_L1D_prefetch_late 83821
Core_2_L1D_average_miss_latency 2330268.44196

Core_2_L1I_total_access 3689146
Core_2_L1I_total_hit 3684421 L1I_total_Hit Ratio: 0.99872
Core_2_L1I_total_miss 4725
Core_2_L1I_loads 3689146
Core_2_L1I_load_hit 3684421 L1I_load_Hit Ratio: 0.99872
Core_2_L1I_load_miss 4725
Core_2_L1I_RFOs 0
Core_2_L1I_RFO_hit 0 L1I_RFO_Hit Ratio: -nan
Core_2_L1I_RFO_miss 0
Core_2_L1I_prefetches 0
Core_2_L1I_prefetch_hit 0 L1I_prefetch_Hit Ratio: -nan
Core_2_L1I_prefetch_miss 0
Core_2_L1I_writebacks 0
Core_2_L1I_writeback_hit 0 L1I_writeback_Hit Ratio: -nan
Core_2_L1I_writeback_miss 0
Core_2_L1I_prefetch_requested 0
Core_2_L1I_prefetch_issued 0
Core_2_L1I_prefetch_useful 0 L1I_Useful Ratio: -nan
Core_2_L1I_prefetch_useless 0
Core_2_L1I_prefetch_late 0
Core_2_L1I_average_miss_latency 703.18243

Core_2_L2C_total_access 1305343
Core_2_L2C_total_hit 1032954 L2C_total_Hit Ratio: 0.79133
Core_2_L2C_total_miss 272389
Core_2_L2C_loads 467261
Core_2_L2C_load_hit 400279 L2C_load_Hit Ratio: 0.85665
Core_2_L2C_load_miss 66982
Core_2_L2C_RFOs 4141
Core_2_L2C_RFO_hit 300 L2C_RFO_Hit Ratio: 0.07245
Core_2_L2C_RFO_miss 3841
Core_2_L2C_prefetches 657644
Core_2_L2C_prefetch_hit 456084 L2C_prefetch_Hit Ratio: 0.69351
Core_2_L2C_prefetch_miss 201560
Core_2_L2C_writebacks 176297
Core_2_L2C_writeback_hit 176291 L2C_writeback_Hit Ratio: 0.99997
Core_2_L2C_writeback_miss 6
Core_2_L2C_prefetch_requested 189009
Core_2_L2C_prefetch_issued 189009
Core_2_L2C_prefetch_useful 58734 L2C_Useful Ratio: 0.31075
Core_2_L2C_prefetch_useless 142845
Core_2_L2C_prefetch_late 29919
Core_2_L2C_average_miss_latency 798.26089

Core_2_LLC_total_access 427106
Core_2_LLC_total_hit 163830 LLC_total_Hit Ratio: 0.38358
Core_2_LLC_total_miss 263276
Core_2_LLC_loads 37104
Core_2_LLC_load_hit 1589 LLC_load_Hit Ratio: 0.04283
Core_2_LLC_load_miss 35515
Core_2_LLC_RFOs 3841
Core_2_LLC_RFO_hit 7 LLC_RFO_Hit Ratio: 0.00182
Core_2_LLC_RFO_miss 3834
Core_2_LLC_prefetches 231438
Core_2_LLC_prefetch_hit 11491 LLC_prefetch_Hit Ratio: 0.04965
Core_2_LLC_prefetch_miss 219947
Core_2_LLC_writebacks 154723
Core_2_LLC_writeback_hit 150743 LLC_writeback_Hit Ratio: 0.97428
Core_2_LLC_writeback_miss 3980
Core_2_LLC_prefetch_requested 0
Core_2_LLC_prefetch_issued 0
Core_2_LLC_prefetch_useful 8005 LLC_Useful Ratio: inf
Core_2_LLC_prefetch_useless 731713
Core_2_LLC_prefetch_late 0
Core_2_LLC_average_miss_latency 3073.41379

Core_2_major_page_fault 0
Core_2_minor_page_fault 3170

Core_3_instructions 27000000
Core_3_cycles 45002492
Core_3_IPC 0.59997

Core_3_branch_prediction_accuracy 98.37888
Core_3_branch_MPKI 0.53313
Core_3_average_ROB_occupancy_at_mispredict 336.13537

Core_3_L1D_total_access 8161492
Core_3_L1D_total_hit 7160698 L1D_total_Hit Ratio: 0.87738
Core_3_L1D_total_miss 1000794
Core_3_L1D_loads 6758084
Core_3_L1D_load_hit 6213832 L1D_load_Hit Ratio: 0.91947
Core_3_L1D_load_miss 544252
Core_3_L1D_RFOs 865615
Core_3_L1D_RFO_hit 861255 L1D_RFO_Hit Ratio: 0.99496
Core_3_L1D_RFO_miss 4360
Core_3_L1D_prefetches 537793
Core_3_L1D_prefetch_hit 85611 L1D_prefetch_Hit Ratio: 0.15919
Core_3_L1D_prefetch_miss 452182
Core_3_L1D_writebacks 0
Core_3_L1D_writeback_hit 0 L1D_writeback_Hit Ratio: -nan
Core_3_L1D_writeback_miss 0
Core_3_L1D_prefetch_requested 879974
Core_3_L1D_prefetch_issued 879974
Core_3_L1D_prefetch_useful 472792 L1D_Useful Ratio: 0.53728
Core_3_L1D_prefetch_useless 7906
Core_3_L1D_prefetch_late 83933
Core_3_L1D_average_miss_latency 2334723.23201

Core_3_L1I_total_access 3689208
Core_3_L1I_total_hit 3684490 L1I_total_Hit Ratio: 0.99872
Core_3_L1I_total_miss 4718
Core_3_L1I_loads 3689208
Core_3_L1I_load_hit 3684490 L1I_load_Hit Ratio: 0.99872
Core_3_L1I_load_miss 4718
Core_3_L1I_RFOs 0
Core_3_L1I_RFO_hit 0 L1I_RFO_Hit Ratio: -nan
Core_3_L1I_RFO_miss 0
Core_3_L1I_prefetches 0
Core_3_L1I_prefetch_hit 0 L1I_prefetch_Hit Ratio: -nan
Core_3_L1I_prefetch_miss 0
Core_3_L1I_writebacks 0
Core_3_L1I_writeback_hit 0 L1I_writeback_Hit Ratio: -nan
Core_3_L1I_writeback_miss 0
Core_3_L1I_prefetch_requested 0
Core_3_L1I_prefetch_issued 0
Core_3_L1I_prefetch_useful 0 L1I_Useful Ratio: -nan
Core_3_L1I_prefetch_useless 0
Core_3_L1I_prefetch_late 0
Core_3_L1I_average_miss_latency 698.82577

Core_3_L2C_total_access 1306338
Core_3_L2C_total_hit 1033816 L2C_total_Hit Ratio: 0.79138
Core_3_L2C_total_miss 272522
Core_3_L2C_loads 467014
Core_3_L2C_load_hit 400030 L2C_load_Hit Ratio: 0.85657
Core_3_L2C_load_miss 66984
Core_3_L2C_RFOs 4150
Core_3_L2C_RFO_hit 292 L2C_RFO_Hit Ratio: 0.07036
Core_3_L2C_RFO_miss 3858
Core_3_L2C_prefetches 658879
Core_3_L2C_prefetch_hit 457205 L2C_prefetch_Hit Ratio: 0.69391
Core_3_L2C_prefetch_miss 201674
Core_3_L2C_writebacks 176295
Core_3_L2C_writeback_hit 176289 L2C_writeback_Hit Ratio: 0.99997
Core_3_L2C_writeback_miss 6
Core_3_L2C_prefetch_requested 190477
Core_3_L2C_prefetch_issued 190477
Core_3_L2C_prefetch_useful 59232 L2C_Useful Ratio: 0.31097
Core_3_L2C_prefetch_useless 143631
Core_3_L2C_prefetch_late 30379
Core_3_L2C_average_miss_latency 797.10518

Core_3_LLC_total_access 426734
Core_3_LLC_total_hit 162194 LLC_total_Hit Ratio: 0.38008
Core_3_LLC_total_miss 264540
Core_3_LLC_loads 36746
Core_3_LLC_load_hit 1431 LLC_load_Hit Ratio: 0.03894
Core_3_LLC_load_miss 35315
Core_3_LLC_RFOs 3858
Core_3_LLC_RFO_hit 4 LLC_RFO_Hit Ratio: 0.00104
Core_3_LLC_RFO_miss 3854
Core_3_LLC_prefetches 231912
Core_3_LLC_prefetch_hit 11579 LLC_prefetch_Hit Ratio: 0.04993
Core_3_LLC_prefetch_miss 220333
Core_3_LLC_writebacks 154218
Core_3_LLC_writeback_hit 149180 LLC_writeback_Hit Ratio: 0.96733
Core_3_LLC_writeback_miss 5038
Core_3_LLC_prefetch_requested 0
Core_3_LLC_prefetch_issued 0
Core_3_LLC_prefetch_useful 8005 LLC_Useful Ratio: inf
Core_3_LLC_prefetch_useless 731713
Core_3_LLC_prefetch_late 0
Core_3_LLC_average_miss_latency 3058.72870

Core_3_major_page_fault 0
Core_3_minor_page_fault 3172

[Bingo] PHT Access: 112735
[Bingo] PHT Hit PC+Addr: 57177
[Bingo] PHT Hit PC+Offs: 52201
[Bingo] PHT Miss: 3357
[Bingo] Prefetch PC+Addr: 0
[Bingo] Prefetch PC+Offs: 0
[Bingo] Useful PC+Addr: 0
[Bingo] Useful PC+Offs: 0
[Bingo] Useless PC+Addr: 0
[Bingo] Useless PC+Offs: 0
[Bingo] L1 Prefetch per Region: 10.12085
[Bingo] L2 Prefetch per Region: 0.55536
[Bingo] L3 Prefetch per Region: 0.00000
[Bingo] No Prefetch per Region: 21.32379
[Bingo] Number of Voters Mean: 13.87274
[Bingo] Number of Voters SD: 4.20241
PHT read accesses: 1287592
PHT write accesses: 106791
AT read accesses: 7145654
AT write accesses: 7145680
FT read accesses: 1352826
FT write accesses: 112735
PS read accesses: 681981
PS write accesses: 109378
PHT tag read accesses: 3857822
PHT tag write accesses: 163968
AT tag read accesses: 196936979
AT tag write accesses: 7252471
FT tag read accesses: 85975529
FT tag write accesses: 845394
PS tag read accesses: 126336284
PS tag write accesses: 785949
[Bingo2] PHT Access: 21205
[Bingo2] PHT Hit PC+Addr: 1908
[Bingo2] PHT Hit PC+Offs: 15488
[Bingo2] PHT Miss: 3809
[Bingo2] Prefetch PC+Addr: 0
[Bingo2] Prefetch PC+Offs: 0
[Bingo2] Useful PC+Addr: 0
[Bingo2] Useful PC+Offs: 0
[Bingo2] Useless PC+Addr: 0
[Bingo2] Useless PC+Offs: 0
[Bingo2] L1 Prefetch per Region: 0.00000
[Bingo2] L2 Prefetch per Region: 14.66527
[Bingo2] L3 Prefetch per Region: 0.00000
[Bingo2] No Prefetch per Region: 17.33473
[Bingo2] Number of Voters Mean: 15.00291
[Bingo2] Number of Voters SD: 2.94251
PHT read accesses: 246216
PHT write accesses: 17381
AT read accesses: 469385
AT write accesses: 486730
FT read accesses: 61499
FT write accesses: 21205
PS read accesses: 53339
PS write accesses: 17396
PHT tag read accesses: 829634
PHT tag write accesses: 19289
AT tag read accesses: 26485218
AT tag write accesses: 486894
FT tag read accesses: 19219846
FT tag write accesses: 60785
PS tag read accesses: 8498422
PS tag write accesses: 69363
[Bingo] PHT Access: 137448
[Bingo] PHT Hit PC+Addr: 72266
[Bingo] PHT Hit PC+Offs: 61262
[Bingo] PHT Miss: 3920
[Bingo] Prefetch PC+Addr: 0
[Bingo] Prefetch PC+Offs: 0
[Bingo] Useful PC+Addr: 0
[Bingo] Useful PC+Offs: 0
[Bingo] Useless PC+Addr: 0
[Bingo] Useless PC+Offs: 0
[Bingo] L1 Prefetch per Region: 9.89081
[Bingo] L2 Prefetch per Region: 0.59149
[Bingo] L3 Prefetch per Region: 0.00000
[Bingo] No Prefetch per Region: 21.51770
[Bingo] Number of Voters Mean: 13.86455
[Bingo] Number of Voters SD: 4.14815
PHT read accesses: 1572601
PHT write accesses: 129949
AT read accesses: 8134591
AT write accesses: 8134618
FT read accesses: 1429981
FT write accesses: 137448
PS read accesses: 823482
PS write accesses: 133528
PHT tag read accesses: 4653183
PHT tag write accesses: 202215
AT tag read accesses: 213643662
AT tag write accesses: 8264566
FT tag read accesses: 87594977
FT tag write accesses: 920960
PS tag read accesses: 143125563
PS tag write accesses: 950102
[Bingo2] PHT Access: 25092
[Bingo2] PHT Hit PC+Addr: 2564
[Bingo2] PHT Hit PC+Offs: 18035
[Bingo2] PHT Miss: 4493
[Bingo2] Prefetch PC+Addr: 0
[Bingo2] Prefetch PC+Offs: 0
[Bingo2] Useful PC+Addr: 0
[Bingo2] Useful PC+Offs: 0
[Bingo2] Useless PC+Addr: 0
[Bingo2] Useless PC+Offs: 0
[Bingo2] L1 Prefetch per Region: 0.00000
[Bingo2] L2 Prefetch per Region: 13.67149
[Bingo2] L3 Prefetch per Region: 0.00000
[Bingo2] No Prefetch per Region: 18.32851
[Bingo2] Number of Voters Mean: 14.96501
[Bingo2] Number of Voters SD: 3.01103
PHT read accesses: 287585
PHT write accesses: 20551
AT read accesses: 578799
AT write accesses: 599315
FT read accesses: 72264
FT write accesses: 25092
PS read accesses: 65568
PS write accesses: 20599
PHT tag read accesses: 971814
PHT tag write accesses: 23115
AT tag read accesses: 28460246
AT tag write accesses: 599478
FT tag read accesses: 19486811
FT tag write accesses: 71640
PS tag read accesses: 10446288
PS tag write accesses: 84805
[Bingo] PHT Access: 106014
[Bingo] PHT Hit PC+Addr: 55104
[Bingo] PHT Hit PC+Offs: 48193
[Bingo] PHT Miss: 2717
[Bingo] Prefetch PC+Addr: 0
[Bingo] Prefetch PC+Offs: 0
[Bingo] Useful PC+Addr: 0
[Bingo] Useful PC+Offs: 0
[Bingo] Useless PC+Addr: 0
[Bingo] Useless PC+Offs: 0
[Bingo] L1 Prefetch per Region: 10.12554
[Bingo] L2 Prefetch per Region: 0.56794
[Bingo] L3 Prefetch per Region: 0.00000
[Bingo] No Prefetch per Region: 21.30651
[Bingo] Number of Voters Mean: 13.83435
[Bingo] Number of Voters SD: 5.73044
PHT read accesses: 1209523
PHT write accesses: 100524
AT read accesses: 6357808
AT write accesses: 6357804
FT read accesses: 1331179
FT write accesses: 106014
PS read accesses: 651460
PS write accesses: 103297
PHT tag read accesses: 3602932
PHT tag write accesses: 155628
AT tag read accesses: 181506462
AT tag write accesses: 6458328
FT tag read accesses: 82943238
FT tag write accesses: 824545
PS tag read accesses: 113509823
PS tag write accesses: 749522
[Bingo2] PHT Access: 18282
[Bingo2] PHT Hit PC+Addr: 1572
[Bingo2] PHT Hit PC+Offs: 15084
[Bingo2] PHT Miss: 1626
[Bingo2] Prefetch PC+Addr: 0
[Bingo2] Prefetch PC+Offs: 0
[Bingo2] Useful PC+Addr: 0
[Bingo2] Useful PC+Offs: 0
[Bingo2] Useless PC+Addr: 0
[Bingo2] Useless PC+Offs: 0
[Bingo2] L1 Prefetch per Region: 0.00000
[Bingo2] L2 Prefetch per Region: 14.52774
[Bingo2] L3 Prefetch per Region: 0.00000
[Bingo2] No Prefetch per Region: 17.47226
[Bingo2] Number of Voters Mean: 15.15811
[Bingo2] Number of Voters SD: 4.59473
PHT read accesses: 240995
PHT write accesses: 15322
AT read accesses: 445389
AT write accesses: 460572
FT read accesses: 53562
FT write accesses: 18282
PS read accesses: 50220
PS write accesses: 16656
PHT tag read accesses: 736783
PHT tag write accesses: 16894
AT tag read accesses: 25749777
AT tag write accesses: 460711
FT tag read accesses: 18823286
FT tag write accesses: 52793
PS tag read accesses: 8038678
PS tag write accesses: 65718
[Bingo] PHT Access: 110754
[Bingo] PHT Hit PC+Addr: 55786
[Bingo] PHT Hit PC+Offs: 51591
[Bingo] PHT Miss: 3377
[Bingo] Prefetch PC+Addr: 0
[Bingo] Prefetch PC+Offs: 0
[Bingo] Useful PC+Addr: 0
[Bingo] Useful PC+Offs: 0
[Bingo] Useless PC+Addr: 0
[Bingo] Useless PC+Offs: 0
[Bingo] L1 Prefetch per Region: 10.14598
[Bingo] L2 Prefetch per Region: 0.55310
[Bingo] L3 Prefetch per Region: 0.00000
[Bingo] No Prefetch per Region: 21.30092
[Bingo] Number of Voters Mean: 13.89132
[Bingo] Number of Voters SD: 4.18864
PHT read accesses: 1264468
PHT write accesses: 104961
AT read accesses: 7079296
AT write accesses: 7079326
FT read accesses: 1346755
FT write accesses: 110754
PS read accesses: 671633
PS write accesses: 107377
PHT tag read accesses: 3796628
PHT tag write accesses: 160747
AT tag read accesses: 195808181
AT tag write accesses: 7184284
FT tag read accesses: 85847916
FT tag write accesses: 839390
PS tag read accesses: 125203562
PS tag write accesses: 773787
[Bingo2] PHT Access: 22027
[Bingo2] PHT Hit PC+Addr: 1746
[Bingo2] PHT Hit PC+Offs: 16600
[Bingo2] PHT Miss: 3681
[Bingo2] Prefetch PC+Addr: 0
[Bingo2] Prefetch PC+Offs: 0
[Bingo2] Useful PC+Addr: 0
[Bingo2] Useful PC+Offs: 0
[Bingo2] Useless PC+Addr: 0
[Bingo2] Useless PC+Offs: 0
[Bingo2] L1 Prefetch per Region: 0.00000
[Bingo2] L2 Prefetch per Region: 13.50082
[Bingo2] L3 Prefetch per Region: 0.00000
[Bingo2] No Prefetch per Region: 18.49918
[Bingo2] Number of Voters Mean: 14.72440
[Bingo2] Number of Voters SD: 3.63867
PHT read accesses: 258095
PHT write accesses: 18039
AT read accesses: 460339
AT write accesses: 478035
FT read accesses: 63223
FT write accesses: 22027
PS read accesses: 54264
PS write accesses: 18346
PHT tag read accesses: 868011
PHT tag write accesses: 19785
AT tag read accesses: 26374544
AT tag write accesses: 478506
FT tag read accesses: 19267943
FT tag write accesses: 62900
PS tag read accesses: 8394846
PS tag write accesses: 71295
Channel_0_RQ_row_buffer_hit 570156
Channel_0_RQ_row_buffer_miss 474036
Channel_0_WQ_row_buffer_hit 194083
Channel_0_WQ_row_buffer_miss 372824
Channel_0_WQ_full 3379
Channel_0_dbus_congested 1309425

avg_congested_cycle 11

EzSearch AVG IPC :0.60251: L2-Pf-HR :0.69558 : L2-HR :0.79347 Uful:0.30842
EzSearch AVG IPC :0.65743: L2-Pf-HR :0.69505 : L2-HR :0.80670 Uful:0.32952
EzSearch AVG IPC :0.59912: L2-Pf-HR :0.69351 : L2-HR :0.79133 Uful:0.31075
EzSearch AVG IPC :0.59997: L2-Pf-HR :0.69391 : L2-HR :0.79163 Uful:0.31097
     > Finished combination: TraceType=770-tot Sim:27000000 Prefetcher=L2bingo_dpc3 L1=bingo_dpc3
