TRACE: [75000000]_FE_[GPT-Neo_1_3B]_[h16]_[s256]_[d128] Warmup: 2000000 NumTraces: 75000000
L1:isb_ideal:L2:isb_ideal
*************************************************
   ChampSim Multicore Out-of-Order Simulator
   Last compiled: Oct 27 2024 16:36:52
*************************************************

trace_0 770-tot_memTraces_v3/memTraces[75000000]_FE_[GPT-Neo_1_3B]_[h16]_[s256]_[d128].champsim.xz
trace_1 770-tot_memTraces_v3/memTraces[75000000]_FE_[GPT-Neo_1_3B]_[h16]_[s256]_[d128].champsim.xz
trace_2 770-tot_memTraces_v3/memTraces[75000000]_FE_[GPT-Neo_1_3B]_[h16]_[s256]_[d128].champsim.xz
trace_3 770-tot_memTraces_v3/memTraces[75000000]_FE_[GPT-Neo_1_3B]_[h16]_[s256]_[d128].champsim.xz
L1D: Ideal ISB Prefetching
Ideal ISB Prefetching
L1D: Ideal ISB Prefetching
Ideal ISB Prefetching
L1D: Ideal ISB Prefetching
Ideal ISB Prefetching
L1D: Ideal ISB Prefetching
Ideal ISB Prefetching
MAIN.cc ln 751 stats print skipped
CPU  1 inst:    1000000 cyc:     499328 now IPC :2.00269: AVG IPC :2.00269: L2-Pf-HR :1.00000: L2-HR :0.78624: (Sim:0h0m41s) 
CPU  0 inst:    1000000 cyc:     499332 now IPC :2.00268: AVG IPC :2.00268: L2-Pf-HR :1.00000: L2-HR :0.77281: (Sim:0h0m41s) 
CPU  2 inst:    1000000 cyc:     499542 now IPC :2.00183: AVG IPC :2.00183: L2-Pf-HR :1.00000: L2-HR :0.77247: (Sim:0h0m41s) 
CPU  3 inst:    1000000 cyc:     499563 now IPC :2.00175: AVG IPC :2.00175: L2-Pf-HR :1.00000: L2-HR :0.76856: (Sim:0h0m41s) 
CPU  1 inst:    2000002 cyc:     984772 now IPC :2.05997: AVG IPC :2.03093: L2-Pf-HR :1.00000: L2-HR :0.83415: (Sim:0h1m28s) 
CPU  0 inst:    2000002 cyc:     984773 now IPC :2.05999: AVG IPC :2.03093: L2-Pf-HR :1.00000: L2-HR :0.82458: (Sim:0h1m28s) 
CPU  2 inst:    2000002 cyc:     984849 now IPC :2.06056: AVG IPC :2.03077: L2-Pf-HR :1.00000: L2-HR :0.82551: (Sim:0h1m28s) 
CPU  3 inst:    2000002 cyc:     984893 now IPC :2.06046: AVG IPC :2.03068: L2-Pf-HR :1.00000: L2-HR :0.82104: (Sim:0h1m28s) 

Warmup complete CPU  0 instructions:    2000283 cycles:     984893 (Simulation time: 0 hr 1 min 28 sec) 
Warmup complete CPU  1 instructions:    2000283 cycles:     984893 (Simulation time: 0 hr 1 min 28 sec) 
Warmup complete CPU  2 instructions:    2000128 cycles:     984893 (Simulation time: 0 hr 1 min 28 sec) 
Warmup complete CPU  3 instructions:    2000002 cycles:     984893 (Simulation time: 0 hr 1 min 28 sec) 

CPU  1 inst:    3000002 cyc:    1717098 now IPC :1.36551: AVG IPC :1.36535: L2-Pf-HR :0.98900: L2-HR :0.81838: (Sim:0h2m17s) 
CPU  2 inst:    3000002 cyc:    1717768 now IPC :1.36441: AVG IPC :1.36432: L2-Pf-HR :0.99582: L2-HR :0.82937: (Sim:0h2m17s) 
CPU  3 inst:    3000002 cyc:    1718072 now IPC :1.36392: AVG IPC :1.36392: L2-Pf-HR :0.99639: L2-HR :0.83276: (Sim:0h2m17s) 
CPU  0 inst:    3000002 cyc:    1719134 now IPC :1.36173: AVG IPC :1.36157: L2-Pf-HR :0.99885: L2-HR :0.84598: (Sim:0h2m17s) 
CPU  1 inst:    4000001 cyc:    2335332 now IPC :1.61751: AVG IPC :1.48079: L2-Pf-HR :0.98741: L2-HR :0.81866: (Sim:0h3m4s) 
CPU  2 inst:    4000001 cyc:    2336577 now IPC :1.61601: AVG IPC :1.47954: L2-Pf-HR :0.99734: L2-HR :0.84310: (Sim:0h3m4s) 
CPU  3 inst:    4000001 cyc:    2337721 now IPC :1.61382: AVG IPC :1.47838: L2-Pf-HR :0.99766: L2-HR :0.84553: (Sim:0h3m4s) 
CPU  0 inst:    4000001 cyc:    2339635 now IPC :1.61160: AVG IPC :1.47609: L2-Pf-HR :0.99918: L2-HR :0.85264: (Sim:0h3m5s) 
CPU  2 inst:    5000003 cyc:    3040537 now IPC :1.42054: AVG IPC :1.45934: L2-Pf-HR :0.99760: L2-HR :0.83672: (Sim:0h3m55s) 
CPU  1 inst:    5000003 cyc:    3042365 now IPC :1.41436: AVG IPC :1.45796: L2-Pf-HR :0.98975: L2-HR :0.82063: (Sim:0h3m55s) 
CPU  3 inst:    5000003 cyc:    3042881 now IPC :1.41812: AVG IPC :1.45773: L2-Pf-HR :0.99833: L2-HR :0.84071: (Sim:0h3m55s) 
CPU  0 inst:    5000003 cyc:    3045893 now IPC :1.41592: AVG IPC :1.45547: L2-Pf-HR :0.99939: L2-HR :0.84544: (Sim:0h3m55s) 
CPU  2 inst:    6000002 cyc:    3663742 now IPC :1.60461: AVG IPC :1.49313: L2-Pf-HR :0.99740: L2-HR :0.83736: (Sim:0h4m41s) 
CPU  1 inst:    6000002 cyc:    3665564 now IPC :1.60462: AVG IPC :1.49206: L2-Pf-HR :0.99141: L2-HR :0.82710: (Sim:0h4m41s) 
CPU  0 inst:    6000002 cyc:    3667486 now IPC :1.60877: AVG IPC :1.49099: L2-Pf-HR :0.99950: L2-HR :0.84700: (Sim:0h4m42s) 
CPU  3 inst:    6000002 cyc:    3669473 now IPC :1.59593: AVG IPC :1.48999: L2-Pf-HR :0.99862: L2-HR :0.84240: (Sim:0h4m42s) 
CPU  2 inst:    7000004 cyc:    4364165 now IPC :1.42771: AVG IPC :1.47957: L2-Pf-HR :0.99779: L2-HR :0.83578: (Sim:0h5m31s) 
CPU  1 inst:    7000004 cyc:    4366054 now IPC :1.42757: AVG IPC :1.47870: L2-Pf-HR :0.99220: L2-HR :0.82790: (Sim:0h5m31s) 
CPU  0 inst:    7000004 cyc:    4367843 now IPC :1.42785: AVG IPC :1.47792: L2-Pf-HR :0.99959: L2-HR :0.84423: (Sim:0h5m32s) 
CPU  3 inst:    7000004 cyc:    4374439 now IPC :1.41851: AVG IPC :1.47512: L2-Pf-HR :0.99889: L2-HR :0.84024: (Sim:0h5m32s) 
CPU  2 inst:    8000003 cyc:    4974763 now IPC :1.63774: AVG IPC :1.50378: L2-Pf-HR :0.99803: L2-HR :0.83894: (Sim:0h6m17s) 
CPU  1 inst:    8000003 cyc:    4979294 now IPC :1.63068: AVG IPC :1.50203: L2-Pf-HR :0.99305: L2-HR :0.83201: (Sim:0h6m18s) 
CPU  0 inst:    8000003 cyc:    4982163 now IPC :1.62781: AVG IPC :1.50095: L2-Pf-HR :0.99964: L2-HR :0.84635: (Sim:0h6m18s) 
CPU  3 inst:    8000003 cyc:    4994575 now IPC :1.61255: AVG IPC :1.49638: L2-Pf-HR :0.99905: L2-HR :0.84334: (Sim:0h6m19s) 
CPU  2 inst:    9000005 cyc:    5693798 now IPC :1.39076: AVG IPC :1.48652: L2-Pf-HR :0.99834: L2-HR :0.83733: (Sim:0h7m8s) 
CPU  1 inst:    9000005 cyc:    5696829 now IPC :1.39366: AVG IPC :1.48553: L2-Pf-HR :0.99278: L2-HR :0.82815: (Sim:0h7m8s) 
CPU  0 inst:    9000005 cyc:    5699681 now IPC :1.39370: AVG IPC :1.48463: L2-Pf-HR :0.99969: L2-HR :0.84330: (Sim:0h7m9s) 
CPU  3 inst:    9000005 cyc:    5719923 now IPC :1.37865: AVG IPC :1.47834: L2-Pf-HR :0.99902: L2-HR :0.84127: (Sim:0h7m10s) 
CPU  2 inst:   10000004 cyc:    6315846 now IPC :1.60759: AVG IPC :1.50065: L2-Pf-HR :0.99850: L2-HR :0.84004: (Sim:0h7m55s) 
CPU  1 inst:   10000004 cyc:    6324058 now IPC :1.59431: AVG IPC :1.49831: L2-Pf-HR :0.99175: L2-HR :0.82649: (Sim:0h7m55s) 
CPU  0 inst:   10000004 cyc:    6324362 now IPC :1.60082: AVG IPC :1.49822: L2-Pf-HR :0.99972: L2-HR :0.84525: (Sim:0h7m55s) 
CPU  3 inst:   10000004 cyc:    6347387 now IPC :1.59372: AVG IPC :1.49184: L2-Pf-HR :0.99910: L2-HR :0.84383: (Sim:0h7m57s) 
CPU  2 inst:   11000000 cyc:    7067514 now IPC :1.33037: AVG IPC :1.47960: L2-Pf-HR :0.99860: L2-HR :0.83910: (Sim:0h8m46s) 
CPU  1 inst:   11000000 cyc:    7086042 now IPC :1.31236: AVG IPC :1.47509: L2-Pf-HR :0.99139: L2-HR :0.82515: (Sim:0h8m47s) 
CPU  0 inst:   11000000 cyc:    7087539 now IPC :1.31031: AVG IPC :1.47472: L2-Pf-HR :0.99975: L2-HR :0.84378: (Sim:0h8m47s) 
CPU  3 inst:   11000000 cyc:    7106361 now IPC :1.31756: AVG IPC :1.47024: L2-Pf-HR :0.99923: L2-HR :0.84270: (Sim:0h8m49s) 
CPU  2 inst:   12000005 cyc:    7732285 now IPC :1.50428: AVG IPC :1.48204: L2-Pf-HR :0.99874: L2-HR :0.84130: (Sim:0h9m34s) 
CPU  1 inst:   12000005 cyc:    7744406 now IPC :1.51892: AVG IPC :1.47936: L2-Pf-HR :0.99211: L2-HR :0.82836: (Sim:0h9m35s) 
CPU  0 inst:   12000005 cyc:    7748191 now IPC :1.51366: AVG IPC :1.47853: L2-Pf-HR :0.99977: L2-HR :0.84517: (Sim:0h9m35s) 
CPU  3 inst:   12000005 cyc:    7767704 now IPC :1.51208: AVG IPC :1.47432: L2-Pf-HR :0.99930: L2-HR :0.84454: (Sim:0h9m37s) 
CPU  2 inst:   13000001 cyc:    8557324 now IPC :1.21206: AVG IPC :1.45262: L2-Pf-HR :0.99887: L2-HR :0.84050: (Sim:0h10m28s) 
CPU  1 inst:   13000001 cyc:    8571721 now IPC :1.20872: AVG IPC :1.44984: L2-Pf-HR :0.99281: L2-HR :0.82866: (Sim:0h10m29s) 
CPU  0 inst:   13000001 cyc:    8578063 now IPC :1.20500: AVG IPC :1.44863: L2-Pf-HR :0.99979: L2-HR :0.84382: (Sim:0h10m29s) 
CPU  3 inst:   13000001 cyc:    8599352 now IPC :1.20243: AVG IPC :1.44462: L2-Pf-HR :0.99936: L2-HR :0.84377: (Sim:0h10m31s) 
CPU  2 inst:   14000000 cyc:    9277549 now IPC :1.38845: AVG IPC :1.44705: L2-Pf-HR :0.99897: L2-HR :0.84285: (Sim:0h11m17s) 
CPU  1 inst:   14000000 cyc:    9290874 now IPC :1.39052: AVG IPC :1.44471: L2-Pf-HR :0.99338: L2-HR :0.83186: (Sim:0h11m18s) 
CPU  0 inst:   14000000 cyc:    9304287 now IPC :1.37698: AVG IPC :1.44238: L2-Pf-HR :0.99981: L2-HR :0.84572: (Sim:0h11m19s) 
CPU  3 inst:   14000000 cyc:    9314715 now IPC :1.39789: AVG IPC :1.44061: L2-Pf-HR :0.99941: L2-HR :0.84587: (Sim:0h11m19s) 
CPU  2 inst:   15000002 cyc:   10212923 now IPC :1.06909: AVG IPC :1.40874: L2-Pf-HR :0.99906: L2-HR :0.84183: (Sim:0h12m14s) 
CPU  1 inst:   15000002 cyc:   10240965 now IPC :1.05253: AVG IPC :1.40445: L2-Pf-HR :0.99394: L2-HR :0.83164: (Sim:0h12m16s) 
CPU  0 inst:   15000002 cyc:   10247857 now IPC :1.05981: AVG IPC :1.40341: L2-Pf-HR :0.99960: L2-HR :0.84364: (Sim:0h12m16s) 
CPU  3 inst:   15000002 cyc:   10262370 now IPC :1.05524: AVG IPC :1.40124: L2-Pf-HR :0.99946: L2-HR :0.84450: (Sim:0h12m17s) 
CPU  2 inst:   16000001 cyc:   10927439 now IPC :1.39955: AVG IPC :1.40808: L2-Pf-HR :0.99913: L2-HR :0.84340: (Sim:0h13m2s) 
CPU  1 inst:   16000001 cyc:   10952443 now IPC :1.40552: AVG IPC :1.40453: L2-Pf-HR :0.99432: L2-HR :0.83382: (Sim:0h13m4s) 
CPU  0 inst:   16000001 cyc:   10967319 now IPC :1.38993: AVG IPC :1.40244: L2-Pf-HR :0.99920: L2-HR :0.84403: (Sim:0h13m5s) 
CPU  3 inst:   16000001 cyc:   10977324 now IPC :1.39869: AVG IPC :1.40106: L2-Pf-HR :0.99950: L2-HR :0.84615: (Sim:0h13m6s) 
CPU  2 inst:   17000003 cyc:   11896224 now IPC :1.03222: AVG IPC :1.37471: L2-Pf-HR :0.99920: L2-HR :0.84313: (Sim:0h14m0s) 
CPU  1 inst:   17000003 cyc:   11944038 now IPC :1.00848: AVG IPC :1.36869: L2-Pf-HR :0.99464: L2-HR :0.83400: (Sim:0h14m3s) 
CPU  3 inst:   17000003 cyc:   11955371 now IPC :1.02245: AVG IPC :1.36731: L2-Pf-HR :0.99954: L2-HR :0.84547: (Sim:0h14m4s) 
CPU  0 inst:   17000003 cyc:   11968807 now IPC :0.99852: AVG IPC :1.36561: L2-Pf-HR :0.99908: L2-HR :0.84280: (Sim:0h14m5s) 
CPU  2 inst:   18000005 cyc:   12663985 now IPC :1.30249: AVG IPC :1.36996: L2-Pf-HR :0.99926: L2-HR :0.84430: (Sim:0h14m50s) 
CPU  1 inst:   18000005 cyc:   12733079 now IPC :1.26736: AVG IPC :1.36189: L2-Pf-HR :0.99477: L2-HR :0.83503: (Sim:0h14m54s) 
CPU  0 inst:   18000005 cyc:   12754329 now IPC :1.27304: AVG IPC :1.35943: L2-Pf-HR :0.99914: L2-HR :0.84356: (Sim:0h14m55s) 
CPU  3 inst:   18000005 cyc:   12759213 now IPC :1.24403: AVG IPC :1.35889: L2-Pf-HR :0.99956: L2-HR :0.84610: (Sim:0h14m56s) 
CPU  2 inst:   19000004 cyc:   13573410 now IPC :1.09959: AVG IPC :1.35043: L2-Pf-HR :0.99932: L2-HR :0.84440: (Sim:0h15m45s) 
CPU  1 inst:   19000004 cyc:   13664190 now IPC :1.07398: AVG IPC :1.34075: L2-Pf-HR :0.99508: L2-HR :0.83502: (Sim:0h15m51s) 
CPU  0 inst:   19000004 cyc:   13686811 now IPC :1.07241: AVG IPC :1.33836: L2-Pf-HR :0.99919: L2-HR :0.84307: (Sim:0h15m53s) 
CPU  3 inst:   19000004 cyc:   13694491 now IPC :1.06920: AVG IPC :1.33757: L2-Pf-HR :0.99959: L2-HR :0.84562: (Sim:0h15m53s) 
CPU  2 inst:   20000002 cyc:   14263700 now IPC :1.44866: AVG IPC :1.35553: L2-Pf-HR :0.99937: L2-HR :0.84589: (Sim:0h16m33s) 
CPU  1 inst:   20000002 cyc:   14357872 now IPC :1.44158: AVG IPC :1.34598: L2-Pf-HR :0.99536: L2-HR :0.83629: (Sim:0h16m40s) 
CPU  0 inst:   20000002 cyc:   14376018 now IPC :1.45094: AVG IPC :1.34415: L2-Pf-HR :0.99924: L2-HR :0.84388: (Sim:0h16m41s) 
CPU  3 inst:   20000002 cyc:   14398867 now IPC :1.41969: AVG IPC :1.34188: L2-Pf-HR :0.99962: L2-HR :0.84624: (Sim:0h16m43s) 
CPU  2 inst:   21000002 cyc:   15157971 now IPC :1.11823: AVG IPC :1.34056: L2-Pf-HR :0.99941: L2-HR :0.84564: (Sim:0h17m28s) 
CPU  1 inst:   21000002 cyc:   15270853 now IPC :1.09531: AVG IPC :1.32996: L2-Pf-HR :0.99565: L2-HR :0.83651: (Sim:0h17m36s) 
CPU  0 inst:   21000002 cyc:   15309478 now IPC :1.07128: AVG IPC :1.32637: L2-Pf-HR :0.99929: L2-HR :0.84369: (Sim:0h17m39s) 
CPU  3 inst:   21000002 cyc:   15318969 now IPC :1.08684: AVG IPC :1.32551: L2-Pf-HR :0.99964: L2-HR :0.84573: (Sim:0h17m40s) 
CPU  2 inst:   22000004 cyc:   15840413 now IPC :1.46533: AVG IPC :1.34629: L2-Pf-HR :0.99946: L2-HR :0.84775: (Sim:0h18m16s) 
CPU  1 inst:   22000004 cyc:   15958434 now IPC :1.45438: AVG IPC :1.33567: L2-Pf-HR :0.99588: L2-HR :0.83814: (Sim:0h18m24s) 
CPU  0 inst:   22000004 cyc:   16019983 now IPC :1.40745: AVG IPC :1.33020: L2-Pf-HR :0.99933: L2-HR :0.84497: (Sim:0h18m28s) 
CPU  3 inst:   22000004 cyc:   16029675 now IPC :1.40705: AVG IPC :1.32936: L2-Pf-HR :0.99966: L2-HR :0.84678: (Sim:0h18m29s) 
CPU  2 inst:   23000000 cyc:   16748422 now IPC :1.10131: AVG IPC :1.33218: L2-Pf-HR :0.99949: L2-HR :0.84701: (Sim:0h19m13s) 
CPU  1 inst:   23000001 cyc:   16881755 now IPC :1.08304: AVG IPC :1.32100: L2-Pf-HR :0.99611: L2-HR :0.83784: (Sim:0h19m21s) 
CPU  3 inst:   23000003 cyc:   16970751 now IPC :1.06261: AVG IPC :1.31366: L2-Pf-HR :0.99968: L2-HR :0.84611: (Sim:0h19m27s) 
CPU  0 inst:   23000001 cyc:   16973929 now IPC :1.04827: AVG IPC :1.31338: L2-Pf-HR :0.99936: L2-HR :0.84432: (Sim:0h19m27s) 
CPU  2 inst:   24000002 cyc:   17467995 now IPC :1.38972: AVG IPC :1.33469: L2-Pf-HR :0.99953: L2-HR :0.84928: (Sim:0h20m1s) 
CPU  1 inst:   24000002 cyc:   17576857 now IPC :1.43864: AVG IPC :1.32593: L2-Pf-HR :0.99637: L2-HR :0.83988: (Sim:0h20m8s) 
CPU  3 inst:   24000002 cyc:   17690130 now IPC :1.39009: AVG IPC :1.31695: L2-Pf-HR :0.99969: L2-HR :0.84730: (Sim:0h20m16s) 
CPU  0 inst:   24000002 cyc:   17695618 now IPC :1.38564: AVG IPC :1.31650: L2-Pf-HR :0.99939: L2-HR :0.84548: (Sim:0h20m17s) 
CPU  2 inst:   25000001 cyc:   18267624 now IPC :1.25058: AVG IPC :1.33080: L2-Pf-HR :0.99955: L2-HR :0.84871: (Sim:0h20m55s) 
CPU  1 inst:   25000001 cyc:   18387193 now IPC :1.23405: AVG IPC :1.32165: L2-Pf-HR :0.99653: L2-HR :0.83969: (Sim:0h21m2s) 
CPU  0 inst:   25000001 cyc:   18572995 now IPC :1.13976: AVG IPC :1.30769: L2-Pf-HR :0.99938: L2-HR :0.84485: (Sim:0h21m13s) 
CPU  3 inst:   25000001 cyc:   18573155 now IPC :1.13247: AVG IPC :1.30769: L2-Pf-HR :0.99970: L2-HR :0.84666: (Sim:0h21m13s) 
CPU  2 inst:   26000004 cyc:   19033688 now IPC :1.30538: AVG IPC :1.32972: L2-Pf-HR :0.99958: L2-HR :0.85058: (Sim:0h21m44s) 
CPU  1 inst:   26000005 cyc:   19109828 now IPC :1.38383: AVG IPC :1.32413: L2-Pf-HR :0.99677: L2-HR :0.84156: (Sim:0h21m50s) 
CPU  0 inst:   26000005 cyc:   19288123 now IPC :1.39836: AVG IPC :1.31123: L2-Pf-HR :0.99925: L2-HR :0.84546: (Sim:0h22m2s) 
CPU  3 inst:   26000005 cyc:   19304166 now IPC :1.36797: AVG IPC :1.31010: L2-Pf-HR :0.99971: L2-HR :0.84745: (Sim:0h22m3s) 
CPU  2 inst:   27000005 cyc:   19873151 now IPC :1.19124: AVG IPC :1.32357: L2-Pf-HR :0.99959: L2-HR :0.84972: (Sim:0h22m40s) 
CPU  1 inst:   27000005 cyc:   19940965 now IPC :1.20317: AVG IPC :1.31882: L2-Pf-HR :0.99687: L2-HR :0.84129: (Sim:0h22m45s) 
CPU  0 inst:   27000005 cyc:   20165699 now IPC :1.13950: AVG IPC :1.30337: L2-Pf-HR :0.99928: L2-HR :0.84503: (Sim:0h22m58s) 
CPU  3 inst:   27000005 cyc:   20179271 now IPC :1.14272: AVG IPC :1.30246: L2-Pf-HR :0.99972: L2-HR :0.84691: (Sim:0h22m59s) 
CPU  2 inst:   28000001 cyc:   20613303 now IPC :1.35107: AVG IPC :1.32460: L2-Pf-HR :0.99962: L2-HR :0.85133: (Sim:0h23m30s) 
CPU  1 inst:   28000001 cyc:   20676400 now IPC :1.35973: AVG IPC :1.32035: L2-Pf-HR :0.99706: L2-HR :0.84309: (Sim:0h23m34s) 
CPU  0 inst:   28000001 cyc:   20844052 now IPC :1.47415: AVG IPC :1.30921: L2-Pf-HR :0.99928: L2-HR :0.84637: (Sim:0h23m46s) 
CPU  3 inst:   28000001 cyc:   20879422 now IPC :1.42826: AVG IPC :1.30689: L2-Pf-HR :0.99974: L2-HR :0.84800: (Sim:0h23m49s) 
CPU  2 inst:   29000000 cyc:   21513770 now IPC :1.11053: AVG IPC :1.31521: L2-Pf-HR :0.99963: L2-HR :0.85033: (Sim:0h24m28s) 
CPU  1 inst:   29000000 cyc:   21543062 now IPC :1.15385: AVG IPC :1.31333: L2-Pf-HR :0.99715: L2-HR :0.84244: (Sim:0h24m30s) 
CPU  0 inst:   29000000 cyc:   21786632 now IPC :1.06092: AVG IPC :1.29795: L2-Pf-HR :0.99931: L2-HR :0.84585: (Sim:0h24m44s) 
CPU  3 inst:   29000000 cyc:   21851776 now IPC :1.02843: AVG IPC :1.29392: L2-Pf-HR :0.99975: L2-HR :0.84727: (Sim:0h24m48s) 
CPU  2 inst:   30000005 cyc:   22289670 now IPC :1.28883: AVG IPC :1.31425: L2-Pf-HR :0.99965: L2-HR :0.85157: (Sim:0h25m19s) 
CPU  1 inst:   30000005 cyc:   22302253 now IPC :1.31720: AVG IPC :1.31347: L2-Pf-HR :0.99731: L2-HR :0.84400: (Sim:0h25m20s) 
CPU  0 inst:   30000005 cyc:   22487574 now IPC :1.42666: AVG IPC :1.30215: L2-Pf-HR :0.99916: L2-HR :0.84691: (Sim:0h25m32s) 
CPU  3 inst:   30000005 cyc:   22537709 now IPC :1.45788: AVG IPC :1.29913: L2-Pf-HR :0.99976: L2-HR :0.84850: (Sim:0h25m36s) 
CPU  2 inst:   31000005 cyc:   22997981 now IPC :1.41181: AVG IPC :1.31739: L2-Pf-HR :0.99966: L2-HR :0.85233: (Sim:0h26m8s) 
CPU  1 inst:   31000003 cyc:   23009887 now IPC :1.41316: AVG IPC :1.31667: L2-Pf-HR :0.99739: L2-HR :0.84490: (Sim:0h26m9s) 
CPU  0 inst:   31000005 cyc:   23247238 now IPC :1.31637: AVG IPC :1.30264: L2-Pf-HR :0.99911: L2-HR :0.84754: (Sim:0h26m22s) 
CPU  3 inst:   31000004 cyc:   23292571 now IPC :1.32474: AVG IPC :1.30000: L2-Pf-HR :0.99977: L2-HR :0.84953: (Sim:0h26m25s) 
CPU  2 inst:   32000001 cyc:   23898780 now IPC :1.11012: AVG IPC :1.30924: L2-Pf-HR :0.99967: L2-HR :0.85170: (Sim:0h27m4s) 
CPU  1 inst:   32000001 cyc:   23907287 now IPC :1.11433: AVG IPC :1.30875: L2-Pf-HR :0.99751: L2-HR :0.84450: (Sim:0h27m5s) 
CPU  0 inst:   32000001 cyc:   24083717 now IPC :1.19548: AVG IPC :1.29876: L2-Pf-HR :0.99914: L2-HR :0.84692: (Sim:0h27m18s) 
CPU  3 inst:   32000001 cyc:   24116505 now IPC :1.21369: AVG IPC :1.29693: L2-Pf-HR :0.99978: L2-HR :0.84903: (Sim:0h27m20s) 
CPU  2 inst:   33000000 cyc:   24567876 now IPC :1.49455: AVG IPC :1.31450: L2-Pf-HR :0.99968: L2-HR :0.85239: (Sim:0h27m52s) 
CPU  1 inst:   33000000 cyc:   24583306 now IPC :1.47925: AVG IPC :1.31364: L2-Pf-HR :0.99756: L2-HR :0.84533: (Sim:0h27m53s) 
CPU  0 inst:   33000000 cyc:   24807908 now IPC :1.38085: AVG IPC :1.30125: L2-Pf-HR :0.99916: L2-HR :0.84777: (Sim:0h28m3s) 
CPU  3 inst:   33000000 cyc:   24840552 now IPC :1.38112: AVG IPC :1.29948: L2-Pf-HR :0.99979: L2-HR :0.84991: (Sim:0h28m4s) 
CPU  2 inst:   34000001 cyc:   36523938 now IPC :0.08364: AVG IPC :0.90041: L2-Pf-HR :0.99965: L2-HR :0.79945: (Sim:0h33m43s) 
CPU  1 inst:   34000001 cyc:   36602036 now IPC :0.08320: AVG IPC :0.89844: L2-Pf-HR :0.99754: L2-HR :0.79290: (Sim:0h33m45s) 
CPU  0 inst:   34000001 cyc:   36817528 now IPC :0.08327: AVG IPC :0.89303: L2-Pf-HR :0.99914: L2-HR :0.79452: (Sim:0h33m51s) 
CPU  3 inst:   34000001 cyc:   36874427 now IPC :0.08310: AVG IPC :0.89162: L2-Pf-HR :0.99976: L2-HR :0.79642: (Sim:0h33m52s) 
CPU  2 inst:   35000001 cyc:   42264010 now IPC :0.17421: AVG IPC :0.79943: L2-Pf-HR :0.99963: L2-HR :0.78835: (Sim:0h36m17s) 
CPU  1 inst:   35000001 cyc:   42358812 now IPC :0.17371: AVG IPC :0.79760: L2-Pf-HR :0.99752: L2-HR :0.78185: (Sim:0h36m19s) 
CPU  0 inst:   35000001 cyc:   42433525 now IPC :0.17806: AVG IPC :0.79616: L2-Pf-HR :0.99910: L2-HR :0.78333: (Sim:0h36m21s) 
CPU  3 inst:   35000001 cyc:   42626963 now IPC :0.17384: AVG IPC :0.79247: L2-Pf-HR :0.99976: L2-HR :0.78519: (Sim:0h36m27s) 
CPU  2 inst:   36000001 cyc:   47997625 now IPC :0.17441: AVG IPC :0.72321: L2-Pf-HR :0.99957: L2-HR :0.77777: (Sim:0h38m51s) 
CPU  0 inst:   36000001 cyc:   48095850 now IPC :0.17661: AVG IPC :0.72169: L2-Pf-HR :0.99908: L2-HR :0.77268: (Sim:0h38m54s) 
CPU  1 inst:   36000001 cyc:   48100912 now IPC :0.17415: AVG IPC :0.72162: L2-Pf-HR :0.99749: L2-HR :0.77133: (Sim:0h38m54s) 
CPU  3 inst:   36000001 cyc:   48375815 now IPC :0.17395: AVG IPC :0.71744: L2-Pf-HR :0.99975: L2-HR :0.77450: (Sim:0h39m1s) 
CPU  2 inst:   37000001 cyc:   53632849 now IPC :0.17746: AVG IPC :0.66479: L2-Pf-HR :0.99953: L2-HR :0.76767: (Sim:0h41m23s) 
CPU  0 inst:   37000001 cyc:   53718331 now IPC :0.17786: AVG IPC :0.66371: L2-Pf-HR :0.99904: L2-HR :0.76252: (Sim:0h41m25s) 
CPU  1 inst:   37000001 cyc:   53725211 now IPC :0.17780: AVG IPC :0.66362: L2-Pf-HR :0.99747: L2-HR :0.76128: (Sim:0h41m25s) 
CPU  3 inst:   37000001 cyc:   54006688 now IPC :0.17759: AVG IPC :0.66011: L2-Pf-HR :0.99969: L2-HR :0.76430: (Sim:0h41m33s) 
CPU  2 inst:   38000001 cyc:   59061781 now IPC :0.18420: AVG IPC :0.61987: L2-Pf-HR :0.99949: L2-HR :0.75802: (Sim:0h43m50s) 
CPU  0 inst:   38000001 cyc:   59141157 now IPC :0.18441: AVG IPC :0.61902: L2-Pf-HR :0.99898: L2-HR :0.75282: (Sim:0h43m52s) 
CPU  1 inst:   38000001 cyc:   59158736 now IPC :0.18404: AVG IPC :0.61883: L2-Pf-HR :0.99745: L2-HR :0.75169: (Sim:0h43m52s) 
CPU  3 inst:   38000001 cyc:   59433575 now IPC :0.18427: AVG IPC :0.61592: L2-Pf-HR :0.99961: L2-HR :0.75457: (Sim:0h44m0s) 
CPU  2 inst:   39000001 cyc:   64540930 now IPC :0.18251: AVG IPC :0.58216: L2-Pf-HR :0.99934: L2-HR :0.74879: (Sim:0h46m18s) 
CPU  0 inst:   39000001 cyc:   64620287 now IPC :0.18251: AVG IPC :0.58143: L2-Pf-HR :0.99886: L2-HR :0.74355: (Sim:0h46m20s) 
CPU  1 inst:   39000001 cyc:   64634565 now IPC :0.18262: AVG IPC :0.58130: L2-Pf-HR :0.99740: L2-HR :0.74251: (Sim:0h46m21s) 
CPU  3 inst:   39000001 cyc:   64902602 now IPC :0.18285: AVG IPC :0.57887: L2-Pf-HR :0.99950: L2-HR :0.74526: (Sim:0h46m28s) 
CPU  2 inst:   40000001 cyc:   69989087 now IPC :0.18355: AVG IPC :0.55069: L2-Pf-HR :0.99922: L2-HR :0.73996: (Sim:0h48m45s) 
CPU  0 inst:   40000001 cyc:   70086864 now IPC :0.18293: AVG IPC :0.54991: L2-Pf-HR :0.99876: L2-HR :0.73468: (Sim:0h48m48s) 
CPU  1 inst:   40000001 cyc:   70098922 now IPC :0.18300: AVG IPC :0.54981: L2-Pf-HR :0.99725: L2-HR :0.73374: (Sim:0h48m48s) 
CPU  3 inst:   40000001 cyc:   70375277 now IPC :0.18273: AVG IPC :0.54763: L2-Pf-HR :0.99943: L2-HR :0.73636: (Sim:0h48m56s) 
CPU  2 inst:   41000001 cyc:   75444920 now IPC :0.18329: AVG IPC :0.52377: L2-Pf-HR :0.99919: L2-HR :0.73148: (Sim:0h51m12s) 
CPU  0 inst:   41000001 cyc:   75549518 now IPC :0.18306: AVG IPC :0.52303: L2-Pf-HR :0.99867: L2-HR :0.72619: (Sim:0h51m15s) 
CPU  1 inst:   41000001 cyc:   75552575 now IPC :0.18336: AVG IPC :0.52301: L2-Pf-HR :0.99709: L2-HR :0.72533: (Sim:0h51m15s) 
CPU  3 inst:   41000001 cyc:   75845005 now IPC :0.18282: AVG IPC :0.52097: L2-Pf-HR :0.99937: L2-HR :0.72783: (Sim:0h51m23s) 
CPU  2 inst:   42000001 cyc:   81005223 now IPC :0.17985: AVG IPC :0.49987: L2-Pf-HR :0.99906: L2-HR :0.72136: (Sim:0h53m39s) 
CPU  0 inst:   42000001 cyc:   81327777 now IPC :0.17306: AVG IPC :0.49786: L2-Pf-HR :0.99848: L2-HR :0.71604: (Sim:0h53m48s) 
CPU  1 inst:   42000002 cyc:   81378307 now IPC :0.17165: AVG IPC :0.49755: L2-Pf-HR :0.99695: L2-HR :0.71528: (Sim:0h53m50s) 
CPU  3 inst:   42000003 cyc:   82080692 now IPC :0.16037: AVG IPC :0.49324: L2-Pf-HR :0.99931: L2-HR :0.71764: (Sim:0h54m31s) 
CPU  2 inst:   43000001 cyc:   82529379 now IPC :0.65610: AVG IPC :0.50279: L2-Pf-HR :0.99920: L2-HR :0.73243: (Sim:0h55m11s) 
CPU  0 inst:   43000001 cyc:   82662587 now IPC :0.74917: AVG IPC :0.50197: L2-Pf-HR :0.99878: L2-HR :0.72441: (Sim:0h55m23s) 
CPU  1 inst:   43000001 cyc:   82676262 now IPC :0.77044: AVG IPC :0.50189: L2-Pf-HR :0.99756: L2-HR :0.72397: (Sim:0h55m24s) 
CPU  3 inst:   43000001 cyc:   83038055 now IPC :1.04453: AVG IPC :0.49968: L2-Pf-HR :0.99954: L2-HR :0.73422: (Sim:0h56m2s) 
CPU  2 inst:   44000000 cyc:   83203392 now IPC :1.48365: AVG IPC :0.51083: L2-Pf-HR :0.99933: L2-HR :0.74407: (Sim:0h56m16s) 
CPU  0 inst:   44000000 cyc:   83324615 now IPC :1.51051: AVG IPC :0.51008: L2-Pf-HR :0.99897: L2-HR :0.73485: (Sim:0h56m25s) 
CPU  1 inst:   44000000 cyc:   83334596 now IPC :1.51898: AVG IPC :0.51002: L2-Pf-HR :0.99792: L2-HR :0.73413: (Sim:0h56m26s) 
CPU  3 inst:   44000000 cyc:   83789782 now IPC :1.33027: AVG IPC :0.50722: L2-Pf-HR :0.99965: L2-HR :0.75128: (Sim:0h56m55s) 
CPU  2 inst:   45000005 cyc:   84251127 now IPC :0.95444: AVG IPC :0.51641: L2-Pf-HR :0.99935: L2-HR :0.75176: (Sim:0h57m36s) 
CPU  0 inst:   45000005 cyc:   84433259 now IPC :0.90201: AVG IPC :0.51529: L2-Pf-HR :0.99905: L2-HR :0.74033: (Sim:0h57m56s) 
CPU  1 inst:   45000005 cyc:   84445640 now IPC :0.90006: AVG IPC :0.51521: L2-Pf-HR :0.99810: L2-HR :0.73975: (Sim:0h57m57s) 
CPU  3 inst:   45000005 cyc:   84642494 now IPC :1.17273: AVG IPC :0.51400: L2-Pf-HR :0.99971: L2-HR :0.76282: (Sim:0h58m16s) 
CPU  2 inst:   46000004 cyc:   84928974 now IPC :1.47526: AVG IPC :0.52416: L2-Pf-HR :0.99941: L2-HR :0.75837: (Sim:0h58m43s) 
CPU  0 inst:   46000004 cyc:   85137721 now IPC :1.41952: AVG IPC :0.52285: L2-Pf-HR :0.99911: L2-HR :0.74534: (Sim:0h58m59s) 
CPU  1 inst:   46000004 cyc:   85150936 now IPC :1.41784: AVG IPC :0.52277: L2-Pf-HR :0.99822: L2-HR :0.74496: (Sim:0h59m0s) 
CPU  3 inst:   46000004 cyc:   85308932 now IPC :1.50051: AVG IPC :0.52180: L2-Pf-HR :0.99974: L2-HR :0.77224: (Sim:0h59m13s) 
CPU  2 inst:   47000003 cyc:   85888414 now IPC :1.04227: AVG IPC :0.53001: L2-Pf-HR :0.99945: L2-HR :0.76343: (Sim:0h59m57s) 
CPU  0 inst:   47000003 cyc:   86183634 now IPC :0.95610: AVG IPC :0.52817: L2-Pf-HR :0.99915: L2-HR :0.74906: (Sim:1h0m25s) 
CPU  1 inst:   47000003 cyc:   86205589 now IPC :0.94818: AVG IPC :0.52804: L2-Pf-HR :0.99830: L2-HR :0.74883: (Sim:1h0m28s) 
CPU  3 inst:   47000003 cyc:   86283959 now IPC :1.02561: AVG IPC :0.52756: L2-Pf-HR :0.99976: L2-HR :0.77935: (Sim:1h0m35s) 
CPU  2 inst:   48000001 cyc:   86507935 now IPC :1.61415: AVG IPC :0.53787: L2-Pf-HR :0.99948: L2-HR :0.76819: (Sim:1h0m55s) 
CPU  0 inst:   48000001 cyc:   86894406 now IPC :1.40692: AVG IPC :0.53544: L2-Pf-HR :0.99918: L2-HR :0.75249: (Sim:1h1m28s) 
CPU  1 inst:   48000001 cyc:   86912790 now IPC :1.41402: AVG IPC :0.53533: L2-Pf-HR :0.99836: L2-HR :0.75216: (Sim:1h1m29s) 
CPU  3 inst:   48000001 cyc:   86956952 now IPC :1.48590: AVG IPC :0.53506: L2-Pf-HR :0.99978: L2-HR :0.78475: (Sim:1h1m33s) 
CPU  2 inst:   49000002 cyc:   87501846 now IPC :1.00613: AVG IPC :0.54324: L2-Pf-HR :0.99950: L2-HR :0.77212: (Sim:1h2m8s) 
CPU  0 inst:   49000002 cyc:   87966577 now IPC :0.93269: AVG IPC :0.54034: L2-Pf-HR :0.99921: L2-HR :0.75561: (Sim:1h2m54s) 
CPU  1 inst:   49000002 cyc:   87988557 now IPC :0.92957: AVG IPC :0.54020: L2-Pf-HR :0.99840: L2-HR :0.75521: (Sim:1h2m56s) 
CPU  3 inst:   49000002 cyc:   87998595 now IPC :0.96002: AVG IPC :0.54014: L2-Pf-HR :0.99979: L2-HR :0.78856: (Sim:1h2m57s) 
CPU  2 inst:   50000002 cyc:   88161190 now IPC :1.51666: AVG IPC :0.55061: L2-Pf-HR :0.99953: L2-HR :0.77581: (Sim:1h3m17s) 
CPU  0 inst:   50000002 cyc:   88725287 now IPC :1.31803: AVG IPC :0.54707: L2-Pf-HR :0.99923: L2-HR :0.75815: (Sim:1h4m13s) 
CPU  1 inst:   50000002 cyc:   88754282 now IPC :1.30595: AVG IPC :0.54688: L2-Pf-HR :0.99844: L2-HR :0.75792: (Sim:1h4m15s) 
CPU  3 inst:   50000002 cyc:   88755927 now IPC :1.32042: AVG IPC :0.54688: L2-Pf-HR :0.99980: L2-HR :0.79139: (Sim:1h4m15s) 
CPU  2 inst:   51000002 cyc:   88965259 now IPC :1.24367: AVG IPC :0.55694: L2-Pf-HR :0.99943: L2-HR :0.77838: (Sim:1h4m33s) 
CPU  0 inst:   51000002 cyc:   89678023 now IPC :1.04961: AVG IPC :0.55246: L2-Pf-HR :0.99924: L2-HR :0.76047: (Sim:1h5m31s) 
CPU  2 inst:   52000000 cyc:   89711083 now IPC :1.34080: AVG IPC :0.56353: L2-Pf-HR :0.99945: L2-HR :0.78121: (Sim:1h5m34s) 
CPU  3 inst:   51000002 cyc:   89722191 now IPC :1.03491: AVG IPC :0.55219: L2-Pf-HR :0.99980: L2-HR :0.79336: (Sim:1h5m35s) 
CPU  1 inst:   51000002 cyc:   89730027 now IPC :1.02486: AVG IPC :0.55214: L2-Pf-HR :0.99847: L2-HR :0.76032: (Sim:1h5m36s) 
CPU  0 inst:   52000000 cyc:   90305798 now IPC :1.59292: AVG IPC :0.55978: L2-Pf-HR :0.99926: L2-HR :0.76288: (Sim:1h6m29s) 
CPU  3 inst:   52000000 cyc:   90352911 now IPC :1.58549: AVG IPC :0.55948: L2-Pf-HR :0.99980: L2-HR :0.79525: (Sim:1h6m33s) 
CPU  1 inst:   52000000 cyc:   90361848 now IPC :1.58272: AVG IPC :0.55943: L2-Pf-HR :0.99851: L2-HR :0.76271: (Sim:1h6m33s) 
CPU  2 inst:   53000001 cyc:   90474984 now IPC :1.30907: AVG IPC :0.56989: L2-Pf-HR :0.99947: L2-HR :0.78356: (Sim:1h6m43s) 
CPU  2 inst:   54000002 cyc:   91207815 now IPC :1.36457: AVG IPC :0.57635: L2-Pf-HR :0.99948: L2-HR :0.78624: (Sim:1h7m39s) 
CPU  0 inst:   53000001 cyc:   91245021 now IPC :1.06471: AVG IPC :0.56503: L2-Pf-HR :0.99928: L2-HR :0.76513: (Sim:1h7m43s) 
CPU  3 inst:   53000001 cyc:   91307482 now IPC :1.04759: AVG IPC :0.56464: L2-Pf-HR :0.99980: L2-HR :0.79650: (Sim:1h7m50s) 
CPU  1 inst:   53000001 cyc:   91309517 now IPC :1.05522: AVG IPC :0.56463: L2-Pf-HR :0.99852: L2-HR :0.76485: (Sim:1h7m50s) 
CPU  0 inst:   54000002 cyc:   91892940 now IPC :1.54340: AVG IPC :0.57200: L2-Pf-HR :0.99930: L2-HR :0.76757: (Sim:1h8m44s) 
CPU  1 inst:   54000002 cyc:   91917541 now IPC :1.64467: AVG IPC :0.57185: L2-Pf-HR :0.99855: L2-HR :0.76719: (Sim:1h8m46s) 
CPU  3 inst:   54000002 cyc:   91918327 now IPC :1.63708: AVG IPC :0.57185: L2-Pf-HR :0.99980: L2-HR :0.79824: (Sim:1h8m47s) 
CPU  2 inst:   55000001 cyc:   91972397 now IPC :1.30790: AVG IPC :0.58250: L2-Pf-HR :0.99950: L2-HR :0.78813: (Sim:1h8m54s) 
CPU  2 inst:   56000005 cyc:   92631361 now IPC :1.51754: AVG IPC :0.58922: L2-Pf-HR :0.99951: L2-HR :0.79052: (Sim:1h9m43s) 
CPU  0 inst:   55000001 cyc:   92809246 now IPC :1.09134: AVG IPC :0.57719: L2-Pf-HR :0.99932: L2-HR :0.76945: (Sim:1h9m58s) 
CPU  3 inst:   55000001 cyc:   92841288 now IPC :1.08347: AVG IPC :0.57699: L2-Pf-HR :0.99979: L2-HR :0.79894: (Sim:1h10m1s) 
CPU  1 inst:   55000001 cyc:   92847285 now IPC :1.07556: AVG IPC :0.57695: L2-Pf-HR :0.99855: L2-HR :0.76865: (Sim:1h10m1s) 
CPU  2 inst:   57000005 cyc:   93363083 now IPC :1.36664: AVG IPC :0.59538: L2-Pf-HR :0.99952: L2-HR :0.79230: (Sim:1h10m51s) 
CPU  0 inst:   56000005 cyc:   93455422 now IPC :1.54757: AVG IPC :0.58397: L2-Pf-HR :0.99933: L2-HR :0.77164: (Sim:1h10m59s) 
CPU  3 inst:   56000005 cyc:   93474515 now IPC :1.57922: AVG IPC :0.58385: L2-Pf-HR :0.99978: L2-HR :0.80042: (Sim:1h11m1s) 
CPU  1 inst:   56000005 cyc:   93478555 now IPC :1.58411: AVG IPC :0.58382: L2-Pf-HR :0.99858: L2-HR :0.77097: (Sim:1h11m1s) 
CPU  2 inst:   58000000 cyc:   93944911 now IPC :1.71871: AVG IPC :0.60241: L2-Pf-HR :0.99953: L2-HR :0.79442: (Sim:1h11m41s) 
CPU  0 inst:   57000005 cyc:   94351069 now IPC :1.11651: AVG IPC :0.58908: L2-Pf-HR :0.99935: L2-HR :0.77313: (Sim:1h12m13s) 
CPU  3 inst:   57000005 cyc:   94388909 now IPC :1.09362: AVG IPC :0.58884: L2-Pf-HR :0.99978: L2-HR :0.80118: (Sim:1h12m16s) 
CPU  1 inst:   57000005 cyc:   94392859 now IPC :1.09373: AVG IPC :0.58881: L2-Pf-HR :0.99861: L2-HR :0.77255: (Sim:1h12m16s) 
CPU  2 inst:   59000000 cyc:   94732394 now IPC :1.26987: AVG IPC :0.60801: L2-Pf-HR :0.99952: L2-HR :0.79598: (Sim:1h12m52s) 
CPU  0 inst:   58000000 cyc:   95007751 now IPC :1.52280: AVG IPC :0.59560: L2-Pf-HR :0.99936: L2-HR :0.77515: (Sim:1h13m18s) 
CPU  1 inst:   58000000 cyc:   95046893 now IPC :1.52896: AVG IPC :0.59535: L2-Pf-HR :0.99863: L2-HR :0.77439: (Sim:1h13m21s) 
CPU  3 inst:   58000000 cyc:   95056464 now IPC :1.49800: AVG IPC :0.59529: L2-Pf-HR :0.99979: L2-HR :0.80254: (Sim:1h13m22s) 
CPU  2 inst:   60000004 cyc:   95325186 now IPC :1.68694: AVG IPC :0.61479: L2-Pf-HR :0.99952: L2-HR :0.79796: (Sim:1h13m48s) 
CPU  0 inst:   59000000 cyc:   95870969 now IPC :1.15846: AVG IPC :0.60072: L2-Pf-HR :0.99937: L2-HR :0.77665: (Sim:1h14m29s) 
CPU  1 inst:   59000000 cyc:   95904203 now IPC :1.16644: AVG IPC :0.60051: L2-Pf-HR :0.99862: L2-HR :0.77557: (Sim:1h14m32s) 
CPU  3 inst:   59000000 cyc:   95917823 now IPC :1.16096: AVG IPC :0.60042: L2-Pf-HR :0.99975: L2-HR :0.80315: (Sim:1h14m33s) 
CPU  2 inst:   61000004 cyc:   96182195 now IPC :1.16685: AVG IPC :0.61976: L2-Pf-HR :0.99952: L2-HR :0.79924: (Sim:1h14m56s) 
CPU  0 inst:   60000004 cyc:   96542241 now IPC :1.48972: AVG IPC :0.60696: L2-Pf-HR :0.99938: L2-HR :0.77863: (Sim:1h15m30s) 
CPU  3 inst:   60000004 cyc:   96602863 now IPC :1.45977: AVG IPC :0.60658: L2-Pf-HR :0.99975: L2-HR :0.80448: (Sim:1h15m40s) 
CPU  1 inst:   60000004 cyc:   96603382 now IPC :1.43025: AVG IPC :0.60657: L2-Pf-HR :0.99862: L2-HR :0.77740: (Sim:1h15m40s) 
CPU  2 inst:   62000000 cyc:   96768555 now IPC :1.70543: AVG IPC :0.62641: L2-Pf-HR :0.99950: L2-HR :0.80116: (Sim:1h15m54s) 
CPU  0 inst:   61000004 cyc:   97410492 now IPC :1.15174: AVG IPC :0.61187: L2-Pf-HR :0.99939: L2-HR :0.77996: (Sim:1h16m46s) 
CPU  2 inst:   63000002 cyc:   97483570 now IPC :1.39857: AVG IPC :0.63213: L2-Pf-HR :0.99951: L2-HR :0.80304: (Sim:1h16m50s) 
CPU  3 inst:   61000004 cyc:   97532930 now IPC :1.07519: AVG IPC :0.61109: L2-Pf-HR :0.99972: L2-HR :0.80506: (Sim:1h16m56s) 
CPU  1 inst:   61000004 cyc:   97534019 now IPC :1.07453: AVG IPC :0.61108: L2-Pf-HR :0.99864: L2-HR :0.77859: (Sim:1h16m56s) 
CPU  0 inst:   62000000 cyc:   98077288 now IPC :1.49970: AVG IPC :0.61797: L2-Pf-HR :0.99939: L2-HR :0.78191: (Sim:1h17m47s) 
CPU  3 inst:   62000000 cyc:   98177107 now IPC :1.55236: AVG IPC :0.61733: L2-Pf-HR :0.99971: L2-HR :0.80626: (Sim:1h17m56s) 
CPU  1 inst:   62000000 cyc:   98180553 now IPC :1.54670: AVG IPC :0.61731: L2-Pf-HR :0.99862: L2-HR :0.78022: (Sim:1h17m56s) 
CPU  2 inst:   64000001 cyc:   98220363 now IPC :1.35723: AVG IPC :0.63763: L2-Pf-HR :0.99950: L2-HR :0.80400: (Sim:1h17m59s) 
CPU  0 inst:   63000002 cyc:   98731070 now IPC :1.52956: AVG IPC :0.62406: L2-Pf-HR :0.99940: L2-HR :0.78392: (Sim:1h18m46s) 
CPU  2 inst:   65000001 cyc:   98810825 now IPC :1.69359: AVG IPC :0.64400: L2-Pf-HR :0.99951: L2-HR :0.80580: (Sim:1h18m52s) 
CPU  3 inst:   63000002 cyc:   98839284 now IPC :1.51017: AVG IPC :0.62338: L2-Pf-HR :0.99972: L2-HR :0.80760: (Sim:1h18m54s) 
CPU  1 inst:   63000001 cyc:   98845866 now IPC :1.50305: AVG IPC :0.62333: L2-Pf-HR :0.99864: L2-HR :0.78217: (Sim:1h18m55s) 
CPU  0 inst:   64000001 cyc:   99569029 now IPC :1.19337: AVG IPC :0.62890: L2-Pf-HR :0.99939: L2-HR :0.78509: (Sim:1h19m54s) 
CPU  2 inst:   66000005 cyc:   99661536 now IPC :1.17549: AVG IPC :0.64858: L2-Pf-HR :0.99951: L2-HR :0.80647: (Sim:1h20m2s) 
CPU  3 inst:   64000001 cyc:   99673888 now IPC :1.19817: AVG IPC :0.62824: L2-Pf-HR :0.99970: L2-HR :0.80792: (Sim:1h20m3s) 
CPU  1 inst:   64000001 cyc:   99678059 now IPC :1.20164: AVG IPC :0.62821: L2-Pf-HR :0.99863: L2-HR :0.78290: (Sim:1h20m4s) 
CPU  0 inst:   65000001 cyc:  100198827 now IPC :1.58781: AVG IPC :0.63499: L2-Pf-HR :0.99940: L2-HR :0.78715: (Sim:1h20m50s) 
CPU  2 inst:   67000003 cyc:  100245927 now IPC :1.71118: AVG IPC :0.65484: L2-Pf-HR :0.99952: L2-HR :0.80783: (Sim:1h20m54s) 
CPU  3 inst:   65000001 cyc:  100283799 now IPC :1.63958: AVG IPC :0.63445: L2-Pf-HR :0.99970: L2-HR :0.80940: (Sim:1h20m58s) 
CPU  1 inst:   65000001 cyc:  100293682 now IPC :1.62437: AVG IPC :0.63438: L2-Pf-HR :0.99865: L2-HR :0.78484: (Sim:1h20m58s) 
CPU  0 inst:   66000005 cyc:  101143847 now IPC :1.05818: AVG IPC :0.63898: L2-Pf-HR :0.99942: L2-HR :0.78824: (Sim:1h22m10s) 
CPU  2 inst:   68000005 cyc:  101226567 now IPC :1.01974: AVG IPC :0.65841: L2-Pf-HR :0.99952: L2-HR :0.80863: (Sim:1h22m17s) 
CPU  1 inst:   66000005 cyc:  101335540 now IPC :0.95983: AVG IPC :0.63776: L2-Pf-HR :0.99867: L2-HR :0.78561: (Sim:1h22m33s) 
CPU  3 inst:   66000005 cyc:  101342354 now IPC :0.94469: AVG IPC :0.63772: L2-Pf-HR :0.99970: L2-HR :0.80975: (Sim:1h22m33s) 
CPU  0 inst:   67000003 cyc:  101813811 now IPC :1.49261: AVG IPC :0.64465: L2-Pf-HR :0.99943: L2-HR :0.78999: (Sim:1h23m21s) 
CPU  2 inst:   69000003 cyc:  101909492 now IPC :1.46429: AVG IPC :0.66386: L2-Pf-HR :0.99953: L2-HR :0.80955: (Sim:1h23m28s) 
CPU  1 inst:   67000003 cyc:  101986304 now IPC :1.53665: AVG IPC :0.64355: L2-Pf-HR :0.99869: L2-HR :0.78728: (Sim:1h23m34s) 
CPU  3 inst:   67000003 cyc:  101996831 now IPC :1.52793: AVG IPC :0.64349: L2-Pf-HR :0.99970: L2-HR :0.81094: (Sim:1h23m34s) 
CPU  0 inst:   68000005 cyc:  102690338 now IPC :1.14087: AVG IPC :0.64893: L2-Pf-HR :0.99933: L2-HR :0.79130: (Sim:1h24m30s) 
CPU  2 inst:   70000003 cyc:  102924283 now IPC :0.98542: AVG IPC :0.66706: L2-Pf-HR :0.99953: L2-HR :0.81011: (Sim:1h24m58s) 
CPU  3 inst:   68000005 cyc:  102974758 now IPC :1.02257: AVG IPC :0.64712: L2-Pf-HR :0.99970: L2-HR :0.81164: (Sim:1h25m3s) 
CPU  1 inst:   68000005 cyc:  102977757 now IPC :1.00862: AVG IPC :0.64710: L2-Pf-HR :0.99869: L2-HR :0.78838: (Sim:1h25m3s) 
CPU  0 inst:   69000003 cyc:  103274695 now IPC :1.71128: AVG IPC :0.65500: L2-Pf-HR :0.99935: L2-HR :0.79304: (Sim:1h25m37s) 
CPU  2 inst:   71000004 cyc:  103654888 now IPC :1.36873: AVG IPC :0.67205: L2-Pf-HR :0.99953: L2-HR :0.81100: (Sim:1h26m14s) 
CPU  3 inst:   69000003 cyc:  103695278 now IPC :1.38788: AVG IPC :0.65232: L2-Pf-HR :0.99971: L2-HR :0.81249: (Sim:1h26m17s) 
CPU  1 inst:   69000003 cyc:  103715713 now IPC :1.35509: AVG IPC :0.65219: L2-Pf-HR :0.99870: L2-HR :0.78958: (Sim:1h26m19s) 
CPU  0 inst:   70000003 cyc:  104099179 now IPC :1.21288: AVG IPC :0.65946: L2-Pf-HR :0.99936: L2-HR :0.79457: (Sim:1h26m46s) 
CPU  2 inst:   72000004 cyc:  104543952 now IPC :1.12478: AVG IPC :0.67594: L2-Pf-HR :0.99953: L2-HR :0.81153: (Sim:1h27m30s) 
Finished CPU 2 instr: 70000002 cyc: 103559120 AVG IPC: 0.67594 (Sim time: 1h27m30s)
CPU  3 inst:   70000003 cyc:  104550318 now IPC :1.16954: AVG IPC :0.65659: L2-Pf-HR :0.99970: L2-HR :0.81318: (Sim:1h27m30s) 
CPU  1 inst:   70000003 cyc:  104595186 now IPC :1.13704: AVG IPC :0.65630: L2-Pf-HR :0.99871: L2-HR :0.79048: (Sim:1h27m34s) 
CPU  0 inst:   71000004 cyc:  104718066 now IPC :1.61581: AVG IPC :0.66517: L2-Pf-HR :0.99937: L2-HR :0.79634: (Sim:1h27m49s) 
CPU  2 inst:   73000002 cyc:  105190430 now IPC :1.54684: AVG IPC :0.68134: L2-Pf-HR :0.99953: L2-HR :0.81245: (Sim:1h28m36s) 
CPU  3 inst:   71000004 cyc:  105228002 now IPC :1.47562: AVG IPC :0.66191: L2-Pf-HR :0.99970: L2-HR :0.81412: (Sim:1h28m39s) 
CPU  1 inst:   71000004 cyc:  105249233 now IPC :1.52894: AVG IPC :0.66178: L2-Pf-HR :0.99872: L2-HR :0.79166: (Sim:1h28m40s) 
CPU  0 inst:   72000004 cyc:  105441572 now IPC :1.38216: AVG IPC :0.67013: L2-Pf-HR :0.99937: L2-HR :0.79763: (Sim:1h28m57s) 
Finished CPU 0 instr: 70000000 cyc: 104456802 AVG IPC: 0.67013 (Sim time: 1h28m57s)
CPU  2 inst:   74000002 cyc:  106143513 now IPC :1.04923: AVG IPC :0.68468: L2-Pf-HR :0.99953: L2-HR :0.81290: (Sim:1h29m52s) 
CPU  3 inst:   72000004 cyc:  106147410 now IPC :1.08766: AVG IPC :0.66564: L2-Pf-HR :0.99969: L2-HR :0.81473: (Sim:1h29m52s) 
Finished CPU 3 instr: 70000002 cyc: 105162517 AVG IPC: 0.66564 (Sim time: 1h29m52s)
CPU  0 inst:   73000002 cyc:  106172167 now IPC :1.36874: AVG IPC :0.67498: L2-Pf-HR :0.99938: L2-HR :0.79926: (Sim:1h29m54s) 
CPU  1 inst:   72000004 cyc:  106176244 now IPC :1.07874: AVG IPC :0.66545: L2-Pf-HR :0.99865: L2-HR :0.79239: (Sim:1h29m55s) 
Finished CPU 1 instr: 70000000 cyc: 105191474 AVG IPC: 0.66545 (Sim time: 1h29m55s)

ChampSim completed all CPUs

Total Simulation Statistics (not including warmup)

CPU 0 cumulative IPC: 0.67503 instructions: 71007323 cycles: 105191474
Core_0_L1D_total_access 16312810
Core_0_L1D_total_hit 14957854
Core_0_L1D_total_miss 1354956
Core_0_L1D_loads 14752405
Core_0_L1D_load_hit 13475847
Core_0_L1D_load_miss 1276558
Core_0_L1D_RFOs 1543095
Core_0_L1D_RFO_hit 1464697
Core_0_L1D_RFO_miss 78398
Core_0_L1D_prefetches 17310
Core_0_L1D_prefetch_hit 17310
Core_0_L1D_prefetch_miss 0
Core_0_L1D_writebacks 0
Core_0_L1D_writeback_hit 0
Core_0_L1D_writeback_miss 0

Core_0_L1I_total_access 8600984
Core_0_L1I_total_hit 8596146
Core_0_L1I_total_miss 4838
Core_0_L1I_loads 8600984
Core_0_L1I_load_hit 8596146
Core_0_L1I_load_miss 4838
Core_0_L1I_RFOs 0
Core_0_L1I_RFO_hit 0
Core_0_L1I_RFO_miss 0
Core_0_L1I_prefetches 0
Core_0_L1I_prefetch_hit 0
Core_0_L1I_prefetch_miss 0
Core_0_L1I_writebacks 0
Core_0_L1I_writeback_hit 0
Core_0_L1I_writeback_miss 0

Core_0_L2C_total_access 2268925
Core_0_L2C_total_hit 1813491
Core_0_L2C_total_miss 455434
Core_0_L2C_loads 1281396
Core_0_L2C_load_hit 893096
Core_0_L2C_load_miss 388300
Core_0_L2C_RFOs 78397
Core_0_L2C_RFO_hit 11725
Core_0_L2C_RFO_miss 66672
Core_0_L2C_prefetches 541536
Core_0_L2C_prefetch_hit 541202
Core_0_L2C_prefetch_miss 334
Core_0_L2C_writebacks 367596
Core_0_L2C_writeback_hit 367468
Core_0_L2C_writeback_miss 128

CPU 0 L1D next line prefetcher final stats
Prefetcher final stats
Training Unit Size: 4565
Addr table size: 1058219 1058219


Triggers: 1608361
No Prediction: 1060868 65.95957
Stream end: 21407
No translation: 17629572 1096.12034
Predictions: 24725 1.53728


Stream divergence: 6558 0.40774
Stream divergence -- new stream: 0
Core_0_LLC_total_access 684048
Core_0_LLC_total_hit 226178
Core_0_LLC_total_miss 457870
Core_0_LLC_loads 387976
Core_0_LLC_load_hit 3137
Core_0_LLC_load_miss 384839
Core_0_LLC_RFOs 66671
Core_0_LLC_RFO_hit 550
Core_0_LLC_RFO_miss 66121
Core_0_LLC_prefetches 1803
Core_0_LLC_prefetch_hit 1569
Core_0_LLC_prefetch_miss 234
Core_0_LLC_writebacks 227598
Core_0_LLC_writeback_hit 220922
Core_0_LLC_writeback_miss 6676


CPU 1 cumulative IPC: 0.66545 instructions: 70000000 cycles: 105191474
Core_1_L1D_total_access 16108588
Core_1_L1D_total_hit 14769067
Core_1_L1D_total_miss 1339521
Core_1_L1D_loads 14552811
Core_1_L1D_load_hit 13291428
Core_1_L1D_load_miss 1261383
Core_1_L1D_RFOs 1538720
Core_1_L1D_RFO_hit 1460582
Core_1_L1D_RFO_miss 78138
Core_1_L1D_prefetches 17057
Core_1_L1D_prefetch_hit 17057
Core_1_L1D_prefetch_miss 0
Core_1_L1D_writebacks 0
Core_1_L1D_writeback_hit 0
Core_1_L1D_writeback_miss 0

Core_1_L1I_total_access 8492119
Core_1_L1I_total_hit 8487280
Core_1_L1I_total_miss 4839
Core_1_L1I_loads 8492119
Core_1_L1I_load_hit 8487280
Core_1_L1I_load_miss 4839
Core_1_L1I_RFOs 0
Core_1_L1I_RFO_hit 0
Core_1_L1I_RFO_miss 0
Core_1_L1I_prefetches 0
Core_1_L1I_prefetch_hit 0
Core_1_L1I_prefetch_miss 0
Core_1_L1I_writebacks 0
Core_1_L1I_writeback_hit 0
Core_1_L1I_writeback_miss 0

Core_1_L2C_total_access 2204489
Core_1_L2C_total_hit 1746827
Core_1_L2C_total_miss 457662
Core_1_L2C_loads 1266222
Core_1_L2C_load_hit 876409
Core_1_L2C_load_miss 389813
Core_1_L2C_RFOs 78138
Core_1_L2C_RFO_hit 11220
Core_1_L2C_RFO_miss 66918
Core_1_L2C_prefetches 494425
Core_1_L2C_prefetch_hit 493759
Core_1_L2C_prefetch_miss 666
Core_1_L2C_writebacks 365704
Core_1_L2C_writeback_hit 365439
Core_1_L2C_writeback_miss 265

CPU 1 L1D next line prefetcher final stats
Prefetcher final stats
Training Unit Size: 4565
Addr table size: 1058219 1058219


Triggers: 1608361
No Prediction: 1060868 65.95957
Stream end: 21407
No translation: 17629572 1096.12034
Predictions: 24725 1.53728


Stream divergence: 6558 0.40774
Stream divergence -- new stream: 0
Core_1_LLC_total_access 692214
Core_1_LLC_total_hit 238061
Core_1_LLC_total_miss 454153
Core_1_LLC_loads 389073
Core_1_LLC_load_hit 5554
Core_1_LLC_load_miss 383519
Core_1_LLC_RFOs 66918
Core_1_LLC_RFO_hit 796
Core_1_LLC_RFO_miss 66122
Core_1_LLC_prefetches 5043
Core_1_LLC_prefetch_hit 4777
Core_1_LLC_prefetch_miss 266
Core_1_LLC_writebacks 231180
Core_1_LLC_writeback_hit 226934
Core_1_LLC_writeback_miss 4246


CPU 2 cumulative IPC: 0.68510 instructions: 72066401 cycles: 105191474
Core_2_L1D_total_access 16530362
Core_2_L1D_total_hit 15150397
Core_2_L1D_total_miss 1379965
Core_2_L1D_loads 14951110
Core_2_L1D_load_hit 13650084
Core_2_L1D_load_miss 1301026
Core_2_L1D_RFOs 1563051
Core_2_L1D_RFO_hit 1484112
Core_2_L1D_RFO_miss 78939
Core_2_L1D_prefetches 16201
Core_2_L1D_prefetch_hit 16201
Core_2_L1D_prefetch_miss 0
Core_2_L1D_writebacks 0
Core_2_L1D_writeback_hit 0
Core_2_L1D_writeback_miss 0

Core_2_L1I_total_access 8714721
Core_2_L1I_total_hit 8709882
Core_2_L1I_total_miss 4839
Core_2_L1I_loads 8714721
Core_2_L1I_load_hit 8709882
Core_2_L1I_load_miss 4839
Core_2_L1I_RFOs 0
Core_2_L1I_RFO_hit 0
Core_2_L1I_RFO_miss 0
Core_2_L1I_prefetches 0
Core_2_L1I_prefetch_hit 0
Core_2_L1I_prefetch_miss 0
Core_2_L1I_writebacks 0
Core_2_L1I_writeback_hit 0
Core_2_L1I_writeback_miss 0

Core_2_L2C_total_access 2462476
Core_2_L2C_total_hit 2001949
Core_2_L2C_total_miss 460527
Core_2_L2C_loads 1305865
Core_2_L2C_load_hit 912590
Core_2_L2C_load_miss 393275
Core_2_L2C_RFOs 78937
Core_2_L2C_RFO_hit 12022
Core_2_L2C_RFO_miss 66915
Core_2_L2C_prefetches 704007
Core_2_L2C_prefetch_hit 703676
Core_2_L2C_prefetch_miss 331
Core_2_L2C_writebacks 373667
Core_2_L2C_writeback_hit 373661
Core_2_L2C_writeback_miss 6

CPU 2 L1D next line prefetcher final stats
Prefetcher final stats
Training Unit Size: 4565
Addr table size: 1058219 1058219


Triggers: 1608361
No Prediction: 1060868 65.95957
Stream end: 21407
No translation: 17629572 1096.12034
Predictions: 24725 1.53728


Stream divergence: 6558 0.40774
Stream divergence -- new stream: 0
Core_2_LLC_total_access 689871
Core_2_LLC_total_hit 227408
Core_2_LLC_total_miss 462463
Core_2_LLC_loads 393096
Core_2_LLC_load_hit 1639
Core_2_LLC_load_miss 391457
Core_2_LLC_RFOs 66915
Core_2_LLC_RFO_hit 799
Core_2_LLC_RFO_miss 66116
Core_2_LLC_prefetches 1383
Core_2_LLC_prefetch_hit 1186
Core_2_LLC_prefetch_miss 197
Core_2_LLC_writebacks 228477
Core_2_LLC_writeback_hit 223784
Core_2_LLC_writeback_miss 4693


CPU 3 cumulative IPC: 0.66601 instructions: 70058760 cycles: 105191474
Core_3_L1D_total_access 16121054
Core_3_L1D_total_hit 14780758
Core_3_L1D_total_miss 1340296
Core_3_L1D_loads 14564119
Core_3_L1D_load_hit 13301968
Core_3_L1D_load_miss 1262151
Core_3_L1D_RFOs 1538610
Core_3_L1D_RFO_hit 1460465
Core_3_L1D_RFO_miss 78145
Core_3_L1D_prefetches 18325
Core_3_L1D_prefetch_hit 18325
Core_3_L1D_prefetch_miss 0
Core_3_L1D_writebacks 0
Core_3_L1D_writeback_hit 0
Core_3_L1D_writeback_miss 0

Core_3_L1I_total_access 8501060
Core_3_L1I_total_hit 8496222
Core_3_L1I_total_miss 4838
Core_3_L1I_loads 8501060
Core_3_L1I_load_hit 8496222
Core_3_L1I_load_miss 4838
Core_3_L1I_RFOs 0
Core_3_L1I_RFO_hit 0
Core_3_L1I_RFO_miss 0
Core_3_L1I_prefetches 0
Core_3_L1I_prefetch_hit 0
Core_3_L1I_prefetch_miss 0
Core_3_L1I_writebacks 0
Core_3_L1I_writeback_hit 0
Core_3_L1I_writeback_miss 0

Core_3_L2C_total_access 2438127
Core_3_L2C_total_hit 1986615
Core_3_L2C_total_miss 451512
Core_3_L2C_loads 1266989
Core_3_L2C_load_hit 882227
Core_3_L2C_load_miss 384762
Core_3_L2C_RFOs 78142
Core_3_L2C_RFO_hit 11623
Core_3_L2C_RFO_miss 66519
Core_3_L2C_prefetches 727209
Core_3_L2C_prefetch_hit 726983
Core_3_L2C_prefetch_miss 226
Core_3_L2C_writebacks 365787
Core_3_L2C_writeback_hit 365782
Core_3_L2C_writeback_miss 5

CPU 3 L1D next line prefetcher final stats
Prefetcher final stats
Training Unit Size: 4565
Addr table size: 1058219 1058219


Triggers: 1608361
No Prediction: 1060868 65.95957
Stream end: 21407
No translation: 17629572 1096.12034
Predictions: 24725 1.53728


Stream divergence: 6558 0.40774
Stream divergence -- new stream: 0
Core_3_LLC_total_access 679765
Core_3_LLC_total_hit 226915
Core_3_LLC_total_miss 452850
Core_3_LLC_loads 384632
Core_3_LLC_load_hit 1428
Core_3_LLC_load_miss 383204
Core_3_LLC_RFOs 66519
Core_3_LLC_RFO_hit 398
Core_3_LLC_RFO_miss 66121
Core_3_LLC_prefetches 2410
Core_3_LLC_prefetch_hit 2205
Core_3_LLC_prefetch_miss 205
Core_3_LLC_writebacks 226204
Core_3_LLC_writeback_hit 222884
Core_3_LLC_writeback_miss 3320


[ROI Statistics]
Core_0_instructions 70000000
Core_0_cycles 104456802
Core_0_IPC 0.67013

Core_0_branch_prediction_accuracy 97.65154
Core_0_branch_MPKI 0.58535
Core_0_average_ROB_occupancy_at_mispredict 498.15910

Core_0_L1D_total_access 16108773
Core_0_L1D_total_hit 14769256 L1D_total_Hit Ratio: 0.91685
Core_0_L1D_total_miss 1339517
Core_0_L1D_loads 14552786
Core_0_L1D_load_hit 13291396 L1D_load_Hit Ratio: 0.91332
Core_0_L1D_load_miss 1261390
Core_0_L1D_RFOs 1538777
Core_0_L1D_RFO_hit 1460650 L1D_RFO_Hit Ratio: 0.94923
Core_0_L1D_RFO_miss 78127
Core_0_L1D_prefetches 17210
Core_0_L1D_prefetch_hit 17210 L1D_prefetch_Hit Ratio: 1.00000
Core_0_L1D_prefetch_miss 0
Core_0_L1D_writebacks 0
Core_0_L1D_writeback_hit 0 L1D_writeback_Hit Ratio: -nan
Core_0_L1D_writeback_miss 0
Core_0_L1D_prefetch_requested 3214996
Core_0_L1D_prefetch_issued 723125
Core_0_L1D_prefetch_useful 0 L1D_Useful Ratio: 0.00000
Core_0_L1D_prefetch_useless 0
Core_0_L1D_prefetch_late 0
Core_0_L1D_average_miss_latency 257.71803

Core_0_L1I_total_access 8495001
Core_0_L1I_total_hit 8490163 L1I_total_Hit Ratio: 0.99943
Core_0_L1I_total_miss 4838
Core_0_L1I_loads 8495001
Core_0_L1I_load_hit 8490163 L1I_load_Hit Ratio: 0.99943
Core_0_L1I_load_miss 4838
Core_0_L1I_RFOs 0
Core_0_L1I_RFO_hit 0 L1I_RFO_Hit Ratio: -nan
Core_0_L1I_RFO_miss 0
Core_0_L1I_prefetches 0
Core_0_L1I_prefetch_hit 0 L1I_prefetch_Hit Ratio: -nan
Core_0_L1I_prefetch_miss 0
Core_0_L1I_writebacks 0
Core_0_L1I_writeback_hit 0 L1I_writeback_Hit Ratio: -nan
Core_0_L1I_writeback_miss 0
Core_0_L1I_prefetch_requested 0
Core_0_L1I_prefetch_issued 0
Core_0_L1I_prefetch_useful 0 L1I_Useful Ratio: -nan
Core_0_L1I_prefetch_useless 0
Core_0_L1I_prefetch_late 0
Core_0_L1I_average_miss_latency 727.37826

Core_0_L2C_total_access 2239150
Core_0_L2C_total_hit 1786014 L2C_total_Hit Ratio: 0.79763
Core_0_L2C_total_miss 453136
Core_0_L2C_loads 1266228
Core_0_L2C_load_hit 880226 L2C_load_Hit Ratio: 0.69516
Core_0_L2C_load_miss 386002
Core_0_L2C_RFOs 78126
Core_0_L2C_RFO_hit 11454 L2C_RFO_Hit Ratio: 0.14661
Core_0_L2C_RFO_miss 66672
Core_0_L2C_prefetches 529113
Core_0_L2C_prefetch_hit 528779 L2C_prefetch_Hit Ratio: 0.99937
Core_0_L2C_prefetch_miss 334
Core_0_L2C_writebacks 365683
Core_0_L2C_writeback_hit 365555 L2C_writeback_Hit Ratio: 0.99965
Core_0_L2C_writeback_miss 128
Core_0_L2C_prefetch_requested 1066785
Core_0_L2C_prefetch_issued 4269
Core_0_L2C_prefetch_useful 331 L2C_Useful Ratio: 0.07754
Core_0_L2C_prefetch_useless 3
Core_0_L2C_prefetch_late 323
Core_0_L2C_average_miss_latency 723.56919

Core_0_LLC_total_access 681423
Core_0_LLC_total_hit 225851 LLC_total_Hit Ratio: 0.33144
Core_0_LLC_total_miss 455572
Core_0_LLC_loads 385678
Core_0_LLC_load_hit 3137 LLC_load_Hit Ratio: 0.00813
Core_0_LLC_load_miss 382541
Core_0_LLC_RFOs 66671
Core_0_LLC_RFO_hit 550 LLC_RFO_Hit Ratio: 0.00825
Core_0_LLC_RFO_miss 66121
Core_0_LLC_prefetches 1803
Core_0_LLC_prefetch_hit 1569 LLC_prefetch_Hit Ratio: 0.87022
Core_0_LLC_prefetch_miss 234
Core_0_LLC_writebacks 227271
Core_0_LLC_writeback_hit 220595 LLC_writeback_Hit Ratio: 0.97063
Core_0_LLC_writeback_miss 6676
Core_0_LLC_prefetch_requested 0
Core_0_LLC_prefetch_issued 0
Core_0_LLC_prefetch_useful 381 LLC_Useful Ratio: inf
Core_0_LLC_prefetch_useless 481
Core_0_LLC_prefetch_late 25
Core_0_LLC_average_miss_latency 2705.70358

Core_0_major_page_fault 0
Core_0_minor_page_fault 5061

Core_1_instructions 70000000
Core_1_cycles 105191474
Core_1_IPC 0.66545

Core_1_branch_prediction_accuracy 97.65574
Core_1_branch_MPKI 0.58860
Core_1_average_ROB_occupancy_at_mispredict 496.92522

Core_1_L1D_total_access 16108588
Core_1_L1D_total_hit 14769067 L1D_total_Hit Ratio: 0.91684
Core_1_L1D_total_miss 1339521
Core_1_L1D_loads 14552811
Core_1_L1D_load_hit 13291428 L1D_load_Hit Ratio: 0.91332
Core_1_L1D_load_miss 1261383
Core_1_L1D_RFOs 1538720
Core_1_L1D_RFO_hit 1460582 L1D_RFO_Hit Ratio: 0.94922
Core_1_L1D_RFO_miss 78138
Core_1_L1D_prefetches 17057
Core_1_L1D_prefetch_hit 17057 L1D_prefetch_Hit Ratio: 1.00000
Core_1_L1D_prefetch_miss 0
Core_1_L1D_writebacks 0
Core_1_L1D_writeback_hit 0 L1D_writeback_Hit Ratio: -nan
Core_1_L1D_writeback_miss 0
Core_1_L1D_prefetch_requested 3163097
Core_1_L1D_prefetch_issued 665863
Core_1_L1D_prefetch_useful 0 L1D_Useful Ratio: 0.00000
Core_1_L1D_prefetch_useless 0
Core_1_L1D_prefetch_late 0
Core_1_L1D_average_miss_latency 265.67100

Core_1_L1I_total_access 8492119
Core_1_L1I_total_hit 8487280 L1I_total_Hit Ratio: 0.99943
Core_1_L1I_total_miss 4839
Core_1_L1I_loads 8492119
Core_1_L1I_load_hit 8487280 L1I_load_Hit Ratio: 0.99943
Core_1_L1I_load_miss 4839
Core_1_L1I_RFOs 0
Core_1_L1I_RFO_hit 0 L1I_RFO_Hit Ratio: -nan
Core_1_L1I_RFO_miss 0
Core_1_L1I_prefetches 0
Core_1_L1I_prefetch_hit 0 L1I_prefetch_Hit Ratio: -nan
Core_1_L1I_prefetch_miss 0
Core_1_L1I_writebacks 0
Core_1_L1I_writeback_hit 0 L1I_writeback_Hit Ratio: -nan
Core_1_L1I_writeback_miss 0
Core_1_L1I_prefetch_requested 0
Core_1_L1I_prefetch_issued 0
Core_1_L1I_prefetch_useful 0 L1I_Useful Ratio: -nan
Core_1_L1I_prefetch_useless 0
Core_1_L1I_prefetch_late 0
Core_1_L1I_average_miss_latency 794.86898

Core_1_L2C_total_access 2204489
Core_1_L2C_total_hit 1746827 L2C_total_Hit Ratio: 0.79240
Core_1_L2C_total_miss 457662
Core_1_L2C_loads 1266222
Core_1_L2C_load_hit 876409 L2C_load_Hit Ratio: 0.69214
Core_1_L2C_load_miss 389813
Core_1_L2C_RFOs 78138
Core_1_L2C_RFO_hit 11220 L2C_RFO_Hit Ratio: 0.14359
Core_1_L2C_RFO_miss 66918
Core_1_L2C_prefetches 494425
Core_1_L2C_prefetch_hit 493759 L2C_prefetch_Hit Ratio: 0.99865
Core_1_L2C_prefetch_miss 666
Core_1_L2C_writebacks 365704
Core_1_L2C_writeback_hit 365439 L2C_writeback_Hit Ratio: 0.99928
Core_1_L2C_writeback_miss 265
Core_1_L2C_prefetch_requested 1091206
Core_1_L2C_prefetch_issued 11836
Core_1_L2C_prefetch_useful 664 L2C_Useful Ratio: 0.05610
Core_1_L2C_prefetch_useless 2
Core_1_L2C_prefetch_late 740
Core_1_L2C_average_miss_latency 741.00045

Core_1_LLC_total_access 692214
Core_1_LLC_total_hit 238061 LLC_total_Hit Ratio: 0.34391
Core_1_LLC_total_miss 454153
Core_1_LLC_loads 389073
Core_1_LLC_load_hit 5554 LLC_load_Hit Ratio: 0.01427
Core_1_LLC_load_miss 383519
Core_1_LLC_RFOs 66918
Core_1_LLC_RFO_hit 796 LLC_RFO_Hit Ratio: 0.01190
Core_1_LLC_RFO_miss 66122
Core_1_LLC_prefetches 5043
Core_1_LLC_prefetch_hit 4777 LLC_prefetch_Hit Ratio: 0.94725
Core_1_LLC_prefetch_miss 266
Core_1_LLC_writebacks 231180
Core_1_LLC_writeback_hit 226934 LLC_writeback_Hit Ratio: 0.98163
Core_1_LLC_writeback_miss 4246
Core_1_LLC_prefetch_requested 0
Core_1_LLC_prefetch_issued 0
Core_1_LLC_prefetch_useful 381 LLC_Useful Ratio: inf
Core_1_LLC_prefetch_useless 481
Core_1_LLC_prefetch_late 25
Core_1_LLC_average_miss_latency 2714.15754

Core_1_major_page_fault 0
Core_1_minor_page_fault 5060

Core_2_instructions 70000002
Core_2_cycles 103559120
Core_2_IPC 0.67594

Core_2_branch_prediction_accuracy 97.65247
Core_2_branch_MPKI 0.58246
Core_2_average_ROB_occupancy_at_mispredict 499.30003

Core_2_L1D_total_access 16107080
Core_2_L1D_total_hit 14767582 L1D_total_Hit Ratio: 0.91684
Core_2_L1D_total_miss 1339498
Core_2_L1D_loads 14552586
Core_2_L1D_load_hit 13291233 L1D_load_Hit Ratio: 0.91332
Core_2_L1D_load_miss 1261353
Core_2_L1D_RFOs 1538757
Core_2_L1D_RFO_hit 1460612 L1D_RFO_Hit Ratio: 0.94922
Core_2_L1D_RFO_miss 78145
Core_2_L1D_prefetches 15737
Core_2_L1D_prefetch_hit 15737 L1D_prefetch_Hit Ratio: 1.00000
Core_2_L1D_prefetch_miss 0
Core_2_L1D_writebacks 0
Core_2_L1D_writeback_hit 0 L1D_writeback_Hit Ratio: -nan
Core_2_L1D_writeback_miss 0
Core_2_L1D_prefetch_requested 3382653
Core_2_L1D_prefetch_issued 906659
Core_2_L1D_prefetch_useful 0 L1D_Useful Ratio: 0.00000
Core_2_L1D_prefetch_useless 0
Core_2_L1D_prefetch_late 0
Core_2_L1D_average_miss_latency 254.36943

Core_2_L1I_total_access 8493812
Core_2_L1I_total_hit 8488973 L1I_total_Hit Ratio: 0.99943
Core_2_L1I_total_miss 4839
Core_2_L1I_loads 8493812
Core_2_L1I_load_hit 8488973 L1I_load_Hit Ratio: 0.99943
Core_2_L1I_load_miss 4839
Core_2_L1I_RFOs 0
Core_2_L1I_RFO_hit 0 L1I_RFO_Hit Ratio: -nan
Core_2_L1I_RFO_miss 0
Core_2_L1I_prefetches 0
Core_2_L1I_prefetch_hit 0 L1I_prefetch_Hit Ratio: -nan
Core_2_L1I_prefetch_miss 0
Core_2_L1I_writebacks 0
Core_2_L1I_writeback_hit 0 L1I_writeback_Hit Ratio: -nan
Core_2_L1I_writeback_miss 0
Core_2_L1I_prefetch_requested 0
Core_2_L1I_prefetch_issued 0
Core_2_L1I_prefetch_useful 0 L1I_Useful Ratio: -nan
Core_2_L1I_prefetch_useless 0
Core_2_L1I_prefetch_late 0
Core_2_L1I_average_miss_latency 745.70820

Core_2_L2C_total_access 2399669
Core_2_L2C_total_hit 1947411 L2C_total_Hit Ratio: 0.81153
Core_2_L2C_total_miss 452258
Core_2_L2C_loads 1266192
Core_2_L2C_load_hit 881115 L2C_load_Hit Ratio: 0.69588
Core_2_L2C_load_miss 385077
Core_2_L2C_RFOs 78143
Core_2_L2C_RFO_hit 11294 L2C_RFO_Hit Ratio: 0.14453
Core_2_L2C_RFO_miss 66849
Core_2_L2C_prefetches 689637
Core_2_L2C_prefetch_hit 689311 L2C_prefetch_Hit Ratio: 0.99953
Core_2_L2C_prefetch_miss 326
Core_2_L2C_writebacks 365697
Core_2_L2C_writeback_hit 365691 L2C_writeback_Hit Ratio: 0.99998
Core_2_L2C_writeback_miss 6
Core_2_L2C_prefetch_requested 1056941
Core_2_L2C_prefetch_issued 3806
Core_2_L2C_prefetch_useful 329 L2C_Useful Ratio: 0.08644
Core_2_L2C_prefetch_useless 2
Core_2_L2C_prefetch_late 176
Core_2_L2C_average_miss_latency 714.38879

Core_2_LLC_total_access 679703
Core_2_LLC_total_hit 225494 LLC_total_Hit Ratio: 0.33175
Core_2_LLC_total_miss 454209
Core_2_LLC_loads 384898
Core_2_LLC_load_hit 1622 LLC_load_Hit Ratio: 0.00421
Core_2_LLC_load_miss 383276
Core_2_LLC_RFOs 66849
Core_2_LLC_RFO_hit 733 LLC_RFO_Hit Ratio: 0.01097
Core_2_LLC_RFO_miss 66116
Core_2_LLC_prefetches 1361
Core_2_LLC_prefetch_hit 1180 LLC_prefetch_Hit Ratio: 0.86701
Core_2_LLC_prefetch_miss 181
Core_2_LLC_writebacks 226595
Core_2_LLC_writeback_hit 221959 LLC_writeback_Hit Ratio: 0.97954
Core_2_LLC_writeback_miss 4636
Core_2_LLC_prefetch_requested 0
Core_2_LLC_prefetch_issued 0
Core_2_LLC_prefetch_useful 381 LLC_Useful Ratio: inf
Core_2_LLC_prefetch_useless 481
Core_2_LLC_prefetch_late 25
Core_2_LLC_average_miss_latency 2713.82291

Core_2_major_page_fault 0
Core_2_minor_page_fault 5124

Core_3_instructions 70000002
Core_3_cycles 105162517
Core_3_IPC 0.66564

Core_3_branch_prediction_accuracy 97.65543
Core_3_branch_MPKI 0.58842
Core_3_average_ROB_occupancy_at_mispredict 497.14746

Core_3_L1D_total_access 16109309
Core_3_L1D_total_hit 14769797 L1D_total_Hit Ratio: 0.91685
Core_3_L1D_total_miss 1339512
Core_3_L1D_loads 14552507
Core_3_L1D_load_hit 13291140 L1D_load_Hit Ratio: 0.91332
Core_3_L1D_load_miss 1261367
Core_3_L1D_RFOs 1538478
Core_3_L1D_RFO_hit 1460333 L1D_RFO_Hit Ratio: 0.94921
Core_3_L1D_RFO_miss 78145
Core_3_L1D_prefetches 18324
Core_3_L1D_prefetch_hit 18324 L1D_prefetch_Hit Ratio: 1.00000
Core_3_L1D_prefetch_miss 0
Core_3_L1D_writebacks 0
Core_3_L1D_writeback_hit 0 L1D_writeback_Hit Ratio: -nan
Core_3_L1D_writeback_miss 0
Core_3_L1D_prefetch_requested 3314695
Core_3_L1D_prefetch_issued 917673
Core_3_L1D_prefetch_useful 0 L1D_Useful Ratio: 0.00000
Core_3_L1D_prefetch_useless 0
Core_3_L1D_prefetch_late 0
Core_3_L1D_average_miss_latency 261.78393

Core_3_L1I_total_access 8494902
Core_3_L1I_total_hit 8490064 L1I_total_Hit Ratio: 0.99943
Core_3_L1I_total_miss 4838
Core_3_L1I_loads 8494902
Core_3_L1I_load_hit 8490064 L1I_load_Hit Ratio: 0.99943
Core_3_L1I_load_miss 4838
Core_3_L1I_RFOs 0
Core_3_L1I_RFO_hit 0 L1I_RFO_Hit Ratio: -nan
Core_3_L1I_RFO_miss 0
Core_3_L1I_prefetches 0
Core_3_L1I_prefetch_hit 0 L1I_prefetch_Hit Ratio: -nan
Core_3_L1I_prefetch_miss 0
Core_3_L1I_writebacks 0
Core_3_L1I_writeback_hit 0 L1I_writeback_Hit Ratio: -nan
Core_3_L1I_writeback_miss 0
Core_3_L1I_prefetch_requested 0
Core_3_L1I_prefetch_issued 0
Core_3_L1I_prefetch_useful 0 L1I_Useful Ratio: -nan
Core_3_L1I_prefetch_useless 0
Core_3_L1I_prefetch_late 0
Core_3_L1I_average_miss_latency 825.18127

Core_3_L2C_total_access 2436798
Core_3_L2C_total_hit 1985326 L2C_total_Hit Ratio: 0.81473
Core_3_L2C_total_miss 451472
Core_3_L2C_loads 1266205
Core_3_L2C_load_hit 881483 L2C_load_Hit Ratio: 0.69616
Core_3_L2C_load_miss 384722
Core_3_L2C_RFOs 78142
Core_3_L2C_RFO_hit 11623 L2C_RFO_Hit Ratio: 0.14874
Core_3_L2C_RFO_miss 66519
Core_3_L2C_prefetches 726747
Core_3_L2C_prefetch_hit 726521 L2C_prefetch_Hit Ratio: 0.99969
Core_3_L2C_prefetch_miss 226
Core_3_L2C_writebacks 365704
Core_3_L2C_writeback_hit 365699 L2C_writeback_Hit Ratio: 0.99999
Core_3_L2C_writeback_miss 5
Core_3_L2C_prefetch_requested 1044141
Core_3_L2C_prefetch_issued 4814
Core_3_L2C_prefetch_useful 223 L2C_Useful Ratio: 0.04632
Core_3_L2C_prefetch_useless 2
Core_3_L2C_prefetch_late 130
Core_3_L2C_average_miss_latency 739.83145

Core_3_LLC_total_access 679724
Core_3_LLC_total_hit 226914 LLC_total_Hit Ratio: 0.33383
Core_3_LLC_total_miss 452810
Core_3_LLC_loads 384592
Core_3_LLC_load_hit 1428 LLC_load_Hit Ratio: 0.00371
Core_3_LLC_load_miss 383164
Core_3_LLC_RFOs 66519
Core_3_LLC_RFO_hit 398 LLC_RFO_Hit Ratio: 0.00598
Core_3_LLC_RFO_miss 66121
Core_3_LLC_prefetches 2410
Core_3_LLC_prefetch_hit 2205 LLC_prefetch_Hit Ratio: 0.91494
Core_3_LLC_prefetch_miss 205
Core_3_LLC_writebacks 226203
Core_3_LLC_writeback_hit 222883 LLC_writeback_Hit Ratio: 0.98532
Core_3_LLC_writeback_miss 3320
Core_3_LLC_prefetch_requested 0
Core_3_LLC_prefetch_issued 0
Core_3_LLC_prefetch_useful 381 LLC_Useful Ratio: inf
Core_3_LLC_prefetch_useless 481
Core_3_LLC_prefetch_late 25
Core_3_LLC_average_miss_latency 2722.20753

Core_3_major_page_fault 0
Core_3_minor_page_fault 5060

CPU 0 L1D next line prefetcher final stats
Prefetcher final stats
Training Unit Size: 4565
Addr table size: 1058219 1058219


Triggers: 1608361
No Prediction: 1060868 65.95957
Stream end: 21407
No translation: 17629572 1096.12034
Predictions: 24725 1.53728


Stream divergence: 6558 0.40774
Stream divergence -- new stream: 0
CPU 1 L1D next line prefetcher final stats
Prefetcher final stats
Training Unit Size: 4565
Addr table size: 1058219 1058219


Triggers: 1608361
No Prediction: 1060868 65.95957
Stream end: 21407
No translation: 17629572 1096.12034
Predictions: 24725 1.53728


Stream divergence: 6558 0.40774
Stream divergence -- new stream: 0
CPU 2 L1D next line prefetcher final stats
Prefetcher final stats
Training Unit Size: 4565
Addr table size: 1058219 1058219


Triggers: 1608361
No Prediction: 1060868 65.95957
Stream end: 21407
No translation: 17629572 1096.12034
Predictions: 24725 1.53728


Stream divergence: 6558 0.40774
Stream divergence -- new stream: 0
CPU 3 L1D next line prefetcher final stats
Prefetcher final stats
Training Unit Size: 4565
Addr table size: 1058219 1058219


Triggers: 1608361
No Prediction: 1060868 65.95957
Stream end: 21407
No translation: 17629572 1096.12034
Predictions: 24725 1.53728


Stream divergence: 6558 0.40774
Stream divergence -- new stream: 0
Channel_0_RQ_row_buffer_hit 960660
Channel_0_RQ_row_buffer_miss 847740
Channel_0_WQ_row_buffer_hit 386904
Channel_0_WQ_row_buffer_miss 485481
Channel_0_WQ_full 197
Channel_0_dbus_congested 1407352

avg_congested_cycle 10

EzSearch AVG IPC :0.67013: L2-Pf-HR :0.99937 : L2-HR :0.79927 Uful:0.07754
EzSearch AVG IPC :0.66545: L2-Pf-HR :0.99865 : L2-HR :0.79240 Uful:0.05610
EzSearch AVG IPC :0.67594: L2-Pf-HR :0.99953 : L2-HR :0.81298 Uful:0.08644
EzSearch AVG IPC :0.66564: L2-Pf-HR :0.99969 : L2-HR :0.81481 Uful:0.04632
     > Finished combination: TraceType=770-tot Sim:70000000 Prefetcher=L2isb_ideal L1=isb_ideal
