TRACE: [496000000][OPT-125M]_[h12][s1024][d64] Warmup: 2000000 NumTraces: 496000000
L1:next_line:L2:029-SecTOP-L2-MultiMarkovDelta_ip_stride_v4
*************************************************
   ChampSim Multicore Out-of-Order Simulator
   Last compiled: Oct 28 2024 05:58:02
*************************************************

trace_0 770-tot_memTraces_v3/memTraces[496000000][OPT-125M]_[h12][s1024][d64].champsim.xz
trace_1 770-tot_memTraces_v3/memTraces[496000000][OPT-125M]_[h12][s1024][d64].champsim.xz
trace_2 770-tot_memTraces_v3/memTraces[496000000][OPT-125M]_[h12][s1024][d64].champsim.xz
trace_3 770-tot_memTraces_v3/memTraces[496000000][OPT-125M]_[h12][s1024][d64].champsim.xz
CPU 0 L1D next line prefetcher
MK1: Size: 128 TMAX: 64 TMIN: 32 MKPTHRESH: 40
MK2: Size: 256 TMAX: 32 TMIN: 16 MK2PTHRESH: 20
MK3: Size: 384 TMAX: 16 TMIN: 8 MK3PTHRESH: 25
MK4: Size: 512 TMAX: 8 TMIN: 0 MK4PTHRESH: 20
Stride Size: 512 Prefetch Degree: 15

CPU 0 L2C prefetcher
CPU 1 L1D next line prefetcher
MK1: Size: 128 TMAX: 64 TMIN: 32 MKPTHRESH: 40
MK2: Size: 256 TMAX: 32 TMIN: 16 MK2PTHRESH: 20
MK3: Size: 384 TMAX: 16 TMIN: 8 MK3PTHRESH: 25
MK4: Size: 512 TMAX: 8 TMIN: 0 MK4PTHRESH: 20
Stride Size: 512 Prefetch Degree: 15

CPU 1 L2C prefetcher
CPU 2 L1D next line prefetcher
MK1: Size: 128 TMAX: 64 TMIN: 32 MKPTHRESH: 40
MK2: Size: 256 TMAX: 32 TMIN: 16 MK2PTHRESH: 20
MK3: Size: 384 TMAX: 16 TMIN: 8 MK3PTHRESH: 25
MK4: Size: 512 TMAX: 8 TMIN: 0 MK4PTHRESH: 20
Stride Size: 512 Prefetch Degree: 15

CPU 2 L2C prefetcher
CPU 3 L1D next line prefetcher
MK1: Size: 128 TMAX: 64 TMIN: 32 MKPTHRESH: 40
MK2: Size: 256 TMAX: 32 TMIN: 16 MK2PTHRESH: 20
MK3: Size: 384 TMAX: 16 TMIN: 8 MK3PTHRESH: 25
MK4: Size: 512 TMAX: 8 TMIN: 0 MK4PTHRESH: 20
Stride Size: 512 Prefetch Degree: 15

CPU 3 L2C prefetcher
MAIN.cc ln 751 stats print skipped
CPU 0 L2C prefetcher initialized


Cache Size: 1280
number of cache lines: 20480
CPU  1 inst:    1000002 cyc:     502876 now IPC :1.98857: AVG IPC :1.98857: L2-Pf-HR :0.70474: L2-HR :0.69962: (Sim:0h0m48s) 
CPU  3 inst:    1000002 cyc:     503171 now IPC :1.98740: AVG IPC :1.98740: L2-Pf-HR :0.69903: L2-HR :0.69782: (Sim:0h0m48s) 
CPU  0 inst:    1000002 cyc:     503223 now IPC :1.98719: AVG IPC :1.98719: L2-Pf-HR :0.70456: L2-HR :0.69894: (Sim:0h0m48s) 
CPU  2 inst:    1000002 cyc:     503244 now IPC :1.98711: AVG IPC :1.98711: L2-Pf-HR :0.74414: L2-HR :0.72919: (Sim:0h0m48s) 
CPU  1 inst:    2000000 cyc:     987044 now IPC :2.06539: AVG IPC :2.02625: L2-Pf-HR :0.76314: L2-HR :0.75699: (Sim:0h1m40s) 
CPU  3 inst:    2000000 cyc:     987330 now IPC :2.06543: AVG IPC :2.02567: L2-Pf-HR :0.75942: L2-HR :0.75394: (Sim:0h1m40s) 
CPU  0 inst:    2000000 cyc:     987388 now IPC :2.06541: AVG IPC :2.02555: L2-Pf-HR :0.76272: L2-HR :0.75687: (Sim:0h1m40s) 
CPU  2 inst:    2000000 cyc:     987436 now IPC :2.06529: AVG IPC :2.02545: L2-Pf-HR :0.78627: L2-HR :0.77594: (Sim:0h1m40s) 

Warmup complete CPU  0 instructions:    2000140 cycles:     987437 (Simulation time: 0 hr 1 min 40 sec) 
Warmup complete CPU  1 instructions:    2000888 cycles:     987437 (Simulation time: 0 hr 1 min 40 sec) 
Warmup complete CPU  2 instructions:    2000002 cycles:     987437 (Simulation time: 0 hr 1 min 40 sec) 
Warmup complete CPU  3 instructions:    2000281 cycles:     987436 (Simulation time: 0 hr 1 min 40 sec) 

CPU  3 inst:    3000005 cyc:    1499824 now IPC :1.95125: AVG IPC :1.95111: L2-Pf-HR :0.80524: L2-HR :0.79252: (Sim:0h2m25s) 
CPU  1 inst:    3000005 cyc:    1502780 now IPC :1.93899: AVG IPC :1.93874: L2-Pf-HR :0.80492: L2-HR :0.79592: (Sim:0h2m26s) 
CPU  0 inst:    3000005 cyc:    1505451 now IPC :1.93028: AVG IPC :1.93019: L2-Pf-HR :0.78755: L2-HR :0.78553: (Sim:0h2m26s) 
CPU  2 inst:    3000002 cyc:    1505801 now IPC :1.92915: AVG IPC :1.92915: L2-Pf-HR :0.79728: L2-HR :0.79408: (Sim:0h2m26s) 
CPU  3 inst:    4000000 cyc:    2009592 now IPC :1.96167: AVG IPC :1.95637: L2-Pf-HR :0.80957: L2-HR :0.79654: (Sim:0h3m11s) 
CPU  1 inst:    4000000 cyc:    2010198 now IPC :1.97075: AVG IPC :1.95462: L2-Pf-HR :0.80645: L2-HR :0.79832: (Sim:0h3m11s) 
CPU  2 inst:    4000000 cyc:    2011732 now IPC :1.97655: AVG IPC :1.95256: L2-Pf-HR :0.80172: L2-HR :0.79780: (Sim:0h3m11s) 
CPU  0 inst:    4000000 cyc:    2012463 now IPC :1.97233: AVG IPC :1.95103: L2-Pf-HR :0.79359: L2-HR :0.79109: (Sim:0h3m12s) 
CPU  3 inst:    5000005 cyc:    2524038 now IPC :1.94385: AVG IPC :1.95218: L2-Pf-HR :0.79465: L2-HR :0.78478: (Sim:0h3m57s) 
CPU  0 inst:    5000001 cyc:    2529984 now IPC :1.93229: AVG IPC :1.94475: L2-Pf-HR :0.77893: L2-HR :0.78000: (Sim:0h3m57s) 
CPU  1 inst:    5000000 cyc:    2530356 now IPC :1.92249: AVG IPC :1.94379: L2-Pf-HR :0.79360: L2-HR :0.78826: (Sim:0h3m57s) 
CPU  2 inst:    5000002 cyc:    2530965 now IPC :1.92592: AVG IPC :1.94360: L2-Pf-HR :0.78746: L2-HR :0.78720: (Sim:0h3m58s) 
CPU  0 inst:    6000005 cyc:    3032965 now IPC :1.98815: AVG IPC :1.95542: L2-Pf-HR :0.77863: L2-HR :0.77967: (Sim:0h4m43s) 
CPU  3 inst:    6000005 cyc:    3034563 now IPC :1.95877: AVG IPC :1.95382: L2-Pf-HR :0.79256: L2-HR :0.78266: (Sim:0h4m43s) 
CPU  1 inst:    6000005 cyc:    3034691 now IPC :1.98282: AVG IPC :1.95341: L2-Pf-HR :0.79392: L2-HR :0.78831: (Sim:0h4m43s) 
CPU  2 inst:    6000005 cyc:    3035070 now IPC :1.98372: AVG IPC :1.95348: L2-Pf-HR :0.78827: L2-HR :0.78751: (Sim:0h4m43s) 
CPU  2 inst:    7000005 cyc:    4089369 now IPC :0.94850: AVG IPC :1.61190: L2-Pf-HR :0.78518: L2-HR :0.78442: (Sim:0h5m42s) 
CPU  0 inst:    7000005 cyc:    4099785 now IPC :0.93737: AVG IPC :1.60646: L2-Pf-HR :0.77657: L2-HR :0.77720: (Sim:0h5m43s) 
CPU  3 inst:    7000002 cyc:    4100341 now IPC :0.93828: AVG IPC :1.60613: L2-Pf-HR :0.78728: L2-HR :0.77890: (Sim:0h5m43s) 
CPU  1 inst:    7000005 cyc:    4106607 now IPC :0.93291: AVG IPC :1.60271: L2-Pf-HR :0.78794: L2-HR :0.78360: (Sim:0h5m43s) 
CPU  2 inst:    8000001 cyc:    4699165 now IPC :1.63989: AVG IPC :1.61650: L2-Pf-HR :0.78027: L2-HR :0.78130: (Sim:0h6m32s) 
CPU  3 inst:    8000001 cyc:    4702770 now IPC :1.65995: AVG IPC :1.61485: L2-Pf-HR :0.78174: L2-HR :0.77582: (Sim:0h6m32s) 
CPU  1 inst:    8000001 cyc:    4703690 now IPC :1.67480: AVG IPC :1.61429: L2-Pf-HR :0.78104: L2-HR :0.77937: (Sim:0h6m32s) 
CPU  0 inst:    8000001 cyc:    4713094 now IPC :1.63049: AVG IPC :1.61042: L2-Pf-HR :0.77295: L2-HR :0.77521: (Sim:0h6m33s) 
CPU  3 inst:    9000005 cyc:    5353506 now IPC :1.53673: AVG IPC :1.60321: L2-Pf-HR :0.78198: L2-HR :0.77645: (Sim:0h7m21s) 
CPU  1 inst:    9000005 cyc:    5357573 now IPC :1.52933: AVG IPC :1.60158: L2-Pf-HR :0.78086: L2-HR :0.77948: (Sim:0h7m21s) 
CPU  2 inst:    9000005 cyc:    5362983 now IPC :1.50644: AVG IPC :1.59980: L2-Pf-HR :0.78188: L2-HR :0.78238: (Sim:0h7m22s) 
CPU  0 inst:    9000005 cyc:    5363830 now IPC :1.53673: AVG IPC :1.59946: L2-Pf-HR :0.77597: L2-HR :0.77749: (Sim:0h7m22s) 
CPU  2 inst:   10000002 cyc:    5974756 now IPC :1.63459: AVG IPC :1.60407: L2-Pf-HR :0.78447: L2-HR :0.78446: (Sim:0h8m13s) 
CPU  0 inst:   10000002 cyc:    5979233 now IPC :1.62495: AVG IPC :1.60260: L2-Pf-HR :0.77942: L2-HR :0.78016: (Sim:0h8m13s) 
CPU  3 inst:   10000002 cyc:    5981441 now IPC :1.59252: AVG IPC :1.60186: L2-Pf-HR :0.78448: L2-HR :0.77884: (Sim:0h8m13s) 
CPU  1 inst:   10000002 cyc:    5985734 now IPC :1.59194: AVG IPC :1.60037: L2-Pf-HR :0.78236: L2-HR :0.78085: (Sim:0h8m14s) 
CPU  0 inst:   11000003 cyc:    6604911 now IPC :1.59827: AVG IPC :1.60212: L2-Pf-HR :0.78138: L2-HR :0.78155: (Sim:0h9m3s) 
CPU  3 inst:   11000003 cyc:    6605811 now IPC :1.60162: AVG IPC :1.60184: L2-Pf-HR :0.78582: L2-HR :0.78013: (Sim:0h9m3s) 
CPU  1 inst:   11000003 cyc:    6605871 now IPC :1.61255: AVG IPC :1.60171: L2-Pf-HR :0.78338: L2-HR :0.78160: (Sim:0h9m3s) 
CPU  2 inst:   11000003 cyc:    6606797 now IPC :1.58218: AVG IPC :1.60161: L2-Pf-HR :0.78596: L2-HR :0.78554: (Sim:0h9m3s) 
CPU  3 inst:   12000002 cyc:    7111530 now IPC :1.97738: AVG IPC :1.63285: L2-Pf-HR :0.79114: L2-HR :0.78418: (Sim:0h9m49s) 
CPU  0 inst:   12000002 cyc:    7112162 now IPC :1.97141: AVG IPC :1.63270: L2-Pf-HR :0.78714: L2-HR :0.78569: (Sim:0h9m49s) 
CPU  2 inst:   12000002 cyc:    7112429 now IPC :1.97772: AVG IPC :1.63266: L2-Pf-HR :0.79163: L2-HR :0.78972: (Sim:0h9m49s) 
CPU  1 inst:   12000002 cyc:    7114379 now IPC :1.96654: AVG IPC :1.63199: L2-Pf-HR :0.78804: L2-HR :0.78504: (Sim:0h9m49s) 
CPU  2 inst:   13000005 cyc:    8466941 now IPC :0.73828: AVG IPC :1.47069: L2-Pf-HR :0.79933: L2-HR :0.79691: (Sim:0h11m6s) 
CPU  0 inst:   13000005 cyc:    8489055 now IPC :0.72628: AVG IPC :1.46633: L2-Pf-HR :0.79472: L2-HR :0.79302: (Sim:0h11m9s) 
CPU  1 inst:   13000005 cyc:    8490775 now IPC :0.72654: AVG IPC :1.46590: L2-Pf-HR :0.79548: L2-HR :0.79185: (Sim:0h11m9s) 
CPU  3 inst:   13000005 cyc:    8491543 now IPC :0.72463: AVG IPC :1.46583: L2-Pf-HR :0.79848: L2-HR :0.79167: (Sim:0h11m9s) 
CPU  0 inst:   14000005 cyc:    9329834 now IPC :1.18937: AVG IPC :1.43842: L2-Pf-HR :0.80221: L2-HR :0.80182: (Sim:0h12m49s) 
CPU  3 inst:   14000005 cyc:    9334250 now IPC :1.18665: AVG IPC :1.43764: L2-Pf-HR :0.80520: L2-HR :0.79993: (Sim:0h12m50s) 
CPU  1 inst:   14000005 cyc:    9335128 now IPC :1.18434: AVG IPC :1.43742: L2-Pf-HR :0.80193: L2-HR :0.79954: (Sim:0h12m50s) 
CPU  2 inst:   14000005 cyc:    9339894 now IPC :1.14554: AVG IPC :1.43670: L2-Pf-HR :0.80666: L2-HR :0.80529: (Sim:0h12m51s) 
CPU  1 inst:   15000004 cyc:   10195939 now IPC :1.16169: AVG IPC :1.41164: L2-Pf-HR :0.80860: L2-HR :0.80693: (Sim:0h14m32s) 
CPU  0 inst:   15000004 cyc:   10198504 now IPC :1.15118: AVG IPC :1.41133: L2-Pf-HR :0.80889: L2-HR :0.80949: (Sim:0h14m32s) 
CPU  2 inst:   15000004 cyc:   10203281 now IPC :1.15823: AVG IPC :1.41061: L2-Pf-HR :0.81314: L2-HR :0.81244: (Sim:0h14m33s) 
CPU  3 inst:   15000004 cyc:   10204392 now IPC :1.14924: AVG IPC :1.41041: L2-Pf-HR :0.81197: L2-HR :0.80780: (Sim:0h14m33s) 
CPU  3 inst:   16000004 cyc:   10882857 now IPC :1.47392: AVG IPC :1.41477: L2-Pf-HR :0.81851: L2-HR :0.81494: (Sim:0h16m4s) 
CPU  2 inst:   16000001 cyc:   10883227 now IPC :1.47070: AVG IPC :1.41474: L2-Pf-HR :0.81989: L2-HR :0.81950: (Sim:0h16m4s) 
CPU  0 inst:   16000004 cyc:   10885993 now IPC :1.45457: AVG IPC :1.41433: L2-Pf-HR :0.81594: L2-HR :0.81698: (Sim:0h16m5s) 
CPU  1 inst:   16000001 cyc:   10887316 now IPC :1.44638: AVG IPC :1.41407: L2-Pf-HR :0.81520: L2-HR :0.81403: (Sim:0h16m5s) 
CPU  0 inst:   17000004 cyc:   12761781 now IPC :0.53311: AVG IPC :1.27394: L2-Pf-HR :0.81742: L2-HR :0.81712: (Sim:0h18m2s) 
CPU  3 inst:   17000003 cyc:   12762362 now IPC :0.53205: AVG IPC :1.27387: L2-Pf-HR :0.81896: L2-HR :0.81468: (Sim:0h18m2s) 
CPU  2 inst:   17000004 cyc:   12770387 now IPC :0.52990: AVG IPC :1.27303: L2-Pf-HR :0.82047: L2-HR :0.81885: (Sim:0h18m2s) 
CPU  1 inst:   17000004 cyc:   12771459 now IPC :0.53075: AVG IPC :1.27284: L2-Pf-HR :0.81596: L2-HR :0.81387: (Sim:0h18m2s) 
CPU  1 inst:   18000000 cyc:   13720610 now IPC :1.05357: AVG IPC :1.25649: L2-Pf-HR :0.81606: L2-HR :0.81328: (Sim:0h19m3s) 
CPU  3 inst:   18000000 cyc:   13722665 now IPC :1.04133: AVG IPC :1.25634: L2-Pf-HR :0.81870: L2-HR :0.81392: (Sim:0h19m3s) 
CPU  2 inst:   18000000 cyc:   13737922 now IPC :1.03355: AVG IPC :1.25485: L2-Pf-HR :0.82030: L2-HR :0.81757: (Sim:0h19m4s) 
CPU  0 inst:   18000000 cyc:   13744293 now IPC :1.01780: AVG IPC :1.25422: L2-Pf-HR :0.81771: L2-HR :0.81626: (Sim:0h19m4s) 
CPU  0 inst:   19000000 cyc:   14792572 now IPC :0.95394: AVG IPC :1.23142: L2-Pf-HR :0.81786: L2-HR :0.81556: (Sim:0h20m11s) 
CPU  2 inst:   19000000 cyc:   14810570 now IPC :0.93227: AVG IPC :1.22982: L2-Pf-HR :0.82049: L2-HR :0.81684: (Sim:0h20m12s) 
CPU  3 inst:   19000000 cyc:   14818094 now IPC :0.91288: AVG IPC :1.22913: L2-Pf-HR :0.81839: L2-HR :0.81311: (Sim:0h20m13s) 
CPU  1 inst:   19000000 cyc:   14827023 now IPC :0.90382: AVG IPC :1.22830: L2-Pf-HR :0.81635: L2-HR :0.81312: (Sim:0h20m14s) 
CPU  3 inst:   20000003 cyc:   15832198 now IPC :0.98610: AVG IPC :1.21253: L2-Pf-HR :0.81842: L2-HR :0.81261: (Sim:0h21m15s) 
CPU  1 inst:   20000003 cyc:   15841175 now IPC :0.98605: AVG IPC :1.21176: L2-Pf-HR :0.81739: L2-HR :0.81350: (Sim:0h21m15s) 
CPU  0 inst:   20000003 cyc:   15843821 now IPC :0.95125: AVG IPC :1.21159: L2-Pf-HR :0.81827: L2-HR :0.81514: (Sim:0h21m16s) 
CPU  2 inst:   20000000 cyc:   15853682 now IPC :0.95867: AVG IPC :1.21080: L2-Pf-HR :0.82107: L2-HR :0.81654: (Sim:0h21m16s) 
CPU  3 inst:   21000001 cyc:   16918349 now IPC :0.92068: AVG IPC :1.19263: L2-Pf-HR :0.81840: L2-HR :0.81219: (Sim:0h23m2s) 
CPU  0 inst:   21000001 cyc:   16920234 now IPC :0.92901: AVG IPC :1.19250: L2-Pf-HR :0.81895: L2-HR :0.81501: (Sim:0h23m2s) 
CPU  2 inst:   21000004 cyc:   16957274 now IPC :0.90614: AVG IPC :1.18974: L2-Pf-HR :0.82146: L2-HR :0.81613: (Sim:0h23m7s) 
CPU  1 inst:   21000001 cyc:   16967417 now IPC :0.88791: AVG IPC :1.18893: L2-Pf-HR :0.81800: L2-HR :0.81347: (Sim:0h23m8s) 
CPU  3 inst:   22000005 cyc:   17650084 now IPC :1.36662: AVG IPC :1.20027: L2-Pf-HR :0.81892: L2-HR :0.81212: (Sim:0h24m44s) 
CPU  0 inst:   22000005 cyc:   17652637 now IPC :1.36537: AVG IPC :1.20010: L2-Pf-HR :0.81975: L2-HR :0.81495: (Sim:0h24m44s) 
CPU  2 inst:   22000005 cyc:   17663799 now IPC :1.41538: AVG IPC :1.19930: L2-Pf-HR :0.82211: L2-HR :0.81590: (Sim:0h24m46s) 
CPU  1 inst:   22000000 cyc:   17664728 now IPC :1.43408: AVG IPC :1.19918: L2-Pf-HR :0.81908: L2-HR :0.81385: (Sim:0h24m46s) 
CPU  1 inst:   23000000 cyc:   19375602 now IPC :0.58450: AVG IPC :1.14199: L2-Pf-HR :0.81858: L2-HR :0.81284: (Sim:0h27m11s) 
CPU  2 inst:   23000000 cyc:   19380498 now IPC :0.58251: AVG IPC :1.14173: L2-Pf-HR :0.82185: L2-HR :0.81519: (Sim:0h27m11s) 
CPU  3 inst:   23000000 cyc:   19381910 now IPC :0.57742: AVG IPC :1.14163: L2-Pf-HR :0.81906: L2-HR :0.81174: (Sim:0h27m12s) 
CPU  0 inst:   23000000 cyc:   19398472 now IPC :0.57279: AVG IPC :1.14061: L2-Pf-HR :0.81966: L2-HR :0.81442: (Sim:0h27m13s) 
CPU  2 inst:   24000000 cyc:   20189564 now IPC :1.23599: AVG IPC :1.14571: L2-Pf-HR :0.82207: L2-HR :0.81496: (Sim:0h28m54s) 
CPU  3 inst:   24000000 cyc:   20194068 now IPC :1.23129: AVG IPC :1.14542: L2-Pf-HR :0.81905: L2-HR :0.81128: (Sim:0h28m54s) 
CPU  0 inst:   24000003 cyc:   20194977 now IPC :1.25549: AVG IPC :1.14538: L2-Pf-HR :0.82000: L2-HR :0.81450: (Sim:0h28m54s) 
CPU  1 inst:   24000003 cyc:   20217949 now IPC :1.18716: AVG IPC :1.14397: L2-Pf-HR :0.81796: L2-HR :0.81189: (Sim:0h28m57s) 
CPU  3 inst:   25000000 cyc:   21070820 now IPC :1.14057: AVG IPC :1.14521: L2-Pf-HR :0.81933: L2-HR :0.81110: (Sim:0h30m39s) 
CPU  0 inst:   25000000 cyc:   21099610 now IPC :1.10542: AVG IPC :1.14358: L2-Pf-HR :0.82036: L2-HR :0.81462: (Sim:0h30m43s) 
CPU  2 inst:   25000000 cyc:   21105134 now IPC :1.09222: AVG IPC :1.14327: L2-Pf-HR :0.82243: L2-HR :0.81496: (Sim:0h30m43s) 
CPU  1 inst:   25000000 cyc:   21121103 now IPC :1.10723: AVG IPC :1.14232: L2-Pf-HR :0.81782: L2-HR :0.81135: (Sim:0h30m45s) 
CPU  3 inst:   26000004 cyc:   22001848 now IPC :1.07409: AVG IPC :1.14206: L2-Pf-HR :0.81955: L2-HR :0.81090: (Sim:0h32m30s) 
CPU  0 inst:   26000004 cyc:   22003837 now IPC :1.10592: AVG IPC :1.14196: L2-Pf-HR :0.82069: L2-HR :0.81465: (Sim:0h32m30s) 
CPU  2 inst:   26000004 cyc:   22006605 now IPC :1.10930: AVG IPC :1.14182: L2-Pf-HR :0.82265: L2-HR :0.81485: (Sim:0h32m30s) 
CPU  1 inst:   26000004 cyc:   22031021 now IPC :1.09900: AVG IPC :1.14045: L2-Pf-HR :0.81755: L2-HR :0.81077: (Sim:0h32m33s) 
CPU  0 inst:   27000001 cyc:   22850180 now IPC :1.18155: AVG IPC :1.14349: L2-Pf-HR :0.82076: L2-HR :0.81459: (Sim:0h34m14s) 
CPU  2 inst:   27000004 cyc:   22864830 now IPC :1.16520: AVG IPC :1.14273: L2-Pf-HR :0.82270: L2-HR :0.81464: (Sim:0h34m16s) 
CPU  1 inst:   27000004 cyc:   22873206 now IPC :1.18739: AVG IPC :1.14225: L2-Pf-HR :0.81756: L2-HR :0.81051: (Sim:0h34m17s) 
CPU  3 inst:   27000004 cyc:   22890634 now IPC :1.12513: AVG IPC :1.14137: L2-Pf-HR :0.81990: L2-HR :0.81082: (Sim:0h34m19s) 
CPU  2 inst:   28000005 cyc:   23464709 now IPC :1.66700: AVG IPC :1.15672: L2-Pf-HR :0.82339: L2-HR :0.81487: (Sim:0h35m46s) 
CPU  1 inst:   28000005 cyc:   23474621 now IPC :1.66275: AVG IPC :1.15617: L2-Pf-HR :0.81780: L2-HR :0.81042: (Sim:0h35m48s) 
CPU  3 inst:   28000005 cyc:   23482769 now IPC :1.68881: AVG IPC :1.15578: L2-Pf-HR :0.82047: L2-HR :0.81093: (Sim:0h35m49s) 
CPU  0 inst:   28000005 cyc:   23484337 now IPC :1.57690: AVG IPC :1.15571: L2-Pf-HR :0.82141: L2-HR :0.81490: (Sim:0h35m50s) 
CPU  3 inst:   29000005 cyc:   24745479 now IPC :0.79195: AVG IPC :1.13645: L2-Pf-HR :0.82197: L2-HR :0.81245: (Sim:0h37m51s) 
CPU  1 inst:   29000005 cyc:   24750909 now IPC :0.78352: AVG IPC :1.13616: L2-Pf-HR :0.81958: L2-HR :0.81228: (Sim:0h37m52s) 
CPU  2 inst:   29000005 cyc:   24751501 now IPC :0.77713: AVG IPC :1.13617: L2-Pf-HR :0.82509: L2-HR :0.81660: (Sim:0h37m52s) 
CPU  0 inst:   29000005 cyc:   24760290 now IPC :0.78373: AVG IPC :1.13574: L2-Pf-HR :0.82337: L2-HR :0.81694: (Sim:0h37m53s) 
CPU  2 inst:   30000002 cyc:   25584569 now IPC :1.20038: AVG IPC :1.13834: L2-Pf-HR :0.82761: L2-HR :0.81981: (Sim:0h39m34s) 
CPU  3 inst:   30000002 cyc:   25590825 now IPC :1.18294: AVG IPC :1.13804: L2-Pf-HR :0.82426: L2-HR :0.81535: (Sim:0h39m35s) 
CPU  1 inst:   30000002 cyc:   25591079 now IPC :1.19023: AVG IPC :1.13801: L2-Pf-HR :0.82234: L2-HR :0.81571: (Sim:0h39m35s) 
CPU  0 inst:   30000002 cyc:   25602011 now IPC :1.18804: AVG IPC :1.13753: L2-Pf-HR :0.82610: L2-HR :0.82049: (Sim:0h39m37s) 
CPU  3 inst:   31000003 cyc:   26482825 now IPC :1.12108: AVG IPC :1.13745: L2-Pf-HR :0.82664: L2-HR :0.81831: (Sim:0h40m40s) 
CPU  0 inst:   31000003 cyc:   26482918 now IPC :1.13519: AVG IPC :1.13745: L2-Pf-HR :0.82883: L2-HR :0.82395: (Sim:0h40m40s) 
CPU  2 inst:   31000003 cyc:   26490423 now IPC :1.10393: AVG IPC :1.13712: L2-Pf-HR :0.82994: L2-HR :0.82279: (Sim:0h40m41s) 
CPU  1 inst:   31000003 cyc:   26490973 now IPC :1.11124: AVG IPC :1.13706: L2-Pf-HR :0.82503: L2-HR :0.81920: (Sim:0h40m41s) 
CPU  1 inst:   32000004 cyc:   27261489 now IPC :1.29783: AVG IPC :1.14178: L2-Pf-HR :0.82791: L2-HR :0.82267: (Sim:0h42m21s) 
CPU  2 inst:   32000004 cyc:   27277145 now IPC :1.27110: AVG IPC :1.14113: L2-Pf-HR :0.83232: L2-HR :0.82569: (Sim:0h42m23s) 
CPU  0 inst:   32000004 cyc:   27278887 now IPC :1.25633: AVG IPC :1.14105: L2-Pf-HR :0.83174: L2-HR :0.82747: (Sim:0h42m24s) 
CPU  3 inst:   32000004 cyc:   27281183 now IPC :1.25257: AVG IPC :1.14095: L2-Pf-HR :0.82897: L2-HR :0.82114: (Sim:0h42m24s) 
CPU  1 inst:   33000000 cyc:   29014263 now IPC :0.57052: AVG IPC :1.10605: L2-Pf-HR :0.82835: L2-HR :0.82285: (Sim:0h44m46s) 
CPU  3 inst:   33000000 cyc:   29024947 now IPC :0.57347: AVG IPC :1.10565: L2-Pf-HR :0.82970: L2-HR :0.82150: (Sim:0h44m47s) 
CPU  0 inst:   33000000 cyc:   29052431 now IPC :0.56384: AVG IPC :1.10457: L2-Pf-HR :0.83265: L2-HR :0.82790: (Sim:0h44m49s) 
CPU  2 inst:   33000000 cyc:   29058104 now IPC :0.56149: AVG IPC :1.10436: L2-Pf-HR :0.83294: L2-HR :0.82593: (Sim:0h44m50s) 
CPU  2 inst:   34000005 cyc:   30046802 now IPC :1.01144: AVG IPC :1.10119: L2-Pf-HR :0.83268: L2-HR :0.82531: (Sim:0h46m36s) 
CPU  1 inst:   34000005 cyc:   30053609 now IPC :0.96215: AVG IPC :1.10091: L2-Pf-HR :0.82775: L2-HR :0.82200: (Sim:0h46m37s) 
CPU  3 inst:   34000005 cyc:   30054410 now IPC :0.97139: AVG IPC :1.10090: L2-Pf-HR :0.82953: L2-HR :0.82101: (Sim:0h46m38s) 
CPU  0 inst:   34000005 cyc:   30078285 now IPC :0.97480: AVG IPC :1.10000: L2-Pf-HR :0.83227: L2-HR :0.82697: (Sim:0h46m41s) 
CPU  3 inst:   35000005 cyc:   31058916 now IPC :0.99551: AVG IPC :1.09738: L2-Pf-HR :0.82953: L2-HR :0.82064: (Sim:0h48m32s) 
CPU  2 inst:   35000005 cyc:   31062580 now IPC :0.98447: AVG IPC :1.09725: L2-Pf-HR :0.83263: L2-HR :0.82486: (Sim:0h48m32s) 
CPU  1 inst:   35000005 cyc:   31074806 now IPC :0.97924: AVG IPC :1.09678: L2-Pf-HR :0.82727: L2-HR :0.82119: (Sim:0h48m33s) 
CPU  0 inst:   35000005 cyc:   31092136 now IPC :0.98634: AVG IPC :1.09617: L2-Pf-HR :0.83202: L2-HR :0.82620: (Sim:0h48m35s) 
CPU  3 inst:   36000005 cyc:   32088214 now IPC :0.97154: AVG IPC :1.09321: L2-Pf-HR :0.82935: L2-HR :0.82016: (Sim:0h50m28s) 
CPU  0 inst:   36000005 cyc:   32101121 now IPC :0.99110: AVG IPC :1.09276: L2-Pf-HR :0.83176: L2-HR :0.82546: (Sim:0h50m29s) 
CPU  1 inst:   36000005 cyc:   32106002 now IPC :0.96975: AVG IPC :1.09257: L2-Pf-HR :0.82669: L2-HR :0.82035: (Sim:0h50m30s) 
CPU  2 inst:   36000005 cyc:   32108849 now IPC :0.95578: AVG IPC :1.09250: L2-Pf-HR :0.83234: L2-HR :0.82423: (Sim:0h50m30s) 
CPU  3 inst:   37000001 cyc:   33142544 now IPC :0.94847: AVG IPC :1.08847: L2-Pf-HR :0.82931: L2-HR :0.81983: (Sim:0h52m20s) 
CPU  2 inst:   37000001 cyc:   33157190 now IPC :0.95388: AVG IPC :1.08798: L2-Pf-HR :0.83210: L2-HR :0.82371: (Sim:0h52m21s) 
CPU  0 inst:   37000000 cyc:   33165223 now IPC :0.93975: AVG IPC :1.08770: L2-Pf-HR :0.83152: L2-HR :0.82476: (Sim:0h52m22s) 
CPU  1 inst:   37000000 cyc:   33215418 now IPC :0.90137: AVG IPC :1.08599: L2-Pf-HR :0.82603: L2-HR :0.81951: (Sim:0h52m27s) 
CPU  3 inst:   38000004 cyc:   34006492 now IPC :1.15748: AVG IPC :1.09027: L2-Pf-HR :0.82931: L2-HR :0.81954: (Sim:0h54m2s) 
CPU  2 inst:   38000004 cyc:   34028416 now IPC :1.14781: AVG IPC :1.08956: L2-Pf-HR :0.83206: L2-HR :0.82333: (Sim:0h54m5s) 
CPU  0 inst:   38000004 cyc:   34037051 now IPC :1.14702: AVG IPC :1.08927: L2-Pf-HR :0.83147: L2-HR :0.82421: (Sim:0h54m7s) 
CPU  1 inst:   38000004 cyc:   34056029 now IPC :1.18962: AVG IPC :1.08862: L2-Pf-HR :0.82583: L2-HR :0.81907: (Sim:0h54m10s) 
CPU  3 inst:   39000004 cyc:   35585209 now IPC :0.63343: AVG IPC :1.06942: L2-Pf-HR :0.82904: L2-HR :0.81902: (Sim:0h56m23s) 
CPU  2 inst:   39000004 cyc:   35591684 now IPC :0.63969: AVG IPC :1.06923: L2-Pf-HR :0.83169: L2-HR :0.82270: (Sim:0h56m23s) 
CPU  0 inst:   39000004 cyc:   35633605 now IPC :0.62635: AVG IPC :1.06794: L2-Pf-HR :0.83121: L2-HR :0.82365: (Sim:0h56m28s) 
CPU  1 inst:   39000004 cyc:   35649894 now IPC :0.62741: AVG IPC :1.06741: L2-Pf-HR :0.82579: L2-HR :0.81866: (Sim:0h56m30s) 
CPU  3 inst:   40000001 cyc:   36451430 now IPC :1.15444: AVG IPC :1.07150: L2-Pf-HR :0.82876: L2-HR :0.81874: (Sim:0h58m8s) 
CPU  2 inst:   40000001 cyc:   36469776 now IPC :1.13883: AVG IPC :1.07096: L2-Pf-HR :0.83139: L2-HR :0.82227: (Sim:0h58m11s) 
CPU  1 inst:   40000001 cyc:   36483846 now IPC :1.19911: AVG IPC :1.07051: L2-Pf-HR :0.82525: L2-HR :0.81801: (Sim:0h58m12s) 
CPU  0 inst:   40000001 cyc:   36493142 now IPC :1.16341: AVG IPC :1.07025: L2-Pf-HR :0.83100: L2-HR :0.82330: (Sim:0h58m13s) 
CPU  3 inst:   41000001 cyc:   37341967 now IPC :1.12292: AVG IPC :1.07276: L2-Pf-HR :0.82861: L2-HR :0.81853: (Sim:0h59m53s) 
CPU  0 inst:   41000001 cyc:   37363733 now IPC :1.14865: AVG IPC :1.07212: L2-Pf-HR :0.83084: L2-HR :0.82298: (Sim:0h59m55s) 
CPU  2 inst:   41000001 cyc:   37371528 now IPC :1.10895: AVG IPC :1.07190: L2-Pf-HR :0.83120: L2-HR :0.82185: (Sim:0h59m56s) 
CPU  1 inst:   41000001 cyc:   37382740 now IPC :1.11248: AVG IPC :1.07154: L2-Pf-HR :0.82489: L2-HR :0.81744: (Sim:0h59m58s) 
CPU  3 inst:   42000001 cyc:   38258920 now IPC :1.09057: AVG IPC :1.07320: L2-Pf-HR :0.82851: L2-HR :0.81836: (Sim:1h1m40s) 
CPU  1 inst:   42000004 cyc:   38267360 now IPC :1.13043: AVG IPC :1.07294: L2-Pf-HR :0.82458: L2-HR :0.81696: (Sim:1h1m41s) 
CPU  0 inst:   42000001 cyc:   38267695 now IPC :1.10624: AVG IPC :1.07295: L2-Pf-HR :0.83059: L2-HR :0.82262: (Sim:1h1m41s) 
CPU  2 inst:   42000001 cyc:   38282375 now IPC :1.09788: AVG IPC :1.07253: L2-Pf-HR :0.83101: L2-HR :0.82154: (Sim:1h1m43s) 
CPU  2 inst:   43000005 cyc:   39127100 now IPC :1.18382: AVG IPC :1.07500: L2-Pf-HR :0.83077: L2-HR :0.82114: (Sim:1h3m26s) 
CPU  0 inst:   43000005 cyc:   39129480 now IPC :1.16039: AVG IPC :1.07493: L2-Pf-HR :0.83050: L2-HR :0.82243: (Sim:1h3m27s) 
CPU  3 inst:   43000005 cyc:   39129647 now IPC :1.14847: AVG IPC :1.07492: L2-Pf-HR :0.82842: L2-HR :0.81820: (Sim:1h3m27s) 
CPU  1 inst:   43000005 cyc:   39133451 now IPC :1.15461: AVG IPC :1.07479: L2-Pf-HR :0.82448: L2-HR :0.81662: (Sim:1h3m27s) 
CPU  3 inst:   44000000 cyc:   39819513 now IPC :1.44955: AVG IPC :1.08157: L2-Pf-HR :0.82851: L2-HR :0.81822: (Sim:1h5m4s) 
CPU  1 inst:   44000000 cyc:   39820402 now IPC :1.45570: AVG IPC :1.08153: L2-Pf-HR :0.82435: L2-HR :0.81628: (Sim:1h5m4s) 
CPU  0 inst:   44000000 cyc:   39821437 now IPC :1.44517: AVG IPC :1.08152: L2-Pf-HR :0.83047: L2-HR :0.82227: (Sim:1h5m4s) 
CPU  2 inst:   44000000 cyc:   39821981 now IPC :1.43909: AVG IPC :1.08151: L2-Pf-HR :0.83069: L2-HR :0.82087: (Sim:1h5m5s) 
CPU  0 inst:   45000004 cyc:   41064949 now IPC :0.80418: AVG IPC :1.07292: L2-Pf-HR :0.83125: L2-HR :0.82299: (Sim:1h7m4s) 
CPU  3 inst:   45000004 cyc:   41068962 now IPC :0.80036: AVG IPC :1.07281: L2-Pf-HR :0.82925: L2-HR :0.81890: (Sim:1h7m5s) 
CPU  1 inst:   45000004 cyc:   41071541 now IPC :0.79927: AVG IPC :1.07272: L2-Pf-HR :0.82494: L2-HR :0.81678: (Sim:1h7m5s) 
CPU  2 inst:   45000004 cyc:   41090336 now IPC :0.78843: AVG IPC :1.07224: L2-Pf-HR :0.83150: L2-HR :0.82162: (Sim:1h7m7s) 
CPU  2 inst:   46000000 cyc:   41864691 now IPC :1.29139: AVG IPC :1.07639: L2-Pf-HR :0.83315: L2-HR :0.82380: (Sim:1h8m43s) 
CPU  0 inst:   46000000 cyc:   41879555 now IPC :1.22758: AVG IPC :1.07600: L2-Pf-HR :0.83266: L2-HR :0.82485: (Sim:1h8m45s) 
CPU  1 inst:   46000000 cyc:   41883528 now IPC :1.23154: AVG IPC :1.07588: L2-Pf-HR :0.82589: L2-HR :0.81825: (Sim:1h8m45s) 
CPU  3 inst:   46000000 cyc:   41886234 now IPC :1.22358: AVG IPC :1.07582: L2-Pf-HR :0.83067: L2-HR :0.82066: (Sim:1h8m46s) 
CPU  1 inst:   47000000 cyc:   42793725 now IPC :1.09866: AVG IPC :1.07637: L2-Pf-HR :0.82690: L2-HR :0.81972: (Sim:1h10m31s) 
CPU  0 inst:   47000000 cyc:   42800479 now IPC :1.08587: AVG IPC :1.07622: L2-Pf-HR :0.83404: L2-HR :0.82674: (Sim:1h10m31s) 
CPU  3 inst:   47000000 cyc:   42803154 now IPC :1.09061: AVG IPC :1.07614: L2-Pf-HR :0.83198: L2-HR :0.82234: (Sim:1h10m32s) 
CPU  2 inst:   47000000 cyc:   42812119 now IPC :1.05549: AVG IPC :1.07592: L2-Pf-HR :0.83458: L2-HR :0.82582: (Sim:1h10m33s) 
CPU  0 inst:   48000002 cyc:   43657134 now IPC :1.16733: AVG IPC :1.07805: L2-Pf-HR :0.83555: L2-HR :0.82867: (Sim:1h12m15s) 
CPU  1 inst:   48000002 cyc:   43657820 now IPC :1.15728: AVG IPC :1.07801: L2-Pf-HR :0.82813: L2-HR :0.82129: (Sim:1h12m15s) 
CPU  2 inst:   48000002 cyc:   43658481 now IPC :1.18153: AVG IPC :1.07801: L2-Pf-HR :0.83616: L2-HR :0.82785: (Sim:1h12m15s) 
CPU  3 inst:   48000002 cyc:   43660065 now IPC :1.16698: AVG IPC :1.07797: L2-Pf-HR :0.83336: L2-HR :0.82399: (Sim:1h12m16s) 
CPU  3 inst:   49000003 cyc:   45317131 now IPC :0.60348: AVG IPC :1.06023: L2-Pf-HR :0.83380: L2-HR :0.82435: (Sim:1h13m44s) 
CPU  2 inst:   49000003 cyc:   45338733 now IPC :0.59515: AVG IPC :1.05972: L2-Pf-HR :0.83679: L2-HR :0.82841: (Sim:1h13m45s) 
CPU  0 inst:   49000003 cyc:   45358937 now IPC :0.58761: AVG IPC :1.05924: L2-Pf-HR :0.83612: L2-HR :0.82916: (Sim:1h13m47s) 
CPU  1 inst:   49000003 cyc:   45361935 now IPC :0.58682: AVG IPC :1.05915: L2-Pf-HR :0.82861: L2-HR :0.82173: (Sim:1h13m47s) 
CPU  3 inst:   50000004 cyc:   46366117 now IPC :0.95330: AVG IPC :1.05776: L2-Pf-HR :0.83370: L2-HR :0.82399: (Sim:1h15m34s) 
CPU  0 inst:   50000004 cyc:   46377706 now IPC :0.98158: AVG IPC :1.05749: L2-Pf-HR :0.83584: L2-HR :0.82864: (Sim:1h15m36s) 
CPU  1 inst:   50000004 cyc:   46384175 now IPC :0.97824: AVG IPC :1.05733: L2-Pf-HR :0.82828: L2-HR :0.82130: (Sim:1h15m36s) 
CPU  2 inst:   50000004 cyc:   46398987 now IPC :0.94317: AVG IPC :1.05700: L2-Pf-HR :0.83646: L2-HR :0.82792: (Sim:1h15m38s) 
CPU  3 inst:   51000001 cyc:   47361203 now IPC :1.00494: AVG IPC :1.05663: L2-Pf-HR :0.83357: L2-HR :0.82361: (Sim:1h17m28s) 
CPU  2 inst:   51000000 cyc:   47365902 now IPC :1.03421: AVG IPC :1.05652: L2-Pf-HR :0.83628: L2-HR :0.82750: (Sim:1h17m29s) 
CPU  0 inst:   51000005 cyc:   47374664 now IPC :1.00305: AVG IPC :1.05632: L2-Pf-HR :0.83566: L2-HR :0.82821: (Sim:1h17m30s) 
CPU  1 inst:   51000000 cyc:   47422650 now IPC :0.96295: AVG IPC :1.05521: L2-Pf-HR :0.82795: L2-HR :0.82087: (Sim:1h17m35s) 
CPU  1 inst:   52000000 cyc:   48414922 now IPC :1.00779: AVG IPC :1.05422: L2-Pf-HR :0.82776: L2-HR :0.82054: (Sim:1h19m24s) 
CPU  3 inst:   52000000 cyc:   48423808 now IPC :0.94108: AVG IPC :1.05404: L2-Pf-HR :0.83348: L2-HR :0.82329: (Sim:1h19m25s) 
CPU  0 inst:   52000000 cyc:   48433841 now IPC :0.94412: AVG IPC :1.05382: L2-Pf-HR :0.83561: L2-HR :0.82790: (Sim:1h19m26s) 
CPU  2 inst:   52000000 cyc:   48436099 now IPC :0.93441: AVG IPC :1.05377: L2-Pf-HR :0.83605: L2-HR :0.82710: (Sim:1h19m26s) 
CPU  3 inst:   53000000 cyc:   49476759 now IPC :0.94971: AVG IPC :1.05177: L2-Pf-HR :0.83319: L2-HR :0.82282: (Sim:1h21m15s) 
CPU  2 inst:   53000000 cyc:   49499088 now IPC :0.94074: AVG IPC :1.05129: L2-Pf-HR :0.83559: L2-HR :0.82653: (Sim:1h21m18s) 
CPU  0 inst:   53000000 cyc:   49521056 now IPC :0.91978: AVG IPC :1.05082: L2-Pf-HR :0.83542: L2-HR :0.82749: (Sim:1h21m20s) 
CPU  1 inst:   53000000 cyc:   49527332 now IPC :0.89895: AVG IPC :1.05066: L2-Pf-HR :0.82752: L2-HR :0.82018: (Sim:1h21m21s) 
CPU  2 inst:   54000002 cyc:   50384234 now IPC :1.12976: AVG IPC :1.05270: L2-Pf-HR :0.83526: L2-HR :0.82606: (Sim:1h23m1s) 
CPU  0 inst:   54000002 cyc:   50414162 now IPC :1.11969: AVG IPC :1.05206: L2-Pf-HR :0.83519: L2-HR :0.82704: (Sim:1h23m6s) 
CPU  1 inst:   54000002 cyc:   50415869 now IPC :1.12545: AVG IPC :1.05201: L2-Pf-HR :0.82721: L2-HR :0.81979: (Sim:1h23m6s) 
CPU  3 inst:   54000002 cyc:   50420285 now IPC :1.05986: AVG IPC :1.05193: L2-Pf-HR :0.83297: L2-HR :0.82241: (Sim:1h23m7s) 
CPU  1 inst:   55000001 cyc:   51905803 now IPC :0.67117: AVG IPC :1.04086: L2-Pf-HR :0.82713: L2-HR :0.81948: (Sim:1h25m18s) 
CPU  2 inst:   55000001 cyc:   51912708 now IPC :0.65425: AVG IPC :1.04074: L2-Pf-HR :0.83518: L2-HR :0.82574: (Sim:1h25m19s) 
CPU  0 inst:   55000002 cyc:   51921348 now IPC :0.66349: AVG IPC :1.04056: L2-Pf-HR :0.83507: L2-HR :0.82663: (Sim:1h25m20s) 
CPU  3 inst:   55000005 cyc:   51935074 now IPC :0.66016: AVG IPC :1.04028: L2-Pf-HR :0.83295: L2-HR :0.82216: (Sim:1h25m21s) 
CPU  2 inst:   56000000 cyc:   52827519 now IPC :1.09312: AVG IPC :1.04166: L2-Pf-HR :0.83486: L2-HR :0.82536: (Sim:1h27m1s) 
CPU  1 inst:   56000001 cyc:   52836330 now IPC :1.07466: AVG IPC :1.04147: L2-Pf-HR :0.82672: L2-HR :0.81901: (Sim:1h27m2s) 
CPU  3 inst:   56000001 cyc:   52863206 now IPC :1.07743: AVG IPC :1.04094: L2-Pf-HR :0.83270: L2-HR :0.82195: (Sim:1h27m5s) 
CPU  0 inst:   56000000 cyc:   52874990 now IPC :1.04861: AVG IPC :1.04071: L2-Pf-HR :0.83486: L2-HR :0.82627: (Sim:1h27m6s) 
CPU  0 inst:   57000002 cyc:   53715060 now IPC :1.19038: AVG IPC :1.04309: L2-Pf-HR :0.83471: L2-HR :0.82596: (Sim:1h28m49s) 
CPU  3 inst:   57000003 cyc:   53719309 now IPC :1.16809: AVG IPC :1.04301: L2-Pf-HR :0.83248: L2-HR :0.82176: (Sim:1h28m49s) 
CPU  1 inst:   57000004 cyc:   53720818 now IPC :1.13060: AVG IPC :1.04297: L2-Pf-HR :0.82643: L2-HR :0.81860: (Sim:1h28m49s) 
CPU  2 inst:   57000002 cyc:   53731924 now IPC :1.10570: AVG IPC :1.04276: L2-Pf-HR :0.83462: L2-HR :0.82505: (Sim:1h28m50s) 
CPU  3 inst:   58000005 cyc:   54607554 now IPC :1.12582: AVG IPC :1.04438: L2-Pf-HR :0.83231: L2-HR :0.82159: (Sim:1h30m32s) 
CPU  2 inst:   58000005 cyc:   54608154 now IPC :1.14126: AVG IPC :1.04437: L2-Pf-HR :0.83449: L2-HR :0.82483: (Sim:1h30m32s) 
CPU  1 inst:   58000005 cyc:   54614623 now IPC :1.11881: AVG IPC :1.04423: L2-Pf-HR :0.82634: L2-HR :0.81837: (Sim:1h30m33s) 
CPU  0 inst:   58000005 cyc:   54641130 now IPC :1.07984: AVG IPC :1.04373: L2-Pf-HR :0.83462: L2-HR :0.82569: (Sim:1h30m35s) 
CPU  1 inst:   59000002 cyc:   55474894 now IPC :1.16242: AVG IPC :1.04610: L2-Pf-HR :0.82610: L2-HR :0.81806: (Sim:1h31m30s) 
CPU  0 inst:   59000002 cyc:   55481490 now IPC :1.18996: AVG IPC :1.04598: L2-Pf-HR :0.83449: L2-HR :0.82545: (Sim:1h31m31s) 
CPU  3 inst:   59000002 cyc:   55483514 now IPC :1.14160: AVG IPC :1.04594: L2-Pf-HR :0.83203: L2-HR :0.82137: (Sim:1h31m31s) 
CPU  2 inst:   59000002 cyc:   55506129 now IPC :1.11361: AVG IPC :1.04551: L2-Pf-HR :0.83431: L2-HR :0.82460: (Sim:1h31m32s) 
CPU  0 inst:   60000003 cyc:   56200613 now IPC :1.39058: AVG IPC :1.05047: L2-Pf-HR :0.83436: L2-HR :0.82516: (Sim:1h32m23s) 
CPU  1 inst:   60000003 cyc:   56201496 now IPC :1.37627: AVG IPC :1.05044: L2-Pf-HR :0.82596: L2-HR :0.81777: (Sim:1h32m23s) 
CPU  3 inst:   60000003 cyc:   56203609 now IPC :1.38871: AVG IPC :1.05041: L2-Pf-HR :0.83189: L2-HR :0.82124: (Sim:1h32m23s) 
CPU  2 inst:   60000003 cyc:   56213630 now IPC :1.41343: AVG IPC :1.05023: L2-Pf-HR :0.83410: L2-HR :0.82431: (Sim:1h32m24s) 
CPU  0 inst:   61000003 cyc:   57350299 now IPC :0.86980: AVG IPC :1.04679: L2-Pf-HR :0.83456: L2-HR :0.82528: (Sim:1h34m4s) 
CPU  3 inst:   61000003 cyc:   57364188 now IPC :0.86164: AVG IPC :1.04653: L2-Pf-HR :0.83228: L2-HR :0.82159: (Sim:1h34m5s) 
CPU  2 inst:   61000003 cyc:   57374637 now IPC :0.86132: AVG IPC :1.04634: L2-Pf-HR :0.83435: L2-HR :0.82447: (Sim:1h34m6s) 
CPU  1 inst:   61000003 cyc:   57380036 now IPC :0.84851: AVG IPC :1.04622: L2-Pf-HR :0.82624: L2-HR :0.81792: (Sim:1h34m7s) 
CPU  0 inst:   62000000 cyc:   58202989 now IPC :1.17276: AVG IPC :1.04866: L2-Pf-HR :0.83557: L2-HR :0.82664: (Sim:1h35m46s) 
CPU  3 inst:   62000000 cyc:   58211513 now IPC :1.18018: AVG IPC :1.04850: L2-Pf-HR :0.83320: L2-HR :0.82283: (Sim:1h35m47s) 
CPU  1 inst:   62000000 cyc:   58212890 now IPC :1.20069: AVG IPC :1.04847: L2-Pf-HR :0.82693: L2-HR :0.81890: (Sim:1h35m47s) 
CPU  2 inst:   62000000 cyc:   58222686 now IPC :1.17917: AVG IPC :1.04831: L2-Pf-HR :0.83499: L2-HR :0.82540: (Sim:1h35m48s) 
CPU  3 inst:   63000005 cyc:   59089469 now IPC :1.13901: AVG IPC :1.04987: L2-Pf-HR :0.83414: L2-HR :0.82411: (Sim:1h37m29s) 
CPU  0 inst:   63000005 cyc:   59101094 now IPC :1.11346: AVG IPC :1.04966: L2-Pf-HR :0.83653: L2-HR :0.82797: (Sim:1h37m31s) 
CPU  1 inst:   63000005 cyc:   59102439 now IPC :1.12417: AVG IPC :1.04963: L2-Pf-HR :0.82768: L2-HR :0.81990: (Sim:1h37m31s) 
CPU  2 inst:   63000005 cyc:   59134787 now IPC :1.09638: AVG IPC :1.04906: L2-Pf-HR :0.83566: L2-HR :0.82633: (Sim:1h37m35s) 
CPU  3 inst:   64000005 cyc:   59936855 now IPC :1.18010: AVG IPC :1.05174: L2-Pf-HR :0.83512: L2-HR :0.82538: (Sim:1h39m10s) 
CPU  0 inst:   64000005 cyc:   59945832 now IPC :1.18380: AVG IPC :1.05159: L2-Pf-HR :0.83755: L2-HR :0.82932: (Sim:1h39m11s) 
CPU  1 inst:   64000005 cyc:   59954386 now IPC :1.17378: AVG IPC :1.05142: L2-Pf-HR :0.82846: L2-HR :0.82090: (Sim:1h39m12s) 
CPU  2 inst:   64000005 cyc:   59977938 now IPC :1.18603: AVG IPC :1.05102: L2-Pf-HR :0.83632: L2-HR :0.82723: (Sim:1h39m15s) 
CPU  3 inst:   65000000 cyc:   61471800 now IPC :0.65149: AVG IPC :1.04159: L2-Pf-HR :0.83572: L2-HR :0.82598: (Sim:1h40m49s) 
CPU  2 inst:   65000000 cyc:   61482224 now IPC :0.66476: AVG IPC :1.04141: L2-Pf-HR :0.83685: L2-HR :0.82767: (Sim:1h40m50s) 
CPU  1 inst:   65000000 cyc:   61486610 now IPC :0.65264: AVG IPC :1.04132: L2-Pf-HR :0.82904: L2-HR :0.82142: (Sim:1h40m50s) 
CPU  0 inst:   65000000 cyc:   61498530 now IPC :0.64404: AVG IPC :1.04113: L2-Pf-HR :0.83829: L2-HR :0.83002: (Sim:1h40m50s) 
CPU  3 inst:   66000003 cyc:   62567886 now IPC :0.91234: AVG IPC :1.03929: L2-Pf-HR :0.83553: L2-HR :0.82571: (Sim:1h41m51s) 
CPU  1 inst:   66000003 cyc:   62570812 now IPC :0.92234: AVG IPC :1.03923: L2-Pf-HR :0.82884: L2-HR :0.82107: (Sim:1h41m51s) 
CPU  2 inst:   66000003 cyc:   62595292 now IPC :0.89842: AVG IPC :1.03883: L2-Pf-HR :0.83679: L2-HR :0.82742: (Sim:1h41m53s) 
CPU  0 inst:   66000003 cyc:   62661769 now IPC :0.85967: AVG IPC :1.03771: L2-Pf-HR :0.83816: L2-HR :0.82967: (Sim:1h41m57s) 
CPU  3 inst:   67000005 cyc:   63590226 now IPC :0.97815: AVG IPC :1.03829: L2-Pf-HR :0.83546: L2-HR :0.82550: (Sim:1h42m53s) 
CPU  1 inst:   67000005 cyc:   63606002 now IPC :0.96601: AVG IPC :1.03802: L2-Pf-HR :0.82870: L2-HR :0.82076: (Sim:1h42m54s) 
CPU  2 inst:   67000005 cyc:   63607974 now IPC :0.98748: AVG IPC :1.03800: L2-Pf-HR :0.83679: L2-HR :0.82719: (Sim:1h42m54s) 
CPU  0 inst:   67000005 cyc:   63630594 now IPC :1.03218: AVG IPC :1.03762: L2-Pf-HR :0.83800: L2-HR :0.82929: (Sim:1h42m56s) 
CPU  0 inst:   68000000 cyc:   64644112 now IPC :0.98666: AVG IPC :1.03681: L2-Pf-HR :0.83792: L2-HR :0.82898: (Sim:1h43m54s) 
CPU  3 inst:   68000000 cyc:   64663692 now IPC :0.93156: AVG IPC :1.03649: L2-Pf-HR :0.83538: L2-HR :0.82532: (Sim:1h43m55s) 
CPU  2 inst:   68000000 cyc:   64680343 now IPC :0.93251: AVG IPC :1.03622: L2-Pf-HR :0.83677: L2-HR :0.82697: (Sim:1h43m56s) 
CPU  1 inst:   68000000 cyc:   64746754 now IPC :0.87661: AVG IPC :1.03513: L2-Pf-HR :0.82860: L2-HR :0.82047: (Sim:1h44m0s) 
CPU  2 inst:   69000000 cyc:   65712305 now IPC :0.96903: AVG IPC :1.03515: L2-Pf-HR :0.83674: L2-HR :0.82673: (Sim:1h44m56s) 
CPU  3 inst:   69000000 cyc:   65712724 now IPC :0.95326: AVG IPC :1.03514: L2-Pf-HR :0.83528: L2-HR :0.82512: (Sim:1h44m56s) 
CPU  0 inst:   69000000 cyc:   65721938 now IPC :0.92779: AVG IPC :1.03499: L2-Pf-HR :0.83780: L2-HR :0.82864: (Sim:1h44m57s) 
CPU  1 inst:   69000000 cyc:   65736001 now IPC :1.01087: AVG IPC :1.03476: L2-Pf-HR :0.82856: L2-HR :0.82023: (Sim:1h44m58s) 
CPU  2 inst:   70000001 cyc:   66670041 now IPC :1.04413: AVG IPC :1.03528: L2-Pf-HR :0.83673: L2-HR :0.82650: (Sim:1h46m12s) 
CPU  3 inst:   70000000 cyc:   66670619 now IPC :1.04396: AVG IPC :1.03527: L2-Pf-HR :0.83513: L2-HR :0.82486: (Sim:1h46m12s) 
CPU  1 inst:   70000000 cyc:   66674433 now IPC :1.06561: AVG IPC :1.03520: L2-Pf-HR :0.82840: L2-HR :0.81991: (Sim:1h46m13s) 
CPU  0 inst:   70000001 cyc:   66676495 now IPC :1.04761: AVG IPC :1.03518: L2-Pf-HR :0.83759: L2-HR :0.82825: (Sim:1h46m13s) 
CPU  3 inst:   71000003 cyc:   68041574 now IPC :0.72942: AVG IPC :1.02902: L2-Pf-HR :0.83507: L2-HR :0.82463: (Sim:1h48m21s) 
CPU  1 inst:   71000003 cyc:   68096889 now IPC :0.70301: AVG IPC :1.02816: L2-Pf-HR :0.82834: L2-HR :0.81963: (Sim:1h48m25s) 
CPU  0 inst:   71000003 cyc:   68106170 now IPC :0.69946: AVG IPC :1.02803: L2-Pf-HR :0.83756: L2-HR :0.82796: (Sim:1h48m27s) 
CPU  2 inst:   71000003 cyc:   68106683 now IPC :0.69607: AVG IPC :1.02802: L2-Pf-HR :0.83668: L2-HR :0.82623: (Sim:1h48m27s) 
CPU  1 inst:   72000003 cyc:   69119579 now IPC :0.97781: AVG IPC :1.02740: L2-Pf-HR :0.82803: L2-HR :0.81929: (Sim:1h50m16s) 
CPU  3 inst:   72000003 cyc:   69120410 now IPC :0.92692: AVG IPC :1.02740: L2-Pf-HR :0.83488: L2-HR :0.82445: (Sim:1h50m16s) 
CPU  0 inst:   72000003 cyc:   69128857 now IPC :0.97782: AVG IPC :1.02727: L2-Pf-HR :0.83745: L2-HR :0.82775: (Sim:1h50m17s) 
CPU  2 inst:   72000003 cyc:   69136860 now IPC :0.97071: AVG IPC :1.02715: L2-Pf-HR :0.83662: L2-HR :0.82612: (Sim:1h50m18s) 
CPU  0 inst:   73000004 cyc:   69984560 now IPC :1.16863: AVG IPC :1.02903: L2-Pf-HR :0.83731: L2-HR :0.82749: (Sim:1h51m59s) 
CPU  3 inst:   73000004 cyc:   70001963 now IPC :1.13436: AVG IPC :1.02876: L2-Pf-HR :0.83465: L2-HR :0.82421: (Sim:1h52m1s) 
CPU  1 inst:   73000004 cyc:   70002428 now IPC :1.13270: AVG IPC :1.02875: L2-Pf-HR :0.82781: L2-HR :0.81898: (Sim:1h52m1s) 
CPU  2 inst:   73000004 cyc:   70030255 now IPC :1.11933: AVG IPC :1.02835: L2-Pf-HR :0.83658: L2-HR :0.82597: (Sim:1h52m4s) 
CPU  1 inst:   74000003 cyc:   70868982 now IPC :1.15400: AVG IPC :1.03030: L2-Pf-HR :0.82757: L2-HR :0.81869: (Sim:1h53m44s) 
CPU  2 inst:   74000005 cyc:   70878919 now IPC :1.17832: AVG IPC :1.03017: L2-Pf-HR :0.83643: L2-HR :0.82578: (Sim:1h53m45s) 
CPU  0 inst:   74000005 cyc:   70891311 now IPC :1.10284: AVG IPC :1.02998: L2-Pf-HR :0.83715: L2-HR :0.82726: (Sim:1h53m47s) 
CPU  3 inst:   74000005 cyc:   70892110 now IPC :1.12341: AVG IPC :1.02997: L2-Pf-HR :0.83440: L2-HR :0.82395: (Sim:1h53m47s) 
CPU  0 inst:   75000001 cyc:   71743573 now IPC :1.17334: AVG IPC :1.03171: L2-Pf-HR :0.83715: L2-HR :0.82714: (Sim:1h55m29s) 
CPU  2 inst:   75000001 cyc:   71750926 now IPC :1.14678: AVG IPC :1.03161: L2-Pf-HR :0.83644: L2-HR :0.82572: (Sim:1h55m30s) 
CPU  1 inst:   75000001 cyc:   71758397 now IPC :1.12433: AVG IPC :1.03148: L2-Pf-HR :0.82741: L2-HR :0.81845: (Sim:1h55m31s) 
CPU  3 inst:   75000001 cyc:   71762863 now IPC :1.14843: AVG IPC :1.03143: L2-Pf-HR :0.83429: L2-HR :0.82379: (Sim:1h55m32s) 
CPU  2 inst:   76000005 cyc:   72535253 now IPC :1.27498: AVG IPC :1.03427: L2-Pf-HR :0.83637: L2-HR :0.82561: (Sim:1h57m9s) 
CPU  0 inst:   76000005 cyc:   72541627 now IPC :1.25305: AVG IPC :1.03418: L2-Pf-HR :0.83703: L2-HR :0.82693: (Sim:1h57m10s) 
CPU  3 inst:   76000005 cyc:   72545438 now IPC :1.27784: AVG IPC :1.03412: L2-Pf-HR :0.83405: L2-HR :0.82356: (Sim:1h57m10s) 
CPU  1 inst:   76000005 cyc:   72585162 now IPC :1.20954: AVG IPC :1.03354: L2-Pf-HR :0.82722: L2-HR :0.81819: (Sim:1h57m17s) 
CPU  0 inst:   77000001 cyc:   73644901 now IPC :0.90639: AVG IPC :1.03224: L2-Pf-HR :0.83713: L2-HR :0.82690: (Sim:1h59m6s) 
CPU  2 inst:   77000002 cyc:   73651090 now IPC :0.89619: AVG IPC :1.03215: L2-Pf-HR :0.83654: L2-HR :0.82564: (Sim:1h59m6s) 
CPU  3 inst:   77000001 cyc:   73657977 now IPC :0.89884: AVG IPC :1.03205: L2-Pf-HR :0.83420: L2-HR :0.82365: (Sim:1h59m7s) 
CPU  1 inst:   77000001 cyc:   73694459 now IPC :0.90147: AVG IPC :1.03153: L2-Pf-HR :0.82759: L2-HR :0.81839: (Sim:1h59m10s) 
CPU  0 inst:   78000002 cyc:   74527849 now IPC :1.13257: AVG IPC :1.03344: L2-Pf-HR :0.83782: L2-HR :0.82778: (Sim:2h0m48s) 
CPU  3 inst:   78000002 cyc:   74536456 now IPC :1.13833: AVG IPC :1.03332: L2-Pf-HR :0.83500: L2-HR :0.82476: (Sim:2h0m49s) 
CPU  2 inst:   78000002 cyc:   74539708 now IPC :1.12534: AVG IPC :1.03328: L2-Pf-HR :0.83720: L2-HR :0.82649: (Sim:2h0m50s) 
CPU  1 inst:   78000002 cyc:   74561710 now IPC :1.15307: AVG IPC :1.03296: L2-Pf-HR :0.82844: L2-HR :0.81944: (Sim:2h0m53s) 
CPU  2 inst:   79000000 cyc:   75409233 now IPC :1.15005: AVG IPC :1.03464: L2-Pf-HR :0.83788: L2-HR :0.82738: (Sim:2h2m33s) 
CPU  0 inst:   79000000 cyc:   75409717 now IPC :1.13395: AVG IPC :1.03463: L2-Pf-HR :0.83853: L2-HR :0.82869: (Sim:2h2m33s) 
CPU  3 inst:   79000000 cyc:   75430804 now IPC :1.11813: AVG IPC :1.03434: L2-Pf-HR :0.83578: L2-HR :0.82585: (Sim:2h2m36s) 
CPU  1 inst:   79000000 cyc:   75446352 now IPC :1.13040: AVG IPC :1.03412: L2-Pf-HR :0.82928: L2-HR :0.82051: (Sim:2h2m38s) 
CPU  0 inst:   80000000 cyc:   76303726 now IPC :1.11856: AVG IPC :1.03563: L2-Pf-HR :0.83919: L2-HR :0.82956: (Sim:2h4m19s) 
CPU  3 inst:   80000000 cyc:   76314024 now IPC :1.13222: AVG IPC :1.03549: L2-Pf-HR :0.83652: L2-HR :0.82689: (Sim:2h4m20s) 
CPU  2 inst:   80000000 cyc:   76328767 now IPC :1.08751: AVG IPC :1.03529: L2-Pf-HR :0.83855: L2-HR :0.82825: (Sim:2h4m21s) 
CPU  1 inst:   80000000 cyc:   76331174 now IPC :1.13017: AVG IPC :1.03524: L2-Pf-HR :0.83015: L2-HR :0.82157: (Sim:2h4m22s) 
CPU  3 inst:   81000004 cyc:   77699416 now IPC :0.72182: AVG IPC :1.02982: L2-Pf-HR :0.83719: L2-HR :0.82764: (Sim:2h6m28s) 
CPU  0 inst:   81000003 cyc:   77766003 now IPC :0.68387: AVG IPC :1.02893: L2-Pf-HR :0.83973: L2-HR :0.83009: (Sim:2h6m34s) 
CPU  2 inst:   81000003 cyc:   77769586 now IPC :0.69405: AVG IPC :1.02889: L2-Pf-HR :0.83909: L2-HR :0.82879: (Sim:2h6m34s) 
CPU  1 inst:   81000004 cyc:   77793707 now IPC :0.68375: AVG IPC :1.02855: L2-Pf-HR :0.83102: L2-HR :0.82240: (Sim:2h6m37s) 
CPU  3 inst:   82000005 cyc:   78938413 now IPC :0.80711: AVG IPC :1.02628: L2-Pf-HR :0.83698: L2-HR :0.82735: (Sim:2h8m32s) 
CPU  2 inst:   82000005 cyc:   78939639 now IPC :0.85466: AVG IPC :1.02627: L2-Pf-HR :0.83912: L2-HR :0.82869: (Sim:2h8m32s) 
CPU  1 inst:   82000004 cyc:   78950646 now IPC :0.86435: AVG IPC :1.02611: L2-Pf-HR :0.83084: L2-HR :0.82214: (Sim:2h8m34s) 
CPU  0 inst:   82000004 cyc:   78953160 now IPC :0.84235: AVG IPC :1.02609: L2-Pf-HR :0.83959: L2-HR :0.82988: (Sim:2h8m34s) 
CPU  0 inst:   83000004 cyc:   79911675 now IPC :1.04328: AVG IPC :1.02630: L2-Pf-HR :0.83945: L2-HR :0.82968: (Sim:2h10m24s) 
CPU  2 inst:   83000004 cyc:   79913869 now IPC :1.02645: AVG IPC :1.02627: L2-Pf-HR :0.83913: L2-HR :0.82855: (Sim:2h10m25s) 
CPU  3 inst:   83000004 cyc:   79919336 now IPC :1.01945: AVG IPC :1.02620: L2-Pf-HR :0.83670: L2-HR :0.82698: (Sim:2h10m25s) 
CPU  1 inst:   83000004 cyc:   79931357 now IPC :1.01967: AVG IPC :1.02603: L2-Pf-HR :0.83064: L2-HR :0.82183: (Sim:2h10m27s) 
CPU  3 inst:   84000000 cyc:   80946364 now IPC :0.97368: AVG IPC :1.02552: L2-Pf-HR :0.83655: L2-HR :0.82674: (Sim:2h12m18s) 
CPU  0 inst:   84000000 cyc:   80961991 now IPC :0.95209: AVG IPC :1.02532: L2-Pf-HR :0.83930: L2-HR :0.82948: (Sim:2h12m20s) 
CPU  2 inst:   84000000 cyc:   80965226 now IPC :0.95115: AVG IPC :1.02528: L2-Pf-HR :0.83919: L2-HR :0.82847: (Sim:2h12m20s) 
CPU  1 inst:   84000000 cyc:   80997036 now IPC :0.93837: AVG IPC :1.02487: L2-Pf-HR :0.83051: L2-HR :0.82159: (Sim:2h12m24s) 
CPU  2 inst:   85000001 cyc:   82007859 now IPC :0.95911: AVG IPC :1.02443: L2-Pf-HR :0.83921: L2-HR :0.82834: (Sim:2h14m12s) 
CPU  0 inst:   85000001 cyc:   82043240 now IPC :0.92486: AVG IPC :1.02398: L2-Pf-HR :0.83919: L2-HR :0.82930: (Sim:2h14m16s) 
CPU  3 inst:   85000001 cyc:   82074134 now IPC :0.88671: AVG IPC :1.02359: L2-Pf-HR :0.83637: L2-HR :0.82647: (Sim:2h14m19s) 
CPU  1 inst:   85000001 cyc:   82102860 now IPC :0.90430: AVG IPC :1.02322: L2-Pf-HR :0.83044: L2-HR :0.82141: (Sim:2h14m22s) 
CPU  2 inst:   86000002 cyc:   83078755 now IPC :0.93380: AVG IPC :1.02325: L2-Pf-HR :0.83919: L2-HR :0.82820: (Sim:2h16m10s) 
CPU  1 inst:   86000001 cyc:   83080933 now IPC :1.02242: AVG IPC :1.02321: L2-Pf-HR :0.83027: L2-HR :0.82117: (Sim:2h16m10s) 
CPU  0 inst:   86000003 cyc:   83083608 now IPC :0.96120: AVG IPC :1.02319: L2-Pf-HR :0.83901: L2-HR :0.82907: (Sim:2h16m10s) 
CPU  3 inst:   86000003 cyc:   83083610 now IPC :0.99061: AVG IPC :1.02319: L2-Pf-HR :0.83616: L2-HR :0.82618: (Sim:2h16m10s) 
CPU  0 inst:   87000002 cyc:   84220695 now IPC :0.87944: AVG IPC :1.02122: L2-Pf-HR :0.83904: L2-HR :0.82894: (Sim:2h18m12s) 
CPU  3 inst:   87000002 cyc:   84229366 now IPC :0.87279: AVG IPC :1.02112: L2-Pf-HR :0.83620: L2-HR :0.82603: (Sim:2h18m12s) 
CPU  1 inst:   87000002 cyc:   84238120 now IPC :0.86417: AVG IPC :1.02100: L2-Pf-HR :0.83033: L2-HR :0.82104: (Sim:2h18m13s) 
CPU  2 inst:   87000002 cyc:   84250041 now IPC :0.85376: AVG IPC :1.02087: L2-Pf-HR :0.83923: L2-HR :0.82804: (Sim:2h18m14s) 
CPU  3 inst:   88000000 cyc:   85472210 now IPC :0.80460: AVG IPC :1.01793: L2-Pf-HR :0.83603: L2-HR :0.82580: (Sim:2h20m9s) 
CPU  0 inst:   88000000 cyc:   85504611 now IPC :0.77887: AVG IPC :1.01754: L2-Pf-HR :0.83883: L2-HR :0.82869: (Sim:2h20m13s) 
CPU  2 inst:   88000000 cyc:   85522618 now IPC :0.78581: AVG IPC :1.01733: L2-Pf-HR :0.83902: L2-HR :0.82776: (Sim:2h20m15s) 
CPU  1 inst:   88000000 cyc:   85522722 now IPC :0.77845: AVG IPC :1.01732: L2-Pf-HR :0.83009: L2-HR :0.82079: (Sim:2h20m15s) 
CPU  0 inst:   89000004 cyc:   86383465 now IPC :1.13785: AVG IPC :1.01878: L2-Pf-HR :0.83870: L2-HR :0.82849: (Sim:2h21m58s) 
CPU  3 inst:   89000001 cyc:   86385471 now IPC :1.09498: AVG IPC :1.01876: L2-Pf-HR :0.83599: L2-HR :0.82565: (Sim:2h21m58s) 
CPU  2 inst:   89000001 cyc:   86391219 now IPC :1.15128: AVG IPC :1.01869: L2-Pf-HR :0.83895: L2-HR :0.82758: (Sim:2h21m59s) 
CPU  1 inst:   89000001 cyc:   86393211 now IPC :1.14878: AVG IPC :1.01866: L2-Pf-HR :0.82983: L2-HR :0.82053: (Sim:2h21m59s) 
CPU  3 inst:   90000002 cyc:   87252984 now IPC :1.15272: AVG IPC :1.02010: L2-Pf-HR :0.83592: L2-HR :0.82547: (Sim:2h23m41s) 
CPU  1 inst:   90000002 cyc:   87284397 now IPC :1.12210: AVG IPC :1.01972: L2-Pf-HR :0.82964: L2-HR :0.82035: (Sim:2h23m44s) 
CPU  0 inst:   90000002 cyc:   87287348 now IPC :1.10634: AVG IPC :1.01970: L2-Pf-HR :0.83861: L2-HR :0.82832: (Sim:2h23m45s) 
CPU  2 inst:   90000002 cyc:   87297065 now IPC :1.10394: AVG IPC :1.01959: L2-Pf-HR :0.83890: L2-HR :0.82741: (Sim:2h23m46s) 
CPU  2 inst:   91000000 cyc:   88108891 now IPC :1.23179: AVG IPC :1.02156: L2-Pf-HR :0.83888: L2-HR :0.82728: (Sim:2h25m27s) 
CPU  0 inst:   91000000 cyc:   88111390 now IPC :1.21353: AVG IPC :1.02153: L2-Pf-HR :0.83846: L2-HR :0.82814: (Sim:2h25m27s) 
CPU  3 inst:   91000000 cyc:   88116334 now IPC :1.15828: AVG IPC :1.02147: L2-Pf-HR :0.83588: L2-HR :0.82534: (Sim:2h25m28s) 
CPU  1 inst:   91000000 cyc:   88121383 now IPC :1.19476: AVG IPC :1.02141: L2-Pf-HR :0.82951: L2-HR :0.82021: (Sim:2h25m29s) 
CPU  3 inst:   92000005 cyc:   88941802 now IPC :1.21144: AVG IPC :1.02325: L2-Pf-HR :0.83588: L2-HR :0.82523: (Sim:2h27m10s) 
CPU  0 inst:   92000005 cyc:   88945182 now IPC :1.19935: AVG IPC :1.02322: L2-Pf-HR :0.83839: L2-HR :0.82801: (Sim:2h27m11s) 
CPU  2 inst:   92000005 cyc:   88949490 now IPC :1.18963: AVG IPC :1.02317: L2-Pf-HR :0.83886: L2-HR :0.82716: (Sim:2h27m11s) 
CPU  1 inst:   92000005 cyc:   88954088 now IPC :1.20091: AVG IPC :1.02310: L2-Pf-HR :0.82937: L2-HR :0.82005: (Sim:2h27m12s) 
CPU  3 inst:   93000001 cyc:   89899886 now IPC :1.04375: AVG IPC :1.02348: L2-Pf-HR :0.83604: L2-HR :0.82520: (Sim:2h29m2s) 
CPU  2 inst:   93000001 cyc:   89914198 now IPC :1.03658: AVG IPC :1.02331: L2-Pf-HR :0.83898: L2-HR :0.82709: (Sim:2h29m3s) 
CPU  0 inst:   93000001 cyc:   89919174 now IPC :1.02670: AVG IPC :1.02326: L2-Pf-HR :0.83851: L2-HR :0.82797: (Sim:2h29m3s) 
CPU  1 inst:   93000001 cyc:   89919191 now IPC :1.03615: AVG IPC :1.02325: L2-Pf-HR :0.82952: L2-HR :0.82006: (Sim:2h29m3s) 
CPU  3 inst:   94000002 cyc:   90867477 now IPC :1.03350: AVG IPC :1.02358: L2-Pf-HR :0.83656: L2-HR :0.82587: (Sim:2h30m50s) 
CPU  2 inst:   94000002 cyc:   90870117 now IPC :1.04611: AVG IPC :1.02356: L2-Pf-HR :0.83944: L2-HR :0.82771: (Sim:2h30m51s) 
CPU  0 inst:   94000005 cyc:   90870317 now IPC :1.05137: AVG IPC :1.02355: L2-Pf-HR :0.83890: L2-HR :0.82845: (Sim:2h30m51s) 
CPU  1 inst:   94000005 cyc:   90877374 now IPC :1.04365: AVG IPC :1.02346: L2-Pf-HR :0.83000: L2-HR :0.82071: (Sim:2h30m52s) 
CPU  3 inst:   95000001 cyc:   91737369 now IPC :1.14957: AVG IPC :1.02479: L2-Pf-HR :0.83714: L2-HR :0.82660: (Sim:2h32m35s) 
CPU  1 inst:   95000001 cyc:   91750572 now IPC :1.14521: AVG IPC :1.02464: L2-Pf-HR :0.83058: L2-HR :0.82144: (Sim:2h32m36s) 
CPU  2 inst:   95000003 cyc:   91758870 now IPC :1.12517: AVG IPC :1.02455: L2-Pf-HR :0.83994: L2-HR :0.82840: (Sim:2h32m37s) 
CPU  0 inst:   95000002 cyc:   91780204 now IPC :1.09903: AVG IPC :1.02431: L2-Pf-HR :0.83933: L2-HR :0.82897: (Sim:2h32m39s) 
CPU  1 inst:   96000004 cyc:   92642718 now IPC :1.12090: AVG IPC :1.02557: L2-Pf-HR :0.83119: L2-HR :0.82223: (Sim:2h34m23s) 
CPU  2 inst:   96000003 cyc:   92643284 now IPC :1.13069: AVG IPC :1.02558: L2-Pf-HR :0.84042: L2-HR :0.82908: (Sim:2h34m23s) 
CPU  3 inst:   96000002 cyc:   92656503 now IPC :1.08798: AVG IPC :1.02542: L2-Pf-HR :0.83773: L2-HR :0.82736: (Sim:2h34m25s) 
CPU  0 inst:   96000004 cyc:   92661299 now IPC :1.13495: AVG IPC :1.02537: L2-Pf-HR :0.83978: L2-HR :0.82951: (Sim:2h34m25s) 
CPU  0 inst:   97000001 cyc:   93708377 now IPC :0.95504: AVG IPC :1.02458: L2-Pf-HR :0.84031: L2-HR :0.82998: (Sim:2h36m27s) 
CPU  1 inst:   97000000 cyc:   93709578 now IPC :0.93733: AVG IPC :1.02456: L2-Pf-HR :0.83194: L2-HR :0.82298: (Sim:2h36m27s) 
CPU  2 inst:   97000001 cyc:   93717910 now IPC :0.93055: AVG IPC :1.02447: L2-Pf-HR :0.84103: L2-HR :0.82971: (Sim:2h36m27s) 
CPU  3 inst:   97000000 cyc:   93723731 now IPC :0.93701: AVG IPC :1.02441: L2-Pf-HR :0.83843: L2-HR :0.82806: (Sim:2h36m28s) 
CPU  2 inst:   98000000 cyc:   95210386 now IPC :0.67003: AVG IPC :1.01886: L2-Pf-HR :0.84073: L2-HR :0.82942: (Sim:2h38m50s) 
CPU  1 inst:   98000000 cyc:   95220267 now IPC :0.66195: AVG IPC :1.01874: L2-Pf-HR :0.83173: L2-HR :0.82271: (Sim:2h38m52s) 
CPU  0 inst:   98000000 cyc:   95224399 now IPC :0.65962: AVG IPC :1.01871: L2-Pf-HR :0.84011: L2-HR :0.82968: (Sim:2h38m52s) 
CPU  3 inst:   98000000 cyc:   95244975 now IPC :0.65736: AVG IPC :1.01848: L2-Pf-HR :0.83821: L2-HR :0.82784: (Sim:2h38m55s) 
CPU  3 inst:   99000000 cyc:   96228709 now IPC :1.01653: AVG IPC :1.01846: L2-Pf-HR :0.83805: L2-HR :0.82767: (Sim:2h40m46s) 
CPU  1 inst:   99000001 cyc:   96245656 now IPC :0.97524: AVG IPC :1.01828: L2-Pf-HR :0.83155: L2-HR :0.82247: (Sim:2h40m47s) 
CPU  0 inst:   99000005 cyc:   96249368 now IPC :0.97564: AVG IPC :1.01824: L2-Pf-HR :0.84007: L2-HR :0.82951: (Sim:2h40m48s) 
CPU  2 inst:   99000000 cyc:   96253953 now IPC :0.95825: AVG IPC :1.01820: L2-Pf-HR :0.84055: L2-HR :0.82923: (Sim:2h40m49s) 
CPU  3 inst:  100000000 cyc:   97238099 now IPC :0.99070: AVG IPC :1.01817: L2-Pf-HR :0.83788: L2-HR :0.82750: (Sim:2h42m39s) 
CPU  1 inst:  100000003 cyc:   97269819 now IPC :0.97641: AVG IPC :1.01783: L2-Pf-HR :0.83136: L2-HR :0.82222: (Sim:2h42m43s) 
CPU  0 inst:  100000000 cyc:   97282748 now IPC :0.96769: AVG IPC :1.01770: L2-Pf-HR :0.83997: L2-HR :0.82929: (Sim:2h42m45s) 
CPU  2 inst:  100000000 cyc:   97286064 now IPC :0.96889: AVG IPC :1.01767: L2-Pf-HR :0.84031: L2-HR :0.82898: (Sim:2h42m45s) 
CPU  1 inst:  101000000 cyc:   98312082 now IPC :0.95945: AVG IPC :1.01720: L2-Pf-HR :0.83121: L2-HR :0.82202: (Sim:2h44m38s) 
CPU  2 inst:  101000000 cyc:   98330888 now IPC :0.95710: AVG IPC :1.01702: L2-Pf-HR :0.84010: L2-HR :0.82878: (Sim:2h44m40s) 
CPU  3 inst:  101000000 cyc:   98339351 now IPC :0.90806: AVG IPC :1.01693: L2-Pf-HR :0.83776: L2-HR :0.82738: (Sim:2h44m41s) 
CPU  0 inst:  101000000 cyc:   98344706 now IPC :0.94166: AVG IPC :1.01687: L2-Pf-HR :0.83985: L2-HR :0.82905: (Sim:2h44m42s) 
CPU  3 inst:  102000002 cyc:   99316714 now IPC :1.02316: AVG IPC :1.01699: L2-Pf-HR :0.83764: L2-HR :0.82724: (Sim:2h46m31s) 
CPU  2 inst:  102000002 cyc:   99347078 now IPC :0.98407: AVG IPC :1.01668: L2-Pf-HR :0.83989: L2-HR :0.82856: (Sim:2h46m35s) 
CPU  0 inst:  102000004 cyc:   99358625 now IPC :0.98628: AVG IPC :1.01656: L2-Pf-HR :0.83977: L2-HR :0.82884: (Sim:2h46m36s) 
CPU  1 inst:  102000005 cyc:   99372756 now IPC :0.94280: AVG IPC :1.01640: L2-Pf-HR :0.83106: L2-HR :0.82181: (Sim:2h46m38s) 
CPU  3 inst:  103000005 cyc:   99969226 now IPC :1.53254: AVG IPC :1.02039: L2-Pf-HR :0.83777: L2-HR :0.82726: (Sim:2h48m8s) 
CPU  2 inst:  103000005 cyc:   99986795 now IPC :1.56320: AVG IPC :1.02021: L2-Pf-HR :0.83994: L2-HR :0.82853: (Sim:2h48m10s) 
CPU  1 inst:  103000005 cyc:   99995539 now IPC :1.60570: AVG IPC :1.02011: L2-Pf-HR :0.83115: L2-HR :0.82178: (Sim:2h48m12s) 
CPU  0 inst:  103000005 cyc:  100008288 now IPC :1.53926: AVG IPC :1.01999: L2-Pf-HR :0.83987: L2-HR :0.82878: (Sim:2h48m13s) 
CPU  3 inst:  104000005 cyc:  101737410 now IPC :0.56555: AVG IPC :1.01240: L2-Pf-HR :0.83750: L2-HR :0.82696: (Sim:2h50m38s) 
CPU  1 inst:  104000002 cyc:  101748606 now IPC :0.57043: AVG IPC :1.01229: L2-Pf-HR :0.83099: L2-HR :0.82155: (Sim:2h50m40s) 
CPU  2 inst:  104000005 cyc:  101760381 now IPC :0.56383: AVG IPC :1.01218: L2-Pf-HR :0.83971: L2-HR :0.82823: (Sim:2h50m41s) 
CPU  0 inst:  104000002 cyc:  101772477 now IPC :0.56683: AVG IPC :1.01205: L2-Pf-HR :0.83957: L2-HR :0.82844: (Sim:2h50m42s) 
CPU  0 inst:  105000002 cyc:  102630614 now IPC :1.16532: AVG IPC :1.01335: L2-Pf-HR :0.83940: L2-HR :0.82824: (Sim:2h52m26s) 
CPU  2 inst:  105000002 cyc:  102637762 now IPC :1.13975: AVG IPC :1.01328: L2-Pf-HR :0.83961: L2-HR :0.82803: (Sim:2h52m27s) 
CPU  3 inst:  105000002 cyc:  102646485 now IPC :1.10002: AVG IPC :1.01319: L2-Pf-HR :0.83731: L2-HR :0.82673: (Sim:2h52m28s) 
CPU  1 inst:  105000002 cyc:  102673471 now IPC :1.08124: AVG IPC :1.01291: L2-Pf-HR :0.83078: L2-HR :0.82131: (Sim:2h52m30s) 
CPU  3 inst:  106000002 cyc:  103521855 now IPC :1.14237: AVG IPC :1.01429: L2-Pf-HR :0.83713: L2-HR :0.82653: (Sim:2h54m14s) 
CPU  1 inst:  106000002 cyc:  103528187 now IPC :1.16998: AVG IPC :1.01422: L2-Pf-HR :0.83068: L2-HR :0.82115: (Sim:2h54m14s) 
CPU  2 inst:  106000000 cyc:  103533281 now IPC :1.11667: AVG IPC :1.01418: L2-Pf-HR :0.83953: L2-HR :0.82789: (Sim:2h54m15s) 
CPU  0 inst:  106000000 cyc:  103549728 now IPC :1.08800: AVG IPC :1.01402: L2-Pf-HR :0.83920: L2-HR :0.82800: (Sim:2h54m17s) 
CPU  2 inst:  107000000 cyc:  104373074 now IPC :1.19077: AVG IPC :1.01561: L2-Pf-HR :0.83941: L2-HR :0.82772: (Sim:2h55m59s) 
CPU  0 inst:  107000000 cyc:  104377570 now IPC :1.20796: AVG IPC :1.01557: L2-Pf-HR :0.83905: L2-HR :0.82780: (Sim:2h55m59s) 
CPU  1 inst:  107000000 cyc:  104396305 now IPC :1.15191: AVG IPC :1.01538: L2-Pf-HR :0.83061: L2-HR :0.82102: (Sim:2h56m1s) 
CPU  3 inst:  107000000 cyc:  104402560 now IPC :1.13545: AVG IPC :1.01532: L2-Pf-HR :0.83703: L2-HR :0.82638: (Sim:2h56m2s) 
CPU  0 inst:  108000000 cyc:  105259645 now IPC :1.13369: AVG IPC :1.01657: L2-Pf-HR :0.83885: L2-HR :0.82759: (Sim:2h57m49s) 
CPU  2 inst:  108000000 cyc:  105264744 now IPC :1.12149: AVG IPC :1.01652: L2-Pf-HR :0.83930: L2-HR :0.82755: (Sim:2h57m49s) 
CPU  1 inst:  108000000 cyc:  105268150 now IPC :1.14699: AVG IPC :1.01648: L2-Pf-HR :0.83048: L2-HR :0.82086: (Sim:2h57m50s) 
CPU  3 inst:  108000000 cyc:  105274985 now IPC :1.14623: AVG IPC :1.01642: L2-Pf-HR :0.83685: L2-HR :0.82618: (Sim:2h57m51s) 
CPU  0 inst:  109000001 cyc:  105808144 now IPC :1.82316: AVG IPC :1.02079: L2-Pf-HR :0.83899: L2-HR :0.82763: (Sim:2h59m22s) 
CPU  1 inst:  109000001 cyc:  105808646 now IPC :1.85015: AVG IPC :1.02078: L2-Pf-HR :0.83063: L2-HR :0.82088: (Sim:2h59m22s) 
CPU  2 inst:  109000001 cyc:  105809530 now IPC :1.83558: AVG IPC :1.02078: L2-Pf-HR :0.83947: L2-HR :0.82759: (Sim:2h59m22s) 
CPU  3 inst:  109000001 cyc:  105813329 now IPC :1.85755: AVG IPC :1.02074: L2-Pf-HR :0.83697: L2-HR :0.82619: (Sim:2h59m23s) 
CPU  3 inst:  110000000 cyc:  107208770 now IPC :0.71662: AVG IPC :1.01674: L2-Pf-HR :0.83734: L2-HR :0.82676: (Sim:3h1m34s) 
CPU  1 inst:  110000000 cyc:  107220678 now IPC :0.70820: AVG IPC :1.01662: L2-Pf-HR :0.83082: L2-HR :0.82116: (Sim:3h1m36s) 
CPU  2 inst:  110000000 cyc:  107224555 now IPC :0.70670: AVG IPC :1.01659: L2-Pf-HR :0.83981: L2-HR :0.82810: (Sim:3h1m36s) 
CPU  0 inst:  110000000 cyc:  107226961 now IPC :0.70481: AVG IPC :1.01657: L2-Pf-HR :0.83927: L2-HR :0.82807: (Sim:3h1m37s) 
CPU  2 inst:  111000003 cyc:  108070596 now IPC :1.18198: AVG IPC :1.01790: L2-Pf-HR :0.84033: L2-HR :0.82885: (Sim:3h3m22s) 
CPU  1 inst:  111000003 cyc:  108077152 now IPC :1.16758: AVG IPC :1.01783: L2-Pf-HR :0.83117: L2-HR :0.82164: (Sim:3h3m23s) 
CPU  3 inst:  111000003 cyc:  108079160 now IPC :1.14891: AVG IPC :1.01782: L2-Pf-HR :0.83791: L2-HR :0.82760: (Sim:3h3m23s) 
CPU  0 inst:  111000003 cyc:  108088098 now IPC :1.16126: AVG IPC :1.01773: L2-Pf-HR :0.83973: L2-HR :0.82872: (Sim:3h3m24s) 
CPU  1 inst:  112000005 cyc:  108961351 now IPC :1.13097: AVG IPC :1.01876: L2-Pf-HR :0.83156: L2-HR :0.82214: (Sim:3h5m9s) 
CPU  0 inst:  112000005 cyc:  108965763 now IPC :1.13939: AVG IPC :1.01872: L2-Pf-HR :0.84019: L2-HR :0.82939: (Sim:3h5m9s) 
CPU  3 inst:  112000005 cyc:  108987273 now IPC :1.10119: AVG IPC :1.01852: L2-Pf-HR :0.83847: L2-HR :0.82841: (Sim:3h5m12s) 
CPU  2 inst:  112000000 cyc:  108992918 now IPC :1.08422: AVG IPC :1.01847: L2-Pf-HR :0.84085: L2-HR :0.82959: (Sim:3h5m12s) 
CPU  1 inst:  113000003 cyc:  109628398 now IPC :1.49914: AVG IPC :1.02171: L2-Pf-HR :0.83220: L2-HR :0.82281: (Sim:3h6m44s) 
CPU  3 inst:  113000003 cyc:  109644383 now IPC :1.52181: AVG IPC :1.02156: L2-Pf-HR :0.83929: L2-HR :0.82940: (Sim:3h6m47s) 
CPU  0 inst:  113000003 cyc:  109651278 now IPC :1.45875: AVG IPC :1.02150: L2-Pf-HR :0.84087: L2-HR :0.83017: (Sim:3h6m48s) 
CPU  2 inst:  113000003 cyc:  109652411 now IPC :1.51632: AVG IPC :1.02149: L2-Pf-HR :0.84163: L2-HR :0.83050: (Sim:3h6m49s) 
CPU  1 inst:  114000001 cyc:  111570805 now IPC :0.51482: AVG IPC :1.01280: L2-Pf-HR :0.83196: L2-HR :0.82250: (Sim:3h9m25s) 
CPU  3 inst:  114000001 cyc:  111575754 now IPC :0.51777: AVG IPC :1.01276: L2-Pf-HR :0.83898: L2-HR :0.82905: (Sim:3h9m26s) 
CPU  2 inst:  114000001 cyc:  111608464 now IPC :0.51123: AVG IPC :1.01247: L2-Pf-HR :0.84140: L2-HR :0.83017: (Sim:3h9m30s) 
CPU  0 inst:  114000001 cyc:  111615806 now IPC :0.50903: AVG IPC :1.01240: L2-Pf-HR :0.84056: L2-HR :0.82982: (Sim:3h9m30s) 
CPU  2 inst:  115000004 cyc:  112566049 now IPC :1.04430: AVG IPC :1.01274: L2-Pf-HR :0.84128: L2-HR :0.82995: (Sim:3h11m21s) 
CPU  3 inst:  115000004 cyc:  112581947 now IPC :0.99385: AVG IPC :1.01259: L2-Pf-HR :0.83879: L2-HR :0.82881: (Sim:3h11m23s) 
CPU  1 inst:  115000004 cyc:  112583608 now IPC :0.98736: AVG IPC :1.01257: L2-Pf-HR :0.83180: L2-HR :0.82228: (Sim:3h11m23s) 
CPU  0 inst:  115000004 cyc:  112601806 now IPC :1.01420: AVG IPC :1.01241: L2-Pf-HR :0.84038: L2-HR :0.82956: (Sim:3h11m26s) 
CPU  3 inst:  116000001 cyc:  113616022 now IPC :0.96704: AVG IPC :1.01217: L2-Pf-HR :0.83860: L2-HR :0.82859: (Sim:3h13m21s) 
CPU  0 inst:  116000001 cyc:  113623048 now IPC :0.97920: AVG IPC :1.01211: L2-Pf-HR :0.84020: L2-HR :0.82933: (Sim:3h13m22s) 
CPU  2 inst:  116000001 cyc:  113624950 now IPC :0.94437: AVG IPC :1.01210: L2-Pf-HR :0.84115: L2-HR :0.82973: (Sim:3h13m22s) 
CPU  1 inst:  116000001 cyc:  113644097 now IPC :0.94296: AVG IPC :1.01192: L2-Pf-HR :0.83172: L2-HR :0.82212: (Sim:3h13m24s) 
CPU  3 inst:  117000004 cyc:  114655302 now IPC :0.96221: AVG IPC :1.01172: L2-Pf-HR :0.83837: L2-HR :0.82835: (Sim:3h15m14s) 
CPU  2 inst:  117000004 cyc:  114666809 now IPC :0.95983: AVG IPC :1.01162: L2-Pf-HR :0.84100: L2-HR :0.82950: (Sim:3h15m16s) 
CPU  0 inst:  117000004 cyc:  114675344 now IPC :0.95031: AVG IPC :1.01154: L2-Pf-HR :0.84002: L2-HR :0.82911: (Sim:3h15m17s) 
CPU  1 inst:  117000004 cyc:  114747838 now IPC :0.90601: AVG IPC :1.01089: L2-Pf-HR :0.83161: L2-HR :0.82195: (Sim:3h15m24s) 
CPU  3 inst:  118000000 cyc:  115737153 now IPC :0.92434: AVG IPC :1.01089: L2-Pf-HR :0.83814: L2-HR :0.82811: (Sim:3h17m13s) 
CPU  2 inst:  118000005 cyc:  115752780 now IPC :0.92084: AVG IPC :1.01076: L2-Pf-HR :0.84083: L2-HR :0.82926: (Sim:3h17m14s) 
CPU  0 inst:  118000000 cyc:  115758441 now IPC :0.92327: AVG IPC :1.01071: L2-Pf-HR :0.83984: L2-HR :0.82889: (Sim:3h17m15s) 
CPU  1 inst:  118000002 cyc:  115796421 now IPC :0.95367: AVG IPC :1.01037: L2-Pf-HR :0.83145: L2-HR :0.82174: (Sim:3h17m19s) 
CPU  3 inst:  119000002 cyc:  116429605 now IPC :1.44415: AVG IPC :1.01349: L2-Pf-HR :0.83814: L2-HR :0.82803: (Sim:3h18m36s) 
CPU  0 inst:  119000002 cyc:  116444642 now IPC :1.45730: AVG IPC :1.01336: L2-Pf-HR :0.83978: L2-HR :0.82874: (Sim:3h18m37s) 
CPU  2 inst:  119000002 cyc:  116454771 now IPC :1.42452: AVG IPC :1.01327: L2-Pf-HR :0.84082: L2-HR :0.82913: (Sim:3h18m38s) 
CPU  1 inst:  119000002 cyc:  116458109 now IPC :1.51129: AVG IPC :1.01324: L2-Pf-HR :0.83149: L2-HR :0.82168: (Sim:3h18m39s) 
CPU  0 inst:  120000000 cyc:  118146013 now IPC :0.58776: AVG IPC :1.00718: L2-Pf-HR :0.83955: L2-HR :0.82848: (Sim:3h19m54s) 
CPU  3 inst:  120000000 cyc:  118147191 now IPC :0.58221: AVG IPC :1.00717: L2-Pf-HR :0.83788: L2-HR :0.82776: (Sim:3h19m55s) 
CPU  1 inst:  120000000 cyc:  118184906 now IPC :0.57911: AVG IPC :1.00684: L2-Pf-HR :0.83124: L2-HR :0.82142: (Sim:3h19m57s) 
CPU  2 inst:  120000000 cyc:  118188788 now IPC :0.57669: AVG IPC :1.00681: L2-Pf-HR :0.84051: L2-HR :0.82881: (Sim:3h19m57s) 
CPU  0 inst:  121000000 cyc:  119024662 now IPC :1.13811: AVG IPC :1.00816: L2-Pf-HR :0.83944: L2-HR :0.82828: (Sim:3h21m10s) 
CPU  3 inst:  121000000 cyc:  119024802 now IPC :1.13946: AVG IPC :1.00815: L2-Pf-HR :0.83777: L2-HR :0.82762: (Sim:3h21m10s) 
CPU  2 inst:  121000000 cyc:  119026216 now IPC :1.19413: AVG IPC :1.00814: L2-Pf-HR :0.84030: L2-HR :0.82861: (Sim:3h21m11s) 
CPU  1 inst:  121000000 cyc:  119049782 now IPC :1.15624: AVG IPC :1.00793: L2-Pf-HR :0.83106: L2-HR :0.82125: (Sim:3h21m14s) 
CPU  3 inst:  122000001 cyc:  119915467 now IPC :1.12276: AVG IPC :1.00901: L2-Pf-HR :0.83768: L2-HR :0.82750: (Sim:3h23m2s) 
CPU  1 inst:  122000001 cyc:  119924048 now IPC :1.14382: AVG IPC :1.00893: L2-Pf-HR :0.83092: L2-HR :0.82111: (Sim:3h23m3s) 
CPU  2 inst:  122000001 cyc:  119929001 now IPC :1.10768: AVG IPC :1.00890: L2-Pf-HR :0.84009: L2-HR :0.82841: (Sim:3h23m3s) 
CPU  0 inst:  122000001 cyc:  119929028 now IPC :1.10575: AVG IPC :1.00890: L2-Pf-HR :0.83940: L2-HR :0.82815: (Sim:3h23m3s) 
CPU  3 inst:  123000003 cyc:  120804959 now IPC :1.12424: AVG IPC :1.00987: L2-Pf-HR :0.83756: L2-HR :0.82737: (Sim:3h24m52s) 
CPU  1 inst:  123000003 cyc:  120815465 now IPC :1.12181: AVG IPC :1.00977: L2-Pf-HR :0.83079: L2-HR :0.82100: (Sim:3h24m54s) 
CPU  0 inst:  123000002 cyc:  120828002 now IPC :1.11238: AVG IPC :1.00967: L2-Pf-HR :0.83929: L2-HR :0.82797: (Sim:3h24m55s) 
CPU  2 inst:  123000002 cyc:  120833449 now IPC :1.10565: AVG IPC :1.00963: L2-Pf-HR :0.83984: L2-HR :0.82818: (Sim:3h24m56s) 
CPU  3 inst:  124000002 cyc:  121645351 now IPC :1.18992: AVG IPC :1.01112: L2-Pf-HR :0.83744: L2-HR :0.82723: (Sim:3h26m43s) 
CPU  1 inst:  124000002 cyc:  121648793 now IPC :1.20001: AVG IPC :1.01109: L2-Pf-HR :0.83063: L2-HR :0.82087: (Sim:3h26m43s) 
CPU  0 inst:  124000002 cyc:  121651538 now IPC :1.21428: AVG IPC :1.01107: L2-Pf-HR :0.83920: L2-HR :0.82781: (Sim:3h26m44s) 
CPU  2 inst:  124000002 cyc:  121655855 now IPC :1.21594: AVG IPC :1.01104: L2-Pf-HR :0.83969: L2-HR :0.82802: (Sim:3h26m44s) 
CPU  2 inst:  125000005 cyc:  122222073 now IPC :1.76611: AVG IPC :1.01456: L2-Pf-HR :0.83966: L2-HR :0.82796: (Sim:3h28m14s) 
CPU  0 inst:  125000005 cyc:  122227582 now IPC :1.73598: AVG IPC :1.01451: L2-Pf-HR :0.83922: L2-HR :0.82772: (Sim:3h28m15s) 
CPU  1 inst:  125000005 cyc:  122229165 now IPC :1.72304: AVG IPC :1.01449: L2-Pf-HR :0.83068: L2-HR :0.82089: (Sim:3h28m15s) 
CPU  3 inst:  125000005 cyc:  122229741 now IPC :1.71119: AVG IPC :1.01450: L2-Pf-HR :0.83751: L2-HR :0.82724: (Sim:3h28m16s) 
CPU  1 inst:  126000005 cyc:  123551628 now IPC :0.75616: AVG IPC :1.01171: L2-Pf-HR :0.83093: L2-HR :0.82123: (Sim:3h30m28s) 
CPU  0 inst:  126000005 cyc:  123556794 now IPC :0.75233: AVG IPC :1.01167: L2-Pf-HR :0.83948: L2-HR :0.82815: (Sim:3h30m29s) 
CPU  3 inst:  126000005 cyc:  123559424 now IPC :0.75206: AVG IPC :1.01165: L2-Pf-HR :0.83768: L2-HR :0.82751: (Sim:3h30m29s) 
CPU  2 inst:  126000005 cyc:  123570774 now IPC :0.74145: AVG IPC :1.01156: L2-Pf-HR :0.83986: L2-HR :0.82829: (Sim:3h30m31s) 
CPU  2 inst:  127000005 cyc:  124387223 now IPC :1.22482: AVG IPC :1.01297: L2-Pf-HR :0.84025: L2-HR :0.82887: (Sim:3h32m17s) 
CPU  1 inst:  127000004 cyc:  124389842 now IPC :1.19301: AVG IPC :1.01294: L2-Pf-HR :0.83135: L2-HR :0.82182: (Sim:3h32m17s) 
CPU  0 inst:  127000005 cyc:  124405417 now IPC :1.17838: AVG IPC :1.01282: L2-Pf-HR :0.84000: L2-HR :0.82893: (Sim:3h32m19s) 
CPU  3 inst:  127000001 cyc:  124410932 now IPC :1.17438: AVG IPC :1.01277: L2-Pf-HR :0.83806: L2-HR :0.82803: (Sim:3h32m20s) 
CPU  3 inst:  128000005 cyc:  125278434 now IPC :1.15274: AVG IPC :1.01375: L2-Pf-HR :0.83848: L2-HR :0.82859: (Sim:3h34m9s) 
CPU  2 inst:  128000005 cyc:  125279847 now IPC :1.12029: AVG IPC :1.01374: L2-Pf-HR :0.84061: L2-HR :0.82942: (Sim:3h34m10s) 
CPU  0 inst:  128000005 cyc:  125280403 now IPC :1.14288: AVG IPC :1.01373: L2-Pf-HR :0.84050: L2-HR :0.82967: (Sim:3h34m10s) 
CPU  1 inst:  128000005 cyc:  125286158 now IPC :1.11568: AVG IPC :1.01368: L2-Pf-HR :0.83182: L2-HR :0.82245: (Sim:3h34m10s) 
CPU  3 inst:  129000005 cyc:  125977331 now IPC :1.43083: AVG IPC :1.01608: L2-Pf-HR :0.83897: L2-HR :0.82920: (Sim:3h35m49s) 
CPU  2 inst:  129000005 cyc:  125980748 now IPC :1.42674: AVG IPC :1.01605: L2-Pf-HR :0.84111: L2-HR :0.83008: (Sim:3h35m50s) 
CPU  0 inst:  129000005 cyc:  125980816 now IPC :1.42773: AVG IPC :1.01605: L2-Pf-HR :0.84116: L2-HR :0.83052: (Sim:3h35m50s) 
CPU  1 inst:  129000005 cyc:  125986390 now IPC :1.42810: AVG IPC :1.01600: L2-Pf-HR :0.83244: L2-HR :0.82319: (Sim:3h35m51s) 
CPU  1 inst:  130000004 cyc:  127848412 now IPC :0.53705: AVG IPC :1.00897: L2-Pf-HR :0.83243: L2-HR :0.82313: (Sim:3h38m27s) 
CPU  3 inst:  130000004 cyc:  127851532 now IPC :0.53356: AVG IPC :1.00895: L2-Pf-HR :0.83887: L2-HR :0.82907: (Sim:3h38m28s) 
CPU  2 inst:  130000004 cyc:  127853955 now IPC :0.53384: AVG IPC :1.00893: L2-Pf-HR :0.84104: L2-HR :0.82996: (Sim:3h38m28s) 
CPU  0 inst:  130000004 cyc:  127859157 now IPC :0.53238: AVG IPC :1.00889: L2-Pf-HR :0.84117: L2-HR :0.83046: (Sim:3h38m29s) 
CPU  2 inst:  131000002 cyc:  128824137 now IPC :1.03073: AVG IPC :1.00910: L2-Pf-HR :0.84098: L2-HR :0.82984: (Sim:3h40m20s) 
CPU  3 inst:  131000002 cyc:  128835064 now IPC :1.01674: AVG IPC :1.00901: L2-Pf-HR :0.83865: L2-HR :0.82886: (Sim:3h40m21s) 
CPU  1 inst:  131000005 cyc:  128848603 now IPC :0.99981: AVG IPC :1.00890: L2-Pf-HR :0.83230: L2-HR :0.82299: (Sim:3h40m22s) 
CPU  0 inst:  131000005 cyc:  128865350 now IPC :0.99385: AVG IPC :1.00877: L2-Pf-HR :0.84106: L2-HR :0.83027: (Sim:3h40m24s) 
CPU  2 inst:  132000003 cyc:  129911251 now IPC :0.91987: AVG IPC :1.00835: L2-Pf-HR :0.84087: L2-HR :0.82970: (Sim:3h42m19s) 
CPU  0 inst:  132000003 cyc:  129913954 now IPC :0.95365: AVG IPC :1.00833: L2-Pf-HR :0.84091: L2-HR :0.83006: (Sim:3h42m20s) 
CPU  1 inst:  132000003 cyc:  129915214 now IPC :0.93755: AVG IPC :1.00831: L2-Pf-HR :0.83218: L2-HR :0.82286: (Sim:3h42m20s) 
CPU  3 inst:  132000003 cyc:  129917208 now IPC :0.92409: AVG IPC :1.00830: L2-Pf-HR :0.83838: L2-HR :0.82862: (Sim:3h42m20s) 
CPU  0 inst:  133000002 cyc:  130953018 now IPC :0.96240: AVG IPC :1.00796: L2-Pf-HR :0.84080: L2-HR :0.82988: (Sim:3h44m11s) 
CPU  3 inst:  133000002 cyc:  130958826 now IPC :0.96004: AVG IPC :1.00791: L2-Pf-HR :0.83815: L2-HR :0.82841: (Sim:3h44m12s) 
CPU  1 inst:  133000002 cyc:  130988859 now IPC :0.93141: AVG IPC :1.00767: L2-Pf-HR :0.83206: L2-HR :0.82274: (Sim:3h44m15s) 
CPU  2 inst:  133000002 cyc:  130992314 now IPC :0.92501: AVG IPC :1.00765: L2-Pf-HR :0.84075: L2-HR :0.82955: (Sim:3h44m16s) 
CPU  0 inst:  134000003 cyc:  132053944 now IPC :0.90833: AVG IPC :1.00712: L2-Pf-HR :0.84073: L2-HR :0.82974: (Sim:3h46m7s) 
CPU  3 inst:  134000003 cyc:  132066129 now IPC :0.90310: AVG IPC :1.00703: L2-Pf-HR :0.83793: L2-HR :0.82821: (Sim:3h46m9s) 
CPU  2 inst:  134000003 cyc:  132068290 now IPC :0.92939: AVG IPC :1.00701: L2-Pf-HR :0.84067: L2-HR :0.82942: (Sim:3h46m9s) 
CPU  1 inst:  134000003 cyc:  132094504 now IPC :0.90445: AVG IPC :1.00680: L2-Pf-HR :0.83201: L2-HR :0.82267: (Sim:3h46m12s) 
CPU  3 inst:  135000003 cyc:  132826367 now IPC :1.31538: AVG IPC :1.00880: L2-Pf-HR :0.83777: L2-HR :0.82806: (Sim:3h47m46s) 
CPU  2 inst:  135000003 cyc:  132846984 now IPC :1.28420: AVG IPC :1.00865: L2-Pf-HR :0.84058: L2-HR :0.82929: (Sim:3h47m49s) 
CPU  1 inst:  135000003 cyc:  132853505 now IPC :1.31752: AVG IPC :1.00859: L2-Pf-HR :0.83193: L2-HR :0.82258: (Sim:3h47m50s) 
CPU  0 inst:  135000001 cyc:  132855227 now IPC :1.24800: AVG IPC :1.00858: L2-Pf-HR :0.84059: L2-HR :0.82953: (Sim:3h47m51s) 
CPU  3 inst:  136000003 cyc:  134497684 now IPC :0.59833: AVG IPC :1.00367: L2-Pf-HR :0.83766: L2-HR :0.82791: (Sim:3h50m8s) 
CPU  1 inst:  136000002 cyc:  134540675 now IPC :0.59271: AVG IPC :1.00334: L2-Pf-HR :0.83184: L2-HR :0.82244: (Sim:3h50m12s) 
CPU  0 inst:  136000001 cyc:  134541278 now IPC :0.59310: AVG IPC :1.00334: L2-Pf-HR :0.84052: L2-HR :0.82940: (Sim:3h50m12s) 
CPU  2 inst:  136000003 cyc:  134545255 now IPC :0.58883: AVG IPC :1.00331: L2-Pf-HR :0.84052: L2-HR :0.82918: (Sim:3h50m12s) 
CPU  2 inst:  137000001 cyc:  135349632 now IPC :1.24320: AVG IPC :1.00475: L2-Pf-HR :0.84046: L2-HR :0.82911: (Sim:3h51m52s) 
CPU  3 inst:  137000001 cyc:  135363636 now IPC :1.15480: AVG IPC :1.00464: L2-Pf-HR :0.83749: L2-HR :0.82773: (Sim:3h51m54s) 
CPU  0 inst:  137000001 cyc:  135380320 now IPC :1.19184: AVG IPC :1.00452: L2-Pf-HR :0.84043: L2-HR :0.82926: (Sim:3h51m55s) 
CPU  1 inst:  137000001 cyc:  135399068 now IPC :1.16497: AVG IPC :1.00437: L2-Pf-HR :0.83172: L2-HR :0.82228: (Sim:3h51m57s) 
CPU  3 inst:  138000005 cyc:  136305168 now IPC :1.06210: AVG IPC :1.00504: L2-Pf-HR :0.83730: L2-HR :0.82755: (Sim:3h53m40s) 
CPU  2 inst:  138000005 cyc:  136314293 now IPC :1.03664: AVG IPC :1.00497: L2-Pf-HR :0.84034: L2-HR :0.82899: (Sim:3h53m42s) 
CPU  0 inst:  138000005 cyc:  136342246 now IPC :1.03959: AVG IPC :1.00477: L2-Pf-HR :0.84031: L2-HR :0.82912: (Sim:3h53m45s) 
CPU  1 inst:  138000005 cyc:  136347388 now IPC :1.05450: AVG IPC :1.00472: L2-Pf-HR :0.83157: L2-HR :0.82212: (Sim:3h53m46s) 
CPU  1 inst:  139000005 cyc:  137208821 now IPC :1.16086: AVG IPC :1.00571: L2-Pf-HR :0.83142: L2-HR :0.82194: (Sim:3h55m25s) 
CPU  0 inst:  139000005 cyc:  137210961 now IPC :1.15113: AVG IPC :1.00570: L2-Pf-HR :0.84024: L2-HR :0.82902: (Sim:3h55m26s) 
CPU  3 inst:  139000005 cyc:  137216930 now IPC :1.09678: AVG IPC :1.00565: L2-Pf-HR :0.83712: L2-HR :0.82739: (Sim:3h55m26s) 
CPU  2 inst:  139000005 cyc:  137218232 now IPC :1.10627: AVG IPC :1.00565: L2-Pf-HR :0.84024: L2-HR :0.82888: (Sim:3h55m26s) 
CPU  0 inst:  140000005 cyc:  138096104 now IPC :1.12976: AVG IPC :1.00650: L2-Pf-HR :0.84010: L2-HR :0.82885: (Sim:3h57m10s) 
CPU  2 inst:  140000002 cyc:  138096676 now IPC :1.13837: AVG IPC :1.00650: L2-Pf-HR :0.84014: L2-HR :0.82878: (Sim:3h57m10s) 
CPU  1 inst:  140000002 cyc:  138103464 now IPC :1.11776: AVG IPC :1.00644: L2-Pf-HR :0.83125: L2-HR :0.82175: (Sim:3h57m10s) 
CPU  3 inst:  140000005 cyc:  138107072 now IPC :1.12342: AVG IPC :1.00642: L2-Pf-HR :0.83692: L2-HR :0.82720: (Sim:3h57m11s) 
CPU  3 inst:  141000005 cyc:  138715261 now IPC :1.64423: AVG IPC :1.00923: L2-Pf-HR :0.83687: L2-HR :0.82711: (Sim:3h58m41s) 
CPU  1 inst:  141000005 cyc:  138722944 now IPC :1.61426: AVG IPC :1.00917: L2-Pf-HR :0.83123: L2-HR :0.82169: (Sim:3h58m42s) 
CPU  0 inst:  141000005 cyc:  138724308 now IPC :1.59184: AVG IPC :1.00917: L2-Pf-HR :0.84009: L2-HR :0.82879: (Sim:3h58m43s) 
CPU  2 inst:  141000005 cyc:  138724661 now IPC :1.59240: AVG IPC :1.00917: L2-Pf-HR :0.84015: L2-HR :0.82875: (Sim:3h58m43s) 
CPU  3 inst:  142000004 cyc:  139996600 now IPC :0.78043: AVG IPC :1.00713: L2-Pf-HR :0.83706: L2-HR :0.82735: (Sim:4h0m43s) 
CPU  0 inst:  142000004 cyc:  140012915 now IPC :0.77603: AVG IPC :1.00701: L2-Pf-HR :0.84028: L2-HR :0.82906: (Sim:4h0m45s) 
CPU  2 inst:  142000004 cyc:  140020315 now IPC :0.77181: AVG IPC :1.00696: L2-Pf-HR :0.84035: L2-HR :0.82903: (Sim:4h0m46s) 
CPU  1 inst:  142000004 cyc:  140026191 now IPC :0.76731: AVG IPC :1.00691: L2-Pf-HR :0.83141: L2-HR :0.82192: (Sim:4h0m47s) 
CPU  0 inst:  143000004 cyc:  140793330 now IPC :1.28137: AVG IPC :1.00854: L2-Pf-HR :0.84070: L2-HR :0.82968: (Sim:4h2m21s) 
CPU  1 inst:  143000004 cyc:  140798023 now IPC :1.29562: AVG IPC :1.00850: L2-Pf-HR :0.83176: L2-HR :0.82246: (Sim:4h2m22s) 
CPU  2 inst:  143000004 cyc:  140821150 now IPC :1.24870: AVG IPC :1.00834: L2-Pf-HR :0.84075: L2-HR :0.82961: (Sim:4h2m25s) 
CPU  3 inst:  143000004 cyc:  140822633 now IPC :1.21061: AVG IPC :1.00833: L2-Pf-HR :0.83742: L2-HR :0.82787: (Sim:4h2m25s) 
CPU  3 inst:  144000005 cyc:  141673387 now IPC :1.17543: AVG IPC :1.00934: L2-Pf-HR :0.83782: L2-HR :0.82842: (Sim:4h4m5s) 
CPU  1 inst:  144000005 cyc:  141684342 now IPC :1.12826: AVG IPC :1.00926: L2-Pf-HR :0.83213: L2-HR :0.82303: (Sim:4h4m6s) 
CPU  2 inst:  144000005 cyc:  141686122 now IPC :1.15611: AVG IPC :1.00925: L2-Pf-HR :0.84114: L2-HR :0.83019: (Sim:4h4m6s) 
CPU  0 inst:  144000005 cyc:  141703642 now IPC :1.09853: AVG IPC :1.00912: L2-Pf-HR :0.84111: L2-HR :0.83028: (Sim:4h4m8s) 
CPU  3 inst:  145000000 cyc:  142455317 now IPC :1.27888: AVG IPC :1.01083: L2-Pf-HR :0.83827: L2-HR :0.82900: (Sim:4h5m44s) 
CPU  0 inst:  145000000 cyc:  142456255 now IPC :1.32870: AVG IPC :1.01082: L2-Pf-HR :0.84162: L2-HR :0.83094: (Sim:4h5m44s) 
CPU  1 inst:  145000000 cyc:  142457160 now IPC :1.29396: AVG IPC :1.01081: L2-Pf-HR :0.83261: L2-HR :0.82364: (Sim:4h5m44s) 
CPU  2 inst:  145000000 cyc:  142458338 now IPC :1.29497: AVG IPC :1.01081: L2-Pf-HR :0.84161: L2-HR :0.83082: (Sim:4h5m45s) 
CPU  1 inst:  146000001 cyc:  144257851 now IPC :0.55534: AVG IPC :1.00509: L2-Pf-HR :0.83267: L2-HR :0.82367: (Sim:4h8m10s) 
CPU  0 inst:  146000001 cyc:  144262872 now IPC :0.55352: AVG IPC :1.00506: L2-Pf-HR :0.84169: L2-HR :0.83097: (Sim:4h8m10s) 
CPU  3 inst:  146000001 cyc:  144276005 now IPC :0.54924: AVG IPC :1.00496: L2-Pf-HR :0.83829: L2-HR :0.82898: (Sim:4h8m12s) 
CPU  2 inst:  146000001 cyc:  144307320 now IPC :0.54084: AVG IPC :1.00475: L2-Pf-HR :0.84168: L2-HR :0.83085: (Sim:4h8m15s) 
CPU  3 inst:  147000002 cyc:  145218087 now IPC :1.06148: AVG IPC :1.00533: L2-Pf-HR :0.83816: L2-HR :0.82879: (Sim:4h9m58s) 
CPU  0 inst:  147000002 cyc:  145226717 now IPC :1.03751: AVG IPC :1.00527: L2-Pf-HR :0.84159: L2-HR :0.83081: (Sim:4h9m59s) 
CPU  1 inst:  147000002 cyc:  145235421 now IPC :1.02295: AVG IPC :1.00521: L2-Pf-HR :0.83252: L2-HR :0.82345: (Sim:4h10m0s) 
CPU  2 inst:  147000005 cyc:  145244454 now IPC :1.06709: AVG IPC :1.00515: L2-Pf-HR :0.84153: L2-HR :0.83065: (Sim:4h10m1s) 
CPU  2 inst:  148000000 cyc:  146254540 now IPC :0.99001: AVG IPC :1.00505: L2-Pf-HR :0.84137: L2-HR :0.83044: (Sim:4h11m51s) 
CPU  3 inst:  148000000 cyc:  146264188 now IPC :0.95593: AVG IPC :1.00498: L2-Pf-HR :0.83806: L2-HR :0.82863: (Sim:4h11m52s) 
CPU  0 inst:  148000000 cyc:  146274462 now IPC :0.95443: AVG IPC :1.00491: L2-Pf-HR :0.84147: L2-HR :0.83065: (Sim:4h11m53s) 
CPU  1 inst:  148000000 cyc:  146276899 now IPC :0.96017: AVG IPC :1.00488: L2-Pf-HR :0.83240: L2-HR :0.82327: (Sim:4h11m53s) 
CPU  2 inst:  149000004 cyc:  147327967 now IPC :0.93160: AVG IPC :1.00451: L2-Pf-HR :0.84121: L2-HR :0.83024: (Sim:4h13m44s) 
CPU  1 inst:  149000004 cyc:  147331778 now IPC :0.94798: AVG IPC :1.00447: L2-Pf-HR :0.83225: L2-HR :0.82306: (Sim:4h13m45s) 
CPU  3 inst:  149000004 cyc:  147343359 now IPC :0.92664: AVG IPC :1.00440: L2-Pf-HR :0.83792: L2-HR :0.82846: (Sim:4h13m46s) 
CPU  0 inst:  149000004 cyc:  147359609 now IPC :0.92154: AVG IPC :1.00429: L2-Pf-HR :0.84134: L2-HR :0.83047: (Sim:4h13m48s) 
CPU  3 inst:  150000005 cyc:  148383281 now IPC :0.96161: AVG IPC :1.00410: L2-Pf-HR :0.83777: L2-HR :0.82825: (Sim:4h15m37s) 
CPU  2 inst:  150000005 cyc:  148388509 now IPC :0.94292: AVG IPC :1.00406: L2-Pf-HR :0.84107: L2-HR :0.83005: (Sim:4h15m38s) 
CPU  0 inst:  150000005 cyc:  148395777 now IPC :0.96510: AVG IPC :1.00401: L2-Pf-HR :0.84126: L2-HR :0.83033: (Sim:4h15m39s) 
CPU  1 inst:  150000005 cyc:  148404532 now IPC :0.93218: AVG IPC :1.00395: L2-Pf-HR :0.83213: L2-HR :0.82288: (Sim:4h15m39s) 
CPU  3 inst:  151000003 cyc:  149240300 now IPC :1.16683: AVG IPC :1.00504: L2-Pf-HR :0.83774: L2-HR :0.82813: (Sim:4h17m19s) 
CPU  0 inst:  151000003 cyc:  149248952 now IPC :1.17209: AVG IPC :1.00498: L2-Pf-HR :0.84119: L2-HR :0.83019: (Sim:4h17m21s) 
CPU  2 inst:  151000003 cyc:  149273124 now IPC :1.13043: AVG IPC :1.00482: L2-Pf-HR :0.84095: L2-HR :0.82989: (Sim:4h17m24s) 
CPU  1 inst:  151000003 cyc:  149275675 now IPC :1.14791: AVG IPC :1.00479: L2-Pf-HR :0.83205: L2-HR :0.82273: (Sim:4h17m25s) 
CPU  0 inst:  152000003 cyc:  150831700 now IPC :0.63181: AVG IPC :1.00104: L2-Pf-HR :0.84111: L2-HR :0.83003: (Sim:4h19m38s) 
CPU  3 inst:  152000005 cyc:  150839927 now IPC :0.62515: AVG IPC :1.00098: L2-Pf-HR :0.83768: L2-HR :0.82800: (Sim:4h19m38s) 
CPU  2 inst:  152000004 cyc:  150853905 now IPC :0.63260: AVG IPC :1.00089: L2-Pf-HR :0.84092: L2-HR :0.82977: (Sim:4h19m40s) 
CPU  1 inst:  152000003 cyc:  150872582 now IPC :0.62621: AVG IPC :1.00076: L2-Pf-HR :0.83205: L2-HR :0.82263: (Sim:4h19m42s) 
CPU  2 inst:  153000004 cyc:  151701368 now IPC :1.17999: AVG IPC :1.00190: L2-Pf-HR :0.84082: L2-HR :0.82963: (Sim:4h21m21s) 
CPU  0 inst:  153000001 cyc:  151720318 now IPC :1.12534: AVG IPC :1.00177: L2-Pf-HR :0.84100: L2-HR :0.82989: (Sim:4h21m23s) 
CPU  1 inst:  153000004 cyc:  151722788 now IPC :1.17619: AVG IPC :1.00175: L2-Pf-HR :0.83194: L2-HR :0.82252: (Sim:4h21m23s) 
CPU  3 inst:  153000004 cyc:  151745966 now IPC :1.10370: AVG IPC :1.00160: L2-Pf-HR :0.83754: L2-HR :0.82788: (Sim:4h21m26s) 
CPU  0 inst:  154000003 cyc:  152619055 now IPC :1.11267: AVG IPC :1.00243: L2-Pf-HR :0.84092: L2-HR :0.82977: (Sim:4h23m0s) 
[...]
Core_3_L2C_total_hit 55766362
Core_3_L2C_total_miss 6148270
Core_3_L2C_loads 12241460
Core_3_L2C_load_hit 10795590
Core_3_L2C_load_miss 1445870
Core_3_L2C_RFOs 973335
Core_3_L2C_RFO_hit 247150
Core_3_L2C_RFO_miss 726185
Core_3_L2C_prefetches 45785869
Core_3_L2C_prefetch_hit 41811454
Core_3_L2C_prefetch_miss 3974415
Core_3_L2C_writebacks 2913968
Core_3_L2C_writeback_hit 2912168
Core_3_L2C_writeback_miss 1800

CPU 3 L1D next line prefetcher final stats
CPU 3 L2C PC-based stride prefetcher final stats
Stride Degree: 15
MK1  MARKOV_LRU_SIZE: 128
MK1  MARKOV_PREDICTION_PERCENTTHRESHOLD: 40.00000
MK1  OUTLIERS_THRESHOLD_Max: 64
MK1  OUTLIERS_THRESHOLD_Min: 32
MK2  MARKOV_LRU_SIZE: 256
MK2  MARKOV_PREDICTION_PERCENTTHRESHOLD: 20.00000
MK2  OUTLIERS_THRESHOLD_Max: 32
MK2  OUTLIERS_THRESHOLD_Min: 16
MK3  MARKOV_LRU_SIZE: 384
MK3  MARKOV_PREDICTION_PERCENTTHRESHOLD: 25.00000
MK3  OUTLIERS_THRESHOLD_Max: 16
MK3  OUTLIERS_THRESHOLD_Min: 8
MK4  MARKOV_LRU_SIZE: 512
MK4  MARKOV_PREDICTION_PERCENTTHRESHOLD: 20.00000
MK4  OUTLIERS_THRESHOLD_Max: 8
MK4  OUTLIERS_THRESHOLD_Min: 0
IPStride Degree/Access Ratio: 1.54690
MK1 IPDEltaMarkov  Degree/Access Ratio: 0.42752
MK2 IPDEltaMarkov  Degree/Access Ratio: 0.79528
MK3 IPDEltaMarkov  Degree/Access Ratio: 0.75919
MK4 IPDEltaMarkov  Degree/Access Ratio: 1.31248
Core_3_LLC_total_access 9070213
Core_3_LLC_total_hit 4400039
Core_3_LLC_total_miss 4670174
Core_3_LLC_loads 999778
Core_3_LLC_load_hit 635500
Core_3_LLC_load_miss 364278
Core_3_LLC_RFOs 726181
Core_3_LLC_RFO_hit 9
Core_3_LLC_RFO_miss 726172
Core_3_LLC_prefetches 4591778
Core_3_LLC_prefetch_hit 1071106
Core_3_LLC_prefetch_miss 3520672
Core_3_LLC_writebacks 2752476
Core_3_LLC_writeback_hit 2693424
Core_3_LLC_writeback_miss 59052


[ROI Statistics]
Core_0_instructions 491000002
Core_0_cycles 846455906
Core_0_IPC 0.58007

Core_0_branch_prediction_accuracy 99.58586
Core_0_branch_MPKI 0.12051
Core_0_average_ROB_occupancy_at_mispredict 569.16858

Core_0_L1D_total_access 301388327
Core_0_L1D_total_hit 276320822 L1D_total_Hit Ratio: 0.91683
Core_0_L1D_total_miss 25067505
Core_0_L1D_loads 122310594
Core_0_L1D_load_hit 109439521 L1D_load_Hit Ratio: 0.89477
Core_0_L1D_load_miss 12871073
Core_0_L1D_RFOs 12559117
Core_0_L1D_RFO_hit 11585542 L1D_RFO_Hit Ratio: 0.92248
Core_0_L1D_RFO_miss 973575
Core_0_L1D_prefetches 166518616
Core_0_L1D_prefetch_hit 155295759 L1D_prefetch_Hit Ratio: 0.93260
Core_0_L1D_prefetch_miss 11222857
Core_0_L1D_writebacks 0
Core_0_L1D_writeback_hit 0 L1D_writeback_Hit Ratio: -nan
Core_0_L1D_writeback_miss 0
Core_0_L1D_prefetch_requested 377134257
Core_0_L1D_prefetch_issued 192963442
Core_0_L1D_prefetch_useful 5593917 L1D_Useful Ratio: 0.02899
Core_0_L1D_prefetch_useless 5650665
Core_0_L1D_prefetch_late 638760
Core_0_L1D_average_miss_latency 9163198.98274

Core_0_L1I_total_access 71915100
Core_0_L1I_total_hit 71910127 L1I_total_Hit Ratio: 0.99993
Core_0_L1I_total_miss 4973
Core_0_L1I_loads 71915100
Core_0_L1I_load_hit 71910127 L1I_load_Hit Ratio: 0.99993
Core_0_L1I_load_miss 4973
Core_0_L1I_RFOs 0
Core_0_L1I_RFO_hit 0 L1I_RFO_Hit Ratio: -nan
Core_0_L1I_RFO_miss 0
Core_0_L1I_prefetches 0
Core_0_L1I_prefetch_hit 0 L1I_prefetch_Hit Ratio: -nan
Core_0_L1I_prefetch_miss 0
Core_0_L1I_writebacks 0
Core_0_L1I_writeback_hit 0 L1I_writeback_Hit Ratio: -nan
Core_0_L1I_writeback_miss 0
Core_0_L1I_prefetch_requested 0
Core_0_L1I_prefetch_issued 0
Core_0_L1I_prefetch_useful 0 L1I_Useful Ratio: -nan
Core_0_L1I_prefetch_useless 0
Core_0_L1I_prefetch_late 0
Core_0_L1I_average_miss_latency 1015.40076

Core_0_L2C_total_access 61871484
Core_0_L2C_total_hit 55744027 L2C_total_Hit Ratio: 0.90096
Core_0_L2C_total_miss 6127457
Core_0_L2C_loads 12238468
Core_0_L2C_load_hit 10787262 L2C_load_Hit Ratio: 0.88142
Core_0_L2C_load_miss 1451206
Core_0_L2C_RFOs 973545
Core_0_L2C_RFO_hit 247345 L2C_RFO_Hit Ratio: 0.25407
Core_0_L2C_RFO_miss 726200
Core_0_L2C_prefetches 45745636
Core_0_L2C_prefetch_hit 41797644 L2C_prefetch_Hit Ratio: 0.91370
Core_0_L2C_prefetch_miss 3947992
Core_0_L2C_writebacks 2913835
Core_0_L2C_writeback_hit 2911776 L2C_writeback_Hit Ratio: 0.99929
Core_0_L2C_writeback_miss 2059
Core_0_L2C_prefetch_requested 112705934
Core_0_L2C_prefetch_issued 50886128
Core_0_L2C_prefetch_useful 660374 L2C_Useful Ratio: 0.01298
Core_0_L2C_prefetch_useless 3300813
Core_0_L2C_prefetch_late 443388
Core_0_L2C_average_miss_latency 1003.82011

Core_0_LLC_total_access 9051546
Core_0_LLC_total_hit 4380813 LLC_total_Hit Ratio: 0.48399
Core_0_LLC_total_miss 4670733
Core_0_LLC_loads 1007889
Core_0_LLC_load_hit 641636 LLC_load_Hit Ratio: 0.63661
Core_0_LLC_load_miss 366253
Core_0_LLC_RFOs 726196
Core_0_LLC_RFO_hit 16 LLC_RFO_Hit Ratio: 0.00002
Core_0_LLC_RFO_miss 726180
Core_0_LLC_prefetches 4560657
Core_0_LLC_prefetch_hit 1032970 LLC_prefetch_Hit Ratio: 0.22650
Core_0_LLC_prefetch_miss 3527687
Core_0_LLC_writebacks 2756804
Core_0_LLC_writeback_hit 2706191 LLC_writeback_Hit Ratio: 0.98164
Core_0_LLC_writeback_miss 50613
Core_0_LLC_prefetch_requested 0
Core_0_LLC_prefetch_issued 0
Core_0_LLC_prefetch_useful 1907172 LLC_Useful Ratio: inf
Core_0_LLC_prefetch_useless 12041024
Core_0_LLC_prefetch_late 77791
Core_0_LLC_average_miss_latency 4924.05910

Core_0_major_page_fault 0
Core_0_minor_page_fault 28665

Core_1_instructions 491000004
Core_1_cycles 845414773
Core_1_IPC 0.58078

Core_1_branch_prediction_accuracy 99.58582
Core_1_branch_MPKI 0.12021
Core_1_average_ROB_occupancy_at_mispredict 569.01196

Core_1_L1D_total_access 301940854
Core_1_L1D_total_hit 276833869 L1D_total_Hit Ratio: 0.91685
Core_1_L1D_total_miss 25106985
Core_1_L1D_loads 122460209
Core_1_L1D_load_hit 109594925 L1D_load_Hit Ratio: 0.89494
Core_1_L1D_load_miss 12865284
Core_1_L1D_RFOs 12558282
Core_1_L1D_RFO_hit 11585121 L1D_RFO_Hit Ratio: 0.92251
Core_1_L1D_RFO_miss 973161
Core_1_L1D_prefetches 166922363
Core_1_L1D_prefetch_hit 155653823 L1D_prefetch_Hit Ratio: 0.93249
Core_1_L1D_prefetch_miss 11268540
Core_1_L1D_writebacks 0
Core_1_L1D_writeback_hit 0 L1D_writeback_Hit Ratio: -nan
Core_1_L1D_writeback_miss 0
Core_1_L1D_prefetch_requested 379112307
Core_1_L1D_prefetch_issued 193761044
Core_1_L1D_prefetch_useful 5630676 L1D_Useful Ratio: 0.02906
Core_1_L1D_prefetch_useless 5729383
Core_1_L1D_prefetch_late 641655
Core_1_L1D_average_miss_latency 9003153.46000

Core_1_L1I_total_access 71889911
Core_1_L1I_total_hit 71884938 L1I_total_Hit Ratio: 0.99993
Core_1_L1I_total_miss 4973
Core_1_L1I_loads 71889911
Core_1_L1I_load_hit 71884938 L1I_load_Hit Ratio: 0.99993
Core_1_L1I_load_miss 4973
Core_1_L1I_RFOs 0
Core_1_L1I_RFO_hit 0 L1I_RFO_Hit Ratio: -nan
Core_1_L1I_RFO_miss 0
Core_1_L1I_prefetches 0
Core_1_L1I_prefetch_hit 0 L1I_prefetch_Hit Ratio: -nan
Core_1_L1I_prefetch_miss 0
Core_1_L1I_writebacks 0
Core_1_L1I_writeback_hit 0 L1I_writeback_Hit Ratio: -nan
Core_1_L1I_writeback_miss 0
Core_1_L1I_prefetch_requested 0
Core_1_L1I_prefetch_issued 0
Core_1_L1I_prefetch_useful 0 L1I_Useful Ratio: -nan
Core_1_L1I_prefetch_useless 0
Core_1_L1I_prefetch_late 0
Core_1_L1I_average_miss_latency 1270.42349

Core_1_L2C_total_access 61815290
Core_1_L2C_total_hit 55577231 L2C_total_Hit Ratio: 0.89909
Core_1_L2C_total_miss 6238059
Core_1_L2C_loads 12231059
Core_1_L2C_load_hit 10762692 L2C_load_Hit Ratio: 0.87995
Core_1_L2C_load_miss 1468367
Core_1_L2C_RFOs 973128
Core_1_L2C_RFO_hit 246904 L2C_RFO_Hit Ratio: 0.25372
Core_1_L2C_RFO_miss 726224
Core_1_L2C_prefetches 45697276
Core_1_L2C_prefetch_hit 41655863 L2C_prefetch_Hit Ratio: 0.91156
Core_1_L2C_prefetch_miss 4041413
Core_1_L2C_writebacks 2913827
Core_1_L2C_writeback_hit 2911772 L2C_writeback_Hit Ratio: 0.99929
Core_1_L2C_writeback_miss 2055
Core_1_L2C_prefetch_requested 115843326
Core_1_L2C_prefetch_issued 50774986
Core_1_L2C_prefetch_useful 698829 L2C_Useful Ratio: 0.01376
Core_1_L2C_prefetch_useless 3364692
Core_1_L2C_prefetch_late 455110
Core_1_L2C_average_miss_latency 983.54685

Core_1_LLC_total_access 9170895
Core_1_LLC_total_hit 4554096 LLC_total_Hit Ratio: 0.49658
Core_1_LLC_total_miss 4616799
Core_1_LLC_loads 1013324
Core_1_LLC_load_hit 648095 LLC_load_Hit Ratio: 0.63957
Core_1_LLC_load_miss 365229
Core_1_LLC_RFOs 726221
Core_1_LLC_RFO_hit 17 LLC_RFO_Hit Ratio: 0.00002
Core_1_LLC_RFO_miss 726204
Core_1_LLC_prefetches 4670341
Core_1_LLC_prefetch_hit 1189037 LLC_prefetch_Hit Ratio: 0.25459
Core_1_LLC_prefetch_miss 3481304
Core_1_LLC_writebacks 2761009
Core_1_LLC_writeback_hit 2716947 LLC_writeback_Hit Ratio: 0.98404
Core_1_LLC_writeback_miss 44062
Core_1_LLC_prefetch_requested 0
Core_1_LLC_prefetch_issued 0
Core_1_LLC_prefetch_useful 1907172 LLC_Useful Ratio: inf
Core_1_LLC_prefetch_useless 12041024
Core_1_LLC_prefetch_late 77791
Core_1_LLC_average_miss_latency 4981.58255

Core_1_major_page_fault 0
Core_1_minor_page_fault 28665

Core_2_instructions 491000002
Core_2_cycles 846022292
Core_2_IPC 0.58036

Core_2_branch_prediction_accuracy 99.58585
Core_2_branch_MPKI 0.12038
Core_2_average_ROB_occupancy_at_mispredict 569.08595

Core_2_L1D_total_access 301632601
Core_2_L1D_total_hit 276544330 L1D_total_Hit Ratio: 0.91683
Core_2_L1D_total_miss 25088271
Core_2_L1D_loads 122380810
Core_2_L1D_load_hit 109514681 L1D_load_Hit Ratio: 0.89487
Core_2_L1D_load_miss 12866129
Core_2_L1D_RFOs 12559133
Core_2_L1D_RFO_hit 11586266 L1D_RFO_Hit Ratio: 0.92254
Core_2_L1D_RFO_miss 972867
Core_2_L1D_prefetches 166692658
Core_2_L1D_prefetch_hit 155443383 L1D_prefetch_Hit Ratio: 0.93251
Core_2_L1D_prefetch_miss 11249275
Core_2_L1D_writebacks 0
Core_2_L1D_writeback_hit 0 L1D_writeback_Hit Ratio: -nan
Core_2_L1D_writeback_miss 0
Core_2_L1D_prefetch_requested 377989536
Core_2_L1D_prefetch_issued 193290006
Core_2_L1D_prefetch_useful 5611927 L1D_Useful Ratio: 0.02903
Core_2_L1D_prefetch_useless 5687758
Core_2_L1D_prefetch_late 636675
Core_2_L1D_average_miss_latency 9073645.77001

Core_2_L1I_total_access 71909394
Core_2_L1I_total_hit 71904423 L1I_total_Hit Ratio: 0.99993
Core_2_L1I_total_miss 4971
Core_2_L1I_loads 71909394
Core_2_L1I_load_hit 71904423 L1I_load_Hit Ratio: 0.99993
Core_2_L1I_load_miss 4971
Core_2_L1I_RFOs 0
Core_2_L1I_RFO_hit 0 L1I_RFO_Hit Ratio: -nan
Core_2_L1I_RFO_miss 0
Core_2_L1I_prefetches 0
Core_2_L1I_prefetch_hit 0 L1I_prefetch_Hit Ratio: -nan
Core_2_L1I_prefetch_miss 0
Core_2_L1I_writebacks 0
Core_2_L1I_writeback_hit 0 L1I_writeback_Hit Ratio: -nan
Core_2_L1I_writeback_miss 0
Core_2_L1I_prefetch_requested 0
Core_2_L1I_prefetch_issued 0
Core_2_L1I_prefetch_useful 0 L1I_Useful Ratio: -nan
Core_2_L1I_prefetch_useless 0
Core_2_L1I_prefetch_late 0
Core_2_L1I_average_miss_latency 1195.93744

Core_2_L2C_total_access 61876291
Core_2_L2C_total_hit 55735109 L2C_total_Hit Ratio: 0.90075
Core_2_L2C_total_miss 6141182
Core_2_L2C_loads 12236066
Core_2_L2C_load_hit 10778582 L2C_load_Hit Ratio: 0.88089
Core_2_L2C_load_miss 1457484
Core_2_L2C_RFOs 972838
Core_2_L2C_RFO_hit 246625 L2C_RFO_Hit Ratio: 0.25351
Core_2_L2C_RFO_miss 726213
Core_2_L2C_prefetches 45753552
Core_2_L2C_prefetch_hit 41798247 L2C_prefetch_Hit Ratio: 0.91355
Core_2_L2C_prefetch_miss 3955305
Core_2_L2C_writebacks 2913835
Core_2_L2C_writeback_hit 2911655 L2C_writeback_Hit Ratio: 0.99925
Core_2_L2C_writeback_miss 2180
Core_2_L2C_prefetch_requested 113777968
Core_2_L2C_prefetch_issued 50914272
Core_2_L2C_prefetch_useful 662080 L2C_Useful Ratio: 0.01300
Core_2_L2C_prefetch_useless 3310123
Core_2_L2C_prefetch_late 447845
Core_2_L2C_average_miss_latency 1000.38947

Core_2_LLC_total_access 9067093
Core_2_LLC_total_hit 4419749 LLC_total_Hit Ratio: 0.48745
Core_2_LLC_total_miss 4647344
Core_2_LLC_loads 1009754
Core_2_LLC_load_hit 644986 LLC_load_Hit Ratio: 0.63876
Core_2_LLC_load_miss 364768
Core_2_LLC_RFOs 726211
Core_2_LLC_RFO_hit 15 LLC_RFO_Hit Ratio: 0.00002
Core_2_LLC_RFO_miss 726196
Core_2_LLC_prefetches 4574495
Core_2_LLC_prefetch_hit 1070714 LLC_prefetch_Hit Ratio: 0.23406
Core_2_LLC_prefetch_miss 3503781
Core_2_LLC_writebacks 2756633
Core_2_LLC_writeback_hit 2704034 LLC_writeback_Hit Ratio: 0.98092
Core_2_LLC_writeback_miss 52599
Core_2_LLC_prefetch_requested 0
Core_2_LLC_prefetch_issued 0
Core_2_LLC_prefetch_useful 1907172 LLC_Useful Ratio: inf
Core_2_LLC_prefetch_useless 12041024
Core_2_LLC_prefetch_late 77791
Core_2_LLC_average_miss_latency 4948.84074

Core_2_major_page_fault 0
Core_2_minor_page_fault 28665

Core_3_instructions 491000005
Core_3_cycles 846389829
Core_3_IPC 0.58011

Core_3_branch_prediction_accuracy 99.58586
Core_3_branch_MPKI 0.12048
Core_3_average_ROB_occupancy_at_mispredict 569.16596

Core_3_L1D_total_access 301560641
Core_3_L1D_total_hit 276486005 L1D_total_Hit Ratio: 0.91685
Core_3_L1D_total_miss 25074636
Core_3_L1D_loads 122348210
Core_3_L1D_load_hit 109478880 L1D_load_Hit Ratio: 0.89481
Core_3_L1D_load_miss 12869330
Core_3_L1D_RFOs 12558698
Core_3_L1D_RFO_hit 11585326 L1D_RFO_Hit Ratio: 0.92249
Core_3_L1D_RFO_miss 973372
Core_3_L1D_prefetches 166653733
Core_3_L1D_prefetch_hit 155421799 L1D_prefetch_Hit Ratio: 0.93260
Core_3_L1D_prefetch_miss 11231934
Core_3_L1D_writebacks 0
Core_3_L1D_writeback_hit 0 L1D_writeback_Hit Ratio: -nan
Core_3_L1D_writeback_miss 0
Core_3_L1D_prefetch_requested 377373837
Core_3_L1D_prefetch_issued 193168965
Core_3_L1D_prefetch_useful 5598377 L1D_Useful Ratio: 0.02898
Core_3_L1D_prefetch_useless 5661311
Core_3_L1D_prefetch_late 640152
Core_3_L1D_average_miss_latency 9143527.43512

Core_3_L1I_total_access 71903645
Core_3_L1I_total_hit 71898670 L1I_total_Hit Ratio: 0.99993
Core_3_L1I_total_miss 4975
Core_3_L1I_loads 71903645
Core_3_L1I_load_hit 71898670 L1I_load_Hit Ratio: 0.99993
Core_3_L1I_load_miss 4975
Core_3_L1I_RFOs 0
Core_3_L1I_RFO_hit 0 L1I_RFO_Hit Ratio: -nan
Core_3_L1I_RFO_miss 0
Core_3_L1I_prefetches 0
Core_3_L1I_prefetch_hit 0 L1I_prefetch_Hit Ratio: -nan
Core_3_L1I_prefetch_miss 0
Core_3_L1I_writebacks 0
Core_3_L1I_writeback_hit 0 L1I_writeback_Hit Ratio: -nan
Core_3_L1I_writeback_miss 0
Core_3_L1I_prefetch_requested 0
Core_3_L1I_prefetch_issued 0
Core_3_L1I_prefetch_useful 0 L1I_Useful Ratio: -nan
Core_3_L1I_prefetch_useless 0
Core_3_L1I_prefetch_late 0
Core_3_L1I_average_miss_latency 1130.94452

Core_3_L2C_total_access 61888785
Core_3_L2C_total_hit 55740711 L2C_total_Hit Ratio: 0.90066
Core_3_L2C_total_miss 6148074
Core_3_L2C_loads 12235452
Core_3_L2C_load_hit 10789584 L2C_load_Hit Ratio: 0.88183
Core_3_L2C_load_miss 1445868
Core_3_L2C_RFOs 973335
Core_3_L2C_RFO_hit 247150 L2C_RFO_Hit Ratio: 0.25392
Core_3_L2C_RFO_miss 726185
Core_3_L2C_prefetches 45766163
Core_3_L2C_prefetch_hit 41791942 L2C_prefetch_Hit Ratio: 0.91316
Core_3_L2C_prefetch_miss 3974221
Core_3_L2C_writebacks 2913835
Core_3_L2C_writeback_hit 2912035 L2C_writeback_Hit Ratio: 0.99938
Core_3_L2C_writeback_miss 1800
Core_3_L2C_prefetch_requested 112809908
Core_3_L2C_prefetch_issued 50922703
Core_3_L2C_prefetch_useful 677820 L2C_Useful Ratio: 0.01331
Core_3_L2C_prefetch_useless 3310641
Core_3_L2C_prefetch_late 446132
Core_3_L2C_average_miss_latency 996.96635

Core_3_LLC_total_access 9070007
Core_3_LLC_total_hit 4400018 LLC_total_Hit Ratio: 0.48512
Core_3_LLC_total_miss 4669989
Core_3_LLC_loads 999776
Core_3_LLC_load_hit 635498 LLC_load_Hit Ratio: 0.63564
Core_3_LLC_load_miss 364278
Core_3_LLC_RFOs 726181
Core_3_LLC_RFO_hit 9 LLC_RFO_Hit Ratio: 0.00001
Core_3_LLC_RFO_miss 726172
Core_3_LLC_prefetches 4591584
Core_3_LLC_prefetch_hit 1071097 LLC_prefetch_Hit Ratio: 0.23327
Core_3_LLC_prefetch_miss 3520487
Core_3_LLC_writebacks 2752466
Core_3_LLC_writeback_hit 2693414 LLC_writeback_Hit Ratio: 0.97855
Core_3_LLC_writeback_miss 59052
Core_3_LLC_prefetch_requested 0
Core_3_LLC_prefetch_issued 0
Core_3_LLC_prefetch_useful 1907172 LLC_Useful Ratio: inf
Core_3_LLC_prefetch_useless 12041024
Core_3_LLC_prefetch_late 77791
Core_3_LLC_average_miss_latency 4924.84357

Core_3_major_page_fault 0
Core_3_minor_page_fault 28665

CPU 0 L1D next line prefetcher final stats
CPU 0 L2C PC-based stride prefetcher final stats
Stride Degree: 15
MK1  MARKOV_LRU_SIZE: 128
MK1  MARKOV_PREDICTION_PERCENTTHRESHOLD: 40.00000
MK1  OUTLIERS_THRESHOLD_Max: 64
MK1  OUTLIERS_THRESHOLD_Min: 32
MK2  MARKOV_LRU_SIZE: 256
MK2  MARKOV_PREDICTION_PERCENTTHRESHOLD: 20.00000
MK2  OUTLIERS_THRESHOLD_Max: 32
MK2  OUTLIERS_THRESHOLD_Min: 16
MK3  MARKOV_LRU_SIZE: 384
MK3  MARKOV_PREDICTION_PERCENTTHRESHOLD: 25.00000
MK3  OUTLIERS_THRESHOLD_Max: 16
MK3  OUTLIERS_THRESHOLD_Min: 8
MK4  MARKOV_LRU_SIZE: 512
MK4  MARKOV_PREDICTION_PERCENTTHRESHOLD: 20.00000
MK4  OUTLIERS_THRESHOLD_Max: 8
MK4  OUTLIERS_THRESHOLD_Min: 0
IPStride Degree/Access Ratio: 1.54690
MK1 IPDEltaMarkov  Degree/Access Ratio: 0.42752
MK2 IPDEltaMarkov  Degree/Access Ratio: 0.79528
MK3 IPDEltaMarkov  Degree/Access Ratio: 0.75919
MK4 IPDEltaMarkov  Degree/Access Ratio: 1.31248
CPU 1 L1D next line prefetcher final stats
CPU 1 L2C PC-based stride prefetcher final stats
Stride Degree: 15
MK1  MARKOV_LRU_SIZE: 128
MK1  MARKOV_PREDICTION_PERCENTTHRESHOLD: 40.00000
MK1  OUTLIERS_THRESHOLD_Max: 64
MK1  OUTLIERS_THRESHOLD_Min: 32
MK2  MARKOV_LRU_SIZE: 256
MK2  MARKOV_PREDICTION_PERCENTTHRESHOLD: 20.00000
MK2  OUTLIERS_THRESHOLD_Max: 32
MK2  OUTLIERS_THRESHOLD_Min: 16
MK3  MARKOV_LRU_SIZE: 384
MK3  MARKOV_PREDICTION_PERCENTTHRESHOLD: 25.00000
MK3  OUTLIERS_THRESHOLD_Max: 16
MK3  OUTLIERS_THRESHOLD_Min: 8
MK4  MARKOV_LRU_SIZE: 512
MK4  MARKOV_PREDICTION_PERCENTTHRESHOLD: 20.00000
MK4  OUTLIERS_THRESHOLD_Max: 8
MK4  OUTLIERS_THRESHOLD_Min: 0
IPStride Degree/Access Ratio: 1.54690
MK1 IPDEltaMarkov  Degree/Access Ratio: 0.42752
MK2 IPDEltaMarkov  Degree/Access Ratio: 0.79528
MK3 IPDEltaMarkov  Degree/Access Ratio: 0.75919
MK4 IPDEltaMarkov  Degree/Access Ratio: 1.31248
CPU 2 L1D next line prefetcher final stats
CPU 2 L2C PC-based stride prefetcher final stats
Stride Degree: 15
MK1  MARKOV_LRU_SIZE: 128
MK1  MARKOV_PREDICTION_PERCENTTHRESHOLD: 40.00000
MK1  OUTLIERS_THRESHOLD_Max: 64
MK1  OUTLIERS_THRESHOLD_Min: 32
MK2  MARKOV_LRU_SIZE: 256
MK2  MARKOV_PREDICTION_PERCENTTHRESHOLD: 20.00000
MK2  OUTLIERS_THRESHOLD_Max: 32
MK2  OUTLIERS_THRESHOLD_Min: 16
MK3  MARKOV_LRU_SIZE: 384
MK3  MARKOV_PREDICTION_PERCENTTHRESHOLD: 25.00000
MK3  OUTLIERS_THRESHOLD_Max: 16
MK3  OUTLIERS_THRESHOLD_Min: 8
MK4  MARKOV_LRU_SIZE: 512
MK4  MARKOV_PREDICTION_PERCENTTHRESHOLD: 20.00000
MK4  OUTLIERS_THRESHOLD_Max: 8
MK4  OUTLIERS_THRESHOLD_Min: 0
IPStride Degree/Access Ratio: 1.54690
MK1 IPDEltaMarkov  Degree/Access Ratio: 0.42752
MK2 IPDEltaMarkov  Degree/Access Ratio: 0.79528
MK3 IPDEltaMarkov  Degree/Access Ratio: 0.75919
MK4 IPDEltaMarkov  Degree/Access Ratio: 1.31248
CPU 3 L1D next line prefetcher final stats
CPU 3 L2C PC-based stride prefetcher final stats
Stride Degree: 15
MK1  MARKOV_LRU_SIZE: 128
MK1  MARKOV_PREDICTION_PERCENTTHRESHOLD: 40.00000
MK1  OUTLIERS_THRESHOLD_Max: 64
MK1  OUTLIERS_THRESHOLD_Min: 32
MK2  MARKOV_LRU_SIZE: 256
MK2  MARKOV_PREDICTION_PERCENTTHRESHOLD: 20.00000
MK2  OUTLIERS_THRESHOLD_Max: 32
MK2  OUTLIERS_THRESHOLD_Min: 16
MK3  MARKOV_LRU_SIZE: 384
MK3  MARKOV_PREDICTION_PERCENTTHRESHOLD: 25.00000
MK3  OUTLIERS_THRESHOLD_Max: 16
MK3  OUTLIERS_THRESHOLD_Min: 8
MK4  MARKOV_LRU_SIZE: 512
MK4  MARKOV_PREDICTION_PERCENTTHRESHOLD: 20.00000
MK4  OUTLIERS_THRESHOLD_Max: 8
MK4  OUTLIERS_THRESHOLD_Min: 0
IPStride Degree/Access Ratio: 1.54690
MK1 IPDEltaMarkov  Degree/Access Ratio: 0.42752
MK2 IPDEltaMarkov  Degree/Access Ratio: 0.79528
MK3 IPDEltaMarkov  Degree/Access Ratio: 0.75919
MK4 IPDEltaMarkov  Degree/Access Ratio: 1.31248
Channel_0_RQ_row_buffer_hit 6542811
Channel_0_RQ_row_buffer_miss 11866749
Channel_0_WQ_row_buffer_hit 2996164
Channel_0_WQ_row_buffer_miss 6897468
Channel_0_WQ_full 20763
Channel_0_dbus_congested 20272535

avg_congested_cycle 11

EzSearch AVG IPC :0.58007: L2-Pf-HR :0.91370 : L2-HR :0.90096 Uful:0.01298
EzSearch AVG IPC :0.58078: L2-Pf-HR :0.91156 : L2-HR :0.89943 Uful:0.01376
EzSearch AVG IPC :0.58036: L2-Pf-HR :0.91355 : L2-HR :0.90089 Uful:0.01300
EzSearch AVG IPC :0.58011: L2-Pf-HR :0.91316 : L2-HR :0.90070 Uful:0.01331
     > Finished combination: TraceType=770-tot Sim:491000000 Prefetcher=L2029-SecTOP-L2-MultiMarkovDelta_ip_stride_v4 L1=next_line
