TRACE: [298000000][GPT-Neo_1_3B]_[h16][s512][d128] Warmup: 2000000 NumTraces: 298000000
L1:berti:L2:berti
*************************************************
   ChampSim Multicore Out-of-Order Simulator
   Last compiled: Oct 28 2024 06:12:30
*************************************************

trace_0 770-tot_memTraces_v3/memTraces[298000000][GPT-Neo_1_3B]_[h16][s512][d128].champsim.xz
trace_1 770-tot_memTraces_v3/memTraces[298000000][GPT-Neo_1_3B]_[h16][s512][d128].champsim.xz
trace_2 770-tot_memTraces_v3/memTraces[298000000][GPT-Neo_1_3B]_[h16][s512][d128].champsim.xz
trace_3 770-tot_memTraces_v3/memTraces[298000000][GPT-Neo_1_3B]_[h16][s512][d128].champsim.xz
CPU 0 L1D Berti prefetcher
CPU 0 L2C Berti prefetcher
CPU 1 L1D Berti prefetcher
CPU 1 L2C Berti prefetcher
CPU 2 L1D Berti prefetcher
CPU 2 L2C Berti prefetcher
CPU 3 L1D Berti prefetcher
CPU 3 L2C Berti prefetcher
MAIN.cc ln 751 stats print skipped
CPU  2 inst:    1000003 cyc:     499044 now IPC :2.00384: AVG IPC :2.00384: L2-Pf-HR :0.65314: L2-HR :0.65843: (Sim:0h1m48s) 
CPU  0 inst:    1000003 cyc:     499068 now IPC :2.00374: AVG IPC :2.00374: L2-Pf-HR :0.65515: L2-HR :0.65892: (Sim:0h1m48s) 
CPU  1 inst:    1000003 cyc:     499094 now IPC :2.00364: AVG IPC :2.00364: L2-Pf-HR :0.65653: L2-HR :0.65611: (Sim:0h1m48s) 
CPU  3 inst:    1000003 cyc:     499492 now IPC :2.00204: AVG IPC :2.00204: L2-Pf-HR :0.65344: L2-HR :0.65669: (Sim:0h1m48s) 
CPU  2 inst:    2000001 cyc:     984119 now IPC :2.06153: AVG IPC :2.03228: L2-Pf-HR :0.75439: L2-HR :0.74087: (Sim:0h3m44s) 
CPU  0 inst:    2000001 cyc:     984135 now IPC :2.06157: AVG IPC :2.03224: L2-Pf-HR :0.75464: L2-HR :0.74297: (Sim:0h3m44s) 
CPU  1 inst:    2000001 cyc:     984139 now IPC :2.06166: AVG IPC :2.03223: L2-Pf-HR :0.75595: L2-HR :0.73957: (Sim:0h3m44s) 
CPU  3 inst:    2000001 cyc:     984537 now IPC :2.06166: AVG IPC :2.03141: L2-Pf-HR :0.73087: L2-HR :0.72291: (Sim:0h3m44s) 

Warmup complete CPU  0 instructions:    2000912 cycles:     984537 (Simulation time: 0 hr 3 min 44 sec) 
Warmup complete CPU  1 instructions:    2000912 cycles:     984537 (Simulation time: 0 hr 3 min 44 sec) 
Warmup complete CPU  2 instructions:    2000912 cycles:     984537 (Simulation time: 0 hr 3 min 44 sec) 
Warmup complete CPU  3 instructions:    2000001 cycles:     984537 (Simulation time: 0 hr 3 min 44 sec) 

CPU  1 inst:    3000002 cyc:    1564701 now IPC :1.72247: AVG IPC :1.72208: L2-Pf-HR :0.84320: L2-HR :0.83479: (Sim:0h4m40s) 
CPU  3 inst:    3000002 cyc:    1568459 now IPC :1.71256: AVG IPC :1.71256: L2-Pf-HR :0.80402: L2-HR :0.80070: (Sim:0h4m41s) 
CPU  2 inst:    3000002 cyc:    1569891 now IPC :1.70715: AVG IPC :1.70681: L2-Pf-HR :0.85088: L2-HR :0.83955: (Sim:0h4m41s) 
CPU  0 inst:    3000002 cyc:    1575122 now IPC :1.69209: AVG IPC :1.69170: L2-Pf-HR :0.85181: L2-HR :0.84456: (Sim:0h4m41s) 
CPU  1 inst:    4000002 cyc:    2106794 now IPC :1.84470: AVG IPC :1.78131: L2-Pf-HR :0.84769: L2-HR :0.83829: (Sim:0h5m47s) 
CPU  2 inst:    4000002 cyc:    2119867 now IPC :1.81826: AVG IPC :1.76080: L2-Pf-HR :0.84998: L2-HR :0.83898: (Sim:0h5m50s) 
CPU  3 inst:    4000002 cyc:    2125638 now IPC :1.79476: AVG IPC :1.75269: L2-Pf-HR :0.80498: L2-HR :0.79967: (Sim:0h5m51s) 
CPU  0 inst:    4000002 cyc:    2131761 now IPC :1.79650: AVG IPC :1.74255: L2-Pf-HR :0.85106: L2-HR :0.84269: (Sim:0h5m52s) 
CPU  1 inst:    5000004 cyc:    2633269 now IPC :1.89943: AVG IPC :1.81903: L2-Pf-HR :0.84738: L2-HR :0.83876: (Sim:0h7m25s) 
CPU  2 inst:    5000004 cyc:    2642931 now IPC :1.91182: AVG IPC :1.80843: L2-Pf-HR :0.84834: L2-HR :0.83769: (Sim:0h7m27s) 
CPU  3 inst:    5000004 cyc:    2649862 now IPC :1.90759: AVG IPC :1.80145: L2-Pf-HR :0.80622: L2-HR :0.80106: (Sim:0h7m28s) 
CPU  0 inst:    5000004 cyc:    2659197 now IPC :1.89597: AVG IPC :1.79087: L2-Pf-HR :0.84984: L2-HR :0.84106: (Sim:0h7m30s) 
CPU  1 inst:    6000003 cyc:    3113843 now IPC :2.08084: AVG IPC :1.87812: L2-Pf-HR :0.84629: L2-HR :0.83936: (Sim:0h9m0s) 
CPU  2 inst:    6000003 cyc:    3130326 now IPC :2.05172: AVG IPC :1.86369: L2-Pf-HR :0.84981: L2-HR :0.84052: (Sim:0h9m3s) 
CPU  3 inst:    6000003 cyc:    3139622 now IPC :2.04181: AVG IPC :1.85608: L2-Pf-HR :0.80622: L2-HR :0.80304: (Sim:0h9m5s) 
CPU  0 inst:    6000003 cyc:    3148309 now IPC :2.04452: AVG IPC :1.84820: L2-Pf-HR :0.85025: L2-HR :0.84300: (Sim:0h9m6s) 
CPU  1 inst:    7000000 cyc:    3674576 now IPC :1.78337: AVG IPC :1.85837: L2-Pf-HR :0.85532: L2-HR :0.84671: (Sim:0h10m22s) 
CPU  3 inst:    7000000 cyc:    3689052 now IPC :1.82006: AVG IPC :1.84876: L2-Pf-HR :0.81776: L2-HR :0.81317: (Sim:0h10m24s) 
CPU  2 inst:    7000000 cyc:    3692809 now IPC :1.77783: AVG IPC :1.84586: L2-Pf-HR :0.85581: L2-HR :0.84350: (Sim:0h10m24s) 
CPU  1 inst:    8000004 cyc:    4148239 now IPC :2.11121: AVG IPC :1.89623: L2-Pf-HR :0.86839: L2-HR :0.86049: (Sim:0h11m32s) 
CPU  2 inst:    8000004 cyc:    4171255 now IPC :2.09011: AVG IPC :1.88253: L2-Pf-HR :0.86928: L2-HR :0.85834: (Sim:0h11m36s) 
CPU  3 inst:    8000004 cyc:    4171467 now IPC :2.07291: AVG IPC :1.88269: L2-Pf-HR :0.83817: L2-HR :0.83328: (Sim:0h11m36s) 
DEADLOCK! CPU 0 instr_id: 6114351 translated: 2 fetched: 2 scheduled: 2 executed: 1 is_memory: 1 event: 3214947 current: 4214947

Load Queue Entry
[LQ] entry: 0 instr_id: 0 address: 0 translated: 0 fetched: 0
[LQ] entry: 1 instr_id: 0 address: 0 translated: 0 fetched: 0
[LQ] entry: 2 instr_id: 0 address: 0 translated: 0 fetched: 0
[LQ] entry: 3 instr_id: 0 address: 0 translated: 0 fetched: 0
[LQ] entry: 4 instr_id: 0 address: 0 translated: 0 fetched: 0
[LQ] entry: 5 instr_id: 0 address: 0 translated: 0 fetched: 0
[LQ] entry: 6 instr_id: 0 address: 0 translated: 0 fetched: 0
[LQ] entry: 7 instr_id: 0 address: 0 translated: 0 fetched: 0
[LQ] entry: 8 instr_id: 0 address: 0 translated: 0 fetched: 0
[LQ] entry: 9 instr_id: 0 address: 0 translated: 0 fetched: 0
[LQ] entry: 10 instr_id: 0 address: 0 translated: 0 fetched: 0
[LQ] entry: 11 instr_id: 0 address: 0 translated: 0 fetched: 0
[LQ] entry: 12 instr_id: 0 address: 0 translated: 0 fetched: 0
[LQ] entry: 13 instr_id: 0 address: 0 translated: 0 fetched: 0
[LQ] entry: 14 instr_id: 0 address: 0 translated: 0 fetched: 0
[LQ] entry: 15 instr_id: 0 address: 0 translated: 0 fetched: 0
[LQ] entry: 16 instr_id: 0 address: 0 translated: 0 fetched: 0
[LQ] entry: 17 instr_id: 0 address: 0 translated: 0 fetched: 0
[LQ] entry: 18 instr_id: 0 address: 0 translated: 0 fetched: 0
[LQ] entry: 19 instr_id: 0 address: 0 translated: 0 fetched: 0
[LQ] entry: 20 instr_id: 0 address: 0 translated: 0 fetched: 0
[LQ] entry: 21 instr_id: 0 address: 0 translated: 0 fetched: 0
[LQ] entry: 22 instr_id: 0 address: 0 translated: 0 fetched: 0
[LQ] entry: 23 instr_id: 0 address: 0 translated: 0 fetched: 0
[LQ] entry: 24 instr_id: 0 address: 0 translated: 0 fetched: 0
[LQ] entry: 25 instr_id: 0 address: 0 translated: 0 fetched: 0
[LQ] entry: 26 instr_id: 0 address: 0 translated: 0 fetched: 0
[LQ] entry: 27 instr_id: 0 address: 0 translated: 0 fetched: 0
[LQ] entry: 28 instr_id: 0 address: 0 translated: 0 fetched: 0
[LQ] entry: 29 instr_id: 0 address: 0 translated: 0 fetched: 0
[LQ] entry: 30 instr_id: 0 address: 0 translated: 0 fetched: 0
[LQ] entry: 31 instr_id: 0 address: 0 translated: 0 fetched: 0
[LQ] entry: 32 instr_id: 0 address: 0 translated: 0 fetched: 0
[LQ] entry: 33 instr_id: 0 address: 0 translated: 0 fetched: 0
[LQ] entry: 34 instr_id: 0 address: 0 translated: 0 fetched: 0
[LQ] entry: 35 instr_id: 0 address: 0 translated: 0 fetched: 0
[LQ] entry: 36 instr_id: 0 address: 0 translated: 0 fetched: 0
[LQ] entry: 37 instr_id: 0 address: 0 translated: 0 fetched: 0
[LQ] entry: 38 instr_id: 0 address: 0 translated: 0 fetched: 0
[LQ] entry: 39 instr_id: 0 address: 0 translated: 0 fetched: 0
[LQ] entry: 40 instr_id: 0 address: 0 translated: 0 fetched: 0
[LQ] entry: 41 instr_id: 0 address: 0 translated: 0 fetched: 0
[LQ] entry: 42 instr_id: 0 address: 0 translated: 0 fetched: 0
[LQ] entry: 43 instr_id: 0 address: 0 translated: 0 fetched: 0
[LQ] entry: 44 instr_id: 0 address: 0 translated: 0 fetched: 0
[LQ] entry: 45 instr_id: 0 address: 0 translated: 0 fetched: 0
[LQ] entry: 46 instr_id: 0 address: 0 translated: 0 fetched: 0
[LQ] entry: 47 instr_id: 0 address: 0 translated: 0 fetched: 0
[LQ] entry: 48 instr_id: 0 address: 0 translated: 0 fetched: 0
[LQ] entry: 49 instr_id: 0 address: 0 translated: 0 fetched: 0
[LQ] entry: 50 instr_id: 0 address: 0 translated: 0 fetched: 0
[LQ] entry: 51 instr_id: 0 address: 0 translated: 0 fetched: 0
[LQ] entry: 52 instr_id: 6114351 address: fc47cbc93100 translated: 2 fetched: 0
[LQ] entry: 53 instr_id: 6114354 address: fc47cbc93140 translated: 2 fetched: 0
[LQ] entry: 54 instr_id: 0 address: 0 translated: 0 fetched: 0
[LQ] entry: 55 instr_id: 6114356 address: fc47cbc93180 translated: 2 fetched: 0
[LQ] entry: 56 instr_id: 6114362 address: fc47cbc93100 translated: 2 fetched: 0
[LQ] entry: 57 instr_id: 0 address: 0 translated: 0 fetched: 0
[LQ] entry: 58 instr_id: 0 address: 0 translated: 0 fetched: 0
[LQ] entry: 59 instr_id: 0 address: 0 translated: 0 fetched: 0
[LQ] entry: 60 instr_id: 0 address: 0 translated: 0 fetched: 0
[LQ] entry: 61 instr_id: 0 address: 0 translated: 0 fetched: 0
[LQ] entry: 62 instr_id: 0 address: 0 translated: 0 fetched: 0
[LQ] entry: 63 instr_id: 0 address: 0 translated: 0 fetched: 0
[LQ] entry: 64 instr_id: 0 address: 0 translated: 0 fetched: 0
[LQ] entry: 65 instr_id: 0 address: 0 translated: 0 fetched: 0
[LQ] entry: 66 instr_id: 0 address: 0 translated: 0 fetched: 0
[LQ] entry: 67 instr_id: 0 address: 0 translated: 0 fetched: 0
[LQ] entry: 68 instr_id: 0 address: 0 translated: 0 fetched: 0
[LQ] entry: 69 instr_id: 0 address: 0 translated: 0 fetched: 0
[LQ] entry: 70 instr_id: 0 address: 0 translated: 0 fetched: 0
[LQ] entry: 71 instr_id: 0 address: 0 translated: 0 fetched: 0
[LQ] entry: 72 instr_id: 0 address: 0 translated: 0 fetched: 0
[LQ] entry: 73 instr_id: 0 address: 0 translated: 0 fetched: 0
[LQ] entry: 74 instr_id: 0 address: 0 translated: 0 fetched: 0
[LQ] entry: 75 instr_id: 0 address: 0 translated: 0 fetched: 0
[LQ] entry: 76 instr_id: 0 address: 0 translated: 0 fetched: 0
[LQ] entry: 77 instr_id: 0 address: 0 translated: 0 fetched: 0
[LQ] entry: 78 instr_id: 0 address: 0 translated: 0 fetched: 0
[LQ] entry: 79 instr_id: 0 address: 0 translated: 0 fetched: 0
[LQ] entry: 80 instr_id: 0 address: 0 translated: 0 fetched: 0
[LQ] entry: 81 instr_id: 0 address: 0 translated: 0 fetched: 0
[LQ] entry: 82 instr_id: 0 address: 0 translated: 0 fetched: 0
[LQ] entry: 83 instr_id: 0 address: 0 translated: 0 fetched: 0
[LQ] entry: 84 instr_id: 0 address: 0 translated: 0 fetched: 0
[LQ] entry: 85 instr_id: 0 address: 0 translated: 0 fetched: 0
[LQ] entry: 86 instr_id: 0 address: 0 translated: 0 fetched: 0
[LQ] entry: 87 instr_id: 0 address: 0 translated: 0 fetched: 0
[LQ] entry: 88 instr_id: 0 address: 0 translated: 0 fetched: 0
[LQ] entry: 89 instr_id: 0 address: 0 translated: 0 fetched: 0
[LQ] entry: 90 instr_id: 0 address: 0 translated: 0 fetched: 0
[LQ] entry: 91 instr_id: 0 address: 0 translated: 0 fetched: 0
[LQ] entry: 92 instr_id: 0 address: 0 translated: 0 fetched: 0
[LQ] entry: 93 instr_id: 0 address: 0 translated: 0 fetched: 0
[LQ] entry: 94 instr_id: 0 address: 0 translated: 0 fetched: 0
[LQ] entry: 95 instr_id: 0 address: 0 translated: 0 fetched: 0
[LQ] entry: 96 instr_id: 0 address: 0 translated: 0 fetched: 0
[LQ] entry: 97 instr_id: 0 address: 0 translated: 0 fetched: 0
[LQ] entry: 98 instr_id: 0 address: 0 translated: 0 fetched: 0
[LQ] entry: 99 instr_id: 0 address: 0 translated: 0 fetched: 0
[LQ] entry: 100 instr_id: 0 address: 0 translated: 0 fetched: 0
[LQ] entry: 101 instr_id: 0 address: 0 translated: 0 fetched: 0
[LQ] entry: 102 instr_id: 0 address: 0 translated: 0 fetched: 0
[LQ] entry: 103 instr_id: 0 address: 0 translated: 0 fetched: 0
[LQ] entry: 104 instr_id: 0 address: 0 translated: 0 fetched: 0
[LQ] entry: 105 instr_id: 0 address: 0 translated: 0 fetched: 0
[LQ] entry: 106 instr_id: 0 address: 0 translated: 0 fetched: 0
[LQ] entry: 107 instr_id: 0 address: 0 translated: 0 fetched: 0
[LQ] entry: 108 instr_id: 0 address: 0 translated: 0 fetched: 0
[LQ] entry: 109 instr_id: 0 address: 0 translated: 0 fetched: 0
[LQ] entry: 110 instr_id: 0 address: 0 translated: 0 fetched: 0
[LQ] entry: 111 instr_id: 0 address: 0 translated: 0 fetched: 0
[LQ] entry: 112 instr_id: 0 address: 0 translated: 0 fetched: 0
[LQ] entry: 113 instr_id: 0 address: 0 translated: 0 fetched: 0
[LQ] entry: 114 instr_id: 0 address: 0 translated: 0 fetched: 0
[LQ] entry: 115 instr_id: 0 address: 0 translated: 0 fetched: 0
[LQ] entry: 116 instr_id: 0 address: 0 translated: 0 fetched: 0
[LQ] entry: 117 instr_id: 0 address: 0 translated: 0 fetched: 0
[LQ] entry: 118 instr_id: 0 address: 0 translated: 0 fetched: 0
[LQ] entry: 119 instr_id: 0 address: 0 translated: 0 fetched: 0
[LQ] entry: 120 instr_id: 0 address: 0 translated: 0 fetched: 0
[LQ] entry: 121 instr_id: 0 address: 0 translated: 0 fetched: 0
[LQ] entry: 122 instr_id: 0 address: 0 translated: 0 fetched: 0
[LQ] entry: 123 instr_id: 0 address: 0 translated: 0 fetched: 0
[LQ] entry: 124 instr_id: 0 address: 0 translated: 0 fetched: 0
[LQ] entry: 125 instr_id: 0 address: 0 translated: 0 fetched: 0
[LQ] entry: 126 instr_id: 0 address: 0 translated: 0 fetched: 0
[LQ] entry: 127 instr_id: 0 address: 0 translated: 0 fetched: 0
[LQ] entry: 128 instr_id: 0 address: 0 translated: 0 fetched: 0
[LQ] entry: 129 instr_id: 0 address: 0 translated: 0 fetched: 0
[LQ] entry: 130 instr_id: 0 address: 0 translated: 0 fetched: 0
[LQ] entry: 131 instr_id: 0 address: 0 translated: 0 fetched: 0
[LQ] entry: 132 instr_id: 0 address: 0 translated: 0 fetched: 0
[LQ] entry: 133 instr_id: 0 address: 0 translated: 0 fetched: 0
[LQ] entry: 134 instr_id: 0 address: 0 translated: 0 fetched: 0
[LQ] entry: 135 instr_id: 0 address: 0 translated: 0 fetched: 0
[LQ] entry: 136 instr_id: 0 address: 0 translated: 0 fetched: 0
[LQ] entry: 137 instr_id: 0 address: 0 translated: 0 fetched: 0
[LQ] entry: 138 instr_id: 0 address: 0 translated: 0 fetched: 0
[LQ] entry: 139 instr_id: 0 address: 0 translated: 0 fetched: 0
[LQ] entry: 140 instr_id: 0 address: 0 translated: 0 fetched: 0
[LQ] entry: 141 instr_id: 0 address: 0 translated: 0 fetched: 0
[LQ] entry: 142 instr_id: 0 address: 0 translated: 0 fetched: 0
[LQ] entry: 143 instr_id: 0 address: 0 translated: 0 fetched: 0
[LQ] entry: 144 instr_id: 0 address: 0 translated: 0 fetched: 0
[LQ] entry: 145 instr_id: 0 address: 0 translated: 0 fetched: 0
[LQ] entry: 146 instr_id: 0 address: 0 translated: 0 fetched: 0
[LQ] entry: 147 instr_id: 0 address: 0 translated: 0 fetched: 0

Store Queue Entry
[SQ] entry: 0 instr_id: 0 address: 0 translated: 0 fetched: 0
[SQ] entry: 1 instr_id: 0 address: 0 translated: 0 fetched: 0
[SQ] entry: 2 instr_id: 0 address: 0 translated: 0 fetched: 0
[SQ] entry: 3 instr_id: 0 address: 0 translated: 0 fetched: 0
[SQ] entry: 4 instr_id: 0 address: 0 translated: 0 fetched: 0
[SQ] entry: 5 instr_id: 0 address: 0 translated: 0 fetched: 0
[SQ] entry: 6 instr_id: 0 address: 0 translated: 0 fetched: 0
[SQ] entry: 7 instr_id: 0 address: 0 translated: 0 fetched: 0
[SQ] entry: 8 instr_id: 0 address: 0 translated: 0 fetched: 0
[SQ] entry: 9 instr_id: 0 address: 0 translated: 0 fetched: 0
[SQ] entry: 10 instr_id: 0 address: 0 translated: 0 fetched: 0
[SQ] entry: 11 instr_id: 0 address: 0 translated: 0 fetched: 0
[SQ] entry: 12 instr_id: 0 address: 0 translated: 0 fetched: 0
[SQ] entry: 13 instr_id: 0 address: 0 translated: 0 fetched: 0
[SQ] entry: 14 instr_id: 0 address: 0 translated: 0 fetched: 0
[SQ] entry: 15 instr_id: 0 address: 0 translated: 0 fetched: 0
[SQ] entry: 16 instr_id: 0 address: 0 translated: 0 fetched: 0
[SQ] entry: 17 instr_id: 0 address: 0 translated: 0 fetched: 0
[SQ] entry: 18 instr_id: 0 address: 0 translated: 0 fetched: 0
[SQ] entry: 19 instr_id: 0 address: 0 translated: 0 fetched: 0
[SQ] entry: 20 instr_id: 0 address: 0 translated: 0 fetched: 0
[SQ] entry: 21 instr_id: 0 address: 0 translated: 0 fetched: 0
[SQ] entry: 22 instr_id: 0 address: 0 translated: 0 fetched: 0
[SQ] entry: 23 instr_id: 0 address: 0 translated: 0 fetched: 0
[SQ] entry: 24 instr_id: 0 address: 0 translated: 0 fetched: 0
[SQ] entry: 25 instr_id: 0 address: 0 translated: 0 fetched: 0
[SQ] entry: 26 instr_id: 0 address: 0 translated: 0 fetched: 0
[SQ] entry: 27 instr_id: 0 address: 0 translated: 0 fetched: 0
[SQ] entry: 28 instr_id: 0 address: 0 translated: 0 fetched: 0
[SQ] entry: 29 instr_id: 0 address: 0 translated: 0 fetched: 0
[SQ] entry: 30 instr_id: 0 address: 0 translated: 0 fetched: 0
[SQ] entry: 31 instr_id: 0 address: 0 translated: 0 fetched: 0
[SQ] entry: 32 instr_id: 0 address: 0 translated: 0 fetched: 0
[SQ] entry: 33 instr_id: 0 address: 0 translated: 0 fetched: 0
[SQ] entry: 34 instr_id: 0 address: 0 translated: 0 fetched: 0
[SQ] entry: 35 instr_id: 0 address: 0 translated: 0 fetched: 0
[SQ] entry: 36 instr_id: 0 address: 0 translated: 0 fetched: 0
[SQ] entry: 37 instr_id: 0 address: 0 translated: 0 fetched: 0
[SQ] entry: 38 instr_id: 0 address: 0 translated: 0 fetched: 0
[SQ] entry: 39 instr_id: 0 address: 0 translated: 0 fetched: 0
[SQ] entry: 40 instr_id: 0 address: 0 translated: 0 fetched: 0
[SQ] entry: 41 instr_id: 0 address: 0 translated: 0 fetched: 0
[SQ] entry: 42 instr_id: 0 address: 0 translated: 0 fetched: 0
[SQ] entry: 43 instr_id: 0 address: 0 translated: 0 fetched: 0
[SQ] entry: 44 instr_id: 0 address: 0 translated: 0 fetched: 0
[SQ] entry: 45 instr_id: 0 address: 0 translated: 0 fetched: 0
[SQ] entry: 46 instr_id: 0 address: 0 translated: 0 fetched: 0
[SQ] entry: 47 instr_id: 0 address: 0 translated: 0 fetched: 0
[SQ] entry: 48 instr_id: 0 address: 0 translated: 0 fetched: 0
[SQ] entry: 49 instr_id: 0 address: 0 translated: 0 fetched: 0
[SQ] entry: 50 instr_id: 0 address: 0 translated: 0 fetched: 0
[SQ] entry: 51 instr_id: 0 address: 0 translated: 0 fetched: 0
[SQ] entry: 52 instr_id: 0 address: 0 translated: 0 fetched: 0
[SQ] entry: 53 instr_id: 0 address: 0 translated: 0 fetched: 0
[SQ] entry: 54 instr_id: 0 address: 0 translated: 0 fetched: 0
[SQ] entry: 55 instr_id: 0 address: 0 translated: 0 fetched: 0
[SQ] entry: 56 instr_id: 0 address: 0 translated: 0 fetched: 0
[SQ] entry: 57 instr_id: 0 address: 0 translated: 0 fetched: 0
[SQ] entry: 58 instr_id: 0 address: 0 translated: 0 fetched: 0
[SQ] entry: 59 instr_id: 0 address: 0 translated: 0 fetched: 0
[SQ] entry: 60 instr_id: 0 address: 0 translated: 0 fetched: 0
[SQ] entry: 61 instr_id: 0 address: 0 translated: 0 fetched: 0
[SQ] entry: 62 instr_id: 0 address: 0 translated: 0 fetched: 0
[SQ] entry: 63 instr_id: 0 address: 0 translated: 0 fetched: 0
[SQ] entry: 64 instr_id: 0 address: 0 translated: 0 fetched: 0
[SQ] entry: 65 instr_id: 0 address: 0 translated: 0 fetched: 0
[SQ] entry: 66 instr_id: 0 address: 0 translated: 0 fetched: 0
[SQ] entry: 67 instr_id: 0 address: 0 translated: 0 fetched: 0
[SQ] entry: 68 instr_id: 0 address: 0 translated: 0 fetched: 0
[SQ] entry: 69 instr_id: 6114352 address: 79e62ee9c020 translated: 2 fetched: 0
[SQ] entry: 70 instr_id: 6114355 address: 79e62ee9c820 translated: 2 fetched: 0
[SQ] entry: 71 instr_id: 6114357 address: 79e62eea3020 translated: 2 fetched: 0
[SQ] entry: 72 instr_id: 0 address: 0 translated: 0 fetched: 0
[SQ] entry: 73 instr_id: 0 address: 0 translated: 0 fetched: 0
[SQ] entry: 74 instr_id: 0 address: 0 translated: 0 fetched: 0
[SQ] entry: 75 instr_id: 0 address: 0 translated: 0 fetched: 0
[SQ] entry: 76 instr_id: 0 address: 0 translated: 0 fetched: 0
[SQ] entry: 77 instr_id: 0 address: 0 translated: 0 fetched: 0
[SQ] entry: 78 instr_id: 0 address: 0 translated: 0 fetched: 0
[SQ] entry: 79 instr_id: 0 address: 0 translated: 0 fetched: 0
[SQ] entry: 80 instr_id: 0 address: 0 translated: 0 fetched: 0
[SQ] entry: 81 instr_id: 0 address: 0 translated: 0 fetched: 0
[SQ] entry: 82 instr_id: 0 address: 0 translated: 0 fetched: 0
[SQ] entry: 83 instr_id: 0 address: 0 translated: 0 fetched: 0
[SQ] entry: 84 instr_id: 0 address: 0 translated: 0 fetched: 0
[SQ] entry: 85 instr_id: 0 address: 0 translated: 0 fetched: 0
[SQ] entry: 86 instr_id: 0 address: 0 translated: 0 fetched: 0
[SQ] entry: 87 instr_id: 0 address: 0 translated: 0 fetched: 0
[SQ] entry: 88 instr_id: 0 address: 0 translated: 0 fetched: 0
[SQ] entry: 89 instr_id: 0 address: 0 translated: 0 fetched: 0
[SQ] entry: 90 instr_id: 0 address: 0 translated: 0 fetched: 0
[SQ] entry: 91 instr_id: 0 address: 0 translated: 0 fetched: 0
[SQ] entry: 92 instr_id: 0 address: 0 translated: 0 fetched: 0
[SQ] entry: 93 instr_id: 0 address: 0 translated: 0 fetched: 0
[SQ] entry: 94 instr_id: 0 address: 0 translated: 0 fetched: 0
[SQ] entry: 95 instr_id: 0 address: 0 translated: 0 fetched: 0
[SQ] entry: 96 instr_id: 0 address: 0 translated: 0 fetched: 0
[SQ] entry: 97 instr_id: 0 address: 0 translated: 0 fetched: 0
[SQ] entry: 98 instr_id: 0 address: 0 translated: 0 fetched: 0
[SQ] entry: 99 instr_id: 0 address: 0 translated: 0 fetched: 0
[SQ] entry: 100 instr_id: 0 address: 0 translated: 0 fetched: 0
[SQ] entry: 101 instr_id: 0 address: 0 translated: 0 fetched: 0
[SQ] entry: 102 instr_id: 0 address: 0 translated: 0 fetched: 0
[SQ] entry: 103 instr_id: 0 address: 0 translated: 0 fetched: 0
[SQ] entry: 104 instr_id: 0 address: 0 translated: 0 fetched: 0
[SQ] entry: 105 instr_id: 0 address: 0 translated: 0 fetched: 0

L1D_MSHR Entry
[L1D_MSHR] entry: 0 instr_id: 0 rob_index: -1 address: 0 full_addr: 0 type: 0 fill_level: -1 lq_index: 0 sq_index: 0
[L1D_MSHR] entry: 1 instr_id: 0 rob_index: -1 address: 0 full_addr: 0 type: 0 fill_level: -1 lq_index: 0 sq_index: 0
[L1D_MSHR] entry: 2 instr_id: 0 rob_index: -1 address: 0 full_addr: 0 type: 0 fill_level: -1 lq_index: 0 sq_index: 0
[L1D_MSHR] entry: 3 instr_id: 0 rob_index: -1 address: 0 full_addr: 0 type: 0 fill_level: -1 lq_index: 0 sq_index: 0
[L1D_MSHR] entry: 4 instr_id: 0 rob_index: -1 address: 0 full_addr: 0 type: 0 fill_level: -1 lq_index: 0 sq_index: 0
[L1D_MSHR] entry: 5 instr_id: 0 rob_index: -1 address: 0 full_addr: 0 type: 0 fill_level: -1 lq_index: 0 sq_index: 0
[L1D_MSHR] entry: 6 instr_id: 6114351 rob_index: 383 address: 3f11f2f24c4 full_addr: fc47cbc93100 type: 0 fill_level: 1 lq_index: 52 sq_index: 0
[L1D_MSHR] entry: 7 instr_id: 6114354 rob_index: 386 address: 3f11f2f24c5 full_addr: fc47cbc93140 type: 0 fill_level: 1 lq_index: 53 sq_index: 0
[L1D_MSHR] entry: 8 instr_id: 6114356 rob_index: 388 address: 3f11f2f24c6 full_addr: fc47cbc93180 type: 0 fill_level: 1 lq_index: 55 sq_index: 0
[L1D_MSHR] entry: 9 instr_id: 0 rob_index: -1 address: 0 full_addr: 0 type: 0 fill_level: -1 lq_index: 0 sq_index: 0
[L1D_MSHR] entry: 10 instr_id: 0 rob_index: -1 address: 0 full_addr: 0 type: 0 fill_level: -1 lq_index: 0 sq_index: 0
[L1D_MSHR] entry: 11 instr_id: 0 rob_index: -1 address: 0 full_addr: 0 type: 0 fill_level: -1 lq_index: 0 sq_index: 0
[L1D_MSHR] entry: 12 instr_id: 0 rob_index: -1 address: 0 full_addr: 0 type: 0 fill_level: -1 lq_index: 0 sq_index: 0
[L1D_MSHR] entry: 13 instr_id: 0 rob_index: -1 address: 0 full_addr: 0 type: 0 fill_level: -1 lq_index: 0 sq_index: 0
[L1D_MSHR] entry: 14 instr_id: 0 rob_index: -1 address: 0 full_addr: 0 type: 0 fill_level: -1 lq_index: 0 sq_index: 0
[L1D_MSHR] entry: 15 instr_id: 0 rob_index: -1 address: 0 full_addr: 0 type: 0 fill_level: -1 lq_index: 0 sq_index: 0
perceptron-berti-berti-no-lru-4core: src/main.cc:284: void print_deadlock(uint32_t): Assertion `0' failed.
     > Finished combination: TraceType=770-tot Sim:293000000 Prefetcher=L2berti L1=berti
