TRACE: [151000000]_FE_[OPT-6_7B]_[h32]_[s256]_[d128] Warmup: 2000000 NumTraces: 151000000
L1:no:L2:no
*************************************************
   ChampSim Multicore Out-of-Order Simulator
   Last compiled: Oct 28 2024 11:05:49
*************************************************

trace_0 770-tot_memTraces_v3/memTraces[151000000]_FE_[OPT-6_7B]_[h32]_[s256]_[d128].champsim.xz
trace_1 770-tot_memTraces_v3/memTraces[151000000]_FE_[OPT-6_7B]_[h32]_[s256]_[d128].champsim.xz
trace_2 770-tot_memTraces_v3/memTraces[151000000]_FE_[OPT-6_7B]_[h32]_[s256]_[d128].champsim.xz
trace_3 770-tot_memTraces_v3/memTraces[151000000]_FE_[OPT-6_7B]_[h32]_[s256]_[d128].champsim.xz
MAIN.cc ln 751 stats print skipped
CPU  2 inst:    1000000 cyc:     499704 now IPC :2.00118: AVG IPC :2.00118: L2-Pf-HR :-nan: L2-HR :0.59733: (Sim:0h1m24s) 
CPU  1 inst:    1000000 cyc:     499815 now IPC :2.00074: AVG IPC :2.00074: L2-Pf-HR :-nan: L2-HR :0.61484: (Sim:0h1m24s) 
CPU  0 inst:    1000000 cyc:     499841 now IPC :2.00064: AVG IPC :2.00064: L2-Pf-HR :-nan: L2-HR :0.61238: (Sim:0h1m24s) 
CPU  3 inst:    1000000 cyc:     499877 now IPC :2.00049: AVG IPC :2.00049: L2-Pf-HR :-nan: L2-HR :0.61485: (Sim:0h1m24s) 
CPU  2 inst:    2000000 cyc:     985025 now IPC :2.06049: AVG IPC :2.03041: L2-Pf-HR :-nan: L2-HR :0.68302: (Sim:0h2m36s) 
CPU  1 inst:    2000000 cyc:     985258 now IPC :2.05997: AVG IPC :2.02993: L2-Pf-HR :-nan: L2-HR :0.70813: (Sim:0h2m36s) 
CPU  0 inst:    2000000 cyc:     985261 now IPC :2.06007: AVG IPC :2.02992: L2-Pf-HR :-nan: L2-HR :0.70298: (Sim:0h2m36s) 
CPU  3 inst:    2000000 cyc:     985303 now IPC :2.06005: AVG IPC :2.02983: L2-Pf-HR :-nan: L2-HR :0.70768: (Sim:0h2m36s) 

Warmup complete CPU  0 instructions:    2000126 cycles:     985304 (Simulation time: 0 hr 2 min 36 sec) 
Warmup complete CPU  1 instructions:    2000139 cycles:     985304 (Simulation time: 0 hr 2 min 36 sec) 
Warmup complete CPU  2 instructions:    2000553 cycles:     985304 (Simulation time: 0 hr 2 min 36 sec) 
Warmup complete CPU  3 instructions:    2000003 cycles:     985304 (Simulation time: 0 hr 2 min 36 sec) 

CPU  1 inst:    3000000 cyc:    1707481 now IPC :1.38461: AVG IPC :1.38451: L2-Pf-HR :-nan: L2-HR :0.79208: (Sim:0h4m3s) 
CPU  0 inst:    3000000 cyc:    1709303 now IPC :1.38114: AVG IPC :1.38104: L2-Pf-HR :-nan: L2-HR :0.79087: (Sim:0h4m3s) 
CPU  2 inst:    3000000 cyc:    1711521 now IPC :1.37647: AVG IPC :1.37624: L2-Pf-HR :-nan: L2-HR :0.78634: (Sim:0h4m4s) 
CPU  3 inst:    3000000 cyc:    1713343 now IPC :1.37355: AVG IPC :1.37355: L2-Pf-HR :-nan: L2-HR :0.79295: (Sim:0h4m4s) 
CPU  1 inst:    4000001 cyc:    2307576 now IPC :1.66640: AVG IPC :1.51244: L2-Pf-HR :-nan: L2-HR :0.81136: (Sim:0h5m33s) 
CPU  0 inst:    4000001 cyc:    2310457 now IPC :1.66347: AVG IPC :1.50917: L2-Pf-HR :-nan: L2-HR :0.81067: (Sim:0h5m33s) 
CPU  2 inst:    4000001 cyc:    2312964 now IPC :1.66267: AVG IPC :1.50599: L2-Pf-HR :-nan: L2-HR :0.80810: (Sim:0h5m34s) 
CPU  3 inst:    4000001 cyc:    2314921 now IPC :1.66230: AVG IPC :1.50419: L2-Pf-HR :-nan: L2-HR :0.81185: (Sim:0h5m34s) 
CPU  1 inst:    5000004 cyc:    3014570 now IPC :1.41444: AVG IPC :1.47830: L2-Pf-HR :-nan: L2-HR :0.80853: (Sim:0h7m7s) 
CPU  0 inst:    5000004 cyc:    3018435 now IPC :1.41248: AVG IPC :1.47550: L2-Pf-HR :-nan: L2-HR :0.80807: (Sim:0h7m8s) 
CPU  2 inst:    5000004 cyc:    3027106 now IPC :1.40029: AVG IPC :1.46902: L2-Pf-HR :-nan: L2-HR :0.80643: (Sim:0h7m9s) 
CPU  3 inst:    5000004 cyc:    3027786 now IPC :1.40279: AVG IPC :1.46880: L2-Pf-HR :-nan: L2-HR :0.80885: (Sim:0h7m9s) 
CPU  1 inst:    6000000 cyc:    3650202 now IPC :1.57323: AVG IPC :1.50094: L2-Pf-HR :-nan: L2-HR :0.81209: (Sim:0h8m29s) 
CPU  0 inst:    6000000 cyc:    3653255 now IPC :1.57524: AVG IPC :1.49923: L2-Pf-HR :-nan: L2-HR :0.81174: (Sim:0h8m30s) 
CPU  2 inst:    6000000 cyc:    3668810 now IPC :1.55834: AVG IPC :1.49038: L2-Pf-HR :-nan: L2-HR :0.81045: (Sim:0h8m31s) 
CPU  3 inst:    6000000 cyc:    3671884 now IPC :1.55255: AVG IPC :1.48888: L2-Pf-HR :-nan: L2-HR :0.81234: (Sim:0h8m31s) 
CPU  1 inst:    7000005 cyc:    4349016 now IPC :1.43100: AVG IPC :1.48641: L2-Pf-HR :-nan: L2-HR :0.81021: (Sim:0h9m47s) 
CPU  0 inst:    7000005 cyc:    4352805 now IPC :1.42950: AVG IPC :1.48474: L2-Pf-HR :-nan: L2-HR :0.80960: (Sim:0h9m47s) 
CPU  2 inst:    7000005 cyc:    4373594 now IPC :1.41888: AVG IPC :1.47551: L2-Pf-HR :-nan: L2-HR :0.80893: (Sim:0h9m50s) 
CPU  3 inst:    7000005 cyc:    4375418 now IPC :1.42140: AVG IPC :1.47488: L2-Pf-HR :-nan: L2-HR :0.81040: (Sim:0h9m51s) 
CPU  1 inst:    8000000 cyc:    4956820 now IPC :1.64526: AVG IPC :1.51072: L2-Pf-HR :-nan: L2-HR :0.81363: (Sim:0h10m48s) 
CPU  0 inst:    8000000 cyc:    4959278 now IPC :1.64887: AVG IPC :1.50979: L2-Pf-HR :-nan: L2-HR :0.81310: (Sim:0h10m48s) 
CPU  2 inst:    8000000 cyc:    4981073 now IPC :1.64614: AVG IPC :1.50145: L2-Pf-HR :-nan: L2-HR :0.81253: (Sim:0h10m50s) 
CPU  3 inst:    8000000 cyc:    4982866 now IPC :1.64622: AVG IPC :1.50091: L2-Pf-HR :-nan: L2-HR :0.81379: (Sim:0h10m50s) 
CPU  1 inst:    9000003 cyc:    5661661 now IPC :1.41876: AVG IPC :1.49686: L2-Pf-HR :-nan: L2-HR :0.81053: (Sim:0h11m39s) 
CPU  0 inst:    9000003 cyc:    5663917 now IPC :1.41917: AVG IPC :1.49614: L2-Pf-HR :-nan: L2-HR :0.81050: (Sim:0h11m39s) 
CPU  2 inst:    9000003 cyc:    5685984 now IPC :1.41862: AVG IPC :1.48903: L2-Pf-HR :-nan: L2-HR :0.81001: (Sim:0h11m41s) 
CPU  3 inst:    9000003 cyc:    5688101 now IPC :1.41797: AVG IPC :1.48848: L2-Pf-HR :-nan: L2-HR :0.81030: (Sim:0h11m41s) 
CPU  1 inst:   10000005 cyc:    6272575 now IPC :1.63689: AVG IPC :1.51304: L2-Pf-HR :-nan: L2-HR :0.81355: (Sim:0h12m30s) 
CPU  0 inst:   10000005 cyc:    6275106 now IPC :1.63616: AVG IPC :1.51232: L2-Pf-HR :-nan: L2-HR :0.81352: (Sim:0h12m30s) 
CPU  2 inst:   10000005 cyc:    6294797 now IPC :1.64254: AVG IPC :1.50663: L2-Pf-HR :-nan: L2-HR :0.81309: (Sim:0h12m33s) 
CPU  3 inst:   10000005 cyc:    6297471 now IPC :1.64104: AVG IPC :1.50598: L2-Pf-HR :-nan: L2-HR :0.81334: (Sim:0h12m34s) 
CPU  1 inst:   11000000 cyc:    7033122 now IPC :1.31484: AVG IPC :1.48812: L2-Pf-HR :-nan: L2-HR :0.81186: (Sim:0h14m2s) 
CPU  0 inst:   11000000 cyc:    7045502 now IPC :1.29803: AVG IPC :1.48508: L2-Pf-HR :-nan: L2-HR :0.81181: (Sim:0h14m4s) 
CPU  2 inst:   11000000 cyc:    7063079 now IPC :1.30160: AVG IPC :1.48071: L2-Pf-HR :-nan: L2-HR :0.81129: (Sim:0h14m6s) 
CPU  3 inst:   11000000 cyc:    7067652 now IPC :1.29839: AVG IPC :1.47969: L2-Pf-HR :-nan: L2-HR :0.81172: (Sim:0h14m6s) 
CPU  1 inst:   12000003 cyc:    7677352 now IPC :1.55225: AVG IPC :1.49429: L2-Pf-HR :-nan: L2-HR :0.81375: (Sim:0h15m26s) 
CPU  0 inst:   12000003 cyc:    7698176 now IPC :1.53216: AVG IPC :1.48966: L2-Pf-HR :-nan: L2-HR :0.81371: (Sim:0h15m29s) 
CPU  2 inst:   12000003 cyc:    7705361 now IPC :1.55695: AVG IPC :1.48800: L2-Pf-HR :-nan: L2-HR :0.81323: (Sim:0h15m30s) 
CPU  3 inst:   12000003 cyc:    7707357 now IPC :1.56323: AVG IPC :1.48764: L2-Pf-HR :-nan: L2-HR :0.81363: (Sim:0h15m30s) 
CPU  1 inst:   13000005 cyc:    8500416 now IPC :1.21497: AVG IPC :1.46370: L2-Pf-HR :-nan: L2-HR :0.81234: (Sim:0h17m2s) 
CPU  0 inst:   13000005 cyc:    8518941 now IPC :1.21838: AVG IPC :1.46010: L2-Pf-HR :-nan: L2-HR :0.81232: (Sim:0h17m4s) 
CPU  2 inst:   13000005 cyc:    8522844 now IPC :1.22327: AVG IPC :1.45929: L2-Pf-HR :-nan: L2-HR :0.81189: (Sim:0h17m5s) 
CPU  3 inst:   13000005 cyc:    8532913 now IPC :1.21131: AVG IPC :1.45742: L2-Pf-HR :-nan: L2-HR :0.81226: (Sim:0h17m6s) 
CPU  1 inst:   14000001 cyc:    9184680 now IPC :1.46142: AVG IPC :1.46351: L2-Pf-HR :-nan: L2-HR :0.81448: (Sim:0h18m26s) 
CPU  2 inst:   14000001 cyc:    9216426 now IPC :1.44178: AVG IPC :1.45781: L2-Pf-HR :-nan: L2-HR :0.81407: (Sim:0h18m30s) 
CPU  0 inst:   14000001 cyc:    9217195 now IPC :1.43214: AVG IPC :1.45773: L2-Pf-HR :-nan: L2-HR :0.81446: (Sim:0h18m30s) 
CPU  3 inst:   14000001 cyc:    9229675 now IPC :1.43520: AVG IPC :1.45554: L2-Pf-HR :-nan: L2-HR :0.81441: (Sim:0h18m31s) 
CPU  1 inst:   15000000 cyc:   10199262 now IPC :0.98563: AVG IPC :1.41089: L2-Pf-HR :-nan: L2-HR :0.81271: (Sim:0h20m10s) 
CPU  3 inst:   15000000 cyc:   10277860 now IPC :0.95403: AVG IPC :1.39897: L2-Pf-HR :-nan: L2-HR :0.81264: (Sim:0h20m18s) 
CPU  2 inst:   15000000 cyc:   10290579 now IPC :0.93097: AVG IPC :1.39700: L2-Pf-HR :-nan: L2-HR :0.81233: (Sim:0h20m20s) 
CPU  0 inst:   15000000 cyc:   10295220 now IPC :0.92762: AVG IPC :1.39635: L2-Pf-HR :-nan: L2-HR :0.81269: (Sim:0h20m20s) 
CPU  1 inst:   16000005 cyc:   10929626 now IPC :1.36919: AVG IPC :1.40783: L2-Pf-HR :-nan: L2-HR :0.81424: (Sim:0h21m38s) 
CPU  3 inst:   16000005 cyc:   10994931 now IPC :1.39457: AVG IPC :1.39865: L2-Pf-HR :-nan: L2-HR :0.81418: (Sim:0h21m45s) 
CPU  2 inst:   16000005 cyc:   11020142 now IPC :1.37069: AVG IPC :1.39508: L2-Pf-HR :-nan: L2-HR :0.81389: (Sim:0h21m49s) 
CPU  0 inst:   16000005 cyc:   11023091 now IPC :1.37388: AVG IPC :1.39472: L2-Pf-HR :-nan: L2-HR :0.81423: (Sim:0h21m49s) 
CPU  1 inst:   17000004 cyc:   11839324 now IPC :1.09926: AVG IPC :1.38196: L2-Pf-HR :-nan: L2-HR :0.81344: (Sim:0h23m16s) 
CPU  3 inst:   17000004 cyc:   11928528 now IPC :1.07112: AVG IPC :1.37071: L2-Pf-HR :-nan: L2-HR :0.81338: (Sim:0h23m27s) 
CPU  2 inst:   17000004 cyc:   11949243 now IPC :1.07631: AVG IPC :1.36807: L2-Pf-HR :-nan: L2-HR :0.81312: (Sim:0h23m30s) 
CPU  0 inst:   17000004 cyc:   11960545 now IPC :1.06672: AVG IPC :1.36670: L2-Pf-HR :-nan: L2-HR :0.81343: (Sim:0h23m31s) 
CPU  1 inst:   18000005 cyc:   12534228 now IPC :1.43905: AVG IPC :1.38540: L2-Pf-HR :-nan: L2-HR :0.81406: (Sim:0h24m12s) 
CPU  3 inst:   18000005 cyc:   12637066 now IPC :1.41136: AVG IPC :1.37318: L2-Pf-HR :-nan: L2-HR :0.81401: (Sim:0h24m20s) 
CPU  2 inst:   18000005 cyc:   12656739 now IPC :1.41344: AVG IPC :1.37082: L2-Pf-HR :-nan: L2-HR :0.81376: (Sim:0h24m22s) 
CPU  0 inst:   18000005 cyc:   12674998 now IPC :1.39967: AVG IPC :1.36872: L2-Pf-HR :-nan: L2-HR :0.81405: (Sim:0h24m25s) 
CPU  1 inst:   19000002 cyc:   13431754 now IPC :1.11417: AVG IPC :1.36584: L2-Pf-HR :-nan: L2-HR :0.81337: (Sim:0h25m46s) 
CPU  3 inst:   19000002 cyc:   13565037 now IPC :1.07762: AVG IPC :1.35138: L2-Pf-HR :-nan: L2-HR :0.81332: (Sim:0h26m4s) 
CPU  2 inst:   19000002 cyc:   13583229 now IPC :1.07934: AVG IPC :1.34938: L2-Pf-HR :-nan: L2-HR :0.81308: (Sim:0h26m6s) 
CPU  0 inst:   19000002 cyc:   13594961 now IPC :1.08700: AVG IPC :1.34816: L2-Pf-HR :-nan: L2-HR :0.81335: (Sim:0h26m8s) 
CPU  1 inst:   20000004 cyc:   14113220 now IPC :1.46743: AVG IPC :1.37111: L2-Pf-HR :-nan: L2-HR :0.81394: (Sim:0h27m13s) 
CPU  3 inst:   20000004 cyc:   14276500 now IPC :1.40556: AVG IPC :1.35428: L2-Pf-HR :-nan: L2-HR :0.81389: (Sim:0h27m35s) 
CPU  2 inst:   20000004 cyc:   14292660 now IPC :1.40958: AVG IPC :1.35259: L2-Pf-HR :-nan: L2-HR :0.81367: (Sim:0h27m37s) 
CPU  0 inst:   20000004 cyc:   14306203 now IPC :1.40599: AVG IPC :1.35125: L2-Pf-HR :-nan: L2-HR :0.81392: (Sim:0h27m39s) 
CPU  1 inst:   21000003 cyc:   15003626 now IPC :1.12308: AVG IPC :1.35536: L2-Pf-HR :-nan: L2-HR :0.81331: (Sim:0h28m55s) 
CPU  3 inst:   21000003 cyc:   15207201 now IPC :1.07446: AVG IPC :1.33597: L2-Pf-HR :-nan: L2-HR :0.81327: (Sim:0h29m18s) 
CPU  2 inst:   21000003 cyc:   15227388 now IPC :1.06983: AVG IPC :1.33404: L2-Pf-HR :-nan: L2-HR :0.81305: (Sim:0h29m21s) 
CPU  0 inst:   21000003 cyc:   15250744 now IPC :1.05871: AVG IPC :1.33188: L2-Pf-HR :-nan: L2-HR :0.81330: (Sim:0h29m24s) 
CPU  1 inst:   22000002 cyc:   15669400 now IPC :1.50201: AVG IPC :1.36201: L2-Pf-HR :-nan: L2-HR :0.81436: (Sim:0h30m20s) 
CPU  3 inst:   22000002 cyc:   15878674 now IPC :1.48926: AVG IPC :1.34288: L2-Pf-HR :-nan: L2-HR :0.81432: (Sim:0h30m46s) 
CPU  2 inst:   22000002 cyc:   15892616 now IPC :1.50324: AVG IPC :1.34159: L2-Pf-HR :-nan: L2-HR :0.81411: (Sim:0h30m48s) 
CPU  0 inst:   22000002 cyc:   15922869 now IPC :1.48782: AVG IPC :1.33890: L2-Pf-HR :-nan: L2-HR :0.81435: (Sim:0h30m52s) 
CPU  1 inst:   23000000 cyc:   16490910 now IPC :1.21727: AVG IPC :1.35434: L2-Pf-HR :-nan: L2-HR :0.81345: (Sim:0h31m58s) 
CPU  3 inst:   23000000 cyc:   16806244 now IPC :1.07808: AVG IPC :1.32735: L2-Pf-HR :-nan: L2-HR :0.81341: (Sim:0h32m27s) 
CPU  2 inst:   23000000 cyc:   16829748 now IPC :1.06708: AVG IPC :1.32535: L2-Pf-HR :-nan: L2-HR :0.81322: (Sim:0h32m30s) 
CPU  0 inst:   23000000 cyc:   16876823 now IPC :1.04827: AVG IPC :1.32145: L2-Pf-HR :-nan: L2-HR :0.81344: (Sim:0h32m36s) 
CPU  1 inst:   24000001 cyc:   17296226 now IPC :1.24175: AVG IPC :1.34878: L2-Pf-HR :-nan: L2-HR :0.81440: (Sim:0h33m21s) 
CPU  3 inst:   24000002 cyc:   17541633 now IPC :1.35983: AVG IPC :1.32880: L2-Pf-HR :-nan: L2-HR :0.81436: (Sim:0h33m49s) 
CPU  2 inst:   24000005 cyc:   17557190 now IPC :1.37469: AVG IPC :1.32752: L2-Pf-HR :-nan: L2-HR :0.81417: (Sim:0h33m51s) 
CPU  0 inst:   24000002 cyc:   17604987 now IPC :1.37332: AVG IPC :1.32372: L2-Pf-HR :-nan: L2-HR :0.81439: (Sim:0h33m57s) 
CPU  1 inst:   25000005 cyc:   18091154 now IPC :1.25798: AVG IPC :1.34456: L2-Pf-HR :-nan: L2-HR :0.81371: (Sim:0h34m51s) 
CPU  3 inst:   25000005 cyc:   18417686 now IPC :1.14149: AVG IPC :1.31938: L2-Pf-HR :-nan: L2-HR :0.81367: (Sim:0h35m23s) 
CPU  2 inst:   25000005 cyc:   18422068 now IPC :1.15623: AVG IPC :1.31902: L2-Pf-HR :-nan: L2-HR :0.81349: (Sim:0h35m23s) 
CPU  0 inst:   25000005 cyc:   18468496 now IPC :1.15807: AVG IPC :1.31554: L2-Pf-HR :-nan: L2-HR :0.81370: (Sim:0h35m29s) 
CPU  1 inst:   26000004 cyc:   18826213 now IPC :1.36043: AVG IPC :1.34522: L2-Pf-HR :-nan: L2-HR :0.81444: (Sim:0h36m14s) 
CPU  3 inst:   26000004 cyc:   19103596 now IPC :1.45792: AVG IPC :1.32463: L2-Pf-HR :-nan: L2-HR :0.81440: (Sim:0h36m48s) 
CPU  2 inst:   26000004 cyc:   19110283 now IPC :1.45303: AVG IPC :1.32411: L2-Pf-HR :-nan: L2-HR :0.81423: (Sim:0h36m48s) 
CPU  0 inst:   26000004 cyc:   19144111 now IPC :1.48013: AVG IPC :1.32167: L2-Pf-HR :-nan: L2-HR :0.81443: (Sim:0h36m53s) 
CPU  1 inst:   27000000 cyc:   19614938 now IPC :1.26786: AVG IPC :1.34194: L2-Pf-HR :-nan: L2-HR :0.81379: (Sim:0h37m45s) 
CPU  2 inst:   27000000 cyc:   19991495 now IPC :1.13480: AVG IPC :1.31533: L2-Pf-HR :-nan: L2-HR :0.81359: (Sim:0h38m21s) 
CPU  3 inst:   27000000 cyc:   19992199 now IPC :1.12536: AVG IPC :1.31531: L2-Pf-HR :-nan: L2-HR :0.81376: (Sim:0h38m21s) 
CPU  0 inst:   27000000 cyc:   20022544 now IPC :1.13839: AVG IPC :1.31321: L2-Pf-HR :-nan: L2-HR :0.81378: (Sim:0h38m25s) 
CPU  1 inst:   28000004 cyc:   20355575 now IPC :1.35019: AVG IPC :1.34226: L2-Pf-HR :-nan: L2-HR :0.81461: (Sim:0h39m4s) 
CPU  2 inst:   28000004 cyc:   20687076 now IPC :1.43765: AVG IPC :1.31965: L2-Pf-HR :-nan: L2-HR :0.81442: (Sim:0h39m45s) 
CPU  3 inst:   28000004 cyc:   20690531 now IPC :1.43199: AVG IPC :1.31945: L2-Pf-HR :-nan: L2-HR :0.81458: (Sim:0h39m45s) 
CPU  0 inst:   28000004 cyc:   20707330 now IPC :1.46032: AVG IPC :1.31832: L2-Pf-HR :-nan: L2-HR :0.81460: (Sim:0h39m47s) 
CPU  1 inst:   29000004 cyc:   21167361 now IPC :1.23185: AVG IPC :1.33782: L2-Pf-HR :-nan: L2-HR :0.81382: (Sim:0h40m38s) 
CPU  2 inst:   29000004 cyc:   21735293 now IPC :0.95400: AVG IPC :1.30118: L2-Pf-HR :-nan: L2-HR :0.81364: (Sim:0h41m29s) 
CPU  3 inst:   29000004 cyc:   21744669 now IPC :0.94864: AVG IPC :1.30062: L2-Pf-HR :-nan: L2-HR :0.81379: (Sim:0h41m30s) 
CPU  0 inst:   29000004 cyc:   21751118 now IPC :0.95805: AVG IPC :1.30021: L2-Pf-HR :-nan: L2-HR :0.81382: (Sim:0h41m31s) 
CPU  1 inst:   30000000 cyc:   22038546 now IPC :1.14786: AVG IPC :1.32995: L2-Pf-HR :-nan: L2-HR :0.81448: (Sim:0h42m2s) 
CPU  2 inst:   30000000 cyc:   22464575 now IPC :1.37121: AVG IPC :1.30356: L2-Pf-HR :-nan: L2-HR :0.81431: (Sim:0h42m52s) 
CPU  3 inst:   30000000 cyc:   22469832 now IPC :1.37899: AVG IPC :1.30326: L2-Pf-HR :-nan: L2-HR :0.81445: (Sim:0h42m53s) 
CPU  0 inst:   30000000 cyc:   22470426 now IPC :1.39022: AVG IPC :1.30322: L2-Pf-HR :-nan: L2-HR :0.81448: (Sim:0h42m53s) 
CPU  1 inst:   31000004 cyc:   22732742 now IPC :1.44052: AVG IPC :1.33348: L2-Pf-HR :-nan: L2-HR :0.81551: (Sim:0h43m22s) 
CPU  2 inst:   31000005 cyc:   23219871 now IPC :1.32399: AVG IPC :1.30425: L2-Pf-HR :-nan: L2-HR :0.81535: (Sim:0h44m16s) 
CPU  3 inst:   31000004 cyc:   23265517 now IPC :1.25678: AVG IPC :1.30160: L2-Pf-HR :-nan: L2-HR :0.81548: (Sim:0h44m21s) 
CPU  0 inst:   31000001 cyc:   23268459 now IPC :1.25308: AVG IPC :1.30143: L2-Pf-HR :-nan: L2-HR :0.81550: (Sim:0h44m21s) 
CPU  1 inst:   32000001 cyc:   23652254 now IPC :1.08753: AVG IPC :1.32351: L2-Pf-HR :-nan: L2-HR :0.81437: (Sim:0h44m56s) 
CPU  2 inst:   32000001 cyc:   24096279 now IPC :1.14102: AVG IPC :1.29806: L2-Pf-HR :-nan: L2-HR :0.81421: (Sim:0h45m50s) 
CPU  0 inst:   32000001 cyc:   24187564 now IPC :1.08801: AVG IPC :1.29297: L2-Pf-HR :-nan: L2-HR :0.81436: (Sim:0h46m2s) 
CPU  3 inst:   32000001 cyc:   24191133 now IPC :1.08036: AVG IPC :1.29278: L2-Pf-HR :-nan: L2-HR :0.81434: (Sim:0h46m2s) 
CPU  1 inst:   33000004 cyc:   24321470 now IPC :1.49429: AVG IPC :1.32840: L2-Pf-HR :-nan: L2-HR :0.81538: (Sim:0h46m17s) 
CPU  2 inst:   33000004 cyc:   24765922 now IPC :1.49334: AVG IPC :1.30356: L2-Pf-HR :-nan: L2-HR :0.81522: (Sim:0h47m10s) 
CPU  3 inst:   33000004 cyc:   24889901 now IPC :1.43109: AVG IPC :1.29682: L2-Pf-HR :-nan: L2-HR :0.81535: (Sim:0h47m23s) 
CPU  0 inst:   33000004 cyc:   24892154 now IPC :1.41927: AVG IPC :1.29669: L2-Pf-HR :-nan: L2-HR :0.81537: (Sim:0h47m23s) 
CPU  1 inst:   34000001 cyc:   25184682 now IPC :1.15846: AVG IPC :1.32234: L2-Pf-HR :-nan: L2-HR :0.81459: (Sim:0h47m48s) 
CPU  2 inst:   34000001 cyc:   25612759 now IPC :1.18086: AVG IPC :1.29934: L2-Pf-HR :-nan: L2-HR :0.81444: (Sim:0h48m40s) 
CPU  3 inst:   34000001 cyc:   25759309 now IPC :1.15020: AVG IPC :1.29168: L2-Pf-HR :-nan: L2-HR :0.81457: (Sim:0h48m59s) 
CPU  0 inst:   34000001 cyc:   25762387 now IPC :1.14911: AVG IPC :1.29151: L2-Pf-HR :-nan: L2-HR :0.81458: (Sim:0h48m59s) 
CPU  1 inst:   35000002 cyc:   25869364 now IPC :1.46053: AVG IPC :1.32614: L2-Pf-HR :-nan: L2-HR :0.81521: (Sim:0h49m13s) 
CPU  2 inst:   35000002 cyc:   26307266 now IPC :1.43987: AVG IPC :1.30319: L2-Pf-HR :-nan: L2-HR :0.81506: (Sim:0h50m3s) 
CPU  3 inst:   35000002 cyc:   26459484 now IPC :1.42822: AVG IPC :1.29543: L2-Pf-HR :-nan: L2-HR :0.81519: (Sim:0h50m22s) 
CPU  0 inst:   35000002 cyc:   26462722 now IPC :1.42789: AVG IPC :1.29526: L2-Pf-HR :-nan: L2-HR :0.81520: (Sim:0h50m22s) 
CPU  1 inst:   36000005 cyc:   26756113 now IPC :1.12772: AVG IPC :1.31932: L2-Pf-HR :-nan: L2-HR :0.81461: (Sim:0h50m48s) 
CPU  2 inst:   36000005 cyc:   27166006 now IPC :1.16450: AVG IPC :1.29865: L2-Pf-HR :-nan: L2-HR :0.81446: (Sim:0h51m35s) 
CPU  3 inst:   36000005 cyc:   27326402 now IPC :1.15352: AVG IPC :1.29076: L2-Pf-HR :-nan: L2-HR :0.81458: (Sim:0h51m55s) 
CPU  0 inst:   36000005 cyc:   27331532 now IPC :1.15100: AVG IPC :1.29050: L2-Pf-HR :-nan: L2-HR :0.81460: (Sim:0h51m56s) 
CPU  1 inst:   37000002 cyc:   27444128 now IPC :1.45345: AVG IPC :1.32280: L2-Pf-HR :-nan: L2-HR :0.81522: (Sim:0h52m9s) 
CPU  2 inst:   37000002 cyc:   27868230 now IPC :1.42404: AVG IPC :1.30192: L2-Pf-HR :-nan: L2-HR :0.81508: (Sim:0h52m56s) 
CPU  0 inst:   37000002 cyc:   28064057 now IPC :1.36514: AVG IPC :1.29252: L2-Pf-HR :-nan: L2-HR :0.81521: (Sim:0h53m19s) 
CPU  3 inst:   37000002 cyc:   28072130 now IPC :1.34097: AVG IPC :1.29214: L2-Pf-HR :-nan: L2-HR :0.81520: (Sim:0h53m20s) 
CPU  1 inst:   38000004 cyc:   28324183 now IPC :1.13629: AVG IPC :1.31680: L2-Pf-HR :-nan: L2-HR :0.81461: (Sim:0h53m44s) 
CPU  2 inst:   38000004 cyc:   28733189 now IPC :1.15613: AVG IPC :1.29738: L2-Pf-HR :-nan: L2-HR :0.81447: (Sim:0h54m31s) 
CPU  0 inst:   38000004 cyc:   28934493 now IPC :1.14885: AVG IPC :1.28805: L2-Pf-HR :-nan: L2-HR :0.81460: (Sim:0h54m55s) 
CPU  3 inst:   38000004 cyc:   28938070 now IPC :1.15482: AVG IPC :1.28789: L2-Pf-HR :-nan: L2-HR :0.81459: (Sim:0h54m56s) 
CPU  1 inst:   39000003 cyc:   29029220 now IPC :1.41836: AVG IPC :1.31935: L2-Pf-HR :-nan: L2-HR :0.81509: (Sim:0h55m6s) 
CPU  2 inst:   39000003 cyc:   29393556 now IPC :1.51431: AVG IPC :1.30242: L2-Pf-HR :-nan: L2-HR :0.81496: (Sim:0h55m44s) 
CPU  0 inst:   39000003 cyc:   29642758 now IPC :1.41190: AVG IPC :1.29111: L2-Pf-HR :-nan: L2-HR :0.81508: (Sim:0h56m12s) 
CPU  3 inst:   39000003 cyc:   29652527 now IPC :1.39966: AVG IPC :1.29067: L2-Pf-HR :-nan: L2-HR :0.81507: (Sim:0h56m14s) 
CPU  1 inst:   40000003 cyc:   29822132 now IPC :1.26117: AVG IPC :1.31775: L2-Pf-HR :-nan: L2-HR :0.81475: (Sim:0h56m34s) 
CPU  2 inst:   40000004 cyc:   30262708 now IPC :1.15055: AVG IPC :1.29791: L2-Pf-HR :-nan: L2-HR :0.81462: (Sim:0h57m19s) 
CPU  0 inst:   40000004 cyc:   30554401 now IPC :1.09692: AVG IPC :1.28512: L2-Pf-HR :-nan: L2-HR :0.81474: (Sim:0h57m54s) 
CPU  3 inst:   40000004 cyc:   30562793 now IPC :1.09858: AVG IPC :1.28476: L2-Pf-HR :-nan: L2-HR :0.81472: (Sim:0h57m55s) 
CPU  1 inst:   41000004 cyc:   30650325 now IPC :1.20745: AVG IPC :1.31468: L2-Pf-HR :-nan: L2-HR :0.81497: (Sim:0h58m5s) 
CPU  2 inst:   41000004 cyc:   30984390 now IPC :1.38565: AVG IPC :1.30002: L2-Pf-HR :-nan: L2-HR :0.81485: (Sim:0h58m45s) 
CPU  0 inst:   41000004 cyc:   31287495 now IPC :1.36408: AVG IPC :1.28703: L2-Pf-HR :-nan: L2-HR :0.81497: (Sim:0h59m20s) 
CPU  3 inst:   41000004 cyc:   31305829 now IPC :1.34583: AVG IPC :1.28626: L2-Pf-HR :-nan: L2-HR :0.81495: (Sim:0h59m22s) 
CPU  1 inst:   42000000 cyc:   31429712 now IPC :1.28305: AVG IPC :1.31387: L2-Pf-HR :-nan: L2-HR :0.81465: (Sim:0h59m37s) 
CPU  2 inst:   42000000 cyc:   31819532 now IPC :1.19740: AVG IPC :1.29724: L2-Pf-HR :-nan: L2-HR :0.81453: (Sim:1h0m21s) 
CPU  0 inst:   42000000 cyc:   32100074 now IPC :1.23064: AVG IPC :1.28556: L2-Pf-HR :-nan: L2-HR :0.81464: (Sim:1h0m55s) 
CPU  3 inst:   42000000 cyc:   32118081 now IPC :1.23114: AVG IPC :1.28482: L2-Pf-HR :-nan: L2-HR :0.81462: (Sim:1h0m58s) 
CPU  1 inst:   43000005 cyc:   32156089 now IPC :1.37670: AVG IPC :1.31533: L2-Pf-HR :-nan: L2-HR :0.81510: (Sim:1h1m2s) 
CPU  2 inst:   43000005 cyc:   32507693 now IPC :1.45316: AVG IPC :1.30065: L2-Pf-HR :-nan: L2-HR :0.81498: (Sim:1h1m44s) 
CPU  0 inst:   43000005 cyc:   32799334 now IPC :1.43009: AVG IPC :1.28874: L2-Pf-HR :-nan: L2-HR :0.81509: (Sim:1h2m19s) 
CPU  3 inst:   43000005 cyc:   32845704 now IPC :1.37434: AVG IPC :1.28686: L2-Pf-HR :-nan: L2-HR :0.81507: (Sim:1h2m23s) 
CPU  1 inst:   44000004 cyc:   32976320 now IPC :1.21917: AVG IPC :1.31286: L2-Pf-HR :-nan: L2-HR :0.81456: (Sim:1h2m38s) 
CPU  2 inst:   44000004 cyc:   33399750 now IPC :1.12100: AVG IPC :1.29570: L2-Pf-HR :-nan: L2-HR :0.81444: (Sim:1h3m21s) 
CPU  1 inst:   45000000 cyc:   33724906 now IPC :1.33585: AVG IPC :1.31339: L2-Pf-HR :-nan: L2-HR :0.81508: (Sim:1h3m51s) 
CPU  0 inst:   44000004 cyc:   33726919 now IPC :1.07807: AVG IPC :1.28277: L2-Pf-HR :-nan: L2-HR :0.81455: (Sim:1h3m51s) 
CPU  3 inst:   44000004 cyc:   33767027 now IPC :1.08539: AVG IPC :1.28120: L2-Pf-HR :-nan: L2-HR :0.81453: (Sim:1h3m54s) 
CPU  2 inst:   45000000 cyc:   34080664 now IPC :1.46861: AVG IPC :1.29926: L2-Pf-HR :-nan: L2-HR :0.81497: (Sim:1h4m15s) 
CPU  0 inst:   45000000 cyc:   34478071 now IPC :1.33128: AVG IPC :1.28386: L2-Pf-HR :-nan: L2-HR :0.81508: (Sim:1h4m40s) 
CPU  3 inst:   45000000 cyc:   34525484 now IPC :1.31846: AVG IPC :1.28204: L2-Pf-HR :-nan: L2-HR :0.81506: (Sim:1h4m43s) 
CPU  1 inst:   46000002 cyc:   34588753 now IPC :1.15761: AVG IPC :1.30939: L2-Pf-HR :-nan: L2-HR :0.81470: (Sim:1h4m47s) 
CPU  2 inst:   46000002 cyc:   34935080 now IPC :1.17039: AVG IPC :1.29602: L2-Pf-HR :-nan: L2-HR :0.81459: (Sim:1h5m9s) 
CPU  1 inst:   47000004 cyc:   35353478 now IPC :1.30766: AVG IPC :1.30935: L2-Pf-HR :-nan: L2-HR :0.81507: (Sim:1h5m36s) 
CPU  0 inst:   46000002 cyc:   35358382 now IPC :1.13596: AVG IPC :1.28007: L2-Pf-HR :-nan: L2-HR :0.81470: (Sim:1h5m36s) 
CPU  3 inst:   46000002 cyc:   35404203 now IPC :1.13802: AVG IPC :1.27837: L2-Pf-HR :-nan: L2-HR :0.81467: (Sim:1h5m39s) 
CPU  2 inst:   47000004 cyc:   35679918 now IPC :1.34258: AVG IPC :1.29702: L2-Pf-HR :-nan: L2-HR :0.81496: (Sim:1h5m58s) 
CPU  0 inst:   47000004 cyc:   36117439 now IPC :1.31743: AVG IPC :1.28088: L2-Pf-HR :-nan: L2-HR :0.81506: (Sim:1h6m26s) 
CPU  3 inst:   47000004 cyc:   36170373 now IPC :1.30520: AVG IPC :1.27895: L2-Pf-HR :-nan: L2-HR :0.81504: (Sim:1h6m29s) 
CPU  1 inst:   48000000 cyc:   36218209 now IPC :1.15642: AVG IPC :1.30559: L2-Pf-HR :-nan: L2-HR :0.81470: (Sim:1h6m32s) 
CPU  2 inst:   48000000 cyc:   36511064 now IPC :1.20315: AVG IPC :1.29482: L2-Pf-HR :-nan: L2-HR :0.81460: (Sim:1h6m52s) 
CPU  1 inst:   49000002 cyc:   36939828 now IPC :1.38578: AVG IPC :1.30720: L2-Pf-HR :-nan: L2-HR :0.81517: (Sim:1h7m21s) 
CPU  0 inst:   48000000 cyc:   36943571 now IPC :1.21046: AVG IPC :1.27926: L2-Pf-HR :-nan: L2-HR :0.81470: (Sim:1h7m21s) 
CPU  3 inst:   48000000 cyc:   36985703 now IPC :1.22649: AVG IPC :1.27776: L2-Pf-HR :-nan: L2-HR :0.81468: (Sim:1h7m26s) 
CPU  2 inst:   49000002 cyc:   37207353 now IPC :1.43619: AVG IPC :1.29754: L2-Pf-HR :-nan: L2-HR :0.81507: (Sim:1h7m55s) 
CPU  0 inst:   49000002 cyc:   37645470 now IPC :1.42471: AVG IPC :1.28204: L2-Pf-HR :-nan: L2-HR :0.81517: (Sim:1h8m34s) 
CPU  3 inst:   49000002 cyc:   37692106 now IPC :1.41563: AVG IPC :1.28042: L2-Pf-HR :-nan: L2-HR :0.81515: (Sim:1h8m37s) 
CPU  1 inst:   50000001 cyc:   37767633 now IPC :1.20801: AVG IPC :1.30497: L2-Pf-HR :-nan: L2-HR :0.81471: (Sim:1h8m41s) 
CPU  2 inst:   50000001 cyc:   38045064 now IPC :1.19373: AVG IPC :1.29519: L2-Pf-HR :-nan: L2-HR :0.81460: (Sim:1h9m0s) 
CPU  0 inst:   50000001 cyc:   38517515 now IPC :1.14673: AVG IPC :1.27890: L2-Pf-HR :-nan: L2-HR :0.81470: (Sim:1h9m30s) 
CPU  1 inst:   51000000 cyc:   38517900 now IPC :1.33286: AVG IPC :1.30553: L2-Pf-HR :-nan: L2-HR :0.81508: (Sim:1h9m30s) 
CPU  3 inst:   50000001 cyc:   38560133 now IPC :1.15204: AVG IPC :1.27745: L2-Pf-HR :-nan: L2-HR :0.81468: (Sim:1h9m33s) 
CPU  2 inst:   51000000 cyc:   38758965 now IPC :1.40075: AVG IPC :1.29719: L2-Pf-HR :-nan: L2-HR :0.81498: (Sim:1h9m48s) 
CPU  0 inst:   51000000 cyc:   39204318 now IPC :1.45602: AVG IPC :1.28208: L2-Pf-HR :-nan: L2-HR :0.81507: (Sim:1h10m17s) 
CPU  3 inst:   51000000 cyc:   39253062 now IPC :1.44315: AVG IPC :1.28045: L2-Pf-HR :-nan: L2-HR :0.81505: (Sim:1h10m20s) 
CPU  1 inst:   52000005 cyc:   39306472 now IPC :1.26812: AVG IPC :1.30476: L2-Pf-HR :-nan: L2-HR :0.81482: (Sim:1h10m23s) 
CPU  2 inst:   52000005 cyc:   39561603 now IPC :1.24590: AVG IPC :1.29612: L2-Pf-HR :-nan: L2-HR :0.81472: (Sim:1h10m41s) 
CPU  1 inst:   53000001 cyc:   40098188 now IPC :1.26307: AVG IPC :1.30391: L2-Pf-HR :-nan: L2-HR :0.81499: (Sim:1h11m13s) 
CPU  0 inst:   52000005 cyc:   40106713 now IPC :1.10817: AVG IPC :1.27807: L2-Pf-HR :-nan: L2-HR :0.81481: (Sim:1h11m14s) 
CPU  3 inst:   52000005 cyc:   40145818 now IPC :1.12013: AVG IPC :1.27680: L2-Pf-HR :-nan: L2-HR :0.81479: (Sim:1h11m17s) 
CPU  2 inst:   53000001 cyc:   40346622 now IPC :1.27385: AVG IPC :1.29567: L2-Pf-HR :-nan: L2-HR :0.81489: (Sim:1h11m30s) 
CPU  0 inst:   53000001 cyc:   40869882 now IPC :1.31032: AVG IPC :1.27869: L2-Pf-HR :-nan: L2-HR :0.81498: (Sim:1h12m7s) 
CPU  3 inst:   53000001 cyc:   40928006 now IPC :1.27846: AVG IPC :1.27683: L2-Pf-HR :-nan: L2-HR :0.81496: (Sim:1h12m12s) 
CPU  1 inst:   54000003 cyc:   40960680 now IPC :1.15943: AVG IPC :1.30080: L2-Pf-HR :-nan: L2-HR :0.81474: (Sim:1h12m16s) 
CPU  2 inst:   54000003 cyc:   41199495 now IPC :1.17251: AVG IPC :1.29306: L2-Pf-HR :-nan: L2-HR :0.81464: (Sim:1h12m44s) 
CPU  1 inst:   55000000 cyc:   41712614 now IPC :1.32990: AVG IPC :1.30133: L2-Pf-HR :-nan: L2-HR :0.81507: (Sim:1h13m37s) 
CPU  0 inst:   54000003 cyc:   41745922 now IPC :1.14150: AVG IPC :1.27574: L2-Pf-HR :-nan: L2-HR :0.81473: (Sim:1h13m41s) 
CPU  3 inst:   54000003 cyc:   41782148 now IPC :1.17077: AVG IPC :1.27461: L2-Pf-HR :-nan: L2-HR :0.81472: (Sim:1h13m46s) 
CPU  2 inst:   55000000 cyc:   41921635 now IPC :1.38477: AVG IPC :1.29468: L2-Pf-HR :-nan: L2-HR :0.81498: (Sim:1h14m3s) 
CPU  0 inst:   55000000 cyc:   42423792 now IPC :1.47520: AVG IPC :1.27900: L2-Pf-HR :-nan: L2-HR :0.81507: (Sim:1h15m1s) 
CPU  3 inst:   55000000 cyc:   42467273 now IPC :1.45958: AVG IPC :1.27766: L2-Pf-HR :-nan: L2-HR :0.81505: (Sim:1h15m6s) 
CPU  1 inst:   56000004 cyc:   42501463 now IPC :1.26767: AVG IPC :1.30070: L2-Pf-HR :-nan: L2-HR :0.81467: (Sim:1h15m9s) 
CPU  2 inst:   56000004 cyc:   42702485 now IPC :1.28066: AVG IPC :1.29442: L2-Pf-HR :-nan: L2-HR :0.81458: (Sim:1h15m33s) 
CPU  1 inst:   57000003 cyc:   43250123 now IPC :1.33572: AVG IPC :1.30132: L2-Pf-HR :-nan: L2-HR :0.81506: (Sim:1h16m33s) 
CPU  0 inst:   56000004 cyc:   43298389 now IPC :1.14339: AVG IPC :1.27620: L2-Pf-HR :-nan: L2-HR :0.81466: (Sim:1h16m39s) 
CPU  3 inst:   56000004 cyc:   43328933 now IPC :1.16056: AVG IPC :1.27528: L2-Pf-HR :-nan: L2-HR :0.81465: (Sim:1h16m42s) 
CPU  2 inst:   57000003 cyc:   43423476 now IPC :1.38698: AVG IPC :1.29599: L2-Pf-HR :-nan: L2-HR :0.81497: (Sim:1h16m55s) 
CPU  0 inst:   57000003 cyc:   43995188 now IPC :1.43513: AVG IPC :1.27877: L2-Pf-HR :-nan: L2-HR :0.81506: (Sim:1h18m2s) 
CPU  1 inst:   58000002 cyc:   44029944 now IPC :1.28234: AVG IPC :1.30097: L2-Pf-HR :-nan: L2-HR :0.81476: (Sim:1h18m5s) 
CPU  3 inst:   57000003 cyc:   44039680 now IPC :1.40697: AVG IPC :1.27745: L2-Pf-HR :-nan: L2-HR :0.81504: (Sim:1h18m6s) 
CPU  2 inst:   58000002 cyc:   44251763 now IPC :1.20731: AVG IPC :1.29429: L2-Pf-HR :-nan: L2-HR :0.81467: (Sim:1h18m27s) 
CPU  1 inst:   59000004 cyc:   44848069 now IPC :1.22231: AVG IPC :1.29950: L2-Pf-HR :-nan: L2-HR :0.81505: (Sim:1h19m15s) 
CPU  0 inst:   58000002 cyc:   44922384 now IPC :1.07852: AVG IPC :1.27455: L2-Pf-HR :-nan: L2-HR :0.81476: (Sim:1h19m21s) 
CPU  3 inst:   58000002 cyc:   44939774 now IPC :1.11099: AVG IPC :1.27405: L2-Pf-HR :-nan: L2-HR :0.81474: (Sim:1h19m22s) 
CPU  2 inst:   59000004 cyc:   45023149 now IPC :1.29637: AVG IPC :1.29433: L2-Pf-HR :-nan: L2-HR :0.81496: (Sim:1h19m28s) 
CPU  0 inst:   59000004 cyc:   45644119 now IPC :1.38555: AVG IPC :1.27634: L2-Pf-HR :-nan: L2-HR :0.81504: (Sim:1h20m35s) 
CPU  3 inst:   59000004 cyc:   45653929 now IPC :1.40026: AVG IPC :1.27606: L2-Pf-HR :-nan: L2-HR :0.81503: (Sim:1h20m36s) 
CPU  1 inst:   60000000 cyc:   45667374 now IPC :1.22054: AVG IPC :1.29806: L2-Pf-HR :-nan: L2-HR :0.81476: (Sim:1h20m38s) 
CPU  2 inst:   60000000 cyc:   45819579 now IPC :1.25560: AVG IPC :1.29364: L2-Pf-HR :-nan: L2-HR :0.81468: (Sim:1h20m54s) 
CPU  1 inst:   61000002 cyc:   46412746 now IPC :1.34161: AVG IPC :1.29877: L2-Pf-HR :-nan: L2-HR :0.81515: (Sim:1h22m1s) 
CPU  0 inst:   60000000 cyc:   46519560 now IPC :1.14228: AVG IPC :1.27376: L2-Pf-HR :-nan: L2-HR :0.81476: (Sim:1h22m12s) 
CPU  3 inst:   60000000 cyc:   46530167 now IPC :1.14124: AVG IPC :1.27347: L2-Pf-HR :-nan: L2-HR :0.81474: (Sim:1h22m13s) 
CPU  2 inst:   61000002 cyc:   46570728 now IPC :1.33130: AVG IPC :1.29426: L2-Pf-HR :-nan: L2-HR :0.81506: (Sim:1h22m18s) 
CPU  1 inst:   62000001 cyc:   47291065 now IPC :1.13854: AVG IPC :1.29573: L2-Pf-HR :-nan: L2-HR :0.81476: (Sim:1h23m39s) 
CPU  0 inst:   61000002 cyc:   47298797 now IPC :1.28331: AVG IPC :1.27392: L2-Pf-HR :-nan: L2-HR :0.81514: (Sim:1h23m40s) 
CPU  3 inst:   61000002 cyc:   47321734 now IPC :1.26332: AVG IPC :1.27330: L2-Pf-HR :-nan: L2-HR :0.81513: (Sim:1h23m42s) 
CPU  2 inst:   62000001 cyc:   47504485 now IPC :1.07094: AVG IPC :1.28978: L2-Pf-HR :-nan: L2-HR :0.81468: (Sim:1h23m59s) 
CPU  1 inst:   63000000 cyc:   48062979 now IPC :1.29548: AVG IPC :1.29573: L2-Pf-HR :-nan: L2-HR :0.81507: (Sim:1h25m2s) 
CPU  0 inst:   62000001 cyc:   48244616 now IPC :1.05728: AVG IPC :1.26959: L2-Pf-HR :-nan: L2-HR :0.81476: (Sim:1h25m16s) 
CPU  3 inst:   62000001 cyc:   48273197 now IPC :1.05101: AVG IPC :1.26882: L2-Pf-HR :-nan: L2-HR :0.81474: (Sim:1h25m20s) 
CPU  2 inst:   63000000 cyc:   48279589 now IPC :1.29015: AVG IPC :1.28978: L2-Pf-HR :-nan: L2-HR :0.81499: (Sim:1h25m21s) 
CPU  1 inst:   64000000 cyc:   48843390 now IPC :1.28138: AVG IPC :1.29549: L2-Pf-HR :-nan: L2-HR :0.81503: (Sim:1h26m28s) 
CPU  0 inst:   63000000 cyc:   48963971 now IPC :1.39013: AVG IPC :1.27140: L2-Pf-HR :-nan: L2-HR :0.81507: (Sim:1h26m40s) 
CPU  3 inst:   63000000 cyc:   48984599 now IPC :1.40567: AVG IPC :1.27085: L2-Pf-HR :-nan: L2-HR :0.81505: (Sim:1h26m43s) 
CPU  2 inst:   64000002 cyc:   49062570 now IPC :1.27717: AVG IPC :1.28958: L2-Pf-HR :-nan: L2-HR :0.81495: (Sim:1h26m50s) 
CPU  1 inst:   65000001 cyc:   49600747 now IPC :1.32038: AVG IPC :1.29588: L2-Pf-HR :-nan: L2-HR :0.81500: (Sim:1h28m2s) 
CPU  0 inst:   64000004 cyc:   49729550 now IPC :1.30621: AVG IPC :1.27194: L2-Pf-HR :-nan: L2-HR :0.81502: (Sim:1h28m17s) 
CPU  3 inst:   64000000 cyc:   49794638 now IPC :1.23451: AVG IPC :1.27025: L2-Pf-HR :-nan: L2-HR :0.81501: (Sim:1h28m22s) 
CPU  2 inst:   65000001 cyc:   49833786 now IPC :1.29665: AVG IPC :1.28969: L2-Pf-HR :-nan: L2-HR :0.81492: (Sim:1h28m25s) 
CPU  1 inst:   66000004 cyc:   50346123 now IPC :1.34161: AVG IPC :1.29657: L2-Pf-HR :-nan: L2-HR :0.81547: (Sim:1h29m30s) 
CPU  0 inst:   65000001 cyc:   50535562 now IPC :1.24067: AVG IPC :1.27143: L2-Pf-HR :-nan: L2-HR :0.81499: (Sim:1h29m47s) 
CPU  2 inst:   66000004 cyc:   50543606 now IPC :1.40881: AVG IPC :1.29140: L2-Pf-HR :-nan: L2-HR :0.81540: (Sim:1h29m48s) 
CPU  3 inst:   65000001 cyc:   50578327 now IPC :1.27602: AVG IPC :1.27034: L2-Pf-HR :-nan: L2-HR :0.81498: (Sim:1h29m51s) 
CPU  0 inst:   66000004 cyc:   51766655 now IPC :0.81229: AVG IPC :1.26030: L2-Pf-HR :-nan: L2-HR :0.81547: (Sim:1h31m12s) 
CPU  3 inst:   66000004 cyc:   51845338 now IPC :0.78926: AVG IPC :1.25836: L2-Pf-HR :-nan: L2-HR :0.81546: (Sim:1h31m16s) 
CPU  1 inst:   67000004 cyc:   65013152 now IPC :0.06818: AVG IPC :1.01518: L2-Pf-HR :-nan: L2-HR :0.77357: (Sim:1h42m54s) 
CPU  2 inst:   67000001 cyc:   66275261 now IPC :0.06357: AVG IPC :0.99555: L2-Pf-HR :-nan: L2-HR :0.77351: (Sim:1h44m6s) 
CPU  3 inst:   67000004 cyc:   71145820 now IPC :0.05181: AVG IPC :0.92645: L2-Pf-HR :-nan: L2-HR :0.77356: (Sim:1h48m28s) 
CPU  0 inst:   67000004 cyc:   71177500 now IPC :0.05152: AVG IPC :0.92603: L2-Pf-HR :-nan: L2-HR :0.77358: (Sim:1h48m30s) 
CPU  1 inst:   68000001 cyc:   77375885 now IPC :0.08089: AVG IPC :0.86398: L2-Pf-HR :-nan: L2-HR :0.75928: (Sim:1h54m6s) 
CPU  2 inst:   68000001 cyc:   77681330 now IPC :0.08767: AVG IPC :0.86053: L2-Pf-HR :-nan: L2-HR :0.75922: (Sim:1h54m23s) 
CPU  3 inst:   68000001 cyc:   78726452 now IPC :0.13191: AVG IPC :0.84897: L2-Pf-HR :-nan: L2-HR :0.75927: (Sim:1h55m20s) 
CPU  0 inst:   68000001 cyc:   78734908 now IPC :0.13232: AVG IPC :0.84888: L2-Pf-HR :-nan: L2-HR :0.75928: (Sim:1h55m21s) 
CPU  1 inst:   69000001 cyc:   83124263 now IPC :0.17396: AVG IPC :0.81569: L2-Pf-HR :-nan: L2-HR :0.75322: (Sim:1h59m22s) 
CPU  2 inst:   69000001 cyc:   83451749 now IPC :0.17330: AVG IPC :0.81244: L2-Pf-HR :-nan: L2-HR :0.75316: (Sim:1h59m40s) 
CPU  3 inst:   69000001 cyc:   84511932 now IPC :0.17285: AVG IPC :0.80214: L2-Pf-HR :-nan: L2-HR :0.75321: (Sim:2h0m38s) 
CPU  0 inst:   69000001 cyc:   84529769 now IPC :0.17257: AVG IPC :0.80197: L2-Pf-HR :-nan: L2-HR :0.75322: (Sim:2h0m39s) 
CPU  1 inst:   70000001 cyc:   88904634 now IPC :0.17300: AVG IPC :0.77343: L2-Pf-HR :-nan: L2-HR :0.74733: (Sim:2h4m39s) 
CPU  2 inst:   70000001 cyc:   89237715 now IPC :0.17283: AVG IPC :0.77051: L2-Pf-HR :-nan: L2-HR :0.74727: (Sim:2h4m57s) 
CPU  3 inst:   70000001 cyc:   90232172 now IPC :0.17482: AVG IPC :0.76193: L2-Pf-HR :-nan: L2-HR :0.74731: (Sim:2h5m52s) 
CPU  0 inst:   70000001 cyc:   90265711 now IPC :0.17434: AVG IPC :0.76164: L2-Pf-HR :-nan: L2-HR :0.74733: (Sim:2h5m54s) 
CPU  1 inst:   71000001 cyc:   94494355 now IPC :0.17890: AVG IPC :0.73790: L2-Pf-HR :-nan: L2-HR :0.74160: (Sim:2h9m46s) 
CPU  2 inst:   71000001 cyc:   94809482 now IPC :0.17948: AVG IPC :0.73541: L2-Pf-HR :-nan: L2-HR :0.74154: (Sim:2h10m4s) 
CPU  3 inst:   71000001 cyc:   95771339 now IPC :0.18053: AVG IPC :0.72796: L2-Pf-HR :-nan: L2-HR :0.74159: (Sim:2h10m57s) 
CPU  0 inst:   71000001 cyc:   95807631 now IPC :0.18044: AVG IPC :0.72768: L2-Pf-HR :-nan: L2-HR :0.74160: (Sim:2h10m59s) 
CPU  1 inst:   72000001 cyc:   99989361 now IPC :0.18198: AVG IPC :0.70704: L2-Pf-HR :-nan: L2-HR :0.73603: (Sim:2h14m32s) 
CPU  2 inst:   72000001 cyc:  100293991 now IPC :0.18233: AVG IPC :0.70487: L2-Pf-HR :-nan: L2-HR :0.73597: (Sim:2h14m49s) 
CPU  3 inst:   72000001 cyc:  101277238 now IPC :0.18162: AVG IPC :0.69796: L2-Pf-HR :-nan: L2-HR :0.73601: (Sim:2h15m44s) 
CPU  0 inst:   72000001 cyc:  101297241 now IPC :0.18216: AVG IPC :0.69782: L2-Pf-HR :-nan: L2-HR :0.73603: (Sim:2h15m45s) 
CPU  1 inst:   73000001 cyc:  105472039 now IPC :0.18239: AVG IPC :0.67951: L2-Pf-HR :-nan: L2-HR :0.73061: (Sim:2h19m37s) 
CPU  2 inst:   73000001 cyc:  105776731 now IPC :0.18239: AVG IPC :0.67753: L2-Pf-HR :-nan: L2-HR :0.73055: (Sim:2h19m54s) 
CPU  3 inst:   73000001 cyc:  106771174 now IPC :0.18202: AVG IPC :0.67117: L2-Pf-HR :-nan: L2-HR :0.73059: (Sim:2h20m49s) 
CPU  0 inst:   73000001 cyc:  106793214 now IPC :0.18195: AVG IPC :0.67103: L2-Pf-HR :-nan: L2-HR :0.73060: (Sim:2h20m50s) 
CPU  1 inst:   74000001 cyc:  110954430 now IPC :0.18240: AVG IPC :0.65473: L2-Pf-HR :-nan: L2-HR :0.72533: (Sim:2h24m41s) 
CPU  2 inst:   74000001 cyc:  111248184 now IPC :0.18277: AVG IPC :0.65298: L2-Pf-HR :-nan: L2-HR :0.72527: (Sim:2h24m58s) 
CPU  3 inst:   74000001 cyc:  112242795 now IPC :0.18276: AVG IPC :0.64715: L2-Pf-HR :-nan: L2-HR :0.72531: (Sim:2h25m53s) 
CPU  0 inst:   74000001 cyc:  112255106 now IPC :0.18309: AVG IPC :0.64707: L2-Pf-HR :-nan: L2-HR :0.72532: (Sim:2h25m54s) 
CPU  1 inst:   75000001 cyc:  116427351 now IPC :0.18272: AVG IPC :0.63235: L2-Pf-HR :-nan: L2-HR :0.72019: (Sim:2h29m45s) 
CPU  2 inst:   75000001 cyc:  116715388 now IPC :0.18291: AVG IPC :0.63077: L2-Pf-HR :-nan: L2-HR :0.72013: (Sim:2h30m1s) 
CPU  0 inst:   75000001 cyc:  117725841 now IPC :0.18279: AVG IPC :0.62532: L2-Pf-HR :-nan: L2-HR :0.72018: (Sim:2h30m57s) 
CPU  3 inst:   75000001 cyc:  117735401 now IPC :0.18206: AVG IPC :0.62527: L2-Pf-HR :-nan: L2-HR :0.72017: (Sim:2h30m57s) 
CPU  1 inst:   76000001 cyc:  121883215 now IPC :0.18329: AVG IPC :0.61209: L2-Pf-HR :-nan: L2-HR :0.71518: (Sim:2h34m48s) 
CPU  2 inst:   76000001 cyc:  122171521 now IPC :0.18328: AVG IPC :0.61063: L2-Pf-HR :-nan: L2-HR :0.71512: (Sim:2h35m4s) 
CPU  0 inst:   76000001 cyc:  123189930 now IPC :0.18301: AVG IPC :0.60554: L2-Pf-HR :-nan: L2-HR :0.71518: (Sim:2h36m0s) 
CPU  3 inst:   76000001 cyc:  123193444 now IPC :0.18322: AVG IPC :0.60552: L2-Pf-HR :-nan: L2-HR :0.71517: (Sim:2h36m0s) 
CPU  1 inst:   77000001 cyc:  127348109 now IPC :0.18299: AVG IPC :0.59353: L2-Pf-HR :-nan: L2-HR :0.71030: (Sim:2h39m51s) 
CPU  2 inst:   77000001 cyc:  127629488 now IPC :0.18322: AVG IPC :0.59221: L2-Pf-HR :-nan: L2-HR :0.71025: (Sim:2h40m6s) 
CPU  3 inst:   77000001 cyc:  128665897 now IPC :0.18273: AVG IPC :0.58740: L2-Pf-HR :-nan: L2-HR :0.71029: (Sim:2h41m3s) 
CPU  0 inst:   77000001 cyc:  128682929 now IPC :0.18205: AVG IPC :0.58732: L2-Pf-HR :-nan: L2-HR :0.71030: (Sim:2h41m4s) 
CPU  1 inst:   78000001 cyc:  132809699 now IPC :0.18310: AVG IPC :0.57652: L2-Pf-HR :-nan: L2-HR :0.70555: (Sim:2h44m54s) 
CPU  2 inst:   78000001 cyc:  133106531 now IPC :0.18258: AVG IPC :0.57523: L2-Pf-HR :-nan: L2-HR :0.70549: (Sim:2h45m10s) 
CPU  3 inst:   78000001 cyc:  134121142 now IPC :0.18331: AVG IPC :0.57085: L2-Pf-HR :-nan: L2-HR :0.70553: (Sim:2h46m7s) 
CPU  0 inst:   78000001 cyc:  134136802 now IPC :0.18336: AVG IPC :0.57078: L2-Pf-HR :-nan: L2-HR :0.70554: (Sim:2h46m7s) 
CPU  1 inst:   79000000 cyc:  138325324 now IPC :0.18130: AVG IPC :0.56065: L2-Pf-HR :-nan: L2-HR :0.70091: (Sim:2h49m49s) 
CPU  2 inst:   79000000 cyc:  138623417 now IPC :0.18126: AVG IPC :0.55943: L2-Pf-HR :-nan: L2-HR :0.70085: (Sim:2h50m3s) 
CPU  3 inst:   79000000 cyc:  139629762 now IPC :0.18153: AVG IPC :0.55538: L2-Pf-HR :-nan: L2-HR :0.70090: (Sim:2h50m48s) 
CPU  0 inst:   79000000 cyc:  139647139 now IPC :0.18148: AVG IPC :0.55531: L2-Pf-HR :-nan: L2-HR :0.70091: (Sim:2h50m49s) 
CPU  1 inst:   80000001 cyc:  143830379 now IPC :0.18165: AVG IPC :0.54605: L2-Pf-HR :-nan: L2-HR :0.69639: (Sim:2h53m54s) 
CPU  2 inst:   80000001 cyc:  144119646 now IPC :0.18194: AVG IPC :0.54494: L2-Pf-HR :-nan: L2-HR :0.69633: (Sim:2h54m5s) 
CPU  3 inst:   80000001 cyc:  145112822 now IPC :0.18238: AVG IPC :0.54119: L2-Pf-HR :-nan: L2-HR :0.69637: (Sim:2h54m47s) 
CPU  0 inst:   80000001 cyc:  145130861 now IPC :0.18236: AVG IPC :0.54112: L2-Pf-HR :-nan: L2-HR :0.69638: (Sim:2h54m48s) 
CPU  1 inst:   81000001 cyc:  149286640 now IPC :0.18328: AVG IPC :0.53270: L2-Pf-HR :-nan: L2-HR :0.69197: (Sim:2h57m51s) 
CPU  2 inst:   81000001 cyc:  149577001 now IPC :0.18324: AVG IPC :0.53165: L2-Pf-HR :-nan: L2-HR :0.69192: (Sim:2h58m5s) 
CPU  3 inst:   81000001 cyc:  150590853 now IPC :0.18255: AVG IPC :0.52806: L2-Pf-HR :-nan: L2-HR :0.69196: (Sim:2h58m51s) 
CPU  0 inst:   81000001 cyc:  150596385 now IPC :0.18297: AVG IPC :0.52803: L2-Pf-HR :-nan: L2-HR :0.69197: (Sim:2h58m51s) 
CPU  1 inst:   82000001 cyc:  154794218 now IPC :0.18157: AVG IPC :0.52013: L2-Pf-HR :-nan: L2-HR :0.68767: (Sim:3h1m51s) 
CPU  2 inst:   82000001 cyc:  155074122 now IPC :0.18191: AVG IPC :0.51918: L2-Pf-HR :-nan: L2-HR :0.68761: (Sim:3h2m3s) 
CPU  3 inst:   82000001 cyc:  156093946 now IPC :0.18172: AVG IPC :0.51577: L2-Pf-HR :-nan: L2-HR :0.68765: (Sim:3h2m47s) 
CPU  0 inst:   82000001 cyc:  156114049 now IPC :0.18124: AVG IPC :0.51570: L2-Pf-HR :-nan: L2-HR :0.68766: (Sim:3h2m48s) 
CPU  1 inst:   83000001 cyc:  160245245 now IPC :0.18345: AVG IPC :0.50860: L2-Pf-HR :-nan: L2-HR :0.68346: (Sim:3h5m52s) 
CPU  2 inst:   83000001 cyc:  160528041 now IPC :0.18335: AVG IPC :0.50770: L2-Pf-HR :-nan: L2-HR :0.68341: (Sim:3h6m4s) 
CPU  3 inst:   83000001 cyc:  161544300 now IPC :0.18347: AVG IPC :0.50449: L2-Pf-HR :-nan: L2-HR :0.68345: (Sim:3h6m35s) 
CPU  0 inst:   83000001 cyc:  161554964 now IPC :0.18379: AVG IPC :0.50445: L2-Pf-HR :-nan: L2-HR :0.68346: (Sim:3h6m35s) 
CPU  1 inst:   84000001 cyc:  164877909 now IPC :0.21586: AVG IPC :0.50033: L2-Pf-HR :-nan: L2-HR :0.67813: (Sim:3h8m11s) 
CPU  2 inst:   84000001 cyc:  165338091 now IPC :0.20790: AVG IPC :0.49892: L2-Pf-HR :-nan: L2-HR :0.67806: (Sim:3h8m37s) 
CPU  1 inst:   85000001 cyc:  165612113 now IPC :1.36202: AVG IPC :0.50417: L2-Pf-HR :-nan: L2-HR :0.67973: (Sim:3h8m54s) 
CPU  2 inst:   85000001 cyc:  166098377 now IPC :1.31529: AVG IPC :0.50268: L2-Pf-HR :-nan: L2-HR :0.67966: (Sim:3h9m22s) 
CPU  1 inst:   86000002 cyc:  166912466 now IPC :0.76902: AVG IPC :0.50625: L2-Pf-HR :-nan: L2-HR :0.68148: (Sim:3h10m15s) 
CPU  3 inst:   84000001 cyc:  166933808 now IPC :0.18555: AVG IPC :0.49413: L2-Pf-HR :-nan: L2-HR :0.67812: (Sim:3h10m16s) 
CPU  0 inst:   84000001 cyc:  166977338 now IPC :0.18442: AVG IPC :0.49400: L2-Pf-HR :-nan: L2-HR :0.67812: (Sim:3h10m19s) 
CPU  2 inst:   86000002 cyc:  167298021 now IPC :0.83358: AVG IPC :0.50507: L2-Pf-HR :-nan: L2-HR :0.68138: (Sim:3h10m49s) 
CPU  1 inst:   87000000 cyc:  167640625 now IPC :1.37332: AVG IPC :0.51003: L2-Pf-HR :-nan: L2-HR :0.68303: (Sim:3h11m25s) 
CPU  3 inst:   85000001 cyc:  167694864 now IPC :1.31396: AVG IPC :0.49787: L2-Pf-HR :-nan: L2-HR :0.67972: (Sim:3h11m35s) 
CPU  0 inst:   85000001 cyc:  167748859 now IPC :1.29614: AVG IPC :0.49771: L2-Pf-HR :-nan: L2-HR :0.67972: (Sim:3h11m40s) 
CPU  2 inst:   87000000 cyc:  167909564 now IPC :1.63520: AVG IPC :0.50921: L2-Pf-HR :-nan: L2-HR :0.68293: (Sim:3h11m58s) 
CPU  1 inst:   88000002 cyc:  168641841 now IPC :0.99879: AVG IPC :0.51295: L2-Pf-HR :-nan: L2-HR :0.68482: (Sim:3h12m54s) 
CPU  3 inst:   86000002 cyc:  168683374 now IPC :1.01162: AVG IPC :0.50090: L2-Pf-HR :-nan: L2-HR :0.68132: (Sim:3h12m56s) 
CPU  0 inst:   86000002 cyc:  168835494 now IPC :0.92027: AVG IPC :0.50045: L2-Pf-HR :-nan: L2-HR :0.68124: (Sim:3h13m11s) 
CPU  2 inst:   88000002 cyc:  168854791 now IPC :1.05795: AVG IPC :0.51230: L2-Pf-HR :-nan: L2-HR :0.68471: (Sim:3h13m12s) 
CPU  3 inst:   87000000 cyc:  169437688 now IPC :1.32571: AVG IPC :0.50459: L2-Pf-HR :-nan: L2-HR :0.68288: (Sim:3h14m9s) 
CPU  1 inst:   89000004 cyc:  169453336 now IPC :1.23230: AVG IPC :0.51642: L2-Pf-HR :-nan: L2-HR :0.68615: (Sim:3h14m11s) 
CPU  0 inst:   87000000 cyc:  169521245 now IPC :1.45825: AVG IPC :0.50434: L2-Pf-HR :-nan: L2-HR :0.68274: (Sim:3h14m17s) 
CPU  2 inst:   89000004 cyc:  169545763 now IPC :1.44724: AVG IPC :0.51613: L2-Pf-HR :-nan: L2-HR :0.68610: (Sim:3h14m21s) 
CPU  1 inst:   90000002 cyc:  170114985 now IPC :1.51137: AVG IPC :0.52031: L2-Pf-HR :-nan: L2-HR :0.68810: (Sim:3h15m41s) 
CPU  2 inst:   90000002 cyc:  170166315 now IPC :1.61147: AVG IPC :0.52015: L2-Pf-HR :-nan: L2-HR :0.68805: (Sim:3h15m46s) 
CPU  3 inst:   88000002 cyc:  170320396 now IPC :1.13288: AVG IPC :0.50787: L2-Pf-HR :-nan: L2-HR :0.68467: (Sim:3h15m56s) 
CPU  0 inst:   88000005 cyc:  170534145 now IPC :0.98727: AVG IPC :0.50723: L2-Pf-HR :-nan: L2-HR :0.68452: (Sim:3h16m19s) 
CPU  3 inst:   89000004 cyc:  171256700 now IPC :1.06803: AVG IPC :0.51095: L2-Pf-HR :-nan: L2-HR :0.68596: (Sim:3h18m38s) 
CPU  1 inst:   91000005 cyc:  171321324 now IPC :0.82896: AVG IPC :0.52250: L2-Pf-HR :-nan: L2-HR :0.68923: (Sim:3h18m46s) 
CPU  2 inst:   91000005 cyc:  171334334 now IPC :0.85615: AVG IPC :0.52245: L2-Pf-HR :-nan: L2-HR :0.68918: (Sim:3h18m49s) 
CPU  0 inst:   89000004 cyc:  171387213 now IPC :1.17224: AVG IPC :0.51056: L2-Pf-HR :-nan: L2-HR :0.68581: (Sim:3h18m56s) 
CPU  3 inst:   90000002 cyc:  171961458 now IPC :1.41892: AVG IPC :0.51469: L2-Pf-HR :-nan: L2-HR :0.68792: (Sim:3h20m43s) 
CPU  1 inst:   92000001 cyc:  172024139 now IPC :1.42284: AVG IPC :0.52620: L2-Pf-HR :-nan: L2-HR :0.69088: (Sim:3h20m51s) 
CPU  2 inst:   92000001 cyc:  172038129 now IPC :1.42086: AVG IPC :0.52615: L2-Pf-HR :-nan: L2-HR :0.69083: (Sim:3h20m52s) 
CPU  0 inst:   90000002 cyc:  172089464 now IPC :1.42399: AVG IPC :0.51431: L2-Pf-HR :-nan: L2-HR :0.68777: (Sim:3h20m59s) 
CPU  3 inst:   91000005 cyc:  173024364 now IPC :0.94082: AVG IPC :0.51732: L2-Pf-HR :-nan: L2-HR :0.68904: (Sim:3h23m14s) 
CPU  2 inst:   93000003 cyc:  173186057 now IPC :0.87114: AVG IPC :0.52845: L2-Pf-HR :-nan: L2-HR :0.69214: (Sim:3h23m51s) 
CPU  1 inst:   93000003 cyc:  173187598 now IPC :0.85951: AVG IPC :0.52845: L2-Pf-HR :-nan: L2-HR :0.69218: (Sim:3h23m51s) 
CPU  0 inst:   91000005 cyc:  173247306 now IPC :0.86368: AVG IPC :0.51665: L2-Pf-HR :-nan: L2-HR :0.68890: (Sim:3h24m0s) 
CPU  3 inst:   92000001 cyc:  173751893 now IPC :1.37451: AVG IPC :0.52093: L2-Pf-HR :-nan: L2-HR :0.69070: (Sim:3h25m42s) 
CPU  2 inst:   94000004 cyc:  173878368 now IPC :1.44444: AVG IPC :0.53212: L2-Pf-HR :-nan: L2-HR :0.69350: (Sim:3h25m57s) 
CPU  1 inst:   94000004 cyc:  173881794 now IPC :1.44052: AVG IPC :0.53211: L2-Pf-HR :-nan: L2-HR :0.69355: (Sim:3h25m57s) 
CPU  0 inst:   92000001 cyc:  173936743 now IPC :1.45045: AVG IPC :0.52038: L2-Pf-HR :-nan: L2-HR :0.69056: (Sim:3h26m4s) 
CPU  3 inst:   93000003 cyc:  174676906 now IPC :1.08107: AVG IPC :0.52392: L2-Pf-HR :-nan: L2-HR :0.69201: (Sim:3h27m45s) 
CPU  2 inst:   95000001 cyc:  174901415 now IPC :0.97747: AVG IPC :0.53474: L2-Pf-HR :-nan: L2-HR :0.69506: (Sim:3h28m28s) 
CPU  1 inst:   95000001 cyc:  174903477 now IPC :0.97877: AVG IPC :0.53473: L2-Pf-HR :-nan: L2-HR :0.69511: (Sim:3h28m29s) 
CPU  0 inst:   93000003 cyc:  174992573 now IPC :0.94712: AVG IPC :0.52297: L2-Pf-HR :-nan: L2-HR :0.69186: (Sim:3h28m55s) 
CPU  3 inst:   94000004 cyc:  175273241 now IPC :1.67691: AVG IPC :0.52786: L2-Pf-HR :-nan: L2-HR :0.69338: (Sim:3h29m44s) 
CPU  2 inst:   96000001 cyc:  175618792 now IPC :1.39397: AVG IPC :0.53827: L2-Pf-HR :-nan: L2-HR :0.69628: (Sim:3h30m43s) 
CPU  1 inst:   96000001 cyc:  175619924 now IPC :1.39578: AVG IPC :0.53827: L2-Pf-HR :-nan: L2-HR :0.69633: (Sim:3h30m43s) 
CPU  0 inst:   94000004 cyc:  175657790 now IPC :1.50327: AVG IPC :0.52670: L2-Pf-HR :-nan: L2-HR :0.69323: (Sim:3h30m50s) 
CPU  3 inst:   95000001 cyc:  176092191 now IPC :1.22107: AVG IPC :0.53110: L2-Pf-HR :-nan: L2-HR :0.69488: (Sim:3h31m39s) 
CPU  1 inst:   97000000 cyc:  176550488 now IPC :1.07462: AVG IPC :0.54111: L2-Pf-HR :-nan: L2-HR :0.69780: (Sim:3h33m1s) 
CPU  2 inst:   97000000 cyc:  176563097 now IPC :1.05898: AVG IPC :0.54107: L2-Pf-HR :-nan: L2-HR :0.69764: (Sim:3h33m3s) 
CPU  0 inst:   95000001 cyc:  176571962 now IPC :1.09388: AVG IPC :0.52965: L2-Pf-HR :-nan: L2-HR :0.69478: (Sim:3h33m5s) 
CPU  3 inst:   96000001 cyc:  176717202 now IPC :1.59997: AVG IPC :0.53491: L2-Pf-HR :-nan: L2-HR :0.69611: (Sim:3h33m34s) 
CPU  1 inst:   98000002 cyc:  177193464 now IPC :1.55527: AVG IPC :0.54481: L2-Pf-HR :-nan: L2-HR :0.69902: (Sim:3h34m54s) 
CPU  2 inst:   98000002 cyc:  177202845 now IPC :1.56312: AVG IPC :0.54478: L2-Pf-HR :-nan: L2-HR :0.69886: (Sim:3h34m55s) 
CPU  0 inst:   96000001 cyc:  177244399 now IPC :1.48713: AVG IPC :0.53331: L2-Pf-HR :-nan: L2-HR :0.69601: (Sim:3h35m1s) 
CPU  3 inst:   97000000 cyc:  177416386 now IPC :1.43024: AVG IPC :0.53845: L2-Pf-HR :-nan: L2-HR :0.69758: (Sim:3h35m27s) 
CPU  3 inst:   98000002 cyc:  178108008 now IPC :1.44588: AVG IPC :0.54200: L2-Pf-HR :-nan: L2-HR :0.69879: (Sim:3h37m5s) 
CPU  1 inst:   99000000 cyc:  178112270 now IPC :1.08837: AVG IPC :0.54763: L2-Pf-HR :-nan: L2-HR :0.70039: (Sim:3h37m6s) 
CPU  2 inst:   99000000 cyc:  178122759 now IPC :1.08706: AVG IPC :0.54759: L2-Pf-HR :-nan: L2-HR :0.70023: (Sim:3h37m7s) 
CPU  0 inst:   97000000 cyc:  178141835 now IPC :1.11428: AVG IPC :0.53625: L2-Pf-HR :-nan: L2-HR :0.69747: (Sim:3h37m10s) 
CPU  1 inst:  100000000 cyc:  178763864 now IPC :1.53470: AVG IPC :0.55125: L2-Pf-HR :-nan: L2-HR :0.70159: (Sim:3h38m54s) 
CPU  2 inst:  100000000 cyc:  178783356 now IPC :1.51378: AVG IPC :0.55118: L2-Pf-HR :-nan: L2-HR :0.70143: (Sim:3h38m57s) 
CPU  0 inst:   98000002 cyc:  178811369 now IPC :1.49358: AVG IPC :0.53985: L2-Pf-HR :-nan: L2-HR :0.69868: (Sim:3h39m2s) 
CPU  3 inst:   99000000 cyc:  178856701 now IPC :1.33566: AVG IPC :0.54534: L2-Pf-HR :-nan: L2-HR :0.70017: (Sim:3h39m8s) 
CPU  3 inst:  100000000 cyc:  179519269 now IPC :1.50928: AVG IPC :0.54892: L2-Pf-HR :-nan: L2-HR :0.70137: (Sim:3h40m39s) 
CPU  1 inst:  101000004 cyc:  179672467 now IPC :1.10060: AVG IPC :0.55404: L2-Pf-HR :-nan: L2-HR :0.70284: (Sim:3h41m6s) 
CPU  2 inst:  101000004 cyc:  179685540 now IPC :1.10843: AVG IPC :0.55400: L2-Pf-HR :-nan: L2-HR :0.70260: (Sim:3h41m8s) 
CPU  0 inst:   99000000 cyc:  179729080 now IPC :1.08967: AVG IPC :0.54268: L2-Pf-HR :-nan: L2-HR :0.69982: (Sim:3h41m14s) 
CPU  3 inst:  101000004 cyc:  180295899 now IPC :1.28762: AVG IPC :0.55211: L2-Pf-HR :-nan: L2-HR :0.70259: (Sim:3h42m59s) 
CPU  1 inst:  102000002 cyc:  180320550 now IPC :1.54301: AVG IPC :0.55761: L2-Pf-HR :-nan: L2-HR :0.70411: (Sim:3h43m3s) 
CPU  2 inst:  102000002 cyc:  180335011 now IPC :1.53971: AVG IPC :0.55757: L2-Pf-HR :-nan: L2-HR :0.70387: (Sim:3h43m5s) 
CPU  0 inst:  100000000 cyc:  180430624 now IPC :1.42543: AVG IPC :0.54613: L2-Pf-HR :-nan: L2-HR :0.70102: (Sim:3h43m28s) 
CPU  3 inst:  102000002 cyc:  180884261 now IPC :1.69963: AVG IPC :0.55587: L2-Pf-HR :-nan: L2-HR :0.70386: (Sim:3h44m28s) 
CPU  1 inst:  103000000 cyc:  181276129 now IPC :1.04648: AVG IPC :0.56021: L2-Pf-HR :-nan: L2-HR :0.70517: (Sim:3h45m24s) 
CPU  2 inst:  103000000 cyc:  181310667 now IPC :1.02495: AVG IPC :0.56010: L2-Pf-HR :-nan: L2-HR :0.70490: (Sim:3h45m29s) 
CPU  0 inst:  101000004 cyc:  181408444 now IPC :1.02269: AVG IPC :0.54871: L2-Pf-HR :-nan: L2-HR :0.70206: (Sim:3h45m46s) 
CPU  3 inst:  103000000 cyc:  181739395 now IPC :1.16940: AVG IPC :0.55877: L2-Pf-HR :-nan: L2-HR :0.70494: (Sim:3h46m40s) 
CPU  1 inst:  104000003 cyc:  181933709 now IPC :1.52073: AVG IPC :0.56370: L2-Pf-HR :-nan: L2-HR :0.70637: (Sim:3h47m16s) 
CPU  2 inst:  104000003 cyc:  181967996 now IPC :1.52131: AVG IPC :0.56359: L2-Pf-HR :-nan: L2-HR :0.70609: (Sim:3h47m21s) 
CPU  0 inst:  102000002 cyc:  182017408 now IPC :1.64213: AVG IPC :0.55239: L2-Pf-HR :-nan: L2-HR :0.70333: (Sim:3h47m30s) 
CPU  3 inst:  104000003 cyc:  182342975 now IPC :1.65679: AVG IPC :0.56242: L2-Pf-HR :-nan: L2-HR :0.70614: (Sim:3h48m25s) 
CPU  1 inst:  105000000 cyc:  182786664 now IPC :1.17239: AVG IPC :0.56655: L2-Pf-HR :-nan: L2-HR :0.70750: (Sim:3h49m23s) 
CPU  2 inst:  105000000 cyc:  182828159 now IPC :1.16257: AVG IPC :0.56642: L2-Pf-HR :-nan: L2-HR :0.70722: (Sim:3h49m29s) 
CPU  0 inst:  103000000 cyc:  182887201 now IPC :1.14970: AVG IPC :0.55524: L2-Pf-HR :-nan: L2-HR :0.70424: (Sim:3h49m37s) 
CPU  3 inst:  105000000 cyc:  183180513 now IPC :1.19397: AVG IPC :0.56533: L2-Pf-HR :-nan: L2-HR :0.70725: (Sim:3h50m28s) 
CPU  1 inst:  106000001 cyc:  183455569 now IPC :1.49498: AVG IPC :0.56996: L2-Pf-HR :-nan: L2-HR :0.70864: (Sim:3h51m15s) 
CPU  2 inst:  106000001 cyc:  183479813 now IPC :1.53456: AVG IPC :0.56988: L2-Pf-HR :-nan: L2-HR :0.70836: (Sim:3h51m18s) 
CPU  0 inst:  104000003 cyc:  183537809 now IPC :1.53703: AVG IPC :0.55874: L2-Pf-HR :-nan: L2-HR :0.70545: (Sim:3h51m28s) 
CPU  3 inst:  106000001 cyc:  183763498 now IPC :1.71531: AVG IPC :0.56900: L2-Pf-HR :-nan: L2-HR :0.70837: (Sim:3h52m6s) 
CPU  1 inst:  107000002 cyc:  184311748 now IPC :1.16798: AVG IPC :0.57275: L2-Pf-HR :-nan: L2-HR :0.70972: (Sim:3h53m19s) 
CPU  2 inst:  107000002 cyc:  184345491 now IPC :1.15517: AVG IPC :0.57264: L2-Pf-HR :-nan: L2-HR :0.70945: (Sim:3h53m24s) 
CPU  0 inst:  105000000 cyc:  184424590 now IPC :1.12767: AVG IPC :0.56149: L2-Pf-HR :-nan: L2-HR :0.70658: (Sim:3h53m34s) 
CPU  3 inst:  107000002 cyc:  184556282 now IPC :1.26138: AVG IPC :0.57199: L2-Pf-HR :-nan: L2-HR :0.70945: (Sim:3h53m55s) 
CPU  1 inst:  108000005 cyc:  184966372 now IPC :1.52760: AVG IPC :0.57615: L2-Pf-HR :-nan: L2-HR :0.71079: (Sim:3h55m7s) 
CPU  2 inst:  108000005 cyc:  185010431 now IPC :1.50390: AVG IPC :0.57601: L2-Pf-HR :-nan: L2-HR :0.71050: (Sim:3h55m15s) 
CPU  0 inst:  106000001 cyc:  185082118 now IPC :1.52085: AVG IPC :0.56492: L2-Pf-HR :-nan: L2-HR :0.70772: (Sim:3h55m28s) 
CPU  3 inst:  108000005 cyc:  185150549 now IPC :1.68275: AVG IPC :0.57557: L2-Pf-HR :-nan: L2-HR :0.71052: (Sim:3h55m39s) 
CPU  1 inst:  109000005 cyc:  185736515 now IPC :1.29846: AVG IPC :0.57916: L2-Pf-HR :-nan: L2-HR :0.71199: (Sim:3h57m1s) 
CPU  2 inst:  109000005 cyc:  185870678 now IPC :1.16246: AVG IPC :0.57873: L2-Pf-HR :-nan: L2-HR :0.71171: (Sim:3h57m11s) 
CPU  3 inst:  109000005 cyc:  186025190 now IPC :1.14333: AVG IPC :0.57825: L2-Pf-HR :-nan: L2-HR :0.71171: (Sim:3h57m40s) 
CPU  0 inst:  107000002 cyc:  186069526 now IPC :1.01275: AVG IPC :0.56731: L2-Pf-HR :-nan: L2-HR :0.70869: (Sim:3h57m45s) 
CPU  1 inst:  110000000 cyc:  186618778 now IPC :1.13344: AVG IPC :0.58179: L2-Pf-HR :-nan: L2-HR :0.71288: (Sim:3h59m15s) 
CPU  2 inst:  110000000 cyc:  186670007 now IPC :1.25104: AVG IPC :0.58163: L2-Pf-HR :-nan: L2-HR :0.71254: (Sim:3h59m22s) 
CPU  3 inst:  110000000 cyc:  186674185 now IPC :1.54084: AVG IPC :0.58162: L2-Pf-HR :-nan: L2-HR :0.71261: (Sim:3h59m23s) 
CPU  0 inst:  108000005 cyc:  186712706 now IPC :1.55478: AVG IPC :0.57073: L2-Pf-HR :-nan: L2-HR :0.70973: (Sim:3h59m30s) 
CPU  1 inst:  111000001 cyc:  187278224 now IPC :1.51643: AVG IPC :0.58510: L2-Pf-HR :-nan: L2-HR :0.71426: (Sim:4h1m6s) 
CPU  3 inst:  111000001 cyc:  187312308 now IPC :1.56710: AVG IPC :0.58499: L2-Pf-HR :-nan: L2-HR :0.71399: (Sim:4h1m11s) 
CPU  2 inst:  111000001 cyc:  187329138 now IPC :1.51715: AVG IPC :0.58494: L2-Pf-HR :-nan: L2-HR :0.71393: (Sim:4h1m13s) 
CPU  0 inst:  109000003 cyc:  187613374 now IPC :1.11028: AVG IPC :0.57333: L2-Pf-HR :-nan: L2-HR :0.71094: (Sim:4h1m33s) 
CPU  1 inst:  112000000 cyc:  188279978 now IPC :0.99825: AVG IPC :0.58731: L2-Pf-HR :-nan: L2-HR :0.71493: (Sim:4h3m33s) 
CPU  3 inst:  112000000 cyc:  188325107 now IPC :0.98736: AVG IPC :0.58717: L2-Pf-HR :-nan: L2-HR :0.71466: (Sim:4h3m40s) 
CPU  2 inst:  112000000 cyc:  188357832 now IPC :0.97211: AVG IPC :0.58706: L2-Pf-HR :-nan: L2-HR :0.71459: (Sim:4h3m44s) 
CPU  0 inst:  110000000 cyc:  188410046 now IPC :1.25522: AVG IPC :0.57623: L2-Pf-HR :-nan: L2-HR :0.71164: (Sim:4h3m53s) 
CPU  1 inst:  113000004 cyc:  188912268 now IPC :1.58156: AVG IPC :0.59065: L2-Pf-HR :-nan: L2-HR :0.71609: (Sim:4h5m25s) 
CPU  3 inst:  113000004 cyc:  188956636 now IPC :1.58346: AVG IPC :0.59052: L2-Pf-HR :-nan: L2-HR :0.71582: (Sim:4h5m32s) 
CPU  2 inst:  113000004 cyc:  188990980 now IPC :1.57942: AVG IPC :0.59040: L2-Pf-HR :-nan: L2-HR :0.71575: (Sim:4h5m37s) 
CPU  0 inst:  111000001 cyc:  189051019 now IPC :1.56013: AVG IPC :0.57958: L2-Pf-HR :-nan: L2-HR :0.71303: (Sim:4h5m45s) 
CPU  1 inst:  114000005 cyc:  189871769 now IPC :1.04221: AVG IPC :0.59295: L2-Pf-HR :-nan: L2-HR :0.71688: (Sim:4h7m43s) 
CPU  3 inst:  114000005 cyc:  189974066 now IPC :0.98287: AVG IPC :0.59263: L2-Pf-HR :-nan: L2-HR :0.71665: (Sim:4h8m7s) 
CPU  2 inst:  114000005 cyc:  189984822 now IPC :1.00620: AVG IPC :0.59259: L2-Pf-HR :-nan: L2-HR :0.71656: (Sim:4h8m9s) 
CPU  0 inst:  112000000 cyc:  190048271 now IPC :1.00275: AVG IPC :0.58182: L2-Pf-HR :-nan: L2-HR :0.71371: (Sim:4h8m19s) 
CPU  1 inst:  115000000 cyc:  190593821 now IPC :1.38493: AVG IPC :0.59596: L2-Pf-HR :-nan: L2-HR :0.71786: (Sim:4h10m8s) 
CPU  2 inst:  115000000 cyc:  190657889 now IPC :1.48573: AVG IPC :0.59576: L2-Pf-HR :-nan: L2-HR :0.71754: (Sim:4h10m18s) 
CPU  3 inst:  115000000 cyc:  190660745 now IPC :1.45628: AVG IPC :0.59575: L2-Pf-HR :-nan: L2-HR :0.71763: (Sim:4h10m18s) 
CPU  0 inst:  113000004 cyc:  190725471 now IPC :1.47667: AVG IPC :0.58501: L2-Pf-HR :-nan: L2-HR :0.71488: (Sim:4h10m28s) 
CPU  1 inst:  116000001 cyc:  191534135 now IPC :1.06348: AVG IPC :0.59827: L2-Pf-HR :-nan: L2-HR :0.71889: (Sim:4h12m26s) 
CPU  2 inst:  116000001 cyc:  191642954 now IPC :1.01516: AVG IPC :0.59793: L2-Pf-HR :-nan: L2-HR :0.71853: (Sim:4h12m44s) 
CPU  3 inst:  116000001 cyc:  191643609 now IPC :1.01744: AVG IPC :0.59793: L2-Pf-HR :-nan: L2-HR :0.71865: (Sim:4h12m45s) 
CPU  0 inst:  114000005 cyc:  191764159 now IPC :0.96275: AVG IPC :0.58707: L2-Pf-HR :-nan: L2-HR :0.71571: (Sim:4h13m20s) 
CPU  1 inst:  117000001 cyc:  192235321 now IPC :1.42616: AVG IPC :0.60131: L2-Pf-HR :-nan: L2-HR :0.71976: (Sim:4h14m33s) 
CPU  2 inst:  117000001 cyc:  192390246 now IPC :1.33817: AVG IPC :0.60082: L2-Pf-HR :-nan: L2-HR :0.71940: (Sim:4h14m50s) 
CPU  3 inst:  117000001 cyc:  192390450 now IPC :1.33897: AVG IPC :0.60082: L2-Pf-HR :-nan: L2-HR :0.71953: (Sim:4h14m50s) 
CPU  0 inst:  115000000 cyc:  192429360 now IPC :1.50330: AVG IPC :0.59025: L2-Pf-HR :-nan: L2-HR :0.71670: (Sim:4h14m53s) 
CPU  1 inst:  118000002 cyc:  193113096 now IPC :1.13925: AVG IPC :0.60376: L2-Pf-HR :-nan: L2-HR :0.72071: (Sim:4h15m44s) 
CPU  2 inst:  118000002 cyc:  193352974 now IPC :1.03872: AVG IPC :0.60301: L2-Pf-HR :-nan: L2-HR :0.72035: (Sim:4h16m10s) 
CPU  3 inst:  118000002 cyc:  193357299 now IPC :1.03429: AVG IPC :0.60300: L2-Pf-HR :-nan: L2-HR :0.72049: (Sim:4h16m10s) 
CPU  0 inst:  116000001 cyc:  193389238 now IPC :1.04180: AVG IPC :0.59250: L2-Pf-HR :-nan: L2-HR :0.71768: (Sim:4h16m13s) 
CPU  1 inst:  119000005 cyc:  193694501 now IPC :1.71998: AVG IPC :0.60713: L2-Pf-HR :-nan: L2-HR :0.72159: (Sim:4h16m50s) 
CPU  2 inst:  119000005 cyc:  194035803 now IPC :1.46450: AVG IPC :0.60606: L2-Pf-HR :-nan: L2-HR :0.72123: (Sim:4h17m25s) 
CPU  3 inst:  119000005 cyc:  194039790 now IPC :1.46523: AVG IPC :0.60605: L2-Pf-HR :-nan: L2-HR :0.72136: (Sim:4h17m25s) 
CPU  0 inst:  117000001 cyc:  194075581 now IPC :1.45700: AVG IPC :0.59558: L2-Pf-HR :-nan: L2-HR :0.71856: (Sim:4h17m28s) 
CPU  1 inst:  120000000 cyc:  194450659 now IPC :1.32247: AVG IPC :0.60993: L2-Pf-HR :-nan: L2-HR :0.72248: (Sim:4h17m55s) 
CPU  2 inst:  120000000 cyc:  194932755 now IPC :1.11488: AVG IPC :0.60841: L2-Pf-HR :-nan: L2-HR :0.72213: (Sim:4h18m42s) 
CPU  3 inst:  120000000 cyc:  194934200 now IPC :1.11805: AVG IPC :0.60841: L2-Pf-HR :-nan: L2-HR :0.72227: (Sim:4h18m42s) 
CPU  0 inst:  118000002 cyc:  194949148 now IPC :1.14473: AVG IPC :0.59805: L2-Pf-HR :-nan: L2-HR :0.71953: (Sim:4h18m44s) 
CPU  1 inst:  121000000 cyc:  195053158 now IPC :1.65975: AVG IPC :0.61319: L2-Pf-HR :-nan: L2-HR :0.72335: (Sim:4h18m54s) 
CPU  3 inst:  121000000 cyc:  195602915 now IPC :1.49541: AVG IPC :0.61146: L2-Pf-HR :-nan: L2-HR :0.72314: (Sim:4h19m52s) 
CPU  2 inst:  121000000 cyc:  195605205 now IPC :1.48710: AVG IPC :0.61145: L2-Pf-HR :-nan: L2-HR :0.72300: (Sim:4h19m52s) 
CPU  0 inst:  119000005 cyc:  195628789 now IPC :1.47137: AVG IPC :0.60110: L2-Pf-HR :-nan: L2-HR :0.72041: (Sim:4h19m54s) 
CPU  1 inst:  122000000 cyc:  195772117 now IPC :1.39090: AVG IPC :0.61606: L2-Pf-HR :-nan: L2-HR :0.72421: (Sim:4h20m5s) 
CPU  1 inst:  123000004 cyc:  196438174 now IPC :1.50138: AVG IPC :0.61907: L2-Pf-HR :-nan: L2-HR :0.72514: (Sim:4h20m57s) 
CPU  2 inst:  122000000 cyc:  196479850 now IPC :1.14332: AVG IPC :0.61383: L2-Pf-HR :-nan: L2-HR :0.72382: (Sim:4h21m1s) 
CPU  3 inst:  122000000 cyc:  196484731 now IPC :1.13402: AVG IPC :0.61381: L2-Pf-HR :-nan: L2-HR :0.72400: (Sim:4h21m2s) 
CPU  0 inst:  120000000 cyc:  196519617 now IPC :1.12255: AVG IPC :0.60347: L2-Pf-HR :-nan: L2-HR :0.72132: (Sim:4h21m9s) 
CPU  2 inst:  123000004 cyc:  197141356 now IPC :1.51171: AVG IPC :0.61685: L2-Pf-HR :-nan: L2-HR :0.72475: (Sim:4h22m6s) 
CPU  3 inst:  123000004 cyc:  197146350 now IPC :1.51145: AVG IPC :0.61684: L2-Pf-HR :-nan: L2-HR :0.72493: (Sim:4h22m7s) 
CPU  0 inst:  121000000 cyc:  197165006 now IPC :1.54945: AVG IPC :0.60659: L2-Pf-HR :-nan: L2-HR :0.72220: (Sim:4h22m9s) 
CPU  1 inst:  124000004 cyc:  197202285 now IPC :1.30871: AVG IPC :0.62176: L2-Pf-HR :-nan: L2-HR :0.72590: (Sim:4h22m13s) 
CPU  1 inst:  125000002 cyc:  197858469 now IPC :1.52396: AVG IPC :0.62477: L2-Pf-HR :-nan: L2-HR :0.72678: (Sim:4h23m4s) 
CPU  2 inst:  124000004 cyc:  198030175 now IPC :1.12509: AVG IPC :0.61915: L2-Pf-HR :-nan: L2-HR :0.72549: (Sim:4h23m20s) 
CPU  0 inst:  122000000 cyc:  198032569 now IPC :1.15265: AVG IPC :0.60899: L2-Pf-HR :-nan: L2-HR :0.72306: (Sim:4h23m20s) 
CPU  3 inst:  124000004 cyc:  198036470 now IPC :1.12344: AVG IPC :0.61913: L2-Pf-HR :-nan: L2-HR :0.72569: (Sim:4h23m21s) 
CPU  1 inst:  126000002 cyc:  198614217 now IPC :1.32319: AVG IPC :0.62744: L2-Pf-HR :-nan: L2-HR :0.72751: (Sim:4h24m48s) 
CPU  0 inst:  123000004 cyc:  198692934 now IPC :1.51432: AVG IPC :0.61201: L2-Pf-HR :-nan: L2-HR :0.72400: (Sim:4h25m1s) 
CPU  2 inst:  125000002 cyc:  198705108 now IPC :1.48163: AVG IPC :0.62209: L2-Pf-HR :-nan: L2-HR :0.72637: (Sim:4h25m3s) 
CPU  3 inst:  125000002 cyc:  198711000 now IPC :1.48251: AVG IPC :0.62207: L2-Pf-HR :-nan: L2-HR :0.72657: (Sim:4h25m4s) 
CPU  1 inst:  127000002 cyc:  199230680 now IPC :1.62216: AVG IPC :0.63053: L2-Pf-HR :-nan: L2-HR :0.72834: (Sim:4h26m37s) 
CPU  0 inst:  124000004 cyc:  199570178 now IPC :1.13993: AVG IPC :0.61435: L2-Pf-HR :-nan: L2-HR :0.72476: (Sim:4h27m25s) 
CPU  2 inst:  126000002 cyc:  199622677 now IPC :1.08984: AVG IPC :0.62425: L2-Pf-HR :-nan: L2-HR :0.72705: (Sim:4h27m33s) 
CPU  3 inst:  126000002 cyc:  199626360 now IPC :1.09247: AVG IPC :0.62424: L2-Pf-HR :-nan: L2-HR :0.72730: (Sim:4h27m34s) 
CPU  1 inst:  128000003 cyc:  200031560 now IPC :1.24863: AVG IPC :0.63302: L2-Pf-HR :-nan: L2-HR :0.72908: (Sim:4h28m55s) 
CPU  0 inst:  125000002 cyc:  200240988 now IPC :1.49073: AVG IPC :0.61730: L2-Pf-HR :-nan: L2-HR :0.72565: (Sim:4h29m31s) 
CPU  3 inst:  127000002 cyc:  200304694 now IPC :1.47420: AVG IPC :0.62713: L2-Pf-HR :-nan: L2-HR :0.72814: (Sim:4h29m45s) 
CPU  2 inst:  127000002 cyc:  200312699 now IPC :1.44923: AVG IPC :0.62711: L2-Pf-HR :-nan: L2-HR :0.72789: (Sim:4h29m47s) 
CPU  1 inst:  129000002 cyc:  200615199 now IPC :1.71339: AVG IPC :0.63618: L2-Pf-HR :-nan: L2-HR :0.72989: (Sim:4h30m45s) 
CPU  0 inst:  126000002 cyc:  201106144 now IPC :1.15586: AVG IPC :0.61963: L2-Pf-HR :-nan: L2-HR :0.72641: (Sim:4h31m46s) 
CPU  3 inst:  128000003 cyc:  201197766 now IPC :1.11973: AVG IPC :0.62933: L2-Pf-HR :-nan: L2-HR :0.72888: (Sim:4h32m4s) 
CPU  2 inst:  128000003 cyc:  201201287 now IPC :1.12538: AVG IPC :0.62932: L2-Pf-HR :-nan: L2-HR :0.72863: (Sim:4h32m5s) 
CPU  1 inst:  130000001 cyc:  201370552 now IPC :1.32388: AVG IPC :0.63877: L2-Pf-HR :-nan: L2-HR :0.73080: (Sim:4h32m26s) 
CPU  0 inst:  127000002 cyc:  201794798 now IPC :1.45211: AVG IPC :0.62248: L2-Pf-HR :-nan: L2-HR :0.72726: (Sim:4h33m38s) 
CPU  2 inst:  129000002 cyc:  201832307 now IPC :1.58473: AVG IPC :0.63232: L2-Pf-HR :-nan: L2-HR :0.72944: (Sim:4h33m43s) 
CPU  3 inst:  129000002 cyc:  201832511 now IPC :1.57543: AVG IPC :0.63232: L2-Pf-HR :-nan: L2-HR :0.72969: (Sim:4h33m43s) 
CPU  1 inst:  131000003 cyc:  202038738 now IPC :1.49659: AVG IPC :0.64162: L2-Pf-HR :-nan: L2-HR :0.73141: (Sim:4h34m20s) 
CPU  3 inst:  130000001 cyc:  202596316 now IPC :1.30923: AVG IPC :0.63489: L2-Pf-HR :-nan: L2-HR :0.73060: (Sim:4h35m34s) 
CPU  2 inst:  130000001 cyc:  202597379 now IPC :1.30707: AVG IPC :0.63488: L2-Pf-HR :-nan: L2-HR :0.73035: (Sim:4h35m34s) 
CPU  0 inst:  128000003 cyc:  202633417 now IPC :1.19244: AVG IPC :0.62485: L2-Pf-HR :-nan: L2-HR :0.72800: (Sim:4h35m38s) 
CPU  1 inst:  132000004 cyc:  202671504 now IPC :1.58036: AVG IPC :0.64456: L2-Pf-HR :-nan: L2-HR :0.73244: (Sim:4h35m42s) 
CPU  0 inst:  129000002 cyc:  203311533 now IPC :1.47467: AVG IPC :0.62770: L2-Pf-HR :-nan: L2-HR :0.72882: (Sim:4h37m18s) 
CPU  3 inst:  131000003 cyc:  203376013 now IPC :1.28255: AVG IPC :0.63738: L2-Pf-HR :-nan: L2-HR :0.73119: (Sim:4h37m29s) 
CPU  2 inst:  131000003 cyc:  203379018 now IPC :1.27937: AVG IPC :0.63737: L2-Pf-HR :-nan: L2-HR :0.73095: (Sim:4h37m29s) 
CPU  1 inst:  133000004 cyc:  203432239 now IPC :1.31452: AVG IPC :0.64708: L2-Pf-HR :-nan: L2-HR :0.73287: (Sim:4h37m37s) 
CPU  0 inst:  130000001 cyc:  204008371 now IPC :1.43505: AVG IPC :0.63047: L2-Pf-HR :-nan: L2-HR :0.72973: (Sim:4h39m8s) 
CPU  3 inst:  132000004 cyc:  204018302 now IPC :1.55693: AVG IPC :0.64029: L2-Pf-HR :-nan: L2-HR :0.73223: (Sim:4h39m9s) 
CPU  2 inst:  132000004 cyc:  204021432 now IPC :1.55663: AVG IPC :0.64028: L2-Pf-HR :-nan: L2-HR :0.73199: (Sim:4h39m9s) 
CPU  1 inst:  134000003 cyc:  204023847 now IPC :1.69031: AVG IPC :0.65012: L2-Pf-HR :-nan: L2-HR :0.73373: (Sim:4h39m9s) 
CPU  0 inst:  131000003 cyc:  204787888 now IPC :1.28285: AVG IPC :0.63296: L2-Pf-HR :-nan: L2-HR :0.73033: (Sim:4h40m46s) 
CPU  1 inst:  135000005 cyc:  204923789 now IPC :1.11118: AVG IPC :0.65216: L2-Pf-HR :-nan: L2-HR :0.73429: (Sim:4h41m12s) 
CPU  2 inst:  133000004 cyc:  204976721 now IPC :1.04680: AVG IPC :0.64218: L2-Pf-HR :-nan: L2-HR :0.73235: (Sim:4h41m19s) 
CPU  3 inst:  133000004 cyc:  204982990 now IPC :1.03660: AVG IPC :0.64216: L2-Pf-HR :-nan: L2-HR :0.73262: (Sim:4h41m19s) 
CPU  0 inst:  132000004 cyc:  205355228 now IPC :1.76261: AVG IPC :0.63610: L2-Pf-HR :-nan: L2-HR :0.73137: (Sim:4h42m21s) 
CPU  1 inst:  136000002 cyc:  205577705 now IPC :1.52924: AVG IPC :0.65496: L2-Pf-HR :-nan: L2-HR :0.73503: (Sim:4h42m55s) 
CPU  2 inst:  134000003 cyc:  205634238 now IPC :1.52087: AVG IPC :0.64500: L2-Pf-HR :-nan: L2-HR :0.73322: (Sim:4h43m2s) 
CPU  3 inst:  134000003 cyc:  205635647 now IPC :1.53220: AVG IPC :0.64500: L2-Pf-HR :-nan: L2-HR :0.73349: (Sim:4h43m2s) 
CPU  0 inst:  133000004 cyc:  206212575 now IPC :1.16639: AVG IPC :0.63832: L2-Pf-HR :-nan: L2-HR :0.73161: (Sim:4h44m6s) 
CPU  1 inst:  137000002 cyc:  206502712 now IPC :1.08107: AVG IPC :0.65688: L2-Pf-HR :-nan: L2-HR :0.73574: (Sim:4h44m50s) 
CPU  2 inst:  135000005 cyc:  206580431 now IPC :1.05687: AVG IPC :0.64690: L2-Pf-HR :-nan: L2-HR :0.73377: (Sim:4h45m12s) 
CPU  3 inst:  135000005 cyc:  206589872 now IPC :1.04797: AVG IPC :0.64687: L2-Pf-HR :-nan: L2-HR :0.73403: (Sim:4h45m13s) 
CPU  0 inst:  134000003 cyc:  206779295 now IPC :1.76454: AVG IPC :0.64142: L2-Pf-HR :-nan: L2-HR :0.73248: (Sim:4h45m31s) 
CPU  1 inst:  138000003 cyc:  207179957 now IPC :1.47657: AVG IPC :0.65957: L2-Pf-HR :-nan: L2-HR :0.73640: (Sim:4h46m10s) 
CPU  2 inst:  136000002 cyc:  207227367 now IPC :1.54574: AVG IPC :0.64972: L2-Pf-HR :-nan: L2-HR :0.73452: (Sim:4h46m14s) 
CPU  3 inst:  136000002 cyc:  207231150 now IPC :1.55938: AVG IPC :0.64971: L2-Pf-HR :-nan: L2-HR :0.73478: (Sim:4h46m14s) 
CPU  0 inst:  135000005 cyc:  207611752 now IPC :1.20127: AVG IPC :0.64367: L2-Pf-HR :-nan: L2-HR :0.73304: (Sim:4h46m41s) 
CPU  1 inst:  139000003 cyc:  208096743 now IPC :1.09077: AVG IPC :0.66148: L2-Pf-HR :-nan: L2-HR :0.73704: (Sim:4h47m25s) 
CPU  2 inst:  137000002 cyc:  208123716 now IPC :1.11564: AVG IPC :0.65174: L2-Pf-HR :-nan: L2-HR :0.73524: (Sim:4h47m27s) 
CPU  3 inst:  137000002 cyc:  208150949 now IPC :1.08719: AVG IPC :0.65165: L2-Pf-HR :-nan: L2-HR :0.73548: (Sim:4h47m29s) 
CPU  0 inst:  136000002 cyc:  208227011 now IPC :1.62533: AVG IPC :0.64659: L2-Pf-HR :-nan: L2-HR :0.73379: (Sim:4h47m39s) 
CPU  1 inst:  140000001 cyc:  208739820 now IPC :1.55502: AVG IPC :0.66424: L2-Pf-HR :-nan: L2-HR :0.73771: (Sim:4h48m25s) 
CPU  2 inst:  138000003 cyc:  208786282 now IPC :1.50929: AVG IPC :0.65447: L2-Pf-HR :-nan: L2-HR :0.73590: (Sim:4h48m29s) 
CPU  3 inst:  138000003 cyc:  208803947 now IPC :1.53140: AVG IPC :0.65442: L2-Pf-HR :-nan: L2-HR :0.73614: (Sim:4h48m31s) 
CPU  0 inst:  137000002 cyc:  208958945 now IPC :1.36624: AVG IPC :0.64912: L2-Pf-HR :-nan: L2-HR :0.73451: (Sim:4h48m44s) 
CPU  0 inst:  138000003 cyc:  209710956 now IPC :1.32977: AVG IPC :0.65157: L2-Pf-HR :-nan: L2-HR :0.73517: (Sim:4h49m50s) 
CPU  1 inst:  141000001 cyc:  209730527 now IPC :1.00938: AVG IPC :0.66588: L2-Pf-HR :-nan: L2-HR :0.73831: (Sim:4h49m52s) 
CPU  2 inst:  139000003 cyc:  209766519 now IPC :1.02016: AVG IPC :0.65619: L2-Pf-HR :-nan: L2-HR :0.73657: (Sim:4h49m55s) 
CPU  3 inst:  139000003 cyc:  209782931 now IPC :1.02147: AVG IPC :0.65614: L2-Pf-HR :-nan: L2-HR :0.73681: (Sim:4h49m57s) 
CPU  1 inst:  142000003 cyc:  210388978 now IPC :1.51872: AVG IPC :0.66856: L2-Pf-HR :-nan: L2-HR :0.73906: (Sim:4h51m0s) 
CPU  0 inst:  139000003 cyc:  210442285 now IPC :1.36737: AVG IPC :0.65407: L2-Pf-HR :-nan: L2-HR :0.73583: (Sim:4h51m12s) 
CPU  2 inst:  140000001 cyc:  210507361 now IPC :1.34981: AVG IPC :0.65864: L2-Pf-HR :-nan: L2-HR :0.73724: (Sim:4h51m19s) 
CPU  3 inst:  140000001 cyc:  210514004 now IPC :1.36785: AVG IPC :0.65862: L2-Pf-HR :-nan: L2-HR :0.73747: (Sim:4h51m19s) 
CPU  0 inst:  140000001 cyc:  211092821 now IPC :1.53719: AVG IPC :0.65681: L2-Pf-HR :-nan: L2-HR :0.73650: (Sim:4h52m4s) 
CPU  1 inst:  143000001 cyc:  211327063 now IPC :1.06600: AVG IPC :0.67034: L2-Pf-HR :-nan: L2-HR :0.73957: (Sim:4h52m28s) 
CPU  2 inst:  141000001 cyc:  211431469 now IPC :1.08212: AVG IPC :0.66050: L2-Pf-HR :-nan: L2-HR :0.73786: (Sim:4h52m41s) 
CPU  3 inst:  141000001 cyc:  211435894 now IPC :1.08473: AVG IPC :0.66049: L2-Pf-HR :-nan: L2-HR :0.73810: (Sim:4h52m42s) 
CPU  0 inst:  141000001 cyc:  211811067 now IPC :1.39228: AVG IPC :0.65931: L2-Pf-HR :-nan: L2-HR :0.73714: (Sim:4h53m21s) 
CPU  1 inst:  144000005 cyc:  212022276 now IPC :1.43841: AVG IPC :0.67287: L2-Pf-HR :-nan: L2-HR :0.74029: (Sim:4h53m43s) 
CPU  2 inst:  142000003 cyc:  212060347 now IPC :1.59014: AVG IPC :0.66327: L2-Pf-HR :-nan: L2-HR :0.73861: (Sim:4h53m46s) 
CPU  3 inst:  142000002 cyc:  212066842 now IPC :1.58492: AVG IPC :0.66325: L2-Pf-HR :-nan: L2-HR :0.73886: (Sim:4h53m47s) 
CPU  0 inst:  142000003 cyc:  212361939 now IPC :1.81531: AVG IPC :0.66232: L2-Pf-HR :-nan: L2-HR :0.73790: (Sim:4h54m20s) 
CPU  1 inst:  145000003 cyc:  212970231 now IPC :1.05490: AVG IPC :0.67458: L2-Pf-HR :-nan: L2-HR :0.74080: (Sim:4h55m5s) 
CPU  2 inst:  143000001 cyc:  213022991 now IPC :1.03880: AVG IPC :0.66497: L2-Pf-HR :-nan: L2-HR :0.73912: (Sim:4h55m10s) 
CPU  3 inst:  143000001 cyc:  213036262 now IPC :1.03154: AVG IPC :0.66493: L2-Pf-HR :-nan: L2-HR :0.73937: (Sim:4h55m11s) 
CPU  0 inst:  143000001 cyc:  213201638 now IPC :1.19090: AVG IPC :0.66442: L2-Pf-HR :-nan: L2-HR :0.73825: (Sim:4h55m30s) 
CPU  1 inst:  146000005 cyc:  213697347 now IPC :1.37530: AVG IPC :0.67697: L2-Pf-HR :-nan: L2-HR :0.74149: (Sim:4h57m1s) 
CPU  2 inst:  144000005 cyc:  213729655 now IPC :1.41511: AVG IPC :0.66747: L2-Pf-HR :-nan: L2-HR :0.73985: (Sim:4h57m6s) 
CPU  3 inst:  144000005 cyc:  213749326 now IPC :1.40240: AVG IPC :0.66741: L2-Pf-HR :-nan: L2-HR :0.74009: (Sim:4h57m9s) 
CPU  0 inst:  144000005 cyc:  213801080 now IPC :1.66822: AVG IPC :0.66724: L2-Pf-HR :-nan: L2-HR :0.73898: (Sim:4h57m19s) 
CPU  1 inst:  147000003 cyc:  214711283 now IPC :0.98625: AVG IPC :0.67844: L2-Pf-HR :-nan: L2-HR :0.74201: (Sim:4h59m31s) 
CPU  2 inst:  145000003 cyc:  214719150 now IPC :1.01061: AVG IPC :0.66905: L2-Pf-HR :-nan: L2-HR :0.74037: (Sim:4h59m32s) 
CPU  3 inst:  145000003 cyc:  214758100 now IPC :0.99130: AVG IPC :0.66893: L2-Pf-HR :-nan: L2-HR :0.74060: (Sim:4h59m37s) 
CPU  0 inst:  145000003 cyc:  214762190 now IPC :1.04046: AVG IPC :0.66892: L2-Pf-HR :-nan: L2-HR :0.73948: (Sim:4h59m38s) 
CPU  1 inst:  148000003 cyc:  215396688 now IPC :1.45899: AVG IPC :0.68093: L2-Pf-HR :-nan: L2-HR :0.74266: (Sim:5h1m42s) 
Finished CPU 1 instr: 146000005 cyc: 214411717 AVG IPC: 0.68093 (Sim time: 5h1m42s)
CPU  2 inst:  146000005 cyc:  215403375 now IPC :1.46151: AVG IPC :0.67158: L2-Pf-HR :-nan: L2-HR :0.74105: (Sim:5h1m43s) 
CPU  3 inst:  146000005 cyc:  215436971 now IPC :1.47304: AVG IPC :0.67148: L2-Pf-HR :-nan: L2-HR :0.74129: (Sim:5h1m49s) 
CPU  0 inst:  146000005 cyc:  215443683 now IPC :1.46737: AVG IPC :0.67146: L2-Pf-HR :-nan: L2-HR :0.74017: (Sim:5h1m50s) 
CPU  2 inst:  147000003 cyc:  216366832 now IPC :1.03793: AVG IPC :0.67322: L2-Pf-HR :-nan: L2-HR :0.74158: (Sim:5h4m4s) 
CPU  1 inst:  149000004 cyc:  216369542 now IPC :1.02790: AVG IPC :0.68250: L2-Pf-HR :-nan: L2-HR :0.74313: (Sim:5h4m5s) 
CPU  3 inst:  147000003 cyc:  216405570 now IPC :1.03242: AVG IPC :0.67310: L2-Pf-HR :-nan: L2-HR :0.74181: (Sim:5h4m10s) 
CPU  0 inst:  147000003 cyc:  216421834 now IPC :1.02234: AVG IPC :0.67305: L2-Pf-HR :-nan: L2-HR :0.74068: (Sim:5h4m12s) 
CPU  1 inst:  150000000 cyc:  217002987 now IPC :1.57866: AVG IPC :0.68513: L2-Pf-HR :-nan: L2-HR :0.74376: (Sim:5h5m56s) 
CPU  2 inst:  148000003 cyc:  217035978 now IPC :1.49444: AVG IPC :0.67576: L2-Pf-HR :-nan: L2-HR :0.74223: (Sim:5h6m4s) 
Finished CPU 2 instr: 146000003 cyc: 216054457 AVG IPC: 0.67576 (Sim time: 5h6m4s)
CPU  3 inst:  148000003 cyc:  217069940 now IPC :1.50519: AVG IPC :0.67566: L2-Pf-HR :-nan: L2-HR :0.74246: (Sim:5h6m10s) 
Finished CPU 3 instr: 146000000 cyc: 216084636 AVG IPC: 0.67566 (Sim time: 5h6m10s)
CPU  0 inst:  148000003 cyc:  217086474 now IPC :1.50457: AVG IPC :0.67561: L2-Pf-HR :-nan: L2-HR :0.74133: (Sim:5h6m13s) 
Finished CPU 0 instr: 146000000 cyc: 216101500 AVG IPC: 0.67561 (Sim time: 5h6m13s)

ChampSim completed all CPUs

Total Simulation Statistics (not including warmup)

CPU 0 cumulative IPC: 0.67561 instructions: 146000000 cycles: 216101500
Core_0_L1D_total_access 33424802
Core_0_L1D_total_hit 30637963
Core_0_L1D_total_miss 2786839
Core_0_L1D_loads 30298893
Core_0_L1D_load_hit 27669383
Core_0_L1D_load_miss 2629510
Core_0_L1D_RFOs 3125909
Core_0_L1D_RFO_hit 2968580
Core_0_L1D_RFO_miss 157329
Core_0_L1D_prefetches 0
Core_0_L1D_prefetch_hit 0
Core_0_L1D_prefetch_miss 0
Core_0_L1D_writebacks 0
Core_0_L1D_writeback_hit 0
Core_0_L1D_writeback_miss 0

Core_0_L1I_total_access 17625255
Core_0_L1I_total_hit 17620437
Core_0_L1I_total_miss 4818
Core_0_L1I_loads 17625255
Core_0_L1I_load_hit 17620437
Core_0_L1I_load_miss 4818
Core_0_L1I_RFOs 0
Core_0_L1I_RFO_hit 0
Core_0_L1I_RFO_miss 0
Core_0_L1I_prefetches 0
Core_0_L1I_prefetch_hit 0
Core_0_L1I_prefetch_miss 0
Core_0_L1I_writebacks 0
Core_0_L1I_writeback_hit 0
Core_0_L1I_writeback_miss 0

Core_0_L2C_total_access 3542175
Core_0_L2C_total_hit 2625926
Core_0_L2C_total_miss 916249
Core_0_L2C_loads 2634328
Core_0_L2C_load_hit 1852748
Core_0_L2C_load_miss 781580
Core_0_L2C_RFOs 157328
Core_0_L2C_RFO_hit 22688
Core_0_L2C_RFO_miss 134640
Core_0_L2C_prefetches 0
Core_0_L2C_prefetch_hit 0
Core_0_L2C_prefetch_miss 0
Core_0_L2C_writebacks 750519
Core_0_L2C_writeback_hit 750490
Core_0_L2C_writeback_miss 29

Core_0_LLC_total_access 1375114
Core_0_LLC_total_hit 458152
Core_0_LLC_total_miss 916962
Core_0_LLC_loads 781578
Core_0_LLC_load_hit 2968
Core_0_LLC_load_miss 778610
Core_0_LLC_RFOs 134640
Core_0_LLC_RFO_hit 2945
Core_0_LLC_RFO_miss 131695
Core_0_LLC_prefetches 0
Core_0_LLC_prefetch_hit 0
Core_0_LLC_prefetch_miss 0
Core_0_LLC_writebacks 458896
Core_0_LLC_writeback_hit 452239
Core_0_LLC_writeback_miss 6657


CPU 1 cumulative IPC: 0.68526 instructions: 148085958 cycles: 216101500
Core_1_L1D_total_access 33850947
Core_1_L1D_total_hit 31023347
Core_1_L1D_total_miss 2827600
Core_1_L1D_loads 30700547
Core_1_L1D_load_hit 28031088
Core_1_L1D_load_miss 2669459
Core_1_L1D_RFOs 3150400
Core_1_L1D_RFO_hit 2992259
Core_1_L1D_RFO_miss 158141
Core_1_L1D_prefetches 0
Core_1_L1D_prefetch_hit 0
Core_1_L1D_prefetch_miss 0
Core_1_L1D_writebacks 0
Core_1_L1D_writeback_hit 0
Core_1_L1D_writeback_miss 0

Core_1_L1I_total_access 17851473
Core_1_L1I_total_hit 17846657
Core_1_L1I_total_miss 4816
Core_1_L1I_loads 17851473
Core_1_L1I_load_hit 17846657
Core_1_L1I_load_miss 4816
Core_1_L1I_RFOs 0
Core_1_L1I_RFO_hit 0
Core_1_L1I_RFO_miss 0
Core_1_L1I_prefetches 0
Core_1_L1I_prefetch_hit 0
Core_1_L1I_prefetch_miss 0
Core_1_L1I_writebacks 0
Core_1_L1I_writeback_hit 0
Core_1_L1I_writeback_miss 0

Core_1_L2C_total_access 3590980
Core_1_L2C_total_hit 2671015
Core_1_L2C_total_miss 919965
Core_1_L2C_loads 2674274
Core_1_L2C_load_hit 1886918
Core_1_L2C_load_miss 787356
Core_1_L2C_RFOs 158141
Core_1_L2C_RFO_hit 25590
Core_1_L2C_RFO_miss 132551
Core_1_L2C_prefetches 0
Core_1_L2C_prefetch_hit 0
Core_1_L2C_prefetch_miss 0
Core_1_L2C_writebacks 758565
Core_1_L2C_writeback_hit 758507
Core_1_L2C_writeback_miss 58

Core_1_LLC_total_access 1376850
Core_1_LLC_total_hit 448939
Core_1_LLC_total_miss 927911
Core_1_LLC_loads 787355
Core_1_LLC_load_hit 624
Core_1_LLC_load_miss 786731
Core_1_LLC_RFOs 132551
Core_1_LLC_RFO_hit 877
Core_1_LLC_RFO_miss 131674
Core_1_LLC_prefetches 0
Core_1_LLC_prefetch_hit 0
Core_1_LLC_prefetch_miss 0
Core_1_LLC_writebacks 456944
Core_1_LLC_writeback_hit 447438
Core_1_LLC_writeback_miss 9506


CPU 2 cumulative IPC: 0.67591 instructions: 146065426 cycles: 216101500
Core_2_L1D_total_access 33437322
Core_2_L1D_total_hit 30649622
Core_2_L1D_total_miss 2787700
Core_2_L1D_loads 30311515
Core_2_L1D_load_hit 27681177
Core_2_L1D_load_miss 2630338
Core_2_L1D_RFOs 3125807
Core_2_L1D_RFO_hit 2968445
Core_2_L1D_RFO_miss 157362
Core_2_L1D_prefetches 0
Core_2_L1D_prefetch_hit 0
Core_2_L1D_prefetch_miss 0
Core_2_L1D_writebacks 0
Core_2_L1D_writeback_hit 0
Core_2_L1D_writeback_miss 0

Core_2_L1I_total_access 17629105
Core_2_L1I_total_hit 17624289
Core_2_L1I_total_miss 4816
Core_2_L1I_loads 17629105
Core_2_L1I_load_hit 17624289
Core_2_L1I_load_miss 4816
Core_2_L1I_RFOs 0
Core_2_L1I_RFO_hit 0
Core_2_L1I_RFO_miss 0
Core_2_L1I_prefetches 0
Core_2_L1I_prefetch_hit 0
Core_2_L1I_prefetch_miss 0
Core_2_L1I_writebacks 0
Core_2_L1I_writeback_hit 0
Core_2_L1I_writeback_miss 0

Core_2_L2C_total_access 3543152
Core_2_L2C_total_hit 2630038
Core_2_L2C_total_miss 913114
Core_2_L2C_loads 2635155
Core_2_L2C_load_hit 1854658
Core_2_L2C_load_miss 780497
Core_2_L2C_RFOs 157360
Core_2_L2C_RFO_hit 24835
Core_2_L2C_RFO_miss 132525
Core_2_L2C_prefetches 0
Core_2_L2C_prefetch_hit 0
Core_2_L2C_prefetch_miss 0
Core_2_L2C_writebacks 750637
Core_2_L2C_writeback_hit 750545
Core_2_L2C_writeback_miss 92

Core_2_LLC_total_access 1368654
Core_2_LLC_total_hit 450612
Core_2_LLC_total_miss 918042
Core_2_LLC_loads 780496
Core_2_LLC_load_hit 1848
Core_2_LLC_load_miss 778648
Core_2_LLC_RFOs 132525
Core_2_LLC_RFO_hit 854
Core_2_LLC_RFO_miss 131671
Core_2_LLC_prefetches 0
Core_2_LLC_prefetch_hit 0
Core_2_LLC_prefetch_miss 0
Core_2_LLC_writebacks 455633
Core_2_LLC_writeback_hit 447910
Core_2_LLC_writeback_miss 7723


CPU 3 cumulative IPC: 0.67576 instructions: 146033612 cycles: 216101500
Core_3_L1D_total_access 33430963
Core_3_L1D_total_hit 30643649
Core_3_L1D_total_miss 2787314
Core_3_L1D_loads 30305493
Core_3_L1D_load_hit 27675544
Core_3_L1D_load_miss 2629949
Core_3_L1D_RFOs 3125470
Core_3_L1D_RFO_hit 2968105
Core_3_L1D_RFO_miss 157365
Core_3_L1D_prefetches 0
Core_3_L1D_prefetch_hit 0
Core_3_L1D_prefetch_miss 0
Core_3_L1D_writebacks 0
Core_3_L1D_writeback_hit 0
Core_3_L1D_writeback_miss 0

Core_3_L1I_total_access 17626885
Core_3_L1I_total_hit 17622066
Core_3_L1I_total_miss 4819
Core_3_L1I_loads 17626885
Core_3_L1I_load_hit 17622066
Core_3_L1I_load_miss 4819
Core_3_L1I_RFOs 0
Core_3_L1I_RFO_hit 0
Core_3_L1I_RFO_miss 0
Core_3_L1I_prefetches 0
Core_3_L1I_prefetch_hit 0
Core_3_L1I_prefetch_miss 0
Core_3_L1I_writebacks 0
Core_3_L1I_writeback_hit 0
Core_3_L1I_writeback_miss 0

Core_3_L2C_total_access 3542741
Core_3_L2C_total_hit 2630452
Core_3_L2C_total_miss 912289
Core_3_L2C_loads 2634768
Core_3_L2C_load_hit 1855049
Core_3_L2C_load_miss 779719
Core_3_L2C_RFOs 157365
Core_3_L2C_RFO_hit 24900
Core_3_L2C_RFO_miss 132465
Core_3_L2C_prefetches 0
Core_3_L2C_prefetch_hit 0
Core_3_L2C_prefetch_miss 0
Core_3_L2C_writebacks 750608
Core_3_L2C_writeback_hit 750503
Core_3_L2C_writeback_miss 105

Core_3_LLC_total_access 1368125
Core_3_LLC_total_hit 451754
Core_3_LLC_total_miss 916371
Core_3_LLC_loads 779719
Core_3_LLC_load_hit 1128
Core_3_LLC_load_miss 778591
Core_3_LLC_RFOs 132465
Core_3_LLC_RFO_hit 793
Core_3_LLC_RFO_miss 131672
Core_3_LLC_prefetches 0
Core_3_LLC_prefetch_hit 0
Core_3_LLC_prefetch_miss 0
Core_3_LLC_writebacks 455941
Core_3_LLC_writeback_hit 449833
Core_3_LLC_writeback_miss 6108


[ROI Statistics]
Core_0_instructions 146000000
Core_0_cycles 216101500
Core_0_IPC 0.67561

Core_0_branch_prediction_accuracy 97.68931
Core_0_branch_MPKI 0.56912
Core_0_average_ROB_occupancy_at_mispredict 508.62547

Core_0_L1D_total_access 33424802
Core_0_L1D_total_hit 30637963 L1D_total_Hit Ratio: 0.91662
Core_0_L1D_total_miss 2786839
Core_0_L1D_loads 30298893
Core_0_L1D_load_hit 27669383 L1D_load_Hit Ratio: 0.91321
Core_0_L1D_load_miss 2629510
Core_0_L1D_RFOs 3125909
Core_0_L1D_RFO_hit 2968580 L1D_RFO_Hit Ratio: 0.94967
Core_0_L1D_RFO_miss 157329
Core_0_L1D_prefetches 0
Core_0_L1D_prefetch_hit 0 L1D_prefetch_Hit Ratio: -nan
Core_0_L1D_prefetch_miss 0
Core_0_L1D_writebacks 0
Core_0_L1D_writeback_hit 0 L1D_writeback_Hit Ratio: -nan
Core_0_L1D_writeback_miss 0
Core_0_L1D_prefetch_requested 0
Core_0_L1D_prefetch_issued 0
Core_0_L1D_prefetch_useful 0 L1D_Useful Ratio: -nan
Core_0_L1D_prefetch_useless 0
Core_0_L1D_prefetch_late 0
Core_0_L1D_average_miss_latency 269.66192

Core_0_L1I_total_access 17625255
Core_0_L1I_total_hit 17620437 L1I_total_Hit Ratio: 0.99973
Core_0_L1I_total_miss 4818
Core_0_L1I_loads 17625255
Core_0_L1I_load_hit 17620437 L1I_load_Hit Ratio: 0.99973
Core_0_L1I_load_miss 4818
Core_0_L1I_RFOs 0
Core_0_L1I_RFO_hit 0 L1I_RFO_Hit Ratio: -nan
Core_0_L1I_RFO_miss 0
Core_0_L1I_prefetches 0
Core_0_L1I_prefetch_hit 0 L1I_prefetch_Hit Ratio: -nan
Core_0_L1I_prefetch_miss 0
Core_0_L1I_writebacks 0
Core_0_L1I_writeback_hit 0 L1I_writeback_Hit Ratio: -nan
Core_0_L1I_writeback_miss 0
Core_0_L1I_prefetch_requested 0
Core_0_L1I_prefetch_issued 0
Core_0_L1I_prefetch_useful 0 L1I_Useful Ratio: -nan
Core_0_L1I_prefetch_useless 0
Core_0_L1I_prefetch_late 0
Core_0_L1I_average_miss_latency 846.35388

Core_0_L2C_total_access 3542175
Core_0_L2C_total_hit 2625926 L2C_total_Hit Ratio: 0.74133
Core_0_L2C_total_miss 916249
Core_0_L2C_loads 2634328
Core_0_L2C_load_hit 1852748 L2C_load_Hit Ratio: 0.70331
Core_0_L2C_load_miss 781580
Core_0_L2C_RFOs 157328
Core_0_L2C_RFO_hit 22688 L2C_RFO_Hit Ratio: 0.14421
Core_0_L2C_RFO_miss 134640
Core_0_L2C_prefetches 0
Core_0_L2C_prefetch_hit 0 L2C_prefetch_Hit Ratio: -nan
Core_0_L2C_prefetch_miss 0
Core_0_L2C_writebacks 750519
Core_0_L2C_writeback_hit 750490 L2C_writeback_Hit Ratio: 0.99996
Core_0_L2C_writeback_miss 29
Core_0_L2C_prefetch_requested 0
Core_0_L2C_prefetch_issued 0
Core_0_L2C_prefetch_useful 0 L2C_Useful Ratio: -nan
Core_0_L2C_prefetch_useless 0
Core_0_L2C_prefetch_late 0
Core_0_L2C_average_miss_latency 777.71809

Core_0_LLC_total_access 1375114
Core_0_LLC_total_hit 458152 LLC_total_Hit Ratio: 0.33317
Core_0_LLC_total_miss 916962
Core_0_LLC_loads 781578
Core_0_LLC_load_hit 2968 LLC_load_Hit Ratio: 0.00380
Core_0_LLC_load_miss 778610
Core_0_LLC_RFOs 134640
Core_0_LLC_RFO_hit 2945 LLC_RFO_Hit Ratio: 0.02187
Core_0_LLC_RFO_miss 131695
Core_0_LLC_prefetches 0
Core_0_LLC_prefetch_hit 0 LLC_prefetch_Hit Ratio: -nan
Core_0_LLC_prefetch_miss 0
Core_0_LLC_writebacks 458896
Core_0_LLC_writeback_hit 452239 LLC_writeback_Hit Ratio: 0.98549
Core_0_LLC_writeback_miss 6657
Core_0_LLC_prefetch_requested 0
Core_0_LLC_prefetch_issued 0
Core_0_LLC_prefetch_useful 0 LLC_Useful Ratio: -nan
Core_0_LLC_prefetch_useless 0
Core_0_LLC_prefetch_late 0
Core_0_LLC_average_miss_latency 2883.90669

Core_0_major_page_fault 0
Core_0_minor_page_fault 9156

Core_1_instructions 146000005
Core_1_cycles 214411717
Core_1_IPC 0.68093

Core_1_branch_prediction_accuracy 97.68743
Core_1_branch_MPKI 0.56636
Core_1_average_ROB_occupancy_at_mispredict 509.70502

Core_1_L1D_total_access 33424254
Core_1_L1D_total_hit 30637380 L1D_total_Hit Ratio: 0.91662
Core_1_L1D_total_miss 2786874
Core_1_L1D_loads 30298182
Core_1_L1D_load_hit 27668651 L1D_load_Hit Ratio: 0.91321
Core_1_L1D_load_miss 2629531
Core_1_L1D_RFOs 3126072
Core_1_L1D_RFO_hit 2968729 L1D_RFO_Hit Ratio: 0.94967
Core_1_L1D_RFO_miss 157343
Core_1_L1D_prefetches 0
Core_1_L1D_prefetch_hit 0 L1D_prefetch_Hit Ratio: -nan
Core_1_L1D_prefetch_miss 0
Core_1_L1D_writebacks 0
Core_1_L1D_writeback_hit 0 L1D_writeback_Hit Ratio: -nan
Core_1_L1D_writeback_miss 0
Core_1_L1D_prefetch_requested 0
Core_1_L1D_prefetch_issued 0
Core_1_L1D_prefetch_useful 0 L1D_Useful Ratio: -nan
Core_1_L1D_prefetch_useless 0
Core_1_L1D_prefetch_late 0
Core_1_L1D_average_miss_latency 260.65137

Core_1_L1I_total_access 17628817
Core_1_L1I_total_hit 17624001 L1I_total_Hit Ratio: 0.99973
Core_1_L1I_total_miss 4816
Core_1_L1I_loads 17628817
Core_1_L1I_load_hit 17624001 L1I_load_Hit Ratio: 0.99973
Core_1_L1I_load_miss 4816
Core_1_L1I_RFOs 0
Core_1_L1I_RFO_hit 0 L1I_RFO_Hit Ratio: -nan
Core_1_L1I_RFO_miss 0
Core_1_L1I_prefetches 0
Core_1_L1I_prefetch_hit 0 L1I_prefetch_Hit Ratio: -nan
Core_1_L1I_prefetch_miss 0
Core_1_L1I_writebacks 0
Core_1_L1I_writeback_hit 0 L1I_writeback_Hit Ratio: -nan
Core_1_L1I_writeback_miss 0
Core_1_L1I_prefetch_requested 0
Core_1_L1I_prefetch_issued 0
Core_1_L1I_prefetch_useful 0 L1I_Useful Ratio: -nan
Core_1_L1I_prefetch_useless 0
Core_1_L1I_prefetch_late 0
Core_1_L1I_average_miss_latency 793.29610

Core_1_L2C_total_access 3542251
Core_1_L2C_total_hit 2630690 L2C_total_Hit Ratio: 0.74266
Core_1_L2C_total_miss 911561
Core_1_L2C_loads 2634346
Core_1_L2C_load_hit 1855266 L2C_load_Hit Ratio: 0.70426
Core_1_L2C_load_miss 779080
Core_1_L2C_RFOs 157343
Core_1_L2C_RFO_hit 24920 L2C_RFO_Hit Ratio: 0.15838
Core_1_L2C_RFO_miss 132423
Core_1_L2C_prefetches 0
Core_1_L2C_prefetch_hit 0 L2C_prefetch_Hit Ratio: -nan
Core_1_L2C_prefetch_miss 0
Core_1_L2C_writebacks 750562
Core_1_L2C_writeback_hit 750504 L2C_writeback_Hit Ratio: 0.99992
Core_1_L2C_writeback_miss 58
Core_1_L2C_prefetch_requested 0
Core_1_L2C_prefetch_issued 0
Core_1_L2C_prefetch_useful 0 L2C_Useful Ratio: -nan
Core_1_L2C_prefetch_useless 0
Core_1_L2C_prefetch_late 0
Core_1_L2C_average_miss_latency 753.19659

Core_1_LLC_total_access 1366971
Core_1_LLC_total_hit 447400 LLC_total_Hit Ratio: 0.32729
Core_1_LLC_total_miss 919571
Core_1_LLC_loads 779079
Core_1_LLC_load_hit 528 LLC_load_Hit Ratio: 0.00068
Core_1_LLC_load_miss 778551
Core_1_LLC_RFOs 132423
Core_1_LLC_RFO_hit 749 LLC_RFO_Hit Ratio: 0.00566
Core_1_LLC_RFO_miss 131674
Core_1_LLC_prefetches 0
Core_1_LLC_prefetch_hit 0 LLC_prefetch_Hit Ratio: -nan
Core_1_LLC_prefetch_miss 0
Core_1_LLC_writebacks 455469
Core_1_LLC_writeback_hit 446123 LLC_writeback_Hit Ratio: 0.97948
Core_1_LLC_writeback_miss 9346
Core_1_LLC_prefetch_requested 0
Core_1_LLC_prefetch_issued 0
Core_1_LLC_prefetch_useful 0 LLC_Useful Ratio: -nan
Core_1_LLC_prefetch_useless 0
Core_1_LLC_prefetch_late 0
Core_1_LLC_average_miss_latency 2875.72450

Core_1_major_page_fault 0
Core_1_minor_page_fault 9220

Core_2_instructions 146000003
Core_2_cycles 216054457
Core_2_IPC 0.67576

Core_2_branch_prediction_accuracy 97.68918
Core_2_branch_MPKI 0.56902
Core_2_average_ROB_occupancy_at_mispredict 508.71188

Core_2_L1D_total_access 33424226
Core_2_L1D_total_hit 30637397 L1D_total_Hit Ratio: 0.91662
Core_2_L1D_total_miss 2786829
Core_2_L1D_loads 30298563
Core_2_L1D_load_hit 27669096 L1D_load_Hit Ratio: 0.91321
Core_2_L1D_load_miss 2629467
Core_2_L1D_RFOs 3125663
Core_2_L1D_RFO_hit 2968301 L1D_RFO_Hit Ratio: 0.94965
Core_2_L1D_RFO_miss 157362
Core_2_L1D_prefetches 0
Core_2_L1D_prefetch_hit 0 L1D_prefetch_Hit Ratio: -nan
Core_2_L1D_prefetch_miss 0
Core_2_L1D_writebacks 0
Core_2_L1D_writeback_hit 0 L1D_writeback_Hit Ratio: -nan
Core_2_L1D_writeback_miss 0
Core_2_L1D_prefetch_requested 0
Core_2_L1D_prefetch_issued 0
Core_2_L1D_prefetch_useful 0 L1D_Useful Ratio: -nan
Core_2_L1D_prefetch_useless 0
Core_2_L1D_prefetch_late 0
Core_2_L1D_average_miss_latency 270.46243

Core_2_L1I_total_access 17622280
Core_2_L1I_total_hit 17617464 L1I_total_Hit Ratio: 0.99973
Core_2_L1I_total_miss 4816
Core_2_L1I_loads 17622280
Core_2_L1I_load_hit 17617464 L1I_load_Hit Ratio: 0.99973
Core_2_L1I_load_miss 4816
Core_2_L1I_RFOs 0
Core_2_L1I_RFO_hit 0 L1I_RFO_Hit Ratio: -nan
Core_2_L1I_RFO_miss 0
Core_2_L1I_prefetches 0
Core_2_L1I_prefetch_hit 0 L1I_prefetch_Hit Ratio: -nan
Core_2_L1I_prefetch_miss 0
Core_2_L1I_writebacks 0
Core_2_L1I_writeback_hit 0 L1I_writeback_Hit Ratio: -nan
Core_2_L1I_writeback_miss 0
Core_2_L1I_prefetch_requested 0
Core_2_L1I_prefetch_issued 0
Core_2_L1I_prefetch_useful 0 L1I_Useful Ratio: -nan
Core_2_L1I_prefetch_useless 0
Core_2_L1I_prefetch_late 0
Core_2_L1I_average_miss_latency 828.05440

Core_2_L2C_total_access 3542190
Core_2_L2C_total_hit 2629120 L2C_total_Hit Ratio: 0.74223
Core_2_L2C_total_miss 913070
Core_2_L2C_loads 2634283
Core_2_L2C_load_hit 1853830 L2C_load_Hit Ratio: 0.70373
Core_2_L2C_load_miss 780453
Core_2_L2C_RFOs 157360
Core_2_L2C_RFO_hit 24835 L2C_RFO_Hit Ratio: 0.15782
Core_2_L2C_RFO_miss 132525
Core_2_L2C_prefetches 0
Core_2_L2C_prefetch_hit 0 L2C_prefetch_Hit Ratio: -nan
Core_2_L2C_prefetch_miss 0
Core_2_L2C_writebacks 750547
Core_2_L2C_writeback_hit 750455 L2C_writeback_Hit Ratio: 0.99988
Core_2_L2C_writeback_miss 92
Core_2_L2C_prefetch_requested 0
Core_2_L2C_prefetch_issued 0
Core_2_L2C_prefetch_useful 0 L2C_Useful Ratio: -nan
Core_2_L2C_prefetch_useless 0
Core_2_L2C_prefetch_late 0
Core_2_L2C_average_miss_latency 782.75403

Core_2_LLC_total_access 1368599
Core_2_LLC_total_hit 450601 LLC_total_Hit Ratio: 0.32924
Core_2_LLC_total_miss 917998
Core_2_LLC_loads 780452
Core_2_LLC_load_hit 1848 LLC_load_Hit Ratio: 0.00237
Core_2_LLC_load_miss 778604
Core_2_LLC_RFOs 132525
Core_2_LLC_RFO_hit 854 LLC_RFO_Hit Ratio: 0.00644
Core_2_LLC_RFO_miss 131671
Core_2_LLC_prefetches 0
Core_2_LLC_prefetch_hit 0 LLC_prefetch_Hit Ratio: -nan
Core_2_LLC_prefetch_miss 0
Core_2_LLC_writebacks 455622
Core_2_LLC_writeback_hit 447899 LLC_writeback_Hit Ratio: 0.98305
Core_2_LLC_writeback_miss 7723
Core_2_LLC_prefetch_requested 0
Core_2_LLC_prefetch_issued 0
Core_2_LLC_prefetch_useful 0 LLC_Useful Ratio: -nan
Core_2_LLC_prefetch_useless 0
Core_2_LLC_prefetch_late 0
Core_2_LLC_average_miss_latency 2880.65208

Core_2_major_page_fault 0
Core_2_minor_page_fault 9156

Core_3_instructions 146000000
Core_3_cycles 216084636
Core_3_IPC 0.67566

Core_3_branch_prediction_accuracy 97.68924
Core_3_branch_MPKI 0.56907
Core_3_average_ROB_occupancy_at_mispredict 508.64419

Core_3_L1D_total_access 33424242
Core_3_L1D_total_hit 30637376 L1D_total_Hit Ratio: 0.91662
Core_3_L1D_total_miss 2786866
Core_3_L1D_loads 30298844
Core_3_L1D_load_hit 27669343 L1D_load_Hit Ratio: 0.91321
Core_3_L1D_load_miss 2629501
Core_3_L1D_RFOs 3125398
Core_3_L1D_RFO_hit 2968033 L1D_RFO_Hit Ratio: 0.94965
Core_3_L1D_RFO_miss 157365
Core_3_L1D_prefetches 0
Core_3_L1D_prefetch_hit 0 L1D_prefetch_Hit Ratio: -nan
Core_3_L1D_prefetch_miss 0
Core_3_L1D_writebacks 0
Core_3_L1D_writeback_hit 0 L1D_writeback_Hit Ratio: -nan
Core_3_L1D_writeback_miss 0
Core_3_L1D_prefetch_requested 0
Core_3_L1D_prefetch_issued 0
Core_3_L1D_prefetch_useful 0 L1D_Useful Ratio: -nan
Core_3_L1D_prefetch_useless 0
Core_3_L1D_prefetch_late 0
Core_3_L1D_average_miss_latency 270.36046

Core_3_L1I_total_access 17623376
Core_3_L1I_total_hit 17618557 L1I_total_Hit Ratio: 0.99973
Core_3_L1I_total_miss 4819
Core_3_L1I_loads 17623376
Core_3_L1I_load_hit 17618557 L1I_load_Hit Ratio: 0.99973
Core_3_L1I_load_miss 4819
Core_3_L1I_RFOs 0
Core_3_L1I_RFO_hit 0 L1I_RFO_Hit Ratio: -nan
Core_3_L1I_RFO_miss 0
Core_3_L1I_prefetches 0
Core_3_L1I_prefetch_hit 0 L1I_prefetch_Hit Ratio: -nan
Core_3_L1I_prefetch_miss 0
Core_3_L1I_writebacks 0
Core_3_L1I_writeback_hit 0 L1I_writeback_Hit Ratio: -nan
Core_3_L1I_writeback_miss 0
Core_3_L1I_prefetch_requested 0
Core_3_L1I_prefetch_issued 0
Core_3_L1I_prefetch_useful 0 L1I_Useful Ratio: -nan
Core_3_L1I_prefetch_useless 0
Core_3_L1I_prefetch_late 0
Core_3_L1I_average_miss_latency 831.15563

Core_3_L2C_total_access 3542248
Core_3_L2C_total_hit 2629983 L2C_total_Hit Ratio: 0.74246
Core_3_L2C_total_miss 912265
Core_3_L2C_loads 2634320
Core_3_L2C_load_hit 1854625 L2C_load_Hit Ratio: 0.70402
Core_3_L2C_load_miss 779695
Core_3_L2C_RFOs 157365
Core_3_L2C_RFO_hit 24900 L2C_RFO_Hit Ratio: 0.15823
Core_3_L2C_RFO_miss 132465
Core_3_L2C_prefetches 0
Core_3_L2C_prefetch_hit 0 L2C_prefetch_Hit Ratio: -nan
Core_3_L2C_prefetch_miss 0
Core_3_L2C_writebacks 750563
Core_3_L2C_writeback_hit 750458 L2C_writeback_Hit Ratio: 0.99986
Core_3_L2C_writeback_miss 105
Core_3_L2C_prefetch_requested 0
Core_3_L2C_prefetch_issued 0
Core_3_L2C_prefetch_useful 0 L2C_Useful Ratio: -nan
Core_3_L2C_prefetch_useless 0
Core_3_L2C_prefetch_late 0
Core_3_L2C_average_miss_latency 783.16945

Core_3_LLC_total_access 1368101
Core_3_LLC_total_hit 451754 LLC_total_Hit Ratio: 0.33021
Core_3_LLC_total_miss 916347
Core_3_LLC_loads 779695
Core_3_LLC_load_hit 1128 LLC_load_Hit Ratio: 0.00145
Core_3_LLC_load_miss 778567
Core_3_LLC_RFOs 132465
Core_3_LLC_RFO_hit 793 LLC_RFO_Hit Ratio: 0.00599
Core_3_LLC_RFO_miss 131672
Core_3_LLC_prefetches 0
Core_3_LLC_prefetch_hit 0 LLC_prefetch_Hit Ratio: -nan
Core_3_LLC_prefetch_miss 0
Core_3_LLC_writebacks 455941
Core_3_LLC_writeback_hit 449833 LLC_writeback_Hit Ratio: 0.98660
Core_3_LLC_writeback_miss 6108
Core_3_LLC_prefetch_requested 0
Core_3_LLC_prefetch_issued 0
Core_3_LLC_prefetch_useful 0 LLC_Useful Ratio: -nan
Core_3_LLC_prefetch_useless 0
Core_3_LLC_prefetch_late 0
Core_3_LLC_average_miss_latency 2885.84221

Core_3_major_page_fault 0
Core_3_minor_page_fault 9156

Channel_0_RQ_row_buffer_hit 1903963
Channel_0_RQ_row_buffer_miss 1745329
Channel_0_WQ_row_buffer_hit 819575
Channel_0_WQ_row_buffer_miss 972836
Channel_0_WQ_full 295
Channel_0_dbus_congested 2806168

avg_congested_cycle 10

EzSearch AVG IPC :0.67561: L2-Pf-HR :-nan : L2-HR :0.74133 Uful:-nan
EzSearch AVG IPC :0.68093: L2-Pf-HR :-nan : L2-HR :0.74381 Uful:-nan
EzSearch AVG IPC :0.67576: L2-Pf-HR :-nan : L2-HR :0.74229 Uful:-nan
EzSearch AVG IPC :0.67566: L2-Pf-HR :-nan : L2-HR :0.74249 Uful:-nan
     > Finished combination: TraceType=770-tot Sim:146000000 Prefetcher=L2no L1=no
