TRACE: [331000000][Pythia-70M]_[h8][s1024][d64] Warmup: 2000000 NumTraces: 331000000
L1:next_line:L2:029-SecTOP-L2-MultiMarkovDelta_ip_stride_v4-IPStrS256
*************************************************
   ChampSim Multicore Out-of-Order Simulator
   Last compiled: Oct 28 2024 09:41:13
*************************************************

trace_0 770-tot_memTraces_v3/memTraces[331000000][Pythia-70M]_[h8][s1024][d64].champsim.xz
trace_1 770-tot_memTraces_v3/memTraces[331000000][Pythia-70M]_[h8][s1024][d64].champsim.xz
trace_2 770-tot_memTraces_v3/memTraces[331000000][Pythia-70M]_[h8][s1024][d64].champsim.xz
trace_3 770-tot_memTraces_v3/memTraces[331000000][Pythia-70M]_[h8][s1024][d64].champsim.xz
CPU 0 L1D next line prefetcher
MK1: Size: 128 TMAX: 64 TMIN: 32 MKPTHRESH: 40
MK2: Size: 256 TMAX: 32 TMIN: 16 MK2PTHRESH: 30
MK3: Size: 384 TMAX: 16 TMIN: 8 MK3PTHRESH: 25
MK4: Size: 512 TMAX: 8 TMIN: 0 MK4PTHRESH: 20
Stride Size: 256 Prefetch Degree: 15

CPU 0 L2C prefetcher
CPU 1 L1D next line prefetcher
MK1: Size: 128 TMAX: 64 TMIN: 32 MKPTHRESH: 40
MK2: Size: 256 TMAX: 32 TMIN: 16 MK2PTHRESH: 30
MK3: Size: 384 TMAX: 16 TMIN: 8 MK3PTHRESH: 25
MK4: Size: 512 TMAX: 8 TMIN: 0 MK4PTHRESH: 20
Stride Size: 256 Prefetch Degree: 15

CPU 1 L2C prefetcher
CPU 2 L1D next line prefetcher
MK1: Size: 128 TMAX: 64 TMIN: 32 MKPTHRESH: 40
MK2: Size: 256 TMAX: 32 TMIN: 16 MK2PTHRESH: 30
MK3: Size: 384 TMAX: 16 TMIN: 8 MK3PTHRESH: 25
MK4: Size: 512 TMAX: 8 TMIN: 0 MK4PTHRESH: 20
Stride Size: 256 Prefetch Degree: 15

CPU 2 L2C prefetcher
CPU 3 L1D next line prefetcher
MK1: Size: 128 TMAX: 64 TMIN: 32 MKPTHRESH: 40
MK2: Size: 256 TMAX: 32 TMIN: 16 MK2PTHRESH: 30
MK3: Size: 384 TMAX: 16 TMIN: 8 MK3PTHRESH: 25
MK4: Size: 512 TMAX: 8 TMIN: 0 MK4PTHRESH: 20
Stride Size: 256 Prefetch Degree: 15

CPU 3 L2C prefetcher
MAIN.cc ln 751 stats print skipped
CPU 0 L2C prefetcher initialized


Cache Size: 1280
number of cache lines: 20480
CPU  3 inst:    1000000 cyc:     502582 now IPC :1.98973: AVG IPC :1.98973: L2-Pf-HR :0.69574: L2-HR :0.69670: (Sim:0h1m48s) 
CPU  1 inst:    1000000 cyc:     502764 now IPC :1.98900: AVG IPC :1.98900: L2-Pf-HR :0.70230: L2-HR :0.70035: (Sim:0h1m48s) 
CPU  0 inst:    1000000 cyc:     502856 now IPC :1.98864: AVG IPC :1.98864: L2-Pf-HR :0.70613: L2-HR :0.70179: (Sim:0h1m48s) 
CPU  2 inst:    1000000 cyc:     503002 now IPC :1.98806: AVG IPC :1.98806: L2-Pf-HR :0.69982: L2-HR :0.69688: (Sim:0h1m48s) 
CPU  3 inst:    2000003 cyc:     986589 now IPC :2.06609: AVG IPC :2.02719: L2-Pf-HR :0.75563: L2-HR :0.75255: (Sim:0h3m43s) 
CPU  1 inst:    2000003 cyc:     986784 now IPC :2.06604: AVG IPC :2.02679: L2-Pf-HR :0.75681: L2-HR :0.75218: (Sim:0h3m43s) 
CPU  0 inst:    2000003 cyc:     986850 now IPC :2.06615: AVG IPC :2.02665: L2-Pf-HR :0.75979: L2-HR :0.75313: (Sim:0h3m43s) 
CPU  2 inst:    2000003 cyc:     986985 now IPC :2.06619: AVG IPC :2.02638: L2-Pf-HR :0.75939: L2-HR :0.75245: (Sim:0h3m43s) 

Warmup complete CPU  0 instructions:    2000283 cycles:     986985 (Simulation time: 0 hr 3 min 43 sec) 
Warmup complete CPU  1 instructions:    2000448 cycles:     986985 (Simulation time: 0 hr 3 min 43 sec) 
Warmup complete CPU  2 instructions:    2000003 cycles:     986985 (Simulation time: 0 hr 3 min 43 sec) 
Warmup complete CPU  3 instructions:    2000913 cycles:     986984 (Simulation time: 0 hr 3 min 43 sec) 

CPU  3 inst:    3000004 cyc:    1500125 now IPC :1.94729: AVG IPC :1.94701: L2-Pf-HR :0.76976: L2-HR :0.77036: (Sim:0h5m16s) 
CPU  2 inst:    3000004 cyc:    1502036 now IPC :1.94156: AVG IPC :1.94156: L2-Pf-HR :0.76368: L2-HR :0.76123: (Sim:0h5m16s) 
CPU  1 inst:    3000004 cyc:    1508147 now IPC :1.91805: AVG IPC :1.91794: L2-Pf-HR :0.76479: L2-HR :0.76499: (Sim:0h5m18s) 
CPU  0 inst:    3000004 cyc:    1509080 now IPC :1.91487: AVG IPC :1.91483: L2-Pf-HR :0.76468: L2-HR :0.76145: (Sim:0h5m18s) 
CPU  3 inst:    4000002 cyc:    2008443 now IPC :1.96727: AVG IPC :1.95709: L2-Pf-HR :0.76951: L2-HR :0.77069: (Sim:0h6m51s) 
CPU  2 inst:    4000002 cyc:    2009324 now IPC :1.97126: AVG IPC :1.95630: L2-Pf-HR :0.76442: L2-HR :0.76241: (Sim:0h6m51s) 
CPU  1 inst:    4000002 cyc:    2011683 now IPC :1.98595: AVG IPC :1.95136: L2-Pf-HR :0.76495: L2-HR :0.76532: (Sim:0h6m51s) 
CPU  0 inst:    4000002 cyc:    2014153 now IPC :1.97991: AVG IPC :1.94683: L2-Pf-HR :0.76684: L2-HR :0.76382: (Sim:0h6m52s) 
CPU  3 inst:    5000000 cyc:    2515302 now IPC :1.97293: AVG IPC :1.96234: L2-Pf-HR :0.76976: L2-HR :0.77075: (Sim:0h8m25s) 
CPU  2 inst:    5000000 cyc:    2519704 now IPC :1.95932: AVG IPC :1.95730: L2-Pf-HR :0.76387: L2-HR :0.76235: (Sim:0h8m25s) 
CPU  1 inst:    5000000 cyc:    2521117 now IPC :1.96296: AVG IPC :1.95521: L2-Pf-HR :0.76324: L2-HR :0.76395: (Sim:0h8m26s) 
CPU  0 inst:    5000000 cyc:    2528484 now IPC :1.94427: AVG IPC :1.94597: L2-Pf-HR :0.76581: L2-HR :0.76329: (Sim:0h8m27s) 
CPU  3 inst:    6000001 cyc:    3010960 now IPC :2.01752: AVG IPC :1.97586: L2-Pf-HR :0.77224: L2-HR :0.77256: (Sim:0h9m58s) 
CPU  2 inst:    6000005 cyc:    3017530 now IPC :2.00874: AVG IPC :1.96992: L2-Pf-HR :0.76469: L2-HR :0.76250: (Sim:0h9m59s) 
CPU  1 inst:    6000005 cyc:    3018311 now IPC :2.01130: AVG IPC :1.96894: L2-Pf-HR :0.76476: L2-HR :0.76462: (Sim:0h9m59s) 
CPU  0 inst:    6000001 cyc:    3024419 now IPC :2.01640: AVG IPC :1.96312: L2-Pf-HR :0.76764: L2-HR :0.76492: (Sim:0h10m1s) 
CPU  2 inst:    7000004 cyc:    4117254 now IPC :0.90932: AVG IPC :1.59731: L2-Pf-HR :0.76600: L2-HR :0.76327: (Sim:0h12m1s) 
CPU  0 inst:    7000004 cyc:    4120437 now IPC :0.91240: AVG IPC :1.59560: L2-Pf-HR :0.76795: L2-HR :0.76521: (Sim:0h12m2s) 
CPU  3 inst:    7000004 cyc:    4120562 now IPC :0.90123: AVG IPC :1.59533: L2-Pf-HR :0.77206: L2-HR :0.77208: (Sim:0h12m2s) 
CPU  1 inst:    7000004 cyc:    4136407 now IPC :0.89438: AVG IPC :1.58745: L2-Pf-HR :0.76517: L2-HR :0.76557: (Sim:0h12m5s) 
CPU  1 inst:    8000000 cyc:    4734370 now IPC :1.67234: AVG IPC :1.60100: L2-Pf-HR :0.77114: L2-HR :0.77116: (Sim:0h13m41s) 
CPU  3 inst:    8000000 cyc:    4738164 now IPC :1.61916: AVG IPC :1.59925: L2-Pf-HR :0.77617: L2-HR :0.77539: (Sim:0h13m41s) 
CPU  0 inst:    8000000 cyc:    4739857 now IPC :1.61441: AVG IPC :1.59870: L2-Pf-HR :0.77223: L2-HR :0.76895: (Sim:0h13m42s) 
CPU  2 inst:    8000000 cyc:    4748633 now IPC :1.58383: AVG IPC :1.59504: L2-Pf-HR :0.77128: L2-HR :0.76715: (Sim:0h13m43s) 
CPU  2 inst:    9000001 cyc:    5362252 now IPC :1.62968: AVG IPC :1.59990: L2-Pf-HR :0.77694: L2-HR :0.77122: (Sim:0h15m21s) 
CPU  1 inst:    9000001 cyc:    5362884 now IPC :1.59106: AVG IPC :1.59957: L2-Pf-HR :0.77657: L2-HR :0.77608: (Sim:0h15m22s) 
CPU  3 inst:    9000001 cyc:    5364905 now IPC :1.59556: AVG IPC :1.59872: L2-Pf-HR :0.78079: L2-HR :0.77885: (Sim:0h15m22s) 
CPU  0 inst:    9000001 cyc:    5375100 now IPC :1.57420: AVG IPC :1.59515: L2-Pf-HR :0.77652: L2-HR :0.77269: (Sim:0h15m23s) 
CPU  1 inst:   10000001 cyc:    5978188 now IPC :1.62521: AVG IPC :1.60273: L2-Pf-HR :0.78122: L2-HR :0.78025: (Sim:0h17m4s) 
CPU  2 inst:   10000001 cyc:    5978747 now IPC :1.62207: AVG IPC :1.60264: L2-Pf-HR :0.78147: L2-HR :0.77452: (Sim:0h17m4s) 
CPU  0 inst:   10000001 cyc:    5980569 now IPC :1.65161: AVG IPC :1.60200: L2-Pf-HR :0.78009: L2-HR :0.77578: (Sim:0h17m4s) 
CPU  3 inst:   10000001 cyc:    5984259 now IPC :1.61459: AVG IPC :1.60069: L2-Pf-HR :0.78494: L2-HR :0.78185: (Sim:0h17m5s) 
CPU  1 inst:   11000002 cyc:    6576226 now IPC :1.67214: AVG IPC :1.61016: L2-Pf-HR :0.78413: L2-HR :0.78297: (Sim:0h18m42s) 
CPU  3 inst:   11000002 cyc:    6578128 now IPC :1.68387: AVG IPC :1.60953: L2-Pf-HR :0.78720: L2-HR :0.78340: (Sim:0h18m42s) 
CPU  2 inst:   11000002 cyc:    6583486 now IPC :1.65361: AVG IPC :1.60815: L2-Pf-HR :0.78413: L2-HR :0.77632: (Sim:0h18m43s) 
CPU  0 inst:   11000002 cyc:    6591521 now IPC :1.63679: AVG IPC :1.60579: L2-Pf-HR :0.78218: L2-HR :0.77755: (Sim:0h18m44s) 
CPU  3 inst:   12000005 cyc:    7087219 now IPC :1.96429: AVG IPC :1.63913: L2-Pf-HR :0.79249: L2-HR :0.78738: (Sim:0h20m14s) 
CPU  1 inst:   12000005 cyc:    7088746 now IPC :1.95115: AVG IPC :1.63880: L2-Pf-HR :0.79031: L2-HR :0.78793: (Sim:0h20m15s) 
CPU  2 inst:   12000005 cyc:    7092448 now IPC :1.96479: AVG IPC :1.63788: L2-Pf-HR :0.78966: L2-HR :0.78026: (Sim:0h20m15s) 
CPU  0 inst:   12000005 cyc:    7108185 now IPC :1.93550: AVG IPC :1.63362: L2-Pf-HR :0.78708: L2-HR :0.78126: (Sim:0h20m18s) 
CPU  3 inst:   13000005 cyc:    8472968 now IPC :0.72163: AVG IPC :1.46929: L2-Pf-HR :0.79937: L2-HR :0.79465: (Sim:0h22m30s) 
CPU  1 inst:   13000001 cyc:    8473666 now IPC :0.72206: AVG IPC :1.46922: L2-Pf-HR :0.79787: L2-HR :0.79564: (Sim:0h22m30s) 
CPU  0 inst:   13000001 cyc:    8496395 now IPC :0.72035: AVG IPC :1.46479: L2-Pf-HR :0.79571: L2-HR :0.79059: (Sim:0h22m33s) 
CPU  2 inst:   13000005 cyc:    8502281 now IPC :0.70930: AVG IPC :1.46368: L2-Pf-HR :0.79672: L2-HR :0.78811: (Sim:0h22m34s) 
CPU  1 inst:   14000002 cyc:    9360467 now IPC :1.12765: AVG IPC :1.43304: L2-Pf-HR :0.80569: L2-HR :0.80478: (Sim:0h24m21s) 
CPU  2 inst:   14000004 cyc:    9367113 now IPC :1.15629: AVG IPC :1.43196: L2-Pf-HR :0.80473: L2-HR :0.79784: (Sim:0h24m22s) 
CPU  0 inst:   14000004 cyc:    9368444 now IPC :1.14673: AVG IPC :1.43170: L2-Pf-HR :0.80424: L2-HR :0.80114: (Sim:0h24m22s) 
CPU  3 inst:   14000002 cyc:    9371701 now IPC :1.11267: AVG IPC :1.43107: L2-Pf-HR :0.80724: L2-HR :0.80405: (Sim:0h24m23s) 
CPU  2 inst:   15000005 cyc:   10192226 now IPC :1.21196: AVG IPC :1.41224: L2-Pf-HR :0.81160: L2-HR :0.80623: (Sim:0h26m10s) 
CPU  1 inst:   15000005 cyc:   10200105 now IPC :1.19099: AVG IPC :1.41098: L2-Pf-HR :0.81247: L2-HR :0.81246: (Sim:0h26m11s) 
CPU  0 inst:   15000005 cyc:   10200662 now IPC :1.20161: AVG IPC :1.41092: L2-Pf-HR :0.81190: L2-HR :0.81047: (Sim:0h26m11s) 
CPU  3 inst:   15000005 cyc:   10202906 now IPC :1.20308: AVG IPC :1.41050: L2-Pf-HR :0.81414: L2-HR :0.81215: (Sim:0h26m11s) 
CPU  3 inst:   16000000 cyc:   10918293 now IPC :1.39784: AVG IPC :1.40959: L2-Pf-HR :0.82136: L2-HR :0.82006: (Sim:0h27m52s) 
CPU  2 inst:   16000000 cyc:   10928250 now IPC :1.35864: AVG IPC :1.40827: L2-Pf-HR :0.81815: L2-HR :0.81378: (Sim:0h27m54s) 
CPU  1 inst:   16000000 cyc:   10929372 now IPC :1.37123: AVG IPC :1.40807: L2-Pf-HR :0.81979: L2-HR :0.82029: (Sim:0h27m54s) 
CPU  0 inst:   16000000 cyc:   10944980 now IPC :1.34351: AVG IPC :1.40588: L2-Pf-HR :0.81980: L2-HR :0.81937: (Sim:0h27m57s) 
CPU  3 inst:   17000001 cyc:   12831536 now IPC :0.52267: AVG IPC :1.26633: L2-Pf-HR :0.82134: L2-HR :0.81915: (Sim:0h30m35s) 
CPU  1 inst:   17000001 cyc:   12876046 now IPC :0.51370: AVG IPC :1.26163: L2-Pf-HR :0.82039: L2-HR :0.81982: (Sim:0h30m39s) 
CPU  2 inst:   17000001 cyc:   12908517 now IPC :0.50498: AVG IPC :1.25823: L2-Pf-HR :0.81897: L2-HR :0.81382: (Sim:0h30m42s) 
CPU  0 inst:   17000001 cyc:   12919570 now IPC :0.50643: AVG IPC :1.25704: L2-Pf-HR :0.82091: L2-HR :0.81929: (Sim:0h30m44s) 
CPU  3 inst:   18000000 cyc:   13791991 now IPC :1.04117: AVG IPC :1.24944: L2-Pf-HR :0.82192: L2-HR :0.81862: (Sim:0h32m34s) 
CPU  0 inst:   18000000 cyc:   13814233 now IPC :1.11774: AVG IPC :1.24732: L2-Pf-HR :0.82191: L2-HR :0.81867: (Sim:0h32m37s) 
CPU  1 inst:   18000000 cyc:   13823276 now IPC :1.05571: AVG IPC :1.24643: L2-Pf-HR :0.82152: L2-HR :0.81944: (Sim:0h32m38s) 
CPU  2 inst:   18000000 cyc:   13874791 now IPC :1.03490: AVG IPC :1.24148: L2-Pf-HR :0.81990: L2-HR :0.81368: (Sim:0h32m44s) 
CPU  3 inst:   19000001 cyc:   14803719 now IPC :0.98841: AVG IPC :1.23033: L2-Pf-HR :0.82190: L2-HR :0.81780: (Sim:0h34m35s) 
CPU  1 inst:   19000001 cyc:   14817703 now IPC :1.00561: AVG IPC :1.22912: L2-Pf-HR :0.82160: L2-HR :0.81855: (Sim:0h34m37s) 
CPU  0 inst:   19000001 cyc:   14836497 now IPC :0.97822: AVG IPC :1.22746: L2-Pf-HR :0.82239: L2-HR :0.81794: (Sim:0h34m40s) 
CPU  2 inst:   19000001 cyc:   14842898 now IPC :1.03294: AVG IPC :1.22691: L2-Pf-HR :0.82057: L2-HR :0.81352: (Sim:0h34m41s) 
CPU  0 inst:   20000004 cyc:   15807279 now IPC :1.03010: AVG IPC :1.21453: L2-Pf-HR :0.82310: L2-HR :0.81753: (Sim:0h36m35s) 
CPU  3 inst:   20000004 cyc:   15809246 now IPC :0.99451: AVG IPC :1.21433: L2-Pf-HR :0.82250: L2-HR :0.81761: (Sim:0h36m36s) 
CPU  1 inst:   20000004 cyc:   15809848 now IPC :1.00792: AVG IPC :1.21431: L2-Pf-HR :0.82219: L2-HR :0.81828: (Sim:0h36m36s) 
CPU  2 inst:   20000005 cyc:   15819790 now IPC :1.02366: AVG IPC :1.21353: L2-Pf-HR :0.82177: L2-HR :0.81394: (Sim:0h36m37s) 
CPU  0 inst:   21000003 cyc:   16833209 now IPC :0.97472: AVG IPC :1.19901: L2-Pf-HR :0.82354: L2-HR :0.81687: (Sim:0h38m35s) 
CPU  2 inst:   21000003 cyc:   16834481 now IPC :0.98552: AVG IPC :1.19893: L2-Pf-HR :0.82246: L2-HR :0.81396: (Sim:0h38m35s) 
CPU  1 inst:   21000003 cyc:   16838098 now IPC :0.97253: AVG IPC :1.19863: L2-Pf-HR :0.82257: L2-HR :0.81779: (Sim:0h38m35s) 
CPU  3 inst:   21000003 cyc:   16864551 now IPC :0.94759: AVG IPC :1.19660: L2-Pf-HR :0.82322: L2-HR :0.81747: (Sim:0h38m39s) 
CPU  2 inst:   22000000 cyc:   17656335 now IPC :1.21676: AVG IPC :1.19981: L2-Pf-HR :0.82327: L2-HR :0.81410: (Sim:0h40m24s) 
CPU  0 inst:   22000000 cyc:   17656569 now IPC :1.21453: AVG IPC :1.19977: L2-Pf-HR :0.82442: L2-HR :0.81670: (Sim:0h40m24s) 
CPU  3 inst:   22000000 cyc:   17661207 now IPC :1.25524: AVG IPC :1.19940: L2-Pf-HR :0.82451: L2-HR :0.81788: (Sim:0h40m25s) 
CPU  1 inst:   22000000 cyc:   17662362 now IPC :1.21320: AVG IPC :1.19935: L2-Pf-HR :0.82373: L2-HR :0.81796: (Sim:0h40m25s) 
CPU  1 inst:   23000005 cyc:   19319685 now IPC :0.60339: AVG IPC :1.14547: L2-Pf-HR :0.82383: L2-HR :0.81738: (Sim:0h42m53s) 
CPU  0 inst:   23000005 cyc:   19334181 now IPC :0.59609: AVG IPC :1.14457: L2-Pf-HR :0.82461: L2-HR :0.81614: (Sim:0h42m54s) 
CPU  2 inst:   23000005 cyc:   19336173 now IPC :0.59530: AVG IPC :1.14446: L2-Pf-HR :0.82327: L2-HR :0.81366: (Sim:0h42m54s) 
CPU  3 inst:   23000005 cyc:   19339583 now IPC :0.59582: AVG IPC :1.14420: L2-Pf-HR :0.82439: L2-HR :0.81732: (Sim:0h42m55s) 
CPU  2 inst:   24000005 cyc:   20209296 now IPC :1.14531: AVG IPC :1.14450: L2-Pf-HR :0.82336: L2-HR :0.81360: (Sim:0h44m42s) 
CPU  1 inst:   24000005 cyc:   20226084 now IPC :1.10327: AVG IPC :1.14348: L2-Pf-HR :0.82402: L2-HR :0.81707: (Sim:0h44m44s) 
CPU  0 inst:   24000005 cyc:   20237381 now IPC :1.10717: AVG IPC :1.14282: L2-Pf-HR :0.82485: L2-HR :0.81582: (Sim:0h44m46s) 
CPU  3 inst:   24000005 cyc:   20249675 now IPC :1.09879: AVG IPC :1.14206: L2-Pf-HR :0.82468: L2-HR :0.81733: (Sim:0h44m47s) 
CPU  0 inst:   25000002 cyc:   21084964 now IPC :1.17982: AVG IPC :1.14438: L2-Pf-HR :0.82500: L2-HR :0.81556: (Sim:0h46m32s) 
CPU  2 inst:   25000002 cyc:   21087127 now IPC :1.13917: AVG IPC :1.14427: L2-Pf-HR :0.82323: L2-HR :0.81341: (Sim:0h46m32s) 
CPU  1 inst:   25000002 cyc:   21088932 now IPC :1.15895: AVG IPC :1.14415: L2-Pf-HR :0.82394: L2-HR :0.81661: (Sim:0h46m32s) 
CPU  3 inst:   25000001 cyc:   21102682 now IPC :1.17232: AVG IPC :1.14334: L2-Pf-HR :0.82473: L2-HR :0.81721: (Sim:0h46m34s) 
CPU  3 inst:   26000004 cyc:   21930719 now IPC :1.20768: AVG IPC :1.14588: L2-Pf-HR :0.82513: L2-HR :0.81742: (Sim:0h48m21s) 
CPU  1 inst:   26000004 cyc:   21934993 now IPC :1.18195: AVG IPC :1.14567: L2-Pf-HR :0.82396: L2-HR :0.81624: (Sim:0h48m21s) 
CPU  0 inst:   26000004 cyc:   21938268 now IPC :1.17192: AVG IPC :1.14550: L2-Pf-HR :0.82536: L2-HR :0.81544: (Sim:0h48m22s) 
CPU  2 inst:   26000004 cyc:   21964191 now IPC :1.14017: AVG IPC :1.14410: L2-Pf-HR :0.82333: L2-HR :0.81342: (Sim:0h48m25s) 
CPU  3 inst:   27000005 cyc:   22809465 now IPC :1.13799: AVG IPC :1.14557: L2-Pf-HR :0.82542: L2-HR :0.81754: (Sim:0h50m12s) 
CPU  2 inst:   27000005 cyc:   22815419 now IPC :1.17477: AVG IPC :1.14530: L2-Pf-HR :0.82332: L2-HR :0.81337: (Sim:0h50m12s) 
CPU  1 inst:   27000005 cyc:   22816084 now IPC :1.13496: AVG IPC :1.14524: L2-Pf-HR :0.82397: L2-HR :0.81595: (Sim:0h50m13s) 
CPU  0 inst:   27000005 cyc:   22831993 now IPC :1.11891: AVG IPC :1.14441: L2-Pf-HR :0.82557: L2-HR :0.81529: (Sim:0h50m15s) 
CPU  2 inst:   28000003 cyc:   23444526 now IPC :1.58955: AVG IPC :1.15774: L2-Pf-HR :0.82372: L2-HR :0.81352: (Sim:0h51m50s) 
CPU  3 inst:   28000003 cyc:   23446379 now IPC :1.57007: AVG IPC :1.15760: L2-Pf-HR :0.82584: L2-HR :0.81771: (Sim:0h51m50s) 
CPU  0 inst:   28000003 cyc:   23447609 now IPC :1.62439: AVG IPC :1.15757: L2-Pf-HR :0.82601: L2-HR :0.81517: (Sim:0h51m50s) 
CPU  1 inst:   28000003 cyc:   23448926 now IPC :1.58017: AVG IPC :1.15749: L2-Pf-HR :0.82410: L2-HR :0.81565: (Sim:0h51m51s) 
CPU  3 inst:   29000002 cyc:   24740133 now IPC :0.77294: AVG IPC :1.13665: L2-Pf-HR :0.82743: L2-HR :0.81949: (Sim:0h54m0s) 
CPU  2 inst:   29000002 cyc:   24746977 now IPC :0.76778: AVG IPC :1.13636: L2-Pf-HR :0.82472: L2-HR :0.81446: (Sim:0h54m1s) 
CPU  0 inst:   29000002 cyc:   24758525 now IPC :0.76282: AVG IPC :1.13580: L2-Pf-HR :0.82715: L2-HR :0.81633: (Sim:0h54m2s) 
CPU  1 inst:   29000002 cyc:   24767013 now IPC :0.75867: AVG IPC :1.13539: L2-Pf-HR :0.82521: L2-HR :0.81658: (Sim:0h54m3s) 
CPU  2 inst:   30000003 cyc:   25545667 now IPC :1.25205: AVG IPC :1.14013: L2-Pf-HR :0.82619: L2-HR :0.81617: (Sim:0h55m46s) 
CPU  3 inst:   30000002 cyc:   25557725 now IPC :1.22310: AVG IPC :1.13953: L2-Pf-HR :0.82997: L2-HR :0.82278: (Sim:0h55m47s) 
CPU  1 inst:   30000003 cyc:   25558606 now IPC :1.26328: AVG IPC :1.13951: L2-Pf-HR :0.82684: L2-HR :0.81854: (Sim:0h55m47s) 
CPU  0 inst:   30000002 cyc:   25575034 now IPC :1.22473: AVG IPC :1.13875: L2-Pf-HR :0.82892: L2-HR :0.81863: (Sim:0h55m50s) 
CPU  2 inst:   31000005 cyc:   26462087 now IPC :1.09120: AVG IPC :1.13837: L2-Pf-HR :0.82769: L2-HR :0.81793: (Sim:0h57m38s) 
CPU  0 inst:   31000004 cyc:   26467145 now IPC :1.12094: AVG IPC :1.13813: L2-Pf-HR :0.83042: L2-HR :0.82068: (Sim:0h57m39s) 
CPU  3 inst:   31000000 cyc:   26468468 now IPC :1.09800: AVG IPC :1.13805: L2-Pf-HR :0.83224: L2-HR :0.82577: (Sim:0h57m39s) 
CPU  1 inst:   31000003 cyc:   26469129 now IPC :1.09827: AVG IPC :1.13803: L2-Pf-HR :0.82828: L2-HR :0.82026: (Sim:0h57m39s) 
CPU  3 inst:   32000000 cyc:   27223133 now IPC :1.32509: AVG IPC :1.14343: L2-Pf-HR :0.83471: L2-HR :0.82888: (Sim:0h59m20s) 
CPU  2 inst:   32000001 cyc:   27234989 now IPC :1.29382: AVG IPC :1.14294: L2-Pf-HR :0.82914: L2-HR :0.81964: (Sim:0h59m23s) 
CPU  0 inst:   32000000 cyc:   27238995 now IPC :1.29558: AVG IPC :1.14276: L2-Pf-HR :0.83199: L2-HR :0.82274: (Sim:0h59m23s) 
CPU  1 inst:   32000002 cyc:   27248923 now IPC :1.28239: AVG IPC :1.14232: L2-Pf-HR :0.82985: L2-HR :0.82207: (Sim:0h59m25s) 
CPU  3 inst:   33000005 cyc:   29012077 now IPC :0.55899: AVG IPC :1.10612: L2-Pf-HR :0.83552: L2-HR :0.82942: (Sim:1h1m57s) 
CPU  0 inst:   33000001 cyc:   29013308 now IPC :0.56360: AVG IPC :1.10609: L2-Pf-HR :0.83263: L2-HR :0.82313: (Sim:1h1m57s) 
CPU  2 inst:   33000001 cyc:   29018250 now IPC :0.56077: AVG IPC :1.10591: L2-Pf-HR :0.82967: L2-HR :0.81986: (Sim:1h1m57s) 
CPU  1 inst:   33000005 cyc:   29060646 now IPC :0.55196: AVG IPC :1.10422: L2-Pf-HR :0.83041: L2-HR :0.82216: (Sim:1h2m1s) 
CPU  3 inst:   34000002 cyc:   30047400 now IPC :0.96588: AVG IPC :1.10112: L2-Pf-HR :0.83550: L2-HR :0.82913: (Sim:1h3m55s) 
CPU  0 inst:   34000002 cyc:   30059895 now IPC :0.95549: AVG IPC :1.10067: L2-Pf-HR :0.83273: L2-HR :0.82305: (Sim:1h3m56s) 
CPU  2 inst:   34000002 cyc:   30074275 now IPC :0.94695: AVG IPC :1.10014: L2-Pf-HR :0.82977: L2-HR :0.81968: (Sim:1h3m59s) 
CPU  1 inst:   34000002 cyc:   30077127 now IPC :0.98378: AVG IPC :1.10001: L2-Pf-HR :0.83055: L2-HR :0.82181: (Sim:1h3m59s) 
CPU  3 inst:   35000005 cyc:   31085884 now IPC :0.96295: AVG IPC :1.09636: L2-Pf-HR :0.83561: L2-HR :0.82887: (Sim:1h5m56s) 
CPU  0 inst:   35000005 cyc:   31087121 now IPC :0.97350: AVG IPC :1.09633: L2-Pf-HR :0.83277: L2-HR :0.82289: (Sim:1h5m56s) 
CPU  2 inst:   35000005 cyc:   31090414 now IPC :0.98412: AVG IPC :1.09622: L2-Pf-HR :0.82977: L2-HR :0.81948: (Sim:1h5m56s) 
CPU  1 inst:   35000005 cyc:   31094709 now IPC :0.98272: AVG IPC :1.09605: L2-Pf-HR :0.83059: L2-HR :0.82142: (Sim:1h5m57s) 
CPU  3 inst:   36000004 cyc:   32135184 now IPC :0.95302: AVG IPC :1.09153: L2-Pf-HR :0.83553: L2-HR :0.82849: (Sim:1h7m19s) 
CPU  2 inst:   36000004 cyc:   32145937 now IPC :0.94740: AVG IPC :1.09118: L2-Pf-HR :0.82973: L2-HR :0.81927: (Sim:1h7m20s) 
CPU  0 inst:   36000004 cyc:   32147888 now IPC :0.94271: AVG IPC :1.09110: L2-Pf-HR :0.83271: L2-HR :0.82265: (Sim:1h7m20s) 
CPU  1 inst:   36000004 cyc:   32149132 now IPC :0.94839: AVG IPC :1.09105: L2-Pf-HR :0.83069: L2-HR :0.82114: (Sim:1h7m21s) 
CPU  3 inst:   37000000 cyc:   33206175 now IPC :0.93371: AVG IPC :1.08628: L2-Pf-HR :0.83552: L2-HR :0.82815: (Sim:1h8m25s) 
CPU  1 inst:   37000000 cyc:   33216803 now IPC :0.93661: AVG IPC :1.08594: L2-Pf-HR :0.83058: L2-HR :0.82067: (Sim:1h8m26s) 
CPU  2 inst:   37000000 cyc:   33222911 now IPC :0.92852: AVG IPC :1.08575: L2-Pf-HR :0.82961: L2-HR :0.81897: (Sim:1h8m26s) 
CPU  0 inst:   37000000 cyc:   33228126 now IPC :0.92572: AVG IPC :1.08556: L2-Pf-HR :0.83256: L2-HR :0.82231: (Sim:1h8m27s) 
CPU  2 inst:   38000001 cyc:   34054437 now IPC :1.20261: AVG IPC :1.08868: L2-Pf-HR :0.82981: L2-HR :0.81893: (Sim:1h10m0s) 
CPU  3 inst:   38000001 cyc:   34074845 now IPC :1.15119: AVG IPC :1.08798: L2-Pf-HR :0.83565: L2-HR :0.82797: (Sim:1h10m4s) 
CPU  1 inst:   38000001 cyc:   34080252 now IPC :1.15815: AVG IPC :1.08782: L2-Pf-HR :0.83064: L2-HR :0.82032: (Sim:1h10m5s) 
CPU  0 inst:   38000001 cyc:   34082776 now IPC :1.17007: AVG IPC :1.08774: L2-Pf-HR :0.83265: L2-HR :0.82224: (Sim:1h10m6s) 
CPU  2 inst:   39000003 cyc:   35599450 now IPC :0.64725: AVG IPC :1.06898: L2-Pf-HR :0.82978: L2-HR :0.81867: (Sim:1h12m26s) 
CPU  0 inst:   39000003 cyc:   35646880 now IPC :0.63934: AVG IPC :1.06751: L2-Pf-HR :0.83265: L2-HR :0.82195: (Sim:1h12m32s) 
CPU  1 inst:   39000003 cyc:   35647592 now IPC :0.63802: AVG IPC :1.06748: L2-Pf-HR :0.83053: L2-HR :0.81992: (Sim:1h12m32s) 
CPU  3 inst:   39000003 cyc:   35651622 now IPC :0.63421: AVG IPC :1.06734: L2-Pf-HR :0.83560: L2-HR :0.82759: (Sim:1h12m33s) 
CPU  0 inst:   40000002 cyc:   36530800 now IPC :1.13132: AVG IPC :1.06910: L2-Pf-HR :0.83264: L2-HR :0.82174: (Sim:1h14m22s) 
CPU  2 inst:   40000002 cyc:   36537170 now IPC :1.06642: AVG IPC :1.06891: L2-Pf-HR :0.82966: L2-HR :0.81840: (Sim:1h14m23s) 
CPU  1 inst:   40000002 cyc:   36549300 now IPC :1.10901: AVG IPC :1.06853: L2-Pf-HR :0.83033: L2-HR :0.81972: (Sim:1h14m25s) 
CPU  3 inst:   40000002 cyc:   36551937 now IPC :1.11072: AVG IPC :1.06844: L2-Pf-HR :0.83541: L2-HR :0.82727: (Sim:1h14m25s) 
CPU  2 inst:   41000003 cyc:   37400954 now IPC :1.15770: AVG IPC :1.07102: L2-Pf-HR :0.82964: L2-HR :0.81818: (Sim:1h16m14s) 
CPU  1 inst:   41000003 cyc:   37412227 now IPC :1.15885: AVG IPC :1.07067: L2-Pf-HR :0.83019: L2-HR :0.81954: (Sim:1h16m16s) 
CPU  3 inst:   41000000 cyc:   37416507 now IPC :1.15664: AVG IPC :1.07054: L2-Pf-HR :0.83545: L2-HR :0.82711: (Sim:1h16m17s) 
CPU  0 inst:   41000003 cyc:   37417028 now IPC :1.12838: AVG IPC :1.07054: L2-Pf-HR :0.83268: L2-HR :0.82152: (Sim:1h16m17s) 
CPU  2 inst:   42000004 cyc:   38279025 now IPC :1.13886: AVG IPC :1.07262: L2-Pf-HR :0.82962: L2-HR :0.81801: (Sim:1h18m8s) 
CPU  3 inst:   42000005 cyc:   38279072 now IPC :1.15934: AVG IPC :1.07259: L2-Pf-HR :0.83550: L2-HR :0.82703: (Sim:1h18m8s) 
CPU  0 inst:   42000000 cyc:   38281622 now IPC :1.15661: AVG IPC :1.07253: L2-Pf-HR :0.83272: L2-HR :0.82138: (Sim:1h18m8s) 
CPU  1 inst:   42000005 cyc:   38282190 now IPC :1.14948: AVG IPC :1.07251: L2-Pf-HR :0.83006: L2-HR :0.81941: (Sim:1h18m8s) 
CPU  0 inst:   43000005 cyc:   39138905 now IPC :1.16648: AVG IPC :1.07464: L2-Pf-HR :0.83273: L2-HR :0.82118: (Sim:1h19m59s) 
CPU  2 inst:   43000005 cyc:   39139398 now IPC :1.16229: AVG IPC :1.07464: L2-Pf-HR :0.82960: L2-HR :0.81781: (Sim:1h19m59s) 
CPU  3 inst:   43000000 cyc:   39140862 now IPC :1.16037: AVG IPC :1.07457: L2-Pf-HR :0.83540: L2-HR :0.82682: (Sim:1h20m0s) 
CPU  1 inst:   43000004 cyc:   39141608 now IPC :1.16358: AVG IPC :1.07456: L2-Pf-HR :0.82993: L2-HR :0.81929: (Sim:1h20m0s) 
CPU  2 inst:   44000001 cyc:   39855476 now IPC :1.39649: AVG IPC :1.08057: L2-Pf-HR :0.82976: L2-HR :0.81772: (Sim:1h21m41s) 
CPU  0 inst:   44000001 cyc:   39859431 now IPC :1.38787: AVG IPC :1.08045: L2-Pf-HR :0.83282: L2-HR :0.82109: (Sim:1h21m42s) 
CPU  3 inst:   44000001 cyc:   39866124 now IPC :1.37881: AVG IPC :1.08025: L2-Pf-HR :0.83544: L2-HR :0.82664: (Sim:1h21m43s) 
CPU  1 inst:   44000001 cyc:   39867369 now IPC :1.37786: AVG IPC :1.08022: L2-Pf-HR :0.82996: L2-HR :0.81927: (Sim:1h21m44s) 
CPU  0 inst:   45000005 cyc:   41062532 now IPC :0.83119: AVG IPC :1.07297: L2-Pf-HR :0.83345: L2-HR :0.82166: (Sim:1h23m50s) 
CPU  2 inst:   45000005 cyc:   41065848 now IPC :0.82620: AVG IPC :1.07288: L2-Pf-HR :0.83045: L2-HR :0.81843: (Sim:1h23m51s) 
CPU  3 inst:   45000005 cyc:   41066937 now IPC :0.83277: AVG IPC :1.07283: L2-Pf-HR :0.83605: L2-HR :0.82721: (Sim:1h23m51s) 
CPU  1 inst:   45000005 cyc:   41097309 now IPC :0.81305: AVG IPC :1.07203: L2-Pf-HR :0.83057: L2-HR :0.81973: (Sim:1h23m55s) 
CPU  0 inst:   46000005 cyc:   41904117 now IPC :1.18823: AVG IPC :1.07534: L2-Pf-HR :0.83460: L2-HR :0.82320: (Sim:1h25m24s) 
CPU  1 inst:   46000005 cyc:   41912285 now IPC :1.22703: AVG IPC :1.07512: L2-Pf-HR :0.83130: L2-HR :0.82065: (Sim:1h25m25s) 
CPU  2 inst:   46000005 cyc:   41918683 now IPC :1.17256: AVG IPC :1.07496: L2-Pf-HR :0.83193: L2-HR :0.82049: (Sim:1h25m25s) 
CPU  3 inst:   46000005 cyc:   41921313 now IPC :1.17044: AVG IPC :1.07487: L2-Pf-HR :0.83738: L2-HR :0.82911: (Sim:1h25m26s) 
CPU  2 inst:   47000003 cyc:   42761098 now IPC :1.18706: AVG IPC :1.07722: L2-Pf-HR :0.83331: L2-HR :0.82242: (Sim:1h26m51s) 
CPU  0 inst:   47000003 cyc:   42765515 now IPC :1.16090: AVG IPC :1.07710: L2-Pf-HR :0.83588: L2-HR :0.82488: (Sim:1h26m51s) 
CPU  1 inst:   47000002 cyc:   42768185 now IPC :1.16836: AVG IPC :1.07703: L2-Pf-HR :0.83200: L2-HR :0.82157: (Sim:1h26m52s) 
CPU  3 inst:   47000003 cyc:   42775647 now IPC :1.17050: AVG IPC :1.07683: L2-Pf-HR :0.83882: L2-HR :0.83110: (Sim:1h26m52s) 
CPU  3 inst:   48000002 cyc:   43581683 now IPC :1.24064: AVG IPC :1.07993: L2-Pf-HR :0.84028: L2-HR :0.83307: (Sim:1h28m30s) 
CPU  2 inst:   48000002 cyc:   43585084 now IPC :1.21361: AVG IPC :1.07986: L2-Pf-HR :0.83473: L2-HR :0.82434: (Sim:1h28m31s) 
CPU  0 inst:   48000002 cyc:   43592690 now IPC :1.20893: AVG IPC :1.07966: L2-Pf-HR :0.83717: L2-HR :0.82646: (Sim:1h28m32s) 
CPU  1 inst:   48000002 cyc:   43602242 now IPC :1.19896: AVG IPC :1.07942: L2-Pf-HR :0.83286: L2-HR :0.82252: (Sim:1h28m34s) 
CPU  2 inst:   49000002 cyc:   45221834 now IPC :0.61097: AVG IPC :1.06251: L2-Pf-HR :0.83541: L2-HR :0.82496: (Sim:1h30m45s) 
CPU  3 inst:   49000002 cyc:   45239537 now IPC :0.60319: AVG IPC :1.06207: L2-Pf-HR :0.84086: L2-HR :0.83351: (Sim:1h30m47s) 
CPU  0 inst:   49000002 cyc:   45242338 now IPC :0.60619: AVG IPC :1.06201: L2-Pf-HR :0.83770: L2-HR :0.82686: (Sim:1h30m47s) 
CPU  1 inst:   49000002 cyc:   45283318 now IPC :0.59486: AVG IPC :1.06103: L2-Pf-HR :0.83334: L2-HR :0.82274: (Sim:1h30m52s) 
CPU  3 inst:   50000003 cyc:   46285898 now IPC :0.95569: AVG IPC :1.05961: L2-Pf-HR :0.84073: L2-HR :0.83304: (Sim:1h32m1s) 
CPU  0 inst:   50000003 cyc:   46287079 now IPC :0.95718: AVG IPC :1.05959: L2-Pf-HR :0.83766: L2-HR :0.82664: (Sim:1h32m1s) 
CPU  2 inst:   50000003 cyc:   46299695 now IPC :0.92776: AVG IPC :1.05931: L2-Pf-HR :0.83548: L2-HR :0.82487: (Sim:1h32m2s) 
CPU  1 inst:   50000003 cyc:   46301133 now IPC :0.98250: AVG IPC :1.05926: L2-Pf-HR :0.83340: L2-HR :0.82257: (Sim:1h32m2s) 
CPU  3 inst:   51000004 cyc:   47326651 now IPC :0.96084: AVG IPC :1.05739: L2-Pf-HR :0.84054: L2-HR :0.83251: (Sim:1h33m4s) 
CPU  1 inst:   51000004 cyc:   47337181 now IPC :0.96521: AVG IPC :1.05716: L2-Pf-HR :0.83347: L2-HR :0.82241: (Sim:1h33m5s) 
CPU  2 inst:   51000004 cyc:   47341656 now IPC :0.95973: AVG IPC :1.05707: L2-Pf-HR :0.83551: L2-HR :0.82475: (Sim:1h33m5s) 
CPU  0 inst:   51000004 cyc:   47363121 now IPC :0.92933: AVG IPC :1.05657: L2-Pf-HR :0.83759: L2-HR :0.82642: (Sim:1h33m7s) 
CPU  3 inst:   52000000 cyc:   48398650 now IPC :0.93283: AVG IPC :1.05457: L2-Pf-HR :0.84044: L2-HR :0.83207: (Sim:1h34m55s) 
CPU  1 inst:   52000001 cyc:   48401068 now IPC :0.93995: AVG IPC :1.05453: L2-Pf-HR :0.83363: L2-HR :0.82232: (Sim:1h34m56s) 
CPU  2 inst:   52000000 cyc:   48406970 now IPC :0.93869: AVG IPC :1.05441: L2-Pf-HR :0.83559: L2-HR :0.82469: (Sim:1h34m56s) 
CPU  0 inst:   52000000 cyc:   48420507 now IPC :0.94572: AVG IPC :1.05410: L2-Pf-HR :0.83771: L2-HR :0.82634: (Sim:1h34m58s) 
CPU  0 inst:   53000003 cyc:   49462511 now IPC :0.95969: AVG IPC :1.05207: L2-Pf-HR :0.83755: L2-HR :0.82603: (Sim:1h36m58s) 
CPU  2 inst:   53000003 cyc:   49471384 now IPC :0.93949: AVG IPC :1.05188: L2-Pf-HR :0.83556: L2-HR :0.82451: (Sim:1h37m0s) 
CPU  3 inst:   53000003 cyc:   49474655 now IPC :0.92937: AVG IPC :1.05180: L2-Pf-HR :0.84033: L2-HR :0.83157: (Sim:1h37m0s) 
CPU  1 inst:   53000003 cyc:   49511146 now IPC :0.90084: AVG IPC :1.05101: L2-Pf-HR :0.83354: L2-HR :0.82203: (Sim:1h37m5s) 
CPU  3 inst:   54000001 cyc:   50389021 now IPC :1.09365: AVG IPC :1.05257: L2-Pf-HR :0.84034: L2-HR :0.83122: (Sim:1h38m54s) 
CPU  2 inst:   54000001 cyc:   50400551 now IPC :1.07623: AVG IPC :1.05234: L2-Pf-HR :0.83571: L2-HR :0.82446: (Sim:1h38m56s) 
CPU  0 inst:   54000001 cyc:   50407027 now IPC :1.05874: AVG IPC :1.05220: L2-Pf-HR :0.83765: L2-HR :0.82591: (Sim:1h38m58s) 
CPU  1 inst:   54000001 cyc:   50414957 now IPC :1.10642: AVG IPC :1.05203: L2-Pf-HR :0.83374: L2-HR :0.82198: (Sim:1h38m59s) 
CPU  3 inst:   55000001 cyc:   51888318 now IPC :0.66698: AVG IPC :1.04121: L2-Pf-HR :0.84004: L2-HR :0.83065: (Sim:1h41m20s) 
CPU  0 inst:   55000001 cyc:   51909537 now IPC :0.66555: AVG IPC :1.04079: L2-Pf-HR :0.83764: L2-HR :0.82572: (Sim:1h41m22s) 
CPU  1 inst:   55000001 cyc:   51927781 now IPC :0.66102: AVG IPC :1.04041: L2-Pf-HR :0.83367: L2-HR :0.82173: (Sim:1h41m24s) 
CPU  2 inst:   55000002 cyc:   51932964 now IPC :0.65257: AVG IPC :1.04032: L2-Pf-HR :0.83562: L2-HR :0.82421: (Sim:1h41m24s) 
CPU  0 inst:   56000001 cyc:   52859480 now IPC :1.05269: AVG IPC :1.04101: L2-Pf-HR :0.83747: L2-HR :0.82548: (Sim:1h42m50s) 
CPU  1 inst:   56000001 cyc:   52861265 now IPC :1.07126: AVG IPC :1.04097: L2-Pf-HR :0.83353: L2-HR :0.82150: (Sim:1h42m51s) 
CPU  2 inst:   56000001 cyc:   52872364 now IPC :1.06451: AVG IPC :1.04076: L2-Pf-HR :0.83549: L2-HR :0.82400: (Sim:1h42m51s) 
CPU  3 inst:   56000001 cyc:   52890797 now IPC :0.99753: AVG IPC :1.04037: L2-Pf-HR :0.83983: L2-HR :0.83036: (Sim:1h42m53s) 
CPU  0 inst:   57000001 cyc:   53815982 now IPC :1.04548: AVG IPC :1.04109: L2-Pf-HR :0.83745: L2-HR :0.82532: (Sim:1h43m50s) 
CPU  2 inst:   57000001 cyc:   53820025 now IPC :1.05523: AVG IPC :1.04102: L2-Pf-HR :0.83541: L2-HR :0.82386: (Sim:1h43m51s) 
CPU  1 inst:   57000001 cyc:   53822613 now IPC :1.04021: AVG IPC :1.04096: L2-Pf-HR :0.83356: L2-HR :0.82140: (Sim:1h43m51s) 
CPU  3 inst:   57000001 cyc:   53826842 now IPC :1.06832: AVG IPC :1.04086: L2-Pf-HR :0.83970: L2-HR :0.83016: (Sim:1h43m51s) 
CPU  3 inst:   58000001 cyc:   54672855 now IPC :1.18201: AVG IPC :1.04309: L2-Pf-HR :0.83957: L2-HR :0.82993: (Sim:1h44m56s) 
CPU  0 inst:   58000001 cyc:   54686115 now IPC :1.14925: AVG IPC :1.04284: L2-Pf-HR :0.83735: L2-HR :0.82510: (Sim:1h44m57s) 
CPU  1 inst:   58000001 cyc:   54690687 now IPC :1.15198: AVG IPC :1.04275: L2-Pf-HR :0.83351: L2-HR :0.82125: (Sim:1h44m58s) 
CPU  2 inst:   58000000 cyc:   54701878 now IPC :1.13397: AVG IPC :1.04254: L2-Pf-HR :0.83534: L2-HR :0.82368: (Sim:1h44m59s) 
CPU  3 inst:   59000000 cyc:   55548619 now IPC :1.14186: AVG IPC :1.04467: L2-Pf-HR :0.83943: L2-HR :0.82976: (Sim:1h46m39s) 
CPU  1 inst:   59000000 cyc:   55564820 now IPC :1.14399: AVG IPC :1.04437: L2-Pf-HR :0.83340: L2-HR :0.82109: (Sim:1h46m41s) 
CPU  2 inst:   59000000 cyc:   55581371 now IPC :1.13702: AVG IPC :1.04406: L2-Pf-HR :0.83519: L2-HR :0.82349: (Sim:1h46m43s) 
CPU  0 inst:   59000001 cyc:   55587775 now IPC :1.10907: AVG IPC :1.04394: L2-Pf-HR :0.83720: L2-HR :0.82487: (Sim:1h46m44s) 
CPU  2 inst:   60000005 cyc:   56309820 now IPC :1.37279: AVG IPC :1.04839: L2-Pf-HR :0.83516: L2-HR :0.82336: (Sim:1h48m18s) 
CPU  3 inst:   60000005 cyc:   56312624 now IPC :1.30890: AVG IPC :1.04832: L2-Pf-HR :0.83945: L2-HR :0.82967: (Sim:1h48m19s) 
CPU  1 inst:   60000005 cyc:   56317522 now IPC :1.32855: AVG IPC :1.04824: L2-Pf-HR :0.83351: L2-HR :0.82105: (Sim:1h48m20s) 
CPU  0 inst:   60000004 cyc:   56318974 now IPC :1.36762: AVG IPC :1.04821: L2-Pf-HR :0.83715: L2-HR :0.82470: (Sim:1h48m20s) 
CPU  1 inst:   61000005 cyc:   57503012 now IPC :0.84353: AVG IPC :1.04394: L2-Pf-HR :0.83381: L2-HR :0.82130: (Sim:1h50m12s) 
CPU  3 inst:   61000005 cyc:   57511221 now IPC :0.83431: AVG IPC :1.04378: L2-Pf-HR :0.83969: L2-HR :0.82979: (Sim:1h50m13s) 
CPU  0 inst:   61000005 cyc:   57520858 now IPC :0.83203: AVG IPC :1.04362: L2-Pf-HR :0.83739: L2-HR :0.82485: (Sim:1h50m14s) 
CPU  2 inst:   61000005 cyc:   57540282 now IPC :0.81270: AVG IPC :1.04326: L2-Pf-HR :0.83539: L2-HR :0.82350: (Sim:1h50m15s) 
CPU  2 inst:   62000002 cyc:   58377790 now IPC :1.19401: AVG IPC :1.04546: L2-Pf-HR :0.83618: L2-HR :0.82463: (Sim:1h51m50s) 
CPU  3 inst:   62000003 cyc:   58386526 now IPC :1.14246: AVG IPC :1.04529: L2-Pf-HR :0.84037: L2-HR :0.83078: (Sim:1h51m52s) 
CPU  0 inst:   62000000 cyc:   58402532 now IPC :1.13420: AVG IPC :1.04501: L2-Pf-HR :0.83818: L2-HR :0.82600: (Sim:1h51m53s) 
CPU  1 inst:   62000000 cyc:   58402683 now IPC :1.11151: AVG IPC :1.04500: L2-Pf-HR :0.83477: L2-HR :0.82272: (Sim:1h51m53s) 
CPU  1 inst:   63000001 cyc:   59265760 now IPC :1.15865: AVG IPC :1.04669: L2-Pf-HR :0.83576: L2-HR :0.82415: (Sim:1h53m34s) 
CPU  2 inst:   63000001 cyc:   59272297 now IPC :1.11793: AVG IPC :1.04658: L2-Pf-HR :0.83706: L2-HR :0.82580: (Sim:1h53m35s) 
CPU  0 inst:   63000001 cyc:   59286697 now IPC :1.13101: AVG IPC :1.04631: L2-Pf-HR :0.83898: L2-HR :0.82715: (Sim:1h53m37s) 
CPU  3 inst:   63000001 cyc:   59289988 now IPC :1.10685: AVG IPC :1.04624: L2-Pf-HR :0.84106: L2-HR :0.83176: (Sim:1h53m37s) 
CPU  1 inst:   64000001 cyc:   60172092 now IPC :1.10335: AVG IPC :1.04755: L2-Pf-HR :0.83674: L2-HR :0.82552: (Sim:1h55m18s) 
CPU  3 inst:   64000001 cyc:   60186291 now IPC :1.11569: AVG IPC :1.04729: L2-Pf-HR :0.84179: L2-HR :0.83274: (Sim:1h55m20s) 
CPU  0 inst:   64000001 cyc:   60187611 now IPC :1.10998: AVG IPC :1.04728: L2-Pf-HR :0.83978: L2-HR :0.82823: (Sim:1h55m20s) 
CPU  2 inst:   64000001 cyc:   60199009 now IPC :1.07908: AVG IPC :1.04708: L2-Pf-HR :0.83792: L2-HR :0.82694: (Sim:1h55m22s) 
CPU  1 inst:   65000002 cyc:   61692733 now IPC :0.65762: AVG IPC :1.03779: L2-Pf-HR :0.83739: L2-HR :0.82620: (Sim:1h57m32s) 
CPU  3 inst:   65000002 cyc:   61712798 now IPC :0.65509: AVG IPC :1.03744: L2-Pf-HR :0.84228: L2-HR :0.83316: (Sim:1h57m33s) 
CPU  2 inst:   65000002 cyc:   61713433 now IPC :0.66032: AVG IPC :1.03744: L2-Pf-HR :0.83848: L2-HR :0.82747: (Sim:1h57m33s) 
CPU  0 inst:   65000002 cyc:   61714082 now IPC :0.65511: AVG IPC :1.03742: L2-Pf-HR :0.84032: L2-HR :0.82873: (Sim:1h57m33s) 
CPU  1 inst:   66000003 cyc:   62804367 now IPC :0.89958: AVG IPC :1.03530: L2-Pf-HR :0.83742: L2-HR :0.82604: (Sim:1h59m26s) 
CPU  0 inst:   66000003 cyc:   62805155 now IPC :0.91653: AVG IPC :1.03529: L2-Pf-HR :0.84017: L2-HR :0.82839: (Sim:1h59m26s) 
CPU  2 inst:   66000002 cyc:   62831947 now IPC :0.89404: AVG IPC :1.03485: L2-Pf-HR :0.83848: L2-HR :0.82730: (Sim:1h59m30s) 
CPU  3 inst:   66000002 cyc:   62836291 now IPC :0.89008: AVG IPC :1.03476: L2-Pf-HR :0.84215: L2-HR :0.83284: (Sim:1h59m30s) 
CPU  1 inst:   67000001 cyc:   63800042 now IPC :1.00434: AVG IPC :1.03481: L2-Pf-HR :0.83746: L2-HR :0.82586: (Sim:2h1m18s) 
CPU  2 inst:   67000001 cyc:   63808810 now IPC :1.02368: AVG IPC :1.03467: L2-Pf-HR :0.83846: L2-HR :0.82710: (Sim:2h1m19s) 
CPU  0 inst:   67000001 cyc:   63813532 now IPC :0.99169: AVG IPC :1.03459: L2-Pf-HR :0.84009: L2-HR :0.82810: (Sim:2h1m20s) 
CPU  3 inst:   67000004 cyc:   63816127 now IPC :1.02058: AVG IPC :1.03454: L2-Pf-HR :0.84195: L2-HR :0.83247: (Sim:2h1m20s) 
CPU  1 inst:   68000005 cyc:   64848245 now IPC :0.95402: AVG IPC :1.03348: L2-Pf-HR :0.83743: L2-HR :0.82568: (Sim:2h3m11s) 
CPU  3 inst:   68000002 cyc:   64850831 now IPC :0.96646: AVG IPC :1.03343: L2-Pf-HR :0.84169: L2-HR :0.83206: (Sim:2h3m11s) 
CPU  0 inst:   68000002 cyc:   64851527 now IPC :0.96340: AVG IPC :1.03343: L2-Pf-HR :0.83998: L2-HR :0.82783: (Sim:2h3m11s) 
CPU  2 inst:   68000005 cyc:   64852842 now IPC :0.95783: AVG IPC :1.03342: L2-Pf-HR :0.83837: L2-HR :0.82686: (Sim:2h3m11s) 
CPU  2 inst:   69000000 cyc:   65901252 now IPC :0.95382: AVG IPC :1.03213: L2-Pf-HR :0.83830: L2-HR :0.82664: (Sim:2h5m1s) 
CPU  1 inst:   69000000 cyc:   65902386 now IPC :0.94863: AVG IPC :1.03211: L2-Pf-HR :0.83740: L2-HR :0.82548: (Sim:2h5m1s) 
CPU  0 inst:   69000000 cyc:   65922573 now IPC :0.93366: AVG IPC :1.03179: L2-Pf-HR :0.83981: L2-HR :0.82749: (Sim:2h5m2s) 
CPU  3 inst:   69000000 cyc:   65933927 now IPC :0.92328: AVG IPC :1.03160: L2-Pf-HR :0.84154: L2-HR :0.83175: (Sim:2h5m3s) 
CPU  2 inst:   70000004 cyc:   66848179 now IPC :1.05605: AVG IPC :1.03247: L2-Pf-HR :0.83826: L2-HR :0.82641: (Sim:2h6m34s) 
CPU  0 inst:   70000004 cyc:   66875572 now IPC :1.04932: AVG IPC :1.03204: L2-Pf-HR :0.83962: L2-HR :0.82712: (Sim:2h6m38s) 
CPU  1 inst:   70000004 cyc:   66882510 now IPC :1.02028: AVG IPC :1.03193: L2-Pf-HR :0.83727: L2-HR :0.82519: (Sim:2h6m39s) 
CPU  3 inst:   70000004 cyc:   66886152 now IPC :1.05018: AVG IPC :1.03187: L2-Pf-HR :0.84139: L2-HR :0.83139: (Sim:2h6m40s) 
CPU  0 inst:   71000005 cyc:   68180122 now IPC :0.76655: AVG IPC :1.02689: L2-Pf-HR :0.83949: L2-HR :0.82678: (Sim:2h8m53s) 
CPU  3 inst:   71000005 cyc:   68268859 now IPC :0.72322: AVG IPC :1.02552: L2-Pf-HR :0.84116: L2-HR :0.83095: (Sim:2h9m2s) 
CPU  2 inst:   71000005 cyc:   68278185 now IPC :0.69930: AVG IPC :1.02539: L2-Pf-HR :0.83813: L2-HR :0.82609: (Sim:2h9m3s) 
CPU  1 inst:   71000005 cyc:   68280889 now IPC :0.71511: AVG IPC :1.02535: L2-Pf-HR :0.83715: L2-HR :0.82487: (Sim:2h9m3s) 
CPU  0 inst:   72000000 cyc:   69275824 now IPC :0.91265: AVG IPC :1.02505: L2-Pf-HR :0.83932: L2-HR :0.82656: (Sim:2h11m1s) 
CPU  1 inst:   72000000 cyc:   69289147 now IPC :0.99180: AVG IPC :1.02485: L2-Pf-HR :0.83699: L2-HR :0.82465: (Sim:2h11m3s) 
CPU  2 inst:   72000000 cyc:   69292988 now IPC :0.98541: AVG IPC :1.02480: L2-Pf-HR :0.83801: L2-HR :0.82593: (Sim:2h11m4s) 
CPU  3 inst:   72000000 cyc:   69302005 now IPC :0.96791: AVG IPC :1.02465: L2-Pf-HR :0.84093: L2-HR :0.83066: (Sim:2h11m5s) 
CPU  0 inst:   73000000 cyc:   70156293 now IPC :1.13576: AVG IPC :1.02646: L2-Pf-HR :0.83915: L2-HR :0.82633: (Sim:2h12m57s) 
CPU  2 inst:   73000000 cyc:   70173865 now IPC :1.13523: AVG IPC :1.02621: L2-Pf-HR :0.83792: L2-HR :0.82575: (Sim:2h13m0s) 
CPU  3 inst:   73000000 cyc:   70174989 now IPC :1.14550: AVG IPC :1.02618: L2-Pf-HR :0.84074: L2-HR :0.83034: (Sim:2h13m0s) 
CPU  1 inst:   73000000 cyc:   70176316 now IPC :1.12718: AVG IPC :1.02616: L2-Pf-HR :0.83685: L2-HR :0.82441: (Sim:2h13m0s) 
CPU  2 inst:   74000005 cyc:   71056693 now IPC :1.13273: AVG IPC :1.02755: L2-Pf-HR :0.83779: L2-HR :0.82558: (Sim:2h14m54s) 
CPU  0 inst:   74000005 cyc:   71059126 now IPC :1.10763: AVG IPC :1.02751: L2-Pf-HR :0.83910: L2-HR :0.82620: (Sim:2h14m54s) 
CPU  1 inst:   74000005 cyc:   71063498 now IPC :1.12717: AVG IPC :1.02744: L2-Pf-HR :0.83678: L2-HR :0.82425: (Sim:2h14m55s) 
CPU  3 inst:   74000005 cyc:   71066272 now IPC :1.12198: AVG IPC :1.02739: L2-Pf-HR :0.84058: L2-HR :0.83006: (Sim:2h14m56s) 
CPU  3 inst:   75000000 cyc:   71948563 now IPC :1.13341: AVG IPC :1.02871: L2-Pf-HR :0.84034: L2-HR :0.82973: (Sim:2h16m50s) 
CPU  2 inst:   75000000 cyc:   71956596 now IPC :1.11123: AVG IPC :1.02861: L2-Pf-HR :0.83775: L2-HR :0.82547: (Sim:2h16m51s) 
CPU  0 inst:   75000000 cyc:   71957667 now IPC :1.11291: AVG IPC :1.02859: L2-Pf-HR :0.83895: L2-HR :0.82600: (Sim:2h16m51s) 
CPU  1 inst:   75000000 cyc:   71964521 now IPC :1.10984: AVG IPC :1.02849: L2-Pf-HR :0.83672: L2-HR :0.82410: (Sim:2h16m52s) 
CPU  3 inst:   76000003 cyc:   72728733 now IPC :1.28178: AVG IPC :1.03146: L2-Pf-HR :0.84028: L2-HR :0.82953: (Sim:2h18m38s) 
CPU  0 inst:   76000003 cyc:   72740728 now IPC :1.27704: AVG IPC :1.03130: L2-Pf-HR :0.83893: L2-HR :0.82588: (Sim:2h18m40s) 
CPU  1 inst:   76000003 cyc:   72745849 now IPC :1.27988: AVG IPC :1.03123: L2-Pf-HR :0.83671: L2-HR :0.82398: (Sim:2h18m41s) 
CPU  2 inst:   76000003 cyc:   72748487 now IPC :1.26280: AVG IPC :1.03119: L2-Pf-HR :0.83774: L2-HR :0.82538: (Sim:2h18m42s) 
CPU  3 inst:   77000004 cyc:   73798252 now IPC :0.93500: AVG IPC :1.03005: L2-Pf-HR :0.84041: L2-HR :0.82953: (Sim:2h20m44s) 
CPU  2 inst:   77000004 cyc:   73810024 now IPC :0.94203: AVG IPC :1.02989: L2-Pf-HR :0.83796: L2-HR :0.82547: (Sim:2h20m46s) 
CPU  1 inst:   77000004 cyc:   73818924 now IPC :0.93190: AVG IPC :1.02976: L2-Pf-HR :0.83692: L2-HR :0.82402: (Sim:2h20m46s) 
CPU  0 inst:   77000004 cyc:   73849033 now IPC :0.90228: AVG IPC :1.02934: L2-Pf-HR :0.83910: L2-HR :0.82593: (Sim:2h20m49s) 
CPU  2 inst:   78000001 cyc:   74703777 now IPC :1.11887: AVG IPC :1.03097: L2-Pf-HR :0.83843: L2-HR :0.82613: (Sim:2h22m39s) 
CPU  0 inst:   78000000 cyc:   74707386 now IPC :1.16502: AVG IPC :1.03092: L2-Pf-HR :0.83971: L2-HR :0.82688: (Sim:2h22m39s) 
CPU  3 inst:   78000000 cyc:   74717805 now IPC :1.08748: AVG IPC :1.03076: L2-Pf-HR :0.84110: L2-HR :0.83056: (Sim:2h22m41s) 
CPU  1 inst:   78000002 cyc:   74723415 now IPC :1.10559: AVG IPC :1.03069: L2-Pf-HR :0.83720: L2-HR :0.82446: (Sim:2h22m41s) 
CPU  0 inst:   79000000 cyc:   75578277 now IPC :1.14825: AVG IPC :1.03229: L2-Pf-HR :0.84038: L2-HR :0.82788: (Sim:2h24m29s) 
CPU  3 inst:   79000000 cyc:   75578289 now IPC :1.16214: AVG IPC :1.03228: L2-Pf-HR :0.84179: L2-HR :0.83161: (Sim:2h24m29s) 
CPU  1 inst:   79000000 cyc:   75596096 now IPC :1.14589: AVG IPC :1.03204: L2-Pf-HR :0.83753: L2-HR :0.82493: (Sim:2h24m32s) 
CPU  2 inst:   79000000 cyc:   75597457 now IPC :1.11897: AVG IPC :1.03203: L2-Pf-HR :0.83897: L2-HR :0.82687: (Sim:2h24m32s) 
CPU  2 inst:   80000005 cyc:   76441120 now IPC :1.18531: AVG IPC :1.03374: L2-Pf-HR :0.83952: L2-HR :0.82761: (Sim:2h26m4s) 
CPU  1 inst:   80000005 cyc:   76445023 now IPC :1.17796: AVG IPC :1.03368: L2-Pf-HR :0.83777: L2-HR :0.82533: (Sim:2h26m4s) 
CPU  3 inst:   80000005 cyc:   76445670 now IPC :1.15290: AVG IPC :1.03367: L2-Pf-HR :0.84247: L2-HR :0.83262: (Sim:2h26m4s) 
CPU  0 inst:   80000005 cyc:   76452161 now IPC :1.14432: AVG IPC :1.03359: L2-Pf-HR :0.84103: L2-HR :0.82885: (Sim:2h26m5s) 
CPU  1 inst:   81000001 cyc:   77876608 now IPC :0.69852: AVG IPC :1.02744: L2-Pf-HR :0.83805: L2-HR :0.82558: (Sim:2h27m17s) 
CPU  0 inst:   81000005 cyc:   77904264 now IPC :0.68866: AVG IPC :1.02707: L2-Pf-HR :0.84153: L2-HR :0.82940: (Sim:2h27m18s) 
CPU  2 inst:   81000000 cyc:   77923892 now IPC :0.67441: AVG IPC :1.02682: L2-Pf-HR :0.83992: L2-HR :0.82798: (Sim:2h27m19s) 
CPU  3 inst:   81000000 cyc:   77934419 now IPC :0.67170: AVG IPC :1.02666: L2-Pf-HR :0.84305: L2-HR :0.83325: (Sim:2h27m20s) 
CPU  1 inst:   82000000 cyc:   79072427 now IPC :0.83625: AVG IPC :1.02451: L2-Pf-HR :0.83797: L2-HR :0.82545: (Sim:2h28m25s) 
CPU  0 inst:   82000000 cyc:   79075592 now IPC :0.85373: AVG IPC :1.02447: L2-Pf-HR :0.84150: L2-HR :0.82929: (Sim:2h28m25s) 
CPU  2 inst:   82000000 cyc:   79076748 now IPC :0.86741: AVG IPC :1.02446: L2-Pf-HR :0.83985: L2-HR :0.82780: (Sim:2h28m25s) 
CPU  3 inst:   82000000 cyc:   79082810 now IPC :0.87078: AVG IPC :1.02437: L2-Pf-HR :0.84291: L2-HR :0.83302: (Sim:2h28m25s) 
CPU  1 inst:   83000004 cyc:   80057127 now IPC :1.01554: AVG IPC :1.02440: L2-Pf-HR :0.83791: L2-HR :0.82531: (Sim:2h29m27s) 
CPU  2 inst:   83000004 cyc:   80063736 now IPC :1.01319: AVG IPC :1.02432: L2-Pf-HR :0.83976: L2-HR :0.82759: (Sim:2h29m28s) 
CPU  3 inst:   83000004 cyc:   80069043 now IPC :1.01396: AVG IPC :1.02424: L2-Pf-HR :0.84272: L2-HR :0.83272: (Sim:2h29m28s) 
CPU  0 inst:   83000004 cyc:   80071649 now IPC :1.00396: AVG IPC :1.02422: L2-Pf-HR :0.84136: L2-HR :0.82909: (Sim:2h29m28s) 
CPU  0 inst:   84000002 cyc:   81132608 now IPC :0.94254: AVG IPC :1.02313: L2-Pf-HR :0.84128: L2-HR :0.82895: (Sim:2h30m32s) 
CPU  3 inst:   84000003 cyc:   81149683 now IPC :0.92538: AVG IPC :1.02291: L2-Pf-HR :0.84263: L2-HR :0.83252: (Sim:2h30m33s) 
CPU  1 inst:   84000005 cyc:   81168438 now IPC :0.89984: AVG IPC :1.02267: L2-Pf-HR :0.83782: L2-HR :0.82515: (Sim:2h30m34s) 
CPU  2 inst:   84000005 cyc:   81183481 now IPC :0.89306: AVG IPC :1.02249: L2-Pf-HR :0.83970: L2-HR :0.82742: (Sim:2h30m35s) 
CPU  0 inst:   85000002 cyc:   82181264 now IPC :0.95360: AVG IPC :1.02224: L2-Pf-HR :0.84119: L2-HR :0.82879: (Sim:2h31m36s) 
CPU  1 inst:   85000002 cyc:   82193032 now IPC :0.97599: AVG IPC :1.02209: L2-Pf-HR :0.83770: L2-HR :0.82494: (Sim:2h31m37s) 
CPU  3 inst:   85000002 cyc:   82202512 now IPC :0.94982: AVG IPC :1.02196: L2-Pf-HR :0.84251: L2-HR :0.83229: (Sim:2h31m37s) 
CPU  2 inst:   85000002 cyc:   82212020 now IPC :0.97225: AVG IPC :1.02185: L2-Pf-HR :0.83963: L2-HR :0.82722: (Sim:2h31m38s) 
CPU  0 inst:   86000001 cyc:   83186420 now IPC :0.99487: AVG IPC :1.02190: L2-Pf-HR :0.84120: L2-HR :0.82868: (Sim:2h32m38s) 
CPU  3 inst:   86000001 cyc:   83223054 now IPC :0.97987: AVG IPC :1.02144: L2-Pf-HR :0.84240: L2-HR :0.83209: (Sim:2h32m41s) 
CPU  1 inst:   86000001 cyc:   83232377 now IPC :0.96214: AVG IPC :1.02133: L2-Pf-HR :0.83771: L2-HR :0.82484: (Sim:2h32m42s) 
CPU  2 inst:   86000001 cyc:   83235607 now IPC :0.97696: AVG IPC :1.02129: L2-Pf-HR :0.83959: L2-HR :0.82708: (Sim:2h32m42s) 
CPU  0 inst:   87000001 cyc:   84226302 now IPC :0.96165: AVG IPC :1.02115: L2-Pf-HR :0.84136: L2-HR :0.82867: (Sim:2h33m43s) 
CPU  2 inst:   87000002 cyc:   84410253 now IPC :0.85132: AVG IPC :1.01890: L2-Pf-HR :0.83964: L2-HR :0.82696: (Sim:2h33m49s) 
CPU  1 inst:   87000002 cyc:   84430838 now IPC :0.83440: AVG IPC :1.01864: L2-Pf-HR :0.83778: L2-HR :0.82479: (Sim:2h33m49s) 
CPU  3 inst:   87000000 cyc:   84430854 now IPC :0.82795: AVG IPC :1.01864: L2-Pf-HR :0.84242: L2-HR :0.83194: (Sim:2h33m49s) 
CPU  0 inst:   88000003 cyc:   85526368 now IPC :0.76919: AVG IPC :1.01727: L2-Pf-HR :0.84109: L2-HR :0.82833: (Sim:2h34m50s) 
CPU  1 inst:   88000003 cyc:   85610936 now IPC :0.84739: AVG IPC :1.01626: L2-Pf-HR :0.83758: L2-HR :0.82454: (Sim:2h34m56s) 
CPU  2 inst:   88000003 cyc:   85626324 now IPC :0.82232: AVG IPC :1.01608: L2-Pf-HR :0.83943: L2-HR :0.82669: (Sim:2h34m57s) 
CPU  3 inst:   88000003 cyc:   85635429 now IPC :0.83017: AVG IPC :1.01596: L2-Pf-HR :0.84219: L2-HR :0.83167: (Sim:2h34m58s) 
CPU  0 inst:   89000003 cyc:   86447736 now IPC :1.08534: AVG IPC :1.01801: L2-Pf-HR :0.84098: L2-HR :0.82812: (Sim:2h35m53s) 
CPU  2 inst:   89000003 cyc:   86457857 now IPC :1.20260: AVG IPC :1.01789: L2-Pf-HR :0.83934: L2-HR :0.82650: (Sim:2h35m54s) 
CPU  1 inst:   89000003 cyc:   86459397 now IPC :1.17860: AVG IPC :1.01787: L2-Pf-HR :0.83754: L2-HR :0.82440: (Sim:2h35m54s) 
CPU  3 inst:   89000003 cyc:   86468838 now IPC :1.19989: AVG IPC :1.01775: L2-Pf-HR :0.84211: L2-HR :0.83151: (Sim:2h35m55s) 
CPU  0 inst:   90000000 cyc:   87390067 now IPC :1.06120: AVG IPC :1.01848: L2-Pf-HR :0.84089: L2-HR :0.82792: (Sim:2h36m54s) 
CPU  1 inst:   90000000 cyc:   87397467 now IPC :1.06602: AVG IPC :1.01839: L2-Pf-HR :0.83743: L2-HR :0.82422: (Sim:2h36m54s) 
CPU  2 inst:   90000000 cyc:   87398312 now IPC :1.06331: AVG IPC :1.01838: L2-Pf-HR :0.83923: L2-HR :0.82632: (Sim:2h36m54s) 
CPU  3 inst:   90000000 cyc:   87414418 now IPC :1.05755: AVG IPC :1.01818: L2-Pf-HR :0.84199: L2-HR :0.83134: (Sim:2h36m55s) 
CPU  0 inst:   91000000 cyc:   88261069 now IPC :1.14810: AVG IPC :1.01977: L2-Pf-HR :0.84077: L2-HR :0.82773: (Sim:2h37m53s) 
CPU  2 inst:   91000000 cyc:   88274972 now IPC :1.14069: AVG IPC :1.01961: L2-Pf-HR :0.83909: L2-HR :0.82611: (Sim:2h37m53s) 
CPU  3 inst:   91000001 cyc:   88276765 now IPC :1.15963: AVG IPC :1.01958: L2-Pf-HR :0.84181: L2-HR :0.83112: (Sim:2h37m54s) 
CPU  1 inst:   91000001 cyc:   88283499 now IPC :1.12863: AVG IPC :1.01951: L2-Pf-HR :0.83729: L2-HR :0.82403: (Sim:2h37m54s) 
CPU  3 inst:   92000001 cyc:   89064768 now IPC :1.26903: AVG IPC :1.02181: L2-Pf-HR :0.84172: L2-HR :0.83098: (Sim:2h38m49s) 
CPU  2 inst:   92000001 cyc:   89069057 now IPC :1.25931: AVG IPC :1.02177: L2-Pf-HR :0.83900: L2-HR :0.82595: (Sim:2h38m50s) 
CPU  0 inst:   92000000 cyc:   89071167 now IPC :1.23442: AVG IPC :1.02175: L2-Pf-HR :0.84077: L2-HR :0.82762: (Sim:2h38m50s) 
CPU  1 inst:   92000000 cyc:   89073034 now IPC :1.26657: AVG IPC :1.02172: L2-Pf-HR :0.83722: L2-HR :0.82389: (Sim:2h38m50s) 
CPU  3 inst:   93000001 cyc:   89976144 now IPC :1.09724: AVG IPC :1.02259: L2-Pf-HR :0.84179: L2-HR :0.83088: (Sim:2h39m49s) 
CPU  1 inst:   93000001 cyc:   90008380 now IPC :1.06912: AVG IPC :1.02222: L2-Pf-HR :0.83735: L2-HR :0.82382: (Sim:2h39m50s) 
CPU  2 inst:   93000002 cyc:   90016094 now IPC :1.05593: AVG IPC :1.02214: L2-Pf-HR :0.83907: L2-HR :0.82586: (Sim:2h39m50s) 
CPU  0 inst:   93000000 cyc:   90036647 now IPC :1.03575: AVG IPC :1.02190: L2-Pf-HR :0.84083: L2-HR :0.82750: (Sim:2h39m51s) 
CPU  3 inst:   94000004 cyc:   91032838 now IPC :0.94635: AVG IPC :1.02169: L2-Pf-HR :0.84212: L2-HR :0.83148: (Sim:2h40m50s) 
CPU  2 inst:   94000004 cyc:   91045284 now IPC :0.97164: AVG IPC :1.02156: L2-Pf-HR :0.83949: L2-HR :0.82658: (Sim:2h40m51s) 
CPU  1 inst:   94000004 cyc:   91052772 now IPC :0.95750: AVG IPC :1.02147: L2-Pf-HR :0.83778: L2-HR :0.82456: (Sim:2h40m51s) 
CPU  0 inst:   94000004 cyc:   91057420 now IPC :0.97965: AVG IPC :1.02142: L2-Pf-HR :0.84131: L2-HR :0.82834: (Sim:2h40m52s) 
CPU  0 inst:   95000005 cyc:   91878290 now IPC :1.21822: AVG IPC :1.02320: L2-Pf-HR :0.84187: L2-HR :0.82924: (Sim:2h41m47s) 
CPU  3 inst:   95000005 cyc:   91884268 now IPC :1.17450: AVG IPC :1.02312: L2-Pf-HR :0.84256: L2-HR :0.83219: (Sim:2h41m48s) 
CPU  1 inst:   95000005 cyc:   91897800 now IPC :1.18339: AVG IPC :1.02298: L2-Pf-HR :0.83831: L2-HR :0.82538: (Sim:2h41m49s) 
CPU  2 inst:   95000005 cyc:   91933385 now IPC :1.12600: AVG IPC :1.02258: L2-Pf-HR :0.84002: L2-HR :0.82739: (Sim:2h41m50s) 
CPU  1 inst:   96000003 cyc:   92798149 now IPC :1.11068: AVG IPC :1.02384: L2-Pf-HR :0.83884: L2-HR :0.82620: (Sim:2h42m46s) 
CPU  2 inst:   96000003 cyc:   92798253 now IPC :1.15624: AVG IPC :1.02384: L2-Pf-HR :0.84056: L2-HR :0.82822: (Sim:2h42m46s) 
CPU  0 inst:   96000003 cyc:   92801867 now IPC :1.08274: AVG IPC :1.02380: L2-Pf-HR :0.84246: L2-HR :0.83015: (Sim:2h42m47s) 
CPU  3 inst:   96000003 cyc:   92839530 now IPC :1.04683: AVG IPC :1.02337: L2-Pf-HR :0.84304: L2-HR :0.83292: (Sim:2h42m49s) 
CPU  0 inst:   97000000 cyc:   93856981 now IPC :0.94776: AVG IPC :1.02293: L2-Pf-HR :0.84323: L2-HR :0.83105: (Sim:2h43m50s) 
CPU  1 inst:   97000000 cyc:   93958351 now IPC :0.86192: AVG IPC :1.02182: L2-Pf-HR :0.83952: L2-HR :0.82698: (Sim:2h43m53s) 
CPU  2 inst:   97000000 cyc:   93978310 now IPC :0.84741: AVG IPC :1.02160: L2-Pf-HR :0.84128: L2-HR :0.82903: (Sim:2h43m53s) 
CPU  3 inst:   97000000 cyc:   93996976 now IPC :0.86397: AVG IPC :1.02139: L2-Pf-HR :0.84369: L2-HR :0.83364: (Sim:2h43m54s) 
CPU  0 inst:   98000001 cyc:   95434049 now IPC :0.63409: AVG IPC :1.01644: L2-Pf-HR :0.84297: L2-HR :0.83073: (Sim:2h45m5s) 
CPU  1 inst:   98000001 cyc:   95440348 now IPC :0.67477: AVG IPC :1.01637: L2-Pf-HR :0.83931: L2-HR :0.82673: (Sim:2h45m5s) 
CPU  3 inst:   98000000 cyc:   95447052 now IPC :0.68962: AVG IPC :1.01629: L2-Pf-HR :0.84340: L2-HR :0.83327: (Sim:2h45m6s) 
CPU  2 inst:   98000001 cyc:   95458761 now IPC :0.67547: AVG IPC :1.01618: L2-Pf-HR :0.84102: L2-HR :0.82870: (Sim:2h45m7s) 
CPU  0 inst:   99000001 cyc:   96422296 now IPC :1.01189: AVG IPC :1.01639: L2-Pf-HR :0.84292: L2-HR :0.83056: (Sim:2h46m8s) 
CPU  2 inst:   99000001 cyc:   96456179 now IPC :1.00259: AVG IPC :1.01603: L2-Pf-HR :0.84095: L2-HR :0.82849: (Sim:2h46m10s) 
CPU  3 inst:   99000001 cyc:   96461262 now IPC :0.98599: AVG IPC :1.01597: L2-Pf-HR :0.84325: L2-HR :0.83301: (Sim:2h46m10s) 
CPU  1 inst:   99000001 cyc:   96468638 now IPC :0.97249: AVG IPC :1.01590: L2-Pf-HR :0.83924: L2-HR :0.82657: (Sim:2h46m11s) 
CPU  2 inst:  100000002 cyc:   97524819 now IPC :0.93577: AVG IPC :1.01515: L2-Pf-HR :0.84079: L2-HR :0.82825: (Sim:2h47m15s) 
CPU  3 inst:  100000002 cyc:   97525372 now IPC :0.93975: AVG IPC :1.01513: L2-Pf-HR :0.84304: L2-HR :0.83270: (Sim:2h47m15s) 
CPU  1 inst:  100000002 cyc:   97526084 now IPC :0.94568: AVG IPC :1.01513: L2-Pf-HR :0.83910: L2-HR :0.82636: (Sim:2h47m15s) 
CPU  0 inst:  100000005 cyc:   97537513 now IPC :0.89669: AVG IPC :1.01501: L2-Pf-HR :0.84277: L2-HR :0.83031: (Sim:2h47m16s) 
CPU  1 inst:  101000000 cyc:   98567901 now IPC :0.95986: AVG IPC :1.01454: L2-Pf-HR :0.83907: L2-HR :0.82626: (Sim:2h48m19s) 
CPU  2 inst:  101000000 cyc:   98570531 now IPC :0.95628: AVG IPC :1.01452: L2-Pf-HR :0.84072: L2-HR :0.82808: (Sim:2h48m19s) 
CPU  3 inst:  101000000 cyc:   98571318 now IPC :0.95607: AVG IPC :1.01450: L2-Pf-HR :0.84298: L2-HR :0.83252: (Sim:2h48m19s) 
CPU  0 inst:  101000000 cyc:   98583184 now IPC :0.95632: AVG IPC :1.01438: L2-Pf-HR :0.84270: L2-HR :0.83012: (Sim:2h48m20s) 
CPU  2 inst:  102000004 cyc:   99605466 now IPC :0.96625: AVG IPC :1.01401: L2-Pf-HR :0.84064: L2-HR :0.82789: (Sim:2h49m22s) 
CPU  1 inst:  102000004 cyc:   99613394 now IPC :0.95649: AVG IPC :1.01392: L2-Pf-HR :0.83903: L2-HR :0.82613: (Sim:2h49m23s) 
CPU  0 inst:  102000004 cyc:   99620434 now IPC :0.96409: AVG IPC :1.01385: L2-Pf-HR :0.84264: L2-HR :0.82993: (Sim:2h49m23s) 
CPU  3 inst:  102000004 cyc:   99656816 now IPC :0.92124: AVG IPC :1.01347: L2-Pf-HR :0.84285: L2-HR :0.83228: (Sim:2h49m26s) 
CPU  2 inst:  103000001 cyc:  100251736 now IPC :1.54734: AVG IPC :1.01748: L2-Pf-HR :0.84065: L2-HR :0.82774: (Sim:2h50m15s) 
CPU  0 inst:  103000001 cyc:  100257909 now IPC :1.56868: AVG IPC :1.01741: L2-Pf-HR :0.84262: L2-HR :0.82978: (Sim:2h50m15s) 
CPU  1 inst:  103000001 cyc:  100271082 now IPC :1.52047: AVG IPC :1.01728: L2-Pf-HR :0.83909: L2-HR :0.82606: (Sim:2h50m16s) 
CPU  3 inst:  103000001 cyc:  100280808 now IPC :1.60258: AVG IPC :1.01717: L2-Pf-HR :0.84290: L2-HR :0.83219: (Sim:2h50m17s) 
CPU  2 inst:  104000001 cyc:  102043577 now IPC :0.55809: AVG IPC :1.00934: L2-Pf-HR :0.84033: L2-HR :0.82743: (Sim:2h51m47s) 
CPU  0 inst:  104000001 cyc:  102046576 now IPC :0.55908: AVG IPC :1.00930: L2-Pf-HR :0.84236: L2-HR :0.82953: (Sim:2h51m47s) 
CPU  1 inst:  104000001 cyc:  102058458 now IPC :0.55948: AVG IPC :1.00918: L2-Pf-HR :0.83889: L2-HR :0.82582: (Sim:2h51m49s) 
CPU  3 inst:  104000001 cyc:  102068966 now IPC :0.55923: AVG IPC :1.00907: L2-Pf-HR :0.84266: L2-HR :0.83188: (Sim:2h51m50s) 
CPU  1 inst:  105000001 cyc:  102930638 now IPC :1.14655: AVG IPC :1.01036: L2-Pf-HR :0.83880: L2-HR :0.82564: (Sim:2h53m40s) 
CPU  2 inst:  105000001 cyc:  102931454 now IPC :1.12628: AVG IPC :1.01035: L2-Pf-HR :0.84015: L2-HR :0.82721: (Sim:2h53m41s) 
CPU  3 inst:  105000001 cyc:  102936969 now IPC :1.15207: AVG IPC :1.01029: L2-Pf-HR :0.84252: L2-HR :0.83167: (Sim:2h53m41s) 
CPU  0 inst:  105000001 cyc:  102951476 now IPC :1.10509: AVG IPC :1.01015: L2-Pf-HR :0.84227: L2-HR :0.82941: (Sim:2h53m43s) 
CPU  2 inst:  106000005 cyc:  103816990 now IPC :1.12926: AVG IPC :1.01138: L2-Pf-HR :0.83999: L2-HR :0.82703: (Sim:2h55m33s) 
CPU  3 inst:  106000005 cyc:  103830804 now IPC :1.11878: AVG IPC :1.01123: L2-Pf-HR :0.84240: L2-HR :0.83149: (Sim:2h55m35s) 
CPU  1 inst:  106000005 cyc:  103833291 now IPC :1.10785: AVG IPC :1.01121: L2-Pf-HR :0.83879: L2-HR :0.82557: (Sim:2h55m35s) 
CPU  0 inst:  106000005 cyc:  103866062 now IPC :1.09340: AVG IPC :1.01089: L2-Pf-HR :0.84221: L2-HR :0.82933: (Sim:2h55m40s) 
CPU  2 inst:  107000005 cyc:  104695688 now IPC :1.13805: AVG IPC :1.01245: L2-Pf-HR :0.83986: L2-HR :0.82688: (Sim:2h57m28s) 
CPU  0 inst:  107000005 cyc:  104699052 now IPC :1.20049: AVG IPC :1.01242: L2-Pf-HR :0.84219: L2-HR :0.82925: (Sim:2h57m28s) 
CPU  1 inst:  107000005 cyc:  104703562 now IPC :1.14907: AVG IPC :1.01237: L2-Pf-HR :0.83876: L2-HR :0.82546: (Sim:2h57m29s) 
CPU  3 inst:  107000005 cyc:  104707003 now IPC :1.14129: AVG IPC :1.01233: L2-Pf-HR :0.84236: L2-HR :0.83137: (Sim:2h57m29s) 
CPU  3 inst:  108000005 cyc:  105533298 now IPC :1.21022: AVG IPC :1.01390: L2-Pf-HR :0.84223: L2-HR :0.83116: (Sim:2h59m17s) 
CPU  1 inst:  108000005 cyc:  105543322 now IPC :1.19082: AVG IPC :1.01380: L2-Pf-HR :0.83866: L2-HR :0.82529: (Sim:2h59m18s) 
CPU  2 inst:  108000005 cyc:  105553623 now IPC :1.16559: AVG IPC :1.01371: L2-Pf-HR :0.83969: L2-HR :0.82669: (Sim:2h59m20s) 
CPU  0 inst:  108000005 cyc:  105553843 now IPC :1.16988: AVG IPC :1.01370: L2-Pf-HR :0.84208: L2-HR :0.82911: (Sim:2h59m20s) 
CPU  1 inst:  109000001 cyc:  106059810 now IPC :1.93615: AVG IPC :1.01834: L2-Pf-HR :0.83878: L2-HR :0.82527: (Sim:3h0m51s) 
CPU  3 inst:  109000001 cyc:  106076032 now IPC :1.84252: AVG IPC :1.01818: L2-Pf-HR :0.84230: L2-HR :0.83110: (Sim:3h0m54s) 
CPU  0 inst:  109000001 cyc:  106080410 now IPC :1.89909: AVG IPC :1.01814: L2-Pf-HR :0.84217: L2-HR :0.82911: (Sim:3h0m55s) 
CPU  2 inst:  109000001 cyc:  106082431 now IPC :1.89104: AVG IPC :1.01812: L2-Pf-HR :0.83976: L2-HR :0.82665: (Sim:3h0m56s) 
CPU  1 inst:  110000005 cyc:  107412424 now IPC :0.73931: AVG IPC :1.01479: L2-Pf-HR :0.83909: L2-HR :0.82575: (Sim:3h2m9s) 
CPU  0 inst:  110000005 cyc:  107433284 now IPC :0.73917: AVG IPC :1.01459: L2-Pf-HR :0.84232: L2-HR :0.82938: (Sim:3h2m10s) 
CPU  2 inst:  110000005 cyc:  107452551 now IPC :0.72987: AVG IPC :1.01441: L2-Pf-HR :0.83995: L2-HR :0.82698: (Sim:3h2m12s) 
CPU  3 inst:  110000004 cyc:  107454984 now IPC :0.72519: AVG IPC :1.01438: L2-Pf-HR :0.84240: L2-HR :0.83131: (Sim:3h2m12s) 
CPU  2 inst:  111000002 cyc:  108316878 now IPC :1.15697: AVG IPC :1.01556: L2-Pf-HR :0.84027: L2-HR :0.82751: (Sim:3h3m8s) 
CPU  1 inst:  111000005 cyc:  108324758 now IPC :1.09609: AVG IPC :1.01548: L2-Pf-HR :0.83953: L2-HR :0.82641: (Sim:3h3m9s) 
CPU  0 inst:  111000002 cyc:  108329437 now IPC :1.11588: AVG IPC :1.01544: L2-Pf-HR :0.84262: L2-HR :0.82985: (Sim:3h3m9s) 
CPU  3 inst:  111000005 cyc:  108332330 now IPC :1.13980: AVG IPC :1.01541: L2-Pf-HR :0.84261: L2-HR :0.83167: (Sim:3h3m9s) 
CPU  2 inst:  112000005 cyc:  109197212 now IPC :1.13594: AVG IPC :1.01654: L2-Pf-HR :0.84061: L2-HR :0.82803: (Sim:3h4m21s) 
CPU  3 inst:  112000005 cyc:  109197264 now IPC :1.15616: AVG IPC :1.01653: L2-Pf-HR :0.84284: L2-HR :0.83204: (Sim:3h4m21s) 
CPU  1 inst:  112000005 cyc:  109199820 now IPC :1.14278: AVG IPC :1.01651: L2-Pf-HR :0.83995: L2-HR :0.82704: (Sim:3h4m21s) 
CPU  0 inst:  112000002 cyc:  109206701 now IPC :1.13991: AVG IPC :1.01645: L2-Pf-HR :0.84292: L2-HR :0.83032: (Sim:3h4m22s) 
CPU  2 inst:  113000000 cyc:  109843725 now IPC :1.54675: AVG IPC :1.01969: L2-Pf-HR :0.84118: L2-HR :0.82871: (Sim:3h5m44s) 
CPU  1 inst:  113000002 cyc:  109843851 now IPC :1.55272: AVG IPC :1.01968: L2-Pf-HR :0.84062: L2-HR :0.82783: (Sim:3h5m44s) 
CPU  3 inst:  113000000 cyc:  109847648 now IPC :1.53755: AVG IPC :1.01964: L2-Pf-HR :0.84329: L2-HR :0.83256: (Sim:3h5m45s) 
CPU  0 inst:  113000000 cyc:  109867231 now IPC :1.51393: AVG IPC :1.01947: L2-Pf-HR :0.84353: L2-HR :0.83101: (Sim:3h5m48s) 
CPU  1 inst:  114000000 cyc:  111815219 now IPC :0.50726: AVG IPC :1.01057: L2-Pf-HR :0.84035: L2-HR :0.82748: (Sim:3h8m9s) 
CPU  0 inst:  114000003 cyc:  111852800 now IPC :0.50364: AVG IPC :1.01023: L2-Pf-HR :0.84325: L2-HR :0.83066: (Sim:3h8m13s) 
CPU  3 inst:  114000000 cyc:  111853540 now IPC :0.49853: AVG IPC :1.01022: L2-Pf-HR :0.84299: L2-HR :0.83220: (Sim:3h8m13s) 
CPU  2 inst:  114000000 cyc:  111863551 now IPC :0.49509: AVG IPC :1.01013: L2-Pf-HR :0.84091: L2-HR :0.82835: (Sim:3h8m15s) 
CPU  3 inst:  115000000 cyc:  112842225 now IPC :1.01144: AVG IPC :1.01023: L2-Pf-HR :0.84281: L2-HR :0.83198: (Sim:3h9m56s) 
CPU  2 inst:  115000000 cyc:  112844100 now IPC :1.01984: AVG IPC :1.01022: L2-Pf-HR :0.84082: L2-HR :0.82816: (Sim:3h9m57s) 
CPU  1 inst:  115000000 cyc:  112851438 now IPC :0.96505: AVG IPC :1.01015: L2-Pf-HR :0.84031: L2-HR :0.82733: (Sim:3h9m57s) 
CPU  0 inst:  115000000 cyc:  112862271 now IPC :0.99061: AVG IPC :1.01005: L2-Pf-HR :0.84314: L2-HR :0.83047: (Sim:3h9m59s) 
CPU  1 inst:  116000002 cyc:  113916395 now IPC :0.93901: AVG IPC :1.00948: L2-Pf-HR :0.84023: L2-HR :0.82718: (Sim:3h11m45s) 
CPU  3 inst:  116000002 cyc:  113925789 now IPC :0.92288: AVG IPC :1.00939: L2-Pf-HR :0.84267: L2-HR :0.83179: (Sim:3h11m46s) 
CPU  2 inst:  116000002 cyc:  113955202 now IPC :0.90001: AVG IPC :1.00913: L2-Pf-HR :0.84068: L2-HR :0.82794: (Sim:3h11m49s) 
CPU  0 inst:  116000002 cyc:  113971560 now IPC :0.90148: AVG IPC :1.00898: L2-Pf-HR :0.84308: L2-HR :0.83034: (Sim:3h11m50s) 
CPU  3 inst:  117000001 cyc:  114987497 now IPC :0.94188: AVG IPC :1.00876: L2-Pf-HR :0.84255: L2-HR :0.83161: (Sim:3h13m28s) 
CPU  0 inst:  117000002 cyc:  114992953 now IPC :0.97906: AVG IPC :1.00872: L2-Pf-HR :0.84302: L2-HR :0.83022: (Sim:3h13m29s) 
CPU  2 inst:  117000001 cyc:  114996366 now IPC :0.96046: AVG IPC :1.00869: L2-Pf-HR :0.84059: L2-HR :0.82777: (Sim:3h13m29s) 
CPU  1 inst:  117000002 cyc:  115000522 now IPC :0.92240: AVG IPC :1.00865: L2-Pf-HR :0.84018: L2-HR :0.82704: (Sim:3h13m30s) 
CPU  1 inst:  118000001 cyc:  116065890 now IPC :0.93864: AVG IPC :1.00800: L2-Pf-HR :0.84006: L2-HR :0.82685: (Sim:3h15m12s) 
CPU  2 inst:  118000001 cyc:  116072400 now IPC :0.92934: AVG IPC :1.00795: L2-Pf-HR :0.84044: L2-HR :0.82755: (Sim:3h15m13s) 
CPU  0 inst:  118000001 cyc:  116075333 now IPC :0.92389: AVG IPC :1.00792: L2-Pf-HR :0.84293: L2-HR :0.83007: (Sim:3h15m13s) 
CPU  3 inst:  118000001 cyc:  116111716 now IPC :0.88951: AVG IPC :1.00759: L2-Pf-HR :0.84245: L2-HR :0.83144: (Sim:3h15m17s) 
CPU  2 inst:  119000005 cyc:  116815436 now IPC :1.34584: AVG IPC :1.01011: L2-Pf-HR :0.84044: L2-HR :0.82741: (Sim:3h16m42s) 
CPU  3 inst:  119000005 cyc:  116822841 now IPC :1.40623: AVG IPC :1.01004: L2-Pf-HR :0.84250: L2-HR :0.83139: (Sim:3h16m43s) 
CPU  0 inst:  119000005 cyc:  116825618 now IPC :1.33283: AVG IPC :1.01002: L2-Pf-HR :0.84294: L2-HR :0.82996: (Sim:3h16m44s) 
CPU  1 inst:  119000005 cyc:  116826688 now IPC :1.31441: AVG IPC :1.01001: L2-Pf-HR :0.84011: L2-HR :0.82677: (Sim:3h16m44s) 
CPU  1 inst:  120000005 cyc:  118513693 now IPC :0.59277: AVG IPC :1.00402: L2-Pf-HR :0.83988: L2-HR :0.82653: (Sim:3h18m53s) 
CPU  2 inst:  120000005 cyc:  118521134 now IPC :0.58627: AVG IPC :1.00396: L2-Pf-HR :0.84018: L2-HR :0.82713: (Sim:3h18m54s) 
CPU  0 inst:  120000005 cyc:  118555493 now IPC :0.57808: AVG IPC :1.00367: L2-Pf-HR :0.84272: L2-HR :0.82970: (Sim:3h18m58s) 
CPU  3 inst:  120000005 cyc:  118567592 now IPC :0.57315: AVG IPC :1.00356: L2-Pf-HR :0.84232: L2-HR :0.83112: (Sim:3h18m59s) 
CPU  3 inst:  121000004 cyc:  119402979 now IPC :1.19705: AVG IPC :1.00492: L2-Pf-HR :0.84225: L2-HR :0.83097: (Sim:3h20m30s) 
CPU  1 inst:  121000005 cyc:  119411423 now IPC :1.11392: AVG IPC :1.00486: L2-Pf-HR :0.83979: L2-HR :0.82641: (Sim:3h20m31s) 
CPU  2 inst:  121000005 cyc:  119411537 now IPC :1.12309: AVG IPC :1.00486: L2-Pf-HR :0.84012: L2-HR :0.82701: (Sim:3h20m31s) 
CPU  0 inst:  121000005 cyc:  119412906 now IPC :1.16630: AVG IPC :1.00485: L2-Pf-HR :0.84263: L2-HR :0.82955: (Sim:3h20m31s) 
CPU  1 inst:  122000004 cyc:  120309549 now IPC :1.11343: AVG IPC :1.00567: L2-Pf-HR :0.83971: L2-HR :0.82631: (Sim:3h21m48s) 
CPU  0 inst:  122000004 cyc:  120316337 now IPC :1.10689: AVG IPC :1.00562: L2-Pf-HR :0.84256: L2-HR :0.82942: (Sim:3h21m49s) 
CPU  3 inst:  122000005 cyc:  120316804 now IPC :1.09430: AVG IPC :1.00561: L2-Pf-HR :0.84217: L2-HR :0.83082: (Sim:3h21m49s) 
CPU  2 inst:  122000004 cyc:  120326368 now IPC :1.09310: AVG IPC :1.00554: L2-Pf-HR :0.84005: L2-HR :0.82688: (Sim:3h21m49s) 
CPU  1 inst:  123000003 cyc:  121183194 now IPC :1.14463: AVG IPC :1.00668: L2-Pf-HR :0.83967: L2-HR :0.82625: (Sim:3h22m45s) 
CPU  0 inst:  123000003 cyc:  121187007 now IPC :1.14854: AVG IPC :1.00665: L2-Pf-HR :0.84245: L2-HR :0.82928: (Sim:3h22m46s) 
CPU  2 inst:  123000003 cyc:  121200925 now IPC :1.14343: AVG IPC :1.00654: L2-Pf-HR :0.83998: L2-HR :0.82678: (Sim:3h22m47s) 
CPU  3 inst:  123000003 cyc:  121209895 now IPC :1.11970: AVG IPC :1.00646: L2-Pf-HR :0.84210: L2-HR :0.83068: (Sim:3h22m47s) 
CPU  1 inst:  124000003 cyc:  122024104 now IPC :1.18919: AVG IPC :1.00795: L2-Pf-HR :0.83956: L2-HR :0.82613: (Sim:3h23m42s) 
CPU  2 inst:  124000003 cyc:  122029646 now IPC :1.20668: AVG IPC :1.00791: L2-Pf-HR :0.83988: L2-HR :0.82665: (Sim:3h23m43s) 
CPU  3 inst:  124000003 cyc:  122032921 now IPC :1.21503: AVG IPC :1.00787: L2-Pf-HR :0.84200: L2-HR :0.83051: (Sim:3h23m43s) 
CPU  0 inst:  124000003 cyc:  122034857 now IPC :1.17945: AVG IPC :1.00786: L2-Pf-HR :0.84236: L2-HR :0.82914: (Sim:3h23m43s) 
CPU  3 inst:  125000003 cyc:  122584976 now IPC :1.81141: AVG IPC :1.01152: L2-Pf-HR :0.84200: L2-HR :0.83040: (Sim:3h25m2s) 
CPU  2 inst:  125000003 cyc:  122600599 now IPC :1.75146: AVG IPC :1.01140: L2-Pf-HR :0.83985: L2-HR :0.82655: (Sim:3h25m4s) 
CPU  0 inst:  125000003 cyc:  122603651 now IPC :1.75811: AVG IPC :1.01137: L2-Pf-HR :0.84236: L2-HR :0.82905: (Sim:3h25m5s) 
CPU  1 inst:  125000003 cyc:  122617071 now IPC :1.68643: AVG IPC :1.01126: L2-Pf-HR :0.83958: L2-HR :0.82608: (Sim:3h25m7s) 
CPU  3 inst:  126000005 cyc:  123886654 now IPC :0.76824: AVG IPC :1.00895: L2-Pf-HR :0.84215: L2-HR :0.83064: (Sim:3h26m54s) 
CPU  0 inst:  126000005 cyc:  123938847 now IPC :0.74896: AVG IPC :1.00852: L2-Pf-HR :0.84252: L2-HR :0.82931: (Sim:3h26m59s) 
CPU  1 inst:  126000005 cyc:  123939585 now IPC :0.75614: AVG IPC :1.00852: L2-Pf-HR :0.83976: L2-HR :0.82633: (Sim:3h26m59s) 
CPU  2 inst:  126000005 cyc:  123942964 now IPC :0.74496: AVG IPC :1.00849: L2-Pf-HR :0.84000: L2-HR :0.82682: (Sim:3h27m0s) 
CPU  1 inst:  127000002 cyc:  124767687 now IPC :1.20758: AVG IPC :1.00985: L2-Pf-HR :0.84009: L2-HR :0.82681: (Sim:3h28m29s) 
CPU  2 inst:  127000002 cyc:  124768300 now IPC :1.21162: AVG IPC :1.00985: L2-Pf-HR :0.84040: L2-HR :0.82741: (Sim:3h28m30s) 
CPU  3 inst:  127000002 cyc:  124773502 now IPC :1.12759: AVG IPC :1.00980: L2-Pf-HR :0.84252: L2-HR :0.83115: (Sim:3h28m30s) 
CPU  0 inst:  127000002 cyc:  124775114 now IPC :1.19579: AVG IPC :1.00979: L2-Pf-HR :0.84286: L2-HR :0.82984: (Sim:3h28m31s) 
CPU  3 inst:  128000000 cyc:  125622984 now IPC :1.17719: AVG IPC :1.01094: L2-Pf-HR :0.84290: L2-HR :0.83167: (Sim:3h30m2s) 
CPU  2 inst:  128000000 cyc:  125640892 now IPC :1.14601: AVG IPC :1.01080: L2-Pf-HR :0.84086: L2-HR :0.82803: (Sim:3h30m3s) 
CPU  0 inst:  128000000 cyc:  125641693 now IPC :1.15396: AVG IPC :1.01079: L2-Pf-HR :0.84324: L2-HR :0.83038: (Sim:3h30m4s) 
CPU  1 inst:  128000000 cyc:  125644880 now IPC :1.14000: AVG IPC :1.01076: L2-Pf-HR :0.84043: L2-HR :0.82729: (Sim:3h30m4s) 
CPU  0 inst:  129000001 cyc:  126364802 now IPC :1.38292: AVG IPC :1.01294: L2-Pf-HR :0.84375: L2-HR :0.83101: (Sim:3h31m33s) 
CPU  2 inst:  129000001 cyc:  126370674 now IPC :1.37027: AVG IPC :1.01289: L2-Pf-HR :0.84139: L2-HR :0.82871: (Sim:3h31m34s) 
CPU  1 inst:  129000001 cyc:  126375398 now IPC :1.36889: AVG IPC :1.01285: L2-Pf-HR :0.84095: L2-HR :0.82789: (Sim:3h31m35s) 
CPU  3 inst:  129000001 cyc:  126375596 now IPC :1.32871: AVG IPC :1.01284: L2-Pf-HR :0.84343: L2-HR :0.83229: (Sim:3h31m35s) 
CPU  0 inst:  130000005 cyc:  143274936 now IPC :0.05914: AVG IPC :0.89958: L2-Pf-HR :0.83983: L2-HR :0.82484: (Sim:3h48m6s) 
CPU  2 inst:  130000005 cyc:  143343295 now IPC :0.05892: AVG IPC :0.89915: L2-Pf-HR :0.83748: L2-HR :0.82255: (Sim:3h48m10s) 
CPU  3 inst:  130000005 cyc:  143948802 now IPC :0.05691: AVG IPC :0.89534: L2-Pf-HR :0.83949: L2-HR :0.82612: (Sim:3h48m44s) 
CPU  1 inst:  130000002 cyc:  143996566 now IPC :0.05675: AVG IPC :0.89504: L2-Pf-HR :0.83701: L2-HR :0.82179: (Sim:3h48m47s) 
CPU  0 inst:  131000001 cyc:  164886942 now IPC :0.04627: AVG IPC :0.78706: L2-Pf-HR :0.83503: L2-HR :0.81754: (Sim:4h4m52s) 
CPU  2 inst:  131000004 cyc:  165096985 now IPC :0.04597: AVG IPC :0.78606: L2-Pf-HR :0.83267: L2-HR :0.81531: (Sim:4h4m59s) 
CPU  3 inst:  131000004 cyc:  165944485 now IPC :0.04546: AVG IPC :0.78201: L2-Pf-HR :0.83468: L2-HR :0.81881: (Sim:4h5m31s) 
CPU  1 inst:  131000001 cyc:  165955726 now IPC :0.04554: AVG IPC :0.78196: L2-Pf-HR :0.83221: L2-HR :0.81458: (Sim:4h5m31s) 
CPU  2 inst:  132000000 cyc:  186658830 now IPC :0.04638: AVG IPC :0.70016: L2-Pf-HR :0.82796: L2-HR :0.80844: (Sim:4h21m12s) 
CPU  0 inst:  132000003 cyc:  186693052 now IPC :0.04586: AVG IPC :0.70003: L2-Pf-HR :0.83032: L2-HR :0.81062: (Sim:4h21m14s) 
CPU  1 inst:  132000003 cyc:  187786075 now IPC :0.04581: AVG IPC :0.69593: L2-Pf-HR :0.82751: L2-HR :0.80776: (Sim:4h22m19s) 
CPU  3 inst:  132000003 cyc:  187901934 now IPC :0.04554: AVG IPC :0.69550: L2-Pf-HR :0.82997: L2-HR :0.81188: (Sim:4h22m26s) 
CPU  2 inst:  133000002 cyc:  208519851 now IPC :0.04574: AVG IPC :0.63123: L2-Pf-HR :0.82333: L2-HR :0.80194: (Sim:4h41m43s) 
CPU  0 inst:  133000005 cyc:  208595205 now IPC :0.04566: AVG IPC :0.63099: L2-Pf-HR :0.82570: L2-HR :0.80407: (Sim:4h41m48s) 
CPU  1 inst:  133000002 cyc:  209589650 now IPC :0.04586: AVG IPC :0.62799: L2-Pf-HR :0.82292: L2-HR :0.80128: (Sim:4h42m54s) 
CPU  3 inst:  133000002 cyc:  209629113 now IPC :0.04603: AVG IPC :0.62787: L2-Pf-HR :0.82536: L2-HR :0.80531: (Sim:4h42m57s) 
CPU  0 inst:  134000000 cyc:  229969478 now IPC :0.04678: AVG IPC :0.57646: L2-Pf-HR :0.82126: L2-HR :0.79799: (Sim:5h0m32s) 
CPU  2 inst:  134000000 cyc:  229973620 now IPC :0.04661: AVG IPC :0.57645: L2-Pf-HR :0.81890: L2-HR :0.79590: (Sim:5h0m32s) 
CPU  1 inst:  134000000 cyc:  230466873 now IPC :0.04790: AVG IPC :0.57521: L2-Pf-HR :0.81849: L2-HR :0.79526: (Sim:5h0m54s) 
CPU  3 inst:  134000000 cyc:  230488330 now IPC :0.04794: AVG IPC :0.57516: L2-Pf-HR :0.82090: L2-HR :0.79922: (Sim:5h0m56s) 
CPU  0 inst:  135000000 cyc:  234092211 now IPC :0.24256: AVG IPC :0.57056: L2-Pf-HR :0.82074: L2-HR :0.79726: (Sim:5h4m32s) 
CPU  2 inst:  135000000 cyc:  234108650 now IPC :0.24184: AVG IPC :0.57052: L2-Pf-HR :0.81838: L2-HR :0.79517: (Sim:5h4m33s) 
CPU  1 inst:  135000000 cyc:  234504367 now IPC :0.24768: AVG IPC :0.56955: L2-Pf-HR :0.81800: L2-HR :0.79456: (Sim:5h4m57s) 
CPU  3 inst:  135000000 cyc:  234518283 now IPC :0.24814: AVG IPC :0.56951: L2-Pf-HR :0.82039: L2-HR :0.79850: (Sim:5h4m58s) 
CPU  0 inst:  136000002 cyc:  238088041 now IPC :0.25026: AVG IPC :0.56516: L2-Pf-HR :0.82023: L2-HR :0.79656: (Sim:5h7m57s) 
CPU  2 inst:  136000002 cyc:  238103579 now IPC :0.25032: AVG IPC :0.56512: L2-Pf-HR :0.81787: L2-HR :0.79447: (Sim:5h7m58s) 
CPU  1 inst:  136000002 cyc:  238496558 now IPC :0.25049: AVG IPC :0.56419: L2-Pf-HR :0.81748: L2-HR :0.79386: (Sim:5h8m12s) 
CPU  3 inst:  136000002 cyc:  238513942 now IPC :0.25027: AVG IPC :0.56414: L2-Pf-HR :0.81988: L2-HR :0.79779: (Sim:5h8m13s) 
CPU  0 inst:  137000000 cyc:  242004070 now IPC :0.25536: AVG IPC :0.56013: L2-Pf-HR :0.81979: L2-HR :0.79591: (Sim:5h10m21s) 
CPU  2 inst:  137000000 cyc:  242021425 now IPC :0.25524: AVG IPC :0.56009: L2-Pf-HR :0.81744: L2-HR :0.79383: (Sim:5h10m22s) 
CPU  1 inst:  137000000 cyc:  242392715 now IPC :0.25666: AVG IPC :0.55922: L2-Pf-HR :0.81710: L2-HR :0.79326: (Sim:5h10m36s) 
CPU  3 inst:  137000000 cyc:  242411598 now IPC :0.25656: AVG IPC :0.55918: L2-Pf-HR :0.81945: L2-HR :0.79714: (Sim:5h10m36s) 
CPU  0 inst:  138000000 cyc:  245811394 now IPC :0.26265: AVG IPC :0.55550: L2-Pf-HR :0.81954: L2-HR :0.79541: (Sim:5h12m42s) 
CPU  2 inst:  138000000 cyc:  245827040 now IPC :0.26277: AVG IPC :0.55546: L2-Pf-HR :0.81719: L2-HR :0.79332: (Sim:5h12m43s) 
CPU  1 inst:  138000000 cyc:  246201609 now IPC :0.26254: AVG IPC :0.55461: L2-Pf-HR :0.81686: L2-HR :0.79276: (Sim:5h12m57s) 
CPU  3 inst:  138000000 cyc:  246219254 now IPC :0.26263: AVG IPC :0.55457: L2-Pf-HR :0.81918: L2-HR :0.79661: (Sim:5h12m57s) 
CPU  0 inst:  139000000 cyc:  249608687 now IPC :0.26335: AVG IPC :0.55104: L2-Pf-HR :0.81929: L2-HR :0.79490: (Sim:5h15m3s) 
CPU  2 inst:  139000000 cyc:  249630898 now IPC :0.26289: AVG IPC :0.55099: L2-Pf-HR :0.81693: L2-HR :0.79281: (Sim:5h15m4s) 
CPU  1 inst:  139000000 cyc:  249998879 now IPC :0.26335: AVG IPC :0.55017: L2-Pf-HR :0.81662: L2-HR :0.79227: (Sim:5h15m17s) 
CPU  3 inst:  139000000 cyc:  250007962 now IPC :0.26394: AVG IPC :0.55015: L2-Pf-HR :0.81896: L2-HR :0.79613: (Sim:5h15m18s) 
CPU  0 inst:  140000002 cyc:  253424512 now IPC :0.26207: AVG IPC :0.54667: L2-Pf-HR :0.81901: L2-HR :0.79439: (Sim:5h17m31s) 
CPU  2 inst:  140000002 cyc:  253440693 now IPC :0.26248: AVG IPC :0.54663: L2-Pf-HR :0.81670: L2-HR :0.79233: (Sim:5h17m32s) 
CPU  1 inst:  140000002 cyc:  253812760 now IPC :0.26220: AVG IPC :0.54583: L2-Pf-HR :0.81638: L2-HR :0.79178: (Sim:5h17m46s) 
CPU  3 inst:  140000002 cyc:  253820675 now IPC :0.26228: AVG IPC :0.54581: L2-Pf-HR :0.81870: L2-HR :0.79561: (Sim:5h17m46s) 
CPU  0 inst:  141000004 cyc:  257234434 now IPC :0.26247: AVG IPC :0.54244: L2-Pf-HR :0.81877: L2-HR :0.79390: (Sim:5h20m25s) 
CPU  2 inst:  141000004 cyc:  257251831 now IPC :0.26239: AVG IPC :0.54241: L2-Pf-HR :0.81643: L2-HR :0.79183: (Sim:5h20m26s) 
CPU  1 inst:  141000004 cyc:  257641082 now IPC :0.26121: AVG IPC :0.54158: L2-Pf-HR :0.81612: L2-HR :0.79128: (Sim:5h20m52s) 
CPU  3 inst:  141000004 cyc:  257645047 now IPC :0.26148: AVG IPC :0.54157: L2-Pf-HR :0.81842: L2-HR :0.79509: (Sim:5h20m52s) 
CPU  0 inst:  142000004 cyc:  261040636 now IPC :0.26273: AVG IPC :0.53835: L2-Pf-HR :0.81853: L2-HR :0.79341: (Sim:5h24m29s) 
CPU  2 inst:  142000004 cyc:  261043931 now IPC :0.26371: AVG IPC :0.53834: L2-Pf-HR :0.81624: L2-HR :0.79137: (Sim:5h24m29s) 
CPU  1 inst:  142000004 cyc:  261442748 now IPC :0.26304: AVG IPC :0.53752: L2-Pf-HR :0.81591: L2-HR :0.79082: (Sim:5h24m54s) 
CPU  3 inst:  142000004 cyc:  261446520 now IPC :0.26306: AVG IPC :0.53751: L2-Pf-HR :0.81820: L2-HR :0.79461: (Sim:5h24m55s) 
CPU  0 inst:  143000000 cyc:  264843920 now IPC :0.26293: AVG IPC :0.53438: L2-Pf-HR :0.81834: L2-HR :0.79297: (Sim:5h28m32s) 
CPU  2 inst:  143000000 cyc:  264850384 now IPC :0.26271: AVG IPC :0.53437: L2-Pf-HR :0.81603: L2-HR :0.79092: (Sim:5h28m32s) 
CPU  1 inst:  143000000 cyc:  265250794 now IPC :0.26260: AVG IPC :0.53356: L2-Pf-HR :0.81571: L2-HR :0.79037: (Sim:5h28m57s) 
CPU  3 inst:  143000000 cyc:  265255221 now IPC :0.26256: AVG IPC :0.53355: L2-Pf-HR :0.81798: L2-HR :0.79413: (Sim:5h28m58s) 
CPU  0 inst:  144000003 cyc:  268643184 now IPC :0.26321: AVG IPC :0.53053: L2-Pf-HR :0.81811: L2-HR :0.79249: (Sim:5h32m35s) 
CPU  2 inst:  144000003 cyc:  268644561 now IPC :0.26356: AVG IPC :0.53053: L2-Pf-HR :0.81583: L2-HR :0.79047: (Sim:5h32m35s) 
CPU  1 inst:  144000003 cyc:  269039223 now IPC :0.26396: AVG IPC :0.52975: L2-Pf-HR :0.81553: L2-HR :0.78994: (Sim:5h33m0s) 
CPU  3 inst:  144000003 cyc:  269049269 now IPC :0.26357: AVG IPC :0.52972: L2-Pf-HR :0.81776: L2-HR :0.79367: (Sim:5h33m1s) 
CPU  0 inst:  145000002 cyc:  272461769 now IPC :0.26188: AVG IPC :0.52675: L2-Pf-HR :0.81784: L2-HR :0.79200: (Sim:5h36m43s) 
CPU  2 inst:  145000002 cyc:  272469940 now IPC :0.26141: AVG IPC :0.52674: L2-Pf-HR :0.81559: L2-HR :0.78999: (Sim:5h36m43s) 
CPU  1 inst:  145000002 cyc:  272856568 now IPC :0.26196: AVG IPC :0.52599: L2-Pf-HR :0.81531: L2-HR :0.78948: (Sim:5h37m9s) 
CPU  3 inst:  145000002 cyc:  272861290 now IPC :0.26233: AVG IPC :0.52597: L2-Pf-HR :0.81754: L2-HR :0.79320: (Sim:5h37m9s) 
CPU  0 inst:  146000000 cyc:  276260288 now IPC :0.26326: AVG IPC :0.52312: L2-Pf-HR :0.81763: L2-HR :0.79154: (Sim:5h40m52s) 
CPU  2 inst:  146000000 cyc:  276265798 now IPC :0.26344: AVG IPC :0.52311: L2-Pf-HR :0.81538: L2-HR :0.78954: (Sim:5h40m53s) 
CPU  1 inst:  146000000 cyc:  276658162 now IPC :0.26305: AVG IPC :0.52236: L2-Pf-HR :0.81505: L2-HR :0.78899: (Sim:5h41m19s) 
CPU  3 inst:  146000000 cyc:  276661040 now IPC :0.26317: AVG IPC :0.52235: L2-Pf-HR :0.81730: L2-HR :0.79271: (Sim:5h41m19s) 
CPU  0 inst:  147000000 cyc:  280072192 now IPC :0.26234: AVG IPC :0.51955: L2-Pf-HR :0.81737: L2-HR :0.79106: (Sim:5h45m1s) 
CPU  2 inst:  147000000 cyc:  280085202 now IPC :0.26182: AVG IPC :0.51953: L2-Pf-HR :0.81515: L2-HR :0.78908: (Sim:5h45m2s) 
CPU  1 inst:  147000000 cyc:  280478150 now IPC :0.26178: AVG IPC :0.51880: L2-Pf-HR :0.81485: L2-HR :0.78856: (Sim:5h45m28s) 
CPU  3 inst:  147000000 cyc:  280494737 now IPC :0.26084: AVG IPC :0.51877: L2-Pf-HR :0.81704: L2-HR :0.79222: (Sim:5h45m29s) 
CPU  0 inst:  148000003 cyc:  283877506 now IPC :0.26279: AVG IPC :0.51610: L2-Pf-HR :0.81714: L2-HR :0.79060: (Sim:5h49m11s) 
CPU  2 inst:  148000003 cyc:  283892529 now IPC :0.26265: AVG IPC :0.51607: L2-Pf-HR :0.81496: L2-HR :0.78865: (Sim:5h49m12s) 
CPU  1 inst:  148000003 cyc:  284287312 now IPC :0.26253: AVG IPC :0.51535: L2-Pf-HR :0.81465: L2-HR :0.78812: (Sim:5h49m38s) 
CPU  3 inst:  148000003 cyc:  284300519 now IPC :0.26276: AVG IPC :0.51533: L2-Pf-HR :0.81683: L2-HR :0.79177: (Sim:5h49m39s) 
CPU  0 inst:  149000002 cyc:  287679620 now IPC :0.26301: AVG IPC :0.51274: L2-Pf-HR :0.81694: L2-HR :0.79017: (Sim:5h53m21s) 
CPU  2 inst:  149000002 cyc:  287693480 now IPC :0.26309: AVG IPC :0.51272: L2-Pf-HR :0.81475: L2-HR :0.78821: (Sim:5h53m22s) 
CPU  1 inst:  149000002 cyc:  288082893 now IPC :0.26346: AVG IPC :0.51202: L2-Pf-HR :0.81444: L2-HR :0.78768: (Sim:5h53m47s) 
CPU  3 inst:  149000002 cyc:  288102589 now IPC :0.26301: AVG IPC :0.51199: L2-Pf-HR :0.81665: L2-HR :0.79134: (Sim:5h53m49s) 
CPU  0 inst:  150000000 cyc:  291479497 now IPC :0.26317: AVG IPC :0.50948: L2-Pf-HR :0.81676: L2-HR :0.78975: (Sim:5h57m46s) 
CPU  2 inst:  150000000 cyc:  291501247 now IPC :0.26262: AVG IPC :0.50944: L2-Pf-HR :0.81455: L2-HR :0.78778: (Sim:5h57m47s) 
CPU  1 inst:  150000000 cyc:  291893533 now IPC :0.26242: AVG IPC :0.50875: L2-Pf-HR :0.81426: L2-HR :0.78727: (Sim:5h58m15s) 
CPU  3 inst:  150000000 cyc:  291901778 now IPC :0.26321: AVG IPC :0.50874: L2-Pf-HR :0.81645: L2-HR :0.79091: (Sim:5h58m16s) 
CPU  0 inst:  151000000 cyc:  295284211 now IPC :0.26283: AVG IPC :0.50629: L2-Pf-HR :0.81655: L2-HR :0.78931: (Sim:6h2m17s) 
CPU  2 inst:  151000000 cyc:  295301767 now IPC :0.26312: AVG IPC :0.50626: L2-Pf-HR :0.81430: L2-HR :0.78731: (Sim:6h2m18s) 
CPU  1 inst:  151000000 cyc:  295691337 now IPC :0.26331: AVG IPC :0.50559: L2-Pf-HR :0.81409: L2-HR :0.78686: (Sim:6h2m46s) 
CPU  3 inst:  151000000 cyc:  295715700 now IPC :0.26220: AVG IPC :0.50555: L2-Pf-HR :0.81621: L2-HR :0.79044: (Sim:6h2m47s) 
CPU  0 inst:  152000002 cyc:  299094035 now IPC :0.26248: AVG IPC :0.50317: L2-Pf-HR :0.81631: L2-HR :0.78886: (Sim:6h6m46s) 
CPU  2 inst:  152000002 cyc:  299115963 now IPC :0.26218: AVG IPC :0.50314: L2-Pf-HR :0.81404: L2-HR :0.78684: (Sim:6h6m47s) 
CPU  1 inst:  152000002 cyc:  299480675 now IPC :0.26390: AVG IPC :0.50252: L2-Pf-HR :0.81387: L2-HR :0.78642: (Sim:6h7m13s) 
CPU  3 inst:  152000002 cyc:  299504680 now IPC :0.26392: AVG IPC :0.50248: L2-Pf-HR :0.81600: L2-HR :0.79000: (Sim:6h7m14s) 
CPU  0 inst:  153000002 cyc:  302893106 now IPC :0.26322: AVG IPC :0.50015: L2-Pf-HR :0.81613: L2-HR :0.78845: (Sim:6h11m9s) 
CPU  2 inst:  153000002 cyc:  302916406 now IPC :0.26313: AVG IPC :0.50012: L2-Pf-HR :0.81385: L2-HR :0.78642: (Sim:6h11m11s) 
CPU  1 inst:  153000002 cyc:  303284962 now IPC :0.26286: AVG IPC :0.49951: L2-Pf-HR :0.81366: L2-HR :0.78599: (Sim:6h11m36s) 
CPU  3 inst:  153000002 cyc:  303317976 now IPC :0.26224: AVG IPC :0.49945: L2-Pf-HR :0.81581: L2-HR :0.78958: (Sim:6h11m39s) 
[...]
Core_3_L1I_writeback_miss 0

Core_3_L2C_total_access 39939364
Core_3_L2C_total_hit 35895669
Core_3_L2C_total_miss 4043695
Core_3_L2C_loads 8118101
Core_3_L2C_load_hit 7154597
Core_3_L2C_load_miss 963504
Core_3_L2C_RFOs 648147
Core_3_L2C_RFO_hit 164597
Core_3_L2C_RFO_miss 483550
Core_3_L2C_prefetches 29235534
Core_3_L2C_prefetch_hit 26640222
Core_3_L2C_prefetch_miss 2595312
Core_3_L2C_writebacks 1937582
Core_3_L2C_writeback_hit 1936253
Core_3_L2C_writeback_miss 1329

CPU 3 L1D next line prefetcher final stats
CPU 3 L2C PC-based stride prefetcher final stats
Stride Degree: 15
MK1  MARKOV_LRU_SIZE: 128
MK1  MARKOV_PREDICTION_PERCENTTHRESHOLD: 40.00000
MK1  OUTLIERS_THRESHOLD_Max: 64
MK1  OUTLIERS_THRESHOLD_Min: 32
MK2  MARKOV_LRU_SIZE: 256
MK2  MARKOV_PREDICTION_PERCENTTHRESHOLD: 30.00000
MK2  OUTLIERS_THRESHOLD_Max: 32
MK2  OUTLIERS_THRESHOLD_Min: 16
MK3  MARKOV_LRU_SIZE: 384
MK3  MARKOV_PREDICTION_PERCENTTHRESHOLD: 25.00000
MK3  OUTLIERS_THRESHOLD_Max: 16
MK3  OUTLIERS_THRESHOLD_Min: 8
MK4  MARKOV_LRU_SIZE: 512
MK4  MARKOV_PREDICTION_PERCENTTHRESHOLD: 20.00000
MK4  OUTLIERS_THRESHOLD_Max: 8
MK4  OUTLIERS_THRESHOLD_Min: 0
IPStride Degree/Access Ratio: 1.45341
MK1 IPDEltaMarkov  Degree/Access Ratio: 0.44683
MK2 IPDEltaMarkov  Degree/Access Ratio: 0.60779
MK3 IPDEltaMarkov  Degree/Access Ratio: 0.73831
MK4 IPDEltaMarkov  Degree/Access Ratio: 1.36622
Core_3_LLC_total_access 5979031
Core_3_LLC_total_hit 2873804
Core_3_LLC_total_miss 3105227
Core_3_LLC_loads 668785
Core_3_LLC_load_hit 423849
Core_3_LLC_load_miss 244936
Core_3_LLC_RFOs 483545
Core_3_LLC_RFO_hit 17
Core_3_LLC_RFO_miss 483528
Core_3_LLC_prefetches 2997233
Core_3_LLC_prefetch_hit 657411
Core_3_LLC_prefetch_miss 2339822
Core_3_LLC_writebacks 1829468
Core_3_LLC_writeback_hit 1792527
Core_3_LLC_writeback_miss 36941


[ROI Statistics]
Core_0_instructions 326000005
Core_0_cycles 562981725
Core_0_IPC 0.57906

Core_0_branch_prediction_accuracy 99.57882
Core_0_branch_MPKI 0.12282
Core_0_average_ROB_occupancy_at_mispredict 562.28525

Core_0_L1D_total_access 200407853
Core_0_L1D_total_hit 183767700 L1D_total_Hit Ratio: 0.91697
Core_0_L1D_total_miss 16640153
Core_0_L1D_loads 81242328
Core_0_L1D_load_hit 72710524 L1D_load_Hit Ratio: 0.89498
Core_0_L1D_load_miss 8531804
Core_0_L1D_RFOs 8363488
Core_0_L1D_RFO_hit 7717705 L1D_RFO_Hit Ratio: 0.92279
Core_0_L1D_RFO_miss 645783
Core_0_L1D_prefetches 110802037
Core_0_L1D_prefetch_hit 103339471 L1D_prefetch_Hit Ratio: 0.93265
Core_0_L1D_prefetch_miss 7462566
Core_0_L1D_writebacks 0
Core_0_L1D_writeback_hit 0 L1D_writeback_Hit Ratio: -nan
Core_0_L1D_writeback_miss 0
Core_0_L1D_prefetch_requested 251447505
Core_0_L1D_prefetch_issued 128682428
Core_0_L1D_prefetch_useful 3725908 L1D_Useful Ratio: 0.02895
Core_0_L1D_prefetch_useless 3769723
Core_0_L1D_prefetch_late 420550
Core_0_L1D_average_miss_latency 6026309.27983

Core_0_L1I_total_access 47779119
Core_0_L1I_total_hit 47774196 L1I_total_Hit Ratio: 0.99990
Core_0_L1I_total_miss 4923
Core_0_L1I_loads 47779119
Core_0_L1I_load_hit 47774196 L1I_load_Hit Ratio: 0.99990
Core_0_L1I_load_miss 4923
Core_0_L1I_RFOs 0
Core_0_L1I_RFO_hit 0 L1I_RFO_Hit Ratio: -nan
Core_0_L1I_RFO_miss 0
Core_0_L1I_prefetches 0
Core_0_L1I_prefetch_hit 0 L1I_prefetch_Hit Ratio: -nan
Core_0_L1I_prefetch_miss 0
Core_0_L1I_writebacks 0
Core_0_L1I_writeback_hit 0 L1I_writeback_Hit Ratio: -nan
Core_0_L1I_writeback_miss 0
Core_0_L1I_prefetch_requested 0
Core_0_L1I_prefetch_issued 0
Core_0_L1I_prefetch_useful 0 L1I_Useful Ratio: -nan
Core_0_L1I_prefetch_useless 0
Core_0_L1I_prefetch_late 0
Core_0_L1I_average_miss_latency 1197.51432

Core_0_L2C_total_access 39925242
Core_0_L2C_total_hit 35872263 L2C_total_Hit Ratio: 0.89849
Core_0_L2C_total_miss 4052979
Core_0_L2C_loads 8117620
Core_0_L2C_load_hit 7140326 L2C_load_Hit Ratio: 0.87961
Core_0_L2C_load_miss 977294
Core_0_L2C_RFOs 645767
Core_0_L2C_RFO_hit 162198 L2C_RFO_Hit Ratio: 0.25117
Core_0_L2C_RFO_miss 483569
Core_0_L2C_prefetches 29224273
Core_0_L2C_prefetch_hit 26633515 L2C_prefetch_Hit Ratio: 0.91135
Core_0_L2C_prefetch_miss 2590758
Core_0_L2C_writebacks 1937582
Core_0_L2C_writeback_hit 1936224 L2C_writeback_Hit Ratio: 0.99930
Core_0_L2C_writeback_miss 1358
Core_0_L2C_prefetch_requested 72264049
Core_0_L2C_prefetch_issued 33677739
Core_0_L2C_prefetch_useful 417160 L2C_Useful Ratio: 0.01239
Core_0_L2C_prefetch_useless 2190547
Core_0_L2C_prefetch_late 295797
Core_0_L2C_average_miss_latency 1009.03027

Core_0_LLC_total_access 5991455
Core_0_LLC_total_hit 2891832 LLC_total_Hit Ratio: 0.48266
Core_0_LLC_total_miss 3099623
Core_0_LLC_loads 681582
Core_0_LLC_load_hit 436457 LLC_load_Hit Ratio: 0.64036
Core_0_LLC_load_miss 245125
Core_0_LLC_RFOs 483567
Core_0_LLC_RFO_hit 18 LLC_RFO_Hit Ratio: 0.00004
Core_0_LLC_RFO_miss 483549
Core_0_LLC_prefetches 2993814
Core_0_LLC_prefetch_hit 662527 LLC_prefetch_Hit Ratio: 0.22130
Core_0_LLC_prefetch_miss 2331287
Core_0_LLC_writebacks 1832492
Core_0_LLC_writeback_hit 1792830 LLC_writeback_Hit Ratio: 0.97836
Core_0_LLC_writeback_miss 39662
Core_0_LLC_prefetch_requested 0
Core_0_LLC_prefetch_issued 0
Core_0_LLC_prefetch_useful 1320217 LLC_Useful Ratio: inf
Core_0_LLC_prefetch_useless 7924306
Core_0_LLC_prefetch_late 51001
Core_0_LLC_average_miss_latency 4927.22845

Core_0_major_page_fault 0
Core_0_minor_page_fault 19454

Core_1_instructions 326000005
Core_1_cycles 563085308
Core_1_IPC 0.57895

Core_1_branch_prediction_accuracy 99.57882
Core_1_branch_MPKI 0.12286
Core_1_average_ROB_occupancy_at_mispredict 562.34020

Core_1_L1D_total_access 200360687
Core_1_L1D_total_hit 183725889 L1D_total_Hit Ratio: 0.91698
Core_1_L1D_total_miss 16634798
Core_1_L1D_loads 81233836
Core_1_L1D_load_hit 72700440 L1D_load_Hit Ratio: 0.89495
Core_1_L1D_load_miss 8533396
Core_1_L1D_RFOs 8364957
Core_1_L1D_RFO_hit 7720215 L1D_RFO_Hit Ratio: 0.92292
Core_1_L1D_RFO_miss 644742
Core_1_L1D_prefetches 110761894
Core_1_L1D_prefetch_hit 103305234 L1D_prefetch_Hit Ratio: 0.93268
Core_1_L1D_prefetch_miss 7456660
Core_1_L1D_writebacks 0
Core_1_L1D_writeback_hit 0 L1D_writeback_Hit Ratio: -nan
Core_1_L1D_writeback_miss 0
Core_1_L1D_prefetch_requested 251252601
Core_1_L1D_prefetch_issued 128597704
Core_1_L1D_prefetch_useful 3720850 L1D_Useful Ratio: 0.02893
Core_1_L1D_prefetch_useless 3761446
Core_1_L1D_prefetch_late 420592
Core_1_L1D_average_miss_latency 6031593.07545

Core_1_L1I_total_access 47777719
Core_1_L1I_total_hit 47772801 L1I_total_Hit Ratio: 0.99990
Core_1_L1I_total_miss 4918
Core_1_L1I_loads 47777719
Core_1_L1I_load_hit 47772801 L1I_load_Hit Ratio: 0.99990
Core_1_L1I_load_miss 4918
Core_1_L1I_RFOs 0
Core_1_L1I_RFO_hit 0 L1I_RFO_Hit Ratio: -nan
Core_1_L1I_RFO_miss 0
Core_1_L1I_prefetches 0
Core_1_L1I_prefetch_hit 0 L1I_prefetch_Hit Ratio: -nan
Core_1_L1I_prefetch_miss 0
Core_1_L1I_writebacks 0
Core_1_L1I_writeback_hit 0 L1I_writeback_Hit Ratio: -nan
Core_1_L1I_writeback_miss 0
Core_1_L1I_prefetch_requested 0
Core_1_L1I_prefetch_issued 0
Core_1_L1I_prefetch_useful 0 L1I_Useful Ratio: -nan
Core_1_L1I_prefetch_useless 0
Core_1_L1I_prefetch_late 0
Core_1_L1I_average_miss_latency 1052.99939

Core_1_L2C_total_access 39914609
Core_1_L2C_total_hit 35837204 L2C_total_Hit Ratio: 0.89785
Core_1_L2C_total_miss 4077405
Core_1_L2C_loads 8119025
Core_1_L2C_load_hit 7132421 L2C_load_Hit Ratio: 0.87848
Core_1_L2C_load_miss 986604
Core_1_L2C_RFOs 644723
Core_1_L2C_RFO_hit 161182 L2C_RFO_Hit Ratio: 0.25000
Core_1_L2C_RFO_miss 483541
Core_1_L2C_prefetches 29213280
Core_1_L2C_prefetch_hit 26607375 L2C_prefetch_Hit Ratio: 0.91080
Core_1_L2C_prefetch_miss 2605905
Core_1_L2C_writebacks 1937581
Core_1_L2C_writeback_hit 1936226 L2C_writeback_Hit Ratio: 0.99930
Core_1_L2C_writeback_miss 1355
Core_1_L2C_prefetch_requested 70807438
Core_1_L2C_prefetch_issued 33696456
Core_1_L2C_prefetch_useful 414170 L2C_Useful Ratio: 0.01229
Core_1_L2C_prefetch_useless 2207763
Core_1_L2C_prefetch_late 295686
Core_1_L2C_average_miss_latency 1003.52824

Core_1_LLC_total_access 6021869
Core_1_LLC_total_hit 2917948 LLC_total_Hit Ratio: 0.48456
Core_1_LLC_total_miss 3103921
Core_1_LLC_loads 690954
Core_1_LLC_load_hit 445971 LLC_load_Hit Ratio: 0.64544
Core_1_LLC_load_miss 244983
Core_1_LLC_RFOs 483540
Core_1_LLC_RFO_hit 13 LLC_RFO_Hit Ratio: 0.00003
Core_1_LLC_RFO_miss 483527
Core_1_LLC_prefetches 3009943
Core_1_LLC_prefetch_hit 672139 LLC_prefetch_Hit Ratio: 0.22331
Core_1_LLC_prefetch_miss 2337804
Core_1_LLC_writebacks 1837432
Core_1_LLC_writeback_hit 1799825 LLC_writeback_Hit Ratio: 0.97953
Core_1_LLC_writeback_miss 37607
Core_1_LLC_prefetch_requested 0
Core_1_LLC_prefetch_issued 0
Core_1_LLC_prefetch_useful 1320217 LLC_Useful Ratio: inf
Core_1_LLC_prefetch_useless 7924306
Core_1_LLC_prefetch_late 51001
Core_1_LLC_average_miss_latency 4920.40571

Core_1_major_page_fault 0
Core_1_minor_page_fault 19454

Core_2_instructions 326000003
Core_2_cycles 562798568
Core_2_IPC 0.57925

Core_2_branch_prediction_accuracy 99.57882
Core_2_branch_MPKI 0.12273
Core_2_average_ROB_occupancy_at_mispredict 562.31214

Core_2_L1D_total_access 200474181
Core_2_L1D_total_hit 183827505 L1D_total_Hit Ratio: 0.91696
Core_2_L1D_total_miss 16646676
Core_2_L1D_loads 81264092
Core_2_L1D_load_hit 72732307 L1D_load_Hit Ratio: 0.89501
Core_2_L1D_load_miss 8531785
Core_2_L1D_RFOs 8363604
Core_2_L1D_RFO_hit 7718225 L1D_RFO_Hit Ratio: 0.92283
Core_2_L1D_RFO_miss 645379
Core_2_L1D_prefetches 110846485
Core_2_L1D_prefetch_hit 103376973 L1D_prefetch_Hit Ratio: 0.93261
Core_2_L1D_prefetch_miss 7469512
Core_2_L1D_writebacks 0
Core_2_L1D_writeback_hit 0 L1D_writeback_Hit Ratio: -nan
Core_2_L1D_writeback_miss 0
Core_2_L1D_prefetch_requested 251790201
Core_2_L1D_prefetch_issued 128788210
Core_2_L1D_prefetch_useful 3731486 L1D_Useful Ratio: 0.02897
Core_2_L1D_prefetch_useless 3783936
Core_2_L1D_prefetch_late 420159
Core_2_L1D_average_miss_latency 5983356.79818

Core_2_L1I_total_access 47774255
Core_2_L1I_total_hit 47769332 L1I_total_Hit Ratio: 0.99990
Core_2_L1I_total_miss 4923
Core_2_L1I_loads 47774255
Core_2_L1I_load_hit 47769332 L1I_load_Hit Ratio: 0.99990
Core_2_L1I_load_miss 4923
Core_2_L1I_RFOs 0
Core_2_L1I_RFO_hit 0 L1I_RFO_Hit Ratio: -nan
Core_2_L1I_RFO_miss 0
Core_2_L1I_prefetches 0
Core_2_L1I_prefetch_hit 0 L1I_prefetch_Hit Ratio: -nan
Core_2_L1I_prefetch_miss 0
Core_2_L1I_writebacks 0
Core_2_L1I_writeback_hit 0 L1I_writeback_Hit Ratio: -nan
Core_2_L1I_writeback_miss 0
Core_2_L1I_prefetch_requested 0
Core_2_L1I_prefetch_issued 0
Core_2_L1I_prefetch_useful 0 L1I_Useful Ratio: -nan
Core_2_L1I_prefetch_useless 0
Core_2_L1I_prefetch_late 0
Core_2_L1I_average_miss_latency 1199.35649

Core_2_L2C_total_access 39892668
Core_2_L2C_total_hit 35823700 L2C_total_Hit Ratio: 0.89800
Core_2_L2C_total_miss 4068968
Core_2_L2C_loads 8118184
Core_2_L2C_load_hit 7136021 L2C_load_Hit Ratio: 0.87902
Core_2_L2C_load_miss 982163
Core_2_L2C_RFOs 645358
Core_2_L2C_RFO_hit 161785 L2C_RFO_Hit Ratio: 0.25069
Core_2_L2C_RFO_miss 483573
Core_2_L2C_prefetches 29191539
Core_2_L2C_prefetch_hit 26589593 L2C_prefetch_Hit Ratio: 0.91087
Core_2_L2C_prefetch_miss 2601946
Core_2_L2C_writebacks 1937587
Core_2_L2C_writeback_hit 1936301 L2C_writeback_Hit Ratio: 0.99934
Core_2_L2C_writeback_miss 1286
Core_2_L2C_prefetch_requested 72827083
Core_2_L2C_prefetch_issued 33593127
Core_2_L2C_prefetch_useful 419122 L2C_Useful Ratio: 0.01248
Core_2_L2C_prefetch_useless 2201920
Core_2_L2C_prefetch_late 295534
Core_2_L2C_average_miss_latency 1003.92243

Core_2_LLC_total_access 6010917
Core_2_LLC_total_hit 2923851 LLC_total_Hit Ratio: 0.48642
Core_2_LLC_total_miss 3087066
Core_2_LLC_loads 686732
Core_2_LLC_load_hit 441779 LLC_load_Hit Ratio: 0.64331
Core_2_LLC_load_miss 244953
Core_2_LLC_RFOs 483571
Core_2_LLC_RFO_hit 17 LLC_RFO_Hit Ratio: 0.00004
Core_2_LLC_RFO_miss 483554
Core_2_LLC_prefetches 3003932
Core_2_LLC_prefetch_hit 681439 LLC_prefetch_Hit Ratio: 0.22685
Core_2_LLC_prefetch_miss 2322493
Core_2_LLC_writebacks 1836682
Core_2_LLC_writeback_hit 1800616 LLC_writeback_Hit Ratio: 0.98036
Core_2_LLC_writeback_miss 36066
Core_2_LLC_prefetch_requested 0
Core_2_LLC_prefetch_issued 0
Core_2_LLC_prefetch_useful 1320217 LLC_Useful Ratio: inf
Core_2_LLC_prefetch_useless 7924306
Core_2_LLC_prefetch_late 51001
Core_2_LLC_average_miss_latency 4947.27052

Core_2_major_page_fault 0
Core_2_minor_page_fault 19454

Core_3_instructions 326000005
Core_3_cycles 563153761
Core_3_IPC 0.57888

Core_3_branch_prediction_accuracy 99.57883
Core_3_branch_MPKI 0.12289
Core_3_average_ROB_occupancy_at_mispredict 562.32370

Core_3_L1D_total_access 200381146
Core_3_L1D_total_hit 183743472 L1D_total_Hit Ratio: 0.91697
Core_3_L1D_total_miss 16637674
Core_3_L1D_loads 81227594
Core_3_L1D_load_hit 72694306 L1D_load_Hit Ratio: 0.89495
Core_3_L1D_load_miss 8533288
Core_3_L1D_RFOs 8362374
Core_3_L1D_RFO_hit 7714207 L1D_RFO_Hit Ratio: 0.92249
Core_3_L1D_RFO_miss 648167
Core_3_L1D_prefetches 110791178
Core_3_L1D_prefetch_hit 103334959 L1D_prefetch_Hit Ratio: 0.93270
Core_3_L1D_prefetch_miss 7456219
Core_3_L1D_writebacks 0
Core_3_L1D_writeback_hit 0 L1D_writeback_Hit Ratio: -nan
Core_3_L1D_writeback_miss 0
Core_3_L1D_prefetch_requested 251152737
Core_3_L1D_prefetch_issued 128622585
Core_3_L1D_prefetch_useful 3719727 L1D_Useful Ratio: 0.02892
Core_3_L1D_prefetch_useless 3758361
Core_3_L1D_prefetch_late 421335
Core_3_L1D_average_miss_latency 6033780.98354

Core_3_L1I_total_access 47778665
Core_3_L1I_total_hit 47773743 L1I_total_Hit Ratio: 0.99990
Core_3_L1I_total_miss 4922
Core_3_L1I_loads 47778665
Core_3_L1I_load_hit 47773743 L1I_load_Hit Ratio: 0.99990
Core_3_L1I_load_miss 4922
Core_3_L1I_RFOs 0
Core_3_L1I_RFO_hit 0 L1I_RFO_Hit Ratio: -nan
Core_3_L1I_RFO_miss 0
Core_3_L1I_prefetches 0
Core_3_L1I_prefetch_hit 0 L1I_prefetch_Hit Ratio: -nan
Core_3_L1I_prefetch_miss 0
Core_3_L1I_writebacks 0
Core_3_L1I_writeback_hit 0 L1I_writeback_Hit Ratio: -nan
Core_3_L1I_writeback_miss 0
Core_3_L1I_prefetch_requested 0
Core_3_L1I_prefetch_issued 0
Core_3_L1I_prefetch_useful 0 L1I_Useful Ratio: -nan
Core_3_L1I_prefetch_useless 0
Core_3_L1I_prefetch_late 0
Core_3_L1I_average_miss_latency 1012.41467

Core_3_L2C_total_access 39939364
Core_3_L2C_total_hit 35895669 L2C_total_Hit Ratio: 0.89875
Core_3_L2C_total_miss 4043695
Core_3_L2C_loads 8118101
Core_3_L2C_load_hit 7154597 L2C_load_Hit Ratio: 0.88131
Core_3_L2C_load_miss 963504
Core_3_L2C_RFOs 648147
Core_3_L2C_RFO_hit 164597 L2C_RFO_Hit Ratio: 0.25395
Core_3_L2C_RFO_miss 483550
Core_3_L2C_prefetches 29235534
Core_3_L2C_prefetch_hit 26640222 L2C_prefetch_Hit Ratio: 0.91123
Core_3_L2C_prefetch_miss 2595312
Core_3_L2C_writebacks 1937582
Core_3_L2C_writeback_hit 1936253 L2C_writeback_Hit Ratio: 0.99931
Core_3_L2C_writeback_miss 1329
Core_3_L2C_prefetch_requested 71147205
Core_3_L2C_prefetch_issued 33692947
Core_3_L2C_prefetch_useful 431870 L2C_Useful Ratio: 0.01282
Core_3_L2C_prefetch_useless 2178267
Core_3_L2C_prefetch_late 294779
Core_3_L2C_average_miss_latency 1011.60364

Core_3_LLC_total_access 5979031
Core_3_LLC_total_hit 2873804 LLC_total_Hit Ratio: 0.48065
Core_3_LLC_total_miss 3105227
Core_3_LLC_loads 668785
Core_3_LLC_load_hit 423849 LLC_load_Hit Ratio: 0.63376
Core_3_LLC_load_miss 244936
Core_3_LLC_RFOs 483545
Core_3_LLC_RFO_hit 17 LLC_RFO_Hit Ratio: 0.00004
Core_3_LLC_RFO_miss 483528
Core_3_LLC_prefetches 2997233
Core_3_LLC_prefetch_hit 657411 LLC_prefetch_Hit Ratio: 0.21934
Core_3_LLC_prefetch_miss 2339822
Core_3_LLC_writebacks 1829468
Core_3_LLC_writeback_hit 1792527 LLC_writeback_Hit Ratio: 0.97981
Core_3_LLC_writeback_miss 36941
Core_3_LLC_prefetch_requested 0
Core_3_LLC_prefetch_issued 0
Core_3_LLC_prefetch_useful 1320217 LLC_Useful Ratio: inf
Core_3_LLC_prefetch_useless 7924306
Core_3_LLC_prefetch_late 51001
Core_3_LLC_average_miss_latency 4918.33628

Core_3_major_page_fault 0
Core_3_minor_page_fault 19454

CPU 0 L1D next line prefetcher final stats
CPU 0 L2C PC-based stride prefetcher final stats
Stride Degree: 15
MK1  MARKOV_LRU_SIZE: 128
MK1  MARKOV_PREDICTION_PERCENTTHRESHOLD: 40.00000
MK1  OUTLIERS_THRESHOLD_Max: 64
MK1  OUTLIERS_THRESHOLD_Min: 32
MK2  MARKOV_LRU_SIZE: 256
MK2  MARKOV_PREDICTION_PERCENTTHRESHOLD: 30.00000
MK2  OUTLIERS_THRESHOLD_Max: 32
MK2  OUTLIERS_THRESHOLD_Min: 16
MK3  MARKOV_LRU_SIZE: 384
MK3  MARKOV_PREDICTION_PERCENTTHRESHOLD: 25.00000
MK3  OUTLIERS_THRESHOLD_Max: 16
MK3  OUTLIERS_THRESHOLD_Min: 8
MK4  MARKOV_LRU_SIZE: 512
MK4  MARKOV_PREDICTION_PERCENTTHRESHOLD: 20.00000
MK4  OUTLIERS_THRESHOLD_Max: 8
MK4  OUTLIERS_THRESHOLD_Min: 0
IPStride Degree/Access Ratio: 1.45341
MK1 IPDEltaMarkov  Degree/Access Ratio: 0.44683
MK2 IPDEltaMarkov  Degree/Access Ratio: 0.60779
MK3 IPDEltaMarkov  Degree/Access Ratio: 0.73831
MK4 IPDEltaMarkov  Degree/Access Ratio: 1.36622
CPU 1 L1D next line prefetcher final stats
CPU 1 L2C PC-based stride prefetcher final stats
Stride Degree: 15
MK1  MARKOV_LRU_SIZE: 128
MK1  MARKOV_PREDICTION_PERCENTTHRESHOLD: 40.00000
MK1  OUTLIERS_THRESHOLD_Max: 64
MK1  OUTLIERS_THRESHOLD_Min: 32
MK2  MARKOV_LRU_SIZE: 256
MK2  MARKOV_PREDICTION_PERCENTTHRESHOLD: 30.00000
MK2  OUTLIERS_THRESHOLD_Max: 32
MK2  OUTLIERS_THRESHOLD_Min: 16
MK3  MARKOV_LRU_SIZE: 384
MK3  MARKOV_PREDICTION_PERCENTTHRESHOLD: 25.00000
MK3  OUTLIERS_THRESHOLD_Max: 16
MK3  OUTLIERS_THRESHOLD_Min: 8
MK4  MARKOV_LRU_SIZE: 512
MK4  MARKOV_PREDICTION_PERCENTTHRESHOLD: 20.00000
MK4  OUTLIERS_THRESHOLD_Max: 8
MK4  OUTLIERS_THRESHOLD_Min: 0
IPStride Degree/Access Ratio: 1.45341
MK1 IPDEltaMarkov  Degree/Access Ratio: 0.44683
MK2 IPDEltaMarkov  Degree/Access Ratio: 0.60779
MK3 IPDEltaMarkov  Degree/Access Ratio: 0.73831
MK4 IPDEltaMarkov  Degree/Access Ratio: 1.36622
CPU 2 L1D next line prefetcher final stats
CPU 2 L2C PC-based stride prefetcher final stats
Stride Degree: 15
MK1  MARKOV_LRU_SIZE: 128
MK1  MARKOV_PREDICTION_PERCENTTHRESHOLD: 40.00000
MK1  OUTLIERS_THRESHOLD_Max: 64
MK1  OUTLIERS_THRESHOLD_Min: 32
MK2  MARKOV_LRU_SIZE: 256
MK2  MARKOV_PREDICTION_PERCENTTHRESHOLD: 30.00000
MK2  OUTLIERS_THRESHOLD_Max: 32
MK2  OUTLIERS_THRESHOLD_Min: 16
MK3  MARKOV_LRU_SIZE: 384
MK3  MARKOV_PREDICTION_PERCENTTHRESHOLD: 25.00000
MK3  OUTLIERS_THRESHOLD_Max: 16
MK3  OUTLIERS_THRESHOLD_Min: 8
MK4  MARKOV_LRU_SIZE: 512
MK4  MARKOV_PREDICTION_PERCENTTHRESHOLD: 20.00000
MK4  OUTLIERS_THRESHOLD_Max: 8
MK4  OUTLIERS_THRESHOLD_Min: 0
IPStride Degree/Access Ratio: 1.45341
MK1 IPDEltaMarkov  Degree/Access Ratio: 0.44683
MK2 IPDEltaMarkov  Degree/Access Ratio: 0.60779
MK3 IPDEltaMarkov  Degree/Access Ratio: 0.73831
MK4 IPDEltaMarkov  Degree/Access Ratio: 1.36622
CPU 3 L1D next line prefetcher final stats
CPU 3 L2C PC-based stride prefetcher final stats
Stride Degree: 15
MK1  MARKOV_LRU_SIZE: 128
MK1  MARKOV_PREDICTION_PERCENTTHRESHOLD: 40.00000
MK1  OUTLIERS_THRESHOLD_Max: 64
MK1  OUTLIERS_THRESHOLD_Min: 32
MK2  MARKOV_LRU_SIZE: 256
MK2  MARKOV_PREDICTION_PERCENTTHRESHOLD: 30.00000
MK2  OUTLIERS_THRESHOLD_Max: 32
MK2  OUTLIERS_THRESHOLD_Min: 16
MK3  MARKOV_LRU_SIZE: 384
MK3  MARKOV_PREDICTION_PERCENTTHRESHOLD: 25.00000
MK3  OUTLIERS_THRESHOLD_Max: 16
MK3  OUTLIERS_THRESHOLD_Min: 8
MK4  MARKOV_LRU_SIZE: 512
MK4  MARKOV_PREDICTION_PERCENTTHRESHOLD: 20.00000
MK4  OUTLIERS_THRESHOLD_Max: 8
MK4  OUTLIERS_THRESHOLD_Min: 0
IPStride Degree/Access Ratio: 1.45341
MK1 IPDEltaMarkov  Degree/Access Ratio: 0.44683
MK2 IPDEltaMarkov  Degree/Access Ratio: 0.60779
MK3 IPDEltaMarkov  Degree/Access Ratio: 0.73831
MK4 IPDEltaMarkov  Degree/Access Ratio: 1.36622
Channel_0_RQ_row_buffer_hit 4275053
Channel_0_RQ_row_buffer_miss 7976099
Channel_0_WQ_row_buffer_hit 1946896
Channel_0_WQ_row_buffer_miss 4664430
Channel_0_WQ_full 7037
Channel_0_dbus_congested 13498523

avg_congested_cycle 11

EzSearch AVG IPC :0.57906: L2-Pf-HR :0.91135 : L2-HR :0.89856 Uful:0.01239
EzSearch AVG IPC :0.57895: L2-Pf-HR :0.91080 : L2-HR :0.89786 Uful:0.01229
EzSearch AVG IPC :0.57925: L2-Pf-HR :0.91087 : L2-HR :0.89819 Uful:0.01248
EzSearch AVG IPC :0.57888: L2-Pf-HR :0.91123 : L2-HR :0.89875 Uful:0.01282
     > Finished combination: TraceType=770-tot Sim:326000000 Prefetcher=L2029-SecTOP-L2-MultiMarkovDelta_ip_stride_v4-IPStrS256 L1=next_line
