TRACE: [32000000]_FE_[OPT-125M]_[h12]_[s256]_[d64] Warmup: 2000000 NumTraces: 32000000
L1:no:L2:spp_berti_src
Initialize SIGNATURE TABLE
ST_SET: 1
ST_WAY: 256
ST_TAG_BIT: 16
ST_TAG_MASK: ffff

Initialize PATTERN TABLE
PT_SET: 512
PT_WAY: 4
SIG_DELTA_BIT: 7
C_SIG_BIT: 4
C_DELTA_BIT: 4

Initialize PREFETCH FILTER
FILTER_SET: 1024
*************************************************
   ChampSim Multicore Out-of-Order Simulator
   Last compiled: Oct 28 2024 16:57:34
*************************************************

trace_0 770-tot_memTraces_v3/memTraces[32000000]_FE_[OPT-125M]_[h12]_[s256]_[d64].champsim.xz
trace_1 770-tot_memTraces_v3/memTraces[32000000]_FE_[OPT-125M]_[h12]_[s256]_[d64].champsim.xz
trace_2 770-tot_memTraces_v3/memTraces[32000000]_FE_[OPT-125M]_[h12]_[s256]_[d64].champsim.xz
trace_3 770-tot_memTraces_v3/memTraces[32000000]_FE_[OPT-125M]_[h12]_[s256]_[d64].champsim.xz
ST_WAYS: 256
PT_SETS: 512
ST_WAYS: 256
PT_SETS: 512
ST_WAYS: 256
PT_SETS: 512
ST_WAYS: 256
PT_SETS: 512
MAIN.cc ln 751 stats print skipped
CPU  3 inst:    1000000 cyc:     500632 now IPC :1.99748: AVG IPC :1.99748: L2-Pf-HR :0.98845: L2-HR :0.90744: (Sim:0h1m44s) 
CPU  0 inst:    1000000 cyc:     501023 now IPC :1.99592: AVG IPC :1.99592: L2-Pf-HR :0.99057: L2-HR :0.91464: (Sim:0h1m44s) 
CPU  2 inst:    1000000 cyc:     501048 now IPC :1.99582: AVG IPC :1.99582: L2-Pf-HR :0.98974: L2-HR :0.91497: (Sim:0h1m44s) 
CPU  1 inst:    1000000 cyc:     501081 now IPC :1.99569: AVG IPC :1.99569: L2-Pf-HR :0.99070: L2-HR :0.91545: (Sim:0h1m44s) 
CPU  3 inst:    2000004 cyc:     988421 now IPC :2.05007: AVG IPC :2.02343: L2-Pf-HR :0.99121: L2-HR :0.92996: (Sim:0h3m10s) 
CPU  2 inst:    2000004 cyc:     988717 now IPC :2.05058: AVG IPC :2.02283: L2-Pf-HR :0.99190: L2-HR :0.93427: (Sim:0h3m10s) 
CPU  0 inst:    2000004 cyc:     988759 now IPC :2.05030: AVG IPC :2.02274: L2-Pf-HR :0.99202: L2-HR :0.93433: (Sim:0h3m10s) 
CPU  1 inst:    2000004 cyc:     988794 now IPC :2.05039: AVG IPC :2.02267: L2-Pf-HR :0.99195: L2-HR :0.93435: (Sim:0h3m10s) 

Warmup complete CPU  0 instructions:    2000099 cycles:     988794 (Simulation time: 0 hr 3 min 10 sec) 
Warmup complete CPU  1 instructions:    2000004 cycles:     988794 (Simulation time: 0 hr 3 min 10 sec) 
Warmup complete CPU  2 instructions:    2000222 cycles:     988793 (Simulation time: 0 hr 3 min 10 sec) 
Warmup complete CPU  3 instructions:    2000825 cycles:     988793 (Simulation time: 0 hr 3 min 10 sec) 

CPU  3 inst:    3000004 cyc:    1728563 now IPC :1.35109: AVG IPC :1.35066: L2-Pf-HR :0.99581: L2-HR :0.94677: (Sim:0h4m3s) 
CPU  0 inst:    3000004 cyc:    1729861 now IPC :1.34934: AVG IPC :1.34928: L2-Pf-HR :0.99582: L2-HR :0.94688: (Sim:0h4m3s) 
CPU  1 inst:    3000004 cyc:    1730512 now IPC :1.34822: AVG IPC :1.34822: L2-Pf-HR :0.99599: L2-HR :0.94716: (Sim:0h4m3s) 
CPU  2 inst:    3000004 cyc:    1755887 now IPC :1.30349: AVG IPC :1.30334: L2-Pf-HR :0.99589: L2-HR :0.94654: (Sim:0h4m5s) 
CPU  3 inst:    4000001 cyc:    2443807 now IPC :1.39812: AVG IPC :1.37399: L2-Pf-HR :0.99699: L2-HR :0.94858: (Sim:0h4m54s) 
CPU  0 inst:    4000001 cyc:    2444939 now IPC :1.39844: AVG IPC :1.37342: L2-Pf-HR :0.99703: L2-HR :0.94869: (Sim:0h4m55s) 
CPU  1 inst:    4000001 cyc:    2445573 now IPC :1.39848: AVG IPC :1.37289: L2-Pf-HR :0.99710: L2-HR :0.94886: (Sim:0h4m55s) 
CPU  2 inst:    4000001 cyc:    2491804 now IPC :1.35884: AVG IPC :1.33052: L2-Pf-HR :0.99711: L2-HR :0.94850: (Sim:0h4m58s) 
CPU  3 inst:    5000000 cyc:    3172349 now IPC :1.37260: AVG IPC :1.37353: L2-Pf-HR :0.99672: L2-HR :0.94792: (Sim:0h5m47s) 
CPU  0 inst:    5000000 cyc:    3175614 now IPC :1.36860: AVG IPC :1.37181: L2-Pf-HR :0.99672: L2-HR :0.94804: (Sim:0h5m47s) 
CPU  1 inst:    5000000 cyc:    3175738 now IPC :1.36955: AVG IPC :1.37178: L2-Pf-HR :0.99676: L2-HR :0.94813: (Sim:0h5m47s) 
CPU  2 inst:    5000000 cyc:    3223122 now IPC :1.36739: AVG IPC :1.34259: L2-Pf-HR :0.99691: L2-HR :0.94809: (Sim:0h5m51s) 
CPU  3 inst:    6000003 cyc:    3897005 now IPC :1.37997: AVG IPC :1.37513: L2-Pf-HR :0.99707: L2-HR :0.94846: (Sim:0h6m39s) 
CPU  0 inst:    6000003 cyc:    3900624 now IPC :1.37930: AVG IPC :1.37367: L2-Pf-HR :0.99709: L2-HR :0.94859: (Sim:0h6m39s) 
CPU  1 inst:    6000003 cyc:    3903372 now IPC :1.37432: AVG IPC :1.37241: L2-Pf-HR :0.99710: L2-HR :0.94871: (Sim:0h6m39s) 
CPU  2 inst:    6000003 cyc:    3950700 now IPC :1.37443: AVG IPC :1.35041: L2-Pf-HR :0.99730: L2-HR :0.94866: (Sim:0h6m43s) 
CPU  3 inst:    7000005 cyc:    4645116 now IPC :1.33670: AVG IPC :1.36727: L2-Pf-HR :0.99706: L2-HR :0.94828: (Sim:0h7m31s) 
CPU  0 inst:    7000005 cyc:    4662587 now IPC :1.31240: AVG IPC :1.36097: L2-Pf-HR :0.99706: L2-HR :0.94840: (Sim:0h7m32s) 
CPU  1 inst:    7000005 cyc:    4670937 now IPC :1.30282: AVG IPC :1.35791: L2-Pf-HR :0.99709: L2-HR :0.94848: (Sim:0h7m33s) 
CPU  2 inst:    7000005 cyc:    4699319 now IPC :1.33580: AVG IPC :1.34746: L2-Pf-HR :0.99712: L2-HR :0.94838: (Sim:0h7m35s) 
CPU  3 inst:    8000002 cyc:    5499801 now IPC :1.17002: AVG IPC :1.32990: L2-Pf-HR :0.99722: L2-HR :0.94830: (Sim:0h8m26s) 
CPU  0 inst:    8000002 cyc:    5531448 now IPC :1.15093: AVG IPC :1.32079: L2-Pf-HR :0.99718: L2-HR :0.94840: (Sim:0h8m29s) 
CPU  1 inst:    8000002 cyc:    5546553 now IPC :1.14205: AVG IPC :1.31644: L2-Pf-HR :0.99726: L2-HR :0.94850: (Sim:0h8m29s) 
CPU  2 inst:    8000002 cyc:    5555577 now IPC :1.16787: AVG IPC :1.31379: L2-Pf-HR :0.99726: L2-HR :0.94836: (Sim:0h8m30s) 
CPU  3 inst:    9000002 cyc:    6381871 now IPC :1.13370: AVG IPC :1.29781: L2-Pf-HR :0.99740: L2-HR :0.94861: (Sim:0h9m19s) 
CPU  0 inst:    9000002 cyc:    6529818 now IPC :1.00163: AVG IPC :1.26329: L2-Pf-HR :0.99729: L2-HR :0.94859: (Sim:0h9m28s) 
CPU  1 inst:    9000002 cyc:    6547240 now IPC :0.99931: AVG IPC :1.25934: L2-Pf-HR :0.99735: L2-HR :0.94866: (Sim:0h9m29s) 
CPU  2 inst:    9000002 cyc:    6558642 now IPC :0.99694: AVG IPC :1.25673: L2-Pf-HR :0.99733: L2-HR :0.94857: (Sim:0h9m30s) 
CPU  3 inst:   10000003 cyc:    7355352 now IPC :1.02724: AVG IPC :1.25644: L2-Pf-HR :0.99739: L2-HR :0.94847: (Sim:0h10m14s) 
CPU  0 inst:   10000003 cyc:    7698791 now IPC :0.85545: AVG IPC :1.19224: L2-Pf-HR :0.99736: L2-HR :0.94868: (Sim:0h10m33s) 
CPU  1 inst:   10000003 cyc:    7728644 now IPC :0.84645: AVG IPC :1.18697: L2-Pf-HR :0.99740: L2-HR :0.94875: (Sim:0h10m34s) 
CPU  2 inst:   10000003 cyc:    7736187 now IPC :0.84923: AVG IPC :1.18561: L2-Pf-HR :0.99740: L2-HR :0.94868: (Sim:0h10m35s) 
CPU  3 inst:   11000002 cyc:    8316344 now IPC :1.04059: AVG IPC :1.22813: L2-Pf-HR :0.99758: L2-HR :0.94861: (Sim:0h11m8s) 
CPU  0 inst:   11000002 cyc:    8890587 now IPC :0.83907: AVG IPC :1.13897: L2-Pf-HR :0.99743: L2-HR :0.94865: (Sim:0h11m35s) 
CPU  1 inst:   11000002 cyc:    8975884 now IPC :0.80177: AVG IPC :1.12682: L2-Pf-HR :0.99751: L2-HR :0.94874: (Sim:0h11m40s) 
CPU  2 inst:   11000002 cyc:    8978275 now IPC :0.80510: AVG IPC :1.12645: L2-Pf-HR :0.99749: L2-HR :0.94869: (Sim:0h11m40s) 
CPU  3 inst:   12000001 cyc:    9616984 now IPC :0.76885: AVG IPC :1.15890: L2-Pf-HR :0.99758: L2-HR :0.94855: (Sim:0h12m15s) 
CPU  0 inst:   12000001 cyc:    9970364 now IPC :0.92612: AVG IPC :1.11338: L2-Pf-HR :0.99756: L2-HR :0.94867: (Sim:0h12m32s) 
CPU  2 inst:   12000001 cyc:   10224520 now IPC :0.80241: AVG IPC :1.08273: L2-Pf-HR :0.99751: L2-HR :0.94864: (Sim:0h12m46s) 
CPU  1 inst:   12000001 cyc:   10234325 now IPC :0.79463: AVG IPC :1.08160: L2-Pf-HR :0.99751: L2-HR :0.94868: (Sim:0h12m47s) 
CPU  3 inst:   13000002 cyc:   13552207 now IPC :0.25412: AVG IPC :0.87549: L2-Pf-HR :0.99723: L2-HR :0.93186: (Sim:0h14m30s) 
CPU  0 inst:   13000002 cyc:   14147277 now IPC :0.23941: AVG IPC :0.83596: L2-Pf-HR :0.99715: L2-HR :0.93199: (Sim:0h14m51s) 
CPU  2 inst:   13000004 cyc:   15866724 now IPC :0.17724: AVG IPC :0.73934: L2-Pf-HR :0.99720: L2-HR :0.93208: (Sim:0h15m52s) 
CPU  1 inst:   13000005 cyc:   15901746 now IPC :0.17645: AVG IPC :0.73761: L2-Pf-HR :0.99721: L2-HR :0.93210: (Sim:0h15m53s) 
CPU  3 inst:   14000003 cyc:   19481851 now IPC :0.16864: AVG IPC :0.64885: L2-Pf-HR :0.99432: L2-HR :0.90632: (Sim:0h17m46s) 
CPU  0 inst:   14000003 cyc:   20012789 now IPC :0.17049: AVG IPC :0.63078: L2-Pf-HR :0.99395: L2-HR :0.90652: (Sim:0h18m3s) 
CPU  1 inst:   14000003 cyc:   21060911 now IPC :0.19383: AVG IPC :0.59784: L2-Pf-HR :0.99410: L2-HR :0.90664: (Sim:0h18m35s) 
CPU  2 inst:   14000003 cyc:   21075388 now IPC :0.19199: AVG IPC :0.59740: L2-Pf-HR :0.99411: L2-HR :0.90663: (Sim:0h18m36s) 
CPU  3 inst:   15000000 cyc:   23057922 now IPC :0.27964: AVG IPC :0.58902: L2-Pf-HR :0.99101: L2-HR :0.89654: (Sim:0h19m38s) 
CPU  0 inst:   15000000 cyc:   23596699 now IPC :0.27902: AVG IPC :0.57502: L2-Pf-HR :0.99071: L2-HR :0.89675: (Sim:0h19m55s) 
CPU  1 inst:   15000000 cyc:   24649092 now IPC :0.27869: AVG IPC :0.54944: L2-Pf-HR :0.99076: L2-HR :0.89689: (Sim:0h20m27s) 
CPU  2 inst:   15000000 cyc:   24666721 now IPC :0.27845: AVG IPC :0.54903: L2-Pf-HR :0.99074: L2-HR :0.89688: (Sim:0h20m28s) 
CPU  3 inst:   16000003 cyc:   26635301 now IPC :0.27954: AVG IPC :0.54585: L2-Pf-HR :0.98778: L2-HR :0.88714: (Sim:0h21m31s) 
CPU  0 inst:   16000003 cyc:   27177555 now IPC :0.27926: AVG IPC :0.53458: L2-Pf-HR :0.98749: L2-HR :0.88736: (Sim:0h21m48s) 
CPU  1 inst:   16000003 cyc:   28206473 now IPC :0.28111: AVG IPC :0.51437: L2-Pf-HR :0.98751: L2-HR :0.88751: (Sim:0h22m20s) 
CPU  2 inst:   16000003 cyc:   28231887 now IPC :0.28049: AVG IPC :0.51388: L2-Pf-HR :0.98745: L2-HR :0.88751: (Sim:0h22m21s) 
CPU  3 inst:   17000003 cyc:   30189485 now IPC :0.28136: AVG IPC :0.51366: L2-Pf-HR :0.98458: L2-HR :0.87809: (Sim:0h23m23s) 
CPU  0 inst:   17000003 cyc:   30724382 now IPC :0.28194: AVG IPC :0.50444: L2-Pf-HR :0.98438: L2-HR :0.87831: (Sim:0h23m40s) 
CPU  1 inst:   17000003 cyc:   31766629 now IPC :0.28089: AVG IPC :0.48736: L2-Pf-HR :0.98430: L2-HR :0.87848: (Sim:0h24m13s) 
CPU  2 inst:   17000003 cyc:   31784002 now IPC :0.28152: AVG IPC :0.48708: L2-Pf-HR :0.98423: L2-HR :0.87848: (Sim:0h24m13s) 
CPU  3 inst:   18000000 cyc:   33735985 now IPC :0.28197: AVG IPC :0.48857: L2-Pf-HR :0.98128: L2-HR :0.86938: (Sim:0h25m15s) 
CPU  0 inst:   18000000 cyc:   34267453 now IPC :0.28224: AVG IPC :0.48079: L2-Pf-HR :0.98120: L2-HR :0.86961: (Sim:0h25m32s) 
CPU  1 inst:   18000000 cyc:   35295285 now IPC :0.28339: AVG IPC :0.46638: L2-Pf-HR :0.98106: L2-HR :0.86979: (Sim:0h26m4s) 
CPU  2 inst:   18000000 cyc:   35312656 now IPC :0.28339: AVG IPC :0.46614: L2-Pf-HR :0.98103: L2-HR :0.86979: (Sim:0h26m5s) 
CPU  3 inst:   19000001 cyc:   37259610 now IPC :0.28380: AVG IPC :0.46867: L2-Pf-HR :0.97792: L2-HR :0.86101: (Sim:0h27m6s) 
CPU  0 inst:   19000000 cyc:   37790679 now IPC :0.28383: AVG IPC :0.46193: L2-Pf-HR :0.97798: L2-HR :0.86123: (Sim:0h27m23s) 
CPU  1 inst:   19000003 cyc:   38830057 now IPC :0.28290: AVG IPC :0.44925: L2-Pf-HR :0.97784: L2-HR :0.86141: (Sim:0h27m55s) 
CPU  2 inst:   19000003 cyc:   38841909 now IPC :0.28335: AVG IPC :0.44910: L2-Pf-HR :0.97781: L2-HR :0.86142: (Sim:0h27m55s) 
CPU  3 inst:   20000005 cyc:   39619313 now IPC :0.42378: AVG IPC :0.46593: L2-Pf-HR :0.97714: L2-HR :0.86157: (Sim:0h28m21s) 
CPU  0 inst:   20000005 cyc:   40226476 now IPC :0.41055: AVG IPC :0.45874: L2-Pf-HR :0.97729: L2-HR :0.86211: (Sim:0h28m49s) 
CPU  3 inst:   21000001 cyc:   40576322 now IPC :1.04492: AVG IPC :0.47993: L2-Pf-HR :0.97845: L2-HR :0.87053: (Sim:0h29m5s) 
CPU  0 inst:   21000001 cyc:   41292091 now IPC :0.93842: AVG IPC :0.47142: L2-Pf-HR :0.97863: L2-HR :0.87119: (Sim:0h29m36s) 
CPU  2 inst:   20000005 cyc:   41531238 now IPC :0.37184: AVG IPC :0.44397: L2-Pf-HR :0.97734: L2-HR :0.86253: (Sim:0h29m54s) 
CPU  1 inst:   20000005 cyc:   41538435 now IPC :0.36923: AVG IPC :0.44390: L2-Pf-HR :0.97737: L2-HR :0.86256: (Sim:0h29m54s) 
CPU  3 inst:   22000004 cyc:   41633676 now IPC :0.94576: AVG IPC :0.49205: L2-Pf-HR :0.97963: L2-HR :0.87824: (Sim:0h29m59s) 
CPU  0 inst:   22000004 cyc:   42248902 now IPC :1.04514: AVG IPC :0.48473: L2-Pf-HR :0.97980: L2-HR :0.87899: (Sim:0h30m39s) 
CPU  1 inst:   21000001 cyc:   42488835 now IPC :1.05218: AVG IPC :0.45783: L2-Pf-HR :0.97880: L2-HR :0.87187: (Sim:0h30m57s) 
CPU  2 inst:   21000001 cyc:   42495257 now IPC :1.03732: AVG IPC :0.45775: L2-Pf-HR :0.97880: L2-HR :0.87190: (Sim:0h30m57s) 
CPU  3 inst:   23000001 cyc:   42510871 now IPC :1.13999: AVG IPC :0.50574: L2-Pf-HR :0.98066: L2-HR :0.88506: (Sim:0h30m58s) 
CPU  0 inst:   23000001 cyc:   43148830 now IPC :1.11120: AVG IPC :0.49810: L2-Pf-HR :0.98084: L2-HR :0.88569: (Sim:0h31m38s) 
CPU  3 inst:   24000004 cyc:   43409113 now IPC :1.11329: AVG IPC :0.51860: L2-Pf-HR :0.98161: L2-HR :0.89100: (Sim:0h31m57s) 
CPU  1 inst:   22000004 cyc:   43427847 now IPC :1.06495: AVG IPC :0.47126: L2-Pf-HR :0.98004: L2-HR :0.87962: (Sim:0h31m58s) 
CPU  2 inst:   22000004 cyc:   43507230 now IPC :0.98817: AVG IPC :0.47038: L2-Pf-HR :0.98003: L2-HR :0.87968: (Sim:0h32m3s) 
CPU  0 inst:   24000004 cyc:   44093252 now IPC :1.05885: AVG IPC :0.51039: L2-Pf-HR :0.98180: L2-HR :0.89160: (Sim:0h32m40s) 
CPU  1 inst:   23000001 cyc:   44359212 now IPC :1.07369: AVG IPC :0.48420: L2-Pf-HR :0.98107: L2-HR :0.88624: (Sim:0h32m58s) 
CPU  3 inst:   25000003 cyc:   44386560 now IPC :1.02307: AVG IPC :0.52996: L2-Pf-HR :0.98239: L2-HR :0.89590: (Sim:0h33m0s) 
CPU  2 inst:   23000001 cyc:   44410146 now IPC :1.10752: AVG IPC :0.48363: L2-Pf-HR :0.98107: L2-HR :0.88631: (Sim:0h33m2s) 
CPU  0 inst:   25000003 cyc:   45069113 now IPC :1.02474: AVG IPC :0.52177: L2-Pf-HR :0.98257: L2-HR :0.89642: (Sim:0h33m44s) 
CPU  1 inst:   24000004 cyc:   45296213 now IPC :1.06724: AVG IPC :0.49653: L2-Pf-HR :0.98197: L2-HR :0.89206: (Sim:0h33m59s) 
CPU  3 inst:   26000002 cyc:   45311734 now IPC :1.08088: AVG IPC :0.54146: L2-Pf-HR :0.98308: L2-HR :0.90016: (Sim:0h34m0s) 
CPU  2 inst:   24000004 cyc:   45338508 now IPC :1.07717: AVG IPC :0.49605: L2-Pf-HR :0.98199: L2-HR :0.89215: (Sim:0h34m3s) 
CPU  0 inst:   26000002 cyc:   45917510 now IPC :1.17869: AVG IPC :0.53418: L2-Pf-HR :0.98322: L2-HR :0.90064: (Sim:0h34m43s) 
CPU  1 inst:   25000003 cyc:   46121467 now IPC :1.21175: AVG IPC :0.50961: L2-Pf-HR :0.98271: L2-HR :0.89684: (Sim:0h34m58s) 
CPU  3 inst:   27000003 cyc:   46163098 now IPC :1.17459: AVG IPC :0.55339: L2-Pf-HR :0.98371: L2-HR :0.90393: (Sim:0h35m1s) 
CPU  2 inst:   25000003 cyc:   46182162 now IPC :1.18532: AVG IPC :0.50892: L2-Pf-HR :0.98274: L2-HR :0.89695: (Sim:0h35m2s) 
CPU  0 inst:   27000003 cyc:   46771603 now IPC :1.17083: AVG IPC :0.54605: L2-Pf-HR :0.98381: L2-HR :0.90438: (Sim:0h35m45s) 
CPU  1 inst:   26000002 cyc:   46944691 now IPC :1.21474: AVG IPC :0.52224: L2-Pf-HR :0.98336: L2-HR :0.90100: (Sim:0h35m56s) 
CPU  3 inst:   28000004 cyc:   46983913 now IPC :1.21830: AVG IPC :0.56526: L2-Pf-HR :0.98428: L2-HR :0.90749: (Sim:0h35m59s) 
CPU  2 inst:   26000002 cyc:   47019919 now IPC :1.19366: AVG IPC :0.52138: L2-Pf-HR :0.98342: L2-HR :0.90114: (Sim:0h36m2s) 
CPU  0 inst:   28000004 cyc:   47549207 now IPC :1.28600: AVG IPC :0.55841: L2-Pf-HR :0.98439: L2-HR :0.90791: (Sim:0h36m43s) 
CPU  1 inst:   27000003 cyc:   47695640 now IPC :1.33165: AVG IPC :0.53525: L2-Pf-HR :0.98393: L2-HR :0.90469: (Sim:0h36m53s) 
CPU  3 inst:   29000004 cyc:   47753293 now IPC :1.29975: AVG IPC :0.57734: L2-Pf-HR :0.98477: L2-HR :0.91053: (Sim:0h36m58s) 
Finished CPU 3 instr: 27000001 cyc: 46764958 AVG IPC: 0.57736 (Sim time: 0h36m58s)
CPU  2 inst:   27000003 cyc:   47772623 now IPC :1.32854: AVG IPC :0.53437: L2-Pf-HR :0.98397: L2-HR :0.90482: (Sim:0h36m59s) 
CPU  0 inst:   29000004 cyc:   48374743 now IPC :1.21133: AVG IPC :0.56979: L2-Pf-HR :0.98488: L2-HR :0.91094: (Sim:0h37m42s) 
Finished CPU 0 instr: 27000003 cyc: 47386067 AVG IPC: 0.56979 (Sim time: 0h37m42s)
CPU  1 inst:   28000001 cyc:   48495879 now IPC :1.24962: AVG IPC :0.54729: L2-Pf-HR :0.98447: L2-HR :0.90819: (Sim:0h37m51s) 
CPU  3 inst:   30000002 cyc:   48570484 now IPC :1.22370: AVG IPC :0.58844: L2-Pf-HR :0.98520: L2-HR :0.91324: (Sim:0h37m56s) 
CPU  2 inst:   28000004 cyc:   48612329 now IPC :1.19089: AVG IPC :0.54594: L2-Pf-HR :0.98454: L2-HR :0.90832: (Sim:0h38m0s) 
CPU  0 inst:   30000003 cyc:   49098819 now IPC :1.38107: AVG IPC :0.58200: L2-Pf-HR :0.98531: L2-HR :0.91361: (Sim:0h38m37s) 
CPU  1 inst:   29000004 cyc:   49232320 now IPC :1.35789: AVG IPC :0.55966: L2-Pf-HR :0.98495: L2-HR :0.91118: (Sim:0h38m48s) 
Finished CPU 1 instr: 27000000 cyc: 48243526 AVG IPC: 0.55966 (Sim time: 0h38m48s)
CPU  3 inst:   31000002 cyc:   49336236 now IPC :1.30591: AVG IPC :0.59981: L2-Pf-HR :0.98559: L2-HR :0.91569: (Sim:0h38m54s) 
CPU  2 inst:   29000004 cyc:   49363276 now IPC :1.33165: AVG IPC :0.55814: L2-Pf-HR :0.98498: L2-HR :0.91130: (Sim:0h38m57s) 
Finished CPU 2 instr: 27000000 cyc: 48374621 AVG IPC: 0.55814 (Sim time: 0h38m57s)

ChampSim completed all CPUs

Total Simulation Statistics (not including warmup)

CPU 0 cumulative IPC: 0.58581 instructions: 28338429 cycles: 48374620
Core_0_L1D_total_access 7851995
Core_0_L1D_total_hit 6767344
Core_0_L1D_total_miss 1084651
Core_0_L1D_loads 7027899
Core_0_L1D_load_hit 5993416
Core_0_L1D_load_miss 1034483
Core_0_L1D_RFOs 824096
Core_0_L1D_RFO_hit 773928
Core_0_L1D_RFO_miss 50168
Core_0_L1D_prefetches 0
Core_0_L1D_prefetch_hit 0
Core_0_L1D_prefetch_miss 0
Core_0_L1D_writebacks 0
Core_0_L1D_writeback_hit 0
Core_0_L1D_writeback_miss 0

Core_0_L1I_total_access 3785379
Core_0_L1I_total_hit 3780653
Core_0_L1I_total_miss 4726
Core_0_L1I_loads 3785379
Core_0_L1I_load_hit 3780653
Core_0_L1I_load_miss 4726
Core_0_L1I_RFOs 0
Core_0_L1I_RFO_hit 0
Core_0_L1I_RFO_miss 0
Core_0_L1I_prefetches 0
Core_0_L1I_prefetch_hit 0
Core_0_L1I_prefetch_miss 0
Core_0_L1I_writebacks 0
Core_0_L1I_writeback_hit 0
Core_0_L1I_writeback_miss 0

Core_0_L2C_total_access 3274310
Core_0_L2C_total_hit 2994228
Core_0_L2C_total_miss 280082
Core_0_L2C_loads 1039209
Core_0_L2C_load_hit 837724
Core_0_L2C_load_miss 201485
Core_0_L2C_RFOs 50168
Core_0_L2C_RFO_hit 813
Core_0_L2C_RFO_miss 49355
Core_0_L2C_prefetches 2007221
Core_0_L2C_prefetch_hit 1977985
Core_0_L2C_prefetch_miss 29236
Core_0_L2C_writebacks 177712
Core_0_L2C_writeback_hit 177706
Core_0_L2C_writeback_miss 6

 All Calls: 4214913
 Critical Calls: 4214913
------------------
Depth Distribution
------------------
depth 0: 0
depth 1: 3372280
depth 2: 3115533
depth 3: 2854496
depth 4: 2562852
depth 5: 2150208
depth 6: 1633089
depth 7: 1122268
depth 8: 759367
depth 9: 534861
depth 10: 361628
depth 11: 229211
depth 12: 117093
depth 13: 43719
depth 14: 395
depth 15: 380
depth 16: 0
depth 17: 0
depth 18: 0
depth 19: 0
depth 20: 0
depth 21: 0
depth 22: 0
depth 23: 0
depth 24: 0
depth 25: 0
depth 26: 0
depth 27: 0
depth 28: 0
depth 29: 0
Total: 18857380
-----------------------------
-----------------------------
	Captured at Filter
-----------------------------
depth 0: 0
depth 1: 514524
depth 2: 462972
depth 3: 416743
depth 4: 354149
depth 5: 272378
depth 6: 165645
depth 7: 66376
depth 8: 24467
depth 9: 6799
depth 10: 3908
depth 11: 2235
depth 12: 1052
depth 13: 380
depth 14: 5
depth 15: 5
depth 16: 0
depth 17: 0
depth 18: 0
depth 19: 0
depth 20: 0
depth 21: 0
depth 22: 0
depth 23: 0
depth 24: 0
depth 25: 0
depth 26: 0
depth 27: 0
depth 28: 0
depth 29: 0
-----------------------------
-----------------------------
		Lost at Page
-----------------------------
depth 0: 0
depth 1: 213315
depth 2: 346062
depth 3: 492021
depth 4: 609182
depth 5: 688225
depth 6: 688878
depth 7: 528271
depth 8: 349239
depth 9: 116384
depth 10: 72729
depth 11: 51083
depth 12: 30410
depth 13: 12794
depth 14: 152
depth 15: 159
depth 16: 0
depth 17: 0
depth 18: 0
depth 19: 0
depth 20: 0
depth 21: 0
depth 22: 0
depth 23: 0
depth 24: 0
depth 25: 0
depth 26: 0
depth 27: 0
depth 28: 0
depth 29: 0
-----------------------------
-----------------------------
	Lost due to PQ Size
-----------------------------
1263363
-----------------------------
ST read accesses: 3978840
ST write accesses: 59317
PT read accesses: 152508130
PT write accesses: 5928767
FILTER read accesses: 26535622
FILTER write accesses: 4365384
GHR read accesses: 26672063
GHR write accesses: 4100289
GHR counter read accesses: 125771718
GHR counter write accesses: 7369558
ST tag read accesses: 1580516315
ST tag write accesses: 39789481
Core_0_LLC_total_access 868675
Core_0_LLC_total_hit 594402
Core_0_LLC_total_miss 274273
Core_0_LLC_loads 157426
Core_0_LLC_load_hit 67972
Core_0_LLC_load_miss 89454
Core_0_LLC_RFOs 49355
Core_0_LLC_RFO_hit 57
Core_0_LLC_RFO_miss 49298
Core_0_LLC_prefetches 506467
Core_0_LLC_prefetch_hit 373091
Core_0_LLC_prefetch_miss 133376
Core_0_LLC_writebacks 155427
Core_0_LLC_writeback_hit 153282
Core_0_LLC_writeback_miss 2145


CPU 1 cumulative IPC: 0.56124 instructions: 27149747 cycles: 48374620
Core_1_L1D_total_access 7535014
Core_1_L1D_total_hit 6527933
Core_1_L1D_total_miss 1007081
Core_1_L1D_loads 6713596
Core_1_L1D_load_hit 5756658
Core_1_L1D_load_miss 956938
Core_1_L1D_RFOs 821418
Core_1_L1D_RFO_hit 771275
Core_1_L1D_RFO_miss 50143
Core_1_L1D_prefetches 0
Core_1_L1D_prefetch_hit 0
Core_1_L1D_prefetch_miss 0
Core_1_L1D_writebacks 0
Core_1_L1D_writeback_hit 0
Core_1_L1D_writeback_miss 0

Core_1_L1I_total_access 3668098
Core_1_L1I_total_hit 3663376
Core_1_L1I_total_miss 4722
Core_1_L1I_loads 3668098
Core_1_L1I_load_hit 3663376
Core_1_L1I_load_miss 4722
Core_1_L1I_RFOs 0
Core_1_L1I_RFO_hit 0
Core_1_L1I_RFO_miss 0
Core_1_L1I_prefetches 0
Core_1_L1I_prefetch_hit 0
Core_1_L1I_prefetch_miss 0
Core_1_L1I_writebacks 0
Core_1_L1I_writeback_hit 0
Core_1_L1I_writeback_miss 0

Core_1_L2C_total_access 3087614
Core_1_L2C_total_hit 2814630
Core_1_L2C_total_miss 272984
Core_1_L2C_loads 961660
Core_1_L2C_load_hit 766471
Core_1_L2C_load_miss 195189
Core_1_L2C_RFOs 50143
Core_1_L2C_RFO_hit 793
Core_1_L2C_RFO_miss 49350
Core_1_L2C_prefetches 1899363
Core_1_L2C_prefetch_hit 1870924
Core_1_L2C_prefetch_miss 28439
Core_1_L2C_writebacks 176448
Core_1_L2C_writeback_hit 176442
Core_1_L2C_writeback_miss 6

 All Calls: 4214913
 Critical Calls: 4214913
------------------
Depth Distribution
------------------
depth 0: 0
depth 1: 3372280
depth 2: 3115533
depth 3: 2854496
depth 4: 2562852
depth 5: 2150208
depth 6: 1633089
depth 7: 1122268
depth 8: 759367
depth 9: 534861
depth 10: 361628
depth 11: 229211
depth 12: 117093
depth 13: 43719
depth 14: 395
depth 15: 380
depth 16: 0
depth 17: 0
depth 18: 0
depth 19: 0
depth 20: 0
depth 21: 0
depth 22: 0
depth 23: 0
depth 24: 0
depth 25: 0
depth 26: 0
depth 27: 0
depth 28: 0
depth 29: 0
Total: 18857380
-----------------------------
-----------------------------
	Captured at Filter
-----------------------------
depth 0: 0
depth 1: 514524
depth 2: 462972
depth 3: 416743
depth 4: 354149
depth 5: 272378
depth 6: 165645
depth 7: 66376
depth 8: 24467
depth 9: 6799
depth 10: 3908
depth 11: 2235
depth 12: 1052
depth 13: 380
depth 14: 5
depth 15: 5
depth 16: 0
depth 17: 0
depth 18: 0
depth 19: 0
depth 20: 0
depth 21: 0
depth 22: 0
depth 23: 0
depth 24: 0
depth 25: 0
depth 26: 0
depth 27: 0
depth 28: 0
depth 29: 0
-----------------------------
-----------------------------
		Lost at Page
-----------------------------
depth 0: 0
depth 1: 213315
depth 2: 346062
depth 3: 492021
depth 4: 609182
depth 5: 688225
depth 6: 688878
depth 7: 528271
depth 8: 349239
depth 9: 116384
depth 10: 72729
depth 11: 51083
depth 12: 30410
depth 13: 12794
depth 14: 152
depth 15: 159
depth 16: 0
depth 17: 0
depth 18: 0
depth 19: 0
depth 20: 0
depth 21: 0
depth 22: 0
depth 23: 0
depth 24: 0
depth 25: 0
depth 26: 0
depth 27: 0
depth 28: 0
depth 29: 0
-----------------------------
-----------------------------
	Lost due to PQ Size
-----------------------------
1263363
-----------------------------
ST read accesses: 3978840
ST write accesses: 59317
PT read accesses: 152508130
PT write accesses: 5928767
FILTER read accesses: 26535622
FILTER write accesses: 4365384
GHR read accesses: 26672063
GHR write accesses: 4100289
GHR counter read accesses: 125771718
GHR counter write accesses: 7369558
ST tag read accesses: 1580516315
ST tag write accesses: 39789481
Core_1_LLC_total_access 851516
Core_1_LLC_total_hit 580874
Core_1_LLC_total_miss 270642
Core_1_LLC_loads 149925
Core_1_LLC_load_hit 62278
Core_1_LLC_load_miss 87647
Core_1_LLC_RFOs 49350
Core_1_LLC_RFO_hit 49
Core_1_LLC_RFO_miss 49301
Core_1_LLC_prefetches 497647
Core_1_LLC_prefetch_hit 368516
Core_1_LLC_prefetch_miss 129131
Core_1_LLC_writebacks 154594
Core_1_LLC_writeback_hit 150031
Core_1_LLC_writeback_miss 4563


CPU 2 cumulative IPC: 0.55814 instructions: 27000000 cycles: 48374621
Core_2_L1D_total_access 7494815
Core_2_L1D_total_hit 6497437
Core_2_L1D_total_miss 997378
Core_2_L1D_loads 6673804
Core_2_L1D_load_hit 5726567
Core_2_L1D_load_miss 947237
Core_2_L1D_RFOs 821011
Core_2_L1D_RFO_hit 770870
Core_2_L1D_RFO_miss 50141
Core_2_L1D_prefetches 0
Core_2_L1D_prefetch_hit 0
Core_2_L1D_prefetch_miss 0
Core_2_L1D_writebacks 0
Core_2_L1D_writeback_hit 0
Core_2_L1D_writeback_miss 0

Core_2_L1I_total_access 3654982
Core_2_L1I_total_hit 3650256
Core_2_L1I_total_miss 4726
Core_2_L1I_loads 3654982
Core_2_L1I_load_hit 3650256
Core_2_L1I_load_miss 4726
Core_2_L1I_RFOs 0
Core_2_L1I_RFO_hit 0
Core_2_L1I_RFO_miss 0
Core_2_L1I_prefetches 0
Core_2_L1I_prefetch_hit 0
Core_2_L1I_prefetch_miss 0
Core_2_L1I_writebacks 0
Core_2_L1I_writeback_hit 0
Core_2_L1I_writeback_miss 0

Core_2_L2C_total_access 3067915
Core_2_L2C_total_hit 2795795
Core_2_L2C_total_miss 272120
Core_2_L2C_loads 951964
Core_2_L2C_load_hit 757597
Core_2_L2C_load_miss 194367
Core_2_L2C_RFOs 50141
Core_2_L2C_RFO_hit 791
Core_2_L2C_RFO_miss 49350
Core_2_L2C_prefetches 1889515
Core_2_L2C_prefetch_hit 1861132
Core_2_L2C_prefetch_miss 28383
Core_2_L2C_writebacks 176295
Core_2_L2C_writeback_hit 176275
Core_2_L2C_writeback_miss 20

 All Calls: 4214913
 Critical Calls: 4214913
------------------
Depth Distribution
------------------
depth 0: 0
depth 1: 3372280
depth 2: 3115533
depth 3: 2854496
depth 4: 2562852
depth 5: 2150208
depth 6: 1633089
depth 7: 1122268
depth 8: 759367
depth 9: 534861
depth 10: 361628
depth 11: 229211
depth 12: 117093
depth 13: 43719
depth 14: 395
depth 15: 380
depth 16: 0
depth 17: 0
depth 18: 0
depth 19: 0
depth 20: 0
depth 21: 0
depth 22: 0
depth 23: 0
depth 24: 0
depth 25: 0
depth 26: 0
depth 27: 0
depth 28: 0
depth 29: 0
Total: 18857380
-----------------------------
-----------------------------
	Captured at Filter
-----------------------------
depth 0: 0
depth 1: 514524
depth 2: 462972
depth 3: 416743
depth 4: 354149
depth 5: 272378
depth 6: 165645
depth 7: 66376
depth 8: 24467
depth 9: 6799
depth 10: 3908
depth 11: 2235
depth 12: 1052
depth 13: 380
depth 14: 5
depth 15: 5
depth 16: 0
depth 17: 0
depth 18: 0
depth 19: 0
depth 20: 0
depth 21: 0
depth 22: 0
depth 23: 0
depth 24: 0
depth 25: 0
depth 26: 0
depth 27: 0
depth 28: 0
depth 29: 0
-----------------------------
-----------------------------
		Lost at Page
-----------------------------
depth 0: 0
depth 1: 213315
depth 2: 346062
depth 3: 492021
depth 4: 609182
depth 5: 688225
depth 6: 688878
depth 7: 528271
depth 8: 349239
depth 9: 116384
depth 10: 72729
depth 11: 51083
depth 12: 30410
depth 13: 12794
depth 14: 152
depth 15: 159
depth 16: 0
depth 17: 0
depth 18: 0
depth 19: 0
depth 20: 0
depth 21: 0
depth 22: 0
depth 23: 0
depth 24: 0
depth 25: 0
depth 26: 0
depth 27: 0
depth 28: 0
depth 29: 0
-----------------------------
-----------------------------
	Lost due to PQ Size
-----------------------------
1263363
-----------------------------
ST read accesses: 3978840
ST write accesses: 59317
PT read accesses: 152508130
PT write accesses: 5928767
FILTER read accesses: 26535622
FILTER write accesses: 4365384
GHR read accesses: 26672063
GHR write accesses: 4100289
GHR counter read accesses: 125771718
GHR counter write accesses: 7369558
ST tag read accesses: 1580516315
ST tag write accesses: 39789481
Core_2_LLC_total_access 848161
Core_2_LLC_total_hit 579840
Core_2_LLC_total_miss 268321
Core_2_LLC_loads 148939
Core_2_LLC_load_hit 61223
Core_2_LLC_load_miss 87716
Core_2_LLC_RFOs 49350
Core_2_LLC_RFO_hit 46
Core_2_LLC_RFO_miss 49304
Core_2_LLC_prefetches 497981
Core_2_LLC_prefetch_hit 369166
Core_2_LLC_prefetch_miss 128815
Core_2_LLC_writebacks 151891
Core_2_LLC_writeback_hit 149405
Core_2_LLC_writeback_miss 2486


CPU 3 cumulative IPC: 0.60036 instructions: 29042286 cycles: 48374621
Core_3_L1D_total_access 8040905
Core_3_L1D_total_hit 6910165
Core_3_L1D_total_miss 1130740
Core_3_L1D_loads 7215072
Core_3_L1D_load_hit 6134521
Core_3_L1D_load_miss 1080551
Core_3_L1D_RFOs 825833
Core_3_L1D_RFO_hit 775644
Core_3_L1D_RFO_miss 50189
Core_3_L1D_prefetches 0
Core_3_L1D_prefetch_hit 0
Core_3_L1D_prefetch_miss 0
Core_3_L1D_writebacks 0
Core_3_L1D_writeback_hit 0
Core_3_L1D_writeback_miss 0

Core_3_L1I_total_access 3853425
Core_3_L1I_total_hit 3848703
Core_3_L1I_total_miss 4722
Core_3_L1I_loads 3853425
Core_3_L1I_load_hit 3848703
Core_3_L1I_load_miss 4722
Core_3_L1I_RFOs 0
Core_3_L1I_RFO_hit 0
Core_3_L1I_RFO_miss 0
Core_3_L1I_prefetches 0
Core_3_L1I_prefetch_hit 0
Core_3_L1I_prefetch_miss 0
Core_3_L1I_writebacks 0
Core_3_L1I_writeback_hit 0
Core_3_L1I_writeback_miss 0

Core_3_L2C_total_access 3376354
Core_3_L2C_total_hit 3092099
Core_3_L2C_total_miss 284255
Core_3_L2C_loads 1085273
Core_3_L2C_load_hit 880063
Core_3_L2C_load_miss 205210
Core_3_L2C_RFOs 50189
Core_3_L2C_RFO_hit 831
Core_3_L2C_RFO_miss 49358
Core_3_L2C_prefetches 2062428
Core_3_L2C_prefetch_hit 2032747
Core_3_L2C_prefetch_miss 29681
Core_3_L2C_writebacks 178464
Core_3_L2C_writeback_hit 178458
Core_3_L2C_writeback_miss 6

 All Calls: 4214913
 Critical Calls: 4214913
------------------
Depth Distribution
------------------
depth 0: 0
depth 1: 3372280
depth 2: 3115533
depth 3: 2854496
depth 4: 2562852
depth 5: 2150208
depth 6: 1633089
depth 7: 1122268
depth 8: 759367
depth 9: 534861
depth 10: 361628
depth 11: 229211
depth 12: 117093
depth 13: 43719
depth 14: 395
depth 15: 380
depth 16: 0
depth 17: 0
depth 18: 0
depth 19: 0
depth 20: 0
depth 21: 0
depth 22: 0
depth 23: 0
depth 24: 0
depth 25: 0
depth 26: 0
depth 27: 0
depth 28: 0
depth 29: 0
Total: 18857380
-----------------------------
-----------------------------
	Captured at Filter
-----------------------------
depth 0: 0
depth 1: 514524
depth 2: 462972
depth 3: 416743
depth 4: 354149
depth 5: 272378
depth 6: 165645
depth 7: 66376
depth 8: 24467
depth 9: 6799
depth 10: 3908
depth 11: 2235
depth 12: 1052
depth 13: 380
depth 14: 5
depth 15: 5
depth 16: 0
depth 17: 0
depth 18: 0
depth 19: 0
depth 20: 0
depth 21: 0
depth 22: 0
depth 23: 0
depth 24: 0
depth 25: 0
depth 26: 0
depth 27: 0
depth 28: 0
depth 29: 0
-----------------------------
-----------------------------
		Lost at Page
-----------------------------
depth 0: 0
depth 1: 213315
depth 2: 346062
depth 3: 492021
depth 4: 609182
depth 5: 688225
depth 6: 688878
depth 7: 528271
depth 8: 349239
depth 9: 116384
depth 10: 72729
depth 11: 51083
depth 12: 30410
depth 13: 12794
depth 14: 152
depth 15: 159
depth 16: 0
depth 17: 0
depth 18: 0
depth 19: 0
depth 20: 0
depth 21: 0
depth 22: 0
depth 23: 0
depth 24: 0
depth 25: 0
depth 26: 0
depth 27: 0
depth 28: 0
depth 29: 0
-----------------------------
-----------------------------
	Lost due to PQ Size
-----------------------------
1263363
-----------------------------
ST read accesses: 3978840
ST write accesses: 59317
PT read accesses: 152508130
PT write accesses: 5928767
FILTER read accesses: 26535622
FILTER write accesses: 4365384
GHR read accesses: 26672063
GHR write accesses: 4100289
GHR counter read accesses: 125771718
GHR counter write accesses: 7369558
ST tag read accesses: 1580516315
ST tag write accesses: 39789481
Core_3_LLC_total_access 880639
Core_3_LLC_total_hit 605812
Core_3_LLC_total_miss 274827
Core_3_LLC_loads 162529
Core_3_LLC_load_hit 74080
Core_3_LLC_load_miss 88449
Core_3_LLC_RFOs 49358
Core_3_LLC_RFO_hit 69
Core_3_LLC_RFO_miss 49289
Core_3_LLC_prefetches 513014
Core_3_LLC_prefetch_hit 379478
Core_3_LLC_prefetch_miss 133536
Core_3_LLC_writebacks 155738
Core_3_LLC_writeback_hit 152185
Core_3_LLC_writeback_miss 3553


[ROI Statistics]
Core_0_instructions 27000003
Core_0_cycles 47386067
Core_0_IPC 0.56979

Core_0_branch_prediction_accuracy 98.38903
Core_0_branch_MPKI 0.51089
Core_0_average_ROB_occupancy_at_mispredict 337.14857

Core_0_L1D_total_access 7493826
Core_0_L1D_total_hit 6496458 L1D_total_Hit Ratio: 0.86691
Core_0_L1D_total_miss 997368
Core_0_L1D_loads 6672912
Core_0_L1D_load_hit 5725687 L1D_load_Hit Ratio: 0.85805
Core_0_L1D_load_miss 947225
Core_0_L1D_RFOs 820914
Core_0_L1D_RFO_hit 770771 L1D_RFO_Hit Ratio: 0.93892
Core_0_L1D_RFO_miss 50143
Core_0_L1D_prefetches 0
Core_0_L1D_prefetch_hit 0 L1D_prefetch_Hit Ratio: -nan
Core_0_L1D_prefetch_miss 0
Core_0_L1D_writebacks 0
Core_0_L1D_writeback_hit 0 L1D_writeback_Hit Ratio: -nan
Core_0_L1D_writeback_miss 0
Core_0_L1D_prefetch_requested 0
Core_0_L1D_prefetch_issued 0
Core_0_L1D_prefetch_useful 0 L1D_Useful Ratio: -nan
Core_0_L1D_prefetch_useless 0
Core_0_L1D_prefetch_late 0
Core_0_L1D_average_miss_latency 151.07298

Core_0_L1I_total_access 3654376
Core_0_L1I_total_hit 3649650 L1I_total_Hit Ratio: 0.99871
Core_0_L1I_total_miss 4726
Core_0_L1I_loads 3654376
Core_0_L1I_load_hit 3649650 L1I_load_Hit Ratio: 0.99871
Core_0_L1I_load_miss 4726
Core_0_L1I_RFOs 0
Core_0_L1I_RFO_hit 0 L1I_RFO_Hit Ratio: -nan
Core_0_L1I_RFO_miss 0
Core_0_L1I_prefetches 0
Core_0_L1I_prefetch_hit 0 L1I_prefetch_Hit Ratio: -nan
Core_0_L1I_prefetch_miss 0
Core_0_L1I_writebacks 0
Core_0_L1I_writeback_hit 0 L1I_writeback_Hit Ratio: -nan
Core_0_L1I_writeback_miss 0
Core_0_L1I_prefetch_requested 0
Core_0_L1I_prefetch_issued 0
Core_0_L1I_prefetch_useful 0 L1I_Useful Ratio: -nan
Core_0_L1I_prefetch_useless 0
Core_0_L1I_prefetch_late 0
Core_0_L1I_average_miss_latency 737.75032

Core_0_L2C_total_access 3055508
Core_0_L2C_total_hit 2783395 L2C_total_Hit Ratio: 0.91094
Core_0_L2C_total_miss 272113
Core_0_L2C_loads 951954
Core_0_L2C_load_hit 757588 L2C_load_Hit Ratio: 0.79582
Core_0_L2C_load_miss 194366
Core_0_L2C_RFOs 50143
Core_0_L2C_RFO_hit 788 L2C_RFO_Hit Ratio: 0.01572
Core_0_L2C_RFO_miss 49355
Core_0_L2C_prefetches 1877116
Core_0_L2C_prefetch_hit 1848730 L2C_prefetch_Hit Ratio: 0.98488
Core_0_L2C_prefetch_miss 28386
Core_0_L2C_writebacks 176295
Core_0_L2C_writeback_hit 176289 L2C_writeback_Hit Ratio: 0.99997
Core_0_L2C_writeback_miss 6
Core_0_L2C_prefetch_requested 5134008
Core_0_L2C_prefetch_issued 4809744
Core_0_L2C_prefetch_useful 30503 L2C_Useful Ratio: 0.00634
Core_0_L2C_prefetch_useless 198
Core_0_L2C_prefetch_late 44228
Core_0_L2C_average_miss_latency 521.58697

Core_0_LLC_total_access 850402
Core_0_LLC_total_hit 584102 LLC_total_Hit Ratio: 0.68685
Core_0_LLC_total_miss 266300
Core_0_LLC_loads 150926
Core_0_LLC_load_hit 64139 LLC_load_Hit Ratio: 0.42497
Core_0_LLC_load_miss 86787
Core_0_LLC_RFOs 49355
Core_0_LLC_RFO_hit 57 LLC_RFO_Hit Ratio: 0.00115
Core_0_LLC_RFO_miss 49298
Core_0_LLC_prefetches 495112
Core_0_LLC_prefetch_hit 367039 LLC_prefetch_Hit Ratio: 0.74133
Core_0_LLC_prefetch_miss 128073
Core_0_LLC_writebacks 155009
Core_0_LLC_writeback_hit 152867 LLC_writeback_Hit Ratio: 0.98618
Core_0_LLC_writeback_miss 2142
Core_0_LLC_prefetch_requested 0
Core_0_LLC_prefetch_issued 0
Core_0_LLC_prefetch_useful 260087 LLC_Useful Ratio: inf
Core_0_LLC_prefetch_useless 260040
Core_0_LLC_prefetch_late 108201
Core_0_LLC_average_miss_latency 3044.32655

Core_0_major_page_fault 0
Core_0_minor_page_fault 3208

Core_1_instructions 27000000
Core_1_cycles 48243526
Core_1_IPC 0.55966

Core_1_branch_prediction_accuracy 98.37953
Core_1_branch_MPKI 0.53175
Core_1_average_ROB_occupancy_at_mispredict 336.90510

Core_1_L1D_total_access 7495248
Core_1_L1D_total_hit 6497888 L1D_total_Hit Ratio: 0.86693
Core_1_L1D_total_miss 997360
Core_1_L1D_loads 6674170
Core_1_L1D_load_hit 5726952 L1D_load_Hit Ratio: 0.85808
Core_1_L1D_load_miss 947218
Core_1_L1D_RFOs 821078
Core_1_L1D_RFO_hit 770936 L1D_RFO_Hit Ratio: 0.93893
Core_1_L1D_RFO_miss 50142
Core_1_L1D_prefetches 0
Core_1_L1D_prefetch_hit 0 L1D_prefetch_Hit Ratio: -nan
Core_1_L1D_prefetch_miss 0
Core_1_L1D_writebacks 0
Core_1_L1D_writeback_hit 0 L1D_writeback_Hit Ratio: -nan
Core_1_L1D_writeback_miss 0
Core_1_L1D_prefetch_requested 0
Core_1_L1D_prefetch_issued 0
Core_1_L1D_prefetch_useful 0 L1D_Useful Ratio: -nan
Core_1_L1D_prefetch_useless 0
Core_1_L1D_prefetch_late 0
Core_1_L1D_average_miss_latency 149.70519

Core_1_L1I_total_access 3653448
Core_1_L1I_total_hit 3648726 L1I_total_Hit Ratio: 0.99871
Core_1_L1I_total_miss 4722
Core_1_L1I_loads 3653448
Core_1_L1I_load_hit 3648726 L1I_load_Hit Ratio: 0.99871
Core_1_L1I_load_miss 4722
Core_1_L1I_RFOs 0
Core_1_L1I_RFO_hit 0 L1I_RFO_Hit Ratio: -nan
Core_1_L1I_RFO_miss 0
Core_1_L1I_prefetches 0
Core_1_L1I_prefetch_hit 0 L1I_prefetch_Hit Ratio: -nan
Core_1_L1I_prefetch_miss 0
Core_1_L1I_writebacks 0
Core_1_L1I_writeback_hit 0 L1I_writeback_Hit Ratio: -nan
Core_1_L1I_writeback_miss 0
Core_1_L1I_prefetch_requested 0
Core_1_L1I_prefetch_issued 0
Core_1_L1I_prefetch_useful 0 L1I_Useful Ratio: -nan
Core_1_L1I_prefetch_useless 0
Core_1_L1I_prefetch_late 0
Core_1_L1I_average_miss_latency 1073.37082

Core_1_L2C_total_access 3063249
Core_1_L2C_total_hit 2791184 L2C_total_Hit Ratio: 0.91118
Core_1_L2C_total_miss 272065
Core_1_L2C_loads 951940
Core_1_L2C_load_hit 757596 L2C_load_Hit Ratio: 0.79584
Core_1_L2C_load_miss 194344
Core_1_L2C_RFOs 50142
Core_1_L2C_RFO_hit 792 L2C_RFO_Hit Ratio: 0.01580
Core_1_L2C_RFO_miss 49350
Core_1_L2C_prefetches 1884872
Core_1_L2C_prefetch_hit 1856507 L2C_prefetch_Hit Ratio: 0.98495
Core_1_L2C_prefetch_miss 28365
Core_1_L2C_writebacks 176295
Core_1_L2C_writeback_hit 176289 L2C_writeback_Hit Ratio: 0.99997
Core_1_L2C_writeback_miss 6
Core_1_L2C_prefetch_requested 4872262
Core_1_L2C_prefetch_issued 4572633
Core_1_L2C_prefetch_useful 29759 L2C_Useful Ratio: 0.00651
Core_1_L2C_prefetch_useless 169
Core_1_L2C_prefetch_late 45434
Core_1_L2C_average_miss_latency 526.73263

Core_1_LLC_total_access 849632
Core_1_LLC_total_hit 579910 LLC_total_Hit Ratio: 0.68254
Core_1_LLC_total_miss 269722
Core_1_LLC_loads 149154
Core_1_LLC_load_hit 61868 LLC_load_Hit Ratio: 0.41479
Core_1_LLC_load_miss 87286
Core_1_LLC_RFOs 49350
Core_1_LLC_RFO_hit 49 LLC_RFO_Hit Ratio: 0.00099
Core_1_LLC_RFO_miss 49301
Core_1_LLC_prefetches 496599
Core_1_LLC_prefetch_hit 368027 LLC_prefetch_Hit Ratio: 0.74109
Core_1_LLC_prefetch_miss 128572
Core_1_LLC_writebacks 154529
Core_1_LLC_writeback_hit 149966 LLC_writeback_Hit Ratio: 0.97047
Core_1_LLC_writeback_miss 4563
Core_1_LLC_prefetch_requested 0
Core_1_LLC_prefetch_issued 0
Core_1_LLC_prefetch_useful 260087 LLC_Useful Ratio: inf
Core_1_LLC_prefetch_useless 260040
Core_1_LLC_prefetch_late 108201
Core_1_LLC_average_miss_latency 3005.70276

Core_1_major_page_fault 0
Core_1_minor_page_fault 3173

Core_2_instructions 27000000
Core_2_cycles 48374621
Core_2_IPC 0.55814

Core_2_branch_prediction_accuracy 98.37821
Core_2_branch_MPKI 0.53455
Core_2_average_ROB_occupancy_at_mispredict 337.09166

Core_2_L1D_total_access 7494815
Core_2_L1D_total_hit 6497437 L1D_total_Hit Ratio: 0.86692
Core_2_L1D_total_miss 997378
Core_2_L1D_loads 6673804
Core_2_L1D_load_hit 5726567 L1D_load_Hit Ratio: 0.85807
Core_2_L1D_load_miss 947237
Core_2_L1D_RFOs 821011
Core_2_L1D_RFO_hit 770870 L1D_RFO_Hit Ratio: 0.93893
Core_2_L1D_RFO_miss 50141
Core_2_L1D_prefetches 0
Core_2_L1D_prefetch_hit 0 L1D_prefetch_Hit Ratio: -nan
Core_2_L1D_prefetch_miss 0
Core_2_L1D_writebacks 0
Core_2_L1D_writeback_hit 0 L1D_writeback_Hit Ratio: -nan
Core_2_L1D_writeback_miss 0
Core_2_L1D_prefetch_requested 0
Core_2_L1D_prefetch_issued 0
Core_2_L1D_prefetch_useful 0 L1D_Useful Ratio: -nan
Core_2_L1D_prefetch_useless 0
Core_2_L1D_prefetch_late 0
Core_2_L1D_average_miss_latency 149.13879

Core_2_L1I_total_access 3654982
Core_2_L1I_total_hit 3650256 L1I_total_Hit Ratio: 0.99871
Core_2_L1I_total_miss 4726
Core_2_L1I_loads 3654982
Core_2_L1I_load_hit 3650256 L1I_load_Hit Ratio: 0.99871
Core_2_L1I_load_miss 4726
Core_2_L1I_RFOs 0
Core_2_L1I_RFO_hit 0 L1I_RFO_Hit Ratio: -nan
Core_2_L1I_RFO_miss 0
Core_2_L1I_prefetches 0
Core_2_L1I_prefetch_hit 0 L1I_prefetch_Hit Ratio: -nan
Core_2_L1I_prefetch_miss 0
Core_2_L1I_writebacks 0
Core_2_L1I_writeback_hit 0 L1I_writeback_Hit Ratio: -nan
Core_2_L1I_writeback_miss 0
Core_2_L1I_prefetch_requested 0
Core_2_L1I_prefetch_issued 0
Core_2_L1I_prefetch_useful 0 L1I_Useful Ratio: -nan
Core_2_L1I_prefetch_useless 0
Core_2_L1I_prefetch_late 0
Core_2_L1I_average_miss_latency 1061.11553

Core_2_L2C_total_access 3067915
Core_2_L2C_total_hit 2795795 L2C_total_Hit Ratio: 0.91130
Core_2_L2C_total_miss 272120
Core_2_L2C_loads 951964
Core_2_L2C_load_hit 757597 L2C_load_Hit Ratio: 0.79583
Core_2_L2C_load_miss 194367
Core_2_L2C_RFOs 50141
Core_2_L2C_RFO_hit 791 L2C_RFO_Hit Ratio: 0.01578
Core_2_L2C_RFO_miss 49350
Core_2_L2C_prefetches 1889515
Core_2_L2C_prefetch_hit 1861132 L2C_prefetch_Hit Ratio: 0.98498
Core_2_L2C_prefetch_miss 28383
Core_2_L2C_writebacks 176295
Core_2_L2C_writeback_hit 176275 L2C_writeback_Hit Ratio: 0.99989
Core_2_L2C_writeback_miss 20
Core_2_L2C_prefetch_requested 4844901
Core_2_L2C_prefetch_issued 4545796
Core_2_L2C_prefetch_useful 29709 L2C_Useful Ratio: 0.00654
Core_2_L2C_prefetch_useless 162
Core_2_L2C_prefetch_late 45632
Core_2_L2C_average_miss_latency 524.64432

Core_2_LLC_total_access 848161
Core_2_LLC_total_hit 579840 LLC_total_Hit Ratio: 0.68364
Core_2_LLC_total_miss 268321
Core_2_LLC_loads 148939
Core_2_LLC_load_hit 61223 LLC_load_Hit Ratio: 0.41106
Core_2_LLC_load_miss 87716
Core_2_LLC_RFOs 49350
Core_2_LLC_RFO_hit 46 LLC_RFO_Hit Ratio: 0.00093
Core_2_LLC_RFO_miss 49304
Core_2_LLC_prefetches 497981
Core_2_LLC_prefetch_hit 369166 LLC_prefetch_Hit Ratio: 0.74133
Core_2_LLC_prefetch_miss 128815
Core_2_LLC_writebacks 151891
Core_2_LLC_writeback_hit 149405 LLC_writeback_Hit Ratio: 0.98363
Core_2_LLC_writeback_miss 2486
Core_2_LLC_prefetch_requested 0
Core_2_LLC_prefetch_issued 0
Core_2_LLC_prefetch_useful 260087 LLC_Useful Ratio: inf
Core_2_LLC_prefetch_useless 260040
Core_2_LLC_prefetch_late 108201
Core_2_LLC_average_miss_latency 3021.39661

Core_2_major_page_fault 0
Core_2_minor_page_fault 3170

Core_3_instructions 27000001
Core_3_cycles 46764958
Core_3_IPC 0.57736

Core_3_branch_prediction_accuracy 98.39455
Core_3_branch_MPKI 0.49936
Core_3_average_ROB_occupancy_at_mispredict 337.46190

Core_3_L1D_total_access 7494207
Core_3_L1D_total_hit 6496801 L1D_total_Hit Ratio: 0.86691
Core_3_L1D_total_miss 997406
Core_3_L1D_loads 6673288
Core_3_L1D_load_hit 5726025 L1D_load_Hit Ratio: 0.85805
Core_3_L1D_load_miss 947263
Core_3_L1D_RFOs 820919
Core_3_L1D_RFO_hit 770776 L1D_RFO_Hit Ratio: 0.93892
Core_3_L1D_RFO_miss 50143
Core_3_L1D_prefetches 0
Core_3_L1D_prefetch_hit 0 L1D_prefetch_Hit Ratio: -nan
Core_3_L1D_prefetch_miss 0
Core_3_L1D_writebacks 0
Core_3_L1D_writeback_hit 0 L1D_writeback_Hit Ratio: -nan
Core_3_L1D_writeback_miss 0
Core_3_L1D_prefetch_requested 0
Core_3_L1D_prefetch_issued 0
Core_3_L1D_prefetch_useful 0 L1D_Useful Ratio: -nan
Core_3_L1D_prefetch_useless 0
Core_3_L1D_prefetch_late 0
Core_3_L1D_average_miss_latency 145.64038

Core_3_L1I_total_access 3653746
Core_3_L1I_total_hit 3649024 L1I_total_Hit Ratio: 0.99871
Core_3_L1I_total_miss 4722
Core_3_L1I_loads 3653746
Core_3_L1I_load_hit 3649024 L1I_load_Hit Ratio: 0.99871
Core_3_L1I_load_miss 4722
Core_3_L1I_RFOs 0
Core_3_L1I_RFO_hit 0 L1I_RFO_Hit Ratio: -nan
Core_3_L1I_RFO_miss 0
Core_3_L1I_prefetches 0
Core_3_L1I_prefetch_hit 0 L1I_prefetch_Hit Ratio: -nan
Core_3_L1I_prefetch_miss 0
Core_3_L1I_writebacks 0
Core_3_L1I_writeback_hit 0 L1I_writeback_Hit Ratio: -nan
Core_3_L1I_writeback_miss 0
Core_3_L1I_prefetch_requested 0
Core_3_L1I_prefetch_issued 0
Core_3_L1I_prefetch_useful 0 L1I_Useful Ratio: -nan
Core_3_L1I_prefetch_useless 0
Core_3_L1I_prefetch_late 0
Core_3_L1I_average_miss_latency 711.60504

Core_3_L2C_total_access 3041938
Core_3_L2C_total_hit 2769796 L2C_total_Hit Ratio: 0.91054
Core_3_L2C_total_miss 272142
Core_3_L2C_loads 951987
Core_3_L2C_load_hit 757591 L2C_load_Hit Ratio: 0.79580
Core_3_L2C_load_miss 194396
Core_3_L2C_RFOs 50143
Core_3_L2C_RFO_hit 785 L2C_RFO_Hit Ratio: 0.01566
Core_3_L2C_RFO_miss 49358
Core_3_L2C_prefetches 1863519
Core_3_L2C_prefetch_hit 1835137 L2C_prefetch_Hit Ratio: 0.98477
Core_3_L2C_prefetch_miss 28382
Core_3_L2C_writebacks 176289
Core_3_L2C_writeback_hit 176283 L2C_writeback_Hit Ratio: 0.99997
Core_3_L2C_writeback_miss 6
Core_3_L2C_prefetch_requested 5269572
Core_3_L2C_prefetch_issued 4929207
Core_3_L2C_prefetch_useful 31032 L2C_Useful Ratio: 0.00630
Core_3_L2C_prefetch_useless 246
Core_3_L2C_prefetch_late 42844
Core_3_L2C_average_miss_latency 498.96907

Core_3_LLC_total_access 852476
Core_3_LLC_total_hit 589830 LLC_total_Hit Ratio: 0.69190
Core_3_LLC_total_miss 262646
Core_3_LLC_loads 152850
Core_3_LLC_load_hit 68568 LLC_load_Hit Ratio: 0.44860
Core_3_LLC_load_miss 84282
Core_3_LLC_RFOs 49358
Core_3_LLC_RFO_hit 69 LLC_RFO_Hit Ratio: 0.00140
Core_3_LLC_RFO_miss 49289
Core_3_LLC_prefetches 495967
Core_3_LLC_prefetch_hit 370385 LLC_prefetch_Hit Ratio: 0.74679
Core_3_LLC_prefetch_miss 125582
Core_3_LLC_writebacks 154301
Core_3_LLC_writeback_hit 150808 LLC_writeback_Hit Ratio: 0.97736
Core_3_LLC_writeback_miss 3493
Core_3_LLC_prefetch_requested 0
Core_3_LLC_prefetch_issued 0
Core_3_LLC_prefetch_useful 260087 LLC_Useful Ratio: inf
Core_3_LLC_prefetch_useless 260040
Core_3_LLC_prefetch_late 108201
Core_3_LLC_average_miss_latency 3086.68001

Core_3_major_page_fault 0
Core_3_minor_page_fault 3233

 All Calls: 4214913
 Critical Calls: 4214913
------------------
Depth Distribution
------------------
depth 0: 0
depth 1: 3372280
depth 2: 3115533
depth 3: 2854496
depth 4: 2562852
depth 5: 2150208
depth 6: 1633089
depth 7: 1122268
depth 8: 759367
depth 9: 534861
depth 10: 361628
depth 11: 229211
depth 12: 117093
depth 13: 43719
depth 14: 395
depth 15: 380
depth 16: 0
depth 17: 0
depth 18: 0
depth 19: 0
depth 20: 0
depth 21: 0
depth 22: 0
depth 23: 0
depth 24: 0
depth 25: 0
depth 26: 0
depth 27: 0
depth 28: 0
depth 29: 0
Total: 18857380
-----------------------------
-----------------------------
	Captured at Filter
-----------------------------
depth 0: 0
depth 1: 514524
depth 2: 462972
depth 3: 416743
depth 4: 354149
depth 5: 272378
depth 6: 165645
depth 7: 66376
depth 8: 24467
depth 9: 6799
depth 10: 3908
depth 11: 2235
depth 12: 1052
depth 13: 380
depth 14: 5
depth 15: 5
depth 16: 0
depth 17: 0
depth 18: 0
depth 19: 0
depth 20: 0
depth 21: 0
depth 22: 0
depth 23: 0
depth 24: 0
depth 25: 0
depth 26: 0
depth 27: 0
depth 28: 0
depth 29: 0
-----------------------------
-----------------------------
		Lost at Page
-----------------------------
depth 0: 0
depth 1: 213315
depth 2: 346062
depth 3: 492021
depth 4: 609182
depth 5: 688225
depth 6: 688878
depth 7: 528271
depth 8: 349239
depth 9: 116384
depth 10: 72729
depth 11: 51083
depth 12: 30410
depth 13: 12794
depth 14: 152
depth 15: 159
depth 16: 0
depth 17: 0
depth 18: 0
depth 19: 0
depth 20: 0
depth 21: 0
depth 22: 0
depth 23: 0
depth 24: 0
depth 25: 0
depth 26: 0
depth 27: 0
depth 28: 0
depth 29: 0
-----------------------------
-----------------------------
	Lost due to PQ Size
-----------------------------
1263363
-----------------------------
ST read accesses: 3978840
ST write accesses: 59317
PT read accesses: 152508130
PT write accesses: 5928767
FILTER read accesses: 26535622
FILTER write accesses: 4365384
GHR read accesses: 26672063
GHR write accesses: 4100289
GHR counter read accesses: 125771718
GHR counter write accesses: 7369558
ST tag read accesses: 1580516315
ST tag write accesses: 39789481
 All Calls: 4214913
 Critical Calls: 4214913
------------------
Depth Distribution
------------------
depth 0: 0
depth 1: 3372280
depth 2: 3115533
depth 3: 2854496
depth 4: 2562852
depth 5: 2150208
depth 6: 1633089
depth 7: 1122268
depth 8: 759367
depth 9: 534861
depth 10: 361628
depth 11: 229211
depth 12: 117093
depth 13: 43719
depth 14: 395
depth 15: 380
depth 16: 0
depth 17: 0
depth 18: 0
depth 19: 0
depth 20: 0
depth 21: 0
depth 22: 0
depth 23: 0
depth 24: 0
depth 25: 0
depth 26: 0
depth 27: 0
depth 28: 0
depth 29: 0
Total: 18857380
-----------------------------
-----------------------------
	Captured at Filter
-----------------------------
depth 0: 0
depth 1: 514524
depth 2: 462972
depth 3: 416743
depth 4: 354149
depth 5: 272378
depth 6: 165645
depth 7: 66376
depth 8: 24467
depth 9: 6799
depth 10: 3908
depth 11: 2235
depth 12: 1052
depth 13: 380
depth 14: 5
depth 15: 5
depth 16: 0
depth 17: 0
depth 18: 0
depth 19: 0
depth 20: 0
depth 21: 0
depth 22: 0
depth 23: 0
depth 24: 0
depth 25: 0
depth 26: 0
depth 27: 0
depth 28: 0
depth 29: 0
-----------------------------
-----------------------------
		Lost at Page
-----------------------------
depth 0: 0
depth 1: 213315
depth 2: 346062
depth 3: 492021
depth 4: 609182
depth 5: 688225
depth 6: 688878
depth 7: 528271
depth 8: 349239
depth 9: 116384
depth 10: 72729
depth 11: 51083
depth 12: 30410
depth 13: 12794
depth 14: 152
depth 15: 159
depth 16: 0
depth 17: 0
depth 18: 0
depth 19: 0
depth 20: 0
depth 21: 0
depth 22: 0
depth 23: 0
depth 24: 0
depth 25: 0
depth 26: 0
depth 27: 0
depth 28: 0
depth 29: 0
-----------------------------
-----------------------------
	Lost due to PQ Size
-----------------------------
1263363
-----------------------------
ST read accesses: 3978840
ST write accesses: 59317
PT read accesses: 152508130
PT write accesses: 5928767
FILTER read accesses: 26535622
FILTER write accesses: 4365384
GHR read accesses: 26672063
GHR write accesses: 4100289
GHR counter read accesses: 125771718
GHR counter write accesses: 7369558
ST tag read accesses: 1580516315
ST tag write accesses: 39789481
 All Calls: 4214913
 Critical Calls: 4214913
------------------
Depth Distribution
------------------
depth 0: 0
depth 1: 3372280
depth 2: 3115533
depth 3: 2854496
depth 4: 2562852
depth 5: 2150208
depth 6: 1633089
depth 7: 1122268
depth 8: 759367
depth 9: 534861
depth 10: 361628
depth 11: 229211
depth 12: 117093
depth 13: 43719
depth 14: 395
depth 15: 380
depth 16: 0
depth 17: 0
depth 18: 0
depth 19: 0
depth 20: 0
depth 21: 0
depth 22: 0
depth 23: 0
depth 24: 0
depth 25: 0
depth 26: 0
depth 27: 0
depth 28: 0
depth 29: 0
Total: 18857380
-----------------------------
-----------------------------
	Captured at Filter
-----------------------------
depth 0: 0
depth 1: 514524
depth 2: 462972
depth 3: 416743
depth 4: 354149
depth 5: 272378
depth 6: 165645
depth 7: 66376
depth 8: 24467
depth 9: 6799
depth 10: 3908
depth 11: 2235
depth 12: 1052
depth 13: 380
depth 14: 5
depth 15: 5
depth 16: 0
depth 17: 0
depth 18: 0
depth 19: 0
depth 20: 0
depth 21: 0
depth 22: 0
depth 23: 0
depth 24: 0
depth 25: 0
depth 26: 0
depth 27: 0
depth 28: 0
depth 29: 0
-----------------------------
-----------------------------
		Lost at Page
-----------------------------
depth 0: 0
depth 1: 213315
depth 2: 346062
depth 3: 492021
depth 4: 609182
depth 5: 688225
depth 6: 688878
depth 7: 528271
depth 8: 349239
depth 9: 116384
depth 10: 72729
depth 11: 51083
depth 12: 30410
depth 13: 12794
depth 14: 152
depth 15: 159
depth 16: 0
depth 17: 0
depth 18: 0
depth 19: 0
depth 20: 0
depth 21: 0
depth 22: 0
depth 23: 0
depth 24: 0
depth 25: 0
depth 26: 0
depth 27: 0
depth 28: 0
depth 29: 0
-----------------------------
-----------------------------
	Lost due to PQ Size
-----------------------------
1263363
-----------------------------
ST read accesses: 3978840
ST write accesses: 59317
PT read accesses: 152508130
PT write accesses: 5928767
FILTER read accesses: 26535622
FILTER write accesses: 4365384
GHR read accesses: 26672063
GHR write accesses: 4100289
GHR counter read accesses: 125771718
GHR counter write accesses: 7369558
ST tag read accesses: 1580516315
ST tag write accesses: 39789481
 All Calls: 4214913
 Critical Calls: 4214913
------------------
Depth Distribution
------------------
depth 0: 0
depth 1: 3372280
depth 2: 3115533
depth 3: 2854496
depth 4: 2562852
depth 5: 2150208
depth 6: 1633089
depth 7: 1122268
depth 8: 759367
depth 9: 534861
depth 10: 361628
depth 11: 229211
depth 12: 117093
depth 13: 43719
depth 14: 395
depth 15: 380
depth 16: 0
depth 17: 0
depth 18: 0
depth 19: 0
depth 20: 0
depth 21: 0
depth 22: 0
depth 23: 0
depth 24: 0
depth 25: 0
depth 26: 0
depth 27: 0
depth 28: 0
depth 29: 0
Total: 18857380
-----------------------------
-----------------------------
	Captured at Filter
-----------------------------
depth 0: 0
depth 1: 514524
depth 2: 462972
depth 3: 416743
depth 4: 354149
depth 5: 272378
depth 6: 165645
depth 7: 66376
depth 8: 24467
depth 9: 6799
depth 10: 3908
depth 11: 2235
depth 12: 1052
depth 13: 380
depth 14: 5
depth 15: 5
depth 16: 0
depth 17: 0
depth 18: 0
depth 19: 0
depth 20: 0
depth 21: 0
depth 22: 0
depth 23: 0
depth 24: 0
depth 25: 0
depth 26: 0
depth 27: 0
depth 28: 0
depth 29: 0
-----------------------------
-----------------------------
		Lost at Page
-----------------------------
depth 0: 0
depth 1: 213315
depth 2: 346062
depth 3: 492021
depth 4: 609182
depth 5: 688225
depth 6: 688878
depth 7: 528271
depth 8: 349239
depth 9: 116384
depth 10: 72729
depth 11: 51083
depth 12: 30410
depth 13: 12794
depth 14: 152
depth 15: 159
depth 16: 0
depth 17: 0
depth 18: 0
depth 19: 0
depth 20: 0
depth 21: 0
depth 22: 0
depth 23: 0
depth 24: 0
depth 25: 0
depth 26: 0
depth 27: 0
depth 28: 0
depth 29: 0
-----------------------------
-----------------------------
	Lost due to PQ Size
-----------------------------
1263363
-----------------------------
ST read accesses: 3978840
ST write accesses: 59317
PT read accesses: 152508130
PT write accesses: 5928767
FILTER read accesses: 26535622
FILTER write accesses: 4365384
GHR read accesses: 26672063
GHR write accesses: 4100289
GHR counter read accesses: 125771718
GHR counter write accesses: 7369558
ST tag read accesses: 1580516315
ST tag write accesses: 39789481
Channel_0_RQ_row_buffer_hit 497488
Channel_0_RQ_row_buffer_miss 577760
Channel_0_WQ_row_buffer_hit 166019
Channel_0_WQ_row_buffer_miss 410219
Channel_0_WQ_full 335
Channel_0_dbus_congested 1159211

avg_congested_cycle 11

EzSearch AVG IPC :0.56979: L2-Pf-HR :0.98488 : L2-HR :0.91446 Uful:0.00634
EzSearch AVG IPC :0.55966: L2-Pf-HR :0.98495 : L2-HR :0.91159 Uful:0.00651
EzSearch AVG IPC :0.55814: L2-Pf-HR :0.98498 : L2-HR :0.91130 Uful:0.00654
EzSearch AVG IPC :0.57736: L2-Pf-HR :0.98477 : L2-HR :0.91581 Uful:0.00630
     > Finished combination: TraceType=770-tot Sim:27000000 Prefetcher=L2spp_berti_src L1=no
