TRACE: [662000000][OPT-350M]_[h16][s1024][d64] Warmup: 2000000 NumTraces: 662000000
L1:next_line:L2:029-SecTOP-L2-MultiMarkovDelta_ip_stride_v4
*************************************************
   ChampSim Multicore Out-of-Order Simulator
   Last compiled: Oct 28 2024 13:52:20
*************************************************

trace_0 770-tot_memTraces_v3/memTraces[662000000][OPT-350M]_[h16][s1024][d64].champsim.xz
trace_1 770-tot_memTraces_v3/memTraces[662000000][OPT-350M]_[h16][s1024][d64].champsim.xz
trace_2 770-tot_memTraces_v3/memTraces[662000000][OPT-350M]_[h16][s1024][d64].champsim.xz
trace_3 770-tot_memTraces_v3/memTraces[662000000][OPT-350M]_[h16][s1024][d64].champsim.xz
CPU 0 L1D next line prefetcher
MK1: Size: 128 TMAX: 64 TMIN: 32 MKPTHRESH: 40
MK2: Size: 256 TMAX: 32 TMIN: 16 MK2PTHRESH: 20
MK3: Size: 384 TMAX: 16 TMIN: 8 MK3PTHRESH: 25
MK4: Size: 512 TMAX: 8 TMIN: 0 MK4PTHRESH: 20
Stride Size: 512 Prefetch Degree: 15

CPU 0 L2C prefetcher
CPU 1 L1D next line prefetcher
MK1: Size: 128 TMAX: 64 TMIN: 32 MKPTHRESH: 40
MK2: Size: 256 TMAX: 32 TMIN: 16 MK2PTHRESH: 20
MK3: Size: 384 TMAX: 16 TMIN: 8 MK3PTHRESH: 25
MK4: Size: 512 TMAX: 8 TMIN: 0 MK4PTHRESH: 20
Stride Size: 512 Prefetch Degree: 15

CPU 1 L2C prefetcher
CPU 2 L1D next line prefetcher
MK1: Size: 128 TMAX: 64 TMIN: 32 MKPTHRESH: 40
MK2: Size: 256 TMAX: 32 TMIN: 16 MK2PTHRESH: 20
MK3: Size: 384 TMAX: 16 TMIN: 8 MK3PTHRESH: 25
MK4: Size: 512 TMAX: 8 TMIN: 0 MK4PTHRESH: 20
Stride Size: 512 Prefetch Degree: 15

CPU 2 L2C prefetcher
CPU 3 L1D next line prefetcher
MK1: Size: 128 TMAX: 64 TMIN: 32 MKPTHRESH: 40
MK2: Size: 256 TMAX: 32 TMIN: 16 MK2PTHRESH: 20
MK3: Size: 384 TMAX: 16 TMIN: 8 MK3PTHRESH: 25
MK4: Size: 512 TMAX: 8 TMIN: 0 MK4PTHRESH: 20
Stride Size: 512 Prefetch Degree: 15

CPU 3 L2C prefetcher
MAIN.cc ln 751 stats print skipped
CPU 0 L2C prefetcher initialized


Cache Size: 1280
number of cache lines: 20480
CPU  3 inst:    1000001 cyc:     502356 now IPC :1.99062: AVG IPC :1.99062: L2-Pf-HR :0.71124: L2-HR :0.70610: (Sim:0h1m39s) 
CPU  1 inst:    1000001 cyc:     502708 now IPC :1.98923: AVG IPC :1.98923: L2-Pf-HR :0.70303: L2-HR :0.70065: (Sim:0h1m40s) 
CPU  0 inst:    1000001 cyc:     502808 now IPC :1.98883: AVG IPC :1.98883: L2-Pf-HR :0.79711: L2-HR :0.77622: (Sim:0h1m40s) 
CPU  2 inst:    1000001 cyc:     502992 now IPC :1.98811: AVG IPC :1.98811: L2-Pf-HR :0.71002: L2-HR :0.70798: (Sim:0h1m40s) 
CPU  3 inst:    2000000 cyc:     986437 now IPC :2.06577: AVG IPC :2.02750: L2-Pf-HR :0.78629: L2-HR :0.77649: (Sim:0h3m25s) 
CPU  1 inst:    2000000 cyc:     986792 now IPC :2.06576: AVG IPC :2.02677: L2-Pf-HR :0.77344: L2-HR :0.76638: (Sim:0h3m25s) 
CPU  0 inst:    2000000 cyc:     986885 now IPC :2.06578: AVG IPC :2.02658: L2-Pf-HR :0.83996: L2-HR :0.82188: (Sim:0h3m25s) 
CPU  2 inst:    2000000 cyc:     987093 now IPC :2.06568: AVG IPC :2.02615: L2-Pf-HR :0.78599: L2-HR :0.77745: (Sim:0h3m25s) 

Warmup complete CPU  0 instructions:    2000355 cycles:     987094 (Simulation time: 0 hr 3 min 25 sec) 
Warmup complete CPU  1 instructions:    2000616 cycles:     987094 (Simulation time: 0 hr 3 min 25 sec) 
Warmup complete CPU  2 instructions:    2000001 cycles:     987094 (Simulation time: 0 hr 3 min 25 sec) 
Warmup complete CPU  3 instructions:    2001381 cycles:     987093 (Simulation time: 0 hr 3 min 25 sec) 

CPU  3 inst:    3000004 cyc:    1502078 now IPC :1.93934: AVG IPC :1.93913: L2-Pf-HR :0.79924: L2-HR :0.79689: (Sim:0h4m14s) 
CPU  0 inst:    3000005 cyc:    1502285 now IPC :1.94025: AVG IPC :1.94035: L2-Pf-HR :0.80216: L2-HR :0.79855: (Sim:0h4m14s) 
CPU  1 inst:    3000005 cyc:    1502442 now IPC :1.93931: AVG IPC :1.93925: L2-Pf-HR :0.79070: L2-HR :0.78824: (Sim:0h4m14s) 
CPU  2 inst:    3000005 cyc:    1502897 now IPC :1.93873: AVG IPC :1.93873: L2-Pf-HR :0.79384: L2-HR :0.79243: (Sim:0h4m14s) 
CPU  0 inst:    4000002 cyc:    2011433 now IPC :1.96406: AVG IPC :1.95213: L2-Pf-HR :0.79904: L2-HR :0.79641: (Sim:0h5m2s) 
CPU  3 inst:    4000002 cyc:    2011624 now IPC :1.96253: AVG IPC :1.95077: L2-Pf-HR :0.79274: L2-HR :0.79240: (Sim:0h5m2s) 
CPU  1 inst:    4000002 cyc:    2012594 now IPC :1.96019: AVG IPC :1.94967: L2-Pf-HR :0.78659: L2-HR :0.78575: (Sim:0h5m2s) 
CPU  2 inst:    4000002 cyc:    2013137 now IPC :1.95986: AVG IPC :1.94924: L2-Pf-HR :0.79107: L2-HR :0.79067: (Sim:0h5m2s) 
CPU  3 inst:    5000004 cyc:    2527841 now IPC :1.93717: AVG IPC :1.94621: L2-Pf-HR :0.78994: L2-HR :0.79045: (Sim:0h5m51s) 
CPU  0 inst:    5000004 cyc:    2528852 now IPC :1.93267: AVG IPC :1.94560: L2-Pf-HR :0.79635: L2-HR :0.79439: (Sim:0h5m51s) 
CPU  1 inst:    5000004 cyc:    2529216 now IPC :1.93566: AVG IPC :1.94497: L2-Pf-HR :0.78314: L2-HR :0.78319: (Sim:0h5m51s) 
CPU  2 inst:    5000004 cyc:    2529431 now IPC :1.93688: AVG IPC :1.94510: L2-Pf-HR :0.78936: L2-HR :0.78944: (Sim:0h5m51s) 
CPU  2 inst:    6000004 cyc:    3031933 now IPC :1.99004: AVG IPC :1.95615: L2-Pf-HR :0.79761: L2-HR :0.79507: (Sim:0h6m39s) 
CPU  0 inst:    6000004 cyc:    3031993 now IPC :1.98751: AVG IPC :1.95592: L2-Pf-HR :0.80446: L2-HR :0.80009: (Sim:0h6m39s) 
CPU  3 inst:    6000004 cyc:    3032870 now IPC :1.98008: AVG IPC :1.95457: L2-Pf-HR :0.79845: L2-HR :0.79596: (Sim:0h6m39s) 
CPU  1 inst:    6000004 cyc:    3033265 now IPC :1.98393: AVG IPC :1.95457: L2-Pf-HR :0.79120: L2-HR :0.78886: (Sim:0h6m39s) 
CPU  1 inst:    7000001 cyc:    4036254 now IPC :0.99702: AVG IPC :1.63959: L2-Pf-HR :0.79444: L2-HR :0.79008: (Sim:0h7m38s) 
CPU  3 inst:    7000001 cyc:    4039309 now IPC :0.99360: AVG IPC :1.63770: L2-Pf-HR :0.79828: L2-HR :0.79448: (Sim:0h7m38s) 
CPU  2 inst:    7000001 cyc:    4039829 now IPC :0.99216: AVG IPC :1.63788: L2-Pf-HR :0.79950: L2-HR :0.79607: (Sim:0h7m38s) 
CPU  0 inst:    7000001 cyc:    4046794 now IPC :0.98541: AVG IPC :1.63403: L2-Pf-HR :0.80348: L2-HR :0.79773: (Sim:0h7m39s) 
CPU  1 inst:    8000002 cyc:    4650778 now IPC :1.62728: AVG IPC :1.63753: L2-Pf-HR :0.79838: L2-HR :0.79276: (Sim:0h8m29s) 
CPU  0 inst:    8000002 cyc:    4655298 now IPC :1.64338: AVG IPC :1.63558: L2-Pf-HR :0.80750: L2-HR :0.80055: (Sim:0h8m29s) 
CPU  2 inst:    8000002 cyc:    4656313 now IPC :1.62210: AVG IPC :1.63523: L2-Pf-HR :0.80407: L2-HR :0.80009: (Sim:0h8m29s) 
CPU  3 inst:    8000002 cyc:    4664119 now IPC :1.60049: AVG IPC :1.63138: L2-Pf-HR :0.80152: L2-HR :0.79657: (Sim:0h8m30s) 
CPU  1 inst:    9000002 cyc:    5255133 now IPC :1.65466: AVG IPC :1.63995: L2-Pf-HR :0.80013: L2-HR :0.79399: (Sim:0h9m20s) 
CPU  2 inst:    9000004 cyc:    5257700 now IPC :1.66283: AVG IPC :1.63911: L2-Pf-HR :0.80589: L2-HR :0.80216: (Sim:0h9m20s) 
CPU  3 inst:    9000002 cyc:    5265376 now IPC :1.66318: AVG IPC :1.63585: L2-Pf-HR :0.80209: L2-HR :0.79703: (Sim:0h9m20s) 
CPU  0 inst:    9000003 cyc:    5268631 now IPC :1.63044: AVG IPC :1.63484: L2-Pf-HR :0.80772: L2-HR :0.80072: (Sim:0h9m21s) 
CPU  3 inst:   10000004 cyc:    5847360 now IPC :1.71826: AVG IPC :1.64572: L2-Pf-HR :0.80096: L2-HR :0.79646: (Sim:0h10m10s) 
CPU  2 inst:   10000005 cyc:    5847954 now IPC :1.69419: AVG IPC :1.64580: L2-Pf-HR :0.80571: L2-HR :0.80269: (Sim:0h10m11s) 
CPU  0 inst:   10000005 cyc:    5856861 now IPC :1.70002: AVG IPC :1.64272: L2-Pf-HR :0.80680: L2-HR :0.80019: (Sim:0h10m11s) 
CPU  1 inst:   10000005 cyc:    5859757 now IPC :1.65393: AVG IPC :1.64169: L2-Pf-HR :0.80081: L2-HR :0.79458: (Sim:0h10m11s) 
CPU  3 inst:   11000002 cyc:    6441112 now IPC :1.68420: AVG IPC :1.64991: L2-Pf-HR :0.79998: L2-HR :0.79585: (Sim:0h11m1s) 
CPU  0 inst:   11000002 cyc:    6443567 now IPC :1.70443: AVG IPC :1.64935: L2-Pf-HR :0.80601: L2-HR :0.79960: (Sim:0h11m1s) 
CPU  2 inst:   11000002 cyc:    6445365 now IPC :1.67388: AVG IPC :1.64887: L2-Pf-HR :0.80568: L2-HR :0.80301: (Sim:0h11m1s) 
CPU  1 inst:   11000002 cyc:    6448675 now IPC :1.69802: AVG IPC :1.64776: L2-Pf-HR :0.80098: L2-HR :0.79467: (Sim:0h11m1s) 
CPU  3 inst:   12000002 cyc:    6948183 now IPC :1.97211: AVG IPC :1.67731: L2-Pf-HR :0.80315: L2-HR :0.79831: (Sim:0h11m49s) 
CPU  2 inst:   12000002 cyc:    6961173 now IPC :1.93871: AVG IPC :1.67390: L2-Pf-HR :0.80860: L2-HR :0.80553: (Sim:0h11m50s) 
CPU  0 inst:   12000002 cyc:    6962552 now IPC :1.92684: AVG IPC :1.67345: L2-Pf-HR :0.80860: L2-HR :0.80149: (Sim:0h11m50s) 
CPU  1 inst:   12000002 cyc:    6964747 now IPC :1.93771: AVG IPC :1.67279: L2-Pf-HR :0.80395: L2-HR :0.79697: (Sim:0h11m50s) 
CPU  3 inst:   13000004 cyc:    8274323 now IPC :0.75407: AVG IPC :1.50930: L2-Pf-HR :0.81005: L2-HR :0.80542: (Sim:0h12m57s) 
CPU  2 inst:   13000004 cyc:    8297133 now IPC :0.74853: AVG IPC :1.50478: L2-Pf-HR :0.81477: L2-HR :0.81200: (Sim:0h12m59s) 
CPU  1 inst:   13000004 cyc:    8303820 now IPC :0.74679: AVG IPC :1.50332: L2-Pf-HR :0.81040: L2-HR :0.80360: (Sim:0h12m59s) 
CPU  0 inst:   13000004 cyc:    8307947 now IPC :0.74328: AVG IPC :1.50251: L2-Pf-HR :0.81431: L2-HR :0.80671: (Sim:0h12m59s) 
CPU  3 inst:   14000001 cyc:    9125448 now IPC :1.17491: AVG IPC :1.47433: L2-Pf-HR :0.81861: L2-HR :0.81494: (Sim:0h13m56s) 
CPU  1 inst:   14000005 cyc:    9126128 now IPC :1.21609: AVG IPC :1.47430: L2-Pf-HR :0.81827: L2-HR :0.81244: (Sim:0h13m56s) 
CPU  2 inst:   14000001 cyc:    9126238 now IPC :1.20612: AVG IPC :1.47436: L2-Pf-HR :0.82289: L2-HR :0.82123: (Sim:0h13m56s) 
CPU  0 inst:   14000001 cyc:    9128755 now IPC :1.21831: AVG IPC :1.47386: L2-Pf-HR :0.82127: L2-HR :0.81368: (Sim:0h13m56s) 
CPU  2 inst:   15000005 cyc:    9975751 now IPC :1.17715: AVG IPC :1.44627: L2-Pf-HR :0.82996: L2-HR :0.82926: (Sim:0h14m53s) 
CPU  3 inst:   15000005 cyc:    9985155 now IPC :1.16319: AVG IPC :1.44460: L2-Pf-HR :0.82581: L2-HR :0.82299: (Sim:0h14m53s) 
CPU  0 inst:   15000005 cyc:    9987608 now IPC :1.16435: AVG IPC :1.44432: L2-Pf-HR :0.82747: L2-HR :0.81999: (Sim:0h14m54s) 
CPU  1 inst:   15000005 cyc:   10007986 now IPC :1.13397: AVG IPC :1.44103: L2-Pf-HR :0.82525: L2-HR :0.82005: (Sim:0h14m55s) 
CPU  3 inst:   16000000 cyc:   10679199 now IPC :1.44082: AVG IPC :1.44433: L2-Pf-HR :0.83288: L2-HR :0.83049: (Sim:0h15m45s) 
CPU  1 inst:   16000000 cyc:   10691631 now IPC :1.46274: AVG IPC :1.44256: L2-Pf-HR :0.83206: L2-HR :0.82725: (Sim:0h15m47s) 
CPU  0 inst:   16000000 cyc:   10696090 now IPC :1.41146: AVG IPC :1.44193: L2-Pf-HR :0.83345: L2-HR :0.82591: (Sim:0h15m47s) 
CPU  2 inst:   16000000 cyc:   10700730 now IPC :1.37934: AVG IPC :1.44127: L2-Pf-HR :0.83711: L2-HR :0.83694: (Sim:0h15m47s) 
CPU  3 inst:   17000001 cyc:   12614127 now IPC :0.51682: AVG IPC :1.28998: L2-Pf-HR :0.83384: L2-HR :0.83027: (Sim:0h17m9s) 
CPU  0 inst:   17000001 cyc:   12616652 now IPC :0.52068: AVG IPC :1.28979: L2-Pf-HR :0.83459: L2-HR :0.82606: (Sim:0h17m9s) 
CPU  2 inst:   17000005 cyc:   12628695 now IPC :0.51868: AVG IPC :1.28848: L2-Pf-HR :0.83835: L2-HR :0.83677: (Sim:0h17m10s) 
CPU  1 inst:   17000001 cyc:   12632517 now IPC :0.51523: AVG IPC :1.28801: L2-Pf-HR :0.83304: L2-HR :0.82729: (Sim:0h17m11s) 
CPU  0 inst:   18000000 cyc:   13539621 now IPC :1.08346: AVG IPC :1.27462: L2-Pf-HR :0.83536: L2-HR :0.82588: (Sim:0h18m10s) 
CPU  3 inst:   18000000 cyc:   13546653 now IPC :1.07236: AVG IPC :1.27382: L2-Pf-HR :0.83418: L2-HR :0.82943: (Sim:0h18m10s) 
CPU  1 inst:   18000000 cyc:   13548507 now IPC :1.09171: AVG IPC :1.27369: L2-Pf-HR :0.83369: L2-HR :0.82692: (Sim:0h18m11s) 
CPU  2 inst:   18000000 cyc:   13551123 now IPC :1.08409: AVG IPC :1.27348: L2-Pf-HR :0.83926: L2-HR :0.83617: (Sim:0h18m11s) 
CPU  0 inst:   19000001 cyc:   14602697 now IPC :0.94067: AVG IPC :1.24854: L2-Pf-HR :0.83604: L2-HR :0.82590: (Sim:0h19m12s) 
CPU  3 inst:   19000001 cyc:   14608075 now IPC :0.94213: AVG IPC :1.24797: L2-Pf-HR :0.83457: L2-HR :0.82882: (Sim:0h19m13s) 
CPU  2 inst:   19000001 cyc:   14619104 now IPC :0.93635: AVG IPC :1.24706: L2-Pf-HR :0.83978: L2-HR :0.83551: (Sim:0h19m14s) 
CPU  1 inst:   19000001 cyc:   14633859 now IPC :0.92136: AVG IPC :1.24567: L2-Pf-HR :0.83423: L2-HR :0.82665: (Sim:0h19m15s) 
CPU  1 inst:   20000001 cyc:   15626669 now IPC :1.00724: AVG IPC :1.22950: L2-Pf-HR :0.83542: L2-HR :0.82692: (Sim:0h20m16s) 
CPU  2 inst:   20000001 cyc:   15628102 now IPC :0.99108: AVG IPC :1.22942: L2-Pf-HR :0.84061: L2-HR :0.83518: (Sim:0h20m16s) 
CPU  3 inst:   20000001 cyc:   15642444 now IPC :0.96677: AVG IPC :1.22813: L2-Pf-HR :0.83524: L2-HR :0.82850: (Sim:0h20m17s) 
CPU  0 inst:   20000000 cyc:   15666735 now IPC :0.93982: AVG IPC :1.22616: L2-Pf-HR :0.83692: L2-HR :0.82610: (Sim:0h20m19s) 
CPU  2 inst:   21000000 cyc:   16680098 now IPC :0.95057: AVG IPC :1.21073: L2-Pf-HR :0.84086: L2-HR :0.83448: (Sim:0h21m19s) 
CPU  3 inst:   21000000 cyc:   16702758 now IPC :0.94312: AVG IPC :1.20890: L2-Pf-HR :0.83564: L2-HR :0.82806: (Sim:0h21m21s) 
CPU  1 inst:   21000000 cyc:   16709184 now IPC :0.92377: AVG IPC :1.20845: L2-Pf-HR :0.83569: L2-HR :0.82657: (Sim:0h21m21s) 
CPU  0 inst:   21000000 cyc:   16733044 now IPC :0.93781: AVG IPC :1.20664: L2-Pf-HR :0.83729: L2-HR :0.82592: (Sim:0h21m23s) 
CPU  3 inst:   22000004 cyc:   17470862 now IPC :1.30191: AVG IPC :1.21323: L2-Pf-HR :0.83657: L2-HR :0.82809: (Sim:0h22m15s) 
CPU  0 inst:   22000004 cyc:   17481557 now IPC :1.33599: AVG IPC :1.21251: L2-Pf-HR :0.83775: L2-HR :0.82591: (Sim:0h22m16s) 
CPU  2 inst:   22000004 cyc:   17497653 now IPC :1.22316: AVG IPC :1.21135: L2-Pf-HR :0.84137: L2-HR :0.83399: (Sim:0h22m17s) 
CPU  1 inst:   22000004 cyc:   17498195 now IPC :1.26741: AVG IPC :1.21127: L2-Pf-HR :0.83650: L2-HR :0.82671: (Sim:0h22m17s) 
CPU  3 inst:   23000002 cyc:   19090396 now IPC :0.61746: AVG IPC :1.15993: L2-Pf-HR :0.83639: L2-HR :0.82735: (Sim:0h23m31s) 
CPU  0 inst:   23000001 cyc:   19098208 now IPC :0.61856: AVG IPC :1.15949: L2-Pf-HR :0.83769: L2-HR :0.82549: (Sim:0h23m32s) 
CPU  1 inst:   23000001 cyc:   19117570 now IPC :0.61752: AVG IPC :1.15824: L2-Pf-HR :0.83612: L2-HR :0.82596: (Sim:0h23m33s) 
CPU  2 inst:   23000001 cyc:   19121409 now IPC :0.61585: AVG IPC :1.15803: L2-Pf-HR :0.84115: L2-HR :0.83308: (Sim:0h23m33s) 
CPU  2 inst:   24000005 cyc:   19956307 now IPC :1.19776: AVG IPC :1.15977: L2-Pf-HR :0.84143: L2-HR :0.83277: (Sim:0h24m29s) 
CPU  1 inst:   24000005 cyc:   19965341 now IPC :1.17957: AVG IPC :1.15919: L2-Pf-HR :0.83614: L2-HR :0.82584: (Sim:0h24m29s) 
CPU  0 inst:   24000005 cyc:   19968886 now IPC :1.14853: AVG IPC :1.15899: L2-Pf-HR :0.83818: L2-HR :0.82568: (Sim:0h24m30s) 
CPU  3 inst:   24000005 cyc:   19980565 now IPC :1.12339: AVG IPC :1.15822: L2-Pf-HR :0.83664: L2-HR :0.82730: (Sim:0h24m31s) 
CPU  3 inst:   25000005 cyc:   20850093 now IPC :1.15005: AVG IPC :1.15786: L2-Pf-HR :0.83683: L2-HR :0.82727: (Sim:0h25m28s) 
CPU  1 inst:   25000005 cyc:   20852283 now IPC :1.12747: AVG IPC :1.15777: L2-Pf-HR :0.83621: L2-HR :0.82578: (Sim:0h25m28s) 
CPU  0 inst:   25000005 cyc:   20861028 now IPC :1.12090: AVG IPC :1.15728: L2-Pf-HR :0.83866: L2-HR :0.82595: (Sim:0h25m28s) 
CPU  2 inst:   25000005 cyc:   20868781 now IPC :1.09592: AVG IPC :1.15684: L2-Pf-HR :0.84151: L2-HR :0.83245: (Sim:0h25m29s) 
CPU  1 inst:   26000002 cyc:   21712879 now IPC :1.16198: AVG IPC :1.15795: L2-Pf-HR :0.83630: L2-HR :0.82572: (Sim:0h26m54s) 
CPU  2 inst:   26000004 cyc:   21715573 now IPC :1.18093: AVG IPC :1.15783: L2-Pf-HR :0.84181: L2-HR :0.83229: (Sim:0h26m55s) 
CPU  3 inst:   26000004 cyc:   21716072 now IPC :1.15476: AVG IPC :1.15773: L2-Pf-HR :0.83717: L2-HR :0.82726: (Sim:0h26m55s) 
CPU  0 inst:   26000004 cyc:   21718896 now IPC :1.16568: AVG IPC :1.15762: L2-Pf-HR :0.83932: L2-HR :0.82630: (Sim:0h26m55s) 
CPU  1 inst:   27000003 cyc:   22585222 now IPC :1.14634: AVG IPC :1.15748: L2-Pf-HR :0.83632: L2-HR :0.82564: (Sim:0h28m42s) 
CPU  3 inst:   27000003 cyc:   22587008 now IPC :1.14819: AVG IPC :1.15735: L2-Pf-HR :0.83766: L2-HR :0.82749: (Sim:0h28m43s) 
CPU  0 inst:   27000003 cyc:   22590587 now IPC :1.14719: AVG IPC :1.15720: L2-Pf-HR :0.83980: L2-HR :0.82655: (Sim:0h28m43s) 
CPU  2 inst:   27000003 cyc:   22597210 now IPC :1.13425: AVG IPC :1.15687: L2-Pf-HR :0.84206: L2-HR :0.83214: (Sim:0h28m44s) 
CPU  1 inst:   28000003 cyc:   23221073 now IPC :1.57270: AVG IPC :1.16935: L2-Pf-HR :0.83686: L2-HR :0.82593: (Sim:0h30m22s) 
CPU  3 inst:   28000003 cyc:   23229093 now IPC :1.55743: AVG IPC :1.16890: L2-Pf-HR :0.83850: L2-HR :0.82796: (Sim:0h30m23s) 
CPU  0 inst:   28000003 cyc:   23242940 now IPC :1.53291: AVG IPC :1.16822: L2-Pf-HR :0.84058: L2-HR :0.82701: (Sim:0h30m26s) 
CPU  2 inst:   28000003 cyc:   23246739 now IPC :1.53958: AVG IPC :1.16803: L2-Pf-HR :0.84269: L2-HR :0.83220: (Sim:0h30m27s) 
CPU  1 inst:   29000001 cyc:   24491191 now IPC :0.78733: AVG IPC :1.14871: L2-Pf-HR :0.83799: L2-HR :0.82719: (Sim:0h32m33s) 
CPU  3 inst:   29000001 cyc:   24505081 now IPC :0.78370: AVG IPC :1.14800: L2-Pf-HR :0.83989: L2-HR :0.82945: (Sim:0h32m36s) 
CPU  2 inst:   29000001 cyc:   24513291 now IPC :0.78954: AVG IPC :1.14766: L2-Pf-HR :0.84398: L2-HR :0.83361: (Sim:0h32m37s) 
CPU  0 inst:   29000001 cyc:   24529020 now IPC :0.77756: AVG IPC :1.14688: L2-Pf-HR :0.84192: L2-HR :0.82847: (Sim:0h32m39s) 
CPU  2 inst:   30000004 cyc:   25315428 now IPC :1.24667: AVG IPC :1.15092: L2-Pf-HR :0.84634: L2-HR :0.83671: (Sim:0h34m22s) 
CPU  0 inst:   30000005 cyc:   25333450 now IPC :1.24312: AVG IPC :1.15006: L2-Pf-HR :0.84423: L2-HR :0.83134: (Sim:0h34m25s) 
CPU  3 inst:   30000005 cyc:   25340911 now IPC :1.19642: AVG IPC :1.14966: L2-Pf-HR :0.84245: L2-HR :0.83261: (Sim:0h34m26s) 
CPU  1 inst:   30000005 cyc:   25366366 now IPC :1.14263: AVG IPC :1.14849: L2-Pf-HR :0.83976: L2-HR :0.82974: (Sim:0h34m29s) 
CPU  2 inst:   31000000 cyc:   26177896 now IPC :1.15946: AVG IPC :1.15121: L2-Pf-HR :0.84865: L2-HR :0.83968: (Sim:0h36m14s) 
CPU  1 inst:   31000000 cyc:   26197293 now IPC :1.20347: AVG IPC :1.15030: L2-Pf-HR :0.84173: L2-HR :0.83230: (Sim:0h36m17s) 
CPU  3 inst:   31000000 cyc:   26197993 now IPC :1.16674: AVG IPC :1.15024: L2-Pf-HR :0.84495: L2-HR :0.83568: (Sim:0h36m17s) 
CPU  0 inst:   31000000 cyc:   26204224 now IPC :1.14840: AVG IPC :1.15000: L2-Pf-HR :0.84655: L2-HR :0.83419: (Sim:0h36m17s) 
CPU  0 inst:   32000002 cyc:   26982866 now IPC :1.28429: AVG IPC :1.15402: L2-Pf-HR :0.84894: L2-HR :0.83702: (Sim:0h38m2s) 
CPU  3 inst:   32000003 cyc:   26991109 now IPC :1.26085: AVG IPC :1.15361: L2-Pf-HR :0.84745: L2-HR :0.83862: (Sim:0h38m4s) 
CPU  2 inst:   32000002 cyc:   27003914 now IPC :1.21063: AVG IPC :1.15310: L2-Pf-HR :0.85119: L2-HR :0.84274: (Sim:0h38m6s) 
CPU  1 inst:   32000000 cyc:   27005161 now IPC :1.23783: AVG IPC :1.15302: L2-Pf-HR :0.84378: L2-HR :0.83489: (Sim:0h38m6s) 
CPU  3 inst:   33000000 cyc:   28677551 now IPC :0.59296: AVG IPC :1.11947: L2-Pf-HR :0.84766: L2-HR :0.83857: (Sim:0h40m38s) 
CPU  0 inst:   33000000 cyc:   28678753 now IPC :0.58966: AVG IPC :1.11946: L2-Pf-HR :0.84936: L2-HR :0.83724: (Sim:0h40m38s) 
CPU  2 inst:   33000000 cyc:   28688113 now IPC :0.59375: AVG IPC :1.11909: L2-Pf-HR :0.85173: L2-HR :0.84294: (Sim:0h40m39s) 
CPU  1 inst:   33000000 cyc:   28730680 now IPC :0.57954: AVG IPC :1.11735: L2-Pf-HR :0.84429: L2-HR :0.83507: (Sim:0h40m44s) 
CPU  0 inst:   34000000 cyc:   29677641 now IPC :1.00111: AVG IPC :1.11534: L2-Pf-HR :0.84951: L2-HR :0.83700: (Sim:0h42m38s) 
CPU  3 inst:   34000000 cyc:   29686898 now IPC :0.99074: AVG IPC :1.11494: L2-Pf-HR :0.84761: L2-HR :0.83805: (Sim:0h42m39s) 
CPU  2 inst:   34000000 cyc:   29733122 now IPC :0.95693: AVG IPC :1.11320: L2-Pf-HR :0.85172: L2-HR :0.84248: (Sim:0h42m45s) 
CPU  1 inst:   34000000 cyc:   29821674 now IPC :0.91660: AVG IPC :1.10976: L2-Pf-HR :0.84429: L2-HR :0.83472: (Sim:0h42m55s) 
CPU  3 inst:   35000004 cyc:   30705850 now IPC :0.98140: AVG IPC :1.11036: L2-Pf-HR :0.84744: L2-HR :0.83745: (Sim:0h44m31s) 
CPU  0 inst:   35000004 cyc:   30743242 now IPC :0.93844: AVG IPC :1.10900: L2-Pf-HR :0.84973: L2-HR :0.83686: (Sim:0h44m35s) 
CPU  2 inst:   35000004 cyc:   30758684 now IPC :0.97508: AVG IPC :1.10844: L2-Pf-HR :0.85190: L2-HR :0.84217: (Sim:0h44m36s) 
CPU  1 inst:   35000004 cyc:   30790890 now IPC :1.03177: AVG IPC :1.10722: L2-Pf-HR :0.84447: L2-HR :0.83447: (Sim:0h44m40s) 
CPU  0 inst:   36000005 cyc:   31762649 now IPC :0.98096: AVG IPC :1.10476: L2-Pf-HR :0.85065: L2-HR :0.83731: (Sim:0h46m15s) 
CPU  2 inst:   36000005 cyc:   31763522 now IPC :0.99519: AVG IPC :1.10474: L2-Pf-HR :0.85276: L2-HR :0.84243: (Sim:0h46m15s) 
CPU  3 inst:   36000005 cyc:   31772463 now IPC :0.93755: AVG IPC :1.10438: L2-Pf-HR :0.84797: L2-HR :0.83743: (Sim:0h46m16s) 
CPU  1 inst:   36000005 cyc:   31864502 now IPC :0.93144: AVG IPC :1.10111: L2-Pf-HR :0.84520: L2-HR :0.83464: (Sim:0h46m24s) 
CPU  0 inst:   37000002 cyc:   32815807 now IPC :0.94952: AVG IPC :1.09962: L2-Pf-HR :0.85133: L2-HR :0.83754: (Sim:0h48m0s) 
CPU  2 inst:   37000002 cyc:   32822095 now IPC :0.94467: AVG IPC :1.09942: L2-Pf-HR :0.85349: L2-HR :0.84260: (Sim:0h48m1s) 
CPU  3 inst:   37000002 cyc:   32826232 now IPC :0.94897: AVG IPC :1.09923: L2-Pf-HR :0.84835: L2-HR :0.83732: (Sim:0h48m1s) 
CPU  1 inst:   37000003 cyc:   32935922 now IPC :0.93334: AVG IPC :1.09548: L2-Pf-HR :0.84572: L2-HR :0.83464: (Sim:0h48m12s) 
CPU  3 inst:   38000003 cyc:   33668207 now IPC :1.18768: AVG IPC :1.10151: L2-Pf-HR :0.84866: L2-HR :0.83720: (Sim:0h49m34s) 
CPU  0 inst:   38000003 cyc:   33702956 now IPC :1.12721: AVG IPC :1.10037: L2-Pf-HR :0.85176: L2-HR :0.83763: (Sim:0h49m38s) 
CPU  2 inst:   38000003 cyc:   33703370 now IPC :1.13472: AVG IPC :1.10037: L2-Pf-HR :0.85409: L2-HR :0.84272: (Sim:0h49m38s) 
CPU  1 inst:   38000003 cyc:   33787086 now IPC :1.17486: AVG IPC :1.09754: L2-Pf-HR :0.84626: L2-HR :0.83468: (Sim:0h49m51s) 
CPU  3 inst:   39000000 cyc:   35093850 now IPC :0.70144: AVG IPC :1.08479: L2-Pf-HR :0.84863: L2-HR :0.83679: (Sim:0h51m30s) 
CPU  2 inst:   39000003 cyc:   35258886 now IPC :0.64287: AVG IPC :1.07961: L2-Pf-HR :0.85400: L2-HR :0.84224: (Sim:0h51m47s) 
CPU  0 inst:   39000000 cyc:   35285109 now IPC :0.63205: AVG IPC :1.07877: L2-Pf-HR :0.85176: L2-HR :0.83730: (Sim:0h51m49s) 
CPU  1 inst:   39000003 cyc:   35321842 now IPC :0.65157: AVG IPC :1.07761: L2-Pf-HR :0.84689: L2-HR :0.83485: (Sim:0h51m53s) 
CPU  3 inst:   40000003 cyc:   36039137 now IPC :1.05788: AVG IPC :1.08406: L2-Pf-HR :0.84897: L2-HR :0.83681: (Sim:0h53m16s) 
CPU  2 inst:   40000003 cyc:   36078016 now IPC :1.22081: AVG IPC :1.08290: L2-Pf-HR :0.85427: L2-HR :0.84222: (Sim:0h53m20s) 
CPU  0 inst:   40000003 cyc:   36092095 now IPC :1.23918: AVG IPC :1.08246: L2-Pf-HR :0.85228: L2-HR :0.83750: (Sim:0h53m21s) 
CPU  1 inst:   40000003 cyc:   36099558 now IPC :1.28582: AVG IPC :1.08222: L2-Pf-HR :0.84734: L2-HR :0.83512: (Sim:0h53m22s) 
CPU  0 inst:   41000000 cyc:   36885713 now IPC :1.26005: AVG IPC :1.08638: L2-Pf-HR :0.85296: L2-HR :0.83782: (Sim:0h54m51s) 
CPU  3 inst:   41000000 cyc:   36889320 now IPC :1.17621: AVG IPC :1.08625: L2-Pf-HR :0.84943: L2-HR :0.83692: (Sim:0h54m51s) 
CPU  2 inst:   41000000 cyc:   36927457 now IPC :1.17724: AVG IPC :1.08513: L2-Pf-HR :0.85479: L2-HR :0.84243: (Sim:0h54m56s) 
CPU  1 inst:   41000000 cyc:   36964566 now IPC :1.15606: AVG IPC :1.08399: L2-Pf-HR :0.84785: L2-HR :0.83546: (Sim:0h55m0s) 
CPU  3 inst:   42000000 cyc:   37751086 now IPC :1.16041: AVG IPC :1.08798: L2-Pf-HR :0.84955: L2-HR :0.83689: (Sim:0h56m30s) 
CPU  0 inst:   42000000 cyc:   37802813 now IPC :1.09039: AVG IPC :1.08648: L2-Pf-HR :0.85342: L2-HR :0.83808: (Sim:0h56m35s) 
CPU  2 inst:   42000000 cyc:   37828302 now IPC :1.11007: AVG IPC :1.08574: L2-Pf-HR :0.85512: L2-HR :0.84255: (Sim:0h56m38s) 
CPU  1 inst:   42000000 cyc:   37832694 now IPC :1.15190: AVG IPC :1.08559: L2-Pf-HR :0.84832: L2-HR :0.83583: (Sim:0h56m38s) 
CPU  0 inst:   43000004 cyc:   38591275 now IPC :1.26830: AVG IPC :1.09029: L2-Pf-HR :0.85401: L2-HR :0.83839: (Sim:0h58m1s) 
CPU  3 inst:   43000004 cyc:   38597447 now IPC :1.18153: AVG IPC :1.09009: L2-Pf-HR :0.84987: L2-HR :0.83697: (Sim:0h58m2s) 
CPU  2 inst:   43000002 cyc:   38602157 now IPC :1.29223: AVG IPC :1.08999: L2-Pf-HR :0.85560: L2-HR :0.84279: (Sim:0h58m2s) 
CPU  1 inst:   43000004 cyc:   38634537 now IPC :1.24713: AVG IPC :1.08904: L2-Pf-HR :0.84871: L2-HR :0.83609: (Sim:0h58m6s) 
CPU  1 inst:   44000001 cyc:   39305297 now IPC :1.49084: AVG IPC :1.09607: L2-Pf-HR :0.84936: L2-HR :0.83655: (Sim:0h59m32s) 
CPU  0 inst:   44000001 cyc:   39307992 now IPC :1.39525: AVG IPC :1.09600: L2-Pf-HR :0.85464: L2-HR :0.83878: (Sim:0h59m33s) 
CPU  3 inst:   44000001 cyc:   39311348 now IPC :1.40075: AVG IPC :1.09588: L2-Pf-HR :0.85045: L2-HR :0.83726: (Sim:0h59m33s) 
CPU  2 inst:   44000001 cyc:   39322784 now IPC :1.38768: AVG IPC :1.09558: L2-Pf-HR :0.85615: L2-HR :0.84310: (Sim:0h59m35s) 
CPU  1 inst:   45000002 cyc:   40502530 now IPC :0.83526: AVG IPC :1.08817: L2-Pf-HR :0.84984: L2-HR :0.83707: (Sim:1h1m17s) 
CPU  0 inst:   45000002 cyc:   40506902 now IPC :0.83409: AVG IPC :1.08805: L2-Pf-HR :0.85515: L2-HR :0.83932: (Sim:1h1m18s) 
CPU  2 inst:   45000005 cyc:   40529883 now IPC :0.82844: AVG IPC :1.08743: L2-Pf-HR :0.85654: L2-HR :0.84343: (Sim:1h1m21s) 
CPU  3 inst:   45000005 cyc:   40535767 now IPC :0.81672: AVG IPC :1.08723: L2-Pf-HR :0.85073: L2-HR :0.83744: (Sim:1h1m21s) 
CPU  0 inst:   46000002 cyc:   41343942 now IPC :1.19469: AVG IPC :1.09026: L2-Pf-HR :0.85647: L2-HR :0.84113: (Sim:1h2m51s) 
CPU  1 inst:   46000002 cyc:   41345063 now IPC :1.18690: AVG IPC :1.09023: L2-Pf-HR :0.85111: L2-HR :0.83872: (Sim:1h2m51s) 
CPU  2 inst:   46000002 cyc:   41347392 now IPC :1.22322: AVG IPC :1.09018: L2-Pf-HR :0.85750: L2-HR :0.84471: (Sim:1h2m52s) 
CPU  3 inst:   46000002 cyc:   41348739 now IPC :1.23005: AVG IPC :1.09011: L2-Pf-HR :0.85145: L2-HR :0.83827: (Sim:1h2m52s) 
CPU  1 inst:   47000003 cyc:   42236134 now IPC :1.12225: AVG IPC :1.09092: L2-Pf-HR :0.85236: L2-HR :0.84037: (Sim:1h4m31s) 
CPU  2 inst:   47000003 cyc:   42241421 now IPC :1.11853: AVG IPC :1.09079: L2-Pf-HR :0.85853: L2-HR :0.84609: (Sim:1h4m32s) 
CPU  3 inst:   47000003 cyc:   42250749 now IPC :1.10864: AVG IPC :1.09051: L2-Pf-HR :0.85219: L2-HR :0.83914: (Sim:1h4m33s) 
CPU  0 inst:   47000003 cyc:   42283391 now IPC :1.06445: AVG IPC :1.08968: L2-Pf-HR :0.85778: L2-HR :0.84289: (Sim:1h4m36s) 
CPU  3 inst:   48000004 cyc:   43049273 now IPC :1.25231: AVG IPC :1.09359: L2-Pf-HR :0.85290: L2-HR :0.83995: (Sim:1h6m2s) 
CPU  2 inst:   48000004 cyc:   43051450 now IPC :1.23452: AVG IPC :1.09356: L2-Pf-HR :0.85944: L2-HR :0.84733: (Sim:1h6m3s) 
CPU  0 inst:   48000004 cyc:   43052579 now IPC :1.30007: AVG IPC :1.09352: L2-Pf-HR :0.85907: L2-HR :0.84459: (Sim:1h6m3s) 
CPU  1 inst:   48000004 cyc:   43055011 now IPC :1.22119: AVG IPC :1.09346: L2-Pf-HR :0.85362: L2-HR :0.84197: (Sim:1h6m3s) 
CPU  0 inst:   49000001 cyc:   44691128 now IPC :0.61029: AVG IPC :1.07541: L2-Pf-HR :0.85933: L2-HR :0.84482: (Sim:1h7m53s) 
CPU  1 inst:   49000005 cyc:   44708345 now IPC :0.60484: AVG IPC :1.07498: L2-Pf-HR :0.85389: L2-HR :0.84215: (Sim:1h7m54s) 
CPU  3 inst:   49000005 cyc:   44710923 now IPC :0.60181: AVG IPC :1.07490: L2-Pf-HR :0.85290: L2-HR :0.83983: (Sim:1h7m54s) 
CPU  2 inst:   49000001 cyc:   44798870 now IPC :0.57227: AVG IPC :1.07277: L2-Pf-HR :0.85961: L2-HR :0.84742: (Sim:1h8m1s) 
CPU  0 inst:   50000000 cyc:   45690324 now IPC :1.00080: AVG IPC :1.07374: L2-Pf-HR :0.85914: L2-HR :0.84444: (Sim:1h8m57s) 
CPU  2 inst:   50000000 cyc:   45693374 now IPC :1.11794: AVG IPC :1.07367: L2-Pf-HR :0.85942: L2-HR :0.84700: (Sim:1h8m57s) 
CPU  3 inst:   50000000 cyc:   45702616 now IPC :1.00837: AVG IPC :1.07342: L2-Pf-HR :0.85272: L2-HR :0.83949: (Sim:1h8m58s) 
CPU  1 inst:   50000000 cyc:   45709436 now IPC :0.99891: AVG IPC :1.07328: L2-Pf-HR :0.85365: L2-HR :0.84167: (Sim:1h8m59s) 
CPU  0 inst:   51000004 cyc:   46693529 now IPC :0.99681: AVG IPC :1.07205: L2-Pf-HR :0.85888: L2-HR :0.84405: (Sim:1h10m11s) 
CPU  3 inst:   51000004 cyc:   46700808 now IPC :1.00182: AVG IPC :1.07186: L2-Pf-HR :0.85235: L2-HR :0.83902: (Sim:1h10m11s) 
CPU  2 inst:   51000004 cyc:   46721762 now IPC :0.97240: AVG IPC :1.07140: L2-Pf-HR :0.85925: L2-HR :0.84658: (Sim:1h10m15s) 
CPU  1 inst:   51000004 cyc:   46733690 now IPC :0.97632: AVG IPC :1.07110: L2-Pf-HR :0.85334: L2-HR :0.84113: (Sim:1h10m16s) 
CPU  3 inst:   52000001 cyc:   47709181 now IPC :0.99169: AVG IPC :1.07013: L2-Pf-HR :0.85239: L2-HR :0.83886: (Sim:1h12m4s) 
CPU  2 inst:   52000001 cyc:   47735771 now IPC :0.98618: AVG IPC :1.06955: L2-Pf-HR :0.85939: L2-HR :0.84641: (Sim:1h12m6s) 
CPU  0 inst:   52000005 cyc:   47764223 now IPC :0.93397: AVG IPC :1.06889: L2-Pf-HR :0.85904: L2-HR :0.84399: (Sim:1h12m9s) 
CPU  1 inst:   52000005 cyc:   47777436 now IPC :0.95809: AVG IPC :1.06858: L2-Pf-HR :0.85345: L2-HR :0.84093: (Sim:1h12m11s) 
CPU  2 inst:   53000003 cyc:   48766280 now IPC :0.97040: AVG IPC :1.06741: L2-Pf-HR :0.85946: L2-HR :0.84621: (Sim:1h13m57s) 
CPU  1 inst:   53000003 cyc:   48802741 now IPC :0.97532: AVG IPC :1.06658: L2-Pf-HR :0.85355: L2-HR :0.84073: (Sim:1h14m0s) 
CPU  0 inst:   53000003 cyc:   48850763 now IPC :0.92035: AVG IPC :1.06552: L2-Pf-HR :0.85917: L2-HR :0.84389: (Sim:1h14m5s) 
CPU  3 inst:   53000003 cyc:   48856443 now IPC :0.87164: AVG IPC :1.06537: L2-Pf-HR :0.85231: L2-HR :0.83860: (Sim:1h14m6s) 
CPU  3 inst:   54000000 cyc:   49724500 now IPC :1.15199: AVG IPC :1.06691: L2-Pf-HR :0.85238: L2-HR :0.83848: (Sim:1h15m51s) 
CPU  2 inst:   54000000 cyc:   49729433 now IPC :1.03825: AVG IPC :1.06683: L2-Pf-HR :0.85964: L2-HR :0.84607: (Sim:1h15m52s) 
CPU  0 inst:   54000000 cyc:   49750488 now IPC :1.11145: AVG IPC :1.06637: L2-Pf-HR :0.85938: L2-HR :0.84390: (Sim:1h15m55s) 
CPU  1 inst:   54000000 cyc:   49799194 now IPC :1.00356: AVG IPC :1.06530: L2-Pf-HR :0.85360: L2-HR :0.84053: (Sim:1h16m1s) 
CPU  3 inst:   55000005 cyc:   51246964 now IPC :0.65683: AVG IPC :1.05449: L2-Pf-HR :0.85224: L2-HR :0.83817: (Sim:1h18m7s) 
CPU  0 inst:   55000005 cyc:   51292787 now IPC :0.64839: AVG IPC :1.05355: L2-Pf-HR :0.85917: L2-HR :0.84354: (Sim:1h18m10s) 
CPU  2 inst:   55000005 cyc:   51295112 now IPC :0.63870: AVG IPC :1.05351: L2-Pf-HR :0.85946: L2-HR :0.84567: (Sim:1h18m10s) 
CPU  1 inst:   55000005 cyc:   51330695 now IPC :0.65296: AVG IPC :1.05275: L2-Pf-HR :0.85369: L2-HR :0.84035: (Sim:1h18m13s) 
CPU  0 inst:   56000001 cyc:   52147532 now IPC :1.16993: AVG IPC :1.05550: L2-Pf-HR :0.85914: L2-HR :0.84339: (Sim:1h19m52s) 
CPU  3 inst:   56000001 cyc:   52160818 now IPC :1.09426: AVG IPC :1.05520: L2-Pf-HR :0.85234: L2-HR :0.83812: (Sim:1h19m53s) 
CPU  2 inst:   56000001 cyc:   52177635 now IPC :1.13311: AVG IPC :1.05488: L2-Pf-HR :0.85953: L2-HR :0.84560: (Sim:1h19m55s) 
CPU  1 inst:   56000001 cyc:   52184462 now IPC :1.17128: AVG IPC :1.05473: L2-Pf-HR :0.85381: L2-HR :0.84028: (Sim:1h19m56s) 
CPU  3 inst:   57000001 cyc:   53059336 now IPC :1.11294: AVG IPC :1.05620: L2-Pf-HR :0.85238: L2-HR :0.83806: (Sim:1h21m40s) 
CPU  2 inst:   57000001 cyc:   53063445 now IPC :1.12891: AVG IPC :1.05614: L2-Pf-HR :0.85956: L2-HR :0.84546: (Sim:1h21m41s) 
CPU  0 inst:   57000001 cyc:   53074998 now IPC :1.07821: AVG IPC :1.05590: L2-Pf-HR :0.85904: L2-HR :0.84318: (Sim:1h21m42s) 
CPU  1 inst:   57000001 cyc:   53081099 now IPC :1.11528: AVG IPC :1.05577: L2-Pf-HR :0.85370: L2-HR :0.84002: (Sim:1h21m43s) 
CPU  1 inst:   58000001 cyc:   53942673 now IPC :1.16067: AVG IPC :1.05748: L2-Pf-HR :0.85379: L2-HR :0.83992: (Sim:1h23m29s) 
CPU  3 inst:   58000001 cyc:   53954652 now IPC :1.11692: AVG IPC :1.05722: L2-Pf-HR :0.85236: L2-HR :0.83795: (Sim:1h23m31s) 
CPU  2 inst:   58000001 cyc:   53967632 now IPC :1.10597: AVG IPC :1.05699: L2-Pf-HR :0.85952: L2-HR :0.84529: (Sim:1h23m32s) 
CPU  0 inst:   58000004 cyc:   53972984 now IPC :1.11361: AVG IPC :1.05688: L2-Pf-HR :0.85898: L2-HR :0.84304: (Sim:1h23m33s) 
CPU  2 inst:   59000005 cyc:   54790454 now IPC :1.21533: AVG IPC :1.05941: L2-Pf-HR :0.85963: L2-HR :0.84525: (Sim:1h24m47s) 
CPU  3 inst:   59000005 cyc:   54793193 now IPC :1.19255: AVG IPC :1.05933: L2-Pf-HR :0.85261: L2-HR :0.83808: (Sim:1h24m47s) 
CPU  1 inst:   59000005 cyc:   54802905 now IPC :1.16248: AVG IPC :1.05916: L2-Pf-HR :0.85406: L2-HR :0.84003: (Sim:1h24m47s) 
CPU  0 inst:   59000005 cyc:   54833627 now IPC :1.16192: AVG IPC :1.05856: L2-Pf-HR :0.85904: L2-HR :0.84300: (Sim:1h24m50s) 
CPU  3 inst:   60000005 cyc:   55560898 now IPC :1.30258: AVG IPC :1.06276: L2-Pf-HR :0.85277: L2-HR :0.83815: (Sim:1h25m41s) 
CPU  2 inst:   60000002 cyc:   55594208 now IPC :1.24416: AVG IPC :1.06213: L2-Pf-HR :0.85980: L2-HR :0.84529: (Sim:1h25m44s) 
CPU  1 inst:   60000002 cyc:   55596237 now IPC :1.26050: AVG IPC :1.06208: L2-Pf-HR :0.85420: L2-HR :0.84002: (Sim:1h25m44s) 
CPU  0 inst:   60000005 cyc:   55606206 now IPC :1.29437: AVG IPC :1.06189: L2-Pf-HR :0.85910: L2-HR :0.84298: (Sim:1h25m45s) 
CPU  3 inst:   61000002 cyc:   56649055 now IPC :0.91898: AVG IPC :1.05995: L2-Pf-HR :0.85288: L2-HR :0.83827: (Sim:1h26m43s) 
CPU  0 inst:   61000002 cyc:   56704831 now IPC :0.91023: AVG IPC :1.05890: L2-Pf-HR :0.85920: L2-HR :0.84312: (Sim:1h26m46s) 
CPU  1 inst:   61000002 cyc:   56726798 now IPC :0.88452: AVG IPC :1.05848: L2-Pf-HR :0.85419: L2-HR :0.83999: (Sim:1h26m48s) 
CPU  2 inst:   61000002 cyc:   56761009 now IPC :0.85704: AVG IPC :1.05784: L2-Pf-HR :0.85978: L2-HR :0.84529: (Sim:1h26m50s) 
CPU  3 inst:   62000000 cyc:   57387592 now IPC :1.35403: AVG IPC :1.06380: L2-Pf-HR :0.85375: L2-HR :0.83951: (Sim:1h27m36s) 
CPU  0 inst:   62000000 cyc:   57527066 now IPC :1.21619: AVG IPC :1.06119: L2-Pf-HR :0.86017: L2-HR :0.84454: (Sim:1h27m46s) 
CPU  1 inst:   62000000 cyc:   57545059 now IPC :1.22210: AVG IPC :1.06085: L2-Pf-HR :0.85482: L2-HR :0.84104: (Sim:1h27m47s) 
CPU  2 inst:   62000000 cyc:   57556164 now IPC :1.25761: AVG IPC :1.06065: L2-Pf-HR :0.86063: L2-HR :0.84652: (Sim:1h27m48s) 
CPU  3 inst:   63000001 cyc:   58131295 now IPC :1.34462: AVG IPC :1.06745: L2-Pf-HR :0.85462: L2-HR :0.84075: (Sim:1h28m26s) 
CPU  0 inst:   63000001 cyc:   58393630 now IPC :1.15398: AVG IPC :1.06259: L2-Pf-HR :0.86115: L2-HR :0.84597: (Sim:1h28m44s) 
CPU  2 inst:   63000001 cyc:   58404803 now IPC :1.17836: AVG IPC :1.06239: L2-Pf-HR :0.86157: L2-HR :0.84785: (Sim:1h28m45s) 
CPU  1 inst:   63000001 cyc:   58417861 now IPC :1.14574: AVG IPC :1.06214: L2-Pf-HR :0.85556: L2-HR :0.84214: (Sim:1h28m45s) 
CPU  3 inst:   64000001 cyc:   58881165 now IPC :1.33356: AVG IPC :1.07090: L2-Pf-HR :0.85551: L2-HR :0.84196: (Sim:1h29m17s) 
CPU  2 inst:   64000001 cyc:   59188326 now IPC :1.27629: AVG IPC :1.06527: L2-Pf-HR :0.86243: L2-HR :0.84907: (Sim:1h29m40s) 
CPU  1 inst:   64000001 cyc:   59188463 now IPC :1.29769: AVG IPC :1.06526: L2-Pf-HR :0.85629: L2-HR :0.84321: (Sim:1h29m40s) 
CPU  0 inst:   64000001 cyc:   59188467 now IPC :1.25812: AVG IPC :1.06526: L2-Pf-HR :0.86215: L2-HR :0.84738: (Sim:1h29m40s) 
CPU  3 inst:   65000005 cyc:   60087336 now IPC :0.82907: AVG IPC :1.06596: L2-Pf-HR :0.85608: L2-HR :0.84256: (Sim:1h30m30s) 
CPU  2 inst:   65000005 cyc:   60759184 now IPC :0.63660: AVG IPC :1.05400: L2-Pf-HR :0.86286: L2-HR :0.84957: (Sim:1h30m59s) 
CPU  0 inst:   65000005 cyc:   60765001 now IPC :0.63431: AVG IPC :1.05390: L2-Pf-HR :0.86266: L2-HR :0.84798: (Sim:1h30m59s) 
CPU  1 inst:   65000005 cyc:   60768257 now IPC :0.63300: AVG IPC :1.05383: L2-Pf-HR :0.85662: L2-HR :0.84360: (Sim:1h31m0s) 
CPU  3 inst:   66000002 cyc:   61027169 now IPC :1.06402: AVG IPC :1.06593: L2-Pf-HR :0.85587: L2-HR :0.84220: (Sim:1h31m14s) 
CPU  0 inst:   66000001 cyc:   61848756 now IPC :0.92271: AVG IPC :1.05156: L2-Pf-HR :0.86243: L2-HR :0.84760: (Sim:1h32m4s) 
CPU  1 inst:   66000001 cyc:   61852197 now IPC :0.92256: AVG IPC :1.05150: L2-Pf-HR :0.85636: L2-HR :0.84320: (Sim:1h32m4s) 
CPU  2 inst:   66000000 cyc:   61862915 now IPC :0.90601: AVG IPC :1.05132: L2-Pf-HR :0.86250: L2-HR :0.84907: (Sim:1h32m5s) 
CPU  3 inst:   67000001 cyc:   62071952 now IPC :0.95714: AVG IPC :1.06407: L2-Pf-HR :0.85561: L2-HR :0.84180: (Sim:1h32m18s) 
CPU  0 inst:   67000001 cyc:   62847451 now IPC :1.00131: AVG IPC :1.05075: L2-Pf-HR :0.86211: L2-HR :0.84713: (Sim:1h33m5s) 
CPU  2 inst:   67000001 cyc:   62853518 now IPC :1.00949: AVG IPC :1.05065: L2-Pf-HR :0.86220: L2-HR :0.84859: (Sim:1h33m5s) 
CPU  1 inst:   67000001 cyc:   62859843 now IPC :0.99241: AVG IPC :1.05053: L2-Pf-HR :0.85596: L2-HR :0.84266: (Sim:1h33m6s) 
CPU  3 inst:   68000000 cyc:   63121521 now IPC :0.95277: AVG IPC :1.06219: L2-Pf-HR :0.85529: L2-HR :0.84136: (Sim:1h33m22s) 
CPU  1 inst:   68000000 cyc:   63857803 now IPC :1.00204: AVG IPC :1.04976: L2-Pf-HR :0.85566: L2-HR :0.84224: (Sim:1h34m5s) 
CPU  0 inst:   68000000 cyc:   63871297 now IPC :0.97671: AVG IPC :1.04954: L2-Pf-HR :0.86191: L2-HR :0.84679: (Sim:1h34m6s) 
CPU  2 inst:   68000001 cyc:   63912829 now IPC :0.94401: AVG IPC :1.04886: L2-Pf-HR :0.86190: L2-HR :0.84815: (Sim:1h34m9s) 
CPU  3 inst:   69000000 cyc:   64175319 now IPC :0.94895: AVG IPC :1.06030: L2-Pf-HR :0.85504: L2-HR :0.84099: (Sim:1h34m25s) 
CPU  1 inst:   69000000 cyc:   64906865 now IPC :0.95323: AVG IPC :1.04818: L2-Pf-HR :0.85537: L2-HR :0.84184: (Sim:1h35m35s) 
CPU  0 inst:   69000000 cyc:   64912024 now IPC :0.96087: AVG IPC :1.04810: L2-Pf-HR :0.86166: L2-HR :0.84644: (Sim:1h35m36s) 
CPU  2 inst:   69000000 cyc:   64925817 now IPC :0.98718: AVG IPC :1.04788: L2-Pf-HR :0.86164: L2-HR :0.84773: (Sim:1h35m37s) 
CPU  3 inst:   70000002 cyc:   65163972 now IPC :1.01148: AVG IPC :1.05955: L2-Pf-HR :0.85485: L2-HR :0.84064: (Sim:1h36m4s) 
CPU  2 inst:   70000001 cyc:   65751137 now IPC :1.21165: AVG IPC :1.04997: L2-Pf-HR :0.86136: L2-HR :0.84732: (Sim:1h36m56s) 
CPU  0 inst:   70000002 cyc:   65753861 now IPC :1.18788: AVG IPC :1.04992: L2-Pf-HR :0.86146: L2-HR :0.84611: (Sim:1h36m56s) 
CPU  1 inst:   70000002 cyc:   65792777 now IPC :1.12878: AVG IPC :1.04928: L2-Pf-HR :0.85515: L2-HR :0.84150: (Sim:1h37m0s) 
CPU  3 inst:   71000003 cyc:   66215304 now IPC :0.95118: AVG IPC :1.05780: L2-Pf-HR :0.85475: L2-HR :0.84034: (Sim:1h37m33s) 
CPU  3 inst:   72000002 cyc:   67124822 now IPC :1.09948: AVG IPC :1.05838: L2-Pf-HR :0.85469: L2-HR :0.84017: (Sim:1h38m12s) 
CPU  2 inst:   71000003 cyc:   67271078 now IPC :0.65792: AVG IPC :1.04098: L2-Pf-HR :0.86119: L2-HR :0.84696: (Sim:1h38m19s) 
CPU  0 inst:   71000003 cyc:   67297311 now IPC :0.64790: AVG IPC :1.04056: L2-Pf-HR :0.86125: L2-HR :0.84575: (Sim:1h38m21s) 
CPU  1 inst:   71000003 cyc:   67305262 now IPC :0.66116: AVG IPC :1.04043: L2-Pf-HR :0.85510: L2-HR :0.84124: (Sim:1h38m22s) 
CPU  3 inst:   73000003 cyc:   67745436 now IPC :1.61131: AVG IPC :1.06352: L2-Pf-HR :0.85452: L2-HR :0.83985: (Sim:1h38m48s) 
CPU  2 inst:   72000002 cyc:   68355258 now IPC :0.92236: AVG IPC :1.03907: L2-Pf-HR :0.86093: L2-HR :0.84662: (Sim:1h39m28s) 
CPU  0 inst:   72000002 cyc:   68371915 now IPC :0.93057: AVG IPC :1.03880: L2-Pf-HR :0.86103: L2-HR :0.84549: (Sim:1h39m29s) 
CPU  1 inst:   72000002 cyc:   68372446 now IPC :0.93704: AVG IPC :1.03879: L2-Pf-HR :0.85477: L2-HR :0.84093: (Sim:1h39m29s) 
CPU  3 inst:   74000004 cyc:   68482158 now IPC :1.35737: AVG IPC :1.06672: L2-Pf-HR :0.85440: L2-HR :0.83959: (Sim:1h39m37s) 
CPU  2 inst:   73000002 cyc:   69180448 now IPC :1.21184: AVG IPC :1.04116: L2-Pf-HR :0.86075: L2-HR :0.84630: (Sim:1h40m47s) 
CPU  1 inst:   73000002 cyc:   69185640 now IPC :1.22972: AVG IPC :1.04107: L2-Pf-HR :0.85455: L2-HR :0.84066: (Sim:1h40m47s) 
CPU  0 inst:   73000002 cyc:   69197883 now IPC :1.21070: AVG IPC :1.04089: L2-Pf-HR :0.86087: L2-HR :0.84525: (Sim:1h40m49s) 
CPU  3 inst:   75000003 cyc:   69217514 now IPC :1.35988: AVG IPC :1.06988: L2-Pf-HR :0.85422: L2-HR :0.83929: (Sim:1h40m51s) 
CPU  3 inst:   76000000 cyc:   69913992 now IPC :1.43579: AVG IPC :1.07358: L2-Pf-HR :0.85415: L2-HR :0.83909: (Sim:1h42m17s) 
CPU  1 inst:   74000005 cyc:   70055739 now IPC :1.14930: AVG IPC :1.04243: L2-Pf-HR :0.85435: L2-HR :0.84045: (Sim:1h42m36s) 
CPU  2 inst:   74000005 cyc:   70055890 now IPC :1.14228: AVG IPC :1.04244: L2-Pf-HR :0.86052: L2-HR :0.84596: (Sim:1h42m36s) 
CPU  0 inst:   74000005 cyc:   70072942 now IPC :1.14278: AVG IPC :1.04218: L2-Pf-HR :0.86073: L2-HR :0.84506: (Sim:1h42m38s) 
CPU  2 inst:   75000003 cyc:   70804980 now IPC :1.33495: AVG IPC :1.04558: L2-Pf-HR :0.86036: L2-HR :0.84567: (Sim:1h44m8s) 
CPU  0 inst:   75000003 cyc:   70810832 now IPC :1.35521: AVG IPC :1.04548: L2-Pf-HR :0.86054: L2-HR :0.84484: (Sim:1h44m8s) 
CPU  1 inst:   75000003 cyc:   70834309 now IPC :1.28440: AVG IPC :1.04513: L2-Pf-HR :0.85405: L2-HR :0.84015: (Sim:1h44m11s) 
CPU  3 inst:   77000002 cyc:   71220098 now IPC :0.76564: AVG IPC :1.06785: L2-Pf-HR :0.85421: L2-HR :0.83901: (Sim:1h44m57s) 
CPU  2 inst:   76000000 cyc:   71518801 now IPC :1.40091: AVG IPC :1.04917: L2-Pf-HR :0.86022: L2-HR :0.84541: (Sim:1h45m37s) 
CPU  0 inst:   76000000 cyc:   71519558 now IPC :1.41098: AVG IPC :1.04916: L2-Pf-HR :0.86047: L2-HR :0.84469: (Sim:1h45m37s) 
CPU  1 inst:   76000000 cyc:   71522153 now IPC :1.45381: AVG IPC :1.04911: L2-Pf-HR :0.85395: L2-HR :0.84002: (Sim:1h45m37s) 
CPU  3 inst:   78000003 cyc:   71861243 now IPC :1.55971: AVG IPC :1.07230: L2-Pf-HR :0.85454: L2-HR :0.83975: (Sim:1h46m35s) 
CPU  3 inst:   79000000 cyc:   72412861 now IPC :1.81284: AVG IPC :1.07802: L2-Pf-HR :0.85561: L2-HR :0.84110: (Sim:1h47m26s) 
CPU  0 inst:   77000002 cyc:   72701102 now IPC :0.84635: AVG IPC :1.04582: L2-Pf-HR :0.86045: L2-HR :0.84461: (Sim:1h47m54s) 
CPU  2 inst:   77000002 cyc:   72706141 now IPC :0.84222: AVG IPC :1.04575: L2-Pf-HR :0.86013: L2-HR :0.84523: (Sim:1h47m54s) 
CPU  1 inst:   77000002 cyc:   72710543 now IPC :0.84148: AVG IPC :1.04567: L2-Pf-HR :0.85397: L2-HR :0.83998: (Sim:1h47m55s) 
CPU  3 inst:   80000005 cyc:   72984934 now IPC :1.74804: AVG IPC :1.08335: L2-Pf-HR :0.85642: L2-HR :0.84221: (Sim:1h48m27s) 
CPU  1 inst:   78000003 cyc:   73534376 now IPC :1.21384: AVG IPC :1.04758: L2-Pf-HR :0.85447: L2-HR :0.84080: (Sim:1h49m41s) 
CPU  0 inst:   78000002 cyc:   73543388 now IPC :1.18725: AVG IPC :1.04746: L2-Pf-HR :0.86098: L2-HR :0.84549: (Sim:1h49m42s) 
CPU  2 inst:   78000001 cyc:   73560059 now IPC :1.17107: AVG IPC :1.04722: L2-Pf-HR :0.86054: L2-HR :0.84592: (Sim:1h49m44s) 
CPU  2 inst:   79000000 cyc:   74343877 now IPC :1.27581: AVG IPC :1.04966: L2-Pf-HR :0.86106: L2-HR :0.84672: (Sim:1h51m13s) 
CPU  0 inst:   79000000 cyc:   74352146 now IPC :1.23646: AVG IPC :1.04954: L2-Pf-HR :0.86169: L2-HR :0.84656: (Sim:1h51m14s) 
CPU  1 inst:   79000000 cyc:   74391770 now IPC :1.16632: AVG IPC :1.04897: L2-Pf-HR :0.85511: L2-HR :0.84175: (Sim:1h51m19s) 
CPU  3 inst:   81000005 cyc:   74511268 now IPC :0.65516: AVG IPC :1.07446: L2-Pf-HR :0.85696: L2-HR :0.84287: (Sim:1h51m33s) 
CPU  2 inst:   80000005 cyc:   75177108 now IPC :1.20015: AVG IPC :1.05135: L2-Pf-HR :0.86160: L2-HR :0.84751: (Sim:1h52m41s) 
CPU  0 inst:   80000005 cyc:   75185832 now IPC :1.19950: AVG IPC :1.05123: L2-Pf-HR :0.86239: L2-HR :0.84760: (Sim:1h52m42s) 
CPU  1 inst:   80000005 cyc:   75197377 now IPC :1.24131: AVG IPC :1.05106: L2-Pf-HR :0.85578: L2-HR :0.84271: (Sim:1h52m42s) 
CPU  3 inst:   82000000 cyc:   75542533 now IPC :0.96968: AVG IPC :1.07301: L2-Pf-HR :0.85663: L2-HR :0.84241: (Sim:1h53m11s) 
CPU  3 inst:   83000001 cyc:   76363263 now IPC :1.21843: AVG IPC :1.07459: L2-Pf-HR :0.85660: L2-HR :0.84221: (Sim:1h53m49s) 
CPU  0 inst:   81000005 cyc:   76728555 now IPC :0.64820: AVG IPC :1.04302: L2-Pf-HR :0.86279: L2-HR :0.84816: (Sim:1h54m4s) 
CPU  2 inst:   81000002 cyc:   76802341 now IPC :0.61529: AVG IPC :1.04201: L2-Pf-HR :0.86189: L2-HR :0.84789: (Sim:1h54m8s) 
CPU  1 inst:   81000005 cyc:   76817148 now IPC :0.61737: AVG IPC :1.04180: L2-Pf-HR :0.85617: L2-HR :0.84321: (Sim:1h54m9s) 
CPU  3 inst:   84000000 cyc:   77154005 now IPC :1.26463: AVG IPC :1.07656: L2-Pf-HR :0.85649: L2-HR :0.84194: (Sim:1h54m27s) 
CPU  0 inst:   82000000 cyc:   77905504 now IPC :0.84965: AVG IPC :1.04006: L2-Pf-HR :0.86251: L2-HR :0.84774: (Sim:1h55m14s) 
CPU  1 inst:   82000000 cyc:   77952165 now IPC :0.88104: AVG IPC :1.03942: L2-Pf-HR :0.85590: L2-HR :0.84283: (Sim:1h55m17s) 
CPU  2 inst:   82000000 cyc:   77960083 now IPC :0.86375: AVG IPC :1.03933: L2-Pf-HR :0.86163: L2-HR :0.84751: (Sim:1h55m17s) 
CPU  3 inst:   85000002 cyc:   77981742 now IPC :1.20812: AVG IPC :1.07798: L2-Pf-HR :0.85627: L2-HR :0.84158: (Sim:1h55m19s) 
CPU  2 inst:   83000001 cyc:   78905170 now IPC :1.05810: AVG IPC :1.03955: L2-Pf-HR :0.86143: L2-HR :0.84715: (Sim:1h56m16s) 
CPU  0 inst:   83000001 cyc:   78941515 now IPC :0.96524: AVG IPC :1.03906: L2-Pf-HR :0.86234: L2-HR :0.84740: (Sim:1h56m18s) 
CPU  1 inst:   83000001 cyc:   78942221 now IPC :1.01004: AVG IPC :1.03905: L2-Pf-HR :0.85571: L2-HR :0.84246: (Sim:1h56m18s) 
CPU  3 inst:   86000001 cyc:   78954007 now IPC :1.02853: AVG IPC :1.07736: L2-Pf-HR :0.85614: L2-HR :0.84131: (Sim:1h56m19s) 
CPU  2 inst:   84000000 cyc:   79813483 now IPC :1.10094: AVG IPC :1.04026: L2-Pf-HR :0.86118: L2-HR :0.84679: (Sim:1h57m16s) 
CPU  1 inst:   84000000 cyc:   79828355 now IPC :1.12850: AVG IPC :1.04006: L2-Pf-HR :0.85545: L2-HR :0.84208: (Sim:1h57m17s) 
CPU  0 inst:   84000000 cyc:   79828599 now IPC :1.12729: AVG IPC :1.04006: L2-Pf-HR :0.86206: L2-HR :0.84700: (Sim:1h57m17s) 
CPU  3 inst:   87000000 cyc:   80576700 now IPC :0.61626: AVG IPC :1.06796: L2-Pf-HR :0.85614: L2-HR :0.84109: (Sim:1h58m2s) 
CPU  2 inst:   85000002 cyc:   80834229 now IPC :0.97968: AVG IPC :1.03949: L2-Pf-HR :0.86102: L2-HR :0.84650: (Sim:1h58m17s) 
CPU  0 inst:   85000002 cyc:   80834789 now IPC :0.99385: AVG IPC :1.03947: L2-Pf-HR :0.86200: L2-HR :0.84677: (Sim:1h58m17s) 
CPU  1 inst:   85000001 cyc:   80850414 now IPC :0.97842: AVG IPC :1.03927: L2-Pf-HR :0.85536: L2-HR :0.84185: (Sim:1h58m18s) 
CPU  2 inst:   86000001 cyc:   81770078 now IPC :1.06855: AVG IPC :1.03982: L2-Pf-HR :0.86092: L2-HR :0.84627: (Sim:1h59m15s) 
CPU  1 inst:   86000001 cyc:   81779721 now IPC :1.07607: AVG IPC :1.03969: L2-Pf-HR :0.85527: L2-HR :0.84162: (Sim:1h59m16s) 
CPU  0 inst:   86000001 cyc:   81807137 now IPC :1.02844: AVG IPC :1.03934: L2-Pf-HR :0.86188: L2-HR :0.84648: (Sim:1h59m17s) 
CPU  3 inst:   88000002 cyc:   81843941 now IPC :0.78912: AVG IPC :1.06359: L2-Pf-HR :0.85592: L2-HR :0.84079: (Sim:1h59m20s) 
CPU  3 inst:   89000003 cyc:   82419331 now IPC :1.73795: AVG IPC :1.06836: L2-Pf-HR :0.85559: L2-HR :0.84041: (Sim:2h0m5s) 
CPU  1 inst:   87000000 cyc:   82944296 now IPC :0.85868: AVG IPC :1.03712: L2-Pf-HR :0.85517: L2-HR :0.84136: (Sim:2h0m28s) 
CPU  2 inst:   87000000 cyc:   83040392 now IPC :0.78721: AVG IPC :1.03591: L2-Pf-HR :0.86079: L2-HR :0.84599: (Sim:2h0m31s) 
CPU  0 inst:   87000000 cyc:   83081263 now IPC :0.78485: AVG IPC :1.03539: L2-Pf-HR :0.86172: L2-HR :0.84615: (Sim:2h0m33s) 
CPU  3 inst:   90000004 cyc:   83169769 now IPC :1.33256: AVG IPC :1.07077: L2-Pf-HR :0.85566: L2-HR :0.84036: (Sim:2h0m37s) 
CPU  3 inst:   91000004 cyc:   83790361 now IPC :1.61136: AVG IPC :1.07482: L2-Pf-HR :0.85563: L2-HR :0.84023: (Sim:2h1m14s) 
CPU  1 inst:   88000001 cyc:   84176157 now IPC :0.81178: AVG IPC :1.03378: L2-Pf-HR :0.85492: L2-HR :0.84106: (Sim:2h1m38s) 
CPU  2 inst:   88000002 cyc:   84271630 now IPC :0.81219: AVG IPC :1.03260: L2-Pf-HR :0.86054: L2-HR :0.84571: (Sim:2h1m45s) 
CPU  0 inst:   88000001 cyc:   84285050 now IPC :0.83071: AVG IPC :1.03243: L2-Pf-HR :0.86143: L2-HR :0.84583: (Sim:2h1m45s) 
CPU  3 inst:   92000004 cyc:   84519254 now IPC :1.37194: AVG IPC :1.07741: L2-Pf-HR :0.85553: L2-HR :0.84004: (Sim:2h2m2s) 
CPU  0 inst:   89000005 cyc:   85012967 now IPC :1.37379: AVG IPC :1.03539: L2-Pf-HR :0.86121: L2-HR :0.84556: (Sim:2h2m37s) 
CPU  1 inst:   89000005 cyc:   85022073 now IPC :1.18216: AVG IPC :1.03528: L2-Pf-HR :0.85466: L2-HR :0.84076: (Sim:2h2m38s) 
CPU  2 inst:   89000004 cyc:   85023446 now IPC :1.33012: AVG IPC :1.03527: L2-Pf-HR :0.86036: L2-HR :0.84547: (Sim:2h2m38s) 
CPU  3 inst:   93000005 cyc:   85694915 now IPC :0.85059: AVG IPC :1.07426: L2-Pf-HR :0.85555: L2-HR :0.83991: (Sim:2h3m19s) 
CPU  0 inst:   90000004 cyc:   85849970 now IPC :1.19474: AVG IPC :1.03696: L2-Pf-HR :0.86109: L2-HR :0.84538: (Sim:2h3m29s) 
CPU  2 inst:   90000004 cyc:   85857338 now IPC :1.19920: AVG IPC :1.03688: L2-Pf-HR :0.86020: L2-HR :0.84525: (Sim:2h3m30s) 
CPU  1 inst:   90000004 cyc:   85860552 now IPC :1.19263: AVG IPC :1.03683: L2-Pf-HR :0.85452: L2-HR :0.84055: (Sim:2h3m30s) 
CPU  0 inst:   91000001 cyc:   86606073 now IPC :1.32257: AVG IPC :1.03948: L2-Pf-HR :0.86092: L2-HR :0.84517: (Sim:2h4m20s) 
CPU  2 inst:   91000001 cyc:   86607999 now IPC :1.33216: AVG IPC :1.03947: L2-Pf-HR :0.86005: L2-HR :0.84507: (Sim:2h4m20s) 
CPU  1 inst:   91000001 cyc:   86616742 now IPC :1.32241: AVG IPC :1.03935: L2-Pf-HR :0.85442: L2-HR :0.84041: (Sim:2h4m21s) 
CPU  3 inst:   94000000 cyc:   86873074 now IPC :0.84878: AVG IPC :1.07117: L2-Pf-HR :0.85584: L2-HR :0.84051: (Sim:2h4m38s) 
CPU  0 inst:   92000004 cyc:   87407603 now IPC :1.24762: AVG IPC :1.04142: L2-Pf-HR :0.86079: L2-HR :0.84498: (Sim:2h5m14s) 
CPU  2 inst:   92000004 cyc:   87413531 now IPC :1.24142: AVG IPC :1.04135: L2-Pf-HR :0.85993: L2-HR :0.84488: (Sim:2h5m15s) 
CPU  1 inst:   92000004 cyc:   87416106 now IPC :1.25100: AVG IPC :1.04131: L2-Pf-HR :0.85436: L2-HR :0.84027: (Sim:2h5m15s) 
CPU  3 inst:   95000001 cyc:   87580707 now IPC :1.41316: AVG IPC :1.07397: L2-Pf-HR :0.85625: L2-HR :0.84122: (Sim:2h5m29s) 
CPU  3 inst:   96000003 cyc:   88111387 now IPC :1.88438: AVG IPC :1.07890: L2-Pf-HR :0.85690: L2-HR :0.84215: (Sim:2h6m9s) 
CPU  2 inst:   93000004 cyc:   88361598 now IPC :1.05478: AVG IPC :1.04149: L2-Pf-HR :0.85985: L2-HR :0.84469: (Sim:2h6m20s) 
CPU  1 inst:   93000005 cyc:   88361641 now IPC :1.05760: AVG IPC :1.04149: L2-Pf-HR :0.85437: L2-HR :0.84016: (Sim:2h6m20s) 
CPU  0 inst:   93000003 cyc:   88377501 now IPC :1.03104: AVG IPC :1.04130: L2-Pf-HR :0.86066: L2-HR :0.84477: (Sim:2h6m21s) 
CPU  2 inst:   94000000 cyc:   89195968 now IPC :1.19850: AVG IPC :1.04298: L2-Pf-HR :0.86028: L2-HR :0.84540: (Sim:2h7m12s) 
CPU  1 inst:   94000000 cyc:   89204608 now IPC :1.18628: AVG IPC :1.04287: L2-Pf-HR :0.85472: L2-HR :0.84074: (Sim:2h7m12s) 
CPU  0 inst:   94000000 cyc:   89207713 now IPC :1.20451: AVG IPC :1.04284: L2-Pf-HR :0.86101: L2-HR :0.84540: (Sim:2h7m13s) 
CPU  3 inst:   97000002 cyc:   89297968 now IPC :0.84276: AVG IPC :1.07573: L2-Pf-HR :0.85782: L2-HR :0.84316: (Sim:2h7m18s) 
CPU  2 inst:   95000001 cyc:   90014331 now IPC :1.22195: AVG IPC :1.04462: L2-Pf-HR :0.86081: L2-HR :0.84618: (Sim:2h8m1s) 
CPU  0 inst:   95000001 cyc:   90016468 now IPC :1.23647: AVG IPC :1.04460: L2-Pf-HR :0.86145: L2-HR :0.84608: (Sim:2h8m1s) 
CPU  1 inst:   95000001 cyc:   90017507 now IPC :1.23017: AVG IPC :1.04458: L2-Pf-HR :0.85516: L2-HR :0.84141: (Sim:2h8m1s) 
CPU  3 inst:   98000003 cyc:   90802866 now IPC :0.66450: AVG IPC :1.06884: L2-Pf-HR :0.85730: L2-HR :0.84260: (Sim:2h8m51s) 
CPU  0 inst:   96000003 cyc:   90819326 now IPC :1.24555: AVG IPC :1.04639: L2-Pf-HR :0.86191: L2-HR :0.84679: (Sim:2h8m53s) 
CPU  2 inst:   96000003 cyc:   90826481 now IPC :1.23130: AVG IPC :1.04631: L2-Pf-HR :0.86132: L2-HR :0.84695: (Sim:2h8m53s) 
CPU  1 inst:   96000003 cyc:   90826560 now IPC :1.23602: AVG IPC :1.04630: L2-Pf-HR :0.85563: L2-HR :0.84209: (Sim:2h8m53s) 
CPU  3 inst:   99000001 cyc:   91570945 now IPC :1.30195: AVG IPC :1.07082: L2-Pf-HR :0.85687: L2-HR :0.84212: (Sim:2h9m45s) 
CPU  1 inst:   97000002 cyc:   92016292 now IPC :0.84052: AVG IPC :1.04361: L2-Pf-HR :0.85613: L2-HR :0.84268: (Sim:2h10m3s) 
CPU  2 inst:   97000002 cyc:   92040314 now IPC :0.82384: AVG IPC :1.04335: L2-Pf-HR :0.86188: L2-HR :0.84761: (Sim:2h10m4s) 
CPU  0 inst:   97000002 cyc:   92064351 now IPC :0.80320: AVG IPC :1.04307: L2-Pf-HR :0.86241: L2-HR :0.84740: (Sim:2h10m6s) 
CPU  3 inst:  100000002 cyc:   92387855 now IPC :1.22413: AVG IPC :1.07219: L2-Pf-HR :0.85674: L2-HR :0.84191: (Sim:2h10m19s) 
CPU  3 inst:  101000000 cyc:   93223824 now IPC :1.19621: AVG IPC :1.07331: L2-Pf-HR :0.85650: L2-HR :0.84159: (Sim:2h11m28s) 
CPU  2 inst:   98000003 cyc:   93501590 now IPC :0.68433: AVG IPC :1.03768: L2-Pf-HR :0.86156: L2-HR :0.84723: (Sim:2h11m59s) 
CPU  1 inst:   98000003 cyc:   93551420 now IPC :0.65141: AVG IPC :1.03711: L2-Pf-HR :0.85575: L2-HR :0.84229: (Sim:2h12m4s) 
CPU  0 inst:   98000003 cyc:   93577544 now IPC :0.66085: AVG IPC :1.03682: L2-Pf-HR :0.86208: L2-HR :0.84703: (Sim:2h12m7s) 
CPU  3 inst:  102000002 cyc:   94172473 now IPC :1.05413: AVG IPC :1.07311: L2-Pf-HR :0.85620: L2-HR :0.84120: (Sim:2h12m57s) 
CPU  1 inst:   99000001 cyc:   94530943 now IPC :1.02090: AVG IPC :1.03694: L2-Pf-HR :0.85550: L2-HR :0.84200: (Sim:2h13m37s) 
CPU  2 inst:   99000001 cyc:   94532247 now IPC :0.97025: AVG IPC :1.03693: L2-Pf-HR :0.86138: L2-HR :0.84696: (Sim:2h13m37s) 
CPU  0 inst:   99000004 cyc:   94568766 now IPC :1.00886: AVG IPC :1.03652: L2-Pf-HR :0.86190: L2-HR :0.84681: (Sim:2h13m42s) 
CPU  3 inst:  103000000 cyc:   95105260 now IPC :1.07205: AVG IPC :1.07310: L2-Pf-HR :0.85617: L2-HR :0.84103: (Sim:2h14m45s) 
CPU  1 inst:  100000002 cyc:   95456725 now IPC :1.08017: AVG IPC :1.03736: L2-Pf-HR :0.85522: L2-HR :0.84169: (Sim:2h15m20s) 
CPU  0 inst:  100000002 cyc:   95461208 now IPC :1.12052: AVG IPC :1.03732: L2-Pf-HR :0.86169: L2-HR :0.84654: (Sim:2h15m21s) 
CPU  2 inst:  100000002 cyc:   95468720 now IPC :1.06784: AVG IPC :1.03724: L2-Pf-HR :0.86116: L2-HR :0.84667: (Sim:2h15m22s) 
CPU  0 inst:  101000000 cyc:   96419068 now IPC :1.04399: AVG IPC :1.03738: L2-Pf-HR :0.86152: L2-HR :0.84630: (Sim:2h17m5s) 
CPU  1 inst:  101000000 cyc:   96426064 now IPC :1.03163: AVG IPC :1.03731: L2-Pf-HR :0.85494: L2-HR :0.84140: (Sim:2h17m6s) 
CPU  2 inst:  101000000 cyc:   96438066 now IPC :1.03162: AVG IPC :1.03718: L2-Pf-HR :0.86102: L2-HR :0.84645: (Sim:2h17m7s) 
CPU  3 inst:  104000001 cyc:   97156849 now IPC :0.48743: AVG IPC :1.06061: L2-Pf-HR :0.85580: L2-HR :0.84061: (Sim:2h18m31s) 
CPU  2 inst:  102000002 cyc:   97405737 now IPC :1.03341: AVG IPC :1.03714: L2-Pf-HR :0.86077: L2-HR :0.84612: (Sim:2h19m0s) 
CPU  0 inst:  102000001 cyc:   97408286 now IPC :1.01090: AVG IPC :1.03711: L2-Pf-HR :0.86134: L2-HR :0.84606: (Sim:2h19m0s) 
CPU  1 inst:  102000002 cyc:   97465438 now IPC :0.96212: AVG IPC :1.03650: L2-Pf-HR :0.85460: L2-HR :0.84106: (Sim:2h19m7s) 
CPU  3 inst:  105000005 cyc:   97855685 now IPC :1.43096: AVG IPC :1.06328: L2-Pf-HR :0.85550: L2-HR :0.84025: (Sim:2h20m5s) 
CPU  2 inst:  103000000 cyc:   98081469 now IPC :1.47987: AVG IPC :1.04023: L2-Pf-HR :0.86072: L2-HR :0.84596: (Sim:2h20m43s) 
CPU  0 inst:  103000000 cyc:   98085592 now IPC :1.47644: AVG IPC :1.04018: L2-Pf-HR :0.86124: L2-HR :0.84587: (Sim:2h20m44s) 
CPU  1 inst:  103000000 cyc:   98128479 now IPC :1.50820: AVG IPC :1.03972: L2-Pf-HR :0.85460: L2-HR :0.84098: (Sim:2h20m50s) 
CPU  3 inst:  106000002 cyc:   98455298 now IPC :1.66774: AVG IPC :1.06700: L2-Pf-HR :0.85533: L2-HR :0.84005: (Sim:2h21m19s) 
CPU  3 inst:  107000002 cyc:   99140241 now IPC :1.45998: AVG IPC :1.06974: L2-Pf-HR :0.85540: L2-HR :0.84003: (Sim:2h22m18s) 
CPU  3 inst:  108000002 cyc:   99799112 now IPC :1.51775: AVG IPC :1.07273: L2-Pf-HR :0.85526: L2-HR :0.83982: (Sim:2h23m38s) 
CPU  2 inst:  104000001 cyc:   99879721 now IPC :0.55610: AVG IPC :1.03142: L2-Pf-HR :0.86027: L2-HR :0.84549: (Sim:2h23m49s) 
CPU  1 inst:  104000001 cyc:   99883938 now IPC :0.56965: AVG IPC :1.03137: L2-Pf-HR :0.85417: L2-HR :0.84055: (Sim:2h23m49s) 
CPU  0 inst:  104000001 cyc:   99929346 now IPC :0.54237: AVG IPC :1.03090: L2-Pf-HR :0.86091: L2-HR :0.84547: (Sim:2h23m55s) 
CPU  3 inst:  109000000 cyc:  100506104 now IPC :1.41444: AVG IPC :1.07516: L2-Pf-HR :0.85531: L2-HR :0.83975: (Sim:2h25m17s) 
CPU  1 inst:  105000000 cyc:  100588444 now IPC :1.41943: AVG IPC :1.03412: L2-Pf-HR :0.85385: L2-HR :0.84023: (Sim:2h25m27s) 
CPU  2 inst:  105000005 cyc:  100593138 now IPC :1.40171: AVG IPC :1.03407: L2-Pf-HR :0.85998: L2-HR :0.84519: (Sim:2h25m28s) 
CPU  0 inst:  105000005 cyc:  100673636 now IPC :1.34357: AVG IPC :1.03324: L2-Pf-HR :0.86074: L2-HR :0.84519: (Sim:2h25m37s) 
CPU  1 inst:  106000002 cyc:  101467064 now IPC :1.13815: AVG IPC :1.03503: L2-Pf-HR :0.85359: L2-HR :0.83998: (Sim:2h27m9s) 
CPU  2 inst:  106000002 cyc:  101492260 now IPC :1.11219: AVG IPC :1.03477: L2-Pf-HR :0.85971: L2-HR :0.84492: (Sim:2h27m12s) 
CPU  0 inst:  106000002 cyc:  101497333 now IPC :1.21404: AVG IPC :1.03472: L2-Pf-HR :0.86066: L2-HR :0.84502: (Sim:2h27m12s) 
CPU  3 inst:  110000002 cyc:  101918687 now IPC :0.70792: AVG IPC :1.07002: L2-Pf-HR :0.85547: L2-HR :0.84013: (Sim:2h28m9s) 
CPU  1 inst:  107000002 cyc:  102256321 now IPC :1.26701: AVG IPC :1.03683: L2-Pf-HR :0.85336: L2-HR :0.83975: (Sim:2h28m54s) 
CPU  0 inst:  107000002 cyc:  102260794 now IPC :1.30982: AVG IPC :1.03679: L2-Pf-HR :0.86063: L2-HR :0.84487: (Sim:2h28m54s) 
CPU  2 inst:  107000002 cyc:  102262043 now IPC :1.29907: AVG IPC :1.03678: L2-Pf-HR :0.85957: L2-HR :0.84474: (Sim:2h28m54s) 
CPU  3 inst:  111000004 cyc:  102789512 now IPC :1.14834: AVG IPC :1.07069: L2-Pf-HR :0.85593: L2-HR :0.84081: (Sim:2h30m4s) 
CPU  0 inst:  108000002 cyc:  103063170 now IPC :1.24630: AVG IPC :1.03844: L2-Pf-HR :0.86060: L2-HR :0.84475: (Sim:2h30m42s) 
CPU  1 inst:  108000002 cyc:  103069977 now IPC :1.22902: AVG IPC :1.03837: L2-Pf-HR :0.85324: L2-HR :0.83962: (Sim:2h30m43s) 
CPU  2 inst:  108000002 cyc:  103093760 now IPC :1.20233: AVG IPC :1.03813: L2-Pf-HR :0.85945: L2-HR :0.84459: (Sim:2h30m47s) 
CPU  3 inst:  112000001 cyc:  103414513 now IPC :1.59999: AVG IPC :1.07392: L2-Pf-HR :0.85641: L2-HR :0.84153: (Sim:2h31m40s) 
CPU  0 inst:  109000000 cyc:  103625850 now IPC :1.77721: AVG IPC :1.04249: L2-Pf-HR :0.86070: L2-HR :0.84470: (Sim:2h32m22s) 
CPU  1 inst:  109000000 cyc:  103627345 now IPC :1.79414: AVG IPC :1.04247: L2-Pf-HR :0.85331: L2-HR :0.83964: (Sim:2h32m23s) 
CPU  2 inst:  109000000 cyc:  103647505 now IPC :1.80588: AVG IPC :1.04227: L2-Pf-HR :0.85949: L2-HR :0.84455: (Sim:2h32m26s) 
CPU  3 inst:  113000000 cyc:  103941295 now IPC :1.89832: AVG IPC :1.07814: L2-Pf-HR :0.85740: L2-HR :0.84264: (Sim:2h32m55s) 
CPU  0 inst:  110000005 cyc:  104813918 now IPC :0.84171: AVG IPC :1.04019: L2-Pf-HR :0.86098: L2-HR :0.84518: (Sim:2h34m23s) 
CPU  1 inst:  110000002 cyc:  104928707 now IPC :0.76843: AVG IPC :1.03904: L2-Pf-HR :0.85355: L2-HR :0.84002: (Sim:2h34m37s) 
CPU  2 inst:  110000001 cyc:  104935364 now IPC :0.77648: AVG IPC :1.03898: L2-Pf-HR :0.85978: L2-HR :0.84503: (Sim:2h34m37s) 
CPU  0 inst:  111000005 cyc:  105563156 now IPC :1.33469: AVG IPC :1.04230: L2-Pf-HR :0.86147: L2-HR :0.84587: (Sim:2h35m59s) 
CPU  1 inst:  111000005 cyc:  105740833 now IPC :1.23134: AVG IPC :1.04053: L2-Pf-HR :0.85396: L2-HR :0.84061: (Sim:2h36m21s) 
CPU  2 inst:  111000005 cyc:  105756442 now IPC :1.21792: AVG IPC :1.04038: L2-Pf-HR :0.86024: L2-HR :0.84570: (Sim:2h36m23s) 
CPU  3 inst:  114000001 cyc:  105962813 now IPC :0.49468: AVG IPC :1.06690: L2-Pf-HR :0.85701: L2-HR :0.84219: (Sim:2h36m51s) 
CPU  0 inst:  112000001 cyc:  106306500 now IPC :1.34527: AVG IPC :1.04444: L2-Pf-HR :0.86196: L2-HR :0.84659: (Sim:2h37m38s) 
CPU  2 inst:  112000001 cyc:  106510276 now IPC :1.32655: AVG IPC :1.04242: L2-Pf-HR :0.86072: L2-HR :0.84639: (Sim:2h38m5s) 
CPU  1 inst:  112000001 cyc:  106542743 now IPC :1.24702: AVG IPC :1.04210: L2-Pf-HR :0.85440: L2-HR :0.84122: (Sim:2h38m9s) 
CPU  3 inst:  115000003 cyc:  106879288 now IPC :1.09114: AVG IPC :1.06711: L2-Pf-HR :0.85674: L2-HR :0.84183: (Sim:2h38m57s) 
CPU  0 inst:  113000004 cyc:  106977354 now IPC :1.49064: AVG IPC :1.04726: L2-Pf-HR :0.86267: L2-HR :0.84745: (Sim:2h39m14s) 
CPU  2 inst:  113000004 cyc:  107147988 now IPC :1.56811: AVG IPC :1.04558: L2-Pf-HR :0.86143: L2-HR :0.84724: (Sim:2h39m40s) 
CPU  1 inst:  113000004 cyc:  107163215 now IPC :1.61168: AVG IPC :1.04543: L2-Pf-HR :0.85504: L2-HR :0.84197: (Sim:2h39m42s) 
CPU  3 inst:  116000002 cyc:  107648534 now IPC :1.29997: AVG IPC :1.06879: L2-Pf-HR :0.85647: L2-HR :0.84151: (Sim:2h40m20s) 
CPU  3 inst:  117000000 cyc:  108515833 now IPC :1.15300: AVG IPC :1.06947: L2-Pf-HR :0.85635: L2-HR :0.84132: (Sim:2h41m38s) 
CPU  0 inst:  114000002 cyc:  108634450 now IPC :0.60346: AVG IPC :1.04043: L2-Pf-HR :0.86237: L2-HR :0.84705: (Sim:2h41m51s) 
CPU  1 inst:  114000001 cyc:  109289576 now IPC :0.47029: AVG IPC :1.03413: L2-Pf-HR :0.85468: L2-HR :0.84159: (Sim:2h42m58s) 
CPU  2 inst:  114000000 cyc:  109317677 now IPC :0.46089: AVG IPC :1.03387: L2-Pf-HR :0.86103: L2-HR :0.84684: (Sim:2h43m1s) 
CPU  3 inst:  118000001 cyc:  109470211 now IPC :1.04780: AVG IPC :1.06928: L2-Pf-HR :0.85617: L2-HR :0.84107: (Sim:2h43m18s) 
CPU  0 inst:  115000003 cyc:  109529952 now IPC :1.11669: AVG IPC :1.04106: L2-Pf-HR :0.86226: L2-HR :0.84684: (Sim:2h43m22s) 
CPU  2 inst:  115000003 cyc:  110186244 now IPC :1.15133: AVG IPC :1.03481: L2-Pf-HR :0.86085: L2-HR :0.84666: (Sim:2h44m5s) 
CPU  1 inst:  115000003 cyc:  110186854 now IPC :1.11448: AVG IPC :1.03480: L2-Pf-HR :0.85453: L2-HR :0.84139: (Sim:2h44m5s) 
CPU  0 inst:  116000002 cyc:  110420829 now IPC :1.12249: AVG IPC :1.04172: L2-Pf-HR :0.86211: L2-HR :0.84660: (Sim:2h44m21s) 
CPU  3 inst:  119000005 cyc:  110440674 now IPC :1.03044: AVG IPC :1.06893: L2-Pf-HR :0.85622: L2-HR :0.84099: (Sim:2h44m22s) 
CPU  1 inst:  116000002 cyc:  111116925 now IPC :1.07519: AVG IPC :1.03514: L2-Pf-HR :0.85430: L2-HR :0.84115: (Sim:2h45m1s) 
CPU  2 inst:  116000002 cyc:  111157385 now IPC :1.02972: AVG IPC :1.03476: L2-Pf-HR :0.86067: L2-HR :0.84649: (Sim:2h45m3s) 
CPU  0 inst:  117000000 cyc:  111396841 now IPC :1.02458: AVG IPC :1.04157: L2-Pf-HR :0.86206: L2-HR :0.84644: (Sim:2h45m16s) 
CPU  1 inst:  117000000 cyc:  112038668 now IPC :1.08490: AVG IPC :1.03555: L2-Pf-HR :0.85411: L2-HR :0.84097: (Sim:2h45m53s) 
CPU  2 inst:  117000000 cyc:  112108725 now IPC :1.05115: AVG IPC :1.03490: L2-Pf-HR :0.86052: L2-HR :0.84636: (Sim:2h45m57s) 
CPU  0 inst:  118000001 cyc:  112301661 now IPC :1.10519: AVG IPC :1.04209: L2-Pf-HR :0.86199: L2-HR :0.84627: (Sim:2h46m9s) 
CPU  3 inst:  120000002 cyc:  112555945 now IPC :0.47275: AVG IPC :1.05763: L2-Pf-HR :0.85600: L2-HR :0.84069: (Sim:2h46m25s) 
CPU  1 inst:  118000001 cyc:  112960517 now IPC :1.08478: AVG IPC :1.03595: L2-Pf-HR :0.85391: L2-HR :0.84079: (Sim:2h46m52s) 
CPU  2 inst:  118000001 cyc:  112974105 now IPC :1.15556: AVG IPC :1.03583: L2-Pf-HR :0.86027: L2-HR :0.84614: (Sim:2h46m53s) 
CPU  0 inst:  119000005 cyc:  113208094 now IPC :1.10323: AVG IPC :1.04258: L2-Pf-HR :0.86210: L2-HR :0.84624: (Sim:2h47m10s) 
CPU  3 inst:  121000002 cyc:  113270665 now IPC :1.39915: AVG IPC :1.05980: L2-Pf-HR :0.85585: L2-HR :0.84047: (Sim:2h47m15s) 
CPU  1 inst:  119000005 cyc:  113630838 now IPC :1.49183: AVG IPC :1.03867: L2-Pf-HR :0.85405: L2-HR :0.84086: (Sim:2h47m41s) 
CPU  2 inst:  119000005 cyc:  113642139 now IPC :1.49694: AVG IPC :1.03857: L2-Pf-HR :0.86041: L2-HR :0.84624: (Sim:2h47m42s) 
CPU  3 inst:  122000003 cyc:  113858774 now IPC :1.70037: AVG IPC :1.06314: L2-Pf-HR :0.85577: L2-HR :0.84032: (Sim:2h47m54s) 
CPU  3 inst:  123000000 cyc:  114553139 now IPC :1.44016: AVG IPC :1.06545: L2-Pf-HR :0.85578: L2-HR :0.84025: (Sim:2h48m28s) 
CPU  0 inst:  120000002 cyc:  114630015 now IPC :0.70327: AVG IPC :1.03834: L2-Pf-HR :0.86179: L2-HR :0.84588: (Sim:2h48m32s) 
CPU  3 inst:  124000000 cyc:  115285046 now IPC :1.36629: AVG IPC :1.06737: L2-Pf-HR :0.85568: L2-HR :0.84007: (Sim:2h49m17s) 
CPU  0 inst:  121000002 cyc:  115356790 now IPC :1.37594: AVG IPC :1.04048: L2-Pf-HR :0.86162: L2-HR :0.84564: (Sim:2h49m25s) 
CPU  1 inst:  120000002 cyc:  115435701 now IPC :0.55406: AVG IPC :1.03103: L2-Pf-HR :0.85379: L2-HR :0.84059: (Sim:2h49m35s) 
CPU  2 inst:  120000002 cyc:  115455589 now IPC :0.55143: AVG IPC :1.03085: L2-Pf-HR :0.86016: L2-HR :0.84595: (Sim:2h49m37s) 
CPU  3 inst:  125000000 cyc:  115968372 now IPC :1.46343: AVG IPC :1.06973: L2-Pf-HR :0.85574: L2-HR :0.84001: (Sim:2h50m46s) 
CPU  0 inst:  122000003 cyc:  116008329 now IPC :1.53483: AVG IPC :1.04328: L2-Pf-HR :0.86145: L2-HR :0.84540: (Sim:2h50m51s) 
CPU  2 inst:  121000002 cyc:  116204681 now IPC :1.33495: AVG IPC :1.03283: L2-Pf-HR :0.85995: L2-HR :0.84571: (Sim:2h51m14s) 
CPU  1 inst:  121000002 cyc:  116213812 now IPC :1.28516: AVG IPC :1.03274: L2-Pf-HR :0.85351: L2-HR :0.84032: (Sim:2h51m15s) 
CPU  0 inst:  123000000 cyc:  116760052 now IPC :1.33027: AVG IPC :1.04515: L2-Pf-HR :0.86130: L2-HR :0.84518: (Sim:2h52m17s) 
CPU  1 inst:  122000003 cyc:  116945252 now IPC :1.36717: AVG IPC :1.03485: L2-Pf-HR :0.85339: L2-HR :0.84017: (Sim:2h52m38s) 
CPU  2 inst:  122000003 cyc:  116950260 now IPC :1.34124: AVG IPC :1.03481: L2-Pf-HR :0.85980: L2-HR :0.84553: (Sim:2h52m39s) 
CPU  3 inst:  126000005 cyc:  117474263 now IPC :0.66406: AVG IPC :1.06448: L2-Pf-HR :0.85591: L2-HR :0.84032: (Sim:2h53m44s) 
CPU  0 inst:  124000000 cyc:  117533230 now IPC :1.29336: AVG IPC :1.04679: L2-Pf-HR :0.86120: L2-HR :0.84500: (Sim:2h53m51s) 
CPU  1 inst:  123000000 cyc:  117713876 now IPC :1.30102: AVG IPC :1.03660: L2-Pf-HR :0.85325: L2-HR :0.84003: (Sim:2h54m15s) 
CPU  2 inst:  123000000 cyc:  117722178 now IPC :1.29547: AVG IPC :1.03654: L2-Pf-HR :0.85970: L2-HR :0.84539: (Sim:2h54m15s) 
CPU  3 inst:  127000005 cyc:  118127261 now IPC :1.53140: AVG IPC :1.06709: L2-Pf-HR :0.85626: L2-HR :0.84088: (Sim:2h55m13s) 
CPU  0 inst:  125000000 cyc:  118209132 now IPC :1.47950: AVG IPC :1.04929: L2-Pf-HR :0.86118: L2-HR :0.84487: (Sim:2h55m24s) 
CPU  2 inst:  124000000 cyc:  118416420 now IPC :1.44042: AVG IPC :1.03892: L2-Pf-HR :0.85951: L2-HR :0.84519: (Sim:2h55m52s) 
CPU  1 inst:  124000000 cyc:  118428847 now IPC :1.39866: AVG IPC :1.03881: L2-Pf-HR :0.85303: L2-HR :0.83982: (Sim:2h55m53s) 
CPU  3 inst:  128000000 cyc:  118806043 now IPC :1.47322: AVG IPC :1.06943: L2-Pf-HR :0.85664: L2-HR :0.84147: (Sim:2h56m38s) 
CPU  2 inst:  125000000 cyc:  119040015 now IPC :1.60360: AVG IPC :1.04191: L2-Pf-HR :0.85953: L2-HR :0.84514: (Sim:2h57m15s) 
CPU  1 inst:  125000000 cyc:  119045572 now IPC :1.62147: AVG IPC :1.04185: L2-Pf-HR :0.85304: L2-HR :0.83978: (Sim:2h57m16s) 
CPU  0 inst:  126000005 cyc:  119222498 now IPC :0.98682: AVG IPC :1.04875: L2-Pf-HR :0.86127: L2-HR :0.84513: (Sim:2h57m41s) 
CPU  3 inst:  129000004 cyc:  119343809 now IPC :1.85955: AVG IPC :1.07302: L2-Pf-HR :0.85721: L2-HR :0.84221: (Sim:2h57m54s) 
CPU  0 inst:  127000004 cyc:  119870218 now IPC :1.54388: AVG IPC :1.05145: L2-Pf-HR :0.86182: L2-HR :0.84587: (Sim:2h58m42s) 
CPU  2 inst:  126000005 cyc:  120290315 now IPC :0.79981: AVG IPC :1.03937: L2-Pf-HR :0.85966: L2-HR :0.84538: (Sim:2h59m28s) 
CPU  1 inst:  126000005 cyc:  120300558 now IPC :0.79683: AVG IPC :1.03927: L2-Pf-HR :0.85323: L2-HR :0.84005: (Sim:2h59m29s) 
CPU  0 inst:  128000000 cyc:  120687307 now IPC :1.22385: AVG IPC :1.05263: L2-Pf-HR :0.86230: L2-HR :0.84656: (Sim:3h0m13s) 
CPU  2 inst:  127000005 cyc:  121077758 now IPC :1.26993: AVG IPC :1.04088: L2-Pf-HR :0.86007: L2-HR :0.84595: (Sim:3h0m58s) 
CPU  1 inst:  127000002 cyc:  121091331 now IPC :1.26458: AVG IPC :1.04076: L2-Pf-HR :0.85362: L2-HR :0.84058: (Sim:3h1m0s) 
CPU  3 inst:  130000000 cyc:  121289850 now IPC :0.51386: AVG IPC :1.06397: L2-Pf-HR :0.85707: L2-HR :0.84203: (Sim:3h1m25s) 
CPU  0 inst:  129000001 cyc:  121456642 now IPC :1.29983: AVG IPC :1.05421: L2-Pf-HR :0.86290: L2-HR :0.84734: (Sim:3h1m46s) 
CPU  2 inst:  128000003 cyc:  121834515 now IPC :1.32143: AVG IPC :1.04264: L2-Pf-HR :0.86049: L2-HR :0.84651: (Sim:3h2m29s) 
CPU  1 inst:  128000003 cyc:  121845094 now IPC :1.32668: AVG IPC :1.04254: L2-Pf-HR :0.85403: L2-HR :0.84112: (Sim:3h2m30s) 
CPU  3 inst:  131000002 cyc:  122175117 now IPC :1.12960: AVG IPC :1.06445: L2-Pf-HR :0.85689: L2-HR :0.84178: (Sim:3h3m6s) 
CPU  2 inst:  129000002 cyc:  122503907 now IPC :1.49389: AVG IPC :1.04512: L2-Pf-HR :0.86104: L2-HR :0.84717: (Sim:3h3m46s) 
CPU  1 inst:  129000003 cyc:  122509499 now IPC :1.50511: AVG IPC :1.04507: L2-Pf-HR :0.85454: L2-HR :0.84173: (Sim:3h3m47s) 
CPU  3 inst:  132000005 cyc:  122978883 now IPC :1.24415: AVG IPC :1.06563: L2-Pf-HR :0.85670: L2-HR :0.84152: (Sim:3h4m34s) 
CPU  0 inst:  130000000 cyc:  123077104 now IPC :0.61711: AVG IPC :1.04840: L2-Pf-HR :0.86272: L2-HR :0.84711: (Sim:3h4m42s) 
CPU  3 inst:  133000001 cyc:  123887347 now IPC :1.10075: AVG IPC :1.06589: L2-Pf-HR :0.85653: L2-HR :0.84130: (Sim:3h5m58s) 
CPU  0 inst:  131000002 cyc:  123916886 now IPC :1.19079: AVG IPC :1.04938: L2-Pf-HR :0.86259: L2-HR :0.84690: (Sim:3h6m1s) 
CPU  2 inst:  130000000 cyc:  124383848 now IPC :0.53193: AVG IPC :1.03730: L2-Pf-HR :0.86092: L2-HR :0.84700: (Sim:3h6m50s) 
CPU  1 inst:  130000000 cyc:  124426861 now IPC :0.52155: AVG IPC :1.03694: L2-Pf-HR :0.85444: L2-HR :0.84156: (Sim:3h6m56s) 
CPU  3 inst:  134000004 cyc:  124845372 now IPC :1.04382: AVG IPC :1.06572: L2-Pf-HR :0.85641: L2-HR :0.84109: (Sim:3h7m42s) 
CPU  0 inst:  132000005 cyc:  124846784 now IPC :1.07539: AVG IPC :1.04957: L2-Pf-HR :0.86247: L2-HR :0.84668: (Sim:3h7m42s) 
CPU  1 inst:  131000002 cyc:  125366672 now IPC :1.06405: AVG IPC :1.03714: L2-Pf-HR :0.85433: L2-HR :0.84138: (Sim:3h8m22s) 
CPU  2 inst:  131000002 cyc:  125367135 now IPC :1.01700: AVG IPC :1.03714: L2-Pf-HR :0.86083: L2-HR :0.84683: (Sim:3h8m22s) 
CPU  0 inst:  133000001 cyc:  125823412 now IPC :1.02393: AVG IPC :1.04937: L2-Pf-HR :0.86233: L2-HR :0.84648: (Sim:3h9m19s) 
CPU  3 inst:  135000002 cyc:  125848426 now IPC :0.99695: AVG IPC :1.06517: L2-Pf-HR :0.85632: L2-HR :0.84093: (Sim:3h9m22s) 
CPU  2 inst:  132000005 cyc:  126233455 now IPC :1.15431: AVG IPC :1.03795: L2-Pf-HR :0.86070: L2-HR :0.84662: (Sim:3h10m9s) 
CPU  1 inst:  132000005 cyc:  126244709 now IPC :1.13891: AVG IPC :1.03786: L2-Pf-HR :0.85419: L2-HR :0.84117: (Sim:3h10m10s) 
CPU  0 inst:  134000004 cyc:  126781796 now IPC :1.04343: AVG IPC :1.04933: L2-Pf-HR :0.86224: L2-HR :0.84629: (Sim:3h11m3s) 
CPU  1 inst:  133000001 cyc:  127225740 now IPC :1.01933: AVG IPC :1.03771: L2-Pf-HR :0.85405: L2-HR :0.84097: (Sim:3h11m53s) 
CPU  2 inst:  133000001 cyc:  127261548 now IPC :0.97267: AVG IPC :1.03742: L2-Pf-HR :0.86058: L2-HR :0.84645: (Sim:3h11m57s) 
CPU  0 inst:  135000002 cyc:  127685186 now IPC :1.10694: AVG IPC :1.04974: L2-Pf-HR :0.86223: L2-HR :0.84618: (Sim:3h12m51s) 
CPU  3 inst:  136000000 cyc:  127695511 now IPC :0.54139: AVG IPC :1.05754: L2-Pf-HR :0.85620: L2-HR :0.84073: (Sim:3h12m53s) 
CPU  1 inst:  134000004 cyc:  128030167 now IPC :1.24312: AVG IPC :1.03901: L2-Pf-HR :0.85398: L2-HR :0.84082: (Sim:3h13m35s) 
CPU  2 inst:  134000004 cyc:  128032739 now IPC :1.29670: AVG IPC :1.03900: L2-Pf-HR :0.86051: L2-HR :0.84630: (Sim:3h13m35s) 
CPU  3 inst:  137000000 cyc:  128506370 now IPC :1.23326: AVG IPC :1.05865: L2-Pf-HR :0.85615: L2-HR :0.84060: (Sim:3h14m27s) 
CPU  1 inst:  135000002 cyc:  128880268 now IPC :1.17633: AVG IPC :1.03993: L2-Pf-HR :0.85403: L2-HR :0.84077: (Sim:3h15m3s) 
CPU  2 inst:  135000002 cyc:  128891340 now IPC :1.16468: AVG IPC :1.03984: L2-Pf-HR :0.86055: L2-HR :0.84624: (Sim:3h15m4s) 
CPU  0 inst:  136000000 cyc:  129080704 now IPC :0.71658: AVG IPC :1.04611: L2-Pf-HR :0.86200: L2-HR :0.84589: (Sim:3h15m18s) 
CPU  3 inst:  138000004 cyc:  129123781 now IPC :1.61967: AVG IPC :1.06136: L2-Pf-HR :0.85599: L2-HR :0.84042: (Sim:3h15m21s) 
CPU  3 inst:  139000001 cyc:  129865451 now IPC :1.34830: AVG IPC :1.06301: L2-Pf-HR :0.85595: L2-HR :0.84031: (Sim:3h16m0s) 
CPU  0 inst:  137000000 cyc:  129865826 now IPC :1.27369: AVG IPC :1.04749: L2-Pf-HR :0.86190: L2-HR :0.84572: (Sim:3h16m0s) 
CPU  0 inst:  138000004 cyc:  130572571 now IPC :1.41494: AVG IPC :1.04950: L2-Pf-HR :0.86173: L2-HR :0.84552: (Sim:3h16m43s) 
CPU  1 inst:  136000000 cyc:  130599730 now IPC :0.58158: AVG IPC :1.03385: L2-Pf-HR :0.85384: L2-HR :0.84055: (Sim:3h16m45s) 
CPU  2 inst:  136000000 cyc:  130600563 now IPC :0.58506: AVG IPC :1.03384: L2-Pf-HR :0.86034: L2-HR :0.84600: (Sim:3h16m45s) 
CPU  3 inst:  140000002 cyc:  130680113 now IPC :1.22750: AVG IPC :1.06404: L2-Pf-HR :0.85579: L2-HR :0.84011: (Sim:3h16m50s) 
CPU  0 inst:  139000001 cyc:  131282930 now IPC :1.40773: AVG IPC :1.05145: L2-Pf-HR :0.86154: L2-HR :0.84529: (Sim:3h17m35s) 
CPU  3 inst:  141000003 cyc:  131318630 now IPC :1.56613: AVG IPC :1.06650: L2-Pf-HR :0.85575: L2-HR :0.84000: (Sim:3h17m37s) 
CPU  1 inst:  137000000 cyc:  131377976 now IPC :1.28494: AVG IPC :1.03534: L2-Pf-HR :0.85370: L2-HR :0.84039: (Sim:3h17m42s) 
CPU  2 inst:  137000000 cyc:  131389617 now IPC :1.26734: AVG IPC :1.03526: L2-Pf-HR :0.86017: L2-HR :0.84581: (Sim:3h17m43s) 
CPU  0 inst:  140000002 cyc:  131986361 now IPC :1.42160: AVG IPC :1.05344: L2-Pf-HR :0.86136: L2-HR :0.84507: (Sim:3h18m21s) 
CPU  1 inst:  138000004 cyc:  132167896 now IPC :1.26596: AVG IPC :1.03673: L2-Pf-HR :0.85362: L2-HR :0.84027: (Sim:3h18m32s) 
CPU  2 inst:  138000004 cyc:  132219987 now IPC :1.20429: AVG IPC :1.03633: L2-Pf-HR :0.86003: L2-HR :0.84566: (Sim:3h18m36s) 
CPU  3 inst:  142000000 cyc:  132572597 now IPC :0.79747: AVG IPC :1.06394: L2-Pf-HR :0.85584: L2-HR :0.84016: (Sim:3h19m4s) 
CPU  0 inst:  141000003 cyc:  132685890 now IPC :1.42953: AVG IPC :1.05544: L2-Pf-HR :0.86132: L2-HR :0.84497: (Sim:3h19m15s) 
CPU  1 inst:  139000001 cyc:  132849298 now IPC :1.46756: AVG IPC :1.03896: L2-Pf-HR :0.85355: L2-HR :0.84019: (Sim:3h19m35s) 
CPU  2 inst:  139000001 cyc:  132865155 now IPC :1.54998: AVG IPC :1.03884: L2-Pf-HR :0.85990: L2-HR :0.84552: (Sim:3h19m38s) 
CPU  3 inst:  143000000 cyc:  133274739 now IPC :1.42421: AVG IPC :1.06585: L2-Pf-HR :0.85613: L2-HR :0.84064: (Sim:3h20m25s) 
CPU  2 inst:  140000002 cyc:  133607475 now IPC :1.34713: AVG IPC :1.04056: L2-Pf-HR :0.85978: L2-HR :0.84539: (Sim:3h21m3s) 
CPU  1 inst:  140000002 cyc:  133629672 now IPC :1.28144: AVG IPC :1.04039: L2-Pf-HR :0.85345: L2-HR :0.84007: (Sim:3h21m6s) 
CPU  3 inst:  144000002 cyc:  133948704 now IPC :1.48376: AVG IPC :1.06797: L2-Pf-HR :0.85644: L2-HR :0.84114: (Sim:3h21m44s) 
CPU  0 inst:  142000000 cyc:  134054554 now IPC :0.73064: AVG IPC :1.05210: L2-Pf-HR :0.86140: L2-HR :0.84512: (Sim:3h21m59s) 
CPU  2 inst:  141000003 cyc:  134274475 now IPC :1.49925: AVG IPC :1.04286: L2-Pf-HR :0.85972: L2-HR :0.84530: (Sim:3h22m33s) 
CPU  1 inst:  141000003 cyc:  134304695 now IPC :1.48143: AVG IPC :1.04262: L2-Pf-HR :0.85343: L2-HR :0.84001: (Sim:3h22m38s) 
CPU  3 inst:  145000002 cyc:  134515227 now IPC :1.76515: AVG IPC :1.07092: L2-Pf-HR :0.85682: L2-HR :0.84170: (Sim:3h23m9s) 
CPU  0 inst:  143000000 cyc:  134625678 now IPC :1.75093: AVG IPC :1.05508: L2-Pf-HR :0.86168: L2-HR :0.84559: (Sim:3h23m21s) 
CPU  0 inst:  144000002 cyc:  135330034 now IPC :1.41974: AVG IPC :1.05699: L2-Pf-HR :0.86216: L2-HR :0.84624: (Sim:3h24m25s) 
CPU  2 inst:  142000000 cyc:  135546586 now IPC :0.78609: AVG IPC :1.04043: L2-Pf-HR :0.85989: L2-HR :0.84555: (Sim:3h24m51s) 
CPU  1 inst:  142000000 cyc:  135556956 now IPC :0.79855: AVG IPC :1.04035: L2-Pf-HR :0.85363: L2-HR :0.84026: (Sim:3h24m52s) 
CPU  0 inst:  145000003 cyc:  136008827 now IPC :1.47320: AVG IPC :1.05909: L2-Pf-HR :0.86261: L2-HR :0.84684: (Sim:3h25m52s) 
CPU  3 inst:  146000003 cyc:  136225771 now IPC :0.58461: AVG IPC :1.06477: L2-Pf-HR :0.85678: L2-HR :0.84165: (Sim:3h26m22s) 
CPU  1 inst:  143000000 cyc:  136285894 now IPC :1.37186: AVG IPC :1.04213: L2-Pf-HR :0.85400: L2-HR :0.84077: (Sim:3h26m29s) 
CPU  2 inst:  143000000 cyc:  136287193 now IPC :1.35024: AVG IPC :1.04213: L2-Pf-HR :0.86031: L2-HR :0.84616: (Sim:3h26m30s) 
CPU  1 inst:  144000001 cyc:  137076402 now IPC :1.26501: AVG IPC :1.04343: L2-Pf-HR :0.85448: L2-HR :0.84140: (Sim:3h28m0s) 
CPU  2 inst:  144000002 cyc:  137127921 now IPC :1.18945: AVG IPC :1.04304: L2-Pf-HR :0.86076: L2-HR :0.84679: (Sim:3h28m6s) 
CPU  3 inst:  147000001 cyc:  137196901 now IPC :1.02973: AVG IPC :1.06452: L2-Pf-HR :0.85651: L2-HR :0.84133: (Sim:3h28m14s) 
CPU  0 inst:  146000003 cyc:  137780981 now IPC :0.56429: AVG IPC :1.05268: L2-Pf-HR :0.86258: L2-HR :0.84679: (Sim:3h29m31s) 
CPU  1 inst:  145000000 cyc:  137810489 now IPC :1.36223: AVG IPC :1.04514: L2-Pf-HR :0.85502: L2-HR :0.84206: (Sim:3h29m35s) 
CPU  2 inst:  145000000 cyc:  137820902 now IPC :1.44304: AVG IPC :1.04506: L2-Pf-HR :0.86130: L2-HR :0.84748: (Sim:3h29m37s) 
CPU  3 inst:  148000003 cyc:  138012728 now IPC :1.22575: AVG IPC :1.06548: L2-Pf-HR :0.85622: L2-HR :0.84102: (Sim:3h30m8s) 
CPU  0 inst:  147000001 cyc:  138657705 now IPC :1.14061: AVG IPC :1.05324: L2-Pf-HR :0.86252: L2-HR :0.84664: (Sim:3h31m10s) 
CPU  3 inst:  149000000 cyc:  138931716 now IPC :1.08815: AVG IPC :1.06563: L2-Pf-HR :0.85615: L2-HR :0.84088: (Sim:3h31m37s) 
CPU  0 inst:  148000003 cyc:  139493411 now IPC :1.19660: AVG IPC :1.05410: L2-Pf-HR :0.86252: L2-HR :0.84656: (Sim:3h32m39s) 
CPU  1 inst:  146000003 cyc:  139711391 now IPC :0.52607: AVG IPC :1.03803: L2-Pf-HR :0.85501: L2-HR :0.84203: (Sim:3h33m4s) 
CPU  2 inst:  146000003 cyc:  139725720 now IPC :0.52499: AVG IPC :1.03792: L2-Pf-HR :0.86134: L2-HR :0.84749: (Sim:3h33m6s) 
CPU  3 inst:  150000004 cyc:  139821880 now IPC :1.12339: AVG IPC :1.06601: L2-Pf-HR :0.85606: L2-HR :0.84073: (Sim:3h33m17s) 
CPU  0 inst:  149000000 cyc:  140428055 now IPC :1.06992: AVG IPC :1.05421: L2-Pf-HR :0.86244: L2-HR :0.84641: (Sim:3h34m32s) 
CPU  2 inst:  147000001 cyc:  140653957 now IPC :1.07731: AVG IPC :1.03818: L2-Pf-HR :0.86129: L2-HR :0.84735: (Sim:3h35m1s) 
CPU  1 inst:  147000001 cyc:  140658873 now IPC :1.05543: AVG IPC :1.03814: L2-Pf-HR :0.85488: L2-HR :0.84186: (Sim:3h35m2s) 
CPU  3 inst:  151000005 cyc:  140806790 now IPC :1.01532: AVG IPC :1.06565: L2-Pf-HR :0.85593: L2-HR :0.84055: (Sim:3h35m22s) 
CPU  0 inst:  150000004 cyc:  141332151 now IPC :1.10608: AVG IPC :1.05454: L2-Pf-HR :0.86237: L2-HR :0.84626: (Sim:3h36m25s) 
CPU  1 inst:  148000003 cyc:  141586226 now IPC :1.07834: AVG IPC :1.03841: L2-Pf-HR :0.85474: L2-HR :0.84169: (Sim:3h36m52s) 
CPU  2 inst:  148000003 cyc:  141619381 now IPC :1.03582: AVG IPC :1.03817: L2-Pf-HR :0.86121: L2-HR :0.84721: (Sim:3h36m56s) 
CPU  0 inst:  151000005 cyc:  142279161 now IPC :1.05596: AVG IPC :1.05455: L2-Pf-HR :0.86236: L2-HR :0.84614: (Sim:3h38m12s) 
CPU  2 inst:  149000000 cyc:  142485182 now IPC :1.15500: AVG IPC :1.03888: L2-Pf-HR :0.86114: L2-HR :0.84705: (Sim:3h38m39s) 
CPU  3 inst:  152000004 cyc:  142487355 now IPC :0.59504: AVG IPC :1.06006: L2-Pf-HR :0.85582: L2-HR :0.84036: (Sim:3h38m39s) 
CPU  1 inst:  149000000 cyc:  142506587 now IPC :1.08653: AVG IPC :1.03872: L2-Pf-HR :0.85464: L2-HR :0.84154: (Sim:3h38m41s) 
CPU  3 inst:  153000001 cyc:  143389653 now IPC :1.10828: AVG IPC :1.06036: L2-Pf-HR :0.85579: L2-HR :0.84029: (Sim:3h40m21s) 
CPU  1 inst:  150000004 cyc:  143490602 now IPC :1.01625: AVG IPC :1.03857: L2-Pf-HR :0.85459: L2-HR :0.84145: (Sim:3h40m32s) 
CPU  2 inst:  150000004 cyc:  143492665 now IPC :0.99258: AVG IPC :1.03856: L2-Pf-HR :0.86111: L2-HR :0.84694: (Sim:3h40m32s) 
CPU  0 inst:  152000005 cyc:  143976435 now IPC :0.58918: AVG IPC :1.04903: L2-Pf-HR :0.86228: L2-HR :0.84599: (Sim:3h41m33s) 
CPU  3 inst:  154000005 cyc:  144102713 now IPC :1.40241: AVG IPC :1.06207: L2-Pf-HR :0.85582: L2-HR :0.84025: (Sim:3h41m51s) 
CPU  2 inst:  151000005 cyc:  144347832 now IPC :1.16936: AVG IPC :1.03934: L2-Pf-HR :0.86113: L2-HR :0.84687: (Sim:3h42m27s) 
CPU  1 inst:  151000005 cyc:  144355811 now IPC :1.15579: AVG IPC :1.03927: L2-Pf-HR :0.85459: L2-HR :0.84138: (Sim:3h42m29s) 
CPU  0 inst:  153000001 cyc:  144634106 now IPC :1.52051: AVG IPC :1.05119: L2-Pf-HR :0.86214: L2-HR :0.84582: (Sim:3h43m14s) 
CPU  3 inst:  155000003 cyc:  144679045 now IPC :1.73511: AVG IPC :1.06477: L2-Pf-HR :0.85573: L2-HR :0.84012: (Sim:3h43m19s) 
CPU  0 inst:  154000005 cyc:  145418812 now IPC :1.27437: AVG IPC :1.05240: L2-Pf-HR :0.86213: L2-HR :0.84575: (Sim:3h44m36s) 
CPU  3 inst:  156000003 cyc:  145426007 now IPC :1.33876: AVG IPC :1.06619: L2-Pf-HR :0.85579: L2-HR :0.84012: (Sim:3h44m37s) 
CPU  2 inst:  152000005 cyc:  145977281 now IPC :0.61370: AVG IPC :1.03455: L2-Pf-HR :0.86099: L2-HR :0.84669: (Sim:3h45m47s) 
[...]
CPU  2 inst:  389000000 cyc:  910387454 now IPC :0.26457: AVG IPC :0.42556: L2-Pf-HR :0.83916: L2-HR :0.80105: (Sim:12h10m16s) 
CPU  1 inst:  389000000 cyc:  910568643 now IPC :0.26493: AVG IPC :0.42547: L2-Pf-HR :0.83527: L2-HR :0.79792: (Sim:12h10m23s) 
CPU  3 inst:  390000004 cyc:  910921152 now IPC :0.26487: AVG IPC :0.42640: L2-Pf-HR :0.83609: L2-HR :0.79746: (Sim:12h10m35s) 
CPU  0 inst:  390000004 cyc:  912473805 now IPC :0.26351: AVG IPC :0.42568: L2-Pf-HR :0.84141: L2-HR :0.80175: (Sim:12h11m28s) 
CPU  2 inst:  390000004 cyc:  914189907 now IPC :0.26299: AVG IPC :0.42488: L2-Pf-HR :0.83917: L2-HR :0.80098: (Sim:12h12m26s) 
CPU  1 inst:  390000004 cyc:  914386190 now IPC :0.26195: AVG IPC :0.42479: L2-Pf-HR :0.83526: L2-HR :0.79783: (Sim:12h12m33s) 
CPU  3 inst:  391000000 cyc:  914736754 now IPC :0.26208: AVG IPC :0.42572: L2-Pf-HR :0.83609: L2-HR :0.79739: (Sim:12h12m45s) 
CPU  0 inst:  391000000 cyc:  916271924 now IPC :0.26329: AVG IPC :0.42500: L2-Pf-HR :0.84140: L2-HR :0.80168: (Sim:12h13m37s) 
CPU  2 inst:  391000000 cyc:  917965345 now IPC :0.26487: AVG IPC :0.42422: L2-Pf-HR :0.83918: L2-HR :0.80091: (Sim:12h14m35s) 
CPU  1 inst:  391000000 cyc:  918154784 now IPC :0.26535: AVG IPC :0.42413: L2-Pf-HR :0.83529: L2-HR :0.79778: (Sim:12h14m42s) 
CPU  3 inst:  392000000 cyc:  918504494 now IPC :0.26541: AVG IPC :0.42506: L2-Pf-HR :0.83614: L2-HR :0.79735: (Sim:12h14m54s) 
CPU  0 inst:  392000000 cyc:  920040467 now IPC :0.26535: AVG IPC :0.42435: L2-Pf-HR :0.84142: L2-HR :0.80162: (Sim:12h15m46s) 
CPU  2 inst:  392000000 cyc:  921765288 now IPC :0.26316: AVG IPC :0.42355: L2-Pf-HR :0.83919: L2-HR :0.80084: (Sim:12h16m45s) 
CPU  1 inst:  392000000 cyc:  921946244 now IPC :0.26375: AVG IPC :0.42347: L2-Pf-HR :0.83531: L2-HR :0.79772: (Sim:12h16m51s) 
CPU  3 inst:  393000001 cyc:  922309319 now IPC :0.26282: AVG IPC :0.42439: L2-Pf-HR :0.83613: L2-HR :0.79728: (Sim:12h17m4s) 
CPU  0 inst:  393000001 cyc:  923824228 now IPC :0.26429: AVG IPC :0.42369: L2-Pf-HR :0.84141: L2-HR :0.80153: (Sim:12h17m56s) 
CPU  2 inst:  393000001 cyc:  925547903 now IPC :0.26437: AVG IPC :0.42290: L2-Pf-HR :0.83920: L2-HR :0.80077: (Sim:12h18m55s) 
CPU  1 inst:  393000001 cyc:  925733991 now IPC :0.26401: AVG IPC :0.42282: L2-Pf-HR :0.83534: L2-HR :0.79767: (Sim:12h19m1s) 
CPU  3 inst:  394000001 cyc:  926099074 now IPC :0.26387: AVG IPC :0.42373: L2-Pf-HR :0.83616: L2-HR :0.79722: (Sim:12h19m13s) 
CPU  0 inst:  394000001 cyc:  927606194 now IPC :0.26441: AVG IPC :0.42304: L2-Pf-HR :0.84142: L2-HR :0.80147: (Sim:12h20m5s) 
CPU  2 inst:  394000001 cyc:  929338426 now IPC :0.26382: AVG IPC :0.42225: L2-Pf-HR :0.83920: L2-HR :0.80070: (Sim:12h21m4s) 
CPU  1 inst:  394000001 cyc:  929516922 now IPC :0.26435: AVG IPC :0.42217: L2-Pf-HR :0.83537: L2-HR :0.79761: (Sim:12h21m10s) 
CPU  3 inst:  395000000 cyc:  930089360 now IPC :0.25061: AVG IPC :0.42299: L2-Pf-HR :0.83608: L2-HR :0.79708: (Sim:12h21m27s) 
CPU  3 inst:  396000004 cyc:  930959899 now IPC :1.14872: AVG IPC :0.42367: L2-Pf-HR :0.83689: L2-HR :0.79812: (Sim:12h22m5s) 
CPU  0 inst:  395000000 cyc:  931772314 now IPC :0.24003: AVG IPC :0.42222: L2-Pf-HR :0.84127: L2-HR :0.80126: (Sim:12h22m38s) 
CPU  3 inst:  397000000 cyc:  931833041 now IPC :1.14528: AVG IPC :0.42434: L2-Pf-HR :0.83769: L2-HR :0.79917: (Sim:12h22m41s) 
CPU  0 inst:  396000004 cyc:  932775427 now IPC :0.99690: AVG IPC :0.42284: L2-Pf-HR :0.84207: L2-HR :0.80230: (Sim:12h23m28s) 
CPU  3 inst:  398000002 cyc:  932796673 now IPC :1.03774: AVG IPC :0.42498: L2-Pf-HR :0.83849: L2-HR :0.80020: (Sim:12h23m29s) 
CPU  0 inst:  397000000 cyc:  933789866 now IPC :0.98576: AVG IPC :0.42345: L2-Pf-HR :0.84284: L2-HR :0.80331: (Sim:12h24m12s) 
CPU  3 inst:  399000000 cyc:  933901137 now IPC :0.90541: AVG IPC :0.42555: L2-Pf-HR :0.83926: L2-HR :0.80120: (Sim:12h24m17s) 
CPU  2 inst:  395000000 cyc:  933934694 now IPC :0.21757: AVG IPC :0.42125: L2-Pf-HR :0.83898: L2-HR :0.80042: (Sim:12h24m18s) 
CPU  1 inst:  395000000 cyc:  934225754 now IPC :0.21237: AVG IPC :0.42111: L2-Pf-HR :0.83513: L2-HR :0.79731: (Sim:12h24m33s) 
CPU  3 inst:  400000005 cyc:  934732058 now IPC :1.20349: AVG IPC :0.42624: L2-Pf-HR :0.84002: L2-HR :0.80218: (Sim:12h25m6s) 
CPU  0 inst:  398000002 cyc:  934906181 now IPC :0.89581: AVG IPC :0.42402: L2-Pf-HR :0.84361: L2-HR :0.80432: (Sim:12h25m17s) 
CPU  2 inst:  396000004 cyc:  935094686 now IPC :0.86208: AVG IPC :0.42179: L2-Pf-HR :0.83980: L2-HR :0.80146: (Sim:12h25m30s) 
CPU  1 inst:  396000004 cyc:  935299273 now IPC :0.93152: AVG IPC :0.42170: L2-Pf-HR :0.83598: L2-HR :0.79838: (Sim:12h25m45s) 
CPU  3 inst:  401000005 cyc:  935481674 now IPC :1.33402: AVG IPC :0.42697: L2-Pf-HR :0.84079: L2-HR :0.80318: (Sim:12h25m58s) 
CPU  0 inst:  399000000 cyc:  935895152 now IPC :1.01115: AVG IPC :0.42464: L2-Pf-HR :0.84435: L2-HR :0.80529: (Sim:12h26m27s) 
CPU  2 inst:  397000000 cyc:  936049338 now IPC :1.04750: AVG IPC :0.42243: L2-Pf-HR :0.84062: L2-HR :0.80250: (Sim:12h26m37s) 
CPU  3 inst:  402000000 cyc:  936242469 now IPC :1.31441: AVG IPC :0.42769: L2-Pf-HR :0.84155: L2-HR :0.80417: (Sim:12h26m51s) 
CPU  1 inst:  397000000 cyc:  936262366 now IPC :1.03832: AVG IPC :0.42233: L2-Pf-HR :0.83681: L2-HR :0.79943: (Sim:12h26m53s) 
CPU  0 inst:  400000005 cyc:  936742456 now IPC :1.18022: AVG IPC :0.42532: L2-Pf-HR :0.84510: L2-HR :0.80628: (Sim:12h27m28s) 
CPU  2 inst:  398000002 cyc:  936969886 now IPC :1.08631: AVG IPC :0.42308: L2-Pf-HR :0.84142: L2-HR :0.80352: (Sim:12h27m45s) 
CPU  3 inst:  403000002 cyc:  936978278 now IPC :1.35905: AVG IPC :0.42842: L2-Pf-HR :0.84232: L2-HR :0.80515: (Sim:12h27m46s) 
CPU  1 inst:  398000002 cyc:  937184684 now IPC :1.08423: AVG IPC :0.42299: L2-Pf-HR :0.83764: L2-HR :0.80048: (Sim:12h28m1s) 
CPU  0 inst:  401000005 cyc:  937515966 now IPC :1.29281: AVG IPC :0.42604: L2-Pf-HR :0.84586: L2-HR :0.80727: (Sim:12h28m26s) 
CPU  3 inst:  404000001 cyc:  937726411 now IPC :1.33666: AVG IPC :0.42915: L2-Pf-HR :0.84304: L2-HR :0.80610: (Sim:12h28m43s) 
CPU  2 inst:  399000000 cyc:  937895878 now IPC :1.07992: AVG IPC :0.42373: L2-Pf-HR :0.84218: L2-HR :0.80451: (Sim:12h28m55s) 
CPU  1 inst:  399000000 cyc:  938115608 now IPC :1.07420: AVG IPC :0.42363: L2-Pf-HR :0.83843: L2-HR :0.80149: (Sim:12h29m11s) 
CPU  0 inst:  402000000 cyc:  938242885 now IPC :1.37566: AVG IPC :0.42678: L2-Pf-HR :0.84662: L2-HR :0.80825: (Sim:12h29m21s) 
CPU  3 inst:  405000000 cyc:  938381599 now IPC :1.52628: AVG IPC :0.42991: L2-Pf-HR :0.84380: L2-HR :0.80707: (Sim:12h29m33s) 
CPU  2 inst:  400000005 cyc:  938683882 now IPC :1.26904: AVG IPC :0.42444: L2-Pf-HR :0.84296: L2-HR :0.80551: (Sim:12h29m58s) 
CPU  1 inst:  400000005 cyc:  938883026 now IPC :1.30308: AVG IPC :0.42435: L2-Pf-HR :0.83924: L2-HR :0.80251: (Sim:12h30m14s) 
CPU  0 inst:  403000002 cyc:  938958281 now IPC :1.39783: AVG IPC :0.42752: L2-Pf-HR :0.84737: L2-HR :0.80922: (Sim:12h30m21s) 
CPU  3 inst:  406000002 cyc:  939052118 now IPC :1.49138: AVG IPC :0.43067: L2-Pf-HR :0.84455: L2-HR :0.80803: (Sim:12h30m29s) 
CPU  2 inst:  401000000 cyc:  939362857 now IPC :1.47280: AVG IPC :0.42520: L2-Pf-HR :0.84376: L2-HR :0.80653: (Sim:12h30m54s) 
CPU  1 inst:  401000000 cyc:  939618112 now IPC :1.36038: AVG IPC :0.42509: L2-Pf-HR :0.84007: L2-HR :0.80355: (Sim:12h31m15s) 
CPU  0 inst:  404000001 cyc:  939701083 now IPC :1.34625: AVG IPC :0.42825: L2-Pf-HR :0.84808: L2-HR :0.81015: (Sim:12h31m22s) 
CPU  3 inst:  407000001 cyc:  939768414 now IPC :1.39607: AVG IPC :0.43141: L2-Pf-HR :0.84530: L2-HR :0.80898: (Sim:12h31m29s) 
CPU  2 inst:  402000000 cyc:  940019363 now IPC :1.52322: AVG IPC :0.42597: L2-Pf-HR :0.84455: L2-HR :0.80753: (Sim:12h31m51s) 
CPU  1 inst:  402000000 cyc:  940236790 now IPC :1.61635: AVG IPC :0.42587: L2-Pf-HR :0.84087: L2-HR :0.80456: (Sim:12h32m10s) 
CPU  0 inst:  405000000 cyc:  940329113 now IPC :1.59228: AVG IPC :0.42902: L2-Pf-HR :0.84881: L2-HR :0.81110: (Sim:12h32m18s) 
CPU  3 inst:  408000005 cyc:  940478193 now IPC :1.40889: AVG IPC :0.43215: L2-Pf-HR :0.84601: L2-HR :0.80989: (Sim:12h32m32s) 
CPU  2 inst:  403000002 cyc:  940633990 now IPC :1.62701: AVG IPC :0.42676: L2-Pf-HR :0.84531: L2-HR :0.80851: (Sim:12h32m46s) 
CPU  1 inst:  403000002 cyc:  940888812 now IPC :1.53369: AVG IPC :0.42664: L2-Pf-HR :0.84165: L2-HR :0.80555: (Sim:12h33m8s) 
CPU  0 inst:  406000002 cyc:  940984142 now IPC :1.52665: AVG IPC :0.42979: L2-Pf-HR :0.84952: L2-HR :0.81204: (Sim:12h33m15s) 
CPU  3 inst:  409000003 cyc:  941136672 now IPC :1.51865: AVG IPC :0.43291: L2-Pf-HR :0.84673: L2-HR :0.81081: (Sim:12h33m28s) 
CPU  2 inst:  404000001 cyc:  941398779 now IPC :1.30755: AVG IPC :0.42747: L2-Pf-HR :0.84605: L2-HR :0.80945: (Sim:12h33m51s) 
CPU  1 inst:  404000001 cyc:  941562207 now IPC :1.48501: AVG IPC :0.42740: L2-Pf-HR :0.84240: L2-HR :0.80651: (Sim:12h34m5s) 
CPU  0 inst:  407000001 cyc:  941647177 now IPC :1.50821: AVG IPC :0.43055: L2-Pf-HR :0.85024: L2-HR :0.81296: (Sim:12h34m12s) 
CPU  3 inst:  410000004 cyc:  941807727 now IPC :1.49019: AVG IPC :0.43366: L2-Pf-HR :0.84744: L2-HR :0.81171: (Sim:12h34m26s) 
CPU  2 inst:  405000000 cyc:  942093481 now IPC :1.43946: AVG IPC :0.42822: L2-Pf-HR :0.84681: L2-HR :0.81042: (Sim:12h34m51s) 
CPU  1 inst:  405000000 cyc:  942228001 now IPC :1.50196: AVG IPC :0.42816: L2-Pf-HR :0.84319: L2-HR :0.80749: (Sim:12h35m3s) 
CPU  0 inst:  408000004 cyc:  942345127 now IPC :1.43277: AVG IPC :0.43129: L2-Pf-HR :0.85091: L2-HR :0.81385: (Sim:12h35m13s) 
CPU  3 inst:  411000003 cyc:  942429863 now IPC :1.60736: AVG IPC :0.43444: L2-Pf-HR :0.84816: L2-HR :0.81262: (Sim:12h35m20s) 
CPU  2 inst:  406000002 cyc:  942724632 now IPC :1.58441: AVG IPC :0.42899: L2-Pf-HR :0.84756: L2-HR :0.81138: (Sim:12h35m48s) 
CPU  1 inst:  406000002 cyc:  942814379 now IPC :1.70539: AVG IPC :0.42895: L2-Pf-HR :0.84395: L2-HR :0.80845: (Sim:12h35m56s) 
CPU  0 inst:  409000003 cyc:  943019824 now IPC :1.48215: AVG IPC :0.43204: L2-Pf-HR :0.85161: L2-HR :0.81475: (Sim:12h36m14s) 
CPU  3 inst:  412000004 cyc:  943160089 now IPC :1.36944: AVG IPC :0.43516: L2-Pf-HR :0.84879: L2-HR :0.81345: (Sim:12h36m26s) 
CPU  2 inst:  407000001 cyc:  943334229 now IPC :1.64043: AVG IPC :0.42978: L2-Pf-HR :0.84831: L2-HR :0.81233: (Sim:12h36m42s) 
CPU  1 inst:  407000001 cyc:  943444660 now IPC :1.58659: AVG IPC :0.42973: L2-Pf-HR :0.84472: L2-HR :0.80942: (Sim:12h36m50s) 
CPU  0 inst:  410000004 cyc:  943740722 now IPC :1.38716: AVG IPC :0.43277: L2-Pf-HR :0.85232: L2-HR :0.81566: (Sim:12h37m15s) 
CPU  3 inst:  413000002 cyc:  943895623 now IPC :1.35955: AVG IPC :0.43588: L2-Pf-HR :0.84945: L2-HR :0.81431: (Sim:12h37m28s) 
CPU  2 inst:  408000004 cyc:  944038448 now IPC :1.42002: AVG IPC :0.43052: L2-Pf-HR :0.84901: L2-HR :0.81323: (Sim:12h37m41s) 
CPU  1 inst:  408000005 cyc:  944113994 now IPC :1.49403: AVG IPC :0.43048: L2-Pf-HR :0.84544: L2-HR :0.81034: (Sim:12h37m46s) 
CPU  0 inst:  411000003 cyc:  944429833 now IPC :1.45114: AVG IPC :0.43352: L2-Pf-HR :0.85301: L2-HR :0.81654: (Sim:12h38m14s) 
CPU  3 inst:  414000000 cyc:  944620658 now IPC :1.37924: AVG IPC :0.43661: L2-Pf-HR :0.85009: L2-HR :0.81516: (Sim:12h38m31s) 
CPU  2 inst:  409000003 cyc:  944717836 now IPC :1.47191: AVG IPC :0.43127: L2-Pf-HR :0.84973: L2-HR :0.81414: (Sim:12h38m39s) 
CPU  1 inst:  409000003 cyc:  944754474 now IPC :1.56133: AVG IPC :0.43125: L2-Pf-HR :0.84619: L2-HR :0.81128: (Sim:12h38m43s) 
CPU  0 inst:  412000004 cyc:  945156433 now IPC :1.37627: AVG IPC :0.43424: L2-Pf-HR :0.85363: L2-HR :0.81737: (Sim:12h39m15s) 
CPU  3 inst:  415000002 cyc:  945378123 now IPC :1.32020: AVG IPC :0.43732: L2-Pf-HR :0.85070: L2-HR :0.81597: (Sim:12h39m34s) 
CPU  2 inst:  410000004 cyc:  945393533 now IPC :1.47995: AVG IPC :0.43202: L2-Pf-HR :0.85045: L2-HR :0.81505: (Sim:12h39m35s) 
CPU  1 inst:  410000004 cyc:  945427973 now IPC :1.48478: AVG IPC :0.43200: L2-Pf-HR :0.84693: L2-HR :0.81220: (Sim:12h39m38s) 
CPU  0 inst:  413000002 cyc:  945868007 now IPC :1.40533: AVG IPC :0.43498: L2-Pf-HR :0.85425: L2-HR :0.81819: (Sim:12h40m16s) 
CPU  2 inst:  411000003 cyc:  946035369 now IPC :1.55803: AVG IPC :0.43278: L2-Pf-HR :0.85117: L2-HR :0.81596: (Sim:12h40m31s) 
CPU  1 inst:  411000003 cyc:  946054221 now IPC :1.59681: AVG IPC :0.43277: L2-Pf-HR :0.84767: L2-HR :0.81312: (Sim:12h40m33s) 
CPU  3 inst:  416000004 cyc:  946075912 now IPC :1.43310: AVG IPC :0.43805: L2-Pf-HR :0.85130: L2-HR :0.81677: (Sim:12h40m35s) 
CPU  0 inst:  414000000 cyc:  946519299 now IPC :1.53541: AVG IPC :0.43573: L2-Pf-HR :0.85485: L2-HR :0.81900: (Sim:12h41m15s) 
CPU  3 inst:  417000002 cyc:  946629890 now IPC :1.80512: AVG IPC :0.43885: L2-Pf-HR :0.85194: L2-HR :0.81760: (Sim:12h41m24s) 
CPU  1 inst:  412000004 cyc:  946774259 now IPC :1.38882: AVG IPC :0.43350: L2-Pf-HR :0.84834: L2-HR :0.81398: (Sim:12h41m36s) 
CPU  2 inst:  412000004 cyc:  946782374 now IPC :1.33868: AVG IPC :0.43350: L2-Pf-HR :0.85181: L2-HR :0.81679: (Sim:12h41m37s) 
CPU  3 inst:  418000000 cyc:  947189866 now IPC :1.78579: AVG IPC :0.43965: L2-Pf-HR :0.85254: L2-HR :0.81841: (Sim:12h42m10s) 
CPU  0 inst:  415000002 cyc:  947307789 now IPC :1.26825: AVG IPC :0.43643: L2-Pf-HR :0.85545: L2-HR :0.81980: (Sim:12h42m20s) 
CPU  1 inst:  413000002 cyc:  947528368 now IPC :1.32607: AVG IPC :0.43421: L2-Pf-HR :0.84900: L2-HR :0.81483: (Sim:12h42m38s) 
CPU  2 inst:  413000002 cyc:  947565475 now IPC :1.27697: AVG IPC :0.43420: L2-Pf-HR :0.85245: L2-HR :0.81763: (Sim:12h42m41s) 
CPU  3 inst:  419000000 cyc:  947803702 now IPC :1.62910: AVG IPC :0.44042: L2-Pf-HR :0.85314: L2-HR :0.81920: (Sim:12h43m0s) 
CPU  0 inst:  416000004 cyc:  948084680 now IPC :1.28718: AVG IPC :0.43712: L2-Pf-HR :0.85603: L2-HR :0.82059: (Sim:12h43m24s) 
CPU  1 inst:  414000000 cyc:  948249487 now IPC :1.38673: AVG IPC :0.43494: L2-Pf-HR :0.84965: L2-HR :0.81568: (Sim:12h43m39s) 
CPU  2 inst:  414000000 cyc:  948320217 now IPC :1.32495: AVG IPC :0.43491: L2-Pf-HR :0.85308: L2-HR :0.81846: (Sim:12h43m44s) 
CPU  3 inst:  420000005 cyc:  948427121 now IPC :1.60407: AVG IPC :0.44119: L2-Pf-HR :0.85376: L2-HR :0.82002: (Sim:12h43m54s) 
CPU  0 inst:  417000002 cyc:  948720013 now IPC :1.57397: AVG IPC :0.43789: L2-Pf-HR :0.85664: L2-HR :0.82140: (Sim:12h44m19s) 
CPU  1 inst:  415000002 cyc:  948974118 now IPC :1.38002: AVG IPC :0.43566: L2-Pf-HR :0.85029: L2-HR :0.81650: (Sim:12h44m42s) 
CPU  3 inst:  421000003 cyc:  949003254 now IPC :1.73571: AVG IPC :0.44197: L2-Pf-HR :0.85437: L2-HR :0.82080: (Sim:12h44m44s) 
CPU  2 inst:  415000002 cyc:  949055576 now IPC :1.35988: AVG IPC :0.43562: L2-Pf-HR :0.85369: L2-HR :0.81927: (Sim:12h44m49s) 
CPU  0 inst:  418000000 cyc:  949367970 now IPC :1.54331: AVG IPC :0.43864: L2-Pf-HR :0.85724: L2-HR :0.82220: (Sim:12h45m17s) 
CPU  3 inst:  422000002 cyc:  949564825 now IPC :1.78072: AVG IPC :0.44277: L2-Pf-HR :0.85497: L2-HR :0.82159: (Sim:12h45m34s) 
CPU  1 inst:  416000004 cyc:  949690881 now IPC :1.39516: AVG IPC :0.43638: L2-Pf-HR :0.85090: L2-HR :0.81731: (Sim:12h45m45s) 
CPU  2 inst:  416000004 cyc:  949749752 now IPC :1.44056: AVG IPC :0.43636: L2-Pf-HR :0.85429: L2-HR :0.82006: (Sim:12h45m51s) 
CPU  0 inst:  419000000 cyc:  950018881 now IPC :1.53631: AVG IPC :0.43939: L2-Pf-HR :0.85783: L2-HR :0.82299: (Sim:12h46m16s) 
CPU  3 inst:  423000004 cyc:  950134616 now IPC :1.75503: AVG IPC :0.44355: L2-Pf-HR :0.85557: L2-HR :0.82237: (Sim:12h46m27s) 
CPU  1 inst:  417000002 cyc:  950293881 now IPC :1.65837: AVG IPC :0.43716: L2-Pf-HR :0.85157: L2-HR :0.81816: (Sim:12h46m42s) 
CPU  2 inst:  417000002 cyc:  950376361 now IPC :1.59589: AVG IPC :0.43712: L2-Pf-HR :0.85494: L2-HR :0.82090: (Sim:12h46m50s) 
CPU  0 inst:  420000005 cyc:  950635763 now IPC :1.62106: AVG IPC :0.44016: L2-Pf-HR :0.85844: L2-HR :0.82378: (Sim:12h47m14s) 
CPU  3 inst:  424000003 cyc:  950744222 now IPC :1.64040: AVG IPC :0.44432: L2-Pf-HR :0.85615: L2-HR :0.82313: (Sim:12h47m23s) 
CPU  1 inst:  418000000 cyc:  950918167 now IPC :1.60183: AVG IPC :0.43793: L2-Pf-HR :0.85222: L2-HR :0.81899: (Sim:12h47m40s) 
CPU  2 inst:  418000000 cyc:  950989818 now IPC :1.63010: AVG IPC :0.43789: L2-Pf-HR :0.85556: L2-HR :0.82170: (Sim:12h47m47s) 
CPU  0 inst:  421000003 cyc:  951269253 now IPC :1.57855: AVG IPC :0.44092: L2-Pf-HR :0.85902: L2-HR :0.82455: (Sim:12h48m13s) 
CPU  3 inst:  425000002 cyc:  951328999 now IPC :1.71005: AVG IPC :0.44510: L2-Pf-HR :0.85675: L2-HR :0.82390: (Sim:12h48m19s) 
CPU  1 inst:  419000005 cyc:  951510752 now IPC :1.68753: AVG IPC :0.43870: L2-Pf-HR :0.85285: L2-HR :0.81980: (Sim:12h48m37s) 
CPU  2 inst:  419000005 cyc:  951574283 now IPC :1.71098: AVG IPC :0.43868: L2-Pf-HR :0.85617: L2-HR :0.82250: (Sim:12h48m43s) 
CPU  0 inst:  422000002 cyc:  951866615 now IPC :1.67403: AVG IPC :0.44170: L2-Pf-HR :0.85959: L2-HR :0.82532: (Sim:12h49m12s) 
CPU  3 inst:  426000004 cyc:  951903854 now IPC :1.73957: AVG IPC :0.44588: L2-Pf-HR :0.85733: L2-HR :0.82465: (Sim:12h49m15s) 
CPU  1 inst:  420000005 cyc:  952089094 now IPC :1.72908: AVG IPC :0.43949: L2-Pf-HR :0.85350: L2-HR :0.82063: (Sim:12h49m33s) 
CPU  2 inst:  420000005 cyc:  952154487 now IPC :1.72353: AVG IPC :0.43946: L2-Pf-HR :0.85680: L2-HR :0.82332: (Sim:12h49m38s) 
CPU  0 inst:  423000004 cyc:  952473367 now IPC :1.64812: AVG IPC :0.44247: L2-Pf-HR :0.86018: L2-HR :0.82608: (Sim:12h50m9s) 
CPU  3 inst:  427000000 cyc:  952503570 now IPC :1.66745: AVG IPC :0.44665: L2-Pf-HR :0.85793: L2-HR :0.82541: (Sim:12h50m11s) 
CPU  1 inst:  421000002 cyc:  952721686 now IPC :1.58079: AVG IPC :0.44025: L2-Pf-HR :0.85413: L2-HR :0.82143: (Sim:12h50m32s) 
CPU  2 inst:  421000002 cyc:  952752752 now IPC :1.67150: AVG IPC :0.44023: L2-Pf-HR :0.85740: L2-HR :0.82410: (Sim:12h50m35s) 
CPU  0 inst:  424000003 cyc:  953080705 now IPC :1.64653: AVG IPC :0.44323: L2-Pf-HR :0.86075: L2-HR :0.82684: (Sim:12h51m6s) 
CPU  3 inst:  428000002 cyc:  953105025 now IPC :1.66264: AVG IPC :0.44742: L2-Pf-HR :0.85852: L2-HR :0.82616: (Sim:12h51m8s) 
CPU  1 inst:  422000005 cyc:  953353000 now IPC :1.58400: AVG IPC :0.44101: L2-Pf-HR :0.85476: L2-HR :0.82224: (Sim:12h51m30s) 
CPU  2 inst:  422000001 cyc:  953373641 now IPC :1.61059: AVG IPC :0.44100: L2-Pf-HR :0.85801: L2-HR :0.82489: (Sim:12h51m31s) 
CPU  0 inst:  425000002 cyc:  953757252 now IPC :1.47809: AVG IPC :0.44397: L2-Pf-HR :0.86133: L2-HR :0.82760: (Sim:12h52m6s) 
CPU  3 inst:  429000005 cyc:  953825629 now IPC :1.38773: AVG IPC :0.44813: L2-Pf-HR :0.85902: L2-HR :0.82684: (Sim:12h52m12s) 
CPU  1 inst:  423000003 cyc:  953950931 now IPC :1.67243: AVG IPC :0.44178: L2-Pf-HR :0.85537: L2-HR :0.82302: (Sim:12h52m24s) 
CPU  2 inst:  423000004 cyc:  954003428 now IPC :1.58784: AVG IPC :0.44176: L2-Pf-HR :0.85861: L2-HR :0.82566: (Sim:12h52m28s) 
CPU  0 inst:  426000004 cyc:  954412299 now IPC :1.52661: AVG IPC :0.44471: L2-Pf-HR :0.86189: L2-HR :0.82833: (Sim:12h53m5s) 
CPU  3 inst:  430000000 cyc:  954505665 now IPC :1.47050: AVG IPC :0.44886: L2-Pf-HR :0.85953: L2-HR :0.82753: (Sim:12h53m14s) 
CPU  1 inst:  424000003 cyc:  954574568 now IPC :1.60350: AVG IPC :0.44254: L2-Pf-HR :0.85596: L2-HR :0.82379: (Sim:12h53m20s) 
CPU  2 inst:  424000003 cyc:  954618224 now IPC :1.62655: AVG IPC :0.44252: L2-Pf-HR :0.85919: L2-HR :0.82642: (Sim:12h53m23s) 
CPU  0 inst:  427000000 cyc:  955076998 now IPC :1.50443: AVG IPC :0.44545: L2-Pf-HR :0.86247: L2-HR :0.82907: (Sim:12h54m3s) 
CPU  1 inst:  425000002 cyc:  955218730 now IPC :1.55240: AVG IPC :0.44329: L2-Pf-HR :0.85658: L2-HR :0.82457: (Sim:12h54m15s) 
CPU  3 inst:  431000000 cyc:  955223651 now IPC :1.39278: AVG IPC :0.44957: L2-Pf-HR :0.86006: L2-HR :0.82823: (Sim:12h54m15s) 
CPU  2 inst:  425000002 cyc:  955287466 now IPC :1.49423: AVG IPC :0.44326: L2-Pf-HR :0.85978: L2-HR :0.82718: (Sim:12h54m22s) 
CPU  0 inst:  428000000 cyc:  955755570 now IPC :1.47368: AVG IPC :0.44618: L2-Pf-HR :0.86304: L2-HR :0.82981: (Sim:12h55m2s) 
Caught signal: 2
     > Finished combination: TraceType=770-tot Sim:657000000 Prefetcher=L2029-SecTOP-L2-MultiMarkovDelta_ip_stride_v4 L1=next_line
