TRACE: [32000000]_FE_[OPT-125M]_[h12]_[s256]_[d64] Warmup: 2000000 NumTraces: 32000000
L1:bingo_dpc3_PHT1k:L2:bingo_dpc3_PHT1k
*************************************************
   ChampSim Multicore Out-of-Order Simulator
   Last compiled: Oct 28 2024 16:56:00
*************************************************

trace_0 770-tot_memTraces_v3/memTraces[32000000]_FE_[OPT-125M]_[h12]_[s256]_[d64].champsim.xz
trace_1 770-tot_memTraces_v3/memTraces[32000000]_FE_[OPT-125M]_[h12]_[s256]_[d64].champsim.xz
trace_2 770-tot_memTraces_v3/memTraces[32000000]_FE_[OPT-125M]_[h12]_[s256]_[d64].champsim.xz
trace_3 770-tot_memTraces_v3/memTraces[32000000]_FE_[OPT-125M]_[h12]_[s256]_[d64].champsim.xz
Bingo PHT WAYS: 16 and PHT_SIZE: 1024
Bingo2 PHT WAYS: 16 and PHT_SIZE: 1024
Bingo PHT WAYS: 16 and PHT_SIZE: 1024
Bingo2 PHT WAYS: 16 and PHT_SIZE: 1024
Bingo PHT WAYS: 16 and PHT_SIZE: 1024
Bingo2 PHT WAYS: 16 and PHT_SIZE: 1024
Bingo PHT WAYS: 16 and PHT_SIZE: 1024
Bingo2 PHT WAYS: 16 and PHT_SIZE: 1024
MAIN.cc ln 751 stats print skipped
CPU  2 inst:    1000000 cyc:     500287 now IPC :1.99885: AVG IPC :1.99885: L2-Pf-HR :0.81077: L2-HR :0.67145: (Sim:0h1m37s) 
CPU  0 inst:    1000000 cyc:     500371 now IPC :1.99852: AVG IPC :1.99852: L2-Pf-HR :0.81188: L2-HR :0.67115: (Sim:0h1m37s) 
CPU  1 inst:    1000000 cyc:     500430 now IPC :1.99828: AVG IPC :1.99828: L2-Pf-HR :0.81510: L2-HR :0.67175: (Sim:0h1m37s) 
CPU  3 inst:    1000000 cyc:     500459 now IPC :1.99817: AVG IPC :1.99817: L2-Pf-HR :0.77173: L2-HR :0.63904: (Sim:0h1m37s) 
CPU  0 inst:    2000004 cyc:     987716 now IPC :2.05194: AVG IPC :2.02488: L2-Pf-HR :0.80532: L2-HR :0.74026: (Sim:0h3m21s) 
CPU  2 inst:    2000004 cyc:     987720 now IPC :2.05157: AVG IPC :2.02487: L2-Pf-HR :0.79911: L2-HR :0.74207: (Sim:0h3m21s) 
CPU  1 inst:    2000004 cyc:     987844 now IPC :2.05165: AVG IPC :2.02462: L2-Pf-HR :0.80517: L2-HR :0.74355: (Sim:0h3m21s) 
CPU  3 inst:    2000004 cyc:     987968 now IPC :2.05125: AVG IPC :2.02436: L2-Pf-HR :0.78353: L2-HR :0.72842: (Sim:0h3m21s) 

Warmup complete CPU  0 instructions:    2000482 cycles:     987968 (Simulation time: 0 hr 3 min 21 sec) 
Warmup complete CPU  1 instructions:    2000281 cycles:     987968 (Simulation time: 0 hr 3 min 21 sec) 
Warmup complete CPU  2 instructions:    2000468 cycles:     987968 (Simulation time: 0 hr 3 min 21 sec) 
Warmup complete CPU  3 instructions:    2000004 cycles:     987968 (Simulation time: 0 hr 3 min 21 sec) 

CPU  3 inst:    3000001 cyc:    1705810 now IPC :1.39306: AVG IPC :1.39306: L2-Pf-HR :0.80637: L2-HR :0.81386: (Sim:0h5m0s) 
CPU  0 inst:    3000001 cyc:    1727531 now IPC :1.35169: AVG IPC :1.35150: L2-Pf-HR :0.81794: L2-HR :0.81397: (Sim:0h5m3s) 
CPU  2 inst:    3000001 cyc:    1730042 now IPC :1.34712: AVG IPC :1.34695: L2-Pf-HR :0.81188: L2-HR :0.81205: (Sim:0h5m3s) 
CPU  1 inst:    3000001 cyc:    1730556 now IPC :1.34641: AVG IPC :1.34626: L2-Pf-HR :0.80537: L2-HR :0.80917: (Sim:0h5m3s) 
CPU  3 inst:    4000000 cyc:    2390118 now IPC :1.46133: AVG IPC :1.42638: L2-Pf-HR :0.80659: L2-HR :0.81861: (Sim:0h6m38s) 
CPU  2 inst:    4000000 cyc:    2390269 now IPC :1.51463: AVG IPC :1.42589: L2-Pf-HR :0.81066: L2-HR :0.82068: (Sim:0h6m38s) 
CPU  0 inst:    4000000 cyc:    2436299 now IPC :1.41090: AVG IPC :1.38057: L2-Pf-HR :0.81419: L2-HR :0.81555: (Sim:0h6m44s) 
CPU  1 inst:    4000000 cyc:    2439686 now IPC :1.41018: AVG IPC :1.37748: L2-Pf-HR :0.81848: L2-HR :0.81950: (Sim:0h6m45s) 
CPU  3 inst:    5000001 cyc:    3024220 now IPC :1.57703: AVG IPC :1.47329: L2-Pf-HR :0.80325: L2-HR :0.81934: (Sim:0h8m2s) 
CPU  2 inst:    5000005 cyc:    3077440 now IPC :1.45525: AVG IPC :1.43555: L2-Pf-HR :0.81176: L2-HR :0.82168: (Sim:0h8m6s) 
CPU  0 inst:    5000001 cyc:    3123731 now IPC :1.45469: AVG IPC :1.40443: L2-Pf-HR :0.81546: L2-HR :0.81713: (Sim:0h8m10s) 
CPU  1 inst:    5000001 cyc:    3128263 now IPC :1.45227: AVG IPC :1.40155: L2-Pf-HR :0.81885: L2-HR :0.81777: (Sim:0h8m10s) 
CPU  3 inst:    6000001 cyc:    3676526 now IPC :1.53302: AVG IPC :1.48779: L2-Pf-HR :0.80386: L2-HR :0.81996: (Sim:0h8m52s) 
CPU  2 inst:    6000001 cyc:    3762563 now IPC :1.45959: AVG IPC :1.44148: L2-Pf-HR :0.81229: L2-HR :0.82028: (Sim:0h8m59s) 
CPU  0 inst:    6000001 cyc:    3771730 now IPC :1.54321: AVG IPC :1.43673: L2-Pf-HR :0.81224: L2-HR :0.81904: (Sim:0h9m0s) 
CPU  1 inst:    6000001 cyc:    3799180 now IPC :1.49050: AVG IPC :1.42277: L2-Pf-HR :0.82149: L2-HR :0.81917: (Sim:0h9m2s) 
CPU  3 inst:    7000004 cyc:    4305470 now IPC :1.58997: AVG IPC :1.50716: L2-Pf-HR :0.80310: L2-HR :0.82078: (Sim:0h9m39s) 
CPU  2 inst:    7000004 cyc:    4466761 now IPC :1.42006: AVG IPC :1.43715: L2-Pf-HR :0.81496: L2-HR :0.81981: (Sim:0h9m52s) 
CPU  0 inst:    7000004 cyc:    4485832 now IPC :1.40036: AVG IPC :1.42931: L2-Pf-HR :0.81105: L2-HR :0.81808: (Sim:0h9m53s) 
CPU  1 inst:    7000004 cyc:    4488718 now IPC :1.45025: AVG IPC :1.42819: L2-Pf-HR :0.81455: L2-HR :0.81655: (Sim:0h9m54s) 
CPU  3 inst:    8000002 cyc:    4998960 now IPC :1.44198: AVG IPC :1.49589: L2-Pf-HR :0.80815: L2-HR :0.82398: (Sim:0h10m26s) 
CPU  1 inst:    8000002 cyc:    5314853 now IPC :1.21045: AVG IPC :1.38661: L2-Pf-HR :0.81691: L2-HR :0.81877: (Sim:0h10m49s) 
CPU  2 inst:    8000002 cyc:    5321503 now IPC :1.16994: AVG IPC :1.38444: L2-Pf-HR :0.81297: L2-HR :0.81669: (Sim:0h10m50s) 
CPU  0 inst:    8000002 cyc:    5324049 now IPC :1.19301: AVG IPC :1.38363: L2-Pf-HR :0.81016: L2-HR :0.81708: (Sim:0h10m50s) 
CPU  3 inst:    9000000 cyc:    5745239 now IPC :1.33998: AVG IPC :1.47143: L2-Pf-HR :0.80713: L2-HR :0.82272: (Sim:0h11m19s) 
CPU  0 inst:    9000000 cyc:    6225407 now IPC :1.10943: AVG IPC :1.33644: L2-Pf-HR :0.80820: L2-HR :0.81712: (Sim:0h11m47s) 
CPU  2 inst:    9000000 cyc:    6288481 now IPC :1.03415: AVG IPC :1.32054: L2-Pf-HR :0.81195: L2-HR :0.81671: (Sim:0h11m50s) 
CPU  1 inst:    9000000 cyc:    6296303 now IPC :1.01890: AVG IPC :1.31863: L2-Pf-HR :0.81612: L2-HR :0.81705: (Sim:0h11m51s) 
CPU  3 inst:   10000000 cyc:    6625178 now IPC :1.13644: AVG IPC :1.41914: L2-Pf-HR :0.80434: L2-HR :0.82127: (Sim:0h12m12s) 
CPU  0 inst:   10000000 cyc:    7299146 now IPC :0.93133: AVG IPC :1.26752: L2-Pf-HR :0.80833: L2-HR :0.81805: (Sim:0h12m47s) 
CPU  2 inst:   10000000 cyc:    7308436 now IPC :0.98044: AVG IPC :1.26566: L2-Pf-HR :0.81065: L2-HR :0.81673: (Sim:0h12m48s) 
CPU  1 inst:   10000000 cyc:    7355259 now IPC :0.94433: AVG IPC :1.25638: L2-Pf-HR :0.81483: L2-HR :0.81635: (Sim:0h12m51s) 
CPU  3 inst:   11000002 cyc:    7757972 now IPC :0.88277: AVG IPC :1.32939: L2-Pf-HR :0.80458: L2-HR :0.82046: (Sim:0h13m16s) 
CPU  2 inst:   11000002 cyc:    8323602 now IPC :0.98506: AVG IPC :1.22682: L2-Pf-HR :0.81159: L2-HR :0.81927: (Sim:0h13m47s) 
CPU  0 inst:   11000002 cyc:    8326193 now IPC :0.97367: AVG IPC :1.22639: L2-Pf-HR :0.81048: L2-HR :0.81966: (Sim:0h13m47s) 
CPU  1 inst:   11000002 cyc:    8327256 now IPC :1.02881: AVG IPC :1.22624: L2-Pf-HR :0.81736: L2-HR :0.81951: (Sim:0h13m47s) 
CPU  3 inst:   12000003 cyc:    8876426 now IPC :0.89409: AVG IPC :1.26767: L2-Pf-HR :0.80566: L2-HR :0.82120: (Sim:0h14m19s) 
CPU  2 inst:   12000003 cyc:    9477252 now IPC :0.86681: AVG IPC :1.17790: L2-Pf-HR :0.80959: L2-HR :0.81897: (Sim:0h14m48s) 
CPU  1 inst:   12000003 cyc:    9498432 now IPC :0.85384: AVG IPC :1.17499: L2-Pf-HR :0.81272: L2-HR :0.81714: (Sim:0h14m49s) 
CPU  0 inst:   12000003 cyc:    9525420 now IPC :0.83387: AVG IPC :1.17125: L2-Pf-HR :0.80920: L2-HR :0.81941: (Sim:0h14m50s) 
CPU  3 inst:   13000002 cyc:   11827077 now IPC :0.33891: AVG IPC :1.01484: L2-Pf-HR :0.78318: L2-HR :0.78561: (Sim:0h16m5s) 
CPU  1 inst:   13000005 cyc:   13833487 now IPC :0.23068: AVG IPC :0.85631: L2-Pf-HR :0.79167: L2-HR :0.78226: (Sim:0h17m14s) 
CPU  2 inst:   13000005 cyc:   14160394 now IPC :0.21353: AVG IPC :0.83504: L2-Pf-HR :0.78907: L2-HR :0.78367: (Sim:0h17m24s) 
CPU  0 inst:   13000005 cyc:   14274387 now IPC :0.21057: AVG IPC :0.82788: L2-Pf-HR :0.78799: L2-HR :0.78366: (Sim:0h17m28s) 
CPU  3 inst:   14000003 cyc:   17077919 now IPC :0.19045: AVG IPC :0.74581: L2-Pf-HR :0.72170: L2-HR :0.73888: (Sim:0h18m58s) 
CPU  1 inst:   14000003 cyc:   19401787 now IPC :0.17959: AVG IPC :0.65167: L2-Pf-HR :0.72531: L2-HR :0.73549: (Sim:0h20m11s) 
CPU  2 inst:   14000003 cyc:   19522290 now IPC :0.18650: AVG IPC :0.64742: L2-Pf-HR :0.72390: L2-HR :0.73684: (Sim:0h20m15s) 
CPU  0 inst:   14000003 cyc:   19580603 now IPC :0.18846: AVG IPC :0.64539: L2-Pf-HR :0.72317: L2-HR :0.73694: (Sim:0h20m17s) 
CPU  3 inst:   15000000 cyc:   20469162 now IPC :0.29488: AVG IPC :0.66731: L2-Pf-HR :0.68004: L2-HR :0.71995: (Sim:0h20m45s) 
CPU  1 inst:   15000000 cyc:   22788345 now IPC :0.29528: AVG IPC :0.59631: L2-Pf-HR :0.68230: L2-HR :0.71642: (Sim:0h21m58s) 
CPU  2 inst:   15000000 cyc:   22908704 now IPC :0.29530: AVG IPC :0.59302: L2-Pf-HR :0.68137: L2-HR :0.71780: (Sim:0h22m2s) 
CPU  0 inst:   15000000 cyc:   22966983 now IPC :0.29530: AVG IPC :0.59145: L2-Pf-HR :0.68085: L2-HR :0.71794: (Sim:0h22m4s) 
CPU  3 inst:   16000003 cyc:   23855518 now IPC :0.29530: AVG IPC :0.61222: L2-Pf-HR :0.64273: L2-HR :0.70261: (Sim:0h22m32s) 
CPU  1 inst:   16000003 cyc:   26176813 now IPC :0.29512: AVG IPC :0.55579: L2-Pf-HR :0.64441: L2-HR :0.69919: (Sim:0h23m45s) 
CPU  2 inst:   16000003 cyc:   26297342 now IPC :0.29510: AVG IPC :0.55314: L2-Pf-HR :0.64392: L2-HR :0.70061: (Sim:0h23m49s) 
CPU  0 inst:   16000003 cyc:   26355968 now IPC :0.29507: AVG IPC :0.55186: L2-Pf-HR :0.64365: L2-HR :0.70081: (Sim:0h23m51s) 
CPU  3 inst:   17000003 cyc:   27244431 now IPC :0.29508: AVG IPC :0.57129: L2-Pf-HR :0.60917: L2-HR :0.68669: (Sim:0h24m19s) 
CPU  1 inst:   17000001 cyc:   29564600 now IPC :0.29518: AVG IPC :0.52489: L2-Pf-HR :0.61025: L2-HR :0.68331: (Sim:0h25m32s) 
CPU  2 inst:   17000003 cyc:   29684861 now IPC :0.29520: AVG IPC :0.52269: L2-Pf-HR :0.61000: L2-HR :0.68471: (Sim:0h25m35s) 
CPU  0 inst:   17000003 cyc:   29743657 now IPC :0.29519: AVG IPC :0.52162: L2-Pf-HR :0.61003: L2-HR :0.68499: (Sim:0h25m37s) 
CPU  3 inst:   18000000 cyc:   30632219 now IPC :0.29518: AVG IPC :0.53973: L2-Pf-HR :0.57896: L2-HR :0.67210: (Sim:0h26m5s) 
CPU  1 inst:   18000000 cyc:   32951936 now IPC :0.29522: AVG IPC :0.50055: L2-Pf-HR :0.57956: L2-HR :0.66876: (Sim:0h27m17s) 
CPU  2 inst:   18000000 cyc:   33072515 now IPC :0.29519: AVG IPC :0.49867: L2-Pf-HR :0.57984: L2-HR :0.67028: (Sim:0h27m21s) 
CPU  0 inst:   18000000 cyc:   33131964 now IPC :0.29513: AVG IPC :0.49775: L2-Pf-HR :0.57980: L2-HR :0.67049: (Sim:0h27m22s) 
CPU  3 inst:   19000003 cyc:   34019014 now IPC :0.29527: AVG IPC :0.51467: L2-Pf-HR :0.55171: L2-HR :0.65870: (Sim:0h27m50s) 
CPU  3 inst:   20000004 cyc:   36176494 now IPC :0.46350: AVG IPC :0.51153: L2-Pf-HR :0.55453: L2-HR :0.66566: (Sim:0h29m1s) 
CPU  1 inst:   19000003 cyc:   36362220 now IPC :0.29323: AVG IPC :0.48057: L2-Pf-HR :0.55188: L2-HR :0.65537: (Sim:0h29m9s) 
CPU  2 inst:   19000000 cyc:   36488318 now IPC :0.29276: AVG IPC :0.47886: L2-Pf-HR :0.55256: L2-HR :0.65697: (Sim:0h29m14s) 
CPU  0 inst:   19000000 cyc:   36546360 now IPC :0.29288: AVG IPC :0.47807: L2-Pf-HR :0.55259: L2-HR :0.65718: (Sim:0h29m17s) 
CPU  3 inst:   21000000 cyc:   36974394 now IPC :1.25328: AVG IPC :0.52798: L2-Pf-HR :0.57971: L2-HR :0.68981: (Sim:0h29m35s) 
CPU  3 inst:   22000004 cyc:   37685445 now IPC :1.40637: AVG IPC :0.54500: L2-Pf-HR :0.60041: L2-HR :0.70984: (Sim:0h30m6s) 
CPU  3 inst:   23000004 cyc:   38472707 now IPC :1.27023: AVG IPC :0.56023: L2-Pf-HR :0.61844: L2-HR :0.72699: (Sim:0h30m35s) 
CPU  1 inst:   20000004 cyc:   38911716 now IPC :0.39223: AVG IPC :0.47463: L2-Pf-HR :0.55469: L2-HR :0.66268: (Sim:0h31m5s) 
CPU  2 inst:   20000004 cyc:   38944001 now IPC :0.40722: AVG IPC :0.47422: L2-Pf-HR :0.55620: L2-HR :0.66441: (Sim:0h31m7s) 
CPU  0 inst:   20000004 cyc:   39094547 now IPC :0.39244: AVG IPC :0.47235: L2-Pf-HR :0.55589: L2-HR :0.66451: (Sim:0h31m15s) 
CPU  3 inst:   24000004 cyc:   39321416 now IPC :1.17826: AVG IPC :0.57391: L2-Pf-HR :0.63472: L2-HR :0.74183: (Sim:0h31m32s) 
CPU  1 inst:   21000000 cyc:   39930910 now IPC :0.98116: AVG IPC :0.48789: L2-Pf-HR :0.58017: L2-HR :0.68728: (Sim:0h32m12s) 
CPU  2 inst:   21000000 cyc:   39974924 now IPC :0.97000: AVG IPC :0.48733: L2-Pf-HR :0.58128: L2-HR :0.68879: (Sim:0h32m16s) 
CPU  0 inst:   21000000 cyc:   39995311 now IPC :1.11016: AVG IPC :0.48708: L2-Pf-HR :0.58092: L2-HR :0.68883: (Sim:0h32m18s) 
CPU  3 inst:   25000001 cyc:   40167120 now IPC :1.18244: AVG IPC :0.58705: L2-Pf-HR :0.64780: L2-HR :0.75404: (Sim:0h32m31s) 
CPU  1 inst:   22000004 cyc:   40770569 now IPC :1.19096: AVG IPC :0.50273: L2-Pf-HR :0.60102: L2-HR :0.70769: (Sim:0h33m13s) 
CPU  2 inst:   22000004 cyc:   40821550 now IPC :1.18116: AVG IPC :0.50208: L2-Pf-HR :0.60186: L2-HR :0.70894: (Sim:0h33m17s) 
CPU  0 inst:   22000004 cyc:   40888598 now IPC :1.11947: AVG IPC :0.50123: L2-Pf-HR :0.60150: L2-HR :0.70903: (Sim:0h33m22s) 
CPU  3 inst:   26000002 cyc:   41009362 now IPC :1.18731: AVG IPC :0.59968: L2-Pf-HR :0.65937: L2-HR :0.76468: (Sim:0h33m32s) 
CPU  1 inst:   23000004 cyc:   41556514 now IPC :1.27235: AVG IPC :0.51764: L2-Pf-HR :0.61918: L2-HR :0.72512: (Sim:0h34m11s) 
CPU  2 inst:   23000004 cyc:   41631340 now IPC :1.23489: AVG IPC :0.51668: L2-Pf-HR :0.61985: L2-HR :0.72621: (Sim:0h34m18s) 
CPU  0 inst:   23000004 cyc:   41707236 now IPC :1.22154: AVG IPC :0.51571: L2-Pf-HR :0.61955: L2-HR :0.72632: (Sim:0h34m21s) 
CPU  3 inst:   27000000 cyc:   41879664 now IPC :1.14902: AVG IPC :0.61137: L2-Pf-HR :0.66959: L2-HR :0.77402: (Sim:0h34m35s) 
CPU  1 inst:   24000004 cyc:   42412628 now IPC :1.16807: AVG IPC :0.53108: L2-Pf-HR :0.63565: L2-HR :0.74021: (Sim:0h35m12s) 
CPU  2 inst:   24000004 cyc:   42446025 now IPC :1.22747: AVG IPC :0.53065: L2-Pf-HR :0.63626: L2-HR :0.74119: (Sim:0h35m15s) 
CPU  0 inst:   24000004 cyc:   42493551 now IPC :1.27175: AVG IPC :0.53004: L2-Pf-HR :0.63593: L2-HR :0.74127: (Sim:0h35m20s) 
CPU  3 inst:   28000003 cyc:   42719226 now IPC :1.19110: AVG IPC :0.62303: L2-Pf-HR :0.67954: L2-HR :0.78265: (Sim:0h35m37s) 
CPU  1 inst:   25000001 cyc:   43221351 now IPC :1.23651: AVG IPC :0.54459: L2-Pf-HR :0.64891: L2-HR :0.75264: (Sim:0h36m13s) 
CPU  2 inst:   25000001 cyc:   43252201 now IPC :1.24042: AVG IPC :0.54418: L2-Pf-HR :0.64936: L2-HR :0.75352: (Sim:0h36m16s) 
CPU  0 inst:   25000001 cyc:   43268023 now IPC :1.29120: AVG IPC :0.54398: L2-Pf-HR :0.64899: L2-HR :0.75358: (Sim:0h36m17s) 
CPU  3 inst:   29000004 cyc:   43517929 now IPC :1.25203: AVG IPC :0.63485: L2-Pf-HR :0.68792: L2-HR :0.79006: (Sim:0h36m37s) 
Finished CPU 3 instr: 27000000 cyc: 42529961 AVG IPC: 0.63485 (Sim time: 0h36m37s)
CPU  1 inst:   26000002 cyc:   43954453 now IPC :1.36407: AVG IPC :0.55857: L2-Pf-HR :0.66067: L2-HR :0.76344: (Sim:0h37m9s) 
CPU  2 inst:   26000002 cyc:   44110229 now IPC :1.16546: AVG IPC :0.55655: L2-Pf-HR :0.66095: L2-HR :0.76421: (Sim:0h37m19s) 
CPU  0 inst:   26000002 cyc:   44110761 now IPC :1.18661: AVG IPC :0.55654: L2-Pf-HR :0.66050: L2-HR :0.76423: (Sim:0h37m19s) 
CPU  3 inst:   30000003 cyc:   44319316 now IPC :1.24784: AVG IPC :0.64618: L2-Pf-HR :0.69531: L2-HR :0.79655: (Sim:0h37m36s) 
CPU  1 inst:   27000000 cyc:   44723956 now IPC :1.29954: AVG IPC :0.57161: L2-Pf-HR :0.67092: L2-HR :0.77288: (Sim:0h38m7s) 
CPU  2 inst:   27000003 cyc:   44827221 now IPC :1.39472: AVG IPC :0.57025: L2-Pf-HR :0.67110: L2-HR :0.77357: (Sim:0h38m16s) 
CPU  0 inst:   27000003 cyc:   44875737 now IPC :1.30723: AVG IPC :0.56962: L2-Pf-HR :0.67078: L2-HR :0.77363: (Sim:0h38m19s) 
CPU  3 inst:   31000002 cyc:   45104948 now IPC :1.27286: AVG IPC :0.65734: L2-Pf-HR :0.70197: L2-HR :0.80242: (Sim:0h38m37s) 
CPU  1 inst:   28000004 cyc:   45524793 now IPC :1.24870: AVG IPC :0.58378: L2-Pf-HR :0.68079: L2-HR :0.78158: (Sim:0h39m10s) 
CPU  2 inst:   28000004 cyc:   45547740 now IPC :1.38789: AVG IPC :0.58348: L2-Pf-HR :0.68095: L2-HR :0.78223: (Sim:0h39m12s) 
CPU  0 inst:   28000004 cyc:   45582731 now IPC :1.41444: AVG IPC :0.58302: L2-Pf-HR :0.68062: L2-HR :0.78227: (Sim:0h39m15s) 
CPU  3 inst:   32000000 cyc:   45880764 now IPC :1.28896: AVG IPC :0.66826: L2-Pf-HR :0.70893: L2-HR :0.80754: (Sim:0h39m39s) 
*** Reached end of trace for Core: 3 Repeating trace: 770-tot_memTraces_v3/memTraces[32000000]_FE_[OPT-125M]_[h12]_[s256]_[d64].champsim.xz
CPU  1 inst:   29000004 cyc:   46207667 now IPC :1.46440: AVG IPC :0.59708: L2-Pf-HR :0.68926: L2-HR :0.78912: (Sim:0h40m0s) 
Finished CPU 1 instr: 27000001 cyc: 45219847 AVG IPC: 0.59708 (Sim time: 0h40m0s)
CPU  2 inst:   29000004 cyc:   46237008 now IPC :1.45081: AVG IPC :0.59669: L2-Pf-HR :0.68933: L2-HR :0.78970: (Sim:0h40m2s) 
Finished CPU 2 instr: 27000000 cyc: 45249219 AVG IPC: 0.59670 (Sim time: 0h40m2s)
CPU  0 inst:   29000004 cyc:   46252167 now IPC :1.49379: AVG IPC :0.59649: L2-Pf-HR :0.68905: L2-HR :0.78973: (Sim:0h40m3s) 
Finished CPU 0 instr: 27000004 cyc: 45264381 AVG IPC: 0.59650 (Sim time: 0h40m3s)

ChampSim completed all CPUs

Total Simulation Statistics (not including warmup)

CPU 0 cumulative IPC: 0.59650 instructions: 27000004 cycles: 45264381
Core_0_L1D_total_access 8132038
Core_0_L1D_total_hit 7129112
Core_0_L1D_total_miss 1002926
Core_0_L1D_loads 6751618
Core_0_L1D_load_hit 6198194
Core_0_L1D_load_miss 553424
Core_0_L1D_RFOs 865537
Core_0_L1D_RFO_hit 861232
Core_0_L1D_RFO_miss 4305
Core_0_L1D_prefetches 514883
Core_0_L1D_prefetch_hit 69686
Core_0_L1D_prefetch_miss 445197
Core_0_L1D_writebacks 0
Core_0_L1D_writeback_hit 0
Core_0_L1D_writeback_miss 0

Core_0_L1I_total_access 3688507
Core_0_L1I_total_hit 3683782
Core_0_L1I_total_miss 4725
Core_0_L1I_loads 3688507
Core_0_L1I_load_hit 3683782
Core_0_L1I_load_miss 4725
Core_0_L1I_RFOs 0
Core_0_L1I_RFO_hit 0
Core_0_L1I_RFO_miss 0
Core_0_L1I_prefetches 0
Core_0_L1I_prefetch_hit 0
Core_0_L1I_prefetch_miss 0
Core_0_L1I_writebacks 0
Core_0_L1I_writeback_hit 0
Core_0_L1I_writeback_miss 0

Core_0_L2C_total_access 1294677
Core_0_L2C_total_hit 1022455
Core_0_L2C_total_miss 272222
Core_0_L2C_loads 477807
Core_0_L2C_load_hit 407263
Core_0_L2C_load_miss 70544
Core_0_L2C_RFOs 4100
Core_0_L2C_RFO_hit 325
Core_0_L2C_RFO_miss 3775
Core_0_L2C_prefetches 636473
Core_0_L2C_prefetch_hit 438576
Core_0_L2C_prefetch_miss 197897
Core_0_L2C_writebacks 176297
Core_0_L2C_writeback_hit 176291
Core_0_L2C_writeback_miss 6

[Bingo] PHT Access: 106338
[Bingo] PHT Hit PC+Addr: 51576
[Bingo] PHT Hit PC+Offs: 44927
[Bingo] PHT Miss: 9835
[Bingo] Prefetch PC+Addr: 0
[Bingo] Prefetch PC+Offs: 0
[Bingo] Useful PC+Addr: 0
[Bingo] Useful PC+Offs: 0
[Bingo] Useless PC+Addr: 0
[Bingo] Useless PC+Offs: 0
[Bingo] L1 Prefetch per Region: 10.40316
[Bingo] L2 Prefetch per Region: 0.31329
[Bingo] L3 Prefetch per Region: 0.00000
[Bingo] No Prefetch per Region: 21.28356
[Bingo] Number of Voters Mean: 10.73608
[Bingo] Number of Voters SD: 7.12519
PHT read accesses: 1341886
PHT write accesses: 100852
AT read accesses: 6352202
AT write accesses: 6352198
FT read accesses: 1332120
FT write accesses: 106338
PS read accesses: 598359
PS write accesses: 96503
PHT tag read accesses: 3772015
PHT tag write accesses: 152428
AT tag read accesses: 180825013
AT tag write accesses: 6453050
FT tag read accesses: 82371297
FT tag write accesses: 825501
PS tag read accesses: 113211357
PS tag write accesses: 691467
[Bingo2] PHT Access: 18545
[Bingo2] PHT Hit PC+Addr: 1386
[Bingo2] PHT Hit PC+Offs: 14747
[Bingo2] PHT Miss: 2412
[Bingo2] Prefetch PC+Addr: 0
[Bingo2] Prefetch PC+Offs: 0
[Bingo2] Useful PC+Addr: 0
[Bingo2] Useful PC+Offs: 0
[Bingo2] Useless PC+Addr: 0
[Bingo2] Useless PC+Offs: 0
[Bingo2] L1 Prefetch per Region: 0.00000
[Bingo2] L2 Prefetch per Region: 14.84250
[Bingo2] L3 Prefetch per Region: 0.00000
[Bingo2] No Prefetch per Region: 17.15750
[Bingo2] Number of Voters Mean: 13.93626
[Bingo2] Number of Voters SD: 4.88925
PHT read accesses: 280178
PHT write accesses: 15607
AT read accesses: 455583
AT write accesses: 471057
FT read accesses: 54567
FT write accesses: 18545
PS read accesses: 48684
PS write accesses: 16133
PHT tag read accesses: 769090
PHT tag write accesses: 16993
AT tag read accesses: 25723092
AT tag write accesses: 471190
FT tag read accesses: 18645755
FT tag write accesses: 53693
PS tag read accesses: 8183833
PS tag write accesses: 63712
Core_0_LLC_total_access 426742
Core_0_LLC_total_hit 161829
Core_0_LLC_total_miss 264913
Core_0_LLC_loads 40664
Core_0_LLC_load_hit 1142
Core_0_LLC_load_miss 39522
Core_0_LLC_RFOs 3775
Core_0_LLC_RFO_hit 3
Core_0_LLC_RFO_miss 3772
Core_0_LLC_prefetches 227777
Core_0_LLC_prefetch_hit 9067
Core_0_LLC_prefetch_miss 218710
Core_0_LLC_writebacks 154526
Core_0_LLC_writeback_hit 151617
Core_0_LLC_writeback_miss 2909


CPU 1 cumulative IPC: 0.59797 instructions: 27066686 cycles: 45264381
Core_1_L1D_total_access 8150263
Core_1_L1D_total_hit 7143014
Core_1_L1D_total_miss 1007249
Core_1_L1D_loads 6767984
Core_1_L1D_load_hit 6211351
Core_1_L1D_load_miss 556633
Core_1_L1D_RFOs 865735
Core_1_L1D_RFO_hit 861451
Core_1_L1D_RFO_miss 4284
Core_1_L1D_prefetches 516544
Core_1_L1D_prefetch_hit 70212
Core_1_L1D_prefetch_miss 446332
Core_1_L1D_writebacks 0
Core_1_L1D_writeback_hit 0
Core_1_L1D_writeback_miss 0

Core_1_L1I_total_access 3697846
Core_1_L1I_total_hit 3693124
Core_1_L1I_total_miss 4722
Core_1_L1I_loads 3697846
Core_1_L1I_load_hit 3693124
Core_1_L1I_load_miss 4722
Core_1_L1I_RFOs 0
Core_1_L1I_RFO_hit 0
Core_1_L1I_RFO_miss 0
Core_1_L1I_prefetches 0
Core_1_L1I_prefetch_hit 0
Core_1_L1I_prefetch_miss 0
Core_1_L1I_writebacks 0
Core_1_L1I_writeback_hit 0
Core_1_L1I_writeback_miss 0

Core_1_L2C_total_access 1295896
Core_1_L2C_total_hit 1022969
Core_1_L2C_total_miss 272927
Core_1_L2C_loads 480774
Core_1_L2C_load_hit 408739
Core_1_L2C_load_miss 72035
Core_1_L2C_RFOs 4090
Core_1_L2C_RFO_hit 326
Core_1_L2C_RFO_miss 3764
Core_1_L2C_prefetches 634683
Core_1_L2C_prefetch_hit 437561
Core_1_L2C_prefetch_miss 197122
Core_1_L2C_writebacks 176349
Core_1_L2C_writeback_hit 176343
Core_1_L2C_writeback_miss 6

[Bingo] PHT Access: 110999
[Bingo] PHT Hit PC+Addr: 52297
[Bingo] PHT Hit PC+Offs: 48139
[Bingo] PHT Miss: 10563
[Bingo] Prefetch PC+Addr: 0
[Bingo] Prefetch PC+Offs: 0
[Bingo] Useful PC+Addr: 0
[Bingo] Useful PC+Offs: 0
[Bingo] Useless PC+Addr: 0
[Bingo] Useless PC+Offs: 0
[Bingo] L1 Prefetch per Region: 10.41231
[Bingo] L2 Prefetch per Region: 0.30101
[Bingo] L3 Prefetch per Region: 0.00000
[Bingo] No Prefetch per Region: 21.28668
[Bingo] Number of Voters Mean: 10.91333
[Bingo] Number of Voters SD: 5.99356
PHT read accesses: 1403234
PHT write accesses: 105129
AT read accesses: 7068975
AT write accesses: 7068999
FT read accesses: 1347244
FT write accesses: 110999
PS read accesses: 620810
PS write accesses: 100436
PHT tag read accesses: 3965910
PHT tag write accesses: 157426
AT tag read accesses: 195056063
AT tag write accesses: 7174128
FT tag read accesses: 85268891
FT tag write accesses: 839992
PS tag read accesses: 124826002
PS tag write accesses: 717781
[Bingo2] PHT Access: 21964
[Bingo2] PHT Hit PC+Addr: 1593
[Bingo2] PHT Hit PC+Offs: 15724
[Bingo2] PHT Miss: 4647
[Bingo2] Prefetch PC+Addr: 0
[Bingo2] Prefetch PC+Offs: 0
[Bingo2] Useful PC+Addr: 0
[Bingo2] Useful PC+Offs: 0
[Bingo2] Useless PC+Addr: 0
[Bingo2] Useless PC+Offs: 0
[Bingo2] L1 Prefetch per Region: 0.00000
[Bingo2] L2 Prefetch per Region: 14.16146
[Bingo2] L3 Prefetch per Region: 0.00000
[Bingo2] No Prefetch per Region: 17.83854
[Bingo2] Number of Voters Mean: 13.67712
[Bingo2] Number of Voters SD: 3.97910
PHT read accesses: 308058
PHT write accesses: 18231
AT read accesses: 471466
AT write accesses: 489679
FT read accesses: 64022
FT write accesses: 21964
PS read accesses: 51616
PS write accesses: 17317
PHT tag read accesses: 896753
PHT tag write accesses: 19824
AT tag read accesses: 26359600
AT tag write accesses: 489825
FT tag read accesses: 19064375
FT tag write accesses: 63221
PS tag read accesses: 8545097
PS tag write accesses: 67925
Core_1_LLC_total_access 427512
Core_1_LLC_total_hit 164485
Core_1_LLC_total_miss 263027
Core_1_LLC_loads 42465
Core_1_LLC_load_hit 1915
Core_1_LLC_load_miss 40550
Core_1_LLC_RFOs 3764
Core_1_LLC_RFO_hit 5
Core_1_LLC_RFO_miss 3759
Core_1_LLC_prefetches 226692
Core_1_LLC_prefetch_hit 11316
Core_1_LLC_prefetch_miss 215376
Core_1_LLC_writebacks 154591
Core_1_LLC_writeback_hit 151249
Core_1_LLC_writeback_miss 3342


CPU 2 cumulative IPC: 0.59716 instructions: 27029867 cycles: 45264381
Core_2_L1D_total_access 8141043
Core_2_L1D_total_hit 7136227
Core_2_L1D_total_miss 1004816
Core_2_L1D_loads 6759362
Core_2_L1D_load_hit 6204611
Core_2_L1D_load_miss 554751
Core_2_L1D_RFOs 865627
Core_2_L1D_RFO_hit 861311
Core_2_L1D_RFO_miss 4316
Core_2_L1D_prefetches 516054
Core_2_L1D_prefetch_hit 70305
Core_2_L1D_prefetch_miss 445749
Core_2_L1D_writebacks 0
Core_2_L1D_writeback_hit 0
Core_2_L1D_writeback_miss 0

Core_2_L1I_total_access 3692859
Core_2_L1I_total_hit 3688139
Core_2_L1I_total_miss 4720
Core_2_L1I_loads 3692859
Core_2_L1I_load_hit 3688139
Core_2_L1I_load_miss 4720
Core_2_L1I_RFOs 0
Core_2_L1I_RFO_hit 0
Core_2_L1I_RFO_miss 0
Core_2_L1I_prefetches 0
Core_2_L1I_prefetch_hit 0
Core_2_L1I_prefetch_miss 0
Core_2_L1I_writebacks 0
Core_2_L1I_writeback_hit 0
Core_2_L1I_writeback_miss 0

Core_2_L2C_total_access 1296285
Core_2_L2C_total_hit 1024103
Core_2_L2C_total_miss 272182
Core_2_L2C_loads 479109
Core_2_L2C_load_hit 408249
Core_2_L2C_load_miss 70860
Core_2_L2C_RFOs 4119
Core_2_L2C_RFO_hit 320
Core_2_L2C_RFO_miss 3799
Core_2_L2C_prefetches 636753
Core_2_L2C_prefetch_hit 439237
Core_2_L2C_prefetch_miss 197516
Core_2_L2C_writebacks 176304
Core_2_L2C_writeback_hit 176297
Core_2_L2C_writeback_miss 7

[Bingo] PHT Access: 110700
[Bingo] PHT Hit PC+Addr: 52123
[Bingo] PHT Hit PC+Offs: 48016
[Bingo] PHT Miss: 10561
[Bingo] Prefetch PC+Addr: 0
[Bingo] Prefetch PC+Offs: 0
[Bingo] Useful PC+Addr: 0
[Bingo] Useful PC+Offs: 0
[Bingo] Useless PC+Addr: 0
[Bingo] Useless PC+Offs: 0
[Bingo] L1 Prefetch per Region: 10.41934
[Bingo] L2 Prefetch per Region: 0.30475
[Bingo] L3 Prefetch per Region: 0.00000
[Bingo] No Prefetch per Region: 21.27592
[Bingo] Number of Voters Mean: 10.93223
[Bingo] Number of Voters SD: 5.98231
PHT read accesses: 1398608
PHT write accesses: 104899
AT read accesses: 7059964
AT write accesses: 7059993
FT read accesses: 1346519
FT write accesses: 110700
PS read accesses: 616766
PS write accesses: 100139
PHT tag read accesses: 3955850
PHT tag write accesses: 157022
AT tag read accesses: 194902074
AT tag write accesses: 7164892
FT tag read accesses: 85249810
FT tag write accesses: 839185
PS tag read accesses: 124679302
PS tag write accesses: 713463
[Bingo2] PHT Access: 21556
[Bingo2] PHT Hit PC+Addr: 1532
[Bingo2] PHT Hit PC+Offs: 15464
[Bingo2] PHT Miss: 4560
[Bingo2] Prefetch PC+Addr: 0
[Bingo2] Prefetch PC+Offs: 0
[Bingo2] Useful PC+Addr: 0
[Bingo2] Useful PC+Offs: 0
[Bingo2] Useless PC+Addr: 0
[Bingo2] Useless PC+Offs: 0
[Bingo2] L1 Prefetch per Region: 0.00000
[Bingo2] L2 Prefetch per Region: 14.59991
[Bingo2] L3 Prefetch per Region: 0.00000
[Bingo2] No Prefetch per Region: 17.40009
[Bingo2] Number of Voters Mean: 13.69756
[Bingo2] Number of Voters SD: 3.97596
PHT read accesses: 301991
PHT write accesses: 17821
AT read accesses: 470246
AT write accesses: 488041
FT read accesses: 62546
FT write accesses: 21556
PS read accesses: 51475
PS write accesses: 16996
PHT tag read accesses: 878014
PHT tag write accesses: 19353
AT tag read accesses: 26311664
AT tag write accesses: 488195
FT tag read accesses: 19037792
FT tag write accesses: 61873
PS tag read accesses: 8510798
PS tag write accesses: 67292
Core_2_LLC_total_access 426684
Core_2_LLC_total_hit 162071
Core_2_LLC_total_miss 264613
Core_2_LLC_loads 41030
Core_2_LLC_load_hit 1403
Core_2_LLC_load_miss 39627
Core_2_LLC_RFOs 3799
Core_2_LLC_RFO_hit 0
Core_2_LLC_RFO_miss 3799
Core_2_LLC_prefetches 227346
Core_2_LLC_prefetch_hit 11019
Core_2_LLC_prefetch_miss 216327
Core_2_LLC_writebacks 154509
Core_2_LLC_writeback_hit 149649
Core_2_LLC_writeback_miss 4860


CPU 3 cumulative IPC: 0.66633 instructions: 30160835 cycles: 45264381
Core_3_L1D_total_access 9038494
Core_3_L1D_total_hit 7840768
Core_3_L1D_total_miss 1197726
Core_3_L1D_loads 7558619
Core_3_L1D_load_hit 6878668
Core_3_L1D_load_miss 679951
Core_3_L1D_RFOs 876663
Core_3_L1D_RFO_hit 871545
Core_3_L1D_RFO_miss 5118
Core_3_L1D_prefetches 603212
Core_3_L1D_prefetch_hit 90555
Core_3_L1D_prefetch_miss 512657
Core_3_L1D_writebacks 0
Core_3_L1D_writeback_hit 0
Core_3_L1D_writeback_miss 0

Core_3_L1I_total_access 4001711
Core_3_L1I_total_hit 3991903
Core_3_L1I_total_miss 9808
Core_3_L1I_loads 4001711
Core_3_L1I_load_hit 3991903
Core_3_L1I_load_miss 9808
Core_3_L1I_RFOs 0
Core_3_L1I_RFO_hit 0
Core_3_L1I_RFO_miss 0
Core_3_L1I_prefetches 0
Core_3_L1I_prefetch_hit 0
Core_3_L1I_prefetch_miss 0
Core_3_L1I_writebacks 0
Core_3_L1I_writeback_hit 0
Core_3_L1I_writeback_miss 0

Core_3_L2C_total_access 1515545
Core_3_L2C_total_hit 1222502
Core_3_L2C_total_miss 293043
Core_3_L2C_loads 595253
Core_3_L2C_load_hit 520610
Core_3_L2C_load_miss 74643
Core_3_L2C_RFOs 4216
Core_3_L2C_RFO_hit 365
Core_3_L2C_RFO_miss 3851
Core_3_L2C_prefetches 736642
Core_3_L2C_prefetch_hit 522099
Core_3_L2C_prefetch_miss 214543
Core_3_L2C_writebacks 179434
Core_3_L2C_writeback_hit 179428
Core_3_L2C_writeback_miss 6

[Bingo] PHT Access: 135339
[Bingo] PHT Hit PC+Addr: 67464
[Bingo] PHT Hit PC+Offs: 54701
[Bingo] PHT Miss: 13174
[Bingo] Prefetch PC+Addr: 0
[Bingo] Prefetch PC+Offs: 0
[Bingo] Useful PC+Addr: 0
[Bingo] Useful PC+Offs: 0
[Bingo] Useless PC+Addr: 0
[Bingo] Useless PC+Offs: 0
[Bingo] L1 Prefetch per Region: 10.15093
[Bingo] L2 Prefetch per Region: 0.32071
[Bingo] L3 Prefetch per Region: 0.00000
[Bingo] No Prefetch per Region: 21.52837
[Bingo] Number of Voters Mean: 10.34297
[Bingo] Number of Voters SD: 6.10701
PHT read accesses: 1697735
PHT write accesses: 127959
AT read accesses: 7883587
AT write accesses: 7883663
FT read accesses: 1423508
FT write accesses: 135339
PS read accesses: 738732
PS write accesses: 122165
PHT tag read accesses: 4754944
PHT tag write accesses: 195423
AT tag read accesses: 208957890
AT tag write accesses: 8011619
FT tag read accesses: 86861918
FT tag write accesses: 914565
PS tag read accesses: 138731477
PS tag write accesses: 856474
[Bingo2] PHT Access: 23767
[Bingo2] PHT Hit PC+Addr: 1894
[Bingo2] PHT Hit PC+Offs: 16520
[Bingo2] PHT Miss: 5353
[Bingo2] Prefetch PC+Addr: 0
[Bingo2] Prefetch PC+Offs: 0
[Bingo2] Useful PC+Addr: 0
[Bingo2] Useful PC+Offs: 0
[Bingo2] Useless PC+Addr: 0
[Bingo2] Useless PC+Offs: 0
[Bingo2] L1 Prefetch per Region: 0.00000
[Bingo2] L2 Prefetch per Region: 14.38465
[Bingo2] L3 Prefetch per Region: 0.00000
[Bingo2] No Prefetch per Region: 17.61535
[Bingo2] Number of Voters Mean: 13.62427
[Bingo2] Number of Voters SD: 4.11150
PHT read accesses: 334253
PHT write accesses: 19221
AT read accesses: 584373
AT write accesses: 603247
FT read accesses: 67211
FT write accesses: 23767
PS read accesses: 58358
PS write accesses: 18414
PHT tag read accesses: 950766
PHT tag write accesses: 21115
AT tag read accesses: 28234947
AT tag write accesses: 603722
FT tag read accesses: 19176151
FT tag write accesses: 67220
PS tag read accesses: 10424218
PS tag write accesses: 75757
Core_3_LLC_total_access 448999
Core_3_LLC_total_hit 179710
Core_3_LLC_total_miss 269289
Core_3_LLC_loads 47896
Core_3_LLC_load_hit 6921
Core_3_LLC_load_miss 40975
Core_3_LLC_RFOs 3851
Core_3_LLC_RFO_hit 27
Core_3_LLC_RFO_miss 3824
Core_3_LLC_prefetches 241290
Core_3_LLC_prefetch_hit 23093
Core_3_LLC_prefetch_miss 218197
Core_3_LLC_writebacks 155962
Core_3_LLC_writeback_hit 149669
Core_3_LLC_writeback_miss 6293


[ROI Statistics]
Core_0_instructions 27000004
Core_0_cycles 45264381
Core_0_IPC 0.59650

Core_0_branch_prediction_accuracy 98.37821
Core_0_branch_MPKI 0.53455
Core_0_average_ROB_occupancy_at_mispredict 335.94416

Core_0_L1D_total_access 8132038
Core_0_L1D_total_hit 7129112 L1D_total_Hit Ratio: 0.87667
Core_0_L1D_total_miss 1002926
Core_0_L1D_loads 6751618
Core_0_L1D_load_hit 6198194 L1D_load_Hit Ratio: 0.91803
Core_0_L1D_load_miss 553424
Core_0_L1D_RFOs 865537
Core_0_L1D_RFO_hit 861232 L1D_RFO_Hit Ratio: 0.99503
Core_0_L1D_RFO_miss 4305
Core_0_L1D_prefetches 514883
Core_0_L1D_prefetch_hit 69686 L1D_prefetch_Hit Ratio: 0.13534
Core_0_L1D_prefetch_miss 445197
Core_0_L1D_writebacks 0
Core_0_L1D_writeback_hit 0 L1D_writeback_Hit Ratio: -nan
Core_0_L1D_writeback_miss 0
Core_0_L1D_prefetch_requested 832482
Core_0_L1D_prefetch_issued 832482
Core_0_L1D_prefetch_useful 462264 L1D_Useful Ratio: 0.55528
Core_0_L1D_prefetch_useless 9186
Core_0_L1D_prefetch_late 81830
Core_0_L1D_average_miss_latency 2315988.59382

Core_0_L1I_total_access 3688507
Core_0_L1I_total_hit 3683782 L1I_total_Hit Ratio: 0.99872
Core_0_L1I_total_miss 4725
Core_0_L1I_loads 3688507
Core_0_L1I_load_hit 3683782 L1I_load_Hit Ratio: 0.99872
Core_0_L1I_load_miss 4725
Core_0_L1I_RFOs 0
Core_0_L1I_RFO_hit 0 L1I_RFO_Hit Ratio: -nan
Core_0_L1I_RFO_miss 0
Core_0_L1I_prefetches 0
Core_0_L1I_prefetch_hit 0 L1I_prefetch_Hit Ratio: -nan
Core_0_L1I_prefetch_miss 0
Core_0_L1I_writebacks 0
Core_0_L1I_writeback_hit 0 L1I_writeback_Hit Ratio: -nan
Core_0_L1I_writeback_miss 0
Core_0_L1I_prefetch_requested 0
Core_0_L1I_prefetch_issued 0
Core_0_L1I_prefetch_useful 0 L1I_Useful Ratio: -nan
Core_0_L1I_prefetch_useless 0
Core_0_L1I_prefetch_late 0
Core_0_L1I_average_miss_latency 729.85735

Core_0_L2C_total_access 1294677
Core_0_L2C_total_hit 1022455 L2C_total_Hit Ratio: 0.78974
Core_0_L2C_total_miss 272222
Core_0_L2C_loads 477807
Core_0_L2C_load_hit 407263 L2C_load_Hit Ratio: 0.85236
Core_0_L2C_load_miss 70544
Core_0_L2C_RFOs 4100
Core_0_L2C_RFO_hit 325 L2C_RFO_Hit Ratio: 0.07927
Core_0_L2C_RFO_miss 3775
Core_0_L2C_prefetches 636473
Core_0_L2C_prefetch_hit 438576 L2C_prefetch_Hit Ratio: 0.68907
Core_0_L2C_prefetch_miss 197897
Core_0_L2C_writebacks 176297
Core_0_L2C_writeback_hit 176291 L2C_writeback_Hit Ratio: 0.99997
Core_0_L2C_writeback_miss 6
Core_0_L2C_prefetch_requested 187268
Core_0_L2C_prefetch_issued 187268
Core_0_L2C_prefetch_useful 57867 L2C_Useful Ratio: 0.30901
Core_0_L2C_prefetch_useless 139943
Core_0_L2C_prefetch_late 29973
Core_0_L2C_average_miss_latency 812.26826

Core_0_LLC_total_access 426742
Core_0_LLC_total_hit 161829 LLC_total_Hit Ratio: 0.37922
Core_0_LLC_total_miss 264913
Core_0_LLC_loads 40664
Core_0_LLC_load_hit 1142 LLC_load_Hit Ratio: 0.02808
Core_0_LLC_load_miss 39522
Core_0_LLC_RFOs 3775
Core_0_LLC_RFO_hit 3 LLC_RFO_Hit Ratio: 0.00079
Core_0_LLC_RFO_miss 3772
Core_0_LLC_prefetches 227777
Core_0_LLC_prefetch_hit 9067 LLC_prefetch_Hit Ratio: 0.03981
Core_0_LLC_prefetch_miss 218710
Core_0_LLC_writebacks 154526
Core_0_LLC_writeback_hit 151617 LLC_writeback_Hit Ratio: 0.98117
Core_0_LLC_writeback_miss 2909
Core_0_LLC_prefetch_requested 0
Core_0_LLC_prefetch_issued 0
Core_0_LLC_prefetch_useful 6417 LLC_Useful Ratio: inf
Core_0_LLC_prefetch_useless 719464
Core_0_LLC_prefetch_late 0
Core_0_LLC_average_miss_latency 3114.95731

Core_0_major_page_fault 0
Core_0_minor_page_fault 3170

Core_1_instructions 27000001
Core_1_cycles 45219847
Core_1_IPC 0.59708

Core_1_branch_prediction_accuracy 98.37877
Core_1_branch_MPKI 0.53331
Core_1_average_ROB_occupancy_at_mispredict 335.99543

Core_1_L1D_total_access 8130467
Core_1_L1D_total_hit 7127536 L1D_total_Hit Ratio: 0.87665
Core_1_L1D_total_miss 1002931
Core_1_L1D_loads 6750253
Core_1_L1D_load_hit 6196512 L1D_load_Hit Ratio: 0.91797
Core_1_L1D_load_miss 553741
Core_1_L1D_RFOs 865561
Core_1_L1D_RFO_hit 861277 L1D_RFO_Hit Ratio: 0.99505
Core_1_L1D_RFO_miss 4284
Core_1_L1D_prefetches 514653
Core_1_L1D_prefetch_hit 69747 L1D_prefetch_Hit Ratio: 0.13552
Core_1_L1D_prefetch_miss 444906
Core_1_L1D_writebacks 0
Core_1_L1D_writeback_hit 0 L1D_writeback_Hit Ratio: -nan
Core_1_L1D_writeback_miss 0
Core_1_L1D_prefetch_requested 834691
Core_1_L1D_prefetch_issued 834691
Core_1_L1D_prefetch_useful 463247 L1D_Useful Ratio: 0.55499
Core_1_L1D_prefetch_useless 9188
Core_1_L1D_prefetch_late 82202
Core_1_L1D_average_miss_latency 2314407.79461

Core_1_L1I_total_access 3691232
Core_1_L1I_total_hit 3686510 L1I_total_Hit Ratio: 0.99872
Core_1_L1I_total_miss 4722
Core_1_L1I_loads 3691232
Core_1_L1I_load_hit 3686510 L1I_load_Hit Ratio: 0.99872
Core_1_L1I_load_miss 4722
Core_1_L1I_RFOs 0
Core_1_L1I_RFO_hit 0 L1I_RFO_Hit Ratio: -nan
Core_1_L1I_RFO_miss 0
Core_1_L1I_prefetches 0
Core_1_L1I_prefetch_hit 0 L1I_prefetch_Hit Ratio: -nan
Core_1_L1I_prefetch_miss 0
Core_1_L1I_writebacks 0
Core_1_L1I_writeback_hit 0 L1I_writeback_Hit Ratio: -nan
Core_1_L1I_writeback_miss 0
Core_1_L1I_prefetch_requested 0
Core_1_L1I_prefetch_issued 0
Core_1_L1I_prefetch_useful 0 L1I_Useful Ratio: -nan
Core_1_L1I_prefetch_useless 0
Core_1_L1I_prefetch_late 0
Core_1_L1I_average_miss_latency 830.48221

Core_1_L2C_total_access 1291120
Core_1_L2C_total_hit 1018859 L2C_total_Hit Ratio: 0.78913
Core_1_L2C_total_miss 272261
Core_1_L2C_loads 478190
Core_1_L2C_load_hit 406246 L2C_load_Hit Ratio: 0.84955
Core_1_L2C_load_miss 71944
Core_1_L2C_RFOs 4090
Core_1_L2C_RFO_hit 326 L2C_RFO_Hit Ratio: 0.07971
Core_1_L2C_RFO_miss 3764
Core_1_L2C_prefetches 632543
Core_1_L2C_prefetch_hit 435996 L2C_prefetch_Hit Ratio: 0.68927
Core_1_L2C_prefetch_miss 196547
Core_1_L2C_writebacks 176297
Core_1_L2C_writeback_hit 176291 L2C_writeback_Hit Ratio: 0.99997
Core_1_L2C_writeback_miss 6
Core_1_L2C_prefetch_requested 186083
Core_1_L2C_prefetch_issued 186083
Core_1_L2C_prefetch_useful 57108 L2C_Useful Ratio: 0.30690
Core_1_L2C_prefetch_useless 139558
Core_1_L2C_prefetch_late 29655
Core_1_L2C_average_miss_latency 804.09264

Core_1_LLC_total_access 426827
Core_1_LLC_total_hit 164466 LLC_total_Hit Ratio: 0.38532
Core_1_LLC_total_miss 262361
Core_1_LLC_loads 42401
Core_1_LLC_load_hit 1915 LLC_load_Hit Ratio: 0.04516
Core_1_LLC_load_miss 40486
Core_1_LLC_RFOs 3764
Core_1_LLC_RFO_hit 5 LLC_RFO_Hit Ratio: 0.00133
Core_1_LLC_RFO_miss 3759
Core_1_LLC_prefetches 226090
Core_1_LLC_prefetch_hit 11316 LLC_prefetch_Hit Ratio: 0.05005
Core_1_LLC_prefetch_miss 214774
Core_1_LLC_writebacks 154572
Core_1_LLC_writeback_hit 151230 LLC_writeback_Hit Ratio: 0.97838
Core_1_LLC_writeback_miss 3342
Core_1_LLC_prefetch_requested 0
Core_1_LLC_prefetch_issued 0
Core_1_LLC_prefetch_useful 6417 LLC_Useful Ratio: inf
Core_1_LLC_prefetch_useless 719464
Core_1_LLC_prefetch_late 0
Core_1_LLC_average_miss_latency 3145.25667

Core_1_major_page_fault 0
Core_1_minor_page_fault 3172

Core_2_instructions 27000000
Core_2_cycles 45249219
Core_2_IPC 0.59670

Core_2_branch_prediction_accuracy 98.37835
Core_2_branch_MPKI 0.53403
Core_2_average_ROB_occupancy_at_mispredict 335.90980

Core_2_L1D_total_access 8131692
Core_2_L1D_total_hit 7128761 L1D_total_Hit Ratio: 0.87666
Core_2_L1D_total_miss 1002931
Core_2_L1D_loads 6751098
Core_2_L1D_load_hit 6197508 L1D_load_Hit Ratio: 0.91800
Core_2_L1D_load_miss 553590
Core_2_L1D_RFOs 865549
Core_2_L1D_RFO_hit 861233 L1D_RFO_Hit Ratio: 0.99501
Core_2_L1D_RFO_miss 4316
Core_2_L1D_prefetches 515045
Core_2_L1D_prefetch_hit 70020 L1D_prefetch_Hit Ratio: 0.13595
Core_2_L1D_prefetch_miss 445025
Core_2_L1D_writebacks 0
Core_2_L1D_writeback_hit 0 L1D_writeback_Hit Ratio: -nan
Core_2_L1D_writeback_miss 0
Core_2_L1D_prefetch_requested 834166
Core_2_L1D_prefetch_issued 834166
Core_2_L1D_prefetch_useful 462762 L1D_Useful Ratio: 0.55476
Core_2_L1D_prefetch_useless 9140
Core_2_L1D_prefetch_late 82032
Core_2_L1D_average_miss_latency 2317193.20310

Core_2_L1I_total_access 3689932
Core_2_L1I_total_hit 3685212 L1I_total_Hit Ratio: 0.99872
Core_2_L1I_total_miss 4720
Core_2_L1I_loads 3689932
Core_2_L1I_load_hit 3685212 L1I_load_Hit Ratio: 0.99872
Core_2_L1I_load_miss 4720
Core_2_L1I_RFOs 0
Core_2_L1I_RFO_hit 0 L1I_RFO_Hit Ratio: -nan
Core_2_L1I_RFO_miss 0
Core_2_L1I_prefetches 0
Core_2_L1I_prefetch_hit 0 L1I_prefetch_Hit Ratio: -nan
Core_2_L1I_prefetch_miss 0
Core_2_L1I_writebacks 0
Core_2_L1I_writeback_hit 0 L1I_writeback_Hit Ratio: -nan
Core_2_L1I_writeback_miss 0
Core_2_L1I_prefetch_requested 0
Core_2_L1I_prefetch_issued 0
Core_2_L1I_prefetch_useful 0 L1I_Useful Ratio: -nan
Core_2_L1I_prefetch_useless 0
Core_2_L1I_prefetch_late 0
Core_2_L1I_average_miss_latency 758.32500

Core_2_L2C_total_access 1294335
Core_2_L2C_total_hit 1022153 L2C_total_Hit Ratio: 0.78971
Core_2_L2C_total_miss 272182
Core_2_L2C_loads 478104
Core_2_L2C_load_hit 407244 L2C_load_Hit Ratio: 0.85179
Core_2_L2C_load_miss 70860
Core_2_L2C_RFOs 4119
Core_2_L2C_RFO_hit 320 L2C_RFO_Hit Ratio: 0.07769
Core_2_L2C_RFO_miss 3799
Core_2_L2C_prefetches 635815
Core_2_L2C_prefetch_hit 438299 L2C_prefetch_Hit Ratio: 0.68935
Core_2_L2C_prefetch_miss 197516
Core_2_L2C_writebacks 176297
Core_2_L2C_writeback_hit 176290 L2C_writeback_Hit Ratio: 0.99996
Core_2_L2C_writeback_miss 7
Core_2_L2C_prefetch_requested 186920
Core_2_L2C_prefetch_issued 186920
Core_2_L2C_prefetch_useful 58133 L2C_Useful Ratio: 0.31100
Core_2_L2C_prefetch_useless 139510
Core_2_L2C_prefetch_late 29876
Core_2_L2C_average_miss_latency 811.47860

Core_2_LLC_total_access 426684
Core_2_LLC_total_hit 162071 LLC_total_Hit Ratio: 0.37984
Core_2_LLC_total_miss 264613
Core_2_LLC_loads 41030
Core_2_LLC_load_hit 1403 LLC_load_Hit Ratio: 0.03419
Core_2_LLC_load_miss 39627
Core_2_LLC_RFOs 3799
Core_2_LLC_RFO_hit 0 LLC_RFO_Hit Ratio: 0.00000
Core_2_LLC_RFO_miss 3799
Core_2_LLC_prefetches 227346
Core_2_LLC_prefetch_hit 11019 LLC_prefetch_Hit Ratio: 0.04847
Core_2_LLC_prefetch_miss 216327
Core_2_LLC_writebacks 154509
Core_2_LLC_writeback_hit 149649 LLC_writeback_Hit Ratio: 0.96855
Core_2_LLC_writeback_miss 4860
Core_2_LLC_prefetch_requested 0
Core_2_LLC_prefetch_issued 0
Core_2_LLC_prefetch_useful 6417 LLC_Useful Ratio: inf
Core_2_LLC_prefetch_useless 719464
Core_2_LLC_prefetch_late 0
Core_2_LLC_average_miss_latency 3118.48883

Core_2_major_page_fault 0
Core_2_minor_page_fault 3170

Core_3_instructions 27000000
Core_3_cycles 42529961
Core_3_IPC 0.63485

Core_3_branch_prediction_accuracy 98.34941
Core_3_branch_MPKI 0.49922
Core_3_average_ROB_occupancy_at_mispredict 328.09059

Core_3_L1D_total_access 8130164
Core_3_L1D_total_hit 7127315 L1D_total_Hit Ratio: 0.87665
Core_3_L1D_total_miss 1002849
Core_3_L1D_loads 6750972
Core_3_L1D_load_hit 6197337 L1D_load_Hit Ratio: 0.91799
Core_3_L1D_load_miss 553635
Core_3_L1D_RFOs 865098
Core_3_L1D_RFO_hit 860090 L1D_RFO_Hit Ratio: 0.99421
Core_3_L1D_RFO_miss 5008
Core_3_L1D_prefetches 514094
Core_3_L1D_prefetch_hit 69888 L1D_prefetch_Hit Ratio: 0.13594
Core_3_L1D_prefetch_miss 444206
Core_3_L1D_writebacks 0
Core_3_L1D_writeback_hit 0 L1D_writeback_Hit Ratio: -nan
Core_3_L1D_writeback_miss 0
Core_3_L1D_prefetch_requested 989463
Core_3_L1D_prefetch_issued 989463
Core_3_L1D_prefetch_useful 527594 L1D_Useful Ratio: 0.53321
Core_3_L1D_prefetch_useless 11162
Core_3_L1D_prefetch_late 96228
Core_3_L1D_average_miss_latency 2785089.38392

Core_3_L1I_total_access 3687823
Core_3_L1I_total_hit 3683101 L1I_total_Hit Ratio: 0.99872
Core_3_L1I_total_miss 4722
Core_3_L1I_loads 3687823
Core_3_L1I_load_hit 3683101 L1I_load_Hit Ratio: 0.99872
Core_3_L1I_load_miss 4722
Core_3_L1I_RFOs 0
Core_3_L1I_RFO_hit 0 L1I_RFO_Hit Ratio: -nan
Core_3_L1I_RFO_miss 0
Core_3_L1I_prefetches 0
Core_3_L1I_prefetch_hit 0 L1I_prefetch_Hit Ratio: -nan
Core_3_L1I_prefetch_miss 0
Core_3_L1I_writebacks 0
Core_3_L1I_writeback_hit 0 L1I_writeback_Hit Ratio: -nan
Core_3_L1I_writeback_miss 0
Core_3_L1I_prefetch_requested 0
Core_3_L1I_prefetch_issued 0
Core_3_L1I_prefetch_useful 0 L1I_Useful Ratio: -nan
Core_3_L1I_prefetch_useless 0
Core_3_L1I_prefetch_late 0
Core_3_L1I_average_miss_latency 877.78653

Core_3_L2C_total_access 1296961
Core_3_L2C_total_hit 1024682 L2C_total_Hit Ratio: 0.79006
Core_3_L2C_total_miss 272279
Core_3_L2C_loads 478454
Core_3_L2C_load_hit 409102 L2C_load_Hit Ratio: 0.85505
Core_3_L2C_load_miss 69352
Core_3_L2C_RFOs 4106
Core_3_L2C_RFO_hit 325 L2C_RFO_Hit Ratio: 0.07915
Core_3_L2C_RFO_miss 3781
Core_3_L2C_prefetches 638106
Core_3_L2C_prefetch_hit 438966 L2C_prefetch_Hit Ratio: 0.68792
Core_3_L2C_prefetch_miss 199140
Core_3_L2C_writebacks 176295
Core_3_L2C_writeback_hit 176289 L2C_writeback_Hit Ratio: 0.99997
Core_3_L2C_writeback_miss 6
Core_3_L2C_prefetch_requested 204994
Core_3_L2C_prefetch_issued 204994
Core_3_L2C_prefetch_useful 69160 L2C_Useful Ratio: 0.33738
Core_3_L2C_prefetch_useless 147975
Core_3_L2C_prefetch_late 26880
Core_3_L2C_average_miss_latency 752.88227

Core_3_LLC_total_access 426645
Core_3_LLC_total_hit 178011 LLC_total_Hit Ratio: 0.41723
Core_3_LLC_total_miss 248634
Core_3_LLC_loads 43256
Core_3_LLC_load_hit 6903 LLC_load_Hit Ratio: 0.15958
Core_3_LLC_load_miss 36353
Core_3_LLC_RFOs 3781
Core_3_LLC_RFO_hit 19 LLC_RFO_Hit Ratio: 0.00503
Core_3_LLC_RFO_miss 3762
Core_3_LLC_prefetches 225236
Core_3_LLC_prefetch_hit 22995 LLC_prefetch_Hit Ratio: 0.10209
Core_3_LLC_prefetch_miss 202241
Core_3_LLC_writebacks 154372
Core_3_LLC_writeback_hit 148094 LLC_writeback_Hit Ratio: 0.95933
Core_3_LLC_writeback_miss 6278
Core_3_LLC_prefetch_requested 0
Core_3_LLC_prefetch_issued 0
Core_3_LLC_prefetch_useful 6417 LLC_Useful Ratio: inf
Core_3_LLC_prefetch_useless 719464
Core_3_LLC_prefetch_late 0
Core_3_LLC_average_miss_latency 3318.90524

Core_3_major_page_fault 0
Core_3_minor_page_fault 3318

[Bingo] PHT Access: 106338
[Bingo] PHT Hit PC+Addr: 51576
[Bingo] PHT Hit PC+Offs: 44927
[Bingo] PHT Miss: 9835
[Bingo] Prefetch PC+Addr: 0
[Bingo] Prefetch PC+Offs: 0
[Bingo] Useful PC+Addr: 0
[Bingo] Useful PC+Offs: 0
[Bingo] Useless PC+Addr: 0
[Bingo] Useless PC+Offs: 0
[Bingo] L1 Prefetch per Region: 10.40316
[Bingo] L2 Prefetch per Region: 0.31329
[Bingo] L3 Prefetch per Region: 0.00000
[Bingo] No Prefetch per Region: 21.28356
[Bingo] Number of Voters Mean: 10.73608
[Bingo] Number of Voters SD: 7.12519
PHT read accesses: 1341886
PHT write accesses: 100852
AT read accesses: 6352202
AT write accesses: 6352198
FT read accesses: 1332120
FT write accesses: 106338
PS read accesses: 598359
PS write accesses: 96503
PHT tag read accesses: 3772015
PHT tag write accesses: 152428
AT tag read accesses: 180825013
AT tag write accesses: 6453050
FT tag read accesses: 82371297
FT tag write accesses: 825501
PS tag read accesses: 113211357
PS tag write accesses: 691467
[Bingo2] PHT Access: 18545
[Bingo2] PHT Hit PC+Addr: 1386
[Bingo2] PHT Hit PC+Offs: 14747
[Bingo2] PHT Miss: 2412
[Bingo2] Prefetch PC+Addr: 0
[Bingo2] Prefetch PC+Offs: 0
[Bingo2] Useful PC+Addr: 0
[Bingo2] Useful PC+Offs: 0
[Bingo2] Useless PC+Addr: 0
[Bingo2] Useless PC+Offs: 0
[Bingo2] L1 Prefetch per Region: 0.00000
[Bingo2] L2 Prefetch per Region: 14.84250
[Bingo2] L3 Prefetch per Region: 0.00000
[Bingo2] No Prefetch per Region: 17.15750
[Bingo2] Number of Voters Mean: 13.93626
[Bingo2] Number of Voters SD: 4.88925
PHT read accesses: 280178
PHT write accesses: 15607
AT read accesses: 455583
AT write accesses: 471057
FT read accesses: 54567
FT write accesses: 18545
PS read accesses: 48684
PS write accesses: 16133
PHT tag read accesses: 769090
PHT tag write accesses: 16993
AT tag read accesses: 25723092
AT tag write accesses: 471190
FT tag read accesses: 18645755
FT tag write accesses: 53693
PS tag read accesses: 8183833
PS tag write accesses: 63712
[Bingo] PHT Access: 110999
[Bingo] PHT Hit PC+Addr: 52297
[Bingo] PHT Hit PC+Offs: 48139
[Bingo] PHT Miss: 10563
[Bingo] Prefetch PC+Addr: 0
[Bingo] Prefetch PC+Offs: 0
[Bingo] Useful PC+Addr: 0
[Bingo] Useful PC+Offs: 0
[Bingo] Useless PC+Addr: 0
[Bingo] Useless PC+Offs: 0
[Bingo] L1 Prefetch per Region: 10.41231
[Bingo] L2 Prefetch per Region: 0.30101
[Bingo] L3 Prefetch per Region: 0.00000
[Bingo] No Prefetch per Region: 21.28668
[Bingo] Number of Voters Mean: 10.91333
[Bingo] Number of Voters SD: 5.99356
PHT read accesses: 1403234
PHT write accesses: 105129
AT read accesses: 7068975
AT write accesses: 7068999
FT read accesses: 1347244
FT write accesses: 110999
PS read accesses: 620810
PS write accesses: 100436
PHT tag read accesses: 3965910
PHT tag write accesses: 157426
AT tag read accesses: 195056063
AT tag write accesses: 7174128
FT tag read accesses: 85268891
FT tag write accesses: 839992
PS tag read accesses: 124826002
PS tag write accesses: 717781
[Bingo2] PHT Access: 21964
[Bingo2] PHT Hit PC+Addr: 1593
[Bingo2] PHT Hit PC+Offs: 15724
[Bingo2] PHT Miss: 4647
[Bingo2] Prefetch PC+Addr: 0
[Bingo2] Prefetch PC+Offs: 0
[Bingo2] Useful PC+Addr: 0
[Bingo2] Useful PC+Offs: 0
[Bingo2] Useless PC+Addr: 0
[Bingo2] Useless PC+Offs: 0
[Bingo2] L1 Prefetch per Region: 0.00000
[Bingo2] L2 Prefetch per Region: 14.16146
[Bingo2] L3 Prefetch per Region: 0.00000
[Bingo2] No Prefetch per Region: 17.83854
[Bingo2] Number of Voters Mean: 13.67712
[Bingo2] Number of Voters SD: 3.97910
PHT read accesses: 308058
PHT write accesses: 18231
AT read accesses: 471466
AT write accesses: 489679
FT read accesses: 64022
FT write accesses: 21964
PS read accesses: 51616
PS write accesses: 17317
PHT tag read accesses: 896753
PHT tag write accesses: 19824
AT tag read accesses: 26359600
AT tag write accesses: 489825
FT tag read accesses: 19064375
FT tag write accesses: 63221
PS tag read accesses: 8545097
PS tag write accesses: 67925
[Bingo] PHT Access: 110700
[Bingo] PHT Hit PC+Addr: 52123
[Bingo] PHT Hit PC+Offs: 48016
[Bingo] PHT Miss: 10561
[Bingo] Prefetch PC+Addr: 0
[Bingo] Prefetch PC+Offs: 0
[Bingo] Useful PC+Addr: 0
[Bingo] Useful PC+Offs: 0
[Bingo] Useless PC+Addr: 0
[Bingo] Useless PC+Offs: 0
[Bingo] L1 Prefetch per Region: 10.41934
[Bingo] L2 Prefetch per Region: 0.30475
[Bingo] L3 Prefetch per Region: 0.00000
[Bingo] No Prefetch per Region: 21.27592
[Bingo] Number of Voters Mean: 10.93223
[Bingo] Number of Voters SD: 5.98231
PHT read accesses: 1398608
PHT write accesses: 104899
AT read accesses: 7059964
AT write accesses: 7059993
FT read accesses: 1346519
FT write accesses: 110700
PS read accesses: 616766
PS write accesses: 100139
PHT tag read accesses: 3955850
PHT tag write accesses: 157022
AT tag read accesses: 194902074
AT tag write accesses: 7164892
FT tag read accesses: 85249810
FT tag write accesses: 839185
PS tag read accesses: 124679302
PS tag write accesses: 713463
[Bingo2] PHT Access: 21556
[Bingo2] PHT Hit PC+Addr: 1532
[Bingo2] PHT Hit PC+Offs: 15464
[Bingo2] PHT Miss: 4560
[Bingo2] Prefetch PC+Addr: 0
[Bingo2] Prefetch PC+Offs: 0
[Bingo2] Useful PC+Addr: 0
[Bingo2] Useful PC+Offs: 0
[Bingo2] Useless PC+Addr: 0
[Bingo2] Useless PC+Offs: 0
[Bingo2] L1 Prefetch per Region: 0.00000
[Bingo2] L2 Prefetch per Region: 14.59991
[Bingo2] L3 Prefetch per Region: 0.00000
[Bingo2] No Prefetch per Region: 17.40009
[Bingo2] Number of Voters Mean: 13.69756
[Bingo2] Number of Voters SD: 3.97596
PHT read accesses: 301991
PHT write accesses: 17821
AT read accesses: 470246
AT write accesses: 488041
FT read accesses: 62546
FT write accesses: 21556
PS read accesses: 51475
PS write accesses: 16996
PHT tag read accesses: 878014
PHT tag write accesses: 19353
AT tag read accesses: 26311664
AT tag write accesses: 488195
FT tag read accesses: 19037792
FT tag write accesses: 61873
PS tag read accesses: 8510798
PS tag write accesses: 67292
[Bingo] PHT Access: 135339
[Bingo] PHT Hit PC+Addr: 67464
[Bingo] PHT Hit PC+Offs: 54701
[Bingo] PHT Miss: 13174
[Bingo] Prefetch PC+Addr: 0
[Bingo] Prefetch PC+Offs: 0
[Bingo] Useful PC+Addr: 0
[Bingo] Useful PC+Offs: 0
[Bingo] Useless PC+Addr: 0
[Bingo] Useless PC+Offs: 0
[Bingo] L1 Prefetch per Region: 10.15093
[Bingo] L2 Prefetch per Region: 0.32071
[Bingo] L3 Prefetch per Region: 0.00000
[Bingo] No Prefetch per Region: 21.52837
[Bingo] Number of Voters Mean: 10.34297
[Bingo] Number of Voters SD: 6.10701
PHT read accesses: 1697735
PHT write accesses: 127959
AT read accesses: 7883587
AT write accesses: 7883663
FT read accesses: 1423508
FT write accesses: 135339
PS read accesses: 738732
PS write accesses: 122165
PHT tag read accesses: 4754944
PHT tag write accesses: 195423
AT tag read accesses: 208957890
AT tag write accesses: 8011619
FT tag read accesses: 86861918
FT tag write accesses: 914565
PS tag read accesses: 138731477
PS tag write accesses: 856474
[Bingo2] PHT Access: 23767
[Bingo2] PHT Hit PC+Addr: 1894
[Bingo2] PHT Hit PC+Offs: 16520
[Bingo2] PHT Miss: 5353
[Bingo2] Prefetch PC+Addr: 0
[Bingo2] Prefetch PC+Offs: 0
[Bingo2] Useful PC+Addr: 0
[Bingo2] Useful PC+Offs: 0
[Bingo2] Useless PC+Addr: 0
[Bingo2] Useless PC+Offs: 0
[Bingo2] L1 Prefetch per Region: 0.00000
[Bingo2] L2 Prefetch per Region: 14.38465
[Bingo2] L3 Prefetch per Region: 0.00000
[Bingo2] No Prefetch per Region: 17.61535
[Bingo2] Number of Voters Mean: 13.62427
[Bingo2] Number of Voters SD: 4.11150
PHT read accesses: 334253
PHT write accesses: 19221
AT read accesses: 584373
AT write accesses: 603247
FT read accesses: 67211
FT write accesses: 23767
PS read accesses: 58358
PS write accesses: 18414
PHT tag read accesses: 950766
PHT tag write accesses: 21115
AT tag read accesses: 28234947
AT tag write accesses: 603722
FT tag read accesses: 19176151
FT tag write accesses: 67220
PS tag read accesses: 10424218
PS tag write accesses: 75757
Channel_0_RQ_row_buffer_hit 563098
Channel_0_RQ_row_buffer_miss 481318
Channel_0_WQ_row_buffer_hit 197886
Channel_0_WQ_row_buffer_miss 373150
Channel_0_WQ_full 1849
Channel_0_dbus_congested 1321418

avg_congested_cycle 11

EzSearch AVG IPC :0.59650: L2-Pf-HR :0.68907 : L2-HR :0.78974 Uful:0.30901
EzSearch AVG IPC :0.59708: L2-Pf-HR :0.68927 : L2-HR :0.78939 Uful:0.30690
EzSearch AVG IPC :0.59670: L2-Pf-HR :0.68935 : L2-HR :0.79003 Uful:0.31100
EzSearch AVG IPC :0.63485: L2-Pf-HR :0.68792 : L2-HR :0.80664 Uful:0.33738
     > Finished combination: TraceType=770-tot Sim:27000000 Prefetcher=L2bingo_dpc3_PHT1k L1=bingo_dpc3_PHT1k
