TRACE: [103000000]_FE_[GPT-Neo_2_7B]_[h32]_[s256]_[d80] Warmup: 2000000 NumTraces: 103000000
L1:next_line:L2:029-SecTOP-L2-MultiMarkovDelta_ip_stride_v4
*************************************************
   ChampSim Multicore Out-of-Order Simulator
   Last compiled: Oct 28 2024 07:14:42
*************************************************

trace_0 770-tot_memTraces_v3/memTraces[103000000]_FE_[GPT-Neo_2_7B]_[h32]_[s256]_[d80].champsim.xz
trace_1 770-tot_memTraces_v3/memTraces[103000000]_FE_[GPT-Neo_2_7B]_[h32]_[s256]_[d80].champsim.xz
trace_2 770-tot_memTraces_v3/memTraces[103000000]_FE_[GPT-Neo_2_7B]_[h32]_[s256]_[d80].champsim.xz
trace_3 770-tot_memTraces_v3/memTraces[103000000]_FE_[GPT-Neo_2_7B]_[h32]_[s256]_[d80].champsim.xz
CPU 0 L1D next line prefetcher
MK1: Size: 128 TMAX: 64 TMIN: 32 MKPTHRESH: 40
MK2: Size: 256 TMAX: 32 TMIN: 16 MK2PTHRESH: 20
MK3: Size: 384 TMAX: 16 TMIN: 8 MK3PTHRESH: 25
MK4: Size: 512 TMAX: 8 TMIN: 0 MK4PTHRESH: 20
Stride Size: 512 Prefetch Degree: 15

CPU 0 L2C prefetcher
CPU 1 L1D next line prefetcher
MK1: Size: 128 TMAX: 64 TMIN: 32 MKPTHRESH: 40
MK2: Size: 256 TMAX: 32 TMIN: 16 MK2PTHRESH: 20
MK3: Size: 384 TMAX: 16 TMIN: 8 MK3PTHRESH: 25
MK4: Size: 512 TMAX: 8 TMIN: 0 MK4PTHRESH: 20
Stride Size: 512 Prefetch Degree: 15

CPU 1 L2C prefetcher
CPU 2 L1D next line prefetcher
MK1: Size: 128 TMAX: 64 TMIN: 32 MKPTHRESH: 40
MK2: Size: 256 TMAX: 32 TMIN: 16 MK2PTHRESH: 20
MK3: Size: 384 TMAX: 16 TMIN: 8 MK3PTHRESH: 25
MK4: Size: 512 TMAX: 8 TMIN: 0 MK4PTHRESH: 20
Stride Size: 512 Prefetch Degree: 15

CPU 2 L2C prefetcher
CPU 3 L1D next line prefetcher
MK1: Size: 128 TMAX: 64 TMIN: 32 MKPTHRESH: 40
MK2: Size: 256 TMAX: 32 TMIN: 16 MK2PTHRESH: 20
MK3: Size: 384 TMAX: 16 TMIN: 8 MK3PTHRESH: 25
MK4: Size: 512 TMAX: 8 TMIN: 0 MK4PTHRESH: 20
Stride Size: 512 Prefetch Degree: 15

CPU 3 L2C prefetcher
MAIN.cc ln 751 stats print skipped
CPU 0 L2C prefetcher initialized


Cache Size: 1280
number of cache lines: 20480
CPU  3 inst:    1000001 cyc:     502900 now IPC :1.98847: AVG IPC :1.98847: L2-Pf-HR :0.84877: L2-HR :0.82489: (Sim:0h1m38s) 
CPU  1 inst:    1000001 cyc:     503095 now IPC :1.98770: AVG IPC :1.98770: L2-Pf-HR :0.86875: L2-HR :0.84619: (Sim:0h1m38s) 
CPU  2 inst:    1000001 cyc:     503143 now IPC :1.98751: AVG IPC :1.98751: L2-Pf-HR :0.84885: L2-HR :0.82541: (Sim:0h1m38s) 
CPU  0 inst:    1000001 cyc:     503214 now IPC :1.98723: AVG IPC :1.98723: L2-Pf-HR :0.85050: L2-HR :0.82572: (Sim:0h1m38s) 
CPU  3 inst:    2000002 cyc:     991634 now IPC :2.04610: AVG IPC :2.01688: L2-Pf-HR :0.89121: L2-HR :0.87695: (Sim:0h3m23s) 
CPU  1 inst:    2000002 cyc:     991878 now IPC :2.04590: AVG IPC :2.01638: L2-Pf-HR :0.90253: L2-HR :0.88854: (Sim:0h3m23s) 
CPU  2 inst:    2000002 cyc:     991986 now IPC :2.04565: AVG IPC :2.01616: L2-Pf-HR :0.89246: L2-HR :0.87813: (Sim:0h3m23s) 
CPU  0 inst:    2000002 cyc:     992047 now IPC :2.04569: AVG IPC :2.01604: L2-Pf-HR :0.89452: L2-HR :0.87902: (Sim:0h3m23s) 

Warmup complete CPU  0 instructions:    2000002 cycles:     992047 (Simulation time: 0 hr 3 min 23 sec) 
Warmup complete CPU  1 instructions:    2000321 cycles:     992046 (Simulation time: 0 hr 3 min 23 sec) 
Warmup complete CPU  2 instructions:    2000230 cycles:     992046 (Simulation time: 0 hr 3 min 23 sec) 
Warmup complete CPU  3 instructions:    2000912 cycles:     992046 (Simulation time: 0 hr 3 min 23 sec) 

CPU  2 inst:    3000002 cyc:    1593662 now IPC :1.66202: AVG IPC :1.66181: L2-Pf-HR :0.92377: L2-HR :0.92184: (Sim:0h4m53s) 
CPU  3 inst:    3000002 cyc:    1595545 now IPC :1.65587: AVG IPC :1.65550: L2-Pf-HR :0.92462: L2-HR :0.92226: (Sim:0h4m53s) 
CPU  0 inst:    3000002 cyc:    1595717 now IPC :1.65653: AVG IPC :1.65653: L2-Pf-HR :0.92424: L2-HR :0.92222: (Sim:0h4m53s) 
CPU  1 inst:    3000002 cyc:    1596741 now IPC :1.65327: AVG IPC :1.65320: L2-Pf-HR :0.92635: L2-HR :0.92358: (Sim:0h4m54s) 
CPU  2 inst:    4000002 cyc:    2089650 now IPC :2.01618: AVG IPC :1.82194: L2-Pf-HR :0.93569: L2-HR :0.93661: (Sim:0h6m20s) 
CPU  3 inst:    4000002 cyc:    2090200 now IPC :2.02161: AVG IPC :1.82041: L2-Pf-HR :0.93748: L2-HR :0.93781: (Sim:0h6m20s) 
CPU  0 inst:    4000002 cyc:    2090250 now IPC :2.02211: AVG IPC :1.82116: L2-Pf-HR :0.93595: L2-HR :0.93685: (Sim:0h6m20s) 
CPU  1 inst:    4000002 cyc:    2090298 now IPC :2.02611: AVG IPC :1.82079: L2-Pf-HR :0.93794: L2-HR :0.93816: (Sim:0h6m20s) 
CPU  1 inst:    5000003 cyc:    2695754 now IPC :1.65165: AVG IPC :1.76068: L2-Pf-HR :0.92673: L2-HR :0.92755: (Sim:0h7m58s) 
CPU  2 inst:    5000003 cyc:    2695771 now IPC :1.64984: AVG IPC :1.76071: L2-Pf-HR :0.92518: L2-HR :0.92626: (Sim:0h7m58s) 
CPU  0 inst:    5000003 cyc:    2695922 now IPC :1.65106: AVG IPC :1.76069: L2-Pf-HR :0.92522: L2-HR :0.92665: (Sim:0h7m59s) 
CPU  3 inst:    5000003 cyc:    2696039 now IPC :1.65061: AVG IPC :1.76004: L2-Pf-HR :0.92690: L2-HR :0.92759: (Sim:0h7m59s) 
CPU  2 inst:    6000002 cyc:    3296324 now IPC :1.66513: AVG IPC :1.73580: L2-Pf-HR :0.92071: L2-HR :0.92224: (Sim:0h9m37s) 
CPU  1 inst:    6000002 cyc:    3296381 now IPC :1.66493: AVG IPC :1.73572: L2-Pf-HR :0.92196: L2-HR :0.92324: (Sim:0h9m37s) 
CPU  3 inst:    6000002 cyc:    3296433 now IPC :1.66557: AVG IPC :1.73542: L2-Pf-HR :0.92178: L2-HR :0.92311: (Sim:0h9m37s) 
CPU  0 inst:    6000002 cyc:    3297415 now IPC :1.66253: AVG IPC :1.73508: L2-Pf-HR :0.92082: L2-HR :0.92256: (Sim:0h9m37s) 
CPU  0 inst:    7000001 cyc:    3899167 now IPC :1.66181: AVG IPC :1.71991: L2-Pf-HR :0.92131: L2-HR :0.92223: (Sim:0h11m14s) 
CPU  3 inst:    7000001 cyc:    3899995 now IPC :1.65683: AVG IPC :1.71911: L2-Pf-HR :0.92171: L2-HR :0.92241: (Sim:0h11m14s) 
CPU  1 inst:    7000001 cyc:    3900054 now IPC :1.65652: AVG IPC :1.71928: L2-Pf-HR :0.92187: L2-HR :0.92253: (Sim:0h11m14s) 
CPU  2 inst:    7000001 cyc:    3905628 now IPC :1.64122: AVG IPC :1.71602: L2-Pf-HR :0.92094: L2-HR :0.92187: (Sim:0h11m16s) 
CPU  2 inst:    8000003 cyc:    4470775 now IPC :1.76945: AVG IPC :1.72470: L2-Pf-HR :0.92373: L2-HR :0.92422: (Sim:0h12m51s) 
CPU  3 inst:    8000003 cyc:    4473099 now IPC :1.74489: AVG IPC :1.72336: L2-Pf-HR :0.92412: L2-HR :0.92450: (Sim:0h12m51s) 
CPU  1 inst:    8000003 cyc:    4473437 now IPC :1.74404: AVG IPC :1.72336: L2-Pf-HR :0.92428: L2-HR :0.92453: (Sim:0h12m51s) 
CPU  0 inst:    8000003 cyc:    4475793 now IPC :1.73423: AVG IPC :1.72228: L2-Pf-HR :0.92407: L2-HR :0.92450: (Sim:0h12m51s) 
CPU  1 inst:    9000001 cyc:    5024620 now IPC :1.81428: AVG IPC :1.73578: L2-Pf-HR :0.92318: L2-HR :0.92445: (Sim:0h14m25s) 
CPU  3 inst:    9000001 cyc:    5028290 now IPC :1.80118: AVG IPC :1.73406: L2-Pf-HR :0.92261: L2-HR :0.92412: (Sim:0h14m25s) 
CPU  2 inst:    9000001 cyc:    5028422 now IPC :1.79325: AVG IPC :1.73417: L2-Pf-HR :0.92262: L2-HR :0.92412: (Sim:0h14m25s) 
CPU  0 inst:    9000001 cyc:    5029204 now IPC :1.80697: AVG IPC :1.73389: L2-Pf-HR :0.92268: L2-HR :0.92420: (Sim:0h14m26s) 
CPU  1 inst:   10000001 cyc:    5777138 now IPC :1.32887: AVG IPC :1.67179: L2-Pf-HR :0.92176: L2-HR :0.92297: (Sim:0h16m10s) 
CPU  2 inst:   10000001 cyc:    5806811 now IPC :1.28470: AVG IPC :1.66151: L2-Pf-HR :0.92034: L2-HR :0.92194: (Sim:0h16m15s) 
CPU  0 inst:   10000001 cyc:    5806913 now IPC :1.28583: AVG IPC :1.66152: L2-Pf-HR :0.92039: L2-HR :0.92200: (Sim:0h16m15s) 
CPU  3 inst:   10000001 cyc:    5807115 now IPC :1.28399: AVG IPC :1.66126: L2-Pf-HR :0.92041: L2-HR :0.92197: (Sim:0h16m15s) 
CPU  1 inst:   11000003 cyc:    6600970 now IPC :1.21384: AVG IPC :1.60453: L2-Pf-HR :0.92308: L2-HR :0.92366: (Sim:0h17m55s) 
CPU  2 inst:   11000003 cyc:    6721268 now IPC :1.09355: AVG IPC :1.57085: L2-Pf-HR :0.92068: L2-HR :0.92184: (Sim:0h18m13s) 
CPU  0 inst:   11000003 cyc:    6726654 now IPC :1.08726: AVG IPC :1.56942: L2-Pf-HR :0.92095: L2-HR :0.92207: (Sim:0h18m14s) 
CPU  3 inst:   11000003 cyc:    6726732 now IPC :1.08741: AVG IPC :1.56924: L2-Pf-HR :0.92090: L2-HR :0.92199: (Sim:0h18m14s) 
CPU  1 inst:   12000001 cyc:    7321959 now IPC :1.38698: AVG IPC :1.57975: L2-Pf-HR :0.92456: L2-HR :0.92475: (Sim:0h19m42s) 
CPU  0 inst:   12000001 cyc:    7728023 now IPC :0.99863: AVG IPC :1.48457: L2-Pf-HR :0.92262: L2-HR :0.92321: (Sim:0h20m19s) 
CPU  2 inst:   12000001 cyc:    7751670 now IPC :0.97049: AVG IPC :1.47934: L2-Pf-HR :0.92224: L2-HR :0.92281: (Sim:0h20m22s) 
CPU  3 inst:   12000001 cyc:    7752508 now IPC :0.97487: AVG IPC :1.47905: L2-Pf-HR :0.92237: L2-HR :0.92293: (Sim:0h20m22s) 
CPU  1 inst:   13000001 cyc:    8024398 now IPC :1.42361: AVG IPC :1.56415: L2-Pf-HR :0.92776: L2-HR :0.92796: (Sim:0h21m3s) 
CPU  2 inst:   13000001 cyc:    8385031 now IPC :1.57888: AVG IPC :1.48787: L2-Pf-HR :0.92372: L2-HR :0.92466: (Sim:0h21m57s) 
CPU  3 inst:   13000001 cyc:    8387983 now IPC :1.57363: AVG IPC :1.48718: L2-Pf-HR :0.92392: L2-HR :0.92485: (Sim:0h21m57s) 
CPU  0 inst:   13000001 cyc:    8388657 now IPC :1.51370: AVG IPC :1.48717: L2-Pf-HR :0.92395: L2-HR :0.92497: (Sim:0h21m58s) 
CPU  1 inst:   14000003 cyc:    8809287 now IPC :1.27407: AVG IPC :1.53503: L2-Pf-HR :0.92765: L2-HR :0.92774: (Sim:0h22m44s) 
CPU  2 inst:   14000003 cyc:    9297825 now IPC :1.09554: AVG IPC :1.44475: L2-Pf-HR :0.92397: L2-HR :0.92471: (Sim:0h23m54s) 
CPU  0 inst:   14000003 cyc:    9332584 now IPC :1.05941: AVG IPC :1.43876: L2-Pf-HR :0.92375: L2-HR :0.92464: (Sim:0h23m59s) 
CPU  3 inst:   14000003 cyc:    9333313 now IPC :1.05783: AVG IPC :1.43852: L2-Pf-HR :0.92372: L2-HR :0.92450: (Sim:0h23m59s) 
CPU  1 inst:   15000002 cyc:    9629717 now IPC :1.21887: AVG IPC :1.50500: L2-Pf-HR :0.92881: L2-HR :0.92838: (Sim:0h24m46s) 
CPU  2 inst:   15000002 cyc:   10155421 now IPC :1.16605: AVG IPC :1.41867: L2-Pf-HR :0.92510: L2-HR :0.92536: (Sim:0h25m49s) 
CPU  3 inst:   15000002 cyc:   10242289 now IPC :1.10014: AVG IPC :1.40527: L2-Pf-HR :0.92431: L2-HR :0.92465: (Sim:0h26m1s) 
CPU  0 inst:   15000002 cyc:   10244144 now IPC :1.09702: AVG IPC :1.40509: L2-Pf-HR :0.92449: L2-HR :0.92490: (Sim:0h26m1s) 
CPU  1 inst:   16000002 cyc:   10524657 now IPC :1.11739: AVG IPC :1.46861: L2-Pf-HR :0.93040: L2-HR :0.92952: (Sim:0h26m39s) 
CPU  2 inst:   16000002 cyc:   11050420 now IPC :1.11732: AVG IPC :1.39185: L2-Pf-HR :0.92614: L2-HR :0.92606: (Sim:0h27m43s) 
CPU  1 inst:   17000004 cyc:   11119167 now IPC :1.68206: AVG IPC :1.48114: L2-Pf-HR :0.93298: L2-HR :0.93208: (Sim:0h27m52s) 
CPU  3 inst:   16000002 cyc:   11162643 now IPC :1.08654: AVG IPC :1.37643: L2-Pf-HR :0.92545: L2-HR :0.92542: (Sim:0h27m59s) 
CPU  0 inst:   16000002 cyc:   11162755 now IPC :1.08860: AVG IPC :1.37650: L2-Pf-HR :0.92553: L2-HR :0.92558: (Sim:0h27m59s) 
CPU  2 inst:   17000004 cyc:   11651426 now IPC :1.66388: AVG IPC :1.40719: L2-Pf-HR :0.92818: L2-HR :0.92817: (Sim:0h29m12s) 
CPU  3 inst:   17000004 cyc:   11784130 now IPC :1.60905: AVG IPC :1.38982: L2-Pf-HR :0.92726: L2-HR :0.92735: (Sim:0h29m33s) 
CPU  0 inst:   17000004 cyc:   11785992 now IPC :1.60453: AVG IPC :1.38967: L2-Pf-HR :0.92732: L2-HR :0.92750: (Sim:0h29m34s) 
CPU  1 inst:   18000000 cyc:   11901207 now IPC :1.27870: AVG IPC :1.46663: L2-Pf-HR :0.93261: L2-HR :0.93169: (Sim:0h29m48s) 
CPU  2 inst:   18000000 cyc:   12439906 now IPC :1.26826: AVG IPC :1.39762: L2-Pf-HR :0.92816: L2-HR :0.92810: (Sim:0h30m49s) 
CPU  3 inst:   18000000 cyc:   12735019 now IPC :1.05164: AVG IPC :1.36244: L2-Pf-HR :0.92710: L2-HR :0.92715: (Sim:0h31m36s) 
CPU  0 inst:   18000000 cyc:   12737721 now IPC :1.05072: AVG IPC :1.36220: L2-Pf-HR :0.92713: L2-HR :0.92727: (Sim:0h31m37s) 
CPU  1 inst:   19000001 cyc:   12827199 now IPC :1.07992: AVG IPC :1.43637: L2-Pf-HR :0.93315: L2-HR :0.93193: (Sim:0h31m52s) 
CPU  2 inst:   19000001 cyc:   13124963 now IPC :1.45973: AVG IPC :1.40113: L2-Pf-HR :0.92917: L2-HR :0.92873: (Sim:0h32m33s) 
CPU  0 inst:   19000001 cyc:   13594563 now IPC :1.16708: AVG IPC :1.34894: L2-Pf-HR :0.92780: L2-HR :0.92764: (Sim:0h33m33s) 
CPU  3 inst:   19000001 cyc:   13597532 now IPC :1.15940: AVG IPC :1.34855: L2-Pf-HR :0.92785: L2-HR :0.92755: (Sim:0h33m33s) 
CPU  1 inst:   20000000 cyc:   13780594 now IPC :1.04888: AVG IPC :1.40748: L2-Pf-HR :0.93417: L2-HR :0.93257: (Sim:0h33m55s) 
CPU  2 inst:   20000000 cyc:   14037509 now IPC :1.09583: AVG IPC :1.37977: L2-Pf-HR :0.93045: L2-HR :0.92957: (Sim:0h34m36s) 
CPU  1 inst:   21000002 cyc:   14415566 now IPC :1.57488: AVG IPC :1.41540: L2-Pf-HR :0.93602: L2-HR :0.93434: (Sim:0h35m24s) 
CPU  0 inst:   20000000 cyc:   14468804 now IPC :1.14385: AVG IPC :1.33563: L2-Pf-HR :0.92855: L2-HR :0.92805: (Sim:0h35m30s) 
CPU  3 inst:   20000000 cyc:   14470693 now IPC :1.14526: AVG IPC :1.33538: L2-Pf-HR :0.92851: L2-HR :0.92793: (Sim:0h35m31s) 
CPU  2 inst:   21000002 cyc:   14705693 now IPC :1.49660: AVG IPC :1.38546: L2-Pf-HR :0.93290: L2-HR :0.93182: (Sim:0h36m3s) 
CPU  0 inst:   21000005 cyc:   15114841 now IPC :1.54791: AVG IPC :1.34534: L2-Pf-HR :0.93096: L2-HR :0.93025: (Sim:0h37m2s) 
CPU  3 inst:   21000000 cyc:   15146706 now IPC :1.47926: AVG IPC :1.34225: L2-Pf-HR :0.93083: L2-HR :0.93005: (Sim:0h37m6s) 
CPU  1 inst:   22000001 cyc:   15262288 now IPC :1.18102: AVG IPC :1.40150: L2-Pf-HR :0.93578: L2-HR :0.93412: (Sim:0h37m19s) 
CPU  2 inst:   22000001 cyc:   15511267 now IPC :1.24135: AVG IPC :1.37747: L2-Pf-HR :0.93282: L2-HR :0.93174: (Sim:0h37m50s) 
CPU  0 inst:   22000001 cyc:   15972379 now IPC :1.16612: AVG IPC :1.33508: L2-Pf-HR :0.93109: L2-HR :0.93034: (Sim:0h38m53s) 
CPU  3 inst:   22000001 cyc:   16006571 now IPC :1.16297: AVG IPC :1.33198: L2-Pf-HR :0.93102: L2-HR :0.93018: (Sim:0h38m58s) 
CPU  1 inst:   23000005 cyc:   16110005 now IPC :1.17964: AVG IPC :1.38906: L2-Pf-HR :0.93599: L2-HR :0.93424: (Sim:0h39m17s) 
CPU  2 inst:   23000005 cyc:   16319042 now IPC :1.23797: AVG IPC :1.37012: L2-Pf-HR :0.93325: L2-HR :0.93198: (Sim:0h39m44s) 
CPU  0 inst:   23000005 cyc:   16792217 now IPC :1.21976: AVG IPC :1.32910: L2-Pf-HR :0.93152: L2-HR :0.93060: (Sim:0h40m46s) 
CPU  3 inst:   23000005 cyc:   16844276 now IPC :1.19374: AVG IPC :1.32468: L2-Pf-HR :0.93139: L2-HR :0.93038: (Sim:0h40m52s) 
CPU  1 inst:   24000002 cyc:   17011632 now IPC :1.10910: AVG IPC :1.37330: L2-Pf-HR :0.93627: L2-HR :0.93435: (Sim:0h41m16s) 
CPU  2 inst:   24000002 cyc:   17177032 now IPC :1.16551: AVG IPC :1.35927: L2-Pf-HR :0.93383: L2-HR :0.93228: (Sim:0h41m44s) 
CPU  0 inst:   24000002 cyc:   17586538 now IPC :1.25893: AVG IPC :1.32574: L2-Pf-HR :0.93212: L2-HR :0.93094: (Sim:0h42m40s) 
CPU  3 inst:   24000002 cyc:   17622831 now IPC :1.28443: AVG IPC :1.32279: L2-Pf-HR :0.93199: L2-HR :0.93071: (Sim:0h42m46s) 
CPU  1 inst:   25000004 cyc:   17751532 now IPC :1.35154: AVG IPC :1.37234: L2-Pf-HR :0.93735: L2-HR :0.93525: (Sim:0h43m3s) 
CPU  2 inst:   25000004 cyc:   17953014 now IPC :1.28869: AVG IPC :1.35604: L2-Pf-HR :0.93503: L2-HR :0.93329: (Sim:0h43m31s) 
CPU  0 inst:   25000004 cyc:   18348669 now IPC :1.31211: AVG IPC :1.32514: L2-Pf-HR :0.93344: L2-HR :0.93200: (Sim:0h44m27s) 
CPU  3 inst:   25000004 cyc:   18392203 now IPC :1.29976: AVG IPC :1.32177: L2-Pf-HR :0.93329: L2-HR :0.93178: (Sim:0h44m32s) 
CPU  1 inst:   26000005 cyc:   18427759 now IPC :1.47879: AVG IPC :1.37647: L2-Pf-HR :0.93796: L2-HR :0.93595: (Sim:0h44m36s) 
CPU  2 inst:   26000005 cyc:   18604215 now IPC :1.53563: AVG IPC :1.36268: L2-Pf-HR :0.93589: L2-HR :0.93418: (Sim:0h45m1s) 
CPU  3 inst:   26000005 cyc:   19081182 now IPC :1.45142: AVG IPC :1.32671: L2-Pf-HR :0.93432: L2-HR :0.93280: (Sim:0h46m3s) 
CPU  0 inst:   26000005 cyc:   19082179 now IPC :1.36331: AVG IPC :1.32669: L2-Pf-HR :0.93447: L2-HR :0.93301: (Sim:0h46m3s) 
CPU  1 inst:   27000005 cyc:   19288187 now IPC :1.16221: AVG IPC :1.36639: L2-Pf-HR :0.93808: L2-HR :0.93596: (Sim:0h46m33s) 
CPU  2 inst:   27000005 cyc:   19511218 now IPC :1.10253: AVG IPC :1.34994: L2-Pf-HR :0.93611: L2-HR :0.93426: (Sim:0h46m59s) 
CPU  0 inst:   27000005 cyc:   19948989 now IPC :1.15366: AVG IPC :1.31878: L2-Pf-HR :0.93466: L2-HR :0.93303: (Sim:0h48m1s) 
CPU  3 inst:   27000005 cyc:   19951827 now IPC :1.14857: AVG IPC :1.31853: L2-Pf-HR :0.93448: L2-HR :0.93281: (Sim:0h48m1s) 
CPU  1 inst:   28000001 cyc:   20120554 now IPC :1.20139: AVG IPC :1.35921: L2-Pf-HR :0.93846: L2-HR :0.93621: (Sim:0h48m26s) 
CPU  2 inst:   28000001 cyc:   20299503 now IPC :1.26857: AVG IPC :1.34662: L2-Pf-HR :0.93659: L2-HR :0.93457: (Sim:0h48m54s) 
CPU  3 inst:   28000001 cyc:   20819963 now IPC :1.15189: AVG IPC :1.31124: L2-Pf-HR :0.93480: L2-HR :0.93296: (Sim:0h50m0s) 
CPU  0 inst:   28000001 cyc:   20822489 now IPC :1.14482: AVG IPC :1.31112: L2-Pf-HR :0.93495: L2-HR :0.93315: (Sim:0h50m1s) 
CPU  1 inst:   29000003 cyc:   20984482 now IPC :1.15751: AVG IPC :1.35049: L2-Pf-HR :0.93892: L2-HR :0.93651: (Sim:0h50m20s) 
CPU  2 inst:   29000003 cyc:   21140785 now IPC :1.18866: AVG IPC :1.34002: L2-Pf-HR :0.93718: L2-HR :0.93496: (Sim:0h50m41s) 
CPU  1 inst:   30000001 cyc:   21583156 now IPC :1.67035: AVG IPC :1.35979: L2-Pf-HR :0.93994: L2-HR :0.93760: (Sim:0h51m44s) 
CPU  3 inst:   29000003 cyc:   21663282 now IPC :1.18579: AVG IPC :1.30612: L2-Pf-HR :0.93535: L2-HR :0.93335: (Sim:0h51m54s) 
CPU  0 inst:   29000003 cyc:   21669892 now IPC :1.18008: AVG IPC :1.30575: L2-Pf-HR :0.93553: L2-HR :0.93353: (Sim:0h51m55s) 
CPU  2 inst:   30000001 cyc:   21715628 now IPC :1.73960: AVG IPC :1.35111: L2-Pf-HR :0.93835: L2-HR :0.93617: (Sim:0h52m2s) 
CPU  3 inst:   30000001 cyc:   22306979 now IPC :1.55352: AVG IPC :1.31359: L2-Pf-HR :0.93646: L2-HR :0.93449: (Sim:0h53m22s) 
CPU  0 inst:   30000001 cyc:   22309929 now IPC :1.56241: AVG IPC :1.31345: L2-Pf-HR :0.93661: L2-HR :0.93465: (Sim:0h53m23s) 
CPU  1 inst:   31000001 cyc:   22487001 now IPC :1.10638: AVG IPC :1.34914: L2-Pf-HR :0.93978: L2-HR :0.93737: (Sim:0h53m47s) 
CPU  2 inst:   31000001 cyc:   22598300 now IPC :1.13292: AVG IPC :1.34219: L2-Pf-HR :0.93838: L2-HR :0.93610: (Sim:0h54m1s) 
CPU  3 inst:   31000001 cyc:   23157565 now IPC :1.17566: AVG IPC :1.30830: L2-Pf-HR :0.93660: L2-HR :0.93451: (Sim:0h55m12s) 
CPU  0 inst:   31000001 cyc:   23189324 now IPC :1.13715: AVG IPC :1.30647: L2-Pf-HR :0.93671: L2-HR :0.93463: (Sim:0h55m16s) 
CPU  1 inst:   32000003 cyc:   23345710 now IPC :1.16454: AVG IPC :1.34205: L2-Pf-HR :0.94010: L2-HR :0.93755: (Sim:0h55m44s) 
CPU  2 inst:   32000003 cyc:   23444881 now IPC :1.18122: AVG IPC :1.33612: L2-Pf-HR :0.93876: L2-HR :0.93635: (Sim:0h55m59s) 
CPU  3 inst:   32000003 cyc:   23970513 now IPC :1.23009: AVG IPC :1.30553: L2-Pf-HR :0.93686: L2-HR :0.93466: (Sim:0h57m6s) 
CPU  0 inst:   32000003 cyc:   24008978 now IPC :1.22003: AVG IPC :1.30339: L2-Pf-HR :0.93696: L2-HR :0.93477: (Sim:0h57m10s) 
CPU  1 inst:   33000003 cyc:   24229104 now IPC :1.13200: AVG IPC :1.33406: L2-Pf-HR :0.94064: L2-HR :0.93793: (Sim:0h57m37s) 
CPU  2 inst:   33000003 cyc:   24335457 now IPC :1.12287: AVG IPC :1.32799: L2-Pf-HR :0.93933: L2-HR :0.93673: (Sim:0h57m54s) 
CPU  1 inst:   34000000 cyc:   24822370 now IPC :1.68558: AVG IPC :1.34281: L2-Pf-HR :0.94157: L2-HR :0.93888: (Sim:0h58m59s) 
CPU  3 inst:   33000003 cyc:   24837846 now IPC :1.15296: AVG IPC :1.29998: L2-Pf-HR :0.93756: L2-HR :0.93519: (Sim:0h59m2s) 
CPU  0 inst:   33000003 cyc:   24894849 now IPC :1.12883: AVG IPC :1.29692: L2-Pf-HR :0.93770: L2-HR :0.93530: (Sim:0h59m10s) 
CPU  2 inst:   34000000 cyc:   24928317 now IPC :1.68673: AVG IPC :1.33687: L2-Pf-HR :0.94034: L2-HR :0.93776: (Sim:0h59m14s) 
CPU  3 inst:   34000000 cyc:   25503323 now IPC :1.50268: AVG IPC :1.30548: L2-Pf-HR :0.93876: L2-HR :0.93635: (Sim:1h0m33s) 
CPU  0 inst:   34000000 cyc:   25518662 now IPC :1.60304: AVG IPC :1.30471: L2-Pf-HR :0.93878: L2-HR :0.93639: (Sim:1h0m36s) 
CPU  1 inst:   35000003 cyc:   25691228 now IPC :1.15094: AVG IPC :1.33606: L2-Pf-HR :0.94129: L2-HR :0.93861: (Sim:1h0m58s) 
CPU  2 inst:   35000003 cyc:   25760186 now IPC :1.20212: AVG IPC :1.33235: L2-Pf-HR :0.94009: L2-HR :0.93752: (Sim:1h1m7s) 
CPU  0 inst:   35000003 cyc:   26292228 now IPC :1.29272: AVG IPC :1.30434: L2-Pf-HR :0.93858: L2-HR :0.93619: (Sim:1h2m18s) 
CPU  3 inst:   35000005 cyc:   26293676 now IPC :1.26526: AVG IPC :1.30423: L2-Pf-HR :0.93855: L2-HR :0.93614: (Sim:1h2m18s) 
CPU  1 inst:   36000000 cyc:   26484991 now IPC :1.25982: AVG IPC :1.33369: L2-Pf-HR :0.94115: L2-HR :0.93844: (Sim:1h2m51s) 
CPU  2 inst:   36000000 cyc:   26611410 now IPC :1.17478: AVG IPC :1.32711: L2-Pf-HR :0.93989: L2-HR :0.93730: (Sim:1h3m6s) 
CPU  0 inst:   36000000 cyc:   27137300 now IPC :1.18333: AVG IPC :1.30043: L2-Pf-HR :0.93830: L2-HR :0.93590: (Sim:1h4m14s) 
CPU  3 inst:   36000000 cyc:   27137404 now IPC :1.18521: AVG IPC :1.30039: L2-Pf-HR :0.93830: L2-HR :0.93585: (Sim:1h4m14s) 
CPU  1 inst:   37000000 cyc:   27341677 now IPC :1.16729: AVG IPC :1.32828: L2-Pf-HR :0.94113: L2-HR :0.93839: (Sim:1h4m42s) 
CPU  2 inst:   37000000 cyc:   27479093 now IPC :1.15249: AVG IPC :1.32139: L2-Pf-HR :0.93986: L2-HR :0.93722: (Sim:1h5m3s) 
CPU  0 inst:   37000000 cyc:   27994594 now IPC :1.16646: AVG IPC :1.29617: L2-Pf-HR :0.93841: L2-HR :0.93594: (Sim:1h6m11s) 
CPU  3 inst:   37000000 cyc:   28000048 now IPC :1.15923: AVG IPC :1.29588: L2-Pf-HR :0.93843: L2-HR :0.93592: (Sim:1h6m12s) 
CPU  1 inst:   38000001 cyc:   28059441 now IPC :1.39322: AVG IPC :1.33000: L2-Pf-HR :0.94173: L2-HR :0.93895: (Sim:1h6m19s) 
CPU  2 inst:   38000000 cyc:   28227365 now IPC :1.33641: AVG IPC :1.32180: L2-Pf-HR :0.94063: L2-HR :0.93793: (Sim:1h6m38s) 
CPU  0 inst:   38000001 cyc:   28799738 now IPC :1.24202: AVG IPC :1.29461: L2-Pf-HR :0.93932: L2-HR :0.93674: (Sim:1h7m55s) 
CPU  3 inst:   38000001 cyc:   28808360 now IPC :1.23715: AVG IPC :1.29417: L2-Pf-HR :0.93936: L2-HR :0.93673: (Sim:1h7m56s) 
CPU  1 inst:   39000005 cyc:   28866801 now IPC :1.23861: AVG IPC :1.32735: L2-Pf-HR :0.94182: L2-HR :0.93906: (Sim:1h8m3s) 
CPU  2 inst:   39000005 cyc:   28999622 now IPC :1.29491: AVG IPC :1.32106: L2-Pf-HR :0.94071: L2-HR :0.93805: (Sim:1h8m19s) 
CPU  0 inst:   39000005 cyc:   29536621 now IPC :1.35707: AVG IPC :1.29622: L2-Pf-HR :0.93938: L2-HR :0.93685: (Sim:1h9m29s) 
CPU  3 inst:   39000005 cyc:   29566890 now IPC :1.31834: AVG IPC :1.29481: L2-Pf-HR :0.93940: L2-HR :0.93682: (Sim:1h9m34s) 
CPU  1 inst:   40000001 cyc:   29733655 now IPC :1.15359: AVG IPC :1.32211: L2-Pf-HR :0.94178: L2-HR :0.93899: (Sim:1h10m2s) 
CPU  2 inst:   40000001 cyc:   29851781 now IPC :1.17349: AVG IPC :1.31671: L2-Pf-HR :0.94079: L2-HR :0.93805: (Sim:1h10m16s) 
CPU  3 inst:   40000001 cyc:   30369084 now IPC :1.24658: AVG IPC :1.29350: L2-Pf-HR :0.93941: L2-HR :0.93679: (Sim:1h11m23s) 
CPU  0 inst:   40000001 cyc:   30372367 now IPC :1.19653: AVG IPC :1.29338: L2-Pf-HR :0.93941: L2-HR :0.93681: (Sim:1h11m24s) 
CPU  1 inst:   41000004 cyc:   30622702 now IPC :1.12480: AVG IPC :1.31619: L2-Pf-HR :0.94193: L2-HR :0.93905: (Sim:1h11m57s) 
CPU  2 inst:   41000004 cyc:   30733418 now IPC :1.13426: AVG IPC :1.31130: L2-Pf-HR :0.94093: L2-HR :0.93811: (Sim:1h12m17s) 
CPU  0 inst:   41000004 cyc:   31255348 now IPC :1.13253: AVG IPC :1.28869: L2-Pf-HR :0.93946: L2-HR :0.93677: (Sim:1h13m22s) 
CPU  3 inst:   41000004 cyc:   31256556 now IPC :1.12680: AVG IPC :1.28861: L2-Pf-HR :0.93945: L2-HR :0.93675: (Sim:1h13m22s) 
CPU  1 inst:   42000004 cyc:   32345331 now IPC :0.58051: AVG IPC :1.27577: L2-Pf-HR :0.94099: L2-HR :0.93681: (Sim:1h14m38s) 
CPU  2 inst:   42000004 cyc:   32687211 now IPC :0.51182: AVG IPC :1.26201: L2-Pf-HR :0.93999: L2-HR :0.93587: (Sim:1h14m55s) 
CPU  3 inst:   42000004 cyc:   34344881 now IPC :0.32380: AVG IPC :1.19927: L2-Pf-HR :0.93850: L2-HR :0.93447: (Sim:1h16m35s) 
CPU  0 inst:   42000004 cyc:   34362503 now IPC :0.32184: AVG IPC :1.19867: L2-Pf-HR :0.93847: L2-HR :0.93447: (Sim:1h16m37s) 
CPU  1 inst:   43000004 cyc:   50456012 now IPC :0.05522: AVG IPC :0.82888: L2-Pf-HR :0.92740: L2-HR :0.91048: (Sim:1h34m43s) 
CPU  2 inst:   43000001 cyc:   51043819 now IPC :0.05448: AVG IPC :0.81915: L2-Pf-HR :0.92626: L2-HR :0.90924: (Sim:1h35m23s) 
CPU  0 inst:   43000004 cyc:   54274979 now IPC :0.05022: AVG IPC :0.76948: L2-Pf-HR :0.92415: L2-HR :0.90744: (Sim:1h38m46s) 
CPU  3 inst:   43000004 cyc:   54305112 now IPC :0.05010: AVG IPC :0.76903: L2-Pf-HR :0.92423: L2-HR :0.90743: (Sim:1h38m48s) 
CPU  1 inst:   44000002 cyc:   57668370 now IPC :0.13865: AVG IPC :0.74104: L2-Pf-HR :0.92213: L2-HR :0.90449: (Sim:1h42m10s) 
CPU  2 inst:   44000002 cyc:   57944909 now IPC :0.14490: AVG IPC :0.73745: L2-Pf-HR :0.92096: L2-HR :0.90322: (Sim:1h42m27s) 
CPU  0 inst:   44000002 cyc:   59558239 now IPC :0.18928: AVG IPC :0.71714: L2-Pf-HR :0.91872: L2-HR :0.90154: (Sim:1h44m6s) 
CPU  3 inst:   44000002 cyc:   59567620 now IPC :0.19002: AVG IPC :0.71701: L2-Pf-HR :0.91883: L2-HR :0.90156: (Sim:1h44m6s) 
CPU  1 inst:   45000002 cyc:   61208815 now IPC :0.28245: AVG IPC :0.71408: L2-Pf-HR :0.91849: L2-HR :0.90181: (Sim:1h45m47s) 
CPU  2 inst:   45000002 cyc:   61498655 now IPC :0.28139: AVG IPC :0.71066: L2-Pf-HR :0.91727: L2-HR :0.90052: (Sim:1h46m5s) 
CPU  0 inst:   45000002 cyc:   63068192 now IPC :0.28490: AVG IPC :0.69270: L2-Pf-HR :0.91498: L2-HR :0.89882: (Sim:1h47m41s) 
CPU  3 inst:   45000002 cyc:   63078753 now IPC :0.28481: AVG IPC :0.69257: L2-Pf-HR :0.91514: L2-HR :0.89889: (Sim:1h47m41s) 
CPU  1 inst:   46000002 cyc:   64694972 now IPC :0.28685: AVG IPC :0.69070: L2-Pf-HR :0.91502: L2-HR :0.89926: (Sim:1h49m14s) 
CPU  2 inst:   46000002 cyc:   64980235 now IPC :0.28723: AVG IPC :0.68762: L2-Pf-HR :0.91372: L2-HR :0.89793: (Sim:1h49m30s) 
CPU  0 inst:   46000002 cyc:   66525135 now IPC :0.28927: AVG IPC :0.67142: L2-Pf-HR :0.91143: L2-HR :0.89625: (Sim:1h50m59s) 
CPU  3 inst:   46000002 cyc:   66535575 now IPC :0.28928: AVG IPC :0.67130: L2-Pf-HR :0.91165: L2-HR :0.89637: (Sim:1h50m59s) 
CPU  1 inst:   47000002 cyc:   68113862 now IPC :0.29249: AVG IPC :0.67042: L2-Pf-HR :0.91177: L2-HR :0.89690: (Sim:1h52m32s) 
CPU  2 inst:   47000002 cyc:   68396043 now IPC :0.29276: AVG IPC :0.66761: L2-Pf-HR :0.91040: L2-HR :0.89553: (Sim:1h52m49s) 
CPU  0 inst:   47000002 cyc:   69930230 now IPC :0.29368: AVG IPC :0.65276: L2-Pf-HR :0.90813: L2-HR :0.89388: (Sim:1h54m25s) 
CPU  3 inst:   47000002 cyc:   69940763 now IPC :0.29367: AVG IPC :0.65265: L2-Pf-HR :0.90840: L2-HR :0.89404: (Sim:1h54m26s) 
CPU  1 inst:   48000002 cyc:   71516308 now IPC :0.29391: AVG IPC :0.65225: L2-Pf-HR :0.90869: L2-HR :0.89466: (Sim:1h56m4s) 
CPU  2 inst:   48000002 cyc:   71800174 now IPC :0.29376: AVG IPC :0.64964: L2-Pf-HR :0.90724: L2-HR :0.89323: (Sim:1h56m22s) 
CPU  0 inst:   48000002 cyc:   73332098 now IPC :0.29396: AVG IPC :0.63589: L2-Pf-HR :0.90497: L2-HR :0.89160: (Sim:1h57m58s) 
CPU  3 inst:   48000002 cyc:   73343071 now IPC :0.29392: AVG IPC :0.63578: L2-Pf-HR :0.90525: L2-HR :0.89177: (Sim:1h57m59s) 
CPU  1 inst:   49000002 cyc:   74922108 now IPC :0.29362: AVG IPC :0.63573: L2-Pf-HR :0.90579: L2-HR :0.89255: (Sim:1h59m38s) 
CPU  2 inst:   49000002 cyc:   75204481 now IPC :0.29375: AVG IPC :0.63331: L2-Pf-HR :0.90419: L2-HR :0.89102: (Sim:1h59m55s) 
CPU  0 inst:   49000002 cyc:   76734442 now IPC :0.29392: AVG IPC :0.62052: L2-Pf-HR :0.90191: L2-HR :0.88939: (Sim:2h1m31s) 
CPU  3 inst:   49000002 cyc:   76745516 now IPC :0.29391: AVG IPC :0.62042: L2-Pf-HR :0.90223: L2-HR :0.88958: (Sim:2h1m31s) 
CPU  1 inst:   50000002 cyc:   78321103 now IPC :0.29420: AVG IPC :0.62072: L2-Pf-HR :0.90302: L2-HR :0.89054: (Sim:2h3m10s) 
CPU  2 inst:   50000002 cyc:   78603598 now IPC :0.29419: AVG IPC :0.61846: L2-Pf-HR :0.90130: L2-HR :0.88892: (Sim:2h3m27s) 
CPU  0 inst:   50000002 cyc:   80133532 now IPC :0.29420: AVG IPC :0.60651: L2-Pf-HR :0.89898: L2-HR :0.88727: (Sim:2h5m3s) 
CPU  3 inst:   50000002 cyc:   80144352 now IPC :0.29422: AVG IPC :0.60641: L2-Pf-HR :0.89934: L2-HR :0.88750: (Sim:2h5m3s) 
CPU  1 inst:   51000002 cyc:   81720247 now IPC :0.29419: AVG IPC :0.60697: L2-Pf-HR :0.90035: L2-HR :0.88859: (Sim:2h6m42s) 
CPU  2 inst:   51000002 cyc:   81999986 now IPC :0.29443: AVG IPC :0.60488: L2-Pf-HR :0.89860: L2-HR :0.88696: (Sim:2h6m59s) 
CPU  0 inst:   51000002 cyc:   83537121 now IPC :0.29381: AVG IPC :0.59362: L2-Pf-HR :0.89620: L2-HR :0.88526: (Sim:2h8m35s) 
CPU  3 inst:   51000002 cyc:   83548944 now IPC :0.29372: AVG IPC :0.59352: L2-Pf-HR :0.89654: L2-HR :0.88547: (Sim:2h8m36s) 
CPU  1 inst:   52000002 cyc:   85123743 now IPC :0.29382: AVG IPC :0.59430: L2-Pf-HR :0.89770: L2-HR :0.88665: (Sim:2h10m14s) 
CPU  2 inst:   52000002 cyc:   85405829 now IPC :0.29361: AVG IPC :0.59232: L2-Pf-HR :0.89598: L2-HR :0.88506: (Sim:2h10m32s) 
CPU  0 inst:   52000002 cyc:   86941721 now IPC :0.29372: AVG IPC :0.58174: L2-Pf-HR :0.89345: L2-HR :0.88326: (Sim:2h12m8s) 
CPU  3 inst:   52000002 cyc:   86952200 now IPC :0.29384: AVG IPC :0.58165: L2-Pf-HR :0.89382: L2-HR :0.88349: (Sim:2h12m8s) 
CPU  1 inst:   53000002 cyc:   88527044 now IPC :0.29383: AVG IPC :0.58262: L2-Pf-HR :0.89518: L2-HR :0.88480: (Sim:2h13m47s) 
CPU  2 inst:   53000002 cyc:   88809331 now IPC :0.29382: AVG IPC :0.58075: L2-Pf-HR :0.89347: L2-HR :0.88324: (Sim:2h14m5s) 
CPU  0 inst:   53000002 cyc:   90347185 now IPC :0.29365: AVG IPC :0.57076: L2-Pf-HR :0.89080: L2-HR :0.88132: (Sim:2h15m41s) 
CPU  3 inst:   53000002 cyc:   90357550 now IPC :0.29366: AVG IPC :0.57068: L2-Pf-HR :0.89116: L2-HR :0.88155: (Sim:2h15m41s) 
CPU  1 inst:   54000002 cyc:   91936133 now IPC :0.29333: AVG IPC :0.57178: L2-Pf-HR :0.89273: L2-HR :0.88300: (Sim:2h17m20s) 
CPU  2 inst:   54000002 cyc:   92215786 now IPC :0.29356: AVG IPC :0.57002: L2-Pf-HR :0.89096: L2-HR :0.88139: (Sim:2h17m38s) 
CPU  0 inst:   54000002 cyc:   93765366 now IPC :0.29255: AVG IPC :0.56051: L2-Pf-HR :0.88826: L2-HR :0.87946: (Sim:2h19m15s) 
CPU  3 inst:   54000002 cyc:   93770689 now IPC :0.29299: AVG IPC :0.56046: L2-Pf-HR :0.88860: L2-HR :0.87967: (Sim:2h19m15s) 
CPU  1 inst:   55000002 cyc:   95355629 now IPC :0.29244: AVG IPC :0.56165: L2-Pf-HR :0.89022: L2-HR :0.88112: (Sim:2h20m54s) 
CPU  2 inst:   55000002 cyc:   95638991 now IPC :0.29212: AVG IPC :0.55997: L2-Pf-HR :0.88842: L2-HR :0.87951: (Sim:2h21m12s) 
CPU  0 inst:   55000002 cyc:   97174978 now IPC :0.29329: AVG IPC :0.55103: L2-Pf-HR :0.88569: L2-HR :0.87757: (Sim:2h22m48s) 
CPU  3 inst:   55000002 cyc:   97177233 now IPC :0.29355: AVG IPC :0.55101: L2-Pf-HR :0.88613: L2-HR :0.87786: (Sim:2h22m48s) 
CPU  1 inst:   56000002 cyc:   98760834 now IPC :0.29367: AVG IPC :0.55232: L2-Pf-HR :0.88789: L2-HR :0.87940: (Sim:2h24m21s) 
CPU  2 inst:   56000002 cyc:   99042773 now IPC :0.29379: AVG IPC :0.55073: L2-Pf-HR :0.88604: L2-HR :0.87775: (Sim:2h24m37s) 
CPU  0 inst:   56000002 cyc:  100580760 now IPC :0.29362: AVG IPC :0.54223: L2-Pf-HR :0.88329: L2-HR :0.87580: (Sim:2h26m6s) 
CPU  3 inst:   56000002 cyc:  100588894 now IPC :0.29311: AVG IPC :0.54218: L2-Pf-HR :0.88375: L2-HR :0.87611: (Sim:2h26m6s) 
CPU  1 inst:   57000002 cyc:  102176687 now IPC :0.29275: AVG IPC :0.54356: L2-Pf-HR :0.88564: L2-HR :0.87772: (Sim:2h27m38s) 
CPU  2 inst:   57000002 cyc:  102454381 now IPC :0.29312: AVG IPC :0.54207: L2-Pf-HR :0.88376: L2-HR :0.87606: (Sim:2h27m54s) 
CPU  0 inst:   57000002 cyc:  103992400 now IPC :0.29311: AVG IPC :0.53398: L2-Pf-HR :0.88098: L2-HR :0.87410: (Sim:2h29m22s) 
CPU  3 inst:   57000002 cyc:  103998639 now IPC :0.29328: AVG IPC :0.53394: L2-Pf-HR :0.88144: L2-HR :0.87441: (Sim:2h29m22s) 
CPU  1 inst:   58000002 cyc:  105592409 now IPC :0.29276: AVG IPC :0.53537: L2-Pf-HR :0.88344: L2-HR :0.87609: (Sim:2h30m54s) 
CPU  2 inst:   58000002 cyc:  105866807 now IPC :0.29305: AVG IPC :0.53397: L2-Pf-HR :0.88160: L2-HR :0.87447: (Sim:2h31m10s) 
CPU  0 inst:   58000002 cyc:  107399331 now IPC :0.29352: AVG IPC :0.52628: L2-Pf-HR :0.87871: L2-HR :0.87242: (Sim:2h32m37s) 
CPU  3 inst:   58000002 cyc:  107407829 now IPC :0.29332: AVG IPC :0.52623: L2-Pf-HR :0.87914: L2-HR :0.87272: (Sim:2h32m38s) 
CPU  1 inst:   59000002 cyc:  108996521 now IPC :0.29376: AVG IPC :0.52775: L2-Pf-HR :0.88132: L2-HR :0.87451: (Sim:2h34m9s) 
CPU  2 inst:   59000002 cyc:  109270360 now IPC :0.29381: AVG IPC :0.52642: L2-Pf-HR :0.87957: L2-HR :0.87298: (Sim:2h34m25s) 
CPU  0 inst:   59000002 cyc:  110803334 now IPC :0.29377: AVG IPC :0.51907: L2-Pf-HR :0.87649: L2-HR :0.87078: (Sim:2h35m54s) 
CPU  3 inst:   59000002 cyc:  110811002 now IPC :0.29384: AVG IPC :0.51903: L2-Pf-HR :0.87699: L2-HR :0.87113: (Sim:2h35m54s) 
CPU  1 inst:   60000004 cyc:  112004445 now IPC :0.33246: AVG IPC :0.52246: L2-Pf-HR :0.87924: L2-HR :0.87235: (Sim:2h37m5s) 
CPU  2 inst:   60000004 cyc:  112445952 now IPC :0.31490: AVG IPC :0.52039: L2-Pf-HR :0.87732: L2-HR :0.87070: (Sim:2h37m54s) 
CPU  1 inst:   61000001 cyc:  112718767 now IPC :1.39992: AVG IPC :0.52807: L2-Pf-HR :0.88175: L2-HR :0.87453: (Sim:2h38m22s) 
CPU  2 inst:   61000002 cyc:  113157074 now IPC :1.40623: AVG IPC :0.52601: L2-Pf-HR :0.88013: L2-HR :0.87315: (Sim:2h39m0s) 
CPU  1 inst:   62000005 cyc:  113484963 now IPC :1.30515: AVG IPC :0.53336: L2-Pf-HR :0.88369: L2-HR :0.87618: (Sim:2h39m29s) 
CPU  2 inst:   62000005 cyc:  114071306 now IPC :1.09382: AVG IPC :0.53060: L2-Pf-HR :0.88214: L2-HR :0.87489: (Sim:2h40m22s) 
CPU  3 inst:   60000004 cyc:  114485571 now IPC :0.27214: AVG IPC :0.51103: L2-Pf-HR :0.87468: L2-HR :0.86859: (Sim:2h41m37s) 
CPU  0 inst:   60000004 cyc:  114490982 now IPC :0.27118: AVG IPC :0.51102: L2-Pf-HR :0.87417: L2-HR :0.86823: (Sim:2h41m38s) 
CPU  1 inst:   63000000 cyc:  114663145 now IPC :0.84876: AVG IPC :0.53663: L2-Pf-HR :0.88525: L2-HR :0.87755: (Sim:2h42m9s) 
CPU  2 inst:   63000000 cyc:  114868412 now IPC :1.25453: AVG IPC :0.53567: L2-Pf-HR :0.88358: L2-HR :0.87617: (Sim:2h42m44s) 
CPU  3 inst:   61000001 cyc:  115194937 now IPC :1.40971: AVG IPC :0.51662: L2-Pf-HR :0.87654: L2-HR :0.87031: (Sim:2h43m23s) 
CPU  0 inst:   61000000 cyc:  115212981 now IPC :1.38504: AVG IPC :0.51654: L2-Pf-HR :0.87598: L2-HR :0.86992: (Sim:2h43m25s) 
CPU  1 inst:   64000003 cyc:  115743012 now IPC :0.92604: AVG IPC :0.54030: L2-Pf-HR :0.88657: L2-HR :0.87876: (Sim:2h44m34s) 
CPU  2 inst:   64000003 cyc:  115839544 now IPC :1.02973: AVG IPC :0.53984: L2-Pf-HR :0.88538: L2-HR :0.87776: (Sim:2h44m50s) 
CPU  3 inst:   62000005 cyc:  116051507 now IPC :1.16745: AVG IPC :0.52146: L2-Pf-HR :0.87805: L2-HR :0.87163: (Sim:2h45m26s) 
CPU  0 inst:   62000005 cyc:  116068107 now IPC :1.16942: AVG IPC :0.52139: L2-Pf-HR :0.87741: L2-HR :0.87117: (Sim:2h45m29s) 
CPU  1 inst:   65000000 cyc:  116229395 now IPC :2.05599: AVG IPC :0.54669: L2-Pf-HR :0.88816: L2-HR :0.88025: (Sim:2h45m56s) 
CPU  2 inst:   65000000 cyc:  116329278 now IPC :2.04192: AVG IPC :0.54622: L2-Pf-HR :0.88726: L2-HR :0.87949: (Sim:2h46m6s) 
CPU  3 inst:   63000000 cyc:  117110807 now IPC :0.94401: AVG IPC :0.52532: L2-Pf-HR :0.87949: L2-HR :0.87291: (Sim:2h47m46s) 
CPU  0 inst:   63000000 cyc:  117160017 now IPC :0.91582: AVG IPC :0.52510: L2-Pf-HR :0.87873: L2-HR :0.87234: (Sim:2h47m55s) 
CPU  1 inst:   66000002 cyc:  117302367 now IPC :0.93199: AVG IPC :0.55025: L2-Pf-HR :0.88911: L2-HR :0.88110: (Sim:2h48m19s) 
CPU  2 inst:   66000002 cyc:  117335525 now IPC :0.99379: AVG IPC :0.55009: L2-Pf-HR :0.88828: L2-HR :0.88039: (Sim:2h48m25s) 
CPU  3 inst:   64000003 cyc:  118024947 now IPC :1.09393: AVG IPC :0.52976: L2-Pf-HR :0.88112: L2-HR :0.87436: (Sim:2h49m43s) 
CPU  0 inst:   64000003 cyc:  118165354 now IPC :0.99469: AVG IPC :0.52913: L2-Pf-HR :0.88014: L2-HR :0.87359: (Sim:2h50m6s) 
CPU  1 inst:   67000005 cyc:  118322302 now IPC :0.98046: AVG IPC :0.55399: L2-Pf-HR :0.89012: L2-HR :0.88202: (Sim:2h50m32s) 
CPU  2 inst:   67000005 cyc:  118334411 now IPC :1.00112: AVG IPC :0.55393: L2-Pf-HR :0.88946: L2-HR :0.88143: (Sim:2h50m34s) 
CPU  3 inst:   65000000 cyc:  118560112 now IPC :1.86858: AVG IPC :0.53585: L2-Pf-HR :0.88302: L2-HR :0.87606: (Sim:2h51m13s) 
CPU  0 inst:   65000000 cyc:  118654085 now IPC :2.04611: AVG IPC :0.53543: L2-Pf-HR :0.88188: L2-HR :0.87518: (Sim:2h51m28s) 
CPU  1 inst:   68000002 cyc:  119344539 now IPC :0.97824: AVG IPC :0.55765: L2-Pf-HR :0.89118: L2-HR :0.88299: (Sim:2h52m50s) 
CPU  2 inst:   68000002 cyc:  119349650 now IPC :0.98499: AVG IPC :0.55763: L2-Pf-HR :0.89066: L2-HR :0.88253: (Sim:2h52m51s) 
CPU  3 inst:   66000002 cyc:  119534512 now IPC :1.02627: AVG IPC :0.53988: L2-Pf-HR :0.88436: L2-HR :0.87724: (Sim:2h53m21s) 
CPU  0 inst:   66000002 cyc:  119689716 now IPC :0.96560: AVG IPC :0.53918: L2-Pf-HR :0.88292: L2-HR :0.87610: (Sim:2h53m48s) 
CPU  1 inst:   69000004 cyc:  119831300 now IPC :2.05440: AVG IPC :0.56378: L2-Pf-HR :0.89248: L2-HR :0.88421: (Sim:2h54m10s) 
CPU  2 inst:   69000004 cyc:  119839188 now IPC :2.04275: AVG IPC :0.56375: L2-Pf-HR :0.89198: L2-HR :0.88376: (Sim:2h54m12s) 
CPU  3 inst:   67000005 cyc:  120320448 now IPC :1.27237: AVG IPC :0.54471: L2-Pf-HR :0.88601: L2-HR :0.87868: (Sim:2h55m8s) 
CPU  0 inst:   67000005 cyc:  120562034 now IPC :1.14637: AVG IPC :0.54361: L2-Pf-HR :0.88426: L2-HR :0.87728: (Sim:2h55m51s) 
CPU  1 inst:   70000003 cyc:  120695072 now IPC :1.15771: AVG IPC :0.56807: L2-Pf-HR :0.89352: L2-HR :0.88515: (Sim:2h56m14s) 
CPU  2 inst:   70000003 cyc:  120709413 now IPC :1.14913: AVG IPC :0.56800: L2-Pf-HR :0.89292: L2-HR :0.88461: (Sim:2h56m17s) 
CPU  3 inst:   68000002 cyc:  120909694 now IPC :1.69708: AVG IPC :0.55037: L2-Pf-HR :0.88756: L2-HR :0.88006: (Sim:2h56m48s) 
CPU  0 inst:   68000002 cyc:  121294558 now IPC :1.36514: AVG IPC :0.54862: L2-Pf-HR :0.88573: L2-HR :0.87857: (Sim:2h57m39s) 
CPU  3 inst:   69000004 cyc:  121477292 now IPC :1.76181: AVG IPC :0.55608: L2-Pf-HR :0.88936: L2-HR :0.88167: (Sim:2h58m12s) 
CPU  1 inst:   71000000 cyc:  121484203 now IPC :1.26721: AVG IPC :0.57265: L2-Pf-HR :0.89452: L2-HR :0.88606: (Sim:2h58m13s) 
CPU  2 inst:   71000000 cyc:  121487051 now IPC :1.28594: AVG IPC :0.57264: L2-Pf-HR :0.89393: L2-HR :0.88551: (Sim:2h58m13s) 
CPU  0 inst:   69000004 cyc:  121809933 now IPC :1.94034: AVG IPC :0.55455: L2-Pf-HR :0.88726: L2-HR :0.87995: (Sim:2h59m7s) 
CPU  1 inst:   72000001 cyc:  122045623 now IPC :1.78120: AVG IPC :0.57825: L2-Pf-HR :0.89590: L2-HR :0.88737: (Sim:2h59m40s) 
CPU  2 inst:   72000001 cyc:  122059405 now IPC :1.74717: AVG IPC :0.57819: L2-Pf-HR :0.89529: L2-HR :0.88680: (Sim:2h59m42s) 
CPU  3 inst:   70000003 cyc:  122080344 now IPC :1.65823: AVG IPC :0.56157: L2-Pf-HR :0.89085: L2-HR :0.88298: (Sim:2h59m44s) 
CPU  0 inst:   70000003 cyc:  122505277 now IPC :1.43814: AVG IPC :0.55961: L2-Pf-HR :0.88836: L2-HR :0.88093: (Sim:3h0m52s) 
CPU  1 inst:   73000001 cyc:  122667998 now IPC :1.60675: AVG IPC :0.58351: L2-Pf-HR :0.89671: L2-HR :0.88809: (Sim:3h1m20s) 
CPU  2 inst:   73000001 cyc:  122682206 now IPC :1.60565: AVG IPC :0.58345: L2-Pf-HR :0.89615: L2-HR :0.88756: (Sim:3h1m23s) 
CPU  3 inst:   71000000 cyc:  122708459 now IPC :1.59206: AVG IPC :0.56688: L2-Pf-HR :0.89203: L2-HR :0.88401: (Sim:3h1m27s) 
CPU  0 inst:   71000000 cyc:  123288442 now IPC :1.27687: AVG IPC :0.56420: L2-Pf-HR :0.88944: L2-HR :0.88189: (Sim:3h2m48s) 
CPU  3 inst:   72000001 cyc:  123301283 now IPC :1.68684: AVG IPC :0.57231: L2-Pf-HR :0.89384: L2-HR :0.88567: (Sim:3h2m50s) 
CPU  1 inst:   74000002 cyc:  123491340 now IPC :1.21456: AVG IPC :0.58776: L2-Pf-HR :0.89750: L2-HR :0.88882: (Sim:3h3m21s) 
CPU  2 inst:   74000002 cyc:  123533116 now IPC :1.17521: AVG IPC :0.58756: L2-Pf-HR :0.89695: L2-HR :0.88828: (Sim:3h3m28s) 
CPU  0 inst:   72000001 cyc:  123827005 now IPC :1.85679: AVG IPC :0.56987: L2-Pf-HR :0.89095: L2-HR :0.88330: (Sim:3h4m17s) 
CPU  3 inst:   73000001 cyc:  123898308 now IPC :1.67497: AVG IPC :0.57767: L2-Pf-HR :0.89484: L2-HR :0.88656: (Sim:3h4m26s) 
CPU  1 inst:   75000002 cyc:  124242124 now IPC :1.33194: AVG IPC :0.59229: L2-Pf-HR :0.89840: L2-HR :0.88965: (Sim:3h5m9s) 
CPU  2 inst:   75000002 cyc:  124289377 now IPC :1.32229: AVG IPC :0.59206: L2-Pf-HR :0.89789: L2-HR :0.88915: (Sim:3h5m15s) 
CPU  0 inst:   73000001 cyc:  124519639 now IPC :1.44376: AVG IPC :0.57477: L2-Pf-HR :0.89196: L2-HR :0.88419: (Sim:3h5m55s) 
CPU  3 inst:   74000002 cyc:  124590707 now IPC :1.44426: AVG IPC :0.58252: L2-Pf-HR :0.89584: L2-HR :0.88747: (Sim:3h6m8s) 
CPU  1 inst:   76000004 cyc:  124745805 now IPC :1.98539: AVG IPC :0.59796: L2-Pf-HR :0.89960: L2-HR :0.89078: (Sim:3h6m33s) 
CPU  2 inst:   76000004 cyc:  124785616 now IPC :2.01516: AVG IPC :0.59777: L2-Pf-HR :0.89904: L2-HR :0.89025: (Sim:3h6m40s) 
CPU  0 inst:   74000002 cyc:  125242944 now IPC :1.38254: AVG IPC :0.57947: L2-Pf-HR :0.89320: L2-HR :0.88530: (Sim:3h7m44s) 
CPU  3 inst:   75000002 cyc:  125319781 now IPC :1.37160: AVG IPC :0.58715: L2-Pf-HR :0.89696: L2-HR :0.88847: (Sim:3h7m56s) 
CPU  1 inst:   77000002 cyc:  125517566 now IPC :1.29574: AVG IPC :0.60228: L2-Pf-HR :0.90020: L2-HR :0.89134: (Sim:3h8m31s) 
CPU  2 inst:   77000002 cyc:  125541983 now IPC :1.32211: AVG IPC :0.60217: L2-Pf-HR :0.89969: L2-HR :0.89084: (Sim:3h8m35s) 
CPU  3 inst:   76000004 cyc:  125823394 now IPC :1.98566: AVG IPC :0.59279: L2-Pf-HR :0.89833: L2-HR :0.88974: (Sim:3h9m19s) 
CPU  0 inst:   75000002 cyc:  125863682 now IPC :1.61099: AVG IPC :0.58460: L2-Pf-HR :0.89441: L2-HR :0.88636: (Sim:3h9m24s) 
CPU  1 inst:   78000001 cyc:  126285531 now IPC :1.30214: AVG IPC :0.60657: L2-Pf-HR :0.90108: L2-HR :0.89212: (Sim:3h10m24s) 
CPU  2 inst:   78000001 cyc:  126311464 now IPC :1.29958: AVG IPC :0.60645: L2-Pf-HR :0.90049: L2-HR :0.89157: (Sim:3h10m28s) 
CPU  0 inst:   76000004 cyc:  126449884 now IPC :1.70590: AVG IPC :0.58984: L2-Pf-HR :0.89593: L2-HR :0.88773: (Sim:3h10m53s) 
CPU  3 inst:   77000002 cyc:  126554855 now IPC :1.36712: AVG IPC :0.59730: L2-Pf-HR :0.89905: L2-HR :0.89037: (Sim:3h11m10s) 
CPU  1 inst:   79000000 cyc:  127062334 now IPC :1.28733: AVG IPC :0.61077: L2-Pf-HR :0.90199: L2-HR :0.89296: (Sim:3h12m17s) 
CPU  2 inst:   79000000 cyc:  127092533 now IPC :1.28030: AVG IPC :0.61062: L2-Pf-HR :0.90143: L2-HR :0.89241: (Sim:3h12m22s) 
CPU  0 inst:   77000002 cyc:  127158709 now IPC :1.41078: AVG IPC :0.59445: L2-Pf-HR :0.89705: L2-HR :0.88872: (Sim:3h12m33s) 
CPU  3 inst:   78000001 cyc:  127375618 now IPC :1.21838: AVG IPC :0.60134: L2-Pf-HR :0.90005: L2-HR :0.89126: (Sim:3h13m9s) 
CPU  1 inst:   80000001 cyc:  127596022 now IPC :1.87376: AVG IPC :0.61609: L2-Pf-HR :0.90288: L2-HR :0.89380: (Sim:3h13m45s) 
CPU  2 inst:   80000001 cyc:  127614955 now IPC :1.91416: AVG IPC :0.61600: L2-Pf-HR :0.90237: L2-HR :0.89329: (Sim:3h13m48s) 
CPU  0 inst:   78000001 cyc:  127771909 now IPC :1.63079: AVG IPC :0.59946: L2-Pf-HR :0.89808: L2-HR :0.88961: (Sim:3h14m12s) 
CPU  3 inst:   79000000 cyc:  128137925 now IPC :1.31181: AVG IPC :0.60560: L2-Pf-HR :0.90109: L2-HR :0.89221: (Sim:3h14m59s) 
CPU  1 inst:   81000005 cyc:  128383850 now IPC :1.26932: AVG IPC :0.62013: L2-Pf-HR :0.90360: L2-HR :0.89446: (Sim:3h15m39s) 
CPU  2 inst:   81000005 cyc:  128399463 now IPC :1.27469: AVG IPC :0.62006: L2-Pf-HR :0.90313: L2-HR :0.89400: (Sim:3h15m42s) 
CPU  0 inst:   79000000 cyc:  128453913 now IPC :1.46627: AVG IPC :0.60410: L2-Pf-HR :0.89938: L2-HR :0.89076: (Sim:3h15m52s) 
CPU  3 inst:   80000001 cyc:  128634729 now IPC :2.01287: AVG IPC :0.61107: L2-Pf-HR :0.90203: L2-HR :0.89309: (Sim:3h16m23s) 
CPU  0 inst:   80000001 cyc:  128988529 now IPC :1.87050: AVG IPC :0.60939: L2-Pf-HR :0.90067: L2-HR :0.89194: (Sim:3h17m11s) 
CPU  1 inst:   82000004 cyc:  129157048 now IPC :1.29333: AVG IPC :0.62419: L2-Pf-HR :0.90441: L2-HR :0.89518: (Sim:3h17m38s) 
CPU  2 inst:   82000004 cyc:  129164427 now IPC :1.30725: AVG IPC :0.62416: L2-Pf-HR :0.90394: L2-HR :0.89473: (Sim:3h17m39s) 
CPU  3 inst:   81000005 cyc:  129403671 now IPC :1.30049: AVG IPC :0.61520: L2-Pf-HR :0.90293: L2-HR :0.89391: (Sim:3h18m19s) 
CPU  0 inst:   81000005 cyc:  129640320 now IPC :1.53424: AVG IPC :0.61408: L2-Pf-HR :0.90159: L2-HR :0.89278: (Sim:3h18m59s) 
CPU  1 inst:   83000002 cyc:  129724819 now IPC :1.76127: AVG IPC :0.62921: L2-Pf-HR :0.90548: L2-HR :0.89621: (Sim:3h19m10s) 
CPU  2 inst:   83000002 cyc:  129746883 now IPC :1.71686: AVG IPC :0.62910: L2-Pf-HR :0.90497: L2-HR :0.89572: (Sim:3h19m12s) 
CPU  3 inst:   82000004 cyc:  130219741 now IPC :1.22538: AVG IPC :0.61906: L2-Pf-HR :0.90376: L2-HR :0.89464: (Sim:3h20m15s) 
CPU  0 inst:   82000004 cyc:  130342747 now IPC :1.42363: AVG IPC :0.61847: L2-Pf-HR :0.90267: L2-HR :0.89372: (Sim:3h20m36s) 
CPU  1 inst:   84000003 cyc:  130474937 now IPC :1.33312: AVG IPC :0.63329: L2-Pf-HR :0.90605: L2-HR :0.89669: (Sim:3h21m0s) 
CPU  2 inst:   84000003 cyc:  130479987 now IPC :1.36406: AVG IPC :0.63326: L2-Pf-HR :0.90554: L2-HR :0.89623: (Sim:3h21m0s) 
CPU  3 inst:   83000002 cyc:  130795404 now IPC :1.73712: AVG IPC :0.62401: L2-Pf-HR :0.90486: L2-HR :0.89569: (Sim:3h21m45s) 
CPU  0 inst:   83000002 cyc:  130943611 now IPC :1.66427: AVG IPC :0.62331: L2-Pf-HR :0.90401: L2-HR :0.89497: (Sim:3h21m57s) 
CPU  1 inst:   85000004 cyc:  131305475 now IPC :1.20404: AVG IPC :0.63692: L2-Pf-HR :0.90669: L2-HR :0.89728: (Sim:3h22m59s) 
CPU  2 inst:   85000004 cyc:  131311393 now IPC :1.20278: AVG IPC :0.63690: L2-Pf-HR :0.90620: L2-HR :0.89684: (Sim:3h23m0s) 
CPU  3 inst:   84000003 cyc:  131518500 now IPC :1.38294: AVG IPC :0.62822: L2-Pf-HR :0.90548: L2-HR :0.89626: (Sim:3h23m36s) 
CPU  0 inst:   84000003 cyc:  131582951 now IPC :1.56411: AVG IPC :0.62792: L2-Pf-HR :0.90466: L2-HR :0.89557: (Sim:3h23m48s) 
CPU  1 inst:   86000004 cyc:  132134415 now IPC :1.20636: AVG IPC :0.64052: L2-Pf-HR :0.90742: L2-HR :0.89796: (Sim:3h24m58s) 
CPU  2 inst:   86000004 cyc:  132140443 now IPC :1.20620: AVG IPC :0.64049: L2-Pf-HR :0.90692: L2-HR :0.89749: (Sim:3h24m59s) 
CPU  3 inst:   85000004 cyc:  132359359 now IPC :1.18926: AVG IPC :0.63181: L2-Pf-HR :0.90617: L2-HR :0.89688: (Sim:3h25m35s) 
CPU  0 inst:   85000004 cyc:  132402439 now IPC :1.22028: AVG IPC :0.63161: L2-Pf-HR :0.90553: L2-HR :0.89634: (Sim:3h25m43s) 
CPU  1 inst:   87000004 cyc:  132622015 now IPC :2.05086: AVG IPC :0.64575: L2-Pf-HR :0.90832: L2-HR :0.89883: (Sim:3h26m21s) 
CPU  2 inst:   87000004 cyc:  132628027 now IPC :2.05093: AVG IPC :0.64572: L2-Pf-HR :0.90786: L2-HR :0.89840: (Sim:3h26m22s) 
CPU  3 inst:   86000004 cyc:  133224062 now IPC :1.15647: AVG IPC :0.63524: L2-Pf-HR :0.90686: L2-HR :0.89750: (Sim:3h27m32s) 
CPU  0 inst:   86000004 cyc:  133249919 now IPC :1.17997: AVG IPC :0.63512: L2-Pf-HR :0.90635: L2-HR :0.89707: (Sim:3h27m36s) 
CPU  2 inst:   88000002 cyc:  133490722 now IPC :1.15916: AVG IPC :0.64906: L2-Pf-HR :0.90835: L2-HR :0.89881: (Sim:3h28m18s) 
CPU  1 inst:   88000002 cyc:  133496311 now IPC :1.14378: AVG IPC :0.64903: L2-Pf-HR :0.90880: L2-HR :0.89925: (Sim:3h28m19s) 
CPU  3 inst:   87000004 cyc:  133709330 now IPC :2.06072: AVG IPC :0.64045: L2-Pf-HR :0.90777: L2-HR :0.89838: (Sim:3h28m55s) 
CPU  0 inst:   87000004 cyc:  133736012 now IPC :2.05722: AVG IPC :0.64033: L2-Pf-HR :0.90728: L2-HR :0.89797: (Sim:3h28m59s) 
CPU  1 inst:   89000003 cyc:  134333114 now IPC :1.19503: AVG IPC :0.65246: L2-Pf-HR :0.90924: L2-HR :0.89967: (Sim:3h30m15s) 
CPU  2 inst:   89000003 cyc:  134334463 now IPC :1.18520: AVG IPC :0.65245: L2-Pf-HR :0.90877: L2-HR :0.89919: (Sim:3h30m16s) 
CPU  3 inst:   88000002 cyc:  134554887 now IPC :1.18265: AVG IPC :0.64388: L2-Pf-HR :0.90819: L2-HR :0.89875: (Sim:3h30m54s) 
CPU  0 inst:   88000002 cyc:  134576910 now IPC :1.18920: AVG IPC :0.64379: L2-Pf-HR :0.90768: L2-HR :0.89832: (Sim:3h30m58s) 
CPU  2 inst:   90000003 cyc:  135103393 now IPC :1.30051: AVG IPC :0.65617: L2-Pf-HR :0.90932: L2-HR :0.89972: (Sim:3h32m8s) 
CPU  1 inst:   90000003 cyc:  135109819 now IPC :1.28749: AVG IPC :0.65614: L2-Pf-HR :0.90979: L2-HR :0.90020: (Sim:3h32m9s) 
CPU  3 inst:   89000003 cyc:  135365007 now IPC :1.23439: AVG IPC :0.64744: L2-Pf-HR :0.90867: L2-HR :0.89921: (Sim:3h32m50s) 
CPU  0 inst:   89000003 cyc:  135395521 now IPC :1.22158: AVG IPC :0.64730: L2-Pf-HR :0.90818: L2-HR :0.89879: (Sim:3h32m56s) 
CPU  2 inst:   91000003 cyc:  135610784 now IPC :1.97087: AVG IPC :0.66112: L2-Pf-HR :0.91003: L2-HR :0.90041: (Sim:3h33m34s) 
CPU  1 inst:   91000003 cyc:  135616272 now IPC :1.97452: AVG IPC :0.66110: L2-Pf-HR :0.91041: L2-HR :0.90081: (Sim:3h33m35s) 
CPU  3 inst:   90000003 cyc:  136215600 now IPC :1.17565: AVG IPC :0.65077: L2-Pf-HR :0.90917: L2-HR :0.89969: (Sim:3h34m52s) 
CPU  0 inst:   90000003 cyc:  136250874 now IPC :1.16911: AVG IPC :0.65060: L2-Pf-HR :0.90879: L2-HR :0.89936: (Sim:3h34m58s) 
CPU  2 inst:   92000001 cyc:  136484995 now IPC :1.14389: AVG IPC :0.66424: L2-Pf-HR :0.91044: L2-HR :0.90080: (Sim:3h35m38s) 
CPU  1 inst:   92000001 cyc:  136497532 now IPC :1.13474: AVG IPC :0.66418: L2-Pf-HR :0.91081: L2-HR :0.90119: (Sim:3h35m40s) 
CPU  3 inst:   91000003 cyc:  136705237 now IPC :2.04233: AVG IPC :0.65579: L2-Pf-HR :0.90982: L2-HR :0.90033: (Sim:3h36m17s) 
CPU  0 inst:   91000003 cyc:  136731244 now IPC :2.08173: AVG IPC :0.65567: L2-Pf-HR :0.90941: L2-HR :0.89997: (Sim:3h36m21s) 
CPU  2 inst:   93000001 cyc:  137409480 now IPC :1.08168: AVG IPC :0.66707: L2-Pf-HR :0.91091: L2-HR :0.90124: (Sim:3h37m43s) 
CPU  1 inst:   93000001 cyc:  137433831 now IPC :1.06803: AVG IPC :0.66695: L2-Pf-HR :0.91122: L2-HR :0.90156: (Sim:3h37m46s) 
CPU  3 inst:   92000001 cyc:  137638177 now IPC :1.07188: AVG IPC :0.65863: L2-Pf-HR :0.91025: L2-HR :0.90073: (Sim:3h38m22s) 
CPU  0 inst:   92000001 cyc:  137668242 now IPC :1.06724: AVG IPC :0.65849: L2-Pf-HR :0.90985: L2-HR :0.90038: (Sim:3h38m27s) 
CPU  2 inst:   94000005 cyc:  137916183 now IPC :1.97355: AVG IPC :0.67190: L2-Pf-HR :0.91165: L2-HR :0.90197: (Sim:3h39m11s) 
CPU  1 inst:   94000005 cyc:  137964783 now IPC :1.88342: AVG IPC :0.67166: L2-Pf-HR :0.91191: L2-HR :0.90224: (Sim:3h39m17s) 
CPU  3 inst:   93000001 cyc:  138449734 now IPC :1.23220: AVG IPC :0.66202: L2-Pf-HR :0.91068: L2-HR :0.90112: (Sim:3h40m19s) 
CPU  0 inst:   93000001 cyc:  138474632 now IPC :1.24009: AVG IPC :0.66190: L2-Pf-HR :0.91038: L2-HR :0.90086: (Sim:3h40m24s) 
CPU  2 inst:   95000005 cyc:  138674780 now IPC :1.31822: AVG IPC :0.67546: L2-Pf-HR :0.91201: L2-HR :0.90230: (Sim:3h41m0s) 
CPU  1 inst:   95000005 cyc:  138715924 now IPC :1.33131: AVG IPC :0.67526: L2-Pf-HR :0.91220: L2-HR :0.90250: (Sim:3h41m7s) 
CPU  3 inst:   94000005 cyc:  139004619 now IPC :1.80218: AVG IPC :0.66660: L2-Pf-HR :0.91138: L2-HR :0.90182: (Sim:3h41m48s) 
CPU  0 inst:   94000005 cyc:  139042626 now IPC :1.76059: AVG IPC :0.66642: L2-Pf-HR :0.91117: L2-HR :0.90164: (Sim:3h41m50s) 
CPU  2 inst:   96000000 cyc:  139498171 now IPC :1.21448: AVG IPC :0.67867: L2-Pf-HR :0.91244: L2-HR :0.90271: (Sim:3h42m51s) 
CPU  1 inst:   96000000 cyc:  139556597 now IPC :1.18952: AVG IPC :0.67838: L2-Pf-HR :0.91254: L2-HR :0.90283: (Sim:3h43m1s) 
CPU  3 inst:   95000005 cyc:  139779341 now IPC :1.29079: AVG IPC :0.67008: L2-Pf-HR :0.91167: L2-HR :0.90208: (Sim:3h43m41s) 
CPU  0 inst:   95000005 cyc:  139801972 now IPC :1.31692: AVG IPC :0.66998: L2-Pf-HR :0.91148: L2-HR :0.90192: (Sim:3h43m45s) 
CPU  2 inst:   97000002 cyc:  140241830 now IPC :1.34470: AVG IPC :0.68223: L2-Pf-HR :0.91300: L2-HR :0.90323: (Sim:3h44m35s) 
CPU  1 inst:   97000002 cyc:  140397408 now IPC :1.18933: AVG IPC :0.68146: L2-Pf-HR :0.91297: L2-HR :0.90324: (Sim:3h44m58s) 
CPU  3 inst:   96000000 cyc:  140632672 now IPC :1.17187: AVG IPC :0.67315: L2-Pf-HR :0.91204: L2-HR :0.90243: (Sim:3h45m38s) 
CPU  0 inst:   96000000 cyc:  140651344 now IPC :1.17733: AVG IPC :0.67307: L2-Pf-HR :0.91190: L2-HR :0.90231: (Sim:3h45m41s) 
CPU  2 inst:   98000004 cyc:  140781495 now IPC :1.85301: AVG IPC :0.68675: L2-Pf-HR :0.91373: L2-HR :0.90395: (Sim:3h46m5s) 
CPU  1 inst:   98000004 cyc:  140877616 now IPC :2.08244: AVG IPC :0.68627: L2-Pf-HR :0.91368: L2-HR :0.90394: (Sim:3h46m21s) 
CPU  3 inst:   97000002 cyc:  141458836 now IPC :1.21042: AVG IPC :0.67631: L2-Pf-HR :0.91257: L2-HR :0.90292: (Sim:3h47m42s) 
CPU  0 inst:   97000002 cyc:  141464208 now IPC :1.23022: AVG IPC :0.67629: L2-Pf-HR :0.91243: L2-HR :0.90280: (Sim:3h47m43s) 
CPU  2 inst:   99000003 cyc:  141558084 now IPC :1.28768: AVG IPC :0.69007: L2-Pf-HR :0.91419: L2-HR :0.90437: (Sim:3h47m59s) 
CPU  1 inst:   99000003 cyc:  141720091 now IPC :1.18698: AVG IPC :0.68927: L2-Pf-HR :0.91401: L2-HR :0.90424: (Sim:3h48m28s) 
CPU  3 inst:   98000004 cyc:  141942550 now IPC :2.06734: AVG IPC :0.68108: L2-Pf-HR :0.91329: L2-HR :0.90364: (Sim:3h49m4s) 
CPU  0 inst:   98000004 cyc:  141949811 now IPC :2.05930: AVG IPC :0.68106: L2-Pf-HR :0.91315: L2-HR :0.90351: (Sim:3h49m5s) 
CPU  2 inst:  100000005 cyc:  142261183 now IPC :1.42228: AVG IPC :0.69371: L2-Pf-HR :0.91476: L2-HR :0.90490: (Sim:3h49m43s) 
Finished CPU 2 instr: 98000000 cyc: 141269296 AVG IPC: 0.69371 (Sim time: 3h49m43s)
CPU  1 inst:  100000005 cyc:  142493896 now IPC :1.29232: AVG IPC :0.69257: L2-Pf-HR :0.91443: L2-HR :0.90462: (Sim:3h50m22s) 
Finished CPU 1 instr: 98000002 cyc: 141502049 AVG IPC: 0.69257 (Sim time: 3h50m22s)
CPU  3 inst:   99000003 cyc:  142716997 now IPC :1.29124: AVG IPC :0.68442: L2-Pf-HR :0.91363: L2-HR :0.90393: (Sim:3h51m3s) 
CPU  0 inst:   99000003 cyc:  142724991 now IPC :1.29002: AVG IPC :0.68439: L2-Pf-HR :0.91353: L2-HR :0.90383: (Sim:3h51m4s) 
CPU  2 inst:  101000001 cyc:  142865776 now IPC :1.65400: AVG IPC :0.69780: L2-Pf-HR :0.91532: L2-HR :0.90542: (Sim:3h51m28s) 
CPU  1 inst:  101000001 cyc:  143164515 now IPC :1.49115: AVG IPC :0.69634: L2-Pf-HR :0.91497: L2-HR :0.90512: (Sim:3h52m7s) 
CPU  2 inst:  102000005 cyc:  143410703 now IPC :1.83512: AVG IPC :0.70215: L2-Pf-HR :0.91604: L2-HR :0.90611: (Sim:3h52m47s) 
CPU  3 inst:  100000005 cyc:  143458576 now IPC :1.34848: AVG IPC :0.68787: L2-Pf-HR :0.91401: L2-HR :0.90426: (Sim:3h52m55s) 
Finished CPU 3 instr: 98000000 cyc: 142466984 AVG IPC: 0.68788 (Sim time: 3h52m55s)
CPU  0 inst:  100000005 cyc:  143470604 now IPC :1.34118: AVG IPC :0.68782: L2-Pf-HR :0.91393: L2-HR :0.90418: (Sim:3h52m57s) 
Finished CPU 0 instr: 98000003 cyc: 142478557 AVG IPC: 0.68782 (Sim time: 3h52m57s)

ChampSim completed all CPUs

Total Simulation Statistics (not including warmup)

CPU 0 cumulative IPC: 0.68782 instructions: 98000003 cycles: 142478557
Core_0_L1D_total_access 57139900
Core_0_L1D_total_hit 54892676
Core_0_L1D_total_miss 2247224
Core_0_L1D_loads 21243802
Core_0_L1D_load_hit 19977196
Core_0_L1D_load_miss 1266606
Core_0_L1D_RFOs 2947611
Core_0_L1D_RFO_hit 2821346
Core_0_L1D_RFO_miss 126265
Core_0_L1D_prefetches 32948487
Core_0_L1D_prefetch_hit 32094134
Core_0_L1D_prefetch_miss 854353
Core_0_L1D_writebacks 0
Core_0_L1D_writeback_hit 0
Core_0_L1D_writeback_miss 0

Core_0_L1I_total_access 12863221
Core_0_L1I_total_hit 12858446
Core_0_L1I_total_miss 4775
Core_0_L1I_loads 12863221
Core_0_L1I_load_hit 12858446
Core_0_L1I_load_miss 4775
Core_0_L1I_RFOs 0
Core_0_L1I_RFO_hit 0
Core_0_L1I_RFO_miss 0
Core_0_L1I_prefetches 0
Core_0_L1I_prefetch_hit 0
Core_0_L1I_prefetch_miss 0
Core_0_L1I_writebacks 0
Core_0_L1I_writeback_hit 0
Core_0_L1I_writeback_miss 0

Core_0_L2C_total_access 8507588
Core_0_L2C_total_hit 7692430
Core_0_L2C_total_miss 815158
Core_0_L2C_loads 1062114
Core_0_L2C_load_hit 851330
Core_0_L2C_load_miss 210784
Core_0_L2C_RFOs 125515
Core_0_L2C_RFO_hit 92406
Core_0_L2C_RFO_miss 33109
Core_0_L2C_prefetches 6637376
Core_0_L2C_prefetch_hit 6066122
Core_0_L2C_prefetch_miss 571254
Core_0_L2C_writebacks 682583
Core_0_L2C_writeback_hit 682572
Core_0_L2C_writeback_miss 11

CPU 0 L1D next line prefetcher final stats
CPU 0 L2C PC-based stride prefetcher final stats
Stride Degree: 15
MK1  MARKOV_LRU_SIZE: 128
MK1  MARKOV_PREDICTION_PERCENTTHRESHOLD: 40.00000
MK1  OUTLIERS_THRESHOLD_Max: 64
MK1  OUTLIERS_THRESHOLD_Min: 32
MK2  MARKOV_LRU_SIZE: 256
MK2  MARKOV_PREDICTION_PERCENTTHRESHOLD: 20.00000
MK2  OUTLIERS_THRESHOLD_Max: 32
MK2  OUTLIERS_THRESHOLD_Min: 16
MK3  MARKOV_LRU_SIZE: 384
MK3  MARKOV_PREDICTION_PERCENTTHRESHOLD: 25.00000
MK3  OUTLIERS_THRESHOLD_Max: 16
MK3  OUTLIERS_THRESHOLD_Min: 8
MK4  MARKOV_LRU_SIZE: 512
MK4  MARKOV_PREDICTION_PERCENTTHRESHOLD: 20.00000
MK4  OUTLIERS_THRESHOLD_Max: 8
MK4  OUTLIERS_THRESHOLD_Min: 0
IPStride Degree/Access Ratio: 2.90206
MK1 IPDEltaMarkov  Degree/Access Ratio: 0.30331
MK2 IPDEltaMarkov  Degree/Access Ratio: 0.76895
MK3 IPDEltaMarkov  Degree/Access Ratio: 0.90606
MK4 IPDEltaMarkov  Degree/Access Ratio: 1.51552
Core_0_LLC_total_access 1273919
Core_0_LLC_total_hit 454950
Core_0_LLC_total_miss 818969
Core_0_LLC_loads 110700
Core_0_LLC_load_hit 6349
Core_0_LLC_load_miss 104351
Core_0_LLC_RFOs 33087
Core_0_LLC_RFO_hit 1264
Core_0_LLC_RFO_miss 31823
Core_0_LLC_prefetches 700549
Core_0_LLC_prefetch_hit 26786
Core_0_LLC_prefetch_miss 673763
Core_0_LLC_writebacks 429583
Core_0_LLC_writeback_hit 420551
Core_0_LLC_writeback_miss 9032


CPU 1 cumulative IPC: 0.69873 instructions: 99554496 cycles: 142478558
Core_1_L1D_total_access 57838233
Core_1_L1D_total_hit 55557193
Core_1_L1D_total_miss 2281040
Core_1_L1D_loads 21546724
Core_1_L1D_load_hit 20258310
Core_1_L1D_load_miss 1288414
Core_1_L1D_RFOs 2968349
Core_1_L1D_RFO_hit 2841272
Core_1_L1D_RFO_miss 127077
Core_1_L1D_prefetches 33323160
Core_1_L1D_prefetch_hit 32457611
Core_1_L1D_prefetch_miss 865549
Core_1_L1D_writebacks 0
Core_1_L1D_writeback_hit 0
Core_1_L1D_writeback_miss 0

Core_1_L1I_total_access 13024872
Core_1_L1I_total_hit 13020099
Core_1_L1I_total_miss 4773
Core_1_L1I_loads 13024872
Core_1_L1I_load_hit 13020099
Core_1_L1I_load_miss 4773
Core_1_L1I_RFOs 0
Core_1_L1I_RFO_hit 0
Core_1_L1I_RFO_miss 0
Core_1_L1I_prefetches 0
Core_1_L1I_prefetch_hit 0
Core_1_L1I_prefetch_miss 0
Core_1_L1I_writebacks 0
Core_1_L1I_writeback_hit 0
Core_1_L1I_writeback_miss 0

Core_1_L2C_total_access 8678029
Core_1_L2C_total_hit 7856745
Core_1_L2C_total_miss 821284
Core_1_L2C_loads 1080291
Core_1_L2C_load_hit 867229
Core_1_L2C_load_miss 213062
Core_1_L2C_RFOs 126359
Core_1_L2C_RFO_hit 93160
Core_1_L2C_RFO_miss 33199
Core_1_L2C_prefetches 6781382
Core_1_L2C_prefetch_hit 6206388
Core_1_L2C_prefetch_miss 574994
Core_1_L2C_writebacks 689997
Core_1_L2C_writeback_hit 689968
Core_1_L2C_writeback_miss 29

CPU 1 L1D next line prefetcher final stats
CPU 1 L2C PC-based stride prefetcher final stats
Stride Degree: 15
MK1  MARKOV_LRU_SIZE: 128
MK1  MARKOV_PREDICTION_PERCENTTHRESHOLD: 40.00000
MK1  OUTLIERS_THRESHOLD_Max: 64
MK1  OUTLIERS_THRESHOLD_Min: 32
MK2  MARKOV_LRU_SIZE: 256
MK2  MARKOV_PREDICTION_PERCENTTHRESHOLD: 20.00000
MK2  OUTLIERS_THRESHOLD_Max: 32
MK2  OUTLIERS_THRESHOLD_Min: 16
MK3  MARKOV_LRU_SIZE: 384
MK3  MARKOV_PREDICTION_PERCENTTHRESHOLD: 25.00000
MK3  OUTLIERS_THRESHOLD_Max: 16
MK3  OUTLIERS_THRESHOLD_Min: 8
MK4  MARKOV_LRU_SIZE: 512
MK4  MARKOV_PREDICTION_PERCENTTHRESHOLD: 20.00000
MK4  OUTLIERS_THRESHOLD_Max: 8
MK4  OUTLIERS_THRESHOLD_Min: 0
IPStride Degree/Access Ratio: 2.90206
MK1 IPDEltaMarkov  Degree/Access Ratio: 0.30331
MK2 IPDEltaMarkov  Degree/Access Ratio: 0.76895
MK3 IPDEltaMarkov  Degree/Access Ratio: 0.90606
MK4 IPDEltaMarkov  Degree/Access Ratio: 1.51552
Core_1_LLC_total_access 1283628
Core_1_LLC_total_hit 458510
Core_1_LLC_total_miss 825118
Core_1_LLC_loads 111569
Core_1_LLC_load_hit 6407
Core_1_LLC_load_miss 105162
Core_1_LLC_RFOs 33149
Core_1_LLC_RFO_hit 1130
Core_1_LLC_RFO_miss 32019
Core_1_LLC_prefetches 707604
Core_1_LLC_prefetch_hit 28041
Core_1_LLC_prefetch_miss 679563
Core_1_LLC_writebacks 431306
Core_1_LLC_writeback_hit 422932
Core_1_LLC_writeback_miss 8374


CPU 2 cumulative IPC: 0.70267 instructions: 100115811 cycles: 142478558
Core_2_L1D_total_access 58105345
Core_2_L1D_total_hit 55814713
Core_2_L1D_total_miss 2290632
Core_2_L1D_loads 21660703
Core_2_L1D_load_hit 20367239
Core_2_L1D_load_miss 1293464
Core_2_L1D_RFOs 2970838
Core_2_L1D_RFO_hit 2843516
Core_2_L1D_RFO_miss 127322
Core_2_L1D_prefetches 33473804
Core_2_L1D_prefetch_hit 32603958
Core_2_L1D_prefetch_miss 869846
Core_2_L1D_writebacks 0
Core_2_L1D_writeback_hit 0
Core_2_L1D_writeback_miss 0

Core_2_L1I_total_access 13089766
Core_2_L1I_total_hit 13084993
Core_2_L1I_total_miss 4773
Core_2_L1I_loads 13089766
Core_2_L1I_load_hit 13084993
Core_2_L1I_load_miss 4773
Core_2_L1I_RFOs 0
Core_2_L1I_RFO_hit 0
Core_2_L1I_RFO_miss 0
Core_2_L1I_prefetches 0
Core_2_L1I_prefetch_hit 0
Core_2_L1I_prefetch_miss 0
Core_2_L1I_writebacks 0
Core_2_L1I_writeback_hit 0
Core_2_L1I_writeback_miss 0

Core_2_L2C_total_access 8772177
Core_2_L2C_total_hit 7949812
Core_2_L2C_total_miss 822365
Core_2_L2C_loads 1085178
Core_2_L2C_load_hit 871879
Core_2_L2C_load_miss 213299
Core_2_L2C_RFOs 126616
Core_2_L2C_RFO_hit 93317
Core_2_L2C_RFO_miss 33299
Core_2_L2C_prefetches 6869057
Core_2_L2C_prefetch_hit 6293302
Core_2_L2C_prefetch_miss 575755
Core_2_L2C_writebacks 691326
Core_2_L2C_writeback_hit 691314
Core_2_L2C_writeback_miss 12

CPU 2 L1D next line prefetcher final stats
CPU 2 L2C PC-based stride prefetcher final stats
Stride Degree: 15
MK1  MARKOV_LRU_SIZE: 128
MK1  MARKOV_PREDICTION_PERCENTTHRESHOLD: 40.00000
MK1  OUTLIERS_THRESHOLD_Max: 64
MK1  OUTLIERS_THRESHOLD_Min: 32
MK2  MARKOV_LRU_SIZE: 256
MK2  MARKOV_PREDICTION_PERCENTTHRESHOLD: 20.00000
MK2  OUTLIERS_THRESHOLD_Max: 32
MK2  OUTLIERS_THRESHOLD_Min: 16
MK3  MARKOV_LRU_SIZE: 384
MK3  MARKOV_PREDICTION_PERCENTTHRESHOLD: 25.00000
MK3  OUTLIERS_THRESHOLD_Max: 16
MK3  OUTLIERS_THRESHOLD_Min: 8
MK4  MARKOV_LRU_SIZE: 512
MK4  MARKOV_PREDICTION_PERCENTTHRESHOLD: 20.00000
MK4  OUTLIERS_THRESHOLD_Max: 8
MK4  OUTLIERS_THRESHOLD_Min: 0
IPStride Degree/Access Ratio: 2.90206
MK1 IPDEltaMarkov  Degree/Access Ratio: 0.30331
MK2 IPDEltaMarkov  Degree/Access Ratio: 0.76895
MK3 IPDEltaMarkov  Degree/Access Ratio: 0.90606
MK4 IPDEltaMarkov  Degree/Access Ratio: 1.51552
Core_2_LLC_total_access 1284659
Core_2_LLC_total_hit 458164
Core_2_LLC_total_miss 826495
Core_2_LLC_loads 111490
Core_2_LLC_load_hit 6550
Core_2_LLC_load_miss 104940
Core_2_LLC_RFOs 33260
Core_2_LLC_RFO_hit 1138
Core_2_LLC_RFO_miss 32122
Core_2_LLC_prefetches 708243
Core_2_LLC_prefetch_hit 28234
Core_2_LLC_prefetch_miss 680009
Core_2_LLC_writebacks 431666
Core_2_LLC_writeback_hit 422242
Core_2_LLC_writeback_miss 9424


CPU 3 cumulative IPC: 0.68800 instructions: 98025610 cycles: 142478558
Core_3_L1D_total_access 57146758
Core_3_L1D_total_hit 54898985
Core_3_L1D_total_miss 2247773
Core_3_L1D_loads 21246304
Core_3_L1D_load_hit 19979432
Core_3_L1D_load_miss 1266872
Core_3_L1D_RFOs 2947381
Core_3_L1D_RFO_hit 2821175
Core_3_L1D_RFO_miss 126206
Core_3_L1D_prefetches 32953073
Core_3_L1D_prefetch_hit 32098378
Core_3_L1D_prefetch_miss 854695
Core_3_L1D_writebacks 0
Core_3_L1D_writeback_hit 0
Core_3_L1D_writeback_miss 0

Core_3_L1I_total_access 12864170
Core_3_L1I_total_hit 12859394
Core_3_L1I_total_miss 4776
Core_3_L1I_loads 12864170
Core_3_L1I_load_hit 12859394
Core_3_L1I_load_miss 4776
Core_3_L1I_RFOs 0
Core_3_L1I_RFO_hit 0
Core_3_L1I_RFO_miss 0
Core_3_L1I_prefetches 0
Core_3_L1I_prefetch_hit 0
Core_3_L1I_prefetch_miss 0
Core_3_L1I_writebacks 0
Core_3_L1I_writeback_hit 0
Core_3_L1I_writeback_miss 0

Core_3_L2C_total_access 8512713
Core_3_L2C_total_hit 7697871
Core_3_L2C_total_miss 814842
Core_3_L2C_loads 1062148
Core_3_L2C_load_hit 851243
Core_3_L2C_load_miss 210905
Core_3_L2C_RFOs 125500
Core_3_L2C_RFO_hit 92636
Core_3_L2C_RFO_miss 32864
Core_3_L2C_prefetches 6642324
Core_3_L2C_prefetch_hit 6071262
Core_3_L2C_prefetch_miss 571062
Core_3_L2C_writebacks 682741
Core_3_L2C_writeback_hit 682730
Core_3_L2C_writeback_miss 11

CPU 3 L1D next line prefetcher final stats
CPU 3 L2C PC-based stride prefetcher final stats
Stride Degree: 15
MK1  MARKOV_LRU_SIZE: 128
MK1  MARKOV_PREDICTION_PERCENTTHRESHOLD: 40.00000
MK1  OUTLIERS_THRESHOLD_Max: 64
MK1  OUTLIERS_THRESHOLD_Min: 32
MK2  MARKOV_LRU_SIZE: 256
MK2  MARKOV_PREDICTION_PERCENTTHRESHOLD: 20.00000
MK2  OUTLIERS_THRESHOLD_Max: 32
MK2  OUTLIERS_THRESHOLD_Min: 16
MK3  MARKOV_LRU_SIZE: 384
MK3  MARKOV_PREDICTION_PERCENTTHRESHOLD: 25.00000
MK3  OUTLIERS_THRESHOLD_Max: 16
MK3  OUTLIERS_THRESHOLD_Min: 8
MK4  MARKOV_LRU_SIZE: 512
MK4  MARKOV_PREDICTION_PERCENTTHRESHOLD: 20.00000
MK4  OUTLIERS_THRESHOLD_Max: 8
MK4  OUTLIERS_THRESHOLD_Min: 0
IPStride Degree/Access Ratio: 2.90206
MK1 IPDEltaMarkov  Degree/Access Ratio: 0.30331
MK2 IPDEltaMarkov  Degree/Access Ratio: 0.76895
MK3 IPDEltaMarkov  Degree/Access Ratio: 0.90606
MK4 IPDEltaMarkov  Degree/Access Ratio: 1.51552
Core_3_LLC_total_access 1274099
Core_3_LLC_total_hit 453630
Core_3_LLC_total_miss 820469
Core_3_LLC_loads 110456
Core_3_LLC_load_hit 6282
Core_3_LLC_load_miss 104174
Core_3_LLC_RFOs 32835
Core_3_LLC_RFO_hit 1051
Core_3_LLC_RFO_miss 31784
Core_3_LLC_prefetches 701281
Core_3_LLC_prefetch_hit 26890
Core_3_LLC_prefetch_miss 674391
Core_3_LLC_writebacks 429527
Core_3_LLC_writeback_hit 419407
Core_3_LLC_writeback_miss 10120


[ROI Statistics]
Core_0_instructions 98000003
Core_0_cycles 142478557
Core_0_IPC 0.68782

Core_0_branch_prediction_accuracy 98.32534
Core_0_branch_MPKI 0.51240
Core_0_average_ROB_occupancy_at_mispredict 435.10726

Core_0_L1D_total_access 57139900
Core_0_L1D_total_hit 54892676 L1D_total_Hit Ratio: 0.96067
Core_0_L1D_total_miss 2247224
Core_0_L1D_loads 21243802
Core_0_L1D_load_hit 19977196 L1D_load_Hit Ratio: 0.94038
Core_0_L1D_load_miss 1266606
Core_0_L1D_RFOs 2947611
Core_0_L1D_RFO_hit 2821346 L1D_RFO_Hit Ratio: 0.95716
Core_0_L1D_RFO_miss 126265
Core_0_L1D_prefetches 32948487
Core_0_L1D_prefetch_hit 32094134 L1D_prefetch_Hit Ratio: 0.97407
Core_0_L1D_prefetch_miss 854353
Core_0_L1D_writebacks 0
Core_0_L1D_writeback_hit 0 L1D_writeback_Hit Ratio: -nan
Core_0_L1D_writeback_miss 0
Core_0_L1D_prefetch_requested 66595905
Core_0_L1D_prefetch_issued 39989379
Core_0_L1D_prefetch_useful 693276 L1D_Useful Ratio: 0.01734
Core_0_L1D_prefetch_useless 181741
Core_0_L1D_prefetch_late 210871
Core_0_L1D_average_miss_latency 7546683.50359

Core_0_L1I_total_access 12863221
Core_0_L1I_total_hit 12858446 L1I_total_Hit Ratio: 0.99963
Core_0_L1I_total_miss 4775
Core_0_L1I_loads 12863221
Core_0_L1I_load_hit 12858446 L1I_load_Hit Ratio: 0.99963
Core_0_L1I_load_miss 4775
Core_0_L1I_RFOs 0
Core_0_L1I_RFO_hit 0 L1I_RFO_Hit Ratio: -nan
Core_0_L1I_RFO_miss 0
Core_0_L1I_prefetches 0
Core_0_L1I_prefetch_hit 0 L1I_prefetch_Hit Ratio: -nan
Core_0_L1I_prefetch_miss 0
Core_0_L1I_writebacks 0
Core_0_L1I_writeback_hit 0 L1I_writeback_Hit Ratio: -nan
Core_0_L1I_writeback_miss 0
Core_0_L1I_prefetch_requested 0
Core_0_L1I_prefetch_issued 0
Core_0_L1I_prefetch_useful 0 L1I_Useful Ratio: -nan
Core_0_L1I_prefetch_useless 0
Core_0_L1I_prefetch_late 0
Core_0_L1I_average_miss_latency 1273.00272

Core_0_L2C_total_access 8507588
Core_0_L2C_total_hit 7692430 L2C_total_Hit Ratio: 0.90418
Core_0_L2C_total_miss 815158
Core_0_L2C_loads 1062114
Core_0_L2C_load_hit 851330 L2C_load_Hit Ratio: 0.80154
Core_0_L2C_load_miss 210784
Core_0_L2C_RFOs 125515
Core_0_L2C_RFO_hit 92406 L2C_RFO_Hit Ratio: 0.73621
Core_0_L2C_RFO_miss 33109
Core_0_L2C_prefetches 6637376
Core_0_L2C_prefetch_hit 6066122 L2C_prefetch_Hit Ratio: 0.91393
Core_0_L2C_prefetch_miss 571254
Core_0_L2C_writebacks 682583
Core_0_L2C_writeback_hit 682572 L2C_writeback_Hit Ratio: 0.99998
Core_0_L2C_writeback_miss 11
Core_0_L2C_prefetch_requested 12913349
Core_0_L2C_prefetch_issued 8234986
Core_0_L2C_prefetch_useful 242741 L2C_Useful Ratio: 0.02948
Core_0_L2C_prefetch_useless 335543
Core_0_L2C_prefetch_late 100282
Core_0_L2C_average_miss_latency 1037.79274

Core_0_LLC_total_access 1273919
Core_0_LLC_total_hit 454950 LLC_total_Hit Ratio: 0.35713
Core_0_LLC_total_miss 818969
Core_0_LLC_loads 110700
Core_0_LLC_load_hit 6349 LLC_load_Hit Ratio: 0.05735
Core_0_LLC_load_miss 104351
Core_0_LLC_RFOs 33087
Core_0_LLC_RFO_hit 1264 LLC_RFO_Hit Ratio: 0.03820
Core_0_LLC_RFO_miss 31823
Core_0_LLC_prefetches 700549
Core_0_LLC_prefetch_hit 26786 LLC_prefetch_Hit Ratio: 0.03824
Core_0_LLC_prefetch_miss 673763
Core_0_LLC_writebacks 429583
Core_0_LLC_writeback_hit 420551 LLC_writeback_Hit Ratio: 0.97897
Core_0_LLC_writeback_miss 9032
Core_0_LLC_prefetch_requested 0
Core_0_LLC_prefetch_issued 0
Core_0_LLC_prefetch_useful 24650 LLC_Useful Ratio: inf
Core_0_LLC_prefetch_useless 2590532
Core_0_LLC_prefetch_late 36816
Core_0_LLC_average_miss_latency 4135.49812

Core_0_major_page_fault 0
Core_0_minor_page_fault 7592

Core_1_instructions 98000002
Core_1_cycles 141502049
Core_1_IPC 0.69257

Core_1_branch_prediction_accuracy 98.31937
Core_1_branch_MPKI 0.51029
Core_1_average_ROB_occupancy_at_mispredict 437.27147

Core_1_L1D_total_access 57130667
Core_1_L1D_total_hit 54883213 L1D_total_Hit Ratio: 0.96066
Core_1_L1D_total_miss 2247454
Core_1_L1D_loads 21241834
Core_1_L1D_load_hit 19974879 L1D_load_Hit Ratio: 0.94036
Core_1_L1D_load_miss 1266955
Core_1_L1D_RFOs 2946802
Core_1_L1D_RFO_hit 2820552 L1D_RFO_Hit Ratio: 0.95716
Core_1_L1D_RFO_miss 126250
Core_1_L1D_prefetches 32942031
Core_1_L1D_prefetch_hit 32087782 L1D_prefetch_Hit Ratio: 0.97407
Core_1_L1D_prefetch_miss 854249
Core_1_L1D_writebacks 0
Core_1_L1D_writeback_hit 0 L1D_writeback_Hit Ratio: -nan
Core_1_L1D_writeback_miss 0
Core_1_L1D_prefetch_requested 67528269
Core_1_L1D_prefetch_issued 40471372
Core_1_L1D_prefetch_useful 703434 L1D_Useful Ratio: 0.01738
Core_1_L1D_prefetch_useless 182817
Core_1_L1D_prefetch_late 214515
Core_1_L1D_average_miss_latency 7635326.42803

Core_1_L1I_total_access 12858179
Core_1_L1I_total_hit 12853406 L1I_total_Hit Ratio: 0.99963
Core_1_L1I_total_miss 4773
Core_1_L1I_loads 12858179
Core_1_L1I_load_hit 12853406 L1I_load_Hit Ratio: 0.99963
Core_1_L1I_load_miss 4773
Core_1_L1I_RFOs 0
Core_1_L1I_RFO_hit 0 L1I_RFO_Hit Ratio: -nan
Core_1_L1I_RFO_miss 0
Core_1_L1I_prefetches 0
Core_1_L1I_prefetch_hit 0 L1I_prefetch_Hit Ratio: -nan
Core_1_L1I_prefetch_miss 0
Core_1_L1I_writebacks 0
Core_1_L1I_writeback_hit 0 L1I_writeback_Hit Ratio: -nan
Core_1_L1I_writeback_miss 0
Core_1_L1I_prefetch_requested 0
Core_1_L1I_prefetch_issued 0
Core_1_L1I_prefetch_useful 0 L1I_Useful Ratio: -nan
Core_1_L1I_prefetch_useless 0
Core_1_L1I_prefetch_late 0
Core_1_L1I_average_miss_latency 1098.38173

Core_1_L2C_total_access 8536822
Core_1_L2C_total_hit 7722613 L2C_total_Hit Ratio: 0.90462
Core_1_L2C_total_miss 814209
Core_1_L2C_loads 1062500
Core_1_L2C_load_hit 851833 L2C_load_Hit Ratio: 0.80173
Core_1_L2C_load_miss 210667
Core_1_L2C_RFOs 125533
Core_1_L2C_RFO_hit 92421 L2C_RFO_Hit Ratio: 0.73623
Core_1_L2C_RFO_miss 33112
Core_1_L2C_prefetches 6666099
Core_1_L2C_prefetch_hit 6095698 L2C_prefetch_Hit Ratio: 0.91443
Core_1_L2C_prefetch_miss 570401
Core_1_L2C_writebacks 682690
Core_1_L2C_writeback_hit 682661 L2C_writeback_Hit Ratio: 0.99996
Core_1_L2C_writeback_miss 29
Core_1_L2C_prefetch_requested 13199371
Core_1_L2C_prefetch_issued 8412299
Core_1_L2C_prefetch_useful 244320 L2C_Useful Ratio: 0.02904
Core_1_L2C_prefetch_useless 338307
Core_1_L2C_prefetch_late 101593
Core_1_L2C_average_miss_latency 1021.70268

Core_1_LLC_total_access 1275301
Core_1_LLC_total_hit 457007 LLC_total_Hit Ratio: 0.35835
Core_1_LLC_total_miss 818294
Core_1_LLC_loads 109851
Core_1_LLC_load_hit 6165 LLC_load_Hit Ratio: 0.05612
Core_1_LLC_load_miss 103686
Core_1_LLC_RFOs 33062
Core_1_LLC_RFO_hit 1043 LLC_RFO_Hit Ratio: 0.03155
Core_1_LLC_RFO_miss 32019
Core_1_LLC_prefetches 701849
Core_1_LLC_prefetch_hit 27592 LLC_prefetch_Hit Ratio: 0.03931
Core_1_LLC_prefetch_miss 674257
Core_1_LLC_writebacks 430539
Core_1_LLC_writeback_hit 422207 LLC_writeback_Hit Ratio: 0.98065
Core_1_LLC_writeback_miss 8332
Core_1_LLC_prefetch_requested 0
Core_1_LLC_prefetch_issued 0
Core_1_LLC_prefetch_useful 24650 LLC_Useful Ratio: inf
Core_1_LLC_prefetch_useless 2590532
Core_1_LLC_prefetch_late 36816
Core_1_LLC_average_miss_latency 4138.90944

Core_1_major_page_fault 0
Core_1_minor_page_fault 7632

Core_2_instructions 98000000
Core_2_cycles 141269296
Core_2_IPC 0.69371

Core_2_branch_prediction_accuracy 98.31690
Core_2_branch_MPKI 0.50946
Core_2_average_ROB_occupancy_at_mispredict 438.01061

Core_2_L1D_total_access 57139803
Core_2_L1D_total_hit 54892469 L1D_total_Hit Ratio: 0.96067
Core_2_L1D_total_miss 2247334
Core_2_L1D_loads 21244005
Core_2_L1D_load_hit 19977799 L1D_load_Hit Ratio: 0.94040
Core_2_L1D_load_miss 1266206
Core_2_L1D_RFOs 2947253
Core_2_L1D_RFO_hit 2820967 L1D_RFO_Hit Ratio: 0.95715
Core_2_L1D_RFO_miss 126286
Core_2_L1D_prefetches 32948545
Core_2_L1D_prefetch_hit 32093703 L1D_prefetch_Hit Ratio: 0.97406
Core_2_L1D_prefetch_miss 854842
Core_2_L1D_writebacks 0
Core_2_L1D_writeback_hit 0 L1D_writeback_Hit Ratio: -nan
Core_2_L1D_writeback_miss 0
Core_2_L1D_prefetch_requested 67864185
Core_2_L1D_prefetch_issued 40657987
Core_2_L1D_prefetch_useful 707433 L1D_Useful Ratio: 0.01740
Core_2_L1D_prefetch_useless 183112
Core_2_L1D_prefetch_late 214670
Core_2_L1D_average_miss_latency 7659457.21463

Core_2_L1I_total_access 12863260
Core_2_L1I_total_hit 12858487 L1I_total_Hit Ratio: 0.99963
Core_2_L1I_total_miss 4773
Core_2_L1I_loads 12863260
Core_2_L1I_load_hit 12858487 L1I_load_Hit Ratio: 0.99963
Core_2_L1I_load_miss 4773
Core_2_L1I_RFOs 0
Core_2_L1I_RFO_hit 0 L1I_RFO_Hit Ratio: -nan
Core_2_L1I_RFO_miss 0
Core_2_L1I_prefetches 0
Core_2_L1I_prefetch_hit 0 L1I_prefetch_Hit Ratio: -nan
Core_2_L1I_prefetch_miss 0
Core_2_L1I_writebacks 0
Core_2_L1I_writeback_hit 0 L1I_writeback_Hit Ratio: -nan
Core_2_L1I_writeback_miss 0
Core_2_L1I_prefetch_requested 0
Core_2_L1I_prefetch_issued 0
Core_2_L1I_prefetch_useful 0 L1I_Useful Ratio: -nan
Core_2_L1I_prefetch_useless 0
Core_2_L1I_prefetch_late 0
Core_2_L1I_average_miss_latency 1217.86906

Core_2_L2C_total_access 8569136
Core_2_L2C_total_hit 7754228 L2C_total_Hit Ratio: 0.90490
Core_2_L2C_total_miss 814908
Core_2_L2C_loads 1062074
Core_2_L2C_load_hit 851356 L2C_load_Hit Ratio: 0.80160
Core_2_L2C_load_miss 210718
Core_2_L2C_RFOs 125582
Core_2_L2C_RFO_hit 92397 L2C_RFO_Hit Ratio: 0.73575
Core_2_L2C_RFO_miss 33185
Core_2_L2C_prefetches 6698815
Core_2_L2C_prefetch_hit 6127822 L2C_prefetch_Hit Ratio: 0.91476
Core_2_L2C_prefetch_miss 570993
Core_2_L2C_writebacks 682665
Core_2_L2C_writeback_hit 682653 L2C_writeback_Hit Ratio: 0.99998
Core_2_L2C_writeback_miss 12
Core_2_L2C_prefetch_requested 13529128
Core_2_L2C_prefetch_issued 8532631
Core_2_L2C_prefetch_useful 245517 L2C_Useful Ratio: 0.02877
Core_2_L2C_prefetch_useless 338597
Core_2_L2C_prefetch_late 101967
Core_2_L2C_average_miss_latency 1012.01074

Core_2_LLC_total_access 1275642
Core_2_LLC_total_hit 456154 LLC_total_Hit Ratio: 0.35759
Core_2_LLC_total_miss 819488
Core_2_LLC_loads 109657
Core_2_LLC_load_hit 6201 LLC_load_Hit Ratio: 0.05655
Core_2_LLC_load_miss 103456
Core_2_LLC_RFOs 33146
Core_2_LLC_RFO_hit 1024 LLC_RFO_Hit Ratio: 0.03089
Core_2_LLC_RFO_miss 32122
Core_2_LLC_prefetches 702305
Core_2_LLC_prefetch_hit 27792 LLC_prefetch_Hit Ratio: 0.03957
Core_2_LLC_prefetch_miss 674513
Core_2_LLC_writebacks 430534
Core_2_LLC_writeback_hit 421137 LLC_writeback_Hit Ratio: 0.97817
Core_2_LLC_writeback_miss 9397
Core_2_LLC_prefetch_requested 0
Core_2_LLC_prefetch_issued 0
Core_2_LLC_prefetch_useful 24650 LLC_Useful Ratio: inf
Core_2_LLC_prefetch_useless 2590532
Core_2_LLC_prefetch_late 36816
Core_2_LLC_average_miss_latency 4132.87902

Core_2_major_page_fault 0
Core_2_minor_page_fault 7634

Core_3_instructions 98000000
Core_3_cycles 142466984
Core_3_IPC 0.68788

Core_3_branch_prediction_accuracy 98.32522
Core_3_branch_MPKI 0.51235
Core_3_average_ROB_occupancy_at_mispredict 435.14417

Core_3_L1D_total_access 57135226
Core_3_L1D_total_hit 54887817 L1D_total_Hit Ratio: 0.96067
Core_3_L1D_total_miss 2247409
Core_3_L1D_loads 21241218
Core_3_L1D_load_hit 19974560 L1D_load_Hit Ratio: 0.94037
Core_3_L1D_load_miss 1266658
Core_3_L1D_RFOs 2947321
Core_3_L1D_RFO_hit 2821115 L1D_RFO_Hit Ratio: 0.95718
Core_3_L1D_RFO_miss 126206
Core_3_L1D_prefetches 32946687
Core_3_L1D_prefetch_hit 32092142 L1D_prefetch_Hit Ratio: 0.97406
Core_3_L1D_prefetch_miss 854545
Core_3_L1D_writebacks 0
Core_3_L1D_writeback_hit 0 L1D_writeback_Hit Ratio: -nan
Core_3_L1D_writeback_miss 0
Core_3_L1D_prefetch_requested 66605331
Core_3_L1D_prefetch_issued 39996173
Core_3_L1D_prefetch_useful 693592 L1D_Useful Ratio: 0.01734
Core_3_L1D_prefetch_useless 181841
Core_3_L1D_prefetch_late 211108
Core_3_L1D_average_miss_latency 7541579.00608

Core_3_L1I_total_access 12861482
Core_3_L1I_total_hit 12856706 L1I_total_Hit Ratio: 0.99963
Core_3_L1I_total_miss 4776
Core_3_L1I_loads 12861482
Core_3_L1I_load_hit 12856706 L1I_load_Hit Ratio: 0.99963
Core_3_L1I_load_miss 4776
Core_3_L1I_RFOs 0
Core_3_L1I_RFO_hit 0 L1I_RFO_Hit Ratio: -nan
Core_3_L1I_RFO_miss 0
Core_3_L1I_prefetches 0
Core_3_L1I_prefetch_hit 0 L1I_prefetch_Hit Ratio: -nan
Core_3_L1I_prefetch_miss 0
Core_3_L1I_writebacks 0
Core_3_L1I_writeback_hit 0 L1I_writeback_Hit Ratio: -nan
Core_3_L1I_writeback_miss 0
Core_3_L1I_prefetch_requested 0
Core_3_L1I_prefetch_issued 0
Core_3_L1I_prefetch_useful 0 L1I_Useful Ratio: -nan
Core_3_L1I_prefetch_useless 0
Core_3_L1I_prefetch_late 0
Core_3_L1I_average_miss_latency 1282.64468

Core_3_L2C_total_access 8511238
Core_3_L2C_total_hit 7696410 L2C_total_Hit Ratio: 0.90426
Core_3_L2C_total_miss 814828
Core_3_L2C_loads 1061951
Core_3_L2C_load_hit 851050 L2C_load_Hit Ratio: 0.80140
Core_3_L2C_load_miss 210901
Core_3_L2C_RFOs 125500
Core_3_L2C_RFO_hit 92636 L2C_RFO_Hit Ratio: 0.73814
Core_3_L2C_RFO_miss 32864
Core_3_L2C_prefetches 6641087
Core_3_L2C_prefetch_hit 6070035 L2C_prefetch_Hit Ratio: 0.91401
Core_3_L2C_prefetch_miss 571052
Core_3_L2C_writebacks 682700
Core_3_L2C_writeback_hit 682689 L2C_writeback_Hit Ratio: 0.99998
Core_3_L2C_writeback_miss 11
Core_3_L2C_prefetch_requested 12801511
Core_3_L2C_prefetch_issued 8225419
Core_3_L2C_prefetch_useful 242704 L2C_Useful Ratio: 0.02951
Core_3_L2C_prefetch_useless 335668
Core_3_L2C_prefetch_late 100552
Core_3_L2C_average_miss_latency 1042.49270

Core_3_LLC_total_access 1274085
Core_3_LLC_total_hit 453630 LLC_total_Hit Ratio: 0.35604
Core_3_LLC_total_miss 820455
Core_3_LLC_loads 110452
Core_3_LLC_load_hit 6282 LLC_load_Hit Ratio: 0.05688
Core_3_LLC_load_miss 104170
Core_3_LLC_RFOs 32835
Core_3_LLC_RFO_hit 1051 LLC_RFO_Hit Ratio: 0.03201
Core_3_LLC_RFO_miss 31784
Core_3_LLC_prefetches 701271
Core_3_LLC_prefetch_hit 26890 LLC_prefetch_Hit Ratio: 0.03834
Core_3_LLC_prefetch_miss 674381
Core_3_LLC_writebacks 429527
Core_3_LLC_writeback_hit 419407 LLC_writeback_Hit Ratio: 0.97644
Core_3_LLC_writeback_miss 10120
Core_3_LLC_prefetch_requested 0
Core_3_LLC_prefetch_issued 0
Core_3_LLC_prefetch_useful 24650 LLC_Useful Ratio: inf
Core_3_LLC_prefetch_useless 2590532
Core_3_LLC_prefetch_late 36816
Core_3_LLC_average_miss_latency 4128.00795

Core_3_major_page_fault 0
Core_3_minor_page_fault 7592

CPU 0 L1D next line prefetcher final stats
CPU 0 L2C PC-based stride prefetcher final stats
Stride Degree: 15
MK1  MARKOV_LRU_SIZE: 128
MK1  MARKOV_PREDICTION_PERCENTTHRESHOLD: 40.00000
MK1  OUTLIERS_THRESHOLD_Max: 64
MK1  OUTLIERS_THRESHOLD_Min: 32
MK2  MARKOV_LRU_SIZE: 256
MK2  MARKOV_PREDICTION_PERCENTTHRESHOLD: 20.00000
MK2  OUTLIERS_THRESHOLD_Max: 32
MK2  OUTLIERS_THRESHOLD_Min: 16
MK3  MARKOV_LRU_SIZE: 384
MK3  MARKOV_PREDICTION_PERCENTTHRESHOLD: 25.00000
MK3  OUTLIERS_THRESHOLD_Max: 16
MK3  OUTLIERS_THRESHOLD_Min: 8
MK4  MARKOV_LRU_SIZE: 512
MK4  MARKOV_PREDICTION_PERCENTTHRESHOLD: 20.00000
MK4  OUTLIERS_THRESHOLD_Max: 8
MK4  OUTLIERS_THRESHOLD_Min: 0
IPStride Degree/Access Ratio: 2.90206
MK1 IPDEltaMarkov  Degree/Access Ratio: 0.30331
MK2 IPDEltaMarkov  Degree/Access Ratio: 0.76895
MK3 IPDEltaMarkov  Degree/Access Ratio: 0.90606
MK4 IPDEltaMarkov  Degree/Access Ratio: 1.51552
CPU 1 L1D next line prefetcher final stats
CPU 1 L2C PC-based stride prefetcher final stats
Stride Degree: 15
MK1  MARKOV_LRU_SIZE: 128
MK1  MARKOV_PREDICTION_PERCENTTHRESHOLD: 40.00000
MK1  OUTLIERS_THRESHOLD_Max: 64
MK1  OUTLIERS_THRESHOLD_Min: 32
MK2  MARKOV_LRU_SIZE: 256
MK2  MARKOV_PREDICTION_PERCENTTHRESHOLD: 20.00000
MK2  OUTLIERS_THRESHOLD_Max: 32
MK2  OUTLIERS_THRESHOLD_Min: 16
MK3  MARKOV_LRU_SIZE: 384
MK3  MARKOV_PREDICTION_PERCENTTHRESHOLD: 25.00000
MK3  OUTLIERS_THRESHOLD_Max: 16
MK3  OUTLIERS_THRESHOLD_Min: 8
MK4  MARKOV_LRU_SIZE: 512
MK4  MARKOV_PREDICTION_PERCENTTHRESHOLD: 20.00000
MK4  OUTLIERS_THRESHOLD_Max: 8
MK4  OUTLIERS_THRESHOLD_Min: 0
IPStride Degree/Access Ratio: 2.90206
MK1 IPDEltaMarkov  Degree/Access Ratio: 0.30331
MK2 IPDEltaMarkov  Degree/Access Ratio: 0.76895
MK3 IPDEltaMarkov  Degree/Access Ratio: 0.90606
MK4 IPDEltaMarkov  Degree/Access Ratio: 1.51552
CPU 2 L1D next line prefetcher final stats
CPU 2 L2C PC-based stride prefetcher final stats
Stride Degree: 15
MK1  MARKOV_LRU_SIZE: 128
MK1  MARKOV_PREDICTION_PERCENTTHRESHOLD: 40.00000
MK1  OUTLIERS_THRESHOLD_Max: 64
MK1  OUTLIERS_THRESHOLD_Min: 32
MK2  MARKOV_LRU_SIZE: 256
MK2  MARKOV_PREDICTION_PERCENTTHRESHOLD: 20.00000
MK2  OUTLIERS_THRESHOLD_Max: 32
MK2  OUTLIERS_THRESHOLD_Min: 16
MK3  MARKOV_LRU_SIZE: 384
MK3  MARKOV_PREDICTION_PERCENTTHRESHOLD: 25.00000
MK3  OUTLIERS_THRESHOLD_Max: 16
MK3  OUTLIERS_THRESHOLD_Min: 8
MK4  MARKOV_LRU_SIZE: 512
MK4  MARKOV_PREDICTION_PERCENTTHRESHOLD: 20.00000
MK4  OUTLIERS_THRESHOLD_Max: 8
MK4  OUTLIERS_THRESHOLD_Min: 0
IPStride Degree/Access Ratio: 2.90206
MK1 IPDEltaMarkov  Degree/Access Ratio: 0.30331
MK2 IPDEltaMarkov  Degree/Access Ratio: 0.76895
MK3 IPDEltaMarkov  Degree/Access Ratio: 0.90606
MK4 IPDEltaMarkov  Degree/Access Ratio: 1.51552
CPU 3 L1D next line prefetcher final stats
CPU 3 L2C PC-based stride prefetcher final stats
Stride Degree: 15
MK1  MARKOV_LRU_SIZE: 128
MK1  MARKOV_PREDICTION_PERCENTTHRESHOLD: 40.00000
MK1  OUTLIERS_THRESHOLD_Max: 64
MK1  OUTLIERS_THRESHOLD_Min: 32
MK2  MARKOV_LRU_SIZE: 256
MK2  MARKOV_PREDICTION_PERCENTTHRESHOLD: 20.00000
MK2  OUTLIERS_THRESHOLD_Max: 32
MK2  OUTLIERS_THRESHOLD_Min: 16
MK3  MARKOV_LRU_SIZE: 384
MK3  MARKOV_PREDICTION_PERCENTTHRESHOLD: 25.00000
MK3  OUTLIERS_THRESHOLD_Max: 16
MK3  OUTLIERS_THRESHOLD_Min: 8
MK4  MARKOV_LRU_SIZE: 512
MK4  MARKOV_PREDICTION_PERCENTTHRESHOLD: 20.00000
MK4  OUTLIERS_THRESHOLD_Max: 8
MK4  OUTLIERS_THRESHOLD_Min: 0
IPStride Degree/Access Ratio: 2.90206
MK1 IPDEltaMarkov  Degree/Access Ratio: 0.30331
MK2 IPDEltaMarkov  Degree/Access Ratio: 0.76895
MK3 IPDEltaMarkov  Degree/Access Ratio: 0.90606
MK4 IPDEltaMarkov  Degree/Access Ratio: 1.51552
Channel_0_RQ_row_buffer_hit 1659217
Channel_0_RQ_row_buffer_miss 1594883
Channel_0_WQ_row_buffer_hit 600688
Channel_0_WQ_row_buffer_miss 1101705
Channel_0_WQ_full 3974
Channel_0_dbus_congested 4095408

avg_congested_cycle 11

EzSearch AVG IPC :0.68782: L2-Pf-HR :0.91393 : L2-HR :0.90418 Uful:0.02948
EzSearch AVG IPC :0.69257: L2-Pf-HR :0.91443 : L2-HR :0.90536 Uful:0.02904
EzSearch AVG IPC :0.69371: L2-Pf-HR :0.91476 : L2-HR :0.90625 Uful:0.02877
EzSearch AVG IPC :0.68788: L2-Pf-HR :0.91401 : L2-HR :0.90428 Uful:0.02951
     > Finished combination: TraceType=770-tot Sim:98000000 Prefetcher=L2029-SecTOP-L2-MultiMarkovDelta_ip_stride_v4 L1=next_line
