TRACE: [125000000][OPT-125M]_[h12][s512][d64] Warmup: 2000000 NumTraces: 125000000
L1:berti:L2:berti
*************************************************
   ChampSim Multicore Out-of-Order Simulator
   Last compiled: Oct 28 2024 06:00:55
*************************************************

trace_0 770-tot_memTraces_v3/memTraces[125000000][OPT-125M]_[h12][s512][d64].champsim.xz
trace_1 770-tot_memTraces_v3/memTraces[125000000][OPT-125M]_[h12][s512][d64].champsim.xz
trace_2 770-tot_memTraces_v3/memTraces[125000000][OPT-125M]_[h12][s512][d64].champsim.xz
trace_3 770-tot_memTraces_v3/memTraces[125000000][OPT-125M]_[h12][s512][d64].champsim.xz
CPU 0 L1D Berti prefetcher
CPU 0 L2C Berti prefetcher
CPU 1 L1D Berti prefetcher
CPU 1 L2C Berti prefetcher
CPU 2 L1D Berti prefetcher
CPU 2 L2C Berti prefetcher
CPU 3 L1D Berti prefetcher
CPU 3 L2C Berti prefetcher
MAIN.cc ln 751 stats print skipped
CPU  0 inst:    1000001 cyc:     499809 now IPC :2.00077: AVG IPC :2.00077: L2-Pf-HR :0.66318: L2-HR :0.67194: (Sim:0h0m57s) 
CPU  1 inst:    1000001 cyc:     499868 now IPC :2.00053: AVG IPC :2.00053: L2-Pf-HR :0.66068: L2-HR :0.67026: (Sim:0h0m57s) 
CPU  2 inst:    1000001 cyc:     499880 now IPC :2.00048: AVG IPC :2.00048: L2-Pf-HR :0.66540: L2-HR :0.67121: (Sim:0h0m57s) 
CPU  3 inst:    1000001 cyc:     500100 now IPC :1.99960: AVG IPC :1.99960: L2-Pf-HR :0.66262: L2-HR :0.67143: (Sim:0h0m57s) 
CPU  0 inst:    2000000 cyc:     982669 now IPC :2.07099: AVG IPC :2.03527: L2-Pf-HR :0.74324: L2-HR :0.75094: (Sim:0h1m58s) 
CPU  1 inst:    2000000 cyc:     982748 now IPC :2.07091: AVG IPC :2.03511: L2-Pf-HR :0.74551: L2-HR :0.75352: (Sim:0h1m58s) 
CPU  2 inst:    2000000 cyc:     982756 now IPC :2.07092: AVG IPC :2.03509: L2-Pf-HR :0.74652: L2-HR :0.75218: (Sim:0h1m58s) 
CPU  3 inst:    2000000 cyc:     982899 now IPC :2.07125: AVG IPC :2.03480: L2-Pf-HR :0.73246: L2-HR :0.74219: (Sim:0h1m58s) 

Warmup complete CPU  0 instructions:    2000429 cycles:     982900 (Simulation time: 0 hr 1 min 58 sec) 
Warmup complete CPU  1 instructions:    2000282 cycles:     982900 (Simulation time: 0 hr 1 min 58 sec) 
Warmup complete CPU  2 instructions:    2000282 cycles:     982900 (Simulation time: 0 hr 1 min 58 sec) 
Warmup complete CPU  3 instructions:    2000003 cycles:     982900 (Simulation time: 0 hr 1 min 58 sec) 

CPU  2 inst:    3000004 cyc:    1524720 now IPC :1.84515: AVG IPC :1.84512: L2-Pf-HR :0.88417: L2-HR :0.88001: (Sim:0h2m51s) 
CPU  3 inst:    3000004 cyc:    1526342 now IPC :1.84013: AVG IPC :1.84012: L2-Pf-HR :0.86532: L2-HR :0.86096: (Sim:0h2m51s) 
CPU  0 inst:    3000004 cyc:    1538220 now IPC :1.80002: AVG IPC :1.80000: L2-Pf-HR :0.86582: L2-HR :0.86495: (Sim:0h2m52s) 
CPU  1 inst:    3000004 cyc:    1542000 now IPC :1.78811: AVG IPC :1.78809: L2-Pf-HR :0.88294: L2-HR :0.87874: (Sim:0h2m52s) 
CPU  2 inst:    4000004 cyc:    2104019 now IPC :1.72622: AVG IPC :1.78368: L2-Pf-HR :0.86323: L2-HR :0.86490: (Sim:0h3m36s) 
CPU  1 inst:    4000004 cyc:    2127566 now IPC :1.70775: AVG IPC :1.74699: L2-Pf-HR :0.85853: L2-HR :0.86089: (Sim:0h3m38s) 
CPU  0 inst:    4000004 cyc:    2127621 now IPC :1.69664: AVG IPC :1.74678: L2-Pf-HR :0.85171: L2-HR :0.85521: (Sim:0h3m38s) 
DEADLOCK! CPU 3 instr_id: 3191390 translated: 2 fetched: 2 scheduled: 2 executed: 1 is_memory: 1 event: 1629585 current: 2629585

Load Queue Entry
[LQ] entry: 0 instr_id: 0 address: 0 translated: 0 fetched: 0
[LQ] entry: 1 instr_id: 0 address: 0 translated: 0 fetched: 0
[LQ] entry: 2 instr_id: 0 address: 0 translated: 0 fetched: 0
[LQ] entry: 3 instr_id: 0 address: 0 translated: 0 fetched: 0
[LQ] entry: 4 instr_id: 0 address: 0 translated: 0 fetched: 0
[LQ] entry: 5 instr_id: 0 address: 0 translated: 0 fetched: 0
[LQ] entry: 6 instr_id: 0 address: 0 translated: 0 fetched: 0
[LQ] entry: 7 instr_id: 0 address: 0 translated: 0 fetched: 0
[LQ] entry: 8 instr_id: 0 address: 0 translated: 0 fetched: 0
[LQ] entry: 9 instr_id: 0 address: 0 translated: 0 fetched: 0
[LQ] entry: 10 instr_id: 0 address: 0 translated: 0 fetched: 0
[LQ] entry: 11 instr_id: 0 address: 0 translated: 0 fetched: 0
[LQ] entry: 12 instr_id: 0 address: 0 translated: 0 fetched: 0
[LQ] entry: 13 instr_id: 0 address: 0 translated: 0 fetched: 0
[LQ] entry: 14 instr_id: 0 address: 0 translated: 0 fetched: 0
[LQ] entry: 15 instr_id: 0 address: 0 translated: 0 fetched: 0
[LQ] entry: 16 instr_id: 0 address: 0 translated: 0 fetched: 0
[LQ] entry: 17 instr_id: 0 address: 0 translated: 0 fetched: 0
[LQ] entry: 18 instr_id: 0 address: 0 translated: 0 fetched: 0
[LQ] entry: 19 instr_id: 0 address: 0 translated: 0 fetched: 0
[LQ] entry: 20 instr_id: 0 address: 0 translated: 0 fetched: 0
[LQ] entry: 21 instr_id: 0 address: 0 translated: 0 fetched: 0
[LQ] entry: 22 instr_id: 0 address: 0 translated: 0 fetched: 0
[LQ] entry: 23 instr_id: 0 address: 0 translated: 0 fetched: 0
[LQ] entry: 24 instr_id: 0 address: 0 translated: 0 fetched: 0
[LQ] entry: 25 instr_id: 0 address: 0 translated: 0 fetched: 0
[LQ] entry: 26 instr_id: 3191521 address: fafbfac3fed0 translated: 2 fetched: 0
[LQ] entry: 27 instr_id: 0 address: 0 translated: 0 fetched: 0
[LQ] entry: 28 instr_id: 0 address: 0 translated: 0 fetched: 0
[LQ] entry: 29 instr_id: 0 address: 0 translated: 0 fetched: 0
[LQ] entry: 30 instr_id: 0 address: 0 translated: 0 fetched: 0
[LQ] entry: 31 instr_id: 0 address: 0 translated: 0 fetched: 0
[LQ] entry: 32 instr_id: 0 address: 0 translated: 0 fetched: 0
[LQ] entry: 33 instr_id: 0 address: 0 translated: 0 fetched: 0
[LQ] entry: 34 instr_id: 0 address: 0 translated: 0 fetched: 0
[LQ] entry: 35 instr_id: 0 address: 0 translated: 0 fetched: 0
[LQ] entry: 36 instr_id: 3191495 address: fafbfac3fec0 translated: 2 fetched: 0
[LQ] entry: 37 instr_id: 0 address: 0 translated: 0 fetched: 0
[LQ] entry: 38 instr_id: 0 address: 0 translated: 0 fetched: 0
[LQ] entry: 39 instr_id: 0 address: 0 translated: 0 fetched: 0
[LQ] entry: 40 instr_id: 0 address: 0 translated: 0 fetched: 0
[LQ] entry: 41 instr_id: 0 address: 0 translated: 0 fetched: 0
[LQ] entry: 42 instr_id: 0 address: 0 translated: 0 fetched: 0
[LQ] entry: 43 instr_id: 3191547 address: fafbfac3fee0 translated: 2 fetched: 0
[LQ] entry: 44 instr_id: 0 address: 0 translated: 0 fetched: 0
[LQ] entry: 45 instr_id: 0 address: 0 translated: 0 fetched: 0
[LQ] entry: 46 instr_id: 0 address: 0 translated: 0 fetched: 0
[LQ] entry: 47 instr_id: 0 address: 0 translated: 0 fetched: 0
[LQ] entry: 48 instr_id: 0 address: 0 translated: 0 fetched: 0
[LQ] entry: 49 instr_id: 0 address: 0 translated: 0 fetched: 0
[LQ] entry: 50 instr_id: 0 address: 0 translated: 0 fetched: 0
[LQ] entry: 51 instr_id: 0 address: 0 translated: 0 fetched: 0
[LQ] entry: 52 instr_id: 0 address: 0 translated: 0 fetched: 0
[LQ] entry: 53 instr_id: 0 address: 0 translated: 0 fetched: 0
[LQ] entry: 54 instr_id: 0 address: 0 translated: 0 fetched: 0
[LQ] entry: 55 instr_id: 0 address: 0 translated: 0 fetched: 0
[LQ] entry: 56 instr_id: 0 address: 0 translated: 0 fetched: 0
[LQ] entry: 57 instr_id: 0 address: 0 translated: 0 fetched: 0
[LQ] entry: 58 instr_id: 0 address: 0 translated: 0 fetched: 0
[LQ] entry: 59 instr_id: 0 address: 0 translated: 0 fetched: 0
[LQ] entry: 60 instr_id: 0 address: 0 translated: 0 fetched: 0
[LQ] entry: 61 instr_id: 0 address: 0 translated: 0 fetched: 0
[LQ] entry: 62 instr_id: 0 address: 0 translated: 0 fetched: 0
[LQ] entry: 63 instr_id: 0 address: 0 translated: 0 fetched: 0
[LQ] entry: 64 instr_id: 0 address: 0 translated: 0 fetched: 0
[LQ] entry: 65 instr_id: 0 address: 0 translated: 0 fetched: 0
[LQ] entry: 66 instr_id: 3191573 address: fafbfac3fef0 translated: 2 fetched: 0
[LQ] entry: 67 instr_id: 0 address: 0 translated: 0 fetched: 0
[LQ] entry: 68 instr_id: 0 address: 0 translated: 0 fetched: 0
[LQ] entry: 69 instr_id: 0 address: 0 translated: 0 fetched: 0
[LQ] entry: 70 instr_id: 0 address: 0 translated: 0 fetched: 0
[LQ] entry: 71 instr_id: 0 address: 0 translated: 0 fetched: 0
[LQ] entry: 72 instr_id: 0 address: 0 translated: 0 fetched: 0
[LQ] entry: 73 instr_id: 0 address: 0 translated: 0 fetched: 0
[LQ] entry: 74 instr_id: 0 address: 0 translated: 0 fetched: 0
[LQ] entry: 75 instr_id: 0 address: 0 translated: 0 fetched: 0
[LQ] entry: 76 instr_id: 0 address: 0 translated: 0 fetched: 0
[LQ] entry: 77 instr_id: 0 address: 0 translated: 0 fetched: 0
[LQ] entry: 78 instr_id: 0 address: 0 translated: 0 fetched: 0
[LQ] entry: 79 instr_id: 0 address: 0 translated: 0 fetched: 0
[LQ] entry: 80 instr_id: 0 address: 0 translated: 0 fetched: 0
[LQ] entry: 81 instr_id: 0 address: 0 translated: 0 fetched: 0
[LQ] entry: 82 instr_id: 3191390 address: fafbfac3fec0 translated: 2 fetched: 0
[LQ] entry: 83 instr_id: 0 address: 0 translated: 0 fetched: 0
[LQ] entry: 84 instr_id: 0 address: 0 translated: 0 fetched: 0
[LQ] entry: 85 instr_id: 0 address: 0 translated: 0 fetched: 0
[LQ] entry: 86 instr_id: 0 address: 0 translated: 0 fetched: 0
[LQ] entry: 87 instr_id: 0 address: 0 translated: 0 fetched: 0
[LQ] entry: 88 instr_id: 0 address: 0 translated: 0 fetched: 0
[LQ] entry: 89 instr_id: 0 address: 0 translated: 0 fetched: 0
[LQ] entry: 90 instr_id: 0 address: 0 translated: 0 fetched: 0
[LQ] entry: 91 instr_id: 0 address: 0 translated: 0 fetched: 0
[LQ] entry: 92 instr_id: 0 address: 0 translated: 0 fetched: 0
[LQ] entry: 93 instr_id: 0 address: 0 translated: 0 fetched: 0
[LQ] entry: 94 instr_id: 0 address: 0 translated: 0 fetched: 0
[LQ] entry: 95 instr_id: 0 address: 0 translated: 0 fetched: 0
[LQ] entry: 96 instr_id: 0 address: 0 translated: 0 fetched: 0
[LQ] entry: 97 instr_id: 0 address: 0 translated: 0 fetched: 0
[LQ] entry: 98 instr_id: 0 address: 0 translated: 0 fetched: 0
[LQ] entry: 99 instr_id: 3191416 address: fafbfac3fed0 translated: 2 fetched: 0
[LQ] entry: 100 instr_id: 0 address: 0 translated: 0 fetched: 0
[LQ] entry: 101 instr_id: 0 address: 0 translated: 0 fetched: 0
[LQ] entry: 102 instr_id: 0 address: 0 translated: 0 fetched: 0
[LQ] entry: 103 instr_id: 0 address: 0 translated: 0 fetched: 0
[LQ] entry: 104 instr_id: 0 address: 0 translated: 0 fetched: 0
[LQ] entry: 105 instr_id: 0 address: 0 translated: 0 fetched: 0
[LQ] entry: 106 instr_id: 0 address: 0 translated: 0 fetched: 0
[LQ] entry: 107 instr_id: 0 address: 0 translated: 0 fetched: 0
[LQ] entry: 108 instr_id: 0 address: 0 translated: 0 fetched: 0
[LQ] entry: 109 instr_id: 0 address: 0 translated: 0 fetched: 0
[LQ] entry: 110 instr_id: 0 address: 0 translated: 0 fetched: 0
[LQ] entry: 111 instr_id: 0 address: 0 translated: 0 fetched: 0
[LQ] entry: 112 instr_id: 0 address: 0 translated: 0 fetched: 0
[LQ] entry: 113 instr_id: 0 address: 0 translated: 0 fetched: 0
[LQ] entry: 114 instr_id: 0 address: 0 translated: 0 fetched: 0
[LQ] entry: 115 instr_id: 0 address: 0 translated: 0 fetched: 0
[LQ] entry: 116 instr_id: 3191442 address: fafbfac3fee0 translated: 2 fetched: 0
[LQ] entry: 117 instr_id: 0 address: 0 translated: 0 fetched: 0
[LQ] entry: 118 instr_id: 0 address: 0 translated: 0 fetched: 0
[LQ] entry: 119 instr_id: 0 address: 0 translated: 0 fetched: 0
[LQ] entry: 120 instr_id: 0 address: 0 translated: 0 fetched: 0
[LQ] entry: 121 instr_id: 0 address: 0 translated: 0 fetched: 0
[LQ] entry: 122 instr_id: 0 address: 0 translated: 0 fetched: 0
[LQ] entry: 123 instr_id: 0 address: 0 translated: 0 fetched: 0
[LQ] entry: 124 instr_id: 0 address: 0 translated: 0 fetched: 0
[LQ] entry: 125 instr_id: 0 address: 0 translated: 0 fetched: 0
[LQ] entry: 126 instr_id: 0 address: 0 translated: 0 fetched: 0
[LQ] entry: 127 instr_id: 0 address: 0 translated: 0 fetched: 0
[LQ] entry: 128 instr_id: 0 address: 0 translated: 0 fetched: 0
[LQ] entry: 129 instr_id: 0 address: 0 translated: 0 fetched: 0
[LQ] entry: 130 instr_id: 0 address: 0 translated: 0 fetched: 0
[LQ] entry: 131 instr_id: 0 address: 0 translated: 0 fetched: 0
[LQ] entry: 132 instr_id: 0 address: 0 translated: 0 fetched: 0
[LQ] entry: 133 instr_id: 3191468 address: fafbfac3fef0 translated: 2 fetched: 0
[LQ] entry: 134 instr_id: 0 address: 0 translated: 0 fetched: 0
[LQ] entry: 135 instr_id: 0 address: 0 translated: 0 fetched: 0
[LQ] entry: 136 instr_id: 0 address: 0 translated: 0 fetched: 0
[LQ] entry: 137 instr_id: 0 address: 0 translated: 0 fetched: 0
[LQ] entry: 138 instr_id: 0 address: 0 translated: 0 fetched: 0
[LQ] entry: 139 instr_id: 0 address: 0 translated: 0 fetched: 0
[LQ] entry: 140 instr_id: 0 address: 0 translated: 0 fetched: 0
[LQ] entry: 141 instr_id: 0 address: 0 translated: 0 fetched: 0
[LQ] entry: 142 instr_id: 0 address: 0 translated: 0 fetched: 0
[LQ] entry: 143 instr_id: 0 address: 0 translated: 0 fetched: 0
[LQ] entry: 144 instr_id: 0 address: 0 translated: 0 fetched: 0
[LQ] entry: 145 instr_id: 0 address: 0 translated: 0 fetched: 0
[LQ] entry: 146 instr_id: 0 address: 0 translated: 0 fetched: 0
[LQ] entry: 147 instr_id: 0 address: 0 translated: 0 fetched: 0

Store Queue Entry
[SQ] entry: 0 instr_id: 0 address: 0 translated: 0 fetched: 0
[SQ] entry: 1 instr_id: 0 address: 0 translated: 0 fetched: 0
[SQ] entry: 2 instr_id: 0 address: 0 translated: 0 fetched: 0
[SQ] entry: 3 instr_id: 0 address: 0 translated: 0 fetched: 0
[SQ] entry: 4 instr_id: 0 address: 0 translated: 0 fetched: 0
[SQ] entry: 5 instr_id: 0 address: 0 translated: 0 fetched: 0
[SQ] entry: 6 instr_id: 0 address: 0 translated: 0 fetched: 0
[SQ] entry: 7 instr_id: 0 address: 0 translated: 0 fetched: 0
[SQ] entry: 8 instr_id: 0 address: 0 translated: 0 fetched: 0
[SQ] entry: 9 instr_id: 0 address: 0 translated: 0 fetched: 0
[SQ] entry: 10 instr_id: 0 address: 0 translated: 0 fetched: 0
[SQ] entry: 11 instr_id: 0 address: 0 translated: 0 fetched: 0
[SQ] entry: 12 instr_id: 0 address: 0 translated: 0 fetched: 0
[SQ] entry: 13 instr_id: 0 address: 0 translated: 0 fetched: 0
[SQ] entry: 14 instr_id: 0 address: 0 translated: 0 fetched: 0
[SQ] entry: 15 instr_id: 0 address: 0 translated: 0 fetched: 0
[SQ] entry: 16 instr_id: 0 address: 0 translated: 0 fetched: 0
[SQ] entry: 17 instr_id: 0 address: 0 translated: 0 fetched: 0
[SQ] entry: 18 instr_id: 0 address: 0 translated: 0 fetched: 0
[SQ] entry: 19 instr_id: 0 address: 0 translated: 0 fetched: 0
[SQ] entry: 20 instr_id: 0 address: 0 translated: 0 fetched: 0
[SQ] entry: 21 instr_id: 0 address: 0 translated: 0 fetched: 0
[SQ] entry: 22 instr_id: 0 address: 0 translated: 0 fetched: 0
[SQ] entry: 23 instr_id: 0 address: 0 translated: 0 fetched: 0
[SQ] entry: 24 instr_id: 0 address: 0 translated: 0 fetched: 0
[SQ] entry: 25 instr_id: 0 address: 0 translated: 0 fetched: 0
[SQ] entry: 26 instr_id: 0 address: 0 translated: 0 fetched: 0
[SQ] entry: 27 instr_id: 0 address: 0 translated: 0 fetched: 0
[SQ] entry: 28 instr_id: 0 address: 0 translated: 0 fetched: 0
[SQ] entry: 29 instr_id: 0 address: 0 translated: 0 fetched: 0
[SQ] entry: 30 instr_id: 0 address: 0 translated: 0 fetched: 0
[SQ] entry: 31 instr_id: 0 address: 0 translated: 0 fetched: 0
[SQ] entry: 32 instr_id: 0 address: 0 translated: 0 fetched: 0
[SQ] entry: 33 instr_id: 0 address: 0 translated: 0 fetched: 0
[SQ] entry: 34 instr_id: 0 address: 0 translated: 0 fetched: 0
[SQ] entry: 35 instr_id: 0 address: 0 translated: 0 fetched: 0
[SQ] entry: 36 instr_id: 0 address: 0 translated: 0 fetched: 0
[SQ] entry: 37 instr_id: 0 address: 0 translated: 0 fetched: 0
[SQ] entry: 38 instr_id: 0 address: 0 translated: 0 fetched: 0
[SQ] entry: 39 instr_id: 0 address: 0 translated: 0 fetched: 0
[SQ] entry: 40 instr_id: 0 address: 0 translated: 0 fetched: 0
[SQ] entry: 41 instr_id: 0 address: 0 translated: 0 fetched: 0
[SQ] entry: 42 instr_id: 0 address: 0 translated: 0 fetched: 0
[SQ] entry: 43 instr_id: 0 address: 0 translated: 0 fetched: 0
[SQ] entry: 44 instr_id: 0 address: 0 translated: 0 fetched: 0
[SQ] entry: 45 instr_id: 0 address: 0 translated: 0 fetched: 0
[SQ] entry: 46 instr_id: 0 address: 0 translated: 0 fetched: 0
[SQ] entry: 47 instr_id: 0 address: 0 translated: 0 fetched: 0
[SQ] entry: 48 instr_id: 0 address: 0 translated: 0 fetched: 0
[SQ] entry: 49 instr_id: 0 address: 0 translated: 0 fetched: 0
[SQ] entry: 50 instr_id: 0 address: 0 translated: 0 fetched: 0
[SQ] entry: 51 instr_id: 0 address: 0 translated: 0 fetched: 0
[SQ] entry: 52 instr_id: 0 address: 0 translated: 0 fetched: 0
[SQ] entry: 53 instr_id: 0 address: 0 translated: 0 fetched: 0
[SQ] entry: 54 instr_id: 0 address: 0 translated: 0 fetched: 0
[SQ] entry: 55 instr_id: 0 address: 0 translated: 0 fetched: 0
[SQ] entry: 56 instr_id: 0 address: 0 translated: 0 fetched: 0
[SQ] entry: 57 instr_id: 0 address: 0 translated: 0 fetched: 0
[SQ] entry: 58 instr_id: 0 address: 0 translated: 0 fetched: 0
[SQ] entry: 59 instr_id: 0 address: 0 translated: 0 fetched: 0
[SQ] entry: 60 instr_id: 0 address: 0 translated: 0 fetched: 0
[SQ] entry: 61 instr_id: 0 address: 0 translated: 0 fetched: 0
[SQ] entry: 62 instr_id: 0 address: 0 translated: 0 fetched: 0
[SQ] entry: 63 instr_id: 0 address: 0 translated: 0 fetched: 0
[SQ] entry: 64 instr_id: 3191403 address: 944aa64d7000 translated: 2 fetched: 0
[SQ] entry: 65 instr_id: 3191404 address: 944aa64d7010 translated: 2 fetched: 0
[SQ] entry: 66 instr_id: 3191405 address: 944aa64d7020 translated: 2 fetched: 0
[SQ] entry: 67 instr_id: 3191406 address: 944aa64d7030 translated: 2 fetched: 0
[SQ] entry: 68 instr_id: 3191429 address: 944aa64d7040 translated: 2 fetched: 0
[SQ] entry: 69 instr_id: 3191430 address: 944aa64d7050 translated: 2 fetched: 0
[SQ] entry: 70 instr_id: 3191431 address: 944aa64d7060 translated: 2 fetched: 0
[SQ] entry: 71 instr_id: 3191432 address: 944aa64d7070 translated: 2 fetched: 0
[SQ] entry: 72 instr_id: 3191455 address: 944aa64d7080 translated: 2 fetched: 0
[SQ] entry: 73 instr_id: 3191456 address: 944aa64d7090 translated: 2 fetched: 0
[SQ] entry: 74 instr_id: 3191457 address: 944aa64d70a0 translated: 2 fetched: 0
[SQ] entry: 75 instr_id: 3191458 address: 944aa64d70b0 translated: 2 fetched: 0
[SQ] entry: 76 instr_id: 3191481 address: 944aa64d70c0 translated: 2 fetched: 0
[SQ] entry: 77 instr_id: 3191482 address: 944aa64d70d0 translated: 2 fetched: 0
[SQ] entry: 78 instr_id: 3191483 address: 944aa64d70e0 translated: 2 fetched: 0
[SQ] entry: 79 instr_id: 3191484 address: 944aa64d70f0 translated: 2 fetched: 0
[SQ] entry: 80 instr_id: 0 address: 0 translated: 0 fetched: 0
[SQ] entry: 81 instr_id: 0 address: 0 translated: 0 fetched: 0
[SQ] entry: 82 instr_id: 0 address: 0 translated: 0 fetched: 0
[SQ] entry: 83 instr_id: 0 address: 0 translated: 0 fetched: 0
[SQ] entry: 84 instr_id: 0 address: 0 translated: 0 fetched: 0
[SQ] entry: 85 instr_id: 0 address: 0 translated: 0 fetched: 0
[SQ] entry: 86 instr_id: 0 address: 0 translated: 0 fetched: 0
[SQ] entry: 87 instr_id: 0 address: 0 translated: 0 fetched: 0
[SQ] entry: 88 instr_id: 0 address: 0 translated: 0 fetched: 0
[SQ] entry: 89 instr_id: 0 address: 0 translated: 0 fetched: 0
[SQ] entry: 90 instr_id: 0 address: 0 translated: 0 fetched: 0
[SQ] entry: 91 instr_id: 0 address: 0 translated: 0 fetched: 0
[SQ] entry: 92 instr_id: 0 address: 0 translated: 0 fetched: 0
[SQ] entry: 93 instr_id: 0 address: 0 translated: 0 fetched: 0
[SQ] entry: 94 instr_id: 0 address: 0 translated: 0 fetched: 0
[SQ] entry: 95 instr_id: 0 address: 0 translated: 0 fetched: 0
[SQ] entry: 96 instr_id: 0 address: 0 translated: 0 fetched: 0
[SQ] entry: 97 instr_id: 0 address: 0 translated: 0 fetched: 0
[SQ] entry: 98 instr_id: 0 address: 0 translated: 0 fetched: 0
[SQ] entry: 99 instr_id: 0 address: 0 translated: 0 fetched: 0
[SQ] entry: 100 instr_id: 0 address: 0 translated: 0 fetched: 0
[SQ] entry: 101 instr_id: 0 address: 0 translated: 0 fetched: 0
[SQ] entry: 102 instr_id: 0 address: 0 translated: 0 fetched: 0
[SQ] entry: 103 instr_id: 0 address: 0 translated: 0 fetched: 0
[SQ] entry: 104 instr_id: 0 address: 0 translated: 0 fetched: 0
[SQ] entry: 105 instr_id: 0 address: 0 translated: 0 fetched: 0

L1D_MSHR Entry
[L1D_MSHR] entry: 0 instr_id: 3191390 rob_index: 422 address: 3ebefeb0ffb full_addr: fafbfac3fec0 type: 0 fill_level: 1 lq_index: 82 sq_index: 0
[L1D_MSHR] entry: 1 instr_id: 0 rob_index: -1 address: 0 full_addr: 0 type: 0 fill_level: -1 lq_index: 0 sq_index: 0
[L1D_MSHR] entry: 2 instr_id: 0 rob_index: -1 address: 0 full_addr: 0 type: 0 fill_level: -1 lq_index: 0 sq_index: 0
[L1D_MSHR] entry: 3 instr_id: 0 rob_index: -1 address: 0 full_addr: 0 type: 0 fill_level: -1 lq_index: 0 sq_index: 0
[L1D_MSHR] entry: 4 instr_id: 0 rob_index: -1 address: 0 full_addr: 0 type: 0 fill_level: -1 lq_index: 0 sq_index: 0
[L1D_MSHR] entry: 5 instr_id: 0 rob_index: -1 address: 0 full_addr: 0 type: 0 fill_level: -1 lq_index: 0 sq_index: 0
[L1D_MSHR] entry: 6 instr_id: 0 rob_index: -1 address: 0 full_addr: 0 type: 0 fill_level: -1 lq_index: 0 sq_index: 0
[L1D_MSHR] entry: 7 instr_id: 0 rob_index: -1 address: 0 full_addr: 0 type: 0 fill_level: -1 lq_index: 0 sq_index: 0
[L1D_MSHR] entry: 8 instr_id: 0 rob_index: -1 address: 0 full_addr: 0 type: 0 fill_level: -1 lq_index: 0 sq_index: 0
[L1D_MSHR] entry: 9 instr_id: 0 rob_index: -1 address: 0 full_addr: 0 type: 0 fill_level: -1 lq_index: 0 sq_index: 0
[L1D_MSHR] entry: 10 instr_id: 0 rob_index: -1 address: 0 full_addr: 0 type: 0 fill_level: -1 lq_index: 0 sq_index: 0
[L1D_MSHR] entry: 11 instr_id: 0 rob_index: -1 address: 0 full_addr: 0 type: 0 fill_level: -1 lq_index: 0 sq_index: 0
[L1D_MSHR] entry: 12 instr_id: 0 rob_index: -1 address: 0 full_addr: 0 type: 0 fill_level: -1 lq_index: 0 sq_index: 0
[L1D_MSHR] entry: 13 instr_id: 0 rob_index: -1 address: 0 full_addr: 0 type: 0 fill_level: -1 lq_index: 0 sq_index: 0
[L1D_MSHR] entry: 14 instr_id: 0 rob_index: -1 address: 0 full_addr: 0 type: 0 fill_level: -1 lq_index: 0 sq_index: 0
[L1D_MSHR] entry: 15 instr_id: 0 rob_index: -1 address: 0 full_addr: 0 type: 0 fill_level: -1 lq_index: 0 sq_index: 0
perceptron-berti-berti-no-lru-4core: src/main.cc:284: void print_deadlock(uint32_t): Assertion `0' failed.
     > Finished combination: TraceType=770-tot Sim:120000000 Prefetcher=L2berti L1=berti
