TRACE: [125000000][OPT-125M]_[h12][s512][d64] Warmup: 2000000 NumTraces: 125000000
L1:next_line:L2:029-SecTOP-L2-MultiMarkovDelta_ip_stride_v4-MK2-P30
*************************************************
   ChampSim Multicore Out-of-Order Simulator
   Last compiled: Oct 28 2024 06:02:40
*************************************************

trace_0 770-tot_memTraces_v3/memTraces[125000000][OPT-125M]_[h12][s512][d64].champsim.xz
trace_1 770-tot_memTraces_v3/memTraces[125000000][OPT-125M]_[h12][s512][d64].champsim.xz
trace_2 770-tot_memTraces_v3/memTraces[125000000][OPT-125M]_[h12][s512][d64].champsim.xz
trace_3 770-tot_memTraces_v3/memTraces[125000000][OPT-125M]_[h12][s512][d64].champsim.xz
CPU 0 L1D next line prefetcher
MK1: Size: 128 TMAX: 64 TMIN: 32 MKPTHRESH: 40
MK2: Size: 256 TMAX: 32 TMIN: 16 MK2PTHRESH: 30
MK3: Size: 384 TMAX: 16 TMIN: 8 MK3PTHRESH: 25
MK4: Size: 512 TMAX: 8 TMIN: 0 MK4PTHRESH: 20
Stride Size: 512 Prefetch Degree: 15

CPU 0 L2C prefetcher
CPU 1 L1D next line prefetcher
MK1: Size: 128 TMAX: 64 TMIN: 32 MKPTHRESH: 40
MK2: Size: 256 TMAX: 32 TMIN: 16 MK2PTHRESH: 30
MK3: Size: 384 TMAX: 16 TMIN: 8 MK3PTHRESH: 25
MK4: Size: 512 TMAX: 8 TMIN: 0 MK4PTHRESH: 20
Stride Size: 512 Prefetch Degree: 15

CPU 1 L2C prefetcher
CPU 2 L1D next line prefetcher
MK1: Size: 128 TMAX: 64 TMIN: 32 MKPTHRESH: 40
MK2: Size: 256 TMAX: 32 TMIN: 16 MK2PTHRESH: 30
MK3: Size: 384 TMAX: 16 TMIN: 8 MK3PTHRESH: 25
MK4: Size: 512 TMAX: 8 TMIN: 0 MK4PTHRESH: 20
Stride Size: 512 Prefetch Degree: 15

CPU 2 L2C prefetcher
CPU 3 L1D next line prefetcher
MK1: Size: 128 TMAX: 64 TMIN: 32 MKPTHRESH: 40
MK2: Size: 256 TMAX: 32 TMIN: 16 MK2PTHRESH: 30
MK3: Size: 384 TMAX: 16 TMIN: 8 MK3PTHRESH: 25
MK4: Size: 512 TMAX: 8 TMIN: 0 MK4PTHRESH: 20
Stride Size: 512 Prefetch Degree: 15

CPU 3 L2C prefetcher
MAIN.cc ln 751 stats print skipped
CPU 0 L2C prefetcher initialized


Cache Size: 1280
number of cache lines: 20480
CPU  3 inst:    1000001 cyc:     502529 now IPC :1.98994: AVG IPC :1.98994: L2-Pf-HR :0.77307: L2-HR :0.75077: (Sim:0h0m50s) 
CPU  2 inst:    1000001 cyc:     502797 now IPC :1.98888: AVG IPC :1.98888: L2-Pf-HR :0.82489: L2-HR :0.79791: (Sim:0h0m50s) 
CPU  0 inst:    1000001 cyc:     502884 now IPC :1.98853: AVG IPC :1.98853: L2-Pf-HR :0.78779: L2-HR :0.76631: (Sim:0h0m50s) 
CPU  1 inst:    1000001 cyc:     502898 now IPC :1.98848: AVG IPC :1.98848: L2-Pf-HR :0.78974: L2-HR :0.76652: (Sim:0h0m50s) 
CPU  3 inst:    2000000 cyc:     985400 now IPC :2.07094: AVG IPC :2.02963: L2-Pf-HR :0.82776: L2-HR :0.81136: (Sim:0h1m43s) 
CPU  2 inst:    2000000 cyc:     985710 now IPC :2.07076: AVG IPC :2.02899: L2-Pf-HR :0.85970: L2-HR :0.84174: (Sim:0h1m43s) 
CPU  0 inst:    2000000 cyc:     985907 now IPC :2.07029: AVG IPC :2.02859: L2-Pf-HR :0.84187: L2-HR :0.82485: (Sim:0h1m43s) 
CPU  1 inst:    2000000 cyc:     985912 now IPC :2.07033: AVG IPC :2.02858: L2-Pf-HR :0.84305: L2-HR :0.82527: (Sim:0h1m43s) 

Warmup complete CPU  0 instructions:    2000018 cycles:     985913 (Simulation time: 0 hr 1 min 43 sec) 
Warmup complete CPU  1 instructions:    2000003 cycles:     985913 (Simulation time: 0 hr 1 min 43 sec) 
Warmup complete CPU  2 instructions:    2000361 cycles:     985912 (Simulation time: 0 hr 1 min 43 sec) 
Warmup complete CPU  3 instructions:    2000984 cycles:     985912 (Simulation time: 0 hr 1 min 43 sec) 

CPU  2 inst:    3000001 cyc:    1494754 now IPC :1.96447: AVG IPC :1.96454: L2-Pf-HR :0.87360: L2-HR :0.86512: (Sim:0h2m29s) 
CPU  0 inst:    3000001 cyc:    1498186 now IPC :1.95206: AVG IPC :1.95205: L2-Pf-HR :0.86641: L2-HR :0.86211: (Sim:0h2m29s) 
CPU  3 inst:    3000001 cyc:    1500398 now IPC :1.94176: AVG IPC :1.94178: L2-Pf-HR :0.84538: L2-HR :0.84026: (Sim:0h2m29s) 
CPU  1 inst:    3000001 cyc:    1500549 now IPC :1.94312: AVG IPC :1.94312: L2-Pf-HR :0.86925: L2-HR :0.86409: (Sim:0h2m29s) 
CPU  2 inst:    4000004 cyc:    2039569 now IPC :1.83549: AVG IPC :1.89781: L2-Pf-HR :0.87283: L2-HR :0.87366: (Sim:0h3m15s) 
CPU  3 inst:    4000004 cyc:    2044258 now IPC :1.83871: AVG IPC :1.88882: L2-Pf-HR :0.86000: L2-HR :0.86203: (Sim:0h3m15s) 
CPU  0 inst:    4000004 cyc:    2044357 now IPC :1.83093: AVG IPC :1.88955: L2-Pf-HR :0.86917: L2-HR :0.87330: (Sim:0h3m15s) 
CPU  1 inst:    4000004 cyc:    2044998 now IPC :1.83672: AVG IPC :1.88842: L2-Pf-HR :0.87830: L2-HR :0.87994: (Sim:0h3m15s) 
CPU  2 inst:    5000000 cyc:    2704901 now IPC :1.50300: AVG IPC :1.74500: L2-Pf-HR :0.86302: L2-HR :0.86260: (Sim:0h4m5s) 
CPU  1 inst:    5000000 cyc:    2706346 now IPC :1.51206: AVG IPC :1.74375: L2-Pf-HR :0.86014: L2-HR :0.85954: (Sim:0h4m5s) 
CPU  3 inst:    5000000 cyc:    2706747 now IPC :1.50945: AVG IPC :1.74277: L2-Pf-HR :0.84288: L2-HR :0.84542: (Sim:0h4m5s) 
CPU  0 inst:    5000000 cyc:    2706768 now IPC :1.50963: AVG IPC :1.74331: L2-Pf-HR :0.85815: L2-HR :0.86086: (Sim:0h4m5s) 
CPU  2 inst:    6000004 cyc:    3186502 now IPC :2.07642: AVG IPC :1.81753: L2-Pf-HR :0.85803: L2-HR :0.85820: (Sim:0h4m50s) 
CPU  0 inst:    6000004 cyc:    3189745 now IPC :2.07050: AVG IPC :1.81501: L2-Pf-HR :0.84966: L2-HR :0.85382: (Sim:0h4m51s) 
CPU  1 inst:    6000004 cyc:    3190855 now IPC :2.06395: AVG IPC :1.81411: L2-Pf-HR :0.84763: L2-HR :0.84751: (Sim:0h4m51s) 
CPU  3 inst:    6000004 cyc:    3191532 now IPC :2.06278: AVG IPC :1.81310: L2-Pf-HR :0.82815: L2-HR :0.83432: (Sim:0h4m51s) 
CPU  2 inst:    7000005 cyc:    3663819 now IPC :2.09505: AVG IPC :1.86700: L2-Pf-HR :0.85959: L2-HR :0.85916: (Sim:0h5m36s) 
CPU  0 inst:    7000005 cyc:    3674727 now IPC :2.06193: AVG IPC :1.85955: L2-Pf-HR :0.84813: L2-HR :0.85227: (Sim:0h5m37s) 
CPU  3 inst:    7000005 cyc:    3675557 now IPC :2.06601: AVG IPC :1.85862: L2-Pf-HR :0.82327: L2-HR :0.83064: (Sim:0h5m37s) 
CPU  1 inst:    7000005 cyc:    3676299 now IPC :2.05997: AVG IPC :1.85847: L2-Pf-HR :0.84025: L2-HR :0.84001: (Sim:0h5m37s) 
CPU  2 inst:    8000005 cyc:    4215093 now IPC :1.81398: AVG IPC :1.85795: L2-Pf-HR :0.86007: L2-HR :0.86112: (Sim:0h6m22s) 
CPU  0 inst:    8000005 cyc:    4237009 now IPC :1.77847: AVG IPC :1.84553: L2-Pf-HR :0.84983: L2-HR :0.85511: (Sim:0h6m24s) 
CPU  3 inst:    8000005 cyc:    4238282 now IPC :1.77707: AVG IPC :1.84451: L2-Pf-HR :0.82422: L2-HR :0.83273: (Sim:0h6m24s) 
CPU  1 inst:    8000005 cyc:    4248836 now IPC :1.74661: AVG IPC :1.83884: L2-Pf-HR :0.83975: L2-HR :0.84132: (Sim:0h6m25s) 
CPU  2 inst:    9000000 cyc:    5171945 now IPC :1.04509: AVG IPC :1.67214: L2-Pf-HR :0.86582: L2-HR :0.86657: (Sim:0h7m17s) 
CPU  0 inst:    9000000 cyc:    5255176 now IPC :0.98215: AVG IPC :1.63962: L2-Pf-HR :0.85493: L2-HR :0.85913: (Sim:0h7m23s) 
CPU  3 inst:    9000000 cyc:    5262210 now IPC :0.97663: AVG IPC :1.63670: L2-Pf-HR :0.83295: L2-HR :0.84006: (Sim:0h7m24s) 
CPU  1 inst:    9000000 cyc:    5365891 now IPC :0.89521: AVG IPC :1.59818: L2-Pf-HR :0.84312: L2-HR :0.84413: (Sim:0h7m32s) 
CPU  2 inst:   10000005 cyc:    5796544 now IPC :1.60104: AVG IPC :1.66291: L2-Pf-HR :0.87240: L2-HR :0.87477: (Sim:0h8m7s) 
CPU  0 inst:   10000000 cyc:    5892826 now IPC :1.56826: AVG IPC :1.63035: L2-Pf-HR :0.86130: L2-HR :0.86571: (Sim:0h8m14s) 
CPU  3 inst:   10000005 cyc:    5915823 now IPC :1.52996: AVG IPC :1.62255: L2-Pf-HR :0.84192: L2-HR :0.84894: (Sim:0h8m16s) 
CPU  1 inst:   10000002 cyc:    6152902 now IPC :1.27063: AVG IPC :1.54829: L2-Pf-HR :0.84421: L2-HR :0.84569: (Sim:0h8m34s) 
CPU  2 inst:   11000005 cyc:    6448665 now IPC :1.53346: AVG IPC :1.64746: L2-Pf-HR :0.87851: L2-HR :0.88175: (Sim:0h8m58s) 
CPU  0 inst:   11000005 cyc:    6521858 now IPC :1.58975: AVG IPC :1.62574: L2-Pf-HR :0.86676: L2-HR :0.87109: (Sim:0h9m4s) 
CPU  3 inst:   11000005 cyc:    6532830 now IPC :1.62073: AVG IPC :1.62235: L2-Pf-HR :0.84924: L2-HR :0.85617: (Sim:0h9m5s) 
CPU  1 inst:   11000005 cyc:    6706169 now IPC :1.80745: AVG IPC :1.57336: L2-Pf-HR :0.84698: L2-HR :0.84876: (Sim:0h9m21s) 
CPU  2 inst:   12000005 cyc:    7083894 now IPC :1.57424: AVG IPC :1.63983: L2-Pf-HR :0.88206: L2-HR :0.88539: (Sim:0h9m44s) 
CPU  3 inst:   12000005 cyc:    7278778 now IPC :1.34058: AVG IPC :1.58895: L2-Pf-HR :0.85594: L2-HR :0.86231: (Sim:0h9m58s) 
CPU  0 inst:   12000005 cyc:    7284709 now IPC :1.31087: AVG IPC :1.58760: L2-Pf-HR :0.87085: L2-HR :0.87494: (Sim:0h9m58s) 
CPU  1 inst:   12000005 cyc:    7566251 now IPC :1.16268: AVG IPC :1.51968: L2-Pf-HR :0.85389: L2-HR :0.85512: (Sim:0h10m19s) 
CPU  2 inst:   13000002 cyc:    8400742 now IPC :0.75939: AVG IPC :1.48347: L2-Pf-HR :0.88262: L2-HR :0.88595: (Sim:0h10m53s) 
CPU  0 inst:   13000002 cyc:    8729436 now IPC :0.69217: AVG IPC :1.42054: L2-Pf-HR :0.87265: L2-HR :0.87658: (Sim:0h11m11s) 
CPU  3 inst:   13000002 cyc:    8798178 now IPC :0.65815: AVG IPC :1.40792: L2-Pf-HR :0.85809: L2-HR :0.86393: (Sim:0h11m16s) 
CPU  1 inst:   13000002 cyc:    9112052 now IPC :0.64691: AVG IPC :1.35366: L2-Pf-HR :0.85799: L2-HR :0.85902: (Sim:0h11m38s) 
CPU  2 inst:   14000003 cyc:    9125382 now IPC :1.38000: AVG IPC :1.47425: L2-Pf-HR :0.88719: L2-HR :0.89092: (Sim:0h11m39s) 
CPU  0 inst:   14000005 cyc:    9525643 now IPC :1.25596: AVG IPC :1.40520: L2-Pf-HR :0.87798: L2-HR :0.88229: (Sim:0h12m6s) 
CPU  3 inst:   14000003 cyc:    9718920 now IPC :1.08608: AVG IPC :1.37398: L2-Pf-HR :0.86320: L2-HR :0.86875: (Sim:0h12m20s) 
CPU  1 inst:   14000005 cyc:    9934232 now IPC :1.21628: AVG IPC :1.34103: L2-Pf-HR :0.86441: L2-HR :0.86561: (Sim:0h12m37s) 
CPU  2 inst:   15000001 cyc:    9971297 now IPC :1.18215: AVG IPC :1.44675: L2-Pf-HR :0.89154: L2-HR :0.89525: (Sim:0h12m39s) 
CPU  0 inst:   15000001 cyc:   10235434 now IPC :1.40886: AVG IPC :1.40548: L2-Pf-HR :0.88413: L2-HR :0.88832: (Sim:0h12m59s) 
CPU  3 inst:   15000001 cyc:   10423450 now IPC :1.41938: AVG IPC :1.37737: L2-Pf-HR :0.86852: L2-HR :0.87381: (Sim:0h13m14s) 
CPU  1 inst:   15000001 cyc:   10517218 now IPC :1.71530: AVG IPC :1.36393: L2-Pf-HR :0.87064: L2-HR :0.87190: (Sim:0h13m21s) 
CPU  2 inst:   16000005 cyc:   10676430 now IPC :1.41818: AVG IPC :1.44467: L2-Pf-HR :0.89453: L2-HR :0.89792: (Sim:0h13m35s) 
CPU  0 inst:   16000005 cyc:   10972734 now IPC :1.35631: AVG IPC :1.40185: L2-Pf-HR :0.88875: L2-HR :0.89254: (Sim:0h14m1s) 
CPU  3 inst:   16000005 cyc:   11219878 now IPC :1.25561: AVG IPC :1.36790: L2-Pf-HR :0.87307: L2-HR :0.87791: (Sim:0h14m30s) 
CPU  1 inst:   16000005 cyc:   11359463 now IPC :1.18731: AVG IPC :1.34959: L2-Pf-HR :0.87554: L2-HR :0.87658: (Sim:0h14m47s) 
CPU  2 inst:   17000000 cyc:   11979274 now IPC :0.76755: AVG IPC :1.36443: L2-Pf-HR :0.89350: L2-HR :0.89712: (Sim:0h15m42s) 
CPU  0 inst:   17000000 cyc:   12436737 now IPC :0.68306: AVG IPC :1.30995: L2-Pf-HR :0.88772: L2-HR :0.89177: (Sim:0h16m24s) 
CPU  2 inst:   18000001 cyc:   12695180 now IPC :1.39683: AVG IPC :1.36641: L2-Pf-HR :0.89569: L2-HR :0.89970: (Sim:0h16m51s) 
CPU  3 inst:   17000000 cyc:   12773103 now IPC :0.64382: AVG IPC :1.27248: L2-Pf-HR :0.87160: L2-HR :0.87669: (Sim:0h16m56s) 
CPU  1 inst:   17000000 cyc:   12977363 now IPC :0.61808: AVG IPC :1.25089: L2-Pf-HR :0.87468: L2-HR :0.87607: (Sim:0h17m10s) 
CPU  0 inst:   18000001 cyc:   13154531 now IPC :1.39316: AVG IPC :1.31486: L2-Pf-HR :0.89045: L2-HR :0.89481: (Sim:0h17m23s) 
CPU  2 inst:   19000002 cyc:   13461930 now IPC :1.30421: AVG IPC :1.36259: L2-Pf-HR :0.89808: L2-HR :0.90226: (Sim:0h17m46s) 
CPU  3 inst:   18000001 cyc:   13659300 now IPC :1.12842: AVG IPC :1.26241: L2-Pf-HR :0.87248: L2-HR :0.87750: (Sim:0h18m1s) 
CPU  1 inst:   18000001 cyc:   13756087 now IPC :1.28415: AVG IPC :1.25292: L2-Pf-HR :0.87687: L2-HR :0.87830: (Sim:0h18m9s) 
CPU  0 inst:   19000002 cyc:   13846441 now IPC :1.44528: AVG IPC :1.32187: L2-Pf-HR :0.89327: L2-HR :0.89784: (Sim:0h18m17s) 
CPU  3 inst:   19000002 cyc:   14304898 now IPC :1.54895: AVG IPC :1.27630: L2-Pf-HR :0.87267: L2-HR :0.87794: (Sim:0h18m51s) 
CPU  2 inst:   20000002 cyc:   14335479 now IPC :1.14476: AVG IPC :1.34833: L2-Pf-HR :0.90001: L2-HR :0.90394: (Sim:0h18m54s) 
CPU  1 inst:   19000002 cyc:   14383692 now IPC :1.59336: AVG IPC :1.26887: L2-Pf-HR :0.87831: L2-HR :0.87997: (Sim:0h18m57s) 
CPU  0 inst:   20000002 cyc:   14633843 now IPC :1.27000: AVG IPC :1.31888: L2-Pf-HR :0.89598: L2-HR :0.90036: (Sim:0h19m18s) 
CPU  3 inst:   20000002 cyc:   15095941 now IPC :1.26415: AVG IPC :1.27562: L2-Pf-HR :0.87485: L2-HR :0.87982: (Sim:0h19m46s) 
CPU  1 inst:   20000002 cyc:   15149615 now IPC :1.30561: AVG IPC :1.27085: L2-Pf-HR :0.88111: L2-HR :0.88253: (Sim:0h19m49s) 
CPU  2 inst:   21000000 cyc:   15544129 now IPC :0.82737: AVG IPC :1.30508: L2-Pf-HR :0.89852: L2-HR :0.90259: (Sim:0h20m13s) 
CPU  0 inst:   21000003 cyc:   15895020 now IPC :0.79291: AVG IPC :1.27439: L2-Pf-HR :0.89506: L2-HR :0.89953: (Sim:0h20m30s) 
CPU  2 inst:   22000004 cyc:   16282593 now IPC :1.35417: AVG IPC :1.30745: L2-Pf-HR :0.89938: L2-HR :0.90367: (Sim:0h20m58s) 
CPU  3 inst:   21000000 cyc:   16610577 now IPC :0.66022: AVG IPC :1.21596: L2-Pf-HR :0.87431: L2-HR :0.87940: (Sim:0h21m33s) 
CPU  0 inst:   22000004 cyc:   16634028 now IPC :1.35317: AVG IPC :1.27811: L2-Pf-HR :0.89634: L2-HR :0.90122: (Sim:0h21m37s) 
CPU  1 inst:   21000000 cyc:   16763939 now IPC :0.61945: AVG IPC :1.20421: L2-Pf-HR :0.88039: L2-HR :0.88216: (Sim:0h21m52s) 
CPU  2 inst:   23000001 cyc:   17050061 now IPC :1.30298: AVG IPC :1.30724: L2-Pf-HR :0.90014: L2-HR :0.90461: (Sim:0h22m29s) 
CPU  0 inst:   23000001 cyc:   17352340 now IPC :1.39215: AVG IPC :1.28311: L2-Pf-HR :0.89744: L2-HR :0.90272: (Sim:0h23m11s) 
CPU  3 inst:   22000004 cyc:   17436737 now IPC :1.21042: AVG IPC :1.21568: L2-Pf-HR :0.87507: L2-HR :0.88059: (Sim:0h23m24s) 
CPU  1 inst:   22000004 cyc:   17528008 now IPC :1.30879: AVG IPC :1.20904: L2-Pf-HR :0.88123: L2-HR :0.88360: (Sim:0h23m38s) 
CPU  2 inst:   24000004 cyc:   17983113 now IPC :1.07175: AVG IPC :1.29431: L2-Pf-HR :0.90143: L2-HR :0.90556: (Sim:0h24m35s) 
CPU  3 inst:   23000001 cyc:   18118641 now IPC :1.46648: AVG IPC :1.22567: L2-Pf-HR :0.87608: L2-HR :0.88197: (Sim:0h24m52s) 
CPU  1 inst:   23000001 cyc:   18200077 now IPC :1.48794: AVG IPC :1.21993: L2-Pf-HR :0.88241: L2-HR :0.88515: (Sim:0h25m3s) 
CPU  0 inst:   24000004 cyc:   18239500 now IPC :1.12720: AVG IPC :1.27510: L2-Pf-HR :0.89963: L2-HR :0.90472: (Sim:0h25m10s) 
CPU  3 inst:   24000004 cyc:   18864622 now IPC :1.34052: AVG IPC :1.23046: L2-Pf-HR :0.87881: L2-HR :0.88434: (Sim:0h26m25s) 
CPU  1 inst:   24000004 cyc:   18992213 now IPC :1.26241: AVG IPC :1.22179: L2-Pf-HR :0.88552: L2-HR :0.88793: (Sim:0h26m38s) 
CPU  2 inst:   25000001 cyc:   19055748 now IPC :0.93228: AVG IPC :1.27282: L2-Pf-HR :0.90012: L2-HR :0.90438: (Sim:0h26m46s) 
CPU  0 inst:   25000003 cyc:   19467708 now IPC :0.81419: AVG IPC :1.24447: L2-Pf-HR :0.89848: L2-HR :0.90359: (Sim:0h27m34s) 
CPU  2 inst:   26000005 cyc:   19823628 now IPC :1.30229: AVG IPC :1.27402: L2-Pf-HR :0.90136: L2-HR :0.90582: (Sim:0h28m11s) 
CPU  0 inst:   26000002 cyc:   20187514 now IPC :1.38926: AVG IPC :1.24989: L2-Pf-HR :0.89963: L2-HR :0.90496: (Sim:0h28m49s) 
CPU  3 inst:   25000003 cyc:   20332661 now IPC :0.68118: AVG IPC :1.18878: L2-Pf-HR :0.87867: L2-HR :0.88408: (Sim:0h29m5s) 
CPU  2 inst:   27000000 cyc:   20466379 now IPC :1.55580: AVG IPC :1.28332: L2-Pf-HR :0.90265: L2-HR :0.90732: (Sim:0h29m21s) 
CPU  1 inst:   25000001 cyc:   20566030 now IPC :0.63540: AVG IPC :1.17466: L2-Pf-HR :0.88508: L2-HR :0.88760: (Sim:0h29m33s) 
CPU  0 inst:   27000000 cyc:   20879307 now IPC :1.44552: AVG IPC :1.25670: L2-Pf-HR :0.90027: L2-HR :0.90594: (Sim:0h30m16s) 
CPU  3 inst:   26000002 cyc:   21159247 now IPC :1.20979: AVG IPC :1.18964: L2-Pf-HR :0.87827: L2-HR :0.88400: (Sim:0h30m57s) 
CPU  1 inst:   26000002 cyc:   21247425 now IPC :1.46758: AVG IPC :1.18451: L2-Pf-HR :0.88589: L2-HR :0.88896: (Sim:0h31m9s) 
CPU  2 inst:   28000002 cyc:   21396093 now IPC :1.07560: AVG IPC :1.27386: L2-Pf-HR :0.90447: L2-HR :0.90889: (Sim:0h31m29s) 
CPU  0 inst:   28000002 cyc:   21881337 now IPC :0.99798: AVG IPC :1.24429: L2-Pf-HR :0.90239: L2-HR :0.90778: (Sim:0h32m28s) 
CPU  3 inst:   27000000 cyc:   21886936 now IPC :1.37421: AVG IPC :1.19607: L2-Pf-HR :0.87841: L2-HR :0.88430: (Sim:0h32m29s) 
CPU  1 inst:   27000000 cyc:   21895998 now IPC :1.54184: AVG IPC :1.19560: L2-Pf-HR :0.88718: L2-HR :0.89061: (Sim:0h32m31s) 
CPU  2 inst:   29000000 cyc:   22335883 now IPC :1.06407: AVG IPC :1.26462: L2-Pf-HR :0.90335: L2-HR :0.90792: (Sim:0h33m32s) 
CPU  1 inst:   28000002 cyc:   22786243 now IPC :1.12329: AVG IPC :1.19264: L2-Pf-HR :0.88977: L2-HR :0.89299: (Sim:0h34m12s) 
CPU  3 inst:   28000001 cyc:   22800065 now IPC :1.09514: AVG IPC :1.19184: L2-Pf-HR :0.87950: L2-HR :0.88515: (Sim:0h34m14s) 
CPU  0 inst:   29000000 cyc:   23063989 now IPC :0.84556: AVG IPC :1.22293: L2-Pf-HR :0.90127: L2-HR :0.90681: (Sim:0h34m46s) 
CPU  2 inst:   30000000 cyc:   23177531 now IPC :1.18815: AVG IPC :1.26172: L2-Pf-HR :0.90373: L2-HR :0.90849: (Sim:0h35m0s) 
CPU  2 inst:   31000003 cyc:   23866044 now IPC :1.45241: AVG IPC :1.26746: L2-Pf-HR :0.90500: L2-HR :0.90979: (Sim:0h36m17s) 
CPU  0 inst:   30000000 cyc:   23952351 now IPC :1.12567: AVG IPC :1.21917: L2-Pf-HR :0.90191: L2-HR :0.90757: (Sim:0h36m26s) 
CPU  3 inst:   29000000 cyc:   24096255 now IPC :0.77149: AVG IPC :1.16827: L2-Pf-HR :0.87931: L2-HR :0.88501: (Sim:0h36m40s) 
CPU  1 inst:   29000000 cyc:   24109032 now IPC :0.75598: AVG IPC :1.16766: L2-Pf-HR :0.88898: L2-HR :0.89236: (Sim:0h36m42s) 
CPU  0 inst:   31000003 cyc:   24638947 now IPC :1.45646: AVG IPC :1.22606: L2-Pf-HR :0.90248: L2-HR :0.90840: (Sim:0h37m48s) 
CPU  2 inst:   32000005 cyc:   24745813 now IPC :1.13666: AVG IPC :1.26262: L2-Pf-HR :0.90678: L2-HR :0.91121: (Sim:0h38m0s) 
CPU  1 inst:   30000000 cyc:   24999203 now IPC :1.12338: AVG IPC :1.16602: L2-Pf-HR :0.88932: L2-HR :0.89305: (Sim:0h38m32s) 
CPU  3 inst:   30000000 cyc:   25011558 now IPC :1.09253: AVG IPC :1.16538: L2-Pf-HR :0.87955: L2-HR :0.88548: (Sim:0h38m34s) 
CPU  0 inst:   32000005 cyc:   25643386 now IPC :0.99558: AVG IPC :1.21667: L2-Pf-HR :0.90471: L2-HR :0.91028: (Sim:0h39m57s) 
CPU  1 inst:   31000003 cyc:   25665756 now IPC :1.50026: AVG IPC :1.17505: L2-Pf-HR :0.89009: L2-HR :0.89413: (Sim:0h40m0s) 
CPU  2 inst:   33000003 cyc:   25666652 now IPC :1.08596: AVG IPC :1.25603: L2-Pf-HR :0.90601: L2-HR :0.91074: (Sim:0h40m0s) 
CPU  3 inst:   31000003 cyc:   25673011 now IPC :1.51183: AVG IPC :1.17466: L2-Pf-HR :0.88038: L2-HR :0.88648: (Sim:0h40m1s) 
CPU  1 inst:   32000005 cyc:   26473489 now IPC :1.23804: AVG IPC :1.17704: L2-Pf-HR :0.89246: L2-HR :0.89627: (Sim:0h41m40s) 
CPU  3 inst:   32000005 cyc:   26516088 now IPC :1.18613: AVG IPC :1.17504: L2-Pf-HR :0.88271: L2-HR :0.88843: (Sim:0h41m44s) 
CPU  0 inst:   33000005 cyc:   26553088 now IPC :1.09926: AVG IPC :1.21249: L2-Pf-HR :0.90402: L2-HR :0.90988: (Sim:0h41m48s) 
CPU  2 inst:   34000004 cyc:   26644028 now IPC :1.02315: AVG IPC :1.24715: L2-Pf-HR :0.90537: L2-HR :0.91023: (Sim:0h41m58s) 
CPU  2 inst:   35000005 cyc:   27271977 now IPC :1.59249: AVG IPC :1.25540: L2-Pf-HR :0.90623: L2-HR :0.91120: (Sim:0h43m15s) 
CPU  1 inst:   33000002 cyc:   27422031 now IPC :1.05425: AVG IPC :1.17264: L2-Pf-HR :0.89209: L2-HR :0.89621: (Sim:0h43m31s) 
CPU  3 inst:   33000003 cyc:   27477170 now IPC :1.04049: AVG IPC :1.17016: L2-Pf-HR :0.88258: L2-HR :0.88853: (Sim:0h43m37s) 
CPU  0 inst:   34000004 cyc:   27709762 now IPC :0.86455: AVG IPC :1.19743: L2-Pf-HR :0.90339: L2-HR :0.90939: (Sim:0h44m3s) 
CPU  2 inst:   36000004 cyc:   27912670 now IPC :1.56081: AVG IPC :1.26267: L2-Pf-HR :0.90780: L2-HR :0.91257: (Sim:0h44m25s) 
CPU  0 inst:   35000005 cyc:   28393648 now IPC :1.46223: AVG IPC :1.20404: L2-Pf-HR :0.90403: L2-HR :0.91019: (Sim:0h45m15s) 
CPU  1 inst:   34000004 cyc:   28727964 now IPC :0.76574: AVG IPC :1.15348: L2-Pf-HR :0.89163: L2-HR :0.89582: (Sim:0h45m59s) 
CPU  2 inst:   37000000 cyc:   28878022 now IPC :1.03589: AVG IPC :1.25482: L2-Pf-HR :0.90731: L2-HR :0.91230: (Sim:0h46m21s) 
CPU  3 inst:   34000004 cyc:   28889548 now IPC :0.70803: AVG IPC :1.14677: L2-Pf-HR :0.88168: L2-HR :0.88770: (Sim:0h46m23s) 
CPU  0 inst:   36000004 cyc:   29109610 now IPC :1.39672: AVG IPC :1.20894: L2-Pf-HR :0.90562: L2-HR :0.91168: (Sim:0h46m53s) 
CPU  1 inst:   35000005 cyc:   29313223 now IPC :1.70865: AVG IPC :1.16495: L2-Pf-HR :0.89190: L2-HR :0.89634: (Sim:0h47m16s) 
CPU  3 inst:   35000005 cyc:   29564693 now IPC :1.48116: AVG IPC :1.15467: L2-Pf-HR :0.88200: L2-HR :0.88812: (Sim:0h47m43s) 
CPU  0 inst:   37000000 cyc:   29982572 now IPC :1.14552: AVG IPC :1.20703: L2-Pf-HR :0.90528: L2-HR :0.91155: (Sim:0h48m42s) 
CPU  1 inst:   36000004 cyc:   30003142 now IPC :1.44944: AVG IPC :1.17172: L2-Pf-HR :0.89351: L2-HR :0.89780: (Sim:0h48m46s) 
CPU  2 inst:   38000003 cyc:   30164349 now IPC :0.77741: AVG IPC :1.23378: L2-Pf-HR :0.90610: L2-HR :0.91113: (Sim:0h49m5s) 
CPU  3 inst:   36000004 cyc:   30216264 now IPC :1.53475: AVG IPC :1.16314: L2-Pf-HR :0.88318: L2-HR :0.88916: (Sim:0h49m11s) 
CPU  1 inst:   37000000 cyc:   30814554 now IPC :1.23241: AVG IPC :1.17337: L2-Pf-HR :0.89322: L2-HR :0.89779: (Sim:0h50m19s) 
CPU  2 inst:   39000002 cyc:   30815616 now IPC :1.53547: AVG IPC :1.24036: L2-Pf-HR :0.90635: L2-HR :0.91145: (Sim:0h50m19s) 
CPU  3 inst:   37000000 cyc:   31074220 now IPC :1.16556: AVG IPC :1.16321: L2-Pf-HR :0.88353: L2-HR :0.88966: (Sim:0h50m52s) 
CPU  0 inst:   38000003 cyc:   31381310 now IPC :0.71493: AVG IPC :1.18439: L2-Pf-HR :0.90470: L2-HR :0.91090: (Sim:0h51m26s) 
CPU  2 inst:   40000000 cyc:   31463492 now IPC :1.54350: AVG IPC :1.24681: L2-Pf-HR :0.90749: L2-HR :0.91242: (Sim:0h51m34s) 
CPU  0 inst:   39000002 cyc:   32060798 now IPC :1.47169: AVG IPC :1.19067: L2-Pf-HR :0.90542: L2-HR :0.91172: (Sim:0h52m32s) 
CPU  1 inst:   38000003 cyc:   32343751 now IPC :0.65394: AVG IPC :1.14804: L2-Pf-HR :0.89287: L2-HR :0.89748: (Sim:0h53m8s) 
CPU  2 inst:   41000000 cyc:   32544064 now IPC :0.92544: AVG IPC :1.23580: L2-Pf-HR :0.90712: L2-HR :0.91220: (Sim:0h53m36s) 
CPU  3 inst:   38000003 cyc:   32651910 now IPC :0.63384: AVG IPC :1.13684: L2-Pf-HR :0.88314: L2-HR :0.88931: (Sim:0h53m53s) 
CPU  0 inst:   40000000 cyc:   32759358 now IPC :1.43151: AVG IPC :1.19597: L2-Pf-HR :0.90683: L2-HR :0.91306: (Sim:0h54m7s) 
CPU  1 inst:   39000002 cyc:   32985710 now IPC :1.55773: AVG IPC :1.15626: L2-Pf-HR :0.89342: L2-HR :0.89830: (Sim:0h54m35s) 
CPU  3 inst:   39000002 cyc:   33268541 now IPC :1.62171: AVG IPC :1.14610: L2-Pf-HR :0.88402: L2-HR :0.89042: (Sim:0h55m6s) 
CPU  1 inst:   40000000 cyc:   33652585 now IPC :1.49953: AVG IPC :1.16326: L2-Pf-HR :0.89497: L2-HR :0.89981: (Sim:0h55m54s) 
CPU  0 inst:   41000000 cyc:   33679710 now IPC :1.08654: AVG IPC :1.19289: L2-Pf-HR :0.90656: L2-HR :0.91295: (Sim:0h55m57s) 
CPU  3 inst:   40000000 cyc:   33892097 now IPC :1.60370: AVG IPC :1.15477: L2-Pf-HR :0.88602: L2-HR :0.89234: (Sim:0h56m12s) 
CPU  2 inst:   42000002 cyc:   33896123 now IPC :0.73961: AVG IPC :1.21542: L2-Pf-HR :0.90630: L2-HR :0.91143: (Sim:0h56m12s) 
CPU  1 inst:   41000003 cyc:   34454332 now IPC :1.24728: AVG IPC :1.16528: L2-Pf-HR :0.89499: L2-HR :0.90001: (Sim:0h56m45s) 
CPU  2 inst:   43000000 cyc:   34567955 now IPC :1.48846: AVG IPC :1.22088: L2-Pf-HR :0.90685: L2-HR :0.91208: (Sim:0h56m53s) 
CPU  3 inst:   41000003 cyc:   34832726 now IPC :1.06312: AVG IPC :1.15222: L2-Pf-HR :0.88631: L2-HR :0.89273: (Sim:0h57m9s) 
CPU  0 inst:   42000002 cyc:   35161073 now IPC :0.67506: AVG IPC :1.17044: L2-Pf-HR :0.90598: L2-HR :0.91231: (Sim:0h57m29s) 
CPU  2 inst:   44000001 cyc:   35266821 now IPC :1.43089: AVG IPC :1.22516: L2-Pf-HR :0.90786: L2-HR :0.91292: (Sim:0h57m35s) 
CPU  0 inst:   43000000 cyc:   35826218 now IPC :1.50343: AVG IPC :1.17680: L2-Pf-HR :0.90656: L2-HR :0.91298: (Sim:0h58m6s) 
CPU  1 inst:   42000002 cyc:   35925552 now IPC :0.67971: AVG IPC :1.14483: L2-Pf-HR :0.89483: L2-HR :0.89980: (Sim:0h58m12s) 
CPU  2 inst:   45000000 cyc:   36277523 now IPC :0.98941: AVG IPC :1.21841: L2-Pf-HR :0.90795: L2-HR :0.91303: (Sim:0h58m36s) 
CPU  3 inst:   42000002 cyc:   36564895 now IPC :0.57731: AVG IPC :1.12423: L2-Pf-HR :0.88609: L2-HR :0.89239: (Sim:0h58m58s) 
CPU  0 inst:   44000001 cyc:   36568647 now IPC :1.34693: AVG IPC :1.18035: L2-Pf-HR :0.90785: L2-HR :0.91417: (Sim:0h58m58s) 
CPU  1 inst:   43000000 cyc:   36640783 now IPC :1.39815: AVG IPC :1.14991: L2-Pf-HR :0.89550: L2-HR :0.90056: (Sim:0h59m3s) 
CPU  3 inst:   43000000 cyc:   37212963 now IPC :1.54304: AVG IPC :1.13172: L2-Pf-HR :0.88689: L2-HR :0.89325: (Sim:0h59m41s) 
CPU  1 inst:   44000001 cyc:   37285063 now IPC :1.55212: AVG IPC :1.15705: L2-Pf-HR :0.89699: L2-HR :0.90190: (Sim:0h59m46s) 
CPU  0 inst:   45000000 cyc:   37427563 now IPC :1.16426: AVG IPC :1.17997: L2-Pf-HR :0.90791: L2-HR :0.91428: (Sim:0h59m57s) 
CPU  2 inst:   46000002 cyc:   37559267 now IPC :0.78019: AVG IPC :1.20305: L2-Pf-HR :0.90719: L2-HR :0.91225: (Sim:1h0m8s) 
CPU  3 inst:   44000001 cyc:   37833432 now IPC :1.61169: AVG IPC :1.13981: L2-Pf-HR :0.88830: L2-HR :0.89453: (Sim:1h0m29s) 
CPU  1 inst:   45000000 cyc:   38070675 now IPC :1.27289: AVG IPC :1.15951: L2-Pf-HR :0.89712: L2-HR :0.90212: (Sim:1h1m0s) 
CPU  2 inst:   47000004 cyc:   38195406 now IPC :1.57199: AVG IPC :1.20936: L2-Pf-HR :0.90736: L2-HR :0.91252: (Sim:1h1m14s) 
CPU  0 inst:   46000002 cyc:   38697945 now IPC :0.78717: AVG IPC :1.16674: L2-Pf-HR :0.90750: L2-HR :0.91379: (Sim:1h2m12s) 
CPU  3 inst:   45000000 cyc:   38697965 now IPC :1.15669: AVG IPC :1.14019: L2-Pf-HR :0.88866: L2-HR :0.89489: (Sim:1h2m12s) 
CPU  2 inst:   48000002 cyc:   38888642 now IPC :1.44251: AVG IPC :1.21362: L2-Pf-HR :0.90806: L2-HR :0.91314: (Sim:1h2m37s) 
CPU  0 inst:   47000004 cyc:   39374740 now IPC :1.47756: AVG IPC :1.17222: L2-Pf-HR :0.90786: L2-HR :0.91427: (Sim:1h3m29s) 
CPU  1 inst:   46000002 cyc:   39400452 now IPC :0.75201: AVG IPC :1.14540: L2-Pf-HR :0.89693: L2-HR :0.90192: (Sim:1h3m32s) 
CPU  2 inst:   49000000 cyc:   39877258 now IPC :1.01151: AVG IPC :1.20849: L2-Pf-HR :0.90823: L2-HR :0.91326: (Sim:1h4m29s) 
CPU  1 inst:   47000004 cyc:   40071563 now IPC :1.49007: AVG IPC :1.15132: L2-Pf-HR :0.89757: L2-HR :0.90269: (Sim:1h4m58s) 
CPU  0 inst:   48000002 cyc:   40073239 now IPC :1.43164: AVG IPC :1.17685: L2-Pf-HR :0.90882: L2-HR :0.91519: (Sim:1h4m58s) 
CPU  3 inst:   46000002 cyc:   40182572 now IPC :0.67358: AVG IPC :1.12252: L2-Pf-HR :0.88834: L2-HR :0.89447: (Sim:1h5m13s) 
CPU  1 inst:   48000002 cyc:   40659174 now IPC :1.70180: AVG IPC :1.15947: L2-Pf-HR :0.89889: L2-HR :0.90395: (Sim:1h6m8s) 
CPU  3 inst:   47000004 cyc:   40753133 now IPC :1.75266: AVG IPC :1.13156: L2-Pf-HR :0.88894: L2-HR :0.89515: (Sim:1h6m20s) 
CPU  0 inst:   49000000 cyc:   40838433 now IPC :1.30686: AVG IPC :1.17935: L2-Pf-HR :0.90910: L2-HR :0.91545: (Sim:1h6m31s) 
CPU  3 inst:   48000002 cyc:   41313580 now IPC :1.78429: AVG IPC :1.14063: L2-Pf-HR :0.89043: L2-HR :0.89646: (Sim:1h7m21s) 
CPU  1 inst:   49000000 cyc:   41357627 now IPC :1.43173: AVG IPC :1.16418: L2-Pf-HR :0.89934: L2-HR :0.90442: (Sim:1h7m25s) 
CPU  3 inst:   49000000 cyc:   42085585 now IPC :1.29533: AVG IPC :1.14354: L2-Pf-HR :0.89119: L2-HR :0.89710: (Sim:1h8m18s) 
CPU  2 inst:   50000001 cyc:   50017886 now IPC :0.09861: AVG IPC :0.97895: L2-Pf-HR :0.90078: L2-HR :0.89936: (Sim:1h16m11s) 
CPU  0 inst:   50000004 cyc:   52201441 now IPC :0.08801: AVG IPC :0.93722: L2-Pf-HR :0.90149: L2-HR :0.90135: (Sim:1h17m27s) 
CPU  1 inst:   50000004 cyc:   53363356 now IPC :0.08329: AVG IPC :0.91643: L2-Pf-HR :0.89185: L2-HR :0.89072: (Sim:1h18m8s) 
CPU  3 inst:   50000004 cyc:   55062353 now IPC :0.07706: AVG IPC :0.88761: L2-Pf-HR :0.88380: L2-HR :0.88364: (Sim:1h19m8s) 
CPU  2 inst:   51000003 cyc:   71487578 now IPC :0.04658: AVG IPC :0.69501: L2-Pf-HR :0.88833: L2-HR :0.87755: (Sim:1h28m46s) 
CPU  0 inst:   51000000 cyc:   74057476 now IPC :0.04575: AVG IPC :0.67058: L2-Pf-HR :0.88874: L2-HR :0.87918: (Sim:1h30m16s) 
CPU  1 inst:   51000001 cyc:   75181449 now IPC :0.04583: AVG IPC :0.66042: L2-Pf-HR :0.87937: L2-HR :0.86909: (Sim:1h30m55s) 
CPU  3 inst:   51000003 cyc:   76860037 now IPC :0.04588: AVG IPC :0.64579: L2-Pf-HR :0.87130: L2-HR :0.86236: (Sim:1h31m53s) 
CPU  2 inst:   52000000 cyc:   81348536 now IPC :0.10141: AVG IPC :0.62218: L2-Pf-HR :0.88331: L2-HR :0.87050: (Sim:1h34m14s) 
CPU  0 inst:   52000000 cyc:   82667353 now IPC :0.11615: AVG IPC :0.61213: L2-Pf-HR :0.88362: L2-HR :0.87207: (Sim:1h34m59s) 
CPU  1 inst:   52000000 cyc:   83109504 now IPC :0.12613: AVG IPC :0.60884: L2-Pf-HR :0.87435: L2-HR :0.86222: (Sim:1h35m14s) 
CPU  3 inst:   52000000 cyc:   83665639 now IPC :0.14694: AVG IPC :0.60473: L2-Pf-HR :0.86637: L2-HR :0.85565: (Sim:1h35m38s) 
CPU  2 inst:   53000000 cyc:   85278071 now IPC :0.25448: AVG IPC :0.60503: L2-Pf-HR :0.88079: L2-HR :0.86798: (Sim:1h37m17s) 
CPU  0 inst:   53000000 cyc:   86582236 now IPC :0.25544: AVG IPC :0.59582: L2-Pf-HR :0.88126: L2-HR :0.86967: (Sim:1h38m38s) 
CPU  1 inst:   53000000 cyc:   87014174 now IPC :0.25610: AVG IPC :0.59283: L2-Pf-HR :0.87191: L2-HR :0.85980: (Sim:1h39m5s) 
CPU  3 inst:   53000000 cyc:   87552083 now IPC :0.25730: AVG IPC :0.58913: L2-Pf-HR :0.86413: L2-HR :0.85339: (Sim:1h39m38s) 
CPU  2 inst:   54000000 cyc:   89122668 now IPC :0.26011: AVG IPC :0.58999: L2-Pf-HR :0.87838: L2-HR :0.86556: (Sim:1h41m15s) 
CPU  0 inst:   54000000 cyc:   90390681 now IPC :0.26257: AVG IPC :0.58162: L2-Pf-HR :0.87904: L2-HR :0.86738: (Sim:1h42m34s) 
CPU  1 inst:   54000000 cyc:   90815375 now IPC :0.26307: AVG IPC :0.57887: L2-Pf-HR :0.86961: L2-HR :0.85747: (Sim:1h43m0s) 
CPU  3 inst:   54000000 cyc:   91339799 now IPC :0.26401: AVG IPC :0.57550: L2-Pf-HR :0.86219: L2-HR :0.85134: (Sim:1h43m32s) 
CPU  2 inst:   55000001 cyc:   92871671 now IPC :0.26674: AVG IPC :0.57680: L2-Pf-HR :0.87612: L2-HR :0.86325: (Sim:1h45m8s) 
CPU  0 inst:   55000001 cyc:   94098373 now IPC :0.26971: AVG IPC :0.56920: L2-Pf-HR :0.87700: L2-HR :0.86523: (Sim:1h46m25s) 
CPU  1 inst:   55000001 cyc:   94506704 now IPC :0.27091: AVG IPC :0.56672: L2-Pf-HR :0.86757: L2-HR :0.85535: (Sim:1h46m50s) 
CPU  3 inst:   55000001 cyc:   95013261 now IPC :0.27222: AVG IPC :0.56366: L2-Pf-HR :0.86055: L2-HR :0.84952: (Sim:1h47m22s) 
CPU  2 inst:   56000000 cyc:   96516749 now IPC :0.27434: AVG IPC :0.56526: L2-Pf-HR :0.87416: L2-HR :0.86120: (Sim:1h48m56s) 
CPU  0 inst:   56000000 cyc:   97735855 now IPC :0.27492: AVG IPC :0.55814: L2-Pf-HR :0.87515: L2-HR :0.86323: (Sim:1h50m12s) 
CPU  1 inst:   56000000 cyc:   98138037 now IPC :0.27538: AVG IPC :0.55583: L2-Pf-HR :0.86572: L2-HR :0.85340: (Sim:1h50m37s) 
CPU  3 inst:   56000000 cyc:   98643815 now IPC :0.27544: AVG IPC :0.55294: L2-Pf-HR :0.85907: L2-HR :0.84785: (Sim:1h51m9s) 
CPU  2 inst:   57000000 cyc:  100163452 now IPC :0.27422: AVG IPC :0.55456: L2-Pf-HR :0.87229: L2-HR :0.85922: (Sim:1h52m45s) 
CPU  0 inst:   57000000 cyc:  101390773 now IPC :0.27360: AVG IPC :0.54778: L2-Pf-HR :0.87333: L2-HR :0.86127: (Sim:1h54m2s) 
CPU  1 inst:   57000000 cyc:  101794332 now IPC :0.27350: AVG IPC :0.54559: L2-Pf-HR :0.86392: L2-HR :0.85149: (Sim:1h54m27s) 
CPU  3 inst:   57000000 cyc:  102305037 now IPC :0.27313: AVG IPC :0.54283: L2-Pf-HR :0.85757: L2-HR :0.84615: (Sim:1h54m59s) 
CPU  2 inst:   58000000 cyc:  103811888 now IPC :0.27409: AVG IPC :0.54461: L2-Pf-HR :0.87041: L2-HR :0.85723: (Sim:1h56m34s) 
CPU  0 inst:   58000000 cyc:  105026309 now IPC :0.27506: AVG IPC :0.53825: L2-Pf-HR :0.87169: L2-HR :0.85944: (Sim:1h57m51s) 
CPU  1 inst:   58000000 cyc:  105437945 now IPC :0.27445: AVG IPC :0.53613: L2-Pf-HR :0.86220: L2-HR :0.84962: (Sim:1h58m17s) 
CPU  3 inst:   58000000 cyc:  105951960 now IPC :0.27420: AVG IPC :0.53350: L2-Pf-HR :0.85606: L2-HR :0.84444: (Sim:1h58m49s) 
CPU  2 inst:   59000000 cyc:  107466678 now IPC :0.27361: AVG IPC :0.53530: L2-Pf-HR :0.86862: L2-HR :0.85532: (Sim:2h0m10s) 
CPU  0 inst:   59000000 cyc:  108682108 now IPC :0.27354: AVG IPC :0.52927: L2-Pf-HR :0.87002: L2-HR :0.85761: (Sim:2h0m52s) 
CPU  1 inst:   59000000 cyc:  109092687 now IPC :0.27362: AVG IPC :0.52726: L2-Pf-HR :0.86049: L2-HR :0.84780: (Sim:2h1m7s) 
CPU  3 inst:   59000000 cyc:  109603412 now IPC :0.27386: AVG IPC :0.52477: L2-Pf-HR :0.85451: L2-HR :0.84275: (Sim:2h1m24s) 
CPU  2 inst:   60000000 cyc:  111115261 now IPC :0.27408: AVG IPC :0.52665: L2-Pf-HR :0.86684: L2-HR :0.85343: (Sim:2h2m17s) 
CPU  0 inst:   60000000 cyc:  112332922 now IPC :0.27391: AVG IPC :0.52089: L2-Pf-HR :0.86843: L2-HR :0.85586: (Sim:2h2m59s) 
CPU  1 inst:   60000000 cyc:  112745904 now IPC :0.27373: AVG IPC :0.51897: L2-Pf-HR :0.85881: L2-HR :0.84600: (Sim:2h3m14s) 
CPU  3 inst:   60000000 cyc:  113257931 now IPC :0.27363: AVG IPC :0.51659: L2-Pf-HR :0.85298: L2-HR :0.84106: (Sim:2h3m32s) 
CPU  2 inst:   61000004 cyc:  114752752 now IPC :0.27492: AVG IPC :0.51860: L2-Pf-HR :0.86525: L2-HR :0.85170: (Sim:2h4m24s) 
CPU  0 inst:   61000004 cyc:  115974495 now IPC :0.27461: AVG IPC :0.51309: L2-Pf-HR :0.86684: L2-HR :0.85410: (Sim:2h5m7s) 
CPU  1 inst:   61000004 cyc:  116388506 now IPC :0.27453: AVG IPC :0.51125: L2-Pf-HR :0.85720: L2-HR :0.84426: (Sim:2h5m21s) 
CPU  3 inst:   61000004 cyc:  116892617 now IPC :0.27513: AVG IPC :0.50902: L2-Pf-HR :0.85157: L2-HR :0.83948: (Sim:2h5m39s) 
CPU  2 inst:   62000000 cyc:  118391588 now IPC :0.27481: AVG IPC :0.51105: L2-Pf-HR :0.86368: L2-HR :0.84998: (Sim:2h6m32s) 
CPU  0 inst:   62000000 cyc:  119616737 now IPC :0.27456: AVG IPC :0.50577: L2-Pf-HR :0.86528: L2-HR :0.85238: (Sim:2h7m14s) 
CPU  1 inst:   62000000 cyc:  120039458 now IPC :0.27390: AVG IPC :0.50397: L2-Pf-HR :0.85565: L2-HR :0.84257: (Sim:2h7m29s) 
CPU  3 inst:   62000000 cyc:  120544758 now IPC :0.27381: AVG IPC :0.50184: L2-Pf-HR :0.85009: L2-HR :0.83785: (Sim:2h7m47s) 
CPU  2 inst:   63000000 cyc:  122031080 now IPC :0.27476: AVG IPC :0.50394: L2-Pf-HR :0.86215: L2-HR :0.84832: (Sim:2h8m39s) 
CPU  0 inst:   63000000 cyc:  123244690 now IPC :0.27564: AVG IPC :0.49894: L2-Pf-HR :0.86386: L2-HR :0.85078: (Sim:2h9m21s) 
CPU  1 inst:   63000000 cyc:  123661260 now IPC :0.27611: AVG IPC :0.49725: L2-Pf-HR :0.85420: L2-HR :0.84098: (Sim:2h9m36s) 
CPU  3 inst:   63000000 cyc:  124168787 now IPC :0.27594: AVG IPC :0.49519: L2-Pf-HR :0.84871: L2-HR :0.83631: (Sim:2h9m54s) 
CPU  2 inst:   64000001 cyc:  125675793 now IPC :0.27437: AVG IPC :0.49723: L2-Pf-HR :0.86064: L2-HR :0.84667: (Sim:2h11m35s) 
CPU  0 inst:   64000001 cyc:  126906235 now IPC :0.27311: AVG IPC :0.49237: L2-Pf-HR :0.86232: L2-HR :0.84910: (Sim:2h12m58s) 
CPU  1 inst:   64000001 cyc:  127324640 now IPC :0.27297: AVG IPC :0.49074: L2-Pf-HR :0.85267: L2-HR :0.83933: (Sim:2h13m26s) 
CPU  3 inst:   64000001 cyc:  127834986 now IPC :0.27276: AVG IPC :0.48876: L2-Pf-HR :0.84729: L2-HR :0.83475: (Sim:2h14m0s) 
CPU  2 inst:   65000002 cyc:  129326810 now IPC :0.27390: AVG IPC :0.49088: L2-Pf-HR :0.85918: L2-HR :0.84507: (Sim:2h15m40s) 
CPU  0 inst:   65000002 cyc:  130538775 now IPC :0.27529: AVG IPC :0.48629: L2-Pf-HR :0.86096: L2-HR :0.84756: (Sim:2h17m1s) 
CPU  1 inst:   65000002 cyc:  130957200 now IPC :0.27529: AVG IPC :0.48472: L2-Pf-HR :0.85123: L2-HR :0.83776: (Sim:2h17m30s) 
CPU  3 inst:   65000002 cyc:  131461839 now IPC :0.27572: AVG IPC :0.48284: L2-Pf-HR :0.84598: L2-HR :0.83327: (Sim:2h18m3s) 
CPU  2 inst:   66000000 cyc:  132945182 now IPC :0.27637: AVG IPC :0.48500: L2-Pf-HR :0.85781: L2-HR :0.84356: (Sim:2h19m43s) 
CPU  0 inst:   66000000 cyc:  134166216 now IPC :0.27568: AVG IPC :0.48055: L2-Pf-HR :0.85964: L2-HR :0.84607: (Sim:2h21m5s) 
CPU  1 inst:   66000000 cyc:  134577093 now IPC :0.27625: AVG IPC :0.47907: L2-Pf-HR :0.84989: L2-HR :0.83628: (Sim:2h21m32s) 
CPU  3 inst:   66000000 cyc:  135086387 now IPC :0.27590: AVG IPC :0.47725: L2-Pf-HR :0.84471: L2-HR :0.83185: (Sim:2h22m7s) 
CPU  2 inst:   67000000 cyc:  136578443 now IPC :0.27523: AVG IPC :0.47937: L2-Pf-HR :0.85645: L2-HR :0.84206: (Sim:2h23m47s) 
CPU  0 inst:   67000000 cyc:  137801198 now IPC :0.27510: AVG IPC :0.47509: L2-Pf-HR :0.85838: L2-HR :0.84464: (Sim:2h25m9s) 
CPU  1 inst:   67000000 cyc:  138210281 now IPC :0.27524: AVG IPC :0.47368: L2-Pf-HR :0.84851: L2-HR :0.83477: (Sim:2h25m36s) 
CPU  3 inst:   67000000 cyc:  138725180 now IPC :0.27482: AVG IPC :0.47190: L2-Pf-HR :0.84345: L2-HR :0.83044: (Sim:2h26m11s) 
CPU  2 inst:   68000000 cyc:  140220830 now IPC :0.27455: AVG IPC :0.47402: L2-Pf-HR :0.85522: L2-HR :0.84066: (Sim:2h27m51s) 
CPU  0 inst:   68000000 cyc:  141438699 now IPC :0.27491: AVG IPC :0.46991: L2-Pf-HR :0.85728: L2-HR :0.84333: (Sim:2h29m12s) 
CPU  1 inst:   68000000 cyc:  141848737 now IPC :0.27484: AVG IPC :0.46854: L2-Pf-HR :0.84731: L2-HR :0.83342: (Sim:2h29m40s) 
CPU  3 inst:   68000000 cyc:  142359442 now IPC :0.27516: AVG IPC :0.46684: L2-Pf-HR :0.84234: L2-HR :0.82915: (Sim:2h30m14s) 
CPU  2 inst:   69000004 cyc:  143866952 now IPC :0.27427: AVG IPC :0.46892: L2-Pf-HR :0.85405: L2-HR :0.83933: (Sim:2h31m55s) 
CPU  0 inst:   69000004 cyc:  145098190 now IPC :0.27326: AVG IPC :0.46492: L2-Pf-HR :0.85612: L2-HR :0.84200: (Sim:2h33m18s) 
CPU  1 inst:   69000004 cyc:  145500182 now IPC :0.27387: AVG IPC :0.46362: L2-Pf-HR :0.84612: L2-HR :0.83208: (Sim:2h33m44s) 
CPU  3 inst:   69000004 cyc:  146008958 now IPC :0.27401: AVG IPC :0.46199: L2-Pf-HR :0.84136: L2-HR :0.82797: (Sim:2h34m18s) 
CPU  2 inst:   70000000 cyc:  147512755 now IPC :0.27429: AVG IPC :0.46408: L2-Pf-HR :0.85283: L2-HR :0.83796: (Sim:2h35m59s) 
CPU  0 inst:   70000000 cyc:  148732264 now IPC :0.27517: AVG IPC :0.46025: L2-Pf-HR :0.85500: L2-HR :0.84069: (Sim:2h37m21s) 
CPU  1 inst:   70000000 cyc:  149135656 now IPC :0.27507: AVG IPC :0.45900: L2-Pf-HR :0.84504: L2-HR :0.83082: (Sim:2h37m48s) 
CPU  3 inst:   70000000 cyc:  149637128 now IPC :0.27562: AVG IPC :0.45744: L2-Pf-HR :0.84055: L2-HR :0.82693: (Sim:2h38m22s) 
CPU  2 inst:   71000000 cyc:  151151461 now IPC :0.27482: AVG IPC :0.45949: L2-Pf-HR :0.85163: L2-HR :0.83662: (Sim:2h40m4s) 
CPU  0 inst:   71000000 cyc:  152365047 now IPC :0.27527: AVG IPC :0.45581: L2-Pf-HR :0.85394: L2-HR :0.83945: (Sim:2h41m25s) 
CPU  1 inst:   71000000 cyc:  152764761 now IPC :0.27555: AVG IPC :0.45461: L2-Pf-HR :0.84401: L2-HR :0.82962: (Sim:2h41m52s) 
CPU  3 inst:   71000000 cyc:  153271581 now IPC :0.27514: AVG IPC :0.45309: L2-Pf-HR :0.83970: L2-HR :0.82586: (Sim:2h42m26s) 
CPU  2 inst:   72000000 cyc:  154774130 now IPC :0.27604: AVG IPC :0.45517: L2-Pf-HR :0.85049: L2-HR :0.83534: (Sim:2h44m7s) 
CPU  0 inst:   72000000 cyc:  155997097 now IPC :0.27533: AVG IPC :0.45158: L2-Pf-HR :0.85288: L2-HR :0.83821: (Sim:2h45m29s) 
CPU  1 inst:   72000000 cyc:  156400741 now IPC :0.27503: AVG IPC :0.45041: L2-Pf-HR :0.84298: L2-HR :0.82843: (Sim:2h45m53s) 
CPU  3 inst:   72000000 cyc:  156903485 now IPC :0.27534: AVG IPC :0.44895: L2-Pf-HR :0.83890: L2-HR :0.82484: (Sim:2h46m10s) 
CPU  2 inst:   73000000 cyc:  158422432 now IPC :0.27410: AVG IPC :0.45097: L2-Pf-HR :0.84935: L2-HR :0.83405: (Sim:2h47m3s) 
CPU  0 inst:   73000000 cyc:  159640140 now IPC :0.27450: AVG IPC :0.44751: L2-Pf-HR :0.85183: L2-HR :0.83698: (Sim:2h47m45s) 
CPU  1 inst:   73000000 cyc:  160044912 now IPC :0.27441: AVG IPC :0.44638: L2-Pf-HR :0.84197: L2-HR :0.82726: (Sim:2h48m0s) 
CPU  3 inst:   73000000 cyc:  160550635 now IPC :0.27419: AVG IPC :0.44495: L2-Pf-HR :0.83809: L2-HR :0.82383: (Sim:2h48m17s) 
CPU  2 inst:   74000001 cyc:  162058385 now IPC :0.27503: AVG IPC :0.44700: L2-Pf-HR :0.84828: L2-HR :0.83284: (Sim:2h49m10s) 
CPU  0 inst:   74000001 cyc:  163280449 now IPC :0.27470: AVG IPC :0.44364: L2-Pf-HR :0.85090: L2-HR :0.83587: (Sim:2h49m53s) 
CPU  1 inst:   74000001 cyc:  163687319 now IPC :0.27454: AVG IPC :0.44253: L2-Pf-HR :0.84098: L2-HR :0.82612: (Sim:2h50m7s) 
CPU  3 inst:   74000001 cyc:  164203696 now IPC :0.27374: AVG IPC :0.44112: L2-Pf-HR :0.83716: L2-HR :0.82274: (Sim:2h50m25s) 
CPU  2 inst:   75000002 cyc:  165704028 now IPC :0.27430: AVG IPC :0.44318: L2-Pf-HR :0.84716: L2-HR :0.83159: (Sim:2h51m17s) 
CPU  0 inst:   75000002 cyc:  166923057 now IPC :0.27453: AVG IPC :0.43993: L2-Pf-HR :0.85000: L2-HR :0.83478: (Sim:2h52m0s) 
CPU  1 inst:   75000002 cyc:  167357586 now IPC :0.27246: AVG IPC :0.43878: L2-Pf-HR :0.83994: L2-HR :0.82494: (Sim:2h52m13s) 
CPU  2 inst:   76000001 cyc:  167884027 now IPC :0.45872: AVG IPC :0.44338: L2-Pf-HR :0.84901: L2-HR :0.83355: (Sim:2h52m37s) 
CPU  3 inst:   75000002 cyc:  167900355 now IPC :0.27051: AVG IPC :0.43734: L2-Pf-HR :0.83623: L2-HR :0.82165: (Sim:2h52m37s) 
CPU  2 inst:   77000003 cyc:  168748978 now IPC :1.15614: AVG IPC :0.44706: L2-Pf-HR :0.85355: L2-HR :0.83844: (Sim:2h53m13s) 
CPU  0 inst:   76000001 cyc:  169540233 now IPC :0.38209: AVG IPC :0.43903: L2-Pf-HR :0.85172: L2-HR :0.83661: (Sim:2h53m49s) 
CPU  2 inst:   78000005 cyc:  169669841 now IPC :1.08594: AVG IPC :0.45054: L2-Pf-HR :0.85824: L2-HR :0.84335: (Sim:2h53m57s) 
CPU  1 inst:   76000001 cyc:  169975146 now IPC :0.38203: AVG IPC :0.43790: L2-Pf-HR :0.84205: L2-HR :0.82711: (Sim:2h54m16s) 
CPU  2 inst:   79000000 cyc:  170313066 now IPC :1.55466: AVG IPC :0.45474: L2-Pf-HR :0.86287: L2-HR :0.84818: (Sim:2h54m43s) 
CPU  0 inst:   77000003 cyc:  170449957 now IPC :1.09924: AVG IPC :0.44257: L2-Pf-HR :0.85615: L2-HR :0.84138: (Sim:2h54m54s) 
CPU  3 inst:   76000001 cyc:  170561690 now IPC :0.37575: AVG IPC :0.43638: L2-Pf-HR :0.83845: L2-HR :0.82391: (Sim:2h55m2s) 
CPU  1 inst:   77000003 cyc:  170955793 now IPC :1.01974: AVG IPC :0.44125: L2-Pf-HR :0.84704: L2-HR :0.83234: (Sim:2h55m27s) 
CPU  2 inst:   80000000 cyc:  171305108 now IPC :1.00802: AVG IPC :0.45796: L2-Pf-HR :0.86620: L2-HR :0.85190: (Sim:2h55m51s) 
CPU  0 inst:   78000005 cyc:  171340150 now IPC :1.12335: AVG IPC :0.44613: L2-Pf-HR :0.86061: L2-HR :0.84609: (Sim:2h55m55s) 
CPU  3 inst:   77000003 cyc:  171602435 now IPC :0.96085: AVG IPC :0.43958: L2-Pf-HR :0.84356: L2-HR :0.82925: (Sim:2h56m15s) 
CPU  1 inst:   78000005 cyc:  171789872 now IPC :1.19893: AVG IPC :0.44495: L2-Pf-HR :0.85194: L2-HR :0.83745: (Sim:2h56m31s) 
CPU  0 inst:   79000000 cyc:  171950954 now IPC :1.63718: AVG IPC :0.45038: L2-Pf-HR :0.86451: L2-HR :0.85034: (Sim:2h56m46s) 
CPU  2 inst:   81000001 cyc:  172117561 now IPC :1.23084: AVG IPC :0.46163: L2-Pf-HR :0.86956: L2-HR :0.85559: (Sim:2h57m1s) 
CPU  3 inst:   78000005 cyc:  172304538 now IPC :1.42430: AVG IPC :0.44361: L2-Pf-HR :0.84852: L2-HR :0.83439: (Sim:2h57m19s) 
CPU  1 inst:   79000000 cyc:  172382141 now IPC :1.68841: AVG IPC :0.44925: L2-Pf-HR :0.85660: L2-HR :0.84233: (Sim:2h57m25s) 
CPU  0 inst:   80000000 cyc:  172737985 now IPC :1.27060: AVG IPC :0.45414: L2-Pf-HR :0.86795: L2-HR :0.85412: (Sim:2h57m56s) 
CPU  2 inst:   82000002 cyc:  172870816 now IPC :1.32757: AVG IPC :0.46543: L2-Pf-HR :0.87275: L2-HR :0.85911: (Sim:2h58m7s) 
CPU  3 inst:   79000000 cyc:  172892635 now IPC :1.70039: AVG IPC :0.44791: L2-Pf-HR :0.85304: L2-HR :0.83915: (Sim:2h58m9s) 
CPU  1 inst:   80000000 cyc:  173136894 now IPC :1.32494: AVG IPC :0.45309: L2-Pf-HR :0.86055: L2-HR :0.84656: (Sim:2h58m31s) 
CPU  2 inst:   83000004 cyc:  173476851 now IPC :1.65007: AVG IPC :0.46959: L2-Pf-HR :0.87581: L2-HR :0.86250: (Sim:2h58m58s) 
CPU  0 inst:   81000001 cyc:  173596140 now IPC :1.16529: AVG IPC :0.45768: L2-Pf-HR :0.87124: L2-HR :0.85773: (Sim:2h59m7s) 
CPU  3 inst:   80000000 cyc:  173745394 now IPC :1.17266: AVG IPC :0.45149: L2-Pf-HR :0.85697: L2-HR :0.84336: (Sim:2h59m19s) 
CPU  1 inst:   81000001 cyc:  174024205 now IPC :1.12700: AVG IPC :0.45655: L2-Pf-HR :0.86419: L2-HR :0.85048: (Sim:2h59m40s) 
CPU  2 inst:   84000005 cyc:  174277800 now IPC :1.24852: AVG IPC :0.47319: L2-Pf-HR :0.87830: L2-HR :0.86537: (Sim:2h59m59s) 
CPU  0 inst:   82000002 cyc:  174400182 now IPC :1.24372: AVG IPC :0.46132: L2-Pf-HR :0.87461: L2-HR :0.86138: (Sim:3h0m10s) 
CPU  3 inst:   81000001 cyc:  174648407 now IPC :1.10740: AVG IPC :0.45490: L2-Pf-HR :0.86073: L2-HR :0.84739: (Sim:3h0m29s) 
CPU  1 inst:   82000002 cyc:  174799005 now IPC :1.29066: AVG IPC :0.46026: L2-Pf-HR :0.86773: L2-HR :0.85430: (Sim:3h0m44s) 
CPU  0 inst:   83000004 cyc:  174989467 now IPC :1.69698: AVG IPC :0.46551: L2-Pf-HR :0.87736: L2-HR :0.86450: (Sim:3h1m2s) 
CPU  2 inst:   85000000 cyc:  175030059 now IPC :1.32932: AVG IPC :0.47689: L2-Pf-HR :0.88085: L2-HR :0.86824: (Sim:3h1m6s) 
CPU  3 inst:   82000002 cyc:  175366515 now IPC :1.39255: AVG IPC :0.45876: L2-Pf-HR :0.86415: L2-HR :0.85111: (Sim:3h1m37s) 
CPU  1 inst:   83000004 cyc:  175376937 now IPC :1.73031: AVG IPC :0.46447: L2-Pf-HR :0.87073: L2-HR :0.85766: (Sim:3h1m38s) 
CPU  0 inst:   84000005 cyc:  175693210 now IPC :1.42097: AVG IPC :0.46936: L2-Pf-HR :0.87973: L2-HR :0.86726: (Sim:3h2m6s) 
CPU  2 inst:   86000004 cyc:  175768099 now IPC :1.35495: AVG IPC :0.48060: L2-Pf-HR :0.88325: L2-HR :0.87094: (Sim:3h2m14s) 
CPU  3 inst:   83000004 cyc:  175950677 now IPC :1.71186: AVG IPC :0.46294: L2-Pf-HR :0.86732: L2-HR :0.85461: (Sim:3h2m30s) 
CPU  1 inst:   84000005 cyc:  176040606 now IPC :1.50678: AVG IPC :0.46843: L2-Pf-HR :0.87367: L2-HR :0.86090: (Sim:3h2m39s) 
CPU  2 inst:   87000005 cyc:  176327834 now IPC :1.78656: AVG IPC :0.48477: L2-Pf-HR :0.88565: L2-HR :0.87364: (Sim:3h3m8s) 
CPU  0 inst:   85000000 cyc:  176357467 now IPC :1.50543: AVG IPC :0.47328: L2-Pf-HR :0.88214: L2-HR :0.87000: (Sim:3h3m11s) 
CPU  3 inst:   84000005 cyc:  176607981 now IPC :1.52137: AVG IPC :0.46691: L2-Pf-HR :0.87000: L2-HR :0.85765: (Sim:3h3m32s) 
CPU  1 inst:   85000000 cyc:  176737324 now IPC :1.43529: AVG IPC :0.47226: L2-Pf-HR :0.87632: L2-HR :0.86387: (Sim:3h3m43s) 
CPU  2 inst:   88000004 cyc:  176972786 now IPC :1.55050: AVG IPC :0.48867: L2-Pf-HR :0.88761: L2-HR :0.87594: (Sim:3h4m2s) 
CPU  0 inst:   86000004 cyc:  177123323 now IPC :1.30573: AVG IPC :0.47690: L2-Pf-HR :0.88447: L2-HR :0.87263: (Sim:3h4m15s) 
CPU  3 inst:   85000000 cyc:  177385453 now IPC :1.28621: AVG IPC :0.47052: L2-Pf-HR :0.87279: L2-HR :0.86072: (Sim:3h4m38s) 
CPU  1 inst:   86000004 cyc:  177474625 now IPC :1.35630: AVG IPC :0.47595: L2-Pf-HR :0.87897: L2-HR :0.86678: (Sim:3h4m47s) 
CPU  2 inst:   89000001 cyc:  177675708 now IPC :1.42263: AVG IPC :0.49239: L2-Pf-HR :0.88956: L2-HR :0.87819: (Sim:3h5m6s) 
CPU  0 inst:   87000005 cyc:  177694730 now IPC :1.75007: AVG IPC :0.48102: L2-Pf-HR :0.88681: L2-HR :0.87525: (Sim:3h5m9s) 
CPU  3 inst:   86000004 cyc:  178016634 now IPC :1.58434: AVG IPC :0.47449: L2-Pf-HR :0.87547: L2-HR :0.86366: (Sim:3h5m40s) 
CPU  1 inst:   87000005 cyc:  178026784 now IPC :1.81107: AVG IPC :0.48012: L2-Pf-HR :0.88185: L2-HR :0.86988: (Sim:3h5m41s) 
CPU  0 inst:   88000001 cyc:  178292907 now IPC :1.67174: AVG IPC :0.48503: L2-Pf-HR :0.88900: L2-HR :0.87772: (Sim:3h6m8s) 
CPU  2 inst:   90000002 cyc:  178302703 now IPC :1.59491: AVG IPC :0.49628: L2-Pf-HR :0.89144: L2-HR :0.88036: (Sim:3h6m9s) 
CPU  3 inst:   87000005 cyc:  178553755 now IPC :1.86178: AVG IPC :0.47868: L2-Pf-HR :0.87798: L2-HR :0.86647: (Sim:3h6m34s) 
CPU  1 inst:   88000001 cyc:  178607828 now IPC :1.72103: AVG IPC :0.48417: L2-Pf-HR :0.88415: L2-HR :0.87245: (Sim:3h6m40s) 
CPU  2 inst:   91000003 cyc:  178850228 now IPC :1.82640: AVG IPC :0.50038: L2-Pf-HR :0.89300: L2-HR :0.88226: (Sim:3h7m5s) 
CPU  0 inst:   89000001 cyc:  178916928 now IPC :1.60251: AVG IPC :0.48895: L2-Pf-HR :0.89083: L2-HR :0.87986: (Sim:3h7m11s) 
CPU  3 inst:   88000005 cyc:  179150839 now IPC :1.67481: AVG IPC :0.48269: L2-Pf-HR :0.88048: L2-HR :0.86922: (Sim:3h7m33s) 
CPU  1 inst:   89000001 cyc:  179251789 now IPC :1.55289: AVG IPC :0.48804: L2-Pf-HR :0.88617: L2-HR :0.87477: (Sim:3h7m43s) 
CPU  2 inst:   92000001 cyc:  179400456 now IPC :1.81742: AVG IPC :0.50444: L2-Pf-HR :0.89474: L2-HR :0.88428: (Sim:3h7m57s) 
CPU  0 inst:   90000002 cyc:  179588354 now IPC :1.48937: AVG IPC :0.49271: L2-Pf-HR :0.89268: L2-HR :0.88199: (Sim:3h8m14s) 
CPU  3 inst:   89000001 cyc:  179845156 now IPC :1.44026: AVG IPC :0.48641: L2-Pf-HR :0.88263: L2-HR :0.87164: (Sim:3h8m37s) 
CPU  1 inst:   90000002 cyc:  179888344 now IPC :1.57096: AVG IPC :0.49189: L2-Pf-HR :0.88819: L2-HR :0.87706: (Sim:3h8m42s) 
CPU  2 inst:   93000002 cyc:  180140155 now IPC :1.35190: AVG IPC :0.50794: L2-Pf-HR :0.89623: L2-HR :0.88603: (Sim:3h9m5s) 
CPU  0 inst:   91000003 cyc:  180154469 now IPC :1.76643: AVG IPC :0.49674: L2-Pf-HR :0.89423: L2-HR :0.88386: (Sim:3h9m6s) 
CPU  1 inst:   91000003 cyc:  180459127 now IPC :1.75198: AVG IPC :0.49590: L2-Pf-HR :0.88985: L2-HR :0.87905: (Sim:3h9m37s) 
CPU  3 inst:   90000001 cyc:  180512696 now IPC :1.49804: AVG IPC :0.49017: L2-Pf-HR :0.88468: L2-HR :0.87397: (Sim:3h9m42s) 
CPU  0 inst:   92000001 cyc:  180685943 now IPC :1.88156: AVG IPC :0.50083: L2-Pf-HR :0.89619: L2-HR :0.88605: (Sim:3h10m0s) 
CPU  2 inst:   94000005 cyc:  180766979 now IPC :1.59535: AVG IPC :0.51173: L2-Pf-HR :0.89773: L2-HR :0.88779: (Sim:3h10m8s) 
CPU  1 inst:   92000001 cyc:  181009943 now IPC :1.81548: AVG IPC :0.49993: L2-Pf-HR :0.89205: L2-HR :0.88146: (Sim:3h10m32s) 
CPU  3 inst:   91000003 cyc:  181054257 now IPC :1.84652: AVG IPC :0.49425: L2-Pf-HR :0.88646: L2-HR :0.87605: (Sim:3h10m36s) 
CPU  0 inst:   93000002 cyc:  181343459 now IPC :1.52088: AVG IPC :0.50455: L2-Pf-HR :0.89763: L2-HR :0.88775: (Sim:3h11m6s) 
CPU  2 inst:   95000005 cyc:  181346741 now IPC :1.72485: AVG IPC :0.51563: L2-Pf-HR :0.89921: L2-HR :0.88951: (Sim:3h11m6s) 
CPU  3 inst:   92000001 cyc:  181595871 now IPC :1.84633: AVG IPC :0.49831: L2-Pf-HR :0.88837: L2-HR :0.87823: (Sim:3h11m32s) 
CPU  1 inst:   93000002 cyc:  181645284 now IPC :1.57396: AVG IPC :0.50371: L2-Pf-HR :0.89362: L2-HR :0.88328: (Sim:3h11m37s) 
CPU  2 inst:   96000001 cyc:  181885076 now IPC :1.85757: AVG IPC :0.51962: L2-Pf-HR :0.90064: L2-HR :0.89119: (Sim:3h11m59s) 
CPU  0 inst:   94000005 cyc:  181976455 now IPC :1.57979: AVG IPC :0.50831: L2-Pf-HR :0.89914: L2-HR :0.88951: (Sim:3h12m7s) 
CPU  3 inst:   93000002 cyc:  182340977 now IPC :1.34209: AVG IPC :0.50177: L2-Pf-HR :0.89006: L2-HR :0.88016: (Sim:3h12m39s) 
CPU  1 inst:   94000005 cyc:  182356750 now IPC :1.40555: AVG IPC :0.50725: L2-Pf-HR :0.89528: L2-HR :0.88518: (Sim:3h12m40s) 
CPU  2 inst:   97000000 cyc:  182542689 now IPC :1.52065: AVG IPC :0.52325: L2-Pf-HR :0.90188: L2-HR :0.89267: (Sim:3h12m58s) 
CPU  0 inst:   95000005 cyc:  182586077 now IPC :1.64036: AVG IPC :0.51211: L2-Pf-HR :0.90040: L2-HR :0.89105: (Sim:3h13m2s) 
CPU  1 inst:   95000005 cyc:  182931448 now IPC :1.74004: AVG IPC :0.51114: L2-Pf-HR :0.89690: L2-HR :0.88703: (Sim:3h13m56s) 
CPU  3 inst:   94000005 cyc:  182956665 now IPC :1.62420: AVG IPC :0.50557: L2-Pf-HR :0.89174: L2-HR :0.88207: (Sim:3h14m1s) 
CPU  0 inst:   96000001 cyc:  183124493 now IPC :1.85729: AVG IPC :0.51609: L2-Pf-HR :0.90189: L2-HR :0.89276: (Sim:3h14m31s) 
CPU  2 inst:   98000000 cyc:  183172080 now IPC :1.58884: AVG IPC :0.52693: L2-Pf-HR :0.90312: L2-HR :0.89414: (Sim:3h14m41s) 
CPU  1 inst:   96000001 cyc:  183479149 now IPC :1.82581: AVG IPC :0.51509: L2-Pf-HR :0.89842: L2-HR :0.88880: (Sim:3h15m34s) 
CPU  3 inst:   95000005 cyc:  183562764 now IPC :1.64990: AVG IPC :0.50937: L2-Pf-HR :0.89333: L2-HR :0.88390: (Sim:3h15m50s) 
CPU  0 inst:   97000000 cyc:  183776498 now IPC :1.53373: AVG IPC :0.51972: L2-Pf-HR :0.90309: L2-HR :0.89420: (Sim:3h16m29s) 
CPU  2 inst:   99000003 cyc:  183790770 now IPC :1.61632: AVG IPC :0.53062: L2-Pf-HR :0.90428: L2-HR :0.89553: (Sim:3h16m31s) 
CPU  3 inst:   96000001 cyc:  184106470 now IPC :1.83922: AVG IPC :0.51332: L2-Pf-HR :0.89487: L2-HR :0.88568: (Sim:3h17m30s) 
CPU  1 inst:   97000000 cyc:  184113510 now IPC :1.57639: AVG IPC :0.51876: L2-Pf-HR :0.89971: L2-HR :0.89032: (Sim:3h17m31s) 
CPU  2 inst:  100000000 cyc:  184342285 now IPC :1.81318: AVG IPC :0.53448: L2-Pf-HR :0.90545: L2-HR :0.89694: (Sim:3h18m9s) 
CPU  0 inst:   98000000 cyc:  184431744 now IPC :1.52614: AVG IPC :0.52332: L2-Pf-HR :0.90432: L2-HR :0.89565: (Sim:3h18m26s) 
CPU  3 inst:   97000000 cyc:  184848671 now IPC :1.34734: AVG IPC :0.51668: L2-Pf-HR :0.89637: L2-HR :0.88738: (Sim:3h19m30s) 
CPU  1 inst:   98000000 cyc:  184849910 now IPC :1.35796: AVG IPC :0.52213: L2-Pf-HR :0.90106: L2-HR :0.89189: (Sim:3h19m31s) 
CPU  2 inst:  101000004 cyc:  184998867 now IPC :1.52305: AVG IPC :0.53800: L2-Pf-HR :0.90657: L2-HR :0.89826: (Sim:3h19m57s) 
CPU  0 inst:   99000003 cyc:  185075768 now IPC :1.55274: AVG IPC :0.52692: L2-Pf-HR :0.90549: L2-HR :0.89704: (Sim:3h20m10s) 
CPU  1 inst:   99000003 cyc:  185444277 now IPC :1.68247: AVG IPC :0.52586: L2-Pf-HR :0.90231: L2-HR :0.89336: (Sim:3h21m17s) 
CPU  3 inst:   98000000 cyc:  185502474 now IPC :1.52951: AVG IPC :0.52027: L2-Pf-HR :0.89776: L2-HR :0.88898: (Sim:3h21m29s) 
CPU  0 inst:  100000000 cyc:  185603468 now IPC :1.89501: AVG IPC :0.53083: L2-Pf-HR :0.90667: L2-HR :0.89844: (Sim:3h21m48s) 
CPU  2 inst:  102000005 cyc:  185640044 now IPC :1.55963: AVG IPC :0.54155: L2-Pf-HR :0.90763: L2-HR :0.89952: (Sim:3h21m55s) 
CPU  1 inst:  100000000 cyc:  185975970 now IPC :1.88078: AVG IPC :0.52976: L2-Pf-HR :0.90355: L2-HR :0.89484: (Sim:3h22m57s) 
CPU  3 inst:   99000003 cyc:  186085664 now IPC :1.71471: AVG IPC :0.52404: L2-Pf-HR :0.89894: L2-HR :0.89040: (Sim:3h23m18s) 
CPU  0 inst:  101000004 cyc:  186210161 now IPC :1.64829: AVG IPC :0.53449: L2-Pf-HR :0.90763: L2-HR :0.89963: (Sim:3h23m43s) 
CPU  2 inst:  103000005 cyc:  186246431 now IPC :1.64911: AVG IPC :0.54518: L2-Pf-HR :0.90856: L2-HR :0.90065: (Sim:3h23m48s) 
CPU  1 inst:  101000004 cyc:  186606443 now IPC :1.58612: AVG IPC :0.53335: L2-Pf-HR :0.90463: L2-HR :0.89613: (Sim:3h24m54s) 
CPU  3 inst:  100000000 cyc:  186617815 now IPC :1.87916: AVG IPC :0.52792: L2-Pf-HR :0.90024: L2-HR :0.89192: (Sim:3h24m57s) 
CPU  2 inst:  104000000 cyc:  186774308 now IPC :1.89437: AVG IPC :0.54901: L2-Pf-HR :0.90968: L2-HR :0.90195: (Sim:3h25m25s) 
CPU  0 inst:  102000005 cyc:  186868005 now IPC :1.52012: AVG IPC :0.53798: L2-Pf-HR :0.90866: L2-HR :0.90085: (Sim:3h25m43s) 
CPU  3 inst:  101000004 cyc:  187291857 now IPC :1.48359: AVG IPC :0.53138: L2-Pf-HR :0.90156: L2-HR :0.89341: (Sim:3h26m50s) 
CPU  1 inst:  102000005 cyc:  187314179 now IPC :1.41296: AVG IPC :0.53669: L2-Pf-HR :0.90574: L2-HR :0.89744: (Sim:3h26m53s) 
CPU  2 inst:  105000002 cyc:  187407432 now IPC :1.57947: AVG IPC :0.55251: L2-Pf-HR :0.91058: L2-HR :0.90304: (Sim:3h27m9s) 
CPU  0 inst:  103000005 cyc:  187532620 now IPC :1.50463: AVG IPC :0.54142: L2-Pf-HR :0.90965: L2-HR :0.90202: (Sim:3h27m31s) 
CPU  1 inst:  103000005 cyc:  187948795 now IPC :1.57576: AVG IPC :0.54021: L2-Pf-HR :0.90687: L2-HR :0.89875: (Sim:3h28m46s) 
CPU  3 inst:  102000005 cyc:  187952465 now IPC :1.51376: AVG IPC :0.53485: L2-Pf-HR :0.90272: L2-HR :0.89477: (Sim:3h28m46s) 
CPU  2 inst:  106000003 cyc:  188044706 now IPC :1.56919: AVG IPC :0.55597: L2-Pf-HR :0.91145: L2-HR :0.90409: (Sim:3h29m4s) 
CPU  0 inst:  104000000 cyc:  188078350 now IPC :1.83240: AVG IPC :0.54518: L2-Pf-HR :0.91064: L2-HR :0.90322: (Sim:3h29m10s) 
CPU  1 inst:  104000000 cyc:  188487030 now IPC :1.85792: AVG IPC :0.54400: L2-Pf-HR :0.90795: L2-HR :0.90002: (Sim:3h30m25s) 
CPU  3 inst:  103000005 cyc:  188572346 now IPC :1.61321: AVG IPC :0.53841: L2-Pf-HR :0.90391: L2-HR :0.89613: (Sim:3h30m41s) 
CPU  0 inst:  105000002 cyc:  188671309 now IPC :1.68646: AVG IPC :0.54879: L2-Pf-HR :0.91148: L2-HR :0.90425: (Sim:3h30m57s) 
CPU  2 inst:  107000001 cyc:  188685595 now IPC :1.56033: AVG IPC :0.55940: L2-Pf-HR :0.91215: L2-HR :0.90500: (Sim:3h30m59s) 
CPU  1 inst:  105000002 cyc:  189082300 now IPC :1.67991: AVG IPC :0.54759: L2-Pf-HR :0.90885: L2-HR :0.90113: (Sim:3h31m39s) 
CPU  3 inst:  104000000 cyc:  189114340 now IPC :1.84503: AVG IPC :0.54218: L2-Pf-HR :0.90512: L2-HR :0.89752: (Sim:3h31m42s) 
CPU  2 inst:  108000005 cyc:  189234029 now IPC :1.82338: AVG IPC :0.56308: L2-Pf-HR :0.91339: L2-HR :0.90636: (Sim:3h31m55s) 
CPU  0 inst:  106000003 cyc:  189297641 now IPC :1.59660: AVG IPC :0.55228: L2-Pf-HR :0.91234: L2-HR :0.90529: (Sim:3h32m2s) 
CPU  1 inst:  106000003 cyc:  189736587 now IPC :1.52838: AVG IPC :0.55099: L2-Pf-HR :0.90978: L2-HR :0.90224: (Sim:3h32m43s) 
CPU  3 inst:  105000002 cyc:  189741257 now IPC :1.59511: AVG IPC :0.54567: L2-Pf-HR :0.90609: L2-HR :0.89869: (Sim:3h32m44s) 
CPU  2 inst:  109000003 cyc:  189810716 now IPC :1.73404: AVG IPC :0.56666: L2-Pf-HR :0.91418: L2-HR :0.90731: (Sim:3h32m49s) 
CPU  0 inst:  107000001 cyc:  189947459 now IPC :1.53889: AVG IPC :0.55567: L2-Pf-HR :0.91309: L2-HR :0.90623: (Sim:3h33m2s) 
CPU  1 inst:  107000001 cyc:  190389327 now IPC :1.53200: AVG IPC :0.55437: L2-Pf-HR :0.91070: L2-HR :0.90333: (Sim:3h33m46s) 
CPU  3 inst:  106000003 cyc:  190396220 now IPC :1.52681: AVG IPC :0.54907: L2-Pf-HR :0.90707: L2-HR :0.89984: (Sim:3h33m47s) 
CPU  2 inst:  110000001 cyc:  190455502 now IPC :1.55090: AVG IPC :0.57001: L2-Pf-HR :0.91491: L2-HR :0.90821: (Sim:3h33m53s) 
CPU  0 inst:  108000005 cyc:  190495207 now IPC :1.82566: AVG IPC :0.55934: L2-Pf-HR :0.91429: L2-HR :0.90754: (Sim:3h33m57s) 
CPU  1 inst:  108000005 cyc:  190924836 now IPC :1.86739: AVG IPC :0.55807: L2-Pf-HR :0.91187: L2-HR :0.90463: (Sim:3h34m41s) 
CPU  3 inst:  107000001 cyc:  191014783 now IPC :1.61665: AVG IPC :0.55254: L2-Pf-HR :0.90806: L2-HR :0.90098: (Sim:3h34m49s) 
CPU  2 inst:  111000002 cyc:  191075572 now IPC :1.61272: AVG IPC :0.57341: L2-Pf-HR :0.91564: L2-HR :0.90910: (Sim:3h34m56s) 
CPU  0 inst:  109000003 cyc:  191078189 now IPC :1.71532: AVG IPC :0.56288: L2-Pf-HR :0.91507: L2-HR :0.90849: (Sim:3h34m56s) 
CPU  1 inst:  109000003 cyc:  191502574 now IPC :1.73088: AVG IPC :0.56163: L2-Pf-HR :0.91278: L2-HR :0.90570: (Sim:3h35m40s) 
CPU  3 inst:  108000005 cyc:  191548960 now IPC :1.87205: AVG IPC :0.55624: L2-Pf-HR :0.90916: L2-HR :0.90224: (Sim:3h35m45s) 
CPU  2 inst:  112000005 cyc:  191608885 now IPC :1.87508: AVG IPC :0.57705: L2-Pf-HR :0.91643: L2-HR :0.91005: (Sim:3h35m51s) 
CPU  0 inst:  110000001 cyc:  191697823 now IPC :1.61385: AVG IPC :0.56630: L2-Pf-HR :0.91576: L2-HR :0.90935: (Sim:3h36m0s) 
CPU  3 inst:  109000003 cyc:  192149969 now IPC :1.66387: AVG IPC :0.55972: L2-Pf-HR :0.91023: L2-HR :0.90344: (Sim:3h36m44s) 
CPU  1 inst:  110000003 cyc:  192154519 now IPC :1.53387: AVG IPC :0.56495: L2-Pf-HR :0.91352: L2-HR :0.90661: (Sim:3h36m44s) 
CPU  2 inst:  113000001 cyc:  192205207 now IPC :1.67694: AVG IPC :0.58048: L2-Pf-HR :0.91734: L2-HR :0.91107: (Sim:3h36m47s) 
CPU  0 inst:  111000002 cyc:  192429807 now IPC :1.36615: AVG IPC :0.56936: L2-Pf-HR :0.91640: L2-HR :0.91016: (Sim:3h37m5s) 
CPU  1 inst:  111000002 cyc:  192888519 now IPC :1.36240: AVG IPC :0.56800: L2-Pf-HR :0.91420: L2-HR :0.90746: (Sim:3h38m1s) 
CPU  3 inst:  110000004 cyc:  192915573 now IPC :1.30616: AVG IPC :0.56270: L2-Pf-HR :0.91106: L2-HR :0.90442: (Sim:3h38m4s) 
CPU  2 inst:  114000001 cyc:  192957509 now IPC :1.32925: AVG IPC :0.58342: L2-Pf-HR :0.91796: L2-HR :0.91184: (Sim:3h38m8s) 
CPU  0 inst:  112000005 cyc:  192997868 now IPC :1.76038: AVG IPC :0.57288: L2-Pf-HR :0.91712: L2-HR :0.91104: (Sim:3h38m12s) 
CPU  1 inst:  112000005 cyc:  193438090 now IPC :1.81961: AVG IPC :0.57157: L2-Pf-HR :0.91498: L2-HR :0.90841: (Sim:3h38m56s) 
CPU  0 inst:  113000005 cyc:  193573936 now IPC :1.73591: AVG IPC :0.57636: L2-Pf-HR :0.91799: L2-HR :0.91202: (Sim:3h39m9s) 
CPU  3 inst:  111000002 cyc:  193587623 now IPC :1.48798: AVG IPC :0.56593: L2-Pf-HR :0.91176: L2-HR :0.90529: (Sim:3h39m10s) 
CPU  2 inst:  115000001 cyc:  193633750 now IPC :1.47876: AVG IPC :0.58656: L2-Pf-HR :0.91861: L2-HR :0.91264: (Sim:3h39m14s) 
CPU  1 inst:  113000005 cyc:  194014575 now IPC :1.73465: AVG IPC :0.57504: L2-Pf-HR :0.91593: L2-HR :0.90948: (Sim:3h39m52s) 
CPU  3 inst:  112000005 cyc:  194123824 now IPC :1.86498: AVG IPC :0.56954: L2-Pf-HR :0.91258: L2-HR :0.90627: (Sim:3h40m3s) 
CPU  2 inst:  116000003 cyc:  194199885 now IPC :1.76637: AVG IPC :0.59002: L2-Pf-HR :0.91931: L2-HR :0.91347: (Sim:3h40m10s) 
CPU  0 inst:  114000001 cyc:  194251088 now IPC :1.47677: AVG IPC :0.57951: L2-Pf-HR :0.91857: L2-HR :0.91275: (Sim:3h40m19s) 
CPU  1 inst:  114000000 cyc:  194657821 now IPC :1.55461: AVG IPC :0.57830: L2-Pf-HR :0.91656: L2-HR :0.91026: (Sim:3h41m37s) 
CPU  3 inst:  113000004 cyc:  194688410 now IPC :1.77121: AVG IPC :0.57304: L2-Pf-HR :0.91359: L2-HR :0.90740: (Sim:3h41m41s) 
CPU  2 inst:  117000005 cyc:  194740590 now IPC :1.84944: AVG IPC :0.59353: L2-Pf-HR :0.91996: L2-HR :0.91426: (Sim:3h41m50s) 
CPU  0 inst:  115000001 cyc:  194909793 now IPC :1.51813: AVG IPC :0.58270: L2-Pf-HR :0.91922: L2-HR :0.91354: (Sim:3h42m16s) 
CPU  1 inst:  115000001 cyc:  195343523 now IPC :1.45836: AVG IPC :0.58140: L2-Pf-HR :0.91728: L2-HR :0.91112: (Sim:3h43m31s) 
CPU  3 inst:  114000003 cyc:  195386319 now IPC :1.43285: AVG IPC :0.57613: L2-Pf-HR :0.91428: L2-HR :0.90823: (Sim:3h43m39s) 
CPU  2 inst:  118000001 cyc:  195472054 now IPC :1.36712: AVG IPC :0.59644: L2-Pf-HR :0.92043: L2-HR :0.91488: (Sim:3h43m52s) 
CPU  0 inst:  116000003 cyc:  195496862 now IPC :1.70338: AVG IPC :0.58609: L2-Pf-HR :0.91977: L2-HR :0.91424: (Sim:3h43m57s) 
CPU  1 inst:  116000003 cyc:  195924210 now IPC :1.72210: AVG IPC :0.58480: L2-Pf-HR :0.91788: L2-HR :0.91187: (Sim:3h45m18s) 
CPU  3 inst:  115000001 cyc:  196022017 now IPC :1.57307: AVG IPC :0.57937: L2-Pf-HR :0.91500: L2-HR :0.90909: (Sim:3h45m36s) 
CPU  0 inst:  117000005 cyc:  196040425 now IPC :1.83972: AVG IPC :0.58958: L2-Pf-HR :0.92039: L2-HR :0.91501: (Sim:3h45m39s) 
CPU  2 inst:  119000005 cyc:  196119508 now IPC :1.54452: AVG IPC :0.59959: L2-Pf-HR :0.92101: L2-HR :0.91558: (Sim:3h45m52s) 
CPU  1 inst:  117000005 cyc:  196506746 now IPC :1.71664: AVG IPC :0.58817: L2-Pf-HR :0.91853: L2-HR :0.91267: (Sim:3h47m1s) 
CPU  3 inst:  116000003 cyc:  196609949 now IPC :1.70088: AVG IPC :0.58275: L2-Pf-HR :0.91566: L2-HR :0.90989: (Sim:3h47m21s) 
CPU  0 inst:  118000001 cyc:  196716913 now IPC :1.47822: AVG IPC :0.59265: L2-Pf-HR :0.92081: L2-HR :0.91557: (Sim:3h47m41s) 
CPU  2 inst:  120000005 cyc:  196723309 now IPC :1.65617: AVG IPC :0.60285: L2-Pf-HR :0.92156: L2-HR :0.91626: (Sim:3h47m42s) 
CPU  3 inst:  117000005 cyc:  197148300 now IPC :1.85753: AVG IPC :0.58624: L2-Pf-HR :0.91634: L2-HR :0.91072: (Sim:3h49m6s) 
CPU  1 inst:  118000000 cyc:  197155522 now IPC :1.54136: AVG IPC :0.59133: L2-Pf-HR :0.91900: L2-HR :0.91329: (Sim:3h49m7s) 
CPU  2 inst:  121000004 cyc:  197258803 now IPC :1.86743: AVG IPC :0.60630: L2-Pf-HR :0.92216: L2-HR :0.91699: (Sim:3h49m26s) 
CPU  0 inst:  119000005 cyc:  197348607 now IPC :1.58305: AVG IPC :0.59584: L2-Pf-HR :0.92138: L2-HR :0.91627: (Sim:3h49m40s) 
CPU  1 inst:  119000005 cyc:  197852733 now IPC :1.43429: AVG IPC :0.59431: L2-Pf-HR :0.91961: L2-HR :0.91403: (Sim:3h51m5s) 
CPU  3 inst:  118000001 cyc:  197864360 now IPC :1.39653: AVG IPC :0.58919: L2-Pf-HR :0.91684: L2-HR :0.91137: (Sim:3h51m8s) 
CPU  2 inst:  122000004 cyc:  197936020 now IPC :1.47663: AVG IPC :0.60929: L2-Pf-HR :0.92254: L2-HR :0.91750: (Sim:3h51m21s) 
Finished CPU 2 instr: 120000003 cyc: 196950382 AVG IPC: 0.60929 (Sim time: 3h51m21s)
CPU  0 inst:  120000005 cyc:  197955436 now IPC :1.64791: AVG IPC :0.59908: L2-Pf-HR :0.92214: L2-HR :0.91711: (Sim:3h51m24s) 
CPU  1 inst:  120000005 cyc:  198425000 now IPC :1.74744: AVG IPC :0.59765: L2-Pf-HR :0.92046: L2-HR :0.91496: (Sim:3h52m53s) 
CPU  3 inst:  119000005 cyc:  198489919 now IPC :1.59858: AVG IPC :0.59239: L2-Pf-HR :0.91746: L2-HR :0.91211: (Sim:3h53m6s) 
CPU  0 inst:  121000004 cyc:  198490341 now IPC :1.86949: AVG IPC :0.60252: L2-Pf-HR :0.92273: L2-HR :0.91782: (Sim:3h53m6s) 
CPU  2 inst:  123000002 cyc:  198570621 now IPC :1.57579: AVG IPC :0.61239: L2-Pf-HR :0.92302: L2-HR :0.91811: (Sim:3h53m21s) 
CPU  1 inst:  121000004 cyc:  198982073 now IPC :1.79510: AVG IPC :0.60102: L2-Pf-HR :0.92102: L2-HR :0.91566: (Sim:3h54m36s) 
CPU  3 inst:  120000005 cyc:  199075841 now IPC :1.70671: AVG IPC :0.59568: L2-Pf-HR :0.91819: L2-HR :0.91295: (Sim:3h54m55s) 
CPU  0 inst:  122000004 cyc:  199142322 now IPC :1.53379: AVG IPC :0.60558: L2-Pf-HR :0.92326: L2-HR :0.91846: (Sim:3h55m6s) 
Finished CPU 0 instr: 120000004 cyc: 198156443 AVG IPC: 0.60558 (Sim time: 3h55m6s)
CPU  2 inst:  124000001 cyc:  199183611 now IPC :1.63135: AVG IPC :0.61555: L2-Pf-HR :0.92356: L2-HR :0.91876: (Sim:3h55m15s) 
CPU  3 inst:  121000004 cyc:  199615242 now IPC :1.85391: AVG IPC :0.59910: L2-Pf-HR :0.91880: L2-HR :0.91369: (Sim:3h56m35s) 
CPU  1 inst:  122000004 cyc:  199626829 now IPC :1.55097: AVG IPC :0.60411: L2-Pf-HR :0.92142: L2-HR :0.91621: (Sim:3h56m37s) 
Finished CPU 1 instr: 120000001 cyc: 198640916 AVG IPC: 0.60411 (Sim time: 3h56m37s)
CPU  2 inst:  125000003 cyc:  199721674 now IPC :1.85852: AVG IPC :0.61891: L2-Pf-HR :0.92418: L2-HR :0.91947: (Sim:3h56m54s) 
CPU  0 inst:  123000002 cyc:  199789564 now IPC :1.54501: AVG IPC :0.60864: L2-Pf-HR :0.92374: L2-HR :0.91907: (Sim:3h57m8s) 
*** Reached end of trace for Core: 2 Repeating trace: 770-tot_memTraces_v3/memTraces[125000000][OPT-125M]_[h12][s512][d64].champsim.xz
CPU  3 inst:  122000004 cyc:  200354564 now IPC :1.35259: AVG IPC :0.60190: L2-Pf-HR :0.91924: L2-HR :0.91426: (Sim:3h58m34s) 
Finished CPU 3 instr: 120000005 cyc: 199369671 AVG IPC: 0.60190 (Sim time: 3h58m34s)

ChampSim completed all CPUs

Total Simulation Statistics (not including warmup)

CPU 0 cumulative IPC: 0.61121 instructions: 121856683 cycles: 199369670
Core_0_L1D_total_access 75514713
Core_0_L1D_total_hit 69269713
Core_0_L1D_total_miss 6245000
Core_0_L1D_loads 30419291
Core_0_L1D_load_hit 27280403
Core_0_L1D_load_miss 3138888
Core_0_L1D_RFOs 3273711
Core_0_L1D_RFO_hit 3093640
Core_0_L1D_RFO_miss 180071
Core_0_L1D_prefetches 41821711
Core_0_L1D_prefetch_hit 38895670
Core_0_L1D_prefetch_miss 2926041
Core_0_L1D_writebacks 0
Core_0_L1D_writeback_hit 0
Core_0_L1D_writeback_miss 0

Core_0_L1I_total_access 17199908
Core_0_L1I_total_hit 17194957
Core_0_L1I_total_miss 4951
Core_0_L1I_loads 17199908
Core_0_L1I_load_hit 17194957
Core_0_L1I_load_miss 4951
Core_0_L1I_RFOs 0
Core_0_L1I_RFO_hit 0
Core_0_L1I_RFO_miss 0
Core_0_L1I_prefetches 0
Core_0_L1I_prefetch_hit 0
Core_0_L1I_prefetch_miss 0
Core_0_L1I_writebacks 0
Core_0_L1I_writeback_hit 0
Core_0_L1I_writeback_miss 0

Core_0_L2C_total_access 15657859
Core_0_L2C_total_hit 14399595
Core_0_L2C_total_miss 1258264
Core_0_L2C_loads 2998261
Core_0_L2C_load_hit 2763108
Core_0_L2C_load_miss 235153
Core_0_L2C_RFOs 180065
Core_0_L2C_RFO_hit 46073
Core_0_L2C_RFO_miss 133992
Core_0_L2C_prefetches 11731188
Core_0_L2C_prefetch_hit 10842349
Core_0_L2C_prefetch_miss 888839
Core_0_L2C_writebacks 748345
Core_0_L2C_writeback_hit 748065
Core_0_L2C_writeback_miss 280

CPU 0 L1D next line prefetcher final stats
CPU 0 L2C PC-based stride prefetcher final stats
Stride Degree: 15
MK1  MARKOV_LRU_SIZE: 128
MK1  MARKOV_PREDICTION_PERCENTTHRESHOLD: 40.00000
MK1  OUTLIERS_THRESHOLD_Max: 64
MK1  OUTLIERS_THRESHOLD_Min: 32
MK2  MARKOV_LRU_SIZE: 256
MK2  MARKOV_PREDICTION_PERCENTTHRESHOLD: 30.00000
MK2  OUTLIERS_THRESHOLD_Max: 32
MK2  OUTLIERS_THRESHOLD_Min: 16
MK3  MARKOV_LRU_SIZE: 384
MK3  MARKOV_PREDICTION_PERCENTTHRESHOLD: 25.00000
MK3  OUTLIERS_THRESHOLD_Max: 16
MK3  OUTLIERS_THRESHOLD_Min: 8
MK4  MARKOV_LRU_SIZE: 512
MK4  MARKOV_PREDICTION_PERCENTTHRESHOLD: 20.00000
MK4  OUTLIERS_THRESHOLD_Max: 8
MK4  OUTLIERS_THRESHOLD_Min: 0
IPStride Degree/Access Ratio: 2.22073
MK1 IPDEltaMarkov  Degree/Access Ratio: 0.51324
MK2 IPDEltaMarkov  Degree/Access Ratio: 0.79733
MK3 IPDEltaMarkov  Degree/Access Ratio: 0.75216
MK4 IPDEltaMarkov  Degree/Access Ratio: 1.38233
Core_0_LLC_total_access 1936455
Core_0_LLC_total_hit 843363
Core_0_LLC_total_miss 1093092
Core_0_LLC_loads 118741
Core_0_LLC_load_hit 31170
Core_0_LLC_load_miss 87571
Core_0_LLC_RFOs 133992
Core_0_LLC_RFO_hit 33
Core_0_LLC_RFO_miss 133959
Core_0_LLC_prefetches 1043450
Core_0_LLC_prefetch_hit 185525
Core_0_LLC_prefetch_miss 857925
Core_0_LLC_writebacks 640272
Core_0_LLC_writeback_hit 626635
Core_0_LLC_writeback_miss 13637


CPU 1 cumulative IPC: 0.60688 instructions: 120994219 cycles: 199369670
Core_1_L1D_total_access 75060849
Core_1_L1D_total_hit 68896156
Core_1_L1D_total_miss 6164693
Core_1_L1D_loads 30180997
Core_1_L1D_load_hit 27081601
Core_1_L1D_load_miss 3099396
Core_1_L1D_RFOs 3271432
Core_1_L1D_RFO_hit 3091383
Core_1_L1D_RFO_miss 180049
Core_1_L1D_prefetches 41608420
Core_1_L1D_prefetch_hit 38723172
Core_1_L1D_prefetch_miss 2885248
Core_1_L1D_writebacks 0
Core_1_L1D_writeback_hit 0
Core_1_L1D_writeback_miss 0

Core_1_L1I_total_access 17117763
Core_1_L1I_total_hit 17112829
Core_1_L1I_total_miss 4934
Core_1_L1I_loads 17117763
Core_1_L1I_load_hit 17112829
Core_1_L1I_load_miss 4934
Core_1_L1I_RFOs 0
Core_1_L1I_RFO_hit 0
Core_1_L1I_RFO_miss 0
Core_1_L1I_prefetches 0
Core_1_L1I_prefetch_hit 0
Core_1_L1I_prefetch_miss 0
Core_1_L1I_writebacks 0
Core_1_L1I_writeback_hit 0
Core_1_L1I_writeback_miss 0

Core_1_L2C_total_access 15359625
Core_1_L2C_total_hit 14082413
Core_1_L2C_total_miss 1277212
Core_1_L2C_loads 2958117
Core_1_L2C_load_hit 2710751
Core_1_L2C_load_miss 247366
Core_1_L2C_RFOs 180040
Core_1_L2C_RFO_hit 46059
Core_1_L2C_RFO_miss 133981
Core_1_L2C_prefetches 11474036
Core_1_L2C_prefetch_hit 10578374
Core_1_L2C_prefetch_miss 895662
Core_1_L2C_writebacks 747432
Core_1_L2C_writeback_hit 747229
Core_1_L2C_writeback_miss 203

CPU 1 L1D next line prefetcher final stats
CPU 1 L2C PC-based stride prefetcher final stats
Stride Degree: 15
MK1  MARKOV_LRU_SIZE: 128
MK1  MARKOV_PREDICTION_PERCENTTHRESHOLD: 40.00000
MK1  OUTLIERS_THRESHOLD_Max: 64
MK1  OUTLIERS_THRESHOLD_Min: 32
MK2  MARKOV_LRU_SIZE: 256
MK2  MARKOV_PREDICTION_PERCENTTHRESHOLD: 30.00000
MK2  OUTLIERS_THRESHOLD_Max: 32
MK2  OUTLIERS_THRESHOLD_Min: 16
MK3  MARKOV_LRU_SIZE: 384
MK3  MARKOV_PREDICTION_PERCENTTHRESHOLD: 25.00000
MK3  OUTLIERS_THRESHOLD_Max: 16
MK3  OUTLIERS_THRESHOLD_Min: 8
MK4  MARKOV_LRU_SIZE: 512
MK4  MARKOV_PREDICTION_PERCENTTHRESHOLD: 20.00000
MK4  OUTLIERS_THRESHOLD_Max: 8
MK4  OUTLIERS_THRESHOLD_Min: 0
IPStride Degree/Access Ratio: 2.22073
MK1 IPDEltaMarkov  Degree/Access Ratio: 0.51324
MK2 IPDEltaMarkov  Degree/Access Ratio: 0.79733
MK3 IPDEltaMarkov  Degree/Access Ratio: 0.75216
MK4 IPDEltaMarkov  Degree/Access Ratio: 1.38233
Core_1_LLC_total_access 1966898
Core_1_LLC_total_hit 876702
Core_1_LLC_total_miss 1090196
Core_1_LLC_loads 130427
Core_1_LLC_load_hit 42776
Core_1_LLC_load_miss 87651
Core_1_LLC_RFOs 133981
Core_1_LLC_RFO_hit 18
Core_1_LLC_RFO_miss 133963
Core_1_LLC_prefetches 1052619
Core_1_LLC_prefetch_hit 199079
Core_1_LLC_prefetch_miss 853540
Core_1_LLC_writebacks 649871
Core_1_LLC_writeback_hit 634829
Core_1_LLC_writeback_miss 15042


CPU 2 cumulative IPC: 0.62034 instructions: 123676731 cycles: 199369671
Core_2_L1D_total_access 76337578
Core_2_L1D_total_hit 69932967
Core_2_L1D_total_miss 6404611
Core_2_L1D_loads 30872253
Core_2_L1D_load_hit 27653770
Core_2_L1D_load_miss 3218483
Core_2_L1D_RFOs 3277872
Core_2_L1D_RFO_hit 3097724
Core_2_L1D_RFO_miss 180148
Core_2_L1D_prefetches 42187453
Core_2_L1D_prefetch_hit 39181473
Core_2_L1D_prefetch_miss 3005980
Core_2_L1D_writebacks 0
Core_2_L1D_writeback_hit 0
Core_2_L1D_writeback_miss 0

Core_2_L1I_total_access 17376986
Core_2_L1I_total_hit 17368494
Core_2_L1I_total_miss 8492
Core_2_L1I_loads 17376986
Core_2_L1I_load_hit 17368494
Core_2_L1I_load_miss 8492
Core_2_L1I_RFOs 0
Core_2_L1I_RFO_hit 0
Core_2_L1I_RFO_miss 0
Core_2_L1I_prefetches 0
Core_2_L1I_prefetch_hit 0
Core_2_L1I_prefetch_miss 0
Core_2_L1I_writebacks 0
Core_2_L1I_writeback_hit 0
Core_2_L1I_writeback_miss 0

Core_2_L2C_total_access 16004432
Core_2_L2C_total_hit 14718796
Core_2_L2C_total_miss 1285636
Core_2_L2C_loads 3079584
Core_2_L2C_load_hit 2834559
Core_2_L2C_load_miss 245025
Core_2_L2C_RFOs 180131
Core_2_L2C_RFO_hit 46009
Core_2_L2C_RFO_miss 134122
Core_2_L2C_prefetches 11994624
Core_2_L2C_prefetch_hit 11088594
Core_2_L2C_prefetch_miss 906030
Core_2_L2C_writebacks 750093
Core_2_L2C_writeback_hit 749634
Core_2_L2C_writeback_miss 459

CPU 2 L1D next line prefetcher final stats
CPU 2 L2C PC-based stride prefetcher final stats
Stride Degree: 15
MK1  MARKOV_LRU_SIZE: 128
MK1  MARKOV_PREDICTION_PERCENTTHRESHOLD: 40.00000
MK1  OUTLIERS_THRESHOLD_Max: 64
MK1  OUTLIERS_THRESHOLD_Min: 32
MK2  MARKOV_LRU_SIZE: 256
MK2  MARKOV_PREDICTION_PERCENTTHRESHOLD: 30.00000
MK2  OUTLIERS_THRESHOLD_Max: 32
MK2  OUTLIERS_THRESHOLD_Min: 16
MK3  MARKOV_LRU_SIZE: 384
MK3  MARKOV_PREDICTION_PERCENTTHRESHOLD: 25.00000
MK3  OUTLIERS_THRESHOLD_Max: 16
MK3  OUTLIERS_THRESHOLD_Min: 8
MK4  MARKOV_LRU_SIZE: 512
MK4  MARKOV_PREDICTION_PERCENTTHRESHOLD: 20.00000
MK4  OUTLIERS_THRESHOLD_Max: 8
MK4  OUTLIERS_THRESHOLD_Min: 0
IPStride Degree/Access Ratio: 2.22073
MK1 IPDEltaMarkov  Degree/Access Ratio: 0.51324
MK2 IPDEltaMarkov  Degree/Access Ratio: 0.79733
MK3 IPDEltaMarkov  Degree/Access Ratio: 0.75216
MK4 IPDEltaMarkov  Degree/Access Ratio: 1.38233
Core_2_LLC_total_access 1968333
Core_2_LLC_total_hit 869070
Core_2_LLC_total_miss 1099263
Core_2_LLC_loads 126732
Core_2_LLC_load_hit 37163
Core_2_LLC_load_miss 89569
Core_2_LLC_RFOs 134122
Core_2_LLC_RFO_hit 34
Core_2_LLC_RFO_miss 134088
Core_2_LLC_prefetches 1059691
Core_2_LLC_prefetch_hit 198183
Core_2_LLC_prefetch_miss 861508
Core_2_LLC_writebacks 647788
Core_2_LLC_writeback_hit 633690
Core_2_LLC_writeback_miss 14098


CPU 3 cumulative IPC: 0.60190 instructions: 120000005 cycles: 199369671
Core_3_L1D_total_access 74580813
Core_3_L1D_total_hit 68506211
Core_3_L1D_total_miss 6074602
Core_3_L1D_loads 29911652
Core_3_L1D_load_hit 26857986
Core_3_L1D_load_miss 3053666
Core_3_L1D_RFOs 3269399
Core_3_L1D_RFO_hit 3089529
Core_3_L1D_RFO_miss 179870
Core_3_L1D_prefetches 41399762
Core_3_L1D_prefetch_hit 38558696
Core_3_L1D_prefetch_miss 2841066
Core_3_L1D_writebacks 0
Core_3_L1D_writeback_hit 0
Core_3_L1D_writeback_miss 0

Core_3_L1I_total_access 17015237
Core_3_L1I_total_hit 17010298
Core_3_L1I_total_miss 4939
Core_3_L1I_loads 17015237
Core_3_L1I_load_hit 17010298
Core_3_L1I_load_miss 4939
Core_3_L1I_RFOs 0
Core_3_L1I_RFO_hit 0
Core_3_L1I_RFO_miss 0
Core_3_L1I_prefetches 0
Core_3_L1I_prefetch_hit 0
Core_3_L1I_prefetch_miss 0
Core_3_L1I_writebacks 0
Core_3_L1I_writeback_hit 0
Core_3_L1I_writeback_miss 0

Core_3_L2C_total_access 15178068
Core_3_L2C_total_hit 13876741
Core_3_L2C_total_miss 1301327
Core_3_L2C_loads 2911118
Core_3_L2C_load_hit 2660162
Core_3_L2C_load_miss 250956
Core_3_L2C_RFOs 179856
Core_3_L2C_RFO_hit 45794
Core_3_L2C_RFO_miss 134062
Core_3_L2C_prefetches 11340706
Core_3_L2C_prefetch_hit 10424842
Core_3_L2C_prefetch_miss 915864
Core_3_L2C_writebacks 746388
Core_3_L2C_writeback_hit 745943
Core_3_L2C_writeback_miss 445

CPU 3 L1D next line prefetcher final stats
CPU 3 L2C PC-based stride prefetcher final stats
Stride Degree: 15
MK1  MARKOV_LRU_SIZE: 128
MK1  MARKOV_PREDICTION_PERCENTTHRESHOLD: 40.00000
MK1  OUTLIERS_THRESHOLD_Max: 64
MK1  OUTLIERS_THRESHOLD_Min: 32
MK2  MARKOV_LRU_SIZE: 256
MK2  MARKOV_PREDICTION_PERCENTTHRESHOLD: 30.00000
MK2  OUTLIERS_THRESHOLD_Max: 32
MK2  OUTLIERS_THRESHOLD_Min: 16
MK3  MARKOV_LRU_SIZE: 384
MK3  MARKOV_PREDICTION_PERCENTTHRESHOLD: 25.00000
MK3  OUTLIERS_THRESHOLD_Max: 16
MK3  OUTLIERS_THRESHOLD_Min: 8
MK4  MARKOV_LRU_SIZE: 512
MK4  MARKOV_PREDICTION_PERCENTTHRESHOLD: 20.00000
MK4  OUTLIERS_THRESHOLD_Max: 8
MK4  OUTLIERS_THRESHOLD_Min: 0
IPStride Degree/Access Ratio: 2.22073
MK1 IPDEltaMarkov  Degree/Access Ratio: 0.51324
MK2 IPDEltaMarkov  Degree/Access Ratio: 0.79733
MK3 IPDEltaMarkov  Degree/Access Ratio: 0.75216
MK4 IPDEltaMarkov  Degree/Access Ratio: 1.38233
Core_3_LLC_total_access 1991084
Core_3_LLC_total_hit 910906
Core_3_LLC_total_miss 1080178
Core_3_LLC_loads 132010
Core_3_LLC_load_hit 45887
Core_3_LLC_load_miss 86123
Core_3_LLC_RFOs 134062
Core_3_LLC_RFO_hit 26
Core_3_LLC_RFO_miss 134036
Core_3_LLC_prefetches 1073687
Core_3_LLC_prefetch_hit 226823
Core_3_LLC_prefetch_miss 846864
Core_3_LLC_writebacks 651325
Core_3_LLC_writeback_hit 638170
Core_3_LLC_writeback_miss 13155


[ROI Statistics]
Core_0_instructions 120000004
Core_0_cycles 198156443
Core_0_IPC 0.60558

Core_0_branch_prediction_accuracy 99.19548
Core_0_branch_MPKI 0.23843
Core_0_average_ROB_occupancy_at_mispredict 446.52778

Core_0_L1D_total_access 74623956
Core_0_L1D_total_hit 68550689 L1D_total_Hit Ratio: 0.91862
Core_0_L1D_total_miss 6073267
Core_0_L1D_loads 29922718
Core_0_L1D_load_hit 26872022 L1D_load_Hit Ratio: 0.89805
Core_0_L1D_load_miss 3050696
Core_0_L1D_RFOs 3269624
Core_0_L1D_RFO_hit 3089810 L1D_RFO_Hit Ratio: 0.94500
Core_0_L1D_RFO_miss 179814
Core_0_L1D_prefetches 41431614
Core_0_L1D_prefetch_hit 38588857 L1D_prefetch_Hit Ratio: 0.93139
Core_0_L1D_prefetch_miss 2842757
Core_0_L1D_writebacks 0
Core_0_L1D_writeback_hit 0 L1D_writeback_Hit Ratio: -nan
Core_0_L1D_writeback_miss 0
Core_0_L1D_prefetch_requested 95571828
Core_0_L1D_prefetch_issued 48943959
Core_0_L1D_prefetch_useful 1397367 L1D_Useful Ratio: 0.02855
Core_0_L1D_prefetch_useless 1549477
Core_0_L1D_prefetch_late 146546
Core_0_L1D_average_miss_latency 1780156.23768

Core_0_L1I_total_access 17018608
Core_0_L1I_total_hit 17013661 L1I_total_Hit Ratio: 0.99971
Core_0_L1I_total_miss 4947
Core_0_L1I_loads 17018608
Core_0_L1I_load_hit 17013661 L1I_load_Hit Ratio: 0.99971
Core_0_L1I_load_miss 4947
Core_0_L1I_RFOs 0
Core_0_L1I_RFO_hit 0 L1I_RFO_Hit Ratio: -nan
Core_0_L1I_RFO_miss 0
Core_0_L1I_prefetches 0
Core_0_L1I_prefetch_hit 0 L1I_prefetch_Hit Ratio: -nan
Core_0_L1I_prefetch_miss 0
Core_0_L1I_writebacks 0
Core_0_L1I_writeback_hit 0 L1I_writeback_Hit Ratio: -nan
Core_0_L1I_writeback_miss 0
Core_0_L1I_prefetch_requested 0
Core_0_L1I_prefetch_issued 0
Core_0_L1I_prefetch_useful 0 L1I_Useful Ratio: -nan
Core_0_L1I_prefetch_useless 0
Core_0_L1I_prefetch_late 0
Core_0_L1I_average_miss_latency 1349.60582

Core_0_L2C_total_access 15266105
Core_0_L2C_total_hit 14021366 L2C_total_Hit Ratio: 0.91846
Core_0_L2C_total_miss 1244739
Core_0_L2C_loads 2911265
Core_0_L2C_load_hit 2677853 L2C_load_Hit Ratio: 0.91982
Core_0_L2C_load_miss 233412
Core_0_L2C_RFOs 179808
Core_0_L2C_RFO_hit 45816 L2C_RFO_Hit Ratio: 0.25481
Core_0_L2C_RFO_miss 133992
Core_0_L2C_prefetches 11428644
Core_0_L2C_prefetch_hit 10551589 L2C_prefetch_Hit Ratio: 0.92326
Core_0_L2C_prefetch_miss 877055
Core_0_L2C_writebacks 746388
Core_0_L2C_writeback_hit 746108 L2C_writeback_Hit Ratio: 0.99962
Core_0_L2C_writeback_miss 280
Core_0_L2C_prefetch_requested 34202080
Core_0_L2C_prefetch_issued 13586022
Core_0_L2C_prefetch_useful 280923 L2C_Useful Ratio: 0.02068
Core_0_L2C_prefetch_useless 612090
Core_0_L2C_prefetch_late 116565
Core_0_L2C_average_miss_latency 1074.65216

Core_0_LLC_total_access 1921757
Core_0_LLC_total_hit 840691 LLC_total_Hit Ratio: 0.43746
Core_0_LLC_total_miss 1081066
Core_0_LLC_loads 117163
Core_0_LLC_load_hit 30978 LLC_load_Hit Ratio: 0.26440
Core_0_LLC_load_miss 86185
Core_0_LLC_RFOs 133992
Core_0_LLC_RFO_hit 33 LLC_RFO_Hit Ratio: 0.00025
Core_0_LLC_RFO_miss 133959
Core_0_LLC_prefetches 1031351
Core_0_LLC_prefetch_hit 183931 LLC_prefetch_Hit Ratio: 0.17834
Core_0_LLC_prefetch_miss 847420
Core_0_LLC_writebacks 639251
Core_0_LLC_writeback_hit 625749 LLC_writeback_Hit Ratio: 0.97888
Core_0_LLC_writeback_miss 13502
Core_0_LLC_prefetch_requested 0
Core_0_LLC_prefetch_issued 0
Core_0_LLC_prefetch_useful 121706 LLC_Useful Ratio: inf
Core_0_LLC_prefetch_useless 3196079
Core_0_LLC_prefetch_late 25281
Core_0_LLC_average_miss_latency 4820.93796

Core_0_major_page_fault 0
Core_0_minor_page_fault 8666

Core_1_instructions 120000001
Core_1_cycles 198640916
Core_1_IPC 0.60411

Core_1_branch_prediction_accuracy 99.19530
Core_1_branch_MPKI 0.23980
Core_1_average_ROB_occupancy_at_mispredict 446.63588

Core_1_L1D_total_access 74590136
Core_1_L1D_total_hit 68516138 L1D_total_Hit Ratio: 0.91857
Core_1_L1D_total_miss 6073998
Core_1_L1D_loads 29916812
Core_1_L1D_load_hit 26864604 L1D_load_Hit Ratio: 0.89798
Core_1_L1D_load_miss 3052208
Core_1_L1D_RFOs 3269287
Core_1_L1D_RFO_hit 3089411 L1D_RFO_Hit Ratio: 0.94498
Core_1_L1D_RFO_miss 179876
Core_1_L1D_prefetches 41404037
Core_1_L1D_prefetch_hit 38562123 L1D_prefetch_Hit Ratio: 0.93136
Core_1_L1D_prefetch_miss 2841914
Core_1_L1D_writebacks 0
Core_1_L1D_writeback_hit 0 L1D_writeback_Hit Ratio: -nan
Core_1_L1D_writeback_miss 0
Core_1_L1D_prefetch_requested 94815108
Core_1_L1D_prefetch_issued 48705814
Core_1_L1D_prefetch_useful 1378954 L1D_Useful Ratio: 0.02831
Core_1_L1D_prefetch_useless 1527068
Core_1_L1D_prefetch_late 147220
Core_1_L1D_average_miss_latency 1795778.14818

Core_1_L1I_total_access 17020061
Core_1_L1I_total_hit 17015127 L1I_total_Hit Ratio: 0.99971
Core_1_L1I_total_miss 4934
Core_1_L1I_loads 17020061
Core_1_L1I_load_hit 17015127 L1I_load_Hit Ratio: 0.99971
Core_1_L1I_load_miss 4934
Core_1_L1I_RFOs 0
Core_1_L1I_RFO_hit 0 L1I_RFO_Hit Ratio: -nan
Core_1_L1I_RFO_miss 0
Core_1_L1I_prefetches 0
Core_1_L1I_prefetch_hit 0 L1I_prefetch_Hit Ratio: -nan
Core_1_L1I_prefetch_miss 0
Core_1_L1I_writebacks 0
Core_1_L1I_writeback_hit 0 L1I_writeback_Hit Ratio: -nan
Core_1_L1I_writeback_miss 0
Core_1_L1I_prefetch_requested 0
Core_1_L1I_prefetch_issued 0
Core_1_L1I_prefetch_useful 0 L1I_Useful Ratio: -nan
Core_1_L1I_prefetch_useless 0
Core_1_L1I_prefetch_late 0
Core_1_L1I_average_miss_latency 1422.65099

Core_1_L2C_total_access 15151235
Core_1_L2C_total_hit 13881668 L2C_total_Hit Ratio: 0.91621
Core_1_L2C_total_miss 1269567
Core_1_L2C_loads 2911716
Core_1_L2C_load_hit 2665318 L2C_load_Hit Ratio: 0.91538
Core_1_L2C_load_miss 246398
Core_1_L2C_RFOs 179867
Core_1_L2C_RFO_hit 45886 L2C_RFO_Hit Ratio: 0.25511
Core_1_L2C_RFO_miss 133981
Core_1_L2C_prefetches 11313264
Core_1_L2C_prefetch_hit 10424279 L2C_prefetch_Hit Ratio: 0.92142
Core_1_L2C_prefetch_miss 888985
Core_1_L2C_writebacks 746388
Core_1_L2C_writeback_hit 746185 L2C_writeback_Hit Ratio: 0.99973
Core_1_L2C_writeback_miss 203
Core_1_L2C_prefetch_requested 32131287
Core_1_L2C_prefetch_issued 13390152
Core_1_L2C_prefetch_useful 279807 L2C_Useful Ratio: 0.02090
Core_1_L2C_prefetch_useless 618108
Core_1_L2C_prefetch_late 117077
Core_1_L2C_average_miss_latency 1060.00142

Core_1_LLC_total_access 1958272
Core_1_LLC_total_hit 875739 LLC_total_Hit Ratio: 0.44720
Core_1_LLC_total_miss 1082533
Core_1_LLC_loads 129533
Core_1_LLC_load_hit 42771 LLC_load_Hit Ratio: 0.33019
Core_1_LLC_load_miss 86762
Core_1_LLC_RFOs 133981
Core_1_LLC_RFO_hit 18 LLC_RFO_Hit Ratio: 0.00013
Core_1_LLC_RFO_miss 133963
Core_1_LLC_prefetches 1045833
Core_1_LLC_prefetch_hit 199050 LLC_prefetch_Hit Ratio: 0.19033
Core_1_LLC_prefetch_miss 846783
Core_1_LLC_writebacks 648925
Core_1_LLC_writeback_hit 633900 LLC_writeback_Hit Ratio: 0.97685
Core_1_LLC_writeback_miss 15025
Core_1_LLC_prefetch_requested 0
Core_1_LLC_prefetch_issued 0
Core_1_LLC_prefetch_useful 121706 LLC_Useful Ratio: inf
Core_1_LLC_prefetch_useless 3196079
Core_1_LLC_prefetch_late 25281
Core_1_LLC_average_miss_latency 4814.40485

Core_1_major_page_fault 0
Core_1_minor_page_fault 8644

Core_2_instructions 120000003
Core_2_cycles 196950382
Core_2_IPC 0.60929

Core_2_branch_prediction_accuracy 99.18965
Core_2_branch_MPKI 0.23739
Core_2_average_ROB_occupancy_at_mispredict 443.56114

Core_2_L1D_total_access 74616741
Core_2_L1D_total_hit 68542466 L1D_total_Hit Ratio: 0.91859
Core_2_L1D_total_miss 6074275
Core_2_L1D_loads 29920847
Core_2_L1D_load_hit 26868908 L1D_load_Hit Ratio: 0.89800
Core_2_L1D_load_miss 3051939
Core_2_L1D_RFOs 3268673
Core_2_L1D_RFO_hit 3088802 L1D_RFO_Hit Ratio: 0.94497
Core_2_L1D_RFO_miss 179871
Core_2_L1D_prefetches 41427221
Core_2_L1D_prefetch_hit 38584756 L1D_prefetch_Hit Ratio: 0.93139
Core_2_L1D_prefetch_miss 2842465
Core_2_L1D_writebacks 0
Core_2_L1D_writeback_hit 0 L1D_writeback_Hit Ratio: -nan
Core_2_L1D_writeback_miss 0
Core_2_L1D_prefetch_requested 97012074
Core_2_L1D_prefetch_issued 49396708
Core_2_L1D_prefetch_useful 1428205 L1D_Useful Ratio: 0.02891
Core_2_L1D_prefetch_useless 1598404
Core_2_L1D_prefetch_late 148396
Core_2_L1D_average_miss_latency 1780127.50529

Core_2_L1I_total_access 17018889
Core_2_L1I_total_hit 17013957 L1I_total_Hit Ratio: 0.99971
Core_2_L1I_total_miss 4932
Core_2_L1I_loads 17018889
Core_2_L1I_load_hit 17013957 L1I_load_Hit Ratio: 0.99971
Core_2_L1I_load_miss 4932
Core_2_L1I_RFOs 0
Core_2_L1I_RFO_hit 0 L1I_RFO_Hit Ratio: -nan
Core_2_L1I_RFO_miss 0
Core_2_L1I_prefetches 0
Core_2_L1I_prefetch_hit 0 L1I_prefetch_Hit Ratio: -nan
Core_2_L1I_prefetch_miss 0
Core_2_L1I_writebacks 0
Core_2_L1I_writeback_hit 0 L1I_writeback_Hit Ratio: -nan
Core_2_L1I_writeback_miss 0
Core_2_L1I_prefetch_requested 0
Core_2_L1I_prefetch_issued 0
Core_2_L1I_prefetch_useful 0 L1I_Useful Ratio: -nan
Core_2_L1I_prefetch_useless 0
Core_2_L1I_prefetch_late 0
Core_2_L1I_average_miss_latency 1619.82989

Core_2_L2C_total_access 15256647
Core_2_L2C_total_hit 13998019 L2C_total_Hit Ratio: 0.91750
Core_2_L2C_total_miss 1258628
Core_2_L2C_loads 2911265
Core_2_L2C_load_hit 2671771 L2C_load_Hit Ratio: 0.91774
Core_2_L2C_load_miss 239494
Core_2_L2C_RFOs 179856
Core_2_L2C_RFO_hit 45749 L2C_RFO_Hit Ratio: 0.25436
Core_2_L2C_RFO_miss 134107
Core_2_L2C_prefetches 11419139
Core_2_L2C_prefetch_hit 10534571 L2C_prefetch_Hit Ratio: 0.92254
Core_2_L2C_prefetch_miss 884568
Core_2_L2C_writebacks 746387
Core_2_L2C_writeback_hit 745928 L2C_writeback_Hit Ratio: 0.99939
Core_2_L2C_writeback_miss 459
Core_2_L2C_prefetch_requested 35220566
Core_2_L2C_prefetch_issued 13908079
Core_2_L2C_prefetch_useful 281888 L2C_Useful Ratio: 0.02027
Core_2_L2C_prefetch_useless 628652
Core_2_L2C_prefetch_late 118374
Core_2_L2C_average_miss_latency 1055.09163

Core_2_LLC_total_access 1937857
Core_2_LLC_total_hit 857113 LLC_total_Hit Ratio: 0.44230
Core_2_LLC_total_miss 1080744
Core_2_LLC_loads 121375
Core_2_LLC_load_hit 36130 LLC_load_Hit Ratio: 0.29767
Core_2_LLC_load_miss 85245
Core_2_LLC_RFOs 134107
Core_2_LLC_RFO_hit 34 LLC_RFO_Hit Ratio: 0.00025
Core_2_LLC_RFO_miss 134073
Core_2_LLC_prefetches 1037955
Core_2_LLC_prefetch_hit 190338 LLC_prefetch_Hit Ratio: 0.18338
Core_2_LLC_prefetch_miss 847617
Core_2_LLC_writebacks 644420
Core_2_LLC_writeback_hit 630611 LLC_writeback_Hit Ratio: 0.97857
Core_2_LLC_writeback_miss 13809
Core_2_LLC_prefetch_requested 0
Core_2_LLC_prefetch_issued 0
Core_2_LLC_prefetch_useful 121706 LLC_Useful Ratio: inf
Core_2_LLC_prefetch_useless 3196079
Core_2_LLC_prefetch_late 25281
Core_2_LLC_average_miss_latency 4822.37433

Core_2_major_page_fault 0
Core_2_minor_page_fault 8740

Core_3_instructions 120000005
Core_3_cycles 199369671
Core_3_IPC 0.60190

Core_3_branch_prediction_accuracy 99.19469
Core_3_branch_MPKI 0.24154
Core_3_average_ROB_occupancy_at_mispredict 446.57871

Core_3_L1D_total_access 74580813
Core_3_L1D_total_hit 68506211 L1D_total_Hit Ratio: 0.91855
Core_3_L1D_total_miss 6074602
Core_3_L1D_loads 29911652
Core_3_L1D_load_hit 26857986 L1D_load_Hit Ratio: 0.89791
Core_3_L1D_load_miss 3053666
Core_3_L1D_RFOs 3269399
Core_3_L1D_RFO_hit 3089529 L1D_RFO_Hit Ratio: 0.94498
Core_3_L1D_RFO_miss 179870
Core_3_L1D_prefetches 41399762
Core_3_L1D_prefetch_hit 38558696 L1D_prefetch_Hit Ratio: 0.93137
Core_3_L1D_prefetch_miss 2841066
Core_3_L1D_writebacks 0
Core_3_L1D_writeback_hit 0 L1D_writeback_Hit Ratio: -nan
Core_3_L1D_writeback_miss 0
Core_3_L1D_prefetch_requested 93960705
Core_3_L1D_prefetch_issued 48454332
Core_3_L1D_prefetch_useful 1359026 L1D_Useful Ratio: 0.02805
Core_3_L1D_prefetch_useless 1502735
Core_3_L1D_prefetch_late 148306
Core_3_L1D_average_miss_latency 1807355.16994

Core_3_L1I_total_access 17015237
Core_3_L1I_total_hit 17010298 L1I_total_Hit Ratio: 0.99971
Core_3_L1I_total_miss 4939
Core_3_L1I_loads 17015237
Core_3_L1I_load_hit 17010298 L1I_load_Hit Ratio: 0.99971
Core_3_L1I_load_miss 4939
Core_3_L1I_RFOs 0
Core_3_L1I_RFO_hit 0 L1I_RFO_Hit Ratio: -nan
Core_3_L1I_RFO_miss 0
Core_3_L1I_prefetches 0
Core_3_L1I_prefetch_hit 0 L1I_prefetch_Hit Ratio: -nan
Core_3_L1I_prefetch_miss 0
Core_3_L1I_writebacks 0
Core_3_L1I_writeback_hit 0 L1I_writeback_Hit Ratio: -nan
Core_3_L1I_writeback_miss 0
Core_3_L1I_prefetch_requested 0
Core_3_L1I_prefetch_issued 0
Core_3_L1I_prefetch_useful 0 L1I_Useful Ratio: -nan
Core_3_L1I_prefetch_useless 0
Core_3_L1I_prefetch_late 0
Core_3_L1I_average_miss_latency 1338.08463

Core_3_L2C_total_access 15178068
Core_3_L2C_total_hit 13876741 L2C_total_Hit Ratio: 0.91426
Core_3_L2C_total_miss 1301327
Core_3_L2C_loads 2911118
Core_3_L2C_load_hit 2660162 L2C_load_Hit Ratio: 0.91379
Core_3_L2C_load_miss 250956
Core_3_L2C_RFOs 179856
Core_3_L2C_RFO_hit 45794 L2C_RFO_Hit Ratio: 0.25461
Core_3_L2C_RFO_miss 134062
Core_3_L2C_prefetches 11340706
Core_3_L2C_prefetch_hit 10424842 L2C_prefetch_Hit Ratio: 0.91924
Core_3_L2C_prefetch_miss 915864
Core_3_L2C_writebacks 746388
Core_3_L2C_writeback_hit 745943 L2C_writeback_Hit Ratio: 0.99940
Core_3_L2C_writeback_miss 445
Core_3_L2C_prefetch_requested 31768151
Core_3_L2C_prefetch_issued 13318681
Core_3_L2C_prefetch_useful 286304 L2C_Useful Ratio: 0.02150
Core_3_L2C_prefetch_useless 633864
Core_3_L2C_prefetch_late 119006
Core_3_L2C_average_miss_latency 1035.89441

Core_3_LLC_total_access 1991084
Core_3_LLC_total_hit 910906 LLC_total_Hit Ratio: 0.45749
Core_3_LLC_total_miss 1080178
Core_3_LLC_loads 132010
Core_3_LLC_load_hit 45887 LLC_load_Hit Ratio: 0.34760
Core_3_LLC_load_miss 86123
Core_3_LLC_RFOs 134062
Core_3_LLC_RFO_hit 26 LLC_RFO_Hit Ratio: 0.00019
Core_3_LLC_RFO_miss 134036
Core_3_LLC_prefetches 1073687
Core_3_LLC_prefetch_hit 226823 LLC_prefetch_Hit Ratio: 0.21126
Core_3_LLC_prefetch_miss 846864
Core_3_LLC_writebacks 651325
Core_3_LLC_writeback_hit 638170 LLC_writeback_Hit Ratio: 0.97980
Core_3_LLC_writeback_miss 13155
Core_3_LLC_prefetch_requested 0
Core_3_LLC_prefetch_issued 0
Core_3_LLC_prefetch_useful 121706 LLC_Useful Ratio: inf
Core_3_LLC_prefetch_useless 3196079
Core_3_LLC_prefetch_late 25281
Core_3_LLC_average_miss_latency 4824.90119

Core_3_major_page_fault 0
Core_3_minor_page_fault 8629

CPU 0 L1D next line prefetcher final stats
CPU 0 L2C PC-based stride prefetcher final stats
Stride Degree: 15
MK1  MARKOV_LRU_SIZE: 128
MK1  MARKOV_PREDICTION_PERCENTTHRESHOLD: 40.00000
MK1  OUTLIERS_THRESHOLD_Max: 64
MK1  OUTLIERS_THRESHOLD_Min: 32
MK2  MARKOV_LRU_SIZE: 256
MK2  MARKOV_PREDICTION_PERCENTTHRESHOLD: 30.00000
MK2  OUTLIERS_THRESHOLD_Max: 32
MK2  OUTLIERS_THRESHOLD_Min: 16
MK3  MARKOV_LRU_SIZE: 384
MK3  MARKOV_PREDICTION_PERCENTTHRESHOLD: 25.00000
MK3  OUTLIERS_THRESHOLD_Max: 16
MK3  OUTLIERS_THRESHOLD_Min: 8
MK4  MARKOV_LRU_SIZE: 512
MK4  MARKOV_PREDICTION_PERCENTTHRESHOLD: 20.00000
MK4  OUTLIERS_THRESHOLD_Max: 8
MK4  OUTLIERS_THRESHOLD_Min: 0
IPStride Degree/Access Ratio: 2.22073
MK1 IPDEltaMarkov  Degree/Access Ratio: 0.51324
MK2 IPDEltaMarkov  Degree/Access Ratio: 0.79733
MK3 IPDEltaMarkov  Degree/Access Ratio: 0.75216
MK4 IPDEltaMarkov  Degree/Access Ratio: 1.38233
CPU 1 L1D next line prefetcher final stats
CPU 1 L2C PC-based stride prefetcher final stats
Stride Degree: 15
MK1  MARKOV_LRU_SIZE: 128
MK1  MARKOV_PREDICTION_PERCENTTHRESHOLD: 40.00000
MK1  OUTLIERS_THRESHOLD_Max: 64
MK1  OUTLIERS_THRESHOLD_Min: 32
MK2  MARKOV_LRU_SIZE: 256
MK2  MARKOV_PREDICTION_PERCENTTHRESHOLD: 30.00000
MK2  OUTLIERS_THRESHOLD_Max: 32
MK2  OUTLIERS_THRESHOLD_Min: 16
MK3  MARKOV_LRU_SIZE: 384
MK3  MARKOV_PREDICTION_PERCENTTHRESHOLD: 25.00000
MK3  OUTLIERS_THRESHOLD_Max: 16
MK3  OUTLIERS_THRESHOLD_Min: 8
MK4  MARKOV_LRU_SIZE: 512
MK4  MARKOV_PREDICTION_PERCENTTHRESHOLD: 20.00000
MK4  OUTLIERS_THRESHOLD_Max: 8
MK4  OUTLIERS_THRESHOLD_Min: 0
IPStride Degree/Access Ratio: 2.22073
MK1 IPDEltaMarkov  Degree/Access Ratio: 0.51324
MK2 IPDEltaMarkov  Degree/Access Ratio: 0.79733
MK3 IPDEltaMarkov  Degree/Access Ratio: 0.75216
MK4 IPDEltaMarkov  Degree/Access Ratio: 1.38233
CPU 2 L1D next line prefetcher final stats
CPU 2 L2C PC-based stride prefetcher final stats
Stride Degree: 15
MK1  MARKOV_LRU_SIZE: 128
MK1  MARKOV_PREDICTION_PERCENTTHRESHOLD: 40.00000
MK1  OUTLIERS_THRESHOLD_Max: 64
MK1  OUTLIERS_THRESHOLD_Min: 32
MK2  MARKOV_LRU_SIZE: 256
MK2  MARKOV_PREDICTION_PERCENTTHRESHOLD: 30.00000
MK2  OUTLIERS_THRESHOLD_Max: 32
MK2  OUTLIERS_THRESHOLD_Min: 16
MK3  MARKOV_LRU_SIZE: 384
MK3  MARKOV_PREDICTION_PERCENTTHRESHOLD: 25.00000
MK3  OUTLIERS_THRESHOLD_Max: 16
MK3  OUTLIERS_THRESHOLD_Min: 8
MK4  MARKOV_LRU_SIZE: 512
MK4  MARKOV_PREDICTION_PERCENTTHRESHOLD: 20.00000
MK4  OUTLIERS_THRESHOLD_Max: 8
MK4  OUTLIERS_THRESHOLD_Min: 0
IPStride Degree/Access Ratio: 2.22073
MK1 IPDEltaMarkov  Degree/Access Ratio: 0.51324
MK2 IPDEltaMarkov  Degree/Access Ratio: 0.79733
MK3 IPDEltaMarkov  Degree/Access Ratio: 0.75216
MK4 IPDEltaMarkov  Degree/Access Ratio: 1.38233
CPU 3 L1D next line prefetcher final stats
CPU 3 L2C PC-based stride prefetcher final stats
Stride Degree: 15
MK1  MARKOV_LRU_SIZE: 128
MK1  MARKOV_PREDICTION_PERCENTTHRESHOLD: 40.00000
MK1  OUTLIERS_THRESHOLD_Max: 64
MK1  OUTLIERS_THRESHOLD_Min: 32
MK2  MARKOV_LRU_SIZE: 256
MK2  MARKOV_PREDICTION_PERCENTTHRESHOLD: 30.00000
MK2  OUTLIERS_THRESHOLD_Max: 32
MK2  OUTLIERS_THRESHOLD_Min: 16
MK3  MARKOV_LRU_SIZE: 384
MK3  MARKOV_PREDICTION_PERCENTTHRESHOLD: 25.00000
MK3  OUTLIERS_THRESHOLD_Max: 16
MK3  OUTLIERS_THRESHOLD_Min: 8
MK4  MARKOV_LRU_SIZE: 512
MK4  MARKOV_PREDICTION_PERCENTTHRESHOLD: 20.00000
MK4  OUTLIERS_THRESHOLD_Max: 8
MK4  OUTLIERS_THRESHOLD_Min: 0
IPStride Degree/Access Ratio: 2.22073
MK1 IPDEltaMarkov  Degree/Access Ratio: 0.51324
MK2 IPDEltaMarkov  Degree/Access Ratio: 0.79733
MK3 IPDEltaMarkov  Degree/Access Ratio: 0.75216
MK4 IPDEltaMarkov  Degree/Access Ratio: 1.38233
Channel_0_RQ_row_buffer_hit 1735246
Channel_0_RQ_row_buffer_miss 2571539
Channel_0_WQ_row_buffer_hit 807345
Channel_0_WQ_row_buffer_miss 1657601
Channel_0_WQ_full 3895
Channel_0_dbus_congested 5177026

avg_congested_cycle 11

EzSearch AVG IPC :0.60558: L2-Pf-HR :0.92326 : L2-HR :0.91964 Uful:0.02068
EzSearch AVG IPC :0.60411: L2-Pf-HR :0.92142 : L2-HR :0.91685 Uful:0.02090
EzSearch AVG IPC :0.60929: L2-Pf-HR :0.92254 : L2-HR :0.91967 Uful:0.02027
EzSearch AVG IPC :0.60190: L2-Pf-HR :0.91924 : L2-HR :0.91426 Uful:0.02150
     > Finished combination: TraceType=770-tot Sim:120000000 Prefetcher=L2029-SecTOP-L2-MultiMarkovDelta_ip_stride_v4-MK2-P30 L1=next_line
