TRACE: [662000000][OPT-350M]_[h16][s1024][d64] Warmup: 2000000 NumTraces: 662000000
L1:no:L2:no
*************************************************
   ChampSim Multicore Out-of-Order Simulator
   Last compiled: Oct 28 2024 14:44:29
*************************************************

trace_0 770-tot_memTraces_v3/memTraces[662000000][OPT-350M]_[h16][s1024][d64].champsim.xz
trace_1 770-tot_memTraces_v3/memTraces[662000000][OPT-350M]_[h16][s1024][d64].champsim.xz
trace_2 770-tot_memTraces_v3/memTraces[662000000][OPT-350M]_[h16][s1024][d64].champsim.xz
trace_3 770-tot_memTraces_v3/memTraces[662000000][OPT-350M]_[h16][s1024][d64].champsim.xz
MAIN.cc ln 751 stats print skipped
CPU  1 inst:    1000001 cyc:     499759 now IPC :2.00097: AVG IPC :2.00097: L2-Pf-HR :-nan: L2-HR :0.64587: (Sim:0h1m17s) 
CPU  2 inst:    1000001 cyc:     499823 now IPC :2.00071: AVG IPC :2.00071: L2-Pf-HR :-nan: L2-HR :0.64034: (Sim:0h1m17s) 
CPU  0 inst:    1000001 cyc:     499831 now IPC :2.00068: AVG IPC :2.00068: L2-Pf-HR :-nan: L2-HR :0.64110: (Sim:0h1m17s) 
CPU  3 inst:    1000001 cyc:     499983 now IPC :2.00007: AVG IPC :2.00007: L2-Pf-HR :-nan: L2-HR :0.63589: (Sim:0h1m17s) 
CPU  1 inst:    2000000 cyc:     984157 now IPC :2.06442: AVG IPC :2.03220: L2-Pf-HR :-nan: L2-HR :0.70354: (Sim:0h2m10s) 
CPU  0 inst:    2000000 cyc:     984300 now IPC :2.06411: AVG IPC :2.03190: L2-Pf-HR :-nan: L2-HR :0.69860: (Sim:0h2m10s) 
CPU  2 inst:    2000000 cyc:     984306 now IPC :2.06405: AVG IPC :2.03189: L2-Pf-HR :-nan: L2-HR :0.69782: (Sim:0h2m10s) 
CPU  3 inst:    2000000 cyc:     984330 now IPC :2.06463: AVG IPC :2.03184: L2-Pf-HR :-nan: L2-HR :0.69234: (Sim:0h2m10s) 

Warmup complete CPU  0 instructions:    2000088 cycles:     984331 (Simulation time: 0 hr 2 min 10 sec) 
Warmup complete CPU  1 instructions:    2000291 cycles:     984331 (Simulation time: 0 hr 2 min 10 sec) 
Warmup complete CPU  2 instructions:    2000073 cycles:     984331 (Simulation time: 0 hr 2 min 10 sec) 
Warmup complete CPU  3 instructions:    2000001 cycles:     984331 (Simulation time: 0 hr 2 min 10 sec) 

CPU  1 inst:    3000000 cyc:    1877707 now IPC :1.11913: AVG IPC :1.11902: L2-Pf-HR :-nan: L2-HR :0.75570: (Sim:0h3m50s) 
CPU  3 inst:    3000000 cyc:    1878619 now IPC :1.11821: AVG IPC :1.11821: L2-Pf-HR :-nan: L2-HR :0.73729: (Sim:0h3m50s) 
CPU  2 inst:    3000000 cyc:    1880594 now IPC :1.11571: AVG IPC :1.11566: L2-Pf-HR :-nan: L2-HR :0.74578: (Sim:0h3m50s) 
CPU  0 inst:    3000000 cyc:    1880747 now IPC :1.11551: AVG IPC :1.11546: L2-Pf-HR :-nan: L2-HR :0.74870: (Sim:0h3m50s) 
CPU  1 inst:    4000002 cyc:    2785689 now IPC :1.10135: AVG IPC :1.11011: L2-Pf-HR :-nan: L2-HR :0.75289: (Sim:0h5m41s) 
CPU  0 inst:    4000002 cyc:    2787713 now IPC :1.10258: AVG IPC :1.10898: L2-Pf-HR :-nan: L2-HR :0.74640: (Sim:0h5m41s) 
CPU  3 inst:    4000002 cyc:    2787917 now IPC :1.09975: AVG IPC :1.10890: L2-Pf-HR :-nan: L2-HR :0.73510: (Sim:0h5m41s) 
CPU  2 inst:    4000002 cyc:    2799453 now IPC :1.08831: AVG IPC :1.10182: L2-Pf-HR :-nan: L2-HR :0.74403: (Sim:0h5m43s) 
CPU  1 inst:    5000003 cyc:    3712597 now IPC :1.07886: AVG IPC :1.09949: L2-Pf-HR :-nan: L2-HR :0.75286: (Sim:0h7m34s) 
CPU  3 inst:    5000003 cyc:    3712901 now IPC :1.08110: AVG IPC :1.09948: L2-Pf-HR :-nan: L2-HR :0.73556: (Sim:0h7m34s) 
CPU  0 inst:    5000003 cyc:    3713509 now IPC :1.08015: AVG IPC :1.09920: L2-Pf-HR :-nan: L2-HR :0.74651: (Sim:0h7m34s) 
CPU  2 inst:    5000003 cyc:    3729548 now IPC :1.07516: AVG IPC :1.09278: L2-Pf-HR :-nan: L2-HR :0.74434: (Sim:0h7m36s) 
CPU  1 inst:    6000004 cyc:    4662332 now IPC :1.05293: AVG IPC :1.08747: L2-Pf-HR :-nan: L2-HR :0.75197: (Sim:0h9m26s) 
CPU  3 inst:    6000004 cyc:    4663444 now IPC :1.05203: AVG IPC :1.08722: L2-Pf-HR :-nan: L2-HR :0.73491: (Sim:0h9m26s) 
CPU  0 inst:    6000004 cyc:    4683281 now IPC :1.03117: AVG IPC :1.08137: L2-Pf-HR :-nan: L2-HR :0.74602: (Sim:0h9m29s) 
CPU  2 inst:    6000004 cyc:    4695122 now IPC :1.03565: AVG IPC :1.07792: L2-Pf-HR :-nan: L2-HR :0.74424: (Sim:0h9m30s) 
CPU  3 inst:    7000001 cyc:    5902180 now IPC :0.80727: AVG IPC :1.01670: L2-Pf-HR :-nan: L2-HR :0.73535: (Sim:0h11m30s) 
CPU  1 inst:    7000001 cyc:    5980252 now IPC :0.75877: AVG IPC :1.00076: L2-Pf-HR :-nan: L2-HR :0.74970: (Sim:0h11m38s) 
CPU  2 inst:    7000001 cyc:    6005634 now IPC :0.76306: AVG IPC :0.99574: L2-Pf-HR :-nan: L2-HR :0.74221: (Sim:0h11m41s) 
CPU  0 inst:    7000001 cyc:    6007711 now IPC :0.75504: AVG IPC :0.99533: L2-Pf-HR :-nan: L2-HR :0.74474: (Sim:0h11m41s) 
CPU  3 inst:    8000001 cyc:    6777218 now IPC :1.14281: AVG IPC :1.03575: L2-Pf-HR :-nan: L2-HR :0.73840: (Sim:0h13m7s) 
CPU  1 inst:    8000001 cyc:    7007628 now IPC :0.97335: AVG IPC :0.99608: L2-Pf-HR :-nan: L2-HR :0.74969: (Sim:0h13m35s) 
CPU  2 inst:    8000001 cyc:    7143136 now IPC :0.87912: AVG IPC :0.97420: L2-Pf-HR :-nan: L2-HR :0.74318: (Sim:0h13m51s) 
CPU  0 inst:    8000001 cyc:    7147991 now IPC :0.87698: AVG IPC :0.97343: L2-Pf-HR :-nan: L2-HR :0.74680: (Sim:0h13m52s) 
CPU  3 inst:    9000003 cyc:    7603982 now IPC :1.20954: AVG IPC :1.05746: L2-Pf-HR :-nan: L2-HR :0.74052: (Sim:0h14m47s) 
CPU  1 inst:    9000003 cyc:    7848118 now IPC :1.18978: AVG IPC :1.01980: L2-Pf-HR :-nan: L2-HR :0.74979: (Sim:0h15m17s) 
CPU  2 inst:    9000003 cyc:    8151202 now IPC :0.99200: AVG IPC :0.97671: L2-Pf-HR :-nan: L2-HR :0.74417: (Sim:0h15m52s) 
CPU  0 inst:    9000003 cyc:    8171015 now IPC :0.97750: AVG IPC :0.97401: L2-Pf-HR :-nan: L2-HR :0.74882: (Sim:0h15m54s) 
CPU  3 inst:   10000000 cyc:    8542354 now IPC :1.06567: AVG IPC :1.05848: L2-Pf-HR :-nan: L2-HR :0.74235: (Sim:0h16m38s) 
CPU  1 inst:   10000000 cyc:    8685409 now IPC :1.19432: AVG IPC :1.03878: L2-Pf-HR :-nan: L2-HR :0.74958: (Sim:0h16m54s) 
CPU  2 inst:   10000005 cyc:    9183096 now IPC :0.96909: AVG IPC :0.97575: L2-Pf-HR :-nan: L2-HR :0.74480: (Sim:0h17m51s) 
CPU  0 inst:   10000005 cyc:    9261219 now IPC :0.91726: AVG IPC :0.96654: L2-Pf-HR :-nan: L2-HR :0.75007: (Sim:0h17m59s) 
CPU  3 inst:   11000002 cyc:    9587487 now IPC :0.95682: AVG IPC :1.04613: L2-Pf-HR :-nan: L2-HR :0.74446: (Sim:0h18m37s) 
CPU  1 inst:   11000002 cyc:    9617931 now IPC :1.07236: AVG IPC :1.04241: L2-Pf-HR :-nan: L2-HR :0.74946: (Sim:0h18m41s) 
CPU  2 inst:   11000002 cyc:   10033861 now IPC :1.17541: AVG IPC :0.99452: L2-Pf-HR :-nan: L2-HR :0.74521: (Sim:0h19m30s) 
CPU  0 inst:   11000002 cyc:   10291305 now IPC :0.97079: AVG IPC :0.96701: L2-Pf-HR :-nan: L2-HR :0.75132: (Sim:0h20m0s) 
CPU  3 inst:   12000002 cyc:   10550993 now IPC :1.03788: AVG IPC :1.04530: L2-Pf-HR :-nan: L2-HR :0.74525: (Sim:0h20m31s) 
CPU  1 inst:   12000002 cyc:   10600727 now IPC :1.01751: AVG IPC :1.03986: L2-Pf-HR :-nan: L2-HR :0.74933: (Sim:0h20m37s) 
CPU  2 inst:   12000002 cyc:   10900684 now IPC :1.15364: AVG IPC :1.00843: L2-Pf-HR :-nan: L2-HR :0.74553: (Sim:0h21m10s) 
CPU  0 inst:   12000002 cyc:   11493890 now IPC :0.83154: AVG IPC :0.95151: L2-Pf-HR :-nan: L2-HR :0.75177: (Sim:0h22m6s) 
CPU  3 inst:   13000004 cyc:   11865504 now IPC :0.76074: AVG IPC :1.01092: L2-Pf-HR :-nan: L2-HR :0.74516: (Sim:0h22m45s) 
CPU  1 inst:   13000004 cyc:   11923569 now IPC :0.75595: AVG IPC :1.00553: L2-Pf-HR :-nan: L2-HR :0.74903: (Sim:0h22m51s) 
CPU  2 inst:   13000004 cyc:   12049482 now IPC :0.87048: AVG IPC :0.99411: L2-Pf-HR :-nan: L2-HR :0.74805: (Sim:0h23m5s) 
CPU  0 inst:   13000004 cyc:   12652784 now IPC :0.86289: AVG IPC :0.94271: L2-Pf-HR :-nan: L2-HR :0.75422: (Sim:0h24m13s) 
CPU  3 inst:   14000000 cyc:   12906879 now IPC :0.96027: AVG IPC :1.00650: L2-Pf-HR :-nan: L2-HR :0.74590: (Sim:0h24m41s) 
CPU  1 inst:   14000000 cyc:   12970105 now IPC :0.95553: AVG IPC :1.00116: L2-Pf-HR :-nan: L2-HR :0.74944: (Sim:0h24m48s) 
CPU  2 inst:   14000005 cyc:   13074823 now IPC :0.97529: AVG IPC :0.99251: L2-Pf-HR :-nan: L2-HR :0.75170: (Sim:0h25m0s) 
CPU  0 inst:   14000005 cyc:   13681039 now IPC :0.97252: AVG IPC :0.94512: L2-Pf-HR :-nan: L2-HR :0.75724: (Sim:0h26m8s) 
CPU  3 inst:   15000000 cyc:   13933701 now IPC :0.97388: AVG IPC :1.00391: L2-Pf-HR :-nan: L2-HR :0.74698: (Sim:0h26m37s) 
CPU  1 inst:   15000000 cyc:   14018433 now IPC :0.95390: AVG IPC :0.99736: L2-Pf-HR :-nan: L2-HR :0.75049: (Sim:0h26m46s) 
CPU  2 inst:   15000000 cyc:   14099612 now IPC :0.97581: AVG IPC :0.99120: L2-Pf-HR :-nan: L2-HR :0.75546: (Sim:0h26m55s) 
CPU  0 inst:   15000000 cyc:   14715179 now IPC :0.96698: AVG IPC :0.94677: L2-Pf-HR :-nan: L2-HR :0.76058: (Sim:0h28m5s) 
CPU  3 inst:   16000000 cyc:   14921429 now IPC :1.01242: AVG IPC :1.00451: L2-Pf-HR :-nan: L2-HR :0.74753: (Sim:0h28m28s) 
CPU  1 inst:   16000000 cyc:   15028471 now IPC :0.99006: AVG IPC :0.99684: L2-Pf-HR :-nan: L2-HR :0.75142: (Sim:0h28m40s) 
CPU  2 inst:   16000000 cyc:   15144149 now IPC :0.95736: AVG IPC :0.98871: L2-Pf-HR :-nan: L2-HR :0.75842: (Sim:0h28m54s) 
CPU  0 inst:   16000000 cyc:   15985388 now IPC :0.78727: AVG IPC :0.93326: L2-Pf-HR :-nan: L2-HR :0.76283: (Sim:0h30m8s) 
CPU  3 inst:   17000005 cyc:   16340115 now IPC :0.70488: AVG IPC :0.97683: L2-Pf-HR :-nan: L2-HR :0.74457: (Sim:0h30m44s) 
CPU  1 inst:   17000005 cyc:   16558725 now IPC :0.65349: AVG IPC :0.96310: L2-Pf-HR :-nan: L2-HR :0.74884: (Sim:0h31m3s) 
CPU  2 inst:   17000005 cyc:   16668865 now IPC :0.65586: AVG IPC :0.95635: L2-Pf-HR :-nan: L2-HR :0.75474: (Sim:0h31m14s) 
CPU  3 inst:   18000000 cyc:   17548778 now IPC :0.82736: AVG IPC :0.96592: L2-Pf-HR :-nan: L2-HR :0.74411: (Sim:0h32m37s) 
CPU  0 inst:   17000005 cyc:   17621632 now IPC :0.61116: AVG IPC :0.90158: L2-Pf-HR :-nan: L2-HR :0.75898: (Sim:0h32m44s) 
CPU  1 inst:   18000000 cyc:   18144786 now IPC :0.63049: AVG IPC :0.93236: L2-Pf-HR :-nan: L2-HR :0.74801: (Sim:0h33m34s) 
CPU  2 inst:   18000000 cyc:   18185099 now IPC :0.65953: AVG IPC :0.93019: L2-Pf-HR :-nan: L2-HR :0.75341: (Sim:0h33m37s) 
CPU  3 inst:   19000001 cyc:   18754235 now IPC :0.82956: AVG IPC :0.95667: L2-Pf-HR :-nan: L2-HR :0.74345: (Sim:0h34m32s) 
CPU  0 inst:   18000000 cyc:   18903433 now IPC :0.78015: AVG IPC :0.89290: L2-Pf-HR :-nan: L2-HR :0.75720: (Sim:0h34m46s) 
CPU  1 inst:   19000001 cyc:   19780919 now IPC :0.61120: AVG IPC :0.90440: L2-Pf-HR :-nan: L2-HR :0.74716: (Sim:0h36m7s) 
CPU  2 inst:   19000001 cyc:   19824206 now IPC :0.61009: AVG IPC :0.90234: L2-Pf-HR :-nan: L2-HR :0.75220: (Sim:0h36m11s) 
CPU  0 inst:   19000001 cyc:   20113547 now IPC :0.82637: AVG IPC :0.88869: L2-Pf-HR :-nan: L2-HR :0.75567: (Sim:0h36m37s) 
CPU  3 inst:   20000000 cyc:   20364408 now IPC :0.62105: AVG IPC :0.92879: L2-Pf-HR :-nan: L2-HR :0.74283: (Sim:0h37m0s) 
CPU  1 inst:   20000001 cyc:   21254978 now IPC :0.67840: AVG IPC :0.88797: L2-Pf-HR :-nan: L2-HR :0.74657: (Sim:0h38m19s) 
CPU  2 inst:   20000000 cyc:   21564014 now IPC :0.57478: AVG IPC :0.87465: L2-Pf-HR :-nan: L2-HR :0.75119: (Sim:0h38m48s) 
CPU  0 inst:   20000004 cyc:   21640947 now IPC :0.65471: AVG IPC :0.87139: L2-Pf-HR :-nan: L2-HR :0.75436: (Sim:0h38m55s) 
CPU  3 inst:   21000000 cyc:   22121202 now IPC :0.56922: AVG IPC :0.89890: L2-Pf-HR :-nan: L2-HR :0.74211: (Sim:0h39m39s) 
CPU  1 inst:   21000000 cyc:   22450723 now IPC :0.83630: AVG IPC :0.88509: L2-Pf-HR :-nan: L2-HR :0.74586: (Sim:0h40m8s) 
CPU  2 inst:   21000000 cyc:   23129925 now IPC :0.63861: AVG IPC :0.85796: L2-Pf-HR :-nan: L2-HR :0.75014: (Sim:0h41m10s) 
CPU  0 inst:   21000000 cyc:   23343964 now IPC :0.58719: AVG IPC :0.84974: L2-Pf-HR :-nan: L2-HR :0.75311: (Sim:0h41m30s) 
CPU  3 inst:   22000004 cyc:   23839702 now IPC :0.58191: AVG IPC :0.87507: L2-Pf-HR :-nan: L2-HR :0.74143: (Sim:0h42m16s) 
CPU  1 inst:   22000004 cyc:   23905017 now IPC :0.68762: AVG IPC :0.87256: L2-Pf-HR :-nan: L2-HR :0.74518: (Sim:0h42m22s) 
CPU  2 inst:   22000004 cyc:   24268601 now IPC :0.87822: AVG IPC :0.85895: L2-Pf-HR :-nan: L2-HR :0.74922: (Sim:0h42m55s) 
CPU  0 inst:   22000004 cyc:   24948193 now IPC :0.62335: AVG IPC :0.83459: L2-Pf-HR :-nan: L2-HR :0.75201: (Sim:0h43m55s) 
CPU  3 inst:   23000005 cyc:   25546961 now IPC :0.58573: AVG IPC :0.85496: L2-Pf-HR :-nan: L2-HR :0.74081: (Sim:0h44m53s) 
CPU  1 inst:   23000005 cyc:   25592039 now IPC :0.59276: AVG IPC :0.85338: L2-Pf-HR :-nan: L2-HR :0.74472: (Sim:0h44m58s) 
CPU  2 inst:   23000005 cyc:   25709228 now IPC :0.69414: AVG IPC :0.84934: L2-Pf-HR :-nan: L2-HR :0.74814: (Sim:0h45m8s) 
CPU  0 inst:   23000005 cyc:   26192161 now IPC :0.80388: AVG IPC :0.83307: L2-Pf-HR :-nan: L2-HR :0.75074: (Sim:0h45m57s) 
CPU  3 inst:   24000005 cyc:   26900998 now IPC :0.73853: AVG IPC :0.84887: L2-Pf-HR :-nan: L2-HR :0.74115: (Sim:0h47m7s) 
CPU  1 inst:   24000005 cyc:   27029668 now IPC :0.69559: AVG IPC :0.84467: L2-Pf-HR :-nan: L2-HR :0.74532: (Sim:0h47m20s) 
CPU  2 inst:   24000005 cyc:   27039606 now IPC :0.75167: AVG IPC :0.84436: L2-Pf-HR :-nan: L2-HR :0.74799: (Sim:0h47m21s) 
CPU  0 inst:   24000005 cyc:   27183780 now IPC :1.00845: AVG IPC :0.83971: L2-Pf-HR :-nan: L2-HR :0.75042: (Sim:0h47m36s) 
CPU  3 inst:   25000005 cyc:   27968450 now IPC :0.93681: AVG IPC :0.85235: L2-Pf-HR :-nan: L2-HR :0.74140: (Sim:0h48m55s) 
CPU  1 inst:   25000005 cyc:   28443448 now IPC :0.70732: AVG IPC :0.83760: L2-Pf-HR :-nan: L2-HR :0.74581: (Sim:0h49m41s) 
CPU  2 inst:   25000005 cyc:   28481990 now IPC :0.69330: AVG IPC :0.83643: L2-Pf-HR :-nan: L2-HR :0.74784: (Sim:0h49m45s) 
CPU  0 inst:   25000005 cyc:   28509034 now IPC :0.75457: AVG IPC :0.83561: L2-Pf-HR :-nan: L2-HR :0.75011: (Sim:0h49m47s) 
CPU  3 inst:   26000002 cyc:   29037122 now IPC :0.93574: AVG IPC :0.85553: L2-Pf-HR :-nan: L2-HR :0.74176: (Sim:0h50m37s) 
CPU  1 inst:   26000002 cyc:   29865783 now IPC :0.70307: AVG IPC :0.83097: L2-Pf-HR :-nan: L2-HR :0.74634: (Sim:0h51m50s) 
CPU  2 inst:   26000002 cyc:   30123767 now IPC :0.60909: AVG IPC :0.82362: L2-Pf-HR :-nan: L2-HR :0.74771: (Sim:0h52m14s) 
CPU  0 inst:   26000002 cyc:   30127751 now IPC :0.61777: AVG IPC :0.82351: L2-Pf-HR :-nan: L2-HR :0.74983: (Sim:0h52m15s) 
CPU  3 inst:   27000003 cyc:   30592223 now IPC :0.64305: AVG IPC :0.84437: L2-Pf-HR :-nan: L2-HR :0.74204: (Sim:0h52m59s) 
CPU  1 inst:   27000003 cyc:   30871875 now IPC :0.99395: AVG IPC :0.83646: L2-Pf-HR :-nan: L2-HR :0.74669: (Sim:0h53m26s) 
CPU  0 inst:   27000003 cyc:   31663534 now IPC :0.65113: AVG IPC :0.81488: L2-Pf-HR :-nan: L2-HR :0.74954: (Sim:0h54m37s) 
CPU  2 inst:   27000003 cyc:   31749463 now IPC :0.61512: AVG IPC :0.81261: L2-Pf-HR :-nan: L2-HR :0.74755: (Sim:0h54m45s) 
CPU  3 inst:   28000003 cyc:   32176778 now IPC :0.63109: AVG IPC :0.83354: L2-Pf-HR :-nan: L2-HR :0.74232: (Sim:0h55m26s) 
CPU  1 inst:   28000003 cyc:   32233854 now IPC :0.73423: AVG IPC :0.83200: L2-Pf-HR :-nan: L2-HR :0.74717: (Sim:0h55m32s) 
CPU  0 inst:   28000003 cyc:   32628618 now IPC :1.03618: AVG IPC :0.82163: L2-Pf-HR :-nan: L2-HR :0.74931: (Sim:0h56m12s) 
CPU  2 inst:   28000003 cyc:   33085856 now IPC :0.74828: AVG IPC :0.80993: L2-Pf-HR :-nan: L2-HR :0.74743: (Sim:0h56m56s) 
CPU  3 inst:   29000001 cyc:   33630262 now IPC :0.68800: AVG IPC :0.82706: L2-Pf-HR :-nan: L2-HR :0.74279: (Sim:0h57m49s) 
CPU  1 inst:   29000001 cyc:   33681653 now IPC :0.69070: AVG IPC :0.82575: L2-Pf-HR :-nan: L2-HR :0.74801: (Sim:0h57m54s) 
CPU  0 inst:   29000001 cyc:   33805300 now IPC :0.84985: AVG IPC :0.82264: L2-Pf-HR :-nan: L2-HR :0.74974: (Sim:0h58m7s) 
CPU  2 inst:   29000001 cyc:   34368708 now IPC :0.77951: AVG IPC :0.80876: L2-Pf-HR :-nan: L2-HR :0.74796: (Sim:0h59m7s) 
CPU  3 inst:   30000005 cyc:   34725623 now IPC :0.91294: AVG IPC :0.82984: L2-Pf-HR :-nan: L2-HR :0.74419: (Sim:0h59m45s) 
CPU  1 inst:   30000005 cyc:   34870375 now IPC :0.84124: AVG IPC :0.82629: L2-Pf-HR :-nan: L2-HR :0.74970: (Sim:1h0m0s) 
CPU  0 inst:   30000005 cyc:   34926516 now IPC :0.89189: AVG IPC :0.82493: L2-Pf-HR :-nan: L2-HR :0.75131: (Sim:1h0m6s) 
CPU  2 inst:   30000005 cyc:   35554793 now IPC :0.84311: AVG IPC :0.80994: L2-Pf-HR :-nan: L2-HR :0.74954: (Sim:1h1m11s) 
CPU  3 inst:   31000000 cyc:   35715979 now IPC :1.00973: AVG IPC :0.83497: L2-Pf-HR :-nan: L2-HR :0.74573: (Sim:1h1m28s) 
CPU  1 inst:   31000001 cyc:   36116935 now IPC :0.80220: AVG IPC :0.82544: L2-Pf-HR :-nan: L2-HR :0.75138: (Sim:1h2m8s) 
CPU  0 inst:   31000002 cyc:   36219668 now IPC :0.77330: AVG IPC :0.82303: L2-Pf-HR :-nan: L2-HR :0.75290: (Sim:1h2m17s) 
CPU  2 inst:   31000002 cyc:   36823415 now IPC :0.78825: AVG IPC :0.80917: L2-Pf-HR :-nan: L2-HR :0.75130: (Sim:1h3m20s) 
CPU  3 inst:   32000002 cyc:   36940888 now IPC :0.81639: AVG IPC :0.83434: L2-Pf-HR :-nan: L2-HR :0.74705: (Sim:1h3m31s) 
CPU  1 inst:   32000005 cyc:   37150498 now IPC :0.96753: AVG IPC :0.82950: L2-Pf-HR :-nan: L2-HR :0.75263: (Sim:1h3m53s) 
CPU  0 inst:   32000002 cyc:   37474301 now IPC :0.79705: AVG IPC :0.82214: L2-Pf-HR :-nan: L2-HR :0.75413: (Sim:1h4m26s) 
CPU  2 inst:   32000005 cyc:   38135663 now IPC :0.76205: AVG IPC :0.80751: L2-Pf-HR :-nan: L2-HR :0.75262: (Sim:1h5m27s) 
CPU  3 inst:   33000005 cyc:   38271158 now IPC :0.75173: AVG IPC :0.83139: L2-Pf-HR :-nan: L2-HR :0.74587: (Sim:1h5m41s) 
CPU  1 inst:   33000005 cyc:   38503666 now IPC :0.73901: AVG IPC :0.82623: L2-Pf-HR :-nan: L2-HR :0.75180: (Sim:1h6m6s) 
CPU  0 inst:   33000005 cyc:   38859025 now IPC :0.72217: AVG IPC :0.81849: L2-Pf-HR :-nan: L2-HR :0.75290: (Sim:1h6m40s) 
CPU  3 inst:   34000000 cyc:   39446852 now IPC :0.85056: AVG IPC :0.83198: L2-Pf-HR :-nan: L2-HR :0.74544: (Sim:1h7m40s) 
CPU  2 inst:   33000005 cyc:   39500867 now IPC :0.73249: AVG IPC :0.80485: L2-Pf-HR :-nan: L2-HR :0.75164: (Sim:1h7m46s) 
CPU  1 inst:   34000000 cyc:   39804009 now IPC :0.76902: AVG IPC :0.82432: L2-Pf-HR :-nan: L2-HR :0.75133: (Sim:1h8m17s) 
CPU  0 inst:   34000000 cyc:   40021913 now IPC :0.85992: AVG IPC :0.81972: L2-Pf-HR :-nan: L2-HR :0.75222: (Sim:1h8m38s) 
CPU  3 inst:   35000002 cyc:   40586045 now IPC :0.87782: AVG IPC :0.83330: L2-Pf-HR :-nan: L2-HR :0.74492: (Sim:1h9m36s) 
CPU  2 inst:   34000000 cyc:   40844684 now IPC :0.74415: AVG IPC :0.80280: L2-Pf-HR :-nan: L2-HR :0.75098: (Sim:1h10m2s) 
CPU  1 inst:   35000003 cyc:   41084199 now IPC :0.78114: AVG IPC :0.82294: L2-Pf-HR :-nan: L2-HR :0.75083: (Sim:1h10m25s) 
CPU  0 inst:   35000003 cyc:   41288203 now IPC :0.78971: AVG IPC :0.81878: L2-Pf-HR :-nan: L2-HR :0.75165: (Sim:1h10m46s) 
CPU  3 inst:   36000005 cyc:   41787597 now IPC :0.83226: AVG IPC :0.83327: L2-Pf-HR :-nan: L2-HR :0.74440: (Sim:1h11m36s) 
CPU  2 inst:   35000001 cyc:   42178475 now IPC :0.74974: AVG IPC :0.80108: L2-Pf-HR :-nan: L2-HR :0.75046: (Sim:1h12m14s) 
CPU  1 inst:   36000005 cyc:   42328246 now IPC :0.80383: AVG IPC :0.82236: L2-Pf-HR :-nan: L2-HR :0.75040: (Sim:1h12m28s) 
CPU  0 inst:   36000005 cyc:   42697486 now IPC :0.70958: AVG IPC :0.81509: L2-Pf-HR :-nan: L2-HR :0.75110: (Sim:1h13m5s) 
CPU  3 inst:   37000002 cyc:   43125318 now IPC :0.74754: AVG IPC :0.83055: L2-Pf-HR :-nan: L2-HR :0.74390: (Sim:1h13m47s) 
CPU  2 inst:   36000005 cyc:   43448224 now IPC :0.78756: AVG IPC :0.80068: L2-Pf-HR :-nan: L2-HR :0.75000: (Sim:1h14m20s) 
CPU  1 inst:   37000002 cyc:   43529024 now IPC :0.83279: AVG IPC :0.82266: L2-Pf-HR :-nan: L2-HR :0.74994: (Sim:1h14m28s) 
CPU  0 inst:   37000000 cyc:   44027651 now IPC :0.75178: AVG IPC :0.81313: L2-Pf-HR :-nan: L2-HR :0.75051: (Sim:1h15m12s) 
CPU  3 inst:   38000004 cyc:   44443875 now IPC :0.75841: AVG IPC :0.82836: L2-Pf-HR :-nan: L2-HR :0.74340: (Sim:1h15m49s) 
CPU  2 inst:   37000002 cyc:   44651930 now IPC :0.83077: AVG IPC :0.80151: L2-Pf-HR :-nan: L2-HR :0.74945: (Sim:1h16m7s) 
CPU  1 inst:   38000001 cyc:   44776416 now IPC :0.80167: AVG IPC :0.82206: L2-Pf-HR :-nan: L2-HR :0.74945: (Sim:1h16m18s) 
CPU  0 inst:   38000001 cyc:   45297757 now IPC :0.78734: AVG IPC :0.81239: L2-Pf-HR :-nan: L2-HR :0.74996: (Sim:1h17m2s) 
CPU  3 inst:   39000000 cyc:   45800553 now IPC :0.73709: AVG IPC :0.82559: L2-Pf-HR :-nan: L2-HR :0.74275: (Sim:1h17m38s) 
CPU  2 inst:   38000001 cyc:   45934046 now IPC :0.77996: AVG IPC :0.80089: L2-Pf-HR :-nan: L2-HR :0.74895: (Sim:1h17m50s) 
CPU  1 inst:   39000000 cyc:   46199062 now IPC :0.70291: AVG IPC :0.81831: L2-Pf-HR :-nan: L2-HR :0.74883: (Sim:1h18m6s) 
CPU  0 inst:   39000000 cyc:   46712548 now IPC :0.70682: AVG IPC :0.80913: L2-Pf-HR :-nan: L2-HR :0.74926: (Sim:1h18m46s) 
CPU  3 inst:   40000000 cyc:   47058282 now IPC :0.79508: AVG IPC :0.82476: L2-Pf-HR :-nan: L2-HR :0.74261: (Sim:1h19m12s) 
CPU  2 inst:   39000000 cyc:   47264072 now IPC :0.75186: AVG IPC :0.79948: L2-Pf-HR :-nan: L2-HR :0.74828: (Sim:1h19m32s) 
CPU  1 inst:   40000000 cyc:   47308140 now IPC :0.90165: AVG IPC :0.82031: L2-Pf-HR :-nan: L2-HR :0.74869: (Sim:1h19m36s) 
CPU  0 inst:   40000000 cyc:   47870150 now IPC :0.86385: AVG IPC :0.81048: L2-Pf-HR :-nan: L2-HR :0.74910: (Sim:1h20m29s) 
CPU  3 inst:   41000000 cyc:   48182004 now IPC :0.88990: AVG IPC :0.82631: L2-Pf-HR :-nan: L2-HR :0.74244: (Sim:1h20m56s) 
CPU  2 inst:   40000000 cyc:   48285257 now IPC :0.97925: AVG IPC :0.80337: L2-Pf-HR :-nan: L2-HR :0.74815: (Sim:1h21m5s) 
CPU  1 inst:   41000000 cyc:   48336471 now IPC :0.97245: AVG IPC :0.82361: L2-Pf-HR :-nan: L2-HR :0.74850: (Sim:1h21m9s) 
CPU  0 inst:   41000000 cyc:   49063277 now IPC :0.83813: AVG IPC :0.81116: L2-Pf-HR :-nan: L2-HR :0.74895: (Sim:1h22m5s) 
CPU  2 inst:   41000000 cyc:   49311706 now IPC :0.97423: AVG IPC :0.80699: L2-Pf-HR :-nan: L2-HR :0.74802: (Sim:1h22m25s) 
CPU  3 inst:   42000003 cyc:   49382954 now IPC :0.83268: AVG IPC :0.82647: L2-Pf-HR :-nan: L2-HR :0.74230: (Sim:1h22m32s) 
CPU  1 inst:   42000003 cyc:   49511873 now IPC :0.85078: AVG IPC :0.82427: L2-Pf-HR :-nan: L2-HR :0.74836: (Sim:1h22m43s) 
CPU  0 inst:   42000003 cyc:   50283997 now IPC :0.81919: AVG IPC :0.81136: L2-Pf-HR :-nan: L2-HR :0.74882: (Sim:1h23m42s) 
CPU  2 inst:   42000003 cyc:   50434930 now IPC :0.89030: AVG IPC :0.80889: L2-Pf-HR :-nan: L2-HR :0.74793: (Sim:1h23m55s) 
CPU  3 inst:   43000003 cyc:   50509710 now IPC :0.88750: AVG IPC :0.82786: L2-Pf-HR :-nan: L2-HR :0.74216: (Sim:1h24m2s) 
CPU  1 inst:   43000001 cyc:   50697531 now IPC :0.84341: AVG IPC :0.82472: L2-Pf-HR :-nan: L2-HR :0.74820: (Sim:1h24m20s) 
CPU  0 inst:   43000003 cyc:   51465622 now IPC :0.84629: AVG IPC :0.81218: L2-Pf-HR :-nan: L2-HR :0.74868: (Sim:1h25m25s) 
CPU  3 inst:   44000004 cyc:   51554244 now IPC :0.95737: AVG IPC :0.83053: L2-Pf-HR :-nan: L2-HR :0.74201: (Sim:1h25m34s) 
CPU  2 inst:   43000003 cyc:   51590266 now IPC :0.86555: AVG IPC :0.81018: L2-Pf-HR :-nan: L2-HR :0.74779: (Sim:1h25m38s) 
CPU  1 inst:   44000004 cyc:   51880427 now IPC :0.84539: AVG IPC :0.82521: L2-Pf-HR :-nan: L2-HR :0.74805: (Sim:1h26m1s) 
CPU  0 inst:   44000004 cyc:   52534957 now IPC :0.93516: AVG IPC :0.81473: L2-Pf-HR :-nan: L2-HR :0.74854: (Sim:1h26m56s) 
CPU  3 inst:   45000005 cyc:   52644838 now IPC :0.91693: AVG IPC :0.83236: L2-Pf-HR :-nan: L2-HR :0.74209: (Sim:1h27m6s) 
CPU  2 inst:   44000004 cyc:   52719525 now IPC :0.88554: AVG IPC :0.81183: L2-Pf-HR :-nan: L2-HR :0.74769: (Sim:1h27m13s) 
CPU  1 inst:   45000005 cyc:   53193082 now IPC :0.76182: AVG IPC :0.82361: L2-Pf-HR :-nan: L2-HR :0.74820: (Sim:1h27m43s) 
CPU  0 inst:   45000005 cyc:   53737038 now IPC :0.83189: AVG IPC :0.81512: L2-Pf-HR :-nan: L2-HR :0.74861: (Sim:1h28m11s) 
CPU  3 inst:   46000002 cyc:   53895254 now IPC :0.79973: AVG IPC :0.83159: L2-Pf-HR :-nan: L2-HR :0.74307: (Sim:1h28m19s) 
CPU  2 inst:   45000005 cyc:   53984377 now IPC :0.79061: AVG IPC :0.81132: L2-Pf-HR :-nan: L2-HR :0.74783: (Sim:1h28m26s) 
CPU  1 inst:   46000002 cyc:   54424031 now IPC :0.81238: AVG IPC :0.82335: L2-Pf-HR :-nan: L2-HR :0.74927: (Sim:1h28m51s) 
CPU  0 inst:   46000002 cyc:   54740674 now IPC :0.99637: AVG IPC :0.81851: L2-Pf-HR :-nan: L2-HR :0.74961: (Sim:1h29m7s) 
CPU  3 inst:   47000003 cyc:   55092273 now IPC :0.83541: AVG IPC :0.83167: L2-Pf-HR :-nan: L2-HR :0.74396: (Sim:1h29m26s) 
CPU  2 inst:   46000002 cyc:   55153042 now IPC :0.85567: AVG IPC :0.81228: L2-Pf-HR :-nan: L2-HR :0.74891: (Sim:1h29m29s) 
CPU  1 inst:   47000003 cyc:   55532089 now IPC :0.90248: AVG IPC :0.82496: L2-Pf-HR :-nan: L2-HR :0.75024: (Sim:1h29m50s) 
CPU  0 inst:   47000003 cyc:   55808066 now IPC :0.93686: AVG IPC :0.82081: L2-Pf-HR :-nan: L2-HR :0.75055: (Sim:1h30m5s) 
CPU  3 inst:   48000000 cyc:   56144578 now IPC :0.95029: AVG IPC :0.83393: L2-Pf-HR :-nan: L2-HR :0.74490: (Sim:1h30m24s) 
CPU  2 inst:   47000003 cyc:   56291911 now IPC :0.87806: AVG IPC :0.81363: L2-Pf-HR :-nan: L2-HR :0.74999: (Sim:1h30m32s) 
CPU  1 inst:   48000000 cyc:   56558235 now IPC :0.97452: AVG IPC :0.82772: L2-Pf-HR :-nan: L2-HR :0.75112: (Sim:1h30m46s) 
CPU  0 inst:   48000000 cyc:   56990826 now IPC :0.84548: AVG IPC :0.82133: L2-Pf-HR :-nan: L2-HR :0.75153: (Sim:1h31m7s) 
CPU  3 inst:   49000004 cyc:   57517746 now IPC :0.72825: AVG IPC :0.83137: L2-Pf-HR :-nan: L2-HR :0.74422: (Sim:1h31m31s) 
CPU  2 inst:   48000000 cyc:   57555046 now IPC :0.79168: AVG IPC :0.81314: L2-Pf-HR :-nan: L2-HR :0.75093: (Sim:1h31m34s) 
CPU  1 inst:   49000004 cyc:   57868443 now IPC :0.76324: AVG IPC :0.82624: L2-Pf-HR :-nan: L2-HR :0.75060: (Sim:1h31m49s) 
CPU  0 inst:   49000001 cyc:   58478516 now IPC :0.67218: AVG IPC :0.81747: L2-Pf-HR :-nan: L2-HR :0.75091: (Sim:1h32m18s) 
CPU  3 inst:   50000000 cyc:   58783497 now IPC :0.79004: AVG IPC :0.83046: L2-Pf-HR :-nan: L2-HR :0.74385: (Sim:1h32m33s) 
CPU  2 inst:   49000001 cyc:   58942366 now IPC :0.72081: AVG IPC :0.81093: L2-Pf-HR :-nan: L2-HR :0.75049: (Sim:1h32m42s) 
CPU  1 inst:   50000000 cyc:   59046340 now IPC :0.84897: AVG IPC :0.82670: L2-Pf-HR :-nan: L2-HR :0.75025: (Sim:1h32m48s) 
CPU  0 inst:   50000000 cyc:   59711406 now IPC :0.81110: AVG IPC :0.81734: L2-Pf-HR :-nan: L2-HR :0.75054: (Sim:1h33m23s) 
CPU  3 inst:   51000001 cyc:   60026451 now IPC :0.80454: AVG IPC :0.82992: L2-Pf-HR :-nan: L2-HR :0.74346: (Sim:1h33m39s) 
CPU  2 inst:   50000000 cyc:   60093932 now IPC :0.86838: AVG IPC :0.81205: L2-Pf-HR :-nan: L2-HR :0.75014: (Sim:1h33m42s) 
CPU  1 inst:   51000001 cyc:   60225579 now IPC :0.84801: AVG IPC :0.82712: L2-Pf-HR :-nan: L2-HR :0.74986: (Sim:1h33m49s) 
CPU  0 inst:   51000001 cyc:   61018540 now IPC :0.76503: AVG IPC :0.81620: L2-Pf-HR :-nan: L2-HR :0.75015: (Sim:1h34m29s) 
CPU  2 inst:   51000001 cyc:   61291644 now IPC :0.83493: AVG IPC :0.81250: L2-Pf-HR :-nan: L2-HR :0.74977: (Sim:1h34m42s) 
CPU  3 inst:   52000005 cyc:   61405425 now IPC :0.72518: AVG IPC :0.82753: L2-Pf-HR :-nan: L2-HR :0.74312: (Sim:1h34m52s) 
CPU  1 inst:   52000005 cyc:   61546894 now IPC :0.75682: AVG IPC :0.82559: L2-Pf-HR :-nan: L2-HR :0.74952: (Sim:1h35m4s) 
CPU  0 inst:   52000005 cyc:   62493064 now IPC :0.67819: AVG IPC :0.81289: L2-Pf-HR :-nan: L2-HR :0.74981: (Sim:1h36m30s) 
CPU  2 inst:   52000005 cyc:   62665254 now IPC :0.72801: AVG IPC :0.81062: L2-Pf-HR :-nan: L2-HR :0.74948: (Sim:1h36m45s) 
CPU  3 inst:   53000003 cyc:   63018739 now IPC :0.61984: AVG IPC :0.82212: L2-Pf-HR :-nan: L2-HR :0.74274: (Sim:1h37m16s) 
CPU  1 inst:   53000003 cyc:   63108006 now IPC :0.64057: AVG IPC :0.82094: L2-Pf-HR :-nan: L2-HR :0.74913: (Sim:1h37m25s) 
CPU  0 inst:   53000003 cyc:   63737309 now IPC :0.80370: AVG IPC :0.81271: L2-Pf-HR :-nan: L2-HR :0.74944: (Sim:1h38m22s) 
CPU  2 inst:   53000003 cyc:   64215773 now IPC :0.64494: AVG IPC :0.80656: L2-Pf-HR :-nan: L2-HR :0.74912: (Sim:1h39m7s) 
CPU  3 inst:   54000000 cyc:   64583454 now IPC :0.63909: AVG IPC :0.81762: L2-Pf-HR :-nan: L2-HR :0.74238: (Sim:1h39m41s) 
CPU  1 inst:   54000000 cyc:   64663828 now IPC :0.64275: AVG IPC :0.81658: L2-Pf-HR :-nan: L2-HR :0.74876: (Sim:1h39m48s) 
CPU  0 inst:   54000000 cyc:   64865770 now IPC :0.88616: AVG IPC :0.81401: L2-Pf-HR :-nan: L2-HR :0.74909: (Sim:1h40m7s) 
CPU  2 inst:   54000000 cyc:   65821582 now IPC :0.62274: AVG IPC :0.80201: L2-Pf-HR :-nan: L2-HR :0.74877: (Sim:1h41m29s) 
CPU  3 inst:   55000004 cyc:   66379746 now IPC :0.55670: AVG IPC :0.81045: L2-Pf-HR :-nan: L2-HR :0.74196: (Sim:1h42m17s) 
CPU  1 inst:   55000004 cyc:   66481644 now IPC :0.55011: AVG IPC :0.80919: L2-Pf-HR :-nan: L2-HR :0.74828: (Sim:1h42m26s) 
CPU  0 inst:   55000004 cyc:   66524740 now IPC :0.60279: AVG IPC :0.80866: L2-Pf-HR :-nan: L2-HR :0.74860: (Sim:1h42m30s) 
CPU  2 inst:   55000004 cyc:   67207200 now IPC :0.72170: AVG IPC :0.80033: L2-Pf-HR :-nan: L2-HR :0.74829: (Sim:1h43m32s) 
CPU  3 inst:   56000004 cyc:   67688057 now IPC :0.76434: AVG IPC :0.80955: L2-Pf-HR :-nan: L2-HR :0.74208: (Sim:1h44m10s) 
CPU  1 inst:   56000004 cyc:   67893178 now IPC :0.70845: AVG IPC :0.80706: L2-Pf-HR :-nan: L2-HR :0.74829: (Sim:1h44m21s) 
CPU  0 inst:   56000004 cyc:   67901872 now IPC :0.72615: AVG IPC :0.80696: L2-Pf-HR :-nan: L2-HR :0.74856: (Sim:1h44m21s) 
CPU  2 inst:   56000004 cyc:   68231931 now IPC :0.97587: AVG IPC :0.80300: L2-Pf-HR :-nan: L2-HR :0.74820: (Sim:1h44m39s) 
CPU  3 inst:   57000004 cyc:   68754120 now IPC :0.93803: AVG IPC :0.81157: L2-Pf-HR :-nan: L2-HR :0.74214: (Sim:1h45m7s) 
CPU  0 inst:   57000004 cyc:   69156812 now IPC :0.79685: AVG IPC :0.80678: L2-Pf-HR :-nan: L2-HR :0.74852: (Sim:1h45m28s) 
CPU  1 inst:   57000004 cyc:   69160217 now IPC :0.78924: AVG IPC :0.80673: L2-Pf-HR :-nan: L2-HR :0.74824: (Sim:1h45m29s) 
CPU  2 inst:   57000004 cyc:   69283806 now IPC :0.95068: AVG IPC :0.80528: L2-Pf-HR :-nan: L2-HR :0.74811: (Sim:1h45m35s) 
CPU  3 inst:   58000004 cyc:   69768504 now IPC :0.98582: AVG IPC :0.81414: L2-Pf-HR :-nan: L2-HR :0.74226: (Sim:1h45m59s) 
CPU  0 inst:   58000004 cyc:   70502032 now IPC :0.74337: AVG IPC :0.80555: L2-Pf-HR :-nan: L2-HR :0.74850: (Sim:1h46m33s) 
CPU  1 inst:   58000004 cyc:   70652275 now IPC :0.67022: AVG IPC :0.80381: L2-Pf-HR :-nan: L2-HR :0.74824: (Sim:1h46m40s) 
CPU  2 inst:   58000004 cyc:   70703606 now IPC :0.70432: AVG IPC :0.80322: L2-Pf-HR :-nan: L2-HR :0.74805: (Sim:1h46m43s) 
CPU  3 inst:   59000005 cyc:   71139476 now IPC :0.72941: AVG IPC :0.81249: L2-Pf-HR :-nan: L2-HR :0.74232: (Sim:1h47m5s) 
CPU  0 inst:   59000005 cyc:   71496893 now IPC :1.00517: AVG IPC :0.80837: L2-Pf-HR :-nan: L2-HR :0.74850: (Sim:1h47m23s) 
CPU  1 inst:   59000005 cyc:   71889604 now IPC :0.80819: AVG IPC :0.80389: L2-Pf-HR :-nan: L2-HR :0.74821: (Sim:1h47m44s) 
CPU  2 inst:   59000005 cyc:   72013832 now IPC :0.76323: AVG IPC :0.80248: L2-Pf-HR :-nan: L2-HR :0.74797: (Sim:1h47m50s) 
CPU  3 inst:   60000005 cyc:   72404174 now IPC :0.79070: AVG IPC :0.81210: L2-Pf-HR :-nan: L2-HR :0.74242: (Sim:1h48m12s) 
CPU  0 inst:   60000000 cyc:   72502847 now IPC :0.99408: AVG IPC :0.81098: L2-Pf-HR :-nan: L2-HR :0.74850: (Sim:1h48m17s) 
CPU  1 inst:   60000001 cyc:   72898158 now IPC :0.99151: AVG IPC :0.80652: L2-Pf-HR :-nan: L2-HR :0.74819: (Sim:1h48m39s) 
CPU  2 inst:   60000001 cyc:   73056684 now IPC :0.95890: AVG IPC :0.80475: L2-Pf-HR :-nan: L2-HR :0.74790: (Sim:1h48m48s) 
CPU  3 inst:   61000002 cyc:   73694108 now IPC :0.77523: AVG IPC :0.81145: L2-Pf-HR :-nan: L2-HR :0.74243: (Sim:1h49m27s) 
CPU  0 inst:   61000002 cyc:   73738373 now IPC :0.80937: AVG IPC :0.81095: L2-Pf-HR :-nan: L2-HR :0.74849: (Sim:1h49m32s) 
CPU  1 inst:   61000002 cyc:   74063619 now IPC :0.85803: AVG IPC :0.80734: L2-Pf-HR :-nan: L2-HR :0.74832: (Sim:1h50m3s) 
CPU  2 inst:   61000002 cyc:   74367636 now IPC :0.76281: AVG IPC :0.80400: L2-Pf-HR :-nan: L2-HR :0.74794: (Sim:1h50m33s) 
CPU  3 inst:   62000000 cyc:   75039098 now IPC :0.74350: AVG IPC :0.81021: L2-Pf-HR :-nan: L2-HR :0.74291: (Sim:1h51m38s) 
CPU  0 inst:   62000000 cyc:   75177288 now IPC :0.69497: AVG IPC :0.80870: L2-Pf-HR :-nan: L2-HR :0.74898: (Sim:1h51m51s) 
CPU  1 inst:   62000000 cyc:   75204008 now IPC :0.87689: AVG IPC :0.80841: L2-Pf-HR :-nan: L2-HR :0.74910: (Sim:1h51m54s) 
CPU  2 inst:   62000000 cyc:   75743485 now IPC :0.72682: AVG IPC :0.80258: L2-Pf-HR :-nan: L2-HR :0.74863: (Sim:1h52m48s) 
CPU  3 inst:   63000001 cyc:   76051189 now IPC :0.98805: AVG IPC :0.81261: L2-Pf-HR :-nan: L2-HR :0.74335: (Sim:1h53m22s) 
CPU  0 inst:   63000001 cyc:   76477587 now IPC :0.76905: AVG IPC :0.80802: L2-Pf-HR :-nan: L2-HR :0.74959: (Sim:1h54m8s) 
CPU  1 inst:   63000001 cyc:   76486758 now IPC :0.77958: AVG IPC :0.80792: L2-Pf-HR :-nan: L2-HR :0.74983: (Sim:1h54m9s) 
CPU  2 inst:   63000001 cyc:   76729515 now IPC :1.01417: AVG IPC :0.80533: L2-Pf-HR :-nan: L2-HR :0.74944: (Sim:1h54m27s) 
CPU  3 inst:   64000001 cyc:   77283125 now IPC :0.81173: AVG IPC :0.81259: L2-Pf-HR :-nan: L2-HR :0.74390: (Sim:1h54m54s) 
CPU  0 inst:   64000001 cyc:   77752703 now IPC :0.78424: AVG IPC :0.80762: L2-Pf-HR :-nan: L2-HR :0.75009: (Sim:1h55m16s) 
CPU  1 inst:   64000001 cyc:   77956827 now IPC :0.68024: AVG IPC :0.80548: L2-Pf-HR :-nan: L2-HR :0.75056: (Sim:1h55m26s) 
CPU  2 inst:   64000001 cyc:   77999546 now IPC :0.78738: AVG IPC :0.80503: L2-Pf-HR :-nan: L2-HR :0.75016: (Sim:1h55m28s) 
CPU  3 inst:   65000005 cyc:   78797296 now IPC :0.66043: AVG IPC :0.80963: L2-Pf-HR :-nan: L2-HR :0.74341: (Sim:1h56m6s) 
CPU  0 inst:   65000005 cyc:   79085695 now IPC :0.75020: AVG IPC :0.80664: L2-Pf-HR :-nan: L2-HR :0.74967: (Sim:1h56m19s) 
CPU  1 inst:   65000005 cyc:   79406706 now IPC :0.68972: AVG IPC :0.80334: L2-Pf-HR :-nan: L2-HR :0.75047: (Sim:1h56m35s) 
CPU  2 inst:   65000005 cyc:   79494319 now IPC :0.66900: AVG IPC :0.80244: L2-Pf-HR :-nan: L2-HR :0.74999: (Sim:1h56m40s) 
CPU  3 inst:   66000001 cyc:   80001472 now IPC :0.83044: AVG IPC :0.80995: L2-Pf-HR :-nan: L2-HR :0.74321: (Sim:1h57m6s) 
CPU  0 inst:   66000002 cyc:   80232448 now IPC :0.87202: AVG IPC :0.80759: L2-Pf-HR :-nan: L2-HR :0.74942: (Sim:1h57m18s) 
CPU  1 inst:   66000002 cyc:   80666851 now IPC :0.79356: AVG IPC :0.80318: L2-Pf-HR :-nan: L2-HR :0.75022: (Sim:1h57m42s) 
CPU  2 inst:   66000002 cyc:   80792261 now IPC :0.77045: AVG IPC :0.80192: L2-Pf-HR :-nan: L2-HR :0.74979: (Sim:1h57m49s) 
CPU  3 inst:   67000001 cyc:   81230867 now IPC :0.81341: AVG IPC :0.81000: L2-Pf-HR :-nan: L2-HR :0.74304: (Sim:1h58m11s) 
CPU  0 inst:   67000001 cyc:   81389268 now IPC :0.86444: AVG IPC :0.80841: L2-Pf-HR :-nan: L2-HR :0.74916: (Sim:1h58m20s) 
CPU  1 inst:   67000001 cyc:   81832450 now IPC :0.85793: AVG IPC :0.80397: L2-Pf-HR :-nan: L2-HR :0.74996: (Sim:1h58m42s) 
CPU  2 inst:   67000001 cyc:   82113224 now IPC :0.75702: AVG IPC :0.80119: L2-Pf-HR :-nan: L2-HR :0.74957: (Sim:1h58m56s) 
CPU  3 inst:   68000001 cyc:   82611100 now IPC :0.72452: AVG IPC :0.80856: L2-Pf-HR :-nan: L2-HR :0.74280: (Sim:1h59m20s) 
CPU  0 inst:   68000001 cyc:   82683407 now IPC :0.77271: AVG IPC :0.80784: L2-Pf-HR :-nan: L2-HR :0.74902: (Sim:1h59m24s) 
CPU  1 inst:   68000001 cyc:   83004926 now IPC :0.85290: AVG IPC :0.80467: L2-Pf-HR :-nan: L2-HR :0.74972: (Sim:1h59m40s) 
CPU  2 inst:   68000004 cyc:   83347791 now IPC :0.81000: AVG IPC :0.80133: L2-Pf-HR :-nan: L2-HR :0.74934: (Sim:1h59m58s) 
CPU  3 inst:   69000000 cyc:   83900031 now IPC :0.77584: AVG IPC :0.80805: L2-Pf-HR :-nan: L2-HR :0.74257: (Sim:2h0m27s) 
CPU  0 inst:   69000000 cyc:   83999131 now IPC :0.76004: AVG IPC :0.80708: L2-Pf-HR :-nan: L2-HR :0.74874: (Sim:2h0m32s) 
CPU  1 inst:   69000000 cyc:   84143969 now IPC :0.87793: AVG IPC :0.80568: L2-Pf-HR :-nan: L2-HR :0.74947: (Sim:2h0m40s) 
CPU  2 inst:   69000000 cyc:   84509261 now IPC :0.86097: AVG IPC :0.80215: L2-Pf-HR :-nan: L2-HR :0.74911: (Sim:2h0m59s) 
CPU  3 inst:   70000001 cyc:   85135224 now IPC :0.80959: AVG IPC :0.80807: L2-Pf-HR :-nan: L2-HR :0.74233: (Sim:2h1m31s) 
CPU  0 inst:   70000001 cyc:   85291312 now IPC :0.77389: AVG IPC :0.80658: L2-Pf-HR :-nan: L2-HR :0.74846: (Sim:2h1m38s) 
CPU  1 inst:   70000001 cyc:   85381970 now IPC :0.80775: AVG IPC :0.80571: L2-Pf-HR :-nan: L2-HR :0.74920: (Sim:2h1m43s) 
CPU  2 inst:   70000001 cyc:   85689515 now IPC :0.84728: AVG IPC :0.80278: L2-Pf-HR :-nan: L2-HR :0.74892: (Sim:2h1m59s) 
CPU  3 inst:   71000004 cyc:   86540054 now IPC :0.71183: AVG IPC :0.80649: L2-Pf-HR :-nan: L2-HR :0.74195: (Sim:2h2m39s) 
CPU  0 inst:   71000004 cyc:   86860391 now IPC :0.63732: AVG IPC :0.80348: L2-Pf-HR :-nan: L2-HR :0.74809: (Sim:2h2m53s) 
CPU  1 inst:   71000004 cyc:   86899249 now IPC :0.65908: AVG IPC :0.80312: L2-Pf-HR :-nan: L2-HR :0.74881: (Sim:2h2m55s) 
CPU  2 inst:   71000001 cyc:   87108574 now IPC :0.70469: AVG IPC :0.80117: L2-Pf-HR :-nan: L2-HR :0.74858: (Sim:2h3m6s) 
CPU  3 inst:   72000002 cyc:   87630483 now IPC :0.91707: AVG IPC :0.80788: L2-Pf-HR :-nan: L2-HR :0.74188: (Sim:2h3m35s) 
CPU  0 inst:   72000002 cyc:   88091561 now IPC :0.81223: AVG IPC :0.80361: L2-Pf-HR :-nan: L2-HR :0.74830: (Sim:2h3m58s) 
CPU  1 inst:   72000002 cyc:   88097472 now IPC :0.83457: AVG IPC :0.80355: L2-Pf-HR :-nan: L2-HR :0.74894: (Sim:2h3m58s) 
CPU  2 inst:   72000002 cyc:   88212964 now IPC :0.90548: AVG IPC :0.80249: L2-Pf-HR :-nan: L2-HR :0.74852: (Sim:2h4m4s) 
CPU  3 inst:   73000005 cyc:   88678788 now IPC :0.95392: AVG IPC :0.80963: L2-Pf-HR :-nan: L2-HR :0.74179: (Sim:2h4m27s) 
CPU  1 inst:   73000002 cyc:   89289513 now IPC :0.83890: AVG IPC :0.80403: L2-Pf-HR :-nan: L2-HR :0.74903: (Sim:2h4m57s) 
CPU  0 inst:   73000002 cyc:   89467822 now IPC :0.72661: AVG IPC :0.80241: L2-Pf-HR :-nan: L2-HR :0.74853: (Sim:2h5m7s) 
CPU  2 inst:   73000005 cyc:   89575495 now IPC :0.73393: AVG IPC :0.80143: L2-Pf-HR :-nan: L2-HR :0.74845: (Sim:2h5m12s) 
CPU  3 inst:   74000002 cyc:   89963870 now IPC :0.77816: AVG IPC :0.80917: L2-Pf-HR :-nan: L2-HR :0.74170: (Sim:2h5m33s) 
CPU  1 inst:   74000002 cyc:   90279468 now IPC :1.01015: AVG IPC :0.80631: L2-Pf-HR :-nan: L2-HR :0.74911: (Sim:2h5m51s) 
CPU  0 inst:   74000002 cyc:   90500670 now IPC :0.96820: AVG IPC :0.80432: L2-Pf-HR :-nan: L2-HR :0.74871: (Sim:2h6m3s) 
CPU  2 inst:   74000002 cyc:   90718364 now IPC :0.87499: AVG IPC :0.80237: L2-Pf-HR :-nan: L2-HR :0.74840: (Sim:2h6m16s) 
CPU  3 inst:   75000003 cyc:   91088161 now IPC :0.88945: AVG IPC :0.81018: L2-Pf-HR :-nan: L2-HR :0.74165: (Sim:2h6m37s) 
CPU  1 inst:   75000003 cyc:   91246666 now IPC :1.03392: AVG IPC :0.80875: L2-Pf-HR :-nan: L2-HR :0.74923: (Sim:2h6m46s) 
CPU  0 inst:   75000003 cyc:   91454407 now IPC :1.04851: AVG IPC :0.80690: L2-Pf-HR :-nan: L2-HR :0.74900: (Sim:2h6m58s) 
CPU  2 inst:   75000003 cyc:   91778035 now IPC :0.94369: AVG IPC :0.80402: L2-Pf-HR :-nan: L2-HR :0.74836: (Sim:2h7m18s) 
CPU  3 inst:   76000000 cyc:   92194032 now IPC :0.90426: AVG IPC :0.81132: L2-Pf-HR :-nan: L2-HR :0.74157: (Sim:2h7m42s) 
CPU  1 inst:   76000000 cyc:   92258937 now IPC :0.98787: AVG IPC :0.81074: L2-Pf-HR :-nan: L2-HR :0.74929: (Sim:2h7m46s) 
CPU  0 inst:   76000000 cyc:   92416784 now IPC :1.03909: AVG IPC :0.80934: L2-Pf-HR :-nan: L2-HR :0.74922: (Sim:2h7m54s) 
CPU  2 inst:   76000000 cyc:   92768470 now IPC :1.00965: AVG IPC :0.80624: L2-Pf-HR :-nan: L2-HR :0.74830: (Sim:2h8m15s) 
CPU  3 inst:   77000000 cyc:   93389943 now IPC :0.83618: AVG IPC :0.81164: L2-Pf-HR :-nan: L2-HR :0.74148: (Sim:2h8m47s) 
CPU  1 inst:   77000000 cyc:   93462454 now IPC :0.83090: AVG IPC :0.81100: L2-Pf-HR :-nan: L2-HR :0.74932: (Sim:2h8m51s) 
CPU  0 inst:   77000000 cyc:   93538612 now IPC :0.89140: AVG IPC :0.81033: L2-Pf-HR :-nan: L2-HR :0.74927: (Sim:2h8m55s) 
CPU  2 inst:   77000000 cyc:   93940060 now IPC :0.85354: AVG IPC :0.80683: L2-Pf-HR :-nan: L2-HR :0.74826: (Sim:2h9m17s) 
CPU  3 inst:   78000003 cyc:   94481267 now IPC :0.91632: AVG IPC :0.81286: L2-Pf-HR :-nan: L2-HR :0.74186: (Sim:2h9m49s) 
CPU  1 inst:   78000003 cyc:   94663263 now IPC :0.83277: AVG IPC :0.81128: L2-Pf-HR :-nan: L2-HR :0.74968: (Sim:2h9m59s) 
CPU  0 inst:   78000003 cyc:   94677461 now IPC :0.87808: AVG IPC :0.81116: L2-Pf-HR :-nan: L2-HR :0.74951: (Sim:2h10m0s) 
CPU  2 inst:   78000003 cyc:   95078650 now IPC :0.87828: AVG IPC :0.80770: L2-Pf-HR :-nan: L2-HR :0.74879: (Sim:2h10m21s) 
CPU  3 inst:   79000000 cyc:   95504255 now IPC :0.97753: AVG IPC :0.81464: L2-Pf-HR :-nan: L2-HR :0.74236: (Sim:2h10m45s) 
CPU  1 inst:   79000000 cyc:   95770261 now IPC :0.90334: AVG IPC :0.81235: L2-Pf-HR :-nan: L2-HR :0.74997: (Sim:2h11m0s) 
CPU  0 inst:   79000000 cyc:   95805513 now IPC :0.88648: AVG IPC :0.81205: L2-Pf-HR :-nan: L2-HR :0.74998: (Sim:2h11m2s) 
CPU  2 inst:   79000000 cyc:   96119965 now IPC :0.96032: AVG IPC :0.80937: L2-Pf-HR :-nan: L2-HR :0.74952: (Sim:2h11m20s) 
CPU  3 inst:   80000005 cyc:   96556673 now IPC :0.95020: AVG IPC :0.81614: L2-Pf-HR :-nan: L2-HR :0.74290: (Sim:2h11m44s) 
CPU  1 inst:   80000005 cyc:   96848266 now IPC :0.92764: AVG IPC :0.81365: L2-Pf-HR :-nan: L2-HR :0.75021: (Sim:2h12m0s) 
CPU  0 inst:   80000005 cyc:   96917504 now IPC :0.89929: AVG IPC :0.81307: L2-Pf-HR :-nan: L2-HR :0.75035: (Sim:2h12m4s) 
CPU  2 inst:   80000005 cyc:   97186206 now IPC :0.93788: AVG IPC :0.81079: L2-Pf-HR :-nan: L2-HR :0.75008: (Sim:2h12m19s) 
CPU  3 inst:   81000005 cyc:   97826307 now IPC :0.78763: AVG IPC :0.81576: L2-Pf-HR :-nan: L2-HR :0.74264: (Sim:2h12m52s) 
CPU  1 inst:   81000005 cyc:   98185218 now IPC :0.74797: AVG IPC :0.81275: L2-Pf-HR :-nan: L2-HR :0.74991: (Sim:2h13m8s) 
CPU  0 inst:   81000005 cyc:   98316641 now IPC :0.71473: AVG IPC :0.81165: L2-Pf-HR :-nan: L2-HR :0.75001: (Sim:2h13m13s) 
CPU  2 inst:   81000005 cyc:   98561950 now IPC :0.72688: AVG IPC :0.80961: L2-Pf-HR :-nan: L2-HR :0.75005: (Sim:2h13m26s) 
CPU  3 inst:   82000000 cyc:   99036754 now IPC :0.82614: AVG IPC :0.81589: L2-Pf-HR :-nan: L2-HR :0.74243: (Sim:2h13m51s) 
CPU  1 inst:   82000000 cyc:   99426616 now IPC :0.80554: AVG IPC :0.81266: L2-Pf-HR :-nan: L2-HR :0.74981: (Sim:2h14m11s) 
CPU  0 inst:   82000000 cyc:   99551357 now IPC :0.80990: AVG IPC :0.81163: L2-Pf-HR :-nan: L2-HR :0.74982: (Sim:2h14m18s) 
CPU  2 inst:   82000000 cyc:   99699068 now IPC :0.87941: AVG IPC :0.81042: L2-Pf-HR :-nan: L2-HR :0.74986: (Sim:2h14m26s) 
CPU  3 inst:   83000001 cyc:  100176348 now IPC :0.87751: AVG IPC :0.81660: L2-Pf-HR :-nan: L2-HR :0.74221: (Sim:2h14m51s) 
CPU  1 inst:   83000001 cyc:  100602654 now IPC :0.85031: AVG IPC :0.81310: L2-Pf-HR :-nan: L2-HR :0.74959: (Sim:2h15m13s) 
CPU  0 inst:   83000001 cyc:  100749210 now IPC :0.83483: AVG IPC :0.81191: L2-Pf-HR :-nan: L2-HR :0.74962: (Sim:2h15m21s) 
CPU  2 inst:   83000001 cyc:  100906065 now IPC :0.82850: AVG IPC :0.81063: L2-Pf-HR :-nan: L2-HR :0.74967: (Sim:2h15m31s) 
CPU  3 inst:   84000005 cyc:  101365444 now IPC :0.84098: AVG IPC :0.81689: L2-Pf-HR :-nan: L2-HR :0.74200: (Sim:2h16m4s) 
CPU  1 inst:   84000005 cyc:  101753837 now IPC :0.86868: AVG IPC :0.81374: L2-Pf-HR :-nan: L2-HR :0.74941: (Sim:2h16m25s) 
CPU  0 inst:   84000005 cyc:  101925363 now IPC :0.85023: AVG IPC :0.81235: L2-Pf-HR :-nan: L2-HR :0.74951: (Sim:2h16m34s) 
CPU  2 inst:   84000005 cyc:  102143514 now IPC :0.80812: AVG IPC :0.81060: L2-Pf-HR :-nan: L2-HR :0.74947: (Sim:2h16m48s) 
CPU  3 inst:   85000002 cyc:  102587864 now IPC :0.81805: AVG IPC :0.81690: L2-Pf-HR :-nan: L2-HR :0.74182: (Sim:2h17m30s) 
CPU  1 inst:   85000002 cyc:  102924498 now IPC :0.85422: AVG IPC :0.81420: L2-Pf-HR :-nan: L2-HR :0.74920: (Sim:2h18m1s) 
CPU  0 inst:   85000002 cyc:  103083540 now IPC :0.86342: AVG IPC :0.81293: L2-Pf-HR :-nan: L2-HR :0.74929: (Sim:2h18m16s) 
CPU  2 inst:   85000001 cyc:  103430618 now IPC :0.77693: AVG IPC :0.81018: L2-Pf-HR :-nan: L2-HR :0.74925: (Sim:2h18m48s) 
CPU  3 inst:   86000001 cyc:  103858566 now IPC :0.78697: AVG IPC :0.81653: L2-Pf-HR :-nan: L2-HR :0.74164: (Sim:2h19m11s) 
CPU  1 inst:   86000001 cyc:  104092501 now IPC :0.85616: AVG IPC :0.81468: L2-Pf-HR :-nan: L2-HR :0.74899: (Sim:2h19m23s) 
CPU  0 inst:   86000001 cyc:  104263687 now IPC :0.84735: AVG IPC :0.81333: L2-Pf-HR :-nan: L2-HR :0.74907: (Sim:2h19m32s) 
CPU  2 inst:   86000001 cyc:  104725394 now IPC :0.77233: AVG IPC :0.80971: L2-Pf-HR :-nan: L2-HR :0.74905: (Sim:2h19m56s) 
CPU  3 inst:   87000000 cyc:  105289789 now IPC :0.69870: AVG IPC :0.81491: L2-Pf-HR :-nan: L2-HR :0.74130: (Sim:2h20m23s) 
CPU  1 inst:   87000000 cyc:  105448218 now IPC :0.73762: AVG IPC :0.81368: L2-Pf-HR :-nan: L2-HR :0.74866: (Sim:2h20m30s) 
CPU  0 inst:   87000000 cyc:  105633900 now IPC :0.72981: AVG IPC :0.81223: L2-Pf-HR :-nan: L2-HR :0.74874: (Sim:2h20m39s) 
CPU  2 inst:   87000000 cyc:  106109807 now IPC :0.72233: AVG IPC :0.80856: L2-Pf-HR :-nan: L2-HR :0.74871: (Sim:2h21m4s) 
CPU  3 inst:   88000005 cyc:  106510478 now IPC :0.81921: AVG IPC :0.81496: L2-Pf-HR :-nan: L2-HR :0.74137: (Sim:2h21m25s) 
CPU  1 inst:   88000005 cyc:  106642697 now IPC :0.83719: AVG IPC :0.81394: L2-Pf-HR :-nan: L2-HR :0.74870: (Sim:2h21m31s) 
CPU  0 inst:   88000002 cyc:  106734813 now IPC :0.90834: AVG IPC :0.81323: L2-Pf-HR :-nan: L2-HR :0.74868: (Sim:2h21m36s) 
CPU  2 inst:   88000002 cyc:  107381625 now IPC :0.78628: AVG IPC :0.80829: L2-Pf-HR :-nan: L2-HR :0.74863: (Sim:2h22m8s) 
CPU  3 inst:   89000002 cyc:  107764453 now IPC :0.79746: AVG IPC :0.81476: L2-Pf-HR :-nan: L2-HR :0.74141: (Sim:2h22m28s) 
CPU  0 inst:   89000002 cyc:  107934867 now IPC :0.83330: AVG IPC :0.81346: L2-Pf-HR :-nan: L2-HR :0.74863: (Sim:2h22m37s) 
CPU  1 inst:   89000002 cyc:  107944864 now IPC :0.76795: AVG IPC :0.81338: L2-Pf-HR :-nan: L2-HR :0.74867: (Sim:2h22m37s) 
CPU  2 inst:   89000005 cyc:  108556322 now IPC :0.85129: AVG IPC :0.80876: L2-Pf-HR :-nan: L2-HR :0.74856: (Sim:2h23m33s) 
CPU  3 inst:   90000004 cyc:  108916436 now IPC :0.86807: AVG IPC :0.81533: L2-Pf-HR :-nan: L2-HR :0.74147: (Sim:2h24m10s) 
CPU  0 inst:   90000004 cyc:  109118321 now IPC :0.84499: AVG IPC :0.81380: L2-Pf-HR :-nan: L2-HR :0.74863: (Sim:2h24m30s) 
CPU  1 inst:   90000004 cyc:  109133869 now IPC :0.84104: AVG IPC :0.81369: L2-Pf-HR :-nan: L2-HR :0.74870: (Sim:2h24m32s) 
CPU  2 inst:   90000004 cyc:  109717344 now IPC :0.86131: AVG IPC :0.80932: L2-Pf-HR :-nan: L2-HR :0.74851: (Sim:2h25m31s) 
CPU  3 inst:   91000004 cyc:  110059740 now IPC :0.87466: AVG IPC :0.81595: L2-Pf-HR :-nan: L2-HR :0.74153: (Sim:2h26m7s) 
CPU  0 inst:   91000004 cyc:  110257911 now IPC :0.87751: AVG IPC :0.81447: L2-Pf-HR :-nan: L2-HR :0.74860: (Sim:2h26m28s) 
CPU  1 inst:   91000004 cyc:  110299465 now IPC :0.85793: AVG IPC :0.81416: L2-Pf-HR :-nan: L2-HR :0.74870: (Sim:2h26m32s) 
CPU  2 inst:   91000004 cyc:  110862527 now IPC :0.87322: AVG IPC :0.80999: L2-Pf-HR :-nan: L2-HR :0.74846: (Sim:2h27m31s) 
CPU  3 inst:   92000004 cyc:  111177911 now IPC :0.89432: AVG IPC :0.81674: L2-Pf-HR :-nan: L2-HR :0.74158: (Sim:2h28m4s) 
CPU  0 inst:   92000004 cyc:  111342486 now IPC :0.92202: AVG IPC :0.81553: L2-Pf-HR :-nan: L2-HR :0.74856: (Sim:2h28m22s) 
CPU  1 inst:   92000004 cyc:  111404811 now IPC :0.90469: AVG IPC :0.81506: L2-Pf-HR :-nan: L2-HR :0.74871: (Sim:2h28m28s) 
CPU  2 inst:   92000004 cyc:  111968224 now IPC :0.90441: AVG IPC :0.81093: L2-Pf-HR :-nan: L2-HR :0.74841: (Sim:2h29m28s) 
CPU  3 inst:   93000004 cyc:  112372986 now IPC :0.83677: AVG IPC :0.81696: L2-Pf-HR :-nan: L2-HR :0.74151: (Sim:2h30m8s) 
CPU  0 inst:   93000005 cyc:  112580021 now IPC :0.80806: AVG IPC :0.81544: L2-Pf-HR :-nan: L2-HR :0.74839: (Sim:2h30m27s) 
CPU  1 inst:   93000005 cyc:  112625517 now IPC :0.81920: AVG IPC :0.81511: L2-Pf-HR :-nan: L2-HR :0.74862: (Sim:2h30m32s) 
CPU  2 inst:   93000002 cyc:  113211889 now IPC :0.80407: AVG IPC :0.81085: L2-Pf-HR :-nan: L2-HR :0.74824: (Sim:2h31m31s) 
CPU  3 inst:   94000001 cyc:  113455114 now IPC :0.92410: AVG IPC :0.81799: L2-Pf-HR :-nan: L2-HR :0.74199: (Sim:2h31m56s) 
CPU  0 inst:   94000001 cyc:  113751289 now IPC :0.85377: AVG IPC :0.81584: L2-Pf-HR :-nan: L2-HR :0.74881: (Sim:2h32m27s) 
CPU  1 inst:   94000001 cyc:  113821215 now IPC :0.83633: AVG IPC :0.81533: L2-Pf-HR :-nan: L2-HR :0.74900: (Sim:2h32m35s) 
CPU  2 inst:   94000001 cyc:  114412252 now IPC :0.83308: AVG IPC :0.81109: L2-Pf-HR :-nan: L2-HR :0.74872: (Sim:2h33m36s) 
CPU  3 inst:   95000002 cyc:  114498709 now IPC :0.95823: AVG IPC :0.81928: L2-Pf-HR :-nan: L2-HR :0.74244: (Sim:2h33m46s) 
CPU  0 inst:   95000002 cyc:  114749013 now IPC :1.00228: AVG IPC :0.81748: L2-Pf-HR :-nan: L2-HR :0.74922: (Sim:2h34m12s) 
CPU  1 inst:   95000002 cyc:  115016594 now IPC :0.83656: AVG IPC :0.81556: L2-Pf-HR :-nan: L2-HR :0.74934: (Sim:2h34m39s) 
CPU  2 inst:   95000002 cyc:  115640453 now IPC :0.81420: AVG IPC :0.81112: L2-Pf-HR :-nan: L2-HR :0.74926: (Sim:2h35m33s) 
CPU  3 inst:   96000003 cyc:  115739483 now IPC :0.80595: AVG IPC :0.81914: L2-Pf-HR :-nan: L2-HR :0.74287: (Sim:2h35m37s) 
CPU  0 inst:   96000003 cyc:  115774412 now IPC :0.97523: AVG IPC :0.81889: L2-Pf-HR :-nan: L2-HR :0.74955: (Sim:2h35m39s) 
CPU  1 inst:   96000003 cyc:  116134735 now IPC :0.89434: AVG IPC :0.81632: L2-Pf-HR :-nan: L2-HR :0.74963: (Sim:2h35m58s) 
CPU  2 inst:   96000003 cyc:  116822259 now IPC :0.84616: AVG IPC :0.81148: L2-Pf-HR :-nan: L2-HR :0.74968: (Sim:2h36m34s) 
CPU  3 inst:   97000002 cyc:  117156175 now IPC :0.70587: AVG IPC :0.81775: L2-Pf-HR :-nan: L2-HR :0.74289: (Sim:2h36m48s) 
CPU  0 inst:   97000002 cyc:  117177551 now IPC :0.71269: AVG IPC :0.81760: L2-Pf-HR :-nan: L2-HR :0.74950: (Sim:2h36m49s) 
CPU  1 inst:   97000002 cyc:  117384814 now IPC :0.79995: AVG IPC :0.81615: L2-Pf-HR :-nan: L2-HR :0.74954: (Sim:2h36m58s) 
CPU  2 inst:   97000002 cyc:  118538031 now IPC :0.58283: AVG IPC :0.80814: L2-Pf-HR :-nan: L2-HR :0.74979: (Sim:2h37m46s) 
CPU  3 inst:   98000003 cyc:  118808696 now IPC :0.60514: AVG IPC :0.81477: L2-Pf-HR :-nan: L2-HR :0.74283: (Sim:2h37m57s) 
CPU  0 inst:   98000003 cyc:  118915071 now IPC :0.57553: AVG IPC :0.81404: L2-Pf-HR :-nan: L2-HR :0.74943: (Sim:2h38m2s) 
CPU  1 inst:   98000003 cyc:  118985241 now IPC :0.62483: AVG IPC :0.81355: L2-Pf-HR :-nan: L2-HR :0.74933: (Sim:2h38m5s) 
CPU  3 inst:   99000001 cyc:  120004024 now IPC :0.83659: AVG IPC :0.81499: L2-Pf-HR :-nan: L2-HR :0.74279: (Sim:2h38m51s) 
CPU  2 inst:   98000003 cyc:  120171014 now IPC :0.61238: AVG IPC :0.80546: L2-Pf-HR :-nan: L2-HR :0.74960: (Sim:2h38m58s) 
CPU  0 inst:   99000001 cyc:  120514120 now IPC :0.62537: AVG IPC :0.81151: L2-Pf-HR :-nan: L2-HR :0.74937: (Sim:2h39m14s) 
CPU  1 inst:   99000001 cyc:  120645392 now IPC :0.60235: AVG IPC :0.81062: L2-Pf-HR :-nan: L2-HR :0.74913: (Sim:2h39m20s) 
CPU  3 inst:  100000002 cyc:  121200984 now IPC :0.83545: AVG IPC :0.81519: L2-Pf-HR :-nan: L2-HR :0.74272: (Sim:2h39m46s) 
CPU  2 inst:   99000001 cyc:  121721599 now IPC :0.64492: AVG IPC :0.80340: L2-Pf-HR :-nan: L2-HR :0.74942: (Sim:2h40m10s) 
CPU  0 inst:  100000004 cyc:  121835886 now IPC :0.75657: AVG IPC :0.81091: L2-Pf-HR :-nan: L2-HR :0.74929: (Sim:2h40m15s) 
CPU  1 inst:  100000004 cyc:  122217961 now IPC :0.63590: AVG IPC :0.80835: L2-Pf-HR :-nan: L2-HR :0.74894: (Sim:2h40m33s) 
CPU  3 inst:  101000000 cyc:  122666820 now IPC :0.68220: AVG IPC :0.81359: L2-Pf-HR :-nan: L2-HR :0.74266: (Sim:2h40m53s) 
CPU  0 inst:  101000000 cyc:  123004604 now IPC :0.85563: AVG IPC :0.81134: L2-Pf-HR :-nan: L2-HR :0.74923: (Sim:2h41m10s) 
CPU  2 inst:  100000004 cyc:  123160919 now IPC :0.69477: AVG IPC :0.80212: L2-Pf-HR :-nan: L2-HR :0.74926: (Sim:2h41m17s) 
CPU  1 inst:  101000000 cyc:  123726708 now IPC :0.66280: AVG IPC :0.80657: L2-Pf-HR :-nan: L2-HR :0.74876: (Sim:2h41m45s) 
CPU  3 inst:  102000001 cyc:  124087009 now IPC :0.70413: AVG IPC :0.81233: L2-Pf-HR :-nan: L2-HR :0.74257: (Sim:2h42m2s) 
CPU  0 inst:  102000003 cyc:  124257950 now IPC :0.79787: AVG IPC :0.81120: L2-Pf-HR :-nan: L2-HR :0.74913: (Sim:2h42m10s) 
CPU  2 inst:  101000000 cyc:  124343798 now IPC :0.84539: AVG IPC :0.80253: L2-Pf-HR :-nan: L2-HR :0.74909: (Sim:2h42m14s) 
CPU  1 inst:  102000000 cyc:  125281603 now IPC :0.64313: AVG IPC :0.80452: L2-Pf-HR :-nan: L2-HR :0.74857: (Sim:2h42m57s) 
CPU  2 inst:  102000003 cyc:  125524316 now IPC :0.84709: AVG IPC :0.80295: L2-Pf-HR :-nan: L2-HR :0.74891: (Sim:2h43m9s) 
CPU  3 inst:  103000000 cyc:  125536834 now IPC :0.68974: AVG IPC :0.81090: L2-Pf-HR :-nan: L2-HR :0.74256: (Sim:2h43m10s) 
CPU  0 inst:  103000000 cyc:  125760799 now IPC :0.66540: AVG IPC :0.80945: L2-Pf-HR :-nan: L2-HR :0.74911: (Sim:2h43m19s) 
CPU  1 inst:  103000000 cyc:  126638551 now IPC :0.73695: AVG IPC :0.80379: L2-Pf-HR :-nan: L2-HR :0.74846: (Sim:2h44m0s) 
CPU  2 inst:  103000000 cyc:  126961201 now IPC :0.69595: AVG IPC :0.80173: L2-Pf-HR :-nan: L2-HR :0.74882: (Sim:2h44m14s) 
CPU  3 inst:  104000001 cyc:  127016402 now IPC :0.67587: AVG IPC :0.80932: L2-Pf-HR :-nan: L2-HR :0.74230: (Sim:2h44m17s) 
CPU  0 inst:  104000001 cyc:  127232224 now IPC :0.67961: AVG IPC :0.80793: L2-Pf-HR :-nan: L2-HR :0.74884: (Sim:2h44m26s) 
CPU  1 inst:  104000001 cyc:  128050612 now IPC :0.70819: AVG IPC :0.80273: L2-Pf-HR :-nan: L2-HR :0.74820: (Sim:2h45m9s) 
CPU  3 inst:  105000000 cyc:  128114682 now IPC :0.91051: AVG IPC :0.81019: L2-Pf-HR :-nan: L2-HR :0.74225: (Sim:2h45m12s) 
CPU  2 inst:  104000001 cyc:  128222973 now IPC :0.79254: AVG IPC :0.80164: L2-Pf-HR :-nan: L2-HR :0.74855: (Sim:2h45m17s) 
CPU  0 inst:  105000000 cyc:  128383640 now IPC :0.86849: AVG IPC :0.80848: L2-Pf-HR :-nan: L2-HR :0.74877: (Sim:2h45m26s) 
CPU  3 inst:  106000002 cyc:  129135750 now IPC :0.97937: AVG IPC :0.81154: L2-Pf-HR :-nan: L2-HR :0.74220: (Sim:2h46m4s) 
CPU  1 inst:  105000000 cyc:  129291975 now IPC :0.80557: AVG IPC :0.80276: L2-Pf-HR :-nan: L2-HR :0.74813: (Sim:2h46m12s) 
CPU  2 inst:  105000000 cyc:  129371889 now IPC :0.87038: AVG IPC :0.80226: L2-Pf-HR :-nan: L2-HR :0.74850: (Sim:2h46m17s) 
CPU  0 inst:  106000002 cyc:  129662776 now IPC :0.78178: AVG IPC :0.80822: L2-Pf-HR :-nan: L2-HR :0.74873: (Sim:2h46m31s) 
CPU  3 inst:  107000002 cyc:  130174616 now IPC :0.96259: AVG IPC :0.81275: L2-Pf-HR :-nan: L2-HR :0.74217: (Sim:2h46m55s) 
CPU  1 inst:  106000002 cyc:  130688384 now IPC :0.71612: AVG IPC :0.80182: L2-Pf-HR :-nan: L2-HR :0.74808: (Sim:2h47m19s) 
CPU  2 inst:  106000002 cyc:  130734597 now IPC :0.73383: AVG IPC :0.80154: L2-Pf-HR :-nan: L2-HR :0.74846: (Sim:2h47m21s) 
CPU  0 inst:  107000002 cyc:  131080544 now IPC :0.70533: AVG IPC :0.80709: L2-Pf-HR :-nan: L2-HR :0.74868: (Sim:2h47m36s) 
CPU  3 inst:  108000002 cyc:  131591663 now IPC :0.70569: AVG IPC :0.81159: L2-Pf-HR :-nan: L2-HR :0.74212: (Sim:2h47m58s) 
CPU  1 inst:  107000002 cyc:  132281325 now IPC :0.62777: AVG IPC :0.79971: L2-Pf-HR :-nan: L2-HR :0.74803: (Sim:2h48m29s) 
CPU  2 inst:  107000002 cyc:  132292163 now IPC :0.64203: AVG IPC :0.79965: L2-Pf-HR :-nan: L2-HR :0.74843: (Sim:2h48m29s) 
CPU  0 inst:  108000002 cyc:  132552675 now IPC :0.67929: AVG IPC :0.80566: L2-Pf-HR :-nan: L2-HR :0.74862: (Sim:2h48m40s) 
CPU  3 inst:  109000000 cyc:  133082838 now IPC :0.67061: AVG IPC :0.81000: L2-Pf-HR :-nan: L2-HR :0.74212: (Sim:2h49m4s) 
CPU  0 inst:  109000005 cyc:  133602150 now IPC :0.95286: AVG IPC :0.80683: L2-Pf-HR :-nan: L2-HR :0.74862: (Sim:2h49m29s) 
CPU  2 inst:  108000002 cyc:  133813607 now IPC :0.65727: AVG IPC :0.79802: L2-Pf-HR :-nan: L2-HR :0.74838: (Sim:2h49m38s) 
CPU  1 inst:  108000002 cyc:  133829892 now IPC :0.64576: AVG IPC :0.79792: L2-Pf-HR :-nan: L2-HR :0.74797: (Sim:2h49m39s) 
CPU  3 inst:  110000001 cyc:  134380914 now IPC :0.77037: AVG IPC :0.80962: L2-Pf-HR :-nan: L2-HR :0.74231: (Sim:2h50m8s) 
CPU  0 inst:  110000001 cyc:  134899694 now IPC :0.77068: AVG IPC :0.80648: L2-Pf-HR :-nan: L2-HR :0.74883: (Sim:2h50m31s) 
CPU  2 inst:  109000000 cyc:  135136022 now IPC :0.75619: AVG IPC :0.79760: L2-Pf-HR :-nan: L2-HR :0.74840: (Sim:2h50m42s) 
CPU  1 inst:  109000003 cyc:  135162764 now IPC :0.75026: AVG IPC :0.79744: L2-Pf-HR :-nan: L2-HR :0.74797: (Sim:2h50m44s) 
CPU  3 inst:  111000004 cyc:  135586935 now IPC :0.82918: AVG IPC :0.80979: L2-Pf-HR :-nan: L2-HR :0.74265: (Sim:2h51m5s) 
CPU  0 inst:  111000003 cyc:  135928903 now IPC :0.97162: AVG IPC :0.80774: L2-Pf-HR :-nan: L2-HR :0.74920: (Sim:2h51m24s) 
CPU  2 inst:  110000001 cyc:  136286354 now IPC :0.86932: AVG IPC :0.79821: L2-Pf-HR :-nan: L2-HR :0.74831: (Sim:2h51m44s) 
CPU  1 inst:  110000000 cyc:  136349878 now IPC :0.84238: AVG IPC :0.79784: L2-Pf-HR :-nan: L2-HR :0.74777: (Sim:2h51m47s) 
CPU  3 inst:  112000000 cyc:  136557356 now IPC :1.03048: AVG IPC :0.81137: L2-Pf-HR :-nan: L2-HR :0.74308: (Sim:2h51m59s) 
CPU  0 inst:  112000000 cyc:  136947233 now IPC :0.98200: AVG IPC :0.80904: L2-Pf-HR :-nan: L2-HR :0.74961: (Sim:2h52m21s) 
CPU  2 inst:  111000001 cyc:  137243832 now IPC :1.04441: AVG IPC :0.79994: L2-Pf-HR :-nan: L2-HR :0.74840: (Sim:2h52m37s) 
CPU  1 inst:  111000004 cyc:  137403138 now IPC :0.94944: AVG IPC :0.79901: L2-Pf-HR :-nan: L2-HR :0.74773: (Sim:2h52m46s) 
CPU  3 inst:  113000005 cyc:  137575222 now IPC :0.98245: AVG IPC :0.81265: L2-Pf-HR :-nan: L2-HR :0.74346: (Sim:2h52m55s) 
CPU  0 inst:  113000005 cyc:  138038595 now IPC :0.91629: AVG IPC :0.80990: L2-Pf-HR :-nan: L2-HR :0.75001: (Sim:2h53m19s) 
CPU  2 inst:  112000000 cyc:  138286260 now IPC :0.95930: AVG IPC :0.80115: L2-Pf-HR :-nan: L2-HR :0.74852: (Sim:2h53m31s) 
CPU  1 inst:  112000000 cyc:  138535055 now IPC :0.88345: AVG IPC :0.79970: L2-Pf-HR :-nan: L2-HR :0.74775: (Sim:2h53m43s) 
CPU  3 inst:  114000002 cyc:  138860253 now IPC :0.77819: AVG IPC :0.81232: L2-Pf-HR :-nan: L2-HR :0.74296: (Sim:2h54m1s) 
CPU  0 inst:  114000002 cyc:  139326376 now IPC :0.77653: AVG IPC :0.80959: L2-Pf-HR :-nan: L2-HR :0.74952: (Sim:2h54m25s) 
CPU  2 inst:  113000005 cyc:  139328688 now IPC :0.95930: AVG IPC :0.80235: L2-Pf-HR :-nan: L2-HR :0.74857: (Sim:2h54m25s) 
CPU  1 inst:  113000005 cyc:  139667767 now IPC :0.88284: AVG IPC :0.80038: L2-Pf-HR :-nan: L2-HR :0.74781: (Sim:2h54m41s) 
CPU  3 inst:  115000003 cyc:  140106873 now IPC :0.80217: AVG IPC :0.81223: L2-Pf-HR :-nan: L2-HR :0.74281: (Sim:2h55m1s) 
CPU  0 inst:  115000003 cyc:  140539005 now IPC :0.82466: AVG IPC :0.80972: L2-Pf-HR :-nan: L2-HR :0.74935: (Sim:2h55m23s) 
CPU  2 inst:  114000005 cyc:  140799539 now IPC :0.67988: AVG IPC :0.80106: L2-Pf-HR :-nan: L2-HR :0.74824: (Sim:2h55m35s) 
CPU  1 inst:  114000002 cyc:  141009798 now IPC :0.74514: AVG IPC :0.79985: L2-Pf-HR :-nan: L2-HR :0.74744: (Sim:2h55m46s) 
CPU  3 inst:  116000002 cyc:  141399683 now IPC :0.77351: AVG IPC :0.81188: L2-Pf-HR :-nan: L2-HR :0.74265: (Sim:2h56m5s) 
CPU  0 inst:  116000002 cyc:  141772616 now IPC :0.81063: AVG IPC :0.80973: L2-Pf-HR :-nan: L2-HR :0.74919: (Sim:2h56m23s) 
CPU  2 inst:  115000003 cyc:  142113071 now IPC :0.76130: AVG IPC :0.80069: L2-Pf-HR :-nan: L2-HR :0.74810: (Sim:2h56m39s) 
CPU  1 inst:  115000003 cyc:  142295792 now IPC :0.77761: AVG IPC :0.79965: L2-Pf-HR :-nan: L2-HR :0.74734: (Sim:2h56m48s) 
CPU  3 inst:  117000003 cyc:  142753535 now IPC :0.73863: AVG IPC :0.81118: L2-Pf-HR :-nan: L2-HR :0.74251: (Sim:2h57m10s) 
CPU  0 inst:  117000003 cyc:  143025947 now IPC :0.79787: AVG IPC :0.80962: L2-Pf-HR :-nan: L2-HR :0.74904: (Sim:2h57m23s) 
CPU  2 inst:  116000002 cyc:  143424356 now IPC :0.76261: AVG IPC :0.80034: L2-Pf-HR :-nan: L2-HR :0.74801: (Sim:2h57m42s) 
CPU  1 inst:  116000002 cyc:  143609670 now IPC :0.76110: AVG IPC :0.79929: L2-Pf-HR :-nan: L2-HR :0.74725: (Sim:2h57m51s) 
CPU  3 inst:  118000001 cyc:  144117484 now IPC :0.73316: AVG IPC :0.81043: L2-Pf-HR :-nan: L2-HR :0.74236: (Sim:2h58m15s) 
CPU  0 inst:  118000001 cyc:  144322905 now IPC :0.77103: AVG IPC :0.80927: L2-Pf-HR :-nan: L2-HR :0.74888: (Sim:2h58m25s) 
CPU  2 inst:  117000003 cyc:  144718840 now IPC :0.77251: AVG IPC :0.80009: L2-Pf-HR :-nan: L2-HR :0.74789: (Sim:2h58m44s) 
CPU  1 inst:  117000003 cyc:  144944477 now IPC :0.74917: AVG IPC :0.79883: L2-Pf-HR :-nan: L2-HR :0.74714: (Sim:2h58m55s) 
CPU  3 inst:  119000005 cyc:  145468424 now IPC :0.74023: AVG IPC :0.80978: L2-Pf-HR :-nan: L2-HR :0.74221: (Sim:2h59m20s) 
CPU  0 inst:  119000005 cyc:  145642351 now IPC :0.75790: AVG IPC :0.80880: L2-Pf-HR :-nan: L2-HR :0.74873: (Sim:2h59m29s) 
CPU  2 inst:  118000001 cyc:  146000216 now IPC :0.78041: AVG IPC :0.79991: L2-Pf-HR :-nan: L2-HR :0.74774: (Sim:2h59m44s) 
CPU  1 inst:  118000001 cyc:  146386557 now IPC :0.69344: AVG IPC :0.79778: L2-Pf-HR :-nan: L2-HR :0.74702: (Sim:3h0m2s) 
CPU  3 inst:  120000002 cyc:  147042351 now IPC :0.63535: AVG IPC :0.80790: L2-Pf-HR :-nan: L2-HR :0.74214: (Sim:3h0m33s) 
CPU  0 inst:  120000002 cyc:  147118747 now IPC :0.67732: AVG IPC :0.80748: L2-Pf-HR :-nan: L2-HR :0.74865: (Sim:3h0m37s) 
CPU  2 inst:  119000005 cyc:  147132144 now IPC :0.88345: AVG IPC :0.80056: L2-Pf-HR :-nan: L2-HR :0.74760: (Sim:3h0m38s) 
CPU  1 inst:  119000005 cyc:  147767603 now IPC :0.72409: AVG IPC :0.79709: L2-Pf-HR :-nan: L2-HR :0.74688: (Sim:3h1m6s) 
CPU  2 inst:  120000002 cyc:  148445277 now IPC :0.76154: AVG IPC :0.80021: L2-Pf-HR :-nan: L2-HR :0.74743: (Sim:3h1m37s) 
CPU  3 inst:  121000002 cyc:  148518240 now IPC :0.67756: AVG IPC :0.80659: L2-Pf-HR :-nan: L2-HR :0.74218: (Sim:3h1m40s) 
CPU  0 inst:  121000002 cyc:  148593947 now IPC :0.67787: AVG IPC :0.80618: L2-Pf-HR :-nan: L2-HR :0.74873: (Sim:3h1m44s) 
CPU  1 inst:  120000002 cyc:  149364585 now IPC :0.62618: AVG IPC :0.79525: L2-Pf-HR :-nan: L2-HR :0.74671: (Sim:3h2m21s) 
CPU  3 inst:  122000000 cyc:  149544048 now IPC :0.97484: AVG IPC :0.80776: L2-Pf-HR :-nan: L2-HR :0.74231: (Sim:3h2m31s) 
CPU  2 inst:  121000002 cyc:  149730598 now IPC :0.77802: AVG IPC :0.80002: L2-Pf-HR :-nan: L2-HR :0.74738: (Sim:3h2m40s) 
CPU  0 inst:  122000002 cyc:  149832747 now IPC :0.80723: AVG IPC :0.80619: L2-Pf-HR :-nan: L2-HR :0.74886: (Sim:3h2m46s) 
CPU  3 inst:  123000000 cyc:  150552462 now IPC :0.99166: AVG IPC :0.80900: L2-Pf-HR :-nan: L2-HR :0.74242: (Sim:3h3m24s) 
CPU  1 inst:  121000002 cyc:  150576157 now IPC :0.82537: AVG IPC :0.79550: L2-Pf-HR :-nan: L2-HR :0.74667: (Sim:3h3m25s) 
CPU  2 inst:  122000003 cyc:  150847025 now IPC :0.89572: AVG IPC :0.80073: L2-Pf-HR :-nan: L2-HR :0.74736: (Sim:3h3m40s) 
CPU  0 inst:  123000000 cyc:  150862803 now IPC :0.97082: AVG IPC :0.80732: L2-Pf-HR :-nan: L2-HR :0.74893: (Sim:3h3m41s) 
CPU  3 inst:  124000000 cyc:  151576033 now IPC :0.97697: AVG IPC :0.81014: L2-Pf-HR :-nan: L2-HR :0.74253: (Sim:3h4m19s) 
CPU  1 inst:  122000002 cyc:  151673013 now IPC :0.91170: AVG IPC :0.79634: L2-Pf-HR :-nan: L2-HR :0.74664: (Sim:3h4m25s) 
CPU  0 inst:  124000000 cyc:  151845901 now IPC :1.01719: AVG IPC :0.80869: L2-Pf-HR :-nan: L2-HR :0.74903: (Sim:3h4m34s) 
CPU  2 inst:  123000000 cyc:  151898356 now IPC :0.95117: AVG IPC :0.80178: L2-Pf-HR :-nan: L2-HR :0.74734: (Sim:3h4m37s) 
CPU  3 inst:  125000000 cyc:  152625911 now IPC :0.95249: AVG IPC :0.81112: L2-Pf-HR :-nan: L2-HR :0.74264: (Sim:3h5m16s) 
CPU  0 inst:  125000000 cyc:  152799642 now IPC :1.04850: AVG IPC :0.81019: L2-Pf-HR :-nan: L2-HR :0.74912: (Sim:3h5m25s) 
CPU  1 inst:  123000000 cyc:  152820988 now IPC :0.87110: AVG IPC :0.79691: L2-Pf-HR :-nan: L2-HR :0.74662: (Sim:3h5m26s) 
CPU  2 inst:  124000000 cyc:  152960040 now IPC :0.94190: AVG IPC :0.80276: L2-Pf-HR :-nan: L2-HR :0.74731: (Sim:3h5m33s) 
CPU  3 inst:  126000005 cyc:  153852985 now IPC :0.81495: AVG IPC :0.81115: L2-Pf-HR :-nan: L2-HR :0.74279: (Sim:3h6m18s) 
CPU  0 inst:  126000005 cyc:  153984808 now IPC :0.84377: AVG IPC :0.81045: L2-Pf-HR :-nan: L2-HR :0.74932: (Sim:3h6m25s) 
CPU  1 inst:  124000000 cyc:  153997096 now IPC :0.85026: AVG IPC :0.79732: L2-Pf-HR :-nan: L2-HR :0.74659: (Sim:3h6m26s) 
CPU  2 inst:  125000000 cyc:  154036189 now IPC :0.92924: AVG IPC :0.80365: L2-Pf-HR :-nan: L2-HR :0.74728: (Sim:3h6m28s) 
CPU  3 inst:  127000002 cyc:  154911180 now IPC :0.94500: AVG IPC :0.81207: L2-Pf-HR :-nan: L2-HR :0.74311: (Sim:3h7m14s) 
CPU  0 inst:  127000003 cyc:  155038658 now IPC :0.94890: AVG IPC :0.81140: L2-Pf-HR :-nan: L2-HR :0.74968: (Sim:3h7m21s) 
CPU  1 inst:  125000000 cyc:  155093760 now IPC :0.91186: AVG IPC :0.79813: L2-Pf-HR :-nan: L2-HR :0.74656: (Sim:3h7m24s) 
CPU  2 inst:  126000005 cyc:  155160782 now IPC :0.88922: AVG IPC :0.80427: L2-Pf-HR :-nan: L2-HR :0.74745: (Sim:3h7m27s) 
CPU  3 inst:  128000000 cyc:  155939658 now IPC :0.97231: AVG IPC :0.81314: L2-Pf-HR :-nan: L2-HR :0.74345: (Sim:3h8m8s) 
CPU  0 inst:  128000004 cyc:  156062217 now IPC :0.97698: AVG IPC :0.81249: L2-Pf-HR :-nan: L2-HR :0.75004: (Sim:3h8m15s) 
CPU  2 inst:  127000005 cyc:  156266947 now IPC :0.90402: AVG IPC :0.80498: L2-Pf-HR :-nan: L2-HR :0.74781: (Sim:3h8m26s) 
CPU  1 inst:  126000005 cyc:  156269030 now IPC :0.85087: AVG IPC :0.79853: L2-Pf-HR :-nan: L2-HR :0.74676: (Sim:3h8m26s) 
CPU  3 inst:  129000000 cyc:  156945409 now IPC :0.99428: AVG IPC :0.81431: L2-Pf-HR :-nan: L2-HR :0.74372: (Sim:3h9m3s) 
CPU  0 inst:  129000003 cyc:  157053864 now IPC :1.00842: AVG IPC :0.81374: L2-Pf-HR :-nan: L2-HR :0.75037: (Sim:3h9m9s) 
CPU  1 inst:  127000002 cyc:  157430968 now IPC :0.86063: AVG IPC :0.79899: L2-Pf-HR :-nan: L2-HR :0.74711: (Sim:3h9m26s) 
CPU  2 inst:  128000003 cyc:  157453902 now IPC :0.84249: AVG IPC :0.80527: L2-Pf-HR :-nan: L2-HR :0.74818: (Sim:3h9m27s) 
CPU  3 inst:  130000000 cyc:  158209389 now IPC :0.79115: AVG IPC :0.81412: L2-Pf-HR :-nan: L2-HR :0.74339: (Sim:3h10m3s) 
CPU  0 inst:  130000000 cyc:  158464902 now IPC :0.70870: AVG IPC :0.81280: L2-Pf-HR :-nan: L2-HR :0.75003: (Sim:3h10m15s) 
CPU  1 inst:  128000005 cyc:  158716147 now IPC :0.77810: AVG IPC :0.79882: L2-Pf-HR :-nan: L2-HR :0.74747: (Sim:3h10m27s) 
CPU  2 inst:  129000001 cyc:  158751939 now IPC :0.77039: AVG IPC :0.80498: L2-Pf-HR :-nan: L2-HR :0.74849: (Sim:3h10m29s) 
CPU  3 inst:  131000002 cyc:  159533455 now IPC :0.75525: AVG IPC :0.81363: L2-Pf-HR :-nan: L2-HR :0.74327: (Sim:3h11m7s) 
CPU  0 inst:  131000003 cyc:  159706017 now IPC :0.80573: AVG IPC :0.81274: L2-Pf-HR :-nan: L2-HR :0.74992: (Sim:3h11m15s) 
CPU  1 inst:  129000003 cyc:  159926614 now IPC :0.82613: AVG IPC :0.79903: L2-Pf-HR :-nan: L2-HR :0.74776: (Sim:3h11m24s) 
CPU  2 inst:  130000000 cyc:  160312457 now IPC :0.64081: AVG IPC :0.80337: L2-Pf-HR :-nan: L2-HR :0.74821: (Sim:3h11m40s) 
CPU  3 inst:  132000005 cyc:  161102542 now IPC :0.63732: AVG IPC :0.81190: L2-Pf-HR :-nan: L2-HR :0.74315: (Sim:3h12m13s) 
CPU  0 inst:  132000005 cyc:  161296033 now IPC :0.62893: AVG IPC :0.81092: L2-Pf-HR :-nan: L2-HR :0.74982: (Sim:3h12m22s) 
CPU  1 inst:  130000000 cyc:  161697872 now IPC :0.56457: AVG IPC :0.79645: L2-Pf-HR :-nan: L2-HR :0.74752: (Sim:3h12m40s) 
CPU  2 inst:  131000003 cyc:  161830167 now IPC :0.65889: AVG IPC :0.80201: L2-Pf-HR :-nan: L2-HR :0.74809: (Sim:3h12m46s) 
CPU  3 inst:  133000000 cyc:  162420337 now IPC :0.75884: AVG IPC :0.81147: L2-Pf-HR :-nan: L2-HR :0.74304: (Sim:3h13m13s) 
CPU  0 inst:  133000000 cyc:  162792815 now IPC :0.66810: AVG IPC :0.80960: L2-Pf-HR :-nan: L2-HR :0.74974: (Sim:3h13m30s) 
CPU  1 inst:  131000002 cyc:  163145973 now IPC :0.69056: AVG IPC :0.79550: L2-Pf-HR :-nan: L2-HR :0.74739: (Sim:3h13m47s) 
CPU  2 inst:  132000005 cyc:  163270808 now IPC :0.69414: AVG IPC :0.80105: L2-Pf-HR :-nan: L2-HR :0.74798: (Sim:3h13m53s) 
CPU  3 inst:  134000004 cyc:  163612839 now IPC :0.83858: AVG IPC :0.81167: L2-Pf-HR :-nan: L2-HR :0.74292: (Sim:3h14m9s) 
CPU  0 inst:  134000004 cyc:  164186366 now IPC :0.71759: AVG IPC :0.80881: L2-Pf-HR :-nan: L2-HR :0.74964: (Sim:3h14m37s) 
CPU  2 inst:  133000000 cyc:  164452804 now IPC :0.84602: AVG IPC :0.80138: L2-Pf-HR :-nan: L2-HR :0.74787: (Sim:3h14m51s) 
CPU  1 inst:  132000005 cyc:  164491444 now IPC :0.74324: AVG IPC :0.79507: L2-Pf-HR :-nan: L2-HR :0.74726: (Sim:3h14m53s) 
CPU  3 inst:  135000002 cyc:  164776353 now IPC :0.85946: AVG IPC :0.81201: L2-Pf-HR :-nan: L2-HR :0.74279: (Sim:3h15m7s) 
CPU  0 inst:  135000002 cyc:  165572858 now IPC :0.72124: AVG IPC :0.80808: L2-Pf-HR :-nan: L2-HR :0.74954: (Sim:3h15m44s) 
CPU  2 inst:  134000004 cyc:  165667635 now IPC :0.82316: AVG IPC :0.80154: L2-Pf-HR :-nan: L2-HR :0.74774: (Sim:3h15m49s) 
CPU  1 inst:  133000000 cyc:  165779394 now IPC :0.77642: AVG IPC :0.79492: L2-Pf-HR :-nan: L2-HR :0.74715: (Sim:3h15m55s) 
CPU  3 inst:  136000000 cyc:  166188323 now IPC :0.70823: AVG IPC :0.81112: L2-Pf-HR :-nan: L2-HR :0.74262: (Sim:3h16m13s) 
CPU  0 inst:  136000000 cyc:  166868840 now IPC :0.77161: AVG IPC :0.80779: L2-Pf-HR :-nan: L2-HR :0.74937: (Sim:3h16m48s) 
CPU  1 inst:  134000004 cyc:  166934109 now IPC :0.86602: AVG IPC :0.79542: L2-Pf-HR :-nan: L2-HR :0.74701: (Sim:3h16m52s) 
CPU  2 inst:  135000002 cyc:  166938558 now IPC :0.78683: AVG IPC :0.80143: L2-Pf-HR :-nan: L2-HR :0.74762: (Sim:3h16m52s) 
CPU  3 inst:  137000000 cyc:  167342344 now IPC :0.86654: AVG IPC :0.81150: L2-Pf-HR :-nan: L2-HR :0.74258: (Sim:3h17m13s) 
CPU  0 inst:  137000000 cyc:  167957019 now IPC :0.91897: AVG IPC :0.80851: L2-Pf-HR :-nan: L2-HR :0.74931: (Sim:3h17m43s) 
CPU  1 inst:  135000002 cyc:  168153955 now IPC :0.81977: AVG IPC :0.79560: L2-Pf-HR :-nan: L2-HR :0.74688: (Sim:3h17m53s) 
CPU  2 inst:  136000000 cyc:  168293085 now IPC :0.73826: AVG IPC :0.80091: L2-Pf-HR :-nan: L2-HR :0.74745: (Sim:3h18m0s) 
CPU  3 inst:  138000004 cyc:  168426478 now IPC :0.92240: AVG IPC :0.81222: L2-Pf-HR :-nan: L2-HR :0.74253: (Sim:3h18m7s) 
CPU  0 inst:  138000004 cyc:  169240499 now IPC :0.77913: AVG IPC :0.80829: L2-Pf-HR :-nan: L2-HR :0.74927: (Sim:3h18m45s) 
CPU  2 inst:  137000000 cyc:  169347398 now IPC :0.94848: AVG IPC :0.80184: L2-Pf-HR :-nan: L2-HR :0.74740: (Sim:3h18m51s) 
CPU  1 inst:  136000000 cyc:  169650898 now IPC :0.66803: AVG IPC :0.79447: L2-Pf-HR :-nan: L2-HR :0.74672: (Sim:3h19m6s) 
CPU  3 inst:  139000003 cyc:  169723431 now IPC :0.77104: AVG IPC :0.81190: L2-Pf-HR :-nan: L2-HR :0.74251: (Sim:3h19m9s) 
CPU  0 inst:  139000000 cyc:  170281204 now IPC :0.96088: AVG IPC :0.80923: L2-Pf-HR :-nan: L2-HR :0.74924: (Sim:3h19m38s) 
CPU  2 inst:  138000004 cyc:  170470101 now IPC :0.89071: AVG IPC :0.80243: L2-Pf-HR :-nan: L2-HR :0.74738: (Sim:3h19m47s) 
CPU  1 inst:  137000000 cyc:  170923372 now IPC :0.78587: AVG IPC :0.79440: L2-Pf-HR :-nan: L2-HR :0.74668: (Sim:3h20m10s) 
CPU  3 inst:  140000001 cyc:  171024419 now IPC :0.76865: AVG IPC :0.81157: L2-Pf-HR :-nan: L2-HR :0.74246: (Sim:3h20m15s) 
CPU  0 inst:  140000003 cyc:  171258197 now IPC :1.02355: AVG IPC :0.81046: L2-Pf-HR :-nan: L2-HR :0.74920: (Sim:3h20m26s) 
CPU  2 inst:  139000005 cyc:  171755767 now IPC :0.77781: AVG IPC :0.80224: L2-Pf-HR :-nan: L2-HR :0.74736: (Sim:3h20m50s) 
CPU  1 inst:  138000004 cyc:  172221099 now IPC :0.77058: AVG IPC :0.79422: L2-Pf-HR :-nan: L2-HR :0.74665: (Sim:3h21m11s) 
CPU  3 inst:  141000004 cyc:  172412157 now IPC :0.72060: AVG IPC :0.81084: L2-Pf-HR :-nan: L2-HR :0.74242: (Sim:3h21m20s) 
CPU  0 inst:  141000004 cyc:  172479196 now IPC :0.81900: AVG IPC :0.81052: L2-Pf-HR :-nan: L2-HR :0.74916: (Sim:3h21m23s) 
CPU  2 inst:  140000003 cyc:  173162657 now IPC :0.71079: AVG IPC :0.80149: L2-Pf-HR :-nan: L2-HR :0.74733: (Sim:3h21m55s) 
CPU  1 inst:  139000000 cyc:  173228712 now IPC :0.99244: AVG IPC :0.79538: L2-Pf-HR :-nan: L2-HR :0.74663: (Sim:3h21m58s) 
CPU  3 inst:  142000003 cyc:  173878279 now IPC :0.68207: AVG IPC :0.80974: L2-Pf-HR :-nan: L2-HR :0.74231: (Sim:3h22m31s) 
CPU  0 inst:  142000003 cyc:  173906148 now IPC :0.70079: AVG IPC :0.80961: L2-Pf-HR :-nan: L2-HR :0.74902: (Sim:3h22m33s) 
CPU  1 inst:  140000003 cyc:  174213332 now IPC :1.01562: AVG IPC :0.79663: L2-Pf-HR :-nan: L2-HR :0.74660: (Sim:3h22m50s) 
CPU  2 inst:  141000004 cyc:  174257630 now IPC :0.91327: AVG IPC :0.80220: L2-Pf-HR :-nan: L2-HR :0.74731: (Sim:3h22m52s) 
CPU  3 inst:  143000000 cyc:  175095908 now IPC :0.82127: AVG IPC :0.80983: L2-Pf-HR :-nan: L2-HR :0.74229: (Sim:3h23m33s) 
CPU  0 inst:  143000000 cyc:  175145794 now IPC :0.80668: AVG IPC :0.80959: L2-Pf-HR :-nan: L2-HR :0.74902: (Sim:3h23m36s) 
CPU  2 inst:  142000003 cyc:  175317184 now IPC :0.94379: AVG IPC :0.80306: L2-Pf-HR :-nan: L2-HR :0.74740: (Sim:3h23m44s) 
CPU  1 inst:  141000004 cyc:  175423596 now IPC :0.82627: AVG IPC :0.79684: L2-Pf-HR :-nan: L2-HR :0.74656: (Sim:3h23m50s) 
CPU  3 inst:  144000000 cyc:  176168858 now IPC :0.93201: AVG IPC :0.81057: L2-Pf-HR :-nan: L2-HR :0.74230: (Sim:3h24m29s) 
CPU  0 inst:  144000000 cyc:  176247554 now IPC :0.90764: AVG IPC :0.81021: L2-Pf-HR :-nan: L2-HR :0.74906: (Sim:3h24m33s) 
CPU  2 inst:  143000000 cyc:  176357203 now IPC :0.96152: AVG IPC :0.80400: L2-Pf-HR :-nan: L2-HR :0.74775: (Sim:3h24m39s) 
CPU  1 inst:  142000003 cyc:  176554552 now IPC :0.88421: AVG IPC :0.79740: L2-Pf-HR :-nan: L2-HR :0.74669: (Sim:3h24m50s) 
CPU  3 inst:  145000004 cyc:  177207251 now IPC :0.96303: AVG IPC :0.81147: L2-Pf-HR :-nan: L2-HR :0.74230: (Sim:3h25m25s) 
CPU  0 inst:  145000002 cyc:  177355938 now IPC :0.90222: AVG IPC :0.81079: L2-Pf-HR :-nan: L2-HR :0.74909: (Sim:3h25m33s) 
CPU  2 inst:  144000000 cyc:  177421241 now IPC :0.93982: AVG IPC :0.80482: L2-Pf-HR :-nan: L2-HR :0.74810: (Sim:3h25m37s) 
CPU  1 inst:  143000000 cyc:  177563778 now IPC :0.99086: AVG IPC :0.79851: L2-Pf-HR :-nan: L2-HR :0.74705: (Sim:3h25m44s) 
CPU  3 inst:  146000003 cyc:  178604973 now IPC :0.71545: AVG IPC :0.81072: L2-Pf-HR :-nan: L2-HR :0.74203: (Sim:3h26m32s) 
CPU  2 inst:  145000004 cyc:  178689122 now IPC :0.78872: AVG IPC :0.80470: L2-Pf-HR :-nan: L2-HR :0.74843: (Sim:3h26m37s) 
CPU  0 inst:  146000003 cyc:  178748177 now IPC :0.71827: AVG IPC :0.81006: L2-Pf-HR :-nan: L2-HR :0.74887: (Sim:3h26m40s) 
CPU  1 inst:  144000002 cyc:  178812565 now IPC :0.80078: AVG IPC :0.79852: L2-Pf-HR :-nan: L2-HR :0.74738: (Sim:3h26m43s) 
CPU  3 inst:  147000004 cyc:  179773462 now IPC :0.85581: AVG IPC :0.81101: L2-Pf-HR :-nan: L2-HR :0.74197: (Sim:3h27m31s) 
CPU  2 inst:  146000003 cyc:  179941803 now IPC :0.79829: AVG IPC :0.80466: L2-Pf-HR :-nan: L2-HR :0.74823: (Sim:3h27m40s) 
CPU  0 inst:  147000004 cyc:  179944375 now IPC :0.83598: AVG IPC :0.81024: L2-Pf-HR :-nan: L2-HR :0.74883: (Sim:3h27m40s) 
CPU  1 inst:  145000004 cyc:  179973050 now IPC :0.86171: AVG IPC :0.79893: L2-Pf-HR :-nan: L2-HR :0.74768: (Sim:3h27m41s) 
CPU  3 inst:  148000003 cyc:  181127753 now IPC :0.73839: AVG IPC :0.81047: L2-Pf-HR :-nan: L2-HR :0.74190: (Sim:3h28m36s) 
CPU  2 inst:  147000004 cyc:  181133783 now IPC :0.83894: AVG IPC :0.80489: L2-Pf-HR :-nan: L2-HR :0.74812: (Sim:3h28m36s) 
CPU  0 inst:  148000003 cyc:  181258605 now IPC :0.76090: AVG IPC :0.80988: L2-Pf-HR :-nan: L2-HR :0.74878: (Sim:3h28m42s) 
CPU  1 inst:  146000003 cyc:  181441935 now IPC :0.68079: AVG IPC :0.79797: L2-Pf-HR :-nan: L2-HR :0.74745: (Sim:3h28m51s) 
CPU  2 inst:  148000005 cyc:  182434601 now IPC :0.76875: AVG IPC :0.80463: L2-Pf-HR :-nan: L2-HR :0.74801: (Sim:3h29m37s) 
CPU  3 inst:  149000000 cyc:  182490670 now IPC :0.73372: AVG IPC :0.80989: L2-Pf-HR :-nan: L2-HR :0.74183: (Sim:3h29m40s) 
CPU  0 inst:  149000000 cyc:  182610964 now IPC :0.73945: AVG IPC :0.80935: L2-Pf-HR :-nan: L2-HR :0.74871: (Sim:3h29m46s) 
CPU  1 inst:  147000004 cyc:  182643542 now IPC :0.83222: AVG IPC :0.79820: L2-Pf-HR :-nan: L2-HR :0.74734: (Sim:3h29m48s) 
CPU  3 inst:  150000002 cyc:  183667394 now IPC :0.84982: AVG IPC :0.81015: L2-Pf-HR :-nan: L2-HR :0.74171: (Sim:3h30m38s) 
CPU  2 inst:  149000000 cyc:  183703155 now IPC :0.78830: AVG IPC :0.80451: L2-Pf-HR :-nan: L2-HR :0.74791: (Sim:3h30m40s) 
CPU  1 inst:  148000004 cyc:  183792681 now IPC :0.87022: AVG IPC :0.79865: L2-Pf-HR :-nan: L2-HR :0.74723: (Sim:3h30m45s) 
CPU  0 inst:  150000003 cyc:  183894270 now IPC :0.77924: AVG IPC :0.80914: L2-Pf-HR :-nan: L2-HR :0.74860: (Sim:3h30m49s) 
CPU  3 inst:  151000005 cyc:  184813987 now IPC :0.87215: AVG IPC :0.81053: L2-Pf-HR :-nan: L2-HR :0.74161: (Sim:3h31m36s) 
CPU  1 inst:  149000000 cyc:  184953752 now IPC :0.86127: AVG IPC :0.79904: L2-Pf-HR :-nan: L2-HR :0.74713: (Sim:3h31m43s) 
CPU  2 inst:  150000003 cyc:  184987623 now IPC :0.77853: AVG IPC :0.80433: L2-Pf-HR :-nan: L2-HR :0.74779: (Sim:3h31m45s) 
CPU  0 inst:  151000005 cyc:  185152401 now IPC :0.79483: AVG IPC :0.80904: L2-Pf-HR :-nan: L2-HR :0.74849: (Sim:3h31m53s) 
CPU  3 inst:  152000004 cyc:  186148003 now IPC :0.74962: AVG IPC :0.81009: L2-Pf-HR :-nan: L2-HR :0.74146: (Sim:3h32m38s) 
CPU  1 inst:  150000001 cyc:  186244342 now IPC :0.77484: AVG IPC :0.79888: L2-Pf-HR :-nan: L2-HR :0.74701: (Sim:3h32m43s) 
CPU  2 inst:  151000005 cyc:  186349319 now IPC :0.73438: AVG IPC :0.80382: L2-Pf-HR :-nan: L2-HR :0.74768: (Sim:3h32m49s) 
CPU  0 inst:  152000004 cyc:  186642544 now IPC :0.67108: AVG IPC :0.80794: L2-Pf-HR :-nan: L2-HR :0.74833: (Sim:3h33m3s) 
CPU  3 inst:  153000004 cyc:  187312535 now IPC :0.85871: AVG IPC :0.81040: L2-Pf-HR :-nan: L2-HR :0.74143: (Sim:3h33m33s) 
CPU  1 inst:  151000005 cyc:  187525097 now IPC :0.78079: AVG IPC :0.79875: L2-Pf-HR :-nan: L2-HR :0.74689: (Sim:3h33m44s) 
CPU  0 inst:  153000004 cyc:  187811992 now IPC :0.85510: AVG IPC :0.80823: L2-Pf-HR :-nan: L2-HR :0.74829: (Sim:3h33m57s) 
CPU  2 inst:  152000004 cyc:  187860014 now IPC :0.66195: AVG IPC :0.80267: L2-Pf-HR :-nan: L2-HR :0.74752: (Sim:3h34m0s) 
CPU  3 inst:  154000002 cyc:  188602134 now IPC :0.77543: AVG IPC :0.81016: L2-Pf-HR :-nan: L2-HR :0.74141: (Sim:3h34m34s) 
CPU  0 inst:  154000002 cyc:  188876912 now IPC :0.93904: AVG IPC :0.80897: L2-Pf-HR :-nan: L2-HR :0.74826: (Sim:3h34m48s) 
CPU  1 inst:  152000004 cyc:  188984907 now IPC :0.68502: AVG IPC :0.79787: L2-Pf-HR :-nan: L2-HR :0.74674: (Sim:3h34m54s) 
CPU  2 inst:  153000004 cyc:  189141082 now IPC :0.78060: AVG IPC :0.80252: L2-Pf-HR :-nan: L2-HR :0.74748: (Sim:3h35m1s) 
CPU  3 inst:  155000003 cyc:  189754210 now IPC :0.86800: AVG IPC :0.81051: L2-Pf-HR :-nan: L2-HR :0.74139: (Sim:3h35m32s) 
CPU  0 inst:  155000003 cyc:  189980541 now IPC :0.90610: AVG IPC :0.80954: L2-Pf-HR :-nan: L2-HR :0.74824: (Sim:3h35m44s) 
CPU  1 inst:  153000004 cyc:  190205373 now IPC :0.81936: AVG IPC :0.79801: L2-Pf-HR :-nan: L2-HR :0.74670: (Sim:3h35m55s) 
CPU  2 inst:  154000002 cyc:  190296642 now IPC :0.86538: AVG IPC :0.80291: L2-Pf-HR :-nan: L2-HR :0.74746: (Sim:3h35m59s) 
CPU  3 inst:  156000004 cyc:  190867659 now IPC :0.89811: AVG IPC :0.81102: L2-Pf-HR :-nan: L2-HR :0.74135: (Sim:3h36m28s) 
CPU  0 inst:  156000001 cyc:  191152849 now IPC :0.85302: AVG IPC :0.80981: L2-Pf-HR :-nan: L2-HR :0.74820: (Sim:3h36m42s) 
CPU  1 inst:  154000002 cyc:  191358453 now IPC :0.86724: AVG IPC :0.79843: L2-Pf-HR :-nan: L2-HR :0.74667: (Sim:3h36m52s) 
CPU  2 inst:  155000003 cyc:  191484553 now IPC :0.84181: AVG IPC :0.80315: L2-Pf-HR :-nan: L2-HR :0.74745: (Sim:3h36m58s) 
CPU  3 inst:  157000004 cyc:  191981325 now IPC :0.89794: AVG IPC :0.81153: L2-Pf-HR :-nan: L2-HR :0.74132: (Sim:3h37m24s) 
CPU  0 inst:  157000005 cyc:  192291404 now IPC :0.87831: AVG IPC :0.81022: L2-Pf-HR :-nan: L2-HR :0.74817: (Sim:3h37m39s) 
CPU  1 inst:  155000003 cyc:  192564645 now IPC :0.82906: AVG IPC :0.79862: L2-Pf-HR :-nan: L2-HR :0.74666: (Sim:3h37m52s) 
CPU  2 inst:  156000003 cyc:  192612662 now IPC :0.88644: AVG IPC :0.80364: L2-Pf-HR :-nan: L2-HR :0.74742: (Sim:3h37m54s) 
CPU  3 inst:  158000000 cyc:  193209823 now IPC :0.81400: AVG IPC :0.81155: L2-Pf-HR :-nan: L2-HR :0.74137: (Sim:3h38m23s) 
CPU  0 inst:  158000000 cyc:  193553498 now IPC :0.79233: AVG IPC :0.81010: L2-Pf-HR :-nan: L2-HR :0.74822: (Sim:3h38m42s) 
CPU  2 inst:  157000001 cyc:  193660033 now IPC :0.95477: AVG IPC :0.80446: L2-Pf-HR :-nan: L2-HR :0.74739: (Sim:3h38m48s) 
CPU  1 inst:  156000004 cyc:  193681032 now IPC :0.89575: AVG IPC :0.79918: L2-Pf-HR :-nan: L2-HR :0.74662: (Sim:3h38m50s) 
CPU  3 inst:  159000001 cyc:  194289128 now IPC :0.92652: AVG IPC :0.81219: L2-Pf-HR :-nan: L2-HR :0.74164: (Sim:3h39m49s) 
CPU  0 inst:  159000001 cyc:  194608617 now IPC :0.94776: AVG IPC :0.81085: L2-Pf-HR :-nan: L2-HR :0.74851: (Sim:3h40m22s) 
CPU  1 inst:  157000001 cyc:  194721445 now IPC :0.96115: AVG IPC :0.80005: L2-Pf-HR :-nan: L2-HR :0.74659: (Sim:3h40m33s) 
CPU  2 inst:  158000000 cyc:  194848880 now IPC :0.84115: AVG IPC :0.80469: L2-Pf-HR :-nan: L2-HR :0.74745: (Sim:3h40m46s) 
CPU  3 inst:  160000002 cyc:  195395417 now IPC :0.90392: AVG IPC :0.81271: L2-Pf-HR :-nan: L2-HR :0.74190: (Sim:3h41m39s) 
CPU  0 inst:  160000002 cyc:  195618068 now IPC :0.99064: AVG IPC :0.81178: L2-Pf-HR :-nan: L2-HR :0.74881: (Sim:3h42m0s) 
CPU  1 inst:  158000000 cyc:  195949904 now IPC :0.81403: AVG IPC :0.80014: L2-Pf-HR :-nan: L2-HR :0.74668: (Sim:3h42m33s) 
CPU  2 inst:  159000001 cyc:  196036394 now IPC :0.84210: AVG IPC :0.80491: L2-Pf-HR :-nan: L2-HR :0.74773: (Sim:3h42m41s) 
CPU  3 inst:  161000002 cyc:  196646135 now IPC :0.79954: AVG IPC :0.81263: L2-Pf-HR :-nan: L2-HR :0.74221: (Sim:3h43m35s) 
[...]
CPU  3 inst:  329000000 cyc:  912887728 now IPC :0.15870: AVG IPC :0.35859: L2-Pf-HR :-nan: L2-HR :0.63226: (Sim:10h8m3s) 
CPU  2 inst:  329000000 cyc:  913750089 now IPC :0.15872: AVG IPC :0.35825: L2-Pf-HR :-nan: L2-HR :0.63642: (Sim:10h8m27s) 
CPU  1 inst:  329000000 cyc:  914201264 now IPC :0.15850: AVG IPC :0.35807: L2-Pf-HR :-nan: L2-HR :0.63593: (Sim:10h8m39s) 
CPU  0 inst:  330000000 cyc:  917635709 now IPC :0.15891: AVG IPC :0.35782: L2-Pf-HR :-nan: L2-HR :0.63606: (Sim:10h10m13s) 
CPU  3 inst:  330000000 cyc:  919198204 now IPC :0.15847: AVG IPC :0.35722: L2-Pf-HR :-nan: L2-HR :0.63154: (Sim:10h10m56s) 
CPU  2 inst:  330000000 cyc:  920055470 now IPC :0.15859: AVG IPC :0.35688: L2-Pf-HR :-nan: L2-HR :0.63569: (Sim:10h11m20s) 
CPU  1 inst:  330000000 cyc:  920504654 now IPC :0.15864: AVG IPC :0.35671: L2-Pf-HR :-nan: L2-HR :0.63521: (Sim:10h11m32s) 
CPU  0 inst:  331000004 cyc:  923943149 now IPC :0.15854: AVG IPC :0.35646: L2-Pf-HR :-nan: L2-HR :0.63533: (Sim:10h13m8s) 
CPU  3 inst:  331000004 cyc:  925473563 now IPC :0.15935: AVG IPC :0.35587: L2-Pf-HR :-nan: L2-HR :0.63083: (Sim:10h13m51s) 
CPU  2 inst:  331000004 cyc:  926337487 now IPC :0.15919: AVG IPC :0.35554: L2-Pf-HR :-nan: L2-HR :0.63497: (Sim:10h14m15s) 
CPU  1 inst:  331000004 cyc:  926810142 now IPC :0.15859: AVG IPC :0.35536: L2-Pf-HR :-nan: L2-HR :0.63448: (Sim:10h14m28s) 
CPU  0 inst:  332000000 cyc:  930224619 now IPC :0.15920: AVG IPC :0.35513: L2-Pf-HR :-nan: L2-HR :0.63461: (Sim:10h16m3s) 
CPU  3 inst:  332000000 cyc:  931780109 now IPC :0.15856: AVG IPC :0.35454: L2-Pf-HR :-nan: L2-HR :0.63012: (Sim:10h16m46s) 
CPU  2 inst:  332000000 cyc:  932644299 now IPC :0.15856: AVG IPC :0.35421: L2-Pf-HR :-nan: L2-HR :0.63425: (Sim:10h17m10s) 
CPU  1 inst:  332000000 cyc:  933114498 now IPC :0.15862: AVG IPC :0.35403: L2-Pf-HR :-nan: L2-HR :0.63377: (Sim:10h17m23s) 
CPU  0 inst:  333000002 cyc:  936548699 now IPC :0.15813: AVG IPC :0.35380: L2-Pf-HR :-nan: L2-HR :0.63389: (Sim:10h18m59s) 
CPU  3 inst:  333000002 cyc:  938103638 now IPC :0.15814: AVG IPC :0.35321: L2-Pf-HR :-nan: L2-HR :0.62941: (Sim:10h19m42s) 
CPU  2 inst:  333000002 cyc:  938958314 now IPC :0.15838: AVG IPC :0.35289: L2-Pf-HR :-nan: L2-HR :0.63353: (Sim:10h20m6s) 
CPU  1 inst:  333000002 cyc:  939414059 now IPC :0.15874: AVG IPC :0.35272: L2-Pf-HR :-nan: L2-HR :0.63305: (Sim:10h20m18s) 
CPU  0 inst:  334000000 cyc:  942845993 now IPC :0.15880: AVG IPC :0.35249: L2-Pf-HR :-nan: L2-HR :0.63318: (Sim:10h21m54s) 
CPU  3 inst:  334000000 cyc:  944395221 now IPC :0.15894: AVG IPC :0.35191: L2-Pf-HR :-nan: L2-HR :0.62871: (Sim:10h22m37s) 
CPU  2 inst:  334000000 cyc:  945238678 now IPC :0.15923: AVG IPC :0.35160: L2-Pf-HR :-nan: L2-HR :0.63282: (Sim:10h23m0s) 
CPU  1 inst:  334000000 cyc:  945703124 now IPC :0.15901: AVG IPC :0.35143: L2-Pf-HR :-nan: L2-HR :0.63234: (Sim:10h23m13s) 
CPU  0 inst:  335000004 cyc:  949138509 now IPC :0.15892: AVG IPC :0.35121: L2-Pf-HR :-nan: L2-HR :0.63247: (Sim:10h24m49s) 
CPU  3 inst:  335000004 cyc:  950680178 now IPC :0.15911: AVG IPC :0.35064: L2-Pf-HR :-nan: L2-HR :0.62801: (Sim:10h25m32s) 
CPU  2 inst:  335000004 cyc:  951548491 now IPC :0.15848: AVG IPC :0.35032: L2-Pf-HR :-nan: L2-HR :0.63211: (Sim:10h25m56s) 
CPU  1 inst:  335000004 cyc:  952007964 now IPC :0.15861: AVG IPC :0.35015: L2-Pf-HR :-nan: L2-HR :0.63163: (Sim:10h26m9s) 
CPU  0 inst:  336000000 cyc:  955452643 now IPC :0.15837: AVG IPC :0.34993: L2-Pf-HR :-nan: L2-HR :0.63177: (Sim:10h27m44s) 
CPU  3 inst:  336000000 cyc:  957018270 now IPC :0.15778: AVG IPC :0.34936: L2-Pf-HR :-nan: L2-HR :0.62732: (Sim:10h28m28s) 
CPU  2 inst:  336000000 cyc:  957881476 now IPC :0.15790: AVG IPC :0.34904: L2-Pf-HR :-nan: L2-HR :0.63140: (Sim:10h28m52s) 
CPU  1 inst:  336000000 cyc:  958317518 now IPC :0.15849: AVG IPC :0.34889: L2-Pf-HR :-nan: L2-HR :0.63093: (Sim:10h29m4s) 
CPU  0 inst:  337000000 cyc:  961769667 now IPC :0.15830: AVG IPC :0.34867: L2-Pf-HR :-nan: L2-HR :0.63106: (Sim:10h30m40s) 
CPU  3 inst:  337000000 cyc:  963347887 now IPC :0.15799: AVG IPC :0.34810: L2-Pf-HR :-nan: L2-HR :0.62662: (Sim:10h31m24s) 
CPU  2 inst:  337000000 cyc:  964206844 now IPC :0.15809: AVG IPC :0.34779: L2-Pf-HR :-nan: L2-HR :0.63070: (Sim:10h31m48s) 
CPU  1 inst:  337000000 cyc:  964633621 now IPC :0.15833: AVG IPC :0.34764: L2-Pf-HR :-nan: L2-HR :0.63023: (Sim:10h32m0s) 
CPU  0 inst:  338000000 cyc:  968075818 now IPC :0.15858: AVG IPC :0.34743: L2-Pf-HR :-nan: L2-HR :0.63036: (Sim:10h33m35s) 
CPU  3 inst:  338000000 cyc:  969644108 now IPC :0.15883: AVG IPC :0.34687: L2-Pf-HR :-nan: L2-HR :0.62593: (Sim:10h34m19s) 
CPU  2 inst:  338000000 cyc:  970496126 now IPC :0.15900: AVG IPC :0.34657: L2-Pf-HR :-nan: L2-HR :0.63000: (Sim:10h34m43s) 
CPU  1 inst:  338000000 cyc:  970904865 now IPC :0.15946: AVG IPC :0.34642: L2-Pf-HR :-nan: L2-HR :0.62953: (Sim:10h34m54s) 
CPU  0 inst:  339000000 cyc:  974333074 now IPC :0.15981: AVG IPC :0.34623: L2-Pf-HR :-nan: L2-HR :0.62967: (Sim:10h36m29s) 
CPU  3 inst:  339000000 cyc:  975930142 now IPC :0.15908: AVG IPC :0.34566: L2-Pf-HR :-nan: L2-HR :0.62525: (Sim:10h37m14s) 
CPU  2 inst:  339000000 cyc:  976769109 now IPC :0.15941: AVG IPC :0.34536: L2-Pf-HR :-nan: L2-HR :0.62931: (Sim:10h37m38s) 
CPU  1 inst:  339000000 cyc:  977179370 now IPC :0.15938: AVG IPC :0.34522: L2-Pf-HR :-nan: L2-HR :0.62883: (Sim:10h37m49s) 
CPU  0 inst:  340000000 cyc:  980605138 now IPC :0.15944: AVG IPC :0.34503: L2-Pf-HR :-nan: L2-HR :0.62897: (Sim:10h39m24s) 
CPU  3 inst:  340000000 cyc:  982222113 now IPC :0.15893: AVG IPC :0.34446: L2-Pf-HR :-nan: L2-HR :0.62456: (Sim:10h40m9s) 
CPU  2 inst:  340000000 cyc:  983065466 now IPC :0.15882: AVG IPC :0.34417: L2-Pf-HR :-nan: L2-HR :0.62861: (Sim:10h40m33s) 
CPU  1 inst:  340000000 cyc:  983473793 now IPC :0.15887: AVG IPC :0.34402: L2-Pf-HR :-nan: L2-HR :0.62814: (Sim:10h40m44s) 
CPU  0 inst:  341000001 cyc:  986891195 now IPC :0.15908: AVG IPC :0.34385: L2-Pf-HR :-nan: L2-HR :0.62828: (Sim:10h42m19s) 
CPU  3 inst:  341000001 cyc:  988542885 now IPC :0.15821: AVG IPC :0.34327: L2-Pf-HR :-nan: L2-HR :0.62389: (Sim:10h43m5s) 
CPU  2 inst:  341000001 cyc:  989383199 now IPC :0.15828: AVG IPC :0.34298: L2-Pf-HR :-nan: L2-HR :0.62792: (Sim:10h43m28s) 
CPU  1 inst:  341000001 cyc:  989792966 now IPC :0.15825: AVG IPC :0.34284: L2-Pf-HR :-nan: L2-HR :0.62745: (Sim:10h43m39s) 
CPU  0 inst:  342000001 cyc:  993220580 now IPC :0.15799: AVG IPC :0.34266: L2-Pf-HR :-nan: L2-HR :0.62760: (Sim:10h45m15s) 
CPU  3 inst:  342000001 cyc:  994843662 now IPC :0.15871: AVG IPC :0.34210: L2-Pf-HR :-nan: L2-HR :0.62321: (Sim:10h46m0s) 
CPU  2 inst:  342000001 cyc:  995679688 now IPC :0.15882: AVG IPC :0.34181: L2-Pf-HR :-nan: L2-HR :0.62724: (Sim:10h46m23s) 
CPU  1 inst:  342000001 cyc:  996085095 now IPC :0.15893: AVG IPC :0.34167: L2-Pf-HR :-nan: L2-HR :0.62677: (Sim:10h46m34s) 
CPU  0 inst:  343000000 cyc:  999472448 now IPC :0.15995: AVG IPC :0.34152: L2-Pf-HR :-nan: L2-HR :0.62691: (Sim:10h48m9s) 
CPU  3 inst:  343000000 cyc: 1001121238 now IPC :0.15930: AVG IPC :0.34095: L2-Pf-HR :-nan: L2-HR :0.62254: (Sim:10h48m55s) 
CPU  2 inst:  343000000 cyc: 1001984616 now IPC :0.15861: AVG IPC :0.34066: L2-Pf-HR :-nan: L2-HR :0.62656: (Sim:10h49m19s) 
CPU  1 inst:  343000000 cyc: 1002350653 now IPC :0.15960: AVG IPC :0.34053: L2-Pf-HR :-nan: L2-HR :0.62609: (Sim:10h49m29s) 
CPU  0 inst:  344000000 cyc: 1005771230 now IPC :0.15876: AVG IPC :0.34037: L2-Pf-HR :-nan: L2-HR :0.62623: (Sim:10h51m4s) 
CPU  3 inst:  344000000 cyc: 1007419798 now IPC :0.15877: AVG IPC :0.33981: L2-Pf-HR :-nan: L2-HR :0.62186: (Sim:10h51m50s) 
CPU  2 inst:  344000000 cyc: 1008294264 now IPC :0.15849: AVG IPC :0.33952: L2-Pf-HR :-nan: L2-HR :0.62587: (Sim:10h52m14s) 
CPU  1 inst:  344000000 cyc: 1008650847 now IPC :0.15873: AVG IPC :0.33940: L2-Pf-HR :-nan: L2-HR :0.62541: (Sim:10h52m24s) 
CPU  0 inst:  345000000 cyc: 1012072570 now IPC :0.15870: AVG IPC :0.33924: L2-Pf-HR :-nan: L2-HR :0.62555: (Sim:10h53m59s) 
CPU  3 inst:  345000000 cyc: 1013701724 now IPC :0.15919: AVG IPC :0.33869: L2-Pf-HR :-nan: L2-HR :0.62120: (Sim:10h54m44s) 
CPU  2 inst:  345000000 cyc: 1014561929 now IPC :0.15955: AVG IPC :0.33841: L2-Pf-HR :-nan: L2-HR :0.62520: (Sim:10h55m8s) 
CPU  1 inst:  345000000 cyc: 1014929330 now IPC :0.15927: AVG IPC :0.33828: L2-Pf-HR :-nan: L2-HR :0.62473: (Sim:10h55m18s) 
CPU  0 inst:  346000000 cyc: 1018362016 now IPC :0.15900: AVG IPC :0.33812: L2-Pf-HR :-nan: L2-HR :0.62488: (Sim:10h56m52s) 
CPU  3 inst:  346000000 cyc: 1020004725 now IPC :0.15865: AVG IPC :0.33758: L2-Pf-HR :-nan: L2-HR :0.62053: (Sim:10h57m37s) 
CPU  2 inst:  346000000 cyc: 1020859468 now IPC :0.15879: AVG IPC :0.33730: L2-Pf-HR :-nan: L2-HR :0.62452: (Sim:10h58m1s) 
CPU  1 inst:  346000000 cyc: 1021247406 now IPC :0.15828: AVG IPC :0.33717: L2-Pf-HR :-nan: L2-HR :0.62406: (Sim:10h58m12s) 
CPU  0 inst:  347000000 cyc: 1024650405 now IPC :0.15902: AVG IPC :0.33702: L2-Pf-HR :-nan: L2-HR :0.62421: (Sim:10h59m45s) 
CPU  3 inst:  347000000 cyc: 1026321052 now IPC :0.15832: AVG IPC :0.33647: L2-Pf-HR :-nan: L2-HR :0.61987: (Sim:11h0m31s) 
CPU  2 inst:  347000000 cyc: 1027171297 now IPC :0.15843: AVG IPC :0.33620: L2-Pf-HR :-nan: L2-HR :0.62385: (Sim:11h0m54s) 
CPU  1 inst:  347000000 cyc: 1027522832 now IPC :0.15935: AVG IPC :0.33608: L2-Pf-HR :-nan: L2-HR :0.62339: (Sim:11h1m4s) 
CPU  0 inst:  348000001 cyc: 1030956409 now IPC :0.15858: AVG IPC :0.33593: L2-Pf-HR :-nan: L2-HR :0.62354: (Sim:11h2m38s) 
CPU  3 inst:  348000001 cyc: 1032629254 now IPC :0.15852: AVG IPC :0.33539: L2-Pf-HR :-nan: L2-HR :0.61921: (Sim:11h3m24s) 
CPU  2 inst:  348000001 cyc: 1033466998 now IPC :0.15884: AVG IPC :0.33511: L2-Pf-HR :-nan: L2-HR :0.62319: (Sim:11h3m47s) 
CPU  1 inst:  348000001 cyc: 1033824858 now IPC :0.15868: AVG IPC :0.33500: L2-Pf-HR :-nan: L2-HR :0.62272: (Sim:11h3m56s) 
CPU  0 inst:  349000001 cyc: 1037246386 now IPC :0.15898: AVG IPC :0.33486: L2-Pf-HR :-nan: L2-HR :0.62288: (Sim:11h5m31s) 
CPU  3 inst:  349000001 cyc: 1038942108 now IPC :0.15841: AVG IPC :0.33431: L2-Pf-HR :-nan: L2-HR :0.61856: (Sim:11h6m18s) 
CPU  2 inst:  349000001 cyc: 1039780333 now IPC :0.15839: AVG IPC :0.33404: L2-Pf-HR :-nan: L2-HR :0.62252: (Sim:11h6m41s) 
CPU  1 inst:  349000001 cyc: 1040150185 now IPC :0.15809: AVG IPC :0.33392: L2-Pf-HR :-nan: L2-HR :0.62206: (Sim:11h6m51s) 
CPU  0 inst:  350000000 cyc: 1043553920 now IPC :0.15854: AVG IPC :0.33379: L2-Pf-HR :-nan: L2-HR :0.62221: (Sim:11h8m25s) 
CPU  3 inst:  350000000 cyc: 1045227680 now IPC :0.15909: AVG IPC :0.33326: L2-Pf-HR :-nan: L2-HR :0.61791: (Sim:11h9m12s) 
CPU  2 inst:  350000000 cyc: 1046090126 now IPC :0.15848: AVG IPC :0.33298: L2-Pf-HR :-nan: L2-HR :0.62186: (Sim:11h9m35s) 
CPU  1 inst:  350000000 cyc: 1046455585 now IPC :0.15859: AVG IPC :0.33286: L2-Pf-HR :-nan: L2-HR :0.62140: (Sim:11h9m46s) 
CPU  0 inst:  351000000 cyc: 1049856396 now IPC :0.15867: AVG IPC :0.33274: L2-Pf-HR :-nan: L2-HR :0.62155: (Sim:11h11m20s) 
CPU  3 inst:  351000000 cyc: 1051531748 now IPC :0.15863: AVG IPC :0.33221: L2-Pf-HR :-nan: L2-HR :0.61726: (Sim:11h12m7s) 
CPU  2 inst:  351000000 cyc: 1052387759 now IPC :0.15879: AVG IPC :0.33194: L2-Pf-HR :-nan: L2-HR :0.62120: (Sim:11h12m30s) 
CPU  1 inst:  351000000 cyc: 1052760680 now IPC :0.15860: AVG IPC :0.33182: L2-Pf-HR :-nan: L2-HR :0.62074: (Sim:11h12m41s) 
CPU  0 inst:  352000004 cyc: 1056171276 now IPC :0.15836: AVG IPC :0.33169: L2-Pf-HR :-nan: L2-HR :0.62090: (Sim:11h14m14s) 
CPU  3 inst:  352000004 cyc: 1057815924 now IPC :0.15913: AVG IPC :0.33118: L2-Pf-HR :-nan: L2-HR :0.61661: (Sim:11h15m0s) 
CPU  2 inst:  352000004 cyc: 1058685289 now IPC :0.15879: AVG IPC :0.33091: L2-Pf-HR :-nan: L2-HR :0.62055: (Sim:11h15m23s) 
CPU  1 inst:  352000004 cyc: 1059051886 now IPC :0.15895: AVG IPC :0.33079: L2-Pf-HR :-nan: L2-HR :0.62009: (Sim:11h15m33s) 
CPU  0 inst:  353000000 cyc: 1062478256 now IPC :0.15855: AVG IPC :0.33067: L2-Pf-HR :-nan: L2-HR :0.62025: (Sim:11h17m7s) 
CPU  3 inst:  353000000 cyc: 1064163239 now IPC :0.15755: AVG IPC :0.33014: L2-Pf-HR :-nan: L2-HR :0.61597: (Sim:11h17m53s) 
CPU  2 inst:  353000000 cyc: 1065014622 now IPC :0.15799: AVG IPC :0.32988: L2-Pf-HR :-nan: L2-HR :0.61989: (Sim:11h18m16s) 
CPU  1 inst:  353000000 cyc: 1065368362 now IPC :0.15832: AVG IPC :0.32977: L2-Pf-HR :-nan: L2-HR :0.61944: (Sim:11h18m26s) 
CPU  0 inst:  354000000 cyc: 1068781874 now IPC :0.15864: AVG IPC :0.32965: L2-Pf-HR :-nan: L2-HR :0.61959: (Sim:11h20m0s) 
CPU  3 inst:  354000000 cyc: 1070485237 now IPC :0.15818: AVG IPC :0.32913: L2-Pf-HR :-nan: L2-HR :0.61533: (Sim:11h20m46s) 
CPU  2 inst:  354000000 cyc: 1071323868 now IPC :0.15850: AVG IPC :0.32887: L2-Pf-HR :-nan: L2-HR :0.61924: (Sim:11h21m9s) 
CPU  1 inst:  354000000 cyc: 1071693320 now IPC :0.15810: AVG IPC :0.32875: L2-Pf-HR :-nan: L2-HR :0.61879: (Sim:11h21m19s) 
CPU  0 inst:  355000003 cyc: 1075107770 now IPC :0.15808: AVG IPC :0.32864: L2-Pf-HR :-nan: L2-HR :0.61895: (Sim:11h22m53s) 
CPU  3 inst:  355000003 cyc: 1076789204 now IPC :0.15863: AVG IPC :0.32813: L2-Pf-HR :-nan: L2-HR :0.61469: (Sim:11h23m39s) 
CPU  2 inst:  355000003 cyc: 1077640289 now IPC :0.15832: AVG IPC :0.32787: L2-Pf-HR :-nan: L2-HR :0.61860: (Sim:11h24m3s) 
CPU  1 inst:  355000003 cyc: 1078008129 now IPC :0.15836: AVG IPC :0.32775: L2-Pf-HR :-nan: L2-HR :0.61814: (Sim:11h24m13s) 
CPU  0 inst:  356000000 cyc: 1081388754 now IPC :0.15921: AVG IPC :0.32765: L2-Pf-HR :-nan: L2-HR :0.61830: (Sim:11h25m46s) 
CPU  3 inst:  356000000 cyc: 1083058499 now IPC :0.15951: AVG IPC :0.32715: L2-Pf-HR :-nan: L2-HR :0.61406: (Sim:11h26m31s) 
CPU  2 inst:  356000000 cyc: 1083892138 now IPC :0.15995: AVG IPC :0.32690: L2-Pf-HR :-nan: L2-HR :0.61796: (Sim:11h26m54s) 
CPU  1 inst:  356000000 cyc: 1084257819 now IPC :0.16001: AVG IPC :0.32679: L2-Pf-HR :-nan: L2-HR :0.61750: (Sim:11h27m5s) 
CPU  0 inst:  357000001 cyc: 1087652560 now IPC :0.15965: AVG IPC :0.32669: L2-Pf-HR :-nan: L2-HR :0.61766: (Sim:11h28m38s) 
CPU  3 inst:  357000001 cyc: 1089338772 now IPC :0.15923: AVG IPC :0.32618: L2-Pf-HR :-nan: L2-HR :0.61342: (Sim:11h29m25s) 
CPU  2 inst:  357000001 cyc: 1090187903 now IPC :0.15884: AVG IPC :0.32593: L2-Pf-HR :-nan: L2-HR :0.61732: (Sim:11h29m49s) 
CPU  1 inst:  357000001 cyc: 1090541355 now IPC :0.15915: AVG IPC :0.32582: L2-Pf-HR :-nan: L2-HR :0.61686: (Sim:11h29m59s) 
CPU  0 inst:  358000000 cyc: 1093975059 now IPC :0.15817: AVG IPC :0.32571: L2-Pf-HR :-nan: L2-HR :0.61702: (Sim:11h31m34s) 
CPU  3 inst:  358000000 cyc: 1095637317 now IPC :0.15877: AVG IPC :0.32522: L2-Pf-HR :-nan: L2-HR :0.61279: (Sim:11h32m21s) 
CPU  2 inst:  358000000 cyc: 1096504058 now IPC :0.15832: AVG IPC :0.32496: L2-Pf-HR :-nan: L2-HR :0.61668: (Sim:11h32m45s) 
CPU  1 inst:  358000000 cyc: 1096842608 now IPC :0.15870: AVG IPC :0.32486: L2-Pf-HR :-nan: L2-HR :0.61623: (Sim:11h32m54s) 
CPU  0 inst:  359000000 cyc: 1100285277 now IPC :0.15847: AVG IPC :0.32475: L2-Pf-HR :-nan: L2-HR :0.61639: (Sim:11h34m30s) 
CPU  3 inst:  359000000 cyc: 1101961158 now IPC :0.15813: AVG IPC :0.32426: L2-Pf-HR :-nan: L2-HR :0.61217: (Sim:11h35m17s) 
CPU  2 inst:  359000000 cyc: 1102821250 now IPC :0.15830: AVG IPC :0.32400: L2-Pf-HR :-nan: L2-HR :0.61604: (Sim:11h35m41s) 
CPU  1 inst:  359000000 cyc: 1103153344 now IPC :0.15846: AVG IPC :0.32391: L2-Pf-HR :-nan: L2-HR :0.61559: (Sim:11h35m51s) 
CPU  0 inst:  360000000 cyc: 1106608725 now IPC :0.15814: AVG IPC :0.32380: L2-Pf-HR :-nan: L2-HR :0.61576: (Sim:11h37m27s) 
CPU  3 inst:  360000000 cyc: 1108276676 now IPC :0.15834: AVG IPC :0.32331: L2-Pf-HR :-nan: L2-HR :0.61154: (Sim:11h38m14s) 
CPU  2 inst:  360000000 cyc: 1109147204 now IPC :0.15808: AVG IPC :0.32306: L2-Pf-HR :-nan: L2-HR :0.61541: (Sim:11h38m38s) 
CPU  1 inst:  360000000 cyc: 1109464617 now IPC :0.15845: AVG IPC :0.32296: L2-Pf-HR :-nan: L2-HR :0.61496: (Sim:11h38m47s) 
CPU  0 inst:  361000000 cyc: 1112903337 now IPC :0.15887: AVG IPC :0.32287: L2-Pf-HR :-nan: L2-HR :0.61513: (Sim:11h40m23s) 
CPU  3 inst:  361000000 cyc: 1114596813 now IPC :0.15822: AVG IPC :0.32237: L2-Pf-HR :-nan: L2-HR :0.61092: (Sim:11h41m10s) 
CPU  2 inst:  361000000 cyc: 1115459755 now IPC :0.15841: AVG IPC :0.32212: L2-Pf-HR :-nan: L2-HR :0.61478: (Sim:11h41m34s) 
CPU  1 inst:  361000000 cyc: 1115775542 now IPC :0.15846: AVG IPC :0.32203: L2-Pf-HR :-nan: L2-HR :0.61433: (Sim:11h41m43s) 
CPU  0 inst:  362000000 cyc: 1119229044 now IPC :0.15809: AVG IPC :0.32193: L2-Pf-HR :-nan: L2-HR :0.61450: (Sim:11h43m19s) 
CPU  3 inst:  362000000 cyc: 1120921482 now IPC :0.15811: AVG IPC :0.32145: L2-Pf-HR :-nan: L2-HR :0.61031: (Sim:11h44m6s) 
CPU  2 inst:  362000000 cyc: 1121791105 now IPC :0.15794: AVG IPC :0.32120: L2-Pf-HR :-nan: L2-HR :0.61415: (Sim:11h44m30s) 
CPU  1 inst:  362000000 cyc: 1122110499 now IPC :0.15785: AVG IPC :0.32111: L2-Pf-HR :-nan: L2-HR :0.61371: (Sim:11h44m39s) 
CPU  0 inst:  363000000 cyc: 1125541888 now IPC :0.15841: AVG IPC :0.32102: L2-Pf-HR :-nan: L2-HR :0.61387: (Sim:11h46m15s) 
CPU  3 inst:  363000000 cyc: 1127211035 now IPC :0.15899: AVG IPC :0.32054: L2-Pf-HR :-nan: L2-HR :0.60969: (Sim:11h47m1s) 
CPU  2 inst:  363000000 cyc: 1128066404 now IPC :0.15935: AVG IPC :0.32030: L2-Pf-HR :-nan: L2-HR :0.61353: (Sim:11h47m25s) 
CPU  1 inst:  363000000 cyc: 1128380763 now IPC :0.15948: AVG IPC :0.32021: L2-Pf-HR :-nan: L2-HR :0.61308: (Sim:11h47m34s) 
CPU  0 inst:  364000001 cyc: 1131803358 now IPC :0.15971: AVG IPC :0.32012: L2-Pf-HR :-nan: L2-HR :0.61325: (Sim:11h49m10s) 
CPU  3 inst:  364000001 cyc: 1133475105 now IPC :0.15964: AVG IPC :0.31965: L2-Pf-HR :-nan: L2-HR :0.60908: (Sim:11h49m56s) 
CPU  2 inst:  364000001 cyc: 1134336931 now IPC :0.15948: AVG IPC :0.31941: L2-Pf-HR :-nan: L2-HR :0.61291: (Sim:11h50m20s) 
CPU  1 inst:  364000001 cyc: 1134655624 now IPC :0.15937: AVG IPC :0.31932: L2-Pf-HR :-nan: L2-HR :0.61247: (Sim:11h50m29s) 
CPU  0 inst:  365000000 cyc: 1138086587 now IPC :0.15915: AVG IPC :0.31923: L2-Pf-HR :-nan: L2-HR :0.61263: (Sim:11h52m5s) 
CPU  3 inst:  365000000 cyc: 1139755340 now IPC :0.15923: AVG IPC :0.31876: L2-Pf-HR :-nan: L2-HR :0.60847: (Sim:11h52m52s) 
CPU  2 inst:  365000000 cyc: 1140607724 now IPC :0.15947: AVG IPC :0.31853: L2-Pf-HR :-nan: L2-HR :0.61229: (Sim:11h53m16s) 
CPU  1 inst:  365000000 cyc: 1140932802 now IPC :0.15931: AVG IPC :0.31844: L2-Pf-HR :-nan: L2-HR :0.61185: (Sim:11h53m25s) 
CPU  0 inst:  366000000 cyc: 1144373625 now IPC :0.15906: AVG IPC :0.31835: L2-Pf-HR :-nan: L2-HR :0.61202: (Sim:11h55m1s) 
CPU  3 inst:  366000000 cyc: 1146011092 now IPC :0.15985: AVG IPC :0.31790: L2-Pf-HR :-nan: L2-HR :0.60786: (Sim:11h55m47s) 
CPU  2 inst:  366000000 cyc: 1146869015 now IPC :0.15971: AVG IPC :0.31766: L2-Pf-HR :-nan: L2-HR :0.61168: (Sim:11h56m11s) 
CPU  1 inst:  366000000 cyc: 1147187714 now IPC :0.15987: AVG IPC :0.31757: L2-Pf-HR :-nan: L2-HR :0.61123: (Sim:11h56m20s) 
CPU  0 inst:  367000000 cyc: 1150655702 now IPC :0.15918: AVG IPC :0.31748: L2-Pf-HR :-nan: L2-HR :0.61140: (Sim:11h57m56s) 
CPU  3 inst:  367000000 cyc: 1152307094 now IPC :0.15883: AVG IPC :0.31703: L2-Pf-HR :-nan: L2-HR :0.60726: (Sim:11h58m42s) 
CPU  2 inst:  367000000 cyc: 1153213694 now IPC :0.15761: AVG IPC :0.31678: L2-Pf-HR :-nan: L2-HR :0.61106: (Sim:11h59m8s) 
CPU  1 inst:  367000000 cyc: 1153518932 now IPC :0.15795: AVG IPC :0.31669: L2-Pf-HR :-nan: L2-HR :0.61062: (Sim:11h59m16s) 
CPU  0 inst:  368000000 cyc: 1156961673 now IPC :0.15858: AVG IPC :0.31662: L2-Pf-HR :-nan: L2-HR :0.61079: (Sim:12h0m52s) 
CPU  3 inst:  368000000 cyc: 1158617581 now IPC :0.15847: AVG IPC :0.31616: L2-Pf-HR :-nan: L2-HR :0.60666: (Sim:12h1m38s) 
CPU  2 inst:  368000000 cyc: 1159528430 now IPC :0.15836: AVG IPC :0.31591: L2-Pf-HR :-nan: L2-HR :0.61045: (Sim:12h2m4s) 
CPU  1 inst:  368000000 cyc: 1159800658 now IPC :0.15919: AVG IPC :0.31584: L2-Pf-HR :-nan: L2-HR :0.61001: (Sim:12h2m11s) 
Caught signal: 2
     > Finished combination: TraceType=770-tot Sim:657000000 Prefetcher=L2no L1=no
