TRACE: [331000000][Pythia-70M]_[h8][s1024][d64] Warmup: 2000000 NumTraces: 331000000
L1:next_line:L2:029-SecTOP-L2-MultiMarkovDelta_ip_stride_v4
*************************************************
   ChampSim Multicore Out-of-Order Simulator
   Last compiled: Oct 28 2024 09:34:44
*************************************************

trace_0 770-tot_memTraces_v3/memTraces[331000000][Pythia-70M]_[h8][s1024][d64].champsim.xz
trace_1 770-tot_memTraces_v3/memTraces[331000000][Pythia-70M]_[h8][s1024][d64].champsim.xz
trace_2 770-tot_memTraces_v3/memTraces[331000000][Pythia-70M]_[h8][s1024][d64].champsim.xz
trace_3 770-tot_memTraces_v3/memTraces[331000000][Pythia-70M]_[h8][s1024][d64].champsim.xz
CPU 0 L1D next line prefetcher
MK1: Size: 128 TMAX: 64 TMIN: 32 MKPTHRESH: 40
MK2: Size: 256 TMAX: 32 TMIN: 16 MK2PTHRESH: 20
MK3: Size: 384 TMAX: 16 TMIN: 8 MK3PTHRESH: 25
MK4: Size: 512 TMAX: 8 TMIN: 0 MK4PTHRESH: 20
Stride Size: 512 Prefetch Degree: 15

CPU 0 L2C prefetcher
CPU 1 L1D next line prefetcher
MK1: Size: 128 TMAX: 64 TMIN: 32 MKPTHRESH: 40
MK2: Size: 256 TMAX: 32 TMIN: 16 MK2PTHRESH: 20
MK3: Size: 384 TMAX: 16 TMIN: 8 MK3PTHRESH: 25
MK4: Size: 512 TMAX: 8 TMIN: 0 MK4PTHRESH: 20
Stride Size: 512 Prefetch Degree: 15

CPU 1 L2C prefetcher
CPU 2 L1D next line prefetcher
MK1: Size: 128 TMAX: 64 TMIN: 32 MKPTHRESH: 40
MK2: Size: 256 TMAX: 32 TMIN: 16 MK2PTHRESH: 20
MK3: Size: 384 TMAX: 16 TMIN: 8 MK3PTHRESH: 25
MK4: Size: 512 TMAX: 8 TMIN: 0 MK4PTHRESH: 20
Stride Size: 512 Prefetch Degree: 15

CPU 2 L2C prefetcher
CPU 3 L1D next line prefetcher
MK1: Size: 128 TMAX: 64 TMIN: 32 MKPTHRESH: 40
MK2: Size: 256 TMAX: 32 TMIN: 16 MK2PTHRESH: 20
MK3: Size: 384 TMAX: 16 TMIN: 8 MK3PTHRESH: 25
MK4: Size: 512 TMAX: 8 TMIN: 0 MK4PTHRESH: 20
Stride Size: 512 Prefetch Degree: 15

CPU 3 L2C prefetcher
MAIN.cc ln 751 stats print skipped
CPU 0 L2C prefetcher initialized


Cache Size: 1280
number of cache lines: 20480
CPU  3 inst:    1000000 cyc:     502564 now IPC :1.98980: AVG IPC :1.98980: L2-Pf-HR :0.73863: L2-HR :0.72418: (Sim:0h1m44s) 
CPU  1 inst:    1000000 cyc:     502756 now IPC :1.98904: AVG IPC :1.98904: L2-Pf-HR :0.73054: L2-HR :0.71918: (Sim:0h1m44s) 
CPU  0 inst:    1000000 cyc:     502815 now IPC :1.98880: AVG IPC :1.98880: L2-Pf-HR :0.73217: L2-HR :0.71955: (Sim:0h1m44s) 
CPU  2 inst:    1000000 cyc:     502964 now IPC :1.98821: AVG IPC :1.98821: L2-Pf-HR :0.73283: L2-HR :0.71802: (Sim:0h1m44s) 
CPU  3 inst:    2000003 cyc:     986572 now IPC :2.06609: AVG IPC :2.02722: L2-Pf-HR :0.77448: L2-HR :0.76505: (Sim:0h3m35s) 
CPU  1 inst:    2000003 cyc:     986749 now IPC :2.06615: AVG IPC :2.02686: L2-Pf-HR :0.76387: L2-HR :0.75680: (Sim:0h3m35s) 
CPU  0 inst:    2000003 cyc:     986780 now IPC :2.06627: AVG IPC :2.02680: L2-Pf-HR :0.76594: L2-HR :0.75747: (Sim:0h3m35s) 
CPU  2 inst:    2000003 cyc:     986942 now IPC :2.06622: AVG IPC :2.02646: L2-Pf-HR :0.76512: L2-HR :0.75546: (Sim:0h3m35s) 

Warmup complete CPU  0 instructions:    2000350 cycles:     986942 (Simulation time: 0 hr 3 min 35 sec) 
Warmup complete CPU  1 instructions:    2000427 cycles:     986942 (Simulation time: 0 hr 3 min 35 sec) 
Warmup complete CPU  2 instructions:    2000003 cycles:     986942 (Simulation time: 0 hr 3 min 35 sec) 
Warmup complete CPU  3 instructions:    2000913 cycles:     986941 (Simulation time: 0 hr 3 min 35 sec) 

CPU  2 inst:    3000004 cyc:    1503691 now IPC :1.93518: AVG IPC :1.93518: L2-Pf-HR :0.75682: L2-HR :0.75626: (Sim:0h5m7s) 
CPU  3 inst:    3000004 cyc:    1507731 now IPC :1.91880: AVG IPC :1.91841: L2-Pf-HR :0.75291: L2-HR :0.75923: (Sim:0h5m7s) 
CPU  1 inst:    3000004 cyc:    1508066 now IPC :1.91822: AVG IPC :1.91812: L2-Pf-HR :0.74212: L2-HR :0.74960: (Sim:0h5m7s) 
CPU  0 inst:    3000004 cyc:    1508460 now IPC :1.91689: AVG IPC :1.91682: L2-Pf-HR :0.74834: L2-HR :0.75104: (Sim:0h5m8s) 
CPU  3 inst:    4000002 cyc:    2012886 now IPC :1.97959: AVG IPC :1.94853: L2-Pf-HR :0.74949: L2-HR :0.75758: (Sim:0h6m38s) 
CPU  2 inst:    4000002 cyc:    2013290 now IPC :1.96232: AVG IPC :1.94866: L2-Pf-HR :0.75194: L2-HR :0.75370: (Sim:0h6m39s) 
CPU  1 inst:    4000002 cyc:    2013572 now IPC :1.97821: AVG IPC :1.94771: L2-Pf-HR :0.74088: L2-HR :0.74926: (Sim:0h6m39s) 
CPU  0 inst:    4000002 cyc:    2019362 now IPC :1.95732: AVG IPC :1.93686: L2-Pf-HR :0.74916: L2-HR :0.75220: (Sim:0h6m40s) 
CPU  3 inst:    5000000 cyc:    2524200 now IPC :1.95574: AVG IPC :1.95093: L2-Pf-HR :0.74280: L2-HR :0.75307: (Sim:0h8m11s) 
CPU  1 inst:    5000000 cyc:    2525918 now IPC :1.95180: AVG IPC :1.94907: L2-Pf-HR :0.73487: L2-HR :0.74501: (Sim:0h8m11s) 
CPU  2 inst:    5000000 cyc:    2526169 now IPC :1.94977: AVG IPC :1.94903: L2-Pf-HR :0.74331: L2-HR :0.74817: (Sim:0h8m11s) 
CPU  0 inst:    5000000 cyc:    2527690 now IPC :1.96723: AVG IPC :1.94688: L2-Pf-HR :0.74342: L2-HR :0.74852: (Sim:0h8m12s) 
CPU  3 inst:    6000004 cyc:    3024856 now IPC :1.99739: AVG IPC :1.96234: L2-Pf-HR :0.75262: L2-HR :0.75975: (Sim:0h9m42s) 
CPU  1 inst:    6000001 cyc:    3027456 now IPC :1.99387: AVG IPC :1.96008: L2-Pf-HR :0.74338: L2-HR :0.75068: (Sim:0h9m42s) 
CPU  2 inst:    6000005 cyc:    3027645 now IPC :1.99412: AVG IPC :1.96011: L2-Pf-HR :0.74843: L2-HR :0.75137: (Sim:0h9m42s) 
CPU  0 inst:    6000001 cyc:    3027664 now IPC :2.00011: AVG IPC :1.95992: L2-Pf-HR :0.75097: L2-HR :0.75439: (Sim:0h9m42s) 
CPU  3 inst:    7000004 cyc:    4095136 now IPC :0.93433: AVG IPC :1.60836: L2-Pf-HR :0.75951: L2-HR :0.76455: (Sim:0h11m39s) 
CPU  0 inst:    7000004 cyc:    4095864 now IPC :0.93616: AVG IPC :1.60816: L2-Pf-HR :0.75698: L2-HR :0.75829: (Sim:0h11m39s) 
CPU  1 inst:    7000004 cyc:    4111480 now IPC :0.92249: AVG IPC :1.60010: L2-Pf-HR :0.75274: L2-HR :0.75563: (Sim:0h11m42s) 
CPU  2 inst:    7000004 cyc:    4117576 now IPC :0.91749: AVG IPC :1.59712: L2-Pf-HR :0.75560: L2-HR :0.75615: (Sim:0h11m43s) 
CPU  3 inst:    8000000 cyc:    4704743 now IPC :1.64039: AVG IPC :1.61361: L2-Pf-HR :0.76061: L2-HR :0.76669: (Sim:0h13m15s) 
CPU  1 inst:    8000000 cyc:    4710064 now IPC :1.67060: AVG IPC :1.61144: L2-Pf-HR :0.75349: L2-HR :0.75567: (Sim:0h13m16s) 
CPU  0 inst:    8000000 cyc:    4711681 now IPC :1.62385: AVG IPC :1.61076: L2-Pf-HR :0.75802: L2-HR :0.76009: (Sim:0h13m17s) 
CPU  2 inst:    8000000 cyc:    4714632 now IPC :1.67488: AVG IPC :1.60958: L2-Pf-HR :0.75744: L2-HR :0.75804: (Sim:0h13m17s) 
CPU  1 inst:    9000001 cyc:    5318755 now IPC :1.64287: AVG IPC :1.61585: L2-Pf-HR :0.75850: L2-HR :0.75840: (Sim:0h14m52s) 
CPU  2 inst:    9000001 cyc:    5321744 now IPC :1.64714: AVG IPC :1.61484: L2-Pf-HR :0.76257: L2-HR :0.76215: (Sim:0h14m52s) 
CPU  3 inst:    9000001 cyc:    5325167 now IPC :1.61180: AVG IPC :1.61335: L2-Pf-HR :0.76559: L2-HR :0.77098: (Sim:0h14m53s) 
CPU  0 inst:    9000001 cyc:    5327881 now IPC :1.62285: AVG IPC :1.61247: L2-Pf-HR :0.76248: L2-HR :0.76384: (Sim:0h14m53s) 
CPU  2 inst:   10000001 cyc:    5921416 now IPC :1.66758: AVG IPC :1.62125: L2-Pf-HR :0.76922: L2-HR :0.76730: (Sim:0h16m29s) 
CPU  3 inst:   10000001 cyc:    5922790 now IPC :1.67330: AVG IPC :1.62061: L2-Pf-HR :0.77182: L2-HR :0.77611: (Sim:0h16m29s) 
CPU  1 inst:   10000001 cyc:    5925109 now IPC :1.64920: AVG IPC :1.61995: L2-Pf-HR :0.76485: L2-HR :0.76257: (Sim:0h16m30s) 
CPU  0 inst:   10000001 cyc:    5929587 now IPC :1.66194: AVG IPC :1.61850: L2-Pf-HR :0.76871: L2-HR :0.76885: (Sim:0h16m30s) 
CPU  3 inst:   11000002 cyc:    6506176 now IPC :1.71413: AVG IPC :1.63050: L2-Pf-HR :0.77722: L2-HR :0.78037: (Sim:0h18m4s) 
CPU  1 inst:   11000002 cyc:    6520680 now IPC :1.67906: AVG IPC :1.62631: L2-Pf-HR :0.77014: L2-HR :0.76595: (Sim:0h18m6s) 
CPU  0 inst:   11000002 cyc:    6521456 now IPC :1.68956: AVG IPC :1.62610: L2-Pf-HR :0.77285: L2-HR :0.77214: (Sim:0h18m6s) 
CPU  2 inst:   11000002 cyc:    6521653 now IPC :1.66601: AVG IPC :1.62610: L2-Pf-HR :0.77452: L2-HR :0.77126: (Sim:0h18m6s) 
CPU  3 inst:   12000005 cyc:    7020429 now IPC :1.94457: AVG IPC :1.65727: L2-Pf-HR :0.78470: L2-HR :0.78607: (Sim:0h19m35s) 
CPU  0 inst:   12000005 cyc:    7023272 now IPC :1.99277: AVG IPC :1.65658: L2-Pf-HR :0.77914: L2-HR :0.77679: (Sim:0h19m36s) 
CPU  1 inst:   12000005 cyc:    7030114 now IPC :1.96297: AVG IPC :1.65469: L2-Pf-HR :0.77713: L2-HR :0.77070: (Sim:0h19m37s) 
CPU  2 inst:   12000005 cyc:    7034898 now IPC :1.94839: AVG IPC :1.65345: L2-Pf-HR :0.78196: L2-HR :0.77661: (Sim:0h19m38s) 
CPU  3 inst:   13000001 cyc:    8392245 now IPC :0.72896: AVG IPC :1.48530: L2-Pf-HR :0.79290: L2-HR :0.79331: (Sim:0h21m47s) 
CPU  1 inst:   13000001 cyc:    8409155 now IPC :0.72514: AVG IPC :1.48198: L2-Pf-HR :0.78565: L2-HR :0.77928: (Sim:0h21m49s) 
CPU  0 inst:   13000001 cyc:    8416078 now IPC :0.71797: AVG IPC :1.48061: L2-Pf-HR :0.78844: L2-HR :0.78582: (Sim:0h21m50s) 
CPU  2 inst:   13000005 cyc:    8454686 now IPC :0.70433: AVG IPC :1.47300: L2-Pf-HR :0.79036: L2-HR :0.78485: (Sim:0h21m55s) 
CPU  1 inst:   14000001 cyc:    9261399 now IPC :1.17337: AVG IPC :1.45019: L2-Pf-HR :0.79464: L2-HR :0.78959: (Sim:0h23m36s) 
CPU  3 inst:   14000003 cyc:    9274038 now IPC :1.13406: AVG IPC :1.44792: L2-Pf-HR :0.80065: L2-HR :0.80169: (Sim:0h23m37s) 
CPU  0 inst:   14000003 cyc:    9277817 now IPC :1.16045: AVG IPC :1.44733: L2-Pf-HR :0.79745: L2-HR :0.79621: (Sim:0h23m38s) 
CPU  2 inst:   14000002 cyc:    9279037 now IPC :1.21307: AVG IPC :1.44716: L2-Pf-HR :0.79846: L2-HR :0.79430: (Sim:0h23m38s) 
CPU  2 inst:   15000005 cyc:   10114976 now IPC :1.19626: AVG IPC :1.42418: L2-Pf-HR :0.80545: L2-HR :0.80209: (Sim:0h25m23s) 
CPU  3 inst:   15000005 cyc:   10127895 now IPC :1.17116: AVG IPC :1.42207: L2-Pf-HR :0.80709: L2-HR :0.80868: (Sim:0h25m25s) 
CPU  1 inst:   15000005 cyc:   10129244 now IPC :1.15228: AVG IPC :1.42192: L2-Pf-HR :0.80218: L2-HR :0.79833: (Sim:0h25m25s) 
CPU  0 inst:   15000005 cyc:   10132617 now IPC :1.16987: AVG IPC :1.42140: L2-Pf-HR :0.80540: L2-HR :0.80533: (Sim:0h25m25s) 
CPU  1 inst:   16000000 cyc:   10824330 now IPC :1.43866: AVG IPC :1.42310: L2-Pf-HR :0.81017: L2-HR :0.80673: (Sim:0h27m2s) 
CPU  0 inst:   16000000 cyc:   10827244 now IPC :1.43961: AVG IPC :1.42269: L2-Pf-HR :0.81338: L2-HR :0.81386: (Sim:0h27m3s) 
CPU  3 inst:   16000000 cyc:   10840510 now IPC :1.40328: AVG IPC :1.42071: L2-Pf-HR :0.81466: L2-HR :0.81629: (Sim:0h27m5s) 
CPU  2 inst:   16000000 cyc:   10841089 now IPC :1.37719: AVG IPC :1.42072: L2-Pf-HR :0.81268: L2-HR :0.80979: (Sim:0h27m6s) 
CPU  0 inst:   17000001 cyc:   12753119 now IPC :0.51925: AVG IPC :1.27481: L2-Pf-HR :0.81485: L2-HR :0.81404: (Sim:0h29m43s) 
CPU  2 inst:   17000001 cyc:   12761884 now IPC :0.52062: AVG IPC :1.27389: L2-Pf-HR :0.81464: L2-HR :0.81057: (Sim:0h29m43s) 
CPU  3 inst:   17000001 cyc:   12795329 now IPC :0.51156: AVG IPC :1.27021: L2-Pf-HR :0.81621: L2-HR :0.81630: (Sim:0h29m47s) 
CPU  1 inst:   17000001 cyc:   12796235 now IPC :0.50712: AVG IPC :1.27015: L2-Pf-HR :0.81197: L2-HR :0.80747: (Sim:0h29m48s) 
CPU  3 inst:   18000000 cyc:   13690576 now IPC :1.11701: AVG IPC :1.25941: L2-Pf-HR :0.81711: L2-HR :0.81574: (Sim:0h31m39s) 
CPU  0 inst:   18000000 cyc:   13693368 now IPC :1.06355: AVG IPC :1.25918: L2-Pf-HR :0.81582: L2-HR :0.81371: (Sim:0h31m39s) 
CPU  2 inst:   18000000 cyc:   13714580 now IPC :1.04965: AVG IPC :1.25711: L2-Pf-HR :0.81578: L2-HR :0.81061: (Sim:0h31m41s) 
CPU  1 inst:   18000000 cyc:   13728995 now IPC :1.07209: AVG IPC :1.25565: L2-Pf-HR :0.81379: L2-HR :0.80796: (Sim:0h31m43s) 
CPU  3 inst:   19000000 cyc:   14714196 now IPC :0.97693: AVG IPC :1.23835: L2-Pf-HR :0.81803: L2-HR :0.81547: (Sim:0h33m36s) 
CPU  1 inst:   19000001 cyc:   14716634 now IPC :1.01252: AVG IPC :1.23816: L2-Pf-HR :0.81517: L2-HR :0.80834: (Sim:0h33m36s) 
CPU  0 inst:   19000000 cyc:   14721235 now IPC :0.97289: AVG IPC :1.23775: L2-Pf-HR :0.81664: L2-HR :0.81346: (Sim:0h33m36s) 
CPU  2 inst:   19000001 cyc:   14724784 now IPC :0.98990: AVG IPC :1.23746: L2-Pf-HR :0.81701: L2-HR :0.81090: (Sim:0h33m37s) 
CPU  1 inst:   20000004 cyc:   15729843 now IPC :0.98697: AVG IPC :1.22090: L2-Pf-HR :0.81595: L2-HR :0.80839: (Sim:0h35m33s) 
CPU  2 inst:   20000004 cyc:   15735544 now IPC :0.98936: AVG IPC :1.22045: L2-Pf-HR :0.81794: L2-HR :0.81105: (Sim:0h35m33s) 
CPU  3 inst:   20000004 cyc:   15738226 now IPC :0.97654: AVG IPC :1.22017: L2-Pf-HR :0.81872: L2-HR :0.81516: (Sim:0h35m34s) 
CPU  0 inst:   20000004 cyc:   15739462 now IPC :0.98210: AVG IPC :1.22011: L2-Pf-HR :0.81755: L2-HR :0.81336: (Sim:0h35m34s) 
CPU  1 inst:   21000003 cyc:   16777671 now IPC :0.95435: AVG IPC :1.20321: L2-Pf-HR :0.81676: L2-HR :0.80845: (Sim:0h37m33s) 
CPU  3 inst:   21000003 cyc:   16782389 now IPC :0.95770: AVG IPC :1.20282: L2-Pf-HR :0.81929: L2-HR :0.81476: (Sim:0h37m33s) 
CPU  2 inst:   21000003 cyc:   16783103 now IPC :0.95460: AVG IPC :1.20282: L2-Pf-HR :0.81880: L2-HR :0.81119: (Sim:0h37m34s) 
CPU  0 inst:   21000003 cyc:   16789656 now IPC :0.95220: AVG IPC :1.20230: L2-Pf-HR :0.81826: L2-HR :0.81319: (Sim:0h37m34s) 
CPU  2 inst:   22000000 cyc:   17566607 now IPC :1.27631: AVG IPC :1.20630: L2-Pf-HR :0.82052: L2-HR :0.81205: (Sim:0h39m17s) 
CPU  1 inst:   22000000 cyc:   17586145 now IPC :1.23689: AVG IPC :1.20485: L2-Pf-HR :0.81818: L2-HR :0.80901: (Sim:0h39m20s) 
CPU  3 inst:   22000000 cyc:   17604910 now IPC :1.21577: AVG IPC :1.20346: L2-Pf-HR :0.82033: L2-HR :0.81488: (Sim:0h39m24s) 
CPU  0 inst:   22000000 cyc:   17605494 now IPC :1.22573: AVG IPC :1.20345: L2-Pf-HR :0.81943: L2-HR :0.81348: (Sim:0h39m24s) 
CPU  2 inst:   23000005 cyc:   19294963 now IPC :0.57859: AVG IPC :1.14704: L2-Pf-HR :0.82127: L2-HR :0.81221: (Sim:0h41m53s) 
CPU  3 inst:   23000005 cyc:   19300930 now IPC :0.58962: AVG IPC :1.14661: L2-Pf-HR :0.82100: L2-HR :0.81486: (Sim:0h41m53s) 
CPU  0 inst:   23000005 cyc:   19307481 now IPC :0.58755: AVG IPC :1.14624: L2-Pf-HR :0.82021: L2-HR :0.81353: (Sim:0h41m54s) 
CPU  1 inst:   23000005 cyc:   19308181 now IPC :0.58071: AVG IPC :1.14619: L2-Pf-HR :0.81873: L2-HR :0.80899: (Sim:0h41m54s) 
CPU  0 inst:   24000002 cyc:   20134410 now IPC :1.20929: AVG IPC :1.14896: L2-Pf-HR :0.82075: L2-HR :0.81359: (Sim:0h43m40s) 
CPU  2 inst:   24000002 cyc:   20135188 now IPC :1.19015: AVG IPC :1.14893: L2-Pf-HR :0.82200: L2-HR :0.81252: (Sim:0h43m40s) 
CPU  3 inst:   24000002 cyc:   20142202 now IPC :1.18867: AVG IPC :1.14846: L2-Pf-HR :0.82117: L2-HR :0.81475: (Sim:0h43m42s) 
CPU  1 inst:   24000002 cyc:   20150890 now IPC :1.18665: AVG IPC :1.14797: L2-Pf-HR :0.81959: L2-HR :0.80923: (Sim:0h43m43s) 
CPU  0 inst:   25000001 cyc:   21001165 now IPC :1.15373: AVG IPC :1.14917: L2-Pf-HR :0.82140: L2-HR :0.81385: (Sim:0h45m28s) 
CPU  1 inst:   25000002 cyc:   21006388 now IPC :1.16891: AVG IPC :1.14886: L2-Pf-HR :0.82008: L2-HR :0.80936: (Sim:0h45m29s) 
CPU  2 inst:   25000000 cyc:   21007100 now IPC :1.14690: AVG IPC :1.14884: L2-Pf-HR :0.82251: L2-HR :0.81277: (Sim:0h45m29s) 
CPU  3 inst:   25000002 cyc:   21038057 now IPC :1.11625: AVG IPC :1.14702: L2-Pf-HR :0.82127: L2-HR :0.81469: (Sim:0h45m33s) 
CPU  0 inst:   26000004 cyc:   21858003 now IPC :1.16709: AVG IPC :1.14990: L2-Pf-HR :0.82201: L2-HR :0.81400: (Sim:0h47m17s) 
CPU  2 inst:   26000004 cyc:   21869487 now IPC :1.15958: AVG IPC :1.14929: L2-Pf-HR :0.82316: L2-HR :0.81309: (Sim:0h47m19s) 
CPU  3 inst:   26000004 cyc:   21875917 now IPC :1.19352: AVG IPC :1.14889: L2-Pf-HR :0.82170: L2-HR :0.81483: (Sim:0h47m20s) 
CPU  1 inst:   26000005 cyc:   21885500 now IPC :1.13751: AVG IPC :1.14838: L2-Pf-HR :0.82054: L2-HR :0.80946: (Sim:0h47m21s) 
CPU  0 inst:   27000005 cyc:   22777761 now IPC :1.08724: AVG IPC :1.14726: L2-Pf-HR :0.82253: L2-HR :0.81426: (Sim:0h49m10s) 
CPU  3 inst:   27000005 cyc:   22779232 now IPC :1.10703: AVG IPC :1.14715: L2-Pf-HR :0.82185: L2-HR :0.81485: (Sim:0h49m10s) 
CPU  1 inst:   27000005 cyc:   22779951 now IPC :1.11800: AVG IPC :1.14714: L2-Pf-HR :0.82070: L2-HR :0.80942: (Sim:0h49m10s) 
CPU  2 inst:   27000005 cyc:   22780565 now IPC :1.09760: AVG IPC :1.14712: L2-Pf-HR :0.82337: L2-HR :0.81320: (Sim:0h49m10s) 
CPU  3 inst:   28000003 cyc:   23383975 now IPC :1.65359: AVG IPC :1.16083: L2-Pf-HR :0.82226: L2-HR :0.81493: (Sim:0h50m45s) 
CPU  0 inst:   28000003 cyc:   23390471 now IPC :1.63209: AVG IPC :1.16052: L2-Pf-HR :0.82324: L2-HR :0.81465: (Sim:0h50m46s) 
CPU  1 inst:   28000003 cyc:   23394562 now IPC :1.62704: AVG IPC :1.16030: L2-Pf-HR :0.82136: L2-HR :0.80967: (Sim:0h50m47s) 
CPU  2 inst:   28000003 cyc:   23398874 now IPC :1.61731: AVG IPC :1.16010: L2-Pf-HR :0.82428: L2-HR :0.81373: (Sim:0h50m48s) 
CPU  3 inst:   29000002 cyc:   24697326 now IPC :0.76141: AVG IPC :1.13870: L2-Pf-HR :0.82394: L2-HR :0.81665: (Sim:0h51m53s) 
CPU  0 inst:   29000002 cyc:   24697912 now IPC :0.76485: AVG IPC :1.13870: L2-Pf-HR :0.82483: L2-HR :0.81644: (Sim:0h51m53s) 
CPU  2 inst:   29000002 cyc:   24707512 now IPC :0.76415: AVG IPC :1.13825: L2-Pf-HR :0.82585: L2-HR :0.81548: (Sim:0h51m54s) 
CPU  1 inst:   29000002 cyc:   24734099 now IPC :0.74653: AVG IPC :1.13696: L2-Pf-HR :0.82299: L2-HR :0.81153: (Sim:0h51m56s) 
CPU  0 inst:   30000005 cyc:   25522161 now IPC :1.21323: AVG IPC :1.14120: L2-Pf-HR :0.82762: L2-HR :0.81996: (Sim:0h52m49s) 
CPU  1 inst:   30000003 cyc:   25530551 now IPC :1.25557: AVG IPC :1.14081: L2-Pf-HR :0.82564: L2-HR :0.81506: (Sim:0h52m49s) 
CPU  2 inst:   30000004 cyc:   25532717 now IPC :1.21182: AVG IPC :1.14073: L2-Pf-HR :0.82830: L2-HR :0.81869: (Sim:0h52m49s) 
CPU  3 inst:   30000002 cyc:   25537164 now IPC :1.19071: AVG IPC :1.14048: L2-Pf-HR :0.82635: L2-HR :0.81959: (Sim:0h52m50s) 
CPU  3 inst:   31000005 cyc:   26442419 now IPC :1.10466: AVG IPC :1.13921: L2-Pf-HR :0.82850: L2-HR :0.82232: (Sim:0h53m47s) 
CPU  0 inst:   31000005 cyc:   26453260 now IPC :1.07400: AVG IPC :1.13875: L2-Pf-HR :0.83003: L2-HR :0.82307: (Sim:0h53m47s) 
CPU  1 inst:   31000004 cyc:   26455023 now IPC :1.08170: AVG IPC :1.13866: L2-Pf-HR :0.82798: L2-HR :0.81836: (Sim:0h53m47s) 
CPU  2 inst:   31000005 cyc:   26458254 now IPC :1.08045: AVG IPC :1.13854: L2-Pf-HR :0.83050: L2-HR :0.82161: (Sim:0h53m48s) 
CPU  2 inst:   32000000 cyc:   27219211 now IPC :1.31413: AVG IPC :1.14363: L2-Pf-HR :0.83298: L2-HR :0.82469: (Sim:0h54m41s) 
CPU  1 inst:   32000003 cyc:   27228461 now IPC :1.29293: AVG IPC :1.14321: L2-Pf-HR :0.83080: L2-HR :0.82187: (Sim:0h54m41s) 
CPU  3 inst:   32000000 cyc:   27229883 now IPC :1.26989: AVG IPC :1.14313: L2-Pf-HR :0.83105: L2-HR :0.82532: (Sim:0h54m41s) 
CPU  0 inst:   32000001 cyc:   27235493 now IPC :1.27839: AVG IPC :1.14291: L2-Pf-HR :0.83255: L2-HR :0.82619: (Sim:0h54m42s) 
CPU  2 inst:   33000005 cyc:   28985626 now IPC :0.56612: AVG IPC :1.10720: L2-Pf-HR :0.83397: L2-HR :0.82535: (Sim:0h55m59s) 
CPU  3 inst:   33000001 cyc:   28993370 now IPC :0.56706: AVG IPC :1.10686: L2-Pf-HR :0.83186: L2-HR :0.82571: (Sim:0h55m59s) 
CPU  1 inst:   33000005 cyc:   28998445 now IPC :0.56498: AVG IPC :1.10667: L2-Pf-HR :0.83200: L2-HR :0.82275: (Sim:0h56m0s) 
CPU  0 inst:   33000001 cyc:   29007930 now IPC :0.56419: AVG IPC :1.10630: L2-Pf-HR :0.83371: L2-HR :0.82700: (Sim:0h56m0s) 
CPU  2 inst:   34000002 cyc:   30027234 now IPC :0.96005: AVG IPC :1.10192: L2-Pf-HR :0.83397: L2-HR :0.82491: (Sim:0h57m1s) 
CPU  3 inst:   34000002 cyc:   30029744 now IPC :0.96490: AVG IPC :1.10179: L2-Pf-HR :0.83156: L2-HR :0.82501: (Sim:0h57m1s) 
CPU  1 inst:   34000002 cyc:   30048452 now IPC :0.95237: AVG IPC :1.10110: L2-Pf-HR :0.83205: L2-HR :0.82241: (Sim:0h57m3s) 
CPU  0 inst:   34000002 cyc:   30053257 now IPC :0.95664: AVG IPC :1.10092: L2-Pf-HR :0.83381: L2-HR :0.82669: (Sim:0h57m3s) 
CPU  2 inst:   35000005 cyc:   31054322 now IPC :0.97363: AVG IPC :1.09754: L2-Pf-HR :0.83392: L2-HR :0.82446: (Sim:0h58m3s) 
CPU  0 inst:   35000005 cyc:   31065077 now IPC :0.98832: AVG IPC :1.09713: L2-Pf-HR :0.83392: L2-HR :0.82641: (Sim:0h58m4s) 
CPU  1 inst:   35000004 cyc:   31072643 now IPC :0.97638: AVG IPC :1.09685: L2-Pf-HR :0.83200: L2-HR :0.82203: (Sim:0h58m4s) 
CPU  3 inst:   35000005 cyc:   31096325 now IPC :0.93758: AVG IPC :1.09597: L2-Pf-HR :0.83142: L2-HR :0.82448: (Sim:0h58m6s) 
CPU  0 inst:   36000004 cyc:   32083310 now IPC :0.98209: AVG IPC :1.09336: L2-Pf-HR :0.83380: L2-HR :0.82597: (Sim:0h59m11s) 
CPU  1 inst:   36000004 cyc:   32084700 now IPC :0.98809: AVG IPC :1.09331: L2-Pf-HR :0.83195: L2-HR :0.82164: (Sim:0h59m11s) 
CPU  2 inst:   36000004 cyc:   32088718 now IPC :0.96675: AVG IPC :1.09319: L2-Pf-HR :0.83375: L2-HR :0.82393: (Sim:0h59m11s) 
CPU  3 inst:   36000004 cyc:   32100964 now IPC :0.99538: AVG IPC :1.09273: L2-Pf-HR :0.83112: L2-HR :0.82385: (Sim:0h59m13s) 
CPU  0 inst:   37000000 cyc:   33174217 now IPC :0.91666: AVG IPC :1.08738: L2-Pf-HR :0.83372: L2-HR :0.82555: (Sim:1h0m43s) 
CPU  3 inst:   37000000 cyc:   33189886 now IPC :0.91834: AVG IPC :1.08683: L2-Pf-HR :0.83076: L2-HR :0.82316: (Sim:1h0m44s) 
CPU  2 inst:   37000000 cyc:   33227371 now IPC :0.87823: AVG IPC :1.08559: L2-Pf-HR :0.83362: L2-HR :0.82343: (Sim:1h0m47s) 
CPU  1 inst:   37000000 cyc:   33228662 now IPC :0.87415: AVG IPC :1.08554: L2-Pf-HR :0.83167: L2-HR :0.82112: (Sim:1h0m47s) 
CPU  2 inst:   38000001 cyc:   34042188 now IPC :1.22727: AVG IPC :1.08909: L2-Pf-HR :0.83369: L2-HR :0.82308: (Sim:1h1m41s) 
CPU  0 inst:   38000001 cyc:   34048674 now IPC :1.14357: AVG IPC :1.08886: L2-Pf-HR :0.83374: L2-HR :0.82523: (Sim:1h1m42s) 
CPU  3 inst:   38000001 cyc:   34049984 now IPC :1.16266: AVG IPC :1.08880: L2-Pf-HR :0.83055: L2-HR :0.82265: (Sim:1h1m42s) 
CPU  1 inst:   38000001 cyc:   34050199 now IPC :1.21723: AVG IPC :1.08881: L2-Pf-HR :0.83165: L2-HR :0.82073: (Sim:1h1m42s) 
CPU  2 inst:   39000003 cyc:   35549692 now IPC :0.66335: AVG IPC :1.07052: L2-Pf-HR :0.83360: L2-HR :0.82264: (Sim:1h2m53s) 
CPU  3 inst:   39000003 cyc:   35618768 now IPC :0.63744: AVG IPC :1.06836: L2-Pf-HR :0.83054: L2-HR :0.82233: (Sim:1h2m57s) 
CPU  1 inst:   39000003 cyc:   35622008 now IPC :0.63621: AVG IPC :1.06827: L2-Pf-HR :0.83155: L2-HR :0.82033: (Sim:1h2m57s) 
CPU  0 inst:   39000003 cyc:   35637664 now IPC :0.62933: AVG IPC :1.06779: L2-Pf-HR :0.83368: L2-HR :0.82480: (Sim:1h2m58s) 
CPU  2 inst:   40000002 cyc:   36489306 now IPC :1.06427: AVG IPC :1.07035: L2-Pf-HR :0.83360: L2-HR :0.82240: (Sim:1h3m52s) 
CPU  3 inst:   40000002 cyc:   36491201 now IPC :1.14622: AVG IPC :1.07027: L2-Pf-HR :0.83045: L2-HR :0.82234: (Sim:1h3m52s) 
CPU  0 inst:   40000002 cyc:   36499469 now IPC :1.16035: AVG IPC :1.07004: L2-Pf-HR :0.83336: L2-HR :0.82440: (Sim:1h3m53s) 
CPU  1 inst:   40000002 cyc:   36500187 now IPC :1.13872: AVG IPC :1.07001: L2-Pf-HR :0.83148: L2-HR :0.82009: (Sim:1h3m53s) 
CPU  0 inst:   41000000 cyc:   37336805 now IPC :1.19426: AVG IPC :1.07290: L2-Pf-HR :0.83313: L2-HR :0.82403: (Sim:1h5m1s) 
CPU  1 inst:   41000000 cyc:   37339251 now IPC :1.19180: AVG IPC :1.07282: L2-Pf-HR :0.83140: L2-HR :0.81978: (Sim:1h5m2s) 
CPU  2 inst:   41000003 cyc:   37363337 now IPC :1.14413: AVG IPC :1.07212: L2-Pf-HR :0.83356: L2-HR :0.82209: (Sim:1h5m5s) 
CPU  3 inst:   41000000 cyc:   37376147 now IPC :1.13001: AVG IPC :1.07172: L2-Pf-HR :0.83049: L2-HR :0.82240: (Sim:1h5m6s) 
CPU  1 inst:   42000003 cyc:   38173704 now IPC :1.19839: AVG IPC :1.07564: L2-Pf-HR :0.83135: L2-HR :0.81957: (Sim:1h6m47s) 
CPU  0 inst:   42000004 cyc:   38177708 now IPC :1.18920: AVG IPC :1.07553: L2-Pf-HR :0.83286: L2-HR :0.82368: (Sim:1h6m48s) 
CPU  3 inst:   42000003 cyc:   38184186 now IPC :1.23757: AVG IPC :1.07532: L2-Pf-HR :0.83016: L2-HR :0.82223: (Sim:1h6m49s) 
CPU  2 inst:   42000005 cyc:   38208213 now IPC :1.18361: AVG IPC :1.07465: L2-Pf-HR :0.83353: L2-HR :0.82187: (Sim:1h6m52s) 
CPU  1 inst:   43000005 cyc:   39046357 now IPC :1.14593: AVG IPC :1.07725: L2-Pf-HR :0.83114: L2-HR :0.81925: (Sim:1h8m40s) 
CPU  3 inst:   43000000 cyc:   39047181 now IPC :1.15875: AVG IPC :1.07722: L2-Pf-HR :0.82994: L2-HR :0.82212: (Sim:1h8m41s) 
CPU  0 inst:   43000003 cyc:   39069349 now IPC :1.12153: AVG IPC :1.07660: L2-Pf-HR :0.83262: L2-HR :0.82332: (Sim:1h8m43s) 
CPU  2 inst:   43000005 cyc:   39069996 now IPC :1.16038: AVG IPC :1.07659: L2-Pf-HR :0.83346: L2-HR :0.82161: (Sim:1h8m43s) 
CPU  1 inst:   44000001 cyc:   39725282 now IPC :1.47291: AVG IPC :1.08419: L2-Pf-HR :0.83107: L2-HR :0.81904: (Sim:1h10m23s) 
CPU  0 inst:   44000001 cyc:   39748399 now IPC :1.47264: AVG IPC :1.08354: L2-Pf-HR :0.83260: L2-HR :0.82315: (Sim:1h10m27s) 
CPU  3 inst:   44000001 cyc:   39750135 now IPC :1.42257: AVG IPC :1.08348: L2-Pf-HR :0.82998: L2-HR :0.82215: (Sim:1h10m28s) 
CPU  2 inst:   44000001 cyc:   39751922 now IPC :1.46643: AVG IPC :1.08345: L2-Pf-HR :0.83356: L2-HR :0.82144: (Sim:1h10m28s) 
CPU  1 inst:   45000005 cyc:   40901599 now IPC :0.85011: AVG IPC :1.07729: L2-Pf-HR :0.83178: L2-HR :0.81968: (Sim:1h12m31s) 
CPU  3 inst:   45000005 cyc:   40967449 now IPC :0.82148: AVG IPC :1.07550: L2-Pf-HR :0.83084: L2-HR :0.82294: (Sim:1h12m39s) 
CPU  0 inst:   45000005 cyc:   40968109 now IPC :0.81987: AVG IPC :1.07550: L2-Pf-HR :0.83326: L2-HR :0.82378: (Sim:1h12m39s) 
CPU  2 inst:   45000005 cyc:   40988284 now IPC :0.80883: AVG IPC :1.07496: L2-Pf-HR :0.83431: L2-HR :0.82213: (Sim:1h12m42s) 
CPU  1 inst:   46000005 cyc:   41748099 now IPC :1.18133: AVG IPC :1.07945: L2-Pf-HR :0.83289: L2-HR :0.82121: (Sim:1h14m23s) 
CPU  2 inst:   46000005 cyc:   41777705 now IPC :1.26675: AVG IPC :1.07868: L2-Pf-HR :0.83569: L2-HR :0.82413: (Sim:1h14m26s) 
CPU  0 inst:   46000005 cyc:   41781674 now IPC :1.22916: AVG IPC :1.07856: L2-Pf-HR :0.83461: L2-HR :0.82559: (Sim:1h14m27s) 
CPU  3 inst:   46000005 cyc:   41789536 now IPC :1.21642: AVG IPC :1.07834: L2-Pf-HR :0.83218: L2-HR :0.82467: (Sim:1h14m28s) 
CPU  2 inst:   47000003 cyc:   42620572 now IPC :1.18642: AVG IPC :1.08086: L2-Pf-HR :0.83707: L2-HR :0.82611: (Sim:1h16m12s) 
CPU  3 inst:   47000003 cyc:   42630156 now IPC :1.18960: AVG IPC :1.08059: L2-Pf-HR :0.83353: L2-HR :0.82638: (Sim:1h16m14s) 
CPU  0 inst:   47000002 cyc:   42643256 now IPC :1.16065: AVG IPC :1.08026: L2-Pf-HR :0.83599: L2-HR :0.82739: (Sim:1h16m15s) 
CPU  1 inst:   47000002 cyc:   42652215 now IPC :1.10605: AVG IPC :1.08003: L2-Pf-HR :0.83395: L2-HR :0.82271: (Sim:1h16m16s) 
CPU  3 inst:   48000002 cyc:   43450449 now IPC :1.21908: AVG IPC :1.08326: L2-Pf-HR :0.83485: L2-HR :0.82798: (Sim:1h18m2s) 
CPU  2 inst:   48000002 cyc:   43455559 now IPC :1.19762: AVG IPC :1.08315: L2-Pf-HR :0.83854: L2-HR :0.82806: (Sim:1h18m3s) 
CPU  1 inst:   48000002 cyc:   43455723 now IPC :1.24454: AVG IPC :1.08314: L2-Pf-HR :0.83509: L2-HR :0.82420: (Sim:1h18m3s) 
CPU  0 inst:   48000002 cyc:   43458388 now IPC :1.22680: AVG IPC :1.08307: L2-Pf-HR :0.83734: L2-HR :0.82910: (Sim:1h18m4s) 
CPU  3 inst:   49000002 cyc:   45090987 now IPC :0.60956: AVG IPC :1.06564: L2-Pf-HR :0.83550: L2-HR :0.82846: (Sim:1h20m34s) 
CPU  2 inst:   49000002 cyc:   45141085 now IPC :0.59329: AVG IPC :1.06445: L2-Pf-HR :0.83928: L2-HR :0.82875: (Sim:1h20m39s) 
CPU  1 inst:   49000002 cyc:   45146380 now IPC :0.59149: AVG IPC :1.06432: L2-Pf-HR :0.83577: L2-HR :0.82475: (Sim:1h20m40s) 
CPU  0 inst:   49000002 cyc:   45171515 now IPC :0.58373: AVG IPC :1.06371: L2-Pf-HR :0.83809: L2-HR :0.82970: (Sim:1h20m43s) 
CPU  2 inst:   50000003 cyc:   46149431 now IPC :0.99172: AVG IPC :1.06283: L2-Pf-HR :0.83912: L2-HR :0.82837: (Sim:1h22m40s) 
CPU  1 inst:   50000003 cyc:   46156722 now IPC :0.98976: AVG IPC :1.06265: L2-Pf-HR :0.83564: L2-HR :0.82441: (Sim:1h22m41s) 
CPU  3 inst:   50000003 cyc:   46159283 now IPC :0.93607: AVG IPC :1.06258: L2-Pf-HR :0.83533: L2-HR :0.82811: (Sim:1h22m41s) 
CPU  0 inst:   50000003 cyc:   46166848 now IPC :1.00469: AVG IPC :1.06241: L2-Pf-HR :0.83789: L2-HR :0.82927: (Sim:1h22m42s) 
CPU  3 inst:   51000004 cyc:   47181147 now IPC :0.97860: AVG IPC :1.06072: L2-Pf-HR :0.83526: L2-HR :0.82783: (Sim:1h24m43s) 
CPU  1 inst:   51000004 cyc:   47193136 now IPC :0.96487: AVG IPC :1.06045: L2-Pf-HR :0.83555: L2-HR :0.82413: (Sim:1h24m44s) 
CPU  2 inst:   51000004 cyc:   47205452 now IPC :0.94695: AVG IPC :1.06018: L2-Pf-HR :0.83896: L2-HR :0.82799: (Sim:1h24m46s) 
CPU  0 inst:   51000004 cyc:   47206136 now IPC :0.96220: AVG IPC :1.06016: L2-Pf-HR :0.83775: L2-HR :0.82887: (Sim:1h24m46s) 
CPU  1 inst:   52000001 cyc:   48217446 now IPC :0.97626: AVG IPC :1.05863: L2-Pf-HR :0.83557: L2-HR :0.82392: (Sim:1h26m47s) 
CPU  0 inst:   52000005 cyc:   48218200 now IPC :0.98808: AVG IPC :1.05861: L2-Pf-HR :0.83763: L2-HR :0.82855: (Sim:1h26m47s) 
CPU  3 inst:   52000005 cyc:   48226568 now IPC :0.95655: AVG IPC :1.05841: L2-Pf-HR :0.83515: L2-HR :0.82753: (Sim:1h26m49s) 
CPU  2 inst:   52000000 cyc:   48230530 now IPC :0.97553: AVG IPC :1.05834: L2-Pf-HR :0.83889: L2-HR :0.82773: (Sim:1h26m49s) 
CPU  1 inst:   53000003 cyc:   49230542 now IPC :0.98708: AVG IPC :1.05713: L2-Pf-HR :0.83553: L2-HR :0.82365: (Sim:1h28m47s) 
CPU  0 inst:   53000003 cyc:   49231645 now IPC :0.98673: AVG IPC :1.05710: L2-Pf-HR :0.83764: L2-HR :0.82831: (Sim:1h28m47s) 
CPU  3 inst:   53000003 cyc:   49293356 now IPC :0.93739: AVG IPC :1.05574: L2-Pf-HR :0.83504: L2-HR :0.82722: (Sim:1h28m54s) 
CPU  2 inst:   53000003 cyc:   49307995 now IPC :0.92811: AVG IPC :1.05544: L2-Pf-HR :0.83898: L2-HR :0.82755: (Sim:1h28m56s) 
CPU  1 inst:   54000001 cyc:   50206686 now IPC :1.02444: AVG IPC :1.05648: L2-Pf-HR :0.83544: L2-HR :0.82336: (Sim:1h30m49s) 
CPU  2 inst:   54000001 cyc:   50209909 now IPC :1.10875: AVG IPC :1.05642: L2-Pf-HR :0.83896: L2-HR :0.82731: (Sim:1h30m49s) 
CPU  3 inst:   54000001 cyc:   50214127 now IPC :1.08604: AVG IPC :1.05631: L2-Pf-HR :0.83496: L2-HR :0.82693: (Sim:1h30m50s) 
CPU  0 inst:   54000001 cyc:   50214156 now IPC :1.01780: AVG IPC :1.05632: L2-Pf-HR :0.83746: L2-HR :0.82798: (Sim:1h30m50s) 
CPU  2 inst:   55000002 cyc:   51726647 now IPC :0.65931: AVG IPC :1.04455: L2-Pf-HR :0.83885: L2-HR :0.82696: (Sim:1h33m18s) 
CPU  0 inst:   55000002 cyc:   51744107 now IPC :0.65362: AVG IPC :1.04418: L2-Pf-HR :0.83737: L2-HR :0.82767: (Sim:1h33m20s) 
CPU  3 inst:   55000002 cyc:   51744714 now IPC :0.65334: AVG IPC :1.04416: L2-Pf-HR :0.83497: L2-HR :0.82667: (Sim:1h33m20s) 
CPU  1 inst:   55000001 cyc:   51755068 now IPC :0.64584: AVG IPC :1.04395: L2-Pf-HR :0.83538: L2-HR :0.82309: (Sim:1h33m21s) 
CPU  1 inst:   56000001 cyc:   52625144 now IPC :1.14932: AVG IPC :1.04573: L2-Pf-HR :0.83520: L2-HR :0.82282: (Sim:1h35m11s) 
CPU  2 inst:   56000001 cyc:   52644304 now IPC :1.08973: AVG IPC :1.04535: L2-Pf-HR :0.83874: L2-HR :0.82669: (Sim:1h35m13s) 
CPU  3 inst:   56000001 cyc:   52662664 now IPC :1.08938: AVG IPC :1.04496: L2-Pf-HR :0.83490: L2-HR :0.82650: (Sim:1h35m15s) 
CPU  0 inst:   56000001 cyc:   52720368 now IPC :1.02432: AVG IPC :1.04381: L2-Pf-HR :0.83719: L2-HR :0.82738: (Sim:1h35m24s) 
CPU  3 inst:   57000001 cyc:   53579192 now IPC :1.09107: AVG IPC :1.04576: L2-Pf-HR :0.83484: L2-HR :0.82634: (Sim:1h37m8s) 
CPU  1 inst:   57000001 cyc:   53587446 now IPC :1.03917: AVG IPC :1.04561: L2-Pf-HR :0.83502: L2-HR :0.82259: (Sim:1h37m9s) 
CPU  2 inst:   57000001 cyc:   53591136 now IPC :1.05615: AVG IPC :1.04554: L2-Pf-HR :0.83869: L2-HR :0.82650: (Sim:1h37m9s) 
CPU  0 inst:   57000001 cyc:   53663711 now IPC :1.06006: AVG IPC :1.04410: L2-Pf-HR :0.83713: L2-HR :0.82719: (Sim:1h37m19s) 
CPU  2 inst:   58000000 cyc:   54405518 now IPC :1.22792: AVG IPC :1.04832: L2-Pf-HR :0.83861: L2-HR :0.82627: (Sim:1h38m57s) 
CPU  1 inst:   58000000 cyc:   54438365 now IPC :1.17520: AVG IPC :1.04767: L2-Pf-HR :0.83484: L2-HR :0.82228: (Sim:1h39m1s) 
CPU  3 inst:   58000000 cyc:   54441729 now IPC :1.15937: AVG IPC :1.04760: L2-Pf-HR :0.83472: L2-HR :0.82611: (Sim:1h39m2s) 
CPU  0 inst:   58000000 cyc:   54473041 now IPC :1.23559: AVG IPC :1.04699: L2-Pf-HR :0.83695: L2-HR :0.82688: (Sim:1h39m6s) 
CPU  2 inst:   59000000 cyc:   55279869 now IPC :1.14371: AVG IPC :1.04986: L2-Pf-HR :0.83846: L2-HR :0.82602: (Sim:1h40m53s) 
CPU  1 inst:   59000000 cyc:   55281849 now IPC :1.18556: AVG IPC :1.04981: L2-Pf-HR :0.83471: L2-HR :0.82207: (Sim:1h40m53s) 
CPU  0 inst:   59000002 cyc:   55289524 now IPC :1.22477: AVG IPC :1.04967: L2-Pf-HR :0.83678: L2-HR :0.82661: (Sim:1h40m54s) 
CPU  3 inst:   59000000 cyc:   55302222 now IPC :1.16212: AVG IPC :1.04941: L2-Pf-HR :0.83466: L2-HR :0.82594: (Sim:1h40m56s) 
CPU  1 inst:   60000004 cyc:   56016362 now IPC :1.36145: AVG IPC :1.05397: L2-Pf-HR :0.83473: L2-HR :0.82194: (Sim:1h42m38s) 
CPU  3 inst:   60000004 cyc:   56025602 now IPC :1.38240: AVG IPC :1.05379: L2-Pf-HR :0.83469: L2-HR :0.82586: (Sim:1h42m40s) 
CPU  2 inst:   60000004 cyc:   56031614 now IPC :1.33024: AVG IPC :1.05369: L2-Pf-HR :0.83845: L2-HR :0.82586: (Sim:1h42m41s) 
CPU  0 inst:   60000003 cyc:   56046815 now IPC :1.32050: AVG IPC :1.05339: L2-Pf-HR :0.83673: L2-HR :0.82642: (Sim:1h42m43s) 
CPU  1 inst:   61000005 cyc:   57173162 now IPC :0.86445: AVG IPC :1.05007: L2-Pf-HR :0.83499: L2-HR :0.82213: (Sim:1h44m45s) 
CPU  3 inst:   61000005 cyc:   57202486 now IPC :0.84970: AVG IPC :1.04952: L2-Pf-HR :0.83507: L2-HR :0.82614: (Sim:1h44m49s) 
CPU  0 inst:   61000005 cyc:   57233371 now IPC :0.84278: AVG IPC :1.04895: L2-Pf-HR :0.83703: L2-HR :0.82660: (Sim:1h44m52s) 
CPU  2 inst:   61000005 cyc:   57242267 now IPC :0.82600: AVG IPC :1.04879: L2-Pf-HR :0.83857: L2-HR :0.82592: (Sim:1h44m53s) 
CPU  1 inst:   62000003 cyc:   58035884 now IPC :1.15912: AVG IPC :1.05172: L2-Pf-HR :0.83584: L2-HR :0.82332: (Sim:1h46m34s) 
CPU  0 inst:   62000003 cyc:   58079166 now IPC :1.18232: AVG IPC :1.05093: L2-Pf-HR :0.83785: L2-HR :0.82773: (Sim:1h46m38s) 
CPU  3 inst:   62000003 cyc:   58086755 now IPC :1.13088: AVG IPC :1.05078: L2-Pf-HR :0.83609: L2-HR :0.82753: (Sim:1h46m40s) 
CPU  2 inst:   62000000 cyc:   58087623 now IPC :1.18293: AVG IPC :1.05078: L2-Pf-HR :0.83931: L2-HR :0.82693: (Sim:1h46m40s) 
CPU  2 inst:   63000001 cyc:   58926621 now IPC :1.19190: AVG IPC :1.05282: L2-Pf-HR :0.84002: L2-HR :0.82792: (Sim:1h48m18s) 
CPU  1 inst:   63000001 cyc:   58950828 now IPC :1.09296: AVG IPC :1.05237: L2-Pf-HR :0.83665: L2-HR :0.82445: (Sim:1h48m20s) 
CPU  0 inst:   63000001 cyc:   59013164 now IPC :1.07066: AVG IPC :1.05124: L2-Pf-HR :0.83871: L2-HR :0.82892: (Sim:1h48m28s) 
CPU  3 inst:   63000001 cyc:   59013931 now IPC :1.07854: AVG IPC :1.05122: L2-Pf-HR :0.83708: L2-HR :0.82888: (Sim:1h48m28s) 
CPU  2 inst:   64000001 cyc:   59860250 now IPC :1.07109: AVG IPC :1.05311: L2-Pf-HR :0.84076: L2-HR :0.82889: (Sim:1h50m6s) 
CPU  0 inst:   64000001 cyc:   59877831 now IPC :1.15651: AVG IPC :1.05279: L2-Pf-HR :0.83953: L2-HR :0.83006: (Sim:1h50m8s) 
CPU  1 inst:   64000001 cyc:   59879286 now IPC :1.07705: AVG IPC :1.05276: L2-Pf-HR :0.83751: L2-HR :0.82557: (Sim:1h50m9s) 
CPU  3 inst:   64000001 cyc:   59886544 now IPC :1.14598: AVG IPC :1.05262: L2-Pf-HR :0.83810: L2-HR :0.83022: (Sim:1h50m10s) 
CPU  0 inst:   65000002 cyc:   61418823 now IPC :0.64893: AVG IPC :1.04249: L2-Pf-HR :0.84025: L2-HR :0.83073: (Sim:1h52m25s) 
CPU  2 inst:   65000002 cyc:   61425735 now IPC :0.63878: AVG IPC :1.04238: L2-Pf-HR :0.84116: L2-HR :0.82926: (Sim:1h52m26s) 
CPU  3 inst:   65000002 cyc:   61428293 now IPC :0.64861: AVG IPC :1.04232: L2-Pf-HR :0.83890: L2-HR :0.83097: (Sim:1h52m26s) 
CPU  1 inst:   65000002 cyc:   61433500 now IPC :0.64341: AVG IPC :1.04224: L2-Pf-HR :0.83814: L2-HR :0.82618: (Sim:1h52m27s) 
CPU  2 inst:   66000002 cyc:   62478212 now IPC :0.95014: AVG IPC :1.04080: L2-Pf-HR :0.84093: L2-HR :0.82887: (Sim:1h54m20s) 
CPU  0 inst:   66000001 cyc:   62478800 now IPC :0.94342: AVG IPC :1.04078: L2-Pf-HR :0.84020: L2-HR :0.83053: (Sim:1h54m20s) 
CPU  1 inst:   66000001 cyc:   62519612 now IPC :0.92071: AVG IPC :1.04009: L2-Pf-HR :0.83815: L2-HR :0.82606: (Sim:1h54m26s) 
CPU  3 inst:   66000002 cyc:   62521609 now IPC :0.91465: AVG IPC :1.04005: L2-Pf-HR :0.83880: L2-HR :0.83068: (Sim:1h54m26s) 
CPU  1 inst:   67000001 cyc:   63468295 now IPC :1.05409: AVG IPC :1.04030: L2-Pf-HR :0.83827: L2-HR :0.82602: (Sim:1h55m54s) 
CPU  3 inst:   67000001 cyc:   63476700 now IPC :1.04702: AVG IPC :1.04016: L2-Pf-HR :0.83890: L2-HR :0.83053: (Sim:1h55m55s) 
CPU  0 inst:   67000001 cyc:   63495295 now IPC :0.98377: AVG IPC :1.03986: L2-Pf-HR :0.84036: L2-HR :0.83046: (Sim:1h55m56s) 
CPU  2 inst:   67000001 cyc:   63506032 now IPC :0.97293: AVG IPC :1.03968: L2-Pf-HR :0.84084: L2-HR :0.82860: (Sim:1h55m57s) 
CPU  2 inst:   68000005 cyc:   64502232 now IPC :1.00382: AVG IPC :1.03912: L2-Pf-HR :0.84068: L2-HR :0.82830: (Sim:1h56m58s) 
CPU  3 inst:   68000005 cyc:   64515476 now IPC :0.96268: AVG IPC :1.03889: L2-Pf-HR :0.83880: L2-HR :0.83026: (Sim:1h56m59s) 
CPU  0 inst:   68000002 cyc:   64531651 now IPC :0.96492: AVG IPC :1.03863: L2-Pf-HR :0.84039: L2-HR :0.83030: (Sim:1h57m1s) 
CPU  1 inst:   68000005 cyc:   64543107 now IPC :0.93040: AVG IPC :1.03844: L2-Pf-HR :0.83835: L2-HR :0.82598: (Sim:1h57m1s) 
CPU  0 inst:   69000000 cyc:   65530370 now IPC :1.00128: AVG IPC :1.03806: L2-Pf-HR :0.84046: L2-HR :0.83018: (Sim:1h58m3s) 
CPU  3 inst:   69000000 cyc:   65532217 now IPC :0.98353: AVG IPC :1.03802: L2-Pf-HR :0.83881: L2-HR :0.83009: (Sim:1h58m3s) 
CPU  2 inst:   69000000 cyc:   65532286 now IPC :0.97082: AVG IPC :1.03803: L2-Pf-HR :0.84068: L2-HR :0.82812: (Sim:1h58m3s) 
CPU  1 inst:   69000000 cyc:   65549200 now IPC :0.99394: AVG IPC :1.03775: L2-Pf-HR :0.83851: L2-HR :0.82598: (Sim:1h58m4s) 
CPU  2 inst:   70000004 cyc:   66515173 now IPC :1.01742: AVG IPC :1.03772: L2-Pf-HR :0.84053: L2-HR :0.82781: (Sim:1h59m5s) 
CPU  0 inst:   70000004 cyc:   66526365 now IPC :1.00403: AVG IPC :1.03754: L2-Pf-HR :0.84049: L2-HR :0.83003: (Sim:1h59m6s) 
CPU  1 inst:   70000004 cyc:   66526953 now IPC :1.02276: AVG IPC :1.03753: L2-Pf-HR :0.83857: L2-HR :0.82589: (Sim:1h59m6s) 
CPU  3 inst:   70000004 cyc:   66527017 now IPC :1.00523: AVG IPC :1.03752: L2-Pf-HR :0.83893: L2-HR :0.82998: (Sim:1h59m6s) 
CPU  2 inst:   71000005 cyc:   67871633 now IPC :0.73721: AVG IPC :1.03163: L2-Pf-HR :0.84041: L2-HR :0.82750: (Sim:2h0m15s) 
CPU  0 inst:   71000005 cyc:   67925618 now IPC :0.71467: AVG IPC :1.03079: L2-Pf-HR :0.84044: L2-HR :0.82977: (Sim:2h0m19s) 
CPU  1 inst:   71000005 cyc:   67937164 now IPC :0.70911: AVG IPC :1.03061: L2-Pf-HR :0.83856: L2-HR :0.82572: (Sim:2h0m19s) 
CPU  3 inst:   71000005 cyc:   67940713 now IPC :0.70737: AVG IPC :1.03055: L2-Pf-HR :0.83902: L2-HR :0.82982: (Sim:2h0m20s) 
CPU  0 inst:   72000000 cyc:   68934052 now IPC :0.99163: AVG IPC :1.03021: L2-Pf-HR :0.84036: L2-HR :0.82965: (Sim:2h1m20s) 
CPU  2 inst:   72000000 cyc:   68934861 now IPC :0.94053: AVG IPC :1.03020: L2-Pf-HR :0.84050: L2-HR :0.82752: (Sim:2h1m20s) 
CPU  1 inst:   72000000 cyc:   68940313 now IPC :0.99686: AVG IPC :1.03011: L2-Pf-HR :0.83858: L2-HR :0.82574: (Sim:2h1m20s) 
CPU  3 inst:   72000000 cyc:   68956125 now IPC :0.98482: AVG IPC :1.02987: L2-Pf-HR :0.83908: L2-HR :0.82978: (Sim:2h1m21s) 
CPU  2 inst:   73000000 cyc:   69854211 now IPC :1.08773: AVG IPC :1.03097: L2-Pf-HR :0.84068: L2-HR :0.82759: (Sim:2h2m28s) 
CPU  1 inst:   73000000 cyc:   69854312 now IPC :1.09409: AVG IPC :1.03096: L2-Pf-HR :0.83865: L2-HR :0.82576: (Sim:2h2m28s) 
CPU  3 inst:   73000000 cyc:   69860024 now IPC :1.10632: AVG IPC :1.03087: L2-Pf-HR :0.83912: L2-HR :0.82966: (Sim:2h2m29s) 
CPU  0 inst:   73000000 cyc:   69866874 now IPC :1.07202: AVG IPC :1.03077: L2-Pf-HR :0.84037: L2-HR :0.82952: (Sim:2h2m29s) 
CPU  3 inst:   74000005 cyc:   70732908 now IPC :1.14563: AVG IPC :1.03230: L2-Pf-HR :0.83925: L2-HR :0.82967: (Sim:2h4m15s) 
CPU  0 inst:   74000005 cyc:   70741203 now IPC :1.14374: AVG IPC :1.03219: L2-Pf-HR :0.84045: L2-HR :0.82950: (Sim:2h4m16s) 
CPU  1 inst:   74000005 cyc:   70743571 now IPC :1.12454: AVG IPC :1.03215: L2-Pf-HR :0.83867: L2-HR :0.82578: (Sim:2h4m16s) 
CPU  2 inst:   74000005 cyc:   70744270 now IPC :1.12353: AVG IPC :1.03215: L2-Pf-HR :0.84089: L2-HR :0.82770: (Sim:2h4m16s) 
CPU  2 inst:   75000000 cyc:   71597501 now IPC :1.17201: AVG IPC :1.03384: L2-Pf-HR :0.84103: L2-HR :0.82774: (Sim:2h6m3s) 
CPU  3 inst:   75000000 cyc:   71605294 now IPC :1.14628: AVG IPC :1.03371: L2-Pf-HR :0.83939: L2-HR :0.82970: (Sim:2h6m4s) 
CPU  1 inst:   75000000 cyc:   71609252 now IPC :1.15515: AVG IPC :1.03366: L2-Pf-HR :0.83879: L2-HR :0.82587: (Sim:2h6m5s) 
CPU  0 inst:   75000000 cyc:   71615272 now IPC :1.14407: AVG IPC :1.03357: L2-Pf-HR :0.84051: L2-HR :0.82948: (Sim:2h6m6s) 
CPU  2 inst:   76000003 cyc:   72390554 now IPC :1.26095: AVG IPC :1.03636: L2-Pf-HR :0.84116: L2-HR :0.82780: (Sim:2h7m41s) 
CPU  1 inst:   76000003 cyc:   72396723 now IPC :1.26989: AVG IPC :1.03627: L2-Pf-HR :0.83887: L2-HR :0.82593: (Sim:2h7m41s) 
CPU  3 inst:   76000003 cyc:   72399395 now IPC :1.25929: AVG IPC :1.03622: L2-Pf-HR :0.83948: L2-HR :0.82967: (Sim:2h7m41s) 
CPU  0 inst:   76000003 cyc:   72421083 now IPC :1.24099: AVG IPC :1.03591: L2-Pf-HR :0.84047: L2-HR :0.82940: (Sim:2h7m44s) 
CPU  2 inst:   77000004 cyc:   73440758 now IPC :0.95220: AVG IPC :1.03514: L2-Pf-HR :0.84139: L2-HR :0.82795: (Sim:2h8m44s) 
CPU  1 inst:   77000004 cyc:   73446625 now IPC :0.95247: AVG IPC :1.03505: L2-Pf-HR :0.83914: L2-HR :0.82612: (Sim:2h8m44s) 
CPU  3 inst:   77000004 cyc:   73481475 now IPC :0.92415: AVG IPC :1.03455: L2-Pf-HR :0.83975: L2-HR :0.82978: (Sim:2h8m46s) 
CPU  0 inst:   77000004 cyc:   73482964 now IPC :0.94173: AVG IPC :1.03453: L2-Pf-HR :0.84079: L2-HR :0.82959: (Sim:2h8m46s) 
CPU  2 inst:   78000002 cyc:   74360026 now IPC :1.08782: AVG IPC :1.03580: L2-Pf-HR :0.84210: L2-HR :0.82889: (Sim:2h9m42s) 
CPU  1 inst:   78000002 cyc:   74378190 now IPC :1.07346: AVG IPC :1.03554: L2-Pf-HR :0.83993: L2-HR :0.82714: (Sim:2h9m43s) 
CPU  3 inst:   78000000 cyc:   74379789 now IPC :1.11319: AVG IPC :1.03551: L2-Pf-HR :0.84051: L2-HR :0.83078: (Sim:2h9m43s) 
CPU  0 inst:   78000002 cyc:   74383865 now IPC :1.11000: AVG IPC :1.03546: L2-Pf-HR :0.84156: L2-HR :0.83059: (Sim:2h9m43s) 
CPU  2 inst:   79000000 cyc:   75241737 now IPC :1.13416: AVG IPC :1.03697: L2-Pf-HR :0.84284: L2-HR :0.82985: (Sim:2h10m40s) 
CPU  0 inst:   79000000 cyc:   75241738 now IPC :1.16567: AVG IPC :1.03697: L2-Pf-HR :0.84238: L2-HR :0.83162: (Sim:2h10m40s) 
CPU  3 inst:   79000000 cyc:   75256653 now IPC :1.14043: AVG IPC :1.03675: L2-Pf-HR :0.84132: L2-HR :0.83181: (Sim:2h10m41s) 
CPU  1 inst:   79000000 cyc:   75259835 now IPC :1.13424: AVG IPC :1.03671: L2-Pf-HR :0.84078: L2-HR :0.82821: (Sim:2h10m41s) 
CPU  3 inst:   80000005 cyc:   76103110 now IPC :1.18140: AVG IPC :1.03838: L2-Pf-HR :0.84215: L2-HR :0.83285: (Sim:2h11m38s) 
CPU  0 inst:   80000005 cyc:   76126240 now IPC :1.13059: AVG IPC :1.03807: L2-Pf-HR :0.84317: L2-HR :0.83261: (Sim:2h11m39s) 
CPU  1 inst:   80000005 cyc:   76127516 now IPC :1.15250: AVG IPC :1.03805: L2-Pf-HR :0.84157: L2-HR :0.82921: (Sim:2h11m39s) 
CPU  2 inst:   80000005 cyc:   76136001 now IPC :1.11824: AVG IPC :1.03794: L2-Pf-HR :0.84357: L2-HR :0.83077: (Sim:2h11m40s) 
CPU  3 inst:   81000002 cyc:   77474725 now IPC :0.72907: AVG IPC :1.03283: L2-Pf-HR :0.84288: L2-HR :0.83358: (Sim:2h12m48s) 
CPU  2 inst:   81000001 cyc:   77582075 now IPC :0.69152: AVG IPC :1.03140: L2-Pf-HR :0.84409: L2-HR :0.83133: (Sim:2h12m54s) 
CPU  0 inst:   81000001 cyc:   77590324 now IPC :0.68302: AVG IPC :1.03128: L2-Pf-HR :0.84374: L2-HR :0.83318: (Sim:2h12m54s) 
CPU  1 inst:   81000000 cyc:   77591683 now IPC :0.68298: AVG IPC :1.03126: L2-Pf-HR :0.84214: L2-HR :0.82984: (Sim:2h12m54s) 
CPU  3 inst:   82000000 cyc:   78707791 now IPC :0.81098: AVG IPC :1.02931: L2-Pf-HR :0.84294: L2-HR :0.83344: (Sim:2h14m36s) 
CPU  0 inst:   82000000 cyc:   78711461 now IPC :0.89195: AVG IPC :1.02927: L2-Pf-HR :0.84378: L2-HR :0.83302: (Sim:2h14m36s) 
CPU  2 inst:   82000000 cyc:   78743206 now IPC :0.86123: AVG IPC :1.02886: L2-Pf-HR :0.84403: L2-HR :0.83115: (Sim:2h14m40s) 
CPU  1 inst:   82000000 cyc:   78743774 now IPC :0.86799: AVG IPC :1.02884: L2-Pf-HR :0.84209: L2-HR :0.82967: (Sim:2h14m40s) 
CPU  2 inst:   83000004 cyc:   79740400 now IPC :1.00282: AVG IPC :1.02853: L2-Pf-HR :0.84403: L2-HR :0.83100: (Sim:2h16m30s) 
CPU  1 inst:   83000004 cyc:   79741587 now IPC :1.00220: AVG IPC :1.02851: L2-Pf-HR :0.84207: L2-HR :0.82950: (Sim:2h16m30s) 
CPU  0 inst:   83000004 cyc:   79742504 now IPC :0.96990: AVG IPC :1.02849: L2-Pf-HR :0.84393: L2-HR :0.83295: (Sim:2h16m31s) 
CPU  3 inst:   83000004 cyc:   79752596 now IPC :0.95712: AVG IPC :1.02836: L2-Pf-HR :0.84304: L2-HR :0.83331: (Sim:2h16m32s) 
CPU  2 inst:   84000003 cyc:   80781194 now IPC :0.96080: AVG IPC :1.02764: L2-Pf-HR :0.84397: L2-HR :0.83082: (Sim:2h18m24s) 
CPU  1 inst:   84000005 cyc:   80787159 now IPC :0.95642: AVG IPC :1.02756: L2-Pf-HR :0.84209: L2-HR :0.82939: (Sim:2h18m24s) 
CPU  0 inst:   84000002 cyc:   80787961 now IPC :0.95652: AVG IPC :1.02755: L2-Pf-HR :0.84398: L2-HR :0.83283: (Sim:2h18m25s) 
CPU  3 inst:   84000002 cyc:   80796480 now IPC :0.95796: AVG IPC :1.02743: L2-Pf-HR :0.84307: L2-HR :0.83315: (Sim:2h18m26s) 
CPU  0 inst:   85000002 cyc:   81855106 now IPC :0.93708: AVG IPC :1.02636: L2-Pf-HR :0.84398: L2-HR :0.83265: (Sim:2h20m16s) 
CPU  1 inst:   85000002 cyc:   81867358 now IPC :0.92575: AVG IPC :1.02620: L2-Pf-HR :0.84199: L2-HR :0.82919: (Sim:2h20m17s) 
CPU  3 inst:   85000002 cyc:   81923280 now IPC :0.88747: AVG IPC :1.02549: L2-Pf-HR :0.84311: L2-HR :0.83298: (Sim:2h20m24s) 
CPU  2 inst:   85000002 cyc:   81947471 now IPC :0.85743: AVG IPC :1.02519: L2-Pf-HR :0.84390: L2-HR :0.83063: (Sim:2h20m26s) 
CPU  2 inst:   86000001 cyc:   82892986 now IPC :1.05762: AVG IPC :1.02557: L2-Pf-HR :0.84386: L2-HR :0.83045: (Sim:2h22m12s) 
CPU  0 inst:   86000001 cyc:   82896215 now IPC :0.96051: AVG IPC :1.02552: L2-Pf-HR :0.84404: L2-HR :0.83252: (Sim:2h22m12s) 
CPU  1 inst:   86000001 cyc:   82901257 now IPC :0.96721: AVG IPC :1.02546: L2-Pf-HR :0.84195: L2-HR :0.82905: (Sim:2h22m13s) 
CPU  3 inst:   86000001 cyc:   82906626 now IPC :1.01693: AVG IPC :1.02538: L2-Pf-HR :0.84316: L2-HR :0.83283: (Sim:2h22m14s) 
CPU  1 inst:   87000000 cyc:   84004695 now IPC :0.90626: AVG IPC :1.02387: L2-Pf-HR :0.84204: L2-HR :0.82896: (Sim:2h24m9s) 
CPU  2 inst:   87000001 cyc:   84095951 now IPC :0.83128: AVG IPC :1.02275: L2-Pf-HR :0.84383: L2-HR :0.83027: (Sim:2h24m14s) 
CPU  3 inst:   87000001 cyc:   84102997 now IPC :0.83586: AVG IPC :1.02266: L2-Pf-HR :0.84322: L2-HR :0.83266: (Sim:2h24m15s) 
CPU  0 inst:   87000001 cyc:   84130293 now IPC :0.81032: AVG IPC :1.02233: L2-Pf-HR :0.84404: L2-HR :0.83230: (Sim:2h24m16s) 
CPU  1 inst:   88000003 cyc:   85303567 now IPC :0.76990: AVG IPC :1.01996: L2-Pf-HR :0.84191: L2-HR :0.82880: (Sim:2h26m10s) 
CPU  3 inst:   88000003 cyc:   85339885 now IPC :0.80848: AVG IPC :1.01952: L2-Pf-HR :0.84324: L2-HR :0.83255: (Sim:2h26m15s) 
CPU  2 inst:   88000003 cyc:   85340306 now IPC :0.80363: AVG IPC :1.01952: L2-Pf-HR :0.84379: L2-HR :0.83016: (Sim:2h26m15s) 
CPU  0 inst:   88000003 cyc:   85344606 now IPC :0.82351: AVG IPC :1.01946: L2-Pf-HR :0.84401: L2-HR :0.83214: (Sim:2h26m16s) 
CPU  2 inst:   89000003 cyc:   86178058 now IPC :1.19367: AVG IPC :1.02123: L2-Pf-HR :0.84383: L2-HR :0.83011: (Sim:2h27m55s) 
CPU  1 inst:   89000003 cyc:   86189358 now IPC :1.12893: AVG IPC :1.02109: L2-Pf-HR :0.84200: L2-HR :0.82880: (Sim:2h27m57s) 
CPU  0 inst:   89000003 cyc:   86189364 now IPC :1.18377: AVG IPC :1.02109: L2-Pf-HR :0.84410: L2-HR :0.83207: (Sim:2h27m57s) 
CPU  3 inst:   89000003 cyc:   86201754 now IPC :1.16027: AVG IPC :1.02094: L2-Pf-HR :0.84334: L2-HR :0.83251: (Sim:2h27m58s) 
CPU  3 inst:   90000000 cyc:   87100745 now IPC :1.11235: AVG IPC :1.02189: L2-Pf-HR :0.84339: L2-HR :0.83244: (Sim:2h29m42s) 
CPU  0 inst:   90000000 cyc:   87109868 now IPC :1.08636: AVG IPC :1.02179: L2-Pf-HR :0.84420: L2-HR :0.83201: (Sim:2h29m42s) 
CPU  1 inst:   90000000 cyc:   87118947 now IPC :1.07574: AVG IPC :1.02168: L2-Pf-HR :0.84209: L2-HR :0.82880: (Sim:2h29m43s) 
CPU  2 inst:   90000000 cyc:   87120263 now IPC :1.06134: AVG IPC :1.02167: L2-Pf-HR :0.84389: L2-HR :0.83008: (Sim:2h29m44s) 
CPU  3 inst:   91000001 cyc:   87975868 now IPC :1.14270: AVG IPC :1.02311: L2-Pf-HR :0.84351: L2-HR :0.83245: (Sim:2h31m25s) 
CPU  2 inst:   91000001 cyc:   87983516 now IPC :1.15841: AVG IPC :1.02303: L2-Pf-HR :0.84400: L2-HR :0.83010: (Sim:2h31m26s) 
CPU  0 inst:   91000001 cyc:   87988220 now IPC :1.13850: AVG IPC :1.02297: L2-Pf-HR :0.84428: L2-HR :0.83194: (Sim:2h31m27s) 
CPU  1 inst:   91000001 cyc:   87988736 now IPC :1.14971: AVG IPC :1.02296: L2-Pf-HR :0.84214: L2-HR :0.82881: (Sim:2h31m27s) 
CPU  2 inst:   92000001 cyc:   88803331 now IPC :1.21979: AVG IPC :1.02487: L2-Pf-HR :0.84401: L2-HR :0.83005: (Sim:2h33m6s) 
CPU  3 inst:   92000001 cyc:   88808593 now IPC :1.20088: AVG IPC :1.02479: L2-Pf-HR :0.84361: L2-HR :0.83243: (Sim:2h33m7s) 
CPU  0 inst:   92000001 cyc:   88811872 now IPC :1.21411: AVG IPC :1.02476: L2-Pf-HR :0.84438: L2-HR :0.83193: (Sim:2h33m8s) 
CPU  1 inst:   92000001 cyc:   88812532 now IPC :1.21389: AVG IPC :1.02475: L2-Pf-HR :0.84223: L2-HR :0.82884: (Sim:2h33m8s) 
CPU  3 inst:   93000001 cyc:   89711463 now IPC :1.10758: AVG IPC :1.02564: L2-Pf-HR :0.84371: L2-HR :0.83235: (Sim:2h34m53s) 
CPU  1 inst:   93000000 cyc:   89729625 now IPC :1.09040: AVG IPC :1.02543: L2-Pf-HR :0.84228: L2-HR :0.82878: (Sim:2h34m54s) 
CPU  0 inst:   93000000 cyc:   89742124 now IPC :1.07498: AVG IPC :1.02529: L2-Pf-HR :0.84446: L2-HR :0.83182: (Sim:2h34m55s) 
CPU  2 inst:   93000003 cyc:   89757770 now IPC :1.04774: AVG IPC :1.02511: L2-Pf-HR :0.84406: L2-HR :0.82997: (Sim:2h34m56s) 
CPU  0 inst:   94000004 cyc:   90754581 now IPC :0.98770: AVG IPC :1.02486: L2-Pf-HR :0.84475: L2-HR :0.83234: (Sim:2h36m42s) 
CPU  2 inst:   94000004 cyc:   90771154 now IPC :0.98679: AVG IPC :1.02468: L2-Pf-HR :0.84439: L2-HR :0.83050: (Sim:2h36m44s) 
CPU  1 inst:   94000004 cyc:   90773077 now IPC :0.95836: AVG IPC :1.02465: L2-Pf-HR :0.84252: L2-HR :0.82918: (Sim:2h36m44s) 
CPU  3 inst:   94000004 cyc:   90778822 now IPC :0.93689: AVG IPC :1.02458: L2-Pf-HR :0.84387: L2-HR :0.83267: (Sim:2h36m45s) 
CPU  2 inst:   95000005 cyc:   91630259 now IPC :1.16400: AVG IPC :1.02600: L2-Pf-HR :0.84479: L2-HR :0.83112: (Sim:2h38m27s) 
CPU  1 inst:   95000002 cyc:   91632197 now IPC :1.16398: AVG IPC :1.02597: L2-Pf-HR :0.84285: L2-HR :0.82966: (Sim:2h38m27s) 
CPU  0 inst:   95000005 cyc:   91632945 now IPC :1.13848: AVG IPC :1.02597: L2-Pf-HR :0.84514: L2-HR :0.83295: (Sim:2h38m28s) 
CPU  3 inst:   95000005 cyc:   91634075 now IPC :1.16925: AVG IPC :1.02595: L2-Pf-HR :0.84411: L2-HR :0.83305: (Sim:2h38m28s) 
CPU  2 inst:   96000003 cyc:   92545914 now IPC :1.09211: AVG IPC :1.02666: L2-Pf-HR :0.84523: L2-HR :0.83174: (Sim:2h40m11s) 
CPU  3 inst:   96000003 cyc:   92546862 now IPC :1.09554: AVG IPC :1.02664: L2-Pf-HR :0.84436: L2-HR :0.83343: (Sim:2h40m11s) 
CPU  1 inst:   96000003 cyc:   92550357 now IPC :1.08914: AVG IPC :1.02661: L2-Pf-HR :0.84315: L2-HR :0.83012: (Sim:2h40m12s) 
CPU  0 inst:   96000003 cyc:   92551594 now IPC :1.08855: AVG IPC :1.02659: L2-Pf-HR :0.84551: L2-HR :0.83352: (Sim:2h40m12s) 
CPU  3 inst:   97000000 cyc:   93615965 now IPC :0.93536: AVG IPC :1.02559: L2-Pf-HR :0.84481: L2-HR :0.83389: (Sim:2h42m6s) 
CPU  2 inst:   97000000 cyc:   93692401 now IPC :0.87223: AVG IPC :1.02475: L2-Pf-HR :0.84569: L2-HR :0.83231: (Sim:2h42m10s) 
CPU  0 inst:   97000000 cyc:   93715421 now IPC :0.85923: AVG IPC :1.02449: L2-Pf-HR :0.84606: L2-HR :0.83416: (Sim:2h42m11s) 
CPU  1 inst:   97000000 cyc:   93727830 now IPC :0.84927: AVG IPC :1.02435: L2-Pf-HR :0.84371: L2-HR :0.83066: (Sim:2h42m12s) 
CPU  3 inst:   98000001 cyc:   95169324 now IPC :0.64377: AVG IPC :1.01929: L2-Pf-HR :0.84453: L2-HR :0.83353: (Sim:2h44m19s) 
CPU  0 inst:   98000001 cyc:   95169628 now IPC :0.68766: AVG IPC :1.01929: L2-Pf-HR :0.84582: L2-HR :0.83383: (Sim:2h44m19s) 
CPU  2 inst:   98000001 cyc:   95170651 now IPC :0.67648: AVG IPC :1.01928: L2-Pf-HR :0.84544: L2-HR :0.83200: (Sim:2h44m19s) 
CPU  1 inst:   98000001 cyc:   95174637 now IPC :0.69118: AVG IPC :1.01924: L2-Pf-HR :0.84349: L2-HR :0.83040: (Sim:2h44m20s) 
CPU  2 inst:   99000001 cyc:   96163373 now IPC :1.00733: AVG IPC :1.01916: L2-Pf-HR :0.84527: L2-HR :0.83175: (Sim:2h46m12s) 
CPU  3 inst:   99000001 cyc:   96168064 now IPC :1.00126: AVG IPC :1.01910: L2-Pf-HR :0.84433: L2-HR :0.83325: (Sim:2h46m12s) 
CPU  0 inst:   99000001 cyc:   96171418 now IPC :0.99821: AVG IPC :1.01907: L2-Pf-HR :0.84569: L2-HR :0.83359: (Sim:2h46m13s) 
CPU  1 inst:   99000001 cyc:   96186624 now IPC :0.98816: AVG IPC :1.01891: L2-Pf-HR :0.84345: L2-HR :0.83026: (Sim:2h46m14s) 
CPU  0 inst:  100000001 cyc:   97220833 now IPC :0.95291: AVG IPC :1.01835: L2-Pf-HR :0.84550: L2-HR :0.83331: (Sim:2h48m6s) 
CPU  1 inst:  100000002 cyc:   97236048 now IPC :0.95290: AVG IPC :1.01819: L2-Pf-HR :0.84335: L2-HR :0.83007: (Sim:2h48m8s) 
CPU  2 inst:  100000005 cyc:   97245681 now IPC :0.92396: AVG IPC :1.01809: L2-Pf-HR :0.84516: L2-HR :0.83155: (Sim:2h48m9s) 
CPU  3 inst:  100000002 cyc:   97249695 now IPC :0.92453: AVG IPC :1.01804: L2-Pf-HR :0.84408: L2-HR :0.83292: (Sim:2h48m9s) 
CPU  1 inst:  101000000 cyc:   98265907 now IPC :0.97100: AVG IPC :1.01769: L2-Pf-HR :0.84326: L2-HR :0.82990: (Sim:2h49m58s) 
CPU  3 inst:  101000000 cyc:   98270274 now IPC :0.97983: AVG IPC :1.01764: L2-Pf-HR :0.84390: L2-HR :0.83268: (Sim:2h49m59s) 
CPU  2 inst:  101000000 cyc:   98275673 now IPC :0.97088: AVG IPC :1.01759: L2-Pf-HR :0.84506: L2-HR :0.83137: (Sim:2h50m0s) 
CPU  0 inst:  101000000 cyc:   98279295 now IPC :0.94477: AVG IPC :1.01755: L2-Pf-HR :0.84537: L2-HR :0.83311: (Sim:2h50m0s) 
CPU  2 inst:  102000004 cyc:   99306918 now IPC :0.96971: AVG IPC :1.01709: L2-Pf-HR :0.84491: L2-HR :0.83113: (Sim:2h51m52s) 
CPU  1 inst:  102000004 cyc:   99313232 now IPC :0.95482: AVG IPC :1.01702: L2-Pf-HR :0.84318: L2-HR :0.82971: (Sim:2h51m53s) 
CPU  0 inst:  102000004 cyc:   99323055 now IPC :0.95808: AVG IPC :1.01692: L2-Pf-HR :0.84525: L2-HR :0.83290: (Sim:2h51m54s) 
CPU  3 inst:  102000004 cyc:   99376866 now IPC :0.90368: AVG IPC :1.01636: L2-Pf-HR :0.84377: L2-HR :0.83246: (Sim:2h51m59s) 
CPU  0 inst:  103000001 cyc:   99979859 now IPC :1.52252: AVG IPC :1.02027: L2-Pf-HR :0.84525: L2-HR :0.83277: (Sim:2h53m27s) 
CPU  2 inst:  103000001 cyc:   99980338 now IPC :1.48495: AVG IPC :1.02027: L2-Pf-HR :0.84489: L2-HR :0.83099: (Sim:2h53m27s) 
CPU  1 inst:  103000003 cyc:  100004095 now IPC :1.44746: AVG IPC :1.02002: L2-Pf-HR :0.84321: L2-HR :0.82962: (Sim:2h53m30s) 
CPU  3 inst:  103000001 cyc:  100006461 now IPC :1.58832: AVG IPC :1.01999: L2-Pf-HR :0.84380: L2-HR :0.83235: (Sim:2h53m30s) 
CPU  0 inst:  104000000 cyc:  101766734 now IPC :0.55964: AVG IPC :1.01210: L2-Pf-HR :0.84511: L2-HR :0.83258: (Sim:2h55m55s) 
CPU  2 inst:  104000000 cyc:  101770139 now IPC :0.55872: AVG IPC :1.01207: L2-Pf-HR :0.84472: L2-HR :0.83079: (Sim:2h55m56s) 
CPU  3 inst:  104000000 cyc:  101772656 now IPC :0.56619: AVG IPC :1.01204: L2-Pf-HR :0.84370: L2-HR :0.83219: (Sim:2h55m56s) 
CPU  1 inst:  104000001 cyc:  101780316 now IPC :0.56299: AVG IPC :1.01197: L2-Pf-HR :0.84308: L2-HR :0.82946: (Sim:2h55m57s) 
CPU  1 inst:  105000001 cyc:  102616420 now IPC :1.19602: AVG IPC :1.01348: L2-Pf-HR :0.84313: L2-HR :0.82944: (Sim:2h57m37s) 
CPU  3 inst:  105000001 cyc:  102632343 now IPC :1.16322: AVG IPC :1.01332: L2-Pf-HR :0.84374: L2-HR :0.83214: (Sim:2h57m39s) 
CPU  2 inst:  105000001 cyc:  102639728 now IPC :1.14997: AVG IPC :1.01325: L2-Pf-HR :0.84470: L2-HR :0.83069: (Sim:2h57m40s) 
CPU  0 inst:  105000001 cyc:  102650940 now IPC :1.13096: AVG IPC :1.01314: L2-Pf-HR :0.84510: L2-HR :0.83250: (Sim:2h57m41s) 
CPU  2 inst:  106000005 cyc:  103526389 now IPC :1.12783: AVG IPC :1.01424: L2-Pf-HR :0.84469: L2-HR :0.83063: (Sim:2h59m34s) 
CPU  1 inst:  106000005 cyc:  103531487 now IPC :1.09282: AVG IPC :1.01419: L2-Pf-HR :0.84318: L2-HR :0.82944: (Sim:2h59m35s) 
CPU  3 inst:  106000005 cyc:  103547903 now IPC :1.09223: AVG IPC :1.01402: L2-Pf-HR :0.84376: L2-HR :0.83210: (Sim:2h59m37s) 
CPU  0 inst:  106000005 cyc:  103556611 now IPC :1.10416: AVG IPC :1.01394: L2-Pf-HR :0.84509: L2-HR :0.83243: (Sim:2h59m38s) 
CPU  1 inst:  107000005 cyc:  104407426 now IPC :1.14163: AVG IPC :1.01527: L2-Pf-HR :0.84326: L2-HR :0.82949: (Sim:3h1m27s) 
CPU  0 inst:  107000005 cyc:  104412774 now IPC :1.16800: AVG IPC :1.01522: L2-Pf-HR :0.84515: L2-HR :0.83243: (Sim:3h1m27s) 
CPU  2 inst:  107000005 cyc:  104416008 now IPC :1.12408: AVG IPC :1.01519: L2-Pf-HR :0.84473: L2-HR :0.83062: (Sim:3h1m28s) 
CPU  3 inst:  107000005 cyc:  104418016 now IPC :1.14928: AVG IPC :1.01516: L2-Pf-HR :0.84385: L2-HR :0.83211: (Sim:3h1m28s) 
CPU  3 inst:  108000005 cyc:  105248049 now IPC :1.20477: AVG IPC :1.01667: L2-Pf-HR :0.84391: L2-HR :0.83209: (Sim:3h2m59s) 
CPU  2 inst:  108000005 cyc:  105256419 now IPC :1.18989: AVG IPC :1.01660: L2-Pf-HR :0.84473: L2-HR :0.83057: (Sim:3h3m0s) 
CPU  1 inst:  108000005 cyc:  105263608 now IPC :1.16798: AVG IPC :1.01652: L2-Pf-HR :0.84332: L2-HR :0.82950: (Sim:3h3m1s) 
CPU  0 inst:  108000005 cyc:  105279140 now IPC :1.15425: AVG IPC :1.01637: L2-Pf-HR :0.84514: L2-HR :0.83237: (Sim:3h3m2s) 
CPU  1 inst:  109000001 cyc:  105792261 now IPC :1.89159: AVG IPC :1.02094: L2-Pf-HR :0.84347: L2-HR :0.82954: (Sim:3h4m19s) 
CPU  2 inst:  109000001 cyc:  105794626 now IPC :1.85801: AVG IPC :1.02092: L2-Pf-HR :0.84484: L2-HR :0.83059: (Sim:3h4m19s) 
CPU  3 inst:  109000001 cyc:  105795348 now IPC :1.82715: AVG IPC :1.02090: L2-Pf-HR :0.84408: L2-HR :0.83213: (Sim:3h4m19s) 
CPU  0 inst:  109000001 cyc:  105800448 now IPC :1.91824: AVG IPC :1.02086: L2-Pf-HR :0.84534: L2-HR :0.83243: (Sim:3h4m20s) 
CPU  1 inst:  110000004 cyc:  107158715 now IPC :0.73182: AVG IPC :1.01722: L2-Pf-HR :0.84382: L2-HR :0.83004: (Sim:3h6m13s) 
CPU  2 inst:  110000003 cyc:  107160159 now IPC :0.73232: AVG IPC :1.01721: L2-Pf-HR :0.84519: L2-HR :0.83114: (Sim:3h6m13s) 
CPU  0 inst:  110000005 cyc:  107179705 now IPC :0.72503: AVG IPC :1.01702: L2-Pf-HR :0.84570: L2-HR :0.83295: (Sim:3h6m15s) 
CPU  3 inst:  110000005 cyc:  107191972 now IPC :0.71602: AVG IPC :1.01689: L2-Pf-HR :0.84439: L2-HR :0.83259: (Sim:3h6m16s) 
CPU  2 inst:  111000002 cyc:  108056786 now IPC :1.11529: AVG IPC :1.01803: L2-Pf-HR :0.84568: L2-HR :0.83187: (Sim:3h7m51s) 
CPU  0 inst:  111000002 cyc:  108058053 now IPC :1.13850: AVG IPC :1.01801: L2-Pf-HR :0.84616: L2-HR :0.83362: (Sim:3h7m51s) 
CPU  3 inst:  111000005 cyc:  108070877 now IPC :1.13778: AVG IPC :1.01788: L2-Pf-HR :0.84481: L2-HR :0.83321: (Sim:3h7m52s) 
CPU  1 inst:  111000005 cyc:  108078629 now IPC :1.08706: AVG IPC :1.01782: L2-Pf-HR :0.84425: L2-HR :0.83068: (Sim:3h7m53s) 
CPU  0 inst:  112000005 cyc:  108927287 now IPC :1.15044: AVG IPC :1.01908: L2-Pf-HR :0.84673: L2-HR :0.83437: (Sim:3h9m28s) 
CPU  2 inst:  112000005 cyc:  108928482 now IPC :1.14719: AVG IPC :1.01907: L2-Pf-HR :0.84628: L2-HR :0.83269: (Sim:3h9m28s) 
CPU  1 inst:  112000005 cyc:  108939921 now IPC :1.16105: AVG IPC :1.01896: L2-Pf-HR :0.84480: L2-HR :0.83139: (Sim:3h9m29s) 
CPU  3 inst:  112000005 cyc:  108949247 now IPC :1.13847: AVG IPC :1.01887: L2-Pf-HR :0.84535: L2-HR :0.83392: (Sim:3h9m30s) 
CPU  2 inst:  113000002 cyc:  109584179 now IPC :1.52509: AVG IPC :1.02213: L2-Pf-HR :0.84703: L2-HR :0.83359: (Sim:3h10m33s) 
CPU  1 inst:  113000002 cyc:  109586386 now IPC :1.54687: AVG IPC :1.02210: L2-Pf-HR :0.84550: L2-HR :0.83219: (Sim:3h10m33s) 
CPU  3 inst:  113000000 cyc:  109588944 now IPC :1.56323: AVG IPC :1.02207: L2-Pf-HR :0.84607: L2-HR :0.83477: (Sim:3h10m33s) 
CPU  0 inst:  113000002 cyc:  109593947 now IPC :1.50001: AVG IPC :1.02203: L2-Pf-HR :0.84748: L2-HR :0.83525: (Sim:3h10m34s) 
CPU  0 inst:  114000000 cyc:  111555983 now IPC :0.50967: AVG IPC :1.01294: L2-Pf-HR :0.84735: L2-HR :0.83505: (Sim:3h13m8s) 
CPU  2 inst:  114000003 cyc:  111559031 now IPC :0.50637: AVG IPC :1.01291: L2-Pf-HR :0.84684: L2-HR :0.83335: (Sim:3h13m8s) 
CPU  3 inst:  114000003 cyc:  111559056 now IPC :0.50759: AVG IPC :1.01291: L2-Pf-HR :0.84590: L2-HR :0.83449: (Sim:3h13m8s) 
CPU  1 inst:  114000000 cyc:  111569963 now IPC :0.50414: AVG IPC :1.01281: L2-Pf-HR :0.84533: L2-HR :0.83194: (Sim:3h13m9s) 
CPU  3 inst:  115000000 cyc:  112547716 now IPC :1.01147: AVG IPC :1.01289: L2-Pf-HR :0.84585: L2-HR :0.83431: (Sim:3h14m10s) 
CPU  0 inst:  115000000 cyc:  112569461 now IPC :0.98670: AVG IPC :1.01270: L2-Pf-HR :0.84729: L2-HR :0.83494: (Sim:3h14m11s) 
CPU  2 inst:  115000000 cyc:  112585772 now IPC :0.97395: AVG IPC :1.01256: L2-Pf-HR :0.84678: L2-HR :0.83320: (Sim:3h14m12s) 
CPU  1 inst:  115000000 cyc:  112609632 now IPC :0.96184: AVG IPC :1.01234: L2-Pf-HR :0.84536: L2-HR :0.83184: (Sim:3h14m13s) 
CPU  1 inst:  116000002 cyc:  113620837 now IPC :0.98892: AVG IPC :1.01212: L2-Pf-HR :0.84541: L2-HR :0.83178: (Sim:3h15m14s) 
CPU  2 inst:  116000002 cyc:  113625832 now IPC :0.96148: AVG IPC :1.01208: L2-Pf-HR :0.84678: L2-HR :0.83313: (Sim:3h15m14s) 
CPU  0 inst:  116000002 cyc:  113651371 now IPC :0.92429: AVG IPC :1.01185: L2-Pf-HR :0.84727: L2-HR :0.83486: (Sim:3h15m16s) 
CPU  3 inst:  116000002 cyc:  113677612 now IPC :0.88504: AVG IPC :1.01161: L2-Pf-HR :0.84585: L2-HR :0.83420: (Sim:3h15m17s) 
CPU  2 inst:  117000002 cyc:  114711056 now IPC :0.92147: AVG IPC :1.01122: L2-Pf-HR :0.84678: L2-HR :0.83305: (Sim:3h16m19s) 
CPU  3 inst:  117000002 cyc:  114714236 now IPC :0.96467: AVG IPC :1.01118: L2-Pf-HR :0.84588: L2-HR :0.83411: (Sim:3h16m19s) 
CPU  0 inst:  117000002 cyc:  114739865 now IPC :0.91870: AVG IPC :1.01096: L2-Pf-HR :0.84724: L2-HR :0.83479: (Sim:3h16m20s) 
CPU  1 inst:  117000002 cyc:  114755180 now IPC :0.88157: AVG IPC :1.01082: L2-Pf-HR :0.84546: L2-HR :0.83171: (Sim:3h16m22s) 
CPU  1 inst:  118000001 cyc:  115784976 now IPC :0.97107: AVG IPC :1.01047: L2-Pf-HR :0.84550: L2-HR :0.83164: (Sim:3h17m23s) 
CPU  2 inst:  118000001 cyc:  115795016 now IPC :0.92254: AVG IPC :1.01038: L2-Pf-HR :0.84676: L2-HR :0.83296: (Sim:3h17m24s) 
CPU  0 inst:  118000001 cyc:  115803914 now IPC :0.93981: AVG IPC :1.01030: L2-Pf-HR :0.84722: L2-HR :0.83472: (Sim:3h17m24s) 
CPU  3 inst:  118000001 cyc:  115823543 now IPC :0.90146: AVG IPC :1.01012: L2-Pf-HR :0.84586: L2-HR :0.83397: (Sim:3h17m25s) 
CPU  1 inst:  119000005 cyc:  116491549 now IPC :1.41529: AVG IPC :1.01294: L2-Pf-HR :0.84561: L2-HR :0.83160: (Sim:3h18m16s) 
CPU  3 inst:  119000005 cyc:  116499840 now IPC :1.47865: AVG IPC :1.01287: L2-Pf-HR :0.84597: L2-HR :0.83391: (Sim:3h18m17s) 
CPU  0 inst:  119000005 cyc:  116519153 now IPC :1.39814: AVG IPC :1.01270: L2-Pf-HR :0.84732: L2-HR :0.83473: (Sim:3h18m19s) 
CPU  2 inst:  119000005 cyc:  116520668 now IPC :1.37808: AVG IPC :1.01269: L2-Pf-HR :0.84683: L2-HR :0.83292: (Sim:3h18m19s) 
CPU  1 inst:  120000005 cyc:  118135671 now IPC :0.60823: AVG IPC :1.00726: L2-Pf-HR :0.84541: L2-HR :0.83137: (Sim:3h19m32s) 
CPU  3 inst:  120000005 cyc:  118197282 now IPC :0.58912: AVG IPC :1.00673: L2-Pf-HR :0.84581: L2-HR :0.83368: (Sim:3h19m36s) 
CPU  0 inst:  120000005 cyc:  118218087 now IPC :0.58860: AVG IPC :1.00656: L2-Pf-HR :0.84718: L2-HR :0.83455: (Sim:3h19m37s) 
CPU  2 inst:  120000005 cyc:  118232828 now IPC :0.58406: AVG IPC :1.00643: L2-Pf-HR :0.84668: L2-HR :0.83273: (Sim:3h19m38s) 
CPU  1 inst:  121000004 cyc:  119062404 now IPC :1.07906: AVG IPC :1.00783: L2-Pf-HR :0.84538: L2-HR :0.83130: (Sim:3h20m34s) 
CPU  0 inst:  121000004 cyc:  119066580 now IPC :1.17856: AVG IPC :1.00779: L2-Pf-HR :0.84719: L2-HR :0.83451: (Sim:3h20m34s) 
CPU  3 inst:  121000005 cyc:  119076992 now IPC :1.13674: AVG IPC :1.00770: L2-Pf-HR :0.84583: L2-HR :0.83363: (Sim:3h20m34s) 
CPU  2 inst:  121000004 cyc:  119092422 now IPC :1.16334: AVG IPC :1.00757: L2-Pf-HR :0.84670: L2-HR :0.83270: (Sim:3h20m35s) 
CPU  3 inst:  122000005 cyc:  119967878 now IPC :1.12248: AVG IPC :1.00856: L2-Pf-HR :0.84590: L2-HR :0.83362: (Sim:3h21m32s) 
CPU  2 inst:  122000004 cyc:  119971130 now IPC :1.13803: AVG IPC :1.00854: L2-Pf-HR :0.84674: L2-HR :0.83269: (Sim:3h21m32s) 
CPU  0 inst:  122000004 cyc:  119975138 now IPC :1.10065: AVG IPC :1.00850: L2-Pf-HR :0.84720: L2-HR :0.83447: (Sim:3h21m32s) 
CPU  1 inst:  122000003 cyc:  119975801 now IPC :1.09481: AVG IPC :1.00849: L2-Pf-HR :0.84538: L2-HR :0.83126: (Sim:3h21m32s) 
CPU  3 inst:  123000003 cyc:  120840849 now IPC :1.14551: AVG IPC :1.00955: L2-Pf-HR :0.84593: L2-HR :0.83360: (Sim:3h22m30s) 
CPU  1 inst:  123000003 cyc:  120856330 now IPC :1.13568: AVG IPC :1.00943: L2-Pf-HR :0.84535: L2-HR :0.83120: (Sim:3h22m31s) 
CPU  0 inst:  123000003 cyc:  120866636 now IPC :1.12171: AVG IPC :1.00934: L2-Pf-HR :0.84722: L2-HR :0.83445: (Sim:3h22m32s) 
CPU  2 inst:  123000003 cyc:  120874441 now IPC :1.10704: AVG IPC :1.00928: L2-Pf-HR :0.84673: L2-HR :0.83265: (Sim:3h22m32s) 
CPU  2 inst:  124000003 cyc:  121700533 now IPC :1.21052: AVG IPC :1.01066: L2-Pf-HR :0.84669: L2-HR :0.83258: (Sim:3h23m28s) 
CPU  0 inst:  124000003 cyc:  121702985 now IPC :1.19567: AVG IPC :1.01063: L2-Pf-HR :0.84720: L2-HR :0.83440: (Sim:3h23m28s) 
CPU  1 inst:  124000003 cyc:  121703042 now IPC :1.18104: AVG IPC :1.01063: L2-Pf-HR :0.84531: L2-HR :0.83114: (Sim:3h23m28s) 
CPU  3 inst:  124000003 cyc:  121707489 now IPC :1.15388: AVG IPC :1.01059: L2-Pf-HR :0.84595: L2-HR :0.83356: (Sim:3h23m29s) 
CPU  2 inst:  125000003 cyc:  122260455 now IPC :1.78596: AVG IPC :1.01424: L2-Pf-HR :0.84678: L2-HR :0.83260: (Sim:3h24m17s) 
CPU  3 inst:  125000003 cyc:  122261341 now IPC :1.80554: AVG IPC :1.01422: L2-Pf-HR :0.84608: L2-HR :0.83358: (Sim:3h24m18s) 
CPU  1 inst:  125000003 cyc:  122266030 now IPC :1.77624: AVG IPC :1.01419: L2-Pf-HR :0.84542: L2-HR :0.83116: (Sim:3h24m18s) 
CPU  0 inst:  125000003 cyc:  122280526 now IPC :1.73148: AVG IPC :1.01407: L2-Pf-HR :0.84731: L2-HR :0.83441: (Sim:3h24m19s) 
CPU  1 inst:  126000005 cyc:  123599197 now IPC :0.75010: AVG IPC :1.01131: L2-Pf-HR :0.84571: L2-HR :0.83158: (Sim:3h25m26s) 
CPU  0 inst:  126000005 cyc:  123606142 now IPC :0.75437: AVG IPC :1.01126: L2-Pf-HR :0.84759: L2-HR :0.83482: (Sim:3h25m27s) 
CPU  2 inst:  126000005 cyc:  123607853 now IPC :0.74217: AVG IPC :1.01125: L2-Pf-HR :0.84695: L2-HR :0.83287: (Sim:3h25m27s) 
CPU  3 inst:  126000005 cyc:  123614588 now IPC :0.73896: AVG IPC :1.01118: L2-Pf-HR :0.84634: L2-HR :0.83393: (Sim:3h25m27s) 
CPU  2 inst:  127000002 cyc:  124440692 now IPC :1.20071: AVG IPC :1.01252: L2-Pf-HR :0.84733: L2-HR :0.83339: (Sim:3h26m23s) 
CPU  3 inst:  127000002 cyc:  124443226 now IPC :1.20680: AVG IPC :1.01250: L2-Pf-HR :0.84681: L2-HR :0.83457: (Sim:3h26m23s) 
CPU  1 inst:  127000002 cyc:  124444323 now IPC :1.18325: AVG IPC :1.01249: L2-Pf-HR :0.84624: L2-HR :0.83232: (Sim:3h26m23s) 
CPU  0 inst:  127000002 cyc:  124452157 now IPC :1.18201: AVG IPC :1.01243: L2-Pf-HR :0.84808: L2-HR :0.83550: (Sim:3h26m24s) 
CPU  0 inst:  128000000 cyc:  125334016 now IPC :1.13397: AVG IPC :1.01329: L2-Pf-HR :0.84853: L2-HR :0.83615: (Sim:3h27m21s) 
CPU  3 inst:  128000000 cyc:  125334270 now IPC :1.12228: AVG IPC :1.01328: L2-Pf-HR :0.84725: L2-HR :0.83519: (Sim:3h27m21s) 
CPU  1 inst:  128000000 cyc:  125337881 now IPC :1.11912: AVG IPC :1.01326: L2-Pf-HR :0.84675: L2-HR :0.83303: (Sim:3h27m21s) 
CPU  2 inst:  128000000 cyc:  125343175 now IPC :1.10805: AVG IPC :1.01322: L2-Pf-HR :0.84773: L2-HR :0.83392: (Sim:3h27m21s) 
CPU  1 inst:  129000001 cyc:  126062318 now IPC :1.38038: AVG IPC :1.01538: L2-Pf-HR :0.84743: L2-HR :0.83387: (Sim:3h28m14s) 
CPU  0 inst:  129000001 cyc:  126068184 now IPC :1.36209: AVG IPC :1.01534: L2-Pf-HR :0.84917: L2-HR :0.83692: (Sim:3h28m15s) 
CPU  3 inst:  129000001 cyc:  126071880 now IPC :1.35573: AVG IPC :1.01530: L2-Pf-HR :0.84786: L2-HR :0.83593: (Sim:3h28m15s) 
CPU  2 inst:  129000001 cyc:  126072178 now IPC :1.37174: AVG IPC :1.01531: L2-Pf-HR :0.84822: L2-HR :0.83450: (Sim:3h28m15s) 
CPU  3 inst:  130000005 cyc:  143276949 now IPC :0.05812: AVG IPC :0.89956: L2-Pf-HR :0.84517: L2-HR :0.82989: (Sim:3h37m52s) 
CPU  1 inst:  130000002 cyc:  143297704 now IPC :0.05802: AVG IPC :0.89944: L2-Pf-HR :0.84476: L2-HR :0.82788: (Sim:3h37m52s) 
CPU  0 inst:  130000005 cyc:  143389807 now IPC :0.05773: AVG IPC :0.89886: L2-Pf-HR :0.84648: L2-HR :0.83087: (Sim:3h37m56s) 
CPU  2 inst:  130000005 cyc:  143432071 now IPC :0.05760: AVG IPC :0.89859: L2-Pf-HR :0.84546: L2-HR :0.82842: (Sim:3h37m57s) 
CPU  1 inst:  131000001 cyc:  165086219 now IPC :0.04590: AVG IPC :0.78611: L2-Pf-HR :0.84098: L2-HR :0.82030: (Sim:4h0m50s) 
CPU  2 inst:  131000001 cyc:  165139789 now IPC :0.04607: AVG IPC :0.78585: L2-Pf-HR :0.84167: L2-HR :0.82083: (Sim:4h0m53s) 
CPU  3 inst:  131000004 cyc:  165176865 now IPC :0.04566: AVG IPC :0.78567: L2-Pf-HR :0.84140: L2-HR :0.82228: (Sim:4h0m55s) 
CPU  0 inst:  131000004 cyc:  165265639 now IPC :0.04571: AVG IPC :0.78525: L2-Pf-HR :0.84270: L2-HR :0.82323: (Sim:4h1m1s) 
CPU  3 inst:  132000000 cyc:  186829727 now IPC :0.04618: AVG IPC :0.69951: L2-Pf-HR :0.83770: L2-HR :0.81501: (Sim:4h23m20s) 
CPU  1 inst:  132000003 cyc:  186889236 now IPC :0.04587: AVG IPC :0.69929: L2-Pf-HR :0.83727: L2-HR :0.81307: (Sim:4h23m24s) 
CPU  2 inst:  132000003 cyc:  186925145 now IPC :0.04590: AVG IPC :0.69916: L2-Pf-HR :0.83795: L2-HR :0.81358: (Sim:4h23m26s) 
CPU  0 inst:  132000000 cyc:  187280389 now IPC :0.04542: AVG IPC :0.69782: L2-Pf-HR :0.83898: L2-HR :0.81594: (Sim:4h23m48s) 
CPU  1 inst:  133000002 cyc:  208439711 now IPC :0.04640: AVG IPC :0.63147: L2-Pf-HR :0.83359: L2-HR :0.80617: (Sim:4h45m40s) 
CPU  3 inst:  133000002 cyc:  208800732 now IPC :0.04551: AVG IPC :0.63037: L2-Pf-HR :0.83403: L2-HR :0.80807: (Sim:4h46m3s) 
CPU  2 inst:  133000002 cyc:  208891259 now IPC :0.04552: AVG IPC :0.63010: L2-Pf-HR :0.83426: L2-HR :0.80667: (Sim:4h46m9s) 
CPU  0 inst:  133000002 cyc:  209093022 now IPC :0.04585: AVG IPC :0.62949: L2-Pf-HR :0.83530: L2-HR :0.80898: (Sim:4h46m21s) 
CPU  1 inst:  134000000 cyc:  229726654 now IPC :0.04698: AVG IPC :0.57707: L2-Pf-HR :0.83002: L2-HR :0.79974: (Sim:5h7m43s) 
CPU  2 inst:  134000000 cyc:  230036899 now IPC :0.04729: AVG IPC :0.57629: L2-Pf-HR :0.83068: L2-HR :0.80022: (Sim:5h7m55s) 
CPU  3 inst:  134000000 cyc:  230062007 now IPC :0.04703: AVG IPC :0.57623: L2-Pf-HR :0.83044: L2-HR :0.80161: (Sim:5h7m56s) 
CPU  0 inst:  134000000 cyc:  230141600 now IPC :0.04751: AVG IPC :0.57603: L2-Pf-HR :0.83171: L2-HR :0.80249: (Sim:5h8m1s) 
CPU  1 inst:  135000000 cyc:  233789936 now IPC :0.24611: AVG IPC :0.57130: L2-Pf-HR :0.82949: L2-HR :0.79903: (Sim:5h11m57s) 
CPU  2 inst:  135000000 cyc:  234054605 now IPC :0.24890: AVG IPC :0.57065: L2-Pf-HR :0.83012: L2-HR :0.79950: (Sim:5h12m14s) 
CPU  3 inst:  135000000 cyc:  234078819 now IPC :0.24895: AVG IPC :0.57059: L2-Pf-HR :0.82989: L2-HR :0.80088: (Sim:5h12m16s) 
CPU  0 inst:  135000000 cyc:  234155402 now IPC :0.24914: AVG IPC :0.57040: L2-Pf-HR :0.83116: L2-HR :0.80176: (Sim:5h12m21s) 
CPU  1 inst:  136000002 cyc:  237780897 now IPC :0.25057: AVG IPC :0.56589: L2-Pf-HR :0.82896: L2-HR :0.79835: (Sim:5h16m15s) 
CPU  2 inst:  136000002 cyc:  238044888 now IPC :0.25061: AVG IPC :0.56526: L2-Pf-HR :0.82958: L2-HR :0.79880: (Sim:5h16m32s) 
CPU  3 inst:  136000002 cyc:  238067780 now IPC :0.25069: AVG IPC :0.56520: L2-Pf-HR :0.82935: L2-HR :0.80018: (Sim:5h16m34s) 
CPU  0 inst:  136000002 cyc:  238143755 now IPC :0.25073: AVG IPC :0.56503: L2-Pf-HR :0.83062: L2-HR :0.80106: (Sim:5h16m39s) 
CPU  1 inst:  137000000 cyc:  241712312 now IPC :0.25436: AVG IPC :0.56080: L2-Pf-HR :0.82848: L2-HR :0.79769: (Sim:5h20m27s) 
CPU  2 inst:  137000000 cyc:  241965883 now IPC :0.25504: AVG IPC :0.56021: L2-Pf-HR :0.82911: L2-HR :0.79816: (Sim:5h20m44s) 
CPU  3 inst:  137000000 cyc:  241988403 now IPC :0.25506: AVG IPC :0.56016: L2-Pf-HR :0.82889: L2-HR :0.79953: (Sim:5h20m45s) 
CPU  0 inst:  137000000 cyc:  242064275 now IPC :0.25507: AVG IPC :0.55998: L2-Pf-HR :0.83015: L2-HR :0.80041: (Sim:5h20m50s) 
CPU  1 inst:  138000000 cyc:  245555867 now IPC :0.26018: AVG IPC :0.55608: L2-Pf-HR :0.82813: L2-HR :0.79714: (Sim:5h24m36s) 
CPU  2 inst:  138000000 cyc:  245802575 now IPC :0.26064: AVG IPC :0.55552: L2-Pf-HR :0.82878: L2-HR :0.79762: (Sim:5h24m51s) 
CPU  3 inst:  138000000 cyc:  245815966 now IPC :0.26126: AVG IPC :0.55549: L2-Pf-HR :0.82855: L2-HR :0.79898: (Sim:5h24m52s) 
CPU  0 inst:  138000000 cyc:  245895282 now IPC :0.26103: AVG IPC :0.55531: L2-Pf-HR :0.82981: L2-HR :0.79986: (Sim:5h24m57s) 
CPU  1 inst:  139000000 cyc:  249332966 now IPC :0.26475: AVG IPC :0.55165: L2-Pf-HR :0.82789: L2-HR :0.79668: (Sim:5h28m39s) 
CPU  2 inst:  139000000 cyc:  249575253 now IPC :0.26506: AVG IPC :0.55111: L2-Pf-HR :0.82856: L2-HR :0.79717: (Sim:5h28m55s) 
CPU  3 inst:  139000000 cyc:  249591290 now IPC :0.26488: AVG IPC :0.55107: L2-Pf-HR :0.82833: L2-HR :0.79853: (Sim:5h28m56s) 
CPU  0 inst:  139000000 cyc:  249670510 now IPC :0.26488: AVG IPC :0.55090: L2-Pf-HR :0.82955: L2-HR :0.79938: (Sim:5h29m1s) 
CPU  1 inst:  140000002 cyc:  253142288 now IPC :0.26251: AVG IPC :0.54728: L2-Pf-HR :0.82758: L2-HR :0.79617: (Sim:5h32m45s) 
CPU  2 inst:  140000002 cyc:  253395822 now IPC :0.26174: AVG IPC :0.54673: L2-Pf-HR :0.82830: L2-HR :0.79670: (Sim:5h33m2s) 
CPU  3 inst:  140000002 cyc:  253414927 now IPC :0.26153: AVG IPC :0.54669: L2-Pf-HR :0.82803: L2-HR :0.79801: (Sim:5h33m3s) 
CPU  0 inst:  140000002 cyc:  253493064 now IPC :0.26161: AVG IPC :0.54652: L2-Pf-HR :0.82924: L2-HR :0.79886: (Sim:5h33m8s) 
CPU  1 inst:  141000004 cyc:  256965389 now IPC :0.26157: AVG IPC :0.54301: L2-Pf-HR :0.82728: L2-HR :0.79567: (Sim:5h36m52s) 
CPU  2 inst:  141000004 cyc:  257209408 now IPC :0.26222: AVG IPC :0.54250: L2-Pf-HR :0.82800: L2-HR :0.79621: (Sim:5h37m8s) 
CPU  3 inst:  141000004 cyc:  257223627 now IPC :0.26256: AVG IPC :0.54246: L2-Pf-HR :0.82774: L2-HR :0.79752: (Sim:5h37m9s) 
CPU  0 inst:  141000004 cyc:  257302928 now IPC :0.26248: AVG IPC :0.54230: L2-Pf-HR :0.82893: L2-HR :0.79835: (Sim:5h37m14s) 
CPU  1 inst:  142000004 cyc:  260785891 now IPC :0.26175: AVG IPC :0.53888: L2-Pf-HR :0.82699: L2-HR :0.79518: (Sim:5h40m59s) 
CPU  2 inst:  142000004 cyc:  261021329 now IPC :0.26233: AVG IPC :0.53839: L2-Pf-HR :0.82773: L2-HR :0.79573: (Sim:5h41m14s) 
CPU  3 inst:  142000004 cyc:  261037259 now IPC :0.26222: AVG IPC :0.53835: L2-Pf-HR :0.82745: L2-HR :0.79702: (Sim:5h41m15s) 
CPU  0 inst:  142000004 cyc:  261119407 now IPC :0.26202: AVG IPC :0.53819: L2-Pf-HR :0.82861: L2-HR :0.79783: (Sim:5h41m21s) 
CPU  1 inst:  143000000 cyc:  264577245 now IPC :0.26376: AVG IPC :0.53492: L2-Pf-HR :0.82675: L2-HR :0.79473: (Sim:5h45m4s) 
CPU  2 inst:  143000000 cyc:  264817334 now IPC :0.26343: AVG IPC :0.53443: L2-Pf-HR :0.82747: L2-HR :0.79526: (Sim:5h45m20s) 
CPU  3 inst:  143000000 cyc:  264835485 now IPC :0.26328: AVG IPC :0.53439: L2-Pf-HR :0.82721: L2-HR :0.79656: (Sim:5h45m21s) 
CPU  0 inst:  143000000 cyc:  264914812 now IPC :0.26348: AVG IPC :0.53424: L2-Pf-HR :0.82832: L2-HR :0.79733: (Sim:5h45m26s) 
CPU  1 inst:  144000003 cyc:  268374841 now IPC :0.26333: AVG IPC :0.53106: L2-Pf-HR :0.82650: L2-HR :0.79427: (Sim:5h49m8s) 
CPU  2 inst:  144000003 cyc:  268622384 now IPC :0.26281: AVG IPC :0.53057: L2-Pf-HR :0.82718: L2-HR :0.79478: (Sim:5h49m24s) 
CPU  3 inst:  144000003 cyc:  268630969 now IPC :0.26347: AVG IPC :0.53055: L2-Pf-HR :0.82696: L2-HR :0.79610: (Sim:5h49m25s) 
CPU  0 inst:  144000003 cyc:  268715328 now IPC :0.26312: AVG IPC :0.53039: L2-Pf-HR :0.82808: L2-HR :0.79687: (Sim:5h49m30s) 
CPU  1 inst:  145000002 cyc:  272223852 now IPC :0.25981: AVG IPC :0.52721: L2-Pf-HR :0.82614: L2-HR :0.79373: (Sim:5h53m16s) 
CPU  2 inst:  145000002 cyc:  272461042 now IPC :0.26051: AVG IPC :0.52675: L2-Pf-HR :0.82687: L2-HR :0.79428: (Sim:5h53m32s) 
CPU  3 inst:  145000002 cyc:  272477969 now IPC :0.25994: AVG IPC :0.52672: L2-Pf-HR :0.82667: L2-HR :0.79561: (Sim:5h53m33s) 
CPU  0 inst:  145000002 cyc:  272560406 now IPC :0.26007: AVG IPC :0.52656: L2-Pf-HR :0.82776: L2-HR :0.79636: (Sim:5h53m38s) 
CPU  1 inst:  146000000 cyc:  275995623 now IPC :0.26513: AVG IPC :0.52362: L2-Pf-HR :0.82595: L2-HR :0.79333: (Sim:5h57m20s) 
CPU  2 inst:  146000000 cyc:  276242034 now IPC :0.26448: AVG IPC :0.52315: L2-Pf-HR :0.82664: L2-HR :0.79385: (Sim:5h57m35s) 
CPU  3 inst:  146000000 cyc:  276267249 now IPC :0.26390: AVG IPC :0.52310: L2-Pf-HR :0.82642: L2-HR :0.79515: (Sim:5h57m37s) 
CPU  0 inst:  146000000 cyc:  276339439 now IPC :0.26462: AVG IPC :0.52296: L2-Pf-HR :0.82753: L2-HR :0.79592: (Sim:5h57m41s) 
CPU  1 inst:  147000000 cyc:  279808621 now IPC :0.26226: AVG IPC :0.52004: L2-Pf-HR :0.82569: L2-HR :0.79288: (Sim:6h1m24s) 
CPU  2 inst:  147000000 cyc:  280056224 now IPC :0.26218: AVG IPC :0.51958: L2-Pf-HR :0.82641: L2-HR :0.79342: (Sim:6h1m39s) 
CPU  3 inst:  147000000 cyc:  280063824 now IPC :0.26340: AVG IPC :0.51957: L2-Pf-HR :0.82619: L2-HR :0.79471: (Sim:6h1m40s) 
CPU  0 inst:  147000000 cyc:  280150838 now IPC :0.26237: AVG IPC :0.51941: L2-Pf-HR :0.82723: L2-HR :0.79542: (Sim:6h1m45s) 
CPU  1 inst:  148000003 cyc:  283630599 now IPC :0.26165: AVG IPC :0.51655: L2-Pf-HR :0.82552: L2-HR :0.79250: (Sim:6h5m28s) 
CPU  2 inst:  148000003 cyc:  283873694 now IPC :0.26195: AVG IPC :0.51611: L2-Pf-HR :0.82622: L2-HR :0.79302: (Sim:6h5m44s) 
CPU  3 inst:  148000003 cyc:  283886237 now IPC :0.26162: AVG IPC :0.51608: L2-Pf-HR :0.82600: L2-HR :0.79431: (Sim:6h5m44s) 
CPU  0 inst:  148000003 cyc:  283969494 now IPC :0.26187: AVG IPC :0.51593: L2-Pf-HR :0.82702: L2-HR :0.79501: (Sim:6h5m50s) 
CPU  1 inst:  149000002 cyc:  287419092 now IPC :0.26396: AVG IPC :0.51321: L2-Pf-HR :0.82538: L2-HR :0.79214: (Sim:6h9m31s) 
CPU  2 inst:  149000002 cyc:  287660616 now IPC :0.26407: AVG IPC :0.51278: L2-Pf-HR :0.82609: L2-HR :0.79267: (Sim:6h9m46s) 
CPU  3 inst:  149000002 cyc:  287677805 now IPC :0.26374: AVG IPC :0.51274: L2-Pf-HR :0.82585: L2-HR :0.79394: (Sim:6h9m48s) 
CPU  0 inst:  149000002 cyc:  287763290 now IPC :0.26359: AVG IPC :0.51259: L2-Pf-HR :0.82690: L2-HR :0.79466: (Sim:6h9m53s) 
CPU  1 inst:  150000000 cyc:  291209707 now IPC :0.26381: AVG IPC :0.50995: L2-Pf-HR :0.82523: L2-HR :0.79178: (Sim:6h13m35s) 
CPU  2 inst:  150000000 cyc:  291451531 now IPC :0.26379: AVG IPC :0.50953: L2-Pf-HR :0.82593: L2-HR :0.79230: (Sim:6h13m51s) 
CPU  3 inst:  150000000 cyc:  291471284 now IPC :0.26361: AVG IPC :0.50949: L2-Pf-HR :0.82566: L2-HR :0.79353: (Sim:6h13m52s) 
CPU  0 inst:  150000000 cyc:  291555593 now IPC :0.26369: AVG IPC :0.50934: L2-Pf-HR :0.82675: L2-HR :0.79429: (Sim:6h13m57s) 
CPU  1 inst:  151000000 cyc:  295026156 now IPC :0.26202: AVG IPC :0.50673: L2-Pf-HR :0.82506: L2-HR :0.79141: (Sim:6h17m41s) 
CPU  2 inst:  151000000 cyc:  295275292 now IPC :0.26152: AVG IPC :0.50631: L2-Pf-HR :0.82574: L2-HR :0.79191: (Sim:6h17m57s) 
CPU  3 inst:  151000000 cyc:  295289577 now IPC :0.26190: AVG IPC :0.50628: L2-Pf-HR :0.82547: L2-HR :0.79314: (Sim:6h17m58s) 
CPU  0 inst:  151000000 cyc:  295375119 now IPC :0.26181: AVG IPC :0.50613: L2-Pf-HR :0.82656: L2-HR :0.79390: (Sim:6h18m3s) 
CPU  1 inst:  152000002 cyc:  298821240 now IPC :0.26350: AVG IPC :0.50363: L2-Pf-HR :0.82492: L2-HR :0.79105: (Sim:6h21m44s) 
CPU  2 inst:  152000002 cyc:  299069894 now IPC :0.26353: AVG IPC :0.50322: L2-Pf-HR :0.82563: L2-HR :0.79158: (Sim:6h22m0s) 
CPU  3 inst:  152000002 cyc:  299078904 now IPC :0.26390: AVG IPC :0.50320: L2-Pf-HR :0.82531: L2-HR :0.79277: (Sim:6h22m0s) 
CPU  0 inst:  152000002 cyc:  299162373 now IPC :0.26404: AVG IPC :0.50306: L2-Pf-HR :0.82643: L2-HR :0.79355: (Sim:6h22m6s) 
CPU  1 inst:  153000002 cyc:  302630047 now IPC :0.26255: AVG IPC :0.50059: L2-Pf-HR :0.82475: L2-HR :0.79068: (Sim:6h25m47s) 
CPU  2 inst:  153000002 cyc:  302872878 now IPC :0.26295: AVG IPC :0.50019: L2-Pf-HR :0.82548: L2-HR :0.79123: (Sim:6h26m3s) 
CPU  3 inst:  153000002 cyc:  302886374 now IPC :0.26264: AVG IPC :0.50016: L2-Pf-HR :0.82514: L2-HR :0.79239: (Sim:6h26m4s) 
CPU  0 inst:  153000002 cyc:  302969743 now IPC :0.26265: AVG IPC :0.50003: L2-Pf-HR :0.82629: L2-HR :0.79319: (Sim:6h26m9s) 
CPU  1 inst:  154000000 cyc:  306440154 now IPC :0.26246: AVG IPC :0.49762: L2-Pf-HR :0.82459: L2-HR :0.79032: (Sim:6h29m51s) 
[...]
Core_3_L1I_writeback_miss 0

Core_3_L2C_total_access 41288487
Core_3_L2C_total_hit 37228488
Core_3_L2C_total_miss 4059999
Core_3_L2C_loads 8162613
Core_3_L2C_load_hit 7149468
Core_3_L2C_load_miss 1013145
Core_3_L2C_RFOs 647606
Core_3_L2C_RFO_hit 164079
Core_3_L2C_RFO_miss 483527
Core_3_L2C_prefetches 30540388
Core_3_L2C_prefetch_hit 27978618
Core_3_L2C_prefetch_miss 2561770
Core_3_L2C_writebacks 1937880
Core_3_L2C_writeback_hit 1936323
Core_3_L2C_writeback_miss 1557

CPU 3 L1D next line prefetcher final stats
CPU 3 L2C PC-based stride prefetcher final stats
Stride Degree: 15
MK1  MARKOV_LRU_SIZE: 128
MK1  MARKOV_PREDICTION_PERCENTTHRESHOLD: 40.00000
MK1  OUTLIERS_THRESHOLD_Max: 64
MK1  OUTLIERS_THRESHOLD_Min: 32
MK2  MARKOV_LRU_SIZE: 256
MK2  MARKOV_PREDICTION_PERCENTTHRESHOLD: 20.00000
MK2  OUTLIERS_THRESHOLD_Max: 32
MK2  OUTLIERS_THRESHOLD_Min: 16
MK3  MARKOV_LRU_SIZE: 384
MK3  MARKOV_PREDICTION_PERCENTTHRESHOLD: 25.00000
MK3  OUTLIERS_THRESHOLD_Max: 16
MK3  OUTLIERS_THRESHOLD_Min: 8
MK4  MARKOV_LRU_SIZE: 512
MK4  MARKOV_PREDICTION_PERCENTTHRESHOLD: 20.00000
MK4  OUTLIERS_THRESHOLD_Max: 8
MK4  OUTLIERS_THRESHOLD_Min: 0
IPStride Degree/Access Ratio: 1.44056
MK1 IPDEltaMarkov  Degree/Access Ratio: 0.42987
MK2 IPDEltaMarkov  Degree/Access Ratio: 0.81416
MK3 IPDEltaMarkov  Degree/Access Ratio: 0.73174
MK4 IPDEltaMarkov  Degree/Access Ratio: 1.41219
Core_3_LLC_total_access 5955657
Core_3_LLC_total_hit 2851924
Core_3_LLC_total_miss 3103733
Core_3_LLC_loads 645627
Core_3_LLC_load_hit 423689
Core_3_LLC_load_miss 221938
Core_3_LLC_RFOs 483525
Core_3_LLC_RFO_hit 15
Core_3_LLC_RFO_miss 483510
Core_3_LLC_prefetches 2993675
Core_3_LLC_prefetch_hit 635957
Core_3_LLC_prefetch_miss 2357718
Core_3_LLC_writebacks 1832830
Core_3_LLC_writeback_hit 1792263
Core_3_LLC_writeback_miss 40567


[ROI Statistics]
Core_0_instructions 326000004
Core_0_cycles 561060743
Core_0_IPC 0.58104

Core_0_branch_prediction_accuracy 99.57883
Core_0_branch_MPKI 0.12289
Core_0_average_ROB_occupancy_at_mispredict 562.28910

Core_0_L1D_total_access 200418288
Core_0_L1D_total_hit 183792997 L1D_total_Hit Ratio: 0.91705
Core_0_L1D_total_miss 16625291
Core_0_L1D_loads 81252089
Core_0_L1D_load_hit 72721987 L1D_load_Hit Ratio: 0.89502
Core_0_L1D_load_miss 8530102
Core_0_L1D_RFOs 8364215
Core_0_L1D_RFO_hit 7716321 L1D_RFO_Hit Ratio: 0.92254
Core_0_L1D_RFO_miss 647894
Core_0_L1D_prefetches 110801984
Core_0_L1D_prefetch_hit 103354689 L1D_prefetch_Hit Ratio: 0.93279
Core_0_L1D_prefetch_miss 7447295
Core_0_L1D_writebacks 0
Core_0_L1D_writeback_hit 0 L1D_writeback_Hit Ratio: -nan
Core_0_L1D_writeback_miss 0
Core_0_L1D_prefetch_requested 251235339
Core_0_L1D_prefetch_issued 128585354
Core_0_L1D_prefetch_useful 3722694 L1D_Useful Ratio: 0.02895
Core_0_L1D_prefetch_useless 3746393
Core_0_L1D_prefetch_late 385978
Core_0_L1D_average_miss_latency 5588058.23862

Core_0_L1I_total_access 47797048
Core_0_L1I_total_hit 47792127 L1I_total_Hit Ratio: 0.99990
Core_0_L1I_total_miss 4921
Core_0_L1I_loads 47797048
Core_0_L1I_load_hit 47792127 L1I_load_Hit Ratio: 0.99990
Core_0_L1I_load_miss 4921
Core_0_L1I_RFOs 0
Core_0_L1I_RFO_hit 0 L1I_RFO_Hit Ratio: -nan
Core_0_L1I_RFO_miss 0
Core_0_L1I_prefetches 0
Core_0_L1I_prefetch_hit 0 L1I_prefetch_Hit Ratio: -nan
Core_0_L1I_prefetch_miss 0
Core_0_L1I_writebacks 0
Core_0_L1I_writeback_hit 0 L1I_writeback_Hit Ratio: -nan
Core_0_L1I_writeback_miss 0
Core_0_L1I_prefetch_requested 0
Core_0_L1I_prefetch_issued 0
Core_0_L1I_prefetch_useful 0 L1I_Useful Ratio: -nan
Core_0_L1I_prefetch_useless 0
Core_0_L1I_prefetch_late 0
Core_0_L1I_average_miss_latency 1051.02174

Core_0_L2C_total_access 41234170
Core_0_L2C_total_hit 37188017 L2C_total_Hit Ratio: 0.90187
Core_0_L2C_total_miss 4046153
Core_0_L2C_loads 8150320
Core_0_L2C_load_hit 7137939 L2C_load_Hit Ratio: 0.87579
Core_0_L2C_load_miss 1012381
Core_0_L2C_RFOs 647876
Core_0_L2C_RFO_hit 164363 L2C_RFO_Hit Ratio: 0.25370
Core_0_L2C_RFO_miss 483513
Core_0_L2C_prefetches 30498393
Core_0_L2C_prefetch_hit 27949492 L2C_prefetch_Hit Ratio: 0.91643
Core_0_L2C_prefetch_miss 2548901
Core_0_L2C_writebacks 1937581
Core_0_L2C_writeback_hit 1936223 L2C_writeback_Hit Ratio: 0.99930
Core_0_L2C_writeback_miss 1358
Core_0_L2C_prefetch_requested 75221392
Core_0_L2C_prefetch_issued 34325333
Core_0_L2C_prefetch_useful 409913 L2C_Useful Ratio: 0.01194
Core_0_L2C_prefetch_useless 2153259
Core_0_L2C_prefetch_late 367065
Core_0_L2C_average_miss_latency 983.80948

Core_0_LLC_total_access 5936765
Core_0_LLC_total_hit 2831588 LLC_total_Hit Ratio: 0.47696
Core_0_LLC_total_miss 3105177
Core_0_LLC_loads 645393
Core_0_LLC_load_hit 423724 LLC_load_Hit Ratio: 0.65654
Core_0_LLC_load_miss 221669
Core_0_LLC_RFOs 483511
Core_0_LLC_RFO_hit 9 LLC_RFO_Hit Ratio: 0.00002
Core_0_LLC_RFO_miss 483502
Core_0_LLC_prefetches 2978199
Core_0_LLC_prefetch_hit 619936 LLC_prefetch_Hit Ratio: 0.20816
Core_0_LLC_prefetch_miss 2358263
Core_0_LLC_writebacks 1829662
Core_0_LLC_writeback_hit 1787919 LLC_writeback_Hit Ratio: 0.97719
Core_0_LLC_writeback_miss 41743
Core_0_LLC_prefetch_requested 0
Core_0_LLC_prefetch_issued 0
Core_0_LLC_prefetch_useful 1303546 LLC_Useful Ratio: inf
Core_0_LLC_prefetch_useless 8024431
Core_0_LLC_prefetch_late 10048
Core_0_LLC_average_miss_latency 4775.08425

Core_0_major_page_fault 0
Core_0_minor_page_fault 19454

Core_1_instructions 326000003
Core_1_cycles 560864233
Core_1_IPC 0.58125

Core_1_branch_prediction_accuracy 99.57882
Core_1_branch_MPKI 0.12280
Core_1_average_ROB_occupancy_at_mispredict 562.28612

Core_1_L1D_total_access 200463662
Core_1_L1D_total_hit 183836919 L1D_total_Hit Ratio: 0.91706
Core_1_L1D_total_miss 16626743
Core_1_L1D_loads 81267035
Core_1_L1D_load_hit 72736931 L1D_load_Hit Ratio: 0.89504
Core_1_L1D_load_miss 8530104
Core_1_L1D_RFOs 8364499
Core_1_L1D_RFO_hit 7719324 L1D_RFO_Hit Ratio: 0.92287
Core_1_L1D_RFO_miss 645175
Core_1_L1D_prefetches 110832128
Core_1_L1D_prefetch_hit 103380664 L1D_prefetch_Hit Ratio: 0.93277
Core_1_L1D_prefetch_miss 7451464
Core_1_L1D_writebacks 0
Core_1_L1D_writeback_hit 0 L1D_writeback_Hit Ratio: -nan
Core_1_L1D_writeback_miss 0
Core_1_L1D_prefetch_requested 251548443
Core_1_L1D_prefetch_issued 128690609
Core_1_L1D_prefetch_useful 3728351 L1D_Useful Ratio: 0.02897
Core_1_L1D_prefetch_useless 3757568
Core_1_L1D_prefetch_late 386454
Core_1_L1D_average_miss_latency 5580789.01875

Core_1_L1I_total_access 47799310
Core_1_L1I_total_hit 47794389 L1I_total_Hit Ratio: 0.99990
Core_1_L1I_total_miss 4921
Core_1_L1I_loads 47799310
Core_1_L1I_load_hit 47794389 L1I_load_Hit Ratio: 0.99990
Core_1_L1I_load_miss 4921
Core_1_L1I_RFOs 0
Core_1_L1I_RFO_hit 0 L1I_RFO_Hit Ratio: -nan
Core_1_L1I_RFO_miss 0
Core_1_L1I_prefetches 0
Core_1_L1I_prefetch_hit 0 L1I_prefetch_Hit Ratio: -nan
Core_1_L1I_prefetch_miss 0
Core_1_L1I_writebacks 0
Core_1_L1I_writeback_hit 0 L1I_writeback_Hit Ratio: -nan
Core_1_L1I_writeback_miss 0
Core_1_L1I_prefetch_requested 0
Core_1_L1I_prefetch_issued 0
Core_1_L1I_prefetch_useful 0 L1I_Useful Ratio: -nan
Core_1_L1I_prefetch_useless 0
Core_1_L1I_prefetch_late 0
Core_1_L1I_average_miss_latency 1146.79720

Core_1_L2C_total_access 41174198
Core_1_L2C_total_hit 37102548 L2C_total_Hit Ratio: 0.90111
Core_1_L2C_total_miss 4071650
Core_1_L2C_loads 8150139
Core_1_L2C_load_hit 7121446 L2C_load_Hit Ratio: 0.87378
Core_1_L2C_load_miss 1028693
Core_1_L2C_RFOs 645153
Core_1_L2C_RFO_hit 161612 L2C_RFO_Hit Ratio: 0.25050
Core_1_L2C_RFO_miss 483541
Core_1_L2C_prefetches 30441325
Core_1_L2C_prefetch_hit 27883221 L2C_prefetch_Hit Ratio: 0.91597
Core_1_L2C_prefetch_miss 2558104
Core_1_L2C_writebacks 1937581
Core_1_L2C_writeback_hit 1936269 L2C_writeback_Hit Ratio: 0.99932
Core_1_L2C_writeback_miss 1312
Core_1_L2C_prefetch_requested 75919772
Core_1_L2C_prefetch_issued 34222713
Core_1_L2C_prefetch_useful 401757 L2C_Useful Ratio: 0.01174
Core_1_L2C_prefetch_useless 2173208
Core_1_L2C_prefetch_late 366569
Core_1_L2C_average_miss_latency 976.41160

Core_1_LLC_total_access 5969112
Core_1_LLC_total_hit 2876977 LLC_total_Hit Ratio: 0.48198
Core_1_LLC_total_miss 3092135
Core_1_LLC_loads 662170
Core_1_LLC_load_hit 439870 LLC_load_Hit Ratio: 0.66429
Core_1_LLC_load_miss 222300
Core_1_LLC_RFOs 483537
Core_1_LLC_RFO_hit 13 LLC_RFO_Hit Ratio: 0.00003
Core_1_LLC_RFO_miss 483524
Core_1_LLC_prefetches 2988180
Core_1_LLC_prefetch_hit 638440 LLC_prefetch_Hit Ratio: 0.21366
Core_1_LLC_prefetch_miss 2349740
Core_1_LLC_writebacks 1835225
Core_1_LLC_writeback_hit 1798654 LLC_writeback_Hit Ratio: 0.98007
Core_1_LLC_writeback_miss 36571
Core_1_LLC_prefetch_requested 0
Core_1_LLC_prefetch_issued 0
Core_1_LLC_prefetch_useful 1303546 LLC_Useful Ratio: inf
Core_1_LLC_prefetch_useless 8024431
Core_1_LLC_prefetch_late 10048
Core_1_LLC_average_miss_latency 4795.22459

Core_1_major_page_fault 0
Core_1_minor_page_fault 19454

Core_2_instructions 326000003
Core_2_cycles 560791759
Core_2_IPC 0.58132

Core_2_branch_prediction_accuracy 99.57880
Core_2_branch_MPKI 0.12277
Core_2_average_ROB_occupancy_at_mispredict 562.28176

Core_2_L1D_total_access 200503682
Core_2_L1D_total_hit 183876575 L1D_total_Hit Ratio: 0.91707
Core_2_L1D_total_miss 16627107
Core_2_L1D_loads 81276235
Core_2_L1D_load_hit 72747344 L1D_load_Hit Ratio: 0.89506
Core_2_L1D_load_miss 8528891
Core_2_L1D_RFOs 8365731
Core_2_L1D_RFO_hit 7720597 L1D_RFO_Hit Ratio: 0.92288
Core_2_L1D_RFO_miss 645134
Core_2_L1D_prefetches 110861716
Core_2_L1D_prefetch_hit 103408634 L1D_prefetch_Hit Ratio: 0.93277
Core_2_L1D_prefetch_miss 7453082
Core_2_L1D_writebacks 0
Core_2_L1D_writeback_hit 0 L1D_writeback_Hit Ratio: -nan
Core_2_L1D_writeback_miss 0
Core_2_L1D_prefetch_requested 251685561
Core_2_L1D_prefetch_issued 128759669
Core_2_L1D_prefetch_useful 3731922 L1D_Useful Ratio: 0.02898
Core_2_L1D_prefetch_useless 3761927
Core_2_L1D_prefetch_late 386514
Core_2_L1D_average_miss_latency 5584552.61078

Core_2_L1I_total_access 47799704
Core_2_L1I_total_hit 47794783 L1I_total_Hit Ratio: 0.99990
Core_2_L1I_total_miss 4921
Core_2_L1I_loads 47799704
Core_2_L1I_load_hit 47794783 L1I_load_Hit Ratio: 0.99990
Core_2_L1I_load_miss 4921
Core_2_L1I_RFOs 0
Core_2_L1I_RFO_hit 0 L1I_RFO_Hit Ratio: -nan
Core_2_L1I_RFO_miss 0
Core_2_L1I_prefetches 0
Core_2_L1I_prefetch_hit 0 L1I_prefetch_Hit Ratio: -nan
Core_2_L1I_prefetch_miss 0
Core_2_L1I_writebacks 0
Core_2_L1I_writeback_hit 0 L1I_writeback_Hit Ratio: -nan
Core_2_L1I_writeback_miss 0
Core_2_L1I_prefetch_requested 0
Core_2_L1I_prefetch_issued 0
Core_2_L1I_prefetch_useful 0 L1I_Useful Ratio: -nan
Core_2_L1I_prefetch_useless 0
Core_2_L1I_prefetch_late 0
Core_2_L1I_average_miss_latency 1062.80797

Core_2_L2C_total_access 41212378
Core_2_L2C_total_hit 37146637 L2C_total_Hit Ratio: 0.90135
Core_2_L2C_total_miss 4065741
Core_2_L2C_loads 8148894
Core_2_L2C_load_hit 7121948 L2C_load_Hit Ratio: 0.87398
Core_2_L2C_load_miss 1026946
Core_2_L2C_RFOs 645110
Core_2_L2C_RFO_hit 161571 L2C_RFO_Hit Ratio: 0.25045
Core_2_L2C_RFO_miss 483539
Core_2_L2C_prefetches 30480787
Core_2_L2C_prefetch_hit 27926950 L2C_prefetch_Hit Ratio: 0.91621
Core_2_L2C_prefetch_miss 2553837
Core_2_L2C_writebacks 1937587
Core_2_L2C_writeback_hit 1936168 L2C_writeback_Hit Ratio: 0.99927
Core_2_L2C_writeback_miss 1419
Core_2_L2C_prefetch_requested 75311848
Core_2_L2C_prefetch_issued 34364553
Core_2_L2C_prefetch_useful 401814 L2C_Useful Ratio: 0.01169
Core_2_L2C_prefetch_useless 2169594
Core_2_L2C_prefetch_late 366807
Core_2_L2C_average_miss_latency 978.01567

Core_2_LLC_total_access 5963486
Core_2_LLC_total_hit 2867313 LLC_total_Hit Ratio: 0.48081
Core_2_LLC_total_miss 3096173
Core_2_LLC_loads 660223
Core_2_LLC_load_hit 438986 LLC_load_Hit Ratio: 0.66491
Core_2_LLC_load_miss 221237
Core_2_LLC_RFOs 483536
Core_2_LLC_RFO_hit 16 LLC_RFO_Hit Ratio: 0.00003
Core_2_LLC_RFO_miss 483520
Core_2_LLC_prefetches 2985858
Core_2_LLC_prefetch_hit 633778 LLC_prefetch_Hit Ratio: 0.21226
Core_2_LLC_prefetch_miss 2352080
Core_2_LLC_writebacks 1833869
Core_2_LLC_writeback_hit 1794533 LLC_writeback_Hit Ratio: 0.97855
Core_2_LLC_writeback_miss 39336
Core_2_LLC_prefetch_requested 0
Core_2_LLC_prefetch_issued 0
Core_2_LLC_prefetch_useful 1303546 LLC_Useful Ratio: inf
Core_2_LLC_prefetch_useless 8024431
Core_2_LLC_prefetch_late 10048
Core_2_LLC_average_miss_latency 4788.97070

Core_2_major_page_fault 0
Core_2_minor_page_fault 19454

Core_3_instructions 326000005
Core_3_cycles 560871761
Core_3_IPC 0.58124

Core_3_branch_prediction_accuracy 99.57881
Core_3_branch_MPKI 0.12281
Core_3_average_ROB_occupancy_at_mispredict 562.24786

Core_3_L1D_total_access 200478773
Core_3_L1D_total_hit 183850068 L1D_total_Hit Ratio: 0.91706
Core_3_L1D_total_miss 16628705
Core_3_L1D_loads 81264135
Core_3_L1D_load_hit 72734325 L1D_load_Hit Ratio: 0.89504
Core_3_L1D_load_miss 8529810
Core_3_L1D_RFOs 8362961
Core_3_L1D_RFO_hit 7715333 L1D_RFO_Hit Ratio: 0.92256
Core_3_L1D_RFO_miss 647628
Core_3_L1D_prefetches 110851677
Core_3_L1D_prefetch_hit 103400410 L1D_prefetch_Hit Ratio: 0.93278
Core_3_L1D_prefetch_miss 7451267
Core_3_L1D_writebacks 0
Core_3_L1D_writeback_hit 0 L1D_writeback_Hit Ratio: -nan
Core_3_L1D_writeback_miss 0
Core_3_L1D_prefetch_requested 251514627
Core_3_L1D_prefetch_issued 128713285
Core_3_L1D_prefetch_useful 3728418 L1D_Useful Ratio: 0.02897
Core_3_L1D_prefetch_useless 3756650
Core_3_L1D_prefetch_late 387069
Core_3_L1D_average_miss_latency 5589858.55307

Core_3_L1I_total_access 47799359
Core_3_L1I_total_hit 47794437 L1I_total_Hit Ratio: 0.99990
Core_3_L1I_total_miss 4922
Core_3_L1I_loads 47799359
Core_3_L1I_load_hit 47794437 L1I_load_Hit Ratio: 0.99990
Core_3_L1I_load_miss 4922
Core_3_L1I_RFOs 0
Core_3_L1I_RFO_hit 0 L1I_RFO_Hit Ratio: -nan
Core_3_L1I_RFO_miss 0
Core_3_L1I_prefetches 0
Core_3_L1I_prefetch_hit 0 L1I_prefetch_Hit Ratio: -nan
Core_3_L1I_prefetch_miss 0
Core_3_L1I_writebacks 0
Core_3_L1I_writeback_hit 0 L1I_writeback_Hit Ratio: -nan
Core_3_L1I_writeback_miss 0
Core_3_L1I_prefetch_requested 0
Core_3_L1I_prefetch_issued 0
Core_3_L1I_prefetch_useful 0 L1I_Useful Ratio: -nan
Core_3_L1I_prefetch_useless 0
Core_3_L1I_prefetch_late 0
Core_3_L1I_average_miss_latency 1102.65786

Core_3_L2C_total_access 41230478
Core_3_L2C_total_hit 37172993 L2C_total_Hit Ratio: 0.90159
Core_3_L2C_total_miss 4057485
Core_3_L2C_loads 8149222
Core_3_L2C_load_hit 7136478 L2C_load_Hit Ratio: 0.87573
Core_3_L2C_load_miss 1012744
Core_3_L2C_RFOs 647606
Core_3_L2C_RFO_hit 164079 L2C_RFO_Hit Ratio: 0.25336
Core_3_L2C_RFO_miss 483527
Core_3_L2C_prefetches 30496069
Core_3_L2C_prefetch_hit 27936412 L2C_prefetch_Hit Ratio: 0.91607
Core_3_L2C_prefetch_miss 2559657
Core_3_L2C_writebacks 1937581
Core_3_L2C_writeback_hit 1936024 L2C_writeback_Hit Ratio: 0.99920
Core_3_L2C_writeback_miss 1557
Core_3_L2C_prefetch_requested 74926194
Core_3_L2C_prefetch_issued 34373670
Core_3_L2C_prefetch_useful 416789 L2C_Useful Ratio: 0.01213
Core_3_L2C_prefetch_useless 2159486
Core_3_L2C_prefetch_late 367553
Core_3_L2C_average_miss_latency 978.77438

Core_3_LLC_total_access 5952821
Core_3_LLC_total_hit 2851221 LLC_total_Hit Ratio: 0.47897
Core_3_LLC_total_miss 3101600
Core_3_LLC_loads 645226
Core_3_LLC_load_hit 423654 LLC_load_Hit Ratio: 0.65660
Core_3_LLC_load_miss 221572
Core_3_LLC_RFOs 483525
Core_3_LLC_RFO_hit 15 LLC_RFO_Hit Ratio: 0.00003
Core_3_LLC_RFO_miss 483510
Core_3_LLC_prefetches 2991548
Core_3_LLC_prefetch_hit 635576 LLC_prefetch_Hit Ratio: 0.21246
Core_3_LLC_prefetch_miss 2355972
Core_3_LLC_writebacks 1832522
Core_3_LLC_writeback_hit 1791976 LLC_writeback_Hit Ratio: 0.97787
Core_3_LLC_writeback_miss 40546
Core_3_LLC_prefetch_requested 0
Core_3_LLC_prefetch_issued 0
Core_3_LLC_prefetch_useful 1303546 LLC_Useful Ratio: inf
Core_3_LLC_prefetch_useless 8024431
Core_3_LLC_prefetch_late 10048
Core_3_LLC_average_miss_latency 4780.59124

Core_3_major_page_fault 0
Core_3_minor_page_fault 19454

CPU 0 L1D next line prefetcher final stats
CPU 0 L2C PC-based stride prefetcher final stats
Stride Degree: 15
MK1  MARKOV_LRU_SIZE: 128
MK1  MARKOV_PREDICTION_PERCENTTHRESHOLD: 40.00000
MK1  OUTLIERS_THRESHOLD_Max: 64
MK1  OUTLIERS_THRESHOLD_Min: 32
MK2  MARKOV_LRU_SIZE: 256
MK2  MARKOV_PREDICTION_PERCENTTHRESHOLD: 20.00000
MK2  OUTLIERS_THRESHOLD_Max: 32
MK2  OUTLIERS_THRESHOLD_Min: 16
MK3  MARKOV_LRU_SIZE: 384
MK3  MARKOV_PREDICTION_PERCENTTHRESHOLD: 25.00000
MK3  OUTLIERS_THRESHOLD_Max: 16
MK3  OUTLIERS_THRESHOLD_Min: 8
MK4  MARKOV_LRU_SIZE: 512
MK4  MARKOV_PREDICTION_PERCENTTHRESHOLD: 20.00000
MK4  OUTLIERS_THRESHOLD_Max: 8
MK4  OUTLIERS_THRESHOLD_Min: 0
IPStride Degree/Access Ratio: 1.44056
MK1 IPDEltaMarkov  Degree/Access Ratio: 0.42987
MK2 IPDEltaMarkov  Degree/Access Ratio: 0.81416
MK3 IPDEltaMarkov  Degree/Access Ratio: 0.73174
MK4 IPDEltaMarkov  Degree/Access Ratio: 1.41219
CPU 1 L1D next line prefetcher final stats
CPU 1 L2C PC-based stride prefetcher final stats
Stride Degree: 15
MK1  MARKOV_LRU_SIZE: 128
MK1  MARKOV_PREDICTION_PERCENTTHRESHOLD: 40.00000
MK1  OUTLIERS_THRESHOLD_Max: 64
MK1  OUTLIERS_THRESHOLD_Min: 32
MK2  MARKOV_LRU_SIZE: 256
MK2  MARKOV_PREDICTION_PERCENTTHRESHOLD: 20.00000
MK2  OUTLIERS_THRESHOLD_Max: 32
MK2  OUTLIERS_THRESHOLD_Min: 16
MK3  MARKOV_LRU_SIZE: 384
MK3  MARKOV_PREDICTION_PERCENTTHRESHOLD: 25.00000
MK3  OUTLIERS_THRESHOLD_Max: 16
MK3  OUTLIERS_THRESHOLD_Min: 8
MK4  MARKOV_LRU_SIZE: 512
MK4  MARKOV_PREDICTION_PERCENTTHRESHOLD: 20.00000
MK4  OUTLIERS_THRESHOLD_Max: 8
MK4  OUTLIERS_THRESHOLD_Min: 0
IPStride Degree/Access Ratio: 1.44056
MK1 IPDEltaMarkov  Degree/Access Ratio: 0.42987
MK2 IPDEltaMarkov  Degree/Access Ratio: 0.81416
MK3 IPDEltaMarkov  Degree/Access Ratio: 0.73174
MK4 IPDEltaMarkov  Degree/Access Ratio: 1.41219
CPU 2 L1D next line prefetcher final stats
CPU 2 L2C PC-based stride prefetcher final stats
Stride Degree: 15
MK1  MARKOV_LRU_SIZE: 128
MK1  MARKOV_PREDICTION_PERCENTTHRESHOLD: 40.00000
MK1  OUTLIERS_THRESHOLD_Max: 64
MK1  OUTLIERS_THRESHOLD_Min: 32
MK2  MARKOV_LRU_SIZE: 256
MK2  MARKOV_PREDICTION_PERCENTTHRESHOLD: 20.00000
MK2  OUTLIERS_THRESHOLD_Max: 32
MK2  OUTLIERS_THRESHOLD_Min: 16
MK3  MARKOV_LRU_SIZE: 384
MK3  MARKOV_PREDICTION_PERCENTTHRESHOLD: 25.00000
MK3  OUTLIERS_THRESHOLD_Max: 16
MK3  OUTLIERS_THRESHOLD_Min: 8
MK4  MARKOV_LRU_SIZE: 512
MK4  MARKOV_PREDICTION_PERCENTTHRESHOLD: 20.00000
MK4  OUTLIERS_THRESHOLD_Max: 8
MK4  OUTLIERS_THRESHOLD_Min: 0
IPStride Degree/Access Ratio: 1.44056
MK1 IPDEltaMarkov  Degree/Access Ratio: 0.42987
MK2 IPDEltaMarkov  Degree/Access Ratio: 0.81416
MK3 IPDEltaMarkov  Degree/Access Ratio: 0.73174
MK4 IPDEltaMarkov  Degree/Access Ratio: 1.41219
CPU 3 L1D next line prefetcher final stats
CPU 3 L2C PC-based stride prefetcher final stats
Stride Degree: 15
MK1  MARKOV_LRU_SIZE: 128
MK1  MARKOV_PREDICTION_PERCENTTHRESHOLD: 40.00000
MK1  OUTLIERS_THRESHOLD_Max: 64
MK1  OUTLIERS_THRESHOLD_Min: 32
MK2  MARKOV_LRU_SIZE: 256
MK2  MARKOV_PREDICTION_PERCENTTHRESHOLD: 20.00000
MK2  OUTLIERS_THRESHOLD_Max: 32
MK2  OUTLIERS_THRESHOLD_Min: 16
MK3  MARKOV_LRU_SIZE: 384
MK3  MARKOV_PREDICTION_PERCENTTHRESHOLD: 25.00000
MK3  OUTLIERS_THRESHOLD_Max: 16
MK3  OUTLIERS_THRESHOLD_Min: 8
MK4  MARKOV_LRU_SIZE: 512
MK4  MARKOV_PREDICTION_PERCENTTHRESHOLD: 20.00000
MK4  OUTLIERS_THRESHOLD_Max: 8
MK4  OUTLIERS_THRESHOLD_Min: 0
IPStride Degree/Access Ratio: 1.44056
MK1 IPDEltaMarkov  Degree/Access Ratio: 0.42987
MK2 IPDEltaMarkov  Degree/Access Ratio: 0.81416
MK3 IPDEltaMarkov  Degree/Access Ratio: 0.73174
MK4 IPDEltaMarkov  Degree/Access Ratio: 1.41219
Channel_0_RQ_row_buffer_hit 4326632
Channel_0_RQ_row_buffer_miss 7916490
Channel_0_WQ_row_buffer_hit 1972432
Channel_0_WQ_row_buffer_miss 4641682
Channel_0_WQ_full 12669
Channel_0_dbus_congested 13489554

avg_congested_cycle 11

EzSearch AVG IPC :0.58104: L2-Pf-HR :0.91643 : L2-HR :0.90187 Uful:0.01194
EzSearch AVG IPC :0.58125: L2-Pf-HR :0.91597 : L2-HR :0.90120 Uful:0.01174
EzSearch AVG IPC :0.58132: L2-Pf-HR :0.91621 : L2-HR :0.90148 Uful:0.01169
EzSearch AVG IPC :0.58124: L2-Pf-HR :0.91607 : L2-HR :0.90167 Uful:0.01213
     > Finished combination: TraceType=770-tot Sim:326000000 Prefetcher=L2029-SecTOP-L2-MultiMarkovDelta_ip_stride_v4 L1=next_line
