TRACE: [151000000]_FE_[OPT-6_7B]_[h32]_[s256]_[d128] Warmup: 2000000 NumTraces: 151000000
L1:berti:L2:berti
*************************************************
   ChampSim Multicore Out-of-Order Simulator
   Last compiled: Oct 28 2024 10:33:51
*************************************************

trace_0 770-tot_memTraces_v3/memTraces[151000000]_FE_[OPT-6_7B]_[h32]_[s256]_[d128].champsim.xz
trace_1 770-tot_memTraces_v3/memTraces[151000000]_FE_[OPT-6_7B]_[h32]_[s256]_[d128].champsim.xz
trace_2 770-tot_memTraces_v3/memTraces[151000000]_FE_[OPT-6_7B]_[h32]_[s256]_[d128].champsim.xz
trace_3 770-tot_memTraces_v3/memTraces[151000000]_FE_[OPT-6_7B]_[h32]_[s256]_[d128].champsim.xz
CPU 0 L1D Berti prefetcher
CPU 0 L2C Berti prefetcher
CPU 1 L1D Berti prefetcher
CPU 1 L2C Berti prefetcher
CPU 2 L1D Berti prefetcher
CPU 2 L2C Berti prefetcher
CPU 3 L1D Berti prefetcher
CPU 3 L2C Berti prefetcher
MAIN.cc ln 751 stats print skipped
CPU  3 inst:    1000000 cyc:     501220 now IPC :1.99513: AVG IPC :1.99513: L2-Pf-HR :0.69748: L2-HR :0.67544: (Sim:0h1m49s) 
CPU  0 inst:    1000000 cyc:     501313 now IPC :1.99476: AVG IPC :1.99476: L2-Pf-HR :0.68914: L2-HR :0.67661: (Sim:0h1m49s) 
CPU  1 inst:    1000000 cyc:     501408 now IPC :1.99438: AVG IPC :1.99438: L2-Pf-HR :0.68472: L2-HR :0.67182: (Sim:0h1m49s) 
CPU  2 inst:    1000000 cyc:     501453 now IPC :1.99420: AVG IPC :1.99420: L2-Pf-HR :0.69020: L2-HR :0.67381: (Sim:0h1m49s) 
CPU  3 inst:    2000000 cyc:     986679 now IPC :2.05991: AVG IPC :2.02700: L2-Pf-HR :0.82241: L2-HR :0.78767: (Sim:0h3m54s) 
CPU  0 inst:    2000000 cyc:     986775 now IPC :2.05989: AVG IPC :2.02680: L2-Pf-HR :0.82198: L2-HR :0.79223: (Sim:0h3m54s) 
CPU  1 inst:    2000000 cyc:     986869 now IPC :2.05990: AVG IPC :2.02661: L2-Pf-HR :0.82101: L2-HR :0.78876: (Sim:0h3m54s) 
CPU  2 inst:    2000000 cyc:     986926 now IPC :2.05985: AVG IPC :2.02649: L2-Pf-HR :0.82101: L2-HR :0.78957: (Sim:0h3m54s) 

Warmup complete CPU  0 instructions:    2000283 cycles:     986927 (Simulation time: 0 hr 3 min 54 sec) 
Warmup complete CPU  1 instructions:    2000168 cycles:     986927 (Simulation time: 0 hr 3 min 54 sec) 
Warmup complete CPU  2 instructions:    2000003 cycles:     986927 (Simulation time: 0 hr 3 min 54 sec) 
Warmup complete CPU  3 instructions:    2000474 cycles:     986926 (Simulation time: 0 hr 3 min 54 sec) 

CPU  3 inst:    3000003 cyc:    1662455 now IPC :1.47978: AVG IPC :1.47962: L2-Pf-HR :0.88452: L2-HR :0.83959: (Sim:0h5m43s) 
CPU  1 inst:    3000003 cyc:    1672142 now IPC :1.45928: AVG IPC :1.45916: L2-Pf-HR :0.88351: L2-HR :0.83938: (Sim:0h5m45s) 
CPU  2 inst:    3000003 cyc:    1674794 now IPC :1.45377: AVG IPC :1.45377: L2-Pf-HR :0.88348: L2-HR :0.83640: (Sim:0h5m45s) 
CPU  0 inst:    3000003 cyc:    1675213 now IPC :1.45257: AVG IPC :1.45248: L2-Pf-HR :0.88894: L2-HR :0.83854: (Sim:0h5m45s) 
CPU  3 inst:    4000001 cyc:    2175737 now IPC :1.94824: AVG IPC :1.68196: L2-Pf-HR :0.91955: L2-HR :0.88402: (Sim:0h7m23s) 
CPU  1 inst:    4000001 cyc:    2183431 now IPC :1.95584: AVG IPC :1.67140: L2-Pf-HR :0.91979: L2-HR :0.88481: (Sim:0h7m25s) 
CPU  0 inst:    4000001 cyc:    2185670 now IPC :1.95902: AVG IPC :1.66818: L2-Pf-HR :0.92166: L2-HR :0.88415: (Sim:0h7m26s) 
CPU  2 inst:    4000001 cyc:    2188416 now IPC :1.94695: AVG IPC :1.66460: L2-Pf-HR :0.91881: L2-HR :0.88294: (Sim:0h7m26s) 
CPU  0 inst:    5000000 cyc:    2816799 now IPC :1.58446: AVG IPC :1.63930: L2-Pf-HR :0.90604: L2-HR :0.87285: (Sim:0h9m10s) 
CPU  3 inst:    5000000 cyc:    2835694 now IPC :1.51525: AVG IPC :1.62245: L2-Pf-HR :0.91254: L2-HR :0.87214: (Sim:0h9m14s) 
CPU  1 inst:    5000000 cyc:    2842587 now IPC :1.51709: AVG IPC :1.61658: L2-Pf-HR :0.90975: L2-HR :0.87197: (Sim:0h9m15s) 
CPU  2 inst:    5000000 cyc:    2845112 now IPC :1.52277: AVG IPC :1.61448: L2-Pf-HR :0.90852: L2-HR :0.87100: (Sim:0h9m15s) 
CPU  0 inst:    6000003 cyc:    3353794 now IPC :1.86222: AVG IPC :1.68988: L2-Pf-HR :0.91737: L2-HR :0.88529: (Sim:0h10m50s) 
CPU  3 inst:    6000003 cyc:    3371394 now IPC :1.86672: AVG IPC :1.67733: L2-Pf-HR :0.92272: L2-HR :0.88523: (Sim:0h10m53s) 
CPU  1 inst:    6000003 cyc:    3384102 now IPC :1.84668: AVG IPC :1.66856: L2-Pf-HR :0.92008: L2-HR :0.88476: (Sim:0h10m55s) 
CPU  2 inst:    6000003 cyc:    3384314 now IPC :1.85460: AVG IPC :1.66848: L2-Pf-HR :0.91941: L2-HR :0.88407: (Sim:0h10m55s) 
CPU  0 inst:    7000005 cyc:    4003726 now IPC :1.53863: AVG IPC :1.65729: L2-Pf-HR :0.91261: L2-HR :0.87841: (Sim:0h12m35s) 
CPU  2 inst:    7000005 cyc:    4009428 now IPC :1.59971: AVG IPC :1.65426: L2-Pf-HR :0.91114: L2-HR :0.87862: (Sim:0h12m36s) 
CPU  1 inst:    7000005 cyc:    4012741 now IPC :1.59074: AVG IPC :1.65239: L2-Pf-HR :0.91304: L2-HR :0.87909: (Sim:0h12m37s) 
CPU  3 inst:    7000005 cyc:    4019723 now IPC :1.54243: AVG IPC :1.64849: L2-Pf-HR :0.91449: L2-HR :0.87777: (Sim:0h12m38s) 
CPU  0 inst:    8000000 cyc:    4519930 now IPC :1.93721: AVG IPC :1.69819: L2-Pf-HR :0.91876: L2-HR :0.88635: (Sim:0h14m10s) 
CPU  2 inst:    8000000 cyc:    4532446 now IPC :1.91197: AVG IPC :1.69228: L2-Pf-HR :0.91714: L2-HR :0.88585: (Sim:0h14m13s) 
CPU  1 inst:    8000000 cyc:    4539222 now IPC :1.89939: AVG IPC :1.68900: L2-Pf-HR :0.91922: L2-HR :0.88659: (Sim:0h14m14s) 
CPU  3 inst:    8000000 cyc:    4546365 now IPC :1.89881: AVG IPC :1.68553: L2-Pf-HR :0.91585: L2-HR :0.88038: (Sim:0h14m15s) 
CPU  0 inst:    9000004 cyc:    5153082 now IPC :1.57941: AVG IPC :1.68014: L2-Pf-HR :0.91293: L2-HR :0.88090: (Sim:0h15m53s) 
CPU  2 inst:    9000004 cyc:    5178634 now IPC :1.54754: AVG IPC :1.66996: L2-Pf-HR :0.91140: L2-HR :0.87910: (Sim:0h15m57s) 
CPU  1 inst:    9000004 cyc:    5193916 now IPC :1.52744: AVG IPC :1.66386: L2-Pf-HR :0.91565: L2-HR :0.88038: (Sim:0h16m0s) 
CPU  3 inst:    9000004 cyc:    5196866 now IPC :1.53728: AVG IPC :1.66262: L2-Pf-HR :0.91093: L2-HR :0.87461: (Sim:0h16m1s) 
CPU  0 inst:   10000005 cyc:    5677664 now IPC :1.90628: AVG IPC :1.70543: L2-Pf-HR :0.91715: L2-HR :0.88626: (Sim:0h17m29s) 
CPU  2 inst:   10000005 cyc:    5698565 now IPC :1.92333: AVG IPC :1.69792: L2-Pf-HR :0.91525: L2-HR :0.88395: (Sim:0h17m33s) 
CPU  1 inst:   10000005 cyc:    5710972 now IPC :1.93403: AVG IPC :1.69343: L2-Pf-HR :0.91988: L2-HR :0.88603: (Sim:0h17m36s) 
CPU  3 inst:   10000005 cyc:    5715530 now IPC :1.92803: AVG IPC :1.69173: L2-Pf-HR :0.91613: L2-HR :0.88081: (Sim:0h17m37s) 
CPU  0 inst:   11000000 cyc:    6317550 now IPC :1.56277: AVG IPC :1.68830: L2-Pf-HR :0.91527: L2-HR :0.88330: (Sim:0h19m3s) 
CPU  1 inst:   11000000 cyc:    6350457 now IPC :1.56375: AVG IPC :1.67797: L2-Pf-HR :0.91676: L2-HR :0.88346: (Sim:0h19m8s) 
CPU  3 inst:   11000000 cyc:    6362587 now IPC :1.54545: AVG IPC :1.67412: L2-Pf-HR :0.91411: L2-HR :0.87854: (Sim:0h19m9s) 
CPU  0 inst:   12000004 cyc:    6869096 now IPC :1.81309: AVG IPC :1.70001: L2-Pf-HR :0.91765: L2-HR :0.88637: (Sim:0h20m24s) 
CPU  1 inst:   12000004 cyc:    6891558 now IPC :1.84809: AVG IPC :1.69356: L2-Pf-HR :0.91929: L2-HR :0.88666: (Sim:0h20m27s) 
DEADLOCK! CPU 2 instr_id: 10397888 translated: 2 fetched: 2 scheduled: 2 executed: 1 is_memory: 1 event: 5897071 current: 6897071

Load Queue Entry
[LQ] entry: 0 instr_id: 10397914 address: 41d09e9b70d0 translated: 2 fetched: 0
[LQ] entry: 1 instr_id: 0 address: 0 translated: 0 fetched: 0
[LQ] entry: 2 instr_id: 0 address: 0 translated: 0 fetched: 0
[LQ] entry: 3 instr_id: 0 address: 0 translated: 0 fetched: 0
[LQ] entry: 4 instr_id: 0 address: 0 translated: 0 fetched: 0
[LQ] entry: 5 instr_id: 0 address: 0 translated: 0 fetched: 0
[LQ] entry: 6 instr_id: 0 address: 0 translated: 0 fetched: 0
[LQ] entry: 7 instr_id: 0 address: 0 translated: 0 fetched: 0
[LQ] entry: 8 instr_id: 0 address: 0 translated: 0 fetched: 0
[LQ] entry: 9 instr_id: 0 address: 0 translated: 0 fetched: 0
[LQ] entry: 10 instr_id: 0 address: 0 translated: 0 fetched: 0
[LQ] entry: 11 instr_id: 0 address: 0 translated: 0 fetched: 0
[LQ] entry: 12 instr_id: 0 address: 0 translated: 0 fetched: 0
[LQ] entry: 13 instr_id: 0 address: 0 translated: 0 fetched: 0
[LQ] entry: 14 instr_id: 0 address: 0 translated: 0 fetched: 0
[LQ] entry: 15 instr_id: 0 address: 0 translated: 0 fetched: 0
[LQ] entry: 16 instr_id: 0 address: 0 translated: 0 fetched: 0
[LQ] entry: 17 instr_id: 0 address: 0 translated: 0 fetched: 0
[LQ] entry: 18 instr_id: 0 address: 0 translated: 0 fetched: 0
[LQ] entry: 19 instr_id: 0 address: 0 translated: 0 fetched: 0
[LQ] entry: 20 instr_id: 0 address: 0 translated: 0 fetched: 0
[LQ] entry: 21 instr_id: 0 address: 0 translated: 0 fetched: 0
[LQ] entry: 22 instr_id: 0 address: 0 translated: 0 fetched: 0
[LQ] entry: 23 instr_id: 0 address: 0 translated: 0 fetched: 0
[LQ] entry: 24 instr_id: 0 address: 0 translated: 0 fetched: 0
[LQ] entry: 25 instr_id: 0 address: 0 translated: 0 fetched: 0
[LQ] entry: 26 instr_id: 0 address: 0 translated: 0 fetched: 0
[LQ] entry: 27 instr_id: 0 address: 0 translated: 0 fetched: 0
[LQ] entry: 28 instr_id: 0 address: 0 translated: 0 fetched: 0
[LQ] entry: 29 instr_id: 0 address: 0 translated: 0 fetched: 0
[LQ] entry: 30 instr_id: 0 address: 0 translated: 0 fetched: 0
[LQ] entry: 31 instr_id: 0 address: 0 translated: 0 fetched: 0
[LQ] entry: 32 instr_id: 0 address: 0 translated: 0 fetched: 0
[LQ] entry: 33 instr_id: 0 address: 0 translated: 0 fetched: 0
[LQ] entry: 34 instr_id: 0 address: 0 translated: 0 fetched: 0
[LQ] entry: 35 instr_id: 0 address: 0 translated: 0 fetched: 0
[LQ] entry: 36 instr_id: 0 address: 0 translated: 0 fetched: 0
[LQ] entry: 37 instr_id: 0 address: 0 translated: 0 fetched: 0
[LQ] entry: 38 instr_id: 0 address: 0 translated: 0 fetched: 0
[LQ] entry: 39 instr_id: 0 address: 0 translated: 0 fetched: 0
[LQ] entry: 40 instr_id: 10397888 address: 41d09e9b70c0 translated: 2 fetched: 0
[LQ] entry: 41 instr_id: 0 address: 0 translated: 0 fetched: 0
[LQ] entry: 42 instr_id: 0 address: 0 translated: 0 fetched: 0
[LQ] entry: 43 instr_id: 0 address: 0 translated: 0 fetched: 0
[LQ] entry: 44 instr_id: 0 address: 0 translated: 0 fetched: 0
[LQ] entry: 45 instr_id: 0 address: 0 translated: 0 fetched: 0
[LQ] entry: 46 instr_id: 0 address: 0 translated: 0 fetched: 0
[LQ] entry: 47 instr_id: 0 address: 0 translated: 0 fetched: 0
[LQ] entry: 48 instr_id: 0 address: 0 translated: 0 fetched: 0
[LQ] entry: 49 instr_id: 0 address: 0 translated: 0 fetched: 0
[LQ] entry: 50 instr_id: 0 address: 0 translated: 0 fetched: 0
[LQ] entry: 51 instr_id: 0 address: 0 translated: 0 fetched: 0
[LQ] entry: 52 instr_id: 0 address: 0 translated: 0 fetched: 0
[LQ] entry: 53 instr_id: 0 address: 0 translated: 0 fetched: 0
[LQ] entry: 54 instr_id: 0 address: 0 translated: 0 fetched: 0
[LQ] entry: 55 instr_id: 0 address: 0 translated: 0 fetched: 0
[LQ] entry: 56 instr_id: 0 address: 0 translated: 0 fetched: 0
[LQ] entry: 57 instr_id: 10397940 address: 41d09e9b70e0 translated: 2 fetched: 0
[LQ] entry: 58 instr_id: 0 address: 0 translated: 0 fetched: 0
[LQ] entry: 59 instr_id: 0 address: 0 translated: 0 fetched: 0
[LQ] entry: 60 instr_id: 0 address: 0 translated: 0 fetched: 0
[LQ] entry: 61 instr_id: 0 address: 0 translated: 0 fetched: 0
[LQ] entry: 62 instr_id: 0 address: 0 translated: 0 fetched: 0
[LQ] entry: 63 instr_id: 0 address: 0 translated: 0 fetched: 0
[LQ] entry: 64 instr_id: 0 address: 0 translated: 0 fetched: 0
[LQ] entry: 65 instr_id: 0 address: 0 translated: 0 fetched: 0
[LQ] entry: 66 instr_id: 10397966 address: 41d09e9b70f0 translated: 2 fetched: 0
[LQ] entry: 67 instr_id: 0 address: 0 translated: 0 fetched: 0
[LQ] entry: 68 instr_id: 0 address: 0 translated: 0 fetched: 0
[LQ] entry: 69 instr_id: 0 address: 0 translated: 0 fetched: 0
[LQ] entry: 70 instr_id: 0 address: 0 translated: 0 fetched: 0
[LQ] entry: 71 instr_id: 0 address: 0 translated: 0 fetched: 0
[LQ] entry: 72 instr_id: 0 address: 0 translated: 0 fetched: 0
[LQ] entry: 73 instr_id: 0 address: 0 translated: 0 fetched: 0
[LQ] entry: 74 instr_id: 0 address: 0 translated: 0 fetched: 0
[LQ] entry: 75 instr_id: 10397992 address: 41d09e9b7100 translated: 2 fetched: 0
[LQ] entry: 76 instr_id: 10397993 address: 41d09e9b70c0 translated: 2 fetched: 0
[LQ] entry: 77 instr_id: 0 address: 0 translated: 0 fetched: 0
[LQ] entry: 78 instr_id: 0 address: 0 translated: 0 fetched: 0
[LQ] entry: 79 instr_id: 0 address: 0 translated: 0 fetched: 0
[LQ] entry: 80 instr_id: 0 address: 0 translated: 0 fetched: 0
[LQ] entry: 81 instr_id: 0 address: 0 translated: 0 fetched: 0
[LQ] entry: 82 instr_id: 0 address: 0 translated: 0 fetched: 0
[LQ] entry: 83 instr_id: 0 address: 0 translated: 0 fetched: 0
[LQ] entry: 84 instr_id: 10398018 address: 41d09e9b7110 translated: 2 fetched: 0
[LQ] entry: 85 instr_id: 10398019 address: 41d09e9b70d0 translated: 2 fetched: 0
[LQ] entry: 86 instr_id: 0 address: 0 translated: 0 fetched: 0
[LQ] entry: 87 instr_id: 0 address: 0 translated: 0 fetched: 0
[LQ] entry: 88 instr_id: 0 address: 0 translated: 0 fetched: 0
[LQ] entry: 89 instr_id: 0 address: 0 translated: 0 fetched: 0
[LQ] entry: 90 instr_id: 0 address: 0 translated: 0 fetched: 0
[LQ] entry: 91 instr_id: 0 address: 0 translated: 0 fetched: 0
[LQ] entry: 92 instr_id: 0 address: 0 translated: 0 fetched: 0
[LQ] entry: 93 instr_id: 10398044 address: 41d09e9b7120 translated: 2 fetched: 0
[LQ] entry: 94 instr_id: 10398045 address: 41d09e9b70e0 translated: 2 fetched: 0
[LQ] entry: 95 instr_id: 0 address: 0 translated: 0 fetched: 0
[LQ] entry: 96 instr_id: 0 address: 0 translated: 0 fetched: 0
[LQ] entry: 97 instr_id: 0 address: 0 translated: 0 fetched: 0
[LQ] entry: 98 instr_id: 0 address: 0 translated: 0 fetched: 0
[LQ] entry: 99 instr_id: 0 address: 0 translated: 0 fetched: 0
[LQ] entry: 100 instr_id: 0 address: 0 translated: 0 fetched: 0
[LQ] entry: 101 instr_id: 0 address: 0 translated: 0 fetched: 0
[LQ] entry: 102 instr_id: 10398070 address: 41d09e9b7130 translated: 2 fetched: 0
[LQ] entry: 103 instr_id: 10398071 address: 41d09e9b70f0 translated: 2 fetched: 0
[LQ] entry: 104 instr_id: 0 address: 0 translated: 0 fetched: 0
[LQ] entry: 105 instr_id: 0 address: 0 translated: 0 fetched: 0
[LQ] entry: 106 instr_id: 0 address: 0 translated: 0 fetched: 0
[LQ] entry: 107 instr_id: 0 address: 0 translated: 0 fetched: 0
[LQ] entry: 108 instr_id: 0 address: 0 translated: 0 fetched: 0
[LQ] entry: 109 instr_id: 0 address: 0 translated: 0 fetched: 0
[LQ] entry: 110 instr_id: 0 address: 0 translated: 0 fetched: 0
[LQ] entry: 111 instr_id: 0 address: 0 translated: 0 fetched: 0
[LQ] entry: 112 instr_id: 10398097 address: 41d09e9b7100 translated: 2 fetched: 0
[LQ] entry: 113 instr_id: 0 address: 0 translated: 0 fetched: 0
[LQ] entry: 114 instr_id: 0 address: 0 translated: 0 fetched: 0
[LQ] entry: 115 instr_id: 0 address: 0 translated: 0 fetched: 0
[LQ] entry: 116 instr_id: 0 address: 0 translated: 0 fetched: 0
[LQ] entry: 117 instr_id: 0 address: 0 translated: 0 fetched: 0
[LQ] entry: 118 instr_id: 0 address: 0 translated: 0 fetched: 0
[LQ] entry: 119 instr_id: 0 address: 0 translated: 0 fetched: 0
[LQ] entry: 120 instr_id: 0 address: 0 translated: 0 fetched: 0
[LQ] entry: 121 instr_id: 10398123 address: 41d09e9b7110 translated: 2 fetched: 0
[LQ] entry: 122 instr_id: 0 address: 0 translated: 0 fetched: 0
[LQ] entry: 123 instr_id: 0 address: 0 translated: 0 fetched: 0
[LQ] entry: 124 instr_id: 0 address: 0 translated: 0 fetched: 0
[LQ] entry: 125 instr_id: 0 address: 0 translated: 0 fetched: 0
[LQ] entry: 126 instr_id: 0 address: 0 translated: 0 fetched: 0
[LQ] entry: 127 instr_id: 0 address: 0 translated: 0 fetched: 0
[LQ] entry: 128 instr_id: 0 address: 0 translated: 0 fetched: 0
[LQ] entry: 129 instr_id: 0 address: 0 translated: 0 fetched: 0
[LQ] entry: 130 instr_id: 10398149 address: 41d09e9b7120 translated: 2 fetched: 0
[LQ] entry: 131 instr_id: 0 address: 0 translated: 0 fetched: 0
[LQ] entry: 132 instr_id: 0 address: 0 translated: 0 fetched: 0
[LQ] entry: 133 instr_id: 0 address: 0 translated: 0 fetched: 0
[LQ] entry: 134 instr_id: 0 address: 0 translated: 0 fetched: 0
[LQ] entry: 135 instr_id: 0 address: 0 translated: 0 fetched: 0
[LQ] entry: 136 instr_id: 0 address: 0 translated: 0 fetched: 0
[LQ] entry: 137 instr_id: 0 address: 0 translated: 0 fetched: 0
[LQ] entry: 138 instr_id: 0 address: 0 translated: 0 fetched: 0
[LQ] entry: 139 instr_id: 10398175 address: 41d09e9b7130 translated: 2 fetched: 0
[LQ] entry: 140 instr_id: 0 address: 0 translated: 0 fetched: 0
[LQ] entry: 141 instr_id: 0 address: 0 translated: 0 fetched: 0
[LQ] entry: 142 instr_id: 0 address: 0 translated: 0 fetched: 0
[LQ] entry: 143 instr_id: 0 address: 0 translated: 0 fetched: 0
[LQ] entry: 144 instr_id: 0 address: 0 translated: 0 fetched: 0
[LQ] entry: 145 instr_id: 0 address: 0 translated: 0 fetched: 0
[LQ] entry: 146 instr_id: 0 address: 0 translated: 0 fetched: 0
[LQ] entry: 147 instr_id: 0 address: 0 translated: 0 fetched: 0

Store Queue Entry
[SQ] entry: 0 instr_id: 0 address: 0 translated: 0 fetched: 0
[SQ] entry: 1 instr_id: 0 address: 0 translated: 0 fetched: 0
[SQ] entry: 2 instr_id: 0 address: 0 translated: 0 fetched: 0
[SQ] entry: 3 instr_id: 0 address: 0 translated: 0 fetched: 0
[SQ] entry: 4 instr_id: 0 address: 0 translated: 0 fetched: 0
[SQ] entry: 5 instr_id: 0 address: 0 translated: 0 fetched: 0
[SQ] entry: 6 instr_id: 0 address: 0 translated: 0 fetched: 0
[SQ] entry: 7 instr_id: 0 address: 0 translated: 0 fetched: 0
[SQ] entry: 8 instr_id: 0 address: 0 translated: 0 fetched: 0
[SQ] entry: 9 instr_id: 0 address: 0 translated: 0 fetched: 0
[SQ] entry: 10 instr_id: 0 address: 0 translated: 0 fetched: 0
[SQ] entry: 11 instr_id: 0 address: 0 translated: 0 fetched: 0
[SQ] entry: 12 instr_id: 0 address: 0 translated: 0 fetched: 0
[SQ] entry: 13 instr_id: 0 address: 0 translated: 0 fetched: 0
[SQ] entry: 14 instr_id: 0 address: 0 translated: 0 fetched: 0
[SQ] entry: 15 instr_id: 0 address: 0 translated: 0 fetched: 0
[SQ] entry: 16 instr_id: 0 address: 0 translated: 0 fetched: 0
[SQ] entry: 17 instr_id: 0 address: 0 translated: 0 fetched: 0
[SQ] entry: 18 instr_id: 0 address: 0 translated: 0 fetched: 0
[SQ] entry: 19 instr_id: 0 address: 0 translated: 0 fetched: 0
[SQ] entry: 20 instr_id: 0 address: 0 translated: 0 fetched: 0
[SQ] entry: 21 instr_id: 0 address: 0 translated: 0 fetched: 0
[SQ] entry: 22 instr_id: 0 address: 0 translated: 0 fetched: 0
[SQ] entry: 23 instr_id: 0 address: 0 translated: 0 fetched: 0
[SQ] entry: 24 instr_id: 0 address: 0 translated: 0 fetched: 0
[SQ] entry: 25 instr_id: 0 address: 0 translated: 0 fetched: 0
[SQ] entry: 26 instr_id: 10397905 address: b20712894400 translated: 2 fetched: 0
[SQ] entry: 27 instr_id: 10397906 address: b20712894410 translated: 2 fetched: 0
[SQ] entry: 28 instr_id: 10397907 address: b20712894420 translated: 2 fetched: 0
[SQ] entry: 29 instr_id: 10397908 address: b20712894430 translated: 2 fetched: 0
[SQ] entry: 30 instr_id: 10397931 address: b20712894440 translated: 2 fetched: 0
[SQ] entry: 31 instr_id: 10397932 address: b20712894450 translated: 2 fetched: 0
[SQ] entry: 32 instr_id: 10397933 address: b20712894460 translated: 2 fetched: 0
[SQ] entry: 33 instr_id: 10397934 address: b20712894470 translated: 2 fetched: 0
[SQ] entry: 34 instr_id: 10397957 address: b20712894480 translated: 2 fetched: 0
[SQ] entry: 35 instr_id: 10397958 address: b20712894490 translated: 2 fetched: 0
[SQ] entry: 36 instr_id: 10397959 address: b207128944a0 translated: 2 fetched: 0
[SQ] entry: 37 instr_id: 10397960 address: b207128944b0 translated: 2 fetched: 0
[SQ] entry: 38 instr_id: 10397983 address: b207128944c0 translated: 2 fetched: 0
[SQ] entry: 39 instr_id: 10397984 address: b207128944d0 translated: 2 fetched: 0
[SQ] entry: 40 instr_id: 10397985 address: b207128944e0 translated: 2 fetched: 0
[SQ] entry: 41 instr_id: 10397986 address: b207128944f0 translated: 2 fetched: 0
[SQ] entry: 42 instr_id: 0 address: 0 translated: 0 fetched: 0
[SQ] entry: 43 instr_id: 0 address: 0 translated: 0 fetched: 0
[SQ] entry: 44 instr_id: 0 address: 0 translated: 0 fetched: 0
[SQ] entry: 45 instr_id: 0 address: 0 translated: 0 fetched: 0
[SQ] entry: 46 instr_id: 0 address: 0 translated: 0 fetched: 0
[SQ] entry: 47 instr_id: 0 address: 0 translated: 0 fetched: 0
[SQ] entry: 48 instr_id: 0 address: 0 translated: 0 fetched: 0
[SQ] entry: 49 instr_id: 0 address: 0 translated: 0 fetched: 0
[SQ] entry: 50 instr_id: 0 address: 0 translated: 0 fetched: 0
[SQ] entry: 51 instr_id: 0 address: 0 translated: 0 fetched: 0
[SQ] entry: 52 instr_id: 0 address: 0 translated: 0 fetched: 0
[SQ] entry: 53 instr_id: 0 address: 0 translated: 0 fetched: 0
[SQ] entry: 54 instr_id: 0 address: 0 translated: 0 fetched: 0
[SQ] entry: 55 instr_id: 0 address: 0 translated: 0 fetched: 0
[SQ] entry: 56 instr_id: 0 address: 0 translated: 0 fetched: 0
[SQ] entry: 57 instr_id: 0 address: 0 translated: 0 fetched: 0
[SQ] entry: 58 instr_id: 0 address: 0 translated: 0 fetched: 0
[SQ] entry: 59 instr_id: 0 address: 0 translated: 0 fetched: 0
[SQ] entry: 60 instr_id: 0 address: 0 translated: 0 fetched: 0
[SQ] entry: 61 instr_id: 0 address: 0 translated: 0 fetched: 0
[SQ] entry: 62 instr_id: 0 address: 0 translated: 0 fetched: 0
[SQ] entry: 63 instr_id: 0 address: 0 translated: 0 fetched: 0
[SQ] entry: 64 instr_id: 0 address: 0 translated: 0 fetched: 0
[SQ] entry: 65 instr_id: 0 address: 0 translated: 0 fetched: 0
[SQ] entry: 66 instr_id: 0 address: 0 translated: 0 fetched: 0
[SQ] entry: 67 instr_id: 0 address: 0 translated: 0 fetched: 0
[SQ] entry: 68 instr_id: 0 address: 0 translated: 0 fetched: 0
[SQ] entry: 69 instr_id: 0 address: 0 translated: 0 fetched: 0
[SQ] entry: 70 instr_id: 0 address: 0 translated: 0 fetched: 0
[SQ] entry: 71 instr_id: 0 address: 0 translated: 0 fetched: 0
[SQ] entry: 72 instr_id: 0 address: 0 translated: 0 fetched: 0
[SQ] entry: 73 instr_id: 0 address: 0 translated: 0 fetched: 0
[SQ] entry: 74 instr_id: 0 address: 0 translated: 0 fetched: 0
[SQ] entry: 75 instr_id: 0 address: 0 translated: 0 fetched: 0
[SQ] entry: 76 instr_id: 0 address: 0 translated: 0 fetched: 0
[SQ] entry: 77 instr_id: 0 address: 0 translated: 0 fetched: 0
[SQ] entry: 78 instr_id: 0 address: 0 translated: 0 fetched: 0
[SQ] entry: 79 instr_id: 0 address: 0 translated: 0 fetched: 0
[SQ] entry: 80 instr_id: 0 address: 0 translated: 0 fetched: 0
[SQ] entry: 81 instr_id: 0 address: 0 translated: 0 fetched: 0
[SQ] entry: 82 instr_id: 0 address: 0 translated: 0 fetched: 0
[SQ] entry: 83 instr_id: 0 address: 0 translated: 0 fetched: 0
[SQ] entry: 84 instr_id: 0 address: 0 translated: 0 fetched: 0
[SQ] entry: 85 instr_id: 0 address: 0 translated: 0 fetched: 0
[SQ] entry: 86 instr_id: 0 address: 0 translated: 0 fetched: 0
[SQ] entry: 87 instr_id: 0 address: 0 translated: 0 fetched: 0
[SQ] entry: 88 instr_id: 0 address: 0 translated: 0 fetched: 0
[SQ] entry: 89 instr_id: 0 address: 0 translated: 0 fetched: 0
[SQ] entry: 90 instr_id: 0 address: 0 translated: 0 fetched: 0
[SQ] entry: 91 instr_id: 0 address: 0 translated: 0 fetched: 0
[SQ] entry: 92 instr_id: 0 address: 0 translated: 0 fetched: 0
[SQ] entry: 93 instr_id: 0 address: 0 translated: 0 fetched: 0
[SQ] entry: 94 instr_id: 0 address: 0 translated: 0 fetched: 0
[SQ] entry: 95 instr_id: 0 address: 0 translated: 0 fetched: 0
[SQ] entry: 96 instr_id: 0 address: 0 translated: 0 fetched: 0
[SQ] entry: 97 instr_id: 0 address: 0 translated: 0 fetched: 0
[SQ] entry: 98 instr_id: 0 address: 0 translated: 0 fetched: 0
[SQ] entry: 99 instr_id: 0 address: 0 translated: 0 fetched: 0
[SQ] entry: 100 instr_id: 0 address: 0 translated: 0 fetched: 0
[SQ] entry: 101 instr_id: 0 address: 0 translated: 0 fetched: 0
[SQ] entry: 102 instr_id: 0 address: 0 translated: 0 fetched: 0
[SQ] entry: 103 instr_id: 0 address: 0 translated: 0 fetched: 0
[SQ] entry: 104 instr_id: 0 address: 0 translated: 0 fetched: 0
[SQ] entry: 105 instr_id: 0 address: 0 translated: 0 fetched: 0

L1D_MSHR Entry
[L1D_MSHR] entry: 0 instr_id: 0 rob_index: -1 address: 0 full_addr: 0 type: 0 fill_level: -1 lq_index: 0 sq_index: 0
[L1D_MSHR] entry: 1 instr_id: 0 rob_index: -1 address: 0 full_addr: 0 type: 0 fill_level: -1 lq_index: 0 sq_index: 0
[L1D_MSHR] entry: 2 instr_id: 0 rob_index: -1 address: 0 full_addr: 0 type: 0 fill_level: -1 lq_index: 0 sq_index: 0
[L1D_MSHR] entry: 3 instr_id: 0 rob_index: -1 address: 0 full_addr: 0 type: 0 fill_level: -1 lq_index: 0 sq_index: 0
[L1D_MSHR] entry: 4 instr_id: 0 rob_index: -1 address: 0 full_addr: 0 type: 0 fill_level: -1 lq_index: 0 sq_index: 0
[L1D_MSHR] entry: 5 instr_id: 0 rob_index: -1 address: 0 full_addr: 0 type: 0 fill_level: -1 lq_index: 0 sq_index: 0
[L1D_MSHR] entry: 6 instr_id: 0 rob_index: -1 address: 0 full_addr: 0 type: 0 fill_level: -1 lq_index: 0 sq_index: 0
[L1D_MSHR] entry: 7 instr_id: 0 rob_index: -1 address: 0 full_addr: 0 type: 0 fill_level: -1 lq_index: 0 sq_index: 0
[L1D_MSHR] entry: 8 instr_id: 10397992 rob_index: 328 address: 107427a6dc4 full_addr: 41d09e9b7100 type: 0 fill_level: 1 lq_index: 75 sq_index: 0
[L1D_MSHR] entry: 9 instr_id: 10397888 rob_index: 224 address: 107427a6dc3 full_addr: 41d09e9b70c0 type: 0 fill_level: 1 lq_index: 40 sq_index: 0
[L1D_MSHR] entry: 10 instr_id: 0 rob_index: -1 address: 0 full_addr: 0 type: 0 fill_level: -1 lq_index: 0 sq_index: 0
[L1D_MSHR] entry: 11 instr_id: 0 rob_index: -1 address: 0 full_addr: 0 type: 0 fill_level: -1 lq_index: 0 sq_index: 0
[L1D_MSHR] entry: 12 instr_id: 0 rob_index: -1 address: 0 full_addr: 0 type: 0 fill_level: -1 lq_index: 0 sq_index: 0
[L1D_MSHR] entry: 13 instr_id: 0 rob_index: -1 address: 0 full_addr: 0 type: 0 fill_level: -1 lq_index: 0 sq_index: 0
[L1D_MSHR] entry: 14 instr_id: 0 rob_index: -1 address: 0 full_addr: 0 type: 0 fill_level: -1 lq_index: 0 sq_index: 0
[L1D_MSHR] entry: 15 instr_id: 0 rob_index: -1 address: 0 full_addr: 0 type: 0 fill_level: -1 lq_index: 0 sq_index: 0
perceptron-berti-berti-no-lru-4core: src/main.cc:284: void print_deadlock(uint32_t): Assertion `0' failed.
     > Finished combination: TraceType=770-tot Sim:146000000 Prefetcher=L2berti L1=berti
