TRACE: [103000000]_FE_[GPT-Neo_2_7B]_[h32]_[s256]_[d80] Warmup: 2000000 NumTraces: 103000000
L1:ipcp:L2:ipcp
*************************************************
   ChampSim Multicore Out-of-Order Simulator
   Last compiled: Oct 28 2024 08:59:05
*************************************************

trace_0 770-tot_memTraces_v3/memTraces[103000000]_FE_[GPT-Neo_2_7B]_[h32]_[s256]_[d80].champsim.xz
trace_1 770-tot_memTraces_v3/memTraces[103000000]_FE_[GPT-Neo_2_7B]_[h32]_[s256]_[d80].champsim.xz
trace_2 770-tot_memTraces_v3/memTraces[103000000]_FE_[GPT-Neo_2_7B]_[h32]_[s256]_[d80].champsim.xz
trace_3 770-tot_memTraces_v3/memTraces[103000000]_FE_[GPT-Neo_2_7B]_[h32]_[s256]_[d80].champsim.xz
MAIN.cc ln 751 stats print skipped
CPU  0 inst:    1000001 cyc:     501513 now IPC :1.99397: AVG IPC :1.99397: L2-Pf-HR :0.82696: L2-HR :0.77915: (Sim:0h1m47s) 
CPU  2 inst:    1000001 cyc:     501868 now IPC :1.99256: AVG IPC :1.99256: L2-Pf-HR :0.84087: L2-HR :0.77290: (Sim:0h1m47s) 
CPU  1 inst:    1000001 cyc:     502027 now IPC :1.99193: AVG IPC :1.99193: L2-Pf-HR :0.84761: L2-HR :0.77146: (Sim:0h1m47s) 
CPU  3 inst:    1000001 cyc:     502077 now IPC :1.99173: AVG IPC :1.99173: L2-Pf-HR :0.85286: L2-HR :0.77201: (Sim:0h1m47s) 
CPU  0 inst:    2000002 cyc:     990281 now IPC :2.04596: AVG IPC :2.01963: L2-Pf-HR :0.87892: L2-HR :0.83162: (Sim:0h3m43s) 
CPU  2 inst:    2000002 cyc:     990737 now IPC :2.04554: AVG IPC :2.01870: L2-Pf-HR :0.89463: L2-HR :0.82804: (Sim:0h3m43s) 
CPU  1 inst:    2000002 cyc:     990953 now IPC :2.04530: AVG IPC :2.01826: L2-Pf-HR :0.90091: L2-HR :0.82681: (Sim:0h3m43s) 
CPU  3 inst:    2000002 cyc:     991064 now IPC :2.04505: AVG IPC :2.01804: L2-Pf-HR :0.90577: L2-HR :0.82743: (Sim:0h3m43s) 

Warmup complete CPU  0 instructions:    2001597 cycles:     991064 (Simulation time: 0 hr 3 min 43 sec) 
Warmup complete CPU  1 instructions:    2000280 cycles:     991064 (Simulation time: 0 hr 3 min 43 sec) 
Warmup complete CPU  2 instructions:    2000747 cycles:     991064 (Simulation time: 0 hr 3 min 43 sec) 
Warmup complete CPU  3 instructions:    2000002 cycles:     991064 (Simulation time: 0 hr 3 min 43 sec) 

CPU  0 inst:    3000001 cyc:    1710356 now IPC :1.38874: AVG IPC :1.38804: L2-Pf-HR :0.94101: L2-HR :0.86840: (Sim:0h5m26s) 
CPU  1 inst:    3000001 cyc:    1713198 now IPC :1.38457: AVG IPC :1.38440: L2-Pf-HR :0.95463: L2-HR :0.86599: (Sim:0h5m26s) 
CPU  2 inst:    3000001 cyc:    1714677 now IPC :1.38133: AVG IPC :1.38092: L2-Pf-HR :0.94005: L2-HR :0.86657: (Sim:0h5m26s) 
CPU  3 inst:    3000001 cyc:    1719031 now IPC :1.37369: AVG IPC :1.37369: L2-Pf-HR :0.95440: L2-HR :0.86628: (Sim:0h5m27s) 
CPU  0 inst:    4000002 cyc:    2377687 now IPC :1.49851: AVG IPC :1.44120: L2-Pf-HR :0.95079: L2-HR :0.87692: (Sim:0h7m5s) 
CPU  2 inst:    4000002 cyc:    2388012 now IPC :1.48515: AVG IPC :1.43116: L2-Pf-HR :0.95012: L2-HR :0.87590: (Sim:0h7m6s) 
CPU  1 inst:    4000002 cyc:    2388635 now IPC :1.48052: AVG IPC :1.43086: L2-Pf-HR :0.96479: L2-HR :0.87398: (Sim:0h7m6s) 
CPU  3 inst:    4000002 cyc:    2392761 now IPC :1.48428: AVG IPC :1.42684: L2-Pf-HR :0.96419: L2-HR :0.87425: (Sim:0h7m7s) 
CPU  0 inst:    5000003 cyc:    3094149 now IPC :1.39575: AVG IPC :1.42572: L2-Pf-HR :0.94825: L2-HR :0.87125: (Sim:0h8m39s) 
CPU  2 inst:    5000003 cyc:    3107676 now IPC :1.38954: AVG IPC :1.41701: L2-Pf-HR :0.94499: L2-HR :0.86997: (Sim:0h8m41s) 
CPU  1 inst:    5000003 cyc:    3114374 now IPC :1.37791: AVG IPC :1.41276: L2-Pf-HR :0.96047: L2-HR :0.86830: (Sim:0h8m42s) 
CPU  3 inst:    5000003 cyc:    3118390 now IPC :1.37812: AVG IPC :1.41022: L2-Pf-HR :0.96058: L2-HR :0.86898: (Sim:0h8m42s) 
CPU  0 inst:    6000005 cyc:    3815137 now IPC :1.38699: AVG IPC :1.41583: L2-Pf-HR :0.94828: L2-HR :0.87045: (Sim:0h10m12s) 
CPU  2 inst:    6000005 cyc:    3829595 now IPC :1.38520: AVG IPC :1.40892: L2-Pf-HR :0.94475: L2-HR :0.86925: (Sim:0h10m14s) 
CPU  1 inst:    6000005 cyc:    3836143 now IPC :1.38549: AVG IPC :1.40584: L2-Pf-HR :0.95983: L2-HR :0.86745: (Sim:0h10m15s) 
CPU  3 inst:    6000005 cyc:    3842656 now IPC :1.38071: AVG IPC :1.40273: L2-Pf-HR :0.96014: L2-HR :0.86824: (Sim:0h10m15s) 
CPU  0 inst:    7000001 cyc:    4532914 now IPC :1.39318: AVG IPC :1.41124: L2-Pf-HR :0.94630: L2-HR :0.87019: (Sim:0h11m43s) 
CPU  2 inst:    7000001 cyc:    4555872 now IPC :1.37688: AVG IPC :1.40239: L2-Pf-HR :0.94475: L2-HR :0.86916: (Sim:0h11m46s) 
CPU  1 inst:    7000001 cyc:    4566249 now IPC :1.36966: AVG IPC :1.39845: L2-Pf-HR :0.95960: L2-HR :0.86730: (Sim:0h11m48s) 
CPU  3 inst:    7000001 cyc:    4570213 now IPC :1.37446: AVG IPC :1.39698: L2-Pf-HR :0.95996: L2-HR :0.86815: (Sim:0h11m48s) 
CPU  0 inst:    8000003 cyc:    5230847 now IPC :1.43281: AVG IPC :1.41479: L2-Pf-HR :0.94573: L2-HR :0.87076: (Sim:0h13m15s) 
CPU  2 inst:    8000003 cyc:    5275408 now IPC :1.38979: AVG IPC :1.40027: L2-Pf-HR :0.94461: L2-HR :0.86941: (Sim:0h13m20s) 
CPU  1 inst:    8000000 cyc:    5285283 now IPC :1.39075: AVG IPC :1.39716: L2-Pf-HR :0.95909: L2-HR :0.86755: (Sim:0h13m21s) 
CPU  3 inst:    8000003 cyc:    5286129 now IPC :1.39681: AVG IPC :1.39695: L2-Pf-HR :0.95912: L2-HR :0.86833: (Sim:0h13m21s) 
CPU  0 inst:    9000001 cyc:    5891739 now IPC :1.51310: AVG IPC :1.42805: L2-Pf-HR :0.94684: L2-HR :0.87236: (Sim:0h14m43s) 
CPU  2 inst:    9000001 cyc:    5951727 now IPC :1.47859: AVG IPC :1.41095: L2-Pf-HR :0.94570: L2-HR :0.87067: (Sim:0h14m50s) 
CPU  1 inst:    9000001 cyc:    5959085 now IPC :1.48412: AVG IPC :1.40896: L2-Pf-HR :0.96101: L2-HR :0.86899: (Sim:0h14m51s) 
CPU  3 inst:    9000001 cyc:    5961653 now IPC :1.48033: AVG IPC :1.40828: L2-Pf-HR :0.96091: L2-HR :0.86979: (Sim:0h14m52s) 
CPU  0 inst:   10000000 cyc:    6677300 now IPC :1.27297: AVG IPC :1.40663: L2-Pf-HR :0.94594: L2-HR :0.87226: (Sim:0h16m19s) 
CPU  2 inst:   10000004 cyc:    6777955 now IPC :1.21032: AVG IPC :1.38231: L2-Pf-HR :0.94511: L2-HR :0.87036: (Sim:0h16m31s) 
CPU  3 inst:   10000000 cyc:    6802270 now IPC :1.18960: AVG IPC :1.37665: L2-Pf-HR :0.95997: L2-HR :0.86946: (Sim:0h16m34s) 
CPU  1 inst:   10000003 cyc:    6805510 now IPC :1.18144: AVG IPC :1.37584: L2-Pf-HR :0.96036: L2-HR :0.86872: (Sim:0h16m34s) 
CPU  0 inst:   11000000 cyc:    7607510 now IPC :1.07503: AVG IPC :1.36001: L2-Pf-HR :0.94612: L2-HR :0.87165: (Sim:0h17m55s) 
CPU  2 inst:   11000000 cyc:    7815742 now IPC :0.96359: AVG IPC :1.31863: L2-Pf-HR :0.94479: L2-HR :0.86992: (Sim:0h18m19s) 
CPU  3 inst:   11000000 cyc:    7844201 now IPC :0.95976: AVG IPC :1.31327: L2-Pf-HR :0.95943: L2-HR :0.86905: (Sim:0h18m23s) 
CPU  1 inst:   11000000 cyc:    7870062 now IPC :0.93936: AVG IPC :1.30829: L2-Pf-HR :0.95982: L2-HR :0.86830: (Sim:0h18m26s) 
CPU  0 inst:   12000001 cyc:    8474142 now IPC :1.15389: AVG IPC :1.33614: L2-Pf-HR :0.94532: L2-HR :0.87101: (Sim:0h19m30s) 
CPU  2 inst:   12000001 cyc:    8806037 now IPC :1.00980: AVG IPC :1.27950: L2-Pf-HR :0.94443: L2-HR :0.86927: (Sim:0h19m49s) 
CPU  3 inst:   12000001 cyc:    8893433 now IPC :0.95308: AVG IPC :1.26544: L2-Pf-HR :0.95867: L2-HR :0.86840: (Sim:0h19m54s) 
CPU  1 inst:   12000001 cyc:    8894493 now IPC :0.97615: AVG IPC :1.26524: L2-Pf-HR :0.95894: L2-HR :0.86771: (Sim:0h19m55s) 
CPU  0 inst:   13000004 cyc:    9368205 now IPC :1.11849: AVG IPC :1.31291: L2-Pf-HR :0.94592: L2-HR :0.87176: (Sim:0h20m28s) 
CPU  2 inst:   13000004 cyc:    9681991 now IPC :1.14162: AVG IPC :1.26560: L2-Pf-HR :0.94533: L2-HR :0.87011: (Sim:0h20m47s) 
CPU  1 inst:   13000004 cyc:    9833087 now IPC :1.06543: AVG IPC :1.24403: L2-Pf-HR :0.95980: L2-HR :0.86846: (Sim:0h20m57s) 
CPU  3 inst:   13000004 cyc:    9834188 now IPC :1.06298: AVG IPC :1.24390: L2-Pf-HR :0.95953: L2-HR :0.86919: (Sim:0h20m57s) 
CPU  0 inst:   14000002 cyc:   10323757 now IPC :1.04651: AVG IPC :1.28563: L2-Pf-HR :0.94498: L2-HR :0.87157: (Sim:0h21m26s) 
CPU  2 inst:   14000002 cyc:   10602141 now IPC :1.08678: AVG IPC :1.24848: L2-Pf-HR :0.94469: L2-HR :0.86986: (Sim:0h21m44s) 
CPU  3 inst:   14000002 cyc:   10861635 now IPC :0.97328: AVG IPC :1.21574: L2-Pf-HR :0.95908: L2-HR :0.86906: (Sim:0h21m58s) 
CPU  1 inst:   14000003 cyc:   10868529 now IPC :0.96577: AVG IPC :1.21486: L2-Pf-HR :0.95935: L2-HR :0.86831: (Sim:0h21m59s) 
CPU  0 inst:   15000002 cyc:   11272976 now IPC :1.05350: AVG IPC :1.26420: L2-Pf-HR :0.94419: L2-HR :0.87181: (Sim:0h22m24s) 
CPU  2 inst:   15000002 cyc:   11588007 now IPC :1.01434: AVG IPC :1.22670: L2-Pf-HR :0.94467: L2-HR :0.86991: (Sim:0h22m41s) 
CPU  3 inst:   15000002 cyc:   11923281 now IPC :0.94193: AVG IPC :1.18915: L2-Pf-HR :0.95870: L2-HR :0.86914: (Sim:0h23m1s) 
CPU  1 inst:   15000002 cyc:   11932044 now IPC :0.94028: AVG IPC :1.18817: L2-Pf-HR :0.95875: L2-HR :0.86838: (Sim:0h23m2s) 
CPU  0 inst:   16000002 cyc:   12369837 now IPC :0.91169: AVG IPC :1.23022: L2-Pf-HR :0.94398: L2-HR :0.87171: (Sim:0h23m26s) 
CPU  2 inst:   16000002 cyc:   12528398 now IPC :1.06339: AVG IPC :1.21339: L2-Pf-HR :0.94455: L2-HR :0.86982: (Sim:0h23m36s) 
CPU  1 inst:   16000002 cyc:   13054996 now IPC :0.89051: AVG IPC :1.16046: L2-Pf-HR :0.95833: L2-HR :0.86835: (Sim:0h24m6s) 
CPU  3 inst:   16000002 cyc:   13055643 now IPC :0.88311: AVG IPC :1.16042: L2-Pf-HR :0.95845: L2-HR :0.86908: (Sim:0h24m6s) 
CPU  0 inst:   17000004 cyc:   13358693 now IPC :1.01127: AVG IPC :1.21271: L2-Pf-HR :0.94486: L2-HR :0.87262: (Sim:0h24m23s) 
CPU  2 inst:   17000002 cyc:   13471964 now IPC :1.05981: AVG IPC :1.20178: L2-Pf-HR :0.94527: L2-HR :0.87071: (Sim:0h24m30s) 
CPU  3 inst:   17000004 cyc:   14101580 now IPC :0.95608: AVG IPC :1.14412: L2-Pf-HR :0.95922: L2-HR :0.86986: (Sim:0h25m6s) 
CPU  1 inst:   17000004 cyc:   14115655 now IPC :0.94281: AVG IPC :1.14287: L2-Pf-HR :0.95919: L2-HR :0.86917: (Sim:0h25m6s) 
CPU  0 inst:   18000000 cyc:   14451186 now IPC :0.91533: AVG IPC :1.18858: L2-Pf-HR :0.94404: L2-HR :0.87237: (Sim:0h25m23s) 
CPU  2 inst:   18000000 cyc:   14539930 now IPC :0.93636: AVG IPC :1.18086: L2-Pf-HR :0.94475: L2-HR :0.87044: (Sim:0h25m29s) 
CPU  3 inst:   18000000 cyc:   15218544 now IPC :0.89528: AVG IPC :1.12458: L2-Pf-HR :0.95840: L2-HR :0.86971: (Sim:0h26m8s) 
CPU  1 inst:   18000000 cyc:   15237117 now IPC :0.89169: AVG IPC :1.12310: L2-Pf-HR :0.95870: L2-HR :0.86901: (Sim:0h26m9s) 
CPU  0 inst:   19000004 cyc:   15381257 now IPC :1.07519: AVG IPC :1.18125: L2-Pf-HR :0.94369: L2-HR :0.87231: (Sim:0h26m18s) 
CPU  2 inst:   19000004 cyc:   15521542 now IPC :1.01874: AVG IPC :1.16990: L2-Pf-HR :0.94451: L2-HR :0.87033: (Sim:0h26m28s) 
CPU  3 inst:   19000004 cyc:   16242565 now IPC :0.97655: AVG IPC :1.11464: L2-Pf-HR :0.95806: L2-HR :0.86962: (Sim:0h27m10s) 
CPU  1 inst:   19000001 cyc:   16260847 now IPC :0.97682: AVG IPC :1.11329: L2-Pf-HR :0.95842: L2-HR :0.86892: (Sim:0h27m11s) 
CPU  0 inst:   20000000 cyc:   16303233 now IPC :1.08462: AVG IPC :1.17543: L2-Pf-HR :0.94325: L2-HR :0.87229: (Sim:0h27m14s) 
CPU  2 inst:   20000005 cyc:   16515241 now IPC :1.00634: AVG IPC :1.15943: L2-Pf-HR :0.94406: L2-HR :0.87024: (Sim:0h27m27s) 
CPU  0 inst:   21000002 cyc:   17208117 now IPC :1.10512: AVG IPC :1.17151: L2-Pf-HR :0.94404: L2-HR :0.87279: (Sim:0h28m8s) 
CPU  3 inst:   20000000 cyc:   17312538 now IPC :0.93460: AVG IPC :1.10284: L2-Pf-HR :0.95770: L2-HR :0.86954: (Sim:0h28m12s) 
CPU  1 inst:   20000000 cyc:   17323593 now IPC :0.94096: AVG IPC :1.10208: L2-Pf-HR :0.95805: L2-HR :0.86885: (Sim:0h28m13s) 
CPU  2 inst:   21000002 cyc:   17499863 now IPC :1.01562: AVG IPC :1.15086: L2-Pf-HR :0.94473: L2-HR :0.87078: (Sim:0h28m24s) 
CPU  0 inst:   22000001 cyc:   18121755 now IPC :1.09452: AVG IPC :1.16740: L2-Pf-HR :0.94368: L2-HR :0.87242: (Sim:0h29m2s) 
CPU  3 inst:   21000003 cyc:   18273221 now IPC :1.04093: AVG IPC :1.09940: L2-Pf-HR :0.95832: L2-HR :0.87000: (Sim:0h29m11s) 
CPU  1 inst:   21000000 cyc:   18289797 now IPC :1.03498: AVG IPC :1.09833: L2-Pf-HR :0.95861: L2-HR :0.86933: (Sim:0h29m12s) 
CPU  2 inst:   22000001 cyc:   18486164 now IPC :1.01389: AVG IPC :1.14313: L2-Pf-HR :0.94445: L2-HR :0.87044: (Sim:0h29m21s) 
CPU  0 inst:   23000003 cyc:   19140376 now IPC :0.98172: AVG IPC :1.15698: L2-Pf-HR :0.94338: L2-HR :0.87226: (Sim:0h30m0s) 
CPU  3 inst:   22000001 cyc:   19338129 now IPC :0.93905: AVG IPC :1.09009: L2-Pf-HR :0.95807: L2-HR :0.86967: (Sim:0h30m12s) 
CPU  1 inst:   22000001 cyc:   19362000 now IPC :0.93266: AVG IPC :1.08866: L2-Pf-HR :0.95823: L2-HR :0.86901: (Sim:0h30m14s) 
CPU  2 inst:   23000003 cyc:   19394488 now IPC :1.10093: AVG IPC :1.14105: L2-Pf-HR :0.94428: L2-HR :0.87026: (Sim:0h30m16s) 
CPU  0 inst:   24000002 cyc:   20191347 now IPC :0.95150: AVG IPC :1.14573: L2-Pf-HR :0.94311: L2-HR :0.87187: (Sim:0h31m1s) 
CPU  2 inst:   24000002 cyc:   20363291 now IPC :1.03220: AVG IPC :1.13561: L2-Pf-HR :0.94417: L2-HR :0.86990: (Sim:0h31m12s) 
CPU  3 inst:   23000003 cyc:   20406421 now IPC :0.93608: AVG IPC :1.08162: L2-Pf-HR :0.95781: L2-HR :0.86954: (Sim:0h31m15s) 
CPU  1 inst:   23000003 cyc:   20435785 now IPC :0.93129: AVG IPC :1.07997: L2-Pf-HR :0.95796: L2-HR :0.86890: (Sim:0h31m17s) 
CPU  0 inst:   25000001 cyc:   21215906 now IPC :0.97603: AVG IPC :1.13714: L2-Pf-HR :0.94307: L2-HR :0.87186: (Sim:0h32m18s) 
CPU  2 inst:   25000004 cyc:   21300491 now IPC :1.06701: AVG IPC :1.13244: L2-Pf-HR :0.94414: L2-HR :0.86999: (Sim:0h32m26s) 
CPU  3 inst:   24000002 cyc:   21439568 now IPC :0.96792: AVG IPC :1.07587: L2-Pf-HR :0.95752: L2-HR :0.86913: (Sim:0h32m42s) 
CPU  1 inst:   24000002 cyc:   21531257 now IPC :0.91285: AVG IPC :1.07106: L2-Pf-HR :0.95773: L2-HR :0.86852: (Sim:0h32m51s) 
CPU  0 inst:   26000005 cyc:   22225383 now IPC :0.99062: AVG IPC :1.13017: L2-Pf-HR :0.94365: L2-HR :0.87236: (Sim:0h34m5s) 
CPU  2 inst:   26000005 cyc:   22270698 now IPC :1.03071: AVG IPC :1.12780: L2-Pf-HR :0.94455: L2-HR :0.87038: (Sim:0h34m10s) 
CPU  3 inst:   25000001 cyc:   22366010 now IPC :1.07940: AVG IPC :1.07603: L2-Pf-HR :0.95733: L2-HR :0.86918: (Sim:0h34m20s) 
CPU  1 inst:   25000000 cyc:   22743518 now IPC :0.82490: AVG IPC :1.05734: L2-Pf-HR :0.95755: L2-HR :0.86856: (Sim:0h34m52s) 
CPU  0 inst:   27000001 cyc:   23320843 now IPC :0.91285: AVG IPC :1.11951: L2-Pf-HR :0.94331: L2-HR :0.87225: (Sim:0h35m56s) 
CPU  3 inst:   26000005 cyc:   23327323 now IPC :1.04025: AVG IPC :1.07449: L2-Pf-HR :0.95793: L2-HR :0.86957: (Sim:0h35m57s) 
CPU  2 inst:   27000001 cyc:   23392098 now IPC :0.89174: AVG IPC :1.11599: L2-Pf-HR :0.94426: L2-HR :0.87031: (Sim:0h36m4s) 
CPU  1 inst:   26000005 cyc:   23690995 now IPC :1.05544: AVG IPC :1.05726: L2-Pf-HR :0.95809: L2-HR :0.86897: (Sim:0h36m36s) 
CPU  0 inst:   28000001 cyc:   24271409 now IPC :1.05200: AVG IPC :1.11675: L2-Pf-HR :0.94317: L2-HR :0.87235: (Sim:0h37m38s) 
CPU  3 inst:   27000001 cyc:   24285065 now IPC :1.04412: AVG IPC :1.07324: L2-Pf-HR :0.95763: L2-HR :0.86953: (Sim:0h37m40s) 
CPU  2 inst:   28000001 cyc:   24399168 now IPC :0.99298: AVG IPC :1.11069: L2-Pf-HR :0.94418: L2-HR :0.87034: (Sim:0h37m54s) 
CPU  1 inst:   27000001 cyc:   24652898 now IPC :1.03960: AVG IPC :1.05654: L2-Pf-HR :0.95781: L2-HR :0.86892: (Sim:0h38m25s) 
CPU  0 inst:   29000000 cyc:   25108334 now IPC :1.19485: AVG IPC :1.11946: L2-Pf-HR :0.94294: L2-HR :0.87208: (Sim:0h39m17s) 
CPU  3 inst:   28000001 cyc:   25186487 now IPC :1.10936: AVG IPC :1.07458: L2-Pf-HR :0.95755: L2-HR :0.86952: (Sim:0h39m24s) 
CPU  2 inst:   29000000 cyc:   25369753 now IPC :1.03031: AVG IPC :1.10749: L2-Pf-HR :0.94400: L2-HR :0.87014: (Sim:0h39m42s) 
CPU  1 inst:   28000001 cyc:   25642100 now IPC :1.01092: AVG IPC :1.05471: L2-Pf-HR :0.95758: L2-HR :0.86892: (Sim:0h40m14s) 
CPU  0 inst:   30000001 cyc:   25993657 now IPC :1.12953: AVG IPC :1.11982: L2-Pf-HR :0.94340: L2-HR :0.87250: (Sim:0h40m52s) 
CPU  3 inst:   29000003 cyc:   26163450 now IPC :1.02358: AVG IPC :1.07260: L2-Pf-HR :0.95731: L2-HR :0.86932: (Sim:0h41m10s) 
CPU  2 inst:   30000001 cyc:   26299848 now IPC :1.07516: AVG IPC :1.10631: L2-Pf-HR :0.94442: L2-HR :0.87054: (Sim:0h41m24s) 
CPU  1 inst:   29000003 cyc:   26716482 now IPC :0.93077: AVG IPC :1.04953: L2-Pf-HR :0.95726: L2-HR :0.86873: (Sim:0h42m7s) 
CPU  0 inst:   31000004 cyc:   26948160 now IPC :1.04767: AVG IPC :1.11717: L2-Pf-HR :0.94306: L2-HR :0.87212: (Sim:0h42m34s) 
CPU  3 inst:   30000001 cyc:   27120023 now IPC :1.04540: AVG IPC :1.07161: L2-Pf-HR :0.95764: L2-HR :0.86966: (Sim:0h42m53s) 
CPU  2 inst:   31000004 cyc:   27273354 now IPC :1.02722: AVG IPC :1.10338: L2-Pf-HR :0.94409: L2-HR :0.87020: (Sim:0h43m11s) 
CPU  1 inst:   30000001 cyc:   27636114 now IPC :1.08739: AVG IPC :1.05084: L2-Pf-HR :0.95769: L2-HR :0.86909: (Sim:0h43m52s) 
CPU  0 inst:   32000005 cyc:   27895353 now IPC :1.05575: AVG IPC :1.11500: L2-Pf-HR :0.94292: L2-HR :0.87208: (Sim:0h44m16s) 
CPU  3 inst:   31000004 cyc:   28137504 now IPC :0.98282: AVG IPC :1.06828: L2-Pf-HR :0.95735: L2-HR :0.86933: (Sim:0h44m44s) 
CPU  2 inst:   32000000 cyc:   28221353 now IPC :1.05485: AVG IPC :1.10169: L2-Pf-HR :0.94407: L2-HR :0.87013: (Sim:0h44m54s) 
CPU  1 inst:   31000004 cyc:   28706679 now IPC :0.93409: AVG IPC :1.04633: L2-Pf-HR :0.95738: L2-HR :0.86873: (Sim:0h45m45s) 
CPU  0 inst:   33000003 cyc:   28873253 now IPC :1.02260: AVG IPC :1.11176: L2-Pf-HR :0.94279: L2-HR :0.87198: (Sim:0h46m6s) 
CPU  3 inst:   32000005 cyc:   29154067 now IPC :0.98371: AVG IPC :1.06523: L2-Pf-HR :0.95724: L2-HR :0.86927: (Sim:0h46m35s) 
CPU  2 inst:   33000003 cyc:   29160959 now IPC :1.06428: AVG IPC :1.10044: L2-Pf-HR :0.94400: L2-HR :0.87002: (Sim:0h46m36s) 
CPU  1 inst:   32000000 cyc:   29560192 now IPC :1.17162: AVG IPC :1.05007: L2-Pf-HR :0.95729: L2-HR :0.86871: (Sim:0h47m27s) 
CPU  0 inst:   34000002 cyc:   29706597 now IPC :1.19998: AVG IPC :1.11432: L2-Pf-HR :0.94327: L2-HR :0.87234: (Sim:0h47m45s) 
CPU  2 inst:   34000002 cyc:   29966188 now IPC :1.24188: AVG IPC :1.10437: L2-Pf-HR :0.94446: L2-HR :0.87042: (Sim:0h48m10s) 
CPU  3 inst:   33000003 cyc:   30069480 now IPC :1.09240: AVG IPC :1.06608: L2-Pf-HR :0.95704: L2-HR :0.86914: (Sim:0h48m21s) 
CPU  1 inst:   33000003 cyc:   30527238 now IPC :1.03408: AVG IPC :1.04955: L2-Pf-HR :0.95706: L2-HR :0.86859: (Sim:0h49m13s) 
CPU  0 inst:   35000005 cyc:   30728831 now IPC :0.97825: AVG IPC :1.10965: L2-Pf-HR :0.94306: L2-HR :0.87222: (Sim:0h49m36s) 
CPU  2 inst:   35000003 cyc:   30824757 now IPC :1.16473: AVG IPC :1.10611: L2-Pf-HR :0.94422: L2-HR :0.87027: (Sim:0h49m46s) 
CPU  3 inst:   34000002 cyc:   31013698 now IPC :1.05908: AVG IPC :1.06586: L2-Pf-HR :0.95751: L2-HR :0.86952: (Sim:0h50m8s) 
CPU  1 inst:   34000002 cyc:   31508556 now IPC :1.01904: AVG IPC :1.04857: L2-Pf-HR :0.95748: L2-HR :0.86895: (Sim:0h50m58s) 
CPU  0 inst:   36000000 cyc:   31856199 now IPC :0.88702: AVG IPC :1.10151: L2-Pf-HR :0.94293: L2-HR :0.87208: (Sim:0h51m32s) 
CPU  2 inst:   36000000 cyc:   31907530 now IPC :0.92355: AVG IPC :1.09971: L2-Pf-HR :0.94404: L2-HR :0.87013: (Sim:0h51m38s) 
CPU  3 inst:   35000005 cyc:   32163787 now IPC :0.86950: AVG IPC :1.05862: L2-Pf-HR :0.95735: L2-HR :0.86939: (Sim:0h52m7s) 
CPU  1 inst:   35000004 cyc:   32459133 now IPC :1.05199: AVG IPC :1.04867: L2-Pf-HR :0.95736: L2-HR :0.86884: (Sim:0h52m41s) 
CPU  0 inst:   37000000 cyc:   32919720 now IPC :0.94027: AVG IPC :1.09614: L2-Pf-HR :0.94281: L2-HR :0.87206: (Sim:0h53m26s) 
CPU  2 inst:   37000000 cyc:   32995389 now IPC :0.91924: AVG IPC :1.09358: L2-Pf-HR :0.94391: L2-HR :0.87016: (Sim:0h53m33s) 
CPU  3 inst:   36000000 cyc:   33263680 now IPC :0.90917: AVG IPC :1.05352: L2-Pf-HR :0.95717: L2-HR :0.86922: (Sim:0h54m4s) 
CPU  1 inst:   36000000 cyc:   33444531 now IPC :1.01481: AVG IPC :1.04765: L2-Pf-HR :0.95711: L2-HR :0.86870: (Sim:0h54m25s) 
CPU  0 inst:   38000000 cyc:   33895696 now IPC :1.02462: AVG IPC :1.09402: L2-Pf-HR :0.94286: L2-HR :0.87215: (Sim:0h55m15s) 
CPU  2 inst:   38000000 cyc:   34053118 now IPC :0.94542: AVG IPC :1.08884: L2-Pf-HR :0.94384: L2-HR :0.87020: (Sim:0h55m28s) 
CPU  3 inst:   37000000 cyc:   34346870 now IPC :0.92320: AVG IPC :1.04929: L2-Pf-HR :0.95705: L2-HR :0.86924: (Sim:0h56m0s) 
CPU  1 inst:   37000000 cyc:   34441096 now IPC :1.00345: AVG IPC :1.04633: L2-Pf-HR :0.95702: L2-HR :0.86873: (Sim:0h56m11s) 
CPU  0 inst:   39000004 cyc:   34796818 now IPC :1.10973: AVG IPC :1.09444: L2-Pf-HR :0.94310: L2-HR :0.87233: (Sim:0h56m54s) 
CPU  2 inst:   39000004 cyc:   34940562 now IPC :1.12684: AVG IPC :1.08983: L2-Pf-HR :0.94403: L2-HR :0.87038: (Sim:0h57m12s) 
CPU  3 inst:   38000000 cyc:   35302294 now IPC :1.04666: AVG IPC :1.04922: L2-Pf-HR :0.95699: L2-HR :0.86925: (Sim:0h57m49s) 
CPU  1 inst:   38000000 cyc:   35419910 now IPC :1.02164: AVG IPC :1.04563: L2-Pf-HR :0.95699: L2-HR :0.86874: (Sim:0h57m59s) 
CPU  0 inst:   40000003 cyc:   35718950 now IPC :1.08444: AVG IPC :1.09418: L2-Pf-HR :0.94302: L2-HR :0.87232: (Sim:0h58m35s) 
CPU  2 inst:   40000003 cyc:   35972969 now IPC :0.96861: AVG IPC :1.08625: L2-Pf-HR :0.94388: L2-HR :0.87037: (Sim:0h59m6s) 
CPU  3 inst:   39000004 cyc:   36220860 now IPC :1.08866: AVG IPC :1.05025: L2-Pf-HR :0.95718: L2-HR :0.86948: (Sim:0h59m35s) 
CPU  1 inst:   39000004 cyc:   36316897 now IPC :1.11485: AVG IPC :1.04738: L2-Pf-HR :0.95732: L2-HR :0.86894: (Sim:0h59m44s) 
CPU  0 inst:   41000004 cyc:   36595058 now IPC :1.14141: AVG IPC :1.09534: L2-Pf-HR :0.94261: L2-HR :0.87213: (Sim:1h0m13s) 
CPU  2 inst:   41000004 cyc:   37096637 now IPC :0.88994: AVG IPC :1.08015: L2-Pf-HR :0.94374: L2-HR :0.87017: (Sim:1h1m5s) 
CPU  3 inst:   40000003 cyc:   37311427 now IPC :0.91695: AVG IPC :1.04625: L2-Pf-HR :0.95690: L2-HR :0.86951: (Sim:1h1m30s) 
CPU  1 inst:   40000003 cyc:   37384464 now IPC :0.93671: AVG IPC :1.04414: L2-Pf-HR :0.95721: L2-HR :0.86895: (Sim:1h1m39s) 
CPU  0 inst:   42000001 cyc:   38383849 now IPC :0.55904: AVG IPC :1.06968: L2-Pf-HR :0.93992: L2-HR :0.86754: (Sim:1h2m56s) 
CPU  3 inst:   41000004 cyc:   38647129 now IPC :0.74867: AVG IPC :1.03569: L2-Pf-HR :0.95662: L2-HR :0.86926: (Sim:1h3m13s) 
CPU  1 inst:   41000004 cyc:   38882775 now IPC :0.66742: AVG IPC :1.02924: L2-Pf-HR :0.95710: L2-HR :0.86875: (Sim:1h3m29s) 
CPU  2 inst:   42000001 cyc:   39560016 now IPC :0.40595: AVG IPC :1.03708: L2-Pf-HR :0.94102: L2-HR :0.86545: (Sim:1h4m16s) 
CPU  3 inst:   42000001 cyc:   42379478 now IPC :0.26793: AVG IPC :0.96645: L2-Pf-HR :0.95327: L2-HR :0.86458: (Sim:1h6m52s) 
CPU  1 inst:   42000004 cyc:   42788566 now IPC :0.25603: AVG IPC :0.95699: L2-Pf-HR :0.95383: L2-HR :0.86407: (Sim:1h7m16s) 
CPU  0 inst:   43000004 cyc:   54520658 now IPC :0.06197: AVG IPC :0.76590: L2-Pf-HR :0.91257: L2-HR :0.82304: (Sim:1h18m43s) 
CPU  2 inst:   43000001 cyc:   57587536 now IPC :0.05547: AVG IPC :0.72441: L2-Pf-HR :0.91359: L2-HR :0.82060: (Sim:1h20m40s) 
CPU  3 inst:   43000004 cyc:   61591098 now IPC :0.05205: AVG IPC :0.67657: L2-Pf-HR :0.92523: L2-HR :0.81959: (Sim:1h22m40s) 
CPU  1 inst:   43000000 cyc:   61953043 now IPC :0.05218: AVG IPC :0.67255: L2-Pf-HR :0.92556: L2-HR :0.81900: (Sim:1h22m51s) 
CPU  0 inst:   44000002 cyc:   63480154 now IPC :0.11161: AVG IPC :0.67209: L2-Pf-HR :0.90134: L2-HR :0.81281: (Sim:1h23m36s) 
CPU  2 inst:   44000002 cyc:   65003523 now IPC :0.13484: AVG IPC :0.65611: L2-Pf-HR :0.90271: L2-HR :0.81030: (Sim:1h24m21s) 
CPU  3 inst:   44000002 cyc:   67132704 now IPC :0.18045: AVG IPC :0.63500: L2-Pf-HR :0.91402: L2-HR :0.80923: (Sim:1h26m10s) 
CPU  1 inst:   44000002 cyc:   67269490 now IPC :0.18810: AVG IPC :0.63369: L2-Pf-HR :0.91423: L2-HR :0.80862: (Sim:1h26m18s) 
CPU  0 inst:   45000002 cyc:   67628041 now IPC :0.24109: AVG IPC :0.64526: L2-Pf-HR :0.89299: L2-HR :0.80697: (Sim:1h26m40s) 
CPU  2 inst:   45000002 cyc:   69034406 now IPC :0.24808: AVG IPC :0.63194: L2-Pf-HR :0.89453: L2-HR :0.80440: (Sim:1h28m2s) 
CPU  3 inst:   45000002 cyc:   71098832 now IPC :0.25214: AVG IPC :0.61334: L2-Pf-HR :0.90542: L2-HR :0.80332: (Sim:1h30m4s) 
CPU  1 inst:   45000002 cyc:   71232660 now IPC :0.25232: AVG IPC :0.61217: L2-Pf-HR :0.90558: L2-HR :0.80270: (Sim:1h30m12s) 
CPU  0 inst:   46000002 cyc:   71584234 now IPC :0.25277: AVG IPC :0.62327: L2-Pf-HR :0.88484: L2-HR :0.80126: (Sim:1h30m32s) 
CPU  2 inst:   46000002 cyc:   72930177 now IPC :0.25669: AVG IPC :0.61162: L2-Pf-HR :0.88652: L2-HR :0.79866: (Sim:1h31m52s) 
CPU  3 inst:   46000002 cyc:   74942281 now IPC :0.26018: AVG IPC :0.59499: L2-Pf-HR :0.89700: L2-HR :0.79756: (Sim:1h33m51s) 
CPU  1 inst:   46000002 cyc:   75072258 now IPC :0.26044: AVG IPC :0.59394: L2-Pf-HR :0.89712: L2-HR :0.79693: (Sim:1h33m59s) 
CPU  0 inst:   47000002 cyc:   75399484 now IPC :0.26211: AVG IPC :0.60475: L2-Pf-HR :0.87684: L2-HR :0.79571: (Sim:1h34m18s) 
CPU  2 inst:   47000002 cyc:   76695015 now IPC :0.26562: AVG IPC :0.59441: L2-Pf-HR :0.87868: L2-HR :0.79306: (Sim:1h35m36s) 
CPU  3 inst:   47000002 cyc:   78605049 now IPC :0.27302: AVG IPC :0.57979: L2-Pf-HR :0.88873: L2-HR :0.79195: (Sim:1h37m29s) 
CPU  1 inst:   47000002 cyc:   78740051 now IPC :0.27264: AVG IPC :0.57878: L2-Pf-HR :0.88882: L2-HR :0.79131: (Sim:1h37m38s) 
CPU  0 inst:   48000002 cyc:   79045024 now IPC :0.27431: AVG IPC :0.58932: L2-Pf-HR :0.86901: L2-HR :0.79029: (Sim:1h37m56s) 
CPU  2 inst:   48000002 cyc:   80329757 now IPC :0.27512: AVG IPC :0.57978: L2-Pf-HR :0.87098: L2-HR :0.78760: (Sim:1h39m12s) 
CPU  3 inst:   48000002 cyc:   82227076 now IPC :0.27609: AVG IPC :0.56625: L2-Pf-HR :0.88064: L2-HR :0.78647: (Sim:1h41m5s) 
CPU  1 inst:   48000002 cyc:   82351081 now IPC :0.27693: AVG IPC :0.56538: L2-Pf-HR :0.88067: L2-HR :0.78583: (Sim:1h41m12s) 
CPU  0 inst:   49000002 cyc:   82656199 now IPC :0.27692: AVG IPC :0.57550: L2-Pf-HR :0.86132: L2-HR :0.78501: (Sim:1h41m30s) 
CPU  2 inst:   49000002 cyc:   83938537 now IPC :0.27710: AVG IPC :0.56661: L2-Pf-HR :0.86343: L2-HR :0.78227: (Sim:1h42m47s) 
CPU  3 inst:   49000002 cyc:   85855024 now IPC :0.27564: AVG IPC :0.55383: L2-Pf-HR :0.87271: L2-HR :0.78114: (Sim:1h44m40s) 
CPU  1 inst:   49000002 cyc:   85980729 now IPC :0.27551: AVG IPC :0.55301: L2-Pf-HR :0.87270: L2-HR :0.78049: (Sim:1h44m48s) 
CPU  0 inst:   50000002 cyc:   86274574 now IPC :0.27637: AVG IPC :0.56281: L2-Pf-HR :0.85381: L2-HR :0.77986: (Sim:1h45m5s) 
CPU  2 inst:   50000002 cyc:   87538634 now IPC :0.27777: AVG IPC :0.55460: L2-Pf-HR :0.85604: L2-HR :0.77707: (Sim:1h46m20s) 
CPU  3 inst:   50000002 cyc:   89473250 now IPC :0.27638: AVG IPC :0.54248: L2-Pf-HR :0.86496: L2-HR :0.77595: (Sim:1h48m15s) 
CPU  1 inst:   50000002 cyc:   89613153 now IPC :0.27530: AVG IPC :0.54162: L2-Pf-HR :0.86490: L2-HR :0.77531: (Sim:1h48m20s) 
CPU  0 inst:   51000002 cyc:   89906034 now IPC :0.27537: AVG IPC :0.55107: L2-Pf-HR :0.84645: L2-HR :0.77483: (Sim:1h48m36s) 
CPU  2 inst:   51000002 cyc:   91162297 now IPC :0.27596: AVG IPC :0.54340: L2-Pf-HR :0.84879: L2-HR :0.77201: (Sim:1h49m40s) 
CPU  3 inst:   51000002 cyc:   93099742 now IPC :0.27575: AVG IPC :0.53198: L2-Pf-HR :0.85736: L2-HR :0.77090: (Sim:1h51m24s) 
CPU  1 inst:   51000002 cyc:   93238817 now IPC :0.27581: AVG IPC :0.53118: L2-Pf-HR :0.85727: L2-HR :0.77024: (Sim:1h51m33s) 
CPU  0 inst:   52000002 cyc:   93518097 now IPC :0.27685: AVG IPC :0.54037: L2-Pf-HR :0.83925: L2-HR :0.76994: (Sim:1h51m50s) 
CPU  2 inst:   52000002 cyc:   94783252 now IPC :0.27617: AVG IPC :0.53309: L2-Pf-HR :0.84168: L2-HR :0.76707: (Sim:1h52m56s) 
CPU  3 inst:   52000002 cyc:   96744676 now IPC :0.27435: AVG IPC :0.52217: L2-Pf-HR :0.84990: L2-HR :0.76596: (Sim:1h54m38s) 
CPU  1 inst:   52000002 cyc:   96869909 now IPC :0.27540: AVG IPC :0.52149: L2-Pf-HR :0.84978: L2-HR :0.76529: (Sim:1h54m46s) 
CPU  0 inst:   53000002 cyc:   97144189 now IPC :0.27578: AVG IPC :0.53039: L2-Pf-HR :0.83218: L2-HR :0.76516: (Sim:1h55m1s) 
CPU  2 inst:   53000002 cyc:   98381499 now IPC :0.27791: AVG IPC :0.52366: L2-Pf-HR :0.83472: L2-HR :0.76226: (Sim:1h55m53s) 
CPU  3 inst:   53000002 cyc:  100354497 now IPC :0.27702: AVG IPC :0.51327: L2-Pf-HR :0.84260: L2-HR :0.76116: (Sim:1h57m46s) 
CPU  1 inst:   53000002 cyc:  100480551 now IPC :0.27696: AVG IPC :0.51261: L2-Pf-HR :0.84243: L2-HR :0.76047: (Sim:1h57m53s) 
CPU  0 inst:   54000002 cyc:  100753996 now IPC :0.27702: AVG IPC :0.52122: L2-Pf-HR :0.82523: L2-HR :0.76049: (Sim:1h58m9s) 
CPU  2 inst:   54000002 cyc:  101994230 now IPC :0.27680: AVG IPC :0.51483: L2-Pf-HR :0.82787: L2-HR :0.75757: (Sim:1h59m20s) 
CPU  3 inst:   54000002 cyc:  103969904 now IPC :0.27659: AVG IPC :0.50496: L2-Pf-HR :0.83547: L2-HR :0.75646: (Sim:2h1m13s) 
CPU  1 inst:   54000002 cyc:  104108102 now IPC :0.27567: AVG IPC :0.50428: L2-Pf-HR :0.83523: L2-HR :0.75576: (Sim:2h1m21s) 
CPU  0 inst:   55000002 cyc:  104372960 now IPC :0.27632: AVG IPC :0.51265: L2-Pf-HR :0.81842: L2-HR :0.75594: (Sim:2h1m36s) 
CPU  2 inst:   55000002 cyc:  105626090 now IPC :0.27534: AVG IPC :0.50652: L2-Pf-HR :0.82115: L2-HR :0.75299: (Sim:2h2m47s) 
CPU  3 inst:   55000002 cyc:  107587068 now IPC :0.27646: AVG IPC :0.49720: L2-Pf-HR :0.82847: L2-HR :0.75188: (Sim:2h4m39s) 
CPU  1 inst:   55000002 cyc:  107734140 now IPC :0.27578: AVG IPC :0.49652: L2-Pf-HR :0.82817: L2-HR :0.75117: (Sim:2h4m47s) 
CPU  0 inst:   56000002 cyc:  107978686 now IPC :0.27734: AVG IPC :0.50472: L2-Pf-HR :0.81175: L2-HR :0.75150: (Sim:2h5m2s) 
CPU  2 inst:   56000002 cyc:  109260416 now IPC :0.27515: AVG IPC :0.49875: L2-Pf-HR :0.81455: L2-HR :0.74852: (Sim:2h6m15s) 
CPU  3 inst:   56000002 cyc:  111200775 now IPC :0.27672: AVG IPC :0.48997: L2-Pf-HR :0.82157: L2-HR :0.74741: (Sim:2h8m8s) 
CPU  1 inst:   56000002 cyc:  111346628 now IPC :0.27682: AVG IPC :0.48932: L2-Pf-HR :0.82128: L2-HR :0.74669: (Sim:2h8m16s) 
CPU  0 inst:   57000002 cyc:  111597923 now IPC :0.27630: AVG IPC :0.49724: L2-Pf-HR :0.80519: L2-HR :0.74716: (Sim:2h8m31s) 
CPU  2 inst:   57000002 cyc:  112860524 now IPC :0.27777: AVG IPC :0.49164: L2-Pf-HR :0.80809: L2-HR :0.74414: (Sim:2h9m48s) 
CPU  3 inst:   57000002 cyc:  114822582 now IPC :0.27611: AVG IPC :0.48317: L2-Pf-HR :0.81481: L2-HR :0.74304: (Sim:2h11m49s) 
CPU  1 inst:   57000002 cyc:  114967200 now IPC :0.27620: AVG IPC :0.48255: L2-Pf-HR :0.81452: L2-HR :0.74232: (Sim:2h11m58s) 
CPU  0 inst:   58000002 cyc:  115214842 now IPC :0.27648: AVG IPC :0.49025: L2-Pf-HR :0.79875: L2-HR :0.74292: (Sim:2h12m13s) 
CPU  2 inst:   58000002 cyc:  116495049 now IPC :0.27514: AVG IPC :0.48483: L2-Pf-HR :0.80174: L2-HR :0.73987: (Sim:2h13m32s) 
CPU  3 inst:   58000002 cyc:  118455092 now IPC :0.27529: AVG IPC :0.47674: L2-Pf-HR :0.80818: L2-HR :0.73876: (Sim:2h15m35s) 
CPU  1 inst:   58000002 cyc:  118588380 now IPC :0.27615: AVG IPC :0.47620: L2-Pf-HR :0.80788: L2-HR :0.73805: (Sim:2h15m43s) 
CPU  0 inst:   59000002 cyc:  118827737 now IPC :0.27679: AVG IPC :0.48371: L2-Pf-HR :0.79243: L2-HR :0.73877: (Sim:2h15m58s) 
CPU  2 inst:   59000002 cyc:  120104334 now IPC :0.27706: AVG IPC :0.47853: L2-Pf-HR :0.79551: L2-HR :0.73570: (Sim:2h17m18s) 
CPU  0 inst:   60000001 cyc:  121754669 now IPC :0.34165: AVG IPC :0.48026: L2-Pf-HR :0.78670: L2-HR :0.73441: (Sim:2h18m22s) 
CPU  3 inst:   59000002 cyc:  122215960 now IPC :0.26590: AVG IPC :0.47020: L2-Pf-HR :0.80166: L2-HR :0.73460: (Sim:2h18m44s) 
CPU  1 inst:   59000002 cyc:  122367881 now IPC :0.26459: AVG IPC :0.46961: L2-Pf-HR :0.80136: L2-HR :0.73389: (Sim:2h18m49s) 
CPU  0 inst:   61000002 cyc:  122428169 now IPC :1.48478: AVG IPC :0.48584: L2-Pf-HR :0.79009: L2-HR :0.73758: (Sim:2h18m51s) 
CPU  0 inst:   62000005 cyc:  123218233 now IPC :1.26572: AVG IPC :0.49088: L2-Pf-HR :0.79245: L2-HR :0.73984: (Sim:2h19m33s) 
CPU  2 inst:   60000001 cyc:  123221780 now IPC :0.32078: AVG IPC :0.47451: L2-Pf-HR :0.78982: L2-HR :0.73131: (Sim:2h19m33s) 
CPU  2 inst:   61000001 cyc:  123930557 now IPC :1.41088: AVG IPC :0.47990: L2-Pf-HR :0.79311: L2-HR :0.73455: (Sim:2h20m13s) 
CPU  0 inst:   63000000 cyc:  124018693 now IPC :1.24928: AVG IPC :0.49581: L2-Pf-HR :0.79478: L2-HR :0.74253: (Sim:2h20m17s) 
CPU  2 inst:   62000005 cyc:  124622886 now IPC :1.44441: AVG IPC :0.48531: L2-Pf-HR :0.79537: L2-HR :0.73682: (Sim:2h20m52s) 
CPU  0 inst:   64000003 cyc:  124884186 now IPC :1.15541: AVG IPC :0.50042: L2-Pf-HR :0.79716: L2-HR :0.74516: (Sim:2h21m3s) 
CPU  0 inst:   65000000 cyc:  125679744 now IPC :1.25698: AVG IPC :0.50525: L2-Pf-HR :0.80019: L2-HR :0.74772: (Sim:2h21m53s) 
CPU  2 inst:   63000000 cyc:  125775078 now IPC :0.86791: AVG IPC :0.48884: L2-Pf-HR :0.79773: L2-HR :0.73959: (Sim:2h22m1s) 
CPU  3 inst:   60000001 cyc:  125784474 now IPC :0.28023: AVG IPC :0.46477: L2-Pf-HR :0.79556: L2-HR :0.73024: (Sim:2h22m2s) 
CPU  1 inst:   60000004 cyc:  125933786 now IPC :0.28043: AVG IPC :0.46421: L2-Pf-HR :0.79550: L2-HR :0.72961: (Sim:2h22m15s) 
CPU  0 inst:   66000004 cyc:  126441388 now IPC :1.31295: AVG IPC :0.51015: L2-Pf-HR :0.80179: L2-HR :0.74976: (Sim:2h22m59s) 
CPU  3 inst:   61000002 cyc:  126484873 now IPC :1.42776: AVG IPC :0.47014: L2-Pf-HR :0.79880: L2-HR :0.73356: (Sim:2h23m2s) 
CPU  2 inst:   64000003 cyc:  126561094 now IPC :1.27224: AVG IPC :0.49374: L2-Pf-HR :0.79994: L2-HR :0.74216: (Sim:2h23m7s) 
CPU  1 inst:   61000002 cyc:  126669168 now IPC :1.35983: AVG IPC :0.46945: L2-Pf-HR :0.79879: L2-HR :0.73296: (Sim:2h23m15s) 
CPU  2 inst:   65000000 cyc:  127167476 now IPC :1.64912: AVG IPC :0.49929: L2-Pf-HR :0.80296: L2-HR :0.74479: (Sim:2h23m58s) 
CPU  3 inst:   62000005 cyc:  127184373 now IPC :1.42960: AVG IPC :0.47546: L2-Pf-HR :0.80103: L2-HR :0.73588: (Sim:2h24m0s) 
CPU  0 inst:   67000002 cyc:  127237062 now IPC :1.25679: AVG IPC :0.51486: L2-Pf-HR :0.80380: L2-HR :0.75212: (Sim:2h24m5s) 
CPU  1 inst:   62000005 cyc:  127385467 now IPC :1.39607: AVG IPC :0.47470: L2-Pf-HR :0.80108: L2-HR :0.73536: (Sim:2h24m16s) 
CPU  2 inst:   66000004 cyc:  127990604 now IPC :1.21488: AVG IPC :0.50393: L2-Pf-HR :0.80458: L2-HR :0.74686: (Sim:2h25m4s) 
CPU  3 inst:   63000000 cyc:  128033403 now IPC :1.17781: AVG IPC :0.48015: L2-Pf-HR :0.80333: L2-HR :0.73874: (Sim:2h25m8s) 
CPU  0 inst:   68000005 cyc:  128048844 now IPC :1.23186: AVG IPC :0.51944: L2-Pf-HR :0.80579: L2-HR :0.75436: (Sim:2h25m9s) 
CPU  1 inst:   63000000 cyc:  128208186 now IPC :1.21548: AVG IPC :0.47949: L2-Pf-HR :0.80332: L2-HR :0.73826: (Sim:2h25m24s) 
CPU  0 inst:   69000004 cyc:  128604452 now IPC :1.79983: AVG IPC :0.52501: L2-Pf-HR :0.80798: L2-HR :0.75630: (Sim:2h25m57s) 
CPU  3 inst:   64000003 cyc:  128709151 now IPC :1.47985: AVG IPC :0.48544: L2-Pf-HR :0.80545: L2-HR :0.74137: (Sim:2h26m5s) 
CPU  2 inst:   67000004 cyc:  128713979 now IPC :1.38241: AVG IPC :0.50891: L2-Pf-HR :0.80644: L2-HR :0.74918: (Sim:2h26m6s) 
CPU  1 inst:   64000003 cyc:  128971594 now IPC :1.30992: AVG IPC :0.48445: L2-Pf-HR :0.80556: L2-HR :0.74101: (Sim:2h26m26s) 
CPU  3 inst:   65000000 cyc:  129274912 now IPC :1.76753: AVG IPC :0.49110: L2-Pf-HR :0.80842: L2-HR :0.74404: (Sim:2h26m54s) 
CPU  0 inst:   70000001 cyc:  129367178 now IPC :1.31108: AVG IPC :0.52968: L2-Pf-HR :0.80974: L2-HR :0.75846: (Sim:2h27m1s) 
CPU  2 inst:   68000005 cyc:  129473408 now IPC :1.31678: AVG IPC :0.51368: L2-Pf-HR :0.80842: L2-HR :0.75150: (Sim:2h27m12s) 
CPU  1 inst:   65000000 cyc:  129576371 now IPC :1.65350: AVG IPC :0.48994: L2-Pf-HR :0.80853: L2-HR :0.74371: (Sim:2h27m20s) 
CPU  3 inst:   66000004 cyc:  130041521 now IPC :1.30445: AVG IPC :0.49593: L2-Pf-HR :0.81003: L2-HR :0.74615: (Sim:2h28m0s) 
CPU  2 inst:   69000004 cyc:  130054951 now IPC :1.71956: AVG IPC :0.51912: L2-Pf-HR :0.81064: L2-HR :0.75346: (Sim:2h28m1s) 
CPU  0 inst:   71000003 cyc:  130144003 now IPC :1.28729: AVG IPC :0.53424: L2-Pf-HR :0.81146: L2-HR :0.76047: (Sim:2h28m9s) 
CPU  1 inst:   66000002 cyc:  130332391 now IPC :1.32272: AVG IPC :0.49481: L2-Pf-HR :0.81013: L2-HR :0.74587: (Sim:2h28m24s) 
CPU  3 inst:   67000004 cyc:  130763247 now IPC :1.38557: AVG IPC :0.50088: L2-Pf-HR :0.81184: L2-HR :0.74858: (Sim:2h28m59s) 
CPU  2 inst:   70000001 cyc:  130767809 now IPC :1.40280: AVG IPC :0.52397: L2-Pf-HR :0.81229: L2-HR :0.75555: (Sim:2h29m0s) 
CPU  0 inst:   72000002 cyc:  130801239 now IPC :1.52152: AVG IPC :0.53924: L2-Pf-HR :0.81362: L2-HR :0.76269: (Sim:2h29m2s) 
CPU  1 inst:   67000004 cyc:  131067371 now IPC :1.36058: AVG IPC :0.49970: L2-Pf-HR :0.81200: L2-HR :0.74836: (Sim:2h29m27s) 
CPU  0 inst:   73000004 cyc:  131424336 now IPC :1.60489: AVG IPC :0.54433: L2-Pf-HR :0.81494: L2-HR :0.76422: (Sim:2h29m59s) 
CPU  3 inst:   68000005 cyc:  131456466 now IPC :1.44255: AVG IPC :0.50588: L2-Pf-HR :0.81362: L2-HR :0.75081: (Sim:2h30m2s) 
CPU  2 inst:   71000003 cyc:  131474581 now IPC :1.41489: AVG IPC :0.52880: L2-Pf-HR :0.81381: L2-HR :0.75750: (Sim:2h30m3s) 
CPU  1 inst:   68000002 cyc:  131816304 now IPC :1.33523: AVG IPC :0.50449: L2-Pf-HR :0.81387: L2-HR :0.75072: (Sim:2h30m32s) 
CPU  3 inst:   69000004 cyc:  132000501 now IPC :1.83812: AVG IPC :0.51141: L2-Pf-HR :0.81579: L2-HR :0.75280: (Sim:2h30m49s) 
CPU  2 inst:   72000002 cyc:  132064717 now IPC :1.69452: AVG IPC :0.53405: L2-Pf-HR :0.81602: L2-HR :0.75975: (Sim:2h30m55s) 
CPU  0 inst:   74000002 cyc:  132112054 now IPC :1.45408: AVG IPC :0.54910: L2-Pf-HR :0.81641: L2-HR :0.76611: (Sim:2h30m58s) 
CPU  1 inst:   69000004 cyc:  132366427 now IPC :1.81778: AVG IPC :0.50999: L2-Pf-HR :0.81607: L2-HR :0.75275: (Sim:2h31m22s) 
CPU  3 inst:   70000001 cyc:  132654658 now IPC :1.52868: AVG IPC :0.51647: L2-Pf-HR :0.81745: L2-HR :0.75502: (Sim:2h31m45s) 
CPU  2 inst:   73000004 cyc:  132699378 now IPC :1.57565: AVG IPC :0.53906: L2-Pf-HR :0.81732: L2-HR :0.76119: (Sim:2h31m50s) 
CPU  0 inst:   75000002 cyc:  132815960 now IPC :1.42064: AVG IPC :0.55375: L2-Pf-HR :0.81794: L2-HR :0.76789: (Sim:2h32m1s) 
CPU  1 inst:   70000001 cyc:  133068642 now IPC :1.42406: AVG IPC :0.51485: L2-Pf-HR :0.81772: L2-HR :0.75501: (Sim:2h32m23s) 
CPU  3 inst:   71000003 cyc:  133347100 now IPC :1.44417: AVG IPC :0.52132: L2-Pf-HR :0.81890: L2-HR :0.75699: (Sim:2h32m48s) 
CPU  0 inst:   76000004 cyc:  133360234 now IPC :1.83731: AVG IPC :0.55903: L2-Pf-HR :0.82004: L2-HR :0.76982: (Sim:2h32m49s) 
CPU  2 inst:   74000001 cyc:  133377919 now IPC :1.47375: AVG IPC :0.54386: L2-Pf-HR :0.81877: L2-HR :0.76309: (Sim:2h32m51s) 
CPU  1 inst:   71000003 cyc:  133809242 now IPC :1.35026: AVG IPC :0.51951: L2-Pf-HR :0.81924: L2-HR :0.75706: (Sim:2h33m28s) 
CPU  3 inst:   72000002 cyc:  133958997 now IPC :1.63426: AVG IPC :0.52644: L2-Pf-HR :0.82102: L2-HR :0.75927: (Sim:2h33m40s) 
CPU  2 inst:   75000002 cyc:  134088677 now IPC :1.40695: AVG IPC :0.54846: L2-Pf-HR :0.82015: L2-HR :0.76487: (Sim:2h33m53s) 
CPU  0 inst:   77000002 cyc:  134098399 now IPC :1.35471: AVG IPC :0.56344: L2-Pf-HR :0.82109: L2-HR :0.77121: (Sim:2h33m54s) 
CPU  1 inst:   72000002 cyc:  134451185 now IPC :1.55777: AVG IPC :0.52450: L2-Pf-HR :0.82139: L2-HR :0.75936: (Sim:2h34m24s) 
CPU  3 inst:   73000004 cyc:  134600523 now IPC :1.55879: AVG IPC :0.53140: L2-Pf-HR :0.82236: L2-HR :0.76086: (Sim:2h34m36s) 
CPU  2 inst:   76000004 cyc:  134643340 now IPC :1.80290: AVG IPC :0.55367: L2-Pf-HR :0.82226: L2-HR :0.76680: (Sim:2h34m40s) 
CPU  0 inst:   78000001 cyc:  134829196 now IPC :1.36837: AVG IPC :0.56784: L2-Pf-HR :0.82233: L2-HR :0.77284: (Sim:2h34m55s) 
CPU  1 inst:   73000004 cyc:  135139174 now IPC :1.45351: AVG IPC :0.52926: L2-Pf-HR :0.82273: L2-HR :0.76102: (Sim:2h35m23s) 
CPU  3 inst:   74000002 cyc:  135279177 now IPC :1.47350: AVG IPC :0.53616: L2-Pf-HR :0.82364: L2-HR :0.76277: (Sim:2h35m37s) 
CPU  2 inst:   77000002 cyc:  135322162 now IPC :1.47314: AVG IPC :0.55832: L2-Pf-HR :0.82326: L2-HR :0.76818: (Sim:2h35m40s) 
CPU  0 inst:   79000000 cyc:  135512438 now IPC :1.46361: AVG IPC :0.57239: L2-Pf-HR :0.82365: L2-HR :0.77446: (Sim:2h35m54s) 
CPU  1 inst:   74000002 cyc:  135866215 now IPC :1.37544: AVG IPC :0.53382: L2-Pf-HR :0.82408: L2-HR :0.76297: (Sim:2h36m23s) 
CPU  3 inst:   75000002 cyc:  135985000 now IPC :1.41679: AVG IPC :0.54077: L2-Pf-HR :0.82495: L2-HR :0.76457: (Sim:2h36m35s) 
CPU  2 inst:   78000001 cyc:  136019916 now IPC :1.43317: AVG IPC :0.56284: L2-Pf-HR :0.82444: L2-HR :0.76985: (Sim:2h36m38s) 
CPU  0 inst:   80000001 cyc:  136055992 now IPC :1.83975: AVG IPC :0.57749: L2-Pf-HR :0.82523: L2-HR :0.77592: (Sim:2h36m42s) 
CPU  3 inst:   76000004 cyc:  136525434 now IPC :1.85037: AVG IPC :0.54599: L2-Pf-HR :0.82699: L2-HR :0.76655: (Sim:2h37m22s) 
CPU  1 inst:   75000002 cyc:  136534943 now IPC :1.49538: AVG IPC :0.53857: L2-Pf-HR :0.82542: L2-HR :0.76481: (Sim:2h37m22s) 
CPU  2 inst:   79000000 cyc:  136674084 now IPC :1.52866: AVG IPC :0.56749: L2-Pf-HR :0.82571: L2-HR :0.77149: (Sim:2h37m34s) 
CPU  0 inst:   81000005 cyc:  136735278 now IPC :1.47214: AVG IPC :0.58197: L2-Pf-HR :0.82630: L2-HR :0.77740: (Sim:2h37m39s) 
CPU  1 inst:   76000004 cyc:  137077013 now IPC :1.84478: AVG IPC :0.54377: L2-Pf-HR :0.82747: L2-HR :0.76680: (Sim:2h38m11s) 
CPU  3 inst:   77000002 cyc:  137192902 now IPC :1.49820: AVG IPC :0.55065: L2-Pf-HR :0.82790: L2-HR :0.76802: (Sim:2h38m20s) 
CPU  2 inst:   80000001 cyc:  137209381 now IPC :1.86812: AVG IPC :0.57260: L2-Pf-HR :0.82731: L2-HR :0.77296: (Sim:2h38m21s) 
CPU  0 inst:   82000004 cyc:  137391433 now IPC :1.52403: AVG IPC :0.58650: L2-Pf-HR :0.82737: L2-HR :0.77879: (Sim:2h38m36s) 
CPU  1 inst:   77000002 cyc:  137752208 now IPC :1.48105: AVG IPC :0.54840: L2-Pf-HR :0.82841: L2-HR :0.76829: (Sim:2h39m8s) 
CPU  3 inst:   78000001 cyc:  137833824 now IPC :1.56025: AVG IPC :0.55538: L2-Pf-HR :0.82908: L2-HR :0.76971: (Sim:2h39m15s) 
CPU  2 inst:   81000005 cyc:  137851757 now IPC :1.55673: AVG IPC :0.57722: L2-Pf-HR :0.82839: L2-HR :0.77451: (Sim:2h39m17s) 
CPU  0 inst:   83000002 cyc:  137947498 now IPC :1.79835: AVG IPC :0.59142: L2-Pf-HR :0.82907: L2-HR :0.78049: (Sim:2h39m25s) 
CPU  1 inst:   78000001 cyc:  138512571 now IPC :1.31516: AVG IPC :0.55264: L2-Pf-HR :0.82957: L2-HR :0.76999: (Sim:2h40m10s) 
CPU  3 inst:   79000000 cyc:  138560613 now IPC :1.37591: AVG IPC :0.55972: L2-Pf-HR :0.83027: L2-HR :0.77136: (Sim:2h40m15s) 
CPU  2 inst:   82000004 cyc:  138579659 now IPC :1.37381: AVG IPC :0.58144: L2-Pf-HR :0.82947: L2-HR :0.77593: (Sim:2h40m17s) 
CPU  0 inst:   84000004 cyc:  138644105 now IPC :1.43553: AVG IPC :0.59569: L2-Pf-HR :0.82992: L2-HR :0.78160: (Sim:2h40m23s) 
CPU  3 inst:   80000001 cyc:  139087732 now IPC :1.89711: AVG IPC :0.56482: L2-Pf-HR :0.83179: L2-HR :0.77288: (Sim:2h41m2s) 
CPU  2 inst:   83000002 cyc:  139154005 now IPC :1.74111: AVG IPC :0.58626: L2-Pf-HR :0.83115: L2-HR :0.77765: (Sim:2h41m7s) 
CPU  1 inst:   79000000 cyc:  139163543 now IPC :1.53616: AVG IPC :0.55727: L2-Pf-HR :0.83077: L2-HR :0.77166: (Sim:2h41m8s) 
CPU  0 inst:   85000004 cyc:  139316368 now IPC :1.48751: AVG IPC :0.60002: L2-Pf-HR :0.83088: L2-HR :0.78295: (Sim:2h41m20s) 
CPU  1 inst:   80000001 cyc:  139719186 now IPC :1.79972: AVG IPC :0.56225: L2-Pf-HR :0.83237: L2-HR :0.77320: (Sim:2h41m56s) 
CPU  3 inst:   81000005 cyc:  139767548 now IPC :1.47099: AVG IPC :0.56926: L2-Pf-HR :0.83285: L2-HR :0.77449: (Sim:2h42m0s) 
CPU  2 inst:   84000004 cyc:  139791951 now IPC :1.56753: AVG IPC :0.59077: L2-Pf-HR :0.83204: L2-HR :0.77875: (Sim:2h42m2s) 
CPU  0 inst:   86000004 cyc:  139958402 now IPC :1.55755: AVG IPC :0.60445: L2-Pf-HR :0.83186: L2-HR :0.78425: (Sim:2h42m16s) 
CPU  1 inst:   81000005 cyc:  140394416 now IPC :1.48098: AVG IPC :0.56670: L2-Pf-HR :0.83338: L2-HR :0.77480: (Sim:2h42m54s) 
CPU  3 inst:   82000004 cyc:  140451636 now IPC :1.46180: AVG IPC :0.57364: L2-Pf-HR :0.83384: L2-HR :0.77591: (Sim:2h42m59s) 
CPU  2 inst:   85000004 cyc:  140471062 now IPC :1.47251: AVG IPC :0.59506: L2-Pf-HR :0.83296: L2-HR :0.78012: (Sim:2h43m1s) 
CPU  0 inst:   87000005 cyc:  140510429 now IPC :1.81151: AVG IPC :0.60922: L2-Pf-HR :0.83339: L2-HR :0.78570: (Sim:2h43m5s) 
CPU  1 inst:   82000004 cyc:  141047938 now IPC :1.53017: AVG IPC :0.57119: L2-Pf-HR :0.83432: L2-HR :0.77621: (Sim:2h43m49s) 
CPU  3 inst:   83000002 cyc:  141048929 now IPC :1.67422: AVG IPC :0.57833: L2-Pf-HR :0.83550: L2-HR :0.77764: (Sim:2h43m49s) 
CPU  2 inst:   86000004 cyc:  141152701 now IPC :1.46705: AVG IPC :0.59930: L2-Pf-HR :0.83391: L2-HR :0.78144: (Sim:2h43m58s) 
CPU  0 inst:   88000002 cyc:  141172260 now IPC :1.51096: AVG IPC :0.61348: L2-Pf-HR :0.83408: L2-HR :0.78672: (Sim:2h44m0s) 
CPU  1 inst:   83000002 cyc:  141639694 now IPC :1.68988: AVG IPC :0.57590: L2-Pf-HR :0.83589: L2-HR :0.77794: (Sim:2h44m42s) 
CPU  3 inst:   84000004 cyc:  141674894 now IPC :1.59754: AVG IPC :0.58287: L2-Pf-HR :0.83636: L2-HR :0.77876: (Sim:2h44m45s) 
CPU  2 inst:   87000000 cyc:  141683439 now IPC :1.88416: AVG IPC :0.60415: L2-Pf-HR :0.83548: L2-HR :0.78293: (Sim:2h44m46s) 
CPU  0 inst:   89000003 cyc:  141846869 now IPC :1.48234: AVG IPC :0.61764: L2-Pf-HR :0.83490: L2-HR :0.78791: (Sim:2h44m59s) 
CPU  1 inst:   84000003 cyc:  142262601 now IPC :1.60538: AVG IPC :0.58044: L2-Pf-HR :0.83674: L2-HR :0.77910: (Sim:2h45m36s) 
CPU  2 inst:   88000002 cyc:  142334335 now IPC :1.53635: AVG IPC :0.60844: L2-Pf-HR :0.83616: L2-HR :0.78398: (Sim:2h45m42s) 
CPU  3 inst:   85000004 cyc:  142350393 now IPC :1.48039: AVG IPC :0.58716: L2-Pf-HR :0.83716: L2-HR :0.78008: (Sim:2h45m43s) 
CPU  0 inst:   90000003 cyc:  142493072 now IPC :1.54750: AVG IPC :0.62189: L2-Pf-HR :0.83583: L2-HR :0.78912: (Sim:2h45m56s) 
CPU  1 inst:   85000004 cyc:  142943901 now IPC :1.46778: AVG IPC :0.58470: L2-Pf-HR :0.83755: L2-HR :0.78046: (Sim:2h46m33s) 
CPU  2 inst:   89000003 cyc:  142996786 now IPC :1.50955: AVG IPC :0.61265: L2-Pf-HR :0.83696: L2-HR :0.78521: (Sim:2h46m38s) 
CPU  3 inst:   86000004 cyc:  143008411 now IPC :1.51972: AVG IPC :0.59148: L2-Pf-HR :0.83805: L2-HR :0.78140: (Sim:2h46m39s) 
CPU  0 inst:   91000000 cyc:  143037276 now IPC :1.83754: AVG IPC :0.62655: L2-Pf-HR :0.83706: L2-HR :0.79029: (Sim:2h46m42s) 
CPU  3 inst:   87000000 cyc:  143569762 now IPC :1.78141: AVG IPC :0.59616: L2-Pf-HR :0.83957: L2-HR :0.78290: (Sim:2h47m28s) 
CPU  1 inst:   86000004 cyc:  143611923 now IPC :1.49696: AVG IPC :0.58897: L2-Pf-HR :0.83846: L2-HR :0.78183: (Sim:2h47m31s) 
CPU  2 inst:   90000003 cyc:  143658725 now IPC :1.51071: AVG IPC :0.61681: L2-Pf-HR :0.83785: L2-HR :0.78642: (Sim:2h47m35s) 
CPU  0 inst:   92000001 cyc:  143688623 now IPC :1.53528: AVG IPC :0.63069: L2-Pf-HR :0.83777: L2-HR :0.79140: (Sim:2h47m38s) 
CPU  1 inst:   87000002 cyc:  144156275 now IPC :1.83704: AVG IPC :0.59372: L2-Pf-HR :0.84000: L2-HR :0.78334: (Sim:2h48m20s) 
CPU  2 inst:   91000003 cyc:  144184621 now IPC :1.90152: AVG IPC :0.62153: L2-Pf-HR :0.83909: L2-HR :0.78759: (Sim:2h48m23s) 
CPU  3 inst:   88000002 cyc:  144202888 now IPC :1.57947: AVG IPC :0.60051: L2-Pf-HR :0.84021: L2-HR :0.78397: (Sim:2h48m24s) 
CPU  0 inst:   93000001 cyc:  144340642 now IPC :1.53370: AVG IPC :0.63480: L2-Pf-HR :0.83856: L2-HR :0.79248: (Sim:2h48m35s) 
CPU  1 inst:   88000002 cyc:  144808218 now IPC :1.53388: AVG IPC :0.59798: L2-Pf-HR :0.84062: L2-HR :0.78439: (Sim:2h49m15s) 
CPU  2 inst:   92000001 cyc:  144834868 now IPC :1.53787: AVG IPC :0.62567: L2-Pf-HR :0.83984: L2-HR :0.78876: (Sim:2h49m18s) 
CPU  3 inst:   89000003 cyc:  144840751 now IPC :1.56774: AVG IPC :0.60480: L2-Pf-HR :0.84097: L2-HR :0.78522: (Sim:2h49m18s) 
CPU  0 inst:   94000005 cyc:  144902726 now IPC :1.77910: AVG IPC :0.63927: L2-Pf-HR :0.83993: L2-HR :0.79382: (Sim:2h49m24s) 
CPU  1 inst:   89000003 cyc:  145488151 now IPC :1.47073: AVG IPC :0.60209: L2-Pf-HR :0.84137: L2-HR :0.78563: (Sim:2h50m13s) 
CPU  3 inst:   90000003 cyc:  145506678 now IPC :1.50167: AVG IPC :0.60893: L2-Pf-HR :0.84183: L2-HR :0.78644: (Sim:2h50m15s) 
CPU  0 inst:   95000002 cyc:  145527032 now IPC :1.60177: AVG IPC :0.64343: L2-Pf-HR :0.84043: L2-HR :0.79461: (Sim:2h50m16s) 
CPU  2 inst:   93000001 cyc:  145527616 now IPC :1.44353: AVG IPC :0.62959: L2-Pf-HR :0.84055: L2-HR :0.78979: (Sim:2h50m16s) 
CPU  3 inst:   91000000 cyc:  146036456 now IPC :1.88758: AVG IPC :0.61360: L2-Pf-HR :0.84305: L2-HR :0.78765: (Sim:2h51m3s) 
CPU  2 inst:   94000005 cyc:  146109483 now IPC :1.71861: AVG IPC :0.63396: L2-Pf-HR :0.84192: L2-HR :0.79117: (Sim:2h51m9s) 
CPU  1 inst:   90000003 cyc:  146154761 now IPC :1.50013: AVG IPC :0.60621: L2-Pf-HR :0.84218: L2-HR :0.78687: (Sim:2h51m13s) 
CPU  0 inst:   96000000 cyc:  146194479 now IPC :1.49824: AVG IPC :0.64736: L2-Pf-HR :0.84105: L2-HR :0.79558: (Sim:2h51m16s) 
CPU  3 inst:   92000001 cyc:  146707823 now IPC :1.48950: AVG IPC :0.61764: L2-Pf-HR :0.84375: L2-HR :0.78882: (Sim:2h52m2s) 
CPU  1 inst:   91000000 cyc:  146708460 now IPC :1.80603: AVG IPC :0.61077: L2-Pf-HR :0.84339: L2-HR :0.78808: (Sim:2h52m2s) 
CPU  2 inst:   95000002 cyc:  146765053 now IPC :1.52539: AVG IPC :0.63797: L2-Pf-HR :0.84246: L2-HR :0.79196: (Sim:2h52m7s) 
CPU  0 inst:   97000002 cyc:  146872556 now IPC :1.47476: AVG IPC :0.65120: L2-Pf-HR :0.84177: L2-HR :0.79655: (Sim:2h52m16s) 
CPU  1 inst:   92000001 cyc:  147394786 now IPC :1.45703: AVG IPC :0.61474: L2-Pf-HR :0.84405: L2-HR :0.78922: (Sim:2h53m3s) 
CPU  3 inst:   93000001 cyc:  147417465 now IPC :1.40916: AVG IPC :0.62147: L2-Pf-HR :0.84439: L2-HR :0.78988: (Sim:2h53m6s) 
CPU  0 inst:   98000004 cyc:  147438240 now IPC :1.76777: AVG IPC :0.65552: L2-Pf-HR :0.84298: L2-HR :0.79773: (Sim:2h53m10s) 
CPU  2 inst:   96000000 cyc:  147466549 now IPC :1.42552: AVG IPC :0.64174: L2-Pf-HR :0.84312: L2-HR :0.79298: (Sim:2h53m15s) 
CPU  3 inst:   94000005 cyc:  147988498 now IPC :1.75122: AVG IPC :0.62586: L2-Pf-HR :0.84575: L2-HR :0.79128: (Sim:2h54m15s) 
CPU  1 inst:   93000001 cyc:  148079422 now IPC :1.46063: AVG IPC :0.61867: L2-Pf-HR :0.84472: L2-HR :0.79027: (Sim:2h54m21s) 
CPU  0 inst:   99000003 cyc:  148109662 now IPC :1.48937: AVG IPC :0.65932: L2-Pf-HR :0.84349: L2-HR :0.79850: (Sim:2h54m24s) 
CPU  2 inst:   97000002 cyc:  148188498 now IPC :1.38514: AVG IPC :0.64539: L2-Pf-HR :0.84378: L2-HR :0.79394: (Sim:2h54m31s) 
CPU  1 inst:   94000005 cyc:  148631328 now IPC :1.81191: AVG IPC :0.62313: L2-Pf-HR :0.84598: L2-HR :0.79167: (Sim:2h55m12s) 
CPU  3 inst:   95000002 cyc:  148636169 now IPC :1.54399: AVG IPC :0.62989: L2-Pf-HR :0.84625: L2-HR :0.79208: (Sim:2h55m12s) 
CPU  2 inst:   98000004 cyc:  148714167 now IPC :1.90234: AVG IPC :0.64986: L2-Pf-HR :0.84503: L2-HR :0.79513: (Sim:2h55m18s) 
CPU  0 inst:  100000005 cyc:  148764515 now IPC :1.52706: AVG IPC :0.66317: L2-Pf-HR :0.84405: L2-HR :0.79941: (Sim:2h55m23s) 
Finished CPU 0 instr: 98000003 cyc: 147774436 AVG IPC: 0.66317 (Sim time: 2h55m23s)
CPU  1 inst:   95000005 cyc:  149284162 now IPC :1.53178: AVG IPC :0.62713: L2-Pf-HR :0.84648: L2-HR :0.79249: (Sim:2h56m7s) 
CPU  3 inst:   96000005 cyc:  149330864 now IPC :1.43948: AVG IPC :0.63368: L2-Pf-HR :0.84687: L2-HR :0.79313: (Sim:2h56m11s) 
CPU  2 inst:   99000003 cyc:  149408478 now IPC :1.44028: AVG IPC :0.65356: L2-Pf-HR :0.84554: L2-HR :0.79592: (Sim:2h56m18s) 
CPU  0 inst:  101000001 cyc:  149412775 now IPC :1.54258: AVG IPC :0.66701: L2-Pf-HR :0.84465: L2-HR :0.80025: (Sim:2h56m19s) 
CPU  1 inst:   96000000 cyc:  149970608 now IPC :1.45677: AVG IPC :0.63096: L2-Pf-HR :0.84705: L2-HR :0.79352: (Sim:2h57m3s) 
CPU  0 inst:  102000005 cyc:  149993864 now IPC :1.72091: AVG IPC :0.67112: L2-Pf-HR :0.84555: L2-HR :0.80112: (Sim:2h57m5s) 
CPU  3 inst:   97000002 cyc:  150041091 now IPC :1.40800: AVG IPC :0.63737: L2-Pf-HR :0.84745: L2-HR :0.79407: (Sim:2h57m9s) 
CPU  2 inst:  100000005 cyc:  150120990 now IPC :1.40349: AVG IPC :0.65714: L2-Pf-HR :0.84602: L2-HR :0.79676: (Sim:2h57m17s) 
Finished CPU 2 instr: 98000000 cyc: 149130488 AVG IPC: 0.65714 (Sim time: 2h57m17s)
CPU  3 inst:   98000004 cyc:  150582361 now IPC :1.84751: AVG IPC :0.64175: L2-Pf-HR :0.84867: L2-HR :0.79526: (Sim:2h57m57s) 
CPU  1 inst:   97000002 cyc:  150612954 now IPC :1.55680: AVG IPC :0.63493: L2-Pf-HR :0.84760: L2-HR :0.79448: (Sim:2h57m59s) 
CPU  0 inst:  103000002 cyc:  150627646 now IPC :1.57782: AVG IPC :0.67496: L2-Pf-HR :0.84611: L2-HR :0.80199: (Sim:2h58m1s) 
CPU  2 inst:  101000001 cyc:  150800790 now IPC :1.47101: AVG IPC :0.66083: L2-Pf-HR :0.84663: L2-HR :0.79764: (Sim:2h58m14s) 
*** Reached end of trace for Core: 0 Repeating trace: 770-tot_memTraces_v3/memTraces[103000000]_FE_[GPT-Neo_2_7B]_[h32]_[s256]_[d80].champsim.xz
CPU  1 inst:   98000004 cyc:  151164747 now IPC :1.81228: AVG IPC :0.63926: L2-Pf-HR :0.84880: L2-HR :0.79569: (Sim:2h58m46s) 
CPU  3 inst:   99000003 cyc:  151256159 now IPC :1.48412: AVG IPC :0.64553: L2-Pf-HR :0.84912: L2-HR :0.79601: (Sim:2h58m52s) 
CPU  2 inst:  102000005 cyc:  151321320 now IPC :1.92113: AVG IPC :0.66520: L2-Pf-HR :0.84759: L2-HR :0.79858: (Sim:2h58m56s) 
CPU  0 inst:  104000005 cyc:  151785290 now IPC :0.86383: AVG IPC :0.67641: L2-Pf-HR :0.84608: L2-HR :0.80143: (Sim:2h59m26s) 
CPU  1 inst:   99000003 cyc:  151889144 now IPC :1.38046: AVG IPC :0.64282: L2-Pf-HR :0.84918: L2-HR :0.79642: (Sim:2h59m35s) 
CPU  3 inst:  100000002 cyc:  152015041 now IPC :1.31773: AVG IPC :0.64890: L2-Pf-HR :0.84961: L2-HR :0.79694: (Sim:2h59m46s) 
Finished CPU 3 instr: 98000000 cyc: 151023977 AVG IPC: 0.64890 (Sim time: 2h59m46s)
CPU  2 inst:  103000002 cyc:  152074402 now IPC :1.32787: AVG IPC :0.66850: L2-Pf-HR :0.84816: L2-HR :0.79947: (Sim:2h59m51s) 
CPU  0 inst:  105000000 cyc:  152477127 now IPC :1.44542: AVG IPC :0.67992: L2-Pf-HR :0.84709: L2-HR :0.80222: (Sim:3h0m24s) 
CPU  1 inst:  100000005 cyc:  152577082 now IPC :1.45362: AVG IPC :0.64650: L2-Pf-HR :0.84962: L2-HR :0.79731: (Sim:3h0m30s) 
Finished CPU 1 instr: 98000002 cyc: 151586202 AVG IPC: 0.64650 (Sim time: 3h0m30s)

ChampSim completed all CPUs

Total Simulation Statistics (not including warmup)

CPU 0 cumulative IPC: 0.68004 instructions: 103084421 cycles: 151586202
Core_0_L1D_total_access 44465672
Core_0_L1D_total_hit 42281179
Core_0_L1D_total_miss 2184493
Core_0_L1D_loads 22149000
Core_0_L1D_load_hit 21005223
Core_0_L1D_load_miss 1143777
Core_0_L1D_RFOs 2947930
Core_0_L1D_RFO_hit 2817774
Core_0_L1D_RFO_miss 130156
Core_0_L1D_prefetches 19368742
Core_0_L1D_prefetch_hit 18458182
Core_0_L1D_prefetch_miss 910560
Core_0_L1D_writebacks 0
Core_0_L1D_writeback_hit 0
Core_0_L1D_writeback_miss 0

Core_0_L1I_total_access 13269952
Core_0_L1I_total_hit 13259583
Core_0_L1I_total_miss 10369
Core_0_L1I_loads 13269952
Core_0_L1I_load_hit 13259583
Core_0_L1I_load_miss 10369
Core_0_L1I_RFOs 0
Core_0_L1I_RFO_hit 0
Core_0_L1I_RFO_miss 0
Core_0_L1I_prefetches 0
Core_0_L1I_prefetch_hit 0
Core_0_L1I_prefetch_miss 0
Core_0_L1I_writebacks 0
Core_0_L1I_writeback_hit 0
Core_0_L1I_writeback_miss 0

Core_0_L2C_total_access 4235419
Core_0_L2C_total_hit 3398103
Core_0_L2C_total_miss 837316
Core_0_L2C_loads 892407
Core_0_L2C_load_hit 539361
Core_0_L2C_load_miss 353046
Core_0_L2C_RFOs 130115
Core_0_L2C_RFO_hit 29385
Core_0_L2C_RFO_miss 100730
Core_0_L2C_prefetches 2510454
Core_0_L2C_prefetch_hit 2126919
Core_0_L2C_prefetch_miss 383535
Core_0_L2C_writebacks 702443
Core_0_L2C_writeback_hit 702438
Core_0_L2C_writeback_miss 5


Core_0_LLC_total_access 1272903
Core_0_LLC_total_hit 427684
Core_0_LLC_total_miss 845219
Core_0_LLC_loads 220825
Core_0_LLC_load_hit 139
Core_0_LLC_load_miss 220686
Core_0_LLC_RFOs 100714
Core_0_LLC_RFO_hit 315
Core_0_LLC_RFO_miss 100399
Core_0_LLC_prefetches 515770
Core_0_LLC_prefetch_hit 1005
Core_0_LLC_prefetch_miss 514765
Core_0_LLC_writebacks 435594
Core_0_LLC_writeback_hit 426225
Core_0_LLC_writeback_miss 9369


CPU 1 cumulative IPC: 0.64650 instructions: 98000002 cycles: 151586202
Core_1_L1D_total_access 42106149
Core_1_L1D_total_hit 40022820
Core_1_L1D_total_miss 2083329
Core_1_L1D_loads 21183977
Core_1_L1D_load_hit 20099970
Core_1_L1D_load_miss 1084007
Core_1_L1D_RFOs 2881632
Core_1_L1D_RFO_hit 2753551
Core_1_L1D_RFO_miss 128081
Core_1_L1D_prefetches 18040540
Core_1_L1D_prefetch_hit 17169299
Core_1_L1D_prefetch_miss 871241
Core_1_L1D_writebacks 0
Core_1_L1D_writeback_hit 0
Core_1_L1D_writeback_miss 0

Core_1_L1I_total_access 12736033
Core_1_L1I_total_hit 12731258
Core_1_L1I_total_miss 4775
Core_1_L1I_loads 12736033
Core_1_L1I_load_hit 12731258
Core_1_L1I_load_miss 4775
Core_1_L1I_RFOs 0
Core_1_L1I_RFO_hit 0
Core_1_L1I_RFO_miss 0
Core_1_L1I_prefetches 0
Core_1_L1I_prefetch_hit 0
Core_1_L1I_prefetch_miss 0
Core_1_L1I_writebacks 0
Core_1_L1I_writeback_hit 0
Core_1_L1I_writeback_miss 0

Core_1_L2C_total_access 3994260
Core_1_L2C_total_hit 3184668
Core_1_L2C_total_miss 809592
Core_1_L2C_loads 844316
Core_1_L2C_load_hit 488131
Core_1_L2C_load_miss 356185
Core_1_L2C_RFOs 128045
Core_1_L2C_RFO_hit 26892
Core_1_L2C_RFO_miss 101153
Core_1_L2C_prefetches 2342449
Core_1_L2C_prefetch_hit 1990201
Core_1_L2C_prefetch_miss 352248
Core_1_L2C_writebacks 679450
Core_1_L2C_writeback_hit 679444
Core_1_L2C_writeback_miss 6


Core_1_LLC_total_access 1239780
Core_1_LLC_total_hit 427686
Core_1_LLC_total_miss 812094
Core_1_LLC_loads 229720
Core_1_LLC_load_hit 294
Core_1_LLC_load_miss 229426
Core_1_LLC_RFOs 101149
Core_1_LLC_RFO_hit 408
Core_1_LLC_RFO_miss 100741
Core_1_LLC_prefetches 478715
Core_1_LLC_prefetch_hit 1711
Core_1_LLC_prefetch_miss 477004
Core_1_LLC_writebacks 430196
Core_1_LLC_writeback_hit 425273
Core_1_LLC_writeback_miss 4923


CPU 2 cumulative IPC: 0.67077 instructions: 101679021 cycles: 151586202
Core_2_L1D_total_access 43461865
Core_2_L1D_total_hit 41303718
Core_2_L1D_total_miss 2158147
Core_2_L1D_loads 21884172
Core_2_L1D_load_hit 20784017
Core_2_L1D_load_miss 1100155
Core_2_L1D_RFOs 2924524
Core_2_L1D_RFO_hit 2792885
Core_2_L1D_RFO_miss 131639
Core_2_L1D_prefetches 18653169
Core_2_L1D_prefetch_hit 17726816
Core_2_L1D_prefetch_miss 926353
Core_2_L1D_writebacks 0
Core_2_L1D_writeback_hit 0
Core_2_L1D_writeback_miss 0

Core_2_L1I_total_access 13125465
Core_2_L1I_total_hit 13119171
Core_2_L1I_total_miss 6294
Core_2_L1I_loads 13125465
Core_2_L1I_load_hit 13119171
Core_2_L1I_load_miss 6294
Core_2_L1I_RFOs 0
Core_2_L1I_RFO_hit 0
Core_2_L1I_RFO_miss 0
Core_2_L1I_prefetches 0
Core_2_L1I_prefetch_hit 0
Core_2_L1I_prefetch_miss 0
Core_2_L1I_writebacks 0
Core_2_L1I_writeback_hit 0
Core_2_L1I_writeback_miss 0

Core_2_L2C_total_access 4124336
Core_2_L2C_total_hit 3299031
Core_2_L2C_total_miss 825305
Core_2_L2C_loads 846113
Core_2_L2C_load_hit 496532
Core_2_L2C_load_miss 349581
Core_2_L2C_RFOs 131587
Core_2_L2C_RFO_hit 26525
Core_2_L2C_RFO_miss 105062
Core_2_L2C_prefetches 2451806
Core_2_L2C_prefetch_hit 2081149
Core_2_L2C_prefetch_miss 370657
Core_2_L2C_writebacks 694830
Core_2_L2C_writeback_hit 694825
Core_2_L2C_writeback_miss 5


Core_2_LLC_total_access 1257692
Core_2_LLC_total_hit 428106
Core_2_LLC_total_miss 829586
Core_2_LLC_loads 221848
Core_2_LLC_load_hit 155
Core_2_LLC_load_miss 221693
Core_2_LLC_RFOs 105057
Core_2_LLC_RFO_hit 344
Core_2_LLC_RFO_miss 104713
Core_2_LLC_prefetches 498396
Core_2_LLC_prefetch_hit 1075
Core_2_LLC_prefetch_miss 497321
Core_2_LLC_writebacks 432391
Core_2_LLC_writeback_hit 426532
Core_2_LLC_writeback_miss 5859


CPU 3 cumulative IPC: 0.65240 instructions: 98894396 cycles: 151586202
Core_3_L1D_total_access 42414393
Core_3_L1D_total_hit 40313148
Core_3_L1D_total_miss 2101245
Core_3_L1D_loads 21353632
Core_3_L1D_load_hit 20279662
Core_3_L1D_load_miss 1073970
Core_3_L1D_RFOs 2890257
Core_3_L1D_RFO_hit 2761964
Core_3_L1D_RFO_miss 128293
Core_3_L1D_prefetches 18170504
Core_3_L1D_prefetch_hit 17271522
Core_3_L1D_prefetch_miss 898982
Core_3_L1D_writebacks 0
Core_3_L1D_writeback_hit 0
Core_3_L1D_writeback_miss 0

Core_3_L1I_total_access 12829725
Core_3_L1I_total_hit 12824951
Core_3_L1I_total_miss 4774
Core_3_L1I_loads 12829725
Core_3_L1I_load_hit 12824951
Core_3_L1I_load_miss 4774
Core_3_L1I_RFOs 0
Core_3_L1I_RFO_hit 0
Core_3_L1I_RFO_miss 0
Core_3_L1I_prefetches 0
Core_3_L1I_prefetch_hit 0
Core_3_L1I_prefetch_miss 0
Core_3_L1I_writebacks 0
Core_3_L1I_writeback_hit 0
Core_3_L1I_writeback_miss 0

Core_3_L2C_total_access 4019822
Core_3_L2C_total_hit 3207888
Core_3_L2C_total_miss 811934
Core_3_L2C_loads 826356
Core_3_L2C_load_hit 471768
Core_3_L2C_load_miss 354588
Core_3_L2C_RFOs 128247
Core_3_L2C_RFO_hit 26938
Core_3_L2C_RFO_miss 101309
Core_3_L2C_prefetches 2382874
Core_3_L2C_prefetch_hit 2026842
Core_3_L2C_prefetch_miss 356032
Core_3_L2C_writebacks 682345
Core_3_L2C_writeback_hit 682340
Core_3_L2C_writeback_miss 5


Core_3_LLC_total_access 1241645
Core_3_LLC_total_hit 423689
Core_3_LLC_total_miss 817956
Core_3_LLC_loads 228763
Core_3_LLC_load_hit 214
Core_3_LLC_load_miss 228549
Core_3_LLC_RFOs 101305
Core_3_LLC_RFO_hit 687
Core_3_LLC_RFO_miss 100618
Core_3_LLC_prefetches 481861
Core_3_LLC_prefetch_hit 1270
Core_3_LLC_prefetch_miss 480591
Core_3_LLC_writebacks 429716
Core_3_LLC_writeback_hit 421518
Core_3_LLC_writeback_miss 8198


[ROI Statistics]
Core_0_instructions 98000003
Core_0_cycles 147774436
Core_0_IPC 0.66317

Core_0_branch_prediction_accuracy 98.29763
Core_0_branch_MPKI 0.50827
Core_0_average_ROB_occupancy_at_mispredict 435.45649

Core_0_L1D_total_access 42388638
Core_0_L1D_total_hit 40305479 L1D_total_Hit Ratio: 0.95086
Core_0_L1D_total_miss 2083159
Core_0_L1D_loads 21183565
Core_0_L1D_load_hit 20093108 L1D_load_Hit Ratio: 0.94852
Core_0_L1D_load_miss 1090457
Core_0_L1D_RFOs 2881203
Core_0_L1D_RFO_hit 2752823 L1D_RFO_Hit Ratio: 0.95544
Core_0_L1D_RFO_miss 128380
Core_0_L1D_prefetches 18323870
Core_0_L1D_prefetch_hit 17459548 L1D_prefetch_Hit Ratio: 0.95283
Core_0_L1D_prefetch_miss 864322
Core_0_L1D_writebacks 0
Core_0_L1D_writeback_hit 0 L1D_writeback_Hit Ratio: -nan
Core_0_L1D_writeback_miss 0
Core_0_L1D_prefetch_requested 42019711
Core_0_L1D_prefetch_issued 30022716
Core_0_L1D_prefetch_useful 912602 L1D_Useful Ratio: 0.03040
Core_0_L1D_prefetch_useless 15488
Core_0_L1D_prefetch_late 261910
Core_0_L1D_average_miss_latency 12264616.27627

Core_0_L1I_total_access 12722198
Core_0_L1I_total_hit 12717420 L1I_total_Hit Ratio: 0.99962
Core_0_L1I_total_miss 4778
Core_0_L1I_loads 12722198
Core_0_L1I_load_hit 12717420 L1I_load_Hit Ratio: 0.99962
Core_0_L1I_load_miss 4778
Core_0_L1I_RFOs 0
Core_0_L1I_RFO_hit 0 L1I_RFO_Hit Ratio: -nan
Core_0_L1I_RFO_miss 0
Core_0_L1I_prefetches 0
Core_0_L1I_prefetch_hit 0 L1I_prefetch_Hit Ratio: -nan
Core_0_L1I_prefetch_miss 0
Core_0_L1I_writebacks 0
Core_0_L1I_writeback_hit 0 L1I_writeback_Hit Ratio: -nan
Core_0_L1I_writeback_miss 0
Core_0_L1I_prefetch_requested 0
Core_0_L1I_prefetch_issued 0
Core_0_L1I_prefetch_useful 0 L1I_Useful Ratio: -nan
Core_0_L1I_prefetch_useless 0
Core_0_L1I_prefetch_late 0
Core_0_L1I_average_miss_latency 1113.63792

Core_0_L2C_total_access 4028967
Core_0_L2C_total_hit 3220784 L2C_total_Hit Ratio: 0.79941
Core_0_L2C_total_miss 808183
Core_0_L2C_loads 845654
Core_0_L2C_load_hit 508384 L2C_load_Hit Ratio: 0.60117
Core_0_L2C_load_miss 337270
Core_0_L2C_RFOs 128345
Core_0_L2C_RFO_hit 27838 L2C_RFO_Hit Ratio: 0.21690
Core_0_L2C_RFO_miss 100507
Core_0_L2C_prefetches 2375160
Core_0_L2C_prefetch_hit 2004759 L2C_prefetch_Hit Ratio: 0.84405
Core_0_L2C_prefetch_miss 370401
Core_0_L2C_writebacks 679808
Core_0_L2C_writeback_hit 679803 L2C_writeback_Hit Ratio: 0.99999
Core_0_L2C_writeback_miss 5
Core_0_L2C_prefetch_requested 2883219
Core_0_L2C_prefetch_issued 2878536
Core_0_L2C_prefetch_useful 74320 L2C_Useful Ratio: 0.02582
Core_0_L2C_prefetch_useless 313178
Core_0_L2C_prefetch_late 132800
Core_0_L2C_average_miss_latency 799.12273

Core_0_LLC_total_access 1237629
Core_0_LLC_total_hit 423045 LLC_total_Hit Ratio: 0.34182
Core_0_LLC_total_miss 814584
Core_0_LLC_loads 208999
Core_0_LLC_load_hit 114 LLC_load_Hit Ratio: 0.00055
Core_0_LLC_load_miss 208885
Core_0_LLC_RFOs 100491
Core_0_LLC_RFO_hit 147 LLC_RFO_Hit Ratio: 0.00146
Core_0_LLC_RFO_miss 100344
Core_0_LLC_prefetches 498686
Core_0_LLC_prefetch_hit 710 LLC_prefetch_Hit Ratio: 0.00142
Core_0_LLC_prefetch_miss 497976
Core_0_LLC_writebacks 429453
Core_0_LLC_writeback_hit 422074 LLC_writeback_Hit Ratio: 0.98282
Core_0_LLC_writeback_miss 7379
Core_0_LLC_prefetch_requested 0
Core_0_LLC_prefetch_issued 0
Core_0_LLC_prefetch_useful 179 LLC_Useful Ratio: inf
Core_0_LLC_prefetch_useless 1868028
Core_0_LLC_prefetch_late 0
Core_0_LLC_average_miss_latency 3130.69119

Core_0_major_page_fault 0
Core_0_minor_page_fault 7748

Core_1_instructions 98000002
Core_1_cycles 151586202
Core_1_IPC 0.64650

Core_1_branch_prediction_accuracy 98.32534
Core_1_branch_MPKI 0.51240
Core_1_average_ROB_occupancy_at_mispredict 435.58690

Core_1_L1D_total_access 42106149
Core_1_L1D_total_hit 40022820 L1D_total_Hit Ratio: 0.95052
Core_1_L1D_total_miss 2083329
Core_1_L1D_loads 21183977
Core_1_L1D_load_hit 20099970 L1D_load_Hit Ratio: 0.94883
Core_1_L1D_load_miss 1084007
Core_1_L1D_RFOs 2881632
Core_1_L1D_RFO_hit 2753551 L1D_RFO_Hit Ratio: 0.95555
Core_1_L1D_RFO_miss 128081
Core_1_L1D_prefetches 18040540
Core_1_L1D_prefetch_hit 17169299 L1D_prefetch_Hit Ratio: 0.95171
Core_1_L1D_prefetch_miss 871241
Core_1_L1D_writebacks 0
Core_1_L1D_writeback_hit 0 L1D_writeback_Hit Ratio: -nan
Core_1_L1D_writeback_miss 0
Core_1_L1D_prefetch_requested 39707492
Core_1_L1D_prefetch_issued 27790334
Core_1_L1D_prefetch_useful 873727 L1D_Useful Ratio: 0.03144
Core_1_L1D_prefetch_useless 15146
Core_1_L1D_prefetch_late 244541
Core_1_L1D_average_miss_latency 11465988.86570

Core_1_L1I_total_access 12736033
Core_1_L1I_total_hit 12731258 L1I_total_Hit Ratio: 0.99963
Core_1_L1I_total_miss 4775
Core_1_L1I_loads 12736033
Core_1_L1I_load_hit 12731258 L1I_load_Hit Ratio: 0.99963
Core_1_L1I_load_miss 4775
Core_1_L1I_RFOs 0
Core_1_L1I_RFO_hit 0 L1I_RFO_Hit Ratio: -nan
Core_1_L1I_RFO_miss 0
Core_1_L1I_prefetches 0
Core_1_L1I_prefetch_hit 0 L1I_prefetch_Hit Ratio: -nan
Core_1_L1I_prefetch_miss 0
Core_1_L1I_writebacks 0
Core_1_L1I_writeback_hit 0 L1I_writeback_Hit Ratio: -nan
Core_1_L1I_writeback_miss 0
Core_1_L1I_prefetch_requested 0
Core_1_L1I_prefetch_issued 0
Core_1_L1I_prefetch_useful 0 L1I_Useful Ratio: -nan
Core_1_L1I_prefetch_useless 0
Core_1_L1I_prefetch_late 0
Core_1_L1I_average_miss_latency 978.47225

Core_1_L2C_total_access 3994260
Core_1_L2C_total_hit 3184668 L2C_total_Hit Ratio: 0.79731
Core_1_L2C_total_miss 809592
Core_1_L2C_loads 844316
Core_1_L2C_load_hit 488131 L2C_load_Hit Ratio: 0.57814
Core_1_L2C_load_miss 356185
Core_1_L2C_RFOs 128045
Core_1_L2C_RFO_hit 26892 L2C_RFO_Hit Ratio: 0.21002
Core_1_L2C_RFO_miss 101153
Core_1_L2C_prefetches 2342449
Core_1_L2C_prefetch_hit 1990201 L2C_prefetch_Hit Ratio: 0.84962
Core_1_L2C_prefetch_miss 352248
Core_1_L2C_writebacks 679450
Core_1_L2C_writeback_hit 679444 L2C_writeback_Hit Ratio: 0.99999
Core_1_L2C_writeback_miss 6
Core_1_L2C_prefetch_requested 2640079
Core_1_L2C_prefetch_issued 2636136
Core_1_L2C_prefetch_useful 50853 L2C_Useful Ratio: 0.01929
Core_1_L2C_prefetch_useless 301350
Core_1_L2C_prefetch_late 127118
Core_1_L2C_average_miss_latency 812.05677

Core_1_LLC_total_access 1239780
Core_1_LLC_total_hit 427686 LLC_total_Hit Ratio: 0.34497
Core_1_LLC_total_miss 812094
Core_1_LLC_loads 229720
Core_1_LLC_load_hit 294 LLC_load_Hit Ratio: 0.00128
Core_1_LLC_load_miss 229426
Core_1_LLC_RFOs 101149
Core_1_LLC_RFO_hit 408 LLC_RFO_Hit Ratio: 0.00403
Core_1_LLC_RFO_miss 100741
Core_1_LLC_prefetches 478715
Core_1_LLC_prefetch_hit 1711 LLC_prefetch_Hit Ratio: 0.00357
Core_1_LLC_prefetch_miss 477004
Core_1_LLC_writebacks 430196
Core_1_LLC_writeback_hit 425273 LLC_writeback_Hit Ratio: 0.98856
Core_1_LLC_writeback_miss 4923
Core_1_LLC_prefetch_requested 0
Core_1_LLC_prefetch_issued 0
Core_1_LLC_prefetch_useful 179 LLC_Useful Ratio: inf
Core_1_LLC_prefetch_useless 1868028
Core_1_LLC_prefetch_late 0
Core_1_LLC_average_miss_latency 3140.29035

Core_1_major_page_fault 0
Core_1_minor_page_fault 7592

Core_2_instructions 98000000
Core_2_cycles 149130488
Core_2_IPC 0.65714

Core_2_branch_prediction_accuracy 98.30790
Core_2_branch_MPKI 0.50852
Core_2_average_ROB_occupancy_at_mispredict 439.44790

Core_2_L1D_total_access 41943235
Core_2_L1D_total_hit 39860438 L1D_total_Hit Ratio: 0.95034
Core_2_L1D_total_miss 2082797
Core_2_L1D_loads 21179483
Core_2_L1D_load_hit 20116491 L1D_load_Hit Ratio: 0.94981
Core_2_L1D_load_miss 1062992
Core_2_L1D_RFOs 2878924
Core_2_L1D_RFO_hit 2748929 L1D_RFO_Hit Ratio: 0.95485
Core_2_L1D_RFO_miss 129995
Core_2_L1D_prefetches 17884828
Core_2_L1D_prefetch_hit 16995018 L1D_prefetch_Hit Ratio: 0.95025
Core_2_L1D_prefetch_miss 889810
Core_2_L1D_writebacks 0
Core_2_L1D_writeback_hit 0 L1D_writeback_Hit Ratio: -nan
Core_2_L1D_writeback_miss 0
Core_2_L1D_prefetch_requested 40487400
Core_2_L1D_prefetch_issued 29485971
Core_2_L1D_prefetch_useful 928773 L1D_Useful Ratio: 0.03150
Core_2_L1D_prefetch_useless 15073
Core_2_L1D_prefetch_late 260428
Core_2_L1D_average_miss_latency 12270304.11048

Core_2_L1I_total_access 12732682
Core_2_L1I_total_hit 12727907 L1I_total_Hit Ratio: 0.99962
Core_2_L1I_total_miss 4775
Core_2_L1I_loads 12732682
Core_2_L1I_load_hit 12727907 L1I_load_Hit Ratio: 0.99962
Core_2_L1I_load_miss 4775
Core_2_L1I_RFOs 0
Core_2_L1I_RFO_hit 0 L1I_RFO_Hit Ratio: -nan
Core_2_L1I_RFO_miss 0
Core_2_L1I_prefetches 0
Core_2_L1I_prefetch_hit 0 L1I_prefetch_Hit Ratio: -nan
Core_2_L1I_prefetch_miss 0
Core_2_L1I_writebacks 0
Core_2_L1I_writeback_hit 0 L1I_writeback_Hit Ratio: -nan
Core_2_L1I_writeback_miss 0
Core_2_L1I_prefetch_requested 0
Core_2_L1I_prefetch_issued 0
Core_2_L1I_prefetch_useful 0 L1I_Useful Ratio: -nan
Core_2_L1I_prefetch_useless 0
Core_2_L1I_prefetch_late 0
Core_2_L1I_average_miss_latency 1148.53424

Core_2_L2C_total_access 3977393
Core_2_L2C_total_hit 3169024 L2C_total_Hit Ratio: 0.79676
Core_2_L2C_total_miss 808369
Core_2_L2C_loads 817563
Core_2_L2C_load_hit 476181 L2C_load_Hit Ratio: 0.58244
Core_2_L2C_load_miss 341382
Core_2_L2C_RFOs 129949
Core_2_L2C_RFO_hit 24911 L2C_RFO_Hit Ratio: 0.19170
Core_2_L2C_RFO_miss 105038
Core_2_L2C_prefetches 2350633
Core_2_L2C_prefetch_hit 1988689 L2C_prefetch_Hit Ratio: 0.84602
Core_2_L2C_prefetch_miss 361944
Core_2_L2C_writebacks 679248
Core_2_L2C_writeback_hit 679243 L2C_writeback_Hit Ratio: 0.99999
Core_2_L2C_writeback_miss 5
Core_2_L2C_prefetch_requested 2740820
Core_2_L2C_prefetch_issued 2735721
Core_2_L2C_prefetch_useful 66464 L2C_Useful Ratio: 0.02429
Core_2_L2C_prefetch_useless 305316
Core_2_L2C_prefetch_late 128437
Core_2_L2C_average_miss_latency 805.02444

Core_2_LLC_total_access 1238169
Core_2_LLC_total_hit 425226 LLC_total_Hit Ratio: 0.34343
Core_2_LLC_total_miss 812943
Core_2_LLC_loads 216091
Core_2_LLC_load_hit 97 LLC_load_Hit Ratio: 0.00045
Core_2_LLC_load_miss 215994
Core_2_LLC_RFOs 105033
Core_2_LLC_RFO_hit 338 LLC_RFO_Hit Ratio: 0.00322
Core_2_LLC_RFO_miss 104695
Core_2_LLC_prefetches 487240
Core_2_LLC_prefetch_hit 837 LLC_prefetch_Hit Ratio: 0.00172
Core_2_LLC_prefetch_miss 486403
Core_2_LLC_writebacks 429805
Core_2_LLC_writeback_hit 423954 LLC_writeback_Hit Ratio: 0.98639
Core_2_LLC_writeback_miss 5851
Core_2_LLC_prefetch_requested 0
Core_2_LLC_prefetch_issued 0
Core_2_LLC_prefetch_useful 179 LLC_Useful Ratio: inf
Core_2_LLC_prefetch_useless 1868028
Core_2_LLC_prefetch_late 0
Core_2_LLC_average_miss_latency 3137.01078

Core_2_major_page_fault 0
Core_2_minor_page_fault 7730

Core_3_instructions 98000000
Core_3_cycles 151023977
Core_3_IPC 0.64890

Core_3_branch_prediction_accuracy 98.32222
Core_3_branch_MPKI 0.51113
Core_3_average_ROB_occupancy_at_mispredict 436.77287

Core_3_L1D_total_access 42034515
Core_3_L1D_total_hit 39950858 L1D_total_Hit Ratio: 0.95043
Core_3_L1D_total_miss 2083657
Core_3_L1D_loads 21179189
Core_3_L1D_load_hit 20113253 L1D_load_Hit Ratio: 0.94967
Core_3_L1D_load_miss 1065936
Core_3_L1D_RFOs 2881666
Core_3_L1D_RFO_hit 2753547 L1D_RFO_Hit Ratio: 0.95554
Core_3_L1D_RFO_miss 128119
Core_3_L1D_prefetches 17973660
Core_3_L1D_prefetch_hit 17084058 L1D_prefetch_Hit Ratio: 0.95051
Core_3_L1D_prefetch_miss 889602
Core_3_L1D_writebacks 0
Core_3_L1D_writeback_hit 0 L1D_writeback_Hit Ratio: -nan
Core_3_L1D_writeback_miss 0
Core_3_L1D_prefetch_requested 39478450
Core_3_L1D_prefetch_issued 28646953
Core_3_L1D_prefetch_useful 900946 L1D_Useful Ratio: 0.03145
Core_3_L1D_prefetch_useless 15608
Core_3_L1D_prefetch_late 252483
Core_3_L1D_average_miss_latency 11942723.58127

Core_3_L1I_total_access 12733706
Core_3_L1I_total_hit 12728932 L1I_total_Hit Ratio: 0.99963
Core_3_L1I_total_miss 4774
Core_3_L1I_loads 12733706
Core_3_L1I_load_hit 12728932 L1I_load_Hit Ratio: 0.99963
Core_3_L1I_load_miss 4774
Core_3_L1I_RFOs 0
Core_3_L1I_RFO_hit 0 L1I_RFO_Hit Ratio: -nan
Core_3_L1I_RFO_miss 0
Core_3_L1I_prefetches 0
Core_3_L1I_prefetch_hit 0 L1I_prefetch_Hit Ratio: -nan
Core_3_L1I_prefetch_miss 0
Core_3_L1I_writebacks 0
Core_3_L1I_writeback_hit 0 L1I_writeback_Hit Ratio: -nan
Core_3_L1I_writeback_miss 0
Core_3_L1I_prefetch_requested 0
Core_3_L1I_prefetch_issued 0
Core_3_L1I_prefetch_useful 0 L1I_Useful Ratio: -nan
Core_3_L1I_prefetch_useless 0
Core_3_L1I_prefetch_late 0
Core_3_L1I_average_miss_latency 1064.85107

Core_3_L2C_total_access 3985972
Core_3_L2C_total_hit 3176575 L2C_total_Hit Ratio: 0.79694
Core_3_L2C_total_miss 809397
Core_3_L2C_loads 820451
Core_3_L2C_load_hit 466989 L2C_load_Hit Ratio: 0.56919
Core_3_L2C_load_miss 353462
Core_3_L2C_RFOs 128073
Core_3_L2C_RFO_hit 26764 L2C_RFO_Hit Ratio: 0.20897
Core_3_L2C_RFO_miss 101309
Core_3_L2C_prefetches 2358079
Core_3_L2C_prefetch_hit 2003458 L2C_prefetch_Hit Ratio: 0.84961
Core_3_L2C_prefetch_miss 354621
Core_3_L2C_writebacks 679369
Core_3_L2C_writeback_hit 679364 L2C_writeback_Hit Ratio: 0.99999
Core_3_L2C_writeback_miss 5
Core_3_L2C_prefetch_requested 2665990
Core_3_L2C_prefetch_issued 2660973
Core_3_L2C_prefetch_useful 53174 L2C_Useful Ratio: 0.01998
Core_3_L2C_prefetch_useless 302520
Core_3_L2C_prefetch_late 126582
Core_3_L2C_average_miss_latency 815.91706

Core_3_LLC_total_access 1238392
Core_3_LLC_total_hit 422990 LLC_total_Hit Ratio: 0.34156
Core_3_LLC_total_miss 815402
Core_3_LLC_loads 227927
Core_3_LLC_load_hit 214 LLC_load_Hit Ratio: 0.00094
Core_3_LLC_load_miss 227713
Core_3_LLC_RFOs 101305
Core_3_LLC_RFO_hit 687 LLC_RFO_Hit Ratio: 0.00678
Core_3_LLC_RFO_miss 100618
Core_3_LLC_prefetches 480160
Core_3_LLC_prefetch_hit 1269 LLC_prefetch_Hit Ratio: 0.00264
Core_3_LLC_prefetch_miss 478891
Core_3_LLC_writebacks 429000
Core_3_LLC_writeback_hit 420820 LLC_writeback_Hit Ratio: 0.98093
Core_3_LLC_writeback_miss 8180
Core_3_LLC_prefetch_requested 0
Core_3_LLC_prefetch_issued 0
Core_3_LLC_prefetch_useful 179 LLC_Useful Ratio: inf
Core_3_LLC_prefetch_useless 1868028
Core_3_LLC_prefetch_late 0
Core_3_LLC_average_miss_latency 3127.55052

Core_3_major_page_fault 0
Core_3_minor_page_fault 7594





Channel_0_RQ_row_buffer_hit 1418990
Channel_0_RQ_row_buffer_miss 1857519
Channel_0_WQ_row_buffer_hit 563741
Channel_0_WQ_row_buffer_miss 1142846
Channel_0_WQ_full 668
Channel_0_dbus_congested 3546730

avg_congested_cycle 11

EzSearch AVG IPC :0.66317: L2-Pf-HR :0.84405 : L2-HR :0.80231 Uful:0.02582
EzSearch AVG IPC :0.64650: L2-Pf-HR :0.84962 : L2-HR :0.79731 Uful:0.01929
EzSearch AVG IPC :0.65714: L2-Pf-HR :0.84602 : L2-HR :0.79989 Uful:0.02429
EzSearch AVG IPC :0.64890: L2-Pf-HR :0.84961 : L2-HR :0.79802 Uful:0.01998
     > Finished combination: TraceType=770-tot Sim:98000000 Prefetcher=L2ipcp L1=ipcp
