TRACE: [83000000][Pythia-70M]_[h8][s512][d64] Warmup: 2000000 NumTraces: 83000000
L1:ipcp:L2:ipcp
*************************************************
   ChampSim Multicore Out-of-Order Simulator
   Last compiled: Oct 28 2024 06:09:22
*************************************************

trace_0 770-tot_memTraces_v3/memTraces[83000000][Pythia-70M]_[h8][s512][d64].champsim.xz
trace_1 770-tot_memTraces_v3/memTraces[83000000][Pythia-70M]_[h8][s512][d64].champsim.xz
trace_2 770-tot_memTraces_v3/memTraces[83000000][Pythia-70M]_[h8][s512][d64].champsim.xz
trace_3 770-tot_memTraces_v3/memTraces[83000000][Pythia-70M]_[h8][s512][d64].champsim.xz
MAIN.cc ln 751 stats print skipped
CPU  0 inst:    1000003 cyc:     500645 now IPC :1.99743: AVG IPC :1.99743: L2-Pf-HR :0.80582: L2-HR :0.75847: (Sim:0h1m35s) 
CPU  1 inst:    1000003 cyc:     500838 now IPC :1.99666: AVG IPC :1.99666: L2-Pf-HR :0.80832: L2-HR :0.75306: (Sim:0h1m35s) 
CPU  3 inst:    1000003 cyc:     500950 now IPC :1.99621: AVG IPC :1.99621: L2-Pf-HR :0.82247: L2-HR :0.74838: (Sim:0h1m35s) 
CPU  2 inst:    1000003 cyc:     500963 now IPC :1.99616: AVG IPC :1.99616: L2-Pf-HR :0.81961: L2-HR :0.75789: (Sim:0h1m35s) 
CPU  0 inst:    2000001 cyc:     983792 now IPC :2.06976: AVG IPC :2.03295: L2-Pf-HR :0.85874: L2-HR :0.80493: (Sim:0h3m18s) 
CPU  1 inst:    2000001 cyc:     983943 now IPC :2.06994: AVG IPC :2.03264: L2-Pf-HR :0.86471: L2-HR :0.79834: (Sim:0h3m18s) 
CPU  3 inst:    2000001 cyc:     983997 now IPC :2.07019: AVG IPC :2.03253: L2-Pf-HR :0.87791: L2-HR :0.79410: (Sim:0h3m18s) 
CPU  2 inst:    2000001 cyc:     984084 now IPC :2.06987: AVG IPC :2.03235: L2-Pf-HR :0.87624: L2-HR :0.80587: (Sim:0h3m18s) 

Warmup complete CPU  0 instructions:    2000590 cycles:     984084 (Simulation time: 0 hr 3 min 18 sec) 
Warmup complete CPU  1 instructions:    2000282 cycles:     984084 (Simulation time: 0 hr 3 min 18 sec) 
Warmup complete CPU  2 instructions:    2000001 cycles:     984084 (Simulation time: 0 hr 3 min 18 sec) 
Warmup complete CPU  3 instructions:    2000257 cycles:     984083 (Simulation time: 0 hr 3 min 18 sec) 

CPU  0 inst:    3000004 cyc:    1720917 now IPC :1.35663: AVG IPC :1.35636: L2-Pf-HR :0.93366: L2-HR :0.84756: (Sim:0h4m53s) 
CPU  3 inst:    3000004 cyc:    1722091 now IPC :1.35485: AVG IPC :1.35466: L2-Pf-HR :0.93943: L2-HR :0.83478: (Sim:0h4m53s) 
CPU  1 inst:    3000004 cyc:    1722556 now IPC :1.35389: AVG IPC :1.35377: L2-Pf-HR :0.93991: L2-HR :0.83838: (Sim:0h4m53s) 
CPU  2 inst:    3000004 cyc:    1722750 now IPC :1.35380: AVG IPC :1.35380: L2-Pf-HR :0.93085: L2-HR :0.85169: (Sim:0h4m53s) 
CPU  1 inst:    4000005 cyc:    2442786 now IPC :1.38845: AVG IPC :1.37089: L2-Pf-HR :0.92669: L2-HR :0.82683: (Sim:0h6m27s) 
CPU  2 inst:    4000005 cyc:    2442939 now IPC :1.38853: AVG IPC :1.37094: L2-Pf-HR :0.92424: L2-HR :0.84155: (Sim:0h6m27s) 
CPU  0 inst:    4000005 cyc:    2443396 now IPC :1.38412: AVG IPC :1.37011: L2-Pf-HR :0.91228: L2-HR :0.82549: (Sim:0h6m27s) 
CPU  3 inst:    4000005 cyc:    2446212 now IPC :1.38099: AVG IPC :1.36770: L2-Pf-HR :0.94059: L2-HR :0.83227: (Sim:0h6m28s) 
CPU  2 inst:    5000000 cyc:    3253136 now IPC :1.23426: AVG IPC :1.32214: L2-Pf-HR :0.92405: L2-HR :0.83933: (Sim:0h8m5s) 
CPU  0 inst:    5000000 cyc:    3253289 now IPC :1.23472: AVG IPC :1.32179: L2-Pf-HR :0.91386: L2-HR :0.82530: (Sim:0h8m5s) 
CPU  1 inst:    5000003 cyc:    3255840 now IPC :1.22993: AVG IPC :1.32044: L2-Pf-HR :0.92955: L2-HR :0.82899: (Sim:0h8m6s) 
CPU  3 inst:    5000000 cyc:    3259693 now IPC :1.22928: AVG IPC :1.31821: L2-Pf-HR :0.93991: L2-HR :0.83280: (Sim:0h8m6s) 
CPU  2 inst:    6000001 cyc:    4006478 now IPC :1.32742: AVG IPC :1.32345: L2-Pf-HR :0.92901: L2-HR :0.84204: (Sim:0h9m42s) 
CPU  0 inst:    6000003 cyc:    4006675 now IPC :1.32734: AVG IPC :1.32317: L2-Pf-HR :0.92367: L2-HR :0.83136: (Sim:0h9m42s) 
CPU  1 inst:    6000001 cyc:    4019860 now IPC :1.30886: AVG IPC :1.31753: L2-Pf-HR :0.94133: L2-HR :0.83830: (Sim:0h9m43s) 
CPU  3 inst:    6000003 cyc:    4023840 now IPC :1.30865: AVG IPC :1.31581: L2-Pf-HR :0.94602: L2-HR :0.83650: (Sim:0h9m44s) 
CPU  0 inst:    7000002 cyc:    4756364 now IPC :1.33389: AVG IPC :1.32530: L2-Pf-HR :0.92889: L2-HR :0.83347: (Sim:0h11m8s) 
CPU  2 inst:    7000002 cyc:    4756517 now IPC :1.33327: AVG IPC :1.32540: L2-Pf-HR :0.92983: L2-HR :0.84103: (Sim:0h11m8s) 
CPU  1 inst:    7000002 cyc:    4780004 now IPC :1.31554: AVG IPC :1.31713: L2-Pf-HR :0.94610: L2-HR :0.84136: (Sim:0h11m10s) 
CPU  3 inst:    7000002 cyc:    4781819 now IPC :1.31930: AVG IPC :1.31651: L2-Pf-HR :0.94939: L2-HR :0.83710: (Sim:0h11m10s) 
CPU  0 inst:    8000001 cyc:    5439973 now IPC :1.46282: AVG IPC :1.34640: L2-Pf-HR :0.92770: L2-HR :0.83100: (Sim:0h11m59s) 
CPU  2 inst:    8000001 cyc:    5440404 now IPC :1.46223: AVG IPC :1.34640: L2-Pf-HR :0.92470: L2-HR :0.83758: (Sim:0h11m59s) 
CPU  1 inst:    8000001 cyc:    5486425 now IPC :1.41559: AVG IPC :1.33258: L2-Pf-HR :0.94356: L2-HR :0.83889: (Sim:0h12m3s) 
CPU  3 inst:    8000001 cyc:    5500178 now IPC :1.39206: AVG IPC :1.32852: L2-Pf-HR :0.94412: L2-HR :0.83279: (Sim:0h12m4s) 
CPU  0 inst:    9000003 cyc:    6438561 now IPC :1.00142: AVG IPC :1.28324: L2-Pf-HR :0.92758: L2-HR :0.83347: (Sim:0h12m58s) 
CPU  2 inst:    9000003 cyc:    6473383 now IPC :0.96808: AVG IPC :1.27521: L2-Pf-HR :0.92113: L2-HR :0.83535: (Sim:0h13m0s) 
CPU  1 inst:    9000003 cyc:    6559478 now IPC :0.93192: AVG IPC :1.25547: L2-Pf-HR :0.94295: L2-HR :0.83905: (Sim:0h13m4s) 
CPU  3 inst:    9000003 cyc:    6577353 now IPC :0.92836: AVG IPC :1.25146: L2-Pf-HR :0.94260: L2-HR :0.83340: (Sim:0h13m5s) 
CPU  0 inst:   10000002 cyc:    7364467 now IPC :1.08002: AVG IPC :1.25375: L2-Pf-HR :0.93096: L2-HR :0.83957: (Sim:0h13m52s) 
CPU  2 inst:   10000002 cyc:    7463977 now IPC :1.00949: AVG IPC :1.23459: L2-Pf-HR :0.92394: L2-HR :0.83973: (Sim:0h13m58s) 
CPU  1 inst:   10000002 cyc:    7616971 now IPC :0.94563: AVG IPC :1.20607: L2-Pf-HR :0.94642: L2-HR :0.84277: (Sim:0h14m8s) 
CPU  3 inst:   10000002 cyc:    7637105 now IPC :0.94362: AVG IPC :1.20242: L2-Pf-HR :0.94539: L2-HR :0.83774: (Sim:0h14m9s) 
CPU  0 inst:   11000003 cyc:    8251621 now IPC :1.12720: AVG IPC :1.23830: L2-Pf-HR :0.93321: L2-HR :0.84278: (Sim:0h14m48s) 
CPU  2 inst:   11000003 cyc:    8347744 now IPC :1.13152: AVG IPC :1.22222: L2-Pf-HR :0.92537: L2-HR :0.84195: (Sim:0h14m53s) 
CPU  1 inst:   11000003 cyc:    8607912 now IPC :1.00914: AVG IPC :1.18047: L2-Pf-HR :0.94775: L2-HR :0.84410: (Sim:0h15m13s) 
CPU  3 inst:   11000003 cyc:    8664814 now IPC :0.97304: AVG IPC :1.17173: L2-Pf-HR :0.94734: L2-HR :0.84005: (Sim:0h15m15s) 
CPU  0 inst:   12000005 cyc:    9262566 now IPC :0.98918: AVG IPC :1.20788: L2-Pf-HR :0.93299: L2-HR :0.84304: (Sim:0h15m49s) 
CPU  2 inst:   12000005 cyc:    9316893 now IPC :1.03184: AVG IPC :1.20008: L2-Pf-HR :0.92360: L2-HR :0.84114: (Sim:0h15m53s) 
CPU  1 inst:   12000005 cyc:    9786773 now IPC :0.84828: AVG IPC :1.13599: L2-Pf-HR :0.94619: L2-HR :0.84327: (Sim:0h16m32s) 
CPU  3 inst:   12000005 cyc:    9861008 now IPC :0.83599: AVG IPC :1.12649: L2-Pf-HR :0.94477: L2-HR :0.83970: (Sim:0h16m38s) 
CPU  0 inst:   13000001 cyc:   10581928 now IPC :0.75794: AVG IPC :1.14603: L2-Pf-HR :0.93179: L2-HR :0.84279: (Sim:0h17m41s) 
CPU  2 inst:   13000002 cyc:   10591477 now IPC :0.78457: AVG IPC :1.14495: L2-Pf-HR :0.92224: L2-HR :0.83963: (Sim:0h17m42s) 
CPU  1 inst:   13000001 cyc:   11102285 now IPC :0.76016: AVG IPC :1.08712: L2-Pf-HR :0.94525: L2-HR :0.84264: (Sim:0h18m31s) 
CPU  3 inst:   13000001 cyc:   11137086 now IPC :0.78365: AVG IPC :1.08340: L2-Pf-HR :0.94366: L2-HR :0.83917: (Sim:0h18m34s) 
CPU  0 inst:   14000005 cyc:   11679226 now IPC :0.91133: AVG IPC :1.12195: L2-Pf-HR :0.93382: L2-HR :0.84495: (Sim:0h19m26s) 
CPU  2 inst:   14000001 cyc:   11707502 now IPC :0.89604: AVG IPC :1.11905: L2-Pf-HR :0.92450: L2-HR :0.84171: (Sim:0h19m29s) 
CPU  1 inst:   14000000 cyc:   12287666 now IPC :0.84361: AVG IPC :1.06159: L2-Pf-HR :0.94746: L2-HR :0.84452: (Sim:0h20m25s) 
CPU  3 inst:   14000001 cyc:   12299040 now IPC :0.86062: AVG IPC :1.06052: L2-Pf-HR :0.94555: L2-HR :0.84120: (Sim:0h20m26s) 
CPU  0 inst:   15000003 cyc:   12762272 now IPC :0.92332: AVG IPC :1.10369: L2-Pf-HR :0.93519: L2-HR :0.84667: (Sim:0h21m10s) 
CPU  2 inst:   15000002 cyc:   12784863 now IPC :0.92819: AVG IPC :1.10162: L2-Pf-HR :0.92620: L2-HR :0.84377: (Sim:0h21m13s) 
CPU  1 inst:   15000003 cyc:   13487754 now IPC :0.83327: AVG IPC :1.03967: L2-Pf-HR :0.94854: L2-HR :0.84619: (Sim:0h21m51s) 
CPU  3 inst:   15000003 cyc:   13564044 now IPC :0.79051: AVG IPC :1.03337: L2-Pf-HR :0.94633: L2-HR :0.84312: (Sim:0h21m54s) 
CPU  0 inst:   16000000 cyc:   14036857 now IPC :0.78457: AVG IPC :1.07252: L2-Pf-HR :0.93474: L2-HR :0.84679: (Sim:0h22m19s) 
CPU  2 inst:   16000000 cyc:   14043924 now IPC :0.79424: AVG IPC :1.07199: L2-Pf-HR :0.92648: L2-HR :0.84430: (Sim:0h22m19s) 
CPU  1 inst:   16000000 cyc:   14722493 now IPC :0.80989: AVG IPC :1.01902: L2-Pf-HR :0.94827: L2-HR :0.84660: (Sim:0h22m55s) 
CPU  3 inst:   16000000 cyc:   14733552 now IPC :0.85506: AVG IPC :1.01820: L2-Pf-HR :0.94443: L2-HR :0.84320: (Sim:0h22m55s) 
CPU  0 inst:   17000000 cyc:   15335907 now IPC :0.76979: AVG IPC :1.04512: L2-Pf-HR :0.93417: L2-HR :0.84531: (Sim:0h23m25s) 
CPU  2 inst:   17000000 cyc:   15398168 now IPC :0.73842: AVG IPC :1.04065: L2-Pf-HR :0.92494: L2-HR :0.84229: (Sim:0h23m28s) 
CPU  3 inst:   17000000 cyc:   16276970 now IPC :0.64791: AVG IPC :0.98083: L2-Pf-HR :0.94317: L2-HR :0.84176: (Sim:0h24m9s) 
CPU  1 inst:   17000000 cyc:   16287129 now IPC :0.63913: AVG IPC :0.98018: L2-Pf-HR :0.94723: L2-HR :0.84505: (Sim:0h24m10s) 
CPU  0 inst:   18000000 cyc:   16744310 now IPC :0.71002: AVG IPC :1.01518: L2-Pf-HR :0.93518: L2-HR :0.84713: (Sim:0h24m32s) 
CPU  2 inst:   18000000 cyc:   16750488 now IPC :0.73947: AVG IPC :1.01482: L2-Pf-HR :0.92678: L2-HR :0.84455: (Sim:0h24m32s) 
CPU  3 inst:   18000000 cyc:   17717898 now IPC :0.69400: AVG IPC :0.95613: L2-Pf-HR :0.94450: L2-HR :0.84338: (Sim:0h25m16s) 
CPU  1 inst:   18000000 cyc:   17861902 now IPC :0.63501: AVG IPC :0.94797: L2-Pf-HR :0.94863: L2-HR :0.84715: (Sim:0h25m23s) 
CPU  2 inst:   19000000 cyc:   18290111 now IPC :0.64951: AVG IPC :0.98232: L2-Pf-HR :0.92807: L2-HR :0.84581: (Sim:0h25m45s) 
CPU  0 inst:   19000000 cyc:   18300382 now IPC :0.64264: AVG IPC :0.98170: L2-Pf-HR :0.93629: L2-HR :0.84802: (Sim:0h25m45s) 
CPU  3 inst:   19000000 cyc:   18749124 now IPC :0.96972: AVG IPC :0.95692: L2-Pf-HR :0.94575: L2-HR :0.84421: (Sim:0h26m9s) 
CPU  1 inst:   19000000 cyc:   19113222 now IPC :0.79916: AVG IPC :0.93770: L2-Pf-HR :0.94959: L2-HR :0.84793: (Sim:0h26m29s) 
CPU  0 inst:   20000000 cyc:   19509683 now IPC :0.82692: AVG IPC :0.97160: L2-Pf-HR :0.93645: L2-HR :0.84874: (Sim:0h26m51s) 
CPU  2 inst:   20000000 cyc:   19546607 now IPC :0.79586: AVG IPC :0.96970: L2-Pf-HR :0.92802: L2-HR :0.84653: (Sim:0h26m53s) 
CPU  3 inst:   20000000 cyc:   19837873 now IPC :0.91849: AVG IPC :0.95470: L2-Pf-HR :0.94548: L2-HR :0.84459: (Sim:0h27m9s) 
CPU  1 inst:   20000000 cyc:   20142940 now IPC :0.97114: AVG IPC :0.93950: L2-Pf-HR :0.94927: L2-HR :0.84839: (Sim:0h27m27s) 
CPU  0 inst:   21000002 cyc:   20812229 now IPC :0.76773: AVG IPC :0.95820: L2-Pf-HR :0.93509: L2-HR :0.84727: (Sim:0h28m0s) 
CPU  2 inst:   21000005 cyc:   20831907 now IPC :0.77803: AVG IPC :0.95728: L2-Pf-HR :0.92712: L2-HR :0.84540: (Sim:0h28m1s) 
CPU  3 inst:   21000002 cyc:   21097361 now IPC :0.79397: AVG IPC :0.94464: L2-Pf-HR :0.94418: L2-HR :0.84330: (Sim:0h28m14s) 
CPU  1 inst:   21000001 cyc:   21385267 now IPC :0.80494: AVG IPC :0.93130: L2-Pf-HR :0.94790: L2-HR :0.84682: (Sim:0h28m32s) 
CPU  0 inst:   22000001 cyc:   21889659 now IPC :0.92813: AVG IPC :0.95665: L2-Pf-HR :0.93587: L2-HR :0.84797: (Sim:0h29m2s) 
CPU  2 inst:   22000001 cyc:   21921681 now IPC :0.91762: AVG IPC :0.95522: L2-Pf-HR :0.92825: L2-HR :0.84654: (Sim:0h29m4s) 
CPU  3 inst:   22000001 cyc:   22061197 now IPC :1.03752: AVG IPC :0.94888: L2-Pf-HR :0.94550: L2-HR :0.84414: (Sim:0h29m12s) 
CPU  1 inst:   22000001 cyc:   22385379 now IPC :0.99989: AVG IPC :0.93451: L2-Pf-HR :0.94900: L2-HR :0.84791: (Sim:0h29m31s) 
CPU  0 inst:   23000004 cyc:   22977725 now IPC :0.91906: AVG IPC :0.95479: L2-Pf-HR :0.93648: L2-HR :0.84860: (Sim:0h30m5s) 
CPU  2 inst:   23000004 cyc:   23038028 now IPC :0.89578: AVG IPC :0.95221: L2-Pf-HR :0.92892: L2-HR :0.84761: (Sim:0h30m8s) 
CPU  3 inst:   23000004 cyc:   23117804 now IPC :0.94643: AVG IPC :0.94877: L2-Pf-HR :0.94620: L2-HR :0.84491: (Sim:0h30m12s) 
CPU  1 inst:   23000004 cyc:   23405939 now IPC :0.97986: AVG IPC :0.93657: L2-Pf-HR :0.94995: L2-HR :0.84885: (Sim:0h30m29s) 
CPU  0 inst:   24000003 cyc:   24049499 now IPC :0.93303: AVG IPC :0.95378: L2-Pf-HR :0.93649: L2-HR :0.84894: (Sim:0h31m6s) 
CPU  2 inst:   24000004 cyc:   24178502 now IPC :0.87683: AVG IPC :0.94850: L2-Pf-HR :0.92888: L2-HR :0.84804: (Sim:0h31m13s) 
CPU  3 inst:   24000004 cyc:   24211949 now IPC :0.91396: AVG IPC :0.94713: L2-Pf-HR :0.94616: L2-HR :0.84510: (Sim:0h31m15s) 
CPU  1 inst:   24000003 cyc:   24437663 now IPC :0.96925: AVG IPC :0.93801: L2-Pf-HR :0.94982: L2-HR :0.84933: (Sim:0h31m29s) 
CPU  0 inst:   25000005 cyc:   25207479 now IPC :0.86357: AVG IPC :0.94947: L2-Pf-HR :0.93504: L2-HR :0.84727: (Sim:0h32m8s) 
CPU  2 inst:   25000005 cyc:   25378610 now IPC :0.83326: AVG IPC :0.94283: L2-Pf-HR :0.92659: L2-HR :0.84568: (Sim:0h32m17s) 
CPU  3 inst:   25000000 cyc:   25512643 now IPC :0.76882: AVG IPC :0.93767: L2-Pf-HR :0.94406: L2-HR :0.84353: (Sim:0h32m23s) 
CPU  1 inst:   25000000 cyc:   25747878 now IPC :0.76323: AVG IPC :0.92876: L2-Pf-HR :0.94846: L2-HR :0.84777: (Sim:0h32m36s) 
CPU  0 inst:   26000002 cyc:   26281547 now IPC :0.93104: AVG IPC :0.94869: L2-Pf-HR :0.93620: L2-HR :0.84889: (Sim:0h33m25s) 
CPU  2 inst:   26000002 cyc:   26504609 now IPC :0.88810: AVG IPC :0.94042: L2-Pf-HR :0.92802: L2-HR :0.84722: (Sim:0h33m49s) 
CPU  3 inst:   26000002 cyc:   26603336 now IPC :0.91685: AVG IPC :0.93679: L2-Pf-HR :0.94483: L2-HR :0.84447: (Sim:0h33m59s) 
CPU  1 inst:   26000002 cyc:   26778460 now IPC :0.97033: AVG IPC :0.93042: L2-Pf-HR :0.94985: L2-HR :0.84911: (Sim:0h34m18s) 
CPU  0 inst:   27000000 cyc:   27258756 now IPC :1.02332: AVG IPC :0.95146: L2-Pf-HR :0.93682: L2-HR :0.85010: (Sim:0h35m7s) 
CPU  2 inst:   27000000 cyc:   27552930 now IPC :0.95390: AVG IPC :0.94095: L2-Pf-HR :0.92934: L2-HR :0.84875: (Sim:0h35m38s) 
CPU  3 inst:   27000005 cyc:   27664847 now IPC :0.94206: AVG IPC :0.93700: L2-Pf-HR :0.94572: L2-HR :0.84524: (Sim:0h35m49s) 
CPU  1 inst:   27000000 cyc:   27817253 now IPC :0.96265: AVG IPC :0.93167: L2-Pf-HR :0.95079: L2-HR :0.85015: (Sim:0h36m5s) 
CPU  0 inst:   28000001 cyc:   28260941 now IPC :0.99782: AVG IPC :0.95317: L2-Pf-HR :0.93749: L2-HR :0.85108: (Sim:0h36m51s) 
CPU  2 inst:   28000001 cyc:   28613859 now IPC :0.94257: AVG IPC :0.94101: L2-Pf-HR :0.92998: L2-HR :0.84976: (Sim:0h37m27s) 
CPU  3 inst:   28000004 cyc:   28755301 now IPC :0.91705: AVG IPC :0.93621: L2-Pf-HR :0.94599: L2-HR :0.84576: (Sim:0h37m41s) 
CPU  1 inst:   28000003 cyc:   28867266 now IPC :0.95237: AVG IPC :0.93245: L2-Pf-HR :0.95090: L2-HR :0.85091: (Sim:0h37m53s) 
CPU  0 inst:   29000002 cyc:   29364642 now IPC :0.90604: AVG IPC :0.95133: L2-Pf-HR :0.93629: L2-HR :0.84949: (Sim:0h38m24s) 
CPU  2 inst:   29000002 cyc:   29809156 now IPC :0.83661: AVG IPC :0.93668: L2-Pf-HR :0.92926: L2-HR :0.84853: (Sim:0h38m46s) 
CPU  3 inst:   29000004 cyc:   29908983 now IPC :0.86679: AVG IPC :0.93344: L2-Pf-HR :0.94523: L2-HR :0.84468: (Sim:0h38m52s) 
CPU  1 inst:   29000002 cyc:   30091498 now IPC :0.81684: AVG IPC :0.92759: L2-Pf-HR :0.94922: L2-HR :0.84910: (Sim:0h39m1s) 
CPU  0 inst:   30000002 cyc:   30476088 now IPC :0.89973: AVG IPC :0.94939: L2-Pf-HR :0.93713: L2-HR :0.85083: (Sim:0h39m24s) 
CPU  2 inst:   30000002 cyc:   30849111 now IPC :0.96158: AVG IPC :0.93755: L2-Pf-HR :0.93022: L2-HR :0.84973: (Sim:0h39m46s) 
CPU  3 inst:   30000002 cyc:   30985875 now IPC :0.92860: AVG IPC :0.93327: L2-Pf-HR :0.94611: L2-HR :0.84561: (Sim:0h39m54s) 
CPU  1 inst:   30000002 cyc:   31164621 now IPC :0.93186: AVG IPC :0.92774: L2-Pf-HR :0.95018: L2-HR :0.85009: (Sim:0h40m4s) 
CPU  0 inst:   31000004 cyc:   31527701 now IPC :0.95092: AVG IPC :0.94944: L2-Pf-HR :0.93813: L2-HR :0.85168: (Sim:0h40m25s) 
CPU  2 inst:   31000004 cyc:   31821803 now IPC :1.02808: AVG IPC :0.94041: L2-Pf-HR :0.93101: L2-HR :0.85063: (Sim:0h40m43s) 
CPU  3 inst:   31000004 cyc:   32012303 now IPC :0.97425: AVG IPC :0.93462: L2-Pf-HR :0.94706: L2-HR :0.84631: (Sim:0h40m54s) 
CPU  1 inst:   31000004 cyc:   32275245 now IPC :0.90040: AVG IPC :0.92677: L2-Pf-HR :0.95093: L2-HR :0.85073: (Sim:0h41m9s) 
CPU  0 inst:   32000002 cyc:   32622941 now IPC :0.91304: AVG IPC :0.94818: L2-Pf-HR :0.93826: L2-HR :0.85242: (Sim:0h41m29s) 
CPU  2 inst:   32000002 cyc:   32827791 now IPC :0.99405: AVG IPC :0.94210: L2-Pf-HR :0.93154: L2-HR :0.85140: (Sim:0h41m41s) 
CPU  3 inst:   32000002 cyc:   33082129 now IPC :0.93473: AVG IPC :0.93463: L2-Pf-HR :0.94733: L2-HR :0.84674: (Sim:0h41m55s) 
CPU  1 inst:   32000002 cyc:   33398192 now IPC :0.89051: AVG IPC :0.92551: L2-Pf-HR :0.95083: L2-HR :0.85127: (Sim:0h42m12s) 
CPU  0 inst:   33000000 cyc:   33859989 now IPC :0.80837: AVG IPC :0.94292: L2-Pf-HR :0.93660: L2-HR :0.85025: (Sim:0h42m35s) 
CPU  2 inst:   33000000 cyc:   34137866 now IPC :0.76331: AVG IPC :0.93504: L2-Pf-HR :0.92950: L2-HR :0.84922: (Sim:0h42m45s) 
CPU  3 inst:   33000000 cyc:   34475687 now IPC :0.71759: AVG IPC :0.92560: L2-Pf-HR :0.94593: L2-HR :0.84494: (Sim:0h42m53s) 
CPU  1 inst:   33000000 cyc:   35230000 now IPC :0.54591: AVG IPC :0.90521: L2-Pf-HR :0.94929: L2-HR :0.84915: (Sim:0h43m12s) 
CPU  0 inst:   34000000 cyc:   53112289 now IPC :0.05194: AVG IPC :0.61386: L2-Pf-HR :0.89596: L2-HR :0.79433: (Sim:0h52m37s) 
CPU  2 inst:   34000003 cyc:   54147211 now IPC :0.04998: AVG IPC :0.60192: L2-Pf-HR :0.88920: L2-HR :0.79299: (Sim:0h53m10s) 
CPU  3 inst:   34000000 cyc:   55375633 now IPC :0.04785: AVG IPC :0.58832: L2-Pf-HR :0.90396: L2-HR :0.78891: (Sim:0h53m49s) 
CPU  1 inst:   34000003 cyc:   56633909 now IPC :0.04672: AVG IPC :0.57502: L2-Pf-HR :0.90743: L2-HR :0.79239: (Sim:0h54m29s) 
CPU  0 inst:   35000002 cyc:   62126907 now IPC :0.11093: AVG IPC :0.53971: L2-Pf-HR :0.87864: L2-HR :0.77851: (Sim:0h58m11s) 
CPU  2 inst:   35000002 cyc:   62536186 now IPC :0.11920: AVG IPC :0.53613: L2-Pf-HR :0.87208: L2-HR :0.77709: (Sim:0h58m35s) 
CPU  3 inst:   35000002 cyc:   63056761 now IPC :0.13019: AVG IPC :0.53163: L2-Pf-HR :0.88622: L2-HR :0.77310: (Sim:0h59m6s) 
CPU  1 inst:   35000002 cyc:   63382981 now IPC :0.14817: AVG IPC :0.52885: L2-Pf-HR :0.88957: L2-HR :0.77639: (Sim:0h59m25s) 
CPU  0 inst:   36000001 cyc:   66337684 now IPC :0.23749: AVG IPC :0.52024: L2-Pf-HR :0.86780: L2-HR :0.77128: (Sim:1h2m14s) 
CPU  2 inst:   36000001 cyc:   66752449 now IPC :0.23718: AVG IPC :0.51697: L2-Pf-HR :0.86134: L2-HR :0.76982: (Sim:1h2m37s) 
CPU  3 inst:   36000001 cyc:   67281591 now IPC :0.23670: AVG IPC :0.51284: L2-Pf-HR :0.87507: L2-HR :0.76585: (Sim:1h3m7s) 
CPU  1 inst:   36000001 cyc:   67617178 now IPC :0.23617: AVG IPC :0.51025: L2-Pf-HR :0.87836: L2-HR :0.76907: (Sim:1h3m26s) 
CPU  0 inst:   37000001 cyc:   70546718 now IPC :0.23758: AVG IPC :0.50314: L2-Pf-HR :0.85724: L2-HR :0.76430: (Sim:1h6m12s) 
CPU  2 inst:   37000001 cyc:   70940921 now IPC :0.23875: AVG IPC :0.50031: L2-Pf-HR :0.85089: L2-HR :0.76281: (Sim:1h6m34s) 
CPU  3 inst:   37000001 cyc:   71446892 now IPC :0.24008: AVG IPC :0.49671: L2-Pf-HR :0.86422: L2-HR :0.75885: (Sim:1h7m3s) 
CPU  1 inst:   37000001 cyc:   71751915 now IPC :0.24185: AVG IPC :0.49457: L2-Pf-HR :0.86745: L2-HR :0.76199: (Sim:1h7m21s) 
CPU  0 inst:   38000000 cyc:   74567099 now IPC :0.24873: AVG IPC :0.48924: L2-Pf-HR :0.84693: L2-HR :0.75751: (Sim:1h10m3s) 
CPU  2 inst:   38000000 cyc:   74947002 now IPC :0.24962: AVG IPC :0.48673: L2-Pf-HR :0.84069: L2-HR :0.75601: (Sim:1h10m25s) 
CPU  3 inst:   38000000 cyc:   75435480 now IPC :0.25072: AVG IPC :0.48353: L2-Pf-HR :0.85364: L2-HR :0.75206: (Sim:1h10m54s) 
CPU  1 inst:   38000000 cyc:   75735405 now IPC :0.25104: AVG IPC :0.48159: L2-Pf-HR :0.85682: L2-HR :0.75514: (Sim:1h11m11s) 
CPU  0 inst:   39000000 cyc:   78506228 now IPC :0.25386: AVG IPC :0.47728: L2-Pf-HR :0.83690: L2-HR :0.75097: (Sim:1h13m54s) 
CPU  2 inst:   39000000 cyc:   78888358 now IPC :0.25372: AVG IPC :0.47494: L2-Pf-HR :0.83075: L2-HR :0.74944: (Sim:1h14m16s) 
CPU  3 inst:   39000000 cyc:   79354315 now IPC :0.25518: AVG IPC :0.47211: L2-Pf-HR :0.84335: L2-HR :0.74550: (Sim:1h14m43s) 
CPU  1 inst:   39000000 cyc:   79661393 now IPC :0.25471: AVG IPC :0.47027: L2-Pf-HR :0.84647: L2-HR :0.74852: (Sim:1h15m1s) 
CPU  0 inst:   40000003 cyc:   82426140 now IPC :0.25511: AVG IPC :0.46658: L2-Pf-HR :0.82712: L2-HR :0.74462: (Sim:1h17m40s) 
CPU  2 inst:   40000003 cyc:   82804125 now IPC :0.25538: AVG IPC :0.46443: L2-Pf-HR :0.82107: L2-HR :0.74308: (Sim:1h18m1s) 
CPU  3 inst:   40000003 cyc:   83284692 now IPC :0.25443: AVG IPC :0.46172: L2-Pf-HR :0.83333: L2-HR :0.73916: (Sim:1h18m29s) 
CPU  1 inst:   40000003 cyc:   83602738 now IPC :0.25372: AVG IPC :0.45994: L2-Pf-HR :0.83639: L2-HR :0.74212: (Sim:1h18m47s) 
CPU  0 inst:   41000001 cyc:   86376808 now IPC :0.25312: AVG IPC :0.45671: L2-Pf-HR :0.81761: L2-HR :0.73849: (Sim:1h21m32s) 
CPU  2 inst:   41000001 cyc:   86761247 now IPC :0.25271: AVG IPC :0.45467: L2-Pf-HR :0.81166: L2-HR :0.73692: (Sim:1h21m55s) 
CPU  3 inst:   41000001 cyc:   87230962 now IPC :0.25340: AVG IPC :0.45219: L2-Pf-HR :0.82358: L2-HR :0.73303: (Sim:1h22m23s) 
CPU  1 inst:   41000001 cyc:   87550509 now IPC :0.25331: AVG IPC :0.45052: L2-Pf-HR :0.82658: L2-HR :0.73592: (Sim:1h22m42s) 
CPU  0 inst:   42000001 cyc:   90308427 now IPC :0.25435: AVG IPC :0.44780: L2-Pf-HR :0.80829: L2-HR :0.73253: (Sim:1h25m30s) 
CPU  2 inst:   42000001 cyc:   90697232 now IPC :0.25407: AVG IPC :0.44587: L2-Pf-HR :0.80244: L2-HR :0.73095: (Sim:1h25m55s) 
CPU  3 inst:   42000001 cyc:   91182916 now IPC :0.25304: AVG IPC :0.44346: L2-Pf-HR :0.81405: L2-HR :0.72708: (Sim:1h26m25s) 
CPU  1 inst:   42000001 cyc:   91499585 now IPC :0.25322: AVG IPC :0.44191: L2-Pf-HR :0.81699: L2-HR :0.72991: (Sim:1h26m45s) 
CPU  0 inst:   43000005 cyc:   94253910 now IPC :0.25346: AVG IPC :0.43958: L2-Pf-HR :0.79924: L2-HR :0.72677: (Sim:1h29m28s) 
CPU  2 inst:   43000005 cyc:   94635025 now IPC :0.25395: AVG IPC :0.43780: L2-Pf-HR :0.79347: L2-HR :0.72518: (Sim:1h29m52s) 
CPU  3 inst:   43000005 cyc:   95123423 now IPC :0.25378: AVG IPC :0.43552: L2-Pf-HR :0.80478: L2-HR :0.72132: (Sim:1h30m24s) 
CPU  1 inst:   43000005 cyc:   95429109 now IPC :0.25448: AVG IPC :0.43411: L2-Pf-HR :0.80767: L2-HR :0.72410: (Sim:1h30m44s) 
CPU  0 inst:   44000001 cyc:   98206969 now IPC :0.25297: AVG IPC :0.43199: L2-Pf-HR :0.79041: L2-HR :0.72118: (Sim:1h33m46s) 
CPU  2 inst:   44000001 cyc:   98594161 now IPC :0.25258: AVG IPC :0.43028: L2-Pf-HR :0.78474: L2-HR :0.71958: (Sim:1h34m11s) 
CPU  3 inst:   44000001 cyc:   99069067 now IPC :0.25344: AVG IPC :0.42820: L2-Pf-HR :0.79574: L2-HR :0.71574: (Sim:1h34m42s) 
CPU  1 inst:   44000001 cyc:   99373489 now IPC :0.25352: AVG IPC :0.42687: L2-Pf-HR :0.79858: L2-HR :0.71846: (Sim:1h35m3s) 
CPU  0 inst:   45000001 cyc:  102131496 now IPC :0.25481: AVG IPC :0.42512: L2-Pf-HR :0.78180: L2-HR :0.71576: (Sim:1h38m3s) 
CPU  2 inst:   45000001 cyc:  102531295 now IPC :0.25399: AVG IPC :0.42345: L2-Pf-HR :0.77622: L2-HR :0.71415: (Sim:1h38m29s) 
CPU  3 inst:   45000001 cyc:  103017690 now IPC :0.25325: AVG IPC :0.42143: L2-Pf-HR :0.78695: L2-HR :0.71033: (Sim:1h39m0s) 
CPU  1 inst:   45000001 cyc:  103326651 now IPC :0.25296: AVG IPC :0.42015: L2-Pf-HR :0.78974: L2-HR :0.71301: (Sim:1h39m18s) 
CPU  0 inst:   46000000 cyc:  106044826 now IPC :0.25554: AVG IPC :0.41880: L2-Pf-HR :0.77338: L2-HR :0.71049: (Sim:1h42m0s) 
CPU  2 inst:   46000000 cyc:  106424694 now IPC :0.25684: AVG IPC :0.41730: L2-Pf-HR :0.76790: L2-HR :0.70888: (Sim:1h42m22s) 
CPU  3 inst:   46000000 cyc:  106911180 now IPC :0.25684: AVG IPC :0.41538: L2-Pf-HR :0.77835: L2-HR :0.70507: (Sim:1h42m51s) 
CPU  1 inst:   46000000 cyc:  107227834 now IPC :0.25633: AVG IPC :0.41414: L2-Pf-HR :0.78113: L2-HR :0.70772: (Sim:1h43m10s) 
CPU  0 inst:   47000000 cyc:  109979071 now IPC :0.25418: AVG IPC :0.41286: L2-Pf-HR :0.76519: L2-HR :0.70538: (Sim:1h45m52s) 
CPU  2 inst:   47000000 cyc:  110384110 now IPC :0.25256: AVG IPC :0.41133: L2-Pf-HR :0.75978: L2-HR :0.70377: (Sim:1h46m16s) 
CPU  3 inst:   47000000 cyc:  110878396 now IPC :0.25207: AVG IPC :0.40948: L2-Pf-HR :0.76996: L2-HR :0.69997: (Sim:1h46m45s) 
CPU  1 inst:   47000000 cyc:  111180613 now IPC :0.25299: AVG IPC :0.40836: L2-Pf-HR :0.77272: L2-HR :0.70258: (Sim:1h47m3s) 
CPU  0 inst:   48000000 cyc:  113934990 now IPC :0.25279: AVG IPC :0.40725: L2-Pf-HR :0.75718: L2-HR :0.70042: (Sim:1h49m45s) 
CPU  2 inst:   48000000 cyc:  114327330 now IPC :0.25360: AVG IPC :0.40585: L2-Pf-HR :0.75183: L2-HR :0.69879: (Sim:1h50m8s) 
CPU  3 inst:   48000000 cyc:  114805380 now IPC :0.25465: AVG IPC :0.40414: L2-Pf-HR :0.76176: L2-HR :0.69502: (Sim:1h50m36s) 
CPU  1 inst:   48000000 cyc:  115088100 now IPC :0.25592: AVG IPC :0.40314: L2-Pf-HR :0.76452: L2-HR :0.69759: (Sim:1h50m53s) 
CPU  0 inst:   49000000 cyc:  117878868 now IPC :0.25356: AVG IPC :0.40207: L2-Pf-HR :0.74937: L2-HR :0.69560: (Sim:1h53m38s) 
CPU  2 inst:   49000000 cyc:  118274219 now IPC :0.25336: AVG IPC :0.40072: L2-Pf-HR :0.74410: L2-HR :0.69397: (Sim:1h54m2s) 
CPU  3 inst:   49000000 cyc:  118760021 now IPC :0.25287: AVG IPC :0.39906: L2-Pf-HR :0.75377: L2-HR :0.69021: (Sim:1h54m31s) 
CPU  1 inst:   49000000 cyc:  119048334 now IPC :0.25251: AVG IPC :0.39809: L2-Pf-HR :0.75651: L2-HR :0.69275: (Sim:1h54m48s) 
CPU  0 inst:   50000003 cyc:  121816641 now IPC :0.25395: AVG IPC :0.39724: L2-Pf-HR :0.74174: L2-HR :0.69091: (Sim:1h57m33s) 
CPU  2 inst:   50000003 cyc:  122197722 now IPC :0.25488: AVG IPC :0.39600: L2-Pf-HR :0.73653: L2-HR :0.68928: (Sim:1h57m56s) 
CPU  3 inst:   50000003 cyc:  122681815 now IPC :0.25499: AVG IPC :0.39442: L2-Pf-HR :0.74596: L2-HR :0.68554: (Sim:1h58m24s) 
CPU  1 inst:   50000003 cyc:  122949566 now IPC :0.25633: AVG IPC :0.39355: L2-Pf-HR :0.74868: L2-HR :0.68804: (Sim:1h58m40s) 
CPU  0 inst:   51000001 cyc:  123861286 now IPC :0.48908: AVG IPC :0.39877: L2-Pf-HR :0.74843: L2-HR :0.69791: (Sim:1h59m40s) 
CPU  2 inst:   51000001 cyc:  124419074 now IPC :0.45018: AVG IPC :0.39697: L2-Pf-HR :0.74392: L2-HR :0.69672: (Sim:2h0m26s) 
CPU  0 inst:   52000003 cyc:  124861160 now IPC :1.00013: AVG IPC :0.40362: L2-Pf-HR :0.76842: L2-HR :0.71506: (Sim:2h1m9s) 
CPU  3 inst:   51000001 cyc:  125088409 now IPC :0.41552: AVG IPC :0.39483: L2-Pf-HR :0.75158: L2-HR :0.69226: (Sim:2h1m37s) 
CPU  2 inst:   52000003 cyc:  125428598 now IPC :0.99057: AVG IPC :0.40179: L2-Pf-HR :0.76020: L2-HR :0.71121: (Sim:2h2m17s) 
CPU  1 inst:   51000001 cyc:  125542550 now IPC :0.38566: AVG IPC :0.39339: L2-Pf-HR :0.75424: L2-HR :0.69470: (Sim:2h2m32s) 
CPU  0 inst:   53000002 cyc:  125707152 now IPC :1.18204: AVG IPC :0.40890: L2-Pf-HR :0.78384: L2-HR :0.72927: (Sim:2h2m56s) 
CPU  3 inst:   52000003 cyc:  125962885 now IPC :1.14354: AVG IPC :0.40007: L2-Pf-HR :0.76558: L2-HR :0.70561: (Sim:2h3m31s) 
CPU  2 inst:   53000002 cyc:  126262940 now IPC :1.19855: AVG IPC :0.40709: L2-Pf-HR :0.77397: L2-HR :0.72396: (Sim:2h4m16s) 
CPU  1 inst:   52000003 cyc:  126318048 now IPC :1.28950: AVG IPC :0.39893: L2-Pf-HR :0.76726: L2-HR :0.70748: (Sim:2h4m22s) 
CPU  0 inst:   54000001 cyc:  126441345 now IPC :1.36204: AVG IPC :0.41448: L2-Pf-HR :0.79419: L2-HR :0.73995: (Sim:2h4m40s) 
CPU  3 inst:   53000004 cyc:  126724712 now IPC :1.31264: AVG IPC :0.40559: L2-Pf-HR :0.77721: L2-HR :0.71729: (Sim:2h5m25s) 
CPU  2 inst:   54000001 cyc:  126935658 now IPC :1.48651: AVG IPC :0.41286: L2-Pf-HR :0.78459: L2-HR :0.73455: (Sim:2h5m58s) 
CPU  1 inst:   53000002 cyc:  127072475 now IPC :1.32551: AVG IPC :0.40448: L2-Pf-HR :0.77834: L2-HR :0.71883: (Sim:2h6m20s) 
CPU  0 inst:   55000004 cyc:  127200737 now IPC :1.31685: AVG IPC :0.41991: L2-Pf-HR :0.80178: L2-HR :0.74857: (Sim:2h6m41s) 
CPU  3 inst:   54000001 cyc:  127357227 now IPC :1.58099: AVG IPC :0.41148: L2-Pf-HR :0.78751: L2-HR :0.72805: (Sim:2h7m3s) 
CPU  1 inst:   54000001 cyc:  127698661 now IPC :1.59697: AVG IPC :0.41037: L2-Pf-HR :0.78796: L2-HR :0.72909: (Sim:2h7m54s) 
CPU  2 inst:   55000004 cyc:  127728306 now IPC :1.26160: AVG IPC :0.41817: L2-Pf-HR :0.79403: L2-HR :0.74438: (Sim:2h7m58s) 
CPU  0 inst:   56000004 cyc:  128096150 now IPC :1.11680: AVG IPC :0.42482: L2-Pf-HR :0.81225: L2-HR :0.75940: (Sim:2h8m46s) 
CPU  3 inst:   55000004 cyc:  128281637 now IPC :1.08177: AVG IPC :0.41635: L2-Pf-HR :0.79576: L2-HR :0.73744: (Sim:2h9m5s) 
CPU  1 inst:   55000004 cyc:  128710581 now IPC :0.98822: AVG IPC :0.41495: L2-Pf-HR :0.79609: L2-HR :0.73836: (Sim:2h9m56s) 
CPU  2 inst:   56000004 cyc:  128725094 now IPC :1.00322: AVG IPC :0.42273: L2-Pf-HR :0.80350: L2-HR :0.75423: (Sim:2h9m58s) 
CPU  0 inst:   57000005 cyc:  129026591 now IPC :1.07476: AVG IPC :0.42954: L2-Pf-HR :0.82089: L2-HR :0.76888: (Sim:2h10m35s) 
CPU  3 inst:   56000004 cyc:  129304634 now IPC :0.97752: AVG IPC :0.42082: L2-Pf-HR :0.80403: L2-HR :0.74665: (Sim:2h11m12s) 
CPU  2 inst:   57000002 cyc:  129632054 now IPC :1.10258: AVG IPC :0.42752: L2-Pf-HR :0.81118: L2-HR :0.76269: (Sim:2h11m58s) 
CPU  1 inst:   56000004 cyc:  129647498 now IPC :1.06733: AVG IPC :0.41970: L2-Pf-HR :0.80381: L2-HR :0.74718: (Sim:2h12m1s) 
CPU  0 inst:   58000005 cyc:  129756911 now IPC :1.36926: AVG IPC :0.43487: L2-Pf-HR :0.82720: L2-HR :0.77630: (Sim:2h12m17s) 
CPU  3 inst:   57000005 cyc:  130078528 now IPC :1.29217: AVG IPC :0.42604: L2-Pf-HR :0.81055: L2-HR :0.75450: (Sim:2h13m7s) 
CPU  2 inst:   58000005 cyc:  130298010 now IPC :1.50161: AVG IPC :0.43305: L2-Pf-HR :0.81804: L2-HR :0.77031: (Sim:2h13m39s) 
CPU  1 inst:   57000000 cyc:  130445257 now IPC :1.25351: AVG IPC :0.42484: L2-Pf-HR :0.81005: L2-HR :0.75481: (Sim:2h14m2s) 
CPU  0 inst:   59000000 cyc:  130522537 now IPC :1.30611: AVG IPC :0.44002: L2-Pf-HR :0.83185: L2-HR :0.78234: (Sim:2h14m15s) 
CPU  3 inst:   58000005 cyc:  130765061 now IPC :1.45659: AVG IPC :0.43149: L2-Pf-HR :0.81717: L2-HR :0.76223: (Sim:2h14m48s) 
CPU  2 inst:   59000000 cyc:  130999644 now IPC :1.42524: AVG IPC :0.43841: L2-Pf-HR :0.82358: L2-HR :0.77690: (Sim:2h15m25s) 
CPU  1 inst:   58000005 cyc:  131127745 now IPC :1.46523: AVG IPC :0.43029: L2-Pf-HR :0.81626: L2-HR :0.76224: (Sim:2h15m46s) 
CPU  0 inst:   60000005 cyc:  131278606 now IPC :1.32264: AVG IPC :0.44514: L2-Pf-HR :0.83793: L2-HR :0.78952: (Sim:2h16m7s) 
CPU  3 inst:   59000000 cyc:  131487072 now IPC :1.38501: AVG IPC :0.43677: L2-Pf-HR :0.82277: L2-HR :0.76913: (Sim:2h16m40s) 
CPU  2 inst:   60000005 cyc:  131759747 now IPC :1.31562: AVG IPC :0.44351: L2-Pf-HR :0.82935: L2-HR :0.78367: (Sim:2h17m18s) 
CPU  1 inst:   59000000 cyc:  131903260 now IPC :1.28946: AVG IPC :0.43538: L2-Pf-HR :0.82159: L2-HR :0.76892: (Sim:2h17m38s) 
CPU  0 inst:   61000002 cyc:  132030984 now IPC :1.32912: AVG IPC :0.45022: L2-Pf-HR :0.84333: L2-HR :0.79619: (Sim:2h17m57s) 
CPU  3 inst:   60000005 cyc:  132228010 now IPC :1.34965: AVG IPC :0.44192: L2-Pf-HR :0.82800: L2-HR :0.77567: (Sim:2h18m30s) 
CPU  2 inst:   61000002 cyc:  132466236 now IPC :1.41545: AVG IPC :0.44873: L2-Pf-HR :0.83400: L2-HR :0.78956: (Sim:2h19m10s) 
CPU  1 inst:   60000005 cyc:  132579437 now IPC :1.47891: AVG IPC :0.44074: L2-Pf-HR :0.82664: L2-HR :0.77527: (Sim:2h19m29s) 
CPU  0 inst:   62000002 cyc:  132634385 now IPC :1.65727: AVG IPC :0.45575: L2-Pf-HR :0.84804: L2-HR :0.80198: (Sim:2h19m38s) 
CPU  3 inst:   61000000 cyc:  132905121 now IPC :1.47686: AVG IPC :0.44724: L2-Pf-HR :0.83190: L2-HR :0.78114: (Sim:2h20m25s) 
CPU  2 inst:   62000002 cyc:  133040493 now IPC :1.74138: AVG IPC :0.45435: L2-Pf-HR :0.83880: L2-HR :0.79527: (Sim:2h20m49s) 
CPU  0 inst:   63000001 cyc:  133257950 now IPC :1.60368: AVG IPC :0.46116: L2-Pf-HR :0.85112: L2-HR :0.80636: (Sim:2h21m23s) 
CPU  1 inst:   61000002 cyc:  133260989 now IPC :1.46724: AVG IPC :0.44603: L2-Pf-HR :0.83042: L2-HR :0.78063: (Sim:2h21m24s) 
CPU  3 inst:   62000002 cyc:  133500959 now IPC :1.67831: AVG IPC :0.45277: L2-Pf-HR :0.83672: L2-HR :0.78706: (Sim:2h22m8s) 
CPU  2 inst:   63000001 cyc:  133661116 now IPC :1.61128: AVG IPC :0.45976: L2-Pf-HR :0.84256: L2-HR :0.80012: (Sim:2h22m35s) 
CPU  1 inst:   62000002 cyc:  133826190 now IPC :1.76928: AVG IPC :0.45166: L2-Pf-HR :0.83474: L2-HR :0.78616: (Sim:2h23m4s) 
CPU  0 inst:   64000000 cyc:  133851800 now IPC :1.68393: AVG IPC :0.46663: L2-Pf-HR :0.85484: L2-HR :0.81123: (Sim:2h23m9s) 
CPU  3 inst:   63000001 cyc:  134119357 now IPC :1.61708: AVG IPC :0.45818: L2-Pf-HR :0.84052: L2-HR :0.79215: (Sim:2h23m54s) 
CPU  2 inst:   64000000 cyc:  134276470 now IPC :1.62508: AVG IPC :0.46514: L2-Pf-HR :0.84653: L2-HR :0.80514: (Sim:2h24m22s) 
CPU  1 inst:   63000001 cyc:  134446938 now IPC :1.61096: AVG IPC :0.45705: L2-Pf-HR :0.83867: L2-HR :0.79128: (Sim:2h24m47s) 
CPU  0 inst:   65000000 cyc:  134517369 now IPC :1.50247: AVG IPC :0.47179: L2-Pf-HR :0.85874: L2-HR :0.81635: (Sim:2h24m58s) 
CPU  3 inst:   64000000 cyc:  134759970 now IPC :1.56100: AVG IPC :0.46346: L2-Pf-HR :0.84415: L2-HR :0.79705: (Sim:2h25m40s) 
CPU  2 inst:   65000000 cyc:  134953468 now IPC :1.47711: AVG IPC :0.47026: L2-Pf-HR :0.84989: L2-HR :0.80970: (Sim:2h26m12s) 
CPU  1 inst:   64000000 cyc:  135071001 now IPC :1.60240: AVG IPC :0.46238: L2-Pf-HR :0.84226: L2-HR :0.79612: (Sim:2h26m32s) 
CPU  0 inst:   66000005 cyc:  135098858 now IPC :1.71973: AVG IPC :0.47720: L2-Pf-HR :0.86224: L2-HR :0.82089: (Sim:2h26m37s) 
CPU  3 inst:   65000000 cyc:  135433779 now IPC :1.48410: AVG IPC :0.46857: L2-Pf-HR :0.84699: L2-HR :0.80129: (Sim:2h27m35s) 
CPU  2 inst:   66000005 cyc:  135537934 now IPC :1.71097: AVG IPC :0.47565: L2-Pf-HR :0.85328: L2-HR :0.81404: (Sim:2h27m54s) 
CPU  0 inst:   67000004 cyc:  135662518 now IPC :1.77412: AVG IPC :0.48263: L2-Pf-HR :0.86552: L2-HR :0.82507: (Sim:2h28m16s) 
CPU  1 inst:   65000000 cyc:  135683624 now IPC :1.63233: AVG IPC :0.46771: L2-Pf-HR :0.84505: L2-HR :0.80029: (Sim:2h28m20s) 
CPU  3 inst:   66000005 cyc:  136001893 now IPC :1.76022: AVG IPC :0.47401: L2-Pf-HR :0.85051: L2-HR :0.80587: (Sim:2h29m16s) 
CPU  2 inst:   67000004 cyc:  136088088 now IPC :1.81767: AVG IPC :0.48111: L2-Pf-HR :0.85692: L2-HR :0.81842: (Sim:2h29m32s) 
CPU  1 inst:   66000005 cyc:  136259398 now IPC :1.73680: AVG IPC :0.47311: L2-Pf-HR :0.84838: L2-HR :0.80470: (Sim:2h30m2s) 
CPU  0 inst:   68000002 cyc:  136319146 now IPC :1.52293: AVG IPC :0.48767: L2-Pf-HR :0.86754: L2-HR :0.82827: (Sim:2h30m13s) 
CPU  3 inst:   67000004 cyc:  136545330 now IPC :1.84014: AVG IPC :0.47949: L2-Pf-HR :0.85443: L2-HR :0.81063: (Sim:2h30m54s) 
CPU  2 inst:   68000002 cyc:  136731745 now IPC :1.55362: AVG IPC :0.48620: L2-Pf-HR :0.85944: L2-HR :0.82201: (Sim:2h31m24s) 
CPU  1 inst:   67000004 cyc:  136810257 now IPC :1.81534: AVG IPC :0.47855: L2-Pf-HR :0.85179: L2-HR :0.80908: (Sim:2h31m37s) 
CPU  0 inst:   69000002 cyc:  136971598 now IPC :1.53268: AVG IPC :0.49269: L2-Pf-HR :0.87054: L2-HR :0.83236: (Sim:2h32m0s) 
CPU  3 inst:   68000002 cyc:  137297946 now IPC :1.32870: AVG IPC :0.48417: L2-Pf-HR :0.85675: L2-HR :0.81420: (Sim:2h32m51s) 
CPU  2 inst:   69000003 cyc:  137472202 now IPC :1.35052: AVG IPC :0.49089: L2-Pf-HR :0.86203: L2-HR :0.82568: (Sim:2h33m17s) 
CPU  1 inst:   68000002 cyc:  137572384 now IPC :1.31211: AVG IPC :0.48320: L2-Pf-HR :0.85411: L2-HR :0.81263: (Sim:2h33m35s) 
CPU  0 inst:   70000002 cyc:  137610736 now IPC :1.56461: AVG IPC :0.49770: L2-Pf-HR :0.87315: L2-HR :0.83596: (Sim:2h33m40s) 
CPU  3 inst:   69000003 cyc:  137967207 now IPC :1.49419: AVG IPC :0.48911: L2-Pf-HR :0.85891: L2-HR :0.81761: (Sim:2h34m44s) 
CPU  2 inst:   70000002 cyc:  138047348 now IPC :1.73869: AVG IPC :0.49612: L2-Pf-HR :0.86422: L2-HR :0.82882: (Sim:2h34m58s) 
CPU  0 inst:   71000002 cyc:  138161233 now IPC :1.81654: AVG IPC :0.50299: L2-Pf-HR :0.87525: L2-HR :0.83897: (Sim:2h35m17s) 
CPU  1 inst:   69000003 cyc:  138215880 now IPC :1.55401: AVG IPC :0.48822: L2-Pf-HR :0.85626: L2-HR :0.81601: (Sim:2h35m27s) 
CPU  3 inst:   70000002 cyc:  138567942 now IPC :1.66463: AVG IPC :0.49424: L2-Pf-HR :0.86126: L2-HR :0.82097: (Sim:2h36m27s) 
CPU  2 inst:   71000002 cyc:  138607434 now IPC :1.78544: AVG IPC :0.50137: L2-Pf-HR :0.86667: L2-HR :0.83207: (Sim:2h36m34s) 
CPU  0 inst:   72000002 cyc:  138810278 now IPC :1.54073: AVG IPC :0.50788: L2-Pf-HR :0.87655: L2-HR :0.84131: (Sim:2h37m10s) 
CPU  1 inst:   70000002 cyc:  138819521 now IPC :1.65661: AVG IPC :0.49334: L2-Pf-HR :0.85838: L2-HR :0.81921: (Sim:2h37m11s) 
CPU  3 inst:   71000002 cyc:  139121323 now IPC :1.80707: AVG IPC :0.49950: L2-Pf-HR :0.86374: L2-HR :0.82440: (Sim:2h38m6s) 
CPU  2 inst:   72000002 cyc:  139232092 now IPC :1.60088: AVG IPC :0.50634: L2-Pf-HR :0.86856: L2-HR :0.83491: (Sim:2h38m27s) 
CPU  1 inst:   71000002 cyc:  139369721 now IPC :1.81752: AVG IPC :0.49860: L2-Pf-HR :0.86080: L2-HR :0.82257: (Sim:2h38m48s) 
CPU  0 inst:   73000004 cyc:  139456300 now IPC :1.54794: AVG IPC :0.51273: L2-Pf-HR :0.87897: L2-HR :0.84464: (Sim:2h39m2s) 
CPU  3 inst:   72000000 cyc:  139823003 now IPC :1.42515: AVG IPC :0.50418: L2-Pf-HR :0.86551: L2-HR :0.82726: (Sim:2h39m59s) 
CPU  2 inst:   73000002 cyc:  139889697 now IPC :1.52067: AVG IPC :0.51114: L2-Pf-HR :0.87054: L2-HR :0.83781: (Sim:2h40m9s) 
CPU  0 inst:   74000003 cyc:  140075400 now IPC :1.61525: AVG IPC :0.51764: L2-Pf-HR :0.88104: L2-HR :0.84759: (Sim:2h40m42s) 
CPU  1 inst:   72000002 cyc:  140079270 now IPC :1.40935: AVG IPC :0.50325: L2-Pf-HR :0.86259: L2-HR :0.82544: (Sim:2h40m43s) 
CPU  3 inst:   73000004 cyc:  140532263 now IPC :1.40993: AVG IPC :0.50878: L2-Pf-HR :0.86721: L2-HR :0.83004: (Sim:2h41m54s) 
CPU  2 inst:   74000003 cyc:  140567375 now IPC :1.47563: AVG IPC :0.51582: L2-Pf-HR :0.87247: L2-HR :0.84058: (Sim:2h41m59s) 
CPU  0 inst:   75000002 cyc:  140703544 now IPC :1.59199: AVG IPC :0.52247: L2-Pf-HR :0.88287: L2-HR :0.85018: (Sim:2h42m11s) 
CPU  1 inst:   73000004 cyc:  140770508 now IPC :1.44668: AVG IPC :0.50792: L2-Pf-HR :0.86427: L2-HR :0.82819: (Sim:2h42m16s) 
CPU  3 inst:   74000003 cyc:  141190054 now IPC :1.52024: AVG IPC :0.51353: L2-Pf-HR :0.86883: L2-HR :0.83265: (Sim:2h42m53s) 
CPU  2 inst:   75000002 cyc:  141200631 now IPC :1.57914: AVG IPC :0.52062: L2-Pf-HR :0.87440: L2-HR :0.84326: (Sim:2h42m55s) 
CPU  0 inst:   76000005 cyc:  141383965 now IPC :1.46968: AVG IPC :0.52706: L2-Pf-HR :0.88373: L2-HR :0.85195: (Sim:2h43m11s) 
CPU  1 inst:   74000003 cyc:  141424497 now IPC :1.52908: AVG IPC :0.51267: L2-Pf-HR :0.86615: L2-HR :0.83096: (Sim:2h43m15s) 
CPU  3 inst:   75000002 cyc:  141800340 now IPC :1.63857: AVG IPC :0.51840: L2-Pf-HR :0.87090: L2-HR :0.83554: (Sim:2h43m48s) 
CPU  2 inst:   76000002 cyc:  141859353 now IPC :1.51809: AVG IPC :0.52529: L2-Pf-HR :0.87597: L2-HR :0.84564: (Sim:2h43m54s) 
CPU  1 inst:   75000002 cyc:  142032897 now IPC :1.64365: AVG IPC :0.51755: L2-Pf-HR :0.86818: L2-HR :0.83381: (Sim:2h44m10s) 
CPU  0 inst:   77000001 cyc:  142049290 now IPC :1.50302: AVG IPC :0.53166: L2-Pf-HR :0.88549: L2-HR :0.85454: (Sim:2h44m11s) 
CPU  3 inst:   76000002 cyc:  142496083 now IPC :1.43731: AVG IPC :0.52292: L2-Pf-HR :0.87236: L2-HR :0.83794: (Sim:2h44m47s) 
CPU  2 inst:   77000005 cyc:  142563722 now IPC :1.41971: AVG IPC :0.52974: L2-Pf-HR :0.87749: L2-HR :0.84799: (Sim:2h44m53s) 
CPU  0 inst:   78000001 cyc:  142713236 now IPC :1.50615: AVG IPC :0.53623: L2-Pf-HR :0.88732: L2-HR :0.85711: (Sim:2h45m7s) 
CPU  1 inst:   76000002 cyc:  142745947 now IPC :1.40243: AVG IPC :0.52200: L2-Pf-HR :0.86972: L2-HR :0.83624: (Sim:2h45m10s) 
CPU  3 inst:   77000005 cyc:  143217013 now IPC :1.38710: AVG IPC :0.52730: L2-Pf-HR :0.87374: L2-HR :0.84024: (Sim:2h45m48s) 
CPU  2 inst:   78000001 cyc:  143248151 now IPC :1.46107: AVG IPC :0.53422: L2-Pf-HR :0.87925: L2-HR :0.85043: (Sim:2h45m51s) 
CPU  0 inst:   79000000 cyc:  143336141 now IPC :1.60538: AVG IPC :0.54091: L2-Pf-HR :0.88871: L2-HR :0.85920: (Sim:2h45m59s) 
CPU  1 inst:   77000005 cyc:  143457942 now IPC :1.40451: AVG IPC :0.52641: L2-Pf-HR :0.87107: L2-HR :0.83852: (Sim:2h46m11s) 
CPU  2 inst:   79000000 cyc:  143814388 now IPC :1.76604: AVG IPC :0.53910: L2-Pf-HR :0.88076: L2-HR :0.85260: (Sim:2h46m43s) 
CPU  3 inst:   78000001 cyc:  143856515 now IPC :1.56371: AVG IPC :0.53194: L2-Pf-HR :0.87523: L2-HR :0.84254: (Sim:2h46m47s) 
CPU  0 inst:   80000001 cyc:  143956430 now IPC :1.61215: AVG IPC :0.54556: L2-Pf-HR :0.88961: L2-HR :0.86090: (Sim:2h46m56s) 
Finished CPU 0 instr: 78000005 cyc: 142972661 AVG IPC: 0.54556 (Sim time: 2h46m56s)
CPU  1 inst:   78000001 cyc:  144095979 now IPC :1.56730: AVG IPC :0.53105: L2-Pf-HR :0.87268: L2-HR :0.84091: (Sim:2h47m10s) 
CPU  3 inst:   79000000 cyc:  144408097 now IPC :1.81297: AVG IPC :0.53687: L2-Pf-HR :0.87677: L2-HR :0.84483: (Sim:2h47m39s) 
CPU  2 inst:   80000001 cyc:  144445500 now IPC :1.58451: AVG IPC :0.54370: L2-Pf-HR :0.88181: L2-HR :0.85442: (Sim:2h47m42s) 
Finished CPU 2 instr: 78000000 cyc: 143461416 AVG IPC: 0.54370 (Sim time: 2h47m42s)
CPU  0 inst:   81000000 cyc:  144610003 now IPC :1.53005: AVG IPC :0.55004: L2-Pf-HR :0.89091: L2-HR :0.86291: (Sim:2h47m58s) 
CPU  1 inst:   79000000 cyc:  144658196 now IPC :1.77867: AVG IPC :0.53593: L2-Pf-HR :0.87434: L2-HR :0.84329: (Sim:2h48m3s) 
CPU  3 inst:   80000001 cyc:  145088864 now IPC :1.46893: AVG IPC :0.54127: L2-Pf-HR :0.87772: L2-HR :0.84666: (Sim:2h48m38s) 
Finished CPU 3 instr: 78000005 cyc: 144104938 AVG IPC: 0.54127 (Sim time: 2h48m38s)
CPU  2 inst:   81000000 cyc:  145132210 now IPC :1.45622: AVG IPC :0.54805: L2-Pf-HR :0.88312: L2-HR :0.85641: (Sim:2h48m41s) 
CPU  0 inst:   82000001 cyc:  145301239 now IPC :1.44669: AVG IPC :0.55433: L2-Pf-HR :0.89242: L2-HR :0.86507: (Sim:2h48m55s) 
CPU  1 inst:   80000001 cyc:  145381652 now IPC :1.38226: AVG IPC :0.54017: L2-Pf-HR :0.87563: L2-HR :0.84537: (Sim:2h49m6s) 
Finished CPU 1 instr: 78000001 cyc: 144397615 AVG IPC: 0.54018 (Sim time: 2h49m6s)

ChampSim completed all CPUs

Total Simulation Statistics (not including warmup)

CPU 0 cumulative IPC: 0.55478 instructions: 80108265 cycles: 144397615
Core_0_L1D_total_access 35540894
Core_0_L1D_total_hit 32156520
Core_0_L1D_total_miss 3384374
Core_0_L1D_loads 20220991
Core_0_L1D_load_hit 18430026
Core_0_L1D_load_miss 1790965
Core_0_L1D_RFOs 2148067
Core_0_L1D_RFO_hit 2026443
Core_0_L1D_RFO_miss 121624
Core_0_L1D_prefetches 13171836
Core_0_L1D_prefetch_hit 11700051
Core_0_L1D_prefetch_miss 1471785
Core_0_L1D_writebacks 0
Core_0_L1D_writeback_hit 0
Core_0_L1D_writeback_miss 0

Core_0_L1I_total_access 11355943
Core_0_L1I_total_hit 11351033
Core_0_L1I_total_miss 4910
Core_0_L1I_loads 11355943
Core_0_L1I_load_hit 11351033
Core_0_L1I_load_miss 4910
Core_0_L1I_RFOs 0
Core_0_L1I_RFO_hit 0
Core_0_L1I_RFO_miss 0
Core_0_L1I_prefetches 0
Core_0_L1I_prefetch_hit 0
Core_0_L1I_prefetch_miss 0
Core_0_L1I_writebacks 0
Core_0_L1I_writeback_hit 0
Core_0_L1I_writeback_miss 0

Core_0_L2C_total_access 5697430
Core_0_L2C_total_hit 4929853
Core_0_L2C_total_miss 767577
Core_0_L2C_loads 1469377
Core_0_L2C_load_hit 1209091
Core_0_L2C_load_miss 260286
Core_0_L2C_RFOs 121620
Core_0_L2C_RFO_hit 2676
Core_0_L2C_RFO_miss 118944
Core_0_L2C_prefetches 3612632
Core_0_L2C_prefetch_hit 3224422
Core_0_L2C_prefetch_miss 388210
Core_0_L2C_writebacks 493801
Core_0_L2C_writeback_hit 493664
Core_0_L2C_writeback_miss 137


Core_0_LLC_total_access 1193810
Core_0_LLC_total_hit 467809
Core_0_LLC_total_miss 726001
Core_0_LLC_loads 162273
Core_0_LLC_load_hit 12105
Core_0_LLC_load_miss 150168
Core_0_LLC_RFOs 118942
Core_0_LLC_RFO_hit 47
Core_0_LLC_RFO_miss 118895
Core_0_LLC_prefetches 486223
Core_0_LLC_prefetch_hit 40090
Core_0_LLC_prefetch_miss 446133
Core_0_LLC_writebacks 426372
Core_0_LLC_writeback_hit 415567
Core_0_LLC_writeback_miss 10805


CPU 1 cumulative IPC: 0.54018 instructions: 78000001 cycles: 144397615
Core_1_L1D_total_access 34249871
Core_1_L1D_total_hit 31222384
Core_1_L1D_total_miss 3027487
Core_1_L1D_loads 19647265
Core_1_L1D_load_hit 17990674
Core_1_L1D_load_miss 1656591
Core_1_L1D_RFOs 2142778
Core_1_L1D_RFO_hit 2021148
Core_1_L1D_RFO_miss 121630
Core_1_L1D_prefetches 12459828
Core_1_L1D_prefetch_hit 11210562
Core_1_L1D_prefetch_miss 1249266
Core_1_L1D_writebacks 0
Core_1_L1D_writeback_hit 0
Core_1_L1D_writeback_miss 0

Core_1_L1I_total_access 11152075
Core_1_L1I_total_hit 11147169
Core_1_L1I_total_miss 4906
Core_1_L1I_loads 11152075
Core_1_L1I_load_hit 11147169
Core_1_L1I_load_miss 4906
Core_1_L1I_RFOs 0
Core_1_L1I_RFO_hit 0
Core_1_L1I_RFO_miss 0
Core_1_L1I_prefetches 0
Core_1_L1I_prefetch_hit 0
Core_1_L1I_prefetch_miss 0
Core_1_L1I_writebacks 0
Core_1_L1I_writeback_hit 0
Core_1_L1I_writeback_miss 0

Core_1_L2C_total_access 4859099
Core_1_L2C_total_hit 4107750
Core_1_L2C_total_miss 751349
Core_1_L2C_loads 1301109
Core_1_L2C_load_hit 1035125
Core_1_L2C_load_miss 265984
Core_1_L2C_RFOs 121627
Core_1_L2C_RFO_hit 2601
Core_1_L2C_RFO_miss 119026
Core_1_L2C_prefetches 2944764
Core_1_L2C_prefetch_hit 2578529
Core_1_L2C_prefetch_miss 366235
Core_1_L2C_writebacks 491599
Core_1_L2C_writeback_hit 491495
Core_1_L2C_writeback_miss 104


Core_1_LLC_total_access 1174874
Core_1_LLC_total_hit 464441
Core_1_LLC_total_miss 710433
Core_1_LLC_loads 168446
Core_1_LLC_load_hit 10077
Core_1_LLC_load_miss 158369
Core_1_LLC_RFOs 119020
Core_1_LLC_RFO_hit 88
Core_1_LLC_RFO_miss 118932
Core_1_LLC_prefetches 463777
Core_1_LLC_prefetch_hit 38322
Core_1_LLC_prefetch_miss 425455
Core_1_LLC_writebacks 423631
Core_1_LLC_writeback_hit 415954
Core_1_LLC_writeback_miss 7677


CPU 2 cumulative IPC: 0.54952 instructions: 79349149 cycles: 144397615
Core_2_L1D_total_access 34951041
Core_2_L1D_total_hit 31756890
Core_2_L1D_total_miss 3194151
Core_2_L1D_loads 20012138
Core_2_L1D_load_hit 18283846
Core_2_L1D_load_miss 1728292
Core_2_L1D_RFOs 2146055
Core_2_L1D_RFO_hit 2024426
Core_2_L1D_RFO_miss 121629
Core_2_L1D_prefetches 12792848
Core_2_L1D_prefetch_hit 11448618
Core_2_L1D_prefetch_miss 1344230
Core_2_L1D_writebacks 0
Core_2_L1D_writeback_hit 0
Core_2_L1D_writeback_miss 0

Core_2_L1I_total_access 11285135
Core_2_L1I_total_hit 11280231
Core_2_L1I_total_miss 4904
Core_2_L1I_loads 11285135
Core_2_L1I_load_hit 11280231
Core_2_L1I_load_miss 4904
Core_2_L1I_RFOs 0
Core_2_L1I_RFO_hit 0
Core_2_L1I_RFO_miss 0
Core_2_L1I_prefetches 0
Core_2_L1I_prefetch_hit 0
Core_2_L1I_prefetch_miss 0
Core_2_L1I_writebacks 0
Core_2_L1I_writeback_hit 0
Core_2_L1I_writeback_miss 0

Core_2_L2C_total_access 5320535
Core_2_L2C_total_hit 4560758
Core_2_L2C_total_miss 759777
Core_2_L2C_loads 1389149
Core_2_L2C_load_hit 1134204
Core_2_L2C_load_miss 254945
Core_2_L2C_RFOs 121624
Core_2_L2C_RFO_hit 2639
Core_2_L2C_RFO_miss 118985
Core_2_L2C_prefetches 3316755
Core_2_L2C_prefetch_hit 2930998
Core_2_L2C_prefetch_miss 385757
Core_2_L2C_writebacks 493007
Core_2_L2C_writeback_hit 492917
Core_2_L2C_writeback_miss 90


Core_2_LLC_total_access 1186890
Core_2_LLC_total_hit 465911
Core_2_LLC_total_miss 720979
Core_2_LLC_loads 157172
Core_2_LLC_load_hit 11727
Core_2_LLC_load_miss 145445
Core_2_LLC_RFOs 118980
Core_2_LLC_RFO_hit 76
Core_2_LLC_RFO_miss 118904
Core_2_LLC_prefetches 483537
Core_2_LLC_prefetch_hit 36507
Core_2_LLC_prefetch_miss 447030
Core_2_LLC_writebacks 427201
Core_2_LLC_writeback_hit 417601
Core_2_LLC_writeback_miss 9600


CPU 3 cumulative IPC: 0.54295 instructions: 78401389 cycles: 144397616
Core_3_L1D_total_access 34499023
Core_3_L1D_total_hit 31443447
Core_3_L1D_total_miss 3055576
Core_3_L1D_loads 19752748
Core_3_L1D_load_hit 18073693
Core_3_L1D_load_miss 1679055
Core_3_L1D_RFOs 2144047
Core_3_L1D_RFO_hit 2022414
Core_3_L1D_RFO_miss 121633
Core_3_L1D_prefetches 12602228
Core_3_L1D_prefetch_hit 11347340
Core_3_L1D_prefetch_miss 1254888
Core_3_L1D_writebacks 0
Core_3_L1D_writeback_hit 0
Core_3_L1D_writeback_miss 0

Core_3_L1I_total_access 11192641
Core_3_L1I_total_hit 11187738
Core_3_L1I_total_miss 4903
Core_3_L1I_loads 11192641
Core_3_L1I_load_hit 11187738
Core_3_L1I_load_miss 4903
Core_3_L1I_RFOs 0
Core_3_L1I_RFO_hit 0
Core_3_L1I_RFO_miss 0
Core_3_L1I_prefetches 0
Core_3_L1I_prefetch_hit 0
Core_3_L1I_prefetch_miss 0
Core_3_L1I_writebacks 0
Core_3_L1I_writeback_hit 0
Core_3_L1I_writeback_miss 0

Core_3_L2C_total_access 4980959
Core_3_L2C_total_hit 4221167
Core_3_L2C_total_miss 759792
Core_3_L2C_loads 1316109
Core_3_L2C_load_hit 1047112
Core_3_L2C_load_miss 268997
Core_3_L2C_RFOs 121628
Core_3_L2C_RFO_hit 2634
Core_3_L2C_RFO_miss 118994
Core_3_L2C_prefetches 3051205
Core_3_L2C_prefetch_hit 2679533
Core_3_L2C_prefetch_miss 371672
Core_3_L2C_writebacks 492017
Core_3_L2C_writeback_hit 491888
Core_3_L2C_writeback_miss 129


Core_3_LLC_total_access 1187715
Core_3_LLC_total_hit 470292
Core_3_LLC_total_miss 717423
Core_3_LLC_loads 171602
Core_3_LLC_load_hit 13885
Core_3_LLC_load_miss 157717
Core_3_LLC_RFOs 118993
Core_3_LLC_RFO_hit 82
Core_3_LLC_RFO_miss 118911
Core_3_LLC_prefetches 469066
Core_3_LLC_prefetch_hit 40267
Core_3_LLC_prefetch_miss 428799
Core_3_LLC_writebacks 428054
Core_3_LLC_writeback_hit 416058
Core_3_LLC_writeback_miss 11996


[ROI Statistics]
Core_0_instructions 78000005
Core_0_cycles 142972661
Core_0_IPC 0.54556

Core_0_branch_prediction_accuracy 99.16695
Core_0_branch_MPKI 0.24917
Core_0_average_ROB_occupancy_at_mispredict 436.76675

Core_0_L1D_total_access 34612952
Core_0_L1D_total_hit 31394144 L1D_total_Hit Ratio: 0.90701
Core_0_L1D_total_miss 3218808
Core_0_L1D_loads 19643268
Core_0_L1D_load_hit 17938700 L1D_load_Hit Ratio: 0.91322
Core_0_L1D_load_miss 1704568
Core_0_L1D_RFOs 2143130
Core_0_L1D_RFO_hit 2021506 L1D_RFO_Hit Ratio: 0.94325
Core_0_L1D_RFO_miss 121624
Core_0_L1D_prefetches 12826554
Core_0_L1D_prefetch_hit 11433938 L1D_prefetch_Hit Ratio: 0.89143
Core_0_L1D_prefetch_miss 1392616
Core_0_L1D_writebacks 0
Core_0_L1D_writeback_hit 0 L1D_writeback_Hit Ratio: -nan
Core_0_L1D_writeback_miss 0
Core_0_L1D_prefetch_requested 28317056
Core_0_L1D_prefetch_issued 19354262
Core_0_L1D_prefetch_useful 1182874 L1D_Useful Ratio: 0.06112
Core_0_L1D_prefetch_useless 306531
Core_0_L1D_prefetch_late 326596
Core_0_L1D_average_miss_latency 11231921.86364

Core_0_L1I_total_access 11150145
Core_0_L1I_total_hit 11145239 L1I_total_Hit Ratio: 0.99956
Core_0_L1I_total_miss 4906
Core_0_L1I_loads 11150145
Core_0_L1I_load_hit 11145239 L1I_load_Hit Ratio: 0.99956
Core_0_L1I_load_miss 4906
Core_0_L1I_RFOs 0
Core_0_L1I_RFO_hit 0 L1I_RFO_Hit Ratio: -nan
Core_0_L1I_RFO_miss 0
Core_0_L1I_prefetches 0
Core_0_L1I_prefetch_hit 0 L1I_prefetch_Hit Ratio: -nan
Core_0_L1I_prefetch_miss 0
Core_0_L1I_writebacks 0
Core_0_L1I_writeback_hit 0 L1I_writeback_Hit Ratio: -nan
Core_0_L1I_writeback_miss 0
Core_0_L1I_prefetch_requested 0
Core_0_L1I_prefetch_issued 0
Core_0_L1I_prefetch_useful 0 L1I_Useful Ratio: -nan
Core_0_L1I_prefetch_useless 0
Core_0_L1I_prefetch_late 0
Core_0_L1I_average_miss_latency 875.39197

Core_0_L2C_total_access 5424284
Core_0_L2C_total_hit 4669759 L2C_total_Hit Ratio: 0.86090
Core_0_L2C_total_miss 754525
Core_0_L2C_loads 1397169
Core_0_L2C_load_hit 1138590 L2C_load_Hit Ratio: 0.81493
Core_0_L2C_load_miss 258579
Core_0_L2C_RFOs 121620
Core_0_L2C_RFO_hit 2676 L2C_RFO_Hit Ratio: 0.02200
Core_0_L2C_RFO_miss 118944
Core_0_L2C_prefetches 3413893
Core_0_L2C_prefetch_hit 3037028 L2C_prefetch_Hit Ratio: 0.88961
Core_0_L2C_prefetch_miss 376865
Core_0_L2C_writebacks 491602
Core_0_L2C_writeback_hit 491465 L2C_writeback_Hit Ratio: 0.99972
Core_0_L2C_writeback_miss 137
Core_0_L2C_prefetch_requested 3270328
Core_0_L2C_prefetch_issued 3221291
Core_0_L2C_prefetch_useful 59557 L2C_Useful Ratio: 0.01849
Core_0_L2C_prefetch_useless 323812
Core_0_L2C_prefetch_late 98434
Core_0_L2C_average_miss_latency 841.03563

Core_0_LLC_total_access 1179452
Core_0_LLC_total_hit 465743 LLC_total_Hit Ratio: 0.39488
Core_0_LLC_total_miss 713709
Core_0_LLC_loads 160671
Core_0_LLC_load_hit 11964 LLC_load_Hit Ratio: 0.07446
Core_0_LLC_load_miss 148707
Core_0_LLC_RFOs 118942
Core_0_LLC_RFO_hit 47 LLC_RFO_Hit Ratio: 0.00040
Core_0_LLC_RFO_miss 118895
Core_0_LLC_prefetches 474773
Core_0_LLC_prefetch_hit 39446 LLC_prefetch_Hit Ratio: 0.08308
Core_0_LLC_prefetch_miss 435327
Core_0_LLC_writebacks 425066
Core_0_LLC_writeback_hit 414286 LLC_writeback_Hit Ratio: 0.97464
Core_0_LLC_writeback_miss 10780
Core_0_LLC_prefetch_requested 0
Core_0_LLC_prefetch_issued 0
Core_0_LLC_prefetch_useful 24442 LLC_Useful Ratio: inf
Core_0_LLC_prefetch_useless 1587411
Core_0_LLC_prefetch_late 0
Core_0_LLC_average_miss_latency 3460.86144

Core_0_major_page_fault 0
Core_0_minor_page_fault 6104

Core_1_instructions 78000001
Core_1_cycles 144397615
Core_1_IPC 0.54018

Core_1_branch_prediction_accuracy 99.16542
Core_1_branch_MPKI 0.25491
Core_1_average_ROB_occupancy_at_mispredict 436.76337

Core_1_L1D_total_access 34249871
Core_1_L1D_total_hit 31222384 L1D_total_Hit Ratio: 0.91161
Core_1_L1D_total_miss 3027487
Core_1_L1D_loads 19647265
Core_1_L1D_load_hit 17990674 L1D_load_Hit Ratio: 0.91568
Core_1_L1D_load_miss 1656591
Core_1_L1D_RFOs 2142778
Core_1_L1D_RFO_hit 2021148 L1D_RFO_Hit Ratio: 0.94324
Core_1_L1D_RFO_miss 121630
Core_1_L1D_prefetches 12459828
Core_1_L1D_prefetch_hit 11210562 L1D_prefetch_Hit Ratio: 0.89974
Core_1_L1D_prefetch_miss 1249266
Core_1_L1D_writebacks 0
Core_1_L1D_writeback_hit 0 L1D_writeback_Hit Ratio: -nan
Core_1_L1D_writeback_miss 0
Core_1_L1D_prefetch_requested 26354208
Core_1_L1D_prefetch_issued 18953277
Core_1_L1D_prefetch_useful 1176643 L1D_Useful Ratio: 0.06208
Core_1_L1D_prefetch_useless 90266
Core_1_L1D_prefetch_late 360479
Core_1_L1D_average_miss_latency 13593138.29713

Core_1_L1I_total_access 11152075
Core_1_L1I_total_hit 11147169 L1I_total_Hit Ratio: 0.99956
Core_1_L1I_total_miss 4906
Core_1_L1I_loads 11152075
Core_1_L1I_load_hit 11147169 L1I_load_Hit Ratio: 0.99956
Core_1_L1I_load_miss 4906
Core_1_L1I_RFOs 0
Core_1_L1I_RFO_hit 0 L1I_RFO_Hit Ratio: -nan
Core_1_L1I_RFO_miss 0
Core_1_L1I_prefetches 0
Core_1_L1I_prefetch_hit 0 L1I_prefetch_Hit Ratio: -nan
Core_1_L1I_prefetch_miss 0
Core_1_L1I_writebacks 0
Core_1_L1I_writeback_hit 0 L1I_writeback_Hit Ratio: -nan
Core_1_L1I_writeback_miss 0
Core_1_L1I_prefetch_requested 0
Core_1_L1I_prefetch_issued 0
Core_1_L1I_prefetch_useful 0 L1I_Useful Ratio: -nan
Core_1_L1I_prefetch_useless 0
Core_1_L1I_prefetch_late 0
Core_1_L1I_average_miss_latency 1098.09376

Core_1_L2C_total_access 4859099
Core_1_L2C_total_hit 4107750 L2C_total_Hit Ratio: 0.84537
Core_1_L2C_total_miss 751349
Core_1_L2C_loads 1301109
Core_1_L2C_load_hit 1035125 L2C_load_Hit Ratio: 0.79557
Core_1_L2C_load_miss 265984
Core_1_L2C_RFOs 121627
Core_1_L2C_RFO_hit 2601 L2C_RFO_Hit Ratio: 0.02139
Core_1_L2C_RFO_miss 119026
Core_1_L2C_prefetches 2944764
Core_1_L2C_prefetch_hit 2578529 L2C_prefetch_Hit Ratio: 0.87563
Core_1_L2C_prefetch_miss 366235
Core_1_L2C_writebacks 491599
Core_1_L2C_writeback_hit 491495 L2C_writeback_Hit Ratio: 0.99979
Core_1_L2C_writeback_miss 104
Core_1_L2C_prefetch_requested 2839854
Core_1_L2C_prefetch_issued 2821774
Core_1_L2C_prefetch_useful 47322 L2C_Useful Ratio: 0.01677
Core_1_L2C_prefetch_useless 313339
Core_1_L2C_prefetch_late 97896
Core_1_L2C_average_miss_latency 841.36719

Core_1_LLC_total_access 1174874
Core_1_LLC_total_hit 464441 LLC_total_Hit Ratio: 0.39531
Core_1_LLC_total_miss 710433
Core_1_LLC_loads 168446
Core_1_LLC_load_hit 10077 LLC_load_Hit Ratio: 0.05982
Core_1_LLC_load_miss 158369
Core_1_LLC_RFOs 119020
Core_1_LLC_RFO_hit 88 LLC_RFO_Hit Ratio: 0.00074
Core_1_LLC_RFO_miss 118932
Core_1_LLC_prefetches 463777
Core_1_LLC_prefetch_hit 38322 LLC_prefetch_Hit Ratio: 0.08263
Core_1_LLC_prefetch_miss 425455
Core_1_LLC_writebacks 423631
Core_1_LLC_writeback_hit 415954 LLC_writeback_Hit Ratio: 0.98188
Core_1_LLC_writeback_miss 7677
Core_1_LLC_prefetch_requested 0
Core_1_LLC_prefetch_issued 0
Core_1_LLC_prefetch_useful 24442 LLC_Useful Ratio: inf
Core_1_LLC_prefetch_useless 1587411
Core_1_LLC_prefetch_late 0
Core_1_LLC_average_miss_latency 3476.82042

Core_1_major_page_fault 0
Core_1_minor_page_fault 6067

Core_2_instructions 78000000
Core_2_cycles 143461416
Core_2_IPC 0.54370

Core_2_branch_prediction_accuracy 99.16667
Core_2_branch_MPKI 0.25112
Core_2_average_ROB_occupancy_at_mispredict 436.65819

Core_2_L1D_total_access 34358659
Core_2_L1D_total_hit 31262769 L1D_total_Hit Ratio: 0.90989
Core_2_L1D_total_miss 3095890
Core_2_L1D_loads 19641889
Core_2_L1D_load_hit 17967540 L1D_load_Hit Ratio: 0.91476
Core_2_L1D_load_miss 1674349
Core_2_L1D_RFOs 2142903
Core_2_L1D_RFO_hit 2021274 L1D_RFO_Hit Ratio: 0.94324
Core_2_L1D_RFO_miss 121629
Core_2_L1D_prefetches 12573867
Core_2_L1D_prefetch_hit 11273955 L1D_prefetch_Hit Ratio: 0.89662
Core_2_L1D_prefetch_miss 1299912
Core_2_L1D_writebacks 0
Core_2_L1D_writeback_hit 0 L1D_writeback_Hit Ratio: -nan
Core_2_L1D_writeback_miss 0
Core_2_L1D_prefetch_requested 27395365
Core_2_L1D_prefetch_issued 19125441
Core_2_L1D_prefetch_useful 1194132 L1D_Useful Ratio: 0.06244
Core_2_L1D_prefetch_useless 167629
Core_2_L1D_prefetch_late 344165
Core_2_L1D_average_miss_latency 12504420.56457

Core_2_L1I_total_access 11153184
Core_2_L1I_total_hit 11148280 L1I_total_Hit Ratio: 0.99956
Core_2_L1I_total_miss 4904
Core_2_L1I_loads 11153184
Core_2_L1I_load_hit 11148280 L1I_load_Hit Ratio: 0.99956
Core_2_L1I_load_miss 4904
Core_2_L1I_RFOs 0
Core_2_L1I_RFO_hit 0 L1I_RFO_Hit Ratio: -nan
Core_2_L1I_RFO_miss 0
Core_2_L1I_prefetches 0
Core_2_L1I_prefetch_hit 0 L1I_prefetch_Hit Ratio: -nan
Core_2_L1I_prefetch_miss 0
Core_2_L1I_writebacks 0
Core_2_L1I_writeback_hit 0 L1I_writeback_Hit Ratio: -nan
Core_2_L1I_writeback_miss 0
Core_2_L1I_prefetch_requested 0
Core_2_L1I_prefetch_issued 0
Core_2_L1I_prefetch_useful 0 L1I_Useful Ratio: -nan
Core_2_L1I_prefetch_useless 0
Core_2_L1I_prefetch_late 0
Core_2_L1I_average_miss_latency 869.68026

Core_2_L2C_total_access 5162454
Core_2_L2C_total_hit 4410884 L2C_total_Hit Ratio: 0.85442
Core_2_L2C_total_miss 751570
Core_2_L2C_loads 1345160
Core_2_L2C_load_hit 1091346 L2C_load_Hit Ratio: 0.81131
Core_2_L2C_load_miss 253814
Core_2_L2C_RFOs 121624
Core_2_L2C_RFO_hit 2639 L2C_RFO_Hit Ratio: 0.02170
Core_2_L2C_RFO_miss 118985
Core_2_L2C_prefetches 3204072
Core_2_L2C_prefetch_hit 2825391 L2C_prefetch_Hit Ratio: 0.88181
Core_2_L2C_prefetch_miss 378681
Core_2_L2C_writebacks 491598
Core_2_L2C_writeback_hit 491508 L2C_writeback_Hit Ratio: 0.99982
Core_2_L2C_writeback_miss 90
Core_2_L2C_prefetch_requested 3046202
Core_2_L2C_prefetch_issued 3009110
Core_2_L2C_prefetch_useful 62017 L2C_Useful Ratio: 0.02061
Core_2_L2C_prefetch_useless 316310
Core_2_L2C_prefetch_late 98269
Core_2_L2C_average_miss_latency 847.27578

Core_2_LLC_total_access 1178045
Core_2_LLC_total_hit 465372 LLC_total_Hit Ratio: 0.39504
Core_2_LLC_total_miss 712673
Core_2_LLC_loads 156129
Core_2_LLC_load_hit 11727 LLC_load_Hit Ratio: 0.07511
Core_2_LLC_load_miss 144402
Core_2_LLC_RFOs 118980
Core_2_LLC_RFO_hit 76 LLC_RFO_Hit Ratio: 0.00064
Core_2_LLC_RFO_miss 118904
Core_2_LLC_prefetches 476368
Core_2_LLC_prefetch_hit 36507 LLC_prefetch_Hit Ratio: 0.07664
Core_2_LLC_prefetch_miss 439861
Core_2_LLC_writebacks 426568
Core_2_LLC_writeback_hit 417062 LLC_writeback_Hit Ratio: 0.97772
Core_2_LLC_writeback_miss 9506
Core_2_LLC_prefetch_requested 0
Core_2_LLC_prefetch_issued 0
Core_2_LLC_prefetch_useful 24442 LLC_Useful Ratio: inf
Core_2_LLC_prefetch_useless 1587411
Core_2_LLC_prefetch_late 0
Core_2_LLC_average_miss_latency 3465.89244

Core_2_major_page_fault 0
Core_2_minor_page_fault 6087

Core_3_instructions 78000005
Core_3_cycles 144104938
Core_3_IPC 0.54127

Core_3_branch_prediction_accuracy 99.16579
Core_3_branch_MPKI 0.25377
Core_3_average_ROB_occupancy_at_mispredict 436.90943

Core_3_L1D_total_access 34326205
Core_3_L1D_total_hit 31298350 L1D_total_Hit Ratio: 0.91179
Core_3_L1D_total_miss 3027855
Core_3_L1D_loads 19643157
Core_3_L1D_load_hit 17979948 L1D_load_Hit Ratio: 0.91533
Core_3_L1D_load_miss 1663209
Core_3_L1D_RFOs 2143106
Core_3_L1D_RFO_hit 2021473 L1D_RFO_Hit Ratio: 0.94324
Core_3_L1D_RFO_miss 121633
Core_3_L1D_prefetches 12539942
Core_3_L1D_prefetch_hit 11296929 L1D_prefetch_Hit Ratio: 0.90088
Core_3_L1D_prefetch_miss 1243013
Core_3_L1D_writebacks 0
Core_3_L1D_writeback_hit 0 L1D_writeback_Hit Ratio: -nan
Core_3_L1D_writeback_miss 0
Core_3_L1D_prefetch_requested 26872166
Core_3_L1D_prefetch_issued 18923053
Core_3_L1D_prefetch_useful 1180902 L1D_Useful Ratio: 0.06241
Core_3_L1D_prefetch_useless 91606
Core_3_L1D_prefetch_late 367932
Core_3_L1D_average_miss_latency 13876267.82632

Core_3_L1I_total_access 11153299
Core_3_L1I_total_hit 11148396 L1I_total_Hit Ratio: 0.99956
Core_3_L1I_total_miss 4903
Core_3_L1I_loads 11153299
Core_3_L1I_load_hit 11148396 L1I_load_Hit Ratio: 0.99956
Core_3_L1I_load_miss 4903
Core_3_L1I_RFOs 0
Core_3_L1I_RFO_hit 0 L1I_RFO_Hit Ratio: -nan
Core_3_L1I_RFO_miss 0
Core_3_L1I_prefetches 0
Core_3_L1I_prefetch_hit 0 L1I_prefetch_Hit Ratio: -nan
Core_3_L1I_prefetch_miss 0
Core_3_L1I_writebacks 0
Core_3_L1I_writeback_hit 0 L1I_writeback_Hit Ratio: -nan
Core_3_L1I_writeback_miss 0
Core_3_L1I_prefetch_requested 0
Core_3_L1I_prefetch_issued 0
Core_3_L1I_prefetch_useful 0 L1I_Useful Ratio: -nan
Core_3_L1I_prefetch_useless 0
Core_3_L1I_prefetch_late 0
Core_3_L1I_average_miss_latency 930.03998

Core_3_L2C_total_access 4937929
Core_3_L2C_total_hit 4180747 L2C_total_Hit Ratio: 0.84666
Core_3_L2C_total_miss 757182
Core_3_L2C_loads 1303770
Core_3_L2C_load_hit 1035121 L2C_load_Hit Ratio: 0.79394
Core_3_L2C_load_miss 268649
Core_3_L2C_RFOs 121628
Core_3_L2C_RFO_hit 2634 L2C_RFO_Hit Ratio: 0.02166
Core_3_L2C_RFO_miss 118994
Core_3_L2C_prefetches 3020933
Core_3_L2C_prefetch_hit 2651523 L2C_prefetch_Hit Ratio: 0.87772
Core_3_L2C_prefetch_miss 369410
Core_3_L2C_writebacks 491598
Core_3_L2C_writeback_hit 491469 L2C_writeback_Hit Ratio: 0.99974
Core_3_L2C_writeback_miss 129
Core_3_L2C_prefetch_requested 2899668
Core_3_L2C_prefetch_issued 2881138
Core_3_L2C_prefetch_useful 48808 L2C_Useful Ratio: 0.01694
Core_3_L2C_prefetch_useless 316227
Core_3_L2C_prefetch_late 97879
Core_3_L2C_average_miss_latency 839.22031

Core_3_LLC_total_access 1184725
Core_3_LLC_total_hit 469923 LLC_total_Hit Ratio: 0.39665
Core_3_LLC_total_miss 714802
Core_3_LLC_loads 171271
Core_3_LLC_load_hit 13885 LLC_load_Hit Ratio: 0.08107
Core_3_LLC_load_miss 157386
Core_3_LLC_RFOs 118993
Core_3_LLC_RFO_hit 82 LLC_RFO_Hit Ratio: 0.00069
Core_3_LLC_RFO_miss 118911
Core_3_LLC_prefetches 466787
Core_3_LLC_prefetch_hit 40267 LLC_prefetch_Hit Ratio: 0.08626
Core_3_LLC_prefetch_miss 426520
Core_3_LLC_writebacks 427674
Core_3_LLC_writeback_hit 415689 LLC_writeback_Hit Ratio: 0.97198
Core_3_LLC_writeback_miss 11985
Core_3_LLC_prefetch_requested 0
Core_3_LLC_prefetch_issued 0
Core_3_LLC_prefetch_useful 24442 LLC_Useful Ratio: inf
Core_3_LLC_prefetch_useless 1587411
Core_3_LLC_prefetch_late 0
Core_3_LLC_average_miss_latency 3455.56946

Core_3_major_page_fault 0
Core_3_minor_page_fault 6073





Channel_0_RQ_row_buffer_hit 1098165
Channel_0_RQ_row_buffer_miss 1736591
Channel_0_WQ_row_buffer_hit 563904
Channel_0_WQ_row_buffer_miss 1074091
Channel_0_WQ_full 458
Channel_0_dbus_congested 2946294

avg_congested_cycle 10

EzSearch AVG IPC :0.54556: L2-Pf-HR :0.88961 : L2-HR :0.86528 Uful:0.01849
EzSearch AVG IPC :0.54018: L2-Pf-HR :0.87563 : L2-HR :0.84537 Uful:0.01677
EzSearch AVG IPC :0.54370: L2-Pf-HR :0.88181 : L2-HR :0.85720 Uful:0.02061
EzSearch AVG IPC :0.54127: L2-Pf-HR :0.87772 : L2-HR :0.84746 Uful:0.01694
     > Finished combination: TraceType=770-tot Sim:78000000 Prefetcher=L2ipcp L1=ipcp
