TRACE: [103000000]_FE_[GPT-Neo_2_7B]_[h32]_[s256]_[d80] Warmup: 2000000 NumTraces: 103000000
L1:next_line:L2:029-SecTOP-L2-MultiMarkovDelta_ip_stride_v4-IPStrS256
*************************************************
   ChampSim Multicore Out-of-Order Simulator
   Last compiled: Oct 28 2024 08:43:58
*************************************************

trace_0 770-tot_memTraces_v3/memTraces[103000000]_FE_[GPT-Neo_2_7B]_[h32]_[s256]_[d80].champsim.xz
trace_1 770-tot_memTraces_v3/memTraces[103000000]_FE_[GPT-Neo_2_7B]_[h32]_[s256]_[d80].champsim.xz
trace_2 770-tot_memTraces_v3/memTraces[103000000]_FE_[GPT-Neo_2_7B]_[h32]_[s256]_[d80].champsim.xz
trace_3 770-tot_memTraces_v3/memTraces[103000000]_FE_[GPT-Neo_2_7B]_[h32]_[s256]_[d80].champsim.xz
CPU 0 L1D next line prefetcher
MK1: Size: 128 TMAX: 64 TMIN: 32 MKPTHRESH: 40
MK2: Size: 256 TMAX: 32 TMIN: 16 MK2PTHRESH: 30
MK3: Size: 384 TMAX: 16 TMIN: 8 MK3PTHRESH: 25
MK4: Size: 512 TMAX: 8 TMIN: 0 MK4PTHRESH: 20
Stride Size: 256 Prefetch Degree: 15

CPU 0 L2C prefetcher
CPU 1 L1D next line prefetcher
MK1: Size: 128 TMAX: 64 TMIN: 32 MKPTHRESH: 40
MK2: Size: 256 TMAX: 32 TMIN: 16 MK2PTHRESH: 30
MK3: Size: 384 TMAX: 16 TMIN: 8 MK3PTHRESH: 25
MK4: Size: 512 TMAX: 8 TMIN: 0 MK4PTHRESH: 20
Stride Size: 256 Prefetch Degree: 15

CPU 1 L2C prefetcher
CPU 2 L1D next line prefetcher
MK1: Size: 128 TMAX: 64 TMIN: 32 MKPTHRESH: 40
MK2: Size: 256 TMAX: 32 TMIN: 16 MK2PTHRESH: 30
MK3: Size: 384 TMAX: 16 TMIN: 8 MK3PTHRESH: 25
MK4: Size: 512 TMAX: 8 TMIN: 0 MK4PTHRESH: 20
Stride Size: 256 Prefetch Degree: 15

CPU 2 L2C prefetcher
CPU 3 L1D next line prefetcher
MK1: Size: 128 TMAX: 64 TMIN: 32 MKPTHRESH: 40
MK2: Size: 256 TMAX: 32 TMIN: 16 MK2PTHRESH: 30
MK3: Size: 384 TMAX: 16 TMIN: 8 MK3PTHRESH: 25
MK4: Size: 512 TMAX: 8 TMIN: 0 MK4PTHRESH: 20
Stride Size: 256 Prefetch Degree: 15

CPU 3 L2C prefetcher
MAIN.cc ln 751 stats print skipped
CPU 0 L2C prefetcher initialized


Cache Size: 1280
number of cache lines: 20480
CPU  3 inst:    1000001 cyc:     502870 now IPC :1.98859: AVG IPC :1.98859: L2-Pf-HR :0.81999: L2-HR :0.79618: (Sim:0h1m36s) 
CPU  1 inst:    1000001 cyc:     502883 now IPC :1.98854: AVG IPC :1.98854: L2-Pf-HR :0.82132: L2-HR :0.79707: (Sim:0h1m36s) 
CPU  2 inst:    1000001 cyc:     503207 now IPC :1.98726: AVG IPC :1.98726: L2-Pf-HR :0.81230: L2-HR :0.79373: (Sim:0h1m36s) 
CPU  0 inst:    1000001 cyc:     503222 now IPC :1.98720: AVG IPC :1.98720: L2-Pf-HR :0.81409: L2-HR :0.79302: (Sim:0h1m36s) 
CPU  3 inst:    2000002 cyc:     991687 now IPC :2.04576: AVG IPC :2.01677: L2-Pf-HR :0.87611: L2-HR :0.86067: (Sim:0h3m21s) 
CPU  1 inst:    2000002 cyc:     991740 now IPC :2.04559: AVG IPC :2.01666: L2-Pf-HR :0.87448: L2-HR :0.85960: (Sim:0h3m21s) 
CPU  0 inst:    2000002 cyc:     992081 now IPC :2.04558: AVG IPC :2.01597: L2-Pf-HR :0.87063: L2-HR :0.85716: (Sim:0h3m21s) 
CPU  2 inst:    2000002 cyc:     992112 now IPC :2.04539: AVG IPC :2.01590: L2-Pf-HR :0.87092: L2-HR :0.85823: (Sim:0h3m21s) 

Warmup complete CPU  0 instructions:    2000099 cycles:     992112 (Simulation time: 0 hr 3 min 21 sec) 
Warmup complete CPU  1 instructions:    2000876 cycles:     992112 (Simulation time: 0 hr 3 min 21 sec) 
Warmup complete CPU  2 instructions:    2000002 cycles:     992112 (Simulation time: 0 hr 3 min 21 sec) 
Warmup complete CPU  3 instructions:    2000912 cycles:     992111 (Simulation time: 0 hr 3 min 21 sec) 

CPU  0 inst:    3000002 cyc:    1594342 now IPC :1.66041: AVG IPC :1.66033: L2-Pf-HR :0.92836: L2-HR :0.92371: (Sim:0h4m50s) 
CPU  3 inst:    3000002 cyc:    1594723 now IPC :1.65828: AVG IPC :1.65793: L2-Pf-HR :0.92908: L2-HR :0.92402: (Sim:0h4m50s) 
CPU  2 inst:    3000002 cyc:    1598873 now IPC :1.64810: AVG IPC :1.64810: L2-Pf-HR :0.92932: L2-HR :0.92468: (Sim:0h4m51s) 
CPU  1 inst:    3000002 cyc:    1599175 now IPC :1.64627: AVG IPC :1.64584: L2-Pf-HR :0.92932: L2-HR :0.92481: (Sim:0h4m51s) 
CPU  0 inst:    4000002 cyc:    2086379 now IPC :2.03237: AVG IPC :1.82762: L2-Pf-HR :0.93884: L2-HR :0.93803: (Sim:0h6m14s) 
CPU  2 inst:    4000002 cyc:    2086708 now IPC :2.04987: AVG IPC :1.82716: L2-Pf-HR :0.93901: L2-HR :0.93845: (Sim:0h6m14s) 
CPU  1 inst:    4000002 cyc:    2086896 now IPC :2.05035: AVG IPC :1.82605: L2-Pf-HR :0.93959: L2-HR :0.93897: (Sim:0h6m14s) 
CPU  3 inst:    4000002 cyc:    2087133 now IPC :2.03083: AVG IPC :1.82562: L2-Pf-HR :0.93942: L2-HR :0.93836: (Sim:0h6m14s) 
CPU  2 inst:    5000003 cyc:    2689872 now IPC :1.65793: AVG IPC :1.76703: L2-Pf-HR :0.92568: L2-HR :0.92629: (Sim:0h7m20s) 
CPU  0 inst:    5000003 cyc:    2690037 now IPC :1.65657: AVG IPC :1.76681: L2-Pf-HR :0.92580: L2-HR :0.92629: (Sim:0h7m20s) 
CPU  3 inst:    5000003 cyc:    2690322 now IPC :1.65786: AVG IPC :1.76603: L2-Pf-HR :0.92537: L2-HR :0.92586: (Sim:0h7m20s) 
CPU  1 inst:    5000003 cyc:    2690516 now IPC :1.65667: AVG IPC :1.76585: L2-Pf-HR :0.92590: L2-HR :0.92655: (Sim:0h7m20s) 
CPU  3 inst:    6000002 cyc:    3284903 now IPC :1.68185: AVG IPC :1.74420: L2-Pf-HR :0.92177: L2-HR :0.92234: (Sim:0h8m50s) 
CPU  2 inst:    6000002 cyc:    3285337 now IPC :1.67936: AVG IPC :1.74427: L2-Pf-HR :0.92234: L2-HR :0.92279: (Sim:0h8m50s) 
CPU  1 inst:    6000002 cyc:    3286570 now IPC :1.67770: AVG IPC :1.74295: L2-Pf-HR :0.92209: L2-HR :0.92282: (Sim:0h8m51s) 
CPU  0 inst:    6000002 cyc:    3288965 now IPC :1.66965: AVG IPC :1.74147: L2-Pf-HR :0.92198: L2-HR :0.92254: (Sim:0h8m51s) 
CPU  1 inst:    7000001 cyc:    3885110 now IPC :1.67073: AVG IPC :1.72801: L2-Pf-HR :0.92231: L2-HR :0.92225: (Sim:0h10m25s) 
CPU  3 inst:    7000001 cyc:    3885403 now IPC :1.66528: AVG IPC :1.72782: L2-Pf-HR :0.92159: L2-HR :0.92161: (Sim:0h10m25s) 
CPU  2 inst:    7000001 cyc:    3885675 now IPC :1.66573: AVG IPC :1.72797: L2-Pf-HR :0.92216: L2-HR :0.92221: (Sim:0h10m25s) 
CPU  0 inst:    7000001 cyc:    3886255 now IPC :1.67423: AVG IPC :1.72759: L2-Pf-HR :0.92162: L2-HR :0.92153: (Sim:0h10m25s) 
CPU  2 inst:    8000003 cyc:    4455300 now IPC :1.75554: AVG IPC :1.73251: L2-Pf-HR :0.92442: L2-HR :0.92403: (Sim:0h11m56s) 
CPU  1 inst:    8000003 cyc:    4455677 now IPC :1.75265: AVG IPC :1.73207: L2-Pf-HR :0.92445: L2-HR :0.92397: (Sim:0h11m56s) 
CPU  3 inst:    8000003 cyc:    4456028 now IPC :1.75247: AVG IPC :1.73188: L2-Pf-HR :0.92411: L2-HR :0.92380: (Sim:0h11m56s) 
CPU  0 inst:    8000003 cyc:    4456233 now IPC :1.75446: AVG IPC :1.73201: L2-Pf-HR :0.92283: L2-HR :0.92169: (Sim:0h11m56s) 
CPU  0 inst:    9000001 cyc:    5007417 now IPC :1.81427: AVG IPC :1.74331: L2-Pf-HR :0.92240: L2-HR :0.92232: (Sim:0h13m24s) 
CPU  3 inst:    9000001 cyc:    5010459 now IPC :1.80365: AVG IPC :1.74178: L2-Pf-HR :0.92381: L2-HR :0.92432: (Sim:0h13m25s) 
CPU  1 inst:    9000001 cyc:    5010510 now IPC :1.80234: AVG IPC :1.74177: L2-Pf-HR :0.92396: L2-HR :0.92439: (Sim:0h13m25s) 
CPU  2 inst:    9000001 cyc:    5010661 now IPC :1.80063: AVG IPC :1.74192: L2-Pf-HR :0.92391: L2-HR :0.92448: (Sim:0h13m25s) 
CPU  0 inst:   10000001 cyc:    5757213 now IPC :1.33370: AVG IPC :1.67885: L2-Pf-HR :0.92171: L2-HR :0.92142: (Sim:0h15m0s) 
CPU  2 inst:   10000001 cyc:    5807392 now IPC :1.25513: AVG IPC :1.66138: L2-Pf-HR :0.92241: L2-HR :0.92282: (Sim:0h15m8s) 
CPU  1 inst:   10000001 cyc:    5807594 now IPC :1.25457: AVG IPC :1.66113: L2-Pf-HR :0.92236: L2-HR :0.92269: (Sim:0h15m9s) 
CPU  3 inst:   10000001 cyc:    5808064 now IPC :1.25375: AVG IPC :1.66096: L2-Pf-HR :0.92236: L2-HR :0.92267: (Sim:0h15m9s) 
CPU  0 inst:   11000003 cyc:    6547962 now IPC :1.26463: AVG IPC :1.61990: L2-Pf-HR :0.92329: L2-HR :0.92249: (Sim:0h16m33s) 
CPU  2 inst:   11000003 cyc:    6737187 now IPC :1.07551: AVG IPC :1.56656: L2-Pf-HR :0.92229: L2-HR :0.92239: (Sim:0h17m0s) 
CPU  3 inst:   11000003 cyc:    6737455 now IPC :1.07598: AVG IPC :1.56633: L2-Pf-HR :0.92254: L2-HR :0.92245: (Sim:0h17m0s) 
CPU  1 inst:   11000003 cyc:    6737506 now IPC :1.07537: AVG IPC :1.56632: L2-Pf-HR :0.92230: L2-HR :0.92234: (Sim:0h17m0s) 
CPU  0 inst:   12000001 cyc:    7209650 now IPC :1.51128: AVG IPC :1.60834: L2-Pf-HR :0.92419: L2-HR :0.92320: (Sim:0h18m12s) 
CPU  2 inst:   12000001 cyc:    7688458 now IPC :1.05122: AVG IPC :1.49335: L2-Pf-HR :0.92321: L2-HR :0.92294: (Sim:0h18m54s) 
CPU  3 inst:   12000001 cyc:    7712303 now IPC :1.02580: AVG IPC :1.48792: L2-Pf-HR :0.92324: L2-HR :0.92279: (Sim:0h18m57s) 
CPU  1 inst:   12000001 cyc:    7726914 now IPC :1.01070: AVG IPC :1.48469: L2-Pf-HR :0.92289: L2-HR :0.92259: (Sim:0h18m58s) 
CPU  0 inst:   13000001 cyc:    7906529 now IPC :1.43497: AVG IPC :1.59086: L2-Pf-HR :0.92663: L2-HR :0.92595: (Sim:0h19m22s) 
CPU  1 inst:   13000001 cyc:    8337614 now IPC :1.63747: AVG IPC :1.49740: L2-Pf-HR :0.92353: L2-HR :0.92400: (Sim:0h20m21s) 
CPU  3 inst:   13000001 cyc:    8339384 now IPC :1.59469: AVG IPC :1.49703: L2-Pf-HR :0.92379: L2-HR :0.92409: (Sim:0h20m21s) 
CPU  2 inst:   13000001 cyc:    8340097 now IPC :1.53459: AVG IPC :1.49701: L2-Pf-HR :0.92379: L2-HR :0.92423: (Sim:0h20m21s) 
CPU  0 inst:   14000003 cyc:    8764447 now IPC :1.16561: AVG IPC :1.54393: L2-Pf-HR :0.92672: L2-HR :0.92599: (Sim:0h21m7s) 
CPU  1 inst:   14000003 cyc:    9234389 now IPC :1.11511: AVG IPC :1.45580: L2-Pf-HR :0.92276: L2-HR :0.92322: (Sim:0h22m15s) 
CPU  2 inst:   14000003 cyc:    9275904 now IPC :1.06860: AVG IPC :1.44861: L2-Pf-HR :0.92246: L2-HR :0.92308: (Sim:0h22m22s) 
CPU  3 inst:   14000003 cyc:    9277408 now IPC :1.06607: AVG IPC :1.44824: L2-Pf-HR :0.92239: L2-HR :0.92284: (Sim:0h22m22s) 
CPU  0 inst:   15000002 cyc:    9574146 now IPC :1.23503: AVG IPC :1.51478: L2-Pf-HR :0.92704: L2-HR :0.92604: (Sim:0h23m10s) 
CPU  1 inst:   15000002 cyc:   10055417 now IPC :1.21798: AVG IPC :1.43426: L2-Pf-HR :0.92396: L2-HR :0.92394: (Sim:0h24m8s) 
CPU  2 inst:   15000002 cyc:   10181829 now IPC :1.10384: AVG IPC :1.41462: L2-Pf-HR :0.92308: L2-HR :0.92332: (Sim:0h24m26s) 
CPU  3 inst:   15000002 cyc:   10183877 now IPC :1.10318: AVG IPC :1.41421: L2-Pf-HR :0.92314: L2-HR :0.92316: (Sim:0h24m26s) 
CPU  0 inst:   16000002 cyc:   10470831 now IPC :1.11522: AVG IPC :1.47698: L2-Pf-HR :0.92912: L2-HR :0.92760: (Sim:0h25m6s) 
CPU  1 inst:   16000002 cyc:   10924850 now IPC :1.15017: AVG IPC :1.40939: L2-Pf-HR :0.92544: L2-HR :0.92500: (Sim:0h26m3s) 
CPU  0 inst:   17000004 cyc:   11061553 now IPC :1.69285: AVG IPC :1.48965: L2-Pf-HR :0.93166: L2-HR :0.93016: (Sim:0h26m21s) 
CPU  2 inst:   16000002 cyc:   11079246 now IPC :1.11431: AVG IPC :1.38791: L2-Pf-HR :0.92416: L2-HR :0.92406: (Sim:0h26m24s) 
CPU  3 inst:   16000002 cyc:   11084851 now IPC :1.10991: AVG IPC :1.38705: L2-Pf-HR :0.92432: L2-HR :0.92400: (Sim:0h26m25s) 
CPU  1 inst:   17000004 cyc:   11526836 now IPC :1.66117: AVG IPC :1.42378: L2-Pf-HR :0.92805: L2-HR :0.92758: (Sim:0h27m32s) 
CPU  2 inst:   17000004 cyc:   11686175 now IPC :1.64764: AVG IPC :1.40265: L2-Pf-HR :0.92663: L2-HR :0.92651: (Sim:0h27m57s) 
CPU  3 inst:   17000004 cyc:   11687275 now IPC :1.65996: AVG IPC :1.40242: L2-Pf-HR :0.92680: L2-HR :0.92647: (Sim:0h27m57s) 
CPU  0 inst:   18000000 cyc:   11863135 now IPC :1.24753: AVG IPC :1.47179: L2-Pf-HR :0.93176: L2-HR :0.93014: (Sim:0h28m19s) 
CPU  1 inst:   18000000 cyc:   12281100 now IPC :1.32579: AVG IPC :1.41723: L2-Pf-HR :0.92887: L2-HR :0.92809: (Sim:0h29m9s) 
CPU  3 inst:   18000000 cyc:   12613204 now IPC :1.07999: AVG IPC :1.37673: L2-Pf-HR :0.92710: L2-HR :0.92654: (Sim:0h30m1s) 
CPU  2 inst:   18000000 cyc:   12618637 now IPC :1.07243: AVG IPC :1.37616: L2-Pf-HR :0.92695: L2-HR :0.92657: (Sim:0h30m2s) 
CPU  0 inst:   19000001 cyc:   12721780 now IPC :1.16463: AVG IPC :1.44931: L2-Pf-HR :0.93253: L2-HR :0.93058: (Sim:0h30m19s) 
CPU  1 inst:   19000001 cyc:   12999782 now IPC :1.39144: AVG IPC :1.41569: L2-Pf-HR :0.92956: L2-HR :0.92846: (Sim:0h30m58s) 
CPU  3 inst:   19000001 cyc:   13456795 now IPC :1.18541: AVG IPC :1.36378: L2-Pf-HR :0.92788: L2-HR :0.92697: (Sim:0h31m58s) 
CPU  2 inst:   19000001 cyc:   13487922 now IPC :1.15037: AVG IPC :1.36046: L2-Pf-HR :0.92786: L2-HR :0.92708: (Sim:0h32m1s) 
CPU  0 inst:   20000000 cyc:   13637143 now IPC :1.09246: AVG IPC :1.42348: L2-Pf-HR :0.93356: L2-HR :0.93123: (Sim:0h32m21s) 
CPU  1 inst:   20000000 cyc:   13915882 now IPC :1.09158: AVG IPC :1.39271: L2-Pf-HR :0.93087: L2-HR :0.92935: (Sim:0h33m3s) 
CPU  0 inst:   21000001 cyc:   14269364 now IPC :1.58173: AVG IPC :1.43101: L2-Pf-HR :0.93561: L2-HR :0.93319: (Sim:0h33m49s) 
CPU  3 inst:   20000000 cyc:   14304100 now IPC :1.18021: AVG IPC :1.35210: L2-Pf-HR :0.92899: L2-HR :0.92770: (Sim:0h33m53s) 
CPU  2 inst:   20000000 cyc:   14364179 now IPC :1.14122: AVG IPC :1.34609: L2-Pf-HR :0.92894: L2-HR :0.92776: (Sim:0h34m1s) 
CPU  1 inst:   21000003 cyc:   14603761 now IPC :1.45375: AVG IPC :1.39580: L2-Pf-HR :0.93312: L2-HR :0.93146: (Sim:0h34m33s) 
CPU  3 inst:   21000000 cyc:   14925822 now IPC :1.60844: AVG IPC :1.36353: L2-Pf-HR :0.93136: L2-HR :0.92988: (Sim:0h35m6s) 
CPU  2 inst:   21000004 cyc:   15019312 now IPC :1.52641: AVG IPC :1.35451: L2-Pf-HR :0.93131: L2-HR :0.92993: (Sim:0h35m12s) 
CPU  0 inst:   22000001 cyc:   15107951 now IPC :1.19248: AVG IPC :1.41684: L2-Pf-HR :0.93545: L2-HR :0.93304: (Sim:0h35m18s) 
CPU  1 inst:   22000001 cyc:   15411382 now IPC :1.23820: AVG IPC :1.38697: L2-Pf-HR :0.93332: L2-HR :0.93161: (Sim:0h35m38s) 
CPU  3 inst:   22000001 cyc:   15808107 now IPC :1.13342: AVG IPC :1.34983: L2-Pf-HR :0.93148: L2-HR :0.92993: (Sim:0h36m27s) 
CPU  2 inst:   22000001 cyc:   15879653 now IPC :1.16233: AVG IPC :1.34341: L2-Pf-HR :0.93133: L2-HR :0.92991: (Sim:0h36m36s) 
CPU  0 inst:   23000005 cyc:   15969982 now IPC :1.16006: AVG IPC :1.40206: L2-Pf-HR :0.93555: L2-HR :0.93305: (Sim:0h36m52s) 
CPU  1 inst:   23000005 cyc:   16222312 now IPC :1.23316: AVG IPC :1.37878: L2-Pf-HR :0.93353: L2-HR :0.93164: (Sim:0h37m21s) 
CPU  3 inst:   23000005 cyc:   16670366 now IPC :1.15975: AVG IPC :1.33938: L2-Pf-HR :0.93143: L2-HR :0.92979: (Sim:0h38m6s) 
CPU  2 inst:   23000005 cyc:   16698551 now IPC :1.22116: AVG IPC :1.33703: L2-Pf-HR :0.93133: L2-HR :0.92980: (Sim:0h38m8s) 
CPU  0 inst:   24000002 cyc:   16842323 now IPC :1.14634: AVG IPC :1.38799: L2-Pf-HR :0.93580: L2-HR :0.93316: (Sim:0h38m19s) 
CPU  1 inst:   24000002 cyc:   17057391 now IPC :1.19749: AVG IPC :1.36936: L2-Pf-HR :0.93379: L2-HR :0.93171: (Sim:0h38m36s) 
CPU  3 inst:   24000002 cyc:   17449625 now IPC :1.28327: AVG IPC :1.33672: L2-Pf-HR :0.93167: L2-HR :0.92982: (Sim:0h39m5s) 
CPU  2 inst:   24000002 cyc:   17473202 now IPC :1.29090: AVG IPC :1.33486: L2-Pf-HR :0.93165: L2-HR :0.92990: (Sim:0h39m6s) 
CPU  0 inst:   25000004 cyc:   17648919 now IPC :1.23978: AVG IPC :1.38081: L2-Pf-HR :0.93669: L2-HR :0.93389: (Sim:0h39m18s) 
CPU  1 inst:   25000004 cyc:   17852435 now IPC :1.25779: AVG IPC :1.36410: L2-Pf-HR :0.93475: L2-HR :0.93252: (Sim:0h39m37s) 
CPU  2 inst:   25000004 cyc:   18240022 now IPC :1.30409: AVG IPC :1.33350: L2-Pf-HR :0.93231: L2-HR :0.93050: (Sim:0h40m33s) 
CPU  3 inst:   25000004 cyc:   18249747 now IPC :1.24981: AVG IPC :1.33269: L2-Pf-HR :0.93237: L2-HR :0.93046: (Sim:0h40m34s) 
CPU  0 inst:   26000005 cyc:   18304630 now IPC :1.52506: AVG IPC :1.38627: L2-Pf-HR :0.93677: L2-HR :0.93417: (Sim:0h40m41s) 
CPU  1 inst:   26000005 cyc:   18516181 now IPC :1.50660: AVG IPC :1.36950: L2-Pf-HR :0.93499: L2-HR :0.93294: (Sim:0h41m12s) 
CPU  2 inst:   26000005 cyc:   18930900 now IPC :1.44744: AVG IPC :1.33788: L2-Pf-HR :0.93266: L2-HR :0.93099: (Sim:0h42m11s) 
CPU  3 inst:   26000005 cyc:   18932528 now IPC :1.46460: AVG IPC :1.33771: L2-Pf-HR :0.93269: L2-HR :0.93095: (Sim:0h42m12s) 
CPU  0 inst:   27000005 cyc:   19186961 now IPC :1.13336: AVG IPC :1.37401: L2-Pf-HR :0.93637: L2-HR :0.93377: (Sim:0h42m49s) 
CPU  1 inst:   27000005 cyc:   19359072 now IPC :1.18639: AVG IPC :1.36109: L2-Pf-HR :0.93473: L2-HR :0.93267: (Sim:0h43m11s) 
CPU  2 inst:   27000005 cyc:   19800111 now IPC :1.15047: AVG IPC :1.32922: L2-Pf-HR :0.93260: L2-HR :0.93086: (Sim:0h44m15s) 
CPU  3 inst:   27000005 cyc:   19846142 now IPC :1.09455: AVG IPC :1.32593: L2-Pf-HR :0.93257: L2-HR :0.93077: (Sim:0h44m21s) 
CPU  0 inst:   28000001 cyc:   20020841 now IPC :1.19921: AVG IPC :1.36635: L2-Pf-HR :0.93647: L2-HR :0.93381: (Sim:0h44m48s) 
CPU  1 inst:   28000001 cyc:   20216520 now IPC :1.16625: AVG IPC :1.35240: L2-Pf-HR :0.93497: L2-HR :0.93277: (Sim:0h45m18s) 
CPU  2 inst:   28000001 cyc:   20610803 now IPC :1.23351: AVG IPC :1.32527: L2-Pf-HR :0.93274: L2-HR :0.93092: (Sim:0h46m2s) 
CPU  3 inst:   28000001 cyc:   20665694 now IPC :1.22017: AVG IPC :1.32152: L2-Pf-HR :0.93272: L2-HR :0.93080: (Sim:0h46m6s) 
CPU  0 inst:   29000003 cyc:   20865642 now IPC :1.18371: AVG IPC :1.35859: L2-Pf-HR :0.93667: L2-HR :0.93391: (Sim:0h46m20s) 
CPU  1 inst:   29000003 cyc:   21032192 now IPC :1.22599: AVG IPC :1.34726: L2-Pf-HR :0.93523: L2-HR :0.93289: (Sim:0h46m33s) 
CPU  0 inst:   30000001 cyc:   21455884 now IPC :1.69422: AVG IPC :1.36827: L2-Pf-HR :0.93721: L2-HR :0.93463: (Sim:0h47m11s) 
CPU  2 inst:   29000003 cyc:   21492666 now IPC :1.13397: AVG IPC :1.31704: L2-Pf-HR :0.93292: L2-HR :0.93098: (Sim:0h47m16s) 
CPU  3 inst:   29000003 cyc:   21505882 now IPC :1.19021: AVG IPC :1.31614: L2-Pf-HR :0.93298: L2-HR :0.93094: (Sim:0h47m18s) 
CPU  1 inst:   30000001 cyc:   21599833 now IPC :1.76167: AVG IPC :1.35867: L2-Pf-HR :0.93586: L2-HR :0.93370: (Sim:0h47m31s) 
CPU  3 inst:   30000001 cyc:   22108213 now IPC :1.66021: AVG IPC :1.32596: L2-Pf-HR :0.93355: L2-HR :0.93169: (Sim:0h48m35s) 
CPU  2 inst:   30000001 cyc:   22113254 now IPC :1.61137: AVG IPC :1.32569: L2-Pf-HR :0.93352: L2-HR :0.93176: (Sim:0h48m36s) 
CPU  0 inst:   31000001 cyc:   22311902 now IPC :1.16820: AVG IPC :1.36023: L2-Pf-HR :0.93684: L2-HR :0.93427: (Sim:0h49m2s) 
CPU  1 inst:   31000001 cyc:   22490581 now IPC :1.12265: AVG IPC :1.34889: L2-Pf-HR :0.93552: L2-HR :0.93336: (Sim:0h49m23s) 
CPU  3 inst:   31000001 cyc:   22949113 now IPC :1.18920: AVG IPC :1.32072: L2-Pf-HR :0.93323: L2-HR :0.93136: (Sim:0h50m22s) 
CPU  2 inst:   31000001 cyc:   22951625 now IPC :1.19279: AVG IPC :1.32061: L2-Pf-HR :0.93320: L2-HR :0.93143: (Sim:0h50m22s) 
CPU  0 inst:   32000003 cyc:   23123315 now IPC :1.23242: AVG IPC :1.35555: L2-Pf-HR :0.93694: L2-HR :0.93427: (Sim:0h50m47s) 
CPU  1 inst:   32000003 cyc:   23337947 now IPC :1.18013: AVG IPC :1.34249: L2-Pf-HR :0.93580: L2-HR :0.93349: (Sim:0h51m14s) 
CPU  2 inst:   32000003 cyc:   23812659 now IPC :1.16140: AVG IPC :1.31460: L2-Pf-HR :0.93328: L2-HR :0.93143: (Sim:0h52m13s) 
CPU  3 inst:   32000003 cyc:   23814228 now IPC :1.15592: AVG IPC :1.31447: L2-Pf-HR :0.93328: L2-HR :0.93135: (Sim:0h52m13s) 
CPU  0 inst:   33000003 cyc:   23986663 now IPC :1.15828: AVG IPC :1.34814: L2-Pf-HR :0.93727: L2-HR :0.93449: (Sim:0h52m34s) 
CPU  1 inst:   33000003 cyc:   24202263 now IPC :1.15698: AVG IPC :1.33558: L2-Pf-HR :0.93601: L2-HR :0.93360: (Sim:0h53m5s) 
CPU  0 inst:   34000000 cyc:   24592002 now IPC :1.65196: AVG IPC :1.35593: L2-Pf-HR :0.93790: L2-HR :0.93523: (Sim:0h53m50s) 
CPU  2 inst:   33000003 cyc:   24679664 now IPC :1.15340: AVG IPC :1.30870: L2-Pf-HR :0.93337: L2-HR :0.93146: (Sim:0h54m1s) 
CPU  3 inst:   33000003 cyc:   24690057 now IPC :1.14178: AVG IPC :1.30809: L2-Pf-HR :0.93335: L2-HR :0.93135: (Sim:0h54m3s) 
CPU  1 inst:   34000000 cyc:   24816641 now IPC :1.62766: AVG IPC :1.34312: L2-Pf-HR :0.93682: L2-HR :0.93446: (Sim:0h54m19s) 
CPU  2 inst:   34000000 cyc:   25300507 now IPC :1.61071: AVG IPC :1.31642: L2-Pf-HR :0.93411: L2-HR :0.93229: (Sim:0h55m21s) 
CPU  3 inst:   34000000 cyc:   25301207 now IPC :1.63625: AVG IPC :1.31634: L2-Pf-HR :0.93410: L2-HR :0.93219: (Sim:0h55m22s) 
CPU  0 inst:   35000003 cyc:   25462574 now IPC :1.14867: AVG IPC :1.34856: L2-Pf-HR :0.93761: L2-HR :0.93493: (Sim:0h55m42s) 
CPU  1 inst:   35000005 cyc:   25682093 now IPC :1.15547: AVG IPC :1.33654: L2-Pf-HR :0.93646: L2-HR :0.93412: (Sim:0h56m10s) 
CPU  3 inst:   35000003 cyc:   26125816 now IPC :1.21270: AVG IPC :1.31294: L2-Pf-HR :0.93373: L2-HR :0.93184: (Sim:0h57m7s) 
CPU  2 inst:   35000003 cyc:   26131699 now IPC :1.20310: AVG IPC :1.31267: L2-Pf-HR :0.93371: L2-HR :0.93191: (Sim:0h57m7s) 
CPU  0 inst:   36000000 cyc:   26254888 now IPC :1.26212: AVG IPC :1.34585: L2-Pf-HR :0.93752: L2-HR :0.93477: (Sim:0h57m27s) 
CPU  1 inst:   36000000 cyc:   26493401 now IPC :1.23257: AVG IPC :1.33323: L2-Pf-HR :0.93643: L2-HR :0.93402: (Sim:0h57m58s) 
CPU  3 inst:   36000000 cyc:   26987125 now IPC :1.16102: AVG IPC :1.30791: L2-Pf-HR :0.93386: L2-HR :0.93183: (Sim:0h59m0s) 
CPU  2 inst:   36000000 cyc:   27000251 now IPC :1.15134: AVG IPC :1.30728: L2-Pf-HR :0.93384: L2-HR :0.93190: (Sim:0h59m1s) 
CPU  0 inst:   37000000 cyc:   27127615 now IPC :1.14583: AVG IPC :1.33917: L2-Pf-HR :0.93783: L2-HR :0.93498: (Sim:0h59m18s) 
CPU  1 inst:   37000000 cyc:   27348379 now IPC :1.16962: AVG IPC :1.32792: L2-Pf-HR :0.93677: L2-HR :0.93425: (Sim:0h59m52s) 
CPU  0 inst:   38000002 cyc:   27822495 now IPC :1.43910: AVG IPC :1.34176: L2-Pf-HR :0.93853: L2-HR :0.93562: (Sim:1h0m48s) 
CPU  3 inst:   37000000 cyc:   27857399 now IPC :1.14906: AVG IPC :1.30276: L2-Pf-HR :0.93407: L2-HR :0.93195: (Sim:1h0m53s) 
CPU  2 inst:   37000000 cyc:   27877684 now IPC :1.13969: AVG IPC :1.30181: L2-Pf-HR :0.93403: L2-HR :0.93200: (Sim:1h0m55s) 
CPU  1 inst:   38000000 cyc:   28154067 now IPC :1.24118: AVG IPC :1.32535: L2-Pf-HR :0.93758: L2-HR :0.93498: (Sim:1h1m28s) 
CPU  0 inst:   39000005 cyc:   28592558 now IPC :1.29860: AVG IPC :1.34055: L2-Pf-HR :0.93851: L2-HR :0.93566: (Sim:1h2m28s) 
CPU  3 inst:   38000000 cyc:   28643205 now IPC :1.27258: AVG IPC :1.30190: L2-Pf-HR :0.93495: L2-HR :0.93273: (Sim:1h2m33s) 
CPU  2 inst:   38000000 cyc:   28656481 now IPC :1.28403: AVG IPC :1.30131: L2-Pf-HR :0.93486: L2-HR :0.93276: (Sim:1h2m35s) 
CPU  1 inst:   39000005 cyc:   28890615 now IPC :1.35769: AVG IPC :1.32620: L2-Pf-HR :0.93772: L2-HR :0.93516: (Sim:1h2m58s) 
CPU  2 inst:   39000005 cyc:   29436505 now IPC :1.28202: AVG IPC :1.30078: L2-Pf-HR :0.93487: L2-HR :0.93283: (Sim:1h4m7s) 
CPU  3 inst:   39000005 cyc:   29441612 now IPC :1.25250: AVG IPC :1.30052: L2-Pf-HR :0.93494: L2-HR :0.93279: (Sim:1h4m8s) 
CPU  0 inst:   40000001 cyc:   29535876 now IPC :1.06008: AVG IPC :1.33129: L2-Pf-HR :0.93847: L2-HR :0.93558: (Sim:1h4m23s) 
CPU  1 inst:   40000001 cyc:   29783967 now IPC :1.11938: AVG IPC :1.31979: L2-Pf-HR :0.93769: L2-HR :0.93510: (Sim:1h4m54s) 
CPU  2 inst:   40000001 cyc:   30268718 now IPC :1.20161: AVG IPC :1.29796: L2-Pf-HR :0.93481: L2-HR :0.93273: (Sim:1h5m53s) 
CPU  3 inst:   40000001 cyc:   30274411 now IPC :1.20077: AVG IPC :1.29768: L2-Pf-HR :0.93482: L2-HR :0.93265: (Sim:1h5m53s) 
CPU  0 inst:   41000004 cyc:   30423094 now IPC :1.12712: AVG IPC :1.32513: L2-Pf-HR :0.93867: L2-HR :0.93569: (Sim:1h6m14s) 
CPU  1 inst:   41000004 cyc:   30622064 now IPC :1.19318: AVG IPC :1.31621: L2-Pf-HR :0.93784: L2-HR :0.93517: (Sim:1h6m45s) 
CPU  2 inst:   41000004 cyc:   31134491 now IPC :1.15504: AVG IPC :1.29386: L2-Pf-HR :0.93492: L2-HR :0.93275: (Sim:1h7m44s) 
CPU  3 inst:   41000004 cyc:   31144492 now IPC :1.14932: AVG IPC :1.29340: L2-Pf-HR :0.93491: L2-HR :0.93267: (Sim:1h7m45s) 
CPU  0 inst:   42000001 cyc:   32144069 now IPC :0.58106: AVG IPC :1.28403: L2-Pf-HR :0.93777: L2-HR :0.93342: (Sim:1h8m54s) 
CPU  1 inst:   42000004 cyc:   32574666 now IPC :0.51214: AVG IPC :1.26649: L2-Pf-HR :0.93691: L2-HR :0.93291: (Sim:1h9m14s) 
CPU  2 inst:   42000004 cyc:   34127164 now IPC :0.33415: AVG IPC :1.20718: L2-Pf-HR :0.93391: L2-HR :0.93036: (Sim:1h10m45s) 
CPU  3 inst:   42000001 cyc:   34160643 now IPC :0.33155: AVG IPC :1.20593: L2-Pf-HR :0.93389: L2-HR :0.93029: (Sim:1h10m47s) 
CPU  0 inst:   43000004 cyc:   50424623 now IPC :0.05470: AVG IPC :0.82941: L2-Pf-HR :0.92349: L2-HR :0.90616: (Sim:1h27m24s) 
CPU  1 inst:   43000004 cyc:   51180189 now IPC :0.05375: AVG IPC :0.81691: L2-Pf-HR :0.92253: L2-HR :0.90540: (Sim:1h27m51s) 
CPU  2 inst:   43000000 cyc:   54082948 now IPC :0.05011: AVG IPC :0.77226: L2-Pf-HR :0.91855: L2-HR :0.90209: (Sim:1h30m39s) 
CPU  3 inst:   43000001 cyc:   54093056 now IPC :0.05017: AVG IPC :0.77210: L2-Pf-HR :0.91857: L2-HR :0.90197: (Sim:1h30m39s) 
CPU  0 inst:   44000002 cyc:   57589900 now IPC :0.13956: AVG IPC :0.74208: L2-Pf-HR :0.91795: L2-HR :0.89992: (Sim:1h33m56s) 
CPU  1 inst:   44000002 cyc:   57964724 now IPC :0.14739: AVG IPC :0.73718: L2-Pf-HR :0.91686: L2-HR :0.89913: (Sim:1h34m18s) 
CPU  2 inst:   44000002 cyc:   59357103 now IPC :0.18960: AVG IPC :0.71961: L2-Pf-HR :0.91251: L2-HR :0.89572: (Sim:1h35m39s) 
CPU  3 inst:   44000002 cyc:   59373345 now IPC :0.18938: AVG IPC :0.71939: L2-Pf-HR :0.91253: L2-HR :0.89559: (Sim:1h35m40s) 
CPU  0 inst:   45000002 cyc:   61216050 now IPC :0.27577: AVG IPC :0.71400: L2-Pf-HR :0.91372: L2-HR :0.89678: (Sim:1h37m25s) 
CPU  1 inst:   45000002 cyc:   61605350 now IPC :0.27468: AVG IPC :0.70940: L2-Pf-HR :0.91255: L2-HR :0.89596: (Sim:1h37m47s) 
CPU  2 inst:   45000002 cyc:   62968422 now IPC :0.27691: AVG IPC :0.69381: L2-Pf-HR :0.90809: L2-HR :0.89250: (Sim:1h39m10s) 
CPU  3 inst:   45000002 cyc:   62972643 now IPC :0.27783: AVG IPC :0.69375: L2-Pf-HR :0.90809: L2-HR :0.89238: (Sim:1h39m10s) 
CPU  0 inst:   46000002 cyc:   64748648 now IPC :0.28308: AVG IPC :0.69012: L2-Pf-HR :0.90965: L2-HR :0.89379: (Sim:1h40m54s) 
CPU  1 inst:   46000002 cyc:   65121671 now IPC :0.28439: AVG IPC :0.68610: L2-Pf-HR :0.90845: L2-HR :0.89296: (Sim:1h41m16s) 
CPU  2 inst:   46000002 cyc:   66437683 now IPC :0.28825: AVG IPC :0.67231: L2-Pf-HR :0.90402: L2-HR :0.88959: (Sim:1h42m32s) 
CPU  3 inst:   46000002 cyc:   66439253 now IPC :0.28847: AVG IPC :0.67228: L2-Pf-HR :0.90397: L2-HR :0.88943: (Sim:1h42m32s) 
CPU  0 inst:   47000002 cyc:   68192116 now IPC :0.29040: AVG IPC :0.66964: L2-Pf-HR :0.90591: L2-HR :0.89108: (Sim:1h44m14s) 
CPU  1 inst:   47000002 cyc:   68565574 now IPC :0.29037: AVG IPC :0.66593: L2-Pf-HR :0.90471: L2-HR :0.89026: (Sim:1h44m36s) 
CPU  2 inst:   47000002 cyc:   69862237 now IPC :0.29201: AVG IPC :0.65340: L2-Pf-HR :0.90020: L2-HR :0.88687: (Sim:1h45m51s) 
CPU  3 inst:   47000002 cyc:   69864975 now IPC :0.29191: AVG IPC :0.65336: L2-Pf-HR :0.90018: L2-HR :0.88674: (Sim:1h45m51s) 
CPU  0 inst:   48000002 cyc:   71603227 now IPC :0.29316: AVG IPC :0.65145: L2-Pf-HR :0.90242: L2-HR :0.88857: (Sim:1h47m32s) 
CPU  1 inst:   48000002 cyc:   71973817 now IPC :0.29341: AVG IPC :0.64804: L2-Pf-HR :0.90116: L2-HR :0.88770: (Sim:1h47m53s) 
CPU  2 inst:   48000002 cyc:   73273939 now IPC :0.29311: AVG IPC :0.63640: L2-Pf-HR :0.89659: L2-HR :0.88429: (Sim:1h49m7s) 
CPU  3 inst:   48000002 cyc:   73277257 now IPC :0.29306: AVG IPC :0.63636: L2-Pf-HR :0.89652: L2-HR :0.88414: (Sim:1h49m7s) 
CPU  0 inst:   49000002 cyc:   75016911 now IPC :0.29294: AVG IPC :0.63492: L2-Pf-HR :0.89902: L2-HR :0.88612: (Sim:1h50m50s) 
CPU  1 inst:   49000002 cyc:   75389203 now IPC :0.29279: AVG IPC :0.63173: L2-Pf-HR :0.89768: L2-HR :0.88519: (Sim:1h51m12s) 
CPU  2 inst:   49000002 cyc:   76687375 now IPC :0.29296: AVG IPC :0.62091: L2-Pf-HR :0.89308: L2-HR :0.88180: (Sim:1h52m27s) 
CPU  3 inst:   49000002 cyc:   76690836 now IPC :0.29295: AVG IPC :0.62087: L2-Pf-HR :0.89301: L2-HR :0.88165: (Sim:1h52m27s) 
CPU  0 inst:   50000002 cyc:   78426230 now IPC :0.29331: AVG IPC :0.61988: L2-Pf-HR :0.89574: L2-HR :0.88374: (Sim:1h54m7s) 
CPU  1 inst:   50000002 cyc:   78799564 now IPC :0.29322: AVG IPC :0.61690: L2-Pf-HR :0.89436: L2-HR :0.88280: (Sim:1h54m29s) 
CPU  2 inst:   50000002 cyc:   80109716 now IPC :0.29220: AVG IPC :0.60669: L2-Pf-HR :0.88959: L2-HR :0.87930: (Sim:1h55m45s) 
CPU  3 inst:   50000002 cyc:   80113327 now IPC :0.29218: AVG IPC :0.60665: L2-Pf-HR :0.88958: L2-HR :0.87919: (Sim:1h55m45s) 
CPU  0 inst:   51000002 cyc:   81849106 now IPC :0.29215: AVG IPC :0.60601: L2-Pf-HR :0.89253: L2-HR :0.88141: (Sim:1h57m25s) 
CPU  1 inst:   51000002 cyc:   82219127 now IPC :0.29244: AVG IPC :0.60324: L2-Pf-HR :0.89119: L2-HR :0.88051: (Sim:1h57m49s) 
CPU  2 inst:   51000002 cyc:   83530427 now IPC :0.29234: AVG IPC :0.59366: L2-Pf-HR :0.88630: L2-HR :0.87694: (Sim:1h59m7s) 
CPU  3 inst:   51000002 cyc:   83532663 now IPC :0.29245: AVG IPC :0.59364: L2-Pf-HR :0.88633: L2-HR :0.87687: (Sim:1h59m8s) 
CPU  0 inst:   52000002 cyc:   85270328 now IPC :0.29229: AVG IPC :0.59327: L2-Pf-HR :0.88946: L2-HR :0.87920: (Sim:2h0m49s) 
CPU  1 inst:   52000002 cyc:   85643403 now IPC :0.29203: AVG IPC :0.59065: L2-Pf-HR :0.88807: L2-HR :0.87826: (Sim:2h1m10s) 
CPU  2 inst:   52000002 cyc:   86942475 now IPC :0.29308: AVG IPC :0.58173: L2-Pf-HR :0.88315: L2-HR :0.87470: (Sim:2h2m26s) 
CPU  3 inst:   52000002 cyc:   86952432 now IPC :0.29242: AVG IPC :0.58165: L2-Pf-HR :0.88322: L2-HR :0.87466: (Sim:2h2m27s) 
CPU  0 inst:   53000002 cyc:   88678327 now IPC :0.29343: AVG IPC :0.58162: L2-Pf-HR :0.88647: L2-HR :0.87703: (Sim:2h4m2s) 
CPU  1 inst:   53000002 cyc:   89052107 now IPC :0.29337: AVG IPC :0.57914: L2-Pf-HR :0.88512: L2-HR :0.87614: (Sim:2h4m15s) 
CPU  2 inst:   53000002 cyc:   90348383 now IPC :0.29361: AVG IPC :0.57075: L2-Pf-HR :0.88015: L2-HR :0.87256: (Sim:2h5m1s) 
CPU  3 inst:   53000002 cyc:   90357375 now IPC :0.29369: AVG IPC :0.57068: L2-Pf-HR :0.88027: L2-HR :0.87257: (Sim:2h5m2s) 
CPU  0 inst:   54000002 cyc:   92084215 now IPC :0.29361: AVG IPC :0.57085: L2-Pf-HR :0.88372: L2-HR :0.87505: (Sim:2h6m42s) 
CPU  1 inst:   54000002 cyc:   92461618 now IPC :0.29330: AVG IPC :0.56849: L2-Pf-HR :0.88247: L2-HR :0.87424: (Sim:2h7m4s) 
CPU  2 inst:   54000002 cyc:   93761234 now IPC :0.29301: AVG IPC :0.56053: L2-Pf-HR :0.87746: L2-HR :0.87065: (Sim:2h7m54s) 
CPU  3 inst:   54000002 cyc:   93771847 now IPC :0.29287: AVG IPC :0.56046: L2-Pf-HR :0.87763: L2-HR :0.87069: (Sim:2h7m54s) 
CPU  0 inst:   55000002 cyc:   95498289 now IPC :0.29291: AVG IPC :0.56081: L2-Pf-HR :0.88118: L2-HR :0.87323: (Sim:2h8m50s) 
CPU  1 inst:   55000002 cyc:   95880218 now IPC :0.29252: AVG IPC :0.55854: L2-Pf-HR :0.87988: L2-HR :0.87238: (Sim:2h9m3s) 
CPU  2 inst:   55000002 cyc:   97172128 now IPC :0.29318: AVG IPC :0.55105: L2-Pf-HR :0.87480: L2-HR :0.86875: (Sim:2h9m46s) 
CPU  3 inst:   55000002 cyc:   97188450 now IPC :0.29269: AVG IPC :0.55095: L2-Pf-HR :0.87508: L2-HR :0.86888: (Sim:2h9m47s) 
CPU  0 inst:   56000002 cyc:   98910438 now IPC :0.29307: AVG IPC :0.55148: L2-Pf-HR :0.87872: L2-HR :0.87145: (Sim:2h10m47s) 
CPU  1 inst:   56000002 cyc:   99293799 now IPC :0.29295: AVG IPC :0.54932: L2-Pf-HR :0.87748: L2-HR :0.87066: (Sim:2h11m0s) 
CPU  2 inst:   56000002 cyc:  100587611 now IPC :0.29278: AVG IPC :0.54219: L2-Pf-HR :0.87230: L2-HR :0.86697: (Sim:2h11m42s) 
CPU  3 inst:   56000002 cyc:  100608406 now IPC :0.29240: AVG IPC :0.54207: L2-Pf-HR :0.87252: L2-HR :0.86705: (Sim:2h11m43s) 
CPU  0 inst:   57000002 cyc:  102337337 now IPC :0.29181: AVG IPC :0.54270: L2-Pf-HR :0.87625: L2-HR :0.86964: (Sim:2h12m40s) 
CPU  1 inst:   57000002 cyc:  102714140 now IPC :0.29237: AVG IPC :0.54068: L2-Pf-HR :0.87495: L2-HR :0.86882: (Sim:2h12m52s) 
CPU  2 inst:   57000002 cyc:  104009143 now IPC :0.29227: AVG IPC :0.53389: L2-Pf-HR :0.86978: L2-HR :0.86515: (Sim:2h13m35s) 
CPU  3 inst:   57000002 cyc:  104033966 now IPC :0.29192: AVG IPC :0.53375: L2-Pf-HR :0.86991: L2-HR :0.86516: (Sim:2h13m35s) 
CPU  0 inst:   58000002 cyc:  105758725 now IPC :0.29228: AVG IPC :0.53452: L2-Pf-HR :0.87385: L2-HR :0.86791: (Sim:2h14m32s) 
CPU  1 inst:   58000002 cyc:  106130952 now IPC :0.29267: AVG IPC :0.53262: L2-Pf-HR :0.87255: L2-HR :0.86708: (Sim:2h14m44s) 
CPU  2 inst:   58000002 cyc:  107432924 now IPC :0.29207: AVG IPC :0.52611: L2-Pf-HR :0.86735: L2-HR :0.86341: (Sim:2h15m26s) 
CPU  3 inst:   58000002 cyc:  107458234 now IPC :0.29203: AVG IPC :0.52598: L2-Pf-HR :0.86746: L2-HR :0.86340: (Sim:2h15m27s) 
CPU  0 inst:   59000002 cyc:  109179715 now IPC :0.29231: AVG IPC :0.52686: L2-Pf-HR :0.87153: L2-HR :0.86623: (Sim:2h16m24s) 
CPU  1 inst:   59000002 cyc:  109547077 now IPC :0.29273: AVG IPC :0.52507: L2-Pf-HR :0.87024: L2-HR :0.86540: (Sim:2h16m36s) 
CPU  2 inst:   59000002 cyc:  110855970 now IPC :0.29214: AVG IPC :0.51882: L2-Pf-HR :0.86497: L2-HR :0.86170: (Sim:2h17m19s) 
CPU  3 inst:   59000002 cyc:  110881393 now IPC :0.29213: AVG IPC :0.51870: L2-Pf-HR :0.86510: L2-HR :0.86170: (Sim:2h17m20s) 
CPU  0 inst:   60000004 cyc:  112214787 now IPC :0.32948: AVG IPC :0.52148: L2-Pf-HR :0.86932: L2-HR :0.86383: (Sim:2h18m4s) 
CPU  1 inst:   60000004 cyc:  112707319 now IPC :0.31643: AVG IPC :0.51917: L2-Pf-HR :0.86786: L2-HR :0.86297: (Sim:2h18m36s) 
CPU  0 inst:   61000001 cyc:  112936504 now IPC :1.38558: AVG IPC :0.52705: L2-Pf-HR :0.87214: L2-HR :0.86623: (Sim:2h18m49s) 
CPU  1 inst:   61000000 cyc:  113443038 now IPC :1.35921: AVG IPC :0.52467: L2-Pf-HR :0.87096: L2-HR :0.86562: (Sim:2h19m11s) 
CPU  0 inst:   62000005 cyc:  113785603 now IPC :1.17772: AVG IPC :0.53194: L2-Pf-HR :0.87440: L2-HR :0.86814: (Sim:2h19m32s) 
CPU  1 inst:   62000005 cyc:  114479964 now IPC :0.96439: AVG IPC :0.52868: L2-Pf-HR :0.87312: L2-HR :0.86739: (Sim:2h20m24s) 
CPU  3 inst:   60000004 cyc:  114541617 now IPC :0.27321: AVG IPC :0.51078: L2-Pf-HR :0.86259: L2-HR :0.85897: (Sim:2h20m29s) 
CPU  2 inst:   60000004 cyc:  114576392 now IPC :0.26879: AVG IPC :0.51063: L2-Pf-HR :0.86244: L2-HR :0.85894: (Sim:2h20m33s) 
CPU  0 inst:   63000000 cyc:  114805039 now IPC :0.98093: AVG IPC :0.53597: L2-Pf-HR :0.87623: L2-HR :0.86972: (Sim:2h20m53s) 
CPU  3 inst:   61000002 cyc:  115171022 now IPC :1.58880: AVG IPC :0.51672: L2-Pf-HR :0.86514: L2-HR :0.86119: (Sim:2h21m24s) 
CPU  1 inst:   63000000 cyc:  115192684 now IPC :1.40307: AVG IPC :0.53414: L2-Pf-HR :0.87507: L2-HR :0.86905: (Sim:2h21m25s) 
CPU  2 inst:   61000002 cyc:  115289960 now IPC :1.40141: AVG IPC :0.51620: L2-Pf-HR :0.86496: L2-HR :0.86112: (Sim:2h21m30s) 
CPU  0 inst:   64000003 cyc:  115741000 now IPC :1.06842: AVG IPC :0.54031: L2-Pf-HR :0.87809: L2-HR :0.87136: (Sim:2h22m24s) 
CPU  1 inst:   64000003 cyc:  115965320 now IPC :1.29427: AVG IPC :0.53925: L2-Pf-HR :0.87720: L2-HR :0.87089: (Sim:2h23m2s) 
CPU  3 inst:   62000005 cyc:  116002142 now IPC :1.20320: AVG IPC :0.52169: L2-Pf-HR :0.86706: L2-HR :0.86279: (Sim:2h23m8s) 
CPU  2 inst:   62000005 cyc:  116072947 now IPC :1.27716: AVG IPC :0.52137: L2-Pf-HR :0.86677: L2-HR :0.86264: (Sim:2h23m21s) 
CPU  0 inst:   65000000 cyc:  116263848 now IPC :1.91260: AVG IPC :0.54653: L2-Pf-HR :0.87996: L2-HR :0.87305: (Sim:2h23m51s) 
CPU  1 inst:   65000000 cyc:  116493892 now IPC :1.89188: AVG IPC :0.54544: L2-Pf-HR :0.87951: L2-HR :0.87293: (Sim:2h24m19s) 
CPU  3 inst:   63000000 cyc:  116938551 now IPC :1.06790: AVG IPC :0.52610: L2-Pf-HR :0.86925: L2-HR :0.86463: (Sim:2h25m17s) 
CPU  2 inst:   63000000 cyc:  117060433 now IPC :1.01267: AVG IPC :0.52555: L2-Pf-HR :0.86866: L2-HR :0.86426: (Sim:2h25m37s) 
CPU  0 inst:   66000002 cyc:  117244555 now IPC :1.01967: AVG IPC :0.55053: L2-Pf-HR :0.88117: L2-HR :0.87415: (Sim:2h26m11s) 
CPU  1 inst:   66000002 cyc:  117350250 now IPC :1.16774: AVG IPC :0.55002: L2-Pf-HR :0.88081: L2-HR :0.87409: (Sim:2h26m29s) 
CPU  3 inst:   64000003 cyc:  117630257 now IPC :1.44571: AVG IPC :0.53155: L2-Pf-HR :0.87147: L2-HR :0.86651: (Sim:2h27m7s) 
CPU  2 inst:   64000003 cyc:  117959714 now IPC :1.11200: AVG IPC :0.53006: L2-Pf-HR :0.87100: L2-HR :0.86622: (Sim:2h27m50s) 
CPU  0 inst:   67000005 cyc:  118180650 now IPC :1.06827: AVG IPC :0.55466: L2-Pf-HR :0.88292: L2-HR :0.87567: (Sim:2h28m30s) 
CPU  3 inst:   65000000 cyc:  118250203 now IPC :1.61304: AVG IPC :0.53727: L2-Pf-HR :0.87422: L2-HR :0.86885: (Sim:2h28m42s) 
CPU  1 inst:   67000005 cyc:  118250686 now IPC :1.11058: AVG IPC :0.55432: L2-Pf-HR :0.88266: L2-HR :0.87568: (Sim:2h28m42s) 
CPU  2 inst:   65000000 cyc:  118489684 now IPC :1.88689: AVG IPC :0.53618: L2-Pf-HR :0.87363: L2-HR :0.86847: (Sim:2h29m21s) 
CPU  3 inst:   66000002 cyc:  119039981 now IPC :1.26618: AVG IPC :0.54215: L2-Pf-HR :0.87635: L2-HR :0.87063: (Sim:2h30m36s) 
CPU  0 inst:   68000002 cyc:  119070816 now IPC :1.12338: AVG IPC :0.55895: L2-Pf-HR :0.88476: L2-HR :0.87728: (Sim:2h30m40s) 
CPU  1 inst:   68000002 cyc:  119145547 now IPC :1.11749: AVG IPC :0.55859: L2-Pf-HR :0.88460: L2-HR :0.87736: (Sim:2h30m54s) 
CPU  2 inst:   66000002 cyc:  119396655 now IPC :1.10257: AVG IPC :0.54052: L2-Pf-HR :0.87531: L2-HR :0.86989: (Sim:2h31m37s) 
CPU  0 inst:   69000004 cyc:  119592898 now IPC :1.91541: AVG IPC :0.56492: L2-Pf-HR :0.88623: L2-HR :0.87863: (Sim:2h32m13s) 
CPU  1 inst:   69000004 cyc:  119649072 now IPC :1.98600: AVG IPC :0.56465: L2-Pf-HR :0.88617: L2-HR :0.87878: (Sim:2h32m22s) 
CPU  3 inst:   67000005 cyc:  119717467 now IPC :1.47605: AVG IPC :0.54747: L2-Pf-HR :0.87827: L2-HR :0.87226: (Sim:2h32m33s) 
CPU  2 inst:   67000005 cyc:  120214858 now IPC :1.22219: AVG IPC :0.54520: L2-Pf-HR :0.87702: L2-HR :0.87135: (Sim:2h33m44s) 
CPU  3 inst:   68000002 cyc:  120370355 now IPC :1.53165: AVG IPC :0.55286: L2-Pf-HR :0.88044: L2-HR :0.87410: (Sim:2h34m12s) 
CPU  0 inst:   70000003 cyc:  120410944 now IPC :1.22242: AVG IPC :0.56942: L2-Pf-HR :0.88751: L2-HR :0.87976: (Sim:2h34m19s) 
CPU  1 inst:   70000003 cyc:  120453844 now IPC :1.24259: AVG IPC :0.56921: L2-Pf-HR :0.88746: L2-HR :0.87993: (Sim:2h34m27s) 
CPU  2 inst:   68000002 cyc:  120870334 now IPC :1.52560: AVG IPC :0.55056: L2-Pf-HR :0.87880: L2-HR :0.87286: (Sim:2h35m33s) 
CPU  3 inst:   69000004 cyc:  120873770 now IPC :1.98644: AVG IPC :0.55888: L2-Pf-HR :0.88226: L2-HR :0.87570: (Sim:2h35m34s) 
CPU  0 inst:   71000000 cyc:  121138924 now IPC :1.37366: AVG IPC :0.57430: L2-Pf-HR :0.88872: L2-HR :0.88082: (Sim:2h35m56s) 
CPU  1 inst:   71000000 cyc:  121186138 now IPC :1.36557: AVG IPC :0.57406: L2-Pf-HR :0.88871: L2-HR :0.88102: (Sim:2h36m1s) 
CPU  2 inst:   69000004 cyc:  121410604 now IPC :1.85093: AVG IPC :0.55639: L2-Pf-HR :0.88041: L2-HR :0.87428: (Sim:2h36m23s) 
CPU  3 inst:   70000003 cyc:  121502792 now IPC :1.58977: AVG IPC :0.56426: L2-Pf-HR :0.88368: L2-HR :0.87693: (Sim:2h36m32s) 
CPU  0 inst:   72000001 cyc:  121706019 now IPC :1.76337: AVG IPC :0.57988: L2-Pf-HR :0.89008: L2-HR :0.88210: (Sim:2h36m49s) 
CPU  1 inst:   72000001 cyc:  121744445 now IPC :1.79113: AVG IPC :0.57969: L2-Pf-HR :0.89018: L2-HR :0.88239: (Sim:2h36m52s) 
CPU  2 inst:   70000003 cyc:  122090550 now IPC :1.47070: AVG IPC :0.56153: L2-Pf-HR :0.88205: L2-HR :0.87567: (Sim:2h37m21s) 
CPU  3 inst:   71000000 cyc:  122183078 now IPC :1.46997: AVG IPC :0.56934: L2-Pf-HR :0.88519: L2-HR :0.87824: (Sim:2h37m30s) 
CPU  0 inst:   73000001 cyc:  122328727 now IPC :1.60589: AVG IPC :0.58515: L2-Pf-HR :0.89100: L2-HR :0.88291: (Sim:2h37m55s) 
CPU  1 inst:   73000001 cyc:  122370551 now IPC :1.59717: AVG IPC :0.58494: L2-Pf-HR :0.89107: L2-HR :0.88318: (Sim:2h38m3s) 
CPU  2 inst:   71000000 cyc:  122744770 now IPC :1.52853: AVG IPC :0.56672: L2-Pf-HR :0.88354: L2-HR :0.87696: (Sim:2h38m58s) 
CPU  3 inst:   72000001 cyc:  122798493 now IPC :1.62492: AVG IPC :0.57468: L2-Pf-HR :0.88700: L2-HR :0.87987: (Sim:2h39m6s) 
CPU  0 inst:   74000002 cyc:  123105923 now IPC :1.28668: AVG IPC :0.58961: L2-Pf-HR :0.89193: L2-HR :0.88376: (Sim:2h39m59s) 
CPU  1 inst:   74000002 cyc:  123177511 now IPC :1.23922: AVG IPC :0.58926: L2-Pf-HR :0.89205: L2-HR :0.88407: (Sim:2h40m13s) 
CPU  2 inst:   72000003 cyc:  123304139 now IPC :1.78773: AVG IPC :0.57231: L2-Pf-HR :0.88536: L2-HR :0.87859: (Sim:2h40m36s) 
CPU  3 inst:   73000001 cyc:  123414153 now IPC :1.62427: AVG IPC :0.57995: L2-Pf-HR :0.88806: L2-HR :0.88080: (Sim:2h40m56s) 
CPU  0 inst:   75000002 cyc:  123764162 now IPC :1.51920: AVG IPC :0.59460: L2-Pf-HR :0.89317: L2-HR :0.88488: (Sim:2h41m36s) 
CPU  1 inst:   75000002 cyc:  123914178 now IPC :1.35747: AVG IPC :0.59387: L2-Pf-HR :0.89313: L2-HR :0.88505: (Sim:2h41m51s) 
CPU  2 inst:   73000001 cyc:  123921899 now IPC :1.61875: AVG IPC :0.57757: L2-Pf-HR :0.88666: L2-HR :0.87972: (Sim:2h41m52s) 
CPU  3 inst:   74000002 cyc:  124133517 now IPC :1.39012: AVG IPC :0.58469: L2-Pf-HR :0.88911: L2-HR :0.88174: (Sim:2h42m12s) 
CPU  0 inst:   76000004 cyc:  124299981 now IPC :1.86631: AVG IPC :0.60012: L2-Pf-HR :0.89451: L2-HR :0.88613: (Sim:2h42m27s) 
CPU  1 inst:   76000004 cyc:  124418934 now IPC :1.98116: AVG IPC :0.59954: L2-Pf-HR :0.89444: L2-HR :0.88627: (Sim:2h42m38s) 
CPU  2 inst:   74000002 cyc:  124587831 now IPC :1.50166: AVG IPC :0.58254: L2-Pf-HR :0.88800: L2-HR :0.88089: (Sim:2h42m51s) 
CPU  3 inst:   75000002 cyc:  124853520 now IPC :1.38888: AVG IPC :0.58936: L2-Pf-HR :0.89023: L2-HR :0.88272: (Sim:2h43m19s) 
CPU  0 inst:   77000002 cyc:  125004757 now IPC :1.41889: AVG IPC :0.60478: L2-Pf-HR :0.89531: L2-HR :0.88684: (Sim:2h43m36s) 
CPU  1 inst:   77000002 cyc:  125140627 now IPC :1.38563: AVG IPC :0.60411: L2-Pf-HR :0.89521: L2-HR :0.88695: (Sim:2h43m48s) 
CPU  2 inst:   75000002 cyc:  125220767 now IPC :1.57994: AVG IPC :0.58763: L2-Pf-HR :0.88930: L2-HR :0.88201: (Sim:2h43m56s) 
CPU  3 inst:   76000004 cyc:  125357169 now IPC :1.98551: AVG IPC :0.59502: L2-Pf-HR :0.89158: L2-HR :0.88397: (Sim:2h44m7s) 
CPU  0 inst:   78000001 cyc:  125714344 now IPC :1.40927: AVG IPC :0.60935: L2-Pf-HR :0.89638: L2-HR :0.88780: (Sim:2h44m37s) 
CPU  2 inst:   76000004 cyc:  125772229 now IPC :1.81337: AVG IPC :0.59304: L2-Pf-HR :0.89099: L2-HR :0.88354: (Sim:2h44m42s) 
CPU  1 inst:   78000001 cyc:  125860030 now IPC :1.39004: AVG IPC :0.60864: L2-Pf-HR :0.89611: L2-HR :0.88776: (Sim:2h44m50s) 
CPU  3 inst:   77000002 cyc:  126065362 now IPC :1.41204: AVG IPC :0.59964: L2-Pf-HR :0.89242: L2-HR :0.88470: (Sim:2h45m9s) 
CPU  0 inst:   79000000 cyc:  126349282 now IPC :1.57496: AVG IPC :0.61424: L2-Pf-HR :0.89742: L2-HR :0.88874: (Sim:2h45m34s) 
CPU  2 inst:   77000002 cyc:  126405512 now IPC :1.57907: AVG IPC :0.59802: L2-Pf-HR :0.89201: L2-HR :0.88440: (Sim:2h45m38s) 
CPU  1 inst:   79000000 cyc:  126621125 now IPC :1.31390: AVG IPC :0.61291: L2-Pf-HR :0.89705: L2-HR :0.88860: (Sim:2h45m56s) 
CPU  3 inst:   78000001 cyc:  126858687 now IPC :1.26052: AVG IPC :0.60381: L2-Pf-HR :0.89331: L2-HR :0.88548: (Sim:2h46m16s) 
CPU  0 inst:   80000001 cyc:  126944088 now IPC :1.68122: AVG IPC :0.61928: L2-Pf-HR :0.89849: L2-HR :0.88974: (Sim:2h46m25s) 
CPU  2 inst:   78000001 cyc:  127078769 now IPC :1.48532: AVG IPC :0.60276: L2-Pf-HR :0.89309: L2-HR :0.88534: (Sim:2h46m37s) 
CPU  1 inst:   80000001 cyc:  127134150 now IPC :1.94922: AVG IPC :0.61834: L2-Pf-HR :0.89798: L2-HR :0.88949: (Sim:2h46m42s) 
CPU  3 inst:   79000000 cyc:  127557354 now IPC :1.43130: AVG IPC :0.60837: L2-Pf-HR :0.89436: L2-HR :0.88642: (Sim:2h47m21s) 
CPU  0 inst:   81000005 cyc:  127625741 now IPC :1.46703: AVG IPC :0.62385: L2-Pf-HR :0.89943: L2-HR :0.89057: (Sim:2h47m31s) 
CPU  2 inst:   79000000 cyc:  127737921 now IPC :1.51710: AVG IPC :0.60752: L2-Pf-HR :0.89442: L2-HR :0.88651: (Sim:2h47m50s) 
CPU  1 inst:   81000005 cyc:  127860434 now IPC :1.37688: AVG IPC :0.62269: L2-Pf-HR :0.89875: L2-HR :0.89020: (Sim:2h48m12s) 
CPU  3 inst:   80000001 cyc:  128082058 now IPC :1.90584: AVG IPC :0.61373: L2-Pf-HR :0.89543: L2-HR :0.88741: (Sim:2h48m53s) 
CPU  2 inst:   80000001 cyc:  128236566 now IPC :2.00544: AVG IPC :0.61299: L2-Pf-HR :0.89556: L2-HR :0.88756: (Sim:2h49m18s) 
CPU  0 inst:   82000004 cyc:  128255609 now IPC :1.58763: AVG IPC :0.62862: L2-Pf-HR :0.90038: L2-HR :0.89142: (Sim:2h49m20s) 
CPU  1 inst:   82000004 cyc:  128546199 now IPC :1.45822: AVG IPC :0.62718: L2-Pf-HR :0.89958: L2-HR :0.89095: (Sim:2h50m5s) 
CPU  3 inst:   81000005 cyc:  128797332 now IPC :1.39807: AVG IPC :0.61812: L2-Pf-HR :0.89629: L2-HR :0.88818: (Sim:2h50m51s) 
CPU  0 inst:   83000002 cyc:  128820687 now IPC :1.76966: AVG IPC :0.63366: L2-Pf-HR :0.90166: L2-HR :0.89262: (Sim:2h50m54s) 
CPU  2 inst:   81000005 cyc:  128913503 now IPC :1.47725: AVG IPC :0.61757: L2-Pf-HR :0.89649: L2-HR :0.88838: (Sim:2h51m6s) 
CPU  1 inst:   83000002 cyc:  129100817 now IPC :1.80304: AVG IPC :0.63227: L2-Pf-HR :0.90077: L2-HR :0.89206: (Sim:2h51m39s) 
CPU  0 inst:   84000003 cyc:  129420215 now IPC :1.66798: AVG IPC :0.63849: L2-Pf-HR :0.90241: L2-HR :0.89328: (Sim:2h52m26s) 
CPU  3 inst:   82000004 cyc:  129528690 now IPC :1.36732: AVG IPC :0.62238: L2-Pf-HR :0.89724: L2-HR :0.88897: (Sim:2h52m45s) 
CPU  2 inst:   82000004 cyc:  129602821 now IPC :1.45071: AVG IPC :0.62203: L2-Pf-HR :0.89751: L2-HR :0.88927: (Sim:2h52m59s) 
CPU  1 inst:   84000003 cyc:  129772558 now IPC :1.48867: AVG IPC :0.63674: L2-Pf-HR :0.90141: L2-HR :0.89261: (Sim:2h53m28s) 
CPU  0 inst:   85000004 cyc:  130040666 now IPC :1.61173: AVG IPC :0.64317: L2-Pf-HR :0.90325: L2-HR :0.89405: (Sim:2h54m14s) 
CPU  3 inst:   83000002 cyc:  130078377 now IPC :1.81921: AVG IPC :0.62748: L2-Pf-HR :0.89842: L2-HR :0.89008: (Sim:2h54m19s) 
CPU  2 inst:   83000002 cyc:  130205721 now IPC :1.65865: AVG IPC :0.62687: L2-Pf-HR :0.89881: L2-HR :0.89046: (Sim:2h54m40s) 
CPU  1 inst:   85000004 cyc:  130487900 now IPC :1.39793: AVG IPC :0.64094: L2-Pf-HR :0.90219: L2-HR :0.89332: (Sim:2h55m29s) 
CPU  0 inst:   86000004 cyc:  130733313 now IPC :1.44374: AVG IPC :0.64744: L2-Pf-HR :0.90420: L2-HR :0.89490: (Sim:2h56m11s) 
CPU  3 inst:   84000003 cyc:  130761842 now IPC :1.46313: AVG IPC :0.63188: L2-Pf-HR :0.89911: L2-HR :0.89068: (Sim:2h56m17s) 
CPU  2 inst:   84000003 cyc:  130839661 now IPC :1.57744: AVG IPC :0.63151: L2-Pf-HR :0.89946: L2-HR :0.89104: (Sim:2h56m31s) 
CPU  1 inst:   86000004 cyc:  131187717 now IPC :1.42894: AVG IPC :0.64518: L2-Pf-HR :0.90310: L2-HR :0.89413: (Sim:2h57m21s) 
CPU  0 inst:   87000004 cyc:  131273928 now IPC :1.84975: AVG IPC :0.65243: L2-Pf-HR :0.90539: L2-HR :0.89601: (Sim:2h57m35s) 
CPU  3 inst:   85000004 cyc:  131561766 now IPC :1.25012: AVG IPC :0.63567: L2-Pf-HR :0.90002: L2-HR :0.89148: (Sim:2h58m21s) 
CPU  2 inst:   85000004 cyc:  131623793 now IPC :1.27530: AVG IPC :0.63537: L2-Pf-HR :0.90036: L2-HR :0.89182: (Sim:2h58m31s) 
CPU  1 inst:   87000004 cyc:  131751173 now IPC :1.77476: AVG IPC :0.65004: L2-Pf-HR :0.90414: L2-HR :0.89511: (Sim:2h58m50s) 
CPU  0 inst:   88000002 cyc:  131897399 now IPC :1.60392: AVG IPC :0.65696: L2-Pf-HR :0.90599: L2-HR :0.89654: (Sim:2h59m11s) 
CPU  3 inst:   86000004 cyc:  132318179 now IPC :1.32203: AVG IPC :0.63962: L2-Pf-HR :0.90097: L2-HR :0.89231: (Sim:3h0m6s) 
CPU  2 inst:   86000004 cyc:  132402826 now IPC :1.28364: AVG IPC :0.63922: L2-Pf-HR :0.90126: L2-HR :0.89260: (Sim:3h0m20s) 
CPU  1 inst:   88000002 cyc:  132464429 now IPC :1.40202: AVG IPC :0.65412: L2-Pf-HR :0.90490: L2-HR :0.89578: (Sim:3h0m31s) 
CPU  0 inst:   89000003 cyc:  132620020 now IPC :1.38385: AVG IPC :0.66095: L2-Pf-HR :0.90683: L2-HR :0.89729: (Sim:3h1m0s) 
CPU  3 inst:   87000004 cyc:  132836621 now IPC :1.92886: AVG IPC :0.64469: L2-Pf-HR :0.90199: L2-HR :0.89327: (Sim:3h1m38s) 
CPU  2 inst:   87000004 cyc:  132902503 now IPC :2.00129: AVG IPC :0.64438: L2-Pf-HR :0.90226: L2-HR :0.89354: (Sim:3h1m50s) 
CPU  1 inst:   89000003 cyc:  133124646 now IPC :1.51465: AVG IPC :0.65842: L2-Pf-HR :0.90576: L2-HR :0.89654: (Sim:3h2m21s) 
CPU  0 inst:   90000003 cyc:  133304502 now IPC :1.46096: AVG IPC :0.66509: L2-Pf-HR :0.90773: L2-HR :0.89812: (Sim:3h2m52s) 
CPU  3 inst:   88000002 cyc:  133527075 now IPC :1.44832: AVG IPC :0.64888: L2-Pf-HR :0.90259: L2-HR :0.89379: (Sim:3h3m29s) 
CPU  2 inst:   88000002 cyc:  133611955 now IPC :1.40954: AVG IPC :0.64847: L2-Pf-HR :0.90295: L2-HR :0.89414: (Sim:3h3m43s) 
CPU  1 inst:   90000003 cyc:  133728453 now IPC :1.65616: AVG IPC :0.66296: L2-Pf-HR :0.90656: L2-HR :0.89728: (Sim:3h3m57s) 
CPU  0 inst:   91000003 cyc:  133811557 now IPC :1.97217: AVG IPC :0.67008: L2-Pf-HR :0.90851: L2-HR :0.89886: (Sim:3h4m4s) 
CPU  3 inst:   89000003 cyc:  134226818 now IPC :1.42910: AVG IPC :0.65298: L2-Pf-HR :0.90345: L2-HR :0.89455: (Sim:3h4m38s) 
CPU  1 inst:   91000003 cyc:  134273728 now IPC :1.83394: AVG IPC :0.66775: L2-Pf-HR :0.90751: L2-HR :0.89817: (Sim:3h4m43s) 
CPU  2 inst:   89000003 cyc:  134338313 now IPC :1.37673: AVG IPC :0.65244: L2-Pf-HR :0.90380: L2-HR :0.89490: (Sim:3h4m49s) 
CPU  0 inst:   92000001 cyc:  134508665 now IPC :1.43450: AVG IPC :0.67407: L2-Pf-HR :0.90918: L2-HR :0.89948: (Sim:3h5m4s) 
CPU  3 inst:   90000003 cyc:  134881168 now IPC :1.52823: AVG IPC :0.65725: L2-Pf-HR :0.90437: L2-HR :0.89539: (Sim:3h5m37s) 
CPU  1 inst:   92000001 cyc:  134935914 now IPC :1.51015: AVG IPC :0.67192: L2-Pf-HR :0.90832: L2-HR :0.89890: (Sim:3h5m40s) 
CPU  2 inst:   90000003 cyc:  135080671 now IPC :1.34706: AVG IPC :0.65628: L2-Pf-HR :0.90473: L2-HR :0.89575: (Sim:3h5m51s) 
CPU  0 inst:   93000001 cyc:  135259989 now IPC :1.33098: AVG IPC :0.67775: L2-Pf-HR :0.90995: L2-HR :0.90018: (Sim:3h6m9s) 
CPU  3 inst:   91000003 cyc:  135454092 now IPC :1.74543: AVG IPC :0.66189: L2-Pf-HR :0.90525: L2-HR :0.89621: (Sim:3h6m27s) 
CPU  2 inst:   91000003 cyc:  135589114 now IPC :1.96679: AVG IPC :0.66123: L2-Pf-HR :0.90558: L2-HR :0.89655: (Sim:3h6m39s) 
CPU  1 inst:   93000001 cyc:  135604846 now IPC :1.49492: AVG IPC :0.67601: L2-Pf-HR :0.90911: L2-HR :0.89961: (Sim:3h6m40s) 
CPU  0 inst:   94000005 cyc:  135812697 now IPC :1.80928: AVG IPC :0.68239: L2-Pf-HR :0.91087: L2-HR :0.90106: (Sim:3h6m59s) 
CPU  3 inst:   92000001 cyc:  136152461 now IPC :1.43190: AVG IPC :0.66587: L2-Pf-HR :0.90606: L2-HR :0.89695: (Sim:3h7m28s) 
CPU  1 inst:   94000005 cyc:  136188492 now IPC :1.71337: AVG IPC :0.68049: L2-Pf-HR :0.91022: L2-HR :0.90065: (Sim:3h7m31s) 
CPU  2 inst:   92000001 cyc:  136302115 now IPC :1.40252: AVG IPC :0.66514: L2-Pf-HR :0.90630: L2-HR :0.89720: (Sim:3h7m42s) 
CPU  0 inst:   95000005 cyc:  136465794 now IPC :1.53117: AVG IPC :0.68648: L2-Pf-HR :0.91132: L2-HR :0.90146: (Sim:3h7m57s) 
CPU  1 inst:   95000005 cyc:  136784149 now IPC :1.67882: AVG IPC :0.68486: L2-Pf-HR :0.91077: L2-HR :0.90115: (Sim:3h8m22s) 
CPU  3 inst:   93000001 cyc:  136806240 now IPC :1.52957: AVG IPC :0.67003: L2-Pf-HR :0.90686: L2-HR :0.89766: (Sim:3h8m24s) 
CPU  2 inst:   93000001 cyc:  137016455 now IPC :1.39989: AVG IPC :0.66900: L2-Pf-HR :0.90699: L2-HR :0.89781: (Sim:3h8m44s) 
CPU  0 inst:   96000000 cyc:  137203983 now IPC :1.35466: AVG IPC :0.69010: L2-Pf-HR :0.91187: L2-HR :0.90198: (Sim:3h9m1s) 
CPU  3 inst:   94000005 cyc:  137374590 now IPC :1.75949: AVG IPC :0.67457: L2-Pf-HR :0.90792: L2-HR :0.89866: (Sim:3h9m17s) 
CPU  1 inst:   96000000 cyc:  137428288 now IPC :1.55245: AVG IPC :0.68896: L2-Pf-HR :0.91139: L2-HR :0.90172: (Sim:3h9m21s) 
CPU  2 inst:   94000001 cyc:  137552198 now IPC :1.86657: AVG IPC :0.67370: L2-Pf-HR :0.90795: L2-HR :0.89872: (Sim:3h9m33s) 
CPU  0 inst:   97000002 cyc:  137904463 now IPC :1.42760: AVG IPC :0.69387: L2-Pf-HR :0.91250: L2-HR :0.90256: (Sim:3h10m1s) 
CPU  3 inst:   95000005 cyc:  138029521 now IPC :1.52688: AVG IPC :0.67864: L2-Pf-HR :0.90851: L2-HR :0.89918: (Sim:3h10m12s) 
CPU  1 inst:   97000002 cyc:  138078315 now IPC :1.53840: AVG IPC :0.69299: L2-Pf-HR :0.91214: L2-HR :0.90239: (Sim:3h10m17s) 
CPU  2 inst:   95000005 cyc:  138229213 now IPC :1.47708: AVG IPC :0.67766: L2-Pf-HR :0.90848: L2-HR :0.89919: (Sim:3h10m32s) 
CPU  0 inst:   98000004 cyc:  138431858 now IPC :1.89612: AVG IPC :0.69849: L2-Pf-HR :0.91327: L2-HR :0.90331: (Sim:3h10m51s) 
CPU  1 inst:   98000004 cyc:  138594959 now IPC :1.93557: AVG IPC :0.69765: L2-Pf-HR :0.91299: L2-HR :0.90321: (Sim:3h11m10s) 
CPU  3 inst:   96000000 cyc:  138701157 now IPC :1.48889: AVG IPC :0.68259: L2-Pf-HR :0.90925: L2-HR :0.89985: (Sim:3h11m25s) 
CPU  2 inst:   96000000 cyc:  138999498 now IPC :1.29821: AVG IPC :0.68112: L2-Pf-HR :0.90912: L2-HR :0.89978: (Sim:3h11m56s) 
CPU  0 inst:   99000003 cyc:  139209062 now IPC :1.28666: AVG IPC :0.70179: L2-Pf-HR :0.91371: L2-HR :0.90372: (Sim:3h12m15s) 
CPU  1 inst:   99000003 cyc:  139312201 now IPC :1.39423: AVG IPC :0.70127: L2-Pf-HR :0.91341: L2-HR :0.90357: (Sim:3h12m25s) 
CPU  3 inst:   97000002 cyc:  139342710 now IPC :1.55872: AVG IPC :0.68665: L2-Pf-HR :0.90995: L2-HR :0.90050: (Sim:3h12m28s) 
CPU  2 inst:   97000002 cyc:  139695367 now IPC :1.43705: AVG IPC :0.68492: L2-Pf-HR :0.90982: L2-HR :0.90042: (Sim:3h12m55s) 
CPU  3 inst:   98000004 cyc:  139891354 now IPC :1.82268: AVG IPC :0.69114: L2-Pf-HR :0.91088: L2-HR :0.90139: (Sim:3h13m14s) 
CPU  0 inst:  100000005 cyc:  139954201 now IPC :1.34203: AVG IPC :0.70523: L2-Pf-HR :0.91424: L2-HR :0.90419: (Sim:3h13m20s) 
Finished CPU 0 instr: 98000001 cyc: 138962127 AVG IPC: 0.70523 (Sim time: 3h13m20s)
CPU  1 inst:  100000005 cyc:  140021555 now IPC :1.40974: AVG IPC :0.70488: L2-Pf-HR :0.91394: L2-HR :0.90405: (Sim:3h13m26s) 
Finished CPU 1 instr: 98000002 cyc: 139029890 AVG IPC: 0.70488 (Sim time: 3h13m26s)
CPU  2 inst:   98000004 cyc:  140223497 now IPC :1.89348: AVG IPC :0.68950: L2-Pf-HR :0.91060: L2-HR :0.90118: (Sim:3h13m45s) 
CPU  3 inst:   99000003 cyc:  140499693 now IPC :1.64382: AVG IPC :0.69530: L2-Pf-HR :0.91141: L2-HR :0.90184: (Sim:3h14m9s) 
CPU  0 inst:  101000001 cyc:  140647776 now IPC :1.44180: AVG IPC :0.70889: L2-Pf-HR :0.91474: L2-HR :0.90467: (Sim:3h14m20s) 
CPU  1 inst:  101000001 cyc:  140691063 now IPC :1.49363: AVG IPC :0.70866: L2-Pf-HR :0.91448: L2-HR :0.90455: (Sim:3h14m24s) 
CPU  2 inst:   99000003 cyc:  140904396 now IPC :1.46865: AVG IPC :0.69329: L2-Pf-HR :0.91107: L2-HR :0.90159: (Sim:3h14m43s) 
CPU  3 inst:  100000005 cyc:  141145745 now IPC :1.54787: AVG IPC :0.69923: L2-Pf-HR :0.91190: L2-HR :0.90228: (Sim:3h15m7s) 
Finished CPU 3 instr: 98000000 cyc: 140154088 AVG IPC: 0.69923 (Sim time: 3h15m7s)
CPU  0 inst:  102000005 cyc:  141148034 now IPC :1.99898: AVG IPC :0.71349: L2-Pf-HR :0.91531: L2-HR :0.90522: (Sim:3h15m7s) 
CPU  1 inst:  102000005 cyc:  141192692 now IPC :1.99351: AVG IPC :0.71326: L2-Pf-HR :0.91504: L2-HR :0.90510: (Sim:3h15m11s) 
CPU  2 inst:  100000005 cyc:  141605434 now IPC :1.42646: AVG IPC :0.69695: L2-Pf-HR :0.91162: L2-HR :0.90209: (Sim:3h15m45s) 
Finished CPU 2 instr: 98000003 cyc: 140613322 AVG IPC: 0.69695 (Sim time: 3h15m45s)

ChampSim completed all CPUs

Total Simulation Statistics (not including warmup)

CPU 0 cumulative IPC: 0.71413 instructions: 100416093 cycles: 140613322
Core_0_L1D_total_access 58213865
Core_0_L1D_total_hit 55909721
Core_0_L1D_total_miss 2304144
Core_0_L1D_loads 21715200
Core_0_L1D_load_hit 20412666
Core_0_L1D_load_miss 1302534
Core_0_L1D_RFOs 2987633
Core_0_L1D_RFO_hit 2859879
Core_0_L1D_RFO_miss 127754
Core_0_L1D_prefetches 33511032
Core_0_L1D_prefetch_hit 32637176
Core_0_L1D_prefetch_miss 873856
Core_0_L1D_writebacks 0
Core_0_L1D_writeback_hit 0
Core_0_L1D_writeback_miss 0

Core_0_L1I_total_access 13112235
Core_0_L1I_total_hit 13107462
Core_0_L1I_total_miss 4773
Core_0_L1I_loads 13112235
Core_0_L1I_load_hit 13107462
Core_0_L1I_load_miss 4773
Core_0_L1I_RFOs 0
Core_0_L1I_RFO_hit 0
Core_0_L1I_RFO_miss 0
Core_0_L1I_prefetches 0
Core_0_L1I_prefetch_hit 0
Core_0_L1I_prefetch_miss 0
Core_0_L1I_writebacks 0
Core_0_L1I_writeback_hit 0
Core_0_L1I_writeback_miss 0

Core_0_L2C_total_access 8749346
Core_0_L2C_total_hit 7920848
Core_0_L2C_total_miss 828498
Core_0_L2C_loads 1091827
Core_0_L2C_load_hit 875048
Core_0_L2C_load_miss 216779
Core_0_L2C_RFOs 127098
Core_0_L2C_RFO_hit 93550
Core_0_L2C_RFO_miss 33548
Core_0_L2C_prefetches 6834466
Core_0_L2C_prefetch_hit 6256372
Core_0_L2C_prefetch_miss 578094
Core_0_L2C_writebacks 695955
Core_0_L2C_writeback_hit 695878
Core_0_L2C_writeback_miss 77

CPU 0 L1D next line prefetcher final stats
CPU 0 L2C PC-based stride prefetcher final stats
Stride Degree: 15
MK1  MARKOV_LRU_SIZE: 128
MK1  MARKOV_PREDICTION_PERCENTTHRESHOLD: 40.00000
MK1  OUTLIERS_THRESHOLD_Max: 64
MK1  OUTLIERS_THRESHOLD_Min: 32
MK2  MARKOV_LRU_SIZE: 256
MK2  MARKOV_PREDICTION_PERCENTTHRESHOLD: 30.00000
MK2  OUTLIERS_THRESHOLD_Max: 32
MK2  OUTLIERS_THRESHOLD_Min: 16
MK3  MARKOV_LRU_SIZE: 384
MK3  MARKOV_PREDICTION_PERCENTTHRESHOLD: 25.00000
MK3  OUTLIERS_THRESHOLD_Max: 16
MK3  OUTLIERS_THRESHOLD_Min: 8
MK4  MARKOV_LRU_SIZE: 512
MK4  MARKOV_PREDICTION_PERCENTTHRESHOLD: 20.00000
MK4  OUTLIERS_THRESHOLD_Max: 8
MK4  OUTLIERS_THRESHOLD_Min: 0
IPStride Degree/Access Ratio: 3.26339
MK1 IPDEltaMarkov  Degree/Access Ratio: 0.33389
MK2 IPDEltaMarkov  Degree/Access Ratio: 0.51317
MK3 IPDEltaMarkov  Degree/Access Ratio: 0.84713
MK4 IPDEltaMarkov  Degree/Access Ratio: 1.57420
Core_0_LLC_total_access 1291548
Core_0_LLC_total_hit 460370
Core_0_LLC_total_miss 831178
Core_0_LLC_loads 113978
Core_0_LLC_load_hit 6835
Core_0_LLC_load_miss 107143
Core_0_LLC_RFOs 33517
Core_0_LLC_RFO_hit 1142
Core_0_LLC_RFO_miss 32375
Core_0_LLC_prefetches 711113
Core_0_LLC_prefetch_hit 28128
Core_0_LLC_prefetch_miss 682985
Core_0_LLC_writebacks 432940
Core_0_LLC_writeback_hit 424265
Core_0_LLC_writeback_miss 8675


CPU 1 cumulative IPC: 0.71364 instructions: 100347328 cycles: 140613322
Core_1_L1D_total_access 58200614
Core_1_L1D_total_hit 55897311
Core_1_L1D_total_miss 2303303
Core_1_L1D_loads 21705293
Core_1_L1D_load_hit 20404292
Core_1_L1D_load_miss 1301001
Core_1_L1D_RFOs 2987385
Core_1_L1D_RFO_hit 2859568
Core_1_L1D_RFO_miss 127817
Core_1_L1D_prefetches 33507936
Core_1_L1D_prefetch_hit 32633451
Core_1_L1D_prefetch_miss 874485
Core_1_L1D_writebacks 0
Core_1_L1D_writeback_hit 0
Core_1_L1D_writeback_miss 0

Core_1_L1I_total_access 13107931
Core_1_L1I_total_hit 13103158
Core_1_L1I_total_miss 4773
Core_1_L1I_loads 13107931
Core_1_L1I_load_hit 13103158
Core_1_L1I_load_miss 4773
Core_1_L1I_RFOs 0
Core_1_L1I_RFO_hit 0
Core_1_L1I_RFO_miss 0
Core_1_L1I_prefetches 0
Core_1_L1I_prefetch_hit 0
Core_1_L1I_prefetch_miss 0
Core_1_L1I_writebacks 0
Core_1_L1I_writeback_hit 0
Core_1_L1I_writeback_miss 0

Core_1_L2C_total_access 8725419
Core_1_L2C_total_hit 7897696
Core_1_L2C_total_miss 827723
Core_1_L2C_loads 1090291
Core_1_L2C_load_hit 874680
Core_1_L2C_load_miss 215611
Core_1_L2C_RFOs 127120
Core_1_L2C_RFO_hit 93406
Core_1_L2C_RFO_miss 33714
Core_1_L2C_prefetches 6812085
Core_1_L2C_prefetch_hit 6233727
Core_1_L2C_prefetch_miss 578358
Core_1_L2C_writebacks 695923
Core_1_L2C_writeback_hit 695883
Core_1_L2C_writeback_miss 40

CPU 1 L1D next line prefetcher final stats
CPU 1 L2C PC-based stride prefetcher final stats
Stride Degree: 15
MK1  MARKOV_LRU_SIZE: 128
MK1  MARKOV_PREDICTION_PERCENTTHRESHOLD: 40.00000
MK1  OUTLIERS_THRESHOLD_Max: 64
MK1  OUTLIERS_THRESHOLD_Min: 32
MK2  MARKOV_LRU_SIZE: 256
MK2  MARKOV_PREDICTION_PERCENTTHRESHOLD: 30.00000
MK2  OUTLIERS_THRESHOLD_Max: 32
MK2  OUTLIERS_THRESHOLD_Min: 16
MK3  MARKOV_LRU_SIZE: 384
MK3  MARKOV_PREDICTION_PERCENTTHRESHOLD: 25.00000
MK3  OUTLIERS_THRESHOLD_Max: 16
MK3  OUTLIERS_THRESHOLD_Min: 8
MK4  MARKOV_LRU_SIZE: 512
MK4  MARKOV_PREDICTION_PERCENTTHRESHOLD: 20.00000
MK4  OUTLIERS_THRESHOLD_Max: 8
MK4  OUTLIERS_THRESHOLD_Min: 0
IPStride Degree/Access Ratio: 3.26339
MK1 IPDEltaMarkov  Degree/Access Ratio: 0.33389
MK2 IPDEltaMarkov  Degree/Access Ratio: 0.51317
MK3 IPDEltaMarkov  Degree/Access Ratio: 0.84713
MK4 IPDEltaMarkov  Degree/Access Ratio: 1.57420
Core_1_LLC_total_access 1289027
Core_1_LLC_total_hit 457868
Core_1_LLC_total_miss 831159
Core_1_LLC_loads 113525
Core_1_LLC_load_hit 6412
Core_1_LLC_load_miss 107113
Core_1_LLC_RFOs 33676
Core_1_LLC_RFO_hit 1530
Core_1_LLC_RFO_miss 32146
Core_1_LLC_prefetches 710062
Core_1_LLC_prefetch_hit 27074
Core_1_LLC_prefetch_miss 682988
Core_1_LLC_writebacks 431764
Core_1_LLC_writeback_hit 422852
Core_1_LLC_writeback_miss 8912


CPU 2 cumulative IPC: 0.69695 instructions: 98000003 cycles: 140613322
Core_2_L1D_total_access 57118335
Core_2_L1D_total_hit 54870943
Core_2_L1D_total_miss 2247392
Core_2_L1D_loads 21243431
Core_2_L1D_load_hit 19977425
Core_2_L1D_load_miss 1266006
Core_2_L1D_RFOs 2947188
Core_2_L1D_RFO_hit 2820601
Core_2_L1D_RFO_miss 126587
Core_2_L1D_prefetches 32927716
Core_2_L1D_prefetch_hit 32072917
Core_2_L1D_prefetch_miss 854799
Core_2_L1D_writebacks 0
Core_2_L1D_writeback_hit 0
Core_2_L1D_writeback_miss 0

Core_2_L1I_total_access 12853723
Core_2_L1I_total_hit 12848948
Core_2_L1I_total_miss 4775
Core_2_L1I_loads 12853723
Core_2_L1I_load_hit 12848948
Core_2_L1I_load_miss 4775
Core_2_L1I_RFOs 0
Core_2_L1I_RFO_hit 0
Core_2_L1I_RFO_miss 0
Core_2_L1I_prefetches 0
Core_2_L1I_prefetch_hit 0
Core_2_L1I_prefetch_miss 0
Core_2_L1I_writebacks 0
Core_2_L1I_writeback_hit 0
Core_2_L1I_writeback_miss 0

Core_2_L2C_total_access 8334602
Core_2_L2C_total_hit 7518561
Core_2_L2C_total_miss 816041
Core_2_L2C_loads 1061634
Core_2_L2C_load_hit 850135
Core_2_L2C_load_miss 211499
Core_2_L2C_RFOs 125783
Core_2_L2C_RFO_hit 92644
Core_2_L2C_RFO_miss 33139
Core_2_L2C_prefetches 6464531
Core_2_L2C_prefetch_hit 5893172
Core_2_L2C_prefetch_miss 571359
Core_2_L2C_writebacks 682654
Core_2_L2C_writeback_hit 682610
Core_2_L2C_writeback_miss 44

CPU 2 L1D next line prefetcher final stats
CPU 2 L2C PC-based stride prefetcher final stats
Stride Degree: 15
MK1  MARKOV_LRU_SIZE: 128
MK1  MARKOV_PREDICTION_PERCENTTHRESHOLD: 40.00000
MK1  OUTLIERS_THRESHOLD_Max: 64
MK1  OUTLIERS_THRESHOLD_Min: 32
MK2  MARKOV_LRU_SIZE: 256
MK2  MARKOV_PREDICTION_PERCENTTHRESHOLD: 30.00000
MK2  OUTLIERS_THRESHOLD_Max: 32
MK2  OUTLIERS_THRESHOLD_Min: 16
MK3  MARKOV_LRU_SIZE: 384
MK3  MARKOV_PREDICTION_PERCENTTHRESHOLD: 25.00000
MK3  OUTLIERS_THRESHOLD_Max: 16
MK3  OUTLIERS_THRESHOLD_Min: 8
MK4  MARKOV_LRU_SIZE: 512
MK4  MARKOV_PREDICTION_PERCENTTHRESHOLD: 20.00000
MK4  OUTLIERS_THRESHOLD_Max: 8
MK4  OUTLIERS_THRESHOLD_Min: 0
IPStride Degree/Access Ratio: 3.26339
MK1 IPDEltaMarkov  Degree/Access Ratio: 0.33389
MK2 IPDEltaMarkov  Degree/Access Ratio: 0.51317
MK3 IPDEltaMarkov  Degree/Access Ratio: 0.84713
MK4 IPDEltaMarkov  Degree/Access Ratio: 1.57420
Core_2_LLC_total_access 1278240
Core_2_LLC_total_hit 462556
Core_2_LLC_total_miss 815684
Core_2_LLC_loads 111012
Core_2_LLC_load_hit 6451
Core_2_LLC_load_miss 104561
Core_2_LLC_RFOs 33123
Core_2_LLC_RFO_hit 1341
Core_2_LLC_RFO_miss 31782
Core_2_LLC_prefetches 701360
Core_2_LLC_prefetch_hit 27767
Core_2_LLC_prefetch_miss 673593
Core_2_LLC_writebacks 432745
Core_2_LLC_writeback_hit 426997
Core_2_LLC_writeback_miss 5748


CPU 3 cumulative IPC: 0.70290 instructions: 98836773 cycles: 140613323
Core_3_L1D_total_access 57504150
Core_3_L1D_total_hit 55242181
Core_3_L1D_total_miss 2261969
Core_3_L1D_loads 21408481
Core_3_L1D_load_hit 20133393
Core_3_L1D_load_miss 1275088
Core_3_L1D_RFOs 2949435
Core_3_L1D_RFO_hit 2822684
Core_3_L1D_RFO_miss 126751
Core_3_L1D_prefetches 33146234
Core_3_L1D_prefetch_hit 32286104
Core_3_L1D_prefetch_miss 860130
Core_3_L1D_writebacks 0
Core_3_L1D_writeback_hit 0
Core_3_L1D_writeback_miss 0

Core_3_L1I_total_access 12944045
Core_3_L1I_total_hit 12939270
Core_3_L1I_total_miss 4775
Core_3_L1I_loads 12944045
Core_3_L1I_load_hit 12939270
Core_3_L1I_load_miss 4775
Core_3_L1I_RFOs 0
Core_3_L1I_RFO_hit 0
Core_3_L1I_RFO_miss 0
Core_3_L1I_prefetches 0
Core_3_L1I_prefetch_hit 0
Core_3_L1I_prefetch_miss 0
Core_3_L1I_writebacks 0
Core_3_L1I_writeback_hit 0
Core_3_L1I_writeback_miss 0

Core_3_L2C_total_access 8420519
Core_3_L2C_total_hit 7604925
Core_3_L2C_total_miss 815594
Core_3_L2C_loads 1069560
Core_3_L2C_load_hit 857326
Core_3_L2C_load_miss 212234
Core_3_L2C_RFOs 125936
Core_3_L2C_RFO_hit 92940
Core_3_L2C_RFO_miss 32996
Core_3_L2C_prefetches 6540601
Core_3_L2C_prefetch_hit 5970248
Core_3_L2C_prefetch_miss 570353
Core_3_L2C_writebacks 684422
Core_3_L2C_writeback_hit 684411
Core_3_L2C_writeback_miss 11

CPU 3 L1D next line prefetcher final stats
CPU 3 L2C PC-based stride prefetcher final stats
Stride Degree: 15
MK1  MARKOV_LRU_SIZE: 128
MK1  MARKOV_PREDICTION_PERCENTTHRESHOLD: 40.00000
MK1  OUTLIERS_THRESHOLD_Max: 64
MK1  OUTLIERS_THRESHOLD_Min: 32
MK2  MARKOV_LRU_SIZE: 256
MK2  MARKOV_PREDICTION_PERCENTTHRESHOLD: 30.00000
MK2  OUTLIERS_THRESHOLD_Max: 32
MK2  OUTLIERS_THRESHOLD_Min: 16
MK3  MARKOV_LRU_SIZE: 384
MK3  MARKOV_PREDICTION_PERCENTTHRESHOLD: 25.00000
MK3  OUTLIERS_THRESHOLD_Max: 16
MK3  OUTLIERS_THRESHOLD_Min: 8
MK4  MARKOV_LRU_SIZE: 512
MK4  MARKOV_PREDICTION_PERCENTTHRESHOLD: 20.00000
MK4  OUTLIERS_THRESHOLD_Max: 8
MK4  OUTLIERS_THRESHOLD_Min: 0
IPStride Degree/Access Ratio: 3.26339
MK1 IPDEltaMarkov  Degree/Access Ratio: 0.33389
MK2 IPDEltaMarkov  Degree/Access Ratio: 0.51317
MK3 IPDEltaMarkov  Degree/Access Ratio: 0.84713
MK4 IPDEltaMarkov  Degree/Access Ratio: 1.57420
Core_3_LLC_total_access 1273695
Core_3_LLC_total_hit 452681
Core_3_LLC_total_miss 821014
Core_3_LLC_loads 111637
Core_3_LLC_load_hit 6637
Core_3_LLC_load_miss 105000
Core_3_LLC_RFOs 32980
Core_3_LLC_RFO_hit 1157
Core_3_LLC_RFO_miss 31823
Core_3_LLC_prefetches 700173
Core_3_LLC_prefetch_hit 27003
Core_3_LLC_prefetch_miss 673170
Core_3_LLC_writebacks 428905
Core_3_LLC_writeback_hit 417884
Core_3_LLC_writeback_miss 11021


[ROI Statistics]
Core_0_instructions 98000001
Core_0_cycles 138962127
Core_0_IPC 0.70523

Core_0_branch_prediction_accuracy 98.31696
Core_0_branch_MPKI 0.50930
Core_0_average_ROB_occupancy_at_mispredict 438.52497

Core_0_L1D_total_access 57110166
Core_0_L1D_total_hit 54862849 L1D_total_Hit Ratio: 0.96065
Core_0_L1D_total_miss 2247317
Core_0_L1D_loads 21243436
Core_0_L1D_load_hit 19977239 L1D_load_Hit Ratio: 0.94040
Core_0_L1D_load_miss 1266197
Core_0_L1D_RFOs 2946627
Core_0_L1D_RFO_hit 2820298 L1D_RFO_Hit Ratio: 0.95713
Core_0_L1D_RFO_miss 126329
Core_0_L1D_prefetches 32920103
Core_0_L1D_prefetch_hit 32065312 L1D_prefetch_Hit Ratio: 0.97403
Core_0_L1D_prefetch_miss 854791
Core_0_L1D_writebacks 0
Core_0_L1D_writeback_hit 0 L1D_writeback_Hit Ratio: -nan
Core_0_L1D_writeback_miss 0
Core_0_L1D_prefetch_requested 68034855
Core_0_L1D_prefetch_issued 40742056
Core_0_L1D_prefetch_useful 711377 L1D_Useful Ratio: 0.01746
Core_0_L1D_prefetch_useless 183378
Core_0_L1D_prefetch_late 216830
Core_0_L1D_average_miss_latency 7749025.19287

Core_0_L1I_total_access 12851836
Core_0_L1I_total_hit 12847063 L1I_total_Hit Ratio: 0.99963
Core_0_L1I_total_miss 4773
Core_0_L1I_loads 12851836
Core_0_L1I_load_hit 12847063 L1I_load_Hit Ratio: 0.99963
Core_0_L1I_load_miss 4773
Core_0_L1I_RFOs 0
Core_0_L1I_RFO_hit 0 L1I_RFO_Hit Ratio: -nan
Core_0_L1I_RFO_miss 0
Core_0_L1I_prefetches 0
Core_0_L1I_prefetch_hit 0 L1I_prefetch_Hit Ratio: -nan
Core_0_L1I_prefetch_miss 0
Core_0_L1I_writebacks 0
Core_0_L1I_writeback_hit 0 L1I_writeback_Hit Ratio: -nan
Core_0_L1I_writeback_miss 0
Core_0_L1I_prefetch_requested 0
Core_0_L1I_prefetch_issued 0
Core_0_L1I_prefetch_useful 0 L1I_Useful Ratio: -nan
Core_0_L1I_prefetch_useless 0
Core_0_L1I_prefetch_late 0
Core_0_L1I_average_miss_latency 1176.38383

Core_0_L2C_total_access 8515428
Core_0_L2C_total_hit 7699604 L2C_total_Hit Ratio: 0.90419
Core_0_L2C_total_miss 815824
Core_0_L2C_loads 1062532
Core_0_L2C_load_hit 850055 L2C_load_Hit Ratio: 0.80003
Core_0_L2C_load_miss 212477
Core_0_L2C_RFOs 125678
Core_0_L2C_RFO_hit 92255 L2C_RFO_Hit Ratio: 0.73406
Core_0_L2C_RFO_miss 33423
Core_0_L2C_prefetches 6644545
Core_0_L2C_prefetch_hit 6074698 L2C_prefetch_Hit Ratio: 0.91424
Core_0_L2C_prefetch_miss 569847
Core_0_L2C_writebacks 682673
Core_0_L2C_writeback_hit 682596 L2C_writeback_Hit Ratio: 0.99989
Core_0_L2C_writeback_miss 77
Core_0_L2C_prefetch_requested 13938384
Core_0_L2C_prefetch_issued 8763358
Core_0_L2C_prefetch_useful 244008 L2C_Useful Ratio: 0.02784
Core_0_L2C_prefetch_useless 341517
Core_0_L2C_prefetch_late 103125
Core_0_L2C_average_miss_latency 972.19682

Core_0_LLC_total_access 1276268
Core_0_LLC_total_hit 457572 LLC_total_Hit Ratio: 0.35852
Core_0_LLC_total_miss 818696
Core_0_LLC_loads 110844
Core_0_LLC_load_hit 6512 LLC_load_Hit Ratio: 0.05875
Core_0_LLC_load_miss 104332
Core_0_LLC_RFOs 33392
Core_0_LLC_RFO_hit 1017 LLC_RFO_Hit Ratio: 0.03046
Core_0_LLC_RFO_miss 32375
Core_0_LLC_prefetches 700879
Core_0_LLC_prefetch_hit 27520 LLC_prefetch_Hit Ratio: 0.03926
Core_0_LLC_prefetch_miss 673359
Core_0_LLC_writebacks 431153
Core_0_LLC_writeback_hit 422523 LLC_writeback_Hit Ratio: 0.97998
Core_0_LLC_writeback_miss 8630
Core_0_LLC_prefetch_requested 0
Core_0_LLC_prefetch_issued 0
Core_0_LLC_prefetch_useful 24966 LLC_Useful Ratio: inf
Core_0_LLC_prefetch_useless 2595042
Core_0_LLC_prefetch_late 39070
Core_0_LLC_average_miss_latency 4002.69912

Core_0_major_page_fault 0
Core_0_minor_page_fault 7657

Core_1_instructions 98000002
Core_1_cycles 139029890
Core_1_IPC 0.70488

Core_1_branch_prediction_accuracy 98.31729
Core_1_branch_MPKI 0.50941
Core_1_average_ROB_occupancy_at_mispredict 438.48335

Core_1_L1D_total_access 57126770
Core_1_L1D_total_hit 54879388 L1D_total_Hit Ratio: 0.96066
Core_1_L1D_total_miss 2247382
Core_1_L1D_loads 21246713
Core_1_L1D_load_hit 19981384 L1D_load_Hit Ratio: 0.94045
Core_1_L1D_load_miss 1265329
Core_1_L1D_RFOs 2946517
Core_1_L1D_RFO_hit 2820142 L1D_RFO_Hit Ratio: 0.95711
Core_1_L1D_RFO_miss 126375
Core_1_L1D_prefetches 32933540
Core_1_L1D_prefetch_hit 32077862 L1D_prefetch_Hit Ratio: 0.97402
Core_1_L1D_prefetch_miss 855678
Core_1_L1D_writebacks 0
Core_1_L1D_writeback_hit 0 L1D_writeback_Hit Ratio: -nan
Core_1_L1D_writeback_miss 0
Core_1_L1D_prefetch_requested 68004339
Core_1_L1D_prefetch_issued 40732475
Core_1_L1D_prefetch_useful 711939 L1D_Useful Ratio: 0.01748
Core_1_L1D_prefetch_useless 183423
Core_1_L1D_prefetch_late 216888
Core_1_L1D_average_miss_latency 7767573.78626

Core_1_L1I_total_access 12854781
Core_1_L1I_total_hit 12850008 L1I_total_Hit Ratio: 0.99963
Core_1_L1I_total_miss 4773
Core_1_L1I_loads 12854781
Core_1_L1I_load_hit 12850008 L1I_load_Hit Ratio: 0.99963
Core_1_L1I_load_miss 4773
Core_1_L1I_RFOs 0
Core_1_L1I_RFO_hit 0 L1I_RFO_Hit Ratio: -nan
Core_1_L1I_RFO_miss 0
Core_1_L1I_prefetches 0
Core_1_L1I_prefetch_hit 0 L1I_prefetch_Hit Ratio: -nan
Core_1_L1I_prefetch_miss 0
Core_1_L1I_writebacks 0
Core_1_L1I_writeback_hit 0 L1I_writeback_Hit Ratio: -nan
Core_1_L1I_writeback_miss 0
Core_1_L1I_prefetch_requested 0
Core_1_L1I_prefetch_issued 0
Core_1_L1I_prefetch_useful 0 L1I_Useful Ratio: -nan
Core_1_L1I_prefetch_useless 0
Core_1_L1I_prefetch_late 0
Core_1_L1I_average_miss_latency 1237.29017

Core_1_L2C_total_access 8495663
Core_1_L2C_total_hit 7680480 L2C_total_Hit Ratio: 0.90405
Core_1_L2C_total_miss 815183
Core_1_L2C_loads 1061608
Core_1_L2C_load_hit 850228 L2C_load_Hit Ratio: 0.80089
Core_1_L2C_load_miss 211380
Core_1_L2C_RFOs 125682
Core_1_L2C_RFO_hit 92139 L2C_RFO_Hit Ratio: 0.73311
Core_1_L2C_RFO_miss 33543
Core_1_L2C_prefetches 6625687
Core_1_L2C_prefetch_hit 6055467 L2C_prefetch_Hit Ratio: 0.91394
Core_1_L2C_prefetch_miss 570220
Core_1_L2C_writebacks 682686
Core_1_L2C_writeback_hit 682646 L2C_writeback_Hit Ratio: 0.99994
Core_1_L2C_writeback_miss 40
Core_1_L2C_prefetch_requested 13870972
Core_1_L2C_prefetch_issued 8720484
Core_1_L2C_prefetch_useful 244332 L2C_Useful Ratio: 0.02802
Core_1_L2C_prefetch_useless 341693
Core_1_L2C_prefetch_late 102459
Core_1_L2C_average_miss_latency 967.71188

Core_1_LLC_total_access 1274281
Core_1_LLC_total_hit 455393 LLC_total_Hit Ratio: 0.35737
Core_1_LLC_total_miss 818888
Core_1_LLC_loads 110487
Core_1_LLC_load_hit 6068 LLC_load_Hit Ratio: 0.05492
Core_1_LLC_load_miss 104419
Core_1_LLC_RFOs 33505
Core_1_LLC_RFO_hit 1359 LLC_RFO_Hit Ratio: 0.04056
Core_1_LLC_RFO_miss 32146
Core_1_LLC_prefetches 699918
Core_1_LLC_prefetch_hit 26490 LLC_prefetch_Hit Ratio: 0.03785
Core_1_LLC_prefetch_miss 673428
Core_1_LLC_writebacks 430371
Core_1_LLC_writeback_hit 421476 LLC_writeback_Hit Ratio: 0.97933
Core_1_LLC_writeback_miss 8895
Core_1_LLC_prefetch_requested 0
Core_1_LLC_prefetch_issued 0
Core_1_LLC_prefetch_useful 24966 LLC_Useful Ratio: inf
Core_1_LLC_prefetch_useless 2595042
Core_1_LLC_prefetch_late 39070
Core_1_LLC_average_miss_latency 4001.76063

Core_1_major_page_fault 0
Core_1_minor_page_fault 7653

Core_2_instructions 98000003
Core_2_cycles 140613322
Core_2_IPC 0.69695

Core_2_branch_prediction_accuracy 98.32534
Core_2_branch_MPKI 0.51240
Core_2_average_ROB_occupancy_at_mispredict 435.14261

Core_2_L1D_total_access 57118335
Core_2_L1D_total_hit 54870943 L1D_total_Hit Ratio: 0.96065
Core_2_L1D_total_miss 2247392
Core_2_L1D_loads 21243431
Core_2_L1D_load_hit 19977425 L1D_load_Hit Ratio: 0.94040
Core_2_L1D_load_miss 1266006
Core_2_L1D_RFOs 2947188
Core_2_L1D_RFO_hit 2820601 L1D_RFO_Hit Ratio: 0.95705
Core_2_L1D_RFO_miss 126587
Core_2_L1D_prefetches 32927716
Core_2_L1D_prefetch_hit 32072917 L1D_prefetch_Hit Ratio: 0.97404
Core_2_L1D_prefetch_miss 854799
Core_2_L1D_writebacks 0
Core_2_L1D_writeback_hit 0 L1D_writeback_Hit Ratio: -nan
Core_2_L1D_writeback_miss 0
Core_2_L1D_prefetch_requested 66581328
Core_2_L1D_prefetch_issued 39989922
Core_2_L1D_prefetch_useful 693844 L1D_Useful Ratio: 0.01735
Core_2_L1D_prefetch_useless 181796
Core_2_L1D_prefetch_late 210495
Core_2_L1D_average_miss_latency 7465857.15278

Core_2_L1I_total_access 12853723
Core_2_L1I_total_hit 12848948 L1I_total_Hit Ratio: 0.99963
Core_2_L1I_total_miss 4775
Core_2_L1I_loads 12853723
Core_2_L1I_load_hit 12848948 L1I_load_Hit Ratio: 0.99963
Core_2_L1I_load_miss 4775
Core_2_L1I_RFOs 0
Core_2_L1I_RFO_hit 0 L1I_RFO_Hit Ratio: -nan
Core_2_L1I_RFO_miss 0
Core_2_L1I_prefetches 0
Core_2_L1I_prefetch_hit 0 L1I_prefetch_Hit Ratio: -nan
Core_2_L1I_prefetch_miss 0
Core_2_L1I_writebacks 0
Core_2_L1I_writeback_hit 0 L1I_writeback_Hit Ratio: -nan
Core_2_L1I_writeback_miss 0
Core_2_L1I_prefetch_requested 0
Core_2_L1I_prefetch_issued 0
Core_2_L1I_prefetch_useful 0 L1I_Useful Ratio: -nan
Core_2_L1I_prefetch_useless 0
Core_2_L1I_prefetch_late 0
Core_2_L1I_average_miss_latency 1281.56524

Core_2_L2C_total_access 8334602
Core_2_L2C_total_hit 7518561 L2C_total_Hit Ratio: 0.90209
Core_2_L2C_total_miss 816041
Core_2_L2C_loads 1061634
Core_2_L2C_load_hit 850135 L2C_load_Hit Ratio: 0.80078
Core_2_L2C_load_miss 211499
Core_2_L2C_RFOs 125783
Core_2_L2C_RFO_hit 92644 L2C_RFO_Hit Ratio: 0.73654
Core_2_L2C_RFO_miss 33139
Core_2_L2C_prefetches 6464531
Core_2_L2C_prefetch_hit 5893172 L2C_prefetch_Hit Ratio: 0.91162
Core_2_L2C_prefetch_miss 571359
Core_2_L2C_writebacks 682654
Core_2_L2C_writeback_hit 682610 L2C_writeback_Hit Ratio: 0.99994
Core_2_L2C_writeback_miss 44
Core_2_L2C_prefetch_requested 12846450
Core_2_L2C_prefetch_issued 8250744
Core_2_L2C_prefetch_useful 242630 L2C_Useful Ratio: 0.02941
Core_2_L2C_prefetch_useless 335305
Core_2_L2C_prefetch_late 100749
Core_2_L2C_average_miss_latency 1011.66086

Core_2_LLC_total_access 1278240
Core_2_LLC_total_hit 462556 LLC_total_Hit Ratio: 0.36187
Core_2_LLC_total_miss 815684
Core_2_LLC_loads 111012
Core_2_LLC_load_hit 6451 LLC_load_Hit Ratio: 0.05811
Core_2_LLC_load_miss 104561
Core_2_LLC_RFOs 33123
Core_2_LLC_RFO_hit 1341 LLC_RFO_Hit Ratio: 0.04049
Core_2_LLC_RFO_miss 31782
Core_2_LLC_prefetches 701360
Core_2_LLC_prefetch_hit 27767 LLC_prefetch_Hit Ratio: 0.03959
Core_2_LLC_prefetch_miss 673593
Core_2_LLC_writebacks 432745
Core_2_LLC_writeback_hit 426997 LLC_writeback_Hit Ratio: 0.98672
Core_2_LLC_writeback_miss 5748
Core_2_LLC_prefetch_requested 0
Core_2_LLC_prefetch_issued 0
Core_2_LLC_prefetch_useful 24966 LLC_Useful Ratio: inf
Core_2_LLC_prefetch_useless 2595042
Core_2_LLC_prefetch_late 39070
Core_2_LLC_average_miss_latency 4017.47951

Core_2_major_page_fault 0
Core_2_minor_page_fault 7592

Core_3_instructions 98000000
Core_3_cycles 140154088
Core_3_IPC 0.69923

Core_3_branch_prediction_accuracy 98.32208
Core_3_branch_MPKI 0.51110
Core_3_average_ROB_occupancy_at_mispredict 436.22939

Core_3_L1D_total_access 57115937
Core_3_L1D_total_hit 54868600 L1D_total_Hit Ratio: 0.96065
Core_3_L1D_total_miss 2247337
Core_3_L1D_loads 21243358
Core_3_L1D_load_hit 19976910 L1D_load_Hit Ratio: 0.94038
Core_3_L1D_load_miss 1266448
Core_3_L1D_RFOs 2946859
Core_3_L1D_RFO_hit 2820309 L1D_RFO_Hit Ratio: 0.95706
Core_3_L1D_RFO_miss 126550
Core_3_L1D_prefetches 32925720
Core_3_L1D_prefetch_hit 32071381 L1D_prefetch_Hit Ratio: 0.97405
Core_3_L1D_prefetch_miss 854339
Core_3_L1D_writebacks 0
Core_3_L1D_writeback_hit 0 L1D_writeback_Hit Ratio: -nan
Core_3_L1D_writeback_miss 0
Core_3_L1D_prefetch_requested 67082238
Core_3_L1D_prefetch_issued 40262151
Core_3_L1D_prefetch_useful 698815 L1D_Useful Ratio: 0.01736
Core_3_L1D_prefetch_useless 182191
Core_3_L1D_prefetch_late 211750
Core_3_L1D_average_miss_latency 7536162.10897

Core_3_L1I_total_access 12854250
Core_3_L1I_total_hit 12849475 L1I_total_Hit Ratio: 0.99963
Core_3_L1I_total_miss 4775
Core_3_L1I_loads 12854250
Core_3_L1I_load_hit 12849475 L1I_load_Hit Ratio: 0.99963
Core_3_L1I_load_miss 4775
Core_3_L1I_RFOs 0
Core_3_L1I_RFO_hit 0 L1I_RFO_Hit Ratio: -nan
Core_3_L1I_RFO_miss 0
Core_3_L1I_prefetches 0
Core_3_L1I_prefetch_hit 0 L1I_prefetch_Hit Ratio: -nan
Core_3_L1I_prefetch_miss 0
Core_3_L1I_writebacks 0
Core_3_L1I_writeback_hit 0 L1I_writeback_Hit Ratio: -nan
Core_3_L1I_writeback_miss 0
Core_3_L1I_prefetch_requested 0
Core_3_L1I_prefetch_issued 0
Core_3_L1I_prefetch_useful 0 L1I_Useful Ratio: -nan
Core_3_L1I_prefetch_useless 0
Core_3_L1I_prefetch_late 0
Core_3_L1I_average_miss_latency 1264.50492

Core_3_L2C_total_access 8341737
Core_3_L2C_total_hit 7526631 L2C_total_Hit Ratio: 0.90229
Core_3_L2C_total_miss 815106
Core_3_L2C_loads 1061872
Core_3_L2C_load_hit 849926 L2C_load_Hit Ratio: 0.80040
Core_3_L2C_load_miss 211946
Core_3_L2C_RFOs 125735
Core_3_L2C_RFO_hit 92739 L2C_RFO_Hit Ratio: 0.73758
Core_3_L2C_RFO_miss 32996
Core_3_L2C_prefetches 6471414
Core_3_L2C_prefetch_hit 5901261 L2C_prefetch_Hit Ratio: 0.91190
Core_3_L2C_prefetch_miss 570153
Core_3_L2C_writebacks 682716
Core_3_L2C_writeback_hit 682705 L2C_writeback_Hit Ratio: 0.99998
Core_3_L2C_writeback_miss 11
Core_3_L2C_prefetch_requested 13033627
Core_3_L2C_prefetch_issued 8348413
Core_3_L2C_prefetch_useful 242378 L2C_Useful Ratio: 0.02903
Core_3_L2C_prefetch_useless 335927
Core_3_L2C_prefetch_late 100928
Core_3_L2C_average_miss_latency 1006.55115

Core_3_LLC_total_access 1273140
Core_3_LLC_total_hit 452438 LLC_total_Hit Ratio: 0.35537
Core_3_LLC_total_miss 820702
Core_3_LLC_loads 111374
Core_3_LLC_load_hit 6502 LLC_load_Hit Ratio: 0.05838
Core_3_LLC_load_miss 104872
Core_3_LLC_RFOs 32980
Core_3_LLC_RFO_hit 1157 LLC_RFO_Hit Ratio: 0.03508
Core_3_LLC_RFO_miss 31823
Core_3_LLC_prefetches 699948
Core_3_LLC_prefetch_hit 26962 LLC_prefetch_Hit Ratio: 0.03852
Core_3_LLC_prefetch_miss 672986
Core_3_LLC_writebacks 428838
Core_3_LLC_writeback_hit 417817 LLC_writeback_Hit Ratio: 0.97430
Core_3_LLC_writeback_miss 11021
Core_3_LLC_prefetch_requested 0
Core_3_LLC_prefetch_issued 0
Core_3_LLC_prefetch_useful 24966 LLC_Useful Ratio: inf
Core_3_LLC_prefetch_useless 2595042
Core_3_LLC_prefetch_late 39070
Core_3_LLC_average_miss_latency 3992.91553

Core_3_major_page_fault 0
Core_3_minor_page_fault 7594

CPU 0 L1D next line prefetcher final stats
CPU 0 L2C PC-based stride prefetcher final stats
Stride Degree: 15
MK1  MARKOV_LRU_SIZE: 128
MK1  MARKOV_PREDICTION_PERCENTTHRESHOLD: 40.00000
MK1  OUTLIERS_THRESHOLD_Max: 64
MK1  OUTLIERS_THRESHOLD_Min: 32
MK2  MARKOV_LRU_SIZE: 256
MK2  MARKOV_PREDICTION_PERCENTTHRESHOLD: 30.00000
MK2  OUTLIERS_THRESHOLD_Max: 32
MK2  OUTLIERS_THRESHOLD_Min: 16
MK3  MARKOV_LRU_SIZE: 384
MK3  MARKOV_PREDICTION_PERCENTTHRESHOLD: 25.00000
MK3  OUTLIERS_THRESHOLD_Max: 16
MK3  OUTLIERS_THRESHOLD_Min: 8
MK4  MARKOV_LRU_SIZE: 512
MK4  MARKOV_PREDICTION_PERCENTTHRESHOLD: 20.00000
MK4  OUTLIERS_THRESHOLD_Max: 8
MK4  OUTLIERS_THRESHOLD_Min: 0
IPStride Degree/Access Ratio: 3.26339
MK1 IPDEltaMarkov  Degree/Access Ratio: 0.33389
MK2 IPDEltaMarkov  Degree/Access Ratio: 0.51317
MK3 IPDEltaMarkov  Degree/Access Ratio: 0.84713
MK4 IPDEltaMarkov  Degree/Access Ratio: 1.57420
CPU 1 L1D next line prefetcher final stats
CPU 1 L2C PC-based stride prefetcher final stats
Stride Degree: 15
MK1  MARKOV_LRU_SIZE: 128
MK1  MARKOV_PREDICTION_PERCENTTHRESHOLD: 40.00000
MK1  OUTLIERS_THRESHOLD_Max: 64
MK1  OUTLIERS_THRESHOLD_Min: 32
MK2  MARKOV_LRU_SIZE: 256
MK2  MARKOV_PREDICTION_PERCENTTHRESHOLD: 30.00000
MK2  OUTLIERS_THRESHOLD_Max: 32
MK2  OUTLIERS_THRESHOLD_Min: 16
MK3  MARKOV_LRU_SIZE: 384
MK3  MARKOV_PREDICTION_PERCENTTHRESHOLD: 25.00000
MK3  OUTLIERS_THRESHOLD_Max: 16
MK3  OUTLIERS_THRESHOLD_Min: 8
MK4  MARKOV_LRU_SIZE: 512
MK4  MARKOV_PREDICTION_PERCENTTHRESHOLD: 20.00000
MK4  OUTLIERS_THRESHOLD_Max: 8
MK4  OUTLIERS_THRESHOLD_Min: 0
IPStride Degree/Access Ratio: 3.26339
MK1 IPDEltaMarkov  Degree/Access Ratio: 0.33389
MK2 IPDEltaMarkov  Degree/Access Ratio: 0.51317
MK3 IPDEltaMarkov  Degree/Access Ratio: 0.84713
MK4 IPDEltaMarkov  Degree/Access Ratio: 1.57420
CPU 2 L1D next line prefetcher final stats
CPU 2 L2C PC-based stride prefetcher final stats
Stride Degree: 15
MK1  MARKOV_LRU_SIZE: 128
MK1  MARKOV_PREDICTION_PERCENTTHRESHOLD: 40.00000
MK1  OUTLIERS_THRESHOLD_Max: 64
MK1  OUTLIERS_THRESHOLD_Min: 32
MK2  MARKOV_LRU_SIZE: 256
MK2  MARKOV_PREDICTION_PERCENTTHRESHOLD: 30.00000
MK2  OUTLIERS_THRESHOLD_Max: 32
MK2  OUTLIERS_THRESHOLD_Min: 16
MK3  MARKOV_LRU_SIZE: 384
MK3  MARKOV_PREDICTION_PERCENTTHRESHOLD: 25.00000
MK3  OUTLIERS_THRESHOLD_Max: 16
MK3  OUTLIERS_THRESHOLD_Min: 8
MK4  MARKOV_LRU_SIZE: 512
MK4  MARKOV_PREDICTION_PERCENTTHRESHOLD: 20.00000
MK4  OUTLIERS_THRESHOLD_Max: 8
MK4  OUTLIERS_THRESHOLD_Min: 0
IPStride Degree/Access Ratio: 3.26339
MK1 IPDEltaMarkov  Degree/Access Ratio: 0.33389
MK2 IPDEltaMarkov  Degree/Access Ratio: 0.51317
MK3 IPDEltaMarkov  Degree/Access Ratio: 0.84713
MK4 IPDEltaMarkov  Degree/Access Ratio: 1.57420
CPU 3 L1D next line prefetcher final stats
CPU 3 L2C PC-based stride prefetcher final stats
Stride Degree: 15
MK1  MARKOV_LRU_SIZE: 128
MK1  MARKOV_PREDICTION_PERCENTTHRESHOLD: 40.00000
MK1  OUTLIERS_THRESHOLD_Max: 64
MK1  OUTLIERS_THRESHOLD_Min: 32
MK2  MARKOV_LRU_SIZE: 256
MK2  MARKOV_PREDICTION_PERCENTTHRESHOLD: 30.00000
MK2  OUTLIERS_THRESHOLD_Max: 32
MK2  OUTLIERS_THRESHOLD_Min: 16
MK3  MARKOV_LRU_SIZE: 384
MK3  MARKOV_PREDICTION_PERCENTTHRESHOLD: 25.00000
MK3  OUTLIERS_THRESHOLD_Max: 16
MK3  OUTLIERS_THRESHOLD_Min: 8
MK4  MARKOV_LRU_SIZE: 512
MK4  MARKOV_PREDICTION_PERCENTTHRESHOLD: 20.00000
MK4  OUTLIERS_THRESHOLD_Max: 8
MK4  OUTLIERS_THRESHOLD_Min: 0
IPStride Degree/Access Ratio: 3.26339
MK1 IPDEltaMarkov  Degree/Access Ratio: 0.33389
MK2 IPDEltaMarkov  Degree/Access Ratio: 0.51317
MK3 IPDEltaMarkov  Degree/Access Ratio: 0.84713
MK4 IPDEltaMarkov  Degree/Access Ratio: 1.57420
Channel_0_RQ_row_buffer_hit 1640919
Channel_0_RQ_row_buffer_miss 1623756
Channel_0_WQ_row_buffer_hit 595804
Channel_0_WQ_row_buffer_miss 1109429
Channel_0_WQ_full 5350
Channel_0_dbus_congested 4118739

avg_congested_cycle 11

EzSearch AVG IPC :0.70523: L2-Pf-HR :0.91424 : L2-HR :0.90531 Uful:0.02784
EzSearch AVG IPC :0.70488: L2-Pf-HR :0.91394 : L2-HR :0.90514 Uful:0.02802
EzSearch AVG IPC :0.69695: L2-Pf-HR :0.91162 : L2-HR :0.90209 Uful:0.02941
EzSearch AVG IPC :0.69923: L2-Pf-HR :0.91190 : L2-HR :0.90314 Uful:0.02903
     > Finished combination: TraceType=770-tot Sim:98000000 Prefetcher=L2029-SecTOP-L2-MultiMarkovDelta_ip_stride_v4-IPStrS256 L1=next_line
