TRACE: [83000000][Pythia-70M]_[h8][s512][d64] Warmup: 2000000 NumTraces: 83000000
L1:bingo_dpc3:L2:bingo_dpc3
*************************************************
   ChampSim Multicore Out-of-Order Simulator
   Last compiled: Oct 28 2024 06:04:37
*************************************************

trace_0 770-tot_memTraces_v3/memTraces[83000000][Pythia-70M]_[h8][s512][d64].champsim.xz
trace_1 770-tot_memTraces_v3/memTraces[83000000][Pythia-70M]_[h8][s512][d64].champsim.xz
trace_2 770-tot_memTraces_v3/memTraces[83000000][Pythia-70M]_[h8][s512][d64].champsim.xz
trace_3 770-tot_memTraces_v3/memTraces[83000000][Pythia-70M]_[h8][s512][d64].champsim.xz
Bingo PHT WAYS: 16 and PHT_SIZE: 16384
Bingo2 PHT WAYS: 16 and PHT_SIZE: 16384
Bingo PHT WAYS: 16 and PHT_SIZE: 16384
Bingo2 PHT WAYS: 16 and PHT_SIZE: 16384
Bingo PHT WAYS: 16 and PHT_SIZE: 16384
Bingo2 PHT WAYS: 16 and PHT_SIZE: 16384
Bingo PHT WAYS: 16 and PHT_SIZE: 16384
Bingo2 PHT WAYS: 16 and PHT_SIZE: 16384
MAIN.cc ln 751 stats print skipped
CPU  1 inst:    1000003 cyc:     499511 now IPC :2.00196: AVG IPC :2.00196: L2-Pf-HR :0.77120: L2-HR :0.66626: (Sim:0h0m51s) 
CPU  0 inst:    1000003 cyc:     499589 now IPC :2.00165: AVG IPC :2.00165: L2-Pf-HR :0.73445: L2-HR :0.63799: (Sim:0h0m51s) 
CPU  2 inst:    1000003 cyc:     499670 now IPC :2.00133: AVG IPC :2.00133: L2-Pf-HR :0.77424: L2-HR :0.66890: (Sim:0h0m51s) 
CPU  3 inst:    1000003 cyc:     499800 now IPC :2.00081: AVG IPC :2.00081: L2-Pf-HR :0.77569: L2-HR :0.66285: (Sim:0h0m51s) 
CPU  1 inst:    2000001 cyc:     981986 now IPC :2.07264: AVG IPC :2.03669: L2-Pf-HR :0.80400: L2-HR :0.72376: (Sim:0h1m44s) 
CPU  0 inst:    2000001 cyc:     982084 now IPC :2.07256: AVG IPC :2.03649: L2-Pf-HR :0.77256: L2-HR :0.69869: (Sim:0h1m44s) 
CPU  2 inst:    2000001 cyc:     982139 now IPC :2.07267: AVG IPC :2.03637: L2-Pf-HR :0.81582: L2-HR :0.73453: (Sim:0h1m44s) 
CPU  3 inst:    2000001 cyc:     982210 now IPC :2.07292: AVG IPC :2.03623: L2-Pf-HR :0.81309: L2-HR :0.72816: (Sim:0h1m44s) 

Warmup complete CPU  0 instructions:    2000282 cycles:     982210 (Simulation time: 0 hr 1 min 44 sec) 
Warmup complete CPU  1 instructions:    2000416 cycles:     982210 (Simulation time: 0 hr 1 min 44 sec) 
Warmup complete CPU  2 instructions:    2000213 cycles:     982210 (Simulation time: 0 hr 1 min 44 sec) 
Warmup complete CPU  3 instructions:    2000001 cycles:     982210 (Simulation time: 0 hr 1 min 44 sec) 

CPU  3 inst:    3000004 cyc:    1722108 now IPC :1.35154: AVG IPC :1.35154: L2-Pf-HR :0.90605: L2-HR :0.78994: (Sim:0h2m35s) 
CPU  0 inst:    3000004 cyc:    1722312 now IPC :1.35094: AVG IPC :1.35079: L2-Pf-HR :0.89489: L2-HR :0.77770: (Sim:0h2m35s) 
CPU  1 inst:    3000004 cyc:    1722920 now IPC :1.34965: AVG IPC :1.34950: L2-Pf-HR :0.89821: L2-HR :0.77933: (Sim:0h2m35s) 
CPU  2 inst:    3000004 cyc:    1723732 now IPC :1.34845: AVG IPC :1.34830: L2-Pf-HR :0.90531: L2-HR :0.79028: (Sim:0h2m35s) 
CPU  3 inst:    4000005 cyc:    2436787 now IPC :1.39923: AVG IPC :1.37497: L2-Pf-HR :0.85384: L2-HR :0.77755: (Sim:0h3m25s) 
CPU  1 inst:    4000005 cyc:    2436991 now IPC :1.40042: AVG IPC :1.37449: L2-Pf-HR :0.83593: L2-HR :0.76274: (Sim:0h3m25s) 
CPU  2 inst:    4000005 cyc:    2437499 now IPC :1.40102: AVG IPC :1.37415: L2-Pf-HR :0.86128: L2-HR :0.78072: (Sim:0h3m25s) 
CPU  0 inst:    4000005 cyc:    2440407 now IPC :1.39257: AVG IPC :1.37137: L2-Pf-HR :0.84297: L2-HR :0.76532: (Sim:0h3m26s) 
CPU  3 inst:    5000003 cyc:    3192755 now IPC :1.32280: AVG IPC :1.35713: L2-Pf-HR :0.82026: L2-HR :0.77169: (Sim:0h4m15s) 
CPU  1 inst:    5000003 cyc:    3218745 now IPC :1.27917: AVG IPC :1.34118: L2-Pf-HR :0.81950: L2-HR :0.76747: (Sim:0h4m17s) 
CPU  2 inst:    5000003 cyc:    3231791 now IPC :1.25898: AVG IPC :1.33349: L2-Pf-HR :0.83126: L2-HR :0.77567: (Sim:0h4m18s) 
CPU  0 inst:    5000003 cyc:    3231994 now IPC :1.26328: AVG IPC :1.33334: L2-Pf-HR :0.81944: L2-HR :0.76282: (Sim:0h4m18s) 
CPU  3 inst:    6000003 cyc:    3802733 now IPC :1.63940: AVG IPC :1.41818: L2-Pf-HR :0.81641: L2-HR :0.77617: (Sim:0h5m22s) 
CPU  1 inst:    6000003 cyc:    3862878 now IPC :1.55247: AVG IPC :1.38842: L2-Pf-HR :0.83444: L2-HR :0.78355: (Sim:0h5m30s) 
CPU  2 inst:    6000003 cyc:    3895499 now IPC :1.50669: AVG IPC :1.37295: L2-Pf-HR :0.84028: L2-HR :0.78893: (Sim:0h5m35s) 
CPU  0 inst:    6000003 cyc:    3911920 now IPC :1.47075: AVG IPC :1.36523: L2-Pf-HR :0.83341: L2-HR :0.77653: (Sim:0h5m37s) 
CPU  3 inst:    7000002 cyc:    4437172 now IPC :1.57619: AVG IPC :1.44719: L2-Pf-HR :0.81900: L2-HR :0.77808: (Sim:0h6m50s) 
CPU  1 inst:    7000002 cyc:    4517689 now IPC :1.52716: AVG IPC :1.41412: L2-Pf-HR :0.84002: L2-HR :0.78889: (Sim:0h7m1s) 
CPU  2 inst:    7000002 cyc:    4586326 now IPC :1.44754: AVG IPC :1.38724: L2-Pf-HR :0.84588: L2-HR :0.79172: (Sim:0h7m10s) 
CPU  0 inst:    7000002 cyc:    4598114 now IPC :1.45731: AVG IPC :1.38270: L2-Pf-HR :0.85022: L2-HR :0.78446: (Sim:0h7m12s) 
CPU  3 inst:    8000001 cyc:    5112901 now IPC :1.47988: AVG IPC :1.45254: L2-Pf-HR :0.81014: L2-HR :0.77316: (Sim:0h8m23s) 
CPU  1 inst:    8000001 cyc:    5153677 now IPC :1.57236: AVG IPC :1.43824: L2-Pf-HR :0.83638: L2-HR :0.78739: (Sim:0h8m28s) 
CPU  2 inst:    8000001 cyc:    5233792 now IPC :1.54448: AVG IPC :1.41119: L2-Pf-HR :0.83788: L2-HR :0.78842: (Sim:0h8m39s) 
CPU  0 inst:    8000001 cyc:    5282044 now IPC :1.46214: AVG IPC :1.39534: L2-Pf-HR :0.84409: L2-HR :0.78361: (Sim:0h8m46s) 
CPU  3 inst:    9000000 cyc:    5975835 now IPC :1.15884: AVG IPC :1.40179: L2-Pf-HR :0.80808: L2-HR :0.77557: (Sim:0h10m0s) 
CPU  1 inst:    9000001 cyc:    6040840 now IPC :1.12719: AVG IPC :1.38369: L2-Pf-HR :0.83339: L2-HR :0.78928: (Sim:0h10m9s) 
CPU  2 inst:    9000000 cyc:    6146084 now IPC :1.09614: AVG IPC :1.35553: L2-Pf-HR :0.83401: L2-HR :0.79014: (Sim:0h10m21s) 
CPU  0 inst:    9000000 cyc:    6240174 now IPC :1.04370: AVG IPC :1.33126: L2-Pf-HR :0.83826: L2-HR :0.78527: (Sim:0h10m32s) 
CPU  3 inst:   10000002 cyc:    6782629 now IPC :1.23948: AVG IPC :1.37921: L2-Pf-HR :0.82001: L2-HR :0.78594: (Sim:0h11m37s) 
CPU  1 inst:   10000002 cyc:    6891277 now IPC :1.17587: AVG IPC :1.35378: L2-Pf-HR :0.83933: L2-HR :0.79610: (Sim:0h11m51s) 
CPU  2 inst:   10000002 cyc:    6991319 now IPC :1.18311: AVG IPC :1.33128: L2-Pf-HR :0.84367: L2-HR :0.79907: (Sim:0h12m2s) 
CPU  0 inst:   10000002 cyc:    7114186 now IPC :1.14415: AVG IPC :1.30459: L2-Pf-HR :0.84624: L2-HR :0.79292: (Sim:0h12m16s) 
CPU  3 inst:   11000000 cyc:    7570445 now IPC :1.26933: AVG IPC :1.36607: L2-Pf-HR :0.82839: L2-HR :0.79451: (Sim:0h13m12s) 
CPU  1 inst:   11000000 cyc:    7744665 now IPC :1.17180: AVG IPC :1.33082: L2-Pf-HR :0.84627: L2-HR :0.80234: (Sim:0h13m32s) 
CPU  2 inst:   11000000 cyc:    7816936 now IPC :1.21121: AVG IPC :1.31677: L2-Pf-HR :0.84895: L2-HR :0.80528: (Sim:0h13m40s) 
CPU  0 inst:   11000000 cyc:    7965952 now IPC :1.17403: AVG IPC :1.28867: L2-Pf-HR :0.85047: L2-HR :0.79772: (Sim:0h13m57s) 
CPU  3 inst:   12000005 cyc:    8533507 now IPC :1.03836: AVG IPC :1.32428: L2-Pf-HR :0.83062: L2-HR :0.79672: (Sim:0h14m57s) 
CPU  1 inst:   12000005 cyc:    8753343 now IPC :0.99140: AVG IPC :1.28676: L2-Pf-HR :0.84603: L2-HR :0.80240: (Sim:0h15m21s) 
CPU  2 inst:   12000005 cyc:    8806826 now IPC :1.01022: AVG IPC :1.27799: L2-Pf-HR :0.85039: L2-HR :0.80655: (Sim:0h15m27s) 
CPU  0 inst:   12000005 cyc:    8900875 now IPC :1.06961: AVG IPC :1.26280: L2-Pf-HR :0.84751: L2-HR :0.79729: (Sim:0h15m34s) 
CPU  3 inst:   13000002 cyc:    9833342 now IPC :0.76933: AVG IPC :1.24278: L2-Pf-HR :0.82714: L2-HR :0.79485: (Sim:0h16m18s) 
CPU  1 inst:   13000002 cyc:   10099438 now IPC :0.74289: AVG IPC :1.20646: L2-Pf-HR :0.84214: L2-HR :0.80042: (Sim:0h16m33s) 
CPU  2 inst:   13000002 cyc:   10187145 now IPC :0.72447: AVG IPC :1.19499: L2-Pf-HR :0.84515: L2-HR :0.80377: (Sim:0h16m39s) 
CPU  0 inst:   13000002 cyc:   10292020 now IPC :0.71883: AVG IPC :1.18152: L2-Pf-HR :0.84194: L2-HR :0.79481: (Sim:0h16m45s) 
CPU  3 inst:   14000002 cyc:   10696637 now IPC :1.15835: AVG IPC :1.23528: L2-Pf-HR :0.83193: L2-HR :0.79965: (Sim:0h17m23s) 
CPU  1 inst:   14000002 cyc:   11158436 now IPC :0.94429: AVG IPC :1.17918: L2-Pf-HR :0.84651: L2-HR :0.80412: (Sim:0h18m12s) 
CPU  2 inst:   14000001 cyc:   11249654 now IPC :0.94117: AVG IPC :1.16872: L2-Pf-HR :0.84905: L2-HR :0.80818: (Sim:0h18m22s) 
CPU  0 inst:   14000003 cyc:   11372996 now IPC :0.92509: AVG IPC :1.15484: L2-Pf-HR :0.84786: L2-HR :0.79991: (Sim:0h18m35s) 
CPU  3 inst:   15000002 cyc:   11759614 now IPC :0.94075: AVG IPC :1.20623: L2-Pf-HR :0.83687: L2-HR :0.80308: (Sim:0h19m17s) 
CPU  1 inst:   15000002 cyc:   12147110 now IPC :1.01146: AVG IPC :1.16433: L2-Pf-HR :0.85171: L2-HR :0.80866: (Sim:0h19m58s) 
CPU  2 inst:   15000002 cyc:   12262267 now IPC :0.98755: AVG IPC :1.15246: L2-Pf-HR :0.85381: L2-HR :0.81239: (Sim:0h20m10s) 
CPU  0 inst:   15000002 cyc:   12399601 now IPC :0.97408: AVG IPC :1.13859: L2-Pf-HR :0.85266: L2-HR :0.80336: (Sim:0h20m24s) 
CPU  3 inst:   16000000 cyc:   12789977 now IPC :0.97053: AVG IPC :1.18566: L2-Pf-HR :0.83862: L2-HR :0.80465: (Sim:0h21m4s) 
CPU  1 inst:   16000000 cyc:   13177549 now IPC :0.97046: AVG IPC :1.14795: L2-Pf-HR :0.85386: L2-HR :0.81024: (Sim:0h21m44s) 
CPU  2 inst:   16000000 cyc:   13300361 now IPC :0.96330: AVG IPC :1.13652: L2-Pf-HR :0.85346: L2-HR :0.81277: (Sim:0h21m56s) 
CPU  0 inst:   16000000 cyc:   13382512 now IPC :1.01738: AVG IPC :1.12898: L2-Pf-HR :0.85207: L2-HR :0.80398: (Sim:0h22m5s) 
CPU  3 inst:   17000000 cyc:   13942682 now IPC :0.86752: AVG IPC :1.15737: L2-Pf-HR :0.83548: L2-HR :0.80234: (Sim:0h22m55s) 
CPU  1 inst:   17000000 cyc:   14486077 now IPC :0.76422: AVG IPC :1.11076: L2-Pf-HR :0.85045: L2-HR :0.80793: (Sim:0h23m40s) 
CPU  2 inst:   17000000 cyc:   14616857 now IPC :0.75959: AVG IPC :1.10012: L2-Pf-HR :0.84943: L2-HR :0.80957: (Sim:0h23m54s) 
CPU  0 inst:   17000000 cyc:   14747374 now IPC :0.73267: AVG IPC :1.08969: L2-Pf-HR :0.84868: L2-HR :0.80135: (Sim:0h24m8s) 
CPU  3 inst:   18000000 cyc:   15053540 now IPC :0.90021: AVG IPC :1.13706: L2-Pf-HR :0.83903: L2-HR :0.80547: (Sim:0h24m41s) 
CPU  1 inst:   18000000 cyc:   15500514 now IPC :0.98577: AVG IPC :1.10203: L2-Pf-HR :0.85371: L2-HR :0.81078: (Sim:0h25m26s) 
CPU  2 inst:   18000000 cyc:   15639019 now IPC :0.97832: AVG IPC :1.09163: L2-Pf-HR :0.85205: L2-HR :0.81109: (Sim:0h25m42s) 
CPU  0 inst:   18000000 cyc:   15842239 now IPC :0.91335: AVG IPC :1.07669: L2-Pf-HR :0.85131: L2-HR :0.80370: (Sim:0h26m3s) 
CPU  3 inst:   19000000 cyc:   16051911 now IPC :1.00163: AVG IPC :1.12809: L2-Pf-HR :0.84150: L2-HR :0.80745: (Sim:0h26m25s) 
CPU  1 inst:   19000000 cyc:   16534927 now IPC :0.96673: AVG IPC :1.09303: L2-Pf-HR :0.85727: L2-HR :0.81262: (Sim:0h27m19s) 
CPU  2 inst:   19000000 cyc:   16608864 now IPC :1.03109: AVG IPC :1.08787: L2-Pf-HR :0.85490: L2-HR :0.81311: (Sim:0h27m27s) 
CPU  0 inst:   19000000 cyc:   16850754 now IPC :0.99156: AVG IPC :1.07128: L2-Pf-HR :0.85291: L2-HR :0.80593: (Sim:0h27m51s) 
CPU  3 inst:   20000000 cyc:   17028361 now IPC :1.02412: AVG IPC :1.12176: L2-Pf-HR :0.84343: L2-HR :0.80902: (Sim:0h28m11s) 
CPU  1 inst:   20000000 cyc:   17624039 now IPC :0.91818: AVG IPC :1.08159: L2-Pf-HR :0.85821: L2-HR :0.81327: (Sim:0h29m12s) 
CPU  2 inst:   20000000 cyc:   17665098 now IPC :0.94676: AVG IPC :1.07894: L2-Pf-HR :0.85662: L2-HR :0.81408: (Sim:0h29m16s) 
CPU  0 inst:   20000000 cyc:   17787740 now IPC :1.06725: AVG IPC :1.07106: L2-Pf-HR :0.85269: L2-HR :0.80677: (Sim:0h29m28s) 
CPU  3 inst:   21000002 cyc:   18243953 now IPC :0.82265: AVG IPC :1.10070: L2-Pf-HR :0.84016: L2-HR :0.80641: (Sim:0h30m13s) 
CPU  1 inst:   21000002 cyc:   18934666 now IPC :0.76300: AVG IPC :1.05833: L2-Pf-HR :0.85296: L2-HR :0.80963: (Sim:0h31m11s) 
CPU  2 inst:   21000001 cyc:   19013774 now IPC :0.74147: AVG IPC :1.05370: L2-Pf-HR :0.85335: L2-HR :0.81158: (Sim:0h31m19s) 
CPU  0 inst:   21000000 cyc:   19138375 now IPC :0.74039: AVG IPC :1.04646: L2-Pf-HR :0.84852: L2-HR :0.80398: (Sim:0h31m31s) 
CPU  3 inst:   22000004 cyc:   19442907 now IPC :0.83406: AVG IPC :1.08338: L2-Pf-HR :0.84340: L2-HR :0.80824: (Sim:0h32m4s) 
CPU  1 inst:   22000004 cyc:   19847889 now IPC :1.09502: AVG IPC :1.06010: L2-Pf-HR :0.85618: L2-HR :0.81230: (Sim:0h32m49s) 
CPU  2 inst:   22000004 cyc:   19983178 now IPC :1.03156: AVG IPC :1.05257: L2-Pf-HR :0.85530: L2-HR :0.81320: (Sim:0h33m3s) 
CPU  0 inst:   22000004 cyc:   20247325 now IPC :0.90176: AVG IPC :1.03813: L2-Pf-HR :0.85241: L2-HR :0.80626: (Sim:0h33m28s) 
CPU  3 inst:   23000004 cyc:   20434447 now IPC :1.00853: AVG IPC :1.07957: L2-Pf-HR :0.84613: L2-HR :0.81059: (Sim:0h33m49s) 
CPU  1 inst:   23000004 cyc:   20823993 now IPC :1.02448: AVG IPC :1.05835: L2-Pf-HR :0.85740: L2-HR :0.81412: (Sim:0h34m29s) 
CPU  2 inst:   23000004 cyc:   20944632 now IPC :1.04009: AVG IPC :1.05197: L2-Pf-HR :0.85851: L2-HR :0.81615: (Sim:0h34m43s) 
CPU  0 inst:   23000004 cyc:   21284799 now IPC :0.96388: AVG IPC :1.03434: L2-Pf-HR :0.85370: L2-HR :0.80783: (Sim:0h35m19s) 
CPU  3 inst:   24000003 cyc:   21451014 now IPC :0.98370: AVG IPC :1.07481: L2-Pf-HR :0.84742: L2-HR :0.81162: (Sim:0h35m38s) 
CPU  1 inst:   24000003 cyc:   21776742 now IPC :1.04959: AVG IPC :1.05795: L2-Pf-HR :0.85814: L2-HR :0.81475: (Sim:0h36m10s) 
CPU  2 inst:   24000003 cyc:   21888293 now IPC :1.05970: AVG IPC :1.05232: L2-Pf-HR :0.86015: L2-HR :0.81726: (Sim:0h36m23s) 
CPU  0 inst:   24000003 cyc:   22288124 now IPC :0.99669: AVG IPC :1.03256: L2-Pf-HR :0.85448: L2-HR :0.80846: (Sim:0h37m3s) 
CPU  3 inst:   25000005 cyc:   22602062 now IPC :0.86878: AVG IPC :1.06384: L2-Pf-HR :0.84397: L2-HR :0.80906: (Sim:0h37m32s) 
CPU  1 inst:   25000005 cyc:   23053836 now IPC :0.78303: AVG IPC :1.04204: L2-Pf-HR :0.85375: L2-HR :0.81178: (Sim:0h38m11s) 
CPU  2 inst:   25000000 cyc:   23148045 now IPC :0.79380: AVG IPC :1.03762: L2-Pf-HR :0.85678: L2-HR :0.81485: (Sim:0h38m21s) 
CPU  0 inst:   25000004 cyc:   23710964 now IPC :0.70282: AVG IPC :1.01192: L2-Pf-HR :0.84967: L2-HR :0.80537: (Sim:0h39m14s) 
CPU  3 inst:   26000002 cyc:   23750488 now IPC :0.87075: AVG IPC :1.05410: L2-Pf-HR :0.84560: L2-HR :0.81042: (Sim:0h39m19s) 
CPU  1 inst:   26000002 cyc:   24101078 now IPC :0.95489: AVG IPC :1.03810: L2-Pf-HR :0.85683: L2-HR :0.81427: (Sim:0h39m57s) 
CPU  2 inst:   26000002 cyc:   24236331 now IPC :0.91888: AVG IPC :1.03207: L2-Pf-HR :0.85964: L2-HR :0.81683: (Sim:0h40m11s) 
CPU  3 inst:   27000005 cyc:   24655190 now IPC :1.10534: AVG IPC :1.05606: L2-Pf-HR :0.84643: L2-HR :0.81140: (Sim:0h40m54s) 
CPU  0 inst:   26000002 cyc:   24761047 now IPC :0.95230: AVG IPC :1.00929: L2-Pf-HR :0.85304: L2-HR :0.80762: (Sim:0h41m6s) 
CPU  1 inst:   27000005 cyc:   25144845 now IPC :0.95807: AVG IPC :1.03464: L2-Pf-HR :0.85794: L2-HR :0.81542: (Sim:0h41m46s) 
CPU  2 inst:   27000005 cyc:   25291495 now IPC :0.94772: AVG IPC :1.02841: L2-Pf-HR :0.85991: L2-HR :0.81746: (Sim:0h42m1s) 
CPU  3 inst:   28000004 cyc:   25624602 now IPC :1.03155: AVG IPC :1.05509: L2-Pf-HR :0.84872: L2-HR :0.81319: (Sim:0h42m35s) 
CPU  0 inst:   27000005 cyc:   25842560 now IPC :0.92463: AVG IPC :1.00561: L2-Pf-HR :0.85440: L2-HR :0.80898: (Sim:0h42m57s) 
CPU  1 inst:   28000004 cyc:   26204531 now IPC :0.94367: AVG IPC :1.03082: L2-Pf-HR :0.85888: L2-HR :0.81665: (Sim:0h43m33s) 
CPU  2 inst:   28000003 cyc:   26274920 now IPC :1.01685: AVG IPC :1.02796: L2-Pf-HR :0.86165: L2-HR :0.81933: (Sim:0h43m40s) 
CPU  3 inst:   29000004 cyc:   26927487 now IPC :0.76753: AVG IPC :1.04065: L2-Pf-HR :0.84443: L2-HR :0.81016: (Sim:0h44m40s) 
CPU  0 inst:   28000002 cyc:   26928956 now IPC :0.92047: AVG IPC :1.00204: L2-Pf-HR :0.85646: L2-HR :0.81071: (Sim:0h44m41s) 
CPU  1 inst:   29000004 cyc:   27465419 now IPC :0.79309: AVG IPC :1.01950: L2-Pf-HR :0.85474: L2-HR :0.81379: (Sim:0h45m27s) 
CPU  2 inst:   29000004 cyc:   27647787 now IPC :0.72840: AVG IPC :1.01253: L2-Pf-HR :0.85781: L2-HR :0.81662: (Sim:0h45m43s) 
CPU  3 inst:   30000000 cyc:   28095566 now IPC :0.85610: AVG IPC :1.03270: L2-Pf-HR :0.84654: L2-HR :0.81133: (Sim:0h46m28s) 
CPU  0 inst:   29000004 cyc:   28338830 now IPC :0.70928: AVG IPC :0.98695: L2-Pf-HR :0.85193: L2-HR :0.80778: (Sim:0h46m48s) 
CPU  1 inst:   30000000 cyc:   28672146 now IPC :0.82868: AVG IPC :1.01118: L2-Pf-HR :0.85641: L2-HR :0.81496: (Sim:0h47m20s) 
CPU  2 inst:   30000000 cyc:   28790747 now IPC :0.87492: AVG IPC :1.00688: L2-Pf-HR :0.85938: L2-HR :0.81796: (Sim:0h47m32s) 
CPU  3 inst:   31000004 cyc:   29120012 now IPC :0.97614: AVG IPC :1.03064: L2-Pf-HR :0.84736: L2-HR :0.81218: (Sim:0h48m4s) 
CPU  0 inst:   30000000 cyc:   29480159 now IPC :0.87617: AVG IPC :0.98252: L2-Pf-HR :0.85344: L2-HR :0.80953: (Sim:0h48m41s) 
CPU  1 inst:   31000004 cyc:   29701454 now IPC :0.97153: AVG IPC :1.00976: L2-Pf-HR :0.85836: L2-HR :0.81651: (Sim:0h49m5s) 
CPU  2 inst:   31000004 cyc:   29867874 now IPC :0.92840: AVG IPC :1.00395: L2-Pf-HR :0.86067: L2-HR :0.81880: (Sim:0h49m25s) 
CPU  3 inst:   32000002 cyc:   30052419 now IPC :1.07249: AVG IPC :1.03198: L2-Pf-HR :0.84926: L2-HR :0.81385: (Sim:0h49m43s) 
CPU  0 inst:   31000004 cyc:   30436551 now IPC :1.04560: AVG IPC :0.98457: L2-Pf-HR :0.85450: L2-HR :0.81108: (Sim:0h50m25s) 
CPU  1 inst:   32000002 cyc:   30725603 now IPC :0.97642: AVG IPC :1.00861: L2-Pf-HR :0.86009: L2-HR :0.81771: (Sim:0h50m55s) 
CPU  2 inst:   32000002 cyc:   30857404 now IPC :1.01058: AVG IPC :1.00417: L2-Pf-HR :0.86215: L2-HR :0.81962: (Sim:0h51m9s) 
CPU  3 inst:   33000000 cyc:   31325267 now IPC :0.78564: AVG IPC :1.02165: L2-Pf-HR :0.84740: L2-HR :0.81173: (Sim:0h51m53s) 
CPU  0 inst:   32000002 cyc:   31452056 now IPC :0.98473: AVG IPC :0.98457: L2-Pf-HR :0.85569: L2-HR :0.81253: (Sim:0h52m3s) 
CPU  1 inst:   33000000 cyc:   32112558 now IPC :0.72100: AVG IPC :0.99580: L2-Pf-HR :0.85745: L2-HR :0.81511: (Sim:0h52m48s) 
CPU  2 inst:   33000000 cyc:   32418014 now IPC :0.64077: AVG IPC :0.98613: L2-Pf-HR :0.85945: L2-HR :0.81692: (Sim:0h53m1s) 
CPU  0 inst:   33000000 cyc:   34074693 now IPC :0.38129: AVG IPC :0.93676: L2-Pf-HR :0.85303: L2-HR :0.80994: (Sim:0h54m26s) 
CPU  3 inst:   34000000 cyc:   47947457 now IPC :0.06016: AVG IPC :0.68135: L2-Pf-HR :0.79858: L2-HR :0.75792: (Sim:1h5m10s) 
CPU  1 inst:   34000000 cyc:   51854671 now IPC :0.05065: AVG IPC :0.62902: L2-Pf-HR :0.80674: L2-HR :0.75980: (Sim:1h7m28s) 
CPU  2 inst:   34000003 cyc:   52915018 now IPC :0.04879: AVG IPC :0.61618: L2-Pf-HR :0.80918: L2-HR :0.76155: (Sim:1h8m4s) 
CPU  0 inst:   34000000 cyc:   55997973 now IPC :0.04561: AVG IPC :0.58165: L2-Pf-HR :0.80272: L2-HR :0.75590: (Sim:1h9m44s) 
CPU  3 inst:   35000002 cyc:   58476195 now IPC :0.09498: AVG IPC :0.57397: L2-Pf-HR :0.77836: L2-HR :0.74278: (Sim:1h10m59s) 
CPU  1 inst:   35000002 cyc:   59962435 now IPC :0.12334: AVG IPC :0.55950: L2-Pf-HR :0.78544: L2-HR :0.74432: (Sim:1h11m52s) 
CPU  2 inst:   35000002 cyc:   60258342 now IPC :0.13618: AVG IPC :0.55671: L2-Pf-HR :0.78807: L2-HR :0.74609: (Sim:1h12m3s) 
CPU  0 inst:   35000002 cyc:   61227313 now IPC :0.19123: AVG IPC :0.54776: L2-Pf-HR :0.78147: L2-HR :0.74073: (Sim:1h13m1s) 
CPU  3 inst:   36000001 cyc:   62205487 now IPC :0.26815: AVG IPC :0.55534: L2-Pf-HR :0.76387: L2-HR :0.73512: (Sim:1h14m5s) 
CPU  1 inst:   36000001 cyc:   63699302 now IPC :0.26760: AVG IPC :0.54211: L2-Pf-HR :0.77045: L2-HR :0.73652: (Sim:1h15m42s) 
CPU  2 inst:   36000001 cyc:   63988063 now IPC :0.26812: AVG IPC :0.53963: L2-Pf-HR :0.77320: L2-HR :0.73830: (Sim:1h16m1s) 
CPU  0 inst:   36000001 cyc:   64975471 now IPC :0.26680: AVG IPC :0.53130: L2-Pf-HR :0.76663: L2-HR :0.73303: (Sim:1h17m5s) 
CPU  3 inst:   37000001 cyc:   65972897 now IPC :0.26543: AVG IPC :0.53854: L2-Pf-HR :0.74984: L2-HR :0.72771: (Sim:1h18m10s) 
CPU  1 inst:   37000001 cyc:   67462312 now IPC :0.26574: AVG IPC :0.52647: L2-Pf-HR :0.75607: L2-HR :0.72903: (Sim:1h19m47s) 
CPU  2 inst:   37000001 cyc:   67772503 now IPC :0.26424: AVG IPC :0.52403: L2-Pf-HR :0.75892: L2-HR :0.73084: (Sim:1h20m7s) 
CPU  0 inst:   37000001 cyc:   68713977 now IPC :0.26749: AVG IPC :0.51674: L2-Pf-HR :0.75235: L2-HR :0.72561: (Sim:1h21m8s) 
CPU  3 inst:   38000000 cyc:   69631560 now IPC :0.27332: AVG IPC :0.52440: L2-Pf-HR :0.73641: L2-HR :0.72061: (Sim:1h22m8s) 
CPU  1 inst:   38000000 cyc:   71090226 now IPC :0.27564: AVG IPC :0.51349: L2-Pf-HR :0.74201: L2-HR :0.72174: (Sim:1h23m43s) 
CPU  2 inst:   38000000 cyc:   71395073 now IPC :0.27605: AVG IPC :0.51127: L2-Pf-HR :0.74503: L2-HR :0.72355: (Sim:1h24m3s) 
CPU  0 inst:   38000000 cyc:   72333944 now IPC :0.27625: AVG IPC :0.50454: L2-Pf-HR :0.73846: L2-HR :0.71840: (Sim:1h25m4s) 
CPU  3 inst:   39000000 cyc:   73247984 now IPC :0.27652: AVG IPC :0.51200: L2-Pf-HR :0.72351: L2-HR :0.71378: (Sim:1h26m4s) 
CPU  1 inst:   39000000 cyc:   74704276 now IPC :0.27670: AVG IPC :0.50188: L2-Pf-HR :0.72849: L2-HR :0.71471: (Sim:1h27m39s) 
CPU  2 inst:   39000000 cyc:   75008727 now IPC :0.27673: AVG IPC :0.49982: L2-Pf-HR :0.73162: L2-HR :0.71652: (Sim:1h27m58s) 
CPU  0 inst:   39000000 cyc:   75946666 now IPC :0.27680: AVG IPC :0.49356: L2-Pf-HR :0.72506: L2-HR :0.71144: (Sim:1h28m59s) 
CPU  3 inst:   40000003 cyc:   76861241 now IPC :0.27676: AVG IPC :0.50080: L2-Pf-HR :0.71107: L2-HR :0.70718: (Sim:1h29m59s) 
CPU  1 inst:   40000003 cyc:   78318192 now IPC :0.27671: AVG IPC :0.49136: L2-Pf-HR :0.71543: L2-HR :0.70792: (Sim:1h31m34s) 
CPU  2 inst:   40000003 cyc:   78623571 now IPC :0.27664: AVG IPC :0.48943: L2-Pf-HR :0.71866: L2-HR :0.70974: (Sim:1h31m54s) 
CPU  0 inst:   40000003 cyc:   79569087 now IPC :0.27606: AVG IPC :0.48354: L2-Pf-HR :0.71214: L2-HR :0.70473: (Sim:1h32m55s) 
CPU  3 inst:   41000001 cyc:   80488383 now IPC :0.27570: AVG IPC :0.49053: L2-Pf-HR :0.69913: L2-HR :0.70082: (Sim:1h33m55s) 
CPU  1 inst:   41000001 cyc:   81946403 now IPC :0.27562: AVG IPC :0.48169: L2-Pf-HR :0.70292: L2-HR :0.70140: (Sim:1h35m30s) 
CPU  2 inst:   41000001 cyc:   82250982 now IPC :0.27568: AVG IPC :0.47989: L2-Pf-HR :0.70624: L2-HR :0.70323: (Sim:1h35m49s) 
CPU  0 inst:   41000001 cyc:   83198281 now IPC :0.27554: AVG IPC :0.47436: L2-Pf-HR :0.69980: L2-HR :0.69830: (Sim:1h36m51s) 
CPU  3 inst:   42000001 cyc:   84109662 now IPC :0.27615: AVG IPC :0.48119: L2-Pf-HR :0.68758: L2-HR :0.69468: (Sim:1h37m41s) 
CPU  1 inst:   42000001 cyc:   85563720 now IPC :0.27645: AVG IPC :0.47291: L2-Pf-HR :0.69079: L2-HR :0.69508: (Sim:1h38m32s) 
CPU  2 inst:   42000001 cyc:   85874869 now IPC :0.27595: AVG IPC :0.47118: L2-Pf-HR :0.69422: L2-HR :0.69692: (Sim:1h38m43s) 
CPU  0 inst:   42000001 cyc:   86834325 now IPC :0.27502: AVG IPC :0.46591: L2-Pf-HR :0.68787: L2-HR :0.69209: (Sim:1h39m16s) 
CPU  3 inst:   43000002 cyc:   87745394 now IPC :0.27505: AVG IPC :0.47255: L2-Pf-HR :0.67642: L2-HR :0.68875: (Sim:1h39m48s) 
CPU  1 inst:   43000005 cyc:   89205567 now IPC :0.27459: AVG IPC :0.46472: L2-Pf-HR :0.67919: L2-HR :0.68902: (Sim:1h40m39s) 
CPU  2 inst:   43000002 cyc:   89514622 now IPC :0.27474: AVG IPC :0.46310: L2-Pf-HR :0.68267: L2-HR :0.69087: (Sim:1h40m50s) 
CPU  0 inst:   43000002 cyc:   90460473 now IPC :0.27578: AVG IPC :0.45821: L2-Pf-HR :0.67631: L2-HR :0.68607: (Sim:1h41m24s) 
CPU  3 inst:   44000001 cyc:   91364308 now IPC :0.27633: AVG IPC :0.46469: L2-Pf-HR :0.66564: L2-HR :0.68302: (Sim:1h41m55s) 
CPU  1 inst:   44000001 cyc:   92820736 now IPC :0.27661: AVG IPC :0.45732: L2-Pf-HR :0.66789: L2-HR :0.68313: (Sim:1h42m46s) 
CPU  2 inst:   44000001 cyc:   93129645 now IPC :0.27662: AVG IPC :0.45579: L2-Pf-HR :0.67141: L2-HR :0.68497: (Sim:1h42m57s) 
CPU  0 inst:   44000001 cyc:   94074412 now IPC :0.27671: AVG IPC :0.45116: L2-Pf-HR :0.66511: L2-HR :0.68024: (Sim:1h43m49s) 
CPU  3 inst:   45000001 cyc:   94979821 now IPC :0.27659: AVG IPC :0.45746: L2-Pf-HR :0.65522: L2-HR :0.67748: (Sim:1h44m43s) 
CPU  1 inst:   45000001 cyc:   96438372 now IPC :0.27642: AVG IPC :0.45046: L2-Pf-HR :0.65697: L2-HR :0.67744: (Sim:1h46m10s) 
CPU  2 inst:   45000001 cyc:   96745475 now IPC :0.27656: AVG IPC :0.44902: L2-Pf-HR :0.66061: L2-HR :0.67930: (Sim:1h46m28s) 
CPU  0 inst:   45000001 cyc:   97700230 now IPC :0.27580: AVG IPC :0.44459: L2-Pf-HR :0.65433: L2-HR :0.67463: (Sim:1h47m25s) 
CPU  3 inst:   46000000 cyc:   98606917 now IPC :0.27570: AVG IPC :0.45071: L2-Pf-HR :0.64515: L2-HR :0.67212: (Sim:1h48m19s) 
CPU  1 inst:   46000000 cyc:  100072412 now IPC :0.27518: AVG IPC :0.44404: L2-Pf-HR :0.64643: L2-HR :0.67194: (Sim:1h49m46s) 
CPU  2 inst:   46000000 cyc:  100374969 now IPC :0.27552: AVG IPC :0.44269: L2-Pf-HR :0.65015: L2-HR :0.67380: (Sim:1h50m4s) 
CPU  0 inst:   46000000 cyc:  101329395 now IPC :0.27555: AVG IPC :0.43847: L2-Pf-HR :0.64388: L2-HR :0.66919: (Sim:1h50m51s) 
CPU  3 inst:   47000000 cyc:  102236126 now IPC :0.27554: AVG IPC :0.44443: L2-Pf-HR :0.63541: L2-HR :0.66693: (Sim:1h51m23s) 
CPU  1 inst:   47000000 cyc:  103708899 now IPC :0.27499: AVG IPC :0.43805: L2-Pf-HR :0.63632: L2-HR :0.66664: (Sim:1h52m14s) 
CPU  2 inst:   47000000 cyc:  104017016 now IPC :0.27457: AVG IPC :0.43674: L2-Pf-HR :0.64010: L2-HR :0.66852: (Sim:1h52m25s) 
CPU  0 inst:   47000000 cyc:  104981254 now IPC :0.27383: AVG IPC :0.43269: L2-Pf-HR :0.63383: L2-HR :0.66395: (Sim:1h52m59s) 
CPU  3 inst:   48000000 cyc:  105859794 now IPC :0.27596: AVG IPC :0.43861: L2-Pf-HR :0.62597: L2-HR :0.66190: (Sim:1h53m30s) 
CPU  1 inst:   48000000 cyc:  107348492 now IPC :0.27476: AVG IPC :0.43246: L2-Pf-HR :0.62650: L2-HR :0.66151: (Sim:1h54m22s) 
CPU  2 inst:   48000000 cyc:  107652107 now IPC :0.27510: AVG IPC :0.43123: L2-Pf-HR :0.63031: L2-HR :0.66338: (Sim:1h54m33s) 
CPU  0 inst:   48000000 cyc:  108622879 now IPC :0.27460: AVG IPC :0.42735: L2-Pf-HR :0.62409: L2-HR :0.65887: (Sim:1h55m7s) 
CPU  3 inst:   49000000 cyc:  109498721 now IPC :0.27481: AVG IPC :0.43311: L2-Pf-HR :0.61683: L2-HR :0.65703: (Sim:1h55m38s) 
CPU  1 inst:   49000000 cyc:  110992364 now IPC :0.27443: AVG IPC :0.42723: L2-Pf-HR :0.61694: L2-HR :0.65652: (Sim:1h56m30s) 
CPU  2 inst:   49000000 cyc:  111286716 now IPC :0.27513: AVG IPC :0.42609: L2-Pf-HR :0.62086: L2-HR :0.65840: (Sim:1h56m41s) 
CPU  0 inst:   49000000 cyc:  112268498 now IPC :0.27430: AVG IPC :0.42233: L2-Pf-HR :0.61471: L2-HR :0.65397: (Sim:1h57m15s) 
CPU  3 inst:   50000003 cyc:  113148000 now IPC :0.27403: AVG IPC :0.42794: L2-Pf-HR :0.60797: L2-HR :0.65230: (Sim:1h57m46s) 
CPU  1 inst:   50000003 cyc:  114653986 now IPC :0.27310: AVG IPC :0.42226: L2-Pf-HR :0.60780: L2-HR :0.65172: (Sim:1h58m39s) 
CPU  2 inst:   50000003 cyc:  114937639 now IPC :0.27390: AVG IPC :0.42122: L2-Pf-HR :0.61172: L2-HR :0.65359: (Sim:1h58m52s) 
CPU  3 inst:   51000000 cyc:  115012734 now IPC :0.53627: AVG IPC :0.42971: L2-Pf-HR :0.61134: L2-HR :0.65728: (Sim:1h58m56s) 
CPU  3 inst:   52000005 cyc:  115707481 now IPC :1.43938: AVG IPC :0.43582: L2-Pf-HR :0.62192: L2-HR :0.66821: (Sim:1h59m29s) 
CPU  0 inst:   50000003 cyc:  115938724 now IPC :0.27246: AVG IPC :0.41755: L2-Pf-HR :0.60564: L2-HR :0.64923: (Sim:1h59m38s) 
CPU  3 inst:   53000000 cyc:  116636517 now IPC :1.07638: AVG IPC :0.44097: L2-Pf-HR :0.63160: L2-HR :0.67817: (Sim:2h0m12s) 
CPU  1 inst:   51000000 cyc:  116784620 now IPC :0.46934: AVG IPC :0.42313: L2-Pf-HR :0.61122: L2-HR :0.65680: (Sim:2h0m22s) 
CPU  2 inst:   51000000 cyc:  117048105 now IPC :0.47383: AVG IPC :0.42217: L2-Pf-HR :0.61496: L2-HR :0.65852: (Sim:2h0m40s) 
CPU  3 inst:   54000001 cyc:  117348414 now IPC :1.40470: AVG IPC :0.44687: L2-Pf-HR :0.64120: L2-HR :0.68784: (Sim:2h0m59s) 
CPU  1 inst:   52000005 cyc:  117584960 now IPC :1.24948: AVG IPC :0.42880: L2-Pf-HR :0.62203: L2-HR :0.66789: (Sim:2h1m16s) 
CPU  2 inst:   52000005 cyc:  117812409 now IPC :1.30839: AVG IPC :0.42797: L2-Pf-HR :0.62551: L2-HR :0.66949: (Sim:2h1m31s) 
CPU  0 inst:   51000000 cyc:  118184988 now IPC :0.44518: AVG IPC :0.41808: L2-Pf-HR :0.60917: L2-HR :0.65437: (Sim:2h1m58s) 
CPU  3 inst:   55000004 cyc:  118225321 now IPC :1.14038: AVG IPC :0.45205: L2-Pf-HR :0.64905: L2-HR :0.69623: (Sim:2h2m1s) 
CPU  1 inst:   53000000 cyc:  118449950 now IPC :1.15608: AVG IPC :0.43416: L2-Pf-HR :0.63190: L2-HR :0.67796: (Sim:2h2m18s) 
CPU  2 inst:   53000000 cyc:  118698945 now IPC :1.12798: AVG IPC :0.43324: L2-Pf-HR :0.63509: L2-HR :0.67941: (Sim:2h2m39s) 
CPU  0 inst:   52000005 cyc:  118890579 now IPC :1.41726: AVG IPC :0.42406: L2-Pf-HR :0.61999: L2-HR :0.66550: (Sim:2h2m55s) 
CPU  3 inst:   56000004 cyc:  118979100 now IPC :1.32665: AVG IPC :0.45764: L2-Pf-HR :0.65685: L2-HR :0.70426: (Sim:2h3m3s) 
CPU  1 inst:   54000001 cyc:  119145900 now IPC :1.43689: AVG IPC :0.44006: L2-Pf-HR :0.64173: L2-HR :0.68775: (Sim:2h3m18s) 
CPU  2 inst:   54000001 cyc:  119355533 now IPC :1.52303: AVG IPC :0.43929: L2-Pf-HR :0.64453: L2-HR :0.68899: (Sim:2h3m34s) 
CPU  3 inst:   57000002 cyc:  119722711 now IPC :1.34479: AVG IPC :0.46319: L2-Pf-HR :0.66365: L2-HR :0.71160: (Sim:2h4m3s) 
CPU  0 inst:   53000000 cyc:  119752990 now IPC :1.15953: AVG IPC :0.42940: L2-Pf-HR :0.62981: L2-HR :0.67555: (Sim:2h4m4s) 
CPU  1 inst:   55000004 cyc:  119956016 now IPC :1.23439: AVG IPC :0.44547: L2-Pf-HR :0.64993: L2-HR :0.69639: (Sim:2h4m20s) 
CPU  2 inst:   55000004 cyc:  120151728 now IPC :1.25598: AVG IPC :0.44474: L2-Pf-HR :0.65253: L2-HR :0.69751: (Sim:2h4m36s) 
CPU  3 inst:   58000003 cyc:  120408776 now IPC :1.45759: AVG IPC :0.46891: L2-Pf-HR :0.67099: L2-HR :0.71890: (Sim:2h4m59s) 
CPU  0 inst:   54000001 cyc:  120464686 now IPC :1.40510: AVG IPC :0.43521: L2-Pf-HR :0.63958: L2-HR :0.68538: (Sim:2h5m4s) 
CPU  1 inst:   56000004 cyc:  120641089 now IPC :1.45970: AVG IPC :0.45128: L2-Pf-HR :0.65785: L2-HR :0.70450: (Sim:2h5m19s) 
CPU  2 inst:   56000004 cyc:  120927656 now IPC :1.28878: AVG IPC :0.45020: L2-Pf-HR :0.66029: L2-HR :0.70554: (Sim:2h5m40s) 
CPU  3 inst:   59000003 cyc:  121204281 now IPC :1.25706: AVG IPC :0.47412: L2-Pf-HR :0.67735: L2-HR :0.72546: (Sim:2h6m0s) 
CPU  0 inst:   55000004 cyc:  121273392 now IPC :1.23655: AVG IPC :0.44060: L2-Pf-HR :0.64785: L2-HR :0.69409: (Sim:2h6m7s) 
CPU  1 inst:   57000002 cyc:  121468667 now IPC :1.20834: AVG IPC :0.45648: L2-Pf-HR :0.66469: L2-HR :0.71190: (Sim:2h6m22s) 
CPU  2 inst:   57000002 cyc:  121717928 now IPC :1.26538: AVG IPC :0.45554: L2-Pf-HR :0.66718: L2-HR :0.71300: (Sim:2h6m52s) 
CPU  3 inst:   60000004 cyc:  121879267 now IPC :1.48151: AVG IPC :0.47975: L2-Pf-HR :0.68333: L2-HR :0.73164: (Sim:2h7m22s) 
CPU  0 inst:   56000004 cyc:  121972372 now IPC :1.43066: AVG IPC :0.44631: L2-Pf-HR :0.65584: L2-HR :0.70227: (Sim:2h7m38s) 
CPU  1 inst:   58000003 cyc:  122134282 now IPC :1.50237: AVG IPC :0.46223: L2-Pf-HR :0.67185: L2-HR :0.71908: (Sim:2h8m5s) 
CPU  2 inst:   58000003 cyc:  122378195 now IPC :1.51454: AVG IPC :0.46130: L2-Pf-HR :0.67455: L2-HR :0.72035: (Sim:2h8m44s) 
CPU  3 inst:   61000001 cyc:  122654592 now IPC :1.28978: AVG IPC :0.48491: L2-Pf-HR :0.68813: L2-HR :0.73709: (Sim:2h9m23s) 
CPU  0 inst:   57000002 cyc:  122701970 now IPC :1.37062: AVG IPC :0.45186: L2-Pf-HR :0.66277: L2-HR :0.70975: (Sim:2h9m28s) 
CPU  1 inst:   59000003 cyc:  122888565 now IPC :1.32576: AVG IPC :0.46757: L2-Pf-HR :0.67825: L2-HR :0.72567: (Sim:2h10m0s) 
CPU  2 inst:   59000003 cyc:  123110112 now IPC :1.36628: AVG IPC :0.46672: L2-Pf-HR :0.68092: L2-HR :0.72692: (Sim:2h10m36s) 
CPU  3 inst:   62000002 cyc:  123265464 now IPC :1.63701: AVG IPC :0.49066: L2-Pf-HR :0.69399: L2-HR :0.74284: (Sim:2h11m4s) 
CPU  0 inst:   58000005 cyc:  123339800 now IPC :1.56782: AVG IPC :0.45767: L2-Pf-HR :0.67005: L2-HR :0.71704: (Sim:2h11m16s) 
CPU  1 inst:   60000004 cyc:  123552173 now IPC :1.50692: AVG IPC :0.47320: L2-Pf-HR :0.68434: L2-HR :0.73188: (Sim:2h11m54s) 
CPU  2 inst:   60000004 cyc:  123727755 now IPC :1.61906: AVG IPC :0.47252: L2-Pf-HR :0.68689: L2-HR :0.73309: (Sim:2h12m23s) 
CPU  3 inst:   63000000 cyc:  123902145 now IPC :1.57064: AVG IPC :0.49626: L2-Pf-HR :0.69927: L2-HR :0.74814: (Sim:2h12m50s) 
CPU  0 inst:   59000003 cyc:  123987385 now IPC :1.54420: AVG IPC :0.46339: L2-Pf-HR :0.67654: L2-HR :0.72370: (Sim:2h13m3s) 
CPU  1 inst:   61000004 cyc:  124259689 now IPC :1.41340: AVG IPC :0.47859: L2-Pf-HR :0.68926: L2-HR :0.73741: (Sim:2h13m45s) 
CPU  2 inst:   61000001 cyc:  124428408 now IPC :1.42724: AVG IPC :0.47794: L2-Pf-HR :0.69170: L2-HR :0.73856: (Sim:2h14m16s) 
CPU  3 inst:   64000000 cyc:  124571831 now IPC :1.49324: AVG IPC :0.50166: L2-Pf-HR :0.70402: L2-HR :0.75302: (Sim:2h14m44s) 
CPU  0 inst:   60000004 cyc:  124628617 now IPC :1.55950: AVG IPC :0.46908: L2-Pf-HR :0.68265: L2-HR :0.72997: (Sim:2h14m54s) 
CPU  1 inst:   62000002 cyc:  124837800 now IPC :1.72977: AVG IPC :0.48443: L2-Pf-HR :0.69521: L2-HR :0.74321: (Sim:2h15m33s) 
CPU  2 inst:   62000002 cyc:  124990473 now IPC :1.77916: AVG IPC :0.48384: L2-Pf-HR :0.69751: L2-HR :0.74430: (Sim:2h16m2s) 
CPU  3 inst:   65000003 cyc:  125195992 now IPC :1.60216: AVG IPC :0.50719: L2-Pf-HR :0.70772: L2-HR :0.75726: (Sim:2h16m38s) 
CPU  0 inst:   61000004 cyc:  125239214 now IPC :1.63774: AVG IPC :0.47482: L2-Pf-HR :0.68775: L2-HR :0.73563: (Sim:2h16m46s) 
CPU  1 inst:   63000000 cyc:  125425262 now IPC :1.70223: AVG IPC :0.49018: L2-Pf-HR :0.70048: L2-HR :0.74850: (Sim:2h17m20s) 
CPU  2 inst:   63000000 cyc:  125592681 now IPC :1.66055: AVG IPC :0.48952: L2-Pf-HR :0.70266: L2-HR :0.74954: (Sim:2h17m49s) 
CPU  3 inst:   66000004 cyc:  125775228 now IPC :1.72641: AVG IPC :0.51285: L2-Pf-HR :0.71265: L2-HR :0.76201: (Sim:2h18m22s) 
CPU  0 inst:   62000002 cyc:  125808236 now IPC :1.75740: AVG IPC :0.48067: L2-Pf-HR :0.69385: L2-HR :0.74154: (Sim:2h18m28s) 
CPU  1 inst:   64000000 cyc:  126039123 now IPC :1.62903: AVG IPC :0.49577: L2-Pf-HR :0.70528: L2-HR :0.75341: (Sim:2h19m10s) 
CPU  2 inst:   64000000 cyc:  126197263 now IPC :1.65404: AVG IPC :0.49515: L2-Pf-HR :0.70735: L2-HR :0.75440: (Sim:2h19m39s) 
CPU  3 inst:   67000001 cyc:  126340134 now IPC :1.77020: AVG IPC :0.51852: L2-Pf-HR :0.71751: L2-HR :0.76668: (Sim:2h20m3s) 
CPU  0 inst:   63000000 cyc:  126426481 now IPC :1.61748: AVG IPC :0.48627: L2-Pf-HR :0.69918: L2-HR :0.74689: (Sim:2h20m16s) 
CPU  1 inst:   65000003 cyc:  126689266 now IPC :1.53813: AVG IPC :0.50116: L2-Pf-HR :0.70896: L2-HR :0.75765: (Sim:2h21m2s) 
CPU  2 inst:   65000003 cyc:  126853007 now IPC :1.52499: AVG IPC :0.50051: L2-Pf-HR :0.71095: L2-HR :0.75860: (Sim:2h21m31s) 
CPU  3 inst:   68000004 cyc:  126981344 now IPC :1.55956: AVG IPC :0.52381: L2-Pf-HR :0.72093: L2-HR :0.77036: (Sim:2h21m55s) 
CPU  0 inst:   64000000 cyc:  127031742 now IPC :1.65218: AVG IPC :0.49187: L2-Pf-HR :0.70398: L2-HR :0.75184: (Sim:2h22m4s) 
CPU  1 inst:   66000004 cyc:  127266395 now IPC :1.73272: AVG IPC :0.50679: L2-Pf-HR :0.71388: L2-HR :0.76238: (Sim:2h22m47s) 
CPU  2 inst:   66000004 cyc:  127411945 now IPC :1.78911: AVG IPC :0.50621: L2-Pf-HR :0.71577: L2-HR :0.76328: (Sim:2h23m14s) 
CPU  3 inst:   69000002 cyc:  127592465 now IPC :1.63633: AVG IPC :0.52918: L2-Pf-HR :0.72426: L2-HR :0.77399: (Sim:2h23m47s) 
CPU  0 inst:   65000003 cyc:  127647661 now IPC :1.62359: AVG IPC :0.49737: L2-Pf-HR :0.70777: L2-HR :0.75616: (Sim:2h23m56s) 
CPU  1 inst:   67000001 cyc:  127832598 now IPC :1.76615: AVG IPC :0.51241: L2-Pf-HR :0.71871: L2-HR :0.76705: (Sim:2h24m30s) 
CPU  2 inst:   67000001 cyc:  127986295 now IPC :1.74109: AVG IPC :0.51179: L2-Pf-HR :0.72053: L2-HR :0.76791: (Sim:2h24m50s) 
CPU  3 inst:   70000000 cyc:  128183543 now IPC :1.69182: AVG IPC :0.53459: L2-Pf-HR :0.72785: L2-HR :0.77762: (Sim:2h25m7s) 
CPU  0 inst:   66000004 cyc:  128210741 now IPC :1.77595: AVG IPC :0.50303: L2-Pf-HR :0.71282: L2-HR :0.76101: (Sim:2h25m10s) 
CPU  1 inst:   68000004 cyc:  128461624 now IPC :1.58976: AVG IPC :0.51773: L2-Pf-HR :0.72217: L2-HR :0.77074: (Sim:2h25m34s) 
CPU  2 inst:   68000004 cyc:  128617948 now IPC :1.58315: AVG IPC :0.51709: L2-Pf-HR :0.72392: L2-HR :0.77157: (Sim:2h25m49s) 
CPU  3 inst:   71000002 cyc:  128739977 now IPC :1.79716: AVG IPC :0.54008: L2-Pf-HR :0.73176: L2-HR :0.78138: (Sim:2h26m1s) 
CPU  0 inst:   67000001 cyc:  128788350 now IPC :1.73127: AVG IPC :0.50858: L2-Pf-HR :0.71771: L2-HR :0.76570: (Sim:2h26m5s) 
CPU  1 inst:   69000002 cyc:  129094337 now IPC :1.58049: AVG IPC :0.52298: L2-Pf-HR :0.72549: L2-HR :0.77439: (Sim:2h26m33s) 
CPU  2 inst:   69000002 cyc:  129253145 now IPC :1.57431: AVG IPC :0.52233: L2-Pf-HR :0.72718: L2-HR :0.77518: (Sim:2h26m48s) 
CPU  3 inst:   72000000 cyc:  129367021 now IPC :1.59478: AVG IPC :0.54524: L2-Pf-HR :0.73460: L2-HR :0.78447: (Sim:2h26m58s) 
CPU  0 inst:   68000004 cyc:  129426059 now IPC :1.56812: AVG IPC :0.51384: L2-Pf-HR :0.72115: L2-HR :0.76942: (Sim:2h27m4s) 
CPU  1 inst:   70000000 cyc:  129667085 now IPC :1.74597: AVG IPC :0.52842: L2-Pf-HR :0.72900: L2-HR :0.77796: (Sim:2h27m27s) 
CPU  2 inst:   70000000 cyc:  129838678 now IPC :1.70784: AVG IPC :0.52772: L2-Pf-HR :0.73061: L2-HR :0.77871: (Sim:2h27m44s) 
CPU  3 inst:   73000004 cyc:  129976227 now IPC :1.64149: AVG IPC :0.55041: L2-Pf-HR :0.73744: L2-HR :0.78748: (Sim:2h27m57s) 
CPU  0 inst:   69000002 cyc:  130039250 now IPC :1.63081: AVG IPC :0.51915: L2-Pf-HR :0.72448: L2-HR :0.77309: (Sim:2h28m3s) 
CPU  1 inst:   71000002 cyc:  130240205 now IPC :1.74484: AVG IPC :0.53381: L2-Pf-HR :0.73285: L2-HR :0.78167: (Sim:2h28m22s) 
CPU  2 inst:   71000002 cyc:  130433819 now IPC :1.68028: AVG IPC :0.53302: L2-Pf-HR :0.73443: L2-HR :0.78241: (Sim:2h28m40s) 
CPU  3 inst:   74000005 cyc:  130583091 now IPC :1.64782: AVG IPC :0.55555: L2-Pf-HR :0.74028: L2-HR :0.79046: (Sim:2h28m54s) 
CPU  0 inst:   70000000 cyc:  130648165 now IPC :1.64226: AVG IPC :0.52442: L2-Pf-HR :0.72797: L2-HR :0.77668: (Sim:2h29m1s) 
CPU  1 inst:   72000000 cyc:  130871948 now IPC :1.58292: AVG IPC :0.53892: L2-Pf-HR :0.73575: L2-HR :0.78479: (Sim:2h29m23s) 
CPU  2 inst:   72000000 cyc:  131036035 now IPC :1.66053: AVG IPC :0.53824: L2-Pf-HR :0.73723: L2-HR :0.78547: (Sim:2h29m39s) 
CPU  3 inst:   75000002 cyc:  131136965 now IPC :1.80546: AVG IPC :0.56087: L2-Pf-HR :0.74341: L2-HR :0.79353: (Sim:2h29m49s) 
CPU  0 inst:   71000002 cyc:  131215700 now IPC :1.76201: AVG IPC :0.52982: L2-Pf-HR :0.73183: L2-HR :0.78043: (Sim:2h29m56s) 
CPU  1 inst:   73000004 cyc:  131496110 now IPC :1.60215: AVG IPC :0.54400: L2-Pf-HR :0.73858: L2-HR :0.78780: (Sim:2h30m21s) 
CPU  2 inst:   73000004 cyc:  131718368 now IPC :1.46557: AVG IPC :0.54308: L2-Pf-HR :0.74003: L2-HR :0.78845: (Sim:2h30m39s) 
CPU  3 inst:   76000001 cyc:  131835027 now IPC :1.43254: AVG IPC :0.56552: L2-Pf-HR :0.74579: L2-HR :0.79612: (Sim:2h30m50s) 
CPU  0 inst:   72000000 cyc:  131879813 now IPC :1.50576: AVG IPC :0.53477: L2-Pf-HR :0.73473: L2-HR :0.78357: (Sim:2h30m54s) 
CPU  1 inst:   74000005 cyc:  132116196 now IPC :1.61268: AVG IPC :0.54905: L2-Pf-HR :0.74147: L2-HR :0.79082: (Sim:2h31m17s) 
CPU  2 inst:   74000005 cyc:  132313038 now IPC :1.68161: AVG IPC :0.54823: L2-Pf-HR :0.74285: L2-HR :0.79144: (Sim:2h31m36s) 
CPU  3 inst:   77000000 cyc:  132444213 now IPC :1.64153: AVG IPC :0.57051: L2-Pf-HR :0.74817: L2-HR :0.79865: (Sim:2h31m48s) 
CPU  0 inst:   73000004 cyc:  132503779 now IPC :1.60266: AVG IPC :0.53983: L2-Pf-HR :0.73758: L2-HR :0.78660: (Sim:2h31m54s) 
CPU  1 inst:   75000002 cyc:  132689833 now IPC :1.74326: AVG IPC :0.55425: L2-Pf-HR :0.74473: L2-HR :0.79397: (Sim:2h32m12s) 
CPU  2 inst:   75000002 cyc:  132897431 now IPC :1.71117: AVG IPC :0.55338: L2-Pf-HR :0.74611: L2-HR :0.79461: (Sim:2h32m31s) 
CPU  3 inst:   78000001 cyc:  133053765 now IPC :1.64055: AVG IPC :0.57545: L2-Pf-HR :0.75068: L2-HR :0.80126: (Sim:2h32m45s) 
CPU  0 inst:   74000005 cyc:  133105259 now IPC :1.66257: AVG IPC :0.54494: L2-Pf-HR :0.74043: L2-HR :0.78961: (Sim:2h32m50s) 
CPU  1 inst:   76000001 cyc:  133346885 now IPC :1.52195: AVG IPC :0.55906: L2-Pf-HR :0.74717: L2-HR :0.79661: (Sim:2h33m13s) 
CPU  2 inst:   76000001 cyc:  133530044 now IPC :1.58074: AVG IPC :0.55829: L2-Pf-HR :0.74848: L2-HR :0.79722: (Sim:2h33m31s) 
CPU  3 inst:   79000000 cyc:  133629371 now IPC :1.73730: AVG IPC :0.58049: L2-Pf-HR :0.75352: L2-HR :0.80398: (Sim:2h33m40s) 
CPU  0 inst:   75000002 cyc:  133666437 now IPC :1.78196: AVG IPC :0.55018: L2-Pf-HR :0.74378: L2-HR :0.79284: (Sim:2h33m44s) 
CPU  1 inst:   77000000 cyc:  133965224 now IPC :1.61723: AVG IPC :0.56398: L2-Pf-HR :0.74955: L2-HR :0.79914: (Sim:2h34m12s) 
CPU  2 inst:   77000005 cyc:  134147824 now IPC :1.61871: AVG IPC :0.56321: L2-Pf-HR :0.75083: L2-HR :0.79974: (Sim:2h34m29s) 
CPU  3 inst:   80000002 cyc:  134240698 now IPC :1.63579: AVG IPC :0.58533: L2-Pf-HR :0.75551: L2-HR :0.80617: (Sim:2h34m38s) 
Finished CPU 3 instr: 78000001 cyc: 133258488 AVG IPC: 0.58533 (Sim time: 2h34m38s)
CPU  0 inst:   76000001 cyc:  134292682 now IPC :1.59682: AVG IPC :0.55509: L2-Pf-HR :0.74623: L2-HR :0.79551: (Sim:2h34m42s) 
CPU  1 inst:   78000001 cyc:  134562837 now IPC :1.67333: AVG IPC :0.56894: L2-Pf-HR :0.75199: L2-HR :0.80168: (Sim:2h35m8s) 
CPU  2 inst:   78000001 cyc:  134755604 now IPC :1.64533: AVG IPC :0.56812: L2-Pf-HR :0.75327: L2-HR :0.80230: (Sim:2h35m26s) 
CPU  3 inst:   81000003 cyc:  134869789 now IPC :1.58960: AVG IPC :0.59005: L2-Pf-HR :0.75767: L2-HR :0.80840: (Sim:2h35m37s) 
CPU  0 inst:   77000000 cyc:  134895564 now IPC :1.65870: AVG IPC :0.56006: L2-Pf-HR :0.74864: L2-HR :0.79806: (Sim:2h35m40s) 
CPU  1 inst:   79000000 cyc:  135139864 now IPC :1.73302: AVG IPC :0.57395: L2-Pf-HR :0.75472: L2-HR :0.80433: (Sim:2h36m3s) 
CPU  2 inst:   79000000 cyc:  135305381 now IPC :1.81892: AVG IPC :0.57324: L2-Pf-HR :0.75602: L2-HR :0.80497: (Sim:2h36m19s) 
CPU  3 inst:   82000004 cyc:  135491262 now IPC :1.60908: AVG IPC :0.59476: L2-Pf-HR :0.75967: L2-HR :0.81054: (Sim:2h36m37s) 
CPU  0 inst:   78000001 cyc:  135498442 now IPC :1.65871: AVG IPC :0.56499: L2-Pf-HR :0.75110: L2-HR :0.80064: (Sim:2h36m37s) 
CPU  1 inst:   80000002 cyc:  135798345 now IPC :1.51865: AVG IPC :0.57856: L2-Pf-HR :0.75662: L2-HR :0.80647: (Sim:2h37m4s) 
Finished CPU 1 instr: 78000000 cyc: 134816204 AVG IPC: 0.57857 (Sim time: 2h37m4s)
CPU  2 inst:   80000002 cyc:  135962951 now IPC :1.52075: AVG IPC :0.57786: L2-Pf-HR :0.75795: L2-HR :0.80714: (Sim:2h37m18s) 
Finished CPU 2 instr: 78000005 cyc: 134980777 AVG IPC: 0.57786 (Sim time: 2h37m18s)
CPU  3 inst:   83000000 cyc:  136120954 now IPC :1.58807: AVG IPC :0.59938: L2-Pf-HR :0.76213: L2-HR :0.81288: (Sim:2h37m33s) 
CPU  0 inst:   79000000 cyc:  136126828 now IPC :1.59138: AVG IPC :0.56976: L2-Pf-HR :0.75384: L2-HR :0.80332: (Sim:2h37m34s) 
CPU  1 inst:   81000003 cyc:  136439484 now IPC :1.55973: AVG IPC :0.58321: L2-Pf-HR :0.75878: L2-HR :0.80871: (Sim:2h38m4s) 
CPU  2 inst:   81000003 cyc:  136580375 now IPC :1.61963: AVG IPC :0.58260: L2-Pf-HR :0.76008: L2-HR :0.80936: (Sim:2h38m16s) 
*** Reached end of trace for Core: 3 Repeating trace: 770-tot_memTraces_v3/memTraces[83000000][Pythia-70M]_[h8][s512][d64].champsim.xz
CPU  0 inst:   80000002 cyc:  136783332 now IPC :1.52322: AVG IPC :0.57437: L2-Pf-HR :0.75579: L2-HR :0.80551: (Sim:2h38m36s) 
Finished CPU 0 instr: 78000002 cyc: 135801169 AVG IPC: 0.57437 (Sim time: 2h38m36s)

ChampSim completed all CPUs

Total Simulation Statistics (not including warmup)

CPU 0 cumulative IPC: 0.57437 instructions: 78000002 cycles: 135801169
Core_0_L1D_total_access 23401311
Core_0_L1D_total_hit 20469725
Core_0_L1D_total_miss 2931586
Core_0_L1D_loads 19604614
Core_0_L1D_load_hit 18000664
Core_0_L1D_load_miss 1603950
Core_0_L1D_RFOs 2191196
Core_0_L1D_RFO_hit 2120694
Core_0_L1D_RFO_miss 70502
Core_0_L1D_prefetches 1605501
Core_0_L1D_prefetch_hit 348367
Core_0_L1D_prefetch_miss 1257134
Core_0_L1D_writebacks 0
Core_0_L1D_writeback_hit 0
Core_0_L1D_writeback_miss 0

Core_0_L1I_total_access 11175425
Core_0_L1I_total_hit 11170521
Core_0_L1I_total_miss 4904
Core_0_L1I_loads 11175425
Core_0_L1I_load_hit 11170521
Core_0_L1I_load_miss 4904
Core_0_L1I_RFOs 0
Core_0_L1I_RFO_hit 0
Core_0_L1I_RFO_miss 0
Core_0_L1I_prefetches 0
Core_0_L1I_prefetch_hit 0
Core_0_L1I_prefetch_miss 0
Core_0_L1I_writebacks 0
Core_0_L1I_writeback_hit 0
Core_0_L1I_writeback_miss 0

Core_0_L2C_total_access 3764095
Core_0_L2C_total_hit 3032008
Core_0_L2C_total_miss 732087
Core_0_L2C_loads 1397366
Core_0_L2C_load_hit 1176348
Core_0_L2C_load_miss 221018
Core_0_L2C_RFOs 70487
Core_0_L2C_RFO_hit 198
Core_0_L2C_RFO_miss 70289
Core_0_L2C_prefetches 1804646
Core_0_L2C_prefetch_hit 1363938
Core_0_L2C_prefetch_miss 440708
Core_0_L2C_writebacks 491596
Core_0_L2C_writeback_hit 491524
Core_0_L2C_writeback_miss 72

[Bingo] PHT Access: 396302
[Bingo] PHT Hit PC+Addr: 189737
[Bingo] PHT Hit PC+Offs: 192395
[Bingo] PHT Miss: 14170
[Bingo] Prefetch PC+Addr: 0
[Bingo] Prefetch PC+Offs: 0
[Bingo] Useful PC+Addr: 0
[Bingo] Useful PC+Offs: 0
[Bingo] Useless PC+Addr: 0
[Bingo] Useless PC+Offs: 0
[Bingo] L1 Prefetch per Region: 8.22920
[Bingo] L2 Prefetch per Region: 0.26537
[Bingo] L3 Prefetch per Region: 0.00000
[Bingo] No Prefetch per Region: 23.50543
[Bingo] Number of Voters Mean: 13.43407
[Bingo] Number of Voters SD: 4.59682
PHT read accesses: 4817528
PHT write accesses: 377634
AT read accesses: 19184190
AT write accesses: 19184213
FT read accesses: 4040931
FT write accesses: 396302
PS read accesses: 2020564
PS write accesses: 382132
PHT tag read accesses: 14028813
PHT tag write accesses: 567371
AT tag read accesses: 540707556
AT tag write accesses: 19561847
FT tag read accesses: 245621842
FT tag write accesses: 2614800
PS tag read accesses: 343223359
PS tag write accesses: 2394507
[Bingo2] PHT Access: 103438
[Bingo2] PHT Hit PC+Addr: 5191
[Bingo2] PHT Hit PC+Offs: 88729
[Bingo2] PHT Miss: 9518
[Bingo2] Prefetch PC+Addr: 0
[Bingo2] Prefetch PC+Offs: 0
[Bingo2] Useful PC+Addr: 0
[Bingo2] Useful PC+Offs: 0
[Bingo2] Useless PC+Addr: 0
[Bingo2] Useless PC+Offs: 0
[Bingo2] L1 Prefetch per Region: 0.00000
[Bingo2] L2 Prefetch per Region: 9.07484
[Bingo2] L3 Prefetch per Region: 0.00000
[Bingo2] No Prefetch per Region: 22.92516
[Bingo2] Number of Voters Mean: 15.16113
[Bingo2] Number of Voters SD: 2.86450
PHT read accesses: 1413058
PHT write accesses: 73278
AT read accesses: 1309841
AT write accesses: 1382343
FT read accesses: 222583
FT write accesses: 103438
PS read accesses: 230295
PS write accesses: 93920
PHT tag read accesses: 3888011
PHT tag write accesses: 78469
AT tag read accesses: 73235421
AT tag write accesses: 1383247
FT tag read accesses: 53803481
FT tag write accesses: 251587
PS tag read accesses: 25823670
PS tag write accesses: 316976
Core_0_LLC_total_access 1156823
Core_0_LLC_total_hit 445625
Core_0_LLC_total_miss 711198
Core_0_LLC_loads 138054
Core_0_LLC_load_hit 9143
Core_0_LLC_load_miss 128911
Core_0_LLC_RFOs 70289
Core_0_LLC_RFO_hit 58
Core_0_LLC_RFO_miss 70231
Core_0_LLC_prefetches 523668
Core_0_LLC_prefetch_hit 22499
Core_0_LLC_prefetch_miss 501169
Core_0_LLC_writebacks 424812
Core_0_LLC_writeback_hit 413925
Core_0_LLC_writeback_miss 10887


CPU 1 cumulative IPC: 0.58560 instructions: 79525487 cycles: 135801169
Core_1_L1D_total_access 23870474
Core_1_L1D_total_hit 20837616
Core_1_L1D_total_miss 3032858
Core_1_L1D_loads 20020994
Core_1_L1D_load_hit 18355069
Core_1_L1D_load_miss 1665925
Core_1_L1D_RFOs 2195044
Core_1_L1D_RFO_hit 2124489
Core_1_L1D_RFO_miss 70555
Core_1_L1D_prefetches 1654436
Core_1_L1D_prefetch_hit 358058
Core_1_L1D_prefetch_miss 1296378
Core_1_L1D_writebacks 0
Core_1_L1D_writeback_hit 0
Core_1_L1D_writeback_miss 0

Core_1_L1I_total_access 11328433
Core_1_L1I_total_hit 11323525
Core_1_L1I_total_miss 4908
Core_1_L1I_loads 11328433
Core_1_L1I_load_hit 11323525
Core_1_L1I_load_miss 4908
Core_1_L1I_RFOs 0
Core_1_L1I_RFO_hit 0
Core_1_L1I_RFO_miss 0
Core_1_L1I_prefetches 0
Core_1_L1I_prefetch_hit 0
Core_1_L1I_prefetch_miss 0
Core_1_L1I_writebacks 0
Core_1_L1I_writeback_hit 0
Core_1_L1I_writeback_miss 0

Core_1_L2C_total_access 3868650
Core_1_L2C_total_hit 3133177
Core_1_L2C_total_miss 735473
Core_1_L2C_loads 1451954
Core_1_L2C_load_hit 1231746
Core_1_L2C_load_miss 220208
Core_1_L2C_RFOs 70538
Core_1_L2C_RFO_hit 211
Core_1_L2C_RFO_miss 70327
Core_1_L2C_prefetches 1852963
Core_1_L2C_prefetch_hit 1408065
Core_1_L2C_prefetch_miss 444898
Core_1_L2C_writebacks 493195
Core_1_L2C_writeback_hit 493155
Core_1_L2C_writeback_miss 40

[Bingo] PHT Access: 403361
[Bingo] PHT Hit PC+Addr: 198274
[Bingo] PHT Hit PC+Offs: 191402
[Bingo] PHT Miss: 13685
[Bingo] Prefetch PC+Addr: 0
[Bingo] Prefetch PC+Offs: 0
[Bingo] Useful PC+Addr: 0
[Bingo] Useful PC+Offs: 0
[Bingo] Useless PC+Addr: 0
[Bingo] Useless PC+Offs: 0
[Bingo] L1 Prefetch per Region: 8.24616
[Bingo] L2 Prefetch per Region: 0.26962
[Bingo] L3 Prefetch per Region: 0.00000
[Bingo] No Prefetch per Region: 23.48422
[Bingo] Number of Voters Mean: 13.37079
[Bingo] Number of Voters SD: 5.28689
PHT read accesses: 4898899
PHT write accesses: 384384
AT read accesses: 18921993
AT write accesses: 18921992
FT read accesses: 4056711
FT write accesses: 403361
PS read accesses: 2075568
PS write accesses: 389676
PHT tag read accesses: 14184759
PHT tag write accesses: 582658
AT tag read accesses: 534154068
AT tag write accesses: 19306376
FT tag read accesses: 243464451
FT tag write accesses: 2633332
PS tag read accesses: 339304713
PS tag write accesses: 2456668
[Bingo2] PHT Access: 97037
[Bingo2] PHT Hit PC+Addr: 5300
[Bingo2] PHT Hit PC+Offs: 86560
[Bingo2] PHT Miss: 5177
[Bingo2] Prefetch PC+Addr: 0
[Bingo2] Prefetch PC+Offs: 0
[Bingo2] Useful PC+Addr: 0
[Bingo2] Useful PC+Offs: 0
[Bingo2] Useless PC+Addr: 0
[Bingo2] Useless PC+Offs: 0
[Bingo2] L1 Prefetch per Region: 0.00000
[Bingo2] L2 Prefetch per Region: 9.11342
[Bingo2] L3 Prefetch per Region: 0.00000
[Bingo2] No Prefetch per Region: 22.88658
[Bingo2] Number of Voters Mean: 15.55274
[Bingo2] Number of Voters SD: 2.22309
PHT read accesses: 1409168
PHT write accesses: 71554
AT read accesses: 1354357
AT write accesses: 1425453
FT read accesses: 217215
FT write accesses: 97037
PS read accesses: 226760
PS write accesses: 91860
PHT tag read accesses: 3745866
PHT tag write accesses: 76854
AT tag read accesses: 73528783
AT tag write accesses: 1425921
FT tag read accesses: 53198484
FT tag write accesses: 241660
PS tag read accesses: 26333150
PS tag write accesses: 311519
Core_1_LLC_total_access 1161144
Core_1_LLC_total_hit 444495
Core_1_LLC_total_miss 716649
Core_1_LLC_loads 136886
Core_1_LLC_load_hit 7876
Core_1_LLC_load_miss 129010
Core_1_LLC_RFOs 70327
Core_1_LLC_RFO_hit 51
Core_1_LLC_RFO_miss 70276
Core_1_LLC_prefetches 528220
Core_1_LLC_prefetch_hit 19291
Core_1_LLC_prefetch_miss 508929
Core_1_LLC_writebacks 425711
Core_1_LLC_writeback_hit 417277
Core_1_LLC_writeback_miss 8434


CPU 2 cumulative IPC: 0.58415 instructions: 79328785 cycles: 135801169
Core_2_L1D_total_access 23813835
Core_2_L1D_total_hit 20794041
Core_2_L1D_total_miss 3019794
Core_2_L1D_loads 19969928
Core_2_L1D_load_hit 18313079
Core_2_L1D_load_miss 1656849
Core_2_L1D_RFOs 2194349
Core_2_L1D_RFO_hit 2123750
Core_2_L1D_RFO_miss 70599
Core_2_L1D_prefetches 1649558
Core_2_L1D_prefetch_hit 357212
Core_2_L1D_prefetch_miss 1292346
Core_2_L1D_writebacks 0
Core_2_L1D_writeback_hit 0
Core_2_L1D_writeback_miss 0

Core_2_L1I_total_access 11304932
Core_2_L1I_total_hit 11300025
Core_2_L1I_total_miss 4907
Core_2_L1I_loads 11304932
Core_2_L1I_load_hit 11300025
Core_2_L1I_load_miss 4907
Core_2_L1I_RFOs 0
Core_2_L1I_RFO_hit 0
Core_2_L1I_RFO_miss 0
Core_2_L1I_prefetches 0
Core_2_L1I_prefetch_hit 0
Core_2_L1I_prefetch_miss 0
Core_2_L1I_writebacks 0
Core_2_L1I_writeback_hit 0
Core_2_L1I_writeback_miss 0

Core_2_L2C_total_access 3861548
Core_2_L2C_total_hit 3128588
Core_2_L2C_total_miss 732960
Core_2_L2C_loads 1443828
Core_2_L2C_load_hit 1224463
Core_2_L2C_load_miss 219365
Core_2_L2C_RFOs 70587
Core_2_L2C_RFO_hit 190
Core_2_L2C_RFO_miss 70397
Core_2_L2C_prefetches 1854153
Core_2_L2C_prefetch_hit 1410979
Core_2_L2C_prefetch_miss 443174
Core_2_L2C_writebacks 492980
Core_2_L2C_writeback_hit 492956
Core_2_L2C_writeback_miss 24

[Bingo] PHT Access: 408401
[Bingo] PHT Hit PC+Addr: 197815
[Bingo] PHT Hit PC+Offs: 196332
[Bingo] PHT Miss: 14254
[Bingo] Prefetch PC+Addr: 0
[Bingo] Prefetch PC+Offs: 0
[Bingo] Useful PC+Addr: 0
[Bingo] Useful PC+Offs: 0
[Bingo] Useless PC+Addr: 0
[Bingo] Useless PC+Offs: 0
[Bingo] L1 Prefetch per Region: 8.22180
[Bingo] L2 Prefetch per Region: 0.26129
[Bingo] L3 Prefetch per Region: 0.00000
[Bingo] No Prefetch per Region: 23.51692
[Bingo] Number of Voters Mean: 13.40124
[Bingo] Number of Voters SD: 4.61005
PHT read accesses: 4950796
PHT write accesses: 389169
AT read accesses: 19559225
AT write accesses: 19559254
FT read accesses: 4082571
FT write accesses: 408401
PS read accesses: 2089543
PS write accesses: 394147
PHT tag read accesses: 14406045
PHT tag write accesses: 586984
AT tag read accesses: 547178799
AT tag write accesses: 19948421
FT tag read accesses: 246445474
FT tag write accesses: 2653761
PS tag read accesses: 349698800
PS tag write accesses: 2475076
[Bingo2] PHT Access: 103998
[Bingo2] PHT Hit PC+Addr: 5497
[Bingo2] PHT Hit PC+Offs: 88719
[Bingo2] PHT Miss: 9782
[Bingo2] Prefetch PC+Addr: 0
[Bingo2] Prefetch PC+Offs: 0
[Bingo2] Useful PC+Addr: 0
[Bingo2] Useful PC+Offs: 0
[Bingo2] Useless PC+Addr: 0
[Bingo2] Useless PC+Offs: 0
[Bingo2] L1 Prefetch per Region: 0.00000
[Bingo2] L2 Prefetch per Region: 9.25174
[Bingo2] L3 Prefetch per Region: 0.00000
[Bingo2] No Prefetch per Region: 22.74826
[Bingo2] Number of Voters Mean: 15.29659
[Bingo2] Number of Voters SD: 2.68757
PHT read accesses: 1424518
PHT write accesses: 73713
AT read accesses: 1355783
AT write accesses: 1428705
FT read accesses: 223787
FT write accesses: 103998
PS read accesses: 231569
PS write accesses: 94216
PHT tag read accesses: 3907695
PHT tag write accesses: 79210
AT tag read accesses: 73998932
AT tag write accesses: 1429624
FT tag read accesses: 53828651
FT tag write accesses: 252987
PS tag read accesses: 26539826
PS tag write accesses: 317830
Core_2_LLC_total_access 1156986
Core_2_LLC_total_hit 441369
Core_2_LLC_total_miss 715617
Core_2_LLC_loads 136202
Core_2_LLC_load_hit 8249
Core_2_LLC_load_miss 127953
Core_2_LLC_RFOs 70397
Core_2_LLC_RFO_hit 68
Core_2_LLC_RFO_miss 70329
Core_2_LLC_prefetches 526334
Core_2_LLC_prefetch_hit 17794
Core_2_LLC_prefetch_miss 508540
Core_2_LLC_writebacks 424053
Core_2_LLC_writeback_hit 415258
Core_2_LLC_writeback_miss 8795


CPU 3 cumulative IPC: 0.60306 instructions: 81896895 cycles: 135801169
Core_3_L1D_total_access 24558625
Core_3_L1D_total_hit 21378491
Core_3_L1D_total_miss 3180134
Core_3_L1D_loads 20632850
Core_3_L1D_load_hit 18876217
Core_3_L1D_load_miss 1756633
Core_3_L1D_RFOs 2200296
Core_3_L1D_RFO_hit 2129702
Core_3_L1D_RFO_miss 70594
Core_3_L1D_prefetches 1725479
Core_3_L1D_prefetch_hit 372572
Core_3_L1D_prefetch_miss 1352907
Core_3_L1D_writebacks 0
Core_3_L1D_writeback_hit 0
Core_3_L1D_writeback_miss 0

Core_3_L1I_total_access 11557244
Core_3_L1I_total_hit 11549386
Core_3_L1I_total_miss 7858
Core_3_L1I_loads 11557244
Core_3_L1I_load_hit 11549386
Core_3_L1I_load_miss 7858
Core_3_L1I_RFOs 0
Core_3_L1I_RFO_hit 0
Core_3_L1I_RFO_miss 0
Core_3_L1I_prefetches 0
Core_3_L1I_prefetch_hit 0
Core_3_L1I_prefetch_miss 0
Core_3_L1I_writebacks 0
Core_3_L1I_writeback_hit 0
Core_3_L1I_writeback_miss 0

Core_3_L2C_total_access 4052826
Core_3_L2C_total_hit 3299449
Core_3_L2C_total_miss 753377
Core_3_L2C_loads 1534192
Core_3_L2C_load_hit 1312594
Core_3_L2C_load_miss 221598
Core_3_L2C_RFOs 70574
Core_3_L2C_RFO_hit 197
Core_3_L2C_RFO_miss 70377
Core_3_L2C_prefetches 1952548
Core_3_L2C_prefetch_hit 1491218
Core_3_L2C_prefetch_miss 461330
Core_3_L2C_writebacks 495512
Core_3_L2C_writeback_hit 495440
Core_3_L2C_writeback_miss 72

[Bingo] PHT Access: 430737
[Bingo] PHT Hit PC+Addr: 211739
[Bingo] PHT Hit PC+Offs: 204047
[Bingo] PHT Miss: 14951
[Bingo] Prefetch PC+Addr: 0
[Bingo] Prefetch PC+Offs: 0
[Bingo] Useful PC+Addr: 0
[Bingo] Useful PC+Offs: 0
[Bingo] Useless PC+Addr: 0
[Bingo] Useless PC+Offs: 0
[Bingo] L1 Prefetch per Region: 8.19927
[Bingo] L2 Prefetch per Region: 0.26749
[Bingo] L3 Prefetch per Region: 0.00000
[Bingo] No Prefetch per Region: 23.53325
[Bingo] Number of Voters Mean: 13.32146
[Bingo] Number of Voters SD: 4.64998
PHT read accesses: 5214565
PHT write accesses: 410319
AT read accesses: 20237756
AT write accesses: 20237806
FT read accesses: 4164725
FT write accesses: 430737
PS read accesses: 2203925
PS write accesses: 415786
PHT tag read accesses: 15127662
PHT tag write accesses: 622058
AT tag read accesses: 558917813
AT tag write accesses: 20648123
FT tag read accesses: 248015479
FT tag write accesses: 2728306
PS tag read accesses: 361473165
PS tag write accesses: 2610408
[Bingo2] PHT Access: 105385
[Bingo2] PHT Hit PC+Addr: 5915
[Bingo2] PHT Hit PC+Offs: 89006
[Bingo2] PHT Miss: 10464
[Bingo2] Prefetch PC+Addr: 0
[Bingo2] Prefetch PC+Offs: 0
[Bingo2] Useful PC+Addr: 0
[Bingo2] Useful PC+Offs: 0
[Bingo2] Useless PC+Addr: 0
[Bingo2] Useless PC+Offs: 0
[Bingo2] L1 Prefetch per Region: 0.00000
[Bingo2] L2 Prefetch per Region: 8.17758
[Bingo2] L3 Prefetch per Region: 0.00000
[Bingo2] No Prefetch per Region: 23.82242
[Bingo2] Number of Voters Mean: 15.40022
[Bingo2] Number of Voters SD: 2.54750
PHT read accesses: 1437009
PHT write accesses: 74878
AT read accesses: 1445019
AT write accesses: 1518943
FT read accesses: 227922
FT write accesses: 105385
PS read accesses: 238158
PS write accesses: 94921
PHT tag read accesses: 3960104
PHT tag write accesses: 80793
AT tag read accesses: 75502971
AT tag write accesses: 1520025
FT tag read accesses: 53917929
FT tag write accesses: 257227
PS tag read accesses: 28053374
PS tag write accesses: 325391
Core_3_LLC_total_access 1181079
Core_3_LLC_total_hit 450438
Core_3_LLC_total_miss 730641
Core_3_LLC_loads 138255
Core_3_LLC_load_hit 9654
Core_3_LLC_load_miss 128601
Core_3_LLC_RFOs 70377
Core_3_LLC_RFO_hit 69
Core_3_LLC_RFO_miss 70308
Core_3_LLC_prefetches 544646
Core_3_LLC_prefetch_hit 23687
Core_3_LLC_prefetch_miss 520959
Core_3_LLC_writebacks 427801
Core_3_LLC_writeback_hit 417028
Core_3_LLC_writeback_miss 10773


[ROI Statistics]
Core_0_instructions 78000002
Core_0_cycles 135801169
Core_0_IPC 0.57437

Core_0_branch_prediction_accuracy 99.16542
Core_0_branch_MPKI 0.25491
Core_0_average_ROB_occupancy_at_mispredict 436.94845

Core_0_L1D_total_access 23401311
Core_0_L1D_total_hit 20469725 L1D_total_Hit Ratio: 0.87473
Core_0_L1D_total_miss 2931586
Core_0_L1D_loads 19604614
Core_0_L1D_load_hit 18000664 L1D_load_Hit Ratio: 0.91819
Core_0_L1D_load_miss 1603950
Core_0_L1D_RFOs 2191196
Core_0_L1D_RFO_hit 2120694 L1D_RFO_Hit Ratio: 0.96782
Core_0_L1D_RFO_miss 70502
Core_0_L1D_prefetches 1605501
Core_0_L1D_prefetch_hit 348367 L1D_prefetch_Hit Ratio: 0.21698
Core_0_L1D_prefetch_miss 1257134
Core_0_L1D_writebacks 0
Core_0_L1D_writeback_hit 0 L1D_writeback_Hit Ratio: -nan
Core_0_L1D_writeback_miss 0
Core_0_L1D_prefetch_requested 2503146
Core_0_L1D_prefetch_issued 2503146
Core_0_L1D_prefetch_useful 1263186 L1D_Useful Ratio: 0.50464
Core_0_L1D_prefetch_useless 20390
Core_0_L1D_prefetch_late 213341
Core_0_L1D_average_miss_latency 7048950.17915

Core_0_L1I_total_access 11175425
Core_0_L1I_total_hit 11170521 L1I_total_Hit Ratio: 0.99956
Core_0_L1I_total_miss 4904
Core_0_L1I_loads 11175425
Core_0_L1I_load_hit 11170521 L1I_load_Hit Ratio: 0.99956
Core_0_L1I_load_miss 4904
Core_0_L1I_RFOs 0
Core_0_L1I_RFO_hit 0 L1I_RFO_Hit Ratio: -nan
Core_0_L1I_RFO_miss 0
Core_0_L1I_prefetches 0
Core_0_L1I_prefetch_hit 0 L1I_prefetch_Hit Ratio: -nan
Core_0_L1I_prefetch_miss 0
Core_0_L1I_writebacks 0
Core_0_L1I_writeback_hit 0 L1I_writeback_Hit Ratio: -nan
Core_0_L1I_writeback_miss 0
Core_0_L1I_prefetch_requested 0
Core_0_L1I_prefetch_issued 0
Core_0_L1I_prefetch_useful 0 L1I_Useful Ratio: -nan
Core_0_L1I_prefetch_useless 0
Core_0_L1I_prefetch_late 0
Core_0_L1I_average_miss_latency 1286.82667

Core_0_L2C_total_access 3764095
Core_0_L2C_total_hit 3032008 L2C_total_Hit Ratio: 0.80551
Core_0_L2C_total_miss 732087
Core_0_L2C_loads 1397366
Core_0_L2C_load_hit 1176348 L2C_load_Hit Ratio: 0.84183
Core_0_L2C_load_miss 221018
Core_0_L2C_RFOs 70487
Core_0_L2C_RFO_hit 198 L2C_RFO_Hit Ratio: 0.00281
Core_0_L2C_RFO_miss 70289
Core_0_L2C_prefetches 1804646
Core_0_L2C_prefetch_hit 1363938 L2C_prefetch_Hit Ratio: 0.75579
Core_0_L2C_prefetch_miss 440708
Core_0_L2C_writebacks 491596
Core_0_L2C_writeback_hit 491524 L2C_writeback_Hit Ratio: 0.99985
Core_0_L2C_writeback_miss 72
Core_0_L2C_prefetch_requested 562990
Core_0_L2C_prefetch_issued 562990
Core_0_L2C_prefetch_useful 117261 L2C_Useful Ratio: 0.20828
Core_0_L2C_prefetch_useless 322216
Core_0_L2C_prefetch_late 83029
Core_0_L2C_average_miss_latency 936.53806

Core_0_LLC_total_access 1156823
Core_0_LLC_total_hit 445625 LLC_total_Hit Ratio: 0.38521
Core_0_LLC_total_miss 711198
Core_0_LLC_loads 138054
Core_0_LLC_load_hit 9143 LLC_load_Hit Ratio: 0.06623
Core_0_LLC_load_miss 128911
Core_0_LLC_RFOs 70289
Core_0_LLC_RFO_hit 58 LLC_RFO_Hit Ratio: 0.00083
Core_0_LLC_RFO_miss 70231
Core_0_LLC_prefetches 523668
Core_0_LLC_prefetch_hit 22499 LLC_prefetch_Hit Ratio: 0.04296
Core_0_LLC_prefetch_miss 501169
Core_0_LLC_writebacks 424812
Core_0_LLC_writeback_hit 413925 LLC_writeback_Hit Ratio: 0.97437
Core_0_LLC_writeback_miss 10887
Core_0_LLC_prefetch_requested 0
Core_0_LLC_prefetch_issued 0
Core_0_LLC_prefetch_useful 21798 LLC_Useful Ratio: inf
Core_0_LLC_prefetch_useless 1879871
Core_0_LLC_prefetch_late 0
Core_0_LLC_average_miss_latency 3706.18526

Core_0_major_page_fault 0
Core_0_minor_page_fault 6067

Core_1_instructions 78000000
Core_1_cycles 134816204
Core_1_IPC 0.57857

Core_1_branch_prediction_accuracy 99.16658
Core_1_branch_MPKI 0.25071
Core_1_average_ROB_occupancy_at_mispredict 436.78087

Core_1_L1D_total_access 23402517
Core_1_L1D_total_hit 20470639 L1D_total_Hit Ratio: 0.87472
Core_1_L1D_total_miss 2931878
Core_1_L1D_loads 19604567
Core_1_L1D_load_hit 18001186 L1D_load_Hit Ratio: 0.91821
Core_1_L1D_load_miss 1603381
Core_1_L1D_RFOs 2191478
Core_1_L1D_RFO_hit 2120924 L1D_RFO_Hit Ratio: 0.96781
Core_1_L1D_RFO_miss 70554
Core_1_L1D_prefetches 1606472
Core_1_L1D_prefetch_hit 348529 L1D_prefetch_Hit Ratio: 0.21695
Core_1_L1D_prefetch_miss 1257943
Core_1_L1D_writebacks 0
Core_1_L1D_writeback_hit 0 L1D_writeback_Hit Ratio: -nan
Core_1_L1D_writeback_miss 0
Core_1_L1D_prefetch_requested 2587768
Core_1_L1D_prefetch_issued 2587768
Core_1_L1D_prefetch_useful 1301669 L1D_Useful Ratio: 0.50301
Core_1_L1D_prefetch_useless 21139
Core_1_L1D_prefetch_late 220851
Core_1_L1D_average_miss_latency 7281863.29034

Core_1_L1I_total_access 11178471
Core_1_L1I_total_hit 11173565 L1I_total_Hit Ratio: 0.99956
Core_1_L1I_total_miss 4906
Core_1_L1I_loads 11178471
Core_1_L1I_load_hit 11173565 L1I_load_Hit Ratio: 0.99956
Core_1_L1I_load_miss 4906
Core_1_L1I_RFOs 0
Core_1_L1I_RFO_hit 0 L1I_RFO_Hit Ratio: -nan
Core_1_L1I_RFO_miss 0
Core_1_L1I_prefetches 0
Core_1_L1I_prefetch_hit 0 L1I_prefetch_Hit Ratio: -nan
Core_1_L1I_prefetch_miss 0
Core_1_L1I_writebacks 0
Core_1_L1I_writeback_hit 0 L1I_writeback_Hit Ratio: -nan
Core_1_L1I_writeback_miss 0
Core_1_L1I_prefetch_requested 0
Core_1_L1I_prefetch_issued 0
Core_1_L1I_prefetch_useful 0 L1I_Useful Ratio: -nan
Core_1_L1I_prefetch_useless 0
Core_1_L1I_prefetch_late 0
Core_1_L1I_average_miss_latency 1008.69018

Core_1_L2C_total_access 3760060
Core_1_L2C_total_hit 3032372 L2C_total_Hit Ratio: 0.80647
Core_1_L2C_total_miss 727688
Core_1_L2C_loads 1396767
Core_1_L2C_load_hit 1177818 L2C_load_Hit Ratio: 0.84325
Core_1_L2C_load_miss 218949
Core_1_L2C_RFOs 70537
Core_1_L2C_RFO_hit 210 L2C_RFO_Hit Ratio: 0.00298
Core_1_L2C_RFO_miss 70327
Core_1_L2C_prefetches 1801160
Core_1_L2C_prefetch_hit 1362788 L2C_prefetch_Hit Ratio: 0.75662
Core_1_L2C_prefetch_miss 438372
Core_1_L2C_writebacks 491596
Core_1_L2C_writeback_hit 491556 L2C_writeback_Hit Ratio: 0.99992
Core_1_L2C_writeback_miss 40
Core_1_L2C_prefetch_requested 565207
Core_1_L2C_prefetch_issued 565207
Core_1_L2C_prefetch_useful 121586 L2C_Useful Ratio: 0.21512
Core_1_L2C_prefetch_useless 321958
Core_1_L2C_prefetch_late 83361
Core_1_L2C_average_miss_latency 965.20766

Core_1_LLC_total_access 1152606
Core_1_LLC_total_hit 443870 LLC_total_Hit Ratio: 0.38510
Core_1_LLC_total_miss 708736
Core_1_LLC_loads 135745
Core_1_LLC_load_hit 7876 LLC_load_Hit Ratio: 0.05802
Core_1_LLC_load_miss 127869
Core_1_LLC_RFOs 70327
Core_1_LLC_RFO_hit 51 LLC_RFO_Hit Ratio: 0.00073
Core_1_LLC_RFO_miss 70276
Core_1_LLC_prefetches 521576
Core_1_LLC_prefetch_hit 19291 LLC_prefetch_Hit Ratio: 0.03699
Core_1_LLC_prefetch_miss 502285
Core_1_LLC_writebacks 424958
Core_1_LLC_writeback_hit 416652 LLC_writeback_Hit Ratio: 0.98045
Core_1_LLC_writeback_miss 8306
Core_1_LLC_prefetch_requested 0
Core_1_LLC_prefetch_issued 0
Core_1_LLC_prefetch_useful 21798 LLC_Useful Ratio: inf
Core_1_LLC_prefetch_useless 1879871
Core_1_LLC_prefetch_late 0
Core_1_LLC_average_miss_latency 3719.05976

Core_1_major_page_fault 0
Core_1_minor_page_fault 6090

Core_2_instructions 78000005
Core_2_cycles 134980777
Core_2_IPC 0.57786

Core_2_branch_prediction_accuracy 99.16663
Core_2_branch_MPKI 0.25118
Core_2_average_ROB_occupancy_at_mispredict 436.78822

Core_2_L1D_total_access 23403895
Core_2_L1D_total_hit 20471753 L1D_total_Hit Ratio: 0.87472
Core_2_L1D_total_miss 2932142
Core_2_L1D_loads 19605457
Core_2_L1D_load_hit 18002349 L1D_load_Hit Ratio: 0.91823
Core_2_L1D_load_miss 1603108
Core_2_L1D_RFOs 2191235
Core_2_L1D_RFO_hit 2120636 L1D_RFO_Hit Ratio: 0.96778
Core_2_L1D_RFO_miss 70599
Core_2_L1D_prefetches 1607203
Core_2_L1D_prefetch_hit 348768 L1D_prefetch_Hit Ratio: 0.21700
Core_2_L1D_prefetch_miss 1258435
Core_2_L1D_writebacks 0
Core_2_L1D_writeback_hit 0 L1D_writeback_Hit Ratio: -nan
Core_2_L1D_writeback_miss 0
Core_2_L1D_prefetch_requested 2577440
Core_2_L1D_prefetch_issued 2577440
Core_2_L1D_prefetch_useful 1297560 L1D_Useful Ratio: 0.50343
Core_2_L1D_prefetch_useless 21109
Core_2_L1D_prefetch_late 219956
Core_2_L1D_average_miss_latency 7264667.22186

Core_2_L1I_total_access 11174366
Core_2_L1I_total_hit 11169459 L1I_total_Hit Ratio: 0.99956
Core_2_L1I_total_miss 4907
Core_2_L1I_loads 11174366
Core_2_L1I_load_hit 11169459 L1I_load_Hit Ratio: 0.99956
Core_2_L1I_load_miss 4907
Core_2_L1I_RFOs 0
Core_2_L1I_RFO_hit 0 L1I_RFO_Hit Ratio: -nan
Core_2_L1I_RFO_miss 0
Core_2_L1I_prefetches 0
Core_2_L1I_prefetch_hit 0 L1I_prefetch_Hit Ratio: -nan
Core_2_L1I_prefetch_miss 0
Core_2_L1I_writebacks 0
Core_2_L1I_writeback_hit 0 L1I_writeback_Hit Ratio: -nan
Core_2_L1I_writeback_miss 0
Core_2_L1I_prefetch_requested 0
Core_2_L1I_prefetch_issued 0
Core_2_L1I_prefetch_useful 0 L1I_Useful Ratio: -nan
Core_2_L1I_prefetch_useless 0
Core_2_L1I_prefetch_late 0
Core_2_L1I_average_miss_latency 900.65519

Core_2_L2C_total_access 3767406
Core_2_L2C_total_hit 3040814 L2C_total_Hit Ratio: 0.80714
Core_2_L2C_total_miss 726592
Core_2_L2C_loads 1396554
Core_2_L2C_load_hit 1178166 L2C_load_Hit Ratio: 0.84362
Core_2_L2C_load_miss 218388
Core_2_L2C_RFOs 70587
Core_2_L2C_RFO_hit 190 L2C_RFO_Hit Ratio: 0.00269
Core_2_L2C_RFO_miss 70397
Core_2_L2C_prefetches 1808669
Core_2_L2C_prefetch_hit 1370886 L2C_prefetch_Hit Ratio: 0.75795
Core_2_L2C_prefetch_miss 437783
Core_2_L2C_writebacks 491596
Core_2_L2C_writeback_hit 491572 L2C_writeback_Hit Ratio: 0.99995
Core_2_L2C_writeback_miss 24
Core_2_L2C_prefetch_requested 574690
Core_2_L2C_prefetch_issued 574690
Core_2_L2C_prefetch_useful 119848 L2C_Useful Ratio: 0.20854
Core_2_L2C_prefetch_useless 321612
Core_2_L2C_prefetch_late 83253
Core_2_L2C_average_miss_latency 966.45848

Core_2_LLC_total_access 1150045
Core_2_LLC_total_hit 440840 LLC_total_Hit Ratio: 0.38332
Core_2_LLC_total_miss 709205
Core_2_LLC_loads 135313
Core_2_LLC_load_hit 8249 LLC_load_Hit Ratio: 0.06096
Core_2_LLC_load_miss 127064
Core_2_LLC_RFOs 70397
Core_2_LLC_RFO_hit 68 LLC_RFO_Hit Ratio: 0.00097
Core_2_LLC_RFO_miss 70329
Core_2_LLC_prefetches 520855
Core_2_LLC_prefetch_hit 17794 LLC_prefetch_Hit Ratio: 0.03416
Core_2_LLC_prefetch_miss 503061
Core_2_LLC_writebacks 423480
Core_2_LLC_writeback_hit 414729 LLC_writeback_Hit Ratio: 0.97934
Core_2_LLC_writeback_miss 8751
Core_2_LLC_prefetch_requested 0
Core_2_LLC_prefetch_issued 0
Core_2_LLC_prefetch_useful 21798 LLC_Useful Ratio: inf
Core_2_LLC_prefetch_useless 1879871
Core_2_LLC_prefetch_late 0
Core_2_LLC_average_miss_latency 3716.60034

Core_2_major_page_fault 0
Core_2_minor_page_fault 6086

Core_3_instructions 78000001
Core_3_cycles 133258488
Core_3_IPC 0.58533

Core_3_branch_prediction_accuracy 99.16013
Core_3_branch_MPKI 0.24690
Core_3_average_ROB_occupancy_at_mispredict 433.36137

Core_3_L1D_total_access 23401575
Core_3_L1D_total_hit 20469772 L1D_total_Hit Ratio: 0.87472
Core_3_L1D_total_miss 2931803
Core_3_L1D_loads 19604969
Core_3_L1D_load_hit 18001468 L1D_load_Hit Ratio: 0.91821
Core_3_L1D_load_miss 1603501
Core_3_L1D_RFOs 2190735
Core_3_L1D_RFO_hit 2120176 L1D_RFO_Hit Ratio: 0.96779
Core_3_L1D_RFO_miss 70559
Core_3_L1D_prefetches 1605871
Core_3_L1D_prefetch_hit 348128 L1D_prefetch_Hit Ratio: 0.21678
Core_3_L1D_prefetch_miss 1257743
Core_3_L1D_writebacks 0
Core_3_L1D_writeback_hit 0 L1D_writeback_Hit Ratio: -nan
Core_3_L1D_writeback_miss 0
Core_3_L1D_prefetch_requested 2712861
Core_3_L1D_prefetch_issued 2712861
Core_3_L1D_prefetch_useful 1356572 L1D_Useful Ratio: 0.50005
Core_3_L1D_prefetch_useless 22419
Core_3_L1D_prefetch_late 232336
Core_3_L1D_average_miss_latency 7674517.49163

Core_3_L1I_total_access 11173864
Core_3_L1I_total_hit 11168952 L1I_total_Hit Ratio: 0.99956
Core_3_L1I_total_miss 4912
Core_3_L1I_loads 11173864
Core_3_L1I_load_hit 11168952 L1I_load_Hit Ratio: 0.99956
Core_3_L1I_load_miss 4912
Core_3_L1I_RFOs 0
Core_3_L1I_RFO_hit 0 L1I_RFO_Hit Ratio: -nan
Core_3_L1I_RFO_miss 0
Core_3_L1I_prefetches 0
Core_3_L1I_prefetch_hit 0 L1I_prefetch_Hit Ratio: -nan
Core_3_L1I_prefetch_miss 0
Core_3_L1I_writebacks 0
Core_3_L1I_writeback_hit 0 L1I_writeback_Hit Ratio: -nan
Core_3_L1I_writeback_miss 0
Core_3_L1I_prefetch_requested 0
Core_3_L1I_prefetch_issued 0
Core_3_L1I_prefetch_useful 0 L1I_Useful Ratio: -nan
Core_3_L1I_prefetch_useless 0
Core_3_L1I_prefetch_late 0
Core_3_L1I_average_miss_latency 1067.21295

Core_3_L2C_total_access 3780964
Core_3_L2C_total_hit 3048110 L2C_total_Hit Ratio: 0.80617
Core_3_L2C_total_miss 732854
Core_3_L2C_loads 1396461
Core_3_L2C_load_hit 1179578 L2C_load_Hit Ratio: 0.84469
Core_3_L2C_load_miss 216883
Core_3_L2C_RFOs 70539
Core_3_L2C_RFO_hit 191 L2C_RFO_Hit Ratio: 0.00271
Core_3_L2C_RFO_miss 70348
Core_3_L2C_prefetches 1822368
Core_3_L2C_prefetch_hit 1376817 L2C_prefetch_Hit Ratio: 0.75551
Core_3_L2C_prefetch_miss 445551
Core_3_L2C_writebacks 491596
Core_3_L2C_writeback_hit 491524 L2C_writeback_Hit Ratio: 0.99985
Core_3_L2C_writeback_miss 72
Core_3_L2C_prefetch_requested 535016
Core_3_L2C_prefetch_issued 535016
Core_3_L2C_prefetch_useful 128427 L2C_Useful Ratio: 0.24004
Core_3_L2C_prefetch_useless 332360
Core_3_L2C_prefetch_late 83384
Core_3_L2C_average_miss_latency 937.20383

Core_3_LLC_total_access 1159162
Core_3_LLC_total_hit 448097 LLC_total_Hit Ratio: 0.38657
Core_3_LLC_total_miss 711065
Core_3_LLC_loads 134023
Core_3_LLC_load_hit 9300 LLC_load_Hit Ratio: 0.06939
Core_3_LLC_load_miss 124723
Core_3_LLC_RFOs 70348
Core_3_LLC_RFO_hit 69 LLC_RFO_Hit Ratio: 0.00098
Core_3_LLC_RFO_miss 70279
Core_3_LLC_prefetches 528384
Core_3_LLC_prefetch_hit 23024 LLC_prefetch_Hit Ratio: 0.04357
Core_3_LLC_prefetch_miss 505360
Core_3_LLC_writebacks 426407
Core_3_LLC_writeback_hit 415704 LLC_writeback_Hit Ratio: 0.97490
Core_3_LLC_writeback_miss 10703
Core_3_LLC_prefetch_requested 0
Core_3_LLC_prefetch_issued 0
Core_3_LLC_prefetch_useful 21798 LLC_Useful Ratio: inf
Core_3_LLC_prefetch_useless 1879871
Core_3_LLC_prefetch_late 0
Core_3_LLC_average_miss_latency 3706.87847

Core_3_major_page_fault 0
Core_3_minor_page_fault 6178

[Bingo] PHT Access: 396302
[Bingo] PHT Hit PC+Addr: 189737
[Bingo] PHT Hit PC+Offs: 192395
[Bingo] PHT Miss: 14170
[Bingo] Prefetch PC+Addr: 0
[Bingo] Prefetch PC+Offs: 0
[Bingo] Useful PC+Addr: 0
[Bingo] Useful PC+Offs: 0
[Bingo] Useless PC+Addr: 0
[Bingo] Useless PC+Offs: 0
[Bingo] L1 Prefetch per Region: 8.22920
[Bingo] L2 Prefetch per Region: 0.26537
[Bingo] L3 Prefetch per Region: 0.00000
[Bingo] No Prefetch per Region: 23.50543
[Bingo] Number of Voters Mean: 13.43407
[Bingo] Number of Voters SD: 4.59682
PHT read accesses: 4817528
PHT write accesses: 377634
AT read accesses: 19184190
AT write accesses: 19184213
FT read accesses: 4040931
FT write accesses: 396302
PS read accesses: 2020564
PS write accesses: 382132
PHT tag read accesses: 14028813
PHT tag write accesses: 567371
AT tag read accesses: 540707556
AT tag write accesses: 19561847
FT tag read accesses: 245621842
FT tag write accesses: 2614800
PS tag read accesses: 343223359
PS tag write accesses: 2394507
[Bingo2] PHT Access: 103438
[Bingo2] PHT Hit PC+Addr: 5191
[Bingo2] PHT Hit PC+Offs: 88729
[Bingo2] PHT Miss: 9518
[Bingo2] Prefetch PC+Addr: 0
[Bingo2] Prefetch PC+Offs: 0
[Bingo2] Useful PC+Addr: 0
[Bingo2] Useful PC+Offs: 0
[Bingo2] Useless PC+Addr: 0
[Bingo2] Useless PC+Offs: 0
[Bingo2] L1 Prefetch per Region: 0.00000
[Bingo2] L2 Prefetch per Region: 9.07484
[Bingo2] L3 Prefetch per Region: 0.00000
[Bingo2] No Prefetch per Region: 22.92516
[Bingo2] Number of Voters Mean: 15.16113
[Bingo2] Number of Voters SD: 2.86450
PHT read accesses: 1413058
PHT write accesses: 73278
AT read accesses: 1309841
AT write accesses: 1382343
FT read accesses: 222583
FT write accesses: 103438
PS read accesses: 230295
PS write accesses: 93920
PHT tag read accesses: 3888011
PHT tag write accesses: 78469
AT tag read accesses: 73235421
AT tag write accesses: 1383247
FT tag read accesses: 53803481
FT tag write accesses: 251587
PS tag read accesses: 25823670
PS tag write accesses: 316976
[Bingo] PHT Access: 403361
[Bingo] PHT Hit PC+Addr: 198274
[Bingo] PHT Hit PC+Offs: 191402
[Bingo] PHT Miss: 13685
[Bingo] Prefetch PC+Addr: 0
[Bingo] Prefetch PC+Offs: 0
[Bingo] Useful PC+Addr: 0
[Bingo] Useful PC+Offs: 0
[Bingo] Useless PC+Addr: 0
[Bingo] Useless PC+Offs: 0
[Bingo] L1 Prefetch per Region: 8.24616
[Bingo] L2 Prefetch per Region: 0.26962
[Bingo] L3 Prefetch per Region: 0.00000
[Bingo] No Prefetch per Region: 23.48422
[Bingo] Number of Voters Mean: 13.37079
[Bingo] Number of Voters SD: 5.28689
PHT read accesses: 4898899
PHT write accesses: 384384
AT read accesses: 18921993
AT write accesses: 18921992
FT read accesses: 4056711
FT write accesses: 403361
PS read accesses: 2075568
PS write accesses: 389676
PHT tag read accesses: 14184759
PHT tag write accesses: 582658
AT tag read accesses: 534154068
AT tag write accesses: 19306376
FT tag read accesses: 243464451
FT tag write accesses: 2633332
PS tag read accesses: 339304713
PS tag write accesses: 2456668
[Bingo2] PHT Access: 97037
[Bingo2] PHT Hit PC+Addr: 5300
[Bingo2] PHT Hit PC+Offs: 86560
[Bingo2] PHT Miss: 5177
[Bingo2] Prefetch PC+Addr: 0
[Bingo2] Prefetch PC+Offs: 0
[Bingo2] Useful PC+Addr: 0
[Bingo2] Useful PC+Offs: 0
[Bingo2] Useless PC+Addr: 0
[Bingo2] Useless PC+Offs: 0
[Bingo2] L1 Prefetch per Region: 0.00000
[Bingo2] L2 Prefetch per Region: 9.11342
[Bingo2] L3 Prefetch per Region: 0.00000
[Bingo2] No Prefetch per Region: 22.88658
[Bingo2] Number of Voters Mean: 15.55274
[Bingo2] Number of Voters SD: 2.22309
PHT read accesses: 1409168
PHT write accesses: 71554
AT read accesses: 1354357
AT write accesses: 1425453
FT read accesses: 217215
FT write accesses: 97037
PS read accesses: 226760
PS write accesses: 91860
PHT tag read accesses: 3745866
PHT tag write accesses: 76854
AT tag read accesses: 73528783
AT tag write accesses: 1425921
FT tag read accesses: 53198484
FT tag write accesses: 241660
PS tag read accesses: 26333150
PS tag write accesses: 311519
[Bingo] PHT Access: 408401
[Bingo] PHT Hit PC+Addr: 197815
[Bingo] PHT Hit PC+Offs: 196332
[Bingo] PHT Miss: 14254
[Bingo] Prefetch PC+Addr: 0
[Bingo] Prefetch PC+Offs: 0
[Bingo] Useful PC+Addr: 0
[Bingo] Useful PC+Offs: 0
[Bingo] Useless PC+Addr: 0
[Bingo] Useless PC+Offs: 0
[Bingo] L1 Prefetch per Region: 8.22180
[Bingo] L2 Prefetch per Region: 0.26129
[Bingo] L3 Prefetch per Region: 0.00000
[Bingo] No Prefetch per Region: 23.51692
[Bingo] Number of Voters Mean: 13.40124
[Bingo] Number of Voters SD: 4.61005
PHT read accesses: 4950796
PHT write accesses: 389169
AT read accesses: 19559225
AT write accesses: 19559254
FT read accesses: 4082571
FT write accesses: 408401
PS read accesses: 2089543
PS write accesses: 394147
PHT tag read accesses: 14406045
PHT tag write accesses: 586984
AT tag read accesses: 547178799
AT tag write accesses: 19948421
FT tag read accesses: 246445474
FT tag write accesses: 2653761
PS tag read accesses: 349698800
PS tag write accesses: 2475076
[Bingo2] PHT Access: 103998
[Bingo2] PHT Hit PC+Addr: 5497
[Bingo2] PHT Hit PC+Offs: 88719
[Bingo2] PHT Miss: 9782
[Bingo2] Prefetch PC+Addr: 0
[Bingo2] Prefetch PC+Offs: 0
[Bingo2] Useful PC+Addr: 0
[Bingo2] Useful PC+Offs: 0
[Bingo2] Useless PC+Addr: 0
[Bingo2] Useless PC+Offs: 0
[Bingo2] L1 Prefetch per Region: 0.00000
[Bingo2] L2 Prefetch per Region: 9.25174
[Bingo2] L3 Prefetch per Region: 0.00000
[Bingo2] No Prefetch per Region: 22.74826
[Bingo2] Number of Voters Mean: 15.29659
[Bingo2] Number of Voters SD: 2.68757
PHT read accesses: 1424518
PHT write accesses: 73713
AT read accesses: 1355783
AT write accesses: 1428705
FT read accesses: 223787
FT write accesses: 103998
PS read accesses: 231569
PS write accesses: 94216
PHT tag read accesses: 3907695
PHT tag write accesses: 79210
AT tag read accesses: 73998932
AT tag write accesses: 1429624
FT tag read accesses: 53828651
FT tag write accesses: 252987
PS tag read accesses: 26539826
PS tag write accesses: 317830
[Bingo] PHT Access: 430737
[Bingo] PHT Hit PC+Addr: 211739
[Bingo] PHT Hit PC+Offs: 204047
[Bingo] PHT Miss: 14951
[Bingo] Prefetch PC+Addr: 0
[Bingo] Prefetch PC+Offs: 0
[Bingo] Useful PC+Addr: 0
[Bingo] Useful PC+Offs: 0
[Bingo] Useless PC+Addr: 0
[Bingo] Useless PC+Offs: 0
[Bingo] L1 Prefetch per Region: 8.19927
[Bingo] L2 Prefetch per Region: 0.26749
[Bingo] L3 Prefetch per Region: 0.00000
[Bingo] No Prefetch per Region: 23.53325
[Bingo] Number of Voters Mean: 13.32146
[Bingo] Number of Voters SD: 4.64998
PHT read accesses: 5214565
PHT write accesses: 410319
AT read accesses: 20237756
AT write accesses: 20237806
FT read accesses: 4164725
FT write accesses: 430737
PS read accesses: 2203925
PS write accesses: 415786
PHT tag read accesses: 15127662
PHT tag write accesses: 622058
AT tag read accesses: 558917813
AT tag write accesses: 20648123
FT tag read accesses: 248015479
FT tag write accesses: 2728306
PS tag read accesses: 361473165
PS tag write accesses: 2610408
[Bingo2] PHT Access: 105385
[Bingo2] PHT Hit PC+Addr: 5915
[Bingo2] PHT Hit PC+Offs: 89006
[Bingo2] PHT Miss: 10464
[Bingo2] Prefetch PC+Addr: 0
[Bingo2] Prefetch PC+Offs: 0
[Bingo2] Useful PC+Addr: 0
[Bingo2] Useful PC+Offs: 0
[Bingo2] Useless PC+Addr: 0
[Bingo2] Useless PC+Offs: 0
[Bingo2] L1 Prefetch per Region: 0.00000
[Bingo2] L2 Prefetch per Region: 8.17758
[Bingo2] L3 Prefetch per Region: 0.00000
[Bingo2] No Prefetch per Region: 23.82242
[Bingo2] Number of Voters Mean: 15.40022
[Bingo2] Number of Voters SD: 2.54750
PHT read accesses: 1437009
PHT write accesses: 74878
AT read accesses: 1445019
AT write accesses: 1518943
FT read accesses: 227922
FT write accesses: 105385
PS read accesses: 238158
PS write accesses: 94921
PHT tag read accesses: 3960104
PHT tag write accesses: 80793
AT tag read accesses: 75502971
AT tag write accesses: 1520025
FT tag read accesses: 53917929
FT tag write accesses: 257227
PS tag read accesses: 28053374
PS tag write accesses: 325391
Channel_0_RQ_row_buffer_hit 1297468
Channel_0_RQ_row_buffer_miss 1537744
Channel_0_WQ_row_buffer_hit 610954
Channel_0_WQ_row_buffer_miss 1026315
Channel_0_WQ_full 10027
Channel_0_dbus_congested 3412167

avg_congested_cycle 11

EzSearch AVG IPC :0.57437: L2-Pf-HR :0.75579 : L2-HR :0.80551 Uful:0.20828
EzSearch AVG IPC :0.57857: L2-Pf-HR :0.75662 : L2-HR :0.80989 Uful:0.21512
EzSearch AVG IPC :0.57786: L2-Pf-HR :0.75795 : L2-HR :0.81019 Uful:0.20854
EzSearch AVG IPC :0.58533: L2-Pf-HR :0.75551 : L2-HR :0.81411 Uful:0.24004
     > Finished combination: TraceType=770-tot Sim:78000000 Prefetcher=L2bingo_dpc3 L1=bingo_dpc3
