TRACE: [103000000]_FE_[GPT-Neo_2_7B]_[h32]_[s256]_[d80] Warmup: 2000000 NumTraces: 103000000
L1:no:L2:spp_berti_src
Initialize SIGNATURE TABLE
ST_SET: 1
ST_WAY: 256
ST_TAG_BIT: 16
ST_TAG_MASK: ffff

Initialize PATTERN TABLE
PT_SET: 512
PT_WAY: 4
SIG_DELTA_BIT: 7
C_SIG_BIT: 4
C_DELTA_BIT: 4

Initialize PREFETCH FILTER
FILTER_SET: 1024
*************************************************
   ChampSim Multicore Out-of-Order Simulator
   Last compiled: Oct 28 2024 07:04:56
*************************************************

trace_0 770-tot_memTraces_v3/memTraces[103000000]_FE_[GPT-Neo_2_7B]_[h32]_[s256]_[d80].champsim.xz
trace_1 770-tot_memTraces_v3/memTraces[103000000]_FE_[GPT-Neo_2_7B]_[h32]_[s256]_[d80].champsim.xz
trace_2 770-tot_memTraces_v3/memTraces[103000000]_FE_[GPT-Neo_2_7B]_[h32]_[s256]_[d80].champsim.xz
trace_3 770-tot_memTraces_v3/memTraces[103000000]_FE_[GPT-Neo_2_7B]_[h32]_[s256]_[d80].champsim.xz
ST_WAYS: 256
PT_SETS: 512
ST_WAYS: 256
PT_SETS: 512
ST_WAYS: 256
PT_SETS: 512
ST_WAYS: 256
PT_SETS: 512
MAIN.cc ln 751 stats print skipped
CPU  3 inst:    1000001 cyc:     500042 now IPC :1.99983: AVG IPC :1.99983: L2-Pf-HR :0.98947: L2-HR :0.91070: (Sim:0h1m45s) 
CPU  1 inst:    1000001 cyc:     500738 now IPC :1.99705: AVG IPC :1.99705: L2-Pf-HR :0.98822: L2-HR :0.91087: (Sim:0h1m45s) 
CPU  2 inst:    1000001 cyc:     500790 now IPC :1.99685: AVG IPC :1.99685: L2-Pf-HR :0.98885: L2-HR :0.91094: (Sim:0h1m45s) 
CPU  0 inst:    1000001 cyc:     500844 now IPC :1.99663: AVG IPC :1.99663: L2-Pf-HR :0.98969: L2-HR :0.91089: (Sim:0h1m45s) 
CPU  3 inst:    2000002 cyc:     988752 now IPC :2.04621: AVG IPC :2.02275: L2-Pf-HR :0.99254: L2-HR :0.93555: (Sim:0h3m39s) 
CPU  1 inst:    2000002 cyc:     989393 now IPC :2.04644: AVG IPC :2.02144: L2-Pf-HR :0.99153: L2-HR :0.93565: (Sim:0h3m39s) 
CPU  2 inst:    2000002 cyc:     989458 now IPC :2.04638: AVG IPC :2.02131: L2-Pf-HR :0.99180: L2-HR :0.93572: (Sim:0h3m39s) 
CPU  0 inst:    2000002 cyc:     989529 now IPC :2.04631: AVG IPC :2.02117: L2-Pf-HR :0.99251: L2-HR :0.93583: (Sim:0h3m39s) 

Warmup complete CPU  0 instructions:    2000002 cycles:     989529 (Simulation time: 0 hr 3 min 39 sec) 
Warmup complete CPU  1 instructions:    2000280 cycles:     989528 (Simulation time: 0 hr 3 min 39 sec) 
Warmup complete CPU  2 instructions:    2000257 cycles:     989528 (Simulation time: 0 hr 3 min 39 sec) 
Warmup complete CPU  3 instructions:    2001581 cycles:     989528 (Simulation time: 0 hr 3 min 39 sec) 

CPU  0 inst:    3000001 cyc:    1678137 now IPC :1.45220: AVG IPC :1.45220: L2-Pf-HR :0.99767: L2-HR :0.95427: (Sim:0h5m20s) 
CPU  1 inst:    3000001 cyc:    1680335 now IPC :1.44730: AVG IPC :1.44718: L2-Pf-HR :0.99743: L2-HR :0.95430: (Sim:0h5m21s) 
CPU  3 inst:    3000001 cyc:    1681284 now IPC :1.44398: AVG IPC :1.44331: L2-Pf-HR :0.99750: L2-HR :0.95438: (Sim:0h5m21s) 
CPU  2 inst:    3000001 cyc:    1682592 now IPC :1.44272: AVG IPC :1.44250: L2-Pf-HR :0.99768: L2-HR :0.95429: (Sim:0h5m21s) 
CPU  0 inst:    4000004 cyc:    2276372 now IPC :1.67159: AVG IPC :1.55419: L2-Pf-HR :0.99758: L2-HR :0.95936: (Sim:0h6m56s) 
CPU  1 inst:    4000004 cyc:    2278155 now IPC :1.67275: AVG IPC :1.55183: L2-Pf-HR :0.99754: L2-HR :0.95935: (Sim:0h6m57s) 
CPU  3 inst:    4000004 cyc:    2278814 now IPC :1.67356: AVG IPC :1.55002: L2-Pf-HR :0.99754: L2-HR :0.95938: (Sim:0h6m57s) 
CPU  2 inst:    4000004 cyc:    2283432 now IPC :1.66434: AVG IPC :1.54551: L2-Pf-HR :0.99766: L2-HR :0.95936: (Sim:0h6m57s) 
CPU  3 inst:    5000003 cyc:    2959657 now IPC :1.46877: AVG IPC :1.52194: L2-Pf-HR :0.99716: L2-HR :0.95616: (Sim:0h8m38s) 
CPU  0 inst:    5000003 cyc:    2960984 now IPC :1.46068: AVG IPC :1.52172: L2-Pf-HR :0.99718: L2-HR :0.95619: (Sim:0h8m38s) 
CPU  1 inst:    5000003 cyc:    2961137 now IPC :1.46417: AVG IPC :1.52146: L2-Pf-HR :0.99717: L2-HR :0.95620: (Sim:0h8m38s) 
CPU  2 inst:    5000003 cyc:    2964579 now IPC :1.46811: AVG IPC :1.51882: L2-Pf-HR :0.99725: L2-HR :0.95621: (Sim:0h8m39s) 
CPU  1 inst:    6000002 cyc:    3642392 now IPC :1.46788: AVG IPC :1.50770: L2-Pf-HR :0.99699: L2-HR :0.95518: (Sim:0h10m19s) 
CPU  0 inst:    6000002 cyc:    3643083 now IPC :1.46606: AVG IPC :1.50741: L2-Pf-HR :0.99703: L2-HR :0.95520: (Sim:0h10m19s) 
CPU  3 inst:    6000002 cyc:    3645455 now IPC :1.45815: AVG IPC :1.50547: L2-Pf-HR :0.99697: L2-HR :0.95467: (Sim:0h10m20s) 
CPU  2 inst:    6000002 cyc:    3647721 now IPC :1.46382: AVG IPC :1.50469: L2-Pf-HR :0.99708: L2-HR :0.95522: (Sim:0h10m20s) 
CPU  1 inst:    7000001 cyc:    4311174 now IPC :1.49525: AVG IPC :1.50519: L2-Pf-HR :0.99729: L2-HR :0.95544: (Sim:0h11m55s) 
CPU  0 inst:    7000001 cyc:    4312594 now IPC :1.49363: AVG IPC :1.50463: L2-Pf-HR :0.99736: L2-HR :0.95533: (Sim:0h11m55s) 
CPU  3 inst:    7000001 cyc:    4314872 now IPC :1.49384: AVG IPC :1.50313: L2-Pf-HR :0.99729: L2-HR :0.95451: (Sim:0h11m55s) 
CPU  2 inst:    7000001 cyc:    4318447 now IPC :1.49092: AVG IPC :1.50191: L2-Pf-HR :0.99736: L2-HR :0.95550: (Sim:0h11m55s) 
CPU  1 inst:    8000003 cyc:    4995388 now IPC :1.46153: AVG IPC :1.49774: L2-Pf-HR :0.99765: L2-HR :0.95570: (Sim:0h12m53s) 
CPU  0 inst:    8000003 cyc:    4996980 now IPC :1.46117: AVG IPC :1.49721: L2-Pf-HR :0.99770: L2-HR :0.95565: (Sim:0h12m53s) 
CPU  3 inst:    8000003 cyc:    5001388 now IPC :1.45663: AVG IPC :1.49517: L2-Pf-HR :0.99767: L2-HR :0.95497: (Sim:0h12m54s) 
CPU  2 inst:    8000003 cyc:    5011644 now IPC :1.44259: AVG IPC :1.49169: L2-Pf-HR :0.99769: L2-HR :0.95577: (Sim:0h12m55s) 
CPU  1 inst:    9000005 cyc:    5641801 now IPC :1.54700: AVG IPC :1.50458: L2-Pf-HR :0.99770: L2-HR :0.95629: (Sim:0h14m19s) 
CPU  0 inst:    9000005 cyc:    5642056 now IPC :1.55021: AVG IPC :1.50456: L2-Pf-HR :0.99775: L2-HR :0.95624: (Sim:0h14m19s) 
CPU  3 inst:    9000005 cyc:    5646053 now IPC :1.55120: AVG IPC :1.50293: L2-Pf-HR :0.99772: L2-HR :0.95567: (Sim:0h14m20s) 
CPU  2 inst:    9000005 cyc:    5654938 now IPC :1.55450: AVG IPC :1.50035: L2-Pf-HR :0.99774: L2-HR :0.95637: (Sim:0h14m21s) 
CPU  1 inst:   10000005 cyc:    6507134 now IPC :1.15562: AVG IPC :1.44985: L2-Pf-HR :0.99756: L2-HR :0.95575: (Sim:0h16m2s) 
CPU  0 inst:   10000005 cyc:    6526739 now IPC :1.13035: AVG IPC :1.44477: L2-Pf-HR :0.99758: L2-HR :0.95568: (Sim:0h16m4s) 
CPU  2 inst:   10000005 cyc:    6536628 now IPC :1.13419: AVG IPC :1.44215: L2-Pf-HR :0.99759: L2-HR :0.95582: (Sim:0h16m5s) 
CPU  3 inst:   10000005 cyc:    6541354 now IPC :1.11694: AVG IPC :1.44068: L2-Pf-HR :0.99759: L2-HR :0.95522: (Sim:0h16m6s) 
CPU  1 inst:   11000003 cyc:    7612169 now IPC :0.90495: AVG IPC :1.35893: L2-Pf-HR :0.99765: L2-HR :0.95570: (Sim:0h17m54s) 
CPU  2 inst:   11000003 cyc:    7670852 now IPC :0.88166: AVG IPC :1.34700: L2-Pf-HR :0.99766: L2-HR :0.95578: (Sim:0h18m1s) 
CPU  0 inst:   11000003 cyc:    7671461 now IPC :0.87357: AVG IPC :1.34692: L2-Pf-HR :0.99766: L2-HR :0.95567: (Sim:0h18m1s) 
CPU  3 inst:   11000003 cyc:    7674224 now IPC :0.88271: AVG IPC :1.34612: L2-Pf-HR :0.99767: L2-HR :0.95521: (Sim:0h18m1s) 
CPU  1 inst:   12000005 cyc:    8610385 now IPC :1.00179: AVG IPC :1.31215: L2-Pf-HR :0.99775: L2-HR :0.95569: (Sim:0h19m44s) 
CPU  3 inst:   12000005 cyc:    8772666 now IPC :0.91038: AVG IPC :1.28463: L2-Pf-HR :0.99771: L2-HR :0.95524: (Sim:0h19m57s) 
CPU  0 inst:   12000005 cyc:    8777840 now IPC :0.90385: AVG IPC :1.28398: L2-Pf-HR :0.99771: L2-HR :0.95565: (Sim:0h19m58s) 
CPU  2 inst:   12000005 cyc:    8779786 now IPC :0.90177: AVG IPC :1.28362: L2-Pf-HR :0.99769: L2-HR :0.95575: (Sim:0h19m58s) 
CPU  1 inst:   13000001 cyc:    9469792 now IPC :1.16359: AVG IPC :1.29710: L2-Pf-HR :0.99792: L2-HR :0.95622: (Sim:0h21m15s) 
CPU  2 inst:   13000001 cyc:    9744988 now IPC :1.03605: AVG IPC :1.25633: L2-Pf-HR :0.99784: L2-HR :0.95631: (Sim:0h21m45s) 
CPU  0 inst:   13000001 cyc:    9748633 now IPC :1.03008: AVG IPC :1.25584: L2-Pf-HR :0.99786: L2-HR :0.95622: (Sim:0h21m45s) 
CPU  3 inst:   13000001 cyc:    9751365 now IPC :1.02176: AVG IPC :1.25526: L2-Pf-HR :0.99786: L2-HR :0.95584: (Sim:0h21m45s) 
CPU  1 inst:   14000003 cyc:   10421567 now IPC :1.05067: AVG IPC :1.27223: L2-Pf-HR :0.99803: L2-HR :0.95603: (Sim:0h22m56s) 
CPU  2 inst:   14000003 cyc:   10767250 now IPC :0.97822: AVG IPC :1.22725: L2-Pf-HR :0.99792: L2-HR :0.95612: (Sim:0h23m39s) 
CPU  0 inst:   14000003 cyc:   10767665 now IPC :0.98133: AVG IPC :1.22723: L2-Pf-HR :0.99793: L2-HR :0.95603: (Sim:0h23m39s) 
CPU  3 inst:   14000003 cyc:   10769606 now IPC :0.98209: AVG IPC :1.22682: L2-Pf-HR :0.99793: L2-HR :0.95570: (Sim:0h23m39s) 
CPU  1 inst:   15000002 cyc:   11400512 now IPC :1.02151: AVG IPC :1.24865: L2-Pf-HR :0.99811: L2-HR :0.95594: (Sim:0h24m46s) 
CPU  2 inst:   15000002 cyc:   11792230 now IPC :0.97563: AVG IPC :1.20338: L2-Pf-HR :0.99805: L2-HR :0.95612: (Sim:0h25m31s) 
CPU  0 inst:   15000002 cyc:   11813338 now IPC :0.95632: AVG IPC :1.20106: L2-Pf-HR :0.99806: L2-HR :0.95604: (Sim:0h25m34s) 
CPU  3 inst:   15000002 cyc:   11818336 now IPC :0.95353: AVG IPC :1.20036: L2-Pf-HR :0.99806: L2-HR :0.95573: (Sim:0h25m35s) 
CPU  1 inst:   16000001 cyc:   12349074 now IPC :1.05423: AVG IPC :1.23242: L2-Pf-HR :0.99823: L2-HR :0.95602: (Sim:0h26m33s) 
CPU  2 inst:   16000001 cyc:   12852208 now IPC :0.94341: AVG IPC :1.18015: L2-Pf-HR :0.99813: L2-HR :0.95605: (Sim:0h27m24s) 
CPU  0 inst:   16000001 cyc:   12905007 now IPC :0.91603: AVG IPC :1.17494: L2-Pf-HR :0.99814: L2-HR :0.95596: (Sim:0h27m29s) 
CPU  3 inst:   16000001 cyc:   12911898 now IPC :0.91444: AVG IPC :1.17413: L2-Pf-HR :0.99814: L2-HR :0.95566: (Sim:0h27m30s) 
CPU  1 inst:   17000004 cyc:   13330423 now IPC :1.01901: AVG IPC :1.21545: L2-Pf-HR :0.99829: L2-HR :0.95627: (Sim:0h28m19s) 
CPU  2 inst:   17000004 cyc:   13660810 now IPC :1.23671: AVG IPC :1.18376: L2-Pf-HR :0.99810: L2-HR :0.95637: (Sim:0h28m59s) 
CPU  3 inst:   17000004 cyc:   13760398 now IPC :1.17855: AVG IPC :1.17442: L2-Pf-HR :0.99809: L2-HR :0.95602: (Sim:0h29m11s) 
CPU  0 inst:   17000003 cyc:   13777825 now IPC :1.14572: AVG IPC :1.17295: L2-Pf-HR :0.99810: L2-HR :0.95630: (Sim:0h29m13s) 
CPU  1 inst:   18000000 cyc:   14316341 now IPC :1.01428: AVG IPC :1.20057: L2-Pf-HR :0.99834: L2-HR :0.95611: (Sim:0h30m7s) 
CPU  2 inst:   18000000 cyc:   14617115 now IPC :1.04569: AVG IPC :1.17407: L2-Pf-HR :0.99815: L2-HR :0.95617: (Sim:0h30m44s) 
CPU  3 inst:   18000000 cyc:   14813401 now IPC :0.94966: AVG IPC :1.15730: L2-Pf-HR :0.99810: L2-HR :0.95584: (Sim:0h31m7s) 
CPU  0 inst:   18000000 cyc:   14830289 now IPC :0.95015: AVG IPC :1.15601: L2-Pf-HR :0.99809: L2-HR :0.95609: (Sim:0h31m9s) 
CPU  1 inst:   19000001 cyc:   15257467 now IPC :1.06256: AVG IPC :1.19146: L2-Pf-HR :0.99841: L2-HR :0.95602: (Sim:0h31m57s) 
CPU  2 inst:   19000001 cyc:   15550053 now IPC :1.07188: AVG IPC :1.16752: L2-Pf-HR :0.99821: L2-HR :0.95605: (Sim:0h32m29s) 
CPU  3 inst:   19000001 cyc:   15820312 now IPC :0.99314: AVG IPC :1.14616: L2-Pf-HR :0.99810: L2-HR :0.95573: (Sim:0h33m1s) 
CPU  0 inst:   19000001 cyc:   15832872 now IPC :0.99742: AVG IPC :1.14529: L2-Pf-HR :0.99809: L2-HR :0.95596: (Sim:0h33m2s) 
CPU  1 inst:   20000003 cyc:   16288209 now IPC :0.97018: AVG IPC :1.17655: L2-Pf-HR :0.99841: L2-HR :0.95587: (Sim:0h33m50s) 
CPU  2 inst:   20000003 cyc:   16511405 now IPC :1.04020: AVG IPC :1.15964: L2-Pf-HR :0.99823: L2-HR :0.95595: (Sim:0h34m13s) 
CPU  0 inst:   20000003 cyc:   16922131 now IPC :0.91806: AVG IPC :1.12976: L2-Pf-HR :0.99812: L2-HR :0.95586: (Sim:0h34m57s) 
CPU  3 inst:   20000003 cyc:   16923004 now IPC :0.90687: AVG IPC :1.12960: L2-Pf-HR :0.99813: L2-HR :0.95563: (Sim:0h34m57s) 
CPU  1 inst:   21000000 cyc:   17238664 now IPC :1.05212: AVG IPC :1.16928: L2-Pf-HR :0.99842: L2-HR :0.95613: (Sim:0h35m35s) 
CPU  2 inst:   21000001 cyc:   17427396 now IPC :1.09171: AVG IPC :1.15585: L2-Pf-HR :0.99823: L2-HR :0.95619: (Sim:0h35m54s) 
CPU  0 inst:   21000001 cyc:   17838633 now IPC :1.09110: AVG IPC :1.12766: L2-Pf-HR :0.99811: L2-HR :0.95617: (Sim:0h36m40s) 
CPU  3 inst:   21000004 cyc:   17838696 now IPC :1.09207: AVG IPC :1.12756: L2-Pf-HR :0.99811: L2-HR :0.95596: (Sim:0h36m40s) 
CPU  1 inst:   22000001 cyc:   18268971 now IPC :0.97059: AVG IPC :1.15743: L2-Pf-HR :0.99846: L2-HR :0.95605: (Sim:0h37m24s) 
CPU  2 inst:   22000001 cyc:   18382797 now IPC :1.04668: AVG IPC :1.14986: L2-Pf-HR :0.99829: L2-HR :0.95612: (Sim:0h37m38s) 
CPU  3 inst:   22000001 cyc:   18865895 now IPC :0.97352: AVG IPC :1.11871: L2-Pf-HR :0.99816: L2-HR :0.95589: (Sim:0h38m30s) 
CPU  0 inst:   22000001 cyc:   18867337 now IPC :0.97210: AVG IPC :1.11871: L2-Pf-HR :0.99815: L2-HR :0.95609: (Sim:0h38m30s) 
CPU  1 inst:   23000005 cyc:   19278499 now IPC :0.99057: AVG IPC :1.14822: L2-Pf-HR :0.99845: L2-HR :0.95597: (Sim:0h39m14s) 
CPU  2 inst:   23000005 cyc:   19390500 now IPC :0.99236: AVG IPC :1.14123: L2-Pf-HR :0.99829: L2-HR :0.95598: (Sim:0h39m23s) 
CPU  0 inst:   23000005 cyc:   19954074 now IPC :0.92019: AVG IPC :1.10733: L2-Pf-HR :0.99811: L2-HR :0.95597: (Sim:0h40m22s) 
CPU  3 inst:   23000005 cyc:   19971859 now IPC :0.90419: AVG IPC :1.10621: L2-Pf-HR :0.99812: L2-HR :0.95577: (Sim:0h40m24s) 
CPU  1 inst:   24000002 cyc:   20345852 now IPC :0.93689: AVG IPC :1.13657: L2-Pf-HR :0.99846: L2-HR :0.95583: (Sim:0h41m3s) 
CPU  2 inst:   24000002 cyc:   20424962 now IPC :0.96668: AVG IPC :1.13194: L2-Pf-HR :0.99831: L2-HR :0.95587: (Sim:0h41m13s) 
CPU  0 inst:   24000002 cyc:   20980626 now IPC :0.97413: AVG IPC :1.10049: L2-Pf-HR :0.99814: L2-HR :0.95586: (Sim:0h42m13s) 
CPU  3 inst:   24000002 cyc:   21006664 now IPC :0.96636: AVG IPC :1.09898: L2-Pf-HR :0.99815: L2-HR :0.95567: (Sim:0h42m16s) 
CPU  1 inst:   25000001 cyc:   21320317 now IPC :1.02620: AVG IPC :1.13128: L2-Pf-HR :0.99848: L2-HR :0.95583: (Sim:0h42m49s) 
CPU  2 inst:   25000001 cyc:   21463453 now IPC :0.96293: AVG IPC :1.12337: L2-Pf-HR :0.99834: L2-HR :0.95587: (Sim:0h43m2s) 
CPU  0 inst:   25000001 cyc:   22033139 now IPC :0.95011: AVG IPC :1.09297: L2-Pf-HR :0.99816: L2-HR :0.95586: (Sim:0h44m3s) 
CPU  3 inst:   25000001 cyc:   22101267 now IPC :0.91357: AVG IPC :1.08937: L2-Pf-HR :0.99818: L2-HR :0.95566: (Sim:0h44m10s) 
CPU  1 inst:   26000005 cyc:   22269461 now IPC :1.05359: AVG IPC :1.12781: L2-Pf-HR :0.99848: L2-HR :0.95601: (Sim:0h44m29s) 
CPU  2 inst:   26000005 cyc:   22420511 now IPC :1.04487: AVG IPC :1.11986: L2-Pf-HR :0.99835: L2-HR :0.95608: (Sim:0h44m47s) 
CPU  0 inst:   26000005 cyc:   23065171 now IPC :0.96897: AVG IPC :1.08717: L2-Pf-HR :0.99819: L2-HR :0.95606: (Sim:0h45m52s) 
CPU  3 inst:   26000005 cyc:   23104124 now IPC :0.99716: AVG IPC :1.08518: L2-Pf-HR :0.99821: L2-HR :0.95588: (Sim:0h45m57s) 
CPU  1 inst:   27000005 cyc:   23274581 now IPC :0.99491: AVG IPC :1.12182: L2-Pf-HR :0.99847: L2-HR :0.95594: (Sim:0h46m16s) 
CPU  2 inst:   27000005 cyc:   23534775 now IPC :0.89745: AVG IPC :1.10887: L2-Pf-HR :0.99833: L2-HR :0.95599: (Sim:0h46m41s) 
CPU  0 inst:   27000005 cyc:   24097150 now IPC :0.96901: AVG IPC :1.08189: L2-Pf-HR :0.99820: L2-HR :0.95597: (Sim:0h47m45s) 
CPU  3 inst:   27000005 cyc:   24137879 now IPC :0.96735: AVG IPC :1.07992: L2-Pf-HR :0.99822: L2-HR :0.95579: (Sim:0h47m49s) 
CPU  1 inst:   28000001 cyc:   24218706 now IPC :1.05918: AVG IPC :1.11927: L2-Pf-HR :0.99852: L2-HR :0.95593: (Sim:0h47m58s) 
CPU  2 inst:   28000001 cyc:   24481416 now IPC :1.05636: AVG IPC :1.10675: L2-Pf-HR :0.99834: L2-HR :0.95595: (Sim:0h48m31s) 
CPU  0 inst:   28000001 cyc:   25090193 now IPC :1.00700: AVG IPC :1.07881: L2-Pf-HR :0.99823: L2-HR :0.95594: (Sim:0h49m36s) 
CPU  1 inst:   29000003 cyc:   25119044 now IPC :1.11070: AVG IPC :1.11895: L2-Pf-HR :0.99851: L2-HR :0.95580: (Sim:0h49m39s) 
CPU  3 inst:   28000001 cyc:   25132967 now IPC :1.00493: AVG IPC :1.07683: L2-Pf-HR :0.99825: L2-HR :0.95576: (Sim:0h49m41s) 
CPU  2 inst:   29000003 cyc:   25507838 now IPC :0.97426: AVG IPC :1.10121: L2-Pf-HR :0.99837: L2-HR :0.95584: (Sim:0h50m24s) 
CPU  1 inst:   30000001 cyc:   25990447 now IPC :1.14757: AVG IPC :1.11995: L2-Pf-HR :0.99851: L2-HR :0.95602: (Sim:0h51m17s) 
CPU  0 inst:   29000003 cyc:   26070360 now IPC :1.02024: AVG IPC :1.07652: L2-Pf-HR :0.99824: L2-HR :0.95585: (Sim:0h51m25s) 
CPU  3 inst:   29000003 cyc:   26130553 now IPC :1.00242: AVG IPC :1.07388: L2-Pf-HR :0.99826: L2-HR :0.95567: (Sim:0h51m32s) 
CPU  2 inst:   30000001 cyc:   26421290 now IPC :1.09475: AVG IPC :1.10098: L2-Pf-HR :0.99837: L2-HR :0.95605: (Sim:0h52m5s) 
CPU  1 inst:   31000001 cyc:   26892343 now IPC :1.10878: AVG IPC :1.11956: L2-Pf-HR :0.99849: L2-HR :0.95589: (Sim:0h53m0s) 
CPU  0 inst:   30000001 cyc:   26932851 now IPC :1.15943: AVG IPC :1.07928: L2-Pf-HR :0.99824: L2-HR :0.95605: (Sim:0h53m5s) 
CPU  3 inst:   30000001 cyc:   26979998 now IPC :1.17724: AVG IPC :1.07726: L2-Pf-HR :0.99825: L2-HR :0.95589: (Sim:0h53m11s) 
CPU  2 inst:   31000001 cyc:   27470518 now IPC :0.95308: AVG IPC :1.09512: L2-Pf-HR :0.99840: L2-HR :0.95595: (Sim:0h53m59s) 
CPU  1 inst:   32000003 cyc:   27890264 now IPC :1.00209: AVG IPC :1.11520: L2-Pf-HR :0.99853: L2-HR :0.95592: (Sim:0h54m49s) 
CPU  0 inst:   31000001 cyc:   27929323 now IPC :1.00354: AVG IPC :1.07647: L2-Pf-HR :0.99829: L2-HR :0.95598: (Sim:0h54m54s) 
CPU  3 inst:   31000001 cyc:   28019713 now IPC :0.96180: AVG IPC :1.07282: L2-Pf-HR :0.99830: L2-HR :0.95582: (Sim:0h55m5s) 
CPU  2 inst:   32000003 cyc:   28377004 now IPC :1.10316: AVG IPC :1.09538: L2-Pf-HR :0.99842: L2-HR :0.95596: (Sim:0h55m47s) 
CPU  1 inst:   33000002 cyc:   28873773 now IPC :1.01677: AVG IPC :1.11173: L2-Pf-HR :0.99856: L2-HR :0.95590: (Sim:0h56m39s) 
CPU  0 inst:   32000003 cyc:   28881794 now IPC :1.04990: AVG IPC :1.07557: L2-Pf-HR :0.99832: L2-HR :0.95597: (Sim:0h56m40s) 
CPU  3 inst:   32000003 cyc:   28997625 now IPC :1.02259: AVG IPC :1.07106: L2-Pf-HR :0.99832: L2-HR :0.95580: (Sim:0h56m55s) 
CPU  2 inst:   33000002 cyc:   29347705 now IPC :1.03018: AVG IPC :1.09315: L2-Pf-HR :0.99845: L2-HR :0.95594: (Sim:0h57m38s) 
CPU  1 inst:   34000002 cyc:   29774380 now IPC :1.11036: AVG IPC :1.11169: L2-Pf-HR :0.99856: L2-HR :0.95608: (Sim:0h58m22s) 
CPU  0 inst:   33000002 cyc:   29785317 now IPC :1.10678: AVG IPC :1.07655: L2-Pf-HR :0.99835: L2-HR :0.95597: (Sim:0h58m23s) 
CPU  3 inst:   33000002 cyc:   29982517 now IPC :1.01534: AVG IPC :1.06917: L2-Pf-HR :0.99834: L2-HR :0.95580: (Sim:0h58m44s) 
CPU  2 inst:   34000002 cyc:   30275718 now IPC :1.07757: AVG IPC :1.09266: L2-Pf-HR :0.99848: L2-HR :0.95614: (Sim:0h59m21s) 
CPU  0 inst:   34000002 cyc:   30595912 now IPC :1.23366: AVG IPC :1.08085: L2-Pf-HR :0.99840: L2-HR :0.95616: (Sim:0h59m58s) 
CPU  1 inst:   35000005 cyc:   30669586 now IPC :1.11706: AVG IPC :1.11185: L2-Pf-HR :0.99860: L2-HR :0.95604: (Sim:1h0m7s) 
CPU  3 inst:   34000002 cyc:   30825471 now IPC :1.18630: AVG IPC :1.07248: L2-Pf-HR :0.99838: L2-HR :0.95601: (Sim:1h0m24s) 
CPU  2 inst:   35000005 cyc:   31272422 now IPC :1.00331: AVG IPC :1.08972: L2-Pf-HR :0.99852: L2-HR :0.95609: (Sim:1h1m13s) 
CPU  0 inst:   35000005 cyc:   31461095 now IPC :1.15583: AVG IPC :1.08298: L2-Pf-HR :0.99843: L2-HR :0.95610: (Sim:1h1m37s) 
CPU  1 inst:   36000000 cyc:   31612499 now IPC :1.06054: AVG IPC :1.11027: L2-Pf-HR :0.99861: L2-HR :0.95597: (Sim:1h1m56s) 
CPU  3 inst:   35000005 cyc:   31726076 now IPC :1.11037: AVG IPC :1.07359: L2-Pf-HR :0.99841: L2-HR :0.95596: (Sim:1h2m10s) 
CPU  2 inst:   36000000 cyc:   32191688 now IPC :1.08782: AVG IPC :1.08966: L2-Pf-HR :0.99855: L2-HR :0.95602: (Sim:1h3m2s) 
CPU  0 inst:   36000000 cyc:   32408625 now IPC :1.05537: AVG IPC :1.08214: L2-Pf-HR :0.99846: L2-HR :0.95600: (Sim:1h3m25s) 
CPU  1 inst:   37000004 cyc:   32564592 now IPC :1.05032: AVG IPC :1.10846: L2-Pf-HR :0.99863: L2-HR :0.95594: (Sim:1h3m44s) 
CPU  3 inst:   36000000 cyc:   32670871 now IPC :1.05843: AVG IPC :1.07314: L2-Pf-HR :0.99841: L2-HR :0.95586: (Sim:1h3m57s) 
CPU  2 inst:   37000004 cyc:   33174959 now IPC :1.01702: AVG IPC :1.08744: L2-Pf-HR :0.99857: L2-HR :0.95600: (Sim:1h4m52s) 
CPU  0 inst:   37000004 cyc:   33367057 now IPC :1.04338: AVG IPC :1.08100: L2-Pf-HR :0.99849: L2-HR :0.95600: (Sim:1h5m13s) 
CPU  1 inst:   38000000 cyc:   33565145 now IPC :0.99944: AVG IPC :1.10511: L2-Pf-HR :0.99862: L2-HR :0.95594: (Sim:1h5m33s) 
CPU  3 inst:   37000004 cyc:   33667913 now IPC :1.00297: AVG IPC :1.07100: L2-Pf-HR :0.99840: L2-HR :0.95583: (Sim:1h5m44s) 
CPU  2 inst:   38000000 cyc:   34161350 now IPC :1.01379: AVG IPC :1.08525: L2-Pf-HR :0.99858: L2-HR :0.95598: (Sim:1h6m43s) 
CPU  0 inst:   38000002 cyc:   34345532 now IPC :1.02200: AVG IPC :1.07927: L2-Pf-HR :0.99848: L2-HR :0.95598: (Sim:1h7m0s) 
CPU  1 inst:   39000004 cyc:   34476003 now IPC :1.09787: AVG IPC :1.10492: L2-Pf-HR :0.99859: L2-HR :0.95602: (Sim:1h7m15s) 
CPU  3 inst:   38000000 cyc:   34611874 now IPC :1.05936: AVG IPC :1.07067: L2-Pf-HR :0.99840: L2-HR :0.95585: (Sim:1h7m29s) 
CPU  2 inst:   39000003 cyc:   35090848 now IPC :1.07585: AVG IPC :1.08499: L2-Pf-HR :0.99858: L2-HR :0.95605: (Sim:1h8m25s) 
CPU  0 inst:   39000003 cyc:   35227217 now IPC :1.13419: AVG IPC :1.08068: L2-Pf-HR :0.99848: L2-HR :0.95606: (Sim:1h8m41s) 
CPU  1 inst:   40000001 cyc:   35440496 now IPC :1.03681: AVG IPC :1.10301: L2-Pf-HR :0.99857: L2-HR :0.95598: (Sim:1h9m6s) 
CPU  3 inst:   39000002 cyc:   35444671 now IPC :1.20078: AVG IPC :1.07381: L2-Pf-HR :0.99839: L2-HR :0.95593: (Sim:1h9m6s) 
CPU  2 inst:   40000001 cyc:   36052672 now IPC :1.03969: AVG IPC :1.08375: L2-Pf-HR :0.99859: L2-HR :0.95602: (Sim:1h10m12s) 
CPU  0 inst:   40000001 cyc:   36199356 now IPC :1.02866: AVG IPC :1.07924: L2-Pf-HR :0.99849: L2-HR :0.95604: (Sim:1h10m29s) 
CPU  3 inst:   40000001 cyc:   36359845 now IPC :1.09269: AVG IPC :1.07430: L2-Pf-HR :0.99842: L2-HR :0.95593: (Sim:1h10m50s) 
CPU  1 inst:   41000003 cyc:   36396882 now IPC :1.04561: AVG IPC :1.10146: L2-Pf-HR :0.99860: L2-HR :0.95594: (Sim:1h10m55s) 
CPU  2 inst:   41000003 cyc:   36982261 now IPC :1.07575: AVG IPC :1.08354: L2-Pf-HR :0.99862: L2-HR :0.95598: (Sim:1h11m59s) 
CPU  0 inst:   41000003 cyc:   37104958 now IPC :1.10424: AVG IPC :1.07987: L2-Pf-HR :0.99852: L2-HR :0.95599: (Sim:1h12m14s) 
CPU  3 inst:   41000003 cyc:   37267780 now IPC :1.10140: AVG IPC :1.07498: L2-Pf-HR :0.99845: L2-HR :0.95586: (Sim:1h12m32s) 
CPU  1 inst:   42000004 cyc:   38085618 now IPC :0.59216: AVG IPC :1.07827: L2-Pf-HR :0.99858: L2-HR :0.95430: (Sim:1h13m38s) 
CPU  2 inst:   42000001 cyc:   39508787 now IPC :0.39580: AVG IPC :1.03843: L2-Pf-HR :0.99859: L2-HR :0.95435: (Sim:1h14m46s) 
CPU  0 inst:   42000001 cyc:   40056278 now IPC :0.33883: AVG IPC :1.02389: L2-Pf-HR :0.99850: L2-HR :0.95436: (Sim:1h15m19s) 
CPU  3 inst:   42000001 cyc:   40853591 now IPC :0.27888: AVG IPC :1.00337: L2-Pf-HR :0.99842: L2-HR :0.95425: (Sim:1h16m9s) 
CPU  1 inst:   43000001 cyc:   55983296 now IPC :0.05587: AVG IPC :0.74553: L2-Pf-HR :0.99825: L2-HR :0.93353: (Sim:1h32m24s) 
CPU  2 inst:   43000004 cyc:   59169257 now IPC :0.05086: AVG IPC :0.70471: L2-Pf-HR :0.99825: L2-HR :0.93360: (Sim:1h35m45s) 
CPU  0 inst:   43000001 cyc:   59694328 now IPC :0.05092: AVG IPC :0.69841: L2-Pf-HR :0.99816: L2-HR :0.93362: (Sim:1h36m17s) 
CPU  3 inst:   43000000 cyc:   60594376 now IPC :0.05066: AVG IPC :0.68784: L2-Pf-HR :0.99808: L2-HR :0.93350: (Sim:1h37m13s) 
CPU  1 inst:   44000002 cyc:   63651187 now IPC :0.13041: AVG IPC :0.67026: L2-Pf-HR :0.99750: L2-HR :0.92859: (Sim:1h40m5s) 
CPU  2 inst:   44000002 cyc:   65292100 now IPC :0.16332: AVG IPC :0.65316: L2-Pf-HR :0.99750: L2-HR :0.92865: (Sim:1h41m41s) 
CPU  0 inst:   44000002 cyc:   65544543 now IPC :0.17093: AVG IPC :0.65061: L2-Pf-HR :0.99739: L2-HR :0.92868: (Sim:1h41m55s) 
CPU  3 inst:   44000002 cyc:   65881926 now IPC :0.18912: AVG IPC :0.64720: L2-Pf-HR :0.99730: L2-HR :0.92856: (Sim:1h42m15s) 
CPU  1 inst:   45000002 cyc:   67315175 now IPC :0.27293: AVG IPC :0.64831: L2-Pf-HR :0.99665: L2-HR :0.92573: (Sim:1h43m38s) 
CPU  2 inst:   45000002 cyc:   68960633 now IPC :0.27259: AVG IPC :0.63262: L2-Pf-HR :0.99665: L2-HR :0.92580: (Sim:1h45m12s) 
CPU  0 inst:   45000002 cyc:   69195233 now IPC :0.27392: AVG IPC :0.63045: L2-Pf-HR :0.99655: L2-HR :0.92583: (Sim:1h45m26s) 
CPU  3 inst:   45000002 cyc:   69529384 now IPC :0.27416: AVG IPC :0.62735: L2-Pf-HR :0.99645: L2-HR :0.92571: (Sim:1h45m45s) 
CPU  1 inst:   46000002 cyc:   70935430 now IPC :0.27622: AVG IPC :0.62905: L2-Pf-HR :0.99583: L2-HR :0.92291: (Sim:1h47m6s) 
CPU  2 inst:   46000002 cyc:   72540560 now IPC :0.27934: AVG IPC :0.61494: L2-Pf-HR :0.99582: L2-HR :0.92298: (Sim:1h48m38s) 
CPU  0 inst:   46000002 cyc:   72779727 now IPC :0.27898: AVG IPC :0.61290: L2-Pf-HR :0.99571: L2-HR :0.92302: (Sim:1h48m52s) 
CPU  3 inst:   46000002 cyc:   73113104 now IPC :0.27904: AVG IPC :0.61004: L2-Pf-HR :0.99560: L2-HR :0.92290: (Sim:1h49m11s) 
CPU  1 inst:   47000002 cyc:   74499405 now IPC :0.28059: AVG IPC :0.61216: L2-Pf-HR :0.99498: L2-HR :0.92013: (Sim:1h50m32s) 
CPU  2 inst:   47000002 cyc:   76082287 now IPC :0.28235: AVG IPC :0.59926: L2-Pf-HR :0.99498: L2-HR :0.92020: (Sim:1h52m3s) 
CPU  0 inst:   47000002 cyc:   76319768 now IPC :0.28248: AVG IPC :0.59737: L2-Pf-HR :0.99486: L2-HR :0.92023: (Sim:1h52m17s) 
CPU  3 inst:   47000002 cyc:   76647198 now IPC :0.28296: AVG IPC :0.59476: L2-Pf-HR :0.99474: L2-HR :0.92011: (Sim:1h52m36s) 
CPU  1 inst:   48000002 cyc:   78027874 now IPC :0.28341: AVG IPC :0.59710: L2-Pf-HR :0.99414: L2-HR :0.91737: (Sim:1h53m55s) 
CPU  2 inst:   48000002 cyc:   79615554 now IPC :0.28302: AVG IPC :0.58504: L2-Pf-HR :0.99411: L2-HR :0.91744: (Sim:1h55m27s) 
CPU  0 inst:   48000002 cyc:   79852405 now IPC :0.28307: AVG IPC :0.58329: L2-Pf-HR :0.99400: L2-HR :0.91748: (Sim:1h55m41s) 
CPU  3 inst:   48000002 cyc:   80179214 now IPC :0.28312: AVG IPC :0.58086: L2-Pf-HR :0.99388: L2-HR :0.91736: (Sim:1h56m0s) 
CPU  1 inst:   49000002 cyc:   81565023 now IPC :0.28271: AVG IPC :0.58330: L2-Pf-HR :0.99329: L2-HR :0.91464: (Sim:1h57m20s) 
CPU  2 inst:   49000002 cyc:   83153046 now IPC :0.28269: AVG IPC :0.57203: L2-Pf-HR :0.99325: L2-HR :0.91472: (Sim:1h58m53s) 
CPU  0 inst:   49000002 cyc:   83387384 now IPC :0.28289: AVG IPC :0.57040: L2-Pf-HR :0.99313: L2-HR :0.91475: (Sim:1h59m6s) 
CPU  3 inst:   49000002 cyc:   83714078 now IPC :0.28290: AVG IPC :0.56813: L2-Pf-HR :0.99306: L2-HR :0.91463: (Sim:1h59m25s) 
CPU  1 inst:   50000002 cyc:   85093584 now IPC :0.28340: AVG IPC :0.57072: L2-Pf-HR :0.99241: L2-HR :0.91194: (Sim:2h0m45s) 
CPU  2 inst:   50000002 cyc:   86683941 now IPC :0.28321: AVG IPC :0.56013: L2-Pf-HR :0.99236: L2-HR :0.91202: (Sim:2h2m17s) 
CPU  0 inst:   50000002 cyc:   86918759 now IPC :0.28318: AVG IPC :0.55860: L2-Pf-HR :0.99229: L2-HR :0.91206: (Sim:2h2m30s) 
CPU  3 inst:   50000002 cyc:   87238760 now IPC :0.28371: AVG IPC :0.55651: L2-Pf-HR :0.99218: L2-HR :0.91193: (Sim:2h2m49s) 
CPU  1 inst:   51000002 cyc:   88617316 now IPC :0.28379: AVG IPC :0.55918: L2-Pf-HR :0.99157: L2-HR :0.90927: (Sim:2h4m9s) 
CPU  2 inst:   51000002 cyc:   90203980 now IPC :0.28409: AVG IPC :0.54924: L2-Pf-HR :0.99148: L2-HR :0.90935: (Sim:2h5m41s) 
CPU  0 inst:   51000002 cyc:   90443738 now IPC :0.28369: AVG IPC :0.54777: L2-Pf-HR :0.99143: L2-HR :0.90939: (Sim:2h5m55s) 
CPU  3 inst:   51000002 cyc:   90767326 now IPC :0.28340: AVG IPC :0.54577: L2-Pf-HR :0.99132: L2-HR :0.90927: (Sim:2h6m14s) 
CPU  1 inst:   52000002 cyc:   92153056 now IPC :0.28283: AVG IPC :0.54846: L2-Pf-HR :0.99074: L2-HR :0.90663: (Sim:2h7m35s) 
CPU  2 inst:   52000002 cyc:   93744643 now IPC :0.28243: AVG IPC :0.53905: L2-Pf-HR :0.99062: L2-HR :0.90672: (Sim:2h9m8s) 
CPU  0 inst:   52000002 cyc:   93975713 now IPC :0.28313: AVG IPC :0.53771: L2-Pf-HR :0.99058: L2-HR :0.90675: (Sim:2h9m21s) 
CPU  3 inst:   52000002 cyc:   94305384 now IPC :0.28264: AVG IPC :0.53580: L2-Pf-HR :0.99047: L2-HR :0.90663: (Sim:2h9m41s) 
CPU  1 inst:   53000002 cyc:   95684291 now IPC :0.28319: AVG IPC :0.53857: L2-Pf-HR :0.98992: L2-HR :0.90401: (Sim:2h11m1s) 
CPU  2 inst:   53000002 cyc:   97269096 now IPC :0.28373: AVG IPC :0.52970: L2-Pf-HR :0.98977: L2-HR :0.90410: (Sim:2h12m33s) 
CPU  0 inst:   53000002 cyc:   97504841 now IPC :0.28336: AVG IPC :0.52841: L2-Pf-HR :0.98974: L2-HR :0.90414: (Sim:2h12m47s) 
CPU  3 inst:   53000002 cyc:   97832100 now IPC :0.28355: AVG IPC :0.52661: L2-Pf-HR :0.98964: L2-HR :0.90401: (Sim:2h13m6s) 
CPU  1 inst:   54000002 cyc:   99208395 now IPC :0.28376: AVG IPC :0.52943: L2-Pf-HR :0.98908: L2-HR :0.90142: (Sim:2h14m25s) 
CPU  2 inst:   54000002 cyc:  100797286 now IPC :0.28343: AVG IPC :0.52100: L2-Pf-HR :0.98891: L2-HR :0.90152: (Sim:2h15m57s) 
CPU  0 inst:   54000002 cyc:  101034328 now IPC :0.28333: AVG IPC :0.51977: L2-Pf-HR :0.98888: L2-HR :0.90156: (Sim:2h16m11s) 
CPU  3 inst:   54000002 cyc:  101356770 now IPC :0.28371: AVG IPC :0.51808: L2-Pf-HR :0.98880: L2-HR :0.90143: (Sim:2h16m29s) 
CPU  1 inst:   55000002 cyc:  102737254 now IPC :0.28338: AVG IPC :0.52089: L2-Pf-HR :0.98821: L2-HR :0.89887: (Sim:2h17m49s) 
CPU  2 inst:   55000002 cyc:  104324971 now IPC :0.28347: AVG IPC :0.51289: L2-Pf-HR :0.98803: L2-HR :0.89896: (Sim:2h19m21s) 
CPU  0 inst:   55000002 cyc:  104562409 now IPC :0.28344: AVG IPC :0.51172: L2-Pf-HR :0.98804: L2-HR :0.89900: (Sim:2h19m35s) 
CPU  3 inst:   55000002 cyc:  104882804 now IPC :0.28360: AVG IPC :0.51012: L2-Pf-HR :0.98794: L2-HR :0.89887: (Sim:2h19m53s) 
CPU  1 inst:   56000002 cyc:  106261115 now IPC :0.28378: AVG IPC :0.51296: L2-Pf-HR :0.98736: L2-HR :0.89633: (Sim:2h21m14s) 
CPU  2 inst:   56000002 cyc:  107852751 now IPC :0.28346: AVG IPC :0.50532: L2-Pf-HR :0.98720: L2-HR :0.89643: (Sim:2h22m47s) 
CPU  0 inst:   56000002 cyc:  108085348 now IPC :0.28385: AVG IPC :0.50422: L2-Pf-HR :0.98717: L2-HR :0.89647: (Sim:2h23m1s) 
CPU  3 inst:   56000002 cyc:  108415335 now IPC :0.28308: AVG IPC :0.50266: L2-Pf-HR :0.98712: L2-HR :0.89634: (Sim:2h23m20s) 
CPU  1 inst:   57000002 cyc:  109790518 now IPC :0.28333: AVG IPC :0.50551: L2-Pf-HR :0.98654: L2-HR :0.89382: (Sim:2h24m40s) 
CPU  2 inst:   57000002 cyc:  111381148 now IPC :0.28341: AVG IPC :0.49822: L2-Pf-HR :0.98635: L2-HR :0.89393: (Sim:2h26m12s) 
CPU  0 inst:   57000002 cyc:  111615110 now IPC :0.28331: AVG IPC :0.49717: L2-Pf-HR :0.98634: L2-HR :0.89396: (Sim:2h26m26s) 
CPU  3 inst:   57000002 cyc:  111944142 now IPC :0.28338: AVG IPC :0.49568: L2-Pf-HR :0.98628: L2-HR :0.89384: (Sim:2h26m45s) 
CPU  1 inst:   58000002 cyc:  113317247 now IPC :0.28355: AVG IPC :0.49854: L2-Pf-HR :0.98571: L2-HR :0.89134: (Sim:2h28m5s) 
CPU  2 inst:   58000002 cyc:  114905192 now IPC :0.28376: AVG IPC :0.49159: L2-Pf-HR :0.98548: L2-HR :0.89145: (Sim:2h29m38s) 
CPU  0 inst:   58000002 cyc:  115147948 now IPC :0.28306: AVG IPC :0.49055: L2-Pf-HR :0.98550: L2-HR :0.89149: (Sim:2h29m52s) 
CPU  3 inst:   58000002 cyc:  115476453 now IPC :0.28310: AVG IPC :0.48913: L2-Pf-HR :0.98544: L2-HR :0.89136: (Sim:2h30m11s) 
CPU  1 inst:   59000002 cyc:  116850203 now IPC :0.28305: AVG IPC :0.49197: L2-Pf-HR :0.98486: L2-HR :0.88889: (Sim:2h31m32s) 
CPU  2 inst:   59000002 cyc:  118428153 now IPC :0.28385: AVG IPC :0.48536: L2-Pf-HR :0.98466: L2-HR :0.88899: (Sim:2h33m5s) 
CPU  0 inst:   59000002 cyc:  118673847 now IPC :0.28362: AVG IPC :0.48435: L2-Pf-HR :0.98468: L2-HR :0.88903: (Sim:2h33m20s) 
CPU  3 inst:   59000002 cyc:  119031503 now IPC :0.28129: AVG IPC :0.48287: L2-Pf-HR :0.98459: L2-HR :0.88890: (Sim:2h33m38s) 
CPU  1 inst:   60000004 cyc:  119750495 now IPC :0.34479: AVG IPC :0.48837: L2-Pf-HR :0.98440: L2-HR :0.88654: (Sim:2h34m31s) 
CPU  1 inst:   61000000 cyc:  120414486 now IPC :1.50604: AVG IPC :0.49403: L2-Pf-HR :0.98481: L2-HR :0.88853: (Sim:2h35m27s) 
CPU  1 inst:   62000005 cyc:  121259891 now IPC :1.18287: AVG IPC :0.49887: L2-Pf-HR :0.98513: L2-HR :0.88996: (Sim:2h36m29s) 
CPU  2 inst:   60000004 cyc:  121711812 now IPC :0.30454: AVG IPC :0.48044: L2-Pf-HR :0.98418: L2-HR :0.88652: (Sim:2h37m10s) 
CPU  0 inst:   60000004 cyc:  122254959 now IPC :0.27924: AVG IPC :0.47829: L2-Pf-HR :0.98421: L2-HR :0.88663: (Sim:2h38m15s) 
CPU  1 inst:   63000003 cyc:  122425067 now IPC :0.85824: AVG IPC :0.50232: L2-Pf-HR :0.98546: L2-HR :0.89144: (Sim:2h38m43s) 
CPU  2 inst:   61000000 cyc:  122585376 now IPC :1.14473: AVG IPC :0.48521: L2-Pf-HR :0.98456: L2-HR :0.88832: (Sim:2h39m10s) 
CPU  3 inst:   60000004 cyc:  122597359 now IPC :0.28044: AVG IPC :0.47693: L2-Pf-HR :0.98412: L2-HR :0.88647: (Sim:2h39m11s) 
CPU  0 inst:   61000003 cyc:  123032817 now IPC :1.28558: AVG IPC :0.48344: L2-Pf-HR :0.98460: L2-HR :0.88848: (Sim:2h40m14s) 
CPU  2 inst:   62000005 cyc:  123318648 now IPC :1.36376: AVG IPC :0.49048: L2-Pf-HR :0.98485: L2-HR :0.88962: (Sim:2h40m56s) 
CPU  3 inst:   61000004 cyc:  123327556 now IPC :1.36949: AVG IPC :0.48226: L2-Pf-HR :0.98448: L2-HR :0.88817: (Sim:2h40m58s) 
CPU  1 inst:   64000003 cyc:  123348133 now IPC :1.08335: AVG IPC :0.50671: L2-Pf-HR :0.98578: L2-HR :0.89277: (Sim:2h41m0s) 
CPU  0 inst:   62000005 cyc:  123802051 now IPC :1.30000: AVG IPC :0.48855: L2-Pf-HR :0.98490: L2-HR :0.88983: (Sim:2h42m17s) 
CPU  1 inst:   65000001 cyc:  123921713 now IPC :1.74343: AVG IPC :0.51248: L2-Pf-HR :0.98607: L2-HR :0.89445: (Sim:2h42m38s) 
CPU  3 inst:   62000005 cyc:  123962979 now IPC :1.57376: AVG IPC :0.48790: L2-Pf-HR :0.98480: L2-HR :0.88964: (Sim:2h42m45s) 
CPU  2 inst:   63000003 cyc:  124049143 now IPC :1.36893: AVG IPC :0.49569: L2-Pf-HR :0.98520: L2-HR :0.89113: (Sim:2h42m55s) 
CPU  0 inst:   63000003 cyc:  124692494 now IPC :1.12303: AVG IPC :0.49312: L2-Pf-HR :0.98524: L2-HR :0.89130: (Sim:2h44m22s) 
CPU  1 inst:   66000004 cyc:  124813568 now IPC :1.12126: AVG IPC :0.51686: L2-Pf-HR :0.98633: L2-HR :0.89550: (Sim:2h44m44s) 
CPU  3 inst:   63000003 cyc:  124836899 now IPC :1.14427: AVG IPC :0.49253: L2-Pf-HR :0.98513: L2-HR :0.89104: (Sim:2h44m48s) 
CPU  2 inst:   64000003 cyc:  124857245 now IPC :1.23747: AVG IPC :0.50053: L2-Pf-HR :0.98550: L2-HR :0.89242: (Sim:2h44m52s) 
CPU  2 inst:   65000001 cyc:  125493863 now IPC :1.57080: AVG IPC :0.50600: L2-Pf-HR :0.98579: L2-HR :0.89401: (Sim:2h46m19s) 
CPU  0 inst:   64000003 cyc:  125597307 now IPC :1.10520: AVG IPC :0.49756: L2-Pf-HR :0.98557: L2-HR :0.89270: (Sim:2h46m34s) 
CPU  3 inst:   64000003 cyc:  125674797 now IPC :1.19346: AVG IPC :0.49724: L2-Pf-HR :0.98544: L2-HR :0.89235: (Sim:2h46m45s) 
CPU  1 inst:   67000002 cyc:  125716033 now IPC :1.10807: AVG IPC :0.52114: L2-Pf-HR :0.98661: L2-HR :0.89675: (Sim:2h46m52s) 
CPU  0 inst:   65000001 cyc:  126163642 now IPC :1.76574: AVG IPC :0.50330: L2-Pf-HR :0.98589: L2-HR :0.89447: (Sim:2h48m9s) 
CPU  3 inst:   65000001 cyc:  126219723 now IPC :1.83511: AVG IPC :0.50306: L2-Pf-HR :0.98576: L2-HR :0.89414: (Sim:2h48m18s) 
CPU  2 inst:   66000004 cyc:  126252344 now IPC :1.31843: AVG IPC :0.51092: L2-Pf-HR :0.98608: L2-HR :0.89519: (Sim:2h48m22s) 
CPU  1 inst:   68000002 cyc:  126636070 now IPC :1.08691: AVG IPC :0.52528: L2-Pf-HR :0.98690: L2-HR :0.89799: (Sim:2h49m0s) 
CPU  2 inst:   67000002 cyc:  127082838 now IPC :1.20410: AVG IPC :0.51549: L2-Pf-HR :0.98635: L2-HR :0.89636: (Sim:2h50m11s) 
CPU  0 inst:   66000004 cyc:  127103896 now IPC :1.06355: AVG IPC :0.50748: L2-Pf-HR :0.98617: L2-HR :0.89561: (Sim:2h50m15s) 
CPU  3 inst:   66000004 cyc:  127146985 now IPC :1.07845: AVG IPC :0.50729: L2-Pf-HR :0.98605: L2-HR :0.89530: (Sim:2h50m23s) 
CPU  1 inst:   69000004 cyc:  127190034 now IPC :1.80518: AVG IPC :0.53090: L2-Pf-HR :0.98714: L2-HR :0.89939: (Sim:2h50m30s) 
CPU  2 inst:   68000002 cyc:  127876096 now IPC :1.26062: AVG IPC :0.52015: L2-Pf-HR :0.98661: L2-HR :0.89749: (Sim:2h51m57s) 
CPU  0 inst:   67000002 cyc:  127970878 now IPC :1.15342: AVG IPC :0.51189: L2-Pf-HR :0.98646: L2-HR :0.89689: (Sim:2h52m13s) 
CPU  3 inst:   67000002 cyc:  127999646 now IPC :1.17280: AVG IPC :0.51176: L2-Pf-HR :0.98634: L2-HR :0.89657: (Sim:2h52m18s) 
CPU  1 inst:   70000003 cyc:  128030839 now IPC :1.18934: AVG IPC :0.53526: L2-Pf-HR :0.98739: L2-HR :0.90054: (Sim:2h52m24s) 
CPU  2 inst:   69000004 cyc:  128380357 now IPC :1.98310: AVG IPC :0.52594: L2-Pf-HR :0.98687: L2-HR :0.89895: (Sim:2h53m24s) 
CPU  0 inst:   68000002 cyc:  128755798 now IPC :1.27402: AVG IPC :0.51657: L2-Pf-HR :0.98673: L2-HR :0.89810: (Sim:2h54m5s) 
CPU  3 inst:   68000002 cyc:  128796273 now IPC :1.25529: AVG IPC :0.51639: L2-Pf-HR :0.98662: L2-HR :0.89778: (Sim:2h54m11s) 
CPU  1 inst:   71000003 cyc:  128807038 now IPC :1.28833: AVG IPC :0.53983: L2-Pf-HR :0.98762: L2-HR :0.90154: (Sim:2h54m13s) 
CPU  2 inst:   70000003 cyc:  129149135 now IPC :1.30076: AVG IPC :0.53059: L2-Pf-HR :0.98713: L2-HR :0.90014: (Sim:2h55m13s) 
CPU  0 inst:   69000004 cyc:  129259757 now IPC :1.98429: AVG IPC :0.52233: L2-Pf-HR :0.98699: L2-HR :0.89955: (Sim:2h55m32s) 
CPU  3 inst:   69000004 cyc:  129293102 now IPC :2.01277: AVG IPC :0.52219: L2-Pf-HR :0.98688: L2-HR :0.89924: (Sim:2h55m38s) 
CPU  1 inst:   72000001 cyc:  129357454 now IPC :1.81680: AVG IPC :0.54531: L2-Pf-HR :0.98788: L2-HR :0.90293: (Sim:2h55m47s) 
CPU  2 inst:   71000003 cyc:  129902429 now IPC :1.32750: AVG IPC :0.53524: L2-Pf-HR :0.98737: L2-HR :0.90116: (Sim:2h57m0s) 
CPU  0 inst:   70000003 cyc:  130026381 now IPC :1.30442: AVG IPC :0.52698: L2-Pf-HR :0.98725: L2-HR :0.90073: (Sim:2h57m22s) 
CPU  1 inst:   73000001 cyc:  130045933 now IPC :1.45248: AVG IPC :0.55014: L2-Pf-HR :0.98808: L2-HR :0.90385: (Sim:2h57m26s) 
CPU  3 inst:   70000003 cyc:  130058815 now IPC :1.30597: AVG IPC :0.52684: L2-Pf-HR :0.98714: L2-HR :0.90044: (Sim:2h57m28s) 
CPU  2 inst:   72000001 cyc:  130525584 now IPC :1.60473: AVG IPC :0.54039: L2-Pf-HR :0.98760: L2-HR :0.90243: (Sim:2h58m34s) 
CPU  1 inst:   74000002 cyc:  130745734 now IPC :1.42898: AVG IPC :0.55488: L2-Pf-HR :0.98828: L2-HR :0.90478: (Sim:2h59m7s) 
CPU  0 inst:   71000003 cyc:  130770814 now IPC :1.34330: AVG IPC :0.53166: L2-Pf-HR :0.98747: L2-HR :0.90170: (Sim:2h59m11s) 
CPU  3 inst:   71000003 cyc:  130813744 now IPC :1.32463: AVG IPC :0.53148: L2-Pf-HR :0.98737: L2-HR :0.90140: (Sim:2h59m19s) 
CPU  2 inst:   73000001 cyc:  131158055 now IPC :1.58110: AVG IPC :0.54544: L2-Pf-HR :0.98782: L2-HR :0.90346: (Sim:3h0m18s) 
CPU  0 inst:   72000001 cyc:  131326705 now IPC :1.79891: AVG IPC :0.53707: L2-Pf-HR :0.98772: L2-HR :0.90299: (Sim:3h0m44s) 
CPU  1 inst:   75000002 cyc:  131358576 now IPC :1.63174: AVG IPC :0.55995: L2-Pf-HR :0.98849: L2-HR :0.90573: (Sim:3h0m47s) 
CPU  3 inst:   72000001 cyc:  131413741 now IPC :1.66667: AVG IPC :0.53670: L2-Pf-HR :0.98761: L2-HR :0.90268: (Sim:3h0m52s) 
CPU  2 inst:   74000002 cyc:  131909613 now IPC :1.33057: AVG IPC :0.54995: L2-Pf-HR :0.98804: L2-HR :0.90444: (Sim:3h2m11s) 
CPU  1 inst:   76000005 cyc:  131942211 now IPC :1.71340: AVG IPC :0.56509: L2-Pf-HR :0.98869: L2-HR :0.90691: (Sim:3h2m16s) 
CPU  0 inst:   73000001 cyc:  132022604 now IPC :1.43699: AVG IPC :0.54185: L2-Pf-HR :0.98792: L2-HR :0.90393: (Sim:3h2m30s) 
CPU  3 inst:   73000001 cyc:  132083303 now IPC :1.49351: AVG IPC :0.54158: L2-Pf-HR :0.98782: L2-HR :0.90365: (Sim:3h2m40s) 
CPU  1 inst:   77000000 cyc:  132622091 now IPC :1.47084: AVG IPC :0.56977: L2-Pf-HR :0.98884: L2-HR :0.90752: (Sim:3h3m55s) 
CPU  2 inst:   75000002 cyc:  132661441 now IPC :1.33009: AVG IPC :0.55441: L2-Pf-HR :0.98823: L2-HR :0.90527: (Sim:3h4m2s) 
CPU  0 inst:   74000002 cyc:  132751474 now IPC :1.37199: AVG IPC :0.54644: L2-Pf-HR :0.98812: L2-HR :0.90486: (Sim:3h4m17s) 
CPU  3 inst:   74000002 cyc:  132837860 now IPC :1.32528: AVG IPC :0.54607: L2-Pf-HR :0.98803: L2-HR :0.90463: (Sim:3h4m32s) 
CPU  2 inst:   76000005 cyc:  133193620 now IPC :1.87907: AVG IPC :0.55974: L2-Pf-HR :0.98842: L2-HR :0.90645: (Sim:3h5m29s) 
CPU  1 inst:   78000001 cyc:  133290492 now IPC :1.49611: AVG IPC :0.57445: L2-Pf-HR :0.98902: L2-HR :0.90833: (Sim:3h5m41s) 
CPU  0 inst:   75000002 cyc:  133440693 now IPC :1.45092: AVG IPC :0.55115: L2-Pf-HR :0.98831: L2-HR :0.90565: (Sim:3h6m0s) 
CPU  3 inst:   75000002 cyc:  133589998 now IPC :1.32954: AVG IPC :0.55051: L2-Pf-HR :0.98822: L2-HR :0.90541: (Sim:3h6m24s) 
CPU  2 inst:   77000000 cyc:  133938493 now IPC :1.34250: AVG IPC :0.56412: L2-Pf-HR :0.98858: L2-HR :0.90707: (Sim:3h7m24s) 
CPU  1 inst:   79000000 cyc:  133953700 now IPC :1.50782: AVG IPC :0.57910: L2-Pf-HR :0.98919: L2-HR :0.90907: (Sim:3h7m26s) 
CPU  0 inst:   76000005 cyc:  133983351 now IPC :1.84279: AVG IPC :0.55642: L2-Pf-HR :0.98850: L2-HR :0.90683: (Sim:3h7m31s) 
CPU  3 inst:   76000005 cyc:  134114500 now IPC :1.90658: AVG IPC :0.55586: L2-Pf-HR :0.98841: L2-HR :0.90657: (Sim:3h7m51s) 
CPU  1 inst:   80000004 cyc:  134513228 now IPC :1.78723: AVG IPC :0.58416: L2-Pf-HR :0.98933: L2-HR :0.90995: (Sim:3h8m48s) 
CPU  2 inst:   78000001 cyc:  134658236 now IPC :1.38939: AVG IPC :0.56857: L2-Pf-HR :0.98876: L2-HR :0.90789: (Sim:3h9m14s) 
CPU  0 inst:   77000000 cyc:  134662395 now IPC :1.47265: AVG IPC :0.56107: L2-Pf-HR :0.98867: L2-HR :0.90745: (Sim:3h9m15s) 
CPU  3 inst:   77000000 cyc:  134840592 now IPC :1.37723: AVG IPC :0.56031: L2-Pf-HR :0.98857: L2-HR :0.90723: (Sim:3h9m46s) 
CPU  1 inst:   81000005 cyc:  135153309 now IPC :1.56230: AVG IPC :0.58883: L2-Pf-HR :0.98947: L2-HR :0.91064: (Sim:3h10m34s) 
CPU  0 inst:   78000001 cyc:  135342773 now IPC :1.46977: AVG IPC :0.56567: L2-Pf-HR :0.98883: L2-HR :0.90816: (Sim:3h10m59s) 
CPU  2 inst:   79000000 cyc:  135386174 now IPC :1.37374: AVG IPC :0.57293: L2-Pf-HR :0.98893: L2-HR :0.90858: (Sim:3h11m7s) 
CPU  3 inst:   78000001 cyc:  135560449 now IPC :1.38917: AVG IPC :0.56475: L2-Pf-HR :0.98875: L2-HR :0.90804: (Sim:3h11m36s) 
CPU  1 inst:   82000005 cyc:  135846792 now IPC :1.44200: AVG IPC :0.59322: L2-Pf-HR :0.98962: L2-HR :0.91131: (Sim:3h12m22s) 
CPU  2 inst:   80000004 cyc:  135907618 now IPC :1.91776: AVG IPC :0.57813: L2-Pf-HR :0.98908: L2-HR :0.90950: (Sim:3h12m32s) 
CPU  0 inst:   79000000 cyc:  135967344 now IPC :1.60110: AVG IPC :0.57046: L2-Pf-HR :0.98900: L2-HR :0.90888: (Sim:3h12m41s) 
CPU  3 inst:   79000000 cyc:  136278226 now IPC :1.39319: AVG IPC :0.56914: L2-Pf-HR :0.98892: L2-HR :0.90875: (Sim:3h13m13s) 
CPU  1 inst:   83000002 cyc:  136464087 now IPC :1.61997: AVG IPC :0.59790: L2-Pf-HR :0.98978: L2-HR :0.91221: (Sim:3h13m34s) 
CPU  0 inst:   80000004 cyc:  136527259 now IPC :1.78599: AVG IPC :0.57549: L2-Pf-HR :0.98914: L2-HR :0.90976: (Sim:3h13m44s) 
CPU  2 inst:   81000005 cyc:  136627612 now IPC :1.38890: AVG IPC :0.58243: L2-Pf-HR :0.98924: L2-HR :0.91027: (Sim:3h14m1s) 
CPU  3 inst:   80000004 cyc:  136807182 now IPC :1.89052: AVG IPC :0.57429: L2-Pf-HR :0.98907: L2-HR :0.90967: (Sim:3h14m29s) 
CPU  1 inst:   84000003 cyc:  137098582 now IPC :1.57606: AVG IPC :0.60246: L2-Pf-HR :0.98989: L2-HR :0.91273: (Sim:3h15m7s) 
CPU  0 inst:   81000005 cyc:  137187838 now IPC :1.51382: AVG IPC :0.58004: L2-Pf-HR :0.98930: L2-HR :0.91048: (Sim:3h15m15s) 
CPU  2 inst:   82000005 cyc:  137347328 now IPC :1.38944: AVG IPC :0.58669: L2-Pf-HR :0.98939: L2-HR :0.91094: (Sim:3h15m29s) 
CPU  3 inst:   81000005 cyc:  137521406 now IPC :1.40012: AVG IPC :0.57861: L2-Pf-HR :0.98924: L2-HR :0.91044: (Sim:3h15m45s) 
CPU  1 inst:   85000004 cyc:  137762885 now IPC :1.50534: AVG IPC :0.60684: L2-Pf-HR :0.99003: L2-HR :0.91338: (Sim:3h16m7s) 
CPU  0 inst:   82000005 cyc:  137859102 now IPC :1.48973: AVG IPC :0.58450: L2-Pf-HR :0.98945: L2-HR :0.91115: (Sim:3h16m16s) 
CPU  2 inst:   83000002 cyc:  137957160 now IPC :1.63979: AVG IPC :0.59138: L2-Pf-HR :0.98955: L2-HR :0.91186: (Sim:3h16m23s) 
CPU  3 inst:   82000005 cyc:  138253804 now IPC :1.36538: AVG IPC :0.58281: L2-Pf-HR :0.98938: L2-HR :0.91104: (Sim:3h16m47s) 
CPU  1 inst:   86000004 cyc:  138415906 now IPC :1.53134: AVG IPC :0.61123: L2-Pf-HR :0.99016: L2-HR :0.91393: (Sim:3h17m2s) 
CPU  0 inst:   83000002 cyc:  138453784 now IPC :1.68157: AVG IPC :0.58924: L2-Pf-HR :0.98960: L2-HR :0.91203: (Sim:3h17m5s) 
CPU  2 inst:   84000003 cyc:  138615566 now IPC :1.51882: AVG IPC :0.59582: L2-Pf-HR :0.98968: L2-HR :0.91242: (Sim:3h17m20s) 
CPU  3 inst:   83000002 cyc:  138827316 now IPC :1.74364: AVG IPC :0.58764: L2-Pf-HR :0.98955: L2-HR :0.91198: (Sim:3h17m38s) 
CPU  1 inst:   87000004 cyc:  138956191 now IPC :1.85088: AVG IPC :0.61609: L2-Pf-HR :0.99029: L2-HR :0.91475: (Sim:3h17m47s) 
CPU  0 inst:   84000003 cyc:  139089519 now IPC :1.57298: AVG IPC :0.59377: L2-Pf-HR :0.98973: L2-HR :0.91258: (Sim:3h17m58s) 
CPU  2 inst:   85000004 cyc:  139344953 now IPC :1.37102: AVG IPC :0.59990: L2-Pf-HR :0.98982: L2-HR :0.91306: (Sim:3h18m20s) 
CPU  3 inst:   84000003 cyc:  139523959 now IPC :1.43546: AVG IPC :0.59190: L2-Pf-HR :0.98967: L2-HR :0.91253: (Sim:3h18m37s) 
CPU  1 inst:   88000002 cyc:  139627814 now IPC :1.48893: AVG IPC :0.62032: L2-Pf-HR :0.99040: L2-HR :0.91520: (Sim:3h18m46s) 
CPU  0 inst:   85000004 cyc:  139752945 now IPC :1.50733: AVG IPC :0.59814: L2-Pf-HR :0.98987: L2-HR :0.91322: (Sim:3h18m57s) 
CPU  2 inst:   86000004 cyc:  140076109 now IPC :1.36770: AVG IPC :0.60394: L2-Pf-HR :0.98995: L2-HR :0.91360: (Sim:3h19m21s) 
CPU  3 inst:   85000004 cyc:  140229711 now IPC :1.41693: AVG IPC :0.59608: L2-Pf-HR :0.98981: L2-HR :0.91316: (Sim:3h19m35s) 
CPU  1 inst:   89000003 cyc:  140300700 now IPC :1.48614: AVG IPC :0.62450: L2-Pf-HR :0.99052: L2-HR :0.91573: (Sim:3h19m41s) 
CPU  0 inst:   86000004 cyc:  140426232 now IPC :1.48525: AVG IPC :0.60242: L2-Pf-HR :0.98999: L2-HR :0.91373: (Sim:3h19m54s) 
CPU  2 inst:   87000004 cyc:  140593506 now IPC :1.93275: AVG IPC :0.60886: L2-Pf-HR :0.99009: L2-HR :0.91451: (Sim:3h20m9s) 
CPU  3 inst:   86000004 cyc:  140960485 now IPC :1.36841: AVG IPC :0.60011: L2-Pf-HR :0.98995: L2-HR :0.91374: (Sim:3h20m36s) 
CPU  0 inst:   87000004 cyc:  141000647 now IPC :1.74090: AVG IPC :0.60709: L2-Pf-HR :0.99012: L2-HR :0.91455: (Sim:3h20m39s) 
CPU  1 inst:   90000003 cyc:  141003606 now IPC :1.42267: AVG IPC :0.62851: L2-Pf-HR :0.99064: L2-HR :0.91628: (Sim:3h20m40s) 
CPU  2 inst:   88000002 cyc:  141334970 now IPC :1.34868: AVG IPC :0.61277: L2-Pf-HR :0.99021: L2-HR :0.91501: (Sim:3h21m10s) 
CPU  3 inst:   87000004 cyc:  141493120 now IPC :1.87746: AVG IPC :0.60496: L2-Pf-HR :0.99009: L2-HR :0.91464: (Sim:3h21m24s) 
CPU  1 inst:   91000000 cyc:  141531602 now IPC :1.89395: AVG IPC :0.63326: L2-Pf-HR :0.99076: L2-HR :0.91704: (Sim:3h21m28s) 
CPU  0 inst:   88000002 cyc:  141661508 now IPC :1.51317: AVG IPC :0.61135: L2-Pf-HR :0.99025: L2-HR :0.91509: (Sim:3h21m38s) 
CPU  2 inst:   89000003 cyc:  142085830 now IPC :1.33181: AVG IPC :0.61660: L2-Pf-HR :0.99034: L2-HR :0.91559: (Sim:3h22m10s) 
CPU  3 inst:   88000002 cyc:  142221439 now IPC :1.37302: AVG IPC :0.60892: L2-Pf-HR :0.99021: L2-HR :0.91512: (Sim:3h22m23s) 
CPU  1 inst:   92000001 cyc:  142264488 now IPC :1.36447: AVG IPC :0.63705: L2-Pf-HR :0.99087: L2-HR :0.91757: (Sim:3h22m27s) 
CPU  0 inst:   89000003 cyc:  142341304 now IPC :1.47103: AVG IPC :0.61549: L2-Pf-HR :0.99038: L2-HR :0.91567: (Sim:3h22m36s) 
CPU  2 inst:   90000003 cyc:  142818521 now IPC :1.36483: AVG IPC :0.62046: L2-Pf-HR :0.99047: L2-HR :0.91617: (Sim:3h23m13s) 
CPU  3 inst:   89000003 cyc:  142967727 now IPC :1.33997: AVG IPC :0.61276: L2-Pf-HR :0.99034: L2-HR :0.91569: (Sim:3h23m25s) 
CPU  1 inst:   93000001 cyc:  143014506 now IPC :1.33330: AVG IPC :0.64073: L2-Pf-HR :0.99097: L2-HR :0.91802: (Sim:3h23m29s) 
CPU  0 inst:   90000003 cyc:  143028409 now IPC :1.45538: AVG IPC :0.61955: L2-Pf-HR :0.99050: L2-HR :0.91616: (Sim:3h23m31s) 
CPU  2 inst:   91000000 cyc:  143343024 now IPC :1.90656: AVG IPC :0.62520: L2-Pf-HR :0.99059: L2-HR :0.91694: (Sim:3h24m1s) 
CPU  0 inst:   91000000 cyc:  143551411 now IPC :1.91203: AVG IPC :0.62429: L2-Pf-HR :0.99061: L2-HR :0.91693: (Sim:3h24m26s) 
CPU  1 inst:   94000005 cyc:  143595872 now IPC :1.72009: AVG IPC :0.64513: L2-Pf-HR :0.99110: L2-HR :0.91881: (Sim:3h24m30s) 
CPU  3 inst:   90000003 cyc:  143664927 now IPC :1.43431: AVG IPC :0.61677: L2-Pf-HR :0.99047: L2-HR :0.91629: (Sim:3h24m39s) 
CPU  2 inst:   92000001 cyc:  144123780 now IPC :1.28081: AVG IPC :0.62878: L2-Pf-HR :0.99071: L2-HR :0.91751: (Sim:3h25m40s) 
CPU  3 inst:   91000000 cyc:  144217614 now IPC :1.80934: AVG IPC :0.62138: L2-Pf-HR :0.99059: L2-HR :0.91705: (Sim:3h25m49s) 
CPU  0 inst:   92000001 cyc:  144241390 now IPC :1.44932: AVG IPC :0.62826: L2-Pf-HR :0.99073: L2-HR :0.91751: (Sim:3h25m51s) 
CPU  1 inst:   95000005 cyc:  144286732 now IPC :1.44747: AVG IPC :0.64900: L2-Pf-HR :0.99119: L2-HR :0.91926: (Sim:3h25m56s) 
CPU  2 inst:   93000001 cyc:  144896026 now IPC :1.29492: AVG IPC :0.63235: L2-Pf-HR :0.99082: L2-HR :0.91799: (Sim:3h26m43s) 
CPU  3 inst:   92000001 cyc:  144934030 now IPC :1.39584: AVG IPC :0.62523: L2-Pf-HR :0.99071: L2-HR :0.91759: (Sim:3h26m46s) 
CPU  0 inst:   93000001 cyc:  144983783 now IPC :1.34700: AVG IPC :0.63197: L2-Pf-HR :0.99084: L2-HR :0.91797: (Sim:3h26m52s) 
CPU  1 inst:   96000000 cyc:  145057445 now IPC :1.29749: AVG IPC :0.65247: L2-Pf-HR :0.99130: L2-HR :0.91976: (Sim:3h26m58s) 
CPU  2 inst:   94000005 cyc:  145448335 now IPC :1.81059: AVG IPC :0.63686: L2-Pf-HR :0.99094: L2-HR :0.91877: (Sim:3h27m34s) 
CPU  0 inst:   94000005 cyc:  145571518 now IPC :1.70145: AVG IPC :0.63632: L2-Pf-HR :0.99096: L2-HR :0.91871: (Sim:3h27m41s) 
CPU  3 inst:   93000001 cyc:  145580490 now IPC :1.54689: AVG IPC :0.62935: L2-Pf-HR :0.99082: L2-HR :0.91809: (Sim:3h27m41s) 
CPU  1 inst:   97000002 cyc:  145826576 now IPC :1.30017: AVG IPC :0.65591: L2-Pf-HR :0.99139: L2-HR :0.92018: (Sim:3h28m0s) 
CPU  3 inst:   94000005 cyc:  146172117 now IPC :1.69026: AVG IPC :0.63367: L2-Pf-HR :0.99094: L2-HR :0.91887: (Sim:3h28m46s) 
CPU  2 inst:   95000005 cyc:  146179244 now IPC :1.36816: AVG IPC :0.64054: L2-Pf-HR :0.99103: L2-HR :0.91920: (Sim:3h28m47s) 
CPU  0 inst:   95000005 cyc:  146261717 now IPC :1.44886: AVG IPC :0.64018: L2-Pf-HR :0.99106: L2-HR :0.91915: (Sim:3h28m58s) 
CPU  1 inst:   98000004 cyc:  146349877 now IPC :1.91095: AVG IPC :0.66043: L2-Pf-HR :0.99149: L2-HR :0.92088: (Sim:3h29m13s) 
CPU  3 inst:   95000005 cyc:  146832173 now IPC :1.51502: AVG IPC :0.63766: L2-Pf-HR :0.99103: L2-HR :0.91923: (Sim:3h30m21s) 
CPU  2 inst:   96000000 cyc:  146909080 now IPC :1.37016: AVG IPC :0.64419: L2-Pf-HR :0.99114: L2-HR :0.91968: (Sim:3h30m35s) 
CPU  0 inst:   96000000 cyc:  146992318 now IPC :1.36873: AVG IPC :0.64382: L2-Pf-HR :0.99117: L2-HR :0.91965: (Sim:3h30m49s) 
CPU  1 inst:   99000004 cyc:  147100421 now IPC :1.33237: AVG IPC :0.66388: L2-Pf-HR :0.99159: L2-HR :0.92127: (Sim:3h31m8s) 
CPU  3 inst:   96000000 cyc:  147503488 now IPC :1.48961: AVG IPC :0.64157: L2-Pf-HR :0.99114: L2-HR :0.91971: (Sim:3h32m4s) 
CPU  2 inst:   97000002 cyc:  147635226 now IPC :1.37714: AVG IPC :0.64782: L2-Pf-HR :0.99123: L2-HR :0.92009: (Sim:3h32m22s) 
CPU  0 inst:   97000002 cyc:  147755889 now IPC :1.30964: AVG IPC :0.64729: L2-Pf-HR :0.99126: L2-HR :0.92007: (Sim:3h32m42s) 
CPU  1 inst:  100000005 cyc:  147872865 now IPC :1.29459: AVG IPC :0.66719: L2-Pf-HR :0.99167: L2-HR :0.92165: (Sim:3h33m2s) 
Finished CPU 1 instr: 98000004 cyc: 146883516 AVG IPC: 0.66720 (Sim time: 3h33m2s)
CPU  2 inst:   98000004 cyc:  148169510 now IPC :1.87167: AVG IPC :0.65226: L2-Pf-HR :0.99133: L2-HR :0.92078: (Sim:3h33m51s) 
CPU  3 inst:   97000002 cyc:  148195698 now IPC :1.44465: AVG IPC :0.64534: L2-Pf-HR :0.99124: L2-HR :0.92017: (Sim:3h33m56s) 
CPU  0 inst:   98000004 cyc:  148279953 now IPC :1.90817: AVG IPC :0.65177: L2-Pf-HR :0.99136: L2-HR :0.92075: (Sim:3h34m9s) 
CPU  1 inst:  101000001 cyc:  148632473 now IPC :1.31646: AVG IPC :0.67053: L2-Pf-HR :0.99175: L2-HR :0.92202: (Sim:3h34m58s) 
CPU  3 inst:   98000004 cyc:  148782218 now IPC :1.70498: AVG IPC :0.64955: L2-Pf-HR :0.99134: L2-HR :0.92083: (Sim:3h35m23s) 
CPU  2 inst:   99000004 cyc:  148894556 now IPC :1.37922: AVG IPC :0.65582: L2-Pf-HR :0.99143: L2-HR :0.92116: (Sim:3h35m43s) 
CPU  0 inst:   99000004 cyc:  149053416 now IPC :1.29289: AVG IPC :0.65512: L2-Pf-HR :0.99145: L2-HR :0.92107: (Sim:3h36m11s) 
CPU  1 inst:  102000005 cyc:  149173184 now IPC :1.84942: AVG IPC :0.67484: L2-Pf-HR :0.99184: L2-HR :0.92262: (Sim:3h36m31s) 
CPU  3 inst:   99000004 cyc:  149468211 now IPC :1.45774: AVG IPC :0.65328: L2-Pf-HR :0.99142: L2-HR :0.92113: (Sim:3h37m13s) 
CPU  2 inst:  100000005 cyc:  149569657 now IPC :1.48126: AVG IPC :0.65958: L2-Pf-HR :0.99152: L2-HR :0.92156: (Sim:3h37m29s) 
Finished CPU 2 instr: 98000003 cyc: 148580293 AVG IPC: 0.65958 (Sim time: 3h37m29s)
CPU  0 inst:  100000005 cyc:  149753888 now IPC :1.42761: AVG IPC :0.65876: L2-Pf-HR :0.99153: L2-HR :0.92145: (Sim:3h38m1s) 
Finished CPU 0 instr: 98000003 cyc: 148764359 AVG IPC: 0.65876 (Sim time: 3h38m1s)
CPU  1 inst:  103000003 cyc:  149862998 now IPC :1.44966: AVG IPC :0.67843: L2-Pf-HR :0.99192: L2-HR :0.92301: (Sim:3h38m17s) 
CPU  3 inst:  100000005 cyc:  150108888 now IPC :1.56085: AVG IPC :0.65718: L2-Pf-HR :0.99151: L2-HR :0.92154: (Sim:3h38m58s) 
Finished CPU 3 instr: 98000003 cyc: 149120399 AVG IPC: 0.65719 (Sim time: 3h38m58s)

ChampSim completed all CPUs

Total Simulation Statistics (not including warmup)

CPU 0 cumulative IPC: 0.66187 instructions: 98698047 cycles: 149120398
Core_0_L1D_total_access 23942034
Core_0_L1D_total_hit 21863577
Core_0_L1D_total_miss 2078457
Core_0_L1D_loads 21086547
Core_0_L1D_load_hit 19162220
Core_0_L1D_load_miss 1924327
Core_0_L1D_RFOs 2855487
Core_0_L1D_RFO_hit 2701357
Core_0_L1D_RFO_miss 154130
Core_0_L1D_prefetches 0
Core_0_L1D_prefetch_hit 0
Core_0_L1D_prefetch_miss 0
Core_0_L1D_writebacks 0
Core_0_L1D_writeback_hit 0
Core_0_L1D_writeback_miss 0

Core_0_L1I_total_access 12828188
Core_0_L1I_total_hit 12823414
Core_0_L1I_total_miss 4774
Core_0_L1I_loads 12828188
Core_0_L1I_load_hit 12823414
Core_0_L1I_load_miss 4774
Core_0_L1I_RFOs 0
Core_0_L1I_RFO_hit 0
Core_0_L1I_RFO_miss 0
Core_0_L1I_prefetches 0
Core_0_L1I_prefetch_hit 0
Core_0_L1I_prefetch_miss 0
Core_0_L1I_writebacks 0
Core_0_L1I_writeback_hit 0
Core_0_L1I_writeback_miss 0

Core_0_L2C_total_access 10355887
Core_0_L2C_total_hit 9546695
Core_0_L2C_total_miss 809192
Core_0_L2C_loads 1929077
Core_0_L2C_load_hit 1316699
Core_0_L2C_load_miss 612378
Core_0_L2C_RFOs 154104
Core_0_L2C_RFO_hit 21179
Core_0_L2C_RFO_miss 132925
Core_0_L2C_prefetches 7593806
Core_0_L2C_prefetch_hit 7529926
Core_0_L2C_prefetch_miss 63880
Core_0_L2C_writebacks 678900
Core_0_L2C_writeback_hit 678891
Core_0_L2C_writeback_miss 9

 All Calls: 7943689
 Critical Calls: 7943689
------------------
Depth Distribution
------------------
depth 0: 0
depth 1: 7352622
depth 2: 6966043
depth 3: 6601837
depth 4: 6301650
depth 5: 5977260
depth 6: 5586858
depth 7: 4757667
depth 8: 3603729
depth 9: 2574639
depth 10: 1687535
depth 11: 960643
depth 12: 469135
depth 13: 129469
depth 14: 1464
depth 15: 1433
depth 16: 0
depth 17: 0
depth 18: 0
depth 19: 0
depth 20: 0
depth 21: 0
depth 22: 0
depth 23: 0
depth 24: 0
depth 25: 0
depth 26: 0
depth 27: 0
depth 28: 0
depth 29: 0
Total: 52971984
-----------------------------
-----------------------------
	Captured at Filter
-----------------------------
depth 0: 0
depth 1: 112659
depth 2: 104727
depth 3: 104247
depth 4: 85754
depth 5: 79764
depth 6: 74763
depth 7: 62763
depth 8: 43189
depth 9: 29982
depth 10: 18938
depth 11: 10328
depth 12: 4934
depth 13: 1115
depth 14: 15
depth 15: 10
depth 16: 0
depth 17: 0
depth 18: 0
depth 19: 0
depth 20: 0
depth 21: 0
depth 22: 0
depth 23: 0
depth 24: 0
depth 25: 0
depth 26: 0
depth 27: 0
depth 28: 0
depth 29: 0
-----------------------------
-----------------------------
		Lost at Page
-----------------------------
depth 0: 0
depth 1: 248234
depth 2: 394558
depth 3: 511827
depth 4: 597516
depth 5: 692427
depth 6: 743293
depth 7: 722103
depth 8: 593505
depth 9: 472506
depth 10: 346370
depth 11: 217786
depth 12: 120033
depth 13: 35969
depth 14: 472
depth 15: 496
depth 16: 0
depth 17: 0
depth 18: 0
depth 19: 0
depth 20: 0
depth 21: 0
depth 22: 0
depth 23: 0
depth 24: 0
depth 25: 0
depth 26: 0
depth 27: 0
depth 28: 0
depth 29: 0
-----------------------------
-----------------------------
	Lost due to PQ Size
-----------------------------
2348459
-----------------------------
ST read accesses: 7540945
ST write accesses: 232378
PT read accesses: 343093176
PT write accesses: 11202716
FILTER read accesses: 66085855
FILTER write accesses: 12882763
GHR read accesses: 37129821
GHR write accesses: 5602873
GHR counter read accesses: 288292282
GHR counter write accesses: 17591174
ST tag read accesses: 3107818821
ST tag write accesses: 78661372
Core_0_LLC_total_access 2272876
Core_0_LLC_total_hit 1454842
Core_0_LLC_total_miss 818034
Core_0_LLC_loads 468529
Core_0_LLC_load_hit 147559
Core_0_LLC_load_miss 320970
Core_0_LLC_RFOs 132925
Core_0_LLC_RFO_hit 1299
Core_0_LLC_RFO_miss 131626
Core_0_LLC_prefetches 1239229
Core_0_LLC_prefetch_hit 881394
Core_0_LLC_prefetch_miss 357835
Core_0_LLC_writebacks 432193
Core_0_LLC_writeback_hit 424590
Core_0_LLC_writeback_miss 7603


CPU 1 cumulative IPC: 0.68046 instructions: 101470765 cycles: 149120399
Core_1_L1D_total_access 24512627
Core_1_L1D_total_hit 22373477
Core_1_L1D_total_miss 2139150
Core_1_L1D_loads 21615165
Core_1_L1D_load_hit 19631694
Core_1_L1D_load_miss 1983471
Core_1_L1D_RFOs 2897462
Core_1_L1D_RFO_hit 2741783
Core_1_L1D_RFO_miss 155679
Core_1_L1D_prefetches 0
Core_1_L1D_prefetch_hit 0
Core_1_L1D_prefetch_miss 0
Core_1_L1D_writebacks 0
Core_1_L1D_writeback_hit 0
Core_1_L1D_writeback_miss 0

Core_1_L1I_total_access 13122114
Core_1_L1I_total_hit 13117336
Core_1_L1I_total_miss 4778
Core_1_L1I_loads 13122114
Core_1_L1I_load_hit 13117336
Core_1_L1I_load_miss 4778
Core_1_L1I_RFOs 0
Core_1_L1I_RFO_hit 0
Core_1_L1I_RFO_miss 0
Core_1_L1I_prefetches 0
Core_1_L1I_prefetch_hit 0
Core_1_L1I_prefetch_miss 0
Core_1_L1I_writebacks 0
Core_1_L1I_writeback_hit 0
Core_1_L1I_writeback_miss 0

Core_1_L2C_total_access 10703038
Core_1_L2C_total_hit 9881779
Core_1_L2C_total_miss 821259
Core_1_L2C_loads 1988223
Core_1_L2C_load_hit 1362712
Core_1_L2C_load_miss 625511
Core_1_L2C_RFOs 155652
Core_1_L2C_RFO_hit 23201
Core_1_L2C_RFO_miss 132451
Core_1_L2C_prefetches 7866416
Core_1_L2C_prefetch_hit 7803162
Core_1_L2C_prefetch_miss 63254
Core_1_L2C_writebacks 692747
Core_1_L2C_writeback_hit 692704
Core_1_L2C_writeback_miss 43

 All Calls: 7943689
 Critical Calls: 7943689
------------------
Depth Distribution
------------------
depth 0: 0
depth 1: 7352622
depth 2: 6966043
depth 3: 6601837
depth 4: 6301650
depth 5: 5977260
depth 6: 5586858
depth 7: 4757667
depth 8: 3603729
depth 9: 2574639
depth 10: 1687535
depth 11: 960643
depth 12: 469135
depth 13: 129469
depth 14: 1464
depth 15: 1433
depth 16: 0
depth 17: 0
depth 18: 0
depth 19: 0
depth 20: 0
depth 21: 0
depth 22: 0
depth 23: 0
depth 24: 0
depth 25: 0
depth 26: 0
depth 27: 0
depth 28: 0
depth 29: 0
Total: 52971984
-----------------------------
-----------------------------
	Captured at Filter
-----------------------------
depth 0: 0
depth 1: 112659
depth 2: 104727
depth 3: 104247
depth 4: 85754
depth 5: 79764
depth 6: 74763
depth 7: 62763
depth 8: 43189
depth 9: 29982
depth 10: 18938
depth 11: 10328
depth 12: 4934
depth 13: 1115
depth 14: 15
depth 15: 10
depth 16: 0
depth 17: 0
depth 18: 0
depth 19: 0
depth 20: 0
depth 21: 0
depth 22: 0
depth 23: 0
depth 24: 0
depth 25: 0
depth 26: 0
depth 27: 0
depth 28: 0
depth 29: 0
-----------------------------
-----------------------------
		Lost at Page
-----------------------------
depth 0: 0
depth 1: 248234
depth 2: 394558
depth 3: 511827
depth 4: 597516
depth 5: 692427
depth 6: 743293
depth 7: 722103
depth 8: 593505
depth 9: 472506
depth 10: 346370
depth 11: 217786
depth 12: 120033
depth 13: 35969
depth 14: 472
depth 15: 496
depth 16: 0
depth 17: 0
depth 18: 0
depth 19: 0
depth 20: 0
depth 21: 0
depth 22: 0
depth 23: 0
depth 24: 0
depth 25: 0
depth 26: 0
depth 27: 0
depth 28: 0
depth 29: 0
-----------------------------
-----------------------------
	Lost due to PQ Size
-----------------------------
2348459
-----------------------------
ST read accesses: 7540945
ST write accesses: 232378
PT read accesses: 343093176
PT write accesses: 11202716
FILTER read accesses: 66085855
FILTER write accesses: 12882763
GHR read accesses: 37129821
GHR write accesses: 5602873
GHR counter read accesses: 288292282
GHR counter write accesses: 17591174
ST tag read accesses: 3107818821
ST tag write accesses: 78661372
Core_1_LLC_total_access 2286679
Core_1_LLC_total_hit 1455363
Core_1_LLC_total_miss 831316
Core_1_LLC_loads 479657
Core_1_LLC_load_hit 150623
Core_1_LLC_load_miss 329034
Core_1_LLC_RFOs 132451
Core_1_LLC_RFO_hit 831
Core_1_LLC_RFO_miss 131620
Core_1_LLC_prefetches 1241141
Core_1_LLC_prefetch_hit 877696
Core_1_LLC_prefetch_miss 363445
Core_1_LLC_writebacks 433430
Core_1_LLC_writeback_hit 426213
Core_1_LLC_writeback_miss 7217


CPU 2 cumulative IPC: 0.66330 instructions: 98911597 cycles: 149120399
Core_2_L1D_total_access 23988074
Core_2_L1D_total_hit 21901278
Core_2_L1D_total_miss 2086796
Core_2_L1D_loads 21124312
Core_2_L1D_load_hit 19191724
Core_2_L1D_load_miss 1932588
Core_2_L1D_RFOs 2863762
Core_2_L1D_RFO_hit 2709554
Core_2_L1D_RFO_miss 154208
Core_2_L1D_prefetches 0
Core_2_L1D_prefetch_hit 0
Core_2_L1D_prefetch_miss 0
Core_2_L1D_writebacks 0
Core_2_L1D_writeback_hit 0
Core_2_L1D_writeback_miss 0

Core_2_L1I_total_access 12856013
Core_2_L1I_total_hit 12851238
Core_2_L1I_total_miss 4775
Core_2_L1I_loads 12856013
Core_2_L1I_load_hit 12851238
Core_2_L1I_load_miss 4775
Core_2_L1I_RFOs 0
Core_2_L1I_RFO_hit 0
Core_2_L1I_RFO_miss 0
Core_2_L1I_prefetches 0
Core_2_L1I_prefetch_hit 0
Core_2_L1I_prefetch_miss 0
Core_2_L1I_writebacks 0
Core_2_L1I_writeback_hit 0
Core_2_L1I_writeback_miss 0

Core_2_L2C_total_access 10394226
Core_2_L2C_total_hit 9584525
Core_2_L2C_total_miss 809701
Core_2_L2C_loads 1937341
Core_2_L2C_load_hit 1324038
Core_2_L2C_load_miss 613303
Core_2_L2C_RFOs 154182
Core_2_L2C_RFO_hit 21734
Core_2_L2C_RFO_miss 132448
Core_2_L2C_prefetches 7621596
Core_2_L2C_prefetch_hit 7557651
Core_2_L2C_prefetch_miss 63945
Core_2_L2C_writebacks 681107
Core_2_L2C_writeback_hit 681102
Core_2_L2C_writeback_miss 5

 All Calls: 7943689
 Critical Calls: 7943689
------------------
Depth Distribution
------------------
depth 0: 0
depth 1: 7352622
depth 2: 6966043
depth 3: 6601837
depth 4: 6301650
depth 5: 5977260
depth 6: 5586858
depth 7: 4757667
depth 8: 3603729
depth 9: 2574639
depth 10: 1687535
depth 11: 960643
depth 12: 469135
depth 13: 129469
depth 14: 1464
depth 15: 1433
depth 16: 0
depth 17: 0
depth 18: 0
depth 19: 0
depth 20: 0
depth 21: 0
depth 22: 0
depth 23: 0
depth 24: 0
depth 25: 0
depth 26: 0
depth 27: 0
depth 28: 0
depth 29: 0
Total: 52971984
-----------------------------
-----------------------------
	Captured at Filter
-----------------------------
depth 0: 0
depth 1: 112659
depth 2: 104727
depth 3: 104247
depth 4: 85754
depth 5: 79764
depth 6: 74763
depth 7: 62763
depth 8: 43189
depth 9: 29982
depth 10: 18938
depth 11: 10328
depth 12: 4934
depth 13: 1115
depth 14: 15
depth 15: 10
depth 16: 0
depth 17: 0
depth 18: 0
depth 19: 0
depth 20: 0
depth 21: 0
depth 22: 0
depth 23: 0
depth 24: 0
depth 25: 0
depth 26: 0
depth 27: 0
depth 28: 0
depth 29: 0
-----------------------------
-----------------------------
		Lost at Page
-----------------------------
depth 0: 0
depth 1: 248234
depth 2: 394558
depth 3: 511827
depth 4: 597516
depth 5: 692427
depth 6: 743293
depth 7: 722103
depth 8: 593505
depth 9: 472506
depth 10: 346370
depth 11: 217786
depth 12: 120033
depth 13: 35969
depth 14: 472
depth 15: 496
depth 16: 0
depth 17: 0
depth 18: 0
depth 19: 0
depth 20: 0
depth 21: 0
depth 22: 0
depth 23: 0
depth 24: 0
depth 25: 0
depth 26: 0
depth 27: 0
depth 28: 0
depth 29: 0
-----------------------------
-----------------------------
	Lost due to PQ Size
-----------------------------
2348459
-----------------------------
ST read accesses: 7540945
ST write accesses: 232378
PT read accesses: 343093176
PT write accesses: 11202716
FILTER read accesses: 66085855
FILTER write accesses: 12882763
GHR read accesses: 37129821
GHR write accesses: 5602873
GHR counter read accesses: 288292282
GHR counter write accesses: 17591174
ST tag read accesses: 3107818821
ST tag write accesses: 78661372
Core_2_LLC_total_access 2272648
Core_2_LLC_total_hit 1452710
Core_2_LLC_total_miss 819938
Core_2_LLC_loads 469153
Core_2_LLC_load_hit 146681
Core_2_LLC_load_miss 322472
Core_2_LLC_RFOs 132448
Core_2_LLC_RFO_hit 814
Core_2_LLC_RFO_miss 131634
Core_2_LLC_prefetches 1239303
Core_2_LLC_prefetch_hit 880777
Core_2_LLC_prefetch_miss 358526
Core_2_LLC_writebacks 431744
Core_2_LLC_writeback_hit 424438
Core_2_LLC_writeback_miss 7306


CPU 3 cumulative IPC: 0.65719 instructions: 98000003 cycles: 149120399
Core_3_L1D_total_access 23800700
Core_3_L1D_total_hit 21732810
Core_3_L1D_total_miss 2067890
Core_3_L1D_loads 20948059
Core_3_L1D_load_hit 19034241
Core_3_L1D_load_miss 1913818
Core_3_L1D_RFOs 2852641
Core_3_L1D_RFO_hit 2698569
Core_3_L1D_RFO_miss 154072
Core_3_L1D_prefetches 0
Core_3_L1D_prefetch_hit 0
Core_3_L1D_prefetch_miss 0
Core_3_L1D_writebacks 0
Core_3_L1D_writeback_hit 0
Core_3_L1D_writeback_miss 0

Core_3_L1I_total_access 12753444
Core_3_L1I_total_hit 12748666
Core_3_L1I_total_miss 4778
Core_3_L1I_loads 12753444
Core_3_L1I_load_hit 12748666
Core_3_L1I_load_miss 4778
Core_3_L1I_RFOs 0
Core_3_L1I_RFO_hit 0
Core_3_L1I_RFO_miss 0
Core_3_L1I_prefetches 0
Core_3_L1I_prefetch_hit 0
Core_3_L1I_prefetch_miss 0
Core_3_L1I_writebacks 0
Core_3_L1I_writeback_hit 0
Core_3_L1I_writeback_miss 0

Core_3_L2C_total_access 10288255
Core_3_L2C_total_hit 9481016
Core_3_L2C_total_miss 807239
Core_3_L2C_loads 1918575
Core_3_L2C_load_hit 1307769
Core_3_L2C_load_miss 610806
Core_3_L2C_RFOs 154055
Core_3_L2C_RFO_hit 21624
Core_3_L2C_RFO_miss 132431
Core_3_L2C_prefetches 7538210
Core_3_L2C_prefetch_hit 7474212
Core_3_L2C_prefetch_miss 63998
Core_3_L2C_writebacks 677415
Core_3_L2C_writeback_hit 677411
Core_3_L2C_writeback_miss 4

 All Calls: 7943689
 Critical Calls: 7943689
------------------
Depth Distribution
------------------
depth 0: 0
depth 1: 7352622
depth 2: 6966043
depth 3: 6601837
depth 4: 6301650
depth 5: 5977260
depth 6: 5586858
depth 7: 4757667
depth 8: 3603729
depth 9: 2574639
depth 10: 1687535
depth 11: 960643
depth 12: 469135
depth 13: 129469
depth 14: 1464
depth 15: 1433
depth 16: 0
depth 17: 0
depth 18: 0
depth 19: 0
depth 20: 0
depth 21: 0
depth 22: 0
depth 23: 0
depth 24: 0
depth 25: 0
depth 26: 0
depth 27: 0
depth 28: 0
depth 29: 0
Total: 52971984
-----------------------------
-----------------------------
	Captured at Filter
-----------------------------
depth 0: 0
depth 1: 112659
depth 2: 104727
depth 3: 104247
depth 4: 85754
depth 5: 79764
depth 6: 74763
depth 7: 62763
depth 8: 43189
depth 9: 29982
depth 10: 18938
depth 11: 10328
depth 12: 4934
depth 13: 1115
depth 14: 15
depth 15: 10
depth 16: 0
depth 17: 0
depth 18: 0
depth 19: 0
depth 20: 0
depth 21: 0
depth 22: 0
depth 23: 0
depth 24: 0
depth 25: 0
depth 26: 0
depth 27: 0
depth 28: 0
depth 29: 0
-----------------------------
-----------------------------
		Lost at Page
-----------------------------
depth 0: 0
depth 1: 248234
depth 2: 394558
depth 3: 511827
depth 4: 597516
depth 5: 692427
depth 6: 743293
depth 7: 722103
depth 8: 593505
depth 9: 472506
depth 10: 346370
depth 11: 217786
depth 12: 120033
depth 13: 35969
depth 14: 472
depth 15: 496
depth 16: 0
depth 17: 0
depth 18: 0
depth 19: 0
depth 20: 0
depth 21: 0
depth 22: 0
depth 23: 0
depth 24: 0
depth 25: 0
depth 26: 0
depth 27: 0
depth 28: 0
depth 29: 0
-----------------------------
-----------------------------
	Lost due to PQ Size
-----------------------------
2348459
-----------------------------
ST read accesses: 7540945
ST write accesses: 232378
PT read accesses: 343093176
PT write accesses: 11202716
FILTER read accesses: 66085855
FILTER write accesses: 12882763
GHR read accesses: 37129821
GHR write accesses: 5602873
GHR counter read accesses: 288292282
GHR counter write accesses: 17591174
ST tag read accesses: 3107818821
ST tag write accesses: 78661372
Core_3_LLC_total_access 2259901
Core_3_LLC_total_hit 1444197
Core_3_LLC_total_miss 815704
Core_3_LLC_loads 465723
Core_3_LLC_load_hit 145410
Core_3_LLC_load_miss 320313
Core_3_LLC_RFOs 132431
Core_3_LLC_RFO_hit 778
Core_3_LLC_RFO_miss 131653
Core_3_LLC_prefetches 1230307
Core_3_LLC_prefetch_hit 873160
Core_3_LLC_prefetch_miss 357147
Core_3_LLC_writebacks 431440
Core_3_LLC_writeback_hit 424849
Core_3_LLC_writeback_miss 6591


[ROI Statistics]
Core_0_instructions 98000003
Core_0_cycles 148764359
Core_0_IPC 0.65876

Core_0_branch_prediction_accuracy 98.32188
Core_0_branch_MPKI 0.51132
Core_0_average_ROB_occupancy_at_mispredict 436.65906

Core_0_L1D_total_access 23801536
Core_0_L1D_total_hit 21733646 L1D_total_Hit Ratio: 0.91312
Core_0_L1D_total_miss 2067890
Core_0_L1D_loads 20948493
Core_0_L1D_load_hit 19034592 L1D_load_Hit Ratio: 0.90864
Core_0_L1D_load_miss 1913901
Core_0_L1D_RFOs 2853043
Core_0_L1D_RFO_hit 2699054 L1D_RFO_Hit Ratio: 0.94603
Core_0_L1D_RFO_miss 153989
Core_0_L1D_prefetches 0
Core_0_L1D_prefetch_hit 0 L1D_prefetch_Hit Ratio: -nan
Core_0_L1D_prefetch_miss 0
Core_0_L1D_writebacks 0
Core_0_L1D_writeback_hit 0 L1D_writeback_Hit Ratio: -nan
Core_0_L1D_writeback_miss 0
Core_0_L1D_prefetch_requested 0
Core_0_L1D_prefetch_issued 0
Core_0_L1D_prefetch_useful 0 L1D_Useful Ratio: -nan
Core_0_L1D_prefetch_useless 0
Core_0_L1D_prefetch_late 0
Core_0_L1D_average_miss_latency 264.39505

Core_0_L1I_total_access 12754970
Core_0_L1I_total_hit 12750196 L1I_total_Hit Ratio: 0.99963
Core_0_L1I_total_miss 4774
Core_0_L1I_loads 12754970
Core_0_L1I_load_hit 12750196 L1I_load_Hit Ratio: 0.99963
Core_0_L1I_load_miss 4774
Core_0_L1I_RFOs 0
Core_0_L1I_RFO_hit 0 L1I_RFO_Hit Ratio: -nan
Core_0_L1I_RFO_miss 0
Core_0_L1I_prefetches 0
Core_0_L1I_prefetch_hit 0 L1I_prefetch_Hit Ratio: -nan
Core_0_L1I_prefetch_miss 0
Core_0_L1I_writebacks 0
Core_0_L1I_writeback_hit 0 L1I_writeback_Hit Ratio: -nan
Core_0_L1I_writeback_miss 0
Core_0_L1I_prefetch_requested 0
Core_0_L1I_prefetch_issued 0
Core_0_L1I_prefetch_useful 0 L1I_Useful Ratio: -nan
Core_0_L1I_prefetch_useless 0
Core_0_L1I_prefetch_late 0
Core_0_L1I_average_miss_latency 1163.69062

Core_0_L2C_total_access 10285644
Core_0_L2C_total_hit 9477700 L2C_total_Hit Ratio: 0.92145
Core_0_L2C_total_miss 807944
Core_0_L2C_loads 1918651
Core_0_L2C_load_hit 1307483 L2C_load_Hit Ratio: 0.68146
Core_0_L2C_load_miss 611168
Core_0_L2C_RFOs 153963
Core_0_L2C_RFO_hit 21038 L2C_RFO_Hit Ratio: 0.13664
Core_0_L2C_RFO_miss 132925
Core_0_L2C_prefetches 7535615
Core_0_L2C_prefetch_hit 7471773 L2C_prefetch_Hit Ratio: 0.99153
Core_0_L2C_prefetch_miss 63842
Core_0_L2C_writebacks 677415
Core_0_L2C_writeback_hit 677406 L2C_writeback_Hit Ratio: 0.99999
Core_0_L2C_writeback_miss 9
Core_0_L2C_prefetch_requested 13741492
Core_0_L2C_prefetch_issued 13160186
Core_0_L2C_prefetch_useful 65004 L2C_Useful Ratio: 0.00494
Core_0_L2C_prefetch_useless 244
Core_0_L2C_prefetch_late 144001
Core_0_L2C_average_miss_latency 657.27946

Core_0_LLC_total_access 2270685
Core_0_LLC_total_hit 1453836 LLC_total_Hit Ratio: 0.64026
Core_0_LLC_total_miss 816849
Core_0_LLC_loads 467570
Core_0_LLC_load_hit 147009 LLC_load_Hit Ratio: 0.31441
Core_0_LLC_load_miss 320561
Core_0_LLC_RFOs 132925
Core_0_LLC_RFO_hit 1299 LLC_RFO_Hit Ratio: 0.00977
Core_0_LLC_RFO_miss 131626
Core_0_LLC_prefetches 1238217
Core_0_LLC_prefetch_hit 881158 LLC_prefetch_Hit Ratio: 0.71163
Core_0_LLC_prefetch_miss 357059
Core_0_LLC_writebacks 431973
Core_0_LLC_writeback_hit 424370 LLC_writeback_Hit Ratio: 0.98240
Core_0_LLC_writeback_miss 7603
Core_0_LLC_prefetch_requested 0
Core_0_LLC_prefetch_issued 0
Core_0_LLC_prefetch_useful 606238 LLC_Useful Ratio: inf
Core_0_LLC_prefetch_useless 827448
Core_0_LLC_prefetch_late 511954
Core_0_LLC_average_miss_latency 3312.05091

Core_0_major_page_fault 0
Core_0_minor_page_fault 7594

Core_1_instructions 98000004
Core_1_cycles 146883516
Core_1_IPC 0.66720

Core_1_branch_prediction_accuracy 98.31187
Core_1_branch_MPKI 0.50775
Core_1_average_ROB_occupancy_at_mispredict 440.53897

Core_1_L1D_total_access 23800052
Core_1_L1D_total_hit 21732060 L1D_total_Hit Ratio: 0.91311
Core_1_L1D_total_miss 2067992
Core_1_L1D_loads 20947607
Core_1_L1D_load_hit 19033742 L1D_load_Hit Ratio: 0.90864
Core_1_L1D_load_miss 1913865
Core_1_L1D_RFOs 2852445
Core_1_L1D_RFO_hit 2698318 L1D_RFO_Hit Ratio: 0.94597
Core_1_L1D_RFO_miss 154127
Core_1_L1D_prefetches 0
Core_1_L1D_prefetch_hit 0 L1D_prefetch_Hit Ratio: -nan
Core_1_L1D_prefetch_miss 0
Core_1_L1D_writebacks 0
Core_1_L1D_writeback_hit 0 L1D_writeback_Hit Ratio: -nan
Core_1_L1D_writeback_miss 0
Core_1_L1D_prefetch_requested 0
Core_1_L1D_prefetch_issued 0
Core_1_L1D_prefetch_useful 0 L1D_Useful Ratio: -nan
Core_1_L1D_prefetch_useless 0
Core_1_L1D_prefetch_late 0
Core_1_L1D_average_miss_latency 257.86781

Core_1_L1I_total_access 12752042
Core_1_L1I_total_hit 12747264 L1I_total_Hit Ratio: 0.99963
Core_1_L1I_total_miss 4778
Core_1_L1I_loads 12752042
Core_1_L1I_load_hit 12747264 L1I_load_Hit Ratio: 0.99963
Core_1_L1I_load_miss 4778
Core_1_L1I_RFOs 0
Core_1_L1I_RFO_hit 0 L1I_RFO_Hit Ratio: -nan
Core_1_L1I_RFO_miss 0
Core_1_L1I_prefetches 0
Core_1_L1I_prefetch_hit 0 L1I_prefetch_Hit Ratio: -nan
Core_1_L1I_prefetch_miss 0
Core_1_L1I_writebacks 0
Core_1_L1I_writeback_hit 0 L1I_writeback_Hit Ratio: -nan
Core_1_L1I_writeback_miss 0
Core_1_L1I_prefetch_requested 0
Core_1_L1I_prefetch_issued 0
Core_1_L1I_prefetch_useful 0 L1I_Useful Ratio: -nan
Core_1_L1I_prefetch_useless 0
Core_1_L1I_prefetch_late 0
Core_1_L1I_average_miss_latency 946.92361

Core_1_L2C_total_access 10293549
Core_1_L2C_total_hit 9487065 L2C_total_Hit Ratio: 0.92165
Core_1_L2C_total_miss 806484
Core_1_L2C_loads 1918618
Core_1_L2C_load_hit 1307439 L2C_load_Hit Ratio: 0.68145
Core_1_L2C_load_miss 611179
Core_1_L2C_RFOs 154102
Core_1_L2C_RFO_hit 21679 L2C_RFO_Hit Ratio: 0.14068
Core_1_L2C_RFO_miss 132423
Core_1_L2C_prefetches 7543301
Core_1_L2C_prefetch_hit 7480462 L2C_prefetch_Hit Ratio: 0.99167
Core_1_L2C_prefetch_miss 62839
Core_1_L2C_writebacks 677528
Core_1_L2C_writeback_hit 677485 L2C_writeback_Hit Ratio: 0.99994
Core_1_L2C_writeback_miss 43
Core_1_L2C_prefetch_requested 14131563
Core_1_L2C_prefetch_issued 13523206
Core_1_L2C_prefetch_useful 64527 L2C_Useful Ratio: 0.00477
Core_1_L2C_prefetch_useless 268
Core_1_L2C_prefetch_late 146003
Core_1_L2C_average_miss_latency 639.23281

Core_1_LLC_total_access 2262834
Core_1_LLC_total_hit 1446085 LLC_total_Hit Ratio: 0.63906
Core_1_LLC_total_miss 816749
Core_1_LLC_loads 467764
Core_1_LLC_load_hit 146653 LLC_load_Hit Ratio: 0.31352
Core_1_LLC_load_miss 321111
Core_1_LLC_RFOs 132423
Core_1_LLC_RFO_hit 803 LLC_RFO_Hit Ratio: 0.00606
Core_1_LLC_RFO_miss 131620
Core_1_LLC_prefetches 1231780
Core_1_LLC_prefetch_hit 874953 LLC_prefetch_Hit Ratio: 0.71032
Core_1_LLC_prefetch_miss 356827
Core_1_LLC_writebacks 430867
Core_1_LLC_writeback_hit 423676 LLC_writeback_Hit Ratio: 0.98331
Core_1_LLC_writeback_miss 7191
Core_1_LLC_prefetch_requested 0
Core_1_LLC_prefetch_issued 0
Core_1_LLC_prefetch_useful 606238 LLC_Useful Ratio: inf
Core_1_LLC_prefetch_useless 827448
Core_1_LLC_prefetch_late 511954
Core_1_LLC_average_miss_latency 3312.45642

Core_1_major_page_fault 0
Core_1_minor_page_fault 7674

Core_2_instructions 98000003
Core_2_cycles 148580293
Core_2_IPC 0.65958

Core_2_branch_prediction_accuracy 98.32224
Core_2_branch_MPKI 0.51115
Core_2_average_ROB_occupancy_at_mispredict 436.94282

Core_2_L1D_total_access 23801993
Core_2_L1D_total_hit 21734046 L1D_total_Hit Ratio: 0.91312
Core_2_L1D_total_miss 2067947
Core_2_L1D_loads 20949485
Core_2_L1D_load_hit 19035580 L1D_load_Hit Ratio: 0.90864
Core_2_L1D_load_miss 1913905
Core_2_L1D_RFOs 2852508
Core_2_L1D_RFO_hit 2698466 L1D_RFO_Hit Ratio: 0.94600
Core_2_L1D_RFO_miss 154042
Core_2_L1D_prefetches 0
Core_2_L1D_prefetch_hit 0 L1D_prefetch_Hit Ratio: -nan
Core_2_L1D_prefetch_miss 0
Core_2_L1D_writebacks 0
Core_2_L1D_writeback_hit 0 L1D_writeback_Hit Ratio: -nan
Core_2_L1D_writeback_miss 0
Core_2_L1D_prefetch_requested 0
Core_2_L1D_prefetch_issued 0
Core_2_L1D_prefetch_useful 0 L1D_Useful Ratio: -nan
Core_2_L1D_prefetch_useless 0
Core_2_L1D_prefetch_late 0
Core_2_L1D_average_miss_latency 263.68566

Core_2_L1I_total_access 12757928
Core_2_L1I_total_hit 12753153 L1I_total_Hit Ratio: 0.99963
Core_2_L1I_total_miss 4775
Core_2_L1I_loads 12757928
Core_2_L1I_load_hit 12753153 L1I_load_Hit Ratio: 0.99963
Core_2_L1I_load_miss 4775
Core_2_L1I_RFOs 0
Core_2_L1I_RFO_hit 0 L1I_RFO_Hit Ratio: -nan
Core_2_L1I_RFO_miss 0
Core_2_L1I_prefetches 0
Core_2_L1I_prefetch_hit 0 L1I_prefetch_Hit Ratio: -nan
Core_2_L1I_prefetch_miss 0
Core_2_L1I_writebacks 0
Core_2_L1I_writeback_hit 0 L1I_writeback_Hit Ratio: -nan
Core_2_L1I_writeback_miss 0
Core_2_L1I_prefetch_requested 0
Core_2_L1I_prefetch_issued 0
Core_2_L1I_prefetch_useful 0 L1I_Useful Ratio: -nan
Core_2_L1I_prefetch_useless 0
Core_2_L1I_prefetch_late 0
Core_2_L1I_average_miss_latency 1076.05257

Core_2_L2C_total_access 10279130
Core_2_L2C_total_hit 9472801 L2C_total_Hit Ratio: 0.92156
Core_2_L2C_total_miss 806329
Core_2_L2C_loads 1918658
Core_2_L2C_load_hit 1308634 L2C_load_Hit Ratio: 0.68206
Core_2_L2C_load_miss 610024
Core_2_L2C_RFOs 154016
Core_2_L2C_RFO_hit 21573 L2C_RFO_Hit Ratio: 0.14007
Core_2_L2C_RFO_miss 132443
Core_2_L2C_prefetches 7528978
Core_2_L2C_prefetch_hit 7465121 L2C_prefetch_Hit Ratio: 0.99152
Core_2_L2C_prefetch_miss 63857
Core_2_L2C_writebacks 677478
Core_2_L2C_writeback_hit 677473 L2C_writeback_Hit Ratio: 0.99999
Core_2_L2C_writeback_miss 5
Core_2_L2C_prefetch_requested 13791207
Core_2_L2C_prefetch_issued 13204174
Core_2_L2C_prefetch_useful 65185 L2C_Useful Ratio: 0.00494
Core_2_L2C_prefetch_useless 248
Core_2_L2C_prefetch_late 144293
Core_2_L2C_average_miss_latency 656.06506

Core_2_LLC_total_access 2267208
Core_2_LLC_total_hit 1450559 LLC_total_Hit Ratio: 0.63980
Core_2_LLC_total_miss 816649
Core_2_LLC_loads 466388
Core_2_LLC_load_hit 145766 LLC_load_Hit Ratio: 0.31254
Core_2_LLC_load_miss 320622
Core_2_LLC_RFOs 132443
Core_2_LLC_RFO_hit 809 LLC_RFO_Hit Ratio: 0.00611
Core_2_LLC_RFO_miss 131634
Core_2_LLC_prefetches 1237295
Core_2_LLC_prefetch_hit 880208 LLC_prefetch_Hit Ratio: 0.71140
Core_2_LLC_prefetch_miss 357087
Core_2_LLC_writebacks 431082
Core_2_LLC_writeback_hit 423776 LLC_writeback_Hit Ratio: 0.98305
Core_2_LLC_writeback_miss 7306
Core_2_LLC_prefetch_requested 0
Core_2_LLC_prefetch_issued 0
Core_2_LLC_prefetch_useful 606238 LLC_Useful Ratio: inf
Core_2_LLC_prefetch_useless 827448
Core_2_LLC_prefetch_late 511954
Core_2_LLC_average_miss_latency 3312.86204

Core_2_major_page_fault 0
Core_2_minor_page_fault 7594

Core_3_instructions 98000003
Core_3_cycles 149120399
Core_3_IPC 0.65719

Core_3_branch_prediction_accuracy 98.32534
Core_3_branch_MPKI 0.51239
Core_3_average_ROB_occupancy_at_mispredict 435.73490

Core_3_L1D_total_access 23800700
Core_3_L1D_total_hit 21732810 L1D_total_Hit Ratio: 0.91312
Core_3_L1D_total_miss 2067890
Core_3_L1D_loads 20948059
Core_3_L1D_load_hit 19034241 L1D_load_Hit Ratio: 0.90864
Core_3_L1D_load_miss 1913818
Core_3_L1D_RFOs 2852641
Core_3_L1D_RFO_hit 2698569 L1D_RFO_Hit Ratio: 0.94599
Core_3_L1D_RFO_miss 154072
Core_3_L1D_prefetches 0
Core_3_L1D_prefetch_hit 0 L1D_prefetch_Hit Ratio: -nan
Core_3_L1D_prefetch_miss 0
Core_3_L1D_writebacks 0
Core_3_L1D_writeback_hit 0 L1D_writeback_Hit Ratio: -nan
Core_3_L1D_writeback_miss 0
Core_3_L1D_prefetch_requested 0
Core_3_L1D_prefetch_issued 0
Core_3_L1D_prefetch_useful 0 L1D_Useful Ratio: -nan
Core_3_L1D_prefetch_useless 0
Core_3_L1D_prefetch_late 0
Core_3_L1D_average_miss_latency 264.25822

Core_3_L1I_total_access 12753444
Core_3_L1I_total_hit 12748666 L1I_total_Hit Ratio: 0.99963
Core_3_L1I_total_miss 4778
Core_3_L1I_loads 12753444
Core_3_L1I_load_hit 12748666 L1I_load_Hit Ratio: 0.99963
Core_3_L1I_load_miss 4778
Core_3_L1I_RFOs 0
Core_3_L1I_RFO_hit 0 L1I_RFO_Hit Ratio: -nan
Core_3_L1I_RFO_miss 0
Core_3_L1I_prefetches 0
Core_3_L1I_prefetch_hit 0 L1I_prefetch_Hit Ratio: -nan
Core_3_L1I_prefetch_miss 0
Core_3_L1I_writebacks 0
Core_3_L1I_writeback_hit 0 L1I_writeback_Hit Ratio: -nan
Core_3_L1I_writeback_miss 0
Core_3_L1I_prefetch_requested 0
Core_3_L1I_prefetch_issued 0
Core_3_L1I_prefetch_useful 0 L1I_Useful Ratio: -nan
Core_3_L1I_prefetch_useless 0
Core_3_L1I_prefetch_late 0
Core_3_L1I_average_miss_latency 1199.96714

Core_3_L2C_total_access 10288255
Core_3_L2C_total_hit 9481016 L2C_total_Hit Ratio: 0.92154
Core_3_L2C_total_miss 807239
Core_3_L2C_loads 1918575
Core_3_L2C_load_hit 1307769 L2C_load_Hit Ratio: 0.68164
Core_3_L2C_load_miss 610806
Core_3_L2C_RFOs 154055
Core_3_L2C_RFO_hit 21624 L2C_RFO_Hit Ratio: 0.14037
Core_3_L2C_RFO_miss 132431
Core_3_L2C_prefetches 7538210
Core_3_L2C_prefetch_hit 7474212 L2C_prefetch_Hit Ratio: 0.99151
Core_3_L2C_prefetch_miss 63998
Core_3_L2C_writebacks 677415
Core_3_L2C_writeback_hit 677411 L2C_writeback_Hit Ratio: 0.99999
Core_3_L2C_writeback_miss 4
Core_3_L2C_prefetch_requested 13656181
Core_3_L2C_prefetch_issued 13084418
Core_3_L2C_prefetch_useful 65093 L2C_Useful Ratio: 0.00497
Core_3_L2C_prefetch_useless 254
Core_3_L2C_prefetch_late 145224
Core_3_L2C_average_miss_latency 657.91018

Core_3_LLC_total_access 2259901
Core_3_LLC_total_hit 1444197 LLC_total_Hit Ratio: 0.63905
Core_3_LLC_total_miss 815704
Core_3_LLC_loads 465723
Core_3_LLC_load_hit 145410 LLC_load_Hit Ratio: 0.31222
Core_3_LLC_load_miss 320313
Core_3_LLC_RFOs 132431
Core_3_LLC_RFO_hit 778 LLC_RFO_Hit Ratio: 0.00587
Core_3_LLC_RFO_miss 131653
Core_3_LLC_prefetches 1230307
Core_3_LLC_prefetch_hit 873160 LLC_prefetch_Hit Ratio: 0.70971
Core_3_LLC_prefetch_miss 357147
Core_3_LLC_writebacks 431440
Core_3_LLC_writeback_hit 424849 LLC_writeback_Hit Ratio: 0.98472
Core_3_LLC_writeback_miss 6591
Core_3_LLC_prefetch_requested 0
Core_3_LLC_prefetch_issued 0
Core_3_LLC_prefetch_useful 606238 LLC_Useful Ratio: inf
Core_3_LLC_prefetch_useless 827448
Core_3_LLC_prefetch_late 511954
Core_3_LLC_average_miss_latency 3316.70002

Core_3_major_page_fault 0
Core_3_minor_page_fault 7592

 All Calls: 7943689
 Critical Calls: 7943689
------------------
Depth Distribution
------------------
depth 0: 0
depth 1: 7352622
depth 2: 6966043
depth 3: 6601837
depth 4: 6301650
depth 5: 5977260
depth 6: 5586858
depth 7: 4757667
depth 8: 3603729
depth 9: 2574639
depth 10: 1687535
depth 11: 960643
depth 12: 469135
depth 13: 129469
depth 14: 1464
depth 15: 1433
depth 16: 0
depth 17: 0
depth 18: 0
depth 19: 0
depth 20: 0
depth 21: 0
depth 22: 0
depth 23: 0
depth 24: 0
depth 25: 0
depth 26: 0
depth 27: 0
depth 28: 0
depth 29: 0
Total: 52971984
-----------------------------
-----------------------------
	Captured at Filter
-----------------------------
depth 0: 0
depth 1: 112659
depth 2: 104727
depth 3: 104247
depth 4: 85754
depth 5: 79764
depth 6: 74763
depth 7: 62763
depth 8: 43189
depth 9: 29982
depth 10: 18938
depth 11: 10328
depth 12: 4934
depth 13: 1115
depth 14: 15
depth 15: 10
depth 16: 0
depth 17: 0
depth 18: 0
depth 19: 0
depth 20: 0
depth 21: 0
depth 22: 0
depth 23: 0
depth 24: 0
depth 25: 0
depth 26: 0
depth 27: 0
depth 28: 0
depth 29: 0
-----------------------------
-----------------------------
		Lost at Page
-----------------------------
depth 0: 0
depth 1: 248234
depth 2: 394558
depth 3: 511827
depth 4: 597516
depth 5: 692427
depth 6: 743293
depth 7: 722103
depth 8: 593505
depth 9: 472506
depth 10: 346370
depth 11: 217786
depth 12: 120033
depth 13: 35969
depth 14: 472
depth 15: 496
depth 16: 0
depth 17: 0
depth 18: 0
depth 19: 0
depth 20: 0
depth 21: 0
depth 22: 0
depth 23: 0
depth 24: 0
depth 25: 0
depth 26: 0
depth 27: 0
depth 28: 0
depth 29: 0
-----------------------------
-----------------------------
	Lost due to PQ Size
-----------------------------
2348459
-----------------------------
ST read accesses: 7540945
ST write accesses: 232378
PT read accesses: 343093176
PT write accesses: 11202716
FILTER read accesses: 66085855
FILTER write accesses: 12882763
GHR read accesses: 37129821
GHR write accesses: 5602873
GHR counter read accesses: 288292282
GHR counter write accesses: 17591174
ST tag read accesses: 3107818821
ST tag write accesses: 78661372
 All Calls: 7943689
 Critical Calls: 7943689
------------------
Depth Distribution
------------------
depth 0: 0
depth 1: 7352622
depth 2: 6966043
depth 3: 6601837
depth 4: 6301650
depth 5: 5977260
depth 6: 5586858
depth 7: 4757667
depth 8: 3603729
depth 9: 2574639
depth 10: 1687535
depth 11: 960643
depth 12: 469135
depth 13: 129469
depth 14: 1464
depth 15: 1433
depth 16: 0
depth 17: 0
depth 18: 0
depth 19: 0
depth 20: 0
depth 21: 0
depth 22: 0
depth 23: 0
depth 24: 0
depth 25: 0
depth 26: 0
depth 27: 0
depth 28: 0
depth 29: 0
Total: 52971984
-----------------------------
-----------------------------
	Captured at Filter
-----------------------------
depth 0: 0
depth 1: 112659
depth 2: 104727
depth 3: 104247
depth 4: 85754
depth 5: 79764
depth 6: 74763
depth 7: 62763
depth 8: 43189
depth 9: 29982
depth 10: 18938
depth 11: 10328
depth 12: 4934
depth 13: 1115
depth 14: 15
depth 15: 10
depth 16: 0
depth 17: 0
depth 18: 0
depth 19: 0
depth 20: 0
depth 21: 0
depth 22: 0
depth 23: 0
depth 24: 0
depth 25: 0
depth 26: 0
depth 27: 0
depth 28: 0
depth 29: 0
-----------------------------
-----------------------------
		Lost at Page
-----------------------------
depth 0: 0
depth 1: 248234
depth 2: 394558
depth 3: 511827
depth 4: 597516
depth 5: 692427
depth 6: 743293
depth 7: 722103
depth 8: 593505
depth 9: 472506
depth 10: 346370
depth 11: 217786
depth 12: 120033
depth 13: 35969
depth 14: 472
depth 15: 496
depth 16: 0
depth 17: 0
depth 18: 0
depth 19: 0
depth 20: 0
depth 21: 0
depth 22: 0
depth 23: 0
depth 24: 0
depth 25: 0
depth 26: 0
depth 27: 0
depth 28: 0
depth 29: 0
-----------------------------
-----------------------------
	Lost due to PQ Size
-----------------------------
2348459
-----------------------------
ST read accesses: 7540945
ST write accesses: 232378
PT read accesses: 343093176
PT write accesses: 11202716
FILTER read accesses: 66085855
FILTER write accesses: 12882763
GHR read accesses: 37129821
GHR write accesses: 5602873
GHR counter read accesses: 288292282
GHR counter write accesses: 17591174
ST tag read accesses: 3107818821
ST tag write accesses: 78661372
 All Calls: 7943689
 Critical Calls: 7943689
------------------
Depth Distribution
------------------
depth 0: 0
depth 1: 7352622
depth 2: 6966043
depth 3: 6601837
depth 4: 6301650
depth 5: 5977260
depth 6: 5586858
depth 7: 4757667
depth 8: 3603729
depth 9: 2574639
depth 10: 1687535
depth 11: 960643
depth 12: 469135
depth 13: 129469
depth 14: 1464
depth 15: 1433
depth 16: 0
depth 17: 0
depth 18: 0
depth 19: 0
depth 20: 0
depth 21: 0
depth 22: 0
depth 23: 0
depth 24: 0
depth 25: 0
depth 26: 0
depth 27: 0
depth 28: 0
depth 29: 0
Total: 52971984
-----------------------------
-----------------------------
	Captured at Filter
-----------------------------
depth 0: 0
depth 1: 112659
depth 2: 104727
depth 3: 104247
depth 4: 85754
depth 5: 79764
depth 6: 74763
depth 7: 62763
depth 8: 43189
depth 9: 29982
depth 10: 18938
depth 11: 10328
depth 12: 4934
depth 13: 1115
depth 14: 15
depth 15: 10
depth 16: 0
depth 17: 0
depth 18: 0
depth 19: 0
depth 20: 0
depth 21: 0
depth 22: 0
depth 23: 0
depth 24: 0
depth 25: 0
depth 26: 0
depth 27: 0
depth 28: 0
depth 29: 0
-----------------------------
-----------------------------
		Lost at Page
-----------------------------
depth 0: 0
depth 1: 248234
depth 2: 394558
depth 3: 511827
depth 4: 597516
depth 5: 692427
depth 6: 743293
depth 7: 722103
depth 8: 593505
depth 9: 472506
depth 10: 346370
depth 11: 217786
depth 12: 120033
depth 13: 35969
depth 14: 472
depth 15: 496
depth 16: 0
depth 17: 0
depth 18: 0
depth 19: 0
depth 20: 0
depth 21: 0
depth 22: 0
depth 23: 0
depth 24: 0
depth 25: 0
depth 26: 0
depth 27: 0
depth 28: 0
depth 29: 0
-----------------------------
-----------------------------
	Lost due to PQ Size
-----------------------------
2348459
-----------------------------
ST read accesses: 7540945
ST write accesses: 232378
PT read accesses: 343093176
PT write accesses: 11202716
FILTER read accesses: 66085855
FILTER write accesses: 12882763
GHR read accesses: 37129821
GHR write accesses: 5602873
GHR counter read accesses: 288292282
GHR counter write accesses: 17591174
ST tag read accesses: 3107818821
ST tag write accesses: 78661372
 All Calls: 7943689
 Critical Calls: 7943689
------------------
Depth Distribution
------------------
depth 0: 0
depth 1: 7352622
depth 2: 6966043
depth 3: 6601837
depth 4: 6301650
depth 5: 5977260
depth 6: 5586858
depth 7: 4757667
depth 8: 3603729
depth 9: 2574639
depth 10: 1687535
depth 11: 960643
depth 12: 469135
depth 13: 129469
depth 14: 1464
depth 15: 1433
depth 16: 0
depth 17: 0
depth 18: 0
depth 19: 0
depth 20: 0
depth 21: 0
depth 22: 0
depth 23: 0
depth 24: 0
depth 25: 0
depth 26: 0
depth 27: 0
depth 28: 0
depth 29: 0
Total: 52971984
-----------------------------
-----------------------------
	Captured at Filter
-----------------------------
depth 0: 0
depth 1: 112659
depth 2: 104727
depth 3: 104247
depth 4: 85754
depth 5: 79764
depth 6: 74763
depth 7: 62763
depth 8: 43189
depth 9: 29982
depth 10: 18938
depth 11: 10328
depth 12: 4934
depth 13: 1115
depth 14: 15
depth 15: 10
depth 16: 0
depth 17: 0
depth 18: 0
depth 19: 0
depth 20: 0
depth 21: 0
depth 22: 0
depth 23: 0
depth 24: 0
depth 25: 0
depth 26: 0
depth 27: 0
depth 28: 0
depth 29: 0
-----------------------------
-----------------------------
		Lost at Page
-----------------------------
depth 0: 0
depth 1: 248234
depth 2: 394558
depth 3: 511827
depth 4: 597516
depth 5: 692427
depth 6: 743293
depth 7: 722103
depth 8: 593505
depth 9: 472506
depth 10: 346370
depth 11: 217786
depth 12: 120033
depth 13: 35969
depth 14: 472
depth 15: 496
depth 16: 0
depth 17: 0
depth 18: 0
depth 19: 0
depth 20: 0
depth 21: 0
depth 22: 0
depth 23: 0
depth 24: 0
depth 25: 0
depth 26: 0
depth 27: 0
depth 28: 0
depth 29: 0
-----------------------------
-----------------------------
	Lost due to PQ Size
-----------------------------
2348459
-----------------------------
ST read accesses: 7540945
ST write accesses: 232378
PT read accesses: 343093176
PT write accesses: 11202716
FILTER read accesses: 66085855
FILTER write accesses: 12882763
GHR read accesses: 37129821
GHR write accesses: 5602873
GHR counter read accesses: 288292282
GHR counter write accesses: 17591174
ST tag read accesses: 3107818821
ST tag write accesses: 78661372
Channel_0_RQ_row_buffer_hit 1390435
Channel_0_RQ_row_buffer_miss 1865843
Channel_0_WQ_row_buffer_hit 527543
Channel_0_WQ_row_buffer_miss 1173078
Channel_0_WQ_full 1051
Channel_0_dbus_congested 3667307

avg_congested_cycle 11

EzSearch AVG IPC :0.65876: L2-Pf-HR :0.99153 : L2-HR :0.92186 Uful:0.00494
EzSearch AVG IPC :0.66720: L2-Pf-HR :0.99167 : L2-HR :0.92327 Uful:0.00477
EzSearch AVG IPC :0.65958: L2-Pf-HR :0.99152 : L2-HR :0.92210 Uful:0.00494
EzSearch AVG IPC :0.65719: L2-Pf-HR :0.99151 : L2-HR :0.92154 Uful:0.00497
     > Finished combination: TraceType=770-tot Sim:98000000 Prefetcher=L2spp_berti_src L1=no
