TRACE: [496000000][OPT-125M]_[h12][s1024][d64] Warmup: 2000000 NumTraces: 496000000
L1:berti:L2:berti
*************************************************
   ChampSim Multicore Out-of-Order Simulator
   Last compiled: Oct 28 2024 05:56:48
*************************************************

trace_0 770-tot_memTraces_v3/memTraces[496000000][OPT-125M]_[h12][s1024][d64].champsim.xz
trace_1 770-tot_memTraces_v3/memTraces[496000000][OPT-125M]_[h12][s1024][d64].champsim.xz
trace_2 770-tot_memTraces_v3/memTraces[496000000][OPT-125M]_[h12][s1024][d64].champsim.xz
trace_3 770-tot_memTraces_v3/memTraces[496000000][OPT-125M]_[h12][s1024][d64].champsim.xz
CPU 0 L1D Berti prefetcher
CPU 0 L2C Berti prefetcher
CPU 1 L1D Berti prefetcher
CPU 1 L2C Berti prefetcher
CPU 2 L1D Berti prefetcher
CPU 2 L2C Berti prefetcher
CPU 3 L1D Berti prefetcher
CPU 3 L2C Berti prefetcher
MAIN.cc ln 751 stats print skipped
CPU  3 inst:    1000002 cyc:     500764 now IPC :1.99695: AVG IPC :1.99695: L2-Pf-HR :0.63178: L2-HR :0.68195: (Sim:0h0m54s) 
CPU  1 inst:    1000002 cyc:     500864 now IPC :1.99655: AVG IPC :1.99655: L2-Pf-HR :0.63923: L2-HR :0.68587: (Sim:0h0m54s) 
CPU  2 inst:    1000002 cyc:     500952 now IPC :1.99620: AVG IPC :1.99620: L2-Pf-HR :0.63533: L2-HR :0.68311: (Sim:0h0m54s) 
CPU  0 inst:    1000002 cyc:     500981 now IPC :1.99609: AVG IPC :1.99609: L2-Pf-HR :0.63899: L2-HR :0.68547: (Sim:0h0m54s) 
CPU  3 inst:    2000000 cyc:     985306 now IPC :2.06380: AVG IPC :2.02983: L2-Pf-HR :0.68056: L2-HR :0.73215: (Sim:0h1m53s) 
CPU  1 inst:    2000000 cyc:     985414 now IPC :2.06377: AVG IPC :2.02960: L2-Pf-HR :0.68577: L2-HR :0.73500: (Sim:0h1m53s) 
CPU  2 inst:    2000000 cyc:     985487 now IPC :2.06383: AVG IPC :2.02945: L2-Pf-HR :0.68352: L2-HR :0.73322: (Sim:0h1m53s) 
CPU  0 inst:    2000000 cyc:     985491 now IPC :2.06394: AVG IPC :2.02945: L2-Pf-HR :0.68280: L2-HR :0.73340: (Sim:0h1m53s) 

Warmup complete CPU  0 instructions:    2000002 cycles:     985492 (Simulation time: 0 hr 1 min 53 sec) 
Warmup complete CPU  1 instructions:    2000223 cycles:     985491 (Simulation time: 0 hr 1 min 53 sec) 
Warmup complete CPU  2 instructions:    2000011 cycles:     985491 (Simulation time: 0 hr 1 min 53 sec) 
Warmup complete CPU  3 instructions:    2000314 cycles:     985491 (Simulation time: 0 hr 1 min 53 sec) 

CPU  2 inst:    3000000 cyc:    1715014 now IPC :1.37075: AVG IPC :1.37074: L2-Pf-HR :0.77377: L2-HR :0.80465: (Sim:0h2m48s) 
CPU  3 inst:    3000001 cyc:    1715305 now IPC :1.36987: AVG IPC :1.36978: L2-Pf-HR :0.77566: L2-HR :0.80511: (Sim:0h2m48s) 
CPU  0 inst:    3000002 cyc:    1724196 now IPC :1.35372: AVG IPC :1.35372: L2-Pf-HR :0.77576: L2-HR :0.80693: (Sim:0h2m48s) 
CPU  1 inst:    3000002 cyc:    1747895 now IPC :1.31151: AVG IPC :1.31135: L2-Pf-HR :0.76906: L2-HR :0.80181: (Sim:0h2m50s) 
CPU  2 inst:    4000000 cyc:    2488244 now IPC :1.29328: AVG IPC :1.33088: L2-Pf-HR :0.77237: L2-HR :0.80194: (Sim:0h3m42s) 
CPU  3 inst:    4000000 cyc:    2530551 now IPC :1.22662: AVG IPC :1.29424: L2-Pf-HR :0.77728: L2-HR :0.80471: (Sim:0h3m45s) 
CPU  0 inst:    4000000 cyc:    2572687 now IPC :1.17856: AVG IPC :1.26008: L2-Pf-HR :0.77437: L2-HR :0.80436: (Sim:0h3m48s) 
CPU  1 inst:    4000000 cyc:    2582018 now IPC :1.19886: AVG IPC :1.25258: L2-Pf-HR :0.76695: L2-HR :0.79917: (Sim:0h3m49s) 
CPU  2 inst:    5000002 cyc:    3033829 now IPC :1.83290: AVG IPC :1.46460: L2-Pf-HR :0.77091: L2-HR :0.80194: (Sim:0h4m27s) 
CPU  3 inst:    5000002 cyc:    3164992 now IPC :1.57619: AVG IPC :1.37632: L2-Pf-HR :0.77823: L2-HR :0.80551: (Sim:0h4m39s) 
CPU  0 inst:    5000002 cyc:    3255058 now IPC :1.46548: AVG IPC :1.32184: L2-Pf-HR :0.77495: L2-HR :0.80332: (Sim:0h4m48s) 
CPU  1 inst:    5000002 cyc:    3256680 now IPC :1.48223: AVG IPC :1.32080: L2-Pf-HR :0.76763: L2-HR :0.79892: (Sim:0h4m48s) 
CPU  2 inst:    6000001 cyc:    3530510 now IPC :2.01336: AVG IPC :1.57169: L2-Pf-HR :0.77107: L2-HR :0.80399: (Sim:0h5m15s) 
CPU  3 inst:    6000001 cyc:    3666541 now IPC :1.99382: AVG IPC :1.49184: L2-Pf-HR :0.77579: L2-HR :0.80636: (Sim:0h5m28s) 
CPU  1 inst:    6000001 cyc:    3795125 now IPC :1.85720: AVG IPC :1.42359: L2-Pf-HR :0.76856: L2-HR :0.80120: (Sim:0h5m40s) 
CPU  0 inst:    6000001 cyc:    3798110 now IPC :1.84144: AVG IPC :1.42216: L2-Pf-HR :0.77489: L2-HR :0.80502: (Sim:0h5m40s) 
CPU  2 inst:    7000004 cyc:    4279589 now IPC :1.33498: AVG IPC :1.51786: L2-Pf-HR :0.77031: L2-HR :0.79854: (Sim:0h6m13s) 
CPU  3 inst:    7000004 cyc:    4487262 now IPC :1.21844: AVG IPC :1.42776: L2-Pf-HR :0.77392: L2-HR :0.80009: (Sim:0h6m27s) 
CPU  1 inst:    7000004 cyc:    4886403 now IPC :0.91636: AVG IPC :1.28170: L2-Pf-HR :0.76981: L2-HR :0.79777: (Sim:0h6m53s) 
CPU  0 inst:    7000004 cyc:    5144571 now IPC :0.74269: AVG IPC :1.20219: L2-Pf-HR :0.77406: L2-HR :0.79960: (Sim:0h7m11s) 
CPU  2 inst:    8000001 cyc:    5193443 now IPC :1.09426: AVG IPC :1.42587: L2-Pf-HR :0.76996: L2-HR :0.79905: (Sim:0h7m15s) 
CPU  3 inst:    8000001 cyc:    5304728 now IPC :1.22329: AVG IPC :1.38906: L2-Pf-HR :0.77192: L2-HR :0.79929: (Sim:0h7m23s) 
CPU  2 inst:    9000004 cyc:    5886943 now IPC :1.44197: AVG IPC :1.42815: L2-Pf-HR :0.76807: L2-HR :0.79889: (Sim:0h8m5s) 
CPU  1 inst:    8000001 cyc:    6005310 now IPC :0.89373: AVG IPC :1.19522: L2-Pf-HR :0.77185: L2-HR :0.80010: (Sim:0h8m14s) 
CPU  0 inst:    8000001 cyc:    6065016 now IPC :1.08643: AVG IPC :1.18121: L2-Pf-HR :0.77458: L2-HR :0.80139: (Sim:0h8m18s) 
CPU  3 inst:    9000004 cyc:    6201594 now IPC :1.11500: AVG IPC :1.34194: L2-Pf-HR :0.76959: L2-HR :0.79875: (Sim:0h8m28s) 
CPU  2 inst:   10000001 cyc:    6567081 now IPC :1.47029: AVG IPC :1.43328: L2-Pf-HR :0.76743: L2-HR :0.79971: (Sim:0h8m56s) 
CPU  3 inst:   10000002 cyc:    6864147 now IPC :1.50931: AVG IPC :1.36080: L2-Pf-HR :0.76805: L2-HR :0.79885: (Sim:0h9m19s) 
CPU  1 inst:    9000004 cyc:    6944388 now IPC :1.06488: AVG IPC :1.17468: L2-Pf-HR :0.77182: L2-HR :0.80138: (Sim:0h9m25s) 
CPU  0 inst:    9000004 cyc:    7067390 now IPC :0.99763: AVG IPC :1.15096: L2-Pf-HR :0.77532: L2-HR :0.80324: (Sim:0h9m36s) 
CPU  2 inst:   11000003 cyc:    7553110 now IPC :1.01417: AVG IPC :1.37036: L2-Pf-HR :0.76688: L2-HR :0.79987: (Sim:0h10m14s) 
CPU  3 inst:   11000003 cyc:    7574154 now IPC :1.40844: AVG IPC :1.36594: L2-Pf-HR :0.76696: L2-HR :0.79899: (Sim:0h10m16s) 
CPU  1 inst:   10000002 cyc:    7625463 now IPC :1.46826: AVG IPC :1.20479: L2-Pf-HR :0.77238: L2-HR :0.80300: (Sim:0h10m21s) 
CPU  0 inst:   10000002 cyc:    7896076 now IPC :1.20673: AVG IPC :1.15764: L2-Pf-HR :0.77571: L2-HR :0.80482: (Sim:0h10m43s) 
CPU  1 inst:   11000002 cyc:    8253229 now IPC :1.59295: AVG IPC :1.23832: L2-Pf-HR :0.77310: L2-HR :0.80444: (Sim:0h11m17s) 
CPU  2 inst:   12000002 cyc:    8281477 now IPC :1.37293: AVG IPC :1.37062: L2-Pf-HR :0.76664: L2-HR :0.80057: (Sim:0h11m20s) 
CPU  3 inst:   12000002 cyc:    8294024 now IPC :1.38914: AVG IPC :1.36822: L2-Pf-HR :0.76580: L2-HR :0.79939: (Sim:0h11m21s) 
CPU  0 inst:   11000003 cyc:    8630729 now IPC :1.36119: AVG IPC :1.17720: L2-Pf-HR :0.77566: L2-HR :0.80592: (Sim:0h11m46s) 
CPU  1 inst:   12000002 cyc:    8896134 now IPC :1.55544: AVG IPC :1.26409: L2-Pf-HR :0.77484: L2-HR :0.80685: (Sim:0h12m6s) 
CPU  0 inst:   12000002 cyc:    9229831 now IPC :1.66916: AVG IPC :1.21295: L2-Pf-HR :0.77713: L2-HR :0.80840: (Sim:0h12m32s) 
CPU  3 inst:   13000002 cyc:    9270669 now IPC :1.02391: AVG IPC :1.32763: L2-Pf-HR :0.76832: L2-HR :0.80007: (Sim:0h12m34s) 
DEADLOCK! CPU 2 instr_id: 12233116 translated: 2 fetched: 2 scheduled: 2 executed: 1 is_memory: 1 event: 8529868 current: 9529868

Load Queue Entry
[LQ] entry: 0 instr_id: 0 address: 0 translated: 0 fetched: 0
[LQ] entry: 1 instr_id: 0 address: 0 translated: 0 fetched: 0
[LQ] entry: 2 instr_id: 0 address: 0 translated: 0 fetched: 0
[LQ] entry: 3 instr_id: 0 address: 0 translated: 0 fetched: 0
[LQ] entry: 4 instr_id: 0 address: 0 translated: 0 fetched: 0
[LQ] entry: 5 instr_id: 0 address: 0 translated: 0 fetched: 0
[LQ] entry: 6 instr_id: 0 address: 0 translated: 0 fetched: 0
[LQ] entry: 7 instr_id: 0 address: 0 translated: 0 fetched: 0
[LQ] entry: 8 instr_id: 0 address: 0 translated: 0 fetched: 0
[LQ] entry: 9 instr_id: 0 address: 0 translated: 0 fetched: 0
[LQ] entry: 10 instr_id: 0 address: 0 translated: 0 fetched: 0
[LQ] entry: 11 instr_id: 0 address: 0 translated: 0 fetched: 0
[LQ] entry: 12 instr_id: 0 address: 0 translated: 0 fetched: 0
[LQ] entry: 13 instr_id: 0 address: 0 translated: 0 fetched: 0
[LQ] entry: 14 instr_id: 0 address: 0 translated: 0 fetched: 0
[LQ] entry: 15 instr_id: 0 address: 0 translated: 0 fetched: 0
[LQ] entry: 16 instr_id: 0 address: 0 translated: 0 fetched: 0
[LQ] entry: 17 instr_id: 0 address: 0 translated: 0 fetched: 0
[LQ] entry: 18 instr_id: 0 address: 0 translated: 0 fetched: 0
[LQ] entry: 19 instr_id: 0 address: 0 translated: 0 fetched: 0
[LQ] entry: 20 instr_id: 0 address: 0 translated: 0 fetched: 0
[LQ] entry: 21 instr_id: 0 address: 0 translated: 0 fetched: 0
[LQ] entry: 22 instr_id: 0 address: 0 translated: 0 fetched: 0
[LQ] entry: 23 instr_id: 0 address: 0 translated: 0 fetched: 0
[LQ] entry: 24 instr_id: 0 address: 0 translated: 0 fetched: 0
[LQ] entry: 25 instr_id: 12233273 address: c8d28242120 translated: 2 fetched: 0
[LQ] entry: 26 instr_id: 0 address: 0 translated: 0 fetched: 0
[LQ] entry: 27 instr_id: 0 address: 0 translated: 0 fetched: 0
[LQ] entry: 28 instr_id: 12233299 address: c8d28242130 translated: 2 fetched: 0
[LQ] entry: 29 instr_id: 0 address: 0 translated: 0 fetched: 0
[LQ] entry: 30 instr_id: 0 address: 0 translated: 0 fetched: 0
[LQ] entry: 31 instr_id: 0 address: 0 translated: 0 fetched: 0
[LQ] entry: 32 instr_id: 0 address: 0 translated: 0 fetched: 0
[LQ] entry: 33 instr_id: 0 address: 0 translated: 0 fetched: 0
[LQ] entry: 34 instr_id: 0 address: 0 translated: 0 fetched: 0
[LQ] entry: 35 instr_id: 0 address: 0 translated: 0 fetched: 0
[LQ] entry: 36 instr_id: 0 address: 0 translated: 0 fetched: 0
[LQ] entry: 37 instr_id: 0 address: 0 translated: 0 fetched: 0
[LQ] entry: 38 instr_id: 0 address: 0 translated: 0 fetched: 0
[LQ] entry: 39 instr_id: 0 address: 0 translated: 0 fetched: 0
[LQ] entry: 40 instr_id: 0 address: 0 translated: 0 fetched: 0
[LQ] entry: 41 instr_id: 0 address: 0 translated: 0 fetched: 0
[LQ] entry: 42 instr_id: 0 address: 0 translated: 0 fetched: 0
[LQ] entry: 43 instr_id: 0 address: 0 translated: 0 fetched: 0
[LQ] entry: 44 instr_id: 0 address: 0 translated: 0 fetched: 0
[LQ] entry: 45 instr_id: 0 address: 0 translated: 0 fetched: 0
[LQ] entry: 46 instr_id: 0 address: 0 translated: 0 fetched: 0
[LQ] entry: 47 instr_id: 0 address: 0 translated: 0 fetched: 0
[LQ] entry: 48 instr_id: 0 address: 0 translated: 0 fetched: 0
[LQ] entry: 49 instr_id: 0 address: 0 translated: 0 fetched: 0
[LQ] entry: 50 instr_id: 0 address: 0 translated: 0 fetched: 0
[LQ] entry: 51 instr_id: 0 address: 0 translated: 0 fetched: 0
[LQ] entry: 52 instr_id: 0 address: 0 translated: 0 fetched: 0
[LQ] entry: 53 instr_id: 0 address: 0 translated: 0 fetched: 0
[LQ] entry: 54 instr_id: 0 address: 0 translated: 0 fetched: 0
[LQ] entry: 55 instr_id: 0 address: 0 translated: 0 fetched: 0
[LQ] entry: 56 instr_id: 0 address: 0 translated: 0 fetched: 0
[LQ] entry: 57 instr_id: 0 address: 0 translated: 0 fetched: 0
[LQ] entry: 58 instr_id: 0 address: 0 translated: 0 fetched: 0
[LQ] entry: 59 instr_id: 0 address: 0 translated: 0 fetched: 0
[LQ] entry: 60 instr_id: 0 address: 0 translated: 0 fetched: 0
[LQ] entry: 61 instr_id: 0 address: 0 translated: 0 fetched: 0
[LQ] entry: 62 instr_id: 0 address: 0 translated: 0 fetched: 0
[LQ] entry: 63 instr_id: 0 address: 0 translated: 0 fetched: 0
[LQ] entry: 64 instr_id: 0 address: 0 translated: 0 fetched: 0
[LQ] entry: 65 instr_id: 0 address: 0 translated: 0 fetched: 0
[LQ] entry: 66 instr_id: 0 address: 0 translated: 0 fetched: 0
[LQ] entry: 67 instr_id: 0 address: 0 translated: 0 fetched: 0
[LQ] entry: 68 instr_id: 0 address: 0 translated: 0 fetched: 0
[LQ] entry: 69 instr_id: 12233116 address: c8d28242100 translated: 2 fetched: 0
[LQ] entry: 70 instr_id: 0 address: 0 translated: 0 fetched: 0
[LQ] entry: 71 instr_id: 0 address: 0 translated: 0 fetched: 0
[LQ] entry: 72 instr_id: 0 address: 0 translated: 0 fetched: 0
[LQ] entry: 73 instr_id: 0 address: 0 translated: 0 fetched: 0
[LQ] entry: 74 instr_id: 0 address: 0 translated: 0 fetched: 0
[LQ] entry: 75 instr_id: 0 address: 0 translated: 0 fetched: 0
[LQ] entry: 76 instr_id: 0 address: 0 translated: 0 fetched: 0
[LQ] entry: 77 instr_id: 0 address: 0 translated: 0 fetched: 0
[LQ] entry: 78 instr_id: 0 address: 0 translated: 0 fetched: 0
[LQ] entry: 79 instr_id: 0 address: 0 translated: 0 fetched: 0
[LQ] entry: 80 instr_id: 0 address: 0 translated: 0 fetched: 0
[LQ] entry: 81 instr_id: 0 address: 0 translated: 0 fetched: 0
[LQ] entry: 82 instr_id: 0 address: 0 translated: 0 fetched: 0
[LQ] entry: 83 instr_id: 0 address: 0 translated: 0 fetched: 0
[LQ] entry: 84 instr_id: 0 address: 0 translated: 0 fetched: 0
[LQ] entry: 85 instr_id: 0 address: 0 translated: 0 fetched: 0
[LQ] entry: 86 instr_id: 12233142 address: c8d28242110 translated: 2 fetched: 0
[LQ] entry: 87 instr_id: 0 address: 0 translated: 0 fetched: 0
[LQ] entry: 88 instr_id: 0 address: 0 translated: 0 fetched: 0
[LQ] entry: 89 instr_id: 0 address: 0 translated: 0 fetched: 0
[LQ] entry: 90 instr_id: 0 address: 0 translated: 0 fetched: 0
[LQ] entry: 91 instr_id: 0 address: 0 translated: 0 fetched: 0
[LQ] entry: 92 instr_id: 0 address: 0 translated: 0 fetched: 0
[LQ] entry: 93 instr_id: 0 address: 0 translated: 0 fetched: 0
[LQ] entry: 94 instr_id: 0 address: 0 translated: 0 fetched: 0
[LQ] entry: 95 instr_id: 12233168 address: c8d28242120 translated: 2 fetched: 0
[LQ] entry: 96 instr_id: 0 address: 0 translated: 0 fetched: 0
[LQ] entry: 97 instr_id: 0 address: 0 translated: 0 fetched: 0
[LQ] entry: 98 instr_id: 0 address: 0 translated: 0 fetched: 0
[LQ] entry: 99 instr_id: 0 address: 0 translated: 0 fetched: 0
[LQ] entry: 100 instr_id: 0 address: 0 translated: 0 fetched: 0
[LQ] entry: 101 instr_id: 0 address: 0 translated: 0 fetched: 0
[LQ] entry: 102 instr_id: 0 address: 0 translated: 0 fetched: 0
[LQ] entry: 103 instr_id: 0 address: 0 translated: 0 fetched: 0
[LQ] entry: 104 instr_id: 0 address: 0 translated: 0 fetched: 0
[LQ] entry: 105 instr_id: 0 address: 0 translated: 0 fetched: 0
[LQ] entry: 106 instr_id: 0 address: 0 translated: 0 fetched: 0
[LQ] entry: 107 instr_id: 0 address: 0 translated: 0 fetched: 0
[LQ] entry: 108 instr_id: 0 address: 0 translated: 0 fetched: 0
[LQ] entry: 109 instr_id: 0 address: 0 translated: 0 fetched: 0
[LQ] entry: 110 instr_id: 0 address: 0 translated: 0 fetched: 0
[LQ] entry: 111 instr_id: 0 address: 0 translated: 0 fetched: 0
[LQ] entry: 112 instr_id: 12233194 address: c8d28242130 translated: 2 fetched: 0
[LQ] entry: 113 instr_id: 0 address: 0 translated: 0 fetched: 0
[LQ] entry: 114 instr_id: 0 address: 0 translated: 0 fetched: 0
[LQ] entry: 115 instr_id: 0 address: 0 translated: 0 fetched: 0
[LQ] entry: 116 instr_id: 0 address: 0 translated: 0 fetched: 0
[LQ] entry: 117 instr_id: 0 address: 0 translated: 0 fetched: 0
[LQ] entry: 118 instr_id: 0 address: 0 translated: 0 fetched: 0
[LQ] entry: 119 instr_id: 0 address: 0 translated: 0 fetched: 0
[LQ] entry: 120 instr_id: 0 address: 0 translated: 0 fetched: 0
[LQ] entry: 121 instr_id: 0 address: 0 translated: 0 fetched: 0
[LQ] entry: 122 instr_id: 0 address: 0 translated: 0 fetched: 0
[LQ] entry: 123 instr_id: 0 address: 0 translated: 0 fetched: 0
[LQ] entry: 124 instr_id: 0 address: 0 translated: 0 fetched: 0
[LQ] entry: 125 instr_id: 0 address: 0 translated: 0 fetched: 0
[LQ] entry: 126 instr_id: 0 address: 0 translated: 0 fetched: 0
[LQ] entry: 127 instr_id: 0 address: 0 translated: 0 fetched: 0
[LQ] entry: 128 instr_id: 0 address: 0 translated: 0 fetched: 0
[LQ] entry: 129 instr_id: 0 address: 0 translated: 0 fetched: 0
[LQ] entry: 130 instr_id: 12233221 address: c8d28242100 translated: 2 fetched: 0
[LQ] entry: 131 instr_id: 0 address: 0 translated: 0 fetched: 0
[LQ] entry: 132 instr_id: 0 address: 0 translated: 0 fetched: 0
[LQ] entry: 133 instr_id: 0 address: 0 translated: 0 fetched: 0
[LQ] entry: 134 instr_id: 0 address: 0 translated: 0 fetched: 0
[LQ] entry: 135 instr_id: 0 address: 0 translated: 0 fetched: 0
[LQ] entry: 136 instr_id: 0 address: 0 translated: 0 fetched: 0
[LQ] entry: 137 instr_id: 0 address: 0 translated: 0 fetched: 0
[LQ] entry: 138 instr_id: 0 address: 0 translated: 0 fetched: 0
[LQ] entry: 139 instr_id: 0 address: 0 translated: 0 fetched: 0
[LQ] entry: 140 instr_id: 0 address: 0 translated: 0 fetched: 0
[LQ] entry: 141 instr_id: 0 address: 0 translated: 0 fetched: 0
[LQ] entry: 142 instr_id: 0 address: 0 translated: 0 fetched: 0
[LQ] entry: 143 instr_id: 0 address: 0 translated: 0 fetched: 0
[LQ] entry: 144 instr_id: 0 address: 0 translated: 0 fetched: 0
[LQ] entry: 145 instr_id: 0 address: 0 translated: 0 fetched: 0
[LQ] entry: 146 instr_id: 0 address: 0 translated: 0 fetched: 0
[LQ] entry: 147 instr_id: 12233247 address: c8d28242110 translated: 2 fetched: 0

Store Queue Entry
[SQ] entry: 0 instr_id: 0 address: 0 translated: 0 fetched: 0
[SQ] entry: 1 instr_id: 0 address: 0 translated: 0 fetched: 0
[SQ] entry: 2 instr_id: 0 address: 0 translated: 0 fetched: 0
[SQ] entry: 3 instr_id: 0 address: 0 translated: 0 fetched: 0
[SQ] entry: 4 instr_id: 0 address: 0 translated: 0 fetched: 0
[SQ] entry: 5 instr_id: 0 address: 0 translated: 0 fetched: 0
[SQ] entry: 6 instr_id: 0 address: 0 translated: 0 fetched: 0
[SQ] entry: 7 instr_id: 0 address: 0 translated: 0 fetched: 0
[SQ] entry: 8 instr_id: 0 address: 0 translated: 0 fetched: 0
[SQ] entry: 9 instr_id: 0 address: 0 translated: 0 fetched: 0
[SQ] entry: 10 instr_id: 0 address: 0 translated: 0 fetched: 0
[SQ] entry: 11 instr_id: 0 address: 0 translated: 0 fetched: 0
[SQ] entry: 12 instr_id: 0 address: 0 translated: 0 fetched: 0
[SQ] entry: 13 instr_id: 0 address: 0 translated: 0 fetched: 0
[SQ] entry: 14 instr_id: 0 address: 0 translated: 0 fetched: 0
[SQ] entry: 15 instr_id: 0 address: 0 translated: 0 fetched: 0
[SQ] entry: 16 instr_id: 0 address: 0 translated: 0 fetched: 0
[SQ] entry: 17 instr_id: 0 address: 0 translated: 0 fetched: 0
[SQ] entry: 18 instr_id: 0 address: 0 translated: 0 fetched: 0
[SQ] entry: 19 instr_id: 0 address: 0 translated: 0 fetched: 0
[SQ] entry: 20 instr_id: 0 address: 0 translated: 0 fetched: 0
[SQ] entry: 21 instr_id: 0 address: 0 translated: 0 fetched: 0
[SQ] entry: 22 instr_id: 0 address: 0 translated: 0 fetched: 0
[SQ] entry: 23 instr_id: 0 address: 0 translated: 0 fetched: 0
[SQ] entry: 24 instr_id: 0 address: 0 translated: 0 fetched: 0
[SQ] entry: 25 instr_id: 0 address: 0 translated: 0 fetched: 0
[SQ] entry: 26 instr_id: 0 address: 0 translated: 0 fetched: 0
[SQ] entry: 27 instr_id: 0 address: 0 translated: 0 fetched: 0
[SQ] entry: 28 instr_id: 0 address: 0 translated: 0 fetched: 0
[SQ] entry: 29 instr_id: 0 address: 0 translated: 0 fetched: 0
[SQ] entry: 30 instr_id: 0 address: 0 translated: 0 fetched: 0
[SQ] entry: 31 instr_id: 0 address: 0 translated: 0 fetched: 0
[SQ] entry: 32 instr_id: 0 address: 0 translated: 0 fetched: 0
[SQ] entry: 33 instr_id: 0 address: 0 translated: 0 fetched: 0
[SQ] entry: 34 instr_id: 0 address: 0 translated: 0 fetched: 0
[SQ] entry: 35 instr_id: 0 address: 0 translated: 0 fetched: 0
[SQ] entry: 36 instr_id: 0 address: 0 translated: 0 fetched: 0
[SQ] entry: 37 instr_id: 0 address: 0 translated: 0 fetched: 0
[SQ] entry: 38 instr_id: 0 address: 0 translated: 0 fetched: 0
[SQ] entry: 39 instr_id: 0 address: 0 translated: 0 fetched: 0
[SQ] entry: 40 instr_id: 0 address: 0 translated: 0 fetched: 0
[SQ] entry: 41 instr_id: 0 address: 0 translated: 0 fetched: 0
[SQ] entry: 42 instr_id: 0 address: 0 translated: 0 fetched: 0
[SQ] entry: 43 instr_id: 0 address: 0 translated: 0 fetched: 0
[SQ] entry: 44 instr_id: 0 address: 0 translated: 0 fetched: 0
[SQ] entry: 45 instr_id: 0 address: 0 translated: 0 fetched: 0
[SQ] entry: 46 instr_id: 0 address: 0 translated: 0 fetched: 0
[SQ] entry: 47 instr_id: 0 address: 0 translated: 0 fetched: 0
[SQ] entry: 48 instr_id: 0 address: 0 translated: 0 fetched: 0
[SQ] entry: 49 instr_id: 0 address: 0 translated: 0 fetched: 0
[SQ] entry: 50 instr_id: 0 address: 0 translated: 0 fetched: 0
[SQ] entry: 51 instr_id: 0 address: 0 translated: 0 fetched: 0
[SQ] entry: 52 instr_id: 0 address: 0 translated: 0 fetched: 0
[SQ] entry: 53 instr_id: 0 address: 0 translated: 0 fetched: 0
[SQ] entry: 54 instr_id: 0 address: 0 translated: 0 fetched: 0
[SQ] entry: 55 instr_id: 0 address: 0 translated: 0 fetched: 0
[SQ] entry: 56 instr_id: 0 address: 0 translated: 0 fetched: 0
[SQ] entry: 57 instr_id: 0 address: 0 translated: 0 fetched: 0
[SQ] entry: 58 instr_id: 0 address: 0 translated: 0 fetched: 0
[SQ] entry: 59 instr_id: 0 address: 0 translated: 0 fetched: 0
[SQ] entry: 60 instr_id: 12233133 address: 9086532de500 translated: 2 fetched: 0
[SQ] entry: 61 instr_id: 12233134 address: 9086532de510 translated: 2 fetched: 0
[SQ] entry: 62 instr_id: 12233135 address: 9086532de520 translated: 2 fetched: 0
[SQ] entry: 63 instr_id: 12233136 address: 9086532de530 translated: 2 fetched: 0
[SQ] entry: 64 instr_id: 12233159 address: 9086532de540 translated: 2 fetched: 0
[SQ] entry: 65 instr_id: 12233160 address: 9086532de550 translated: 2 fetched: 0
[SQ] entry: 66 instr_id: 12233161 address: 9086532de560 translated: 2 fetched: 0
[SQ] entry: 67 instr_id: 12233162 address: 9086532de570 translated: 2 fetched: 0
[SQ] entry: 68 instr_id: 12233185 address: 9086532de580 translated: 2 fetched: 0
[SQ] entry: 69 instr_id: 12233186 address: 9086532de590 translated: 2 fetched: 0
[SQ] entry: 70 instr_id: 12233187 address: 9086532de5a0 translated: 2 fetched: 0
[SQ] entry: 71 instr_id: 12233188 address: 9086532de5b0 translated: 2 fetched: 0
[SQ] entry: 72 instr_id: 12233211 address: 9086532de5c0 translated: 2 fetched: 0
[SQ] entry: 73 instr_id: 12233212 address: 9086532de5d0 translated: 2 fetched: 0
[SQ] entry: 74 instr_id: 12233213 address: 9086532de5e0 translated: 2 fetched: 0
[SQ] entry: 75 instr_id: 12233214 address: 9086532de5f0 translated: 2 fetched: 0
[SQ] entry: 76 instr_id: 0 address: 0 translated: 0 fetched: 0
[SQ] entry: 77 instr_id: 0 address: 0 translated: 0 fetched: 0
[SQ] entry: 78 instr_id: 0 address: 0 translated: 0 fetched: 0
[SQ] entry: 79 instr_id: 0 address: 0 translated: 0 fetched: 0
[SQ] entry: 80 instr_id: 0 address: 0 translated: 0 fetched: 0
[SQ] entry: 81 instr_id: 0 address: 0 translated: 0 fetched: 0
[SQ] entry: 82 instr_id: 0 address: 0 translated: 0 fetched: 0
[SQ] entry: 83 instr_id: 0 address: 0 translated: 0 fetched: 0
[SQ] entry: 84 instr_id: 0 address: 0 translated: 0 fetched: 0
[SQ] entry: 85 instr_id: 0 address: 0 translated: 0 fetched: 0
[SQ] entry: 86 instr_id: 0 address: 0 translated: 0 fetched: 0
[SQ] entry: 87 instr_id: 0 address: 0 translated: 0 fetched: 0
[SQ] entry: 88 instr_id: 0 address: 0 translated: 0 fetched: 0
[SQ] entry: 89 instr_id: 0 address: 0 translated: 0 fetched: 0
[SQ] entry: 90 instr_id: 0 address: 0 translated: 0 fetched: 0
[SQ] entry: 91 instr_id: 0 address: 0 translated: 0 fetched: 0
[SQ] entry: 92 instr_id: 0 address: 0 translated: 0 fetched: 0
[SQ] entry: 93 instr_id: 0 address: 0 translated: 0 fetched: 0
[SQ] entry: 94 instr_id: 0 address: 0 translated: 0 fetched: 0
[SQ] entry: 95 instr_id: 0 address: 0 translated: 0 fetched: 0
[SQ] entry: 96 instr_id: 0 address: 0 translated: 0 fetched: 0
[SQ] entry: 97 instr_id: 0 address: 0 translated: 0 fetched: 0
[SQ] entry: 98 instr_id: 0 address: 0 translated: 0 fetched: 0
[SQ] entry: 99 instr_id: 0 address: 0 translated: 0 fetched: 0
[SQ] entry: 100 instr_id: 0 address: 0 translated: 0 fetched: 0
[SQ] entry: 101 instr_id: 0 address: 0 translated: 0 fetched: 0
[SQ] entry: 102 instr_id: 0 address: 0 translated: 0 fetched: 0
[SQ] entry: 103 instr_id: 0 address: 0 translated: 0 fetched: 0
[SQ] entry: 104 instr_id: 0 address: 0 translated: 0 fetched: 0
[SQ] entry: 105 instr_id: 0 address: 0 translated: 0 fetched: 0

L1D_MSHR Entry
[L1D_MSHR] entry: 0 instr_id: 0 rob_index: -1 address: 0 full_addr: 0 type: 0 fill_level: -1 lq_index: 0 sq_index: 0
[L1D_MSHR] entry: 1 instr_id: 0 rob_index: -1 address: 0 full_addr: 0 type: 0 fill_level: -1 lq_index: 0 sq_index: 0
[L1D_MSHR] entry: 2 instr_id: 0 rob_index: -1 address: 0 full_addr: 0 type: 0 fill_level: -1 lq_index: 0 sq_index: 0
[L1D_MSHR] entry: 3 instr_id: 0 rob_index: -1 address: 0 full_addr: 0 type: 0 fill_level: -1 lq_index: 0 sq_index: 0
[L1D_MSHR] entry: 4 instr_id: 0 rob_index: -1 address: 0 full_addr: 0 type: 0 fill_level: -1 lq_index: 0 sq_index: 0
[L1D_MSHR] entry: 5 instr_id: 0 rob_index: -1 address: 0 full_addr: 0 type: 0 fill_level: -1 lq_index: 0 sq_index: 0
[L1D_MSHR] entry: 6 instr_id: 0 rob_index: -1 address: 0 full_addr: 0 type: 0 fill_level: -1 lq_index: 0 sq_index: 0
[L1D_MSHR] entry: 7 instr_id: 12233116 rob_index: 124 address: 3234a09084 full_addr: c8d28242100 type: 0 fill_level: 1 lq_index: 69 sq_index: 0
[L1D_MSHR] entry: 8 instr_id: 0 rob_index: -1 address: 0 full_addr: 0 type: 0 fill_level: -1 lq_index: 0 sq_index: 0
[L1D_MSHR] entry: 9 instr_id: 0 rob_index: -1 address: 0 full_addr: 0 type: 0 fill_level: -1 lq_index: 0 sq_index: 0
[L1D_MSHR] entry: 10 instr_id: 0 rob_index: -1 address: 0 full_addr: 0 type: 0 fill_level: -1 lq_index: 0 sq_index: 0
[L1D_MSHR] entry: 11 instr_id: 0 rob_index: -1 address: 0 full_addr: 0 type: 0 fill_level: -1 lq_index: 0 sq_index: 0
[L1D_MSHR] entry: 12 instr_id: 0 rob_index: -1 address: 0 full_addr: 0 type: 0 fill_level: -1 lq_index: 0 sq_index: 0
[L1D_MSHR] entry: 13 instr_id: 0 rob_index: -1 address: 0 full_addr: 0 type: 0 fill_level: -1 lq_index: 0 sq_index: 0
[L1D_MSHR] entry: 14 instr_id: 0 rob_index: -1 address: 0 full_addr: 0 type: 0 fill_level: -1 lq_index: 0 sq_index: 0
[L1D_MSHR] entry: 15 instr_id: 0 rob_index: -1 address: 0 full_addr: 0 type: 0 fill_level: -1 lq_index: 0 sq_index: 0
perceptron-berti-berti-no-lru-4core: src/main.cc:284: void print_deadlock(uint32_t): Assertion `0' failed.
     > Finished combination: TraceType=770-tot Sim:491000000 Prefetcher=L2berti L1=berti
