TRACE: [496000000][OPT-125M]_[h12][s1024][d64] Warmup: 2000000 NumTraces: 496000000
L1:ipcp:L2:ipcp
*************************************************
   ChampSim Multicore Out-of-Order Simulator
   Last compiled: Oct 28 2024 05:59:16
*************************************************

trace_0 770-tot_memTraces_v3/memTraces[496000000][OPT-125M]_[h12][s1024][d64].champsim.xz
trace_1 770-tot_memTraces_v3/memTraces[496000000][OPT-125M]_[h12][s1024][d64].champsim.xz
trace_2 770-tot_memTraces_v3/memTraces[496000000][OPT-125M]_[h12][s1024][d64].champsim.xz
trace_3 770-tot_memTraces_v3/memTraces[496000000][OPT-125M]_[h12][s1024][d64].champsim.xz
MAIN.cc ln 751 stats print skipped
CPU  3 inst:    1000002 cyc:     501501 now IPC :1.99402: AVG IPC :1.99402: L2-Pf-HR :0.82692: L2-HR :0.75987: (Sim:0h0m48s) 
CPU  0 inst:    1000002 cyc:     501593 now IPC :1.99365: AVG IPC :1.99365: L2-Pf-HR :0.80727: L2-HR :0.76000: (Sim:0h0m48s) 
CPU  1 inst:    1000002 cyc:     501611 now IPC :1.99358: AVG IPC :1.99358: L2-Pf-HR :0.81476: L2-HR :0.75709: (Sim:0h0m48s) 
CPU  2 inst:    1000002 cyc:     501760 now IPC :1.99299: AVG IPC :1.99299: L2-Pf-HR :0.81597: L2-HR :0.75464: (Sim:0h0m48s) 
CPU  0 inst:    2000000 cyc:     985838 now IPC :2.06507: AVG IPC :2.02873: L2-Pf-HR :0.85800: L2-HR :0.80328: (Sim:0h1m40s) 
CPU  3 inst:    2000000 cyc:     985920 now IPC :2.06432: AVG IPC :2.02856: L2-Pf-HR :0.87964: L2-HR :0.80103: (Sim:0h1m40s) 
CPU  1 inst:    2000000 cyc:     985934 now IPC :2.06473: AVG IPC :2.02853: L2-Pf-HR :0.87178: L2-HR :0.79995: (Sim:0h1m40s) 
CPU  2 inst:    2000000 cyc:     986135 now IPC :2.06451: AVG IPC :2.02812: L2-Pf-HR :0.87042: L2-HR :0.79931: (Sim:0h1m40s) 

Warmup complete CPU  0 instructions:    2000563 cycles:     986136 (Simulation time: 0 hr 1 min 40 sec) 
Warmup complete CPU  1 instructions:    2000352 cycles:     986136 (Simulation time: 0 hr 1 min 40 sec) 
Warmup complete CPU  2 instructions:    2000002 cycles:     986136 (Simulation time: 0 hr 1 min 40 sec) 
Warmup complete CPU  3 instructions:    2000375 cycles:     986135 (Simulation time: 0 hr 1 min 40 sec) 

CPU  1 inst:    3000001 cyc:    1820410 now IPC :1.19836: AVG IPC :1.19823: L2-Pf-HR :0.93627: L2-HR :0.82203: (Sim:0h2m32s) 
CPU  3 inst:    3000000 cyc:    1820563 now IPC :1.19812: AVG IPC :1.19798: L2-Pf-HR :0.94677: L2-HR :0.82964: (Sim:0h2m32s) 
CPU  0 inst:    3000001 cyc:    1827953 now IPC :1.18749: AVG IPC :1.18724: L2-Pf-HR :0.92935: L2-HR :0.82765: (Sim:0h2m32s) 
CPU  2 inst:    3000001 cyc:    1828257 now IPC :1.18748: AVG IPC :1.18748: L2-Pf-HR :0.91988: L2-HR :0.82594: (Sim:0h2m32s) 
CPU  3 inst:    4000000 cyc:    2653923 now IPC :1.19996: AVG IPC :1.19897: L2-Pf-HR :0.94490: L2-HR :0.82791: (Sim:0h3m23s) 
CPU  1 inst:    4000000 cyc:    2654725 now IPC :1.19859: AVG IPC :1.19841: L2-Pf-HR :0.93785: L2-HR :0.82340: (Sim:0h3m23s) 
CPU  0 inst:    4000000 cyc:    2670512 now IPC :1.18686: AVG IPC :1.18705: L2-Pf-HR :0.92882: L2-HR :0.82713: (Sim:0h3m24s) 
CPU  2 inst:    4000000 cyc:    2673700 now IPC :1.18281: AVG IPC :1.18514: L2-Pf-HR :0.91994: L2-HR :0.82570: (Sim:0h3m24s) 
CPU  3 inst:    5000005 cyc:    3487518 now IPC :1.19963: AVG IPC :1.19919: L2-Pf-HR :0.94554: L2-HR :0.82700: (Sim:0h4m14s) 
CPU  1 inst:    5000005 cyc:    3488290 now IPC :1.19967: AVG IPC :1.19883: L2-Pf-HR :0.93979: L2-HR :0.82280: (Sim:0h4m14s) 
CPU  0 inst:    5000000 cyc:    3527036 now IPC :1.16751: AVG IPC :1.18046: L2-Pf-HR :0.92809: L2-HR :0.82610: (Sim:0h4m17s) 
CPU  2 inst:    5000000 cyc:    3530083 now IPC :1.16770: AVG IPC :1.17927: L2-Pf-HR :0.91932: L2-HR :0.82468: (Sim:0h4m17s) 
CPU  3 inst:    6000003 cyc:    4321891 now IPC :1.19850: AVG IPC :1.19902: L2-Pf-HR :0.94596: L2-HR :0.82532: (Sim:0h5m5s) 
CPU  1 inst:    6000003 cyc:    4325477 now IPC :1.19447: AVG IPC :1.19774: L2-Pf-HR :0.94060: L2-HR :0.82110: (Sim:0h5m5s) 
CPU  0 inst:    6000003 cyc:    4365210 now IPC :1.19307: AVG IPC :1.18359: L2-Pf-HR :0.92552: L2-HR :0.82355: (Sim:0h5m8s) 
CPU  2 inst:    6000003 cyc:    4368202 now IPC :1.19315: AVG IPC :1.18271: L2-Pf-HR :0.91886: L2-HR :0.82274: (Sim:0h5m8s) 
CPU  3 inst:    7000005 cyc:    5568818 now IPC :0.80197: AVG IPC :1.09098: L2-Pf-HR :0.93706: L2-HR :0.82294: (Sim:0h6m3s) 
CPU  1 inst:    7000005 cyc:    5667039 now IPC :0.74540: AVG IPC :1.06810: L2-Pf-HR :0.93535: L2-HR :0.82071: (Sim:0h6m8s) 
CPU  0 inst:    7000005 cyc:    5675429 now IPC :0.76323: AVG IPC :1.06614: L2-Pf-HR :0.92377: L2-HR :0.82255: (Sim:0h6m8s) 
CPU  2 inst:    7000005 cyc:    5685429 now IPC :0.75917: AVG IPC :1.06399: L2-Pf-HR :0.91628: L2-HR :0.82145: (Sim:0h6m9s) 
CPU  3 inst:    8000004 cyc:    6506977 now IPC :1.06592: AVG IPC :1.08672: L2-Pf-HR :0.93746: L2-HR :0.82339: (Sim:0h6m50s) 
CPU  0 inst:    8000001 cyc:    6896893 now IPC :0.81869: AVG IPC :1.01500: L2-Pf-HR :0.92839: L2-HR :0.82460: (Sim:0h7m10s) 
CPU  1 inst:    8000001 cyc:    6907617 now IPC :0.80607: AVG IPC :1.01320: L2-Pf-HR :0.93546: L2-HR :0.82234: (Sim:0h7m10s) 
CPU  2 inst:    8000004 cyc:    6912385 now IPC :0.81502: AVG IPC :1.01245: L2-Pf-HR :0.91794: L2-HR :0.82216: (Sim:0h7m10s) 
CPU  3 inst:    9000005 cyc:    7403291 now IPC :1.11568: AVG IPC :1.09077: L2-Pf-HR :0.93780: L2-HR :0.82385: (Sim:0h7m39s) 
CPU  0 inst:    9000005 cyc:    8186686 now IPC :0.77532: AVG IPC :0.97207: L2-Pf-HR :0.93172: L2-HR :0.82570: (Sim:0h8m17s) 
CPU  2 inst:    9000004 cyc:    8197293 now IPC :0.77827: AVG IPC :0.97072: L2-Pf-HR :0.91939: L2-HR :0.82294: (Sim:0h8m18s) 
CPU  1 inst:    9000005 cyc:    8227122 now IPC :0.75786: AVG IPC :0.96667: L2-Pf-HR :0.93712: L2-HR :0.82432: (Sim:0h8m19s) 
CPU  3 inst:   10000000 cyc:    8619145 now IPC :0.82246: AVG IPC :1.04803: L2-Pf-HR :0.93592: L2-HR :0.82370: (Sim:0h8m38s) 
CPU  0 inst:   10000005 cyc:    9487540 now IPC :0.76873: AVG IPC :0.94096: L2-Pf-HR :0.93248: L2-HR :0.82630: (Sim:0h9m20s) 
CPU  2 inst:   10000005 cyc:    9514142 now IPC :0.75939: AVG IPC :0.93809: L2-Pf-HR :0.92061: L2-HR :0.82332: (Sim:0h9m21s) 
CPU  1 inst:   10000002 cyc:    9525551 now IPC :0.77016: AVG IPC :0.93679: L2-Pf-HR :0.93785: L2-HR :0.82543: (Sim:0h9m21s) 
CPU  3 inst:   11000003 cyc:    9912170 now IPC :0.77338: AVG IPC :1.00824: L2-Pf-HR :0.93633: L2-HR :0.82427: (Sim:0h9m40s) 
CPU  0 inst:   11000003 cyc:   10648289 now IPC :0.86151: AVG IPC :0.93141: L2-Pf-HR :0.93365: L2-HR :0.82714: (Sim:0h10m17s) 
CPU  2 inst:   11000003 cyc:   10765738 now IPC :0.79898: AVG IPC :0.92028: L2-Pf-HR :0.92118: L2-HR :0.82394: (Sim:0h10m23s) 
CPU  1 inst:   11000003 cyc:   10775030 now IPC :0.80033: AVG IPC :0.91937: L2-Pf-HR :0.93804: L2-HR :0.82562: (Sim:0h10m24s) 
CPU  3 inst:   12000002 cyc:   11069750 now IPC :0.86387: AVG IPC :0.99167: L2-Pf-HR :0.93664: L2-HR :0.82508: (Sim:0h10m40s) 
CPU  0 inst:   12000002 cyc:   11554873 now IPC :1.10304: AVG IPC :0.94613: L2-Pf-HR :0.93556: L2-HR :0.82783: (Sim:0h11m7s) 
CPU  2 inst:   12000002 cyc:   11958107 now IPC :0.83867: AVG IPC :0.91141: L2-Pf-HR :0.92225: L2-HR :0.82458: (Sim:0h11m28s) 
CPU  1 inst:   12000002 cyc:   11976069 now IPC :0.83261: AVG IPC :0.90989: L2-Pf-HR :0.93882: L2-HR :0.82640: (Sim:0h11m28s) 
CPU  3 inst:   13000002 cyc:   12314920 now IPC :0.80310: AVG IPC :0.97095: L2-Pf-HR :0.93570: L2-HR :0.82667: (Sim:0h11m46s) 
CPU  0 inst:   13000005 cyc:   12757051 now IPC :0.83183: AVG IPC :0.93446: L2-Pf-HR :0.93552: L2-HR :0.82968: (Sim:0h12m7s) 
CPU  2 inst:   13000005 cyc:   13407666 now IPC :0.68987: AVG IPC :0.88556: L2-Pf-HR :0.92174: L2-HR :0.82605: (Sim:0h12m37s) 
CPU  1 inst:   13000002 cyc:   13463246 now IPC :0.67241: AVG IPC :0.88159: L2-Pf-HR :0.93680: L2-HR :0.82718: (Sim:0h12m40s) 
CPU  3 inst:   14000002 cyc:   13500885 now IPC :0.84320: AVG IPC :0.95884: L2-Pf-HR :0.93495: L2-HR :0.82885: (Sim:0h12m41s) 
CPU  0 inst:   14000002 cyc:   14166599 now IPC :0.70945: AVG IPC :0.91040: L2-Pf-HR :0.93634: L2-HR :0.83205: (Sim:0h13m15s) 
CPU  2 inst:   14000002 cyc:   14450554 now IPC :0.95887: AVG IPC :0.89124: L2-Pf-HR :0.92207: L2-HR :0.82781: (Sim:0h13m29s) 
CPU  1 inst:   14000002 cyc:   14737517 now IPC :0.78476: AVG IPC :0.87261: L2-Pf-HR :0.93603: L2-HR :0.82877: (Sim:0h13m44s) 
CPU  3 inst:   15000004 cyc:   14743145 now IPC :0.80499: AVG IPC :0.94495: L2-Pf-HR :0.93467: L2-HR :0.83101: (Sim:0h13m45s) 
CPU  0 inst:   15000004 cyc:   15464024 now IPC :0.77076: AVG IPC :0.89788: L2-Pf-HR :0.93670: L2-HR :0.83472: (Sim:0h14m19s) 
CPU  2 inst:   15000004 cyc:   15537320 now IPC :0.92016: AVG IPC :0.89340: L2-Pf-HR :0.92293: L2-HR :0.82987: (Sim:0h14m22s) 
CPU  3 inst:   16000001 cyc:   16132709 now IPC :0.71965: AVG IPC :0.92428: L2-Pf-HR :0.93487: L2-HR :0.83321: (Sim:0h14m49s) 
CPU  1 inst:   15000004 cyc:   16259408 now IPC :0.65708: AVG IPC :0.85114: L2-Pf-HR :0.93595: L2-HR :0.83069: (Sim:0h14m54s) 
CPU  0 inst:   16000003 cyc:   17035649 now IPC :0.63628: AVG IPC :0.87227: L2-Pf-HR :0.93700: L2-HR :0.83651: (Sim:0h15m27s) 
CPU  2 inst:   16000000 cyc:   17104634 now IPC :0.63803: AVG IPC :0.86857: L2-Pf-HR :0.92373: L2-HR :0.83188: (Sim:0h15m31s) 
CPU  3 inst:   17000002 cyc:   17689909 now IPC :0.64218: AVG IPC :0.89798: L2-Pf-HR :0.93276: L2-HR :0.83096: (Sim:0h15m59s) 
CPU  1 inst:   16000003 cyc:   17747944 now IPC :0.67180: AVG IPC :0.83521: L2-Pf-HR :0.93648: L2-HR :0.83175: (Sim:0h16m1s) 
CPU  0 inst:   17000004 cyc:   18620860 now IPC :0.63083: AVG IPC :0.85056: L2-Pf-HR :0.93342: L2-HR :0.83424: (Sim:0h16m46s) 
CPU  2 inst:   17000002 cyc:   18743669 now IPC :0.61012: AVG IPC :0.84471: L2-Pf-HR :0.92203: L2-HR :0.82975: (Sim:0h16m54s) 
CPU  1 inst:   17000005 cyc:   19094609 now IPC :0.74258: AVG IPC :0.82832: L2-Pf-HR :0.93518: L2-HR :0.82977: (Sim:0h17m12s) 
CPU  3 inst:   18000000 cyc:   19112914 now IPC :0.70274: AVG IPC :0.88265: L2-Pf-HR :0.93254: L2-HR :0.82977: (Sim:0h17m14s) 
CPU  0 inst:   18000000 cyc:   19761637 now IPC :0.87659: AVG IPC :0.85214: L2-Pf-HR :0.93285: L2-HR :0.83384: (Sim:0h17m53s) 
CPU  2 inst:   18000000 cyc:   19947720 now IPC :0.83053: AVG IPC :0.84381: L2-Pf-HR :0.92206: L2-HR :0.82884: (Sim:0h18m8s) 
CPU  1 inst:   18000000 cyc:   20245257 now IPC :0.86907: AVG IPC :0.83076: L2-Pf-HR :0.93545: L2-HR :0.82884: (Sim:0h18m38s) 
CPU  3 inst:   19000000 cyc:   20390449 now IPC :0.78276: AVG IPC :0.87607: L2-Pf-HR :0.93266: L2-HR :0.82872: (Sim:0h18m52s) 
CPU  0 inst:   19000000 cyc:   20956389 now IPC :0.83699: AVG IPC :0.85124: L2-Pf-HR :0.93311: L2-HR :0.83320: (Sim:0h19m49s) 
CPU  2 inst:   19000000 cyc:   21099737 now IPC :0.86804: AVG IPC :0.84520: L2-Pf-HR :0.92205: L2-HR :0.82777: (Sim:0h20m2s) 
CPU  1 inst:   19000000 cyc:   21450998 now IPC :0.82937: AVG IPC :0.83067: L2-Pf-HR :0.93571: L2-HR :0.82787: (Sim:0h20m37s) 
CPU  3 inst:   20000005 cyc:   21609087 now IPC :0.82059: AVG IPC :0.87280: L2-Pf-HR :0.93252: L2-HR :0.82763: (Sim:0h20m54s) 
CPU  0 inst:   20000003 cyc:   22170328 now IPC :0.82377: AVG IPC :0.84966: L2-Pf-HR :0.93279: L2-HR :0.83260: (Sim:0h21m50s) 
CPU  2 inst:   20000003 cyc:   22257375 now IPC :0.86383: AVG IPC :0.84621: L2-Pf-HR :0.92210: L2-HR :0.82692: (Sim:0h21m59s) 
CPU  1 inst:   20000003 cyc:   22661826 now IPC :0.82588: AVG IPC :0.83041: L2-Pf-HR :0.93585: L2-HR :0.82703: (Sim:0h22m38s) 
CPU  3 inst:   21000001 cyc:   22844508 now IPC :0.80944: AVG IPC :0.86922: L2-Pf-HR :0.93243: L2-HR :0.82659: (Sim:0h22m56s) 
CPU  0 inst:   21000001 cyc:   23428101 now IPC :0.79505: AVG IPC :0.84660: L2-Pf-HR :0.93237: L2-HR :0.83197: (Sim:0h23m52s) 
CPU  2 inst:   21000001 cyc:   23485759 now IPC :0.81408: AVG IPC :0.84446: L2-Pf-HR :0.92206: L2-HR :0.82604: (Sim:0h23m58s) 
CPU  1 inst:   21000001 cyc:   23888015 now IPC :0.81553: AVG IPC :0.82961: L2-Pf-HR :0.93585: L2-HR :0.82621: (Sim:0h24m37s) 
CPU  3 inst:   22000001 cyc:   24059046 now IPC :0.82336: AVG IPC :0.86680: L2-Pf-HR :0.93218: L2-HR :0.82564: (Sim:0h24m54s) 
CPU  0 inst:   22000005 cyc:   24776143 now IPC :0.74182: AVG IPC :0.84067: L2-Pf-HR :0.93243: L2-HR :0.83141: (Sim:0h26m0s) 
CPU  2 inst:   22000001 cyc:   24812668 now IPC :0.75363: AVG IPC :0.83940: L2-Pf-HR :0.92205: L2-HR :0.82524: (Sim:0h26m3s) 
CPU  1 inst:   22000000 cyc:   25128635 now IPC :0.80605: AVG IPC :0.82840: L2-Pf-HR :0.93595: L2-HR :0.82547: (Sim:0h26m34s) 
CPU  3 inst:   23000000 cyc:   25528639 now IPC :0.68046: AVG IPC :0.85564: L2-Pf-HR :0.93154: L2-HR :0.82487: (Sim:0h27m7s) 
CPU  0 inst:   23000000 cyc:   26308356 now IPC :0.65265: AVG IPC :0.82929: L2-Pf-HR :0.93185: L2-HR :0.83071: (Sim:0h28m16s) 
CPU  2 inst:   23000000 cyc:   26361001 now IPC :0.64586: AVG IPC :0.82759: L2-Pf-HR :0.92135: L2-HR :0.82465: (Sim:0h28m21s) 
CPU  1 inst:   23000000 cyc:   26511596 now IPC :0.72309: AVG IPC :0.82269: L2-Pf-HR :0.93511: L2-HR :0.82486: (Sim:0h28m36s) 
CPU  3 inst:   24000000 cyc:   26853712 now IPC :0.75468: AVG IPC :0.85047: L2-Pf-HR :0.93185: L2-HR :0.82476: (Sim:0h29m8s) 
CPU  0 inst:   24000000 cyc:   27382984 now IPC :0.93055: AVG IPC :0.83341: L2-Pf-HR :0.93267: L2-HR :0.83075: (Sim:0h30m1s) 
CPU  2 inst:   24000000 cyc:   27643215 now IPC :0.77990: AVG IPC :0.82530: L2-Pf-HR :0.92171: L2-HR :0.82476: (Sim:0h30m26s) 
CPU  1 inst:   24000000 cyc:   27772771 now IPC :0.79291: AVG IPC :0.82129: L2-Pf-HR :0.93521: L2-HR :0.82464: (Sim:0h30m39s) 
CPU  3 inst:   25000003 cyc:   28108442 now IPC :0.79699: AVG IPC :0.84800: L2-Pf-HR :0.93202: L2-HR :0.82457: (Sim:0h31m13s) 
CPU  0 inst:   25000000 cyc:   28370365 now IPC :1.01278: AVG IPC :0.83988: L2-Pf-HR :0.93339: L2-HR :0.83076: (Sim:0h31m41s) 
CPU  2 inst:   25000003 cyc:   28685075 now IPC :0.95982: AVG IPC :0.83036: L2-Pf-HR :0.92209: L2-HR :0.82488: (Sim:0h32m7s) 
CPU  1 inst:   25000003 cyc:   28917249 now IPC :0.87376: AVG IPC :0.82344: L2-Pf-HR :0.93542: L2-HR :0.82462: (Sim:0h32m20s) 
CPU  3 inst:   26000003 cyc:   29291862 now IPC :0.84501: AVG IPC :0.84787: L2-Pf-HR :0.93192: L2-HR :0.82417: (Sim:0h32m41s) 
CPU  0 inst:   26000003 cyc:   29385903 now IPC :0.98470: AVG IPC :0.84506: L2-Pf-HR :0.93391: L2-HR :0.83068: (Sim:0h32m46s) 
CPU  2 inst:   26000003 cyc:   29617692 now IPC :1.07225: AVG IPC :0.83824: L2-Pf-HR :0.92259: L2-HR :0.82504: (Sim:0h32m58s) 
CPU  1 inst:   26000003 cyc:   30086201 now IPC :0.85547: AVG IPC :0.82473: L2-Pf-HR :0.93542: L2-HR :0.82456: (Sim:0h33m23s) 
CPU  3 inst:   27000004 cyc:   30541911 now IPC :0.79997: AVG IPC :0.84585: L2-Pf-HR :0.93208: L2-HR :0.82425: (Sim:0h33m47s) 
CPU  0 inst:   27000004 cyc:   30589732 now IPC :0.83068: AVG IPC :0.84447: L2-Pf-HR :0.93421: L2-HR :0.83068: (Sim:0h33m50s) 
CPU  2 inst:   27000004 cyc:   30638040 now IPC :0.98006: AVG IPC :0.84312: L2-Pf-HR :0.92302: L2-HR :0.82515: (Sim:0h33m52s) 
CPU  1 inst:   27000004 cyc:   31098396 now IPC :0.98795: AVG IPC :0.83022: L2-Pf-HR :0.93593: L2-HR :0.82462: (Sim:0h34m17s) 
CPU  3 inst:   28000000 cyc:   31668163 now IPC :0.88790: AVG IPC :0.84739: L2-Pf-HR :0.93232: L2-HR :0.82421: (Sim:0h34m48s) 
CPU  2 inst:   28000000 cyc:   31793116 now IPC :0.86574: AVG IPC :0.84396: L2-Pf-HR :0.92339: L2-HR :0.82530: (Sim:0h34m55s) 
CPU  0 inst:   28000003 cyc:   31794857 now IPC :0.82979: AVG IPC :0.84390: L2-Pf-HR :0.93474: L2-HR :0.83067: (Sim:0h34m55s) 
CPU  1 inst:   28000000 cyc:   32011486 now IPC :1.09518: AVG IPC :0.83801: L2-Pf-HR :0.93620: L2-HR :0.82466: (Sim:0h35m8s) 
CPU  3 inst:   29000005 cyc:   32881587 now IPC :0.82412: AVG IPC :0.84650: L2-Pf-HR :0.93221: L2-HR :0.82456: (Sim:0h35m50s) 
CPU  0 inst:   29000005 cyc:   33084932 now IPC :0.77515: AVG IPC :0.84114: L2-Pf-HR :0.93374: L2-HR :0.83068: (Sim:0h36m1s) 
CPU  2 inst:   29000005 cyc:   33089610 now IPC :0.77131: AVG IPC :0.84103: L2-Pf-HR :0.92309: L2-HR :0.82543: (Sim:0h36m2s) 
CPU  1 inst:   29000005 cyc:   33183819 now IPC :0.85300: AVG IPC :0.83856: L2-Pf-HR :0.93568: L2-HR :0.82492: (Sim:0h36m7s) 
CPU  3 inst:   30000002 cyc:   33883844 now IPC :0.99775: AVG IPC :0.85111: L2-Pf-HR :0.93187: L2-HR :0.82545: (Sim:0h36m43s) 
CPU  0 inst:   30000002 cyc:   34437756 now IPC :0.73919: AVG IPC :0.83701: L2-Pf-HR :0.93409: L2-HR :0.83140: (Sim:0h37m8s) 
CPU  2 inst:   30000002 cyc:   34510133 now IPC :0.70396: AVG IPC :0.83522: L2-Pf-HR :0.92306: L2-HR :0.82602: (Sim:0h37m12s) 
CPU  1 inst:   30000002 cyc:   34523749 now IPC :0.74631: AVG IPC :0.83487: L2-Pf-HR :0.93518: L2-HR :0.82565: (Sim:0h37m12s) 
CPU  3 inst:   31000004 cyc:   35252805 now IPC :0.73048: AVG IPC :0.84629: L2-Pf-HR :0.93179: L2-HR :0.82636: (Sim:0h37m49s) 
CPU  0 inst:   31000004 cyc:   35462595 now IPC :0.97576: AVG IPC :0.84114: L2-Pf-HR :0.93471: L2-HR :0.83218: (Sim:0h37m59s) 
CPU  2 inst:   31000004 cyc:   35821858 now IPC :0.76236: AVG IPC :0.83248: L2-Pf-HR :0.92301: L2-HR :0.82668: (Sim:0h38m18s) 
CPU  1 inst:   31000004 cyc:   35879920 now IPC :0.73737: AVG IPC :0.83108: L2-Pf-HR :0.93520: L2-HR :0.82670: (Sim:0h38m20s) 
CPU  3 inst:   32000004 cyc:   36624115 now IPC :0.72923: AVG IPC :0.84179: L2-Pf-HR :0.93185: L2-HR :0.82719: (Sim:0h39m22s) 
CPU  0 inst:   32000004 cyc:   36658651 now IPC :0.83608: AVG IPC :0.84097: L2-Pf-HR :0.93516: L2-HR :0.83263: (Sim:0h39m25s) 
CPU  2 inst:   32000004 cyc:   36915654 now IPC :0.91425: AVG IPC :0.83497: L2-Pf-HR :0.92348: L2-HR :0.82741: (Sim:0h39m48s) 
CPU  1 inst:   32000004 cyc:   37235935 now IPC :0.73745: AVG IPC :0.82758: L2-Pf-HR :0.93526: L2-HR :0.82764: (Sim:0h40m17s) 
CPU  3 inst:   33000000 cyc:   38194408 now IPC :0.63682: AVG IPC :0.83314: L2-Pf-HR :0.93114: L2-HR :0.82665: (Sim:0h41m36s) 
CPU  0 inst:   33000000 cyc:   38246111 now IPC :0.62993: AVG IPC :0.83198: L2-Pf-HR :0.93400: L2-HR :0.83182: (Sim:0h41m41s) 
CPU  2 inst:   33000000 cyc:   38333574 now IPC :0.70526: AVG IPC :0.83004: L2-Pf-HR :0.92287: L2-HR :0.82698: (Sim:0h41m49s) 
CPU  1 inst:   33000000 cyc:   38564597 now IPC :0.75263: AVG IPC :0.82493: L2-Pf-HR :0.93485: L2-HR :0.82722: (Sim:0h42m10s) 
CPU  3 inst:   34000003 cyc:   39540795 now IPC :0.74273: AVG IPC :0.82998: L2-Pf-HR :0.93127: L2-HR :0.82640: (Sim:0h43m37s) 
CPU  0 inst:   34000004 cyc:   39746499 now IPC :0.66650: AVG IPC :0.82557: L2-Pf-HR :0.93412: L2-HR :0.83185: (Sim:0h43m55s) 
CPU  2 inst:   34000004 cyc:   39796576 now IPC :0.68353: AVG IPC :0.82452: L2-Pf-HR :0.92285: L2-HR :0.82691: (Sim:0h43m59s) 
CPU  1 inst:   34000000 cyc:   39871267 now IPC :0.76530: AVG IPC :0.82293: L2-Pf-HR :0.93510: L2-HR :0.82705: (Sim:0h44m6s) 
CPU  3 inst:   35000005 cyc:   40699512 now IPC :0.86303: AVG IPC :0.83094: L2-Pf-HR :0.93149: L2-HR :0.82619: (Sim:0h45m21s) 
CPU  0 inst:   35000005 cyc:   41048831 now IPC :0.76785: AVG IPC :0.82370: L2-Pf-HR :0.93403: L2-HR :0.83167: (Sim:0h45m57s) 
CPU  2 inst:   35000005 cyc:   41207083 now IPC :0.70897: AVG IPC :0.82047: L2-Pf-HR :0.92279: L2-HR :0.82689: (Sim:0h46m12s) 
CPU  1 inst:   35000005 cyc:   41231738 now IPC :0.73504: AVG IPC :0.81996: L2-Pf-HR :0.93538: L2-HR :0.82689: (Sim:0h46m15s) 
CPU  3 inst:   36000005 cyc:   41839524 now IPC :0.87718: AVG IPC :0.83224: L2-Pf-HR :0.93146: L2-HR :0.82604: (Sim:0h47m13s) 
CPU  0 inst:   36000005 cyc:   42182597 now IPC :0.88202: AVG IPC :0.82530: L2-Pf-HR :0.93371: L2-HR :0.83155: (Sim:0h47m45s) 
CPU  2 inst:   36000005 cyc:   42537416 now IPC :0.75169: AVG IPC :0.81827: L2-Pf-HR :0.92273: L2-HR :0.82688: (Sim:0h48m18s) 
CPU  1 inst:   36000005 cyc:   42589685 now IPC :0.73641: AVG IPC :0.81723: L2-Pf-HR :0.93555: L2-HR :0.82675: (Sim:0h48m24s) 
CPU  3 inst:   37000004 cyc:   43077719 now IPC :0.80763: AVG IPC :0.83151: L2-Pf-HR :0.93143: L2-HR :0.82588: (Sim:0h49m8s) 
CPU  0 inst:   37000004 cyc:   43298764 now IPC :0.89592: AVG IPC :0.82716: L2-Pf-HR :0.93383: L2-HR :0.83140: (Sim:0h49m29s) 
CPU  2 inst:   37000001 cyc:   43756836 now IPC :0.82006: AVG IPC :0.81832: L2-Pf-HR :0.92276: L2-HR :0.82680: (Sim:0h50m11s) 
CPU  1 inst:   37000004 cyc:   44022605 now IPC :0.69787: AVG IPC :0.81326: L2-Pf-HR :0.93581: L2-HR :0.82658: (Sim:0h50m35s) 
CPU  3 inst:   38000004 cyc:   44542925 now IPC :0.68250: AVG IPC :0.82650: L2-Pf-HR :0.93151: L2-HR :0.82544: (Sim:0h51m21s) 
CPU  0 inst:   38000004 cyc:   44596750 now IPC :0.77042: AVG IPC :0.82547: L2-Pf-HR :0.93340: L2-HR :0.83093: (Sim:0h51m26s) 
CPU  2 inst:   38000004 cyc:   44898473 now IPC :0.87594: AVG IPC :0.81982: L2-Pf-HR :0.92271: L2-HR :0.82645: (Sim:0h51m53s) 
CPU  1 inst:   38000004 cyc:   45452298 now IPC :0.69945: AVG IPC :0.80960: L2-Pf-HR :0.93589: L2-HR :0.82614: (Sim:0h52m40s) 
CPU  3 inst:   39000003 cyc:   46245771 now IPC :0.58725: AVG IPC :0.81750: L2-Pf-HR :0.93105: L2-HR :0.82496: (Sim:0h53m45s) 
CPU  0 inst:   39000003 cyc:   46309739 now IPC :0.58377: AVG IPC :0.81634: L2-Pf-HR :0.93288: L2-HR :0.83053: (Sim:0h53m50s) 
CPU  2 inst:   39000002 cyc:   46367814 now IPC :0.68058: AVG IPC :0.81531: L2-Pf-HR :0.92234: L2-HR :0.82602: (Sim:0h53m55s) 
CPU  1 inst:   39000001 cyc:   46762736 now IPC :0.76310: AVG IPC :0.80827: L2-Pf-HR :0.93534: L2-HR :0.82575: (Sim:0h54m32s) 
CPU  3 inst:   40000001 cyc:   47480741 now IPC :0.80973: AVG IPC :0.81729: L2-Pf-HR :0.93133: L2-HR :0.82489: (Sim:0h55m39s) 
CPU  0 inst:   40000001 cyc:   47627423 now IPC :0.75891: AVG IPC :0.81472: L2-Pf-HR :0.93306: L2-HR :0.83054: (Sim:0h55m53s) 
CPU  2 inst:   40000001 cyc:   47640391 now IPC :0.78581: AVG IPC :0.81450: L2-Pf-HR :0.92262: L2-HR :0.82594: (Sim:0h55m54s) 
CPU  1 inst:   40000001 cyc:   47754122 now IPC :1.00869: AVG IPC :0.81251: L2-Pf-HR :0.93537: L2-HR :0.82565: (Sim:0h56m4s) 
CPU  3 inst:   41000001 cyc:   48550512 now IPC :0.93478: AVG IPC :0.81993: L2-Pf-HR :0.93138: L2-HR :0.82468: (Sim:0h57m20s) 
CPU  2 inst:   41000001 cyc:   49031984 now IPC :0.71860: AVG IPC :0.81172: L2-Pf-HR :0.92289: L2-HR :0.82586: (Sim:0h58m4s) 
CPU  0 inst:   41000001 cyc:   49061853 now IPC :0.69714: AVG IPC :0.81121: L2-Pf-HR :0.93348: L2-HR :0.83056: (Sim:0h58m6s) 
CPU  1 inst:   41000001 cyc:   49084437 now IPC :0.75170: AVG IPC :0.81083: L2-Pf-HR :0.93534: L2-HR :0.82545: (Sim:0h58m8s) 
CPU  3 inst:   42000001 cyc:   49609091 now IPC :0.94466: AVG IPC :0.82265: L2-Pf-HR :0.93168: L2-HR :0.82471: (Sim:0h58m54s) 
CPU  2 inst:   42000004 cyc:   50233454 now IPC :0.83232: AVG IPC :0.81223: L2-Pf-HR :0.92325: L2-HR :0.82582: (Sim:0h59m48s) 
CPU  1 inst:   42000004 cyc:   50560171 now IPC :0.67763: AVG IPC :0.80687: L2-Pf-HR :0.93535: L2-HR :0.82528: (Sim:1h0m18s) 
CPU  0 inst:   42000001 cyc:   50602583 now IPC :0.64904: AVG IPC :0.80617: L2-Pf-HR :0.93390: L2-HR :0.83051: (Sim:1h0m22s) 
CPU  3 inst:   43000005 cyc:   50978094 now IPC :0.73046: AVG IPC :0.82012: L2-Pf-HR :0.93169: L2-HR :0.82463: (Sim:1h0m58s) 
CPU  2 inst:   43000005 cyc:   51177564 now IPC :1.05920: AVG IPC :0.81687: L2-Pf-HR :0.92361: L2-HR :0.82579: (Sim:1h1m17s) 
CPU  1 inst:   43000005 cyc:   51675163 now IPC :0.89687: AVG IPC :0.80885: L2-Pf-HR :0.93577: L2-HR :0.82537: (Sim:1h2m4s) 
CPU  0 inst:   43000005 cyc:   51982281 now IPC :0.72480: AVG IPC :0.80397: L2-Pf-HR :0.93414: L2-HR :0.83050: (Sim:1h2m31s) 
CPU  3 inst:   44000000 cyc:   52359068 now IPC :0.72412: AVG IPC :0.81754: L2-Pf-HR :0.93163: L2-HR :0.82456: (Sim:1h3m6s) 
CPU  2 inst:   44000000 cyc:   52421536 now IPC :0.80387: AVG IPC :0.81656: L2-Pf-HR :0.92389: L2-HR :0.82577: (Sim:1h3m12s) 
CPU  1 inst:   44000000 cyc:   52585816 now IPC :1.09811: AVG IPC :0.81395: L2-Pf-HR :0.93590: L2-HR :0.82534: (Sim:1h3m27s) 
CPU  0 inst:   44000000 cyc:   53381526 now IPC :0.71467: AVG IPC :0.80159: L2-Pf-HR :0.93457: L2-HR :0.83051: (Sim:1h4m39s) 
CPU  3 inst:   45000003 cyc:   53776463 now IPC :0.70552: AVG IPC :0.81454: L2-Pf-HR :0.93134: L2-HR :0.82461: (Sim:1h5m16s) 
CPU  2 inst:   45000003 cyc:   53877336 now IPC :0.68691: AVG IPC :0.81299: L2-Pf-HR :0.92381: L2-HR :0.82584: (Sim:1h5m26s) 
CPU  1 inst:   45000003 cyc:   53903017 now IPC :0.75919: AVG IPC :0.81259: L2-Pf-HR :0.93574: L2-HR :0.82544: (Sim:1h5m29s) 
CPU  0 inst:   45000003 cyc:   54643710 now IPC :0.79228: AVG IPC :0.80137: L2-Pf-HR :0.93441: L2-HR :0.83061: (Sim:1h6m43s) 
CPU  3 inst:   46000000 cyc:   54764782 now IPC :1.01182: AVG IPC :0.81816: L2-Pf-HR :0.93118: L2-HR :0.82518: (Sim:1h6m56s) 
CPU  2 inst:   46000000 cyc:   54945625 now IPC :0.93607: AVG IPC :0.81543: L2-Pf-HR :0.92392: L2-HR :0.82643: (Sim:1h7m15s) 
CPU  1 inst:   46000000 cyc:   54969158 now IPC :0.93796: AVG IPC :0.81506: L2-Pf-HR :0.93559: L2-HR :0.82575: (Sim:1h7m17s) 
CPU  0 inst:   46000000 cyc:   55665771 now IPC :0.97841: AVG IPC :0.80468: L2-Pf-HR :0.93478: L2-HR :0.83133: (Sim:1h8m29s) 
CPU  3 inst:   47000000 cyc:   55794268 now IPC :0.97136: AVG IPC :0.82104: L2-Pf-HR :0.93131: L2-HR :0.82569: (Sim:1h8m42s) 
CPU  2 inst:   47000000 cyc:   55989169 now IPC :0.95827: AVG IPC :0.81814: L2-Pf-HR :0.92405: L2-HR :0.82699: (Sim:1h9m2s) 
CPU  1 inst:   47000000 cyc:   56060843 now IPC :0.91602: AVG IPC :0.81707: L2-Pf-HR :0.93585: L2-HR :0.82621: (Sim:1h9m9s) 
CPU  0 inst:   47000000 cyc:   56720351 now IPC :0.94824: AVG IPC :0.80739: L2-Pf-HR :0.93496: L2-HR :0.83196: (Sim:1h10m18s) 
CPU  3 inst:   48000001 cyc:   56823915 now IPC :0.97121: AVG IPC :0.82381: L2-Pf-HR :0.93149: L2-HR :0.82630: (Sim:1h10m29s) 
CPU  2 inst:   48000001 cyc:   56985647 now IPC :1.00354: AVG IPC :0.82144: L2-Pf-HR :0.92414: L2-HR :0.82745: (Sim:1h10m46s) 
CPU  1 inst:   48000001 cyc:   57076150 now IPC :0.98492: AVG IPC :0.82010: L2-Pf-HR :0.93598: L2-HR :0.82662: (Sim:1h10m55s) 
CPU  0 inst:   48000001 cyc:   57867360 now IPC :0.87183: AVG IPC :0.80869: L2-Pf-HR :0.93511: L2-HR :0.83263: (Sim:1h12m5s) 
CPU  3 inst:   49000000 cyc:   58150981 now IPC :0.75354: AVG IPC :0.82218: L2-Pf-HR :0.93115: L2-HR :0.82615: (Sim:1h12m29s) 
CPU  2 inst:   49000003 cyc:   58379098 now IPC :0.71764: AVG IPC :0.81892: L2-Pf-HR :0.92369: L2-HR :0.82719: (Sim:1h12m44s) 
CPU  1 inst:   49000000 cyc:   58479696 now IPC :0.71248: AVG IPC :0.81748: L2-Pf-HR :0.93545: L2-HR :0.82625: (Sim:1h12m50s) 
CPU  3 inst:   50000001 cyc:   59361853 now IPC :0.82585: AVG IPC :0.82225: L2-Pf-HR :0.93125: L2-HR :0.82600: (Sim:1h13m31s) 
CPU  0 inst:   49000000 cyc:   59428993 now IPC :0.64035: AVG IPC :0.80419: L2-Pf-HR :0.93423: L2-HR :0.83219: (Sim:1h13m34s) 
CPU  2 inst:   50000001 cyc:   59809951 now IPC :0.69888: AVG IPC :0.81600: L2-Pf-HR :0.92378: L2-HR :0.82712: (Sim:1h13m52s) 
CPU  1 inst:   50000001 cyc:   59914852 now IPC :0.69679: AVG IPC :0.81454: L2-Pf-HR :0.93554: L2-HR :0.82607: (Sim:1h13m58s) 
CPU  3 inst:   51000001 cyc:   60468832 now IPC :0.90336: AVG IPC :0.82376: L2-Pf-HR :0.93120: L2-HR :0.82569: (Sim:1h14m25s) 
CPU  0 inst:   50000001 cyc:   60902019 now IPC :0.67888: AVG IPC :0.80111: L2-Pf-HR :0.93389: L2-HR :0.83194: (Sim:1h14m46s) 
CPU  2 inst:   51000000 cyc:   61111940 now IPC :0.76805: AVG IPC :0.81496: L2-Pf-HR :0.92373: L2-HR :0.82687: (Sim:1h14m55s) 
CPU  1 inst:   51000001 cyc:   61350173 now IPC :0.69671: AVG IPC :0.81174: L2-Pf-HR :0.93559: L2-HR :0.82577: (Sim:1h15m7s) 
CPU  3 inst:   52000000 cyc:   61820243 now IPC :0.73997: AVG IPC :0.82190: L2-Pf-HR :0.93127: L2-HR :0.82546: (Sim:1h15m30s) 
CPU  2 inst:   52000000 cyc:   62221405 now IPC :0.90134: AVG IPC :0.81652: L2-Pf-HR :0.92371: L2-HR :0.82667: (Sim:1h15m49s) 
CPU  0 inst:   51000000 cyc:   62294374 now IPC :0.71821: AVG IPC :0.79923: L2-Pf-HR :0.93370: L2-HR :0.83150: (Sim:1h15m52s) 
CPU  1 inst:   52000000 cyc:   62846723 now IPC :0.66820: AVG IPC :0.80826: L2-Pf-HR :0.93552: L2-HR :0.82545: (Sim:1h16m20s) 
CPU  3 inst:   53000003 cyc:   63261619 now IPC :0.69378: AVG IPC :0.81894: L2-Pf-HR :0.93119: L2-HR :0.82515: (Sim:1h16m40s) 
CPU  2 inst:   53000005 cyc:   63401284 now IPC :0.84755: AVG IPC :0.81711: L2-Pf-HR :0.92362: L2-HR :0.82641: (Sim:1h16m46s) 
CPU  0 inst:   52000000 cyc:   63460630 now IPC :0.85744: AVG IPC :0.80032: L2-Pf-HR :0.93355: L2-HR :0.83114: (Sim:1h16m49s) 
CPU  1 inst:   53000005 cyc:   64498072 now IPC :0.60557: AVG IPC :0.80299: L2-Pf-HR :0.93543: L2-HR :0.82517: (Sim:1h17m35s) 
CPU  0 inst:   53000005 cyc:   64707972 now IPC :0.80171: AVG IPC :0.80034: L2-Pf-HR :0.93337: L2-HR :0.83074: (Sim:1h17m44s) 
CPU  3 inst:   54000002 cyc:   65054961 now IPC :0.55762: AVG IPC :0.81162: L2-Pf-HR :0.93117: L2-HR :0.82489: (Sim:1h17m58s) 
CPU  2 inst:   54000002 cyc:   65087991 now IPC :0.59287: AVG IPC :0.81121: L2-Pf-HR :0.92347: L2-HR :0.82616: (Sim:1h17m59s) 
CPU  1 inst:   54000002 cyc:   66427812 now IPC :0.51820: AVG IPC :0.79460: L2-Pf-HR :0.93548: L2-HR :0.82490: (Sim:1h18m53s) 
CPU  0 inst:   54000002 cyc:   66480641 now IPC :0.56412: AVG IPC :0.79395: L2-Pf-HR :0.93310: L2-HR :0.83032: (Sim:1h18m55s) 
CPU  3 inst:   55000001 cyc:   67016166 now IPC :0.50989: AVG IPC :0.80266: L2-Pf-HR :0.93064: L2-HR :0.82456: (Sim:1h19m19s) 
CPU  2 inst:   55000001 cyc:   67032306 now IPC :0.51432: AVG IPC :0.80247: L2-Pf-HR :0.92317: L2-HR :0.82589: (Sim:1h19m21s) 
CPU  1 inst:   55000001 cyc:   67950793 now IPC :0.65661: AVG IPC :0.79146: L2-Pf-HR :0.93522: L2-HR :0.82464: (Sim:1h20m33s) 
CPU  0 inst:   55000001 cyc:   68168815 now IPC :0.59236: AVG IPC :0.78889: L2-Pf-HR :0.93269: L2-HR :0.83000: (Sim:1h20m52s) 
CPU  2 inst:   56000000 cyc:   68593099 now IPC :0.64070: AVG IPC :0.79873: L2-Pf-HR :0.92337: L2-HR :0.82602: (Sim:1h21m29s) 
CPU  3 inst:   56000001 cyc:   68603611 now IPC :0.62994: AVG IPC :0.79860: L2-Pf-HR :0.93081: L2-HR :0.82465: (Sim:1h21m30s) 
CPU  1 inst:   56000001 cyc:   68976592 now IPC :0.97485: AVG IPC :0.79422: L2-Pf-HR :0.93548: L2-HR :0.82467: (Sim:1h22m5s) 
CPU  0 inst:   56000001 cyc:   69706879 now IPC :0.65017: AVG IPC :0.78578: L2-Pf-HR :0.93305: L2-HR :0.83004: (Sim:1h22m45s) 
CPU  2 inst:   57000002 cyc:   69995673 now IPC :0.71298: AVG IPC :0.79699: L2-Pf-HR :0.92350: L2-HR :0.82614: (Sim:1h22m58s) 
CPU  3 inst:   57000002 cyc:   70141936 now IPC :0.65006: AVG IPC :0.79530: L2-Pf-HR :0.93099: L2-HR :0.82472: (Sim:1h23m5s) 
CPU  1 inst:   57000001 cyc:   70184040 now IPC :0.82819: AVG IPC :0.79482: L2-Pf-HR :0.93562: L2-HR :0.82473: (Sim:1h23m7s) 
CPU  2 inst:   58000005 cyc:   71029658 now IPC :0.96713: AVG IPC :0.79950: L2-Pf-HR :0.92369: L2-HR :0.82632: (Sim:1h23m47s) 
CPU  0 inst:   57000004 cyc:   71162431 now IPC :0.68703: AVG IPC :0.78373: L2-Pf-HR :0.93319: L2-HR :0.83007: (Sim:1h23m53s) 
CPU  3 inst:   58000005 cyc:   71646337 now IPC :0.66472: AVG IPC :0.79252: L2-Pf-HR :0.93086: L2-HR :0.82469: (Sim:1h24m17s) 
CPU  1 inst:   58000005 cyc:   71668954 now IPC :0.67344: AVG IPC :0.79227: L2-Pf-HR :0.93572: L2-HR :0.82476: (Sim:1h24m18s) 
CPU  2 inst:   59000002 cyc:   72156115 now IPC :0.88774: AVG IPC :0.80090: L2-Pf-HR :0.92385: L2-HR :0.82643: (Sim:1h24m41s) 
CPU  0 inst:   58000005 cyc:   72310061 now IPC :0.87136: AVG IPC :0.78514: L2-Pf-HR :0.93350: L2-HR :0.83014: (Sim:1h24m49s) 
CPU  3 inst:   59000003 cyc:   73109508 now IPC :0.68345: AVG IPC :0.79031: L2-Pf-HR :0.93113: L2-HR :0.82487: (Sim:1h25m27s) 
CPU  1 inst:   59000000 cyc:   73123372 now IPC :0.68756: AVG IPC :0.79016: L2-Pf-HR :0.93582: L2-HR :0.82485: (Sim:1h25m28s) 
CPU  0 inst:   59000002 cyc:   73298038 now IPC :1.01217: AVG IPC :0.78824: L2-Pf-HR :0.93370: L2-HR :0.83020: (Sim:1h25m36s) 
CPU  2 inst:   60000003 cyc:   73580141 now IPC :0.70224: AVG IPC :0.79896: L2-Pf-HR :0.92393: L2-HR :0.82655: (Sim:1h25m49s) 
CPU  3 inst:   60000003 cyc:   74438695 now IPC :0.75234: AVG IPC :0.78962: L2-Pf-HR :0.93158: L2-HR :0.82512: (Sim:1h26m28s) 
CPU  1 inst:   60000003 cyc:   74642911 now IPC :0.65810: AVG IPC :0.78743: L2-Pf-HR :0.93598: L2-HR :0.82495: (Sim:1h26m37s) 
CPU  0 inst:   60000003 cyc:   74659095 now IPC :0.73472: AVG IPC :0.78726: L2-Pf-HR :0.93398: L2-HR :0.83026: (Sim:1h26m38s) 
CPU  2 inst:   61000001 cyc:   75074279 now IPC :0.66928: AVG IPC :0.79635: L2-Pf-HR :0.92392: L2-HR :0.82675: (Sim:1h26m59s) 
CPU  3 inst:   61000005 cyc:   75577450 now IPC :0.87815: AVG IPC :0.79097: L2-Pf-HR :0.93154: L2-HR :0.82532: (Sim:1h27m22s) 
CPU  1 inst:   61000002 cyc:   76053697 now IPC :0.70882: AVG IPC :0.78595: L2-Pf-HR :0.93575: L2-HR :0.82505: (Sim:1h27m45s) 
CPU  0 inst:   61000002 cyc:   76073024 now IPC :0.70725: AVG IPC :0.78575: L2-Pf-HR :0.93388: L2-HR :0.83030: (Sim:1h27m46s) 
CPU  2 inst:   62000000 cyc:   76232766 now IPC :0.86319: AVG IPC :0.79738: L2-Pf-HR :0.92413: L2-HR :0.82731: (Sim:1h27m54s) 
CPU  3 inst:   62000000 cyc:   76857765 now IPC :0.78105: AVG IPC :0.79080: L2-Pf-HR :0.93144: L2-HR :0.82578: (Sim:1h28m23s) 
CPU  1 inst:   62000000 cyc:   77227996 now IPC :0.85157: AVG IPC :0.78696: L2-Pf-HR :0.93576: L2-HR :0.82554: (Sim:1h28m42s) 
CPU  0 inst:   62000000 cyc:   77450015 now IPC :0.72622: AVG IPC :0.78468: L2-Pf-HR :0.93393: L2-HR :0.83088: (Sim:1h28m53s) 
CPU  2 inst:   63000005 cyc:   77471633 now IPC :0.80719: AVG IPC :0.79754: L2-Pf-HR :0.92424: L2-HR :0.82782: (Sim:1h28m54s) 
CPU  3 inst:   63000005 cyc:   78187004 now IPC :0.75231: AVG IPC :0.79014: L2-Pf-HR :0.93130: L2-HR :0.82623: (Sim:1h29m33s) 
CPU  1 inst:   63000005 cyc:   78243386 now IPC :0.98485: AVG IPC :0.78957: L2-Pf-HR :0.93570: L2-HR :0.82602: (Sim:1h29m38s) 
CPU  2 inst:   64000005 cyc:   78723147 now IPC :0.79903: AVG IPC :0.79756: L2-Pf-HR :0.92435: L2-HR :0.82835: (Sim:1h30m18s) 
CPU  0 inst:   63000005 cyc:   78891057 now IPC :0.69395: AVG IPC :0.78300: L2-Pf-HR :0.93408: L2-HR :0.83138: (Sim:1h30m34s) 
CPU  1 inst:   64000005 cyc:   79767337 now IPC :0.65619: AVG IPC :0.78699: L2-Pf-HR :0.93568: L2-HR :0.82662: (Sim:1h31m45s) 
CPU  3 inst:   64000005 cyc:   79770039 now IPC :0.63170: AVG IPC :0.78696: L2-Pf-HR :0.93119: L2-HR :0.82673: (Sim:1h31m45s) 
CPU  2 inst:   65000000 cyc:   79931071 now IPC :0.82786: AVG IPC :0.79802: L2-Pf-HR :0.92396: L2-HR :0.82810: (Sim:1h32m0s) 
CPU  0 inst:   64000005 cyc:   80341948 now IPC :0.68923: AVG IPC :0.78128: L2-Pf-HR :0.93428: L2-HR :0.83188: (Sim:1h32m37s) 
CPU  2 inst:   66000002 cyc:   81111578 now IPC :0.84710: AVG IPC :0.79875: L2-Pf-HR :0.92395: L2-HR :0.82786: (Sim:1h33m41s) 
CPU  1 inst:   65000000 cyc:   81356836 now IPC :0.62913: AVG IPC :0.78386: L2-Pf-HR :0.93519: L2-HR :0.82649: (Sim:1h34m4s) 
CPU  3 inst:   65000000 cyc:   81365811 now IPC :0.62665: AVG IPC :0.78378: L2-Pf-HR :0.93100: L2-HR :0.82668: (Sim:1h34m4s) 
CPU  0 inst:   65000000 cyc:   81754096 now IPC :0.70814: AVG IPC :0.78001: L2-Pf-HR :0.93355: L2-HR :0.83158: (Sim:1h34m41s) 
CPU  2 inst:   67000002 cyc:   82331214 now IPC :0.81992: AVG IPC :0.79906: L2-Pf-HR :0.92399: L2-HR :0.82766: (Sim:1h35m35s) 
CPU  1 inst:   66000002 cyc:   82686573 now IPC :0.75203: AVG IPC :0.78335: L2-Pf-HR :0.93531: L2-HR :0.82651: (Sim:1h36m7s) 
CPU  3 inst:   66000002 cyc:   82806241 now IPC :0.69424: AVG IPC :0.78220: L2-Pf-HR :0.93124: L2-HR :0.82674: (Sim:1h36m18s) 
CPU  0 inst:   66000002 cyc:   83025852 now IPC :0.78632: AVG IPC :0.78010: L2-Pf-HR :0.93355: L2-HR :0.83150: (Sim:1h36m38s) 
CPU  2 inst:   68000000 cyc:   83584733 now IPC :0.79775: AVG IPC :0.79905: L2-Pf-HR :0.92397: L2-HR :0.82742: (Sim:1h37m30s) 
CPU  1 inst:   67000002 cyc:   83826352 now IPC :0.87736: AVG IPC :0.78464: L2-Pf-HR :0.93538: L2-HR :0.82650: (Sim:1h37m53s) 
CPU  3 inst:   67000002 cyc:   84172442 now IPC :0.73196: AVG IPC :0.78137: L2-Pf-HR :0.93140: L2-HR :0.82678: (Sim:1h38m25s) 
CPU  0 inst:   67000002 cyc:   84321215 now IPC :0.77198: AVG IPC :0.77998: L2-Pf-HR :0.93359: L2-HR :0.83138: (Sim:1h38m38s) 
CPU  2 inst:   69000000 cyc:   84923957 now IPC :0.74670: AVG IPC :0.79821: L2-Pf-HR :0.92396: L2-HR :0.82719: (Sim:1h39m33s) 
CPU  1 inst:   68000000 cyc:   84959464 now IPC :0.88252: AVG IPC :0.78596: L2-Pf-HR :0.93556: L2-HR :0.82654: (Sim:1h39m36s) 
CPU  3 inst:   68000000 cyc:   85700873 now IPC :0.65426: AVG IPC :0.77908: L2-Pf-HR :0.93142: L2-HR :0.82674: (Sim:1h40m39s) 
CPU  0 inst:   68000000 cyc:   85799981 now IPC :0.67624: AVG IPC :0.77817: L2-Pf-HR :0.93346: L2-HR :0.83128: (Sim:1h40m48s) 
CPU  1 inst:   69000000 cyc:   86279382 now IPC :0.75762: AVG IPC :0.78552: L2-Pf-HR :0.93546: L2-HR :0.82645: (Sim:1h41m27s) 
CPU  2 inst:   70000004 cyc:   86477078 now IPC :0.64387: AVG IPC :0.79541: L2-Pf-HR :0.92387: L2-HR :0.82685: (Sim:1h41m43s) 
CPU  3 inst:   69000000 cyc:   87416406 now IPC :0.58291: AVG IPC :0.77519: L2-Pf-HR :0.93156: L2-HR :0.82676: (Sim:1h42m58s) 
CPU  0 inst:   69000000 cyc:   87494737 now IPC :0.59006: AVG IPC :0.77448: L2-Pf-HR :0.93349: L2-HR :0.83121: (Sim:1h43m4s) 
CPU  1 inst:   70000001 cyc:   88046462 now IPC :0.56591: AVG IPC :0.78106: L2-Pf-HR :0.93544: L2-HR :0.82634: (Sim:1h43m43s) 
CPU  2 inst:   71000003 cyc:   88431277 now IPC :0.51172: AVG IPC :0.78907: L2-Pf-HR :0.92360: L2-HR :0.82649: (Sim:1h44m12s) 
CPU  0 inst:   70000001 cyc:   89411851 now IPC :0.52162: AVG IPC :0.76900: L2-Pf-HR :0.93337: L2-HR :0.83098: (Sim:1h45m23s) 
CPU  3 inst:   70000004 cyc:   89443904 now IPC :0.49322: AVG IPC :0.76872: L2-Pf-HR :0.93149: L2-HR :0.82665: (Sim:1h45m26s) 
CPU  1 inst:   71000003 cyc:   89969148 now IPC :0.52011: AVG IPC :0.77543: L2-Pf-HR :0.93515: L2-HR :0.82611: (Sim:1h46m8s) 
CPU  2 inst:   72000003 cyc:   90233437 now IPC :0.55489: AVG IPC :0.78434: L2-Pf-HR :0.92373: L2-HR :0.82648: (Sim:1h46m31s) 
CPU  0 inst:   71000003 cyc:   91279633 now IPC :0.53540: AVG IPC :0.76417: L2-Pf-HR :0.93294: L2-HR :0.83069: (Sim:1h47m55s) 
CPU  3 inst:   71000003 cyc:   91318169 now IPC :0.53354: AVG IPC :0.76384: L2-Pf-HR :0.93106: L2-HR :0.82638: (Sim:1h47m59s) 
CPU  1 inst:   72000003 cyc:   91418458 now IPC :0.68998: AVG IPC :0.77406: L2-Pf-HR :0.93535: L2-HR :0.82611: (Sim:1h48m8s) 
CPU  2 inst:   73000004 cyc:   91600943 now IPC :0.73126: AVG IPC :0.78354: L2-Pf-HR :0.92387: L2-HR :0.82643: (Sim:1h48m25s) 
CPU  1 inst:   73000003 cyc:   92504986 now IPC :0.92036: AVG IPC :0.77579: L2-Pf-HR :0.93542: L2-HR :0.82609: (Sim:1h50m3s) 
CPU  3 inst:   72000003 cyc:   92509000 now IPC :0.83975: AVG IPC :0.76483: L2-Pf-HR :0.93104: L2-HR :0.82629: (Sim:1h50m3s) 
CPU  0 inst:   72000003 cyc:   92514428 now IPC :0.80985: AVG IPC :0.76478: L2-Pf-HR :0.93321: L2-HR :0.83068: (Sim:1h50m4s) 
CPU  2 inst:   74000005 cyc:   92625963 now IPC :0.97559: AVG IPC :0.78568: L2-Pf-HR :0.92401: L2-HR :0.82642: (Sim:1h50m16s) 
CPU  1 inst:   74000005 cyc:   93544855 now IPC :0.96166: AVG IPC :0.77788: L2-Pf-HR :0.93554: L2-HR :0.82607: (Sim:1h51m59s) 
CPU  2 inst:   75000001 cyc:   93589654 now IPC :1.03767: AVG IPC :0.78831: L2-Pf-HR :0.92419: L2-HR :0.82642: (Sim:1h52m4s) 
CPU  3 inst:   73000003 cyc:   93680164 now IPC :0.85385: AVG IPC :0.76596: L2-Pf-HR :0.93103: L2-HR :0.82618: (Sim:1h52m14s) 
CPU  0 inst:   73000003 cyc:   93745526 now IPC :0.81228: AVG IPC :0.76542: L2-Pf-HR :0.93348: L2-HR :0.83063: (Sim:1h52m22s) 
CPU  1 inst:   75000001 cyc:   94566066 now IPC :0.97923: AVG IPC :0.78008: L2-Pf-HR :0.93566: L2-HR :0.82609: (Sim:1h53m51s) 
CPU  2 inst:   76000005 cyc:   94755507 now IPC :0.85774: AVG IPC :0.78917: L2-Pf-HR :0.92433: L2-HR :0.82642: (Sim:1h54m10s) 
CPU  3 inst:   74000005 cyc:   94822706 now IPC :0.87524: AVG IPC :0.76729: L2-Pf-HR :0.93117: L2-HR :0.82614: (Sim:1h54m18s) 
CPU  0 inst:   74000005 cyc:   95076126 now IPC :0.75154: AVG IPC :0.76522: L2-Pf-HR :0.93373: L2-HR :0.83064: (Sim:1h54m45s) 
CPU  1 inst:   76000005 cyc:   95757568 now IPC :0.83928: AVG IPC :0.78082: L2-Pf-HR :0.93577: L2-HR :0.82609: (Sim:1h55m59s) 
CPU  3 inst:   75000001 cyc:   95805319 now IPC :1.01769: AVG IPC :0.76988: L2-Pf-HR :0.93134: L2-HR :0.82611: (Sim:1h56m4s) 
CPU  2 inst:   77000003 cyc:   96015758 now IPC :0.79349: AVG IPC :0.78923: L2-Pf-HR :0.92428: L2-HR :0.82642: (Sim:1h56m27s) 
CPU  0 inst:   75000001 cyc:   96280683 now IPC :0.83018: AVG IPC :0.76604: L2-Pf-HR :0.93396: L2-HR :0.83065: (Sim:1h56m57s) 
CPU  3 inst:   76000005 cyc:   96836227 now IPC :0.97002: AVG IPC :0.77204: L2-Pf-HR :0.93138: L2-HR :0.82599: (Sim:1h57m58s) 
CPU  1 inst:   77000001 cyc:   97010436 now IPC :0.79817: AVG IPC :0.78105: L2-Pf-HR :0.93562: L2-HR :0.82609: (Sim:1h58m17s) 
CPU  2 inst:   78000004 cyc:   97095228 now IPC :0.92638: AVG IPC :0.79077: L2-Pf-HR :0.92429: L2-HR :0.82683: (Sim:1h58m25s) 
CPU  0 inst:   76000005 cyc:   97455903 now IPC :0.85091: AVG IPC :0.76707: L2-Pf-HR :0.93423: L2-HR :0.83065: (Sim:1h59m3s) 
CPU  3 inst:   77000001 cyc:   97946651 now IPC :0.90055: AVG IPC :0.77351: L2-Pf-HR :0.93123: L2-HR :0.82592: (Sim:1h59m55s) 
CPU  1 inst:   78000001 cyc:   98219456 now IPC :0.82712: AVG IPC :0.78162: L2-Pf-HR :0.93566: L2-HR :0.82645: (Sim:2h0m25s) 
CPU  2 inst:   79000000 cyc:   98227677 now IPC :0.88304: AVG IPC :0.79184: L2-Pf-HR :0.92433: L2-HR :0.82731: (Sim:2h0m26s) 
CPU  0 inst:   77000002 cyc:   98654637 now IPC :0.83421: AVG IPC :0.76790: L2-Pf-HR :0.93417: L2-HR :0.83063: (Sim:2h1m12s) 
CPU  3 inst:   78000003 cyc:   98943433 now IPC :1.00323: AVG IPC :0.77584: L2-Pf-HR :0.93113: L2-HR :0.82625: (Sim:2h1m44s) 
CPU  2 inst:   80000003 cyc:   99340433 now IPC :0.89867: AVG IPC :0.79305: L2-Pf-HR :0.92440: L2-HR :0.82770: (Sim:2h2m29s) 
CPU  1 inst:   79000000 cyc:   99340968 now IPC :0.89165: AVG IPC :0.78288: L2-Pf-HR :0.93567: L2-HR :0.82685: (Sim:2h2m29s) 
CPU  0 inst:   78000003 cyc:   99660367 now IPC :0.99430: AVG IPC :0.77021: L2-Pf-HR :0.93435: L2-HR :0.83100: (Sim:2h3m4s) 
CPU  3 inst:   79000000 cyc:   99973240 now IPC :0.97105: AVG IPC :0.77788: L2-Pf-HR :0.93107: L2-HR :0.82667: (Sim:2h3m38s) 
CPU  1 inst:   80000003 cyc:  100595092 now IPC :0.79737: AVG IPC :0.78306: L2-Pf-HR :0.93564: L2-HR :0.82725: (Sim:2h4m39s) 
CPU  0 inst:   79000000 cyc:  100714013 now IPC :0.94908: AVG IPC :0.77210: L2-Pf-HR :0.93449: L2-HR :0.83145: (Sim:2h4m51s) 
CPU  2 inst:   81000004 cyc:  100724123 now IPC :0.72271: AVG IPC :0.79208: L2-Pf-HR :0.92400: L2-HR :0.82760: (Sim:2h4m52s) 
CPU  3 inst:   80000000 cyc:  101245250 now IPC :0.78616: AVG IPC :0.77798: L2-Pf-HR :0.93125: L2-HR :0.82702: (Sim:2h5m50s) 
CPU  2 inst:   82000000 cyc:  101791792 now IPC :0.93662: AVG IPC :0.79361: L2-Pf-HR :0.92403: L2-HR :0.82750: (Sim:2h6m44s) 
CPU  1 inst:   81000004 cyc:  101861042 now IPC :0.78992: AVG IPC :0.78314: L2-Pf-HR :0.93527: L2-HR :0.82723: (Sim:2h6m51s) 
CPU  0 inst:   80000000 cyc:  101902855 now IPC :0.84115: AVG IPC :0.77291: L2-Pf-HR :0.93455: L2-HR :0.83183: (Sim:2h6m56s) 
CPU  3 inst:   81000004 cyc:  102718910 now IPC :0.67859: AVG IPC :0.77654: L2-Pf-HR :0.93095: L2-HR :0.82693: (Sim:2h8m17s) 
CPU  2 inst:   83000001 cyc:  103001617 now IPC :0.82657: AVG IPC :0.79400: L2-Pf-HR :0.92408: L2-HR :0.82741: (Sim:2h8m45s) 
CPU  1 inst:   82000000 cyc:  103067194 now IPC :0.82908: AVG IPC :0.78369: L2-Pf-HR :0.93528: L2-HR :0.82717: (Sim:2h8m51s) 
CPU  0 inst:   81000003 cyc:  103365916 now IPC :0.68350: AVG IPC :0.77163: L2-Pf-HR :0.93421: L2-HR :0.83168: (Sim:2h9m20s) 
CPU  3 inst:   82000000 cyc:  104008633 now IPC :0.77536: AVG IPC :0.77653: L2-Pf-HR :0.93105: L2-HR :0.82688: (Sim:2h10m26s) 
CPU  2 inst:   84000000 cyc:  104235288 now IPC :0.81059: AVG IPC :0.79420: L2-Pf-HR :0.92410: L2-HR :0.82728: (Sim:2h10m50s) 
CPU  1 inst:   83000001 cyc:  104308205 now IPC :0.80580: AVG IPC :0.78395: L2-Pf-HR :0.93541: L2-HR :0.82709: (Sim:2h10m57s) 
CPU  0 inst:   82000003 cyc:  104584209 now IPC :0.82082: AVG IPC :0.77221: L2-Pf-HR :0.93401: L2-HR :0.83159: (Sim:2h11m26s) 
CPU  3 inst:   83000001 cyc:  105291162 now IPC :0.77971: AVG IPC :0.77656: L2-Pf-HR :0.93106: L2-HR :0.82672: (Sim:2h12m39s) 
CPU  2 inst:   85000003 cyc:  105453777 now IPC :0.82069: AVG IPC :0.79450: L2-Pf-HR :0.92406: L2-HR :0.82706: (Sim:2h12m56s) 
CPU  1 inst:   84000000 cyc:  105549860 now IPC :0.80538: AVG IPC :0.78421: L2-Pf-HR :0.93550: L2-HR :0.82698: (Sim:2h13m6s) 
CPU  0 inst:   83000001 cyc:  105836546 now IPC :0.79851: AVG IPC :0.77252: L2-Pf-HR :0.93394: L2-HR :0.83149: (Sim:2h13m35s) 
CPU  3 inst:   84000000 cyc:  106555141 now IPC :0.79115: AVG IPC :0.77674: L2-Pf-HR :0.93110: L2-HR :0.82658: (Sim:2h14m48s) 
CPU  2 inst:   86000002 cyc:  106711229 now IPC :0.79526: AVG IPC :0.79451: L2-Pf-HR :0.92403: L2-HR :0.82685: (Sim:2h15m3s) 
CPU  1 inst:   85000003 cyc:  106790360 now IPC :0.80613: AVG IPC :0.78446: L2-Pf-HR :0.93551: L2-HR :0.82678: (Sim:2h15m11s) 
CPU  0 inst:   84000000 cyc:  107078545 now IPC :0.80515: AVG IPC :0.77291: L2-Pf-HR :0.93389: L2-HR :0.83140: (Sim:2h15m40s) 
CPU  3 inst:   85000003 cyc:  107792422 now IPC :0.80823: AVG IPC :0.77710: L2-Pf-HR :0.93107: L2-HR :0.82639: (Sim:2h16m52s) 
CPU  1 inst:   86000001 cyc:  108068601 now IPC :0.78232: AVG IPC :0.78444: L2-Pf-HR :0.93550: L2-HR :0.82659: (Sim:2h17m17s) 
CPU  2 inst:   87000002 cyc:  108182145 now IPC :0.67985: AVG IPC :0.79294: L2-Pf-HR :0.92385: L2-HR :0.82659: (Sim:2h17m28s) 
CPU  0 inst:   85000003 cyc:  108317496 now IPC :0.80714: AVG IPC :0.77330: L2-Pf-HR :0.93373: L2-HR :0.83120: (Sim:2h17m42s) 
CPU  3 inst:   86000002 cyc:  109079210 now IPC :0.77713: AVG IPC :0.77710: L2-Pf-HR :0.93096: L2-HR :0.82613: (Sim:2h19m1s) 
CPU  2 inst:   88000000 cyc:  109324547 now IPC :0.87535: AVG IPC :0.79381: L2-Pf-HR :0.92393: L2-HR :0.82655: (Sim:2h19m25s) 
CPU  0 inst:   86000002 cyc:  109461251 now IPC :0.87431: AVG IPC :0.77437: L2-Pf-HR :0.93357: L2-HR :0.83097: (Sim:2h19m38s) 
CPU  1 inst:   87000002 cyc:  109483961 now IPC :0.70653: AVG IPC :0.78342: L2-Pf-HR :0.93527: L2-HR :0.82636: (Sim:2h19m40s) 
CPU  3 inst:   87000002 cyc:  110390754 now IPC :0.76246: AVG IPC :0.77693: L2-Pf-HR :0.93061: L2-HR :0.82584: (Sim:2h21m14s) 
CPU  2 inst:   89000004 cyc:  110422039 now IPC :0.91117: AVG IPC :0.79499: L2-Pf-HR :0.92405: L2-HR :0.82653: (Sim:2h21m18s) 
CPU  1 inst:   88000003 cyc:  110694399 now IPC :0.82615: AVG IPC :0.78389: L2-Pf-HR :0.93545: L2-HR :0.82635: (Sim:2h21m43s) 
CPU  0 inst:   87000002 cyc:  110729494 now IPC :0.78849: AVG IPC :0.77453: L2-Pf-HR :0.93323: L2-HR :0.83069: (Sim:2h21m46s) 
CPU  2 inst:   90000002 cyc:  111492137 now IPC :0.93449: AVG IPC :0.79634: L2-Pf-HR :0.92417: L2-HR :0.82650: (Sim:2h23m9s) 
CPU  3 inst:   88000001 cyc:  111529300 now IPC :0.87831: AVG IPC :0.77797: L2-Pf-HR :0.93056: L2-HR :0.82573: (Sim:2h23m14s) 
CPU  1 inst:   89000004 cyc:  111754636 now IPC :0.94319: AVG IPC :0.78542: L2-Pf-HR :0.93552: L2-HR :0.82629: (Sim:2h23m38s) 
CPU  0 inst:   88000001 cyc:  111815227 now IPC :0.92104: AVG IPC :0.77596: L2-Pf-HR :0.93346: L2-HR :0.83067: (Sim:2h23m45s) 
CPU  2 inst:   91000000 cyc:  112473372 now IPC :1.01912: AVG IPC :0.79830: L2-Pf-HR :0.92426: L2-HR :0.82649: (Sim:2h25m0s) 
CPU  3 inst:   89000004 cyc:  112559171 now IPC :0.97100: AVG IPC :0.77975: L2-Pf-HR :0.93046: L2-HR :0.82561: (Sim:2h25m10s) 
CPU  1 inst:   90000002 cyc:  112747988 now IPC :1.00669: AVG IPC :0.78739: L2-Pf-HR :0.93551: L2-HR :0.82625: (Sim:2h25m31s) 
CPU  0 inst:   89000004 cyc:  112829119 now IPC :0.98630: AVG IPC :0.77787: L2-Pf-HR :0.93372: L2-HR :0.83065: (Sim:2h25m40s) 
CPU  2 inst:   92000005 cyc:  113471285 now IPC :1.00210: AVG IPC :0.80011: L2-Pf-HR :0.92435: L2-HR :0.82648: (Sim:2h26m50s) 
CPU  3 inst:   90000002 cyc:  113658503 now IPC :0.90964: AVG IPC :0.78102: L2-Pf-HR :0.93052: L2-HR :0.82562: (Sim:2h27m10s) 
CPU  0 inst:   90000002 cyc:  113836541 now IPC :0.99263: AVG IPC :0.77979: L2-Pf-HR :0.93394: L2-HR :0.83065: (Sim:2h27m28s) 
CPU  1 inst:   91000000 cyc:  113938815 now IPC :0.83975: AVG IPC :0.78794: L2-Pf-HR :0.93559: L2-HR :0.82625: (Sim:2h27m37s) 
CPU  2 inst:   93000001 cyc:  114836715 now IPC :0.73237: AVG IPC :0.79929: L2-Pf-HR :0.92431: L2-HR :0.82639: (Sim:2h29m4s) 
CPU  3 inst:   91000000 cyc:  115005067 now IPC :0.74263: AVG IPC :0.78057: L2-Pf-HR :0.93062: L2-HR :0.82557: (Sim:2h29m21s) 
CPU  0 inst:   91000000 cyc:  115091424 now IPC :0.79689: AVG IPC :0.77998: L2-Pf-HR :0.93409: L2-HR :0.83063: (Sim:2h29m30s) 
CPU  1 inst:   92000005 cyc:  115107025 now IPC :0.85601: AVG IPC :0.78863: L2-Pf-HR :0.93565: L2-HR :0.82622: (Sim:2h29m32s) 
CPU  2 inst:   94000005 cyc:  115927182 now IPC :0.91704: AVG IPC :0.80041: L2-Pf-HR :0.92435: L2-HR :0.82676: (Sim:2h31m0s) 
CPU  3 inst:   92000005 cyc:  116122711 now IPC :0.89474: AVG IPC :0.78168: L2-Pf-HR :0.93062: L2-HR :0.82549: (Sim:2h31m21s) 
CPU  0 inst:   92000005 cyc:  116217442 now IPC :0.88809: AVG IPC :0.78103: L2-Pf-HR :0.93429: L2-HR :0.83062: (Sim:2h31m29s) 
CPU  1 inst:   93000001 cyc:  116278531 now IPC :0.85360: AVG IPC :0.78929: L2-Pf-HR :0.93557: L2-HR :0.82618: (Sim:2h31m35s) 
CPU  2 inst:   95000002 cyc:  116982678 now IPC :0.94742: AVG IPC :0.80175: L2-Pf-HR :0.92439: L2-HR :0.82713: (Sim:2h32m53s) 
CPU  1 inst:   94000005 cyc:  117347864 now IPC :0.93517: AVG IPC :0.79063: L2-Pf-HR :0.93562: L2-HR :0.82653: (Sim:2h33m28s) 
CPU  3 inst:   93000001 cyc:  117351161 now IPC :0.81403: AVG IPC :0.78202: L2-Pf-HR :0.93045: L2-HR :0.82540: (Sim:2h33m28s) 
CPU  0 inst:   93000001 cyc:  117479562 now IPC :0.79231: AVG IPC :0.78116: L2-Pf-HR :0.93429: L2-HR :0.83054: (Sim:2h33m41s) 
CPU  2 inst:   96000002 cyc:  118064667 now IPC :0.92422: AVG IPC :0.80288: L2-Pf-HR :0.92445: L2-HR :0.82750: (Sim:2h34m42s) 
CPU  3 inst:   94000005 cyc:  118456095 now IPC :0.90504: AVG IPC :0.78318: L2-Pf-HR :0.93036: L2-HR :0.82570: (Sim:2h35m23s) 
CPU  1 inst:   95000005 cyc:  118547013 now IPC :0.83392: AVG IPC :0.79108: L2-Pf-HR :0.93556: L2-HR :0.82688: (Sim:2h35m33s) 
CPU  0 inst:   94000005 cyc:  118635783 now IPC :0.86489: AVG IPC :0.78198: L2-Pf-HR :0.93449: L2-HR :0.83085: (Sim:2h35m42s) 
CPU  2 inst:   97000001 cyc:  119349867 now IPC :0.77809: AVG IPC :0.80261: L2-Pf-HR :0.92423: L2-HR :0.82756: (Sim:2h36m55s) 
CPU  3 inst:   95000005 cyc:  119470327 now IPC :0.98597: AVG IPC :0.78491: L2-Pf-HR :0.93044: L2-HR :0.82602: (Sim:2h37m7s) 
CPU  1 inst:   96000000 cyc:  119729406 now IPC :0.84574: AVG IPC :0.79162: L2-Pf-HR :0.93555: L2-HR :0.82722: (Sim:2h37m36s) 
CPU  0 inst:   95000000 cyc:  119772182 now IPC :0.87997: AVG IPC :0.78292: L2-Pf-HR :0.93461: L2-HR :0.83120: (Sim:2h37m40s) 
CPU  3 inst:   96000003 cyc:  120495195 now IPC :0.97573: AVG IPC :0.78655: L2-Pf-HR :0.93058: L2-HR :0.82627: (Sim:2h38m56s) 
CPU  2 inst:   98000000 cyc:  120496501 now IPC :0.87212: AVG IPC :0.80328: L2-Pf-HR :0.92421: L2-HR :0.82745: (Sim:2h38m57s) 
CPU  0 inst:   96000003 cyc:  121047898 now IPC :0.78388: AVG IPC :0.78293: L2-Pf-HR :0.93466: L2-HR :0.83148: (Sim:2h39m48s) 
CPU  1 inst:   97000001 cyc:  121148061 now IPC :0.70489: AVG IPC :0.79060: L2-Pf-HR :0.93529: L2-HR :0.82730: (Sim:2h39m57s) 
CPU  2 inst:   99000005 cyc:  121783057 now IPC :0.77727: AVG IPC :0.80300: L2-Pf-HR :0.92421: L2-HR :0.82737: (Sim:2h41m1s) 
CPU  3 inst:   97000001 cyc:  121949852 now IPC :0.68745: AVG IPC :0.78536: L2-Pf-HR :0.93045: L2-HR :0.82628: (Sim:2h41m15s) 
CPU  0 inst:   97000001 cyc:  122370381 now IPC :0.75615: AVG IPC :0.78263: L2-Pf-HR :0.93435: L2-HR :0.83145: (Sim:2h41m53s) 
CPU  1 inst:   98000000 cyc:  122510130 now IPC :0.73418: AVG IPC :0.78996: L2-Pf-HR :0.93535: L2-HR :0.82725: (Sim:2h42m7s) 
CPU  3 inst:   98000000 cyc:  123104690 now IPC :0.86592: AVG IPC :0.78612: L2-Pf-HR :0.93051: L2-HR :0.82620: (Sim:2h43m7s) 
CPU  2 inst:  100000003 cyc:  123206883 now IPC :0.70233: AVG IPC :0.80183: L2-Pf-HR :0.92425: L2-HR :0.82730: (Sim:2h43m17s) 
CPU  0 inst:   98000000 cyc:  123680718 now IPC :0.76316: AVG IPC :0.78243: L2-Pf-HR :0.93426: L2-HR :0.83136: (Sim:2h44m4s) 
CPU  1 inst:   99000004 cyc:  123890161 now IPC :0.72462: AVG IPC :0.78923: L2-Pf-HR :0.93544: L2-HR :0.82719: (Sim:2h44m25s) 
CPU  3 inst:   99000000 cyc:  124219375 now IPC :0.89711: AVG IPC :0.78712: L2-Pf-HR :0.93052: L2-HR :0.82610: (Sim:2h44m58s) 
CPU  2 inst:  101000000 cyc:  124514541 now IPC :0.76472: AVG IPC :0.80144: L2-Pf-HR :0.92421: L2-HR :0.82713: (Sim:2h45m28s) 
CPU  0 inst:   99000001 cyc:  125022858 now IPC :0.74508: AVG IPC :0.78202: L2-Pf-HR :0.93431: L2-HR :0.83130: (Sim:2h46m16s) 
CPU  1 inst:  100000003 cyc:  125287683 now IPC :0.71555: AVG IPC :0.78840: L2-Pf-HR :0.93552: L2-HR :0.82712: (Sim:2h46m41s) 
CPU  3 inst:  100000003 cyc:  125465324 now IPC :0.80260: AVG IPC :0.78728: L2-Pf-HR :0.93060: L2-HR :0.82602: (Sim:2h46m58s) 
CPU  2 inst:  102000002 cyc:  125948507 now IPC :0.69737: AVG IPC :0.80024: L2-Pf-HR :0.92416: L2-HR :0.82696: (Sim:2h47m42s) 
CPU  0 inst:  100000003 cyc:  126525279 now IPC :0.66559: AVG IPC :0.78063: L2-Pf-HR :0.93430: L2-HR :0.83122: (Sim:2h48m34s) 
CPU  1 inst:  101000000 cyc:  126844714 now IPC :0.64225: AVG IPC :0.78659: L2-Pf-HR :0.93557: L2-HR :0.82696: (Sim:2h49m5s) 
CPU  3 inst:  101000000 cyc:  126951142 now IPC :0.67303: AVG IPC :0.78593: L2-Pf-HR :0.93060: L2-HR :0.82584: (Sim:2h49m14s) 
CPU  2 inst:  103000005 cyc:  127194296 now IPC :0.80271: AVG IPC :0.80027: L2-Pf-HR :0.92423: L2-HR :0.82688: (Sim:2h49m39s) 
CPU  0 inst:  101000000 cyc:  128043233 now IPC :0.65878: AVG IPC :0.77917: L2-Pf-HR :0.93423: L2-HR :0.83102: (Sim:2h50m57s) 
CPU  1 inst:  102000002 cyc:  128313023 now IPC :0.68106: AVG IPC :0.78538: L2-Pf-HR :0.93559: L2-HR :0.82680: (Sim:2h51m23s) 
CPU  3 inst:  102000002 cyc:  128398342 now IPC :0.69099: AVG IPC :0.78485: L2-Pf-HR :0.93052: L2-HR :0.82563: (Sim:2h51m32s) 
CPU  2 inst:  104000002 cyc:  128469555 now IPC :0.78415: AVG IPC :0.80010: L2-Pf-HR :0.92405: L2-HR :0.82670: (Sim:2h51m39s) 
CPU  0 inst:  102000002 cyc:  129460204 now IPC :0.70573: AVG IPC :0.77836: L2-Pf-HR :0.93417: L2-HR :0.83086: (Sim:2h53m16s) 
CPU  2 inst:  105000001 cyc:  129524465 now IPC :0.94795: AVG IPC :0.80132: L2-Pf-HR :0.92415: L2-HR :0.82668: (Sim:2h53m22s) 
CPU  1 inst:  103000005 cyc:  129695744 now IPC :0.72321: AVG IPC :0.78471: L2-Pf-HR :0.93568: L2-HR :0.82671: (Sim:2h53m37s) 
CPU  3 inst:  103000005 cyc:  129932450 now IPC :0.65185: AVG IPC :0.78327: L2-Pf-HR :0.93056: L2-HR :0.82554: (Sim:2h53m57s) 
CPU  2 inst:  106000002 cyc:  131146249 now IPC :0.61661: AVG IPC :0.79902: L2-Pf-HR :0.92427: L2-HR :0.82669: (Sim:2h55m41s) 
CPU  0 inst:  103000005 cyc:  131151841 now IPC :0.59115: AVG IPC :0.77593: L2-Pf-HR :0.93416: L2-HR :0.83075: (Sim:2h55m41s) 
CPU  1 inst:  104000002 cyc:  131577137 now IPC :0.53152: AVG IPC :0.78106: L2-Pf-HR :0.93554: L2-HR :0.82655: (Sim:2h56m14s) 
CPU  3 inst:  104000002 cyc:  131636232 now IPC :0.58693: AVG IPC :0.78071: L2-Pf-HR :0.93034: L2-HR :0.82534: (Sim:2h56m19s) 
CPU  0 inst:  104000002 cyc:  132847486 now IPC :0.58974: AVG IPC :0.77354: L2-Pf-HR :0.93390: L2-HR :0.83056: (Sim:2h58m3s) 
CPU  2 inst:  107000005 cyc:  132924472 now IPC :0.56236: AVG IPC :0.79583: L2-Pf-HR :0.92436: L2-HR :0.82667: (Sim:2h58m10s) 
CPU  1 inst:  105000001 cyc:  133160112 now IPC :0.63172: AVG IPC :0.77927: L2-Pf-HR :0.93559: L2-HR :0.82651: (Sim:2h58m31s) 
CPU  3 inst:  105000001 cyc:  133263703 now IPC :0.61445: AVG IPC :0.77866: L2-Pf-HR :0.93034: L2-HR :0.82529: (Sim:2h58m40s) 
CPU  1 inst:  106000002 cyc:  134274792 now IPC :0.89712: AVG IPC :0.78026: L2-Pf-HR :0.93563: L2-HR :0.82647: (Sim:3h0m19s) 
CPU  0 inst:  105000001 cyc:  134295818 now IPC :0.69045: AVG IPC :0.77263: L2-Pf-HR :0.93406: L2-HR :0.83055: (Sim:3h0m22s) 
CPU  2 inst:  108000000 cyc:  134337647 now IPC :0.70762: AVG IPC :0.79489: L2-Pf-HR :0.92445: L2-HR :0.82666: (Sim:3h0m26s) 
CPU  3 inst:  106000000 cyc:  134555068 now IPC :0.77437: AVG IPC :0.77862: L2-Pf-HR :0.93033: L2-HR :0.82528: (Sim:3h0m48s) 
CPU  1 inst:  107000004 cyc:  135233875 now IPC :1.04266: AVG IPC :0.78213: L2-Pf-HR :0.93572: L2-HR :0.82649: (Sim:3h2m0s) 
CPU  0 inst:  106000002 cyc:  135551729 now IPC :0.79624: AVG IPC :0.77285: L2-Pf-HR :0.93423: L2-HR :0.83054: (Sim:3h2m34s) 
CPU  2 inst:  109000000 cyc:  135562403 now IPC :0.81649: AVG IPC :0.79509: L2-Pf-HR :0.92461: L2-HR :0.82672: (Sim:3h2m35s) 
CPU  3 inst:  107000004 cyc:  135684756 now IPC :0.88520: AVG IPC :0.77952: L2-Pf-HR :0.93032: L2-HR :0.82525: (Sim:3h2m47s) 
CPU  1 inst:  108000000 cyc:  136253073 now IPC :0.98116: AVG IPC :0.78363: L2-Pf-HR :0.93566: L2-HR :0.82646: (Sim:3h3m47s) 
CPU  3 inst:  108000000 cyc:  136696018 now IPC :0.98886: AVG IPC :0.78108: L2-Pf-HR :0.93044: L2-HR :0.82527: (Sim:3h4m37s) 
CPU  0 inst:  107000003 cyc:  136715347 now IPC :0.85939: AVG IPC :0.77360: L2-Pf-HR :0.93440: L2-HR :0.83055: (Sim:3h4m39s) 
CPU  2 inst:  110000003 cyc:  136719391 now IPC :0.86432: AVG IPC :0.79568: L2-Pf-HR :0.92447: L2-HR :0.82689: (Sim:3h4m40s) 
CPU  1 inst:  109000001 cyc:  137375448 now IPC :0.89097: AVG IPC :0.78452: L2-Pf-HR :0.93578: L2-HR :0.82652: (Sim:3h5m50s) 
CPU  3 inst:  109000001 cyc:  137653743 now IPC :1.04414: AVG IPC :0.78292: L2-Pf-HR :0.93049: L2-HR :0.82531: (Sim:3h6m19s) 
CPU  2 inst:  111000000 cyc:  137843571 now IPC :0.88953: AVG IPC :0.79645: L2-Pf-HR :0.92451: L2-HR :0.82717: (Sim:3h6m37s) 
CPU  0 inst:  108000000 cyc:  137924998 now IPC :0.82668: AVG IPC :0.77406: L2-Pf-HR :0.93453: L2-HR :0.83055: (Sim:3h6m46s) 
CPU  1 inst:  110000003 cyc:  138484128 now IPC :0.90198: AVG IPC :0.78546: L2-Pf-HR :0.93559: L2-HR :0.82669: (Sim:3h7m49s) 
CPU  3 inst:  110000003 cyc:  138822497 now IPC :0.85561: AVG IPC :0.78354: L2-Pf-HR :0.93027: L2-HR :0.82545: (Sim:3h8m23s) 
CPU  2 inst:  112000005 cyc:  138965217 now IPC :0.89155: AVG IPC :0.79722: L2-Pf-HR :0.92455: L2-HR :0.82749: (Sim:3h8m38s) 
CPU  0 inst:  109000004 cyc:  139092728 now IPC :0.85637: AVG IPC :0.77476: L2-Pf-HR :0.93466: L2-HR :0.83058: (Sim:3h8m52s) 
CPU  1 inst:  111000003 cyc:  139569455 now IPC :0.92138: AVG IPC :0.78653: L2-Pf-HR :0.93565: L2-HR :0.82698: (Sim:3h9m43s) 
CPU  3 inst:  111000000 cyc:  139792494 now IPC :1.03093: AVG IPC :0.78526: L2-Pf-HR :0.93029: L2-HR :0.82569: (Sim:3h10m9s) 
CPU  2 inst:  113000003 cyc:  140025065 now IPC :0.94353: AVG IPC :0.79834: L2-Pf-HR :0.92459: L2-HR :0.82782: (Sim:3h10m36s) 
CPU  0 inst:  110000003 cyc:  140220933 now IPC :0.88636: AVG IPC :0.77566: L2-Pf-HR :0.93462: L2-HR :0.83071: (Sim:3h10m55s) 
CPU  1 inst:  112000005 cyc:  140580872 now IPC :0.98871: AVG IPC :0.78799: L2-Pf-HR :0.93562: L2-HR :0.82728: (Sim:3h11m33s) 
CPU  3 inst:  112000004 cyc:  140856088 now IPC :0.94021: AVG IPC :0.78644: L2-Pf-HR :0.93046: L2-HR :0.82598: (Sim:3h12m4s) 
CPU  0 inst:  111000000 cyc:  141217500 now IPC :1.00344: AVG IPC :0.77728: L2-Pf-HR :0.93471: L2-HR :0.83098: (Sim:3h12m45s) 
CPU  2 inst:  114000001 cyc:  141284569 now IPC :0.79396: AVG IPC :0.79830: L2-Pf-HR :0.92425: L2-HR :0.82746: (Sim:3h12m53s) 
CPU  1 inst:  113000003 cyc:  141592899 now IPC :0.98811: AVG IPC :0.78943: L2-Pf-HR :0.93568: L2-HR :0.82762: (Sim:3h13m28s) 
CPU  3 inst:  113000003 cyc:  141900529 now IPC :0.95745: AVG IPC :0.78771: L2-Pf-HR :0.93060: L2-HR :0.82627: (Sim:3h13m56s) 
CPU  0 inst:  112000000 cyc:  142408251 now IPC :0.83981: AVG IPC :0.77781: L2-Pf-HR :0.93483: L2-HR :0.83129: (Sim:3h14m44s) 
CPU  2 inst:  115000004 cyc:  142504725 now IPC :0.81957: AVG IPC :0.79848: L2-Pf-HR :0.92426: L2-HR :0.82740: (Sim:3h14m54s) 
CPU  1 inst:  114000001 cyc:  143001434 now IPC :0.70996: AVG IPC :0.78864: L2-Pf-HR :0.93534: L2-HR :0.82730: (Sim:3h15m46s) 
CPU  3 inst:  114000001 cyc:  143275597 now IPC :0.72724: AVG IPC :0.78713: L2-Pf-HR :0.93035: L2-HR :0.82598: (Sim:3h16m13s) 
CPU  0 inst:  113000003 cyc:  143615855 now IPC :0.82809: AVG IPC :0.77824: L2-Pf-HR :0.93490: L2-HR :0.83160: (Sim:3h16m47s) 
CPU  2 inst:  116000002 cyc:  143756688 now IPC :0.79874: AVG IPC :0.79848: L2-Pf-HR :0.92429: L2-HR :0.82735: (Sim:3h17m0s) 
CPU  1 inst:  115000004 cyc:  144434652 now IPC :0.69773: AVG IPC :0.78774: L2-Pf-HR :0.93536: L2-HR :0.82723: (Sim:3h17m59s) 
CPU  3 inst:  115000004 cyc:  144637827 now IPC :0.73409: AVG IPC :0.78662: L2-Pf-HR :0.93036: L2-HR :0.82588: (Sim:3h18m17s) 
CPU  2 inst:  117000004 cyc:  145320708 now IPC :0.63938: AVG IPC :0.79676: L2-Pf-HR :0.92429: L2-HR :0.82721: (Sim:3h19m22s) 
CPU  0 inst:  114000001 cyc:  145352731 now IPC :0.57575: AVG IPC :0.77580: L2-Pf-HR :0.93445: L2-HR :0.83126: (Sim:3h19m25s) 
CPU  1 inst:  116000003 cyc:  145704723 now IPC :0.78736: AVG IPC :0.78773: L2-Pf-HR :0.93544: L2-HR :0.82717: (Sim:3h19m58s) 
CPU  3 inst:  116000003 cyc:  146088870 now IPC :0.68916: AVG IPC :0.78565: L2-Pf-HR :0.93041: L2-HR :0.82581: (Sim:3h20m33s) 
CPU  2 inst:  118000001 cyc:  146756772 now IPC :0.69635: AVG IPC :0.79577: L2-Pf-HR :0.92424: L2-HR :0.82706: (Sim:3h21m34s) 
CPU  0 inst:  115000004 cyc:  146823115 now IPC :0.68010: AVG IPC :0.77483: L2-Pf-HR :0.93442: L2-HR :0.83119: (Sim:3h21m40s) 
CPU  1 inst:  117000004 cyc:  146847423 now IPC :0.87512: AVG IPC :0.78842: L2-Pf-HR :0.93547: L2-HR :0.82704: (Sim:3h21m42s) 
CPU  3 inst:  117000004 cyc:  147568207 now IPC :0.67598: AVG IPC :0.78454: L2-Pf-HR :0.93034: L2-HR :0.82567: (Sim:3h22m47s) 
CPU  1 inst:  118000001 cyc:  148057119 now IPC :0.82665: AVG IPC :0.78873: L2-Pf-HR :0.93547: L2-HR :0.82690: (Sim:3h23m30s) 
CPU  0 inst:  116000001 cyc:  148229630 now IPC :0.71097: AVG IPC :0.77422: L2-Pf-HR :0.93443: L2-HR :0.83117: (Sim:3h23m44s) 
CPU  2 inst:  119000003 cyc:  148316852 now IPC :0.64099: AVG IPC :0.79413: L2-Pf-HR :0.92421: L2-HR :0.82692: (Sim:3h23m51s) 
CPU  3 inst:  118000001 cyc:  149134497 now IPC :0.63845: AVG IPC :0.78300: L2-Pf-HR :0.93026: L2-HR :0.82551: (Sim:3h25m1s) 
CPU  0 inst:  117000004 cyc:  149390968 now IPC :0.86108: AVG IPC :0.77490: L2-Pf-HR :0.93438: L2-HR :0.83102: (Sim:3h25m24s) 
CPU  1 inst:  119000003 cyc:  149553248 now IPC :0.66839: AVG IPC :0.78752: L2-Pf-HR :0.93548: L2-HR :0.82677: (Sim:3h25m38s) 
CPU  2 inst:  120000000 cyc:  149830713 now IPC :0.66056: AVG IPC :0.79277: L2-Pf-HR :0.92407: L2-HR :0.82679: (Sim:3h26m4s) 
CPU  3 inst:  119000003 cyc:  150462854 now IPC :0.75281: AVG IPC :0.78273: L2-Pf-HR :0.93015: L2-HR :0.82537: (Sim:3h27m1s) 
CPU  0 inst:  118000001 cyc:  150511692 now IPC :0.89228: AVG IPC :0.77578: L2-Pf-HR :0.93429: L2-HR :0.83085: (Sim:3h27m6s) 
CPU  1 inst:  120000003 cyc:  151011070 now IPC :0.68595: AVG IPC :0.78653: L2-Pf-HR :0.93535: L2-HR :0.82666: (Sim:3h27m49s) 
CPU  2 inst:  121000003 cyc:  151086158 now IPC :0.79653: AVG IPC :0.79280: L2-Pf-HR :0.92412: L2-HR :0.82676: (Sim:3h27m56s) 
CPU  0 inst:  119000003 cyc:  151844754 now IPC :0.75015: AVG IPC :0.77556: L2-Pf-HR :0.93424: L2-HR :0.83071: (Sim:3h29m5s) 
CPU  3 inst:  120000003 cyc:  152001195 now IPC :0.65005: AVG IPC :0.78138: L2-Pf-HR :0.92995: L2-HR :0.82524: (Sim:3h29m20s) 
CPU  2 inst:  122000004 cyc:  152078189 now IPC :1.00803: AVG IPC :0.79422: L2-Pf-HR :0.92426: L2-HR :0.82678: (Sim:3h29m27s) 
CPU  1 inst:  121000003 cyc:  152403477 now IPC :0.71818: AVG IPC :0.78591: L2-Pf-HR :0.93543: L2-HR :0.82662: (Sim:3h29m55s) 
CPU  0 inst:  120000003 cyc:  153173752 now IPC :0.75245: AVG IPC :0.77536: L2-Pf-HR :0.93410: L2-HR :0.83058: (Sim:3h31m10s) 
CPU  3 inst:  121000000 cyc:  153204449 now IPC :0.83108: AVG IPC :0.78177: L2-Pf-HR :0.93005: L2-HR :0.82520: (Sim:3h31m13s) 
CPU  2 inst:  123000002 cyc:  153239320 now IPC :0.86123: AVG IPC :0.79473: L2-Pf-HR :0.92434: L2-HR :0.82675: (Sim:3h31m17s) 
CPU  1 inst:  122000001 cyc:  153503649 now IPC :0.90895: AVG IPC :0.78679: L2-Pf-HR :0.93550: L2-HR :0.82664: (Sim:3h31m43s) 
CPU  3 inst:  122000001 cyc:  154276935 now IPC :0.93241: AVG IPC :0.78282: L2-Pf-HR :0.93010: L2-HR :0.82519: (Sim:3h32m59s) 
CPU  0 inst:  121000000 cyc:  154287600 now IPC :0.89779: AVG IPC :0.77624: L2-Pf-HR :0.93421: L2-HR :0.83054: (Sim:3h33m0s) 
CPU  2 inst:  124000000 cyc:  154327196 now IPC :0.91922: AVG IPC :0.79561: L2-Pf-HR :0.92440: L2-HR :0.82672: (Sim:3h33m5s) 
CPU  1 inst:  123000003 cyc:  154582606 now IPC :0.92682: AVG IPC :0.78778: L2-Pf-HR :0.93555: L2-HR :0.82663: (Sim:3h33m30s) 
CPU  0 inst:  122000001 cyc:  155328666 now IPC :0.96055: AVG IPC :0.77749: L2-Pf-HR :0.93431: L2-HR :0.83057: (Sim:3h34m46s) 
CPU  3 inst:  123000002 cyc:  155352932 now IPC :0.92937: AVG IPC :0.78384: L2-Pf-HR :0.93013: L2-HR :0.82517: (Sim:3h34m49s) 
CPU  2 inst:  125000005 cyc:  155387628 now IPC :0.94302: AVG IPC :0.79662: L2-Pf-HR :0.92448: L2-HR :0.82671: (Sim:3h34m53s) 
CPU  1 inst:  124000002 cyc:  155681479 now IPC :0.91002: AVG IPC :0.78864: L2-Pf-HR :0.93558: L2-HR :0.82662: (Sim:3h35m21s) 
CPU  0 inst:  123000003 cyc:  156445354 now IPC :0.89551: AVG IPC :0.77834: L2-Pf-HR :0.93448: L2-HR :0.83058: (Sim:3h36m33s) 
CPU  3 inst:  124000000 cyc:  156558062 now IPC :0.82978: AVG IPC :0.78420: L2-Pf-HR :0.93021: L2-HR :0.82519: (Sim:3h36m44s) 
CPU  2 inst:  126000003 cyc:  156619078 now IPC :0.81205: AVG IPC :0.79675: L2-Pf-HR :0.92441: L2-HR :0.82685: (Sim:3h36m49s) 
CPU  1 inst:  125000005 cyc:  156915087 now IPC :0.81063: AVG IPC :0.78882: L2-Pf-HR :0.93569: L2-HR :0.82665: (Sim:3h37m19s) 
CPU  3 inst:  125000004 cyc:  157642943 now IPC :0.92176: AVG IPC :0.78515: L2-Pf-HR :0.93028: L2-HR :0.82517: (Sim:3h38m26s) 
CPU  0 inst:  124000001 cyc:  157684511 now IPC :0.80700: AVG IPC :0.77856: L2-Pf-HR :0.93463: L2-HR :0.83056: (Sim:3h38m30s) 
CPU  2 inst:  127000000 cyc:  157715885 now IPC :0.91173: AVG IPC :0.79755: L2-Pf-HR :0.92444: L2-HR :0.82712: (Sim:3h38m33s) 
CPU  1 inst:  126000003 cyc:  158312239 now IPC :0.71574: AVG IPC :0.78817: L2-Pf-HR :0.93557: L2-HR :0.82675: (Sim:3h39m28s) 
CPU  0 inst:  125000005 cyc:  158666961 now IPC :1.01787: AVG IPC :0.78005: L2-Pf-HR :0.93476: L2-HR :0.83058: (Sim:3h40m2s) 
CPU  3 inst:  126000005 cyc:  158997055 now IPC :0.73849: AVG IPC :0.78475: L2-Pf-HR :0.93016: L2-HR :0.82530: (Sim:3h40m32s) 
CPU  2 inst:  128000002 cyc:  159016456 now IPC :0.76889: AVG IPC :0.79732: L2-Pf-HR :0.92446: L2-HR :0.82740: (Sim:3h40m33s) 
CPU  1 inst:  127000001 cyc:  159560286 now IPC :0.80125: AVG IPC :0.78827: L2-Pf-HR :0.93560: L2-HR :0.82698: (Sim:3h41m26s) 
CPU  0 inst:  126000003 cyc:  159738868 now IPC :0.93291: AVG IPC :0.78109: L2-Pf-HR :0.93467: L2-HR :0.83071: (Sim:3h41m45s) 
CPU  3 inst:  127000005 cyc:  160190812 now IPC :0.83769: AVG IPC :0.78515: L2-Pf-HR :0.93014: L2-HR :0.82553: (Sim:3h42m32s) 
CPU  2 inst:  129000002 cyc:  160191214 now IPC :0.85124: AVG IPC :0.79771: L2-Pf-HR :0.92448: L2-HR :0.82764: (Sim:3h42m32s) 
CPU  1 inst:  128000005 cyc:  160644950 now IPC :0.92195: AVG IPC :0.78918: L2-Pf-HR :0.93561: L2-HR :0.82725: (Sim:3h43m15s) 
CPU  0 inst:  127000000 cyc:  160854555 now IPC :0.89631: AVG IPC :0.78189: L2-Pf-HR :0.93479: L2-HR :0.83096: (Sim:3h43m38s) 
CPU  3 inst:  128000005 cyc:  161308326 now IPC :0.89484: AVG IPC :0.78592: L2-Pf-HR :0.93021: L2-HR :0.82579: (Sim:3h44m26s) 
CPU  2 inst:  130000004 cyc:  161370242 now IPC :0.84816: AVG IPC :0.79808: L2-Pf-HR :0.92422: L2-HR :0.82737: (Sim:3h44m32s) 
CPU  1 inst:  129000002 cyc:  161593432 now IPC :1.05431: AVG IPC :0.79075: L2-Pf-HR :0.93561: L2-HR :0.82750: (Sim:3h44m55s) 
CPU  0 inst:  128000005 cyc:  161942266 now IPC :0.91937: AVG IPC :0.78282: L2-Pf-HR :0.93482: L2-HR :0.83122: (Sim:3h45m27s) 
CPU  2 inst:  131000002 cyc:  162553763 now IPC :0.84493: AVG IPC :0.79843: L2-Pf-HR :0.92420: L2-HR :0.82722: (Sim:3h46m22s) 
CPU  3 inst:  129000001 cyc:  162617358 now IPC :0.76392: AVG IPC :0.78574: L2-Pf-HR :0.93039: L2-HR :0.82602: (Sim:3h46m28s) 
CPU  1 inst:  130000004 cyc:  162963976 now IPC :0.72964: AVG IPC :0.79023: L2-Pf-HR :0.93535: L2-HR :0.82732: (Sim:3h46m58s) 
CPU  0 inst:  129000003 cyc:  163280193 now IPC :0.74742: AVG IPC :0.78253: L2-Pf-HR :0.93484: L2-HR :0.83144: (Sim:3h47m25s) 
CPU  2 inst:  132000003 cyc:  163830676 now IPC :0.78314: AVG IPC :0.79831: L2-Pf-HR :0.92421: L2-HR :0.82710: (Sim:3h48m13s) 
CPU  3 inst:  130000004 cyc:  164213358 now IPC :0.62657: AVG IPC :0.78418: L2-Pf-HR :0.93016: L2-HR :0.82579: (Sim:3h48m50s) 
CPU  1 inst:  131000002 cyc:  164302680 now IPC :0.74699: AVG IPC :0.78987: L2-Pf-HR :0.93535: L2-HR :0.82726: (Sim:3h48m58s) 
CPU  0 inst:  130000004 cyc:  164509418 now IPC :0.81352: AVG IPC :0.78276: L2-Pf-HR :0.93450: L2-HR :0.83123: (Sim:3h49m16s) 
CPU  2 inst:  133000002 cyc:  165177232 now IPC :0.74263: AVG IPC :0.79785: L2-Pf-HR :0.92415: L2-HR :0.82690: (Sim:3h50m19s) 
CPU  1 inst:  132000003 cyc:  165564106 now IPC :0.79275: AVG IPC :0.78990: L2-Pf-HR :0.93540: L2-HR :0.82720: (Sim:3h50m55s) 
CPU  3 inst:  131000002 cyc:  165639599 now IPC :0.70114: AVG IPC :0.78346: L2-Pf-HR :0.93017: L2-HR :0.82571: (Sim:3h51m2s) 
CPU  0 inst:  131000002 cyc:  165699750 now IPC :0.84010: AVG IPC :0.78317: L2-Pf-HR :0.93445: L2-HR :0.83119: (Sim:3h51m8s) 
CPU  2 inst:  134000003 cyc:  166377782 now IPC :0.83295: AVG IPC :0.79811: L2-Pf-HR :0.92411: L2-HR :0.82669: (Sim:3h52m12s) 
CPU  1 inst:  133000002 cyc:  166724185 now IPC :0.86201: AVG IPC :0.79040: L2-Pf-HR :0.93545: L2-HR :0.82711: (Sim:3h52m45s) 
CPU  3 inst:  132000003 cyc:  166935654 now IPC :0.77157: AVG IPC :0.78337: L2-Pf-HR :0.93025: L2-HR :0.82566: (Sim:3h53m4s) 
CPU  0 inst:  132000003 cyc:  166967251 now IPC :0.78895: AVG IPC :0.78322: L2-Pf-HR :0.93441: L2-HR :0.83112: (Sim:3h53m7s) 
CPU  2 inst:  135000000 cyc:  167505847 now IPC :0.88647: AVG IPC :0.79870: L2-Pf-HR :0.92407: L2-HR :0.82649: (Sim:3h54m0s) 
CPU  1 inst:  134000003 cyc:  167944614 now IPC :0.81938: AVG IPC :0.79061: L2-Pf-HR :0.93549: L2-HR :0.82698: (Sim:3h54m41s) 
CPU  0 inst:  133000002 cyc:  168298813 now IPC :0.75100: AVG IPC :0.78296: L2-Pf-HR :0.93427: L2-HR :0.83095: (Sim:3h55m14s) 
CPU  3 inst:  133000002 cyc:  168330174 now IPC :0.71709: AVG IPC :0.78282: L2-Pf-HR :0.93026: L2-HR :0.82553: (Sim:3h55m18s) 
CPU  2 inst:  136000003 cyc:  168766964 now IPC :0.79295: AVG IPC :0.79866: L2-Pf-HR :0.92397: L2-HR :0.82635: (Sim:3h55m59s) 
CPU  1 inst:  135000001 cyc:  169170955 now IPC :0.81543: AVG IPC :0.79079: L2-Pf-HR :0.93554: L2-HR :0.82686: (Sim:3h56m39s) 
CPU  0 inst:  134000003 cyc:  169520526 now IPC :0.81852: AVG IPC :0.78322: L2-Pf-HR :0.93421: L2-HR :0.83080: (Sim:3h57m12s) 
CPU  3 inst:  134000003 cyc:  169619705 now IPC :0.77548: AVG IPC :0.78276: L2-Pf-HR :0.93015: L2-HR :0.82535: (Sim:3h57m20s) 
CPU  2 inst:  137000001 cyc:  169890898 now IPC :0.88973: AVG IPC :0.79927: L2-Pf-HR :0.92401: L2-HR :0.82630: (Sim:3h57m43s) 
CPU  1 inst:  136000003 cyc:  170543740 now IPC :0.72845: AVG IPC :0.79029: L2-Pf-HR :0.93545: L2-HR :0.82676: (Sim:3h58m46s) 
CPU  0 inst:  135000000 cyc:  170742948 now IPC :0.81805: AVG IPC :0.78347: L2-Pf-HR :0.93411: L2-HR :0.83066: (Sim:3h59m6s) 
CPU  3 inst:  135000000 cyc:  170836710 now IPC :0.82169: AVG IPC :0.78304: L2-Pf-HR :0.93006: L2-HR :0.82519: (Sim:3h59m15s) 
CPU  2 inst:  138000005 cyc:  171017336 now IPC :0.88776: AVG IPC :0.79985: L2-Pf-HR :0.92410: L2-HR :0.82628: (Sim:3h59m34s) 
CPU  1 inst:  137000001 cyc:  171813225 now IPC :0.78772: AVG IPC :0.79027: L2-Pf-HR :0.93550: L2-HR :0.82673: (Sim:4h0m41s) 
CPU  0 inst:  136000002 cyc:  172026628 now IPC :0.77901: AVG IPC :0.78344: L2-Pf-HR :0.93400: L2-HR :0.83058: (Sim:4h0m59s) 
CPU  3 inst:  136000002 cyc:  172355495 now IPC :0.65842: AVG IPC :0.78193: L2-Pf-HR :0.92993: L2-HR :0.82510: (Sim:4h1m30s) 
CPU  2 inst:  139000002 cyc:  172435022 now IPC :0.70537: AVG IPC :0.79907: L2-Pf-HR :0.92414: L2-HR :0.82623: (Sim:4h1m38s) 
CPU  0 inst:  137000001 cyc:  172995338 now IPC :1.03230: AVG IPC :0.78484: L2-Pf-HR :0.93411: L2-HR :0.83060: (Sim:4h2m30s) 
CPU  1 inst:  138000005 cyc:  173109426 now IPC :0.77149: AVG IPC :0.79013: L2-Pf-HR :0.93553: L2-HR :0.82670: (Sim:4h2m40s) 
CPU  2 inst:  140000002 cyc:  173814602 now IPC :0.72486: AVG IPC :0.79848: L2-Pf-HR :0.92418: L2-HR :0.82618: (Sim:4h3m40s) 
CPU  3 inst:  137000001 cyc:  173823951 now IPC :0.68099: AVG IPC :0.78108: L2-Pf-HR :0.93002: L2-HR :0.82513: (Sim:4h3m41s) 
CPU  0 inst:  138000005 cyc:  174284776 now IPC :0.77553: AVG IPC :0.78477: L2-Pf-HR :0.93424: L2-HR :0.83063: (Sim:4h4m19s) 
CPU  1 inst:  139000002 cyc:  174604562 now IPC :0.66883: AVG IPC :0.78908: L2-Pf-HR :0.93562: L2-HR :0.82671: (Sim:4h4m46s) 
CPU  2 inst:  141000005 cyc:  175083673 now IPC :0.78798: AVG IPC :0.79840: L2-Pf-HR :0.92425: L2-HR :0.82614: (Sim:4h5m13s) 
CPU  3 inst:  138000005 cyc:  175288961 now IPC :0.68259: AVG IPC :0.78025: L2-Pf-HR :0.93001: L2-HR :0.82513: (Sim:4h5m24s) 
CPU  0 inst:  139000005 cyc:  175638436 now IPC :0.73874: AVG IPC :0.78441: L2-Pf-HR :0.93435: L2-HR :0.83067: (Sim:4h5m40s) 
CPU  1 inst:  140000005 cyc:  175989167 now IPC :0.72223: AVG IPC :0.78856: L2-Pf-HR :0.93563: L2-HR :0.82669: (Sim:4h5m59s) 
CPU  2 inst:  142000004 cyc:  176175240 now IPC :0.91611: AVG IPC :0.79914: L2-Pf-HR :0.92422: L2-HR :0.82623: (Sim:4h6m9s) 
CPU  3 inst:  139000002 cyc:  176649508 now IPC :0.73500: AVG IPC :0.77990: L2-Pf-HR :0.93000: L2-HR :0.82514: (Sim:4h6m30s) 
CPU  0 inst:  140000002 cyc:  176927184 now IPC :0.77594: AVG IPC :0.78435: L2-Pf-HR :0.93446: L2-HR :0.83069: (Sim:4h6m45s) 
CPU  2 inst:  143000004 cyc:  177299201 now IPC :0.88971: AVG IPC :0.79971: L2-Pf-HR :0.92424: L2-HR :0.82648: (Sim:4h7m4s) 
CPU  1 inst:  141000005 cyc:  177329051 now IPC :0.74633: AVG IPC :0.78823: L2-Pf-HR :0.93574: L2-HR :0.82669: (Sim:4h7m6s) 
CPU  3 inst:  140000005 cyc:  177979823 now IPC :0.75170: AVG IPC :0.77969: L2-Pf-HR :0.93001: L2-HR :0.82515: (Sim:4h7m36s) 
CPU  0 inst:  141000005 cyc:  178277743 now IPC :0.74044: AVG IPC :0.78402: L2-Pf-HR :0.93460: L2-HR :0.83074: (Sim:4h7m51s) 
CPU  2 inst:  144000005 cyc:  178452495 now IPC :0.86708: AVG IPC :0.80015: L2-Pf-HR :0.92428: L2-HR :0.82671: (Sim:4h8m1s) 
CPU  1 inst:  142000002 cyc:  178672813 now IPC :0.74418: AVG IPC :0.78790: L2-Pf-HR :0.93571: L2-HR :0.82676: (Sim:4h8m13s) 
CPU  3 inst:  141000005 cyc:  179193431 now IPC :0.82399: AVG IPC :0.77999: L2-Pf-HR :0.93000: L2-HR :0.82515: (Sim:4h8m39s) 
CPU  0 inst:  142000001 cyc:  179646151 now IPC :0.73077: AVG IPC :0.78361: L2-Pf-HR :0.93457: L2-HR :0.83082: (Sim:4h9m1s) 
CPU  2 inst:  145000002 cyc:  179702094 now IPC :0.80025: AVG IPC :0.80015: L2-Pf-HR :0.92434: L2-HR :0.82697: (Sim:4h9m4s) 
CPU  1 inst:  143000004 cyc:  179758741 now IPC :0.92087: AVG IPC :0.78871: L2-Pf-HR :0.93572: L2-HR :0.82697: (Sim:4h9m7s) 
CPU  3 inst:  142000002 cyc:  180478926 now IPC :0.77791: AVG IPC :0.77997: L2-Pf-HR :0.92999: L2-HR :0.82525: (Sim:4h9m43s) 
CPU  0 inst:  143000004 cyc:  180722444 now IPC :0.92912: AVG IPC :0.78448: L2-Pf-HR :0.93463: L2-HR :0.83107: (Sim:4h9m58s) 
CPU  1 inst:  144000005 cyc:  180906182 now IPC :0.87151: AVG IPC :0.78924: L2-Pf-HR :0.93572: L2-HR :0.82715: (Sim:4h10m9s) 
CPU  2 inst:  146000001 cyc:  181024743 now IPC :0.75606: AVG IPC :0.79983: L2-Pf-HR :0.92412: L2-HR :0.82680: (Sim:4h10m15s) 
CPU  3 inst:  143000004 cyc:  181507525 now IPC :0.97220: AVG IPC :0.78107: L2-Pf-HR :0.93011: L2-HR :0.82546: (Sim:4h10m42s) 
CPU  0 inst:  144000005 cyc:  181784673 now IPC :0.94142: AVG IPC :0.78540: L2-Pf-HR :0.93478: L2-HR :0.83129: (Sim:4h10m57s) 
CPU  1 inst:  145000002 cyc:  181959008 now IPC :0.94982: AVG IPC :0.79017: L2-Pf-HR :0.93577: L2-HR :0.82739: (Sim:4h11m8s) 
CPU  2 inst:  147000005 cyc:  182130196 now IPC :0.90461: AVG IPC :0.80047: L2-Pf-HR :0.92410: L2-HR :0.82673: (Sim:4h11m18s) 
CPU  3 inst:  144000005 cyc:  182628227 now IPC :0.89230: AVG IPC :0.78176: L2-Pf-HR :0.93025: L2-HR :0.82565: (Sim:4h11m42s) 
CPU  0 inst:  145000002 cyc:  182894631 now IPC :0.90093: AVG IPC :0.78611: L2-Pf-HR :0.93492: L2-HR :0.83150: (Sim:4h11m57s) 
CPU  1 inst:  146000001 cyc:  183197033 now IPC :0.80774: AVG IPC :0.79029: L2-Pf-HR :0.93557: L2-HR :0.82727: (Sim:4h12m13s) 
CPU  2 inst:  148000001 cyc:  183282778 now IPC :0.86761: AVG IPC :0.80089: L2-Pf-HR :0.92411: L2-HR :0.82667: (Sim:4h12m17s) 
CPU  3 inst:  145000002 cyc:  183824582 now IPC :0.83587: AVG IPC :0.78211: L2-Pf-HR :0.93043: L2-HR :0.82588: (Sim:4h12m47s) 
CPU  0 inst:  146000001 cyc:  184310069 now IPC :0.70649: AVG IPC :0.78549: L2-Pf-HR :0.93460: L2-HR :0.83130: (Sim:4h13m31s) 
CPU  2 inst:  149000004 cyc:  184457364 now IPC :0.85137: AVG IPC :0.80122: L2-Pf-HR :0.92412: L2-HR :0.82657: (Sim:4h13m42s) 
CPU  1 inst:  147000004 cyc:  184610958 now IPC :0.70725: AVG IPC :0.78965: L2-Pf-HR :0.93560: L2-HR :0.82722: (Sim:4h13m55s) 
CPU  3 inst:  146000001 cyc:  185578344 now IPC :0.57020: AVG IPC :0.78010: L2-Pf-HR :0.93031: L2-HR :0.82573: (Sim:4h15m18s) 
CPU  2 inst:  150000002 cyc:  185861552 now IPC :0.71215: AVG IPC :0.80054: L2-Pf-HR :0.92410: L2-HR :0.82645: (Sim:4h15m43s) 
CPU  0 inst:  147000000 cyc:  185916594 now IPC :0.62246: AVG IPC :0.78408: L2-Pf-HR :0.93458: L2-HR :0.83125: (Sim:4h15m48s) 
CPU  1 inst:  148000000 cyc:  186005108 now IPC :0.71728: AVG IPC :0.78911: L2-Pf-HR :0.93566: L2-HR :0.82718: (Sim:4h15m56s) 
CPU  3 inst:  147000001 cyc:  187061843 now IPC :0.67408: AVG IPC :0.77925: L2-Pf-HR :0.93036: L2-HR :0.82569: (Sim:4h17m30s) 
CPU  1 inst:  149000004 cyc:  187152676 now IPC :0.87141: AVG IPC :0.78961: L2-Pf-HR :0.93571: L2-HR :0.82709: (Sim:4h17m39s) 
CPU  2 inst:  151000003 cyc:  187297390 now IPC :0.69646: AVG IPC :0.79974: L2-Pf-HR :0.92405: L2-HR :0.82632: (Sim:4h17m53s) 
CPU  0 inst:  148000000 cyc:  187370531 now IPC :0.68779: AVG IPC :0.78332: L2-Pf-HR :0.93457: L2-HR :0.83121: (Sim:4h17m59s) 
CPU  1 inst:  150000005 cyc:  188367947 now IPC :0.82286: AVG IPC :0.78983: L2-Pf-HR :0.93568: L2-HR :0.82698: (Sim:4h19m27s) 
CPU  3 inst:  148000000 cyc:  188516693 now IPC :0.68736: AVG IPC :0.77854: L2-Pf-HR :0.93037: L2-HR :0.82563: (Sim:4h19m37s) 
CPU  0 inst:  149000004 cyc:  188802983 now IPC :0.69811: AVG IPC :0.78267: L2-Pf-HR :0.93454: L2-HR :0.83112: (Sim:4h20m1s) 
CPU  2 inst:  152000001 cyc:  188885435 now IPC :0.62970: AVG IPC :0.79830: L2-Pf-HR :0.92395: L2-HR :0.82620: (Sim:4h20m9s) 
CPU  1 inst:  151000003 cyc:  189720340 now IPC :0.73943: AVG IPC :0.78947: L2-Pf-HR :0.93571: L2-HR :0.82687: (Sim:4h21m23s) 
CPU  3 inst:  149000004 cyc:  189983652 now IPC :0.68169: AVG IPC :0.77779: L2-Pf-HR :0.93032: L2-HR :0.82552: (Sim:4h21m44s) 
CPU  0 inst:  150000005 cyc:  190278701 now IPC :0.67764: AVG IPC :0.78186: L2-Pf-HR :0.93445: L2-HR :0.83099: (Sim:4h22m10s) 
CPU  2 inst:  153000004 cyc:  190354389 now IPC :0.68076: AVG IPC :0.79739: L2-Pf-HR :0.92399: L2-HR :0.82619: (Sim:4h22m17s) 
CPU  1 inst:  152000003 cyc:  191179029 now IPC :0.68555: AVG IPC :0.78867: L2-Pf-HR :0.93562: L2-HR :0.82677: (Sim:4h23m30s) 
CPU  3 inst:  150000005 cyc:  191488319 now IPC :0.66460: AVG IPC :0.77689: L2-Pf-HR :0.93023: L2-HR :0.82541: (Sim:4h23m59s) 
CPU  0 inst:  151000003 cyc:  191625880 now IPC :0.74229: AVG IPC :0.78158: L2-Pf-HR :0.93439: L2-HR :0.83089: (Sim:4h24m11s) 
CPU  2 inst:  154000003 cyc:  191807171 now IPC :0.68833: AVG IPC :0.79656: L2-Pf-HR :0.92404: L2-HR :0.82619: (Sim:4h24m27s) 
CPU  1 inst:  153000004 cyc:  192697788 now IPC :0.65843: AVG IPC :0.78764: L2-Pf-HR :0.93568: L2-HR :0.82675: (Sim:4h25m42s) 
CPU  0 inst:  152000001 cyc:  192888076 now IPC :0.79227: AVG IPC :0.78165: L2-Pf-HR :0.93427: L2-HR :0.83076: (Sim:4h25m59s) 
CPU  3 inst:  151000003 cyc:  193074093 now IPC :0.63061: AVG IPC :0.77568: L2-Pf-HR :0.93022: L2-HR :0.82530: (Sim:4h26m16s) 
CPU  2 inst:  155000003 cyc:  193312916 now IPC :0.66412: AVG IPC :0.79552: L2-Pf-HR :0.92410: L2-HR :0.82620: (Sim:4h26m39s) 
CPU  0 inst:  153000005 cyc:  193980988 now IPC :0.91499: AVG IPC :0.78240: L2-Pf-HR :0.93432: L2-HR :0.83073: (Sim:4h27m39s) 
CPU  1 inst:  154000003 cyc:  194068879 now IPC :0.72935: AVG IPC :0.78723: L2-Pf-HR :0.93573: L2-HR :0.82676: (Sim:4h27m49s) 
CPU  2 inst:  156000003 cyc:  194422877 now IPC :0.90093: AVG IPC :0.79613: L2-Pf-HR :0.92415: L2-HR :0.82620: (Sim:4h28m26s) 
CPU  3 inst:  152000001 cyc:  194469770 now IPC :0.71650: AVG IPC :0.77526: L2-Pf-HR :0.93004: L2-HR :0.82518: (Sim:4h28m30s) 
CPU  0 inst:  154000003 cyc:  195075431 now IPC :0.91370: AVG IPC :0.78314: L2-Pf-HR :0.93437: L2-HR :0.83072: (Sim:4h29m33s) 
CPU  1 inst:  155000003 cyc:  195219821 now IPC :0.86885: AVG IPC :0.78771: L2-Pf-HR :0.93579: L2-HR :0.82676: (Sim:4h29m47s) 
CPU  2 inst:  157000003 cyc:  195376033 now IPC :1.04915: AVG IPC :0.79737: L2-Pf-HR :0.92420: L2-HR :0.82619: (Sim:4h30m4s) 
CPU  3 inst:  153000001 cyc:  195591056 now IPC :0.89183: AVG IPC :0.77593: L2-Pf-HR :0.93004: L2-HR :0.82514: (Sim:4h30m26s) 
CPU  0 inst:  155000003 cyc:  196246418 now IPC :0.85398: AVG IPC :0.78357: L2-Pf-HR :0.93449: L2-HR :0.83071: (Sim:4h31m32s) 
CPU  1 inst:  156000003 cyc:  196287214 now IPC :0.93686: AVG IPC :0.78852: L2-Pf-HR :0.93580: L2-HR :0.82673: (Sim:4h31m37s) 
CPU  2 inst:  158000000 cyc:  196492939 now IPC :0.89533: AVG IPC :0.79793: L2-Pf-HR :0.92418: L2-HR :0.82625: (Sim:4h31m59s) 
CPU  3 inst:  154000003 cyc:  196726162 now IPC :0.88098: AVG IPC :0.77654: L2-Pf-HR :0.93008: L2-HR :0.82513: (Sim:4h32m23s) 
[...]
Core_0_LLC_writebacks 2747156
Core_0_LLC_writeback_hit 2691177
Core_0_LLC_writeback_miss 55979


CPU 1 cumulative IPC: 0.54364 instructions: 497359029 cycles: 914871058
Core_1_L1D_total_access 218926513
Core_1_L1D_total_hit 198630749
Core_1_L1D_total_miss 20295764
Core_1_L1D_loads 125987933
Core_1_L1D_load_hit 115053930
Core_1_L1D_load_miss 10934003
Core_1_L1D_RFOs 12663429
Core_1_L1D_RFO_hit 11827114
Core_1_L1D_RFO_miss 836315
Core_1_L1D_prefetches 80275151
Core_1_L1D_prefetch_hit 71749705
Core_1_L1D_prefetch_miss 8525446
Core_1_L1D_writebacks 0
Core_1_L1D_writeback_hit 0
Core_1_L1D_writeback_miss 0

Core_1_L1I_total_access 72777254
Core_1_L1I_total_hit 72766687
Core_1_L1I_total_miss 10567
Core_1_L1I_loads 72777254
Core_1_L1I_load_hit 72766687
Core_1_L1I_load_miss 10567
Core_1_L1I_RFOs 0
Core_1_L1I_RFO_hit 0
Core_1_L1I_RFO_miss 0
Core_1_L1I_prefetches 0
Core_1_L1I_prefetch_hit 0
Core_1_L1I_prefetch_miss 0
Core_1_L1I_writebacks 0
Core_1_L1I_writeback_hit 0
Core_1_L1I_writeback_miss 0

Core_1_L2C_total_access 32393410
Core_1_L2C_total_hit 27465134
Core_1_L2C_total_miss 4928276
Core_1_L2C_loads 8550223
Core_1_L2C_load_hit 6772238
Core_1_L2C_load_miss 1777985
Core_1_L2C_RFOs 836300
Core_1_L2C_RFO_hit 73688
Core_1_L2C_RFO_miss 762612
Core_1_L2C_prefetches 20072851
Core_1_L2C_prefetch_hit 17686355
Core_1_L2C_prefetch_miss 2386496
Core_1_L2C_writebacks 2934036
Core_1_L2C_writeback_hit 2932853
Core_1_L2C_writeback_miss 1183


Core_1_LLC_total_access 7686985
Core_1_LLC_total_hit 3359087
Core_1_LLC_total_miss 4327898
Core_1_LLC_loads 1197115
Core_1_LLC_load_hit 305226
Core_1_LLC_load_miss 891889
Core_1_LLC_RFOs 762610
Core_1_LLC_RFO_hit 126
Core_1_LLC_RFO_miss 762484
Core_1_LLC_prefetches 2967348
Core_1_LLC_prefetch_hit 348588
Core_1_LLC_prefetch_miss 2618760
Core_1_LLC_writebacks 2759912
Core_1_LLC_writeback_hit 2705147
Core_1_LLC_writeback_miss 54765


CPU 2 cumulative IPC: 0.54971 instructions: 502911584 cycles: 914871058
Core_2_L1D_total_access 221291184
Core_2_L1D_total_hit 200730269
Core_2_L1D_total_miss 20560915
Core_2_L1D_loads 127067175
Core_2_L1D_load_hit 116006875
Core_2_L1D_load_miss 11060300
Core_2_L1D_RFOs 12718290
Core_2_L1D_RFO_hit 11877588
Core_2_L1D_RFO_miss 840702
Core_2_L1D_prefetches 81505719
Core_2_L1D_prefetch_hit 72845806
Core_2_L1D_prefetch_miss 8659913
Core_2_L1D_writebacks 0
Core_2_L1D_writeback_hit 0
Core_2_L1D_writeback_miss 0

Core_2_L1I_total_access 73367952
Core_2_L1I_total_hit 73357359
Core_2_L1I_total_miss 10593
Core_2_L1I_loads 73367952
Core_2_L1I_load_hit 73357359
Core_2_L1I_load_miss 10593
Core_2_L1I_RFOs 0
Core_2_L1I_RFO_hit 0
Core_2_L1I_RFO_miss 0
Core_2_L1I_prefetches 0
Core_2_L1I_prefetch_hit 0
Core_2_L1I_prefetch_miss 0
Core_2_L1I_writebacks 0
Core_2_L1I_writeback_hit 0
Core_2_L1I_writeback_miss 0

Core_2_L2C_total_access 33464402
Core_2_L2C_total_hit 28498060
Core_2_L2C_total_miss 4966342
Core_2_L2C_loads 8773487
Core_2_L2C_load_hit 7009904
Core_2_L2C_load_miss 1763583
Core_2_L2C_RFOs 840690
Core_2_L2C_RFO_hit 79004
Core_2_L2C_RFO_miss 761686
Core_2_L2C_prefetches 20882065
Core_2_L2C_prefetch_hit 18442180
Core_2_L2C_prefetch_miss 2439885
Core_2_L2C_writebacks 2968160
Core_2_L2C_writeback_hit 2966972
Core_2_L2C_writeback_miss 1188


Core_2_LLC_total_access 7737632
Core_2_LLC_total_hit 3334752
Core_2_LLC_total_miss 4402880
Core_2_LLC_loads 1185298
Core_2_LLC_load_hit 326152
Core_2_LLC_load_miss 859146
Core_2_LLC_RFOs 761686
Core_2_LLC_RFO_hit 151
Core_2_LLC_RFO_miss 761535
Core_2_LLC_prefetches 3018149
Core_2_LLC_prefetch_hit 315871
Core_2_LLC_prefetch_miss 2702278
Core_2_LLC_writebacks 2772499
Core_2_LLC_writeback_hit 2692578
Core_2_LLC_writeback_miss 79921


CPU 3 cumulative IPC: 0.53669 instructions: 491000005 cycles: 914871059
Core_3_L1D_total_access 217437621
Core_3_L1D_total_hit 197451110
Core_3_L1D_total_miss 19986511
Core_3_L1D_loads 124446106
Core_3_L1D_load_hit 113639494
Core_3_L1D_load_miss 10806612
Core_3_L1D_RFOs 12619822
Core_3_L1D_RFO_hit 11781912
Core_3_L1D_RFO_miss 837910
Core_3_L1D_prefetches 80371693
Core_3_L1D_prefetch_hit 72029704
Core_3_L1D_prefetch_miss 8341989
Core_3_L1D_writebacks 0
Core_3_L1D_writeback_hit 0
Core_3_L1D_writeback_miss 0

Core_3_L1I_total_access 72135941
Core_3_L1I_total_hit 72130965
Core_3_L1I_total_miss 4976
Core_3_L1I_loads 72135941
Core_3_L1I_load_hit 72130965
Core_3_L1I_load_miss 4976
Core_3_L1I_RFOs 0
Core_3_L1I_RFO_hit 0
Core_3_L1I_RFO_miss 0
Core_3_L1I_prefetches 0
Core_3_L1I_prefetch_hit 0
Core_3_L1I_prefetch_miss 0
Core_3_L1I_writebacks 0
Core_3_L1I_writeback_hit 0
Core_3_L1I_writeback_miss 0

Core_3_L2C_total_access 32147602
Core_3_L2C_total_hit 27250809
Core_3_L2C_total_miss 4896793
Core_3_L2C_loads 8444994
Core_3_L2C_load_hit 6691827
Core_3_L2C_load_miss 1753167
Core_3_L2C_RFOs 837900
Core_3_L2C_RFO_hit 75543
Core_3_L2C_RFO_miss 762357
Core_3_L2C_prefetches 19950874
Core_3_L2C_prefetch_hit 17570853
Core_3_L2C_prefetch_miss 2380021
Core_3_L2C_writebacks 2913834
Core_3_L2C_writeback_hit 2912586
Core_3_L2C_writeback_miss 1248


Core_3_LLC_total_access 7647707
Core_3_LLC_total_hit 3282292
Core_3_LLC_total_miss 4365415
Core_3_LLC_loads 1171612
Core_3_LLC_load_hit 284995
Core_3_LLC_load_miss 886617
Core_3_LLC_RFOs 762355
Core_3_LLC_RFO_hit 195
Core_3_LLC_RFO_miss 762160
Core_3_LLC_prefetches 2961570
Core_3_LLC_prefetch_hit 305843
Core_3_LLC_prefetch_miss 2655727
Core_3_LLC_writebacks 2752170
Core_3_LLC_writeback_hit 2691259
Core_3_LLC_writeback_miss 60911


[ROI Statistics]
Core_0_instructions 491000000
Core_0_cycles 912057867
Core_0_IPC 0.53834

Core_0_branch_prediction_accuracy 99.58038
Core_0_branch_MPKI 0.12137
Core_0_average_ROB_occupancy_at_mispredict 562.70211

Core_0_L1D_total_access 218712934
Core_0_L1D_total_hit 198150563 L1D_total_Hit Ratio: 0.90598
Core_0_L1D_total_miss 20562371
Core_0_L1D_loads 124451969
Core_0_L1D_load_hit 113475323 L1D_load_Hit Ratio: 0.91180
Core_0_L1D_load_miss 10976646
Core_0_L1D_RFOs 12615716
Core_0_L1D_RFO_hit 11774926 L1D_RFO_Hit Ratio: 0.93335
Core_0_L1D_RFO_miss 840790
Core_0_L1D_prefetches 81645249
Core_0_L1D_prefetch_hit 72900314 L1D_prefetch_Hit Ratio: 0.89289
Core_0_L1D_prefetch_miss 8744935
Core_0_L1D_writebacks 0
Core_0_L1D_writeback_hit 0 L1D_writeback_Hit Ratio: -nan
Core_0_L1D_writeback_miss 0
Core_0_L1D_prefetch_requested 168299258
Core_0_L1D_prefetch_issued 116686155
Core_0_L1D_prefetch_useful 7545602 L1D_Useful Ratio: 0.06467
Core_0_L1D_prefetch_useless 1333700
Core_0_L1D_prefetch_late 2208348
Core_0_L1D_average_miss_latency 74958953.54411

Core_0_L1I_total_access 72118713
Core_0_L1I_total_hit 72113736 L1I_total_Hit Ratio: 0.99993
Core_0_L1I_total_miss 4977
Core_0_L1I_loads 72118713
Core_0_L1I_load_hit 72113736 L1I_load_Hit Ratio: 0.99993
Core_0_L1I_load_miss 4977
Core_0_L1I_RFOs 0
Core_0_L1I_RFO_hit 0 L1I_RFO_Hit Ratio: -nan
Core_0_L1I_RFO_miss 0
Core_0_L1I_prefetches 0
Core_0_L1I_prefetch_hit 0 L1I_prefetch_Hit Ratio: -nan
Core_0_L1I_prefetch_miss 0
Core_0_L1I_writebacks 0
Core_0_L1I_writeback_hit 0 L1I_writeback_Hit Ratio: -nan
Core_0_L1I_writeback_miss 0
Core_0_L1I_prefetch_requested 0
Core_0_L1I_prefetch_issued 0
Core_0_L1I_prefetch_useful 0 L1I_Useful Ratio: -nan
Core_0_L1I_prefetch_useless 0
Core_0_L1I_prefetch_late 0
Core_0_L1I_average_miss_latency 1289.48041

Core_0_L2C_total_access 33483248
Core_0_L2C_total_hit 28585729 L2C_total_Hit Ratio: 0.85373
Core_0_L2C_total_miss 4897519
Core_0_L2C_loads 8805682
Core_0_L2C_load_hit 7063110 L2C_load_Hit Ratio: 0.80211
Core_0_L2C_load_miss 1742572
Core_0_L2C_RFOs 840780
Core_0_L2C_RFO_hit 78385 L2C_RFO_Hit Ratio: 0.09323
Core_0_L2C_RFO_miss 762395
Core_0_L2C_prefetches 20922953
Core_0_L2C_prefetch_hit 18531596 L2C_prefetch_Hit Ratio: 0.88571
Core_0_L2C_prefetch_miss 2391357
Core_0_L2C_writebacks 2913833
Core_0_L2C_writeback_hit 2912638 L2C_writeback_Hit Ratio: 0.99959
Core_0_L2C_writeback_miss 1195
Core_0_L2C_prefetch_requested 19585373
Core_0_L2C_prefetch_issued 19338610
Core_0_L2C_prefetch_useful 353251 L2C_Useful Ratio: 0.01827
Core_0_L2C_prefetch_useless 2056222
Core_0_L2C_prefetch_late 584751
Core_0_L2C_average_miss_latency 799.66762

Core_0_LLC_total_access 7641819
Core_0_LLC_total_hit 3305672 LLC_total_Hit Ratio: 0.43258
Core_0_LLC_total_miss 4336147
Core_0_LLC_loads 1159652
Core_0_LLC_load_hit 278131 LLC_load_Hit Ratio: 0.23984
Core_0_LLC_load_miss 881521
Core_0_LLC_RFOs 762394
Core_0_LLC_RFO_hit 153 LLC_RFO_Hit Ratio: 0.00020
Core_0_LLC_RFO_miss 762241
Core_0_LLC_prefetches 2974262
Core_0_LLC_prefetch_hit 337193 LLC_prefetch_Hit Ratio: 0.11337
Core_0_LLC_prefetch_miss 2637069
Core_0_LLC_writebacks 2745511
Core_0_LLC_writeback_hit 2690195 LLC_writeback_Hit Ratio: 0.97985
Core_0_LLC_writeback_miss 55316
Core_0_LLC_prefetch_requested 0
Core_0_LLC_prefetch_issued 0
Core_0_LLC_prefetch_useful 314274 LLC_Useful Ratio: inf
Core_0_LLC_prefetch_useless 10221203
Core_0_LLC_prefetch_late 0
Core_0_LLC_average_miss_latency 3483.18540

Core_0_major_page_fault 0
Core_0_minor_page_fault 28740

Core_1_instructions 491000004
Core_1_cycles 910163319
Core_1_IPC 0.53946

Core_1_branch_prediction_accuracy 99.58118
Core_1_branch_MPKI 0.12084
Core_1_average_ROB_occupancy_at_mispredict 562.79907

Core_1_L1D_total_access 216280685
Core_1_L1D_total_hit 196298094 L1D_total_Hit Ratio: 0.90761
Core_1_L1D_total_miss 19982591
Core_1_L1D_loads 124461657
Core_1_L1D_load_hit 113700999 L1D_load_Hit Ratio: 0.91354
Core_1_L1D_load_miss 10760658
Core_1_L1D_RFOs 12619940
Core_1_L1D_RFO_hit 11784410 L1D_RFO_Hit Ratio: 0.93379
Core_1_L1D_RFO_miss 835530
Core_1_L1D_prefetches 79199088
Core_1_L1D_prefetch_hit 70812685 L1D_prefetch_Hit Ratio: 0.89411
Core_1_L1D_prefetch_miss 8386403
Core_1_L1D_writebacks 0
Core_1_L1D_writeback_hit 0 L1D_writeback_Hit Ratio: -nan
Core_1_L1D_writeback_miss 0
Core_1_L1D_prefetch_requested 160899506
Core_1_L1D_prefetch_issued 118294588
Core_1_L1D_prefetch_useful 7770805 L1D_Useful Ratio: 0.06569
Core_1_L1D_prefetch_useless 772465
Core_1_L1D_prefetch_late 2394431
Core_1_L1D_average_miss_latency 84873895.16408

Core_1_L1I_total_access 72128028
Core_1_L1I_total_hit 72123057 L1I_total_Hit Ratio: 0.99993
Core_1_L1I_total_miss 4971
Core_1_L1I_loads 72128028
Core_1_L1I_load_hit 72123057 L1I_load_Hit Ratio: 0.99993
Core_1_L1I_load_miss 4971
Core_1_L1I_RFOs 0
Core_1_L1I_RFO_hit 0 L1I_RFO_Hit Ratio: -nan
Core_1_L1I_RFO_miss 0
Core_1_L1I_prefetches 0
Core_1_L1I_prefetch_hit 0 L1I_prefetch_Hit Ratio: -nan
Core_1_L1I_prefetch_miss 0
Core_1_L1I_writebacks 0
Core_1_L1I_writeback_hit 0 L1I_writeback_Hit Ratio: -nan
Core_1_L1I_writeback_miss 0
Core_1_L1I_prefetch_requested 0
Core_1_L1I_prefetch_issued 0
Core_1_L1I_prefetch_useful 0 L1I_Useful Ratio: -nan
Core_1_L1I_prefetch_useless 0
Core_1_L1I_prefetch_late 0
Core_1_L1I_average_miss_latency 1266.76524

Core_1_L2C_total_access 31910434
Core_1_L2C_total_hit 27028729 L2C_total_Hit Ratio: 0.84702
Core_1_L2C_total_miss 4881705
Core_1_L2C_loads 8406529
Core_1_L2C_load_hit 6650548 L2C_load_Hit Ratio: 0.79112
Core_1_L2C_load_miss 1755981
Core_1_L2C_RFOs 835521
Core_1_L2C_RFO_hit 72987 L2C_RFO_Hit Ratio: 0.08736
Core_1_L2C_RFO_miss 762534
Core_1_L2C_prefetches 19754549
Core_1_L2C_prefetch_hit 17392515 L2C_prefetch_Hit Ratio: 0.88043
Core_1_L2C_prefetch_miss 2362034
Core_1_L2C_writebacks 2913835
Core_1_L2C_writeback_hit 2912679 L2C_writeback_Hit Ratio: 0.99960
Core_1_L2C_writeback_miss 1156
Core_1_L2C_prefetch_requested 18823709
Core_1_L2C_prefetch_issued 18687981
Core_1_L2C_prefetch_useful 338916 L2C_Useful Ratio: 0.01814
Core_1_L2C_prefetch_useless 2049794
Core_1_L2C_prefetch_late 581295
Core_1_L2C_average_miss_latency 798.91369

Core_1_LLC_total_access 7629646
Core_1_LLC_total_hit 3340009 LLC_total_Hit Ratio: 0.43777
Core_1_LLC_total_miss 4289637
Core_1_LLC_loads 1177464
Core_1_LLC_load_hit 300763 LLC_load_Hit Ratio: 0.25543
Core_1_LLC_load_miss 876701
Core_1_LLC_RFOs 762532
Core_1_LLC_RFO_hit 118 LLC_RFO_Hit Ratio: 0.00015
Core_1_LLC_RFO_miss 762414
Core_1_LLC_prefetches 2940533
Core_1_LLC_prefetch_hit 343464 LLC_prefetch_Hit Ratio: 0.11680
Core_1_LLC_prefetch_miss 2597069
Core_1_LLC_writebacks 2749117
Core_1_LLC_writeback_hit 2695664 LLC_writeback_Hit Ratio: 0.98056
Core_1_LLC_writeback_miss 53453
Core_1_LLC_prefetch_requested 0
Core_1_LLC_prefetch_issued 0
Core_1_LLC_prefetch_useful 314274 LLC_Useful Ratio: inf
Core_1_LLC_prefetch_useless 10221203
Core_1_LLC_prefetch_late 0
Core_1_LLC_average_miss_latency 3520.95152

Core_1_major_page_fault 0
Core_1_minor_page_fault 28740

Core_2_instructions 491000000
Core_2_cycles 905190807
Core_2_IPC 0.54243

Core_2_branch_prediction_accuracy 99.58307
Core_2_branch_MPKI 0.11962
Core_2_average_ROB_occupancy_at_mispredict 562.75810

Core_2_L1D_total_access 216337281
Core_2_L1D_total_hit 196203273 L1D_total_Hit Ratio: 0.90693
Core_2_L1D_total_miss 20134008
Core_2_L1D_loads 124426895
Core_2_L1D_load_hit 113602569 L1D_load_Hit Ratio: 0.91301
Core_2_L1D_load_miss 10824326
Core_2_L1D_RFOs 12617819
Core_2_L1D_RFO_hit 11779569 L1D_RFO_Hit Ratio: 0.93357
Core_2_L1D_RFO_miss 838250
Core_2_L1D_prefetches 79292567
Core_2_L1D_prefetch_hit 70821135 L1D_prefetch_Hit Ratio: 0.89316
Core_2_L1D_prefetch_miss 8471432
Core_2_L1D_writebacks 0
Core_2_L1D_writeback_hit 0 L1D_writeback_Hit Ratio: -nan
Core_2_L1D_writeback_miss 0
Core_2_L1D_prefetch_requested 164377455
Core_2_L1D_prefetch_issued 120096551
Core_2_L1D_prefetch_useful 7752505 L1D_Useful Ratio: 0.06455
Core_2_L1D_prefetch_useless 925217
Core_2_L1D_prefetch_late 2297525
Core_2_L1D_average_miss_latency 79536394.78328

Core_2_L1I_total_access 72116080
Core_2_L1I_total_hit 72111105 L1I_total_Hit Ratio: 0.99993
Core_2_L1I_total_miss 4975
Core_2_L1I_loads 72116080
Core_2_L1I_load_hit 72111105 L1I_load_Hit Ratio: 0.99993
Core_2_L1I_load_miss 4975
Core_2_L1I_RFOs 0
Core_2_L1I_RFO_hit 0 L1I_RFO_Hit Ratio: -nan
Core_2_L1I_RFO_miss 0
Core_2_L1I_prefetches 0
Core_2_L1I_prefetch_hit 0 L1I_prefetch_Hit Ratio: -nan
Core_2_L1I_prefetch_miss 0
Core_2_L1I_writebacks 0
Core_2_L1I_writeback_hit 0 L1I_writeback_Hit Ratio: -nan
Core_2_L1I_writeback_miss 0
Core_2_L1I_prefetch_requested 0
Core_2_L1I_prefetch_issued 0
Core_2_L1I_prefetch_useful 0 L1I_Useful Ratio: -nan
Core_2_L1I_prefetch_useless 0
Core_2_L1I_prefetch_late 0
Core_2_L1I_average_miss_latency 1198.26191

Core_2_L2C_total_access 32763216
Core_2_L2C_total_hit 27881500 L2C_total_Hit Ratio: 0.85100
Core_2_L2C_total_miss 4881716
Core_2_L2C_loads 8573674
Core_2_L2C_load_hit 6862755 L2C_load_Hit Ratio: 0.80045
Core_2_L2C_load_miss 1710919
Core_2_L2C_RFOs 838242
Core_2_L2C_RFO_hit 76632 L2C_RFO_Hit Ratio: 0.09142
Core_2_L2C_RFO_miss 761610
Core_2_L2C_prefetches 20437465
Core_2_L2C_prefetch_hit 18029381 L2C_prefetch_Hit Ratio: 0.88217
Core_2_L2C_prefetch_miss 2408084
Core_2_L2C_writebacks 2913835
Core_2_L2C_writeback_hit 2912732 L2C_writeback_Hit Ratio: 0.99962
Core_2_L2C_writeback_miss 1103
Core_2_L2C_prefetch_requested 19132807
Core_2_L2C_prefetch_issued 18911339
Core_2_L2C_prefetch_useful 375754 L2C_Useful Ratio: 0.01987
Core_2_L2C_prefetch_useless 2070361
Core_2_L2C_prefetch_late 578847
Core_2_L2C_average_miss_latency 792.62834

Core_2_LLC_total_access 7617192
Core_2_LLC_total_hit 3285162 LLC_total_Hit Ratio: 0.43128
Core_2_LLC_total_miss 4332030
Core_2_LLC_loads 1135345
Core_2_LLC_load_hit 315989 LLC_load_Hit Ratio: 0.27832
Core_2_LLC_load_miss 819356
Core_2_LLC_RFOs 761610
Core_2_LLC_RFO_hit 147 LLC_RFO_Hit Ratio: 0.00019
Core_2_LLC_RFO_miss 761463
Core_2_LLC_prefetches 2983637
Core_2_LLC_prefetch_hit 308678 LLC_prefetch_Hit Ratio: 0.10346
Core_2_LLC_prefetch_miss 2674959
Core_2_LLC_writebacks 2736600
Core_2_LLC_writeback_hit 2660348 LLC_writeback_Hit Ratio: 0.97214
Core_2_LLC_writeback_miss 76252
Core_2_LLC_prefetch_requested 0
Core_2_LLC_prefetch_issued 0
Core_2_LLC_prefetch_useful 314274 LLC_Useful Ratio: inf
Core_2_LLC_prefetch_useless 10221203
Core_2_LLC_prefetch_late 0
Core_2_LLC_average_miss_latency 3486.49569

Core_2_major_page_fault 0
Core_2_minor_page_fault 28740

Core_3_instructions 491000005
Core_3_cycles 914871059
Core_3_IPC 0.53669

Core_3_branch_prediction_accuracy 99.58586
Core_3_branch_MPKI 0.12051
Core_3_average_ROB_occupancy_at_mispredict 569.57300

Core_3_L1D_total_access 217437621
Core_3_L1D_total_hit 197451110 L1D_total_Hit Ratio: 0.90808
Core_3_L1D_total_miss 19986511
Core_3_L1D_loads 124446106
Core_3_L1D_load_hit 113639494 L1D_load_Hit Ratio: 0.91316
Core_3_L1D_load_miss 10806612
Core_3_L1D_RFOs 12619822
Core_3_L1D_RFO_hit 11781912 L1D_RFO_Hit Ratio: 0.93360
Core_3_L1D_RFO_miss 837910
Core_3_L1D_prefetches 80371693
Core_3_L1D_prefetch_hit 72029704 L1D_prefetch_Hit Ratio: 0.89621
Core_3_L1D_prefetch_miss 8341989
Core_3_L1D_writebacks 0
Core_3_L1D_writeback_hit 0 L1D_writeback_Hit Ratio: -nan
Core_3_L1D_writeback_miss 0
Core_3_L1D_prefetch_requested 164402094
Core_3_L1D_prefetch_issued 115025393
Core_3_L1D_prefetch_useful 7601984 L1D_Useful Ratio: 0.06609
Core_3_L1D_prefetch_useless 757737
Core_3_L1D_prefetch_late 2366721
Core_3_L1D_average_miss_latency 83918116.96214

Core_3_L1I_total_access 72135941
Core_3_L1I_total_hit 72130965 L1I_total_Hit Ratio: 0.99993
Core_3_L1I_total_miss 4976
Core_3_L1I_loads 72135941
Core_3_L1I_load_hit 72130965 L1I_load_Hit Ratio: 0.99993
Core_3_L1I_load_miss 4976
Core_3_L1I_RFOs 0
Core_3_L1I_RFO_hit 0 L1I_RFO_Hit Ratio: -nan
Core_3_L1I_RFO_miss 0
Core_3_L1I_prefetches 0
Core_3_L1I_prefetch_hit 0 L1I_prefetch_Hit Ratio: -nan
Core_3_L1I_prefetch_miss 0
Core_3_L1I_writebacks 0
Core_3_L1I_writeback_hit 0 L1I_writeback_Hit Ratio: -nan
Core_3_L1I_writeback_miss 0
Core_3_L1I_prefetch_requested 0
Core_3_L1I_prefetch_issued 0
Core_3_L1I_prefetch_useful 0 L1I_Useful Ratio: -nan
Core_3_L1I_prefetch_useless 0
Core_3_L1I_prefetch_late 0
Core_3_L1I_average_miss_latency 1141.79220

Core_3_L2C_total_access 32147602
Core_3_L2C_total_hit 27250809 L2C_total_Hit Ratio: 0.84768
Core_3_L2C_total_miss 4896793
Core_3_L2C_loads 8444994
Core_3_L2C_load_hit 6691827 L2C_load_Hit Ratio: 0.79240
Core_3_L2C_load_miss 1753167
Core_3_L2C_RFOs 837900
Core_3_L2C_RFO_hit 75543 L2C_RFO_Hit Ratio: 0.09016
Core_3_L2C_RFO_miss 762357
Core_3_L2C_prefetches 19950874
Core_3_L2C_prefetch_hit 17570853 L2C_prefetch_Hit Ratio: 0.88071
Core_3_L2C_prefetch_miss 2380021
Core_3_L2C_writebacks 2913834
Core_3_L2C_writeback_hit 2912586 L2C_writeback_Hit Ratio: 0.99957
Core_3_L2C_writeback_miss 1248
Core_3_L2C_prefetch_requested 18671435
Core_3_L2C_prefetch_issued 18505222
Core_3_L2C_prefetch_useful 346020 L2C_Useful Ratio: 0.01870
Core_3_L2C_prefetch_useless 2027812
Core_3_L2C_prefetch_late 581945
Core_3_L2C_average_miss_latency 796.79379

Core_3_LLC_total_access 7647707
Core_3_LLC_total_hit 3282292 LLC_total_Hit Ratio: 0.42919
Core_3_LLC_total_miss 4365415
Core_3_LLC_loads 1171612
Core_3_LLC_load_hit 284995 LLC_load_Hit Ratio: 0.24325
Core_3_LLC_load_miss 886617
Core_3_LLC_RFOs 762355
Core_3_LLC_RFO_hit 195 LLC_RFO_Hit Ratio: 0.00026
Core_3_LLC_RFO_miss 762160
Core_3_LLC_prefetches 2961570
Core_3_LLC_prefetch_hit 305843 LLC_prefetch_Hit Ratio: 0.10327
Core_3_LLC_prefetch_miss 2655727
Core_3_LLC_writebacks 2752170
Core_3_LLC_writeback_hit 2691259 LLC_writeback_Hit Ratio: 0.97787
Core_3_LLC_writeback_miss 60911
Core_3_LLC_prefetch_requested 0
Core_3_LLC_prefetch_issued 0
Core_3_LLC_prefetch_useful 314274 LLC_Useful Ratio: inf
Core_3_LLC_prefetch_useless 10221203
Core_3_LLC_prefetch_late 0
Core_3_LLC_average_miss_latency 3459.83232

Core_3_major_page_fault 0
Core_3_minor_page_fault 28665





Channel_0_RQ_row_buffer_hit 5875530
Channel_0_RQ_row_buffer_miss 11326478
Channel_0_WQ_row_buffer_hit 3303341
Channel_0_WQ_row_buffer_miss 6529238
Channel_0_WQ_full 1927
Channel_0_dbus_congested 16887264

avg_congested_cycle 10

EzSearch AVG IPC :0.53834: L2-Pf-HR :0.88571 : L2-HR :0.85458 Uful:0.01827
EzSearch AVG IPC :0.53946: L2-Pf-HR :0.88043 : L2-HR :0.84786 Uful:0.01814
EzSearch AVG IPC :0.54243: L2-Pf-HR :0.88217 : L2-HR :0.85159 Uful:0.01987
EzSearch AVG IPC :0.53669: L2-Pf-HR :0.88071 : L2-HR :0.84768 Uful:0.01870
     > Finished combination: TraceType=770-tot Sim:491000000 Prefetcher=L2ipcp L1=ipcp
