TRACE: [167000000][OPT-350M]_[h16][s512][d64] Warmup: 2000000 NumTraces: 167000000
L1:next_line:L2:029-SecTOP-L2-MultiMarkovDelta_ip_stride_v4-IPStrS256
*************************************************
   ChampSim Multicore Out-of-Order Simulator
   Last compiled: Oct 27 2024 17:59:03
*************************************************

trace_0 770-tot_memTraces_v3/memTraces[167000000][OPT-350M]_[h16][s512][d64].champsim.xz
trace_1 770-tot_memTraces_v3/memTraces[167000000][OPT-350M]_[h16][s512][d64].champsim.xz
trace_2 770-tot_memTraces_v3/memTraces[167000000][OPT-350M]_[h16][s512][d64].champsim.xz
trace_3 770-tot_memTraces_v3/memTraces[167000000][OPT-350M]_[h16][s512][d64].champsim.xz
CPU 0 L1D next line prefetcher
MK1: Size: 128 TMAX: 64 TMIN: 32 MKPTHRESH: 40
MK2: Size: 256 TMAX: 32 TMIN: 16 MK2PTHRESH: 30
MK3: Size: 384 TMAX: 16 TMIN: 8 MK3PTHRESH: 25
MK4: Size: 512 TMAX: 8 TMIN: 0 MK4PTHRESH: 20
Stride Size: 256 Prefetch Degree: 15

CPU 0 L2C prefetcher
CPU 1 L1D next line prefetcher
MK1: Size: 128 TMAX: 64 TMIN: 32 MKPTHRESH: 40
MK2: Size: 256 TMAX: 32 TMIN: 16 MK2PTHRESH: 30
MK3: Size: 384 TMAX: 16 TMIN: 8 MK3PTHRESH: 25
MK4: Size: 512 TMAX: 8 TMIN: 0 MK4PTHRESH: 20
Stride Size: 256 Prefetch Degree: 15

CPU 1 L2C prefetcher
CPU 2 L1D next line prefetcher
MK1: Size: 128 TMAX: 64 TMIN: 32 MKPTHRESH: 40
MK2: Size: 256 TMAX: 32 TMIN: 16 MK2PTHRESH: 30
MK3: Size: 384 TMAX: 16 TMIN: 8 MK3PTHRESH: 25
MK4: Size: 512 TMAX: 8 TMIN: 0 MK4PTHRESH: 20
Stride Size: 256 Prefetch Degree: 15

CPU 2 L2C prefetcher
CPU 3 L1D next line prefetcher
MK1: Size: 128 TMAX: 64 TMIN: 32 MKPTHRESH: 40
MK2: Size: 256 TMAX: 32 TMIN: 16 MK2PTHRESH: 30
MK3: Size: 384 TMAX: 16 TMIN: 8 MK3PTHRESH: 25
MK4: Size: 512 TMAX: 8 TMIN: 0 MK4PTHRESH: 20
Stride Size: 256 Prefetch Degree: 15

CPU 3 L2C prefetcher
MAIN.cc ln 751 stats print skipped
CPU 0 L2C prefetcher initialized


Cache Size: 1280
number of cache lines: 20480
CPU  1 inst:    1000000 cyc:     502649 now IPC :1.98946: AVG IPC :1.98946: L2-Pf-HR :0.79418: L2-HR :0.77641: (Sim:0h0m47s) 
CPU  2 inst:    1000000 cyc:     502830 now IPC :1.98874: AVG IPC :1.98874: L2-Pf-HR :0.76252: L2-HR :0.75378: (Sim:0h0m47s) 
CPU  0 inst:    1000000 cyc:     502855 now IPC :1.98864: AVG IPC :1.98864: L2-Pf-HR :0.77136: L2-HR :0.75432: (Sim:0h0m47s) 
CPU  3 inst:    1000000 cyc:     502907 now IPC :1.98844: AVG IPC :1.98844: L2-Pf-HR :0.77025: L2-HR :0.76180: (Sim:0h0m47s) 
CPU  1 inst:    2000002 cyc:     985601 now IPC :2.07060: AVG IPC :2.02922: L2-Pf-HR :0.83804: L2-HR :0.82852: (Sim:0h1m38s) 
CPU  0 inst:    2000002 cyc:     985871 now IPC :2.07033: AVG IPC :2.02867: L2-Pf-HR :0.84907: L2-HR :0.83691: (Sim:0h1m38s) 
CPU  2 inst:    2000002 cyc:     985922 now IPC :2.07000: AVG IPC :2.02856: L2-Pf-HR :0.84959: L2-HR :0.84352: (Sim:0h1m38s) 
CPU  3 inst:    2000002 cyc:     986013 now IPC :2.06994: AVG IPC :2.02837: L2-Pf-HR :0.86952: L2-HR :0.86049: (Sim:0h1m38s) 

Warmup complete CPU  0 instructions:    2000283 cycles:     986013 (Simulation time: 0 hr 1 min 38 sec) 
Warmup complete CPU  1 instructions:    2000913 cycles:     986013 (Simulation time: 0 hr 1 min 38 sec) 
Warmup complete CPU  2 instructions:    2000273 cycles:     986013 (Simulation time: 0 hr 1 min 38 sec) 
Warmup complete CPU  3 instructions:    2000002 cycles:     986013 (Simulation time: 0 hr 1 min 38 sec) 

CPU  1 inst:    3000000 cyc:    1500044 now IPC :1.94385: AVG IPC :1.94363: L2-Pf-HR :0.84769: L2-HR :0.85723: (Sim:0h2m21s) 
CPU  3 inst:    3000000 cyc:    1500095 now IPC :1.94521: AVG IPC :1.94521: L2-Pf-HR :0.93590: L2-HR :0.94267: (Sim:0h2m21s) 
CPU  0 inst:    3000003 cyc:    1500870 now IPC :1.94175: AVG IPC :1.94174: L2-Pf-HR :0.92072: L2-HR :0.91928: (Sim:0h2m22s) 
CPU  2 inst:    3000000 cyc:    1501037 now IPC :1.94131: AVG IPC :1.94113: L2-Pf-HR :0.93210: L2-HR :0.93810: (Sim:0h2m22s) 
CPU  0 inst:    4000001 cyc:    2021839 now IPC :1.91950: AVG IPC :1.93055: L2-Pf-HR :0.90429: L2-HR :0.91052: (Sim:0h3m5s) 
CPU  3 inst:    4000001 cyc:    2022188 now IPC :1.91537: AVG IPC :1.93017: L2-Pf-HR :0.90952: L2-HR :0.92234: (Sim:0h3m5s) 
CPU  2 inst:    4000001 cyc:    2023538 now IPC :1.91387: AVG IPC :1.92740: L2-Pf-HR :0.91284: L2-HR :0.92352: (Sim:0h3m5s) 
CPU  1 inst:    4000001 cyc:    2024422 now IPC :1.90702: AVG IPC :1.92515: L2-Pf-HR :0.85528: L2-HR :0.86821: (Sim:0h3m5s) 
CPU  0 inst:    5000002 cyc:    2678205 now IPC :1.52354: AVG IPC :1.77268: L2-Pf-HR :0.89008: L2-HR :0.89411: (Sim:0h3m52s) 
CPU  2 inst:    5000002 cyc:    2686855 now IPC :1.50758: AVG IPC :1.76367: L2-Pf-HR :0.89595: L2-HR :0.90336: (Sim:0h3m53s) 
CPU  1 inst:    5000002 cyc:    2689846 now IPC :1.50280: AVG IPC :1.76020: L2-Pf-HR :0.82841: L2-HR :0.83762: (Sim:0h3m53s) 
CPU  3 inst:    5000002 cyc:    2690300 now IPC :1.49676: AVG IPC :1.76027: L2-Pf-HR :0.87653: L2-HR :0.88477: (Sim:0h3m53s) 
CPU  0 inst:    6000000 cyc:    3160838 now IPC :2.07196: AVG IPC :1.83910: L2-Pf-HR :0.88885: L2-HR :0.89351: (Sim:0h4m35s) 
CPU  2 inst:    6000000 cyc:    3170469 now IPC :2.06776: AVG IPC :1.83099: L2-Pf-HR :0.89488: L2-HR :0.90262: (Sim:0h4m36s) 
CPU  1 inst:    6000000 cyc:    3181234 now IPC :2.03505: AVG IPC :1.82172: L2-Pf-HR :0.80860: L2-HR :0.82078: (Sim:0h4m37s) 
CPU  3 inst:    6000000 cyc:    3181590 now IPC :2.03545: AVG IPC :1.82184: L2-Pf-HR :0.85205: L2-HR :0.86113: (Sim:0h4m37s) 
CPU  0 inst:    7000004 cyc:    3640062 now IPC :2.08672: AVG IPC :1.88381: L2-Pf-HR :0.89392: L2-HR :0.89747: (Sim:0h5m18s) 
CPU  2 inst:    7000004 cyc:    3649087 now IPC :2.08936: AVG IPC :1.87743: L2-Pf-HR :0.90101: L2-HR :0.90742: (Sim:0h5m19s) 
CPU  3 inst:    7000004 cyc:    3666034 now IPC :2.06423: AVG IPC :1.86566: L2-Pf-HR :0.84157: L2-HR :0.85014: (Sim:0h5m21s) 
CPU  1 inst:    7000004 cyc:    3668078 now IPC :2.05405: AVG IPC :1.86390: L2-Pf-HR :0.80226: L2-HR :0.81500: (Sim:0h5m21s) 
CPU  0 inst:    8000003 cyc:    4187228 now IPC :1.82760: AVG IPC :1.87420: L2-Pf-HR :0.89196: L2-HR :0.89668: (Sim:0h6m2s) 
CPU  2 inst:    8000003 cyc:    4205696 now IPC :1.79659: AVG IPC :1.86345: L2-Pf-HR :0.89961: L2-HR :0.90650: (Sim:0h6m4s) 
CPU  3 inst:    8000003 cyc:    4228452 now IPC :1.77804: AVG IPC :1.85046: L2-Pf-HR :0.84099: L2-HR :0.85045: (Sim:0h6m6s) 
CPU  1 inst:    8000003 cyc:    4229534 now IPC :1.78108: AVG IPC :1.84956: L2-Pf-HR :0.80738: L2-HR :0.82050: (Sim:0h6m6s) 
CPU  0 inst:    9000000 cyc:    5195911 now IPC :0.99139: AVG IPC :1.66268: L2-Pf-HR :0.89006: L2-HR :0.89503: (Sim:0h6m56s) 
CPU  2 inst:    9000000 cyc:    5249395 now IPC :0.95813: AVG IPC :1.64182: L2-Pf-HR :0.89621: L2-HR :0.90257: (Sim:0h6m59s) 
CPU  3 inst:    9000000 cyc:    5330395 now IPC :0.90749: AVG IPC :1.61128: L2-Pf-HR :0.84655: L2-HR :0.85539: (Sim:0h7m5s) 
CPU  1 inst:    9000000 cyc:    5404573 now IPC :0.85103: AVG IPC :1.58402: L2-Pf-HR :0.81445: L2-HR :0.82646: (Sim:0h7m10s) 
CPU  0 inst:   10000004 cyc:    5876665 now IPC :1.46897: AVG IPC :1.63572: L2-Pf-HR :0.89367: L2-HR :0.89987: (Sim:0h7m44s) 
CPU  2 inst:   10000004 cyc:    5887717 now IPC :1.56661: AVG IPC :1.63203: L2-Pf-HR :0.89798: L2-HR :0.90454: (Sim:0h7m45s) 
CPU  3 inst:   10000004 cyc:    5989930 now IPC :1.51623: AVG IPC :1.59875: L2-Pf-HR :0.85358: L2-HR :0.86276: (Sim:0h7m52s) 
CPU  1 inst:   10000004 cyc:    6168476 now IPC :1.30907: AVG IPC :1.54349: L2-Pf-HR :0.82008: L2-HR :0.83266: (Sim:0h8m4s) 
CPU  2 inst:   11000003 cyc:    6523176 now IPC :1.57366: AVG IPC :1.62533: L2-Pf-HR :0.90117: L2-HR :0.90765: (Sim:0h8m32s) 
CPU  0 inst:   11000003 cyc:    6525145 now IPC :1.54207: AVG IPC :1.62475: L2-Pf-HR :0.89799: L2-HR :0.90467: (Sim:0h8m32s) 
CPU  3 inst:   11000003 cyc:    6602660 now IPC :1.63204: AVG IPC :1.60238: L2-Pf-HR :0.86173: L2-HR :0.87035: (Sim:0h8m39s) 
CPU  1 inst:   11000003 cyc:    6749200 now IPC :1.72199: AVG IPC :1.56148: L2-Pf-HR :0.82743: L2-HR :0.83980: (Sim:0h8m52s) 
CPU  2 inst:   12000001 cyc:    7248474 now IPC :1.37874: AVG IPC :1.59677: L2-Pf-HR :0.90194: L2-HR :0.90823: (Sim:0h9m21s) 
CPU  0 inst:   12000001 cyc:    7250224 now IPC :1.37916: AVG IPC :1.59633: L2-Pf-HR :0.89921: L2-HR :0.90615: (Sim:0h9m21s) 
CPU  3 inst:   12000001 cyc:    7374489 now IPC :1.29562: AVG IPC :1.56532: L2-Pf-HR :0.86713: L2-HR :0.87514: (Sim:0h9m29s) 
CPU  1 inst:   12000001 cyc:    7633264 now IPC :1.13114: AVG IPC :1.50424: L2-Pf-HR :0.83607: L2-HR :0.84714: (Sim:0h9m46s) 
CPU  2 inst:   13000001 cyc:    8499034 now IPC :0.79964: AVG IPC :1.46409: L2-Pf-HR :0.90024: L2-HR :0.90639: (Sim:0h10m22s) 
CPU  0 inst:   13000001 cyc:    8572823 now IPC :0.75609: AVG IPC :1.44985: L2-Pf-HR :0.89750: L2-HR :0.90432: (Sim:0h10m26s) 
CPU  3 inst:   13000001 cyc:    8781191 now IPC :0.71088: AVG IPC :1.41113: L2-Pf-HR :0.86796: L2-HR :0.87558: (Sim:0h10m37s) 
CPU  1 inst:   13000001 cyc:    9151490 now IPC :0.65866: AVG IPC :1.34702: L2-Pf-HR :0.83852: L2-HR :0.84894: (Sim:0h11m2s) 
CPU  2 inst:   14000005 cyc:    9218074 now IPC :1.39075: AVG IPC :1.45768: L2-Pf-HR :0.90238: L2-HR :0.90899: (Sim:0h11m6s) 
CPU  0 inst:   14000005 cyc:    9335387 now IPC :1.31137: AVG IPC :1.43720: L2-Pf-HR :0.89989: L2-HR :0.90708: (Sim:0h11m14s) 
CPU  3 inst:   14000005 cyc:    9647006 now IPC :1.15499: AVG IPC :1.38552: L2-Pf-HR :0.87077: L2-HR :0.87850: (Sim:0h11m34s) 
CPU  2 inst:   15000000 cyc:    9925360 now IPC :1.41385: AVG IPC :1.45421: L2-Pf-HR :0.90433: L2-HR :0.91120: (Sim:0h11m54s) 
CPU  1 inst:   14000005 cyc:   10018184 now IPC :1.15381: AVG IPC :1.32848: L2-Pf-HR :0.84078: L2-HR :0.85154: (Sim:0h12m1s) 
CPU  0 inst:   15000000 cyc:   10033851 now IPC :1.43171: AVG IPC :1.43678: L2-Pf-HR :0.90161: L2-HR :0.90922: (Sim:0h12m2s) 
CPU  3 inst:   15000000 cyc:   10267648 now IPC :1.61123: AVG IPC :1.40062: L2-Pf-HR :0.87326: L2-HR :0.88110: (Sim:0h12m21s) 
CPU  1 inst:   15000000 cyc:   10608093 now IPC :1.69517: AVG IPC :1.35096: L2-Pf-HR :0.84502: L2-HR :0.85583: (Sim:0h12m43s) 
CPU  2 inst:   16000005 cyc:   10643920 now IPC :1.39168: AVG IPC :1.44956: L2-Pf-HR :0.90603: L2-HR :0.91272: (Sim:0h12m45s) 
CPU  0 inst:   16000005 cyc:   10778444 now IPC :1.34302: AVG IPC :1.42965: L2-Pf-HR :0.90348: L2-HR :0.91083: (Sim:0h12m54s) 
CPU  3 inst:   16000005 cyc:   11043428 now IPC :1.28903: AVG IPC :1.39201: L2-Pf-HR :0.87681: L2-HR :0.88412: (Sim:0h13m13s) 
CPU  1 inst:   16000005 cyc:   11449326 now IPC :1.18874: AVG IPC :1.33792: L2-Pf-HR :0.85156: L2-HR :0.86129: (Sim:0h13m33s) 
CPU  2 inst:   17000002 cyc:   11843870 now IPC :0.83337: AVG IPC :1.38146: L2-Pf-HR :0.90442: L2-HR :0.91101: (Sim:0h13m51s) 
CPU  0 inst:   17000002 cyc:   12104043 now IPC :0.75437: AVG IPC :1.34913: L2-Pf-HR :0.90171: L2-HR :0.90891: (Sim:0h14m3s) 
CPU  3 inst:   17000002 cyc:   12493041 now IPC :0.68984: AVG IPC :1.30355: L2-Pf-HR :0.87672: L2-HR :0.88394: (Sim:0h14m24s) 
CPU  2 inst:   18000004 cyc:   12602270 now IPC :1.31857: AVG IPC :1.37736: L2-Pf-HR :0.90580: L2-HR :0.91265: (Sim:0h14m31s) 
CPU  0 inst:   18000004 cyc:   12867197 now IPC :1.31035: AVG IPC :1.34664: L2-Pf-HR :0.90311: L2-HR :0.91048: (Sim:0h14m46s) 
CPU  1 inst:   17000002 cyc:   13204686 now IPC :0.56968: AVG IPC :1.22755: L2-Pf-HR :0.85270: L2-HR :0.86213: (Sim:0h15m8s) 
CPU  3 inst:   18000004 cyc:   13279333 now IPC :1.27179: AVG IPC :1.30152: L2-Pf-HR :0.87885: L2-HR :0.88623: (Sim:0h15m13s) 
CPU  2 inst:   19000003 cyc:   13378665 now IPC :1.28800: AVG IPC :1.37176: L2-Pf-HR :0.90736: L2-HR :0.91440: (Sim:0h15m20s) 
CPU  0 inst:   19000003 cyc:   13583173 now IPC :1.39669: AVG IPC :1.34949: L2-Pf-HR :0.90394: L2-HR :0.91148: (Sim:0h15m34s) 
CPU  1 inst:   18000004 cyc:   13923101 now IPC :1.39196: AVG IPC :1.23668: L2-Pf-HR :0.85357: L2-HR :0.86344: (Sim:0h16m0s) 
CPU  3 inst:   19000003 cyc:   13925824 now IPC :1.54681: AVG IPC :1.31378: L2-Pf-HR :0.88044: L2-HR :0.88805: (Sim:0h16m0s) 
CPU  2 inst:   20000001 cyc:   14158149 now IPC :1.28290: AVG IPC :1.36650: L2-Pf-HR :0.90934: L2-HR :0.91600: (Sim:0h16m15s) 
CPU  0 inst:   20000001 cyc:   14348394 now IPC :1.30681: AVG IPC :1.34704: L2-Pf-HR :0.90578: L2-HR :0.91283: (Sim:0h16m29s) 
CPU  1 inst:   19000003 cyc:   14554735 now IPC :1.58319: AVG IPC :1.25281: L2-Pf-HR :0.85568: L2-HR :0.86568: (Sim:0h16m42s) 
CPU  3 inst:   20000001 cyc:   14707222 now IPC :1.27975: AVG IPC :1.31184: L2-Pf-HR :0.88402: L2-HR :0.89105: (Sim:0h16m53s) 
CPU  2 inst:   21000005 cyc:   15381346 now IPC :0.81753: AVG IPC :1.31985: L2-Pf-HR :0.90750: L2-HR :0.91415: (Sim:0h17m24s) 
CPU  1 inst:   20000001 cyc:   15417335 now IPC :1.15928: AVG IPC :1.24722: L2-Pf-HR :0.86054: L2-HR :0.86964: (Sim:0h17m26s) 
CPU  0 inst:   21000005 cyc:   15688303 now IPC :0.74632: AVG IPC :1.29230: L2-Pf-HR :0.90414: L2-HR :0.91123: (Sim:0h17m40s) 
CPU  2 inst:   22000000 cyc:   16117377 now IPC :1.35863: AVG IPC :1.32174: L2-Pf-HR :0.90821: L2-HR :0.91518: (Sim:0h18m5s) 
CPU  3 inst:   21000005 cyc:   16187624 now IPC :0.67549: AVG IPC :1.24987: L2-Pf-HR :0.88325: L2-HR :0.89033: (Sim:0h18m9s) 
CPU  0 inst:   22000000 cyc:   16435311 now IPC :1.33867: AVG IPC :1.29454: L2-Pf-HR :0.90470: L2-HR :0.91216: (Sim:0h18m24s) 
CPU  2 inst:   23000000 cyc:   16883119 now IPC :1.30592: AVG IPC :1.32098: L2-Pf-HR :0.90886: L2-HR :0.91608: (Sim:0h18m50s) 
CPU  3 inst:   22000000 cyc:   16988151 now IPC :1.24917: AVG IPC :1.24983: L2-Pf-HR :0.88458: L2-HR :0.89198: (Sim:0h18m56s) 
CPU  1 inst:   21000005 cyc:   17137054 now IPC :0.58149: AVG IPC :1.17634: L2-Pf-HR :0.86034: L2-HR :0.86939: (Sim:0h19m6s) 
CPU  0 inst:   23000000 cyc:   17192914 now IPC :1.31995: AVG IPC :1.29573: L2-Pf-HR :0.90518: L2-HR :0.91293: (Sim:0h19m10s) 
CPU  3 inst:   23000000 cyc:   17585431 now IPC :1.67426: AVG IPC :1.26510: L2-Pf-HR :0.88568: L2-HR :0.89337: (Sim:0h19m38s) 
CPU  1 inst:   22000000 cyc:   17767529 now IPC :1.58610: AVG IPC :1.19173: L2-Pf-HR :0.86022: L2-HR :0.86979: (Sim:0h19m50s) 
CPU  2 inst:   24000000 cyc:   17798431 now IPC :1.09252: AVG IPC :1.30854: L2-Pf-HR :0.91066: L2-HR :0.91749: (Sim:0h19m52s) 
CPU  0 inst:   24000000 cyc:   17997089 now IPC :1.24351: AVG IPC :1.29326: L2-Pf-HR :0.90751: L2-HR :0.91478: (Sim:0h20m5s) 
CPU  1 inst:   23000000 cyc:   18405065 now IPC :1.56854: AVG IPC :1.20552: L2-Pf-HR :0.86096: L2-HR :0.87074: (Sim:0h20m32s) 
CPU  3 inst:   24000000 cyc:   18433729 now IPC :1.17883: AVG IPC :1.26091: L2-Pf-HR :0.88884: L2-HR :0.89591: (Sim:0h20m34s) 
CPU  2 inst:   25000000 cyc:   18866097 now IPC :0.93662: AVG IPC :1.28633: L2-Pf-HR :0.90914: L2-HR :0.91598: (Sim:0h20m59s) 
CPU  0 inst:   25000000 cyc:   19176691 now IPC :0.84774: AVG IPC :1.26437: L2-Pf-HR :0.90585: L2-HR :0.91322: (Sim:0h21m12s) 
CPU  1 inst:   24000000 cyc:   19321518 now IPC :1.09116: AVG IPC :1.19981: L2-Pf-HR :0.86483: L2-HR :0.87370: (Sim:0h21m20s) 
CPU  2 inst:   26000004 cyc:   19632231 now IPC :1.30526: AVG IPC :1.28711: L2-Pf-HR :0.91004: L2-HR :0.91697: (Sim:0h21m39s) 
CPU  3 inst:   25000000 cyc:   19805651 now IPC :0.72890: AVG IPC :1.22213: L2-Pf-HR :0.88791: L2-HR :0.89505: (Sim:0h21m50s) 
CPU  0 inst:   26000004 cyc:   19922619 now IPC :1.34062: AVG IPC :1.26737: L2-Pf-HR :0.90651: L2-HR :0.91406: (Sim:0h21m57s) 
CPU  2 inst:   27000002 cyc:   20362359 now IPC :1.36962: AVG IPC :1.29022: L2-Pf-HR :0.91046: L2-HR :0.91762: (Sim:0h22m23s) 
CPU  3 inst:   26000004 cyc:   20607845 now IPC :1.24659: AVG IPC :1.22313: L2-Pf-HR :0.88872: L2-HR :0.89606: (Sim:0h22m38s) 
CPU  0 inst:   27000002 cyc:   20665972 now IPC :1.34525: AVG IPC :1.27031: L2-Pf-HR :0.90682: L2-HR :0.91463: (Sim:0h22m41s) 
CPU  1 inst:   25000002 cyc:   20839695 now IPC :0.65869: AVG IPC :1.15843: L2-Pf-HR :0.86483: L2-HR :0.87364: (Sim:0h22m53s) 
CPU  3 inst:   27000002 cyc:   21226176 now IPC :1.61725: AVG IPC :1.23517: L2-Pf-HR :0.88930: L2-HR :0.89690: (Sim:0h23m19s) 
CPU  2 inst:   28000000 cyc:   21276492 now IPC :1.09393: AVG IPC :1.28138: L2-Pf-HR :0.91232: L2-HR :0.91907: (Sim:0h23m22s) 
CPU  1 inst:   26000004 cyc:   21516420 now IPC :1.47771: AVG IPC :1.16895: L2-Pf-HR :0.86452: L2-HR :0.87366: (Sim:0h23m38s) 
CPU  0 inst:   28000000 cyc:   21563818 now IPC :1.11377: AVG IPC :1.26348: L2-Pf-HR :0.90879: L2-HR :0.91614: (Sim:0h23m41s) 
CPU  3 inst:   28000000 cyc:   22115152 now IPC :1.12489: AVG IPC :1.23053: L2-Pf-HR :0.89180: L2-HR :0.89882: (Sim:0h24m16s) 
CPU  1 inst:   27000002 cyc:   22167632 now IPC :1.53560: AVG IPC :1.18023: L2-Pf-HR :0.86485: L2-HR :0.87417: (Sim:0h24m19s) 
CPU  2 inst:   29000005 cyc:   22386711 now IPC :0.90073: AVG IPC :1.26163: L2-Pf-HR :0.91104: L2-HR :0.91791: (Sim:0h24m31s) 
CPU  0 inst:   29000005 cyc:   22604403 now IPC :0.96100: AVG IPC :1.24892: L2-Pf-HR :0.90755: L2-HR :0.91501: (Sim:0h24m44s) 
CPU  1 inst:   28000000 cyc:   23097675 now IPC :1.07522: AVG IPC :1.17581: L2-Pf-HR :0.86767: L2-HR :0.87632: (Sim:0h25m9s) 
CPU  2 inst:   30000004 cyc:   23195163 now IPC :1.23693: AVG IPC :1.26073: L2-Pf-HR :0.91088: L2-HR :0.91798: (Sim:0h25m14s) 
CPU  3 inst:   29000005 cyc:   23359649 now IPC :0.80354: AVG IPC :1.20678: L2-Pf-HR :0.89088: L2-HR :0.89802: (Sim:0h25m24s) 
CPU  0 inst:   30000004 cyc:   23488419 now IPC :1.13120: AVG IPC :1.24430: L2-Pf-HR :0.90757: L2-HR :0.91523: (Sim:0h25m32s) 
CPU  2 inst:   31000000 cyc:   23891864 now IPC :1.43533: AVG IPC :1.26604: L2-Pf-HR :0.91133: L2-HR :0.91862: (Sim:0h25m57s) 
CPU  0 inst:   31000000 cyc:   24235115 now IPC :1.33923: AVG IPC :1.24735: L2-Pf-HR :0.90777: L2-HR :0.91566: (Sim:0h26m18s) 
CPU  3 inst:   30000004 cyc:   24297581 now IPC :1.06617: AVG IPC :1.20112: L2-Pf-HR :0.89106: L2-HR :0.89846: (Sim:0h26m22s) 
CPU  1 inst:   29000005 cyc:   24409562 now IPC :0.76226: AVG IPC :1.15265: L2-Pf-HR :0.86759: L2-HR :0.87631: (Sim:0h26m30s) 
CPU  2 inst:   32000004 cyc:   24772255 now IPC :1.13586: AVG IPC :1.26122: L2-Pf-HR :0.91332: L2-HR :0.92021: (Sim:0h26m53s) 
CPU  3 inst:   31000000 cyc:   24893826 now IPC :1.67716: AVG IPC :1.21299: L2-Pf-HR :0.89139: L2-HR :0.89898: (Sim:0h27m1s) 
CPU  0 inst:   32000004 cyc:   25079648 now IPC :1.18409: AVG IPC :1.24513: L2-Pf-HR :0.90973: L2-HR :0.91721: (Sim:0h27m12s) 
CPU  1 inst:   30000004 cyc:   25191308 now IPC :1.27919: AVG IPC :1.15673: L2-Pf-HR :0.86681: L2-HR :0.87584: (Sim:0h27m19s) 
CPU  2 inst:   33000002 cyc:   25558985 now IPC :1.27108: AVG IPC :1.26154: L2-Pf-HR :0.91259: L2-HR :0.91973: (Sim:0h27m46s) 
CPU  3 inst:   32000004 cyc:   25717817 now IPC :1.21361: AVG IPC :1.21301: L2-Pf-HR :0.89379: L2-HR :0.90086: (Sim:0h27m54s) 
CPU  1 inst:   31000000 cyc:   25839137 now IPC :1.54361: AVG IPC :1.16682: L2-Pf-HR :0.86706: L2-HR :0.87627: (Sim:0h28m0s) 
CPU  0 inst:   33000005 cyc:   25921936 now IPC :1.18724: AVG IPC :1.24318: L2-Pf-HR :0.90896: L2-HR :0.91669: (Sim:0h28m4s) 
CPU  3 inst:   33000000 cyc:   26586435 now IPC :1.15125: AVG IPC :1.21092: L2-Pf-HR :0.89329: L2-HR :0.90066: (Sim:0h28m43s) 
CPU  1 inst:   32000004 cyc:   26705303 now IPC :1.15452: AVG IPC :1.16640: L2-Pf-HR :0.86973: L2-HR :0.87837: (Sim:0h28m49s) 
CPU  2 inst:   34000000 cyc:   26708024 now IPC :0.87029: AVG IPC :1.24406: L2-Pf-HR :0.91158: L2-HR :0.91889: (Sim:0h28m49s) 
CPU  0 inst:   34000000 cyc:   26972749 now IPC :0.95164: AVG IPC :1.23139: L2-Pf-HR :0.90803: L2-HR :0.91591: (Sim:0h29m4s) 
CPU  2 inst:   35000001 cyc:   27447541 now IPC :1.35224: AVG IPC :1.24708: L2-Pf-HR :0.91199: L2-HR :0.91946: (Sim:0h29m34s) 
CPU  0 inst:   35000001 cyc:   27681804 now IPC :1.41033: AVG IPC :1.23614: L2-Pf-HR :0.90845: L2-HR :0.91649: (Sim:0h29m48s) 
CPU  1 inst:   33000001 cyc:   27722306 now IPC :0.98328: AVG IPC :1.15944: L2-Pf-HR :0.86985: L2-HR :0.87875: (Sim:0h29m50s) 
CPU  3 inst:   34000000 cyc:   27957241 now IPC :0.72950: AVG IPC :1.18645: L2-Pf-HR :0.89281: L2-HR :0.90034: (Sim:0h30m5s) 
CPU  2 inst:   36000004 cyc:   28144770 now IPC :1.43425: AVG IPC :1.25189: L2-Pf-HR :0.91354: L2-HR :0.92080: (Sim:0h30m17s) 
CPU  0 inst:   36000004 cyc:   28298270 now IPC :1.62215: AVG IPC :1.24485: L2-Pf-HR :0.91003: L2-HR :0.91787: (Sim:0h30m28s) 
CPU  3 inst:   35000001 cyc:   28559562 now IPC :1.66025: AVG IPC :1.19680: L2-Pf-HR :0.89339: L2-HR :0.90116: (Sim:0h30m43s) 
CPU  1 inst:   34000000 cyc:   28829755 now IPC :0.90298: AVG IPC :1.14924: L2-Pf-HR :0.86852: L2-HR :0.87755: (Sim:0h31m1s) 
CPU  2 inst:   37000005 cyc:   29043410 now IPC :1.11279: AVG IPC :1.24743: L2-Pf-HR :0.91319: L2-HR :0.92063: (Sim:0h31m16s) 
CPU  0 inst:   37000005 cyc:   29155703 now IPC :1.16627: AVG IPC :1.24246: L2-Pf-HR :0.90962: L2-HR :0.91761: (Sim:0h31m25s) 
CPU  3 inst:   36000004 cyc:   29241878 now IPC :1.46560: AVG IPC :1.20329: L2-Pf-HR :0.89551: L2-HR :0.90304: (Sim:0h31m30s) 
CPU  1 inst:   35000001 cyc:   29440720 now IPC :1.63676: AVG IPC :1.15971: L2-Pf-HR :0.86875: L2-HR :0.87790: (Sim:0h31m39s) 
CPU  3 inst:   37000005 cyc:   30104659 now IPC :1.15904: AVG IPC :1.20198: L2-Pf-HR :0.89552: L2-HR :0.90320: (Sim:0h32m16s) 
CPU  1 inst:   36000004 cyc:   30141758 now IPC :1.42646: AVG IPC :1.16612: L2-Pf-HR :0.87116: L2-HR :0.87981: (Sim:0h32m19s) 
CPU  2 inst:   38000003 cyc:   30341439 now IPC :0.77040: AVG IPC :1.22634: L2-Pf-HR :0.91260: L2-HR :0.91982: (Sim:0h32m30s) 
CPU  0 inst:   38000003 cyc:   30507536 now IPC :0.73973: AVG IPC :1.21944: L2-Pf-HR :0.90924: L2-HR :0.91703: (Sim:0h32m39s) 
CPU  2 inst:   39000004 cyc:   31079004 now IPC :1.35581: AVG IPC :1.22951: L2-Pf-HR :0.91346: L2-HR :0.92053: (Sim:0h33m12s) 
CPU  0 inst:   39000004 cyc:   31215001 now IPC :1.41350: AVG IPC :1.22398: L2-Pf-HR :0.91010: L2-HR :0.91784: (Sim:0h33m20s) 
CPU  1 inst:   37000005 cyc:   31220765 now IPC :0.92678: AVG IPC :1.15758: L2-Pf-HR :0.87171: L2-HR :0.88039: (Sim:0h33m20s) 
CPU  3 inst:   38000003 cyc:   31694465 now IPC :0.62901: AVG IPC :1.17232: L2-Pf-HR :0.89493: L2-HR :0.90259: (Sim:0h33m51s) 
CPU  2 inst:   40000002 cyc:   31753931 now IPC :1.48164: AVG IPC :1.23504: L2-Pf-HR :0.91443: L2-HR :0.92138: (Sim:0h33m55s) 
CPU  0 inst:   40000002 cyc:   31829585 now IPC :1.62711: AVG IPC :1.23201: L2-Pf-HR :0.91126: L2-HR :0.91891: (Sim:0h34m0s) 
CPU  3 inst:   39000004 cyc:   32332518 now IPC :1.56727: AVG IPC :1.18035: L2-Pf-HR :0.89569: L2-HR :0.90334: (Sim:0h34m29s) 
CPU  1 inst:   38000003 cyc:   32552634 now IPC :0.75082: AVG IPC :1.14042: L2-Pf-HR :0.87130: L2-HR :0.87972: (Sim:0h34m44s) 
CPU  2 inst:   41000005 cyc:   32603863 now IPC :1.17657: AVG IPC :1.23347: L2-Pf-HR :0.91426: L2-HR :0.92123: (Sim:0h34m48s) 
CPU  0 inst:   41000005 cyc:   32790519 now IPC :1.04066: AVG IPC :1.22623: L2-Pf-HR :0.91117: L2-HR :0.91884: (Sim:0h35m1s) 
CPU  3 inst:   40000002 cyc:   33019268 now IPC :1.45613: AVG IPC :1.18627: L2-Pf-HR :0.89723: L2-HR :0.90467: (Sim:0h35m15s) 
CPU  1 inst:   39000004 cyc:   33152742 now IPC :1.66637: AVG IPC :1.15023: L2-Pf-HR :0.87115: L2-HR :0.87976: (Sim:0h35m22s) 
CPU  1 inst:   40000002 cyc:   33873955 now IPC :1.38655: AVG IPC :1.15541: L2-Pf-HR :0.87242: L2-HR :0.88085: (Sim:0h36m2s) 
CPU  2 inst:   42000004 cyc:   33883170 now IPC :0.78167: AVG IPC :1.21590: L2-Pf-HR :0.91351: L2-HR :0.92042: (Sim:0h36m3s) 
CPU  3 inst:   41000005 cyc:   33885974 now IPC :1.15380: AVG IPC :1.18541: L2-Pf-HR :0.89722: L2-HR :0.90473: (Sim:0h36m3s) 
CPU  0 inst:   42000004 cyc:   34146452 now IPC :0.73750: AVG IPC :1.20625: L2-Pf-HR :0.91047: L2-HR :0.91801: (Sim:0h36m19s) 
CPU  2 inst:   43000005 cyc:   34543526 now IPC :1.51434: AVG IPC :1.22178: L2-Pf-HR :0.91369: L2-HR :0.92076: (Sim:0h36m43s) 
CPU  1 inst:   41000005 cyc:   34840774 now IPC :1.03432: AVG IPC :1.15195: L2-Pf-HR :0.87289: L2-HR :0.88137: (Sim:0h37m0s) 
CPU  0 inst:   43000005 cyc:   34854560 now IPC :1.41222: AVG IPC :1.21055: L2-Pf-HR :0.91059: L2-HR :0.91817: (Sim:0h37m1s) 
CPU  2 inst:   44000002 cyc:   35309546 now IPC :1.30545: AVG IPC :1.22364: L2-Pf-HR :0.91449: L2-HR :0.92153: (Sim:0h37m29s) 
CPU  3 inst:   42000004 cyc:   35406565 now IPC :0.65764: AVG IPC :1.16210: L2-Pf-HR :0.89669: L2-HR :0.90417: (Sim:0h37m35s) 
CPU  0 inst:   44000002 cyc:   35497897 now IPC :1.55439: AVG IPC :1.21696: L2-Pf-HR :0.91111: L2-HR :0.91861: (Sim:0h37m41s) 
CPU  3 inst:   43000005 cyc:   36063775 now IPC :1.52159: AVG IPC :1.16883: L2-Pf-HR :0.89722: L2-HR :0.90485: (Sim:0h38m15s) 
CPU  1 inst:   42000004 cyc:   36101407 now IPC :0.79325: AVG IPC :1.13908: L2-Pf-HR :0.87242: L2-HR :0.88081: (Sim:0h38m17s) 
CPU  2 inst:   45000002 cyc:   36165482 now IPC :1.16831: AVG IPC :1.22230: L2-Pf-HR :0.91451: L2-HR :0.92157: (Sim:0h38m22s) 
CPU  0 inst:   45000002 cyc:   36496346 now IPC :1.00155: AVG IPC :1.21091: L2-Pf-HR :0.91097: L2-HR :0.91848: (Sim:0h38m43s) 
CPU  3 inst:   44000002 cyc:   36738109 now IPC :1.48294: AVG IPC :1.17476: L2-Pf-HR :0.89838: L2-HR :0.90594: (Sim:0h38m59s) 
CPU  1 inst:   43000005 cyc:   36763247 now IPC :1.51094: AVG IPC :1.14595: L2-Pf-HR :0.87233: L2-HR :0.88084: (Sim:0h39m1s) 
CPU  1 inst:   44000002 cyc:   37429529 now IPC :1.50086: AVG IPC :1.15244: L2-Pf-HR :0.87343: L2-HR :0.88181: (Sim:0h39m37s) 
CPU  2 inst:   46000002 cyc:   37453202 now IPC :0.77657: AVG IPC :1.20656: L2-Pf-HR :0.91375: L2-HR :0.92078: (Sim:0h39m39s) 
CPU  3 inst:   45000002 cyc:   37571422 now IPC :1.20003: AVG IPC :1.17533: L2-Pf-HR :0.89856: L2-HR :0.90615: (Sim:0h39m47s) 
CPU  0 inst:   46000002 cyc:   37719439 now IPC :0.81760: AVG IPC :1.19781: L2-Pf-HR :0.91032: L2-HR :0.91776: (Sim:0h39m57s) 
CPU  2 inst:   47000000 cyc:   38094763 now IPC :1.55870: AVG IPC :1.21264: L2-Pf-HR :0.91389: L2-HR :0.92106: (Sim:0h40m19s) 
CPU  0 inst:   47000000 cyc:   38375989 now IPC :1.52311: AVG IPC :1.20352: L2-Pf-HR :0.91066: L2-HR :0.91822: (Sim:0h40m36s) 
CPU  1 inst:   45000002 cyc:   38467398 now IPC :0.96351: AVG IPC :1.14721: L2-Pf-HR :0.87396: L2-HR :0.88231: (Sim:0h40m41s) 
CPU  2 inst:   48000004 cyc:   38802434 now IPC :1.41309: AVG IPC :1.21640: L2-Pf-HR :0.91441: L2-HR :0.92158: (Sim:0h41m2s) 
CPU  3 inst:   46000002 cyc:   38972205 now IPC :0.71389: AVG IPC :1.15832: L2-Pf-HR :0.89799: L2-HR :0.90556: (Sim:0h41m14s) 
CPU  0 inst:   48000004 cyc:   39040354 now IPC :1.50520: AVG IPC :1.20879: L2-Pf-HR :0.91123: L2-HR :0.91879: (Sim:0h41m18s) 
CPU  3 inst:   47000000 cyc:   39618218 now IPC :1.54795: AVG IPC :1.16483: L2-Pf-HR :0.89837: L2-HR :0.90603: (Sim:0h41m51s) 
CPU  2 inst:   49000002 cyc:   39630529 now IPC :1.20759: AVG IPC :1.21621: L2-Pf-HR :0.91471: L2-HR :0.92184: (Sim:0h41m52s) 
CPU  1 inst:   46000002 cyc:   39830362 now IPC :0.73370: AVG IPC :1.13270: L2-Pf-HR :0.87355: L2-HR :0.88184: (Sim:0h42m5s) 
CPU  0 inst:   49000002 cyc:   39966554 now IPC :1.07968: AVG IPC :1.20572: L2-Pf-HR :0.91166: L2-HR :0.91913: (Sim:0h42m15s) 
CPU  3 inst:   48000004 cyc:   40270001 now IPC :1.53426: AVG IPC :1.17096: L2-Pf-HR :0.89919: L2-HR :0.90679: (Sim:0h42m34s) 
CPU  1 inst:   47000000 cyc:   40452851 now IPC :1.60645: AVG IPC :1.14017: L2-Pf-HR :0.87355: L2-HR :0.88200: (Sim:0h42m44s) 
CPU  2 inst:   50000000 cyc:   40966127 now IPC :0.74873: AVG IPC :1.20059: L2-Pf-HR :0.91400: L2-HR :0.92110: (Sim:0h43m10s) 
CPU  3 inst:   49000002 cyc:   41175428 now IPC :1.10445: AVG IPC :1.16946: L2-Pf-HR :0.89964: L2-HR :0.90716: (Sim:0h43m23s) 
CPU  1 inst:   48000004 cyc:   41240038 now IPC :1.27035: AVG IPC :1.14272: L2-Pf-HR :0.87438: L2-HR :0.88276: (Sim:0h43m28s) 
CPU  0 inst:   50000000 cyc:   41299594 now IPC :0.75016: AVG IPC :1.19066: L2-Pf-HR :0.91095: L2-HR :0.91842: (Sim:0h43m32s) 
CPU  2 inst:   51000005 cyc:   41616839 now IPC :1.53679: AVG IPC :1.20597: L2-Pf-HR :0.91405: L2-HR :0.92128: (Sim:0h43m53s) 
CPU  0 inst:   51000005 cyc:   41993031 now IPC :1.44210: AVG IPC :1.19491: L2-Pf-HR :0.91109: L2-HR :0.91868: (Sim:0h44m15s) 
CPU  1 inst:   49000002 cyc:   42219586 now IPC :1.02088: AVG IPC :1.13983: L2-Pf-HR :0.87503: L2-HR :0.88335: (Sim:0h44m28s) 
CPU  2 inst:   52000000 cyc:   42292947 now IPC :1.47905: AVG IPC :1.21044: L2-Pf-HR :0.91446: L2-HR :0.92174: (Sim:0h44m33s) 
CPU  3 inst:   50000000 cyc:   42613329 now IPC :0.69546: AVG IPC :1.15309: L2-Pf-HR :0.89894: L2-HR :0.90650: (Sim:0h44m54s) 
CPU  0 inst:   52000000 cyc:   42662428 now IPC :1.49387: AVG IPC :1.19971: L2-Pf-HR :0.91144: L2-HR :0.91908: (Sim:0h44m57s) 
CPU  2 inst:   53000004 cyc:   43125463 now IPC :1.20118: AVG IPC :1.21026: L2-Pf-HR :0.91483: L2-HR :0.92202: (Sim:0h45m23s) 
CPU  3 inst:   51000005 cyc:   43256267 now IPC :1.55537: AVG IPC :1.15921: L2-Pf-HR :0.89917: L2-HR :0.90678: (Sim:0h45m31s) 
CPU  1 inst:   50000000 cyc:   43582304 now IPC :0.73383: AVG IPC :1.12684: L2-Pf-HR :0.87461: L2-HR :0.88288: (Sim:0h45m50s) 
CPU  0 inst:   53000004 cyc:   43667688 now IPC :0.99477: AVG IPC :1.19489: L2-Pf-HR :0.91190: L2-HR :0.91941: (Sim:0h45m55s) 
CPU  3 inst:   52000000 cyc:   43940466 now IPC :1.46156: AVG IPC :1.16402: L2-Pf-HR :0.89964: L2-HR :0.90724: (Sim:0h46m13s) 
CPU  1 inst:   51000001 cyc:   44269983 now IPC :1.45417: AVG IPC :1.13204: L2-Pf-HR :0.87442: L2-HR :0.88280: (Sim:0h46m31s) 
CPU  2 inst:   54000005 cyc:   44635315 now IPC :0.66232: AVG IPC :1.19131: L2-Pf-HR :0.91417: L2-HR :0.92133: (Sim:0h46m48s) 
CPU  3 inst:   53000004 cyc:   44866057 now IPC :1.08040: AVG IPC :1.16226: L2-Pf-HR :0.90024: L2-HR :0.90768: (Sim:0h47m1s) 
CPU  1 inst:   52000000 cyc:   45093918 now IPC :1.21369: AVG IPC :1.13356: L2-Pf-HR :0.87471: L2-HR :0.88310: (Sim:0h47m17s) 
CPU  0 inst:   54000005 cyc:   45145876 now IPC :0.67650: AVG IPC :1.17753: L2-Pf-HR :0.91124: L2-HR :0.91868: (Sim:0h47m20s) 
CPU  2 inst:   55000001 cyc:   45310909 now IPC :1.48017: AVG IPC :1.19571: L2-Pf-HR :0.91417: L2-HR :0.92146: (Sim:0h47m31s) 
CPU  0 inst:   55000001 cyc:   45753875 now IPC :1.64473: AVG IPC :1.18388: L2-Pf-HR :0.91130: L2-HR :0.91890: (Sim:0h47m57s) 
CPU  2 inst:   56000002 cyc:   45990355 now IPC :1.47179: AVG IPC :1.19988: L2-Pf-HR :0.91441: L2-HR :0.92178: (Sim:0h48m11s) 
CPU  1 inst:   53000004 cyc:   46091251 now IPC :1.00268: AVG IPC :1.13067: L2-Pf-HR :0.87518: L2-HR :0.88349: (Sim:0h48m17s) 
CPU  3 inst:   54000005 cyc:   46317798 now IPC :0.68883: AVG IPC :1.14710: L2-Pf-HR :0.89961: L2-HR :0.90705: (Sim:0h48m33s) 
CPU  0 inst:   56000002 cyc:   46392375 now IPC :1.56617: AVG IPC :1.18925: L2-Pf-HR :0.91150: L2-HR :0.91919: (Sim:0h48m39s) 
CPU  2 inst:   57000004 cyc:   46800827 now IPC :1.23385: AVG IPC :1.20048: L2-Pf-HR :0.91506: L2-HR :0.92229: (Sim:0h49m4s) 
CPU  3 inst:   55000001 cyc:   46926378 now IPC :1.64316: AVG IPC :1.15367: L2-Pf-HR :0.89980: L2-HR :0.90736: (Sim:0h49m11s) 
CPU  0 inst:   57000004 cyc:   47302726 now IPC :1.09848: AVG IPC :1.18747: L2-Pf-HR :0.91217: L2-HR :0.91972: (Sim:0h49m32s) 
CPU  1 inst:   54000005 cyc:   47481249 now IPC :0.71943: AVG IPC :1.11837: L2-Pf-HR :0.87467: L2-HR :0.88297: (Sim:0h49m42s) 
CPU  3 inst:   56000002 cyc:   47598873 now IPC :1.48700: AVG IPC :1.15848: L2-Pf-HR :0.90015: L2-HR :0.90773: (Sim:0h49m50s) 
CPU  1 inst:   55000001 cyc:   48137412 now IPC :1.52401: AVG IPC :1.12402: L2-Pf-HR :0.87447: L2-HR :0.88288: (Sim:0h50m19s) 
CPU  2 inst:   58000004 cyc:   48172742 now IPC :0.72891: AVG IPC :1.18677: L2-Pf-HR :0.91439: L2-HR :0.92162: (Sim:0h50m21s) 
CPU  3 inst:   57000004 cyc:   48541553 now IPC :1.06081: AVG IPC :1.15654: L2-Pf-HR :0.90096: L2-HR :0.90835: (Sim:0h50m41s) 
CPU  0 inst:   58000004 cyc:   48732066 now IPC :0.69962: AVG IPC :1.17287: L2-Pf-HR :0.91159: L2-HR :0.91912: (Sim:0h50m53s) 
CPU  2 inst:   59000004 cyc:   48906034 now IPC :1.36371: AVG IPC :1.18948: L2-Pf-HR :0.91446: L2-HR :0.92178: (Sim:0h51m4s) 
CPU  1 inst:   56000002 cyc:   48983640 now IPC :1.18172: AVG IPC :1.12504: L2-Pf-HR :0.87463: L2-HR :0.88305: (Sim:0h51m9s) 
CPU  0 inst:   59000004 cyc:   49434015 now IPC :1.42460: AVG IPC :1.17651: L2-Pf-HR :0.91158: L2-HR :0.91926: (Sim:0h51m38s) 
CPU  2 inst:   60000000 cyc:   49551986 now IPC :1.54810: AVG IPC :1.19425: L2-Pf-HR :0.91462: L2-HR :0.92203: (Sim:0h51m44s) 
CPU  1 inst:   57000004 cyc:   49886139 now IPC :1.10804: AVG IPC :1.12472: L2-Pf-HR :0.87528: L2-HR :0.88358: (Sim:0h52m4s) 
CPU  3 inst:   58000004 cyc:   49939053 now IPC :0.71556: AVG IPC :1.14395: L2-Pf-HR :0.90025: L2-HR :0.90765: (Sim:0h52m8s) 
CPU  0 inst:   60000000 cyc:   50103407 now IPC :1.49389: AVG IPC :1.18084: L2-Pf-HR :0.91169: L2-HR :0.91947: (Sim:0h52m20s) 
CPU  2 inst:   61000002 cyc:   50389665 now IPC :1.19378: AVG IPC :1.19424: L2-Pf-HR :0.91525: L2-HR :0.92251: (Sim:0h52m38s) 
CPU  3 inst:   59000004 cyc:   50585932 now IPC :1.54588: AVG IPC :1.14920: L2-Pf-HR :0.90039: L2-HR :0.90794: (Sim:0h52m51s) 
CPU  0 inst:   61000002 cyc:   50978812 now IPC :1.14233: AVG IPC :1.18016: L2-Pf-HR :0.91226: L2-HR :0.91987: (Sim:0h53m11s) 
CPU  1 inst:   58000004 cyc:   51161299 now IPC :0.78422: AVG IPC :1.11607: L2-Pf-HR :0.87491: L2-HR :0.88324: (Sim:0h53m22s) 
CPU  3 inst:   60000005 cyc:   51263964 now IPC :1.47486: AVG IPC :1.15359: L2-Pf-HR :0.90086: L2-HR :0.90844: (Sim:0h53m28s) 
CPU  2 inst:   62000001 cyc:   51606578 now IPC :0.82175: AVG IPC :1.18528: L2-Pf-HR :0.91459: L2-HR :0.92189: (Sim:0h53m49s) 
CPU  1 inst:   59000004 cyc:   51815956 now IPC :1.52752: AVG IPC :1.12137: L2-Pf-HR :0.87471: L2-HR :0.88319: (Sim:0h54m2s) 
CPU  3 inst:   61000002 cyc:   52126081 now IPC :1.15993: AVG IPC :1.15369: L2-Pf-HR :0.90178: L2-HR :0.90918: (Sim:0h54m19s) 
CPU  2 inst:   63000000 cyc:   52263555 now IPC :1.52212: AVG IPC :1.18960: L2-Pf-HR :0.91459: L2-HR :0.92201: (Sim:0h54m28s) 
CPU  0 inst:   62000001 cyc:   52317464 now IPC :0.74702: AVG IPC :1.16887: L2-Pf-HR :0.91161: L2-HR :0.91923: (Sim:0h54m31s) 
CPU  1 inst:   60000000 cyc:   52598977 now IPC :1.27710: AVG IPC :1.12373: L2-Pf-HR :0.87475: L2-HR :0.88329: (Sim:0h54m51s) 
CPU  2 inst:   64000004 cyc:   52911550 now IPC :1.54323: AVG IPC :1.19401: L2-Pf-HR :0.91459: L2-HR :0.92213: (Sim:0h55m11s) 
CPU  0 inst:   63000000 cyc:   52989745 now IPC :1.48747: AVG IPC :1.17299: L2-Pf-HR :0.91144: L2-HR :0.91917: (Sim:0h55m16s) 
CPU  3 inst:   62000001 cyc:   53413830 now IPC :0.77655: AVG IPC :1.14443: L2-Pf-HR :0.90101: L2-HR :0.90846: (Sim:0h55m41s) 
CPU  1 inst:   61000002 cyc:   53487829 now IPC :1.12505: AVG IPC :1.12375: L2-Pf-HR :0.87555: L2-HR :0.88392: (Sim:0h55m46s) 
CPU  0 inst:   64000004 cyc:   53608548 now IPC :1.61603: AVG IPC :1.17820: L2-Pf-HR :0.91154: L2-HR :0.91931: (Sim:0h55m53s) 
CPU  2 inst:   65000000 cyc:   53828198 now IPC :1.09093: AVG IPC :1.19222: L2-Pf-HR :0.91544: L2-HR :0.92278: (Sim:0h56m7s) 
CPU  3 inst:   63000000 cyc:   54080471 now IPC :1.50006: AVG IPC :1.14890: L2-Pf-HR :0.90108: L2-HR :0.90866: (Sim:0h56m25s) 
CPU  0 inst:   65000000 cyc:   54527342 now IPC :1.08838: AVG IPC :1.17666: L2-Pf-HR :0.91212: L2-HR :0.91962: (Sim:0h56m48s) 
CPU  3 inst:   64000004 cyc:   54699630 now IPC :1.61510: AVG IPC :1.15427: L2-Pf-HR :0.90143: L2-HR :0.90901: (Sim:0h56m56s) 
CPU  1 inst:   62000001 cyc:   54850458 now IPC :0.73387: AVG IPC :1.11389: L2-Pf-HR :0.87522: L2-HR :0.88360: (Sim:0h57m4s) 
CPU  1 inst:   63000000 cyc:   55456591 now IPC :1.64980: AVG IPC :1.11985: L2-Pf-HR :0.87528: L2-HR :0.88377: (Sim:0h57m32s) 
CPU  3 inst:   65000000 cyc:   55520121 now IPC :1.21878: AVG IPC :1.15524: L2-Pf-HR :0.90235: L2-HR :0.90967: (Sim:0h57m35s) 
CPU  1 inst:   64000004 cyc:   56052560 now IPC :1.67795: AVG IPC :1.12589: L2-Pf-HR :0.87575: L2-HR :0.88424: (Sim:0h57m59s) 
CPU  2 inst:   66000004 cyc:   56918866 now IPC :0.32356: AVG IPC :1.14422: L2-Pf-HR :0.91367: L2-HR :0.92004: (Sim:0h58m28s) 
CPU  1 inst:   65000000 cyc:   57045522 now IPC :1.00708: AVG IPC :1.12379: L2-Pf-HR :0.87736: L2-HR :0.88546: (Sim:0h58m32s) 
CPU  0 inst:   66000001 cyc:   57674522 now IPC :0.31775: AVG IPC :1.12897: L2-Pf-HR :0.91034: L2-HR :0.91691: (Sim:0h58m56s) 
CPU  3 inst:   66000004 cyc:   59388234 now IPC :0.25853: AVG IPC :1.09585: L2-Pf-HR :0.90068: L2-HR :0.90706: (Sim:0h59m44s) 
CPU  1 inst:   66000001 cyc:   61531824 now IPC :0.22290: AVG IPC :1.05704: L2-Pf-HR :0.87614: L2-HR :0.88334: (Sim:1h0m54s) 
CPU  2 inst:   67000000 cyc:   76528479 now IPC :0.05100: AVG IPC :0.86044: L2-Pf-HR :0.90351: L2-HR :0.90141: (Sim:1h9m19s) 
CPU  0 inst:   67000001 cyc:   77738014 now IPC :0.04984: AVG IPC :0.84688: L2-Pf-HR :0.90018: L2-HR :0.89839: (Sim:1h10m0s) 
CPU  3 inst:   67000000 cyc:   80227314 now IPC :0.04799: AVG IPC :0.82028: L2-Pf-HR :0.89077: L2-HR :0.88907: (Sim:1h11m23s) 
CPU  1 inst:   67000003 cyc:   82690414 now IPC :0.04726: AVG IPC :0.79554: L2-Pf-HR :0.86680: L2-HR :0.86668: (Sim:1h12m46s) 
CPU  2 inst:   68000005 cyc:   98238457 now IPC :0.04606: AVG IPC :0.67864: L2-Pf-HR :0.89373: L2-HR :0.88459: (Sim:1h21m25s) 
CPU  0 inst:   68000000 cyc:   99518464 now IPC :0.04591: AVG IPC :0.66983: L2-Pf-HR :0.89049: L2-HR :0.88167: (Sim:1h22m7s) 
CPU  3 inst:   68000005 cyc:  102133175 now IPC :0.04565: AVG IPC :0.65251: L2-Pf-HR :0.88118: L2-HR :0.87285: (Sim:1h23m35s) 
CPU  1 inst:   68000005 cyc:  104429615 now IPC :0.04600: AVG IPC :0.63802: L2-Pf-HR :0.85777: L2-HR :0.85163: (Sim:1h24m50s) 
CPU  2 inst:   69000000 cyc:  108666224 now IPC :0.09590: AVG IPC :0.62221: L2-Pf-HR :0.88946: L2-HR :0.87858: (Sim:1h26m53s) 
CPU  0 inst:   69000000 cyc:  109202818 now IPC :0.10326: AVG IPC :0.61912: L2-Pf-HR :0.88630: L2-HR :0.87573: (Sim:1h27m10s) 
CPU  3 inst:   69000000 cyc:  110473630 now IPC :0.11990: AVG IPC :0.61194: L2-Pf-HR :0.87713: L2-HR :0.86720: (Sim:1h27m51s) 
CPU  1 inst:   69000000 cyc:  111225758 now IPC :0.14714: AVG IPC :0.60776: L2-Pf-HR :0.85418: L2-HR :0.84654: (Sim:1h28m15s) 
CPU  2 inst:   70000000 cyc:  112631814 now IPC :0.25217: AVG IPC :0.60907: L2-Pf-HR :0.88756: L2-HR :0.87661: (Sim:1h29m0s) 
CPU  0 inst:   70000000 cyc:  113164257 now IPC :0.25243: AVG IPC :0.60618: L2-Pf-HR :0.88437: L2-HR :0.87375: (Sim:1h29m17s) 
CPU  3 inst:   70000000 cyc:  114417544 now IPC :0.25356: AVG IPC :0.59948: L2-Pf-HR :0.87533: L2-HR :0.86533: (Sim:1h29m58s) 
CPU  1 inst:   70000000 cyc:  115149857 now IPC :0.25484: AVG IPC :0.59563: L2-Pf-HR :0.85254: L2-HR :0.84483: (Sim:1h30m22s) 
CPU  2 inst:   71000002 cyc:  116515852 now IPC :0.25746: AVG IPC :0.59725: L2-Pf-HR :0.88570: L2-HR :0.87471: (Sim:1h31m6s) 
CPU  0 inst:   71000002 cyc:  117021678 now IPC :0.25924: AVG IPC :0.59464: L2-Pf-HR :0.88247: L2-HR :0.87182: (Sim:1h31m22s) 
CPU  3 inst:   71000002 cyc:  118227174 now IPC :0.26249: AVG IPC :0.58853: L2-Pf-HR :0.87374: L2-HR :0.86365: (Sim:1h32m1s) 
CPU  1 inst:   71000002 cyc:  118933817 now IPC :0.26427: AVG IPC :0.58500: L2-Pf-HR :0.85100: L2-HR :0.84322: (Sim:1h32m24s) 
CPU  2 inst:   72000004 cyc:  120246212 now IPC :0.26807: AVG IPC :0.58695: L2-Pf-HR :0.88390: L2-HR :0.87288: (Sim:1h33m7s) 
CPU  0 inst:   72000004 cyc:  120737500 now IPC :0.26912: AVG IPC :0.58454: L2-Pf-HR :0.88082: L2-HR :0.87011: (Sim:1h33m23s) 
CPU  3 inst:   72000004 cyc:  121904593 now IPC :0.27193: AVG IPC :0.57890: L2-Pf-HR :0.87237: L2-HR :0.86216: (Sim:1h34m1s) 
CPU  1 inst:   72000004 cyc:  122598901 now IPC :0.27285: AVG IPC :0.57559: L2-Pf-HR :0.84969: L2-HR :0.84179: (Sim:1h34m24s) 
CPU  2 inst:   73000003 cyc:  123904216 now IPC :0.27337: AVG IPC :0.57762: L2-Pf-HR :0.88227: L2-HR :0.87115: (Sim:1h35m7s) 
CPU  0 inst:   73000003 cyc:  124384801 now IPC :0.27418: AVG IPC :0.57537: L2-Pf-HR :0.87933: L2-HR :0.86849: (Sim:1h35m22s) 
CPU  3 inst:   73000003 cyc:  125558178 now IPC :0.27370: AVG IPC :0.56995: L2-Pf-HR :0.87107: L2-HR :0.86069: (Sim:1h36m1s) 
CPU  1 inst:   73000003 cyc:  126253570 now IPC :0.27362: AVG IPC :0.56678: L2-Pf-HR :0.84846: L2-HR :0.84040: (Sim:1h36m24s) 
CPU  2 inst:   74000000 cyc:  127544293 now IPC :0.27472: AVG IPC :0.56891: L2-Pf-HR :0.88077: L2-HR :0.86952: (Sim:1h37m6s) 
CPU  0 inst:   74000000 cyc:  128024625 now IPC :0.27474: AVG IPC :0.56675: L2-Pf-HR :0.87789: L2-HR :0.86692: (Sim:1h37m22s) 
CPU  3 inst:   74000000 cyc:  129187989 now IPC :0.27550: AVG IPC :0.56161: L2-Pf-HR :0.86982: L2-HR :0.85927: (Sim:1h38m0s) 
CPU  1 inst:   74000000 cyc:  129884414 now IPC :0.27542: AVG IPC :0.55857: L2-Pf-HR :0.84729: L2-HR :0.83907: (Sim:1h38m23s) 
CPU  2 inst:   75000005 cyc:  131175033 now IPC :0.27543: AVG IPC :0.56072: L2-Pf-HR :0.87927: L2-HR :0.86792: (Sim:1h39m5s) 
CPU  0 inst:   75000005 cyc:  131659289 now IPC :0.27513: AVG IPC :0.55864: L2-Pf-HR :0.87651: L2-HR :0.86541: (Sim:1h39m21s) 
CPU  3 inst:   75000005 cyc:  132821206 now IPC :0.27524: AVG IPC :0.55372: L2-Pf-HR :0.86860: L2-HR :0.85789: (Sim:1h39m59s) 
CPU  1 inst:   75000005 cyc:  133515293 now IPC :0.27542: AVG IPC :0.55081: L2-Pf-HR :0.84616: L2-HR :0.83778: (Sim:1h40m22s) 
CPU  2 inst:   76000000 cyc:  134803636 now IPC :0.27559: AVG IPC :0.55299: L2-Pf-HR :0.87783: L2-HR :0.86637: (Sim:1h41m4s) 
CPU  0 inst:   76000000 cyc:  135294847 now IPC :0.27506: AVG IPC :0.55097: L2-Pf-HR :0.87509: L2-HR :0.86387: (Sim:1h41m21s) 
CPU  3 inst:   76000000 cyc:  136454275 now IPC :0.27525: AVG IPC :0.54625: L2-Pf-HR :0.86743: L2-HR :0.85655: (Sim:1h41m59s) 
CPU  1 inst:   76000000 cyc:  137150011 now IPC :0.27512: AVG IPC :0.54346: L2-Pf-HR :0.84503: L2-HR :0.83650: (Sim:1h42m22s) 
CPU  2 inst:   77000000 cyc:  138443739 now IPC :0.27472: AVG IPC :0.54562: L2-Pf-HR :0.87645: L2-HR :0.86486: (Sim:1h43m4s) 
CPU  0 inst:   77000000 cyc:  138929069 now IPC :0.27516: AVG IPC :0.54370: L2-Pf-HR :0.87369: L2-HR :0.86235: (Sim:1h43m20s) 
CPU  3 inst:   77000000 cyc:  140099385 now IPC :0.27434: AVG IPC :0.53913: L2-Pf-HR :0.86619: L2-HR :0.85518: (Sim:1h43m58s) 
CPU  1 inst:   77000000 cyc:  140794365 now IPC :0.27440: AVG IPC :0.53644: L2-Pf-HR :0.84387: L2-HR :0.83520: (Sim:1h44m21s) 
CPU  2 inst:   78000000 cyc:  142092155 now IPC :0.27409: AVG IPC :0.53860: L2-Pf-HR :0.87504: L2-HR :0.86333: (Sim:1h45m4s) 
CPU  0 inst:   78000000 cyc:  142569324 now IPC :0.27471: AVG IPC :0.53678: L2-Pf-HR :0.87230: L2-HR :0.86085: (Sim:1h45m19s) 
CPU  3 inst:   78000000 cyc:  143728514 now IPC :0.27555: AVG IPC :0.53243: L2-Pf-HR :0.86504: L2-HR :0.85387: (Sim:1h45m57s) 
CPU  1 inst:   78000000 cyc:  144425090 now IPC :0.27543: AVG IPC :0.52984: L2-Pf-HR :0.84278: L2-HR :0.83396: (Sim:1h46m20s) 
CPU  2 inst:   79000000 cyc:  145725540 now IPC :0.27523: AVG IPC :0.53199: L2-Pf-HR :0.87365: L2-HR :0.86184: (Sim:1h47m3s) 
CPU  0 inst:   79000000 cyc:  146208246 now IPC :0.27481: AVG IPC :0.53022: L2-Pf-HR :0.87102: L2-HR :0.85944: (Sim:1h47m18s) 
CPU  3 inst:   79000000 cyc:  147370135 now IPC :0.27460: AVG IPC :0.52601: L2-Pf-HR :0.86395: L2-HR :0.85261: (Sim:1h47m57s) 
CPU  1 inst:   79000000 cyc:  148056683 now IPC :0.27536: AVG IPC :0.52355: L2-Pf-HR :0.84172: L2-HR :0.83276: (Sim:1h48m19s) 
CPU  2 inst:   80000004 cyc:  149354995 now IPC :0.27552: AVG IPC :0.52571: L2-Pf-HR :0.87230: L2-HR :0.86039: (Sim:1h49m2s) 
CPU  0 inst:   80000004 cyc:  149832772 now IPC :0.27590: AVG IPC :0.52403: L2-Pf-HR :0.86982: L2-HR :0.85811: (Sim:1h49m17s) 
CPU  3 inst:   80000004 cyc:  151004814 now IPC :0.27513: AVG IPC :0.51993: L2-Pf-HR :0.86290: L2-HR :0.85140: (Sim:1h49m56s) 
CPU  1 inst:   80000004 cyc:  151702296 now IPC :0.27430: AVG IPC :0.51752: L2-Pf-HR :0.84064: L2-HR :0.83154: (Sim:1h50m18s) 
CPU  2 inst:   81000004 cyc:  152995112 now IPC :0.27472: AVG IPC :0.51970: L2-Pf-HR :0.87098: L2-HR :0.85896: (Sim:1h51m1s) 
CPU  0 inst:   81000004 cyc:  153474585 now IPC :0.27459: AVG IPC :0.51807: L2-Pf-HR :0.86858: L2-HR :0.85674: (Sim:1h51m17s) 
CPU  3 inst:   81000004 cyc:  154636080 now IPC :0.27539: AVG IPC :0.51416: L2-Pf-HR :0.86184: L2-HR :0.85018: (Sim:1h51m55s) 
CPU  1 inst:   81000004 cyc:  155330740 now IPC :0.27560: AVG IPC :0.51184: L2-Pf-HR :0.83964: L2-HR :0.83039: (Sim:1h52m17s) 
CPU  2 inst:   82000000 cyc:  156622684 now IPC :0.27567: AVG IPC :0.51402: L2-Pf-HR :0.86967: L2-HR :0.85756: (Sim:1h53m0s) 
CPU  0 inst:   82000000 cyc:  157105167 now IPC :0.27544: AVG IPC :0.51243: L2-Pf-HR :0.86739: L2-HR :0.85542: (Sim:1h53m16s) 
CPU  3 inst:   82000000 cyc:  158272056 now IPC :0.27503: AVG IPC :0.50863: L2-Pf-HR :0.86075: L2-HR :0.84895: (Sim:1h53m54s) 
CPU  1 inst:   82000000 cyc:  158972375 now IPC :0.27460: AVG IPC :0.50637: L2-Pf-HR :0.83856: L2-HR :0.82920: (Sim:1h54m17s) 
CPU  2 inst:   83000005 cyc:  160264477 now IPC :0.27459: AVG IPC :0.50854: L2-Pf-HR :0.86839: L2-HR :0.85620: (Sim:1h54m59s) 
CPU  0 inst:   83000005 cyc:  160743530 now IPC :0.27485: AVG IPC :0.50702: L2-Pf-HR :0.86618: L2-HR :0.85414: (Sim:1h55m14s) 
CPU  3 inst:   83000005 cyc:  161912870 now IPC :0.27467: AVG IPC :0.50333: L2-Pf-HR :0.85965: L2-HR :0.84778: (Sim:1h55m53s) 
CPU  1 inst:   83000005 cyc:  162612757 now IPC :0.27470: AVG IPC :0.50115: L2-Pf-HR :0.83748: L2-HR :0.82807: (Sim:1h56m16s) 
CPU  2 inst:   84000001 cyc:  163901537 now IPC :0.27495: AVG IPC :0.50333: L2-Pf-HR :0.86702: L2-HR :0.85482: (Sim:1h56m58s) 
CPU  0 inst:   84000001 cyc:  164390770 now IPC :0.27418: AVG IPC :0.50182: L2-Pf-HR :0.86490: L2-HR :0.85283: (Sim:1h57m14s) 
CPU  3 inst:   84000001 cyc:  165552822 now IPC :0.27473: AVG IPC :0.49828: L2-Pf-HR :0.85856: L2-HR :0.84663: (Sim:1h57m52s) 
CPU  1 inst:   84000001 cyc:  166240148 now IPC :0.27568: AVG IPC :0.49620: L2-Pf-HR :0.83649: L2-HR :0.82701: (Sim:1h58m14s) 
CPU  2 inst:   85000005 cyc:  167538181 now IPC :0.27498: AVG IPC :0.49834: L2-Pf-HR :0.86570: L2-HR :0.85349: (Sim:1h58m57s) 
CPU  0 inst:   85000005 cyc:  168025672 now IPC :0.27511: AVG IPC :0.49689: L2-Pf-HR :0.86368: L2-HR :0.85157: (Sim:1h59m13s) 
CPU  3 inst:   85000005 cyc:  169184106 now IPC :0.27539: AVG IPC :0.49347: L2-Pf-HR :0.85754: L2-HR :0.84553: (Sim:1h59m50s) 
CPU  1 inst:   85000005 cyc:  169877287 now IPC :0.27494: AVG IPC :0.49144: L2-Pf-HR :0.83546: L2-HR :0.82593: (Sim:2h0m13s) 
CPU  2 inst:   86000000 cyc:  171176592 now IPC :0.27484: AVG IPC :0.49356: L2-Pf-HR :0.86444: L2-HR :0.85220: (Sim:2h0m56s) 
CPU  0 inst:   86000000 cyc:  171658514 now IPC :0.27527: AVG IPC :0.49217: L2-Pf-HR :0.86251: L2-HR :0.85035: (Sim:2h1m11s) 
CPU  3 inst:   86000000 cyc:  172821362 now IPC :0.27493: AVG IPC :0.48884: L2-Pf-HR :0.85650: L2-HR :0.84442: (Sim:2h1m50s) 
CPU  1 inst:   86000000 cyc:  173512265 now IPC :0.27510: AVG IPC :0.48688: L2-Pf-HR :0.83447: L2-HR :0.82488: (Sim:2h2m12s) 
CPU  2 inst:   87000002 cyc:  174817023 now IPC :0.27469: AVG IPC :0.48898: L2-Pf-HR :0.86313: L2-HR :0.85089: (Sim:2h2m55s) 
CPU  0 inst:   87000002 cyc:  175291362 now IPC :0.27527: AVG IPC :0.48765: L2-Pf-HR :0.86136: L2-HR :0.84917: (Sim:2h3m10s) 
CPU  3 inst:   87000002 cyc:  176448423 now IPC :0.27571: AVG IPC :0.48443: L2-Pf-HR :0.85553: L2-HR :0.84337: (Sim:2h3m48s) 
CPU  1 inst:   87000002 cyc:  177137312 now IPC :0.27586: AVG IPC :0.48253: L2-Pf-HR :0.83355: L2-HR :0.82388: (Sim:2h4m11s) 
CPU  2 inst:   88000004 cyc:  178438046 now IPC :0.27617: AVG IPC :0.48464: L2-Pf-HR :0.86193: L2-HR :0.84965: (Sim:2h4m53s) 
CPU  0 inst:   88000004 cyc:  178920411 now IPC :0.27555: AVG IPC :0.48332: L2-Pf-HR :0.86024: L2-HR :0.84799: (Sim:2h5m9s) 
CPU  3 inst:   88000004 cyc:  180088639 now IPC :0.27471: AVG IPC :0.48017: L2-Pf-HR :0.85453: L2-HR :0.84230: (Sim:2h5m47s) 
CPU  1 inst:   88000004 cyc:  180783909 now IPC :0.27423: AVG IPC :0.47831: L2-Pf-HR :0.83264: L2-HR :0.82290: (Sim:2h6m10s) 
CPU  2 inst:   89000004 cyc:  182091538 now IPC :0.27371: AVG IPC :0.48038: L2-Pf-HR :0.86066: L2-HR :0.84838: (Sim:2h6m53s) 
CPU  0 inst:   89000004 cyc:  182568673 now IPC :0.27410: AVG IPC :0.47912: L2-Pf-HR :0.85907: L2-HR :0.84679: (Sim:2h7m9s) 
CPU  3 inst:   89000004 cyc:  183722072 now IPC :0.27522: AVG IPC :0.47610: L2-Pf-HR :0.85355: L2-HR :0.84125: (Sim:2h7m46s) 
CPU  1 inst:   89000004 cyc:  184413376 now IPC :0.27552: AVG IPC :0.47430: L2-Pf-HR :0.83178: L2-HR :0.82197: (Sim:2h8m9s) 
CPU  2 inst:   90000000 cyc:  185707666 now IPC :0.27654: AVG IPC :0.47639: L2-Pf-HR :0.85950: L2-HR :0.84719: (Sim:2h8m51s) 
CPU  0 inst:   90000000 cyc:  186193368 now IPC :0.27588: AVG IPC :0.47514: L2-Pf-HR :0.85801: L2-HR :0.84568: (Sim:2h9m7s) 
CPU  3 inst:   90000000 cyc:  187379724 now IPC :0.27340: AVG IPC :0.47212: L2-Pf-HR :0.85258: L2-HR :0.84022: (Sim:2h9m46s) 
CPU  1 inst:   90000000 cyc:  188074529 now IPC :0.27314: AVG IPC :0.47036: L2-Pf-HR :0.83076: L2-HR :0.82092: (Sim:2h10m8s) 
CPU  2 inst:   91000003 cyc:  189364546 now IPC :0.27346: AVG IPC :0.47245: L2-Pf-HR :0.85828: L2-HR :0.84597: (Sim:2h10m51s) 
CPU  0 inst:   91000003 cyc:  189846532 now IPC :0.27374: AVG IPC :0.47125: L2-Pf-HR :0.85689: L2-HR :0.84454: (Sim:2h11m6s) 
CPU  3 inst:   91000003 cyc:  191004942 now IPC :0.27585: AVG IPC :0.46837: L2-Pf-HR :0.85164: L2-HR :0.83923: (Sim:2h11m44s) 
CPU  1 inst:   91000003 cyc:  191696492 now IPC :0.27609: AVG IPC :0.46667: L2-Pf-HR :0.82989: L2-HR :0.82000: (Sim:2h12m7s) 
CPU  2 inst:   92000002 cyc:  192998499 now IPC :0.27518: AVG IPC :0.46872: L2-Pf-HR :0.85709: L2-HR :0.84479: (Sim:2h12m49s) 
CPU  0 inst:   92000002 cyc:  193473484 now IPC :0.27571: AVG IPC :0.46756: L2-Pf-HR :0.85584: L2-HR :0.84347: (Sim:2h13m4s) 
CPU  3 inst:   92000002 cyc:  194641656 now IPC :0.27497: AVG IPC :0.46474: L2-Pf-HR :0.85072: L2-HR :0.83827: (Sim:2h13m42s) 
CPU  1 inst:   92000002 cyc:  195328995 now IPC :0.27529: AVG IPC :0.46309: L2-Pf-HR :0.82898: L2-HR :0.81906: (Sim:2h14m4s) 
CPU  2 inst:   93000003 cyc:  196625433 now IPC :0.27572: AVG IPC :0.46514: L2-Pf-HR :0.85592: L2-HR :0.84362: (Sim:2h14m46s) 
CPU  0 inst:   93000003 cyc:  197103753 now IPC :0.27546: AVG IPC :0.46401: L2-Pf-HR :0.85476: L2-HR :0.84236: (Sim:2h15m2s) 
CPU  3 inst:   93000003 cyc:  198273896 now IPC :0.27531: AVG IPC :0.46125: L2-Pf-HR :0.84982: L2-HR :0.83729: (Sim:2h15m40s) 
CPU  1 inst:   93000003 cyc:  198960354 now IPC :0.27538: AVG IPC :0.45965: L2-Pf-HR :0.82821: L2-HR :0.81819: (Sim:2h16m2s) 
CPU  2 inst:   94000002 cyc:  200276883 now IPC :0.27386: AVG IPC :0.46164: L2-Pf-HR :0.85476: L2-HR :0.84242: (Sim:2h16m44s) 
CPU  0 inst:   94000002 cyc:  200754653 now IPC :0.27390: AVG IPC :0.46053: L2-Pf-HR :0.85365: L2-HR :0.84121: (Sim:2h17m0s) 
CPU  3 inst:   94000002 cyc:  201912995 now IPC :0.27479: AVG IPC :0.45788: L2-Pf-HR :0.84890: L2-HR :0.83629: (Sim:2h17m38s) 
CPU  1 inst:   94000002 cyc:  202590643 now IPC :0.27546: AVG IPC :0.45633: L2-Pf-HR :0.82758: L2-HR :0.81743: (Sim:2h18m0s) 
CPU  2 inst:   95000003 cyc:  203908959 now IPC :0.27532: AVG IPC :0.45830: L2-Pf-HR :0.85369: L2-HR :0.84130: (Sim:2h18m42s) 
CPU  0 inst:   95000002 cyc:  204391502 now IPC :0.27496: AVG IPC :0.45721: L2-Pf-HR :0.85261: L2-HR :0.84012: (Sim:2h18m58s) 
CPU  3 inst:   95000003 cyc:  205558888 now IPC :0.27428: AVG IPC :0.45461: L2-Pf-HR :0.84793: L2-HR :0.83528: (Sim:2h19m36s) 
CPU  1 inst:   95000002 cyc:  206235196 now IPC :0.27438: AVG IPC :0.45310: L2-Pf-HR :0.82688: L2-HR :0.81664: (Sim:2h19m57s) 
CPU  2 inst:   96000004 cyc:  207538009 now IPC :0.27555: AVG IPC :0.45509: L2-Pf-HR :0.85260: L2-HR :0.84021: (Sim:2h20m40s) 
CPU  0 inst:   96000004 cyc:  208021381 now IPC :0.27549: AVG IPC :0.45403: L2-Pf-HR :0.85160: L2-HR :0.83910: (Sim:2h20m55s) 
CPU  3 inst:   96000004 cyc:  209186609 now IPC :0.27566: AVG IPC :0.45149: L2-Pf-HR :0.84699: L2-HR :0.83431: (Sim:2h21m33s) 
CPU  1 inst:   96000004 cyc:  209868955 now IPC :0.27520: AVG IPC :0.45001: L2-Pf-HR :0.82626: L2-HR :0.81593: (Sim:2h21m55s) 
CPU  2 inst:   97000004 cyc:  211179062 now IPC :0.27465: AVG IPC :0.45196: L2-Pf-HR :0.85151: L2-HR :0.83912: (Sim:2h22m38s) 
CPU  0 inst:   97000004 cyc:  211658137 now IPC :0.27497: AVG IPC :0.45094: L2-Pf-HR :0.85057: L2-HR :0.83806: (Sim:2h22m53s) 
CPU  3 inst:   97000004 cyc:  212825446 now IPC :0.27481: AVG IPC :0.44845: L2-Pf-HR :0.84607: L2-HR :0.83336: (Sim:2h23m31s) 
CPU  1 inst:   97000004 cyc:  213504610 now IPC :0.27505: AVG IPC :0.44702: L2-Pf-HR :0.82564: L2-HR :0.81522: (Sim:2h23m53s) 
CPU  2 inst:   98000000 cyc:  214805016 now IPC :0.27579: AVG IPC :0.44898: L2-Pf-HR :0.85045: L2-HR :0.83806: (Sim:2h24m35s) 
CPU  0 inst:   98000000 cyc:  215294023 now IPC :0.27504: AVG IPC :0.44795: L2-Pf-HR :0.84956: L2-HR :0.83704: (Sim:2h24m51s) 
CPU  3 inst:   98000000 cyc:  216455561 now IPC :0.27547: AVG IPC :0.44554: L2-Pf-HR :0.84519: L2-HR :0.83245: (Sim:2h25m29s) 
CPU  1 inst:   98000000 cyc:  217134969 now IPC :0.27545: AVG IPC :0.44413: L2-Pf-HR :0.82502: L2-HR :0.81452: (Sim:2h25m51s) 
CPU  2 inst:   99000003 cyc:  218440456 now IPC :0.27507: AVG IPC :0.44607: L2-Pf-HR :0.84939: L2-HR :0.83700: (Sim:2h26m33s) 
CPU  0 inst:   99000003 cyc:  218920954 now IPC :0.27572: AVG IPC :0.44509: L2-Pf-HR :0.84858: L2-HR :0.83605: (Sim:2h26m48s) 
CPU  3 inst:   99000003 cyc:  220079167 now IPC :0.27597: AVG IPC :0.44273: L2-Pf-HR :0.84432: L2-HR :0.83155: (Sim:2h27m26s) 
CPU  1 inst:   99000003 cyc:  220760032 now IPC :0.27586: AVG IPC :0.44136: L2-Pf-HR :0.82440: L2-HR :0.81382: (Sim:2h27m48s) 
CPU  2 inst:  100000002 cyc:  222063116 now IPC :0.27604: AVG IPC :0.44328: L2-Pf-HR :0.84840: L2-HR :0.83600: (Sim:2h28m30s) 
CPU  0 inst:  100000002 cyc:  222545066 now IPC :0.27593: AVG IPC :0.44232: L2-Pf-HR :0.84763: L2-HR :0.83508: (Sim:2h28m46s) 
CPU  3 inst:  100000002 cyc:  223708272 now IPC :0.27555: AVG IPC :0.44001: L2-Pf-HR :0.84347: L2-HR :0.83067: (Sim:2h29m23s) 
CPU  2 inst:  101000003 cyc:  224379189 now IPC :0.43177: AVG IPC :0.44316: L2-Pf-HR :0.84961: L2-HR :0.83722: (Sim:2h29m46s) 
CPU  1 inst:  100000002 cyc:  224458485 now IPC :0.27038: AVG IPC :0.43853: L2-Pf-HR :0.82372: L2-HR :0.81308: (Sim:2h29m49s) 
CPU  0 inst:  101000003 cyc:  225103726 now IPC :0.39083: AVG IPC :0.44173: L2-Pf-HR :0.84885: L2-HR :0.83630: (Sim:2h30m19s) 
CPU  2 inst:  102000004 cyc:  225292508 now IPC :1.09491: AVG IPC :0.44582: L2-Pf-HR :0.85326: L2-HR :0.84098: (Sim:2h30m28s) 
CPU  0 inst:  102000004 cyc:  226095277 now IPC :1.00852: AVG IPC :0.44423: L2-Pf-HR :0.85240: L2-HR :0.84000: (Sim:2h31m5s) 
CPU  2 inst:  103000000 cyc:  226204928 now IPC :1.09598: AVG IPC :0.44845: L2-Pf-HR :0.85674: L2-HR :0.84455: (Sim:2h31m11s) 
CPU  3 inst:  101000003 cyc:  226471532 now IPC :0.36189: AVG IPC :0.43905: L2-Pf-HR :0.84462: L2-HR :0.83184: (Sim:2h31m27s) 
CPU  2 inst:  104000003 cyc:  226837842 now IPC :1.58000: AVG IPC :0.45162: L2-Pf-HR :0.86040: L2-HR :0.84828: (Sim:2h31m50s) 
CPU  0 inst:  103000000 cyc:  226961597 now IPC :1.15430: AVG IPC :0.44695: L2-Pf-HR :0.85599: L2-HR :0.84367: (Sim:2h31m59s) 
CPU  1 inst:  101000003 cyc:  227192087 now IPC :0.36582: AVG IPC :0.43765: L2-Pf-HR :0.82537: L2-HR :0.81463: (Sim:2h32m18s) 
CPU  3 inst:  102000004 cyc:  227360096 now IPC :1.12541: AVG IPC :0.44175: L2-Pf-HR :0.84831: L2-HR :0.83565: (Sim:2h32m29s) 
CPU  0 inst:  104000003 cyc:  227571522 now IPC :1.63955: AVG IPC :0.45016: L2-Pf-HR :0.85942: L2-HR :0.84722: (Sim:2h32m44s) 
CPU  2 inst:  105000003 cyc:  227644022 now IPC :1.24042: AVG IPC :0.45443: L2-Pf-HR :0.86343: L2-HR :0.85144: (Sim:2h32m49s) 
CPU  1 inst:  102000004 cyc:  228175990 now IPC :1.01636: AVG IPC :0.44016: L2-Pf-HR :0.82978: L2-HR :0.81903: (Sim:2h33m24s) 
CPU  3 inst:  103000000 cyc:  228252091 now IPC :1.12108: AVG IPC :0.44441: L2-Pf-HR :0.85182: L2-HR :0.83929: (Sim:2h33m29s) 
CPU  0 inst:  105000003 cyc:  228425166 now IPC :1.17145: AVG IPC :0.45287: L2-Pf-HR :0.86263: L2-HR :0.85055: (Sim:2h33m42s) 
CPU  2 inst:  106000001 cyc:  228643346 now IPC :1.00067: AVG IPC :0.45683: L2-Pf-HR :0.86620: L2-HR :0.85439: (Sim:2h33m57s) 
CPU  3 inst:  104000003 cyc:  228912928 now IPC :1.51324: AVG IPC :0.44751: L2-Pf-HR :0.85545: L2-HR :0.84301: (Sim:2h34m15s) 
CPU  1 inst:  103000000 cyc:  229036496 now IPC :1.16210: AVG IPC :0.44288: L2-Pf-HR :0.83409: L2-HR :0.82330: (Sim:2h34m25s) 
CPU  0 inst:  106000000 cyc:  229338786 now IPC :1.09454: AVG IPC :0.45543: L2-Pf-HR :0.86539: L2-HR :0.85348: (Sim:2h34m49s) 
CPU  2 inst:  107000000 cyc:  229463604 now IPC :1.21913: AVG IPC :0.45956: L2-Pf-HR :0.86866: L2-HR :0.85705: (Sim:2h34m59s) 
CPU  1 inst:  104000003 cyc:  229617028 now IPC :1.72256: AVG IPC :0.44613: L2-Pf-HR :0.83827: L2-HR :0.82748: (Sim:2h35m11s) 
CPU  3 inst:  105000003 cyc:  229645133 now IPC :1.36574: AVG IPC :0.45045: L2-Pf-HR :0.85844: L2-HR :0.84618: (Sim:2h35m14s) 
CPU  2 inst:  108000005 cyc:  230042888 now IPC :1.72628: AVG IPC :0.46277: L2-Pf-HR :0.87131: L2-HR :0.85988: (Sim:2h35m46s) 
CPU  0 inst:  107000000 cyc:  230110513 now IPC :1.29579: AVG IPC :0.45826: L2-Pf-HR :0.86786: L2-HR :0.85615: (Sim:2h35m51s) 
CPU  1 inst:  105000003 cyc:  230345793 now IPC :1.37218: AVG IPC :0.44907: L2-Pf-HR :0.84186: L2-HR :0.83113: (Sim:2h36m10s) 
CPU  3 inst:  106000000 cyc:  230468499 now IPC :1.21452: AVG IPC :0.45319: L2-Pf-HR :0.86122: L2-HR :0.84915: (Sim:2h36m21s) 
CPU  0 inst:  108000005 cyc:  230703566 now IPC :1.68620: AVG IPC :0.46144: L2-Pf-HR :0.87058: L2-HR :0.85904: (Sim:2h36m37s) 
CPU  2 inst:  109000000 cyc:  230757201 now IPC :1.39994: AVG IPC :0.46568: L2-Pf-HR :0.87356: L2-HR :0.86233: (Sim:2h36m41s) 
CPU  1 inst:  106000000 cyc:  231243221 now IPC :1.11429: AVG IPC :0.45166: L2-Pf-HR :0.84514: L2-HR :0.83453: (Sim:2h37m16s) 
CPU  3 inst:  107000000 cyc:  231337622 now IPC :1.15059: AVG IPC :0.45582: L2-Pf-HR :0.86380: L2-HR :0.85193: (Sim:2h37m21s) 
CPU  0 inst:  109000000 cyc:  231466997 now IPC :1.30987: AVG IPC :0.46425: L2-Pf-HR :0.87279: L2-HR :0.86147: (Sim:2h37m31s) 
CPU  2 inst:  110000001 cyc:  231681168 now IPC :1.08229: AVG IPC :0.46815: L2-Pf-HR :0.87572: L2-HR :0.86469: (Sim:2h37m47s) 
CPU  3 inst:  108000005 cyc:  231915954 now IPC :1.72912: AVG IPC :0.45901: L2-Pf-HR :0.86639: L2-HR :0.85473: (Sim:2h38m6s) 
CPU  1 inst:  107000000 cyc:  232015012 now IPC :1.29569: AVG IPC :0.45448: L2-Pf-HR :0.84847: L2-HR :0.83793: (Sim:2h38m14s) 
CPU  0 inst:  110000005 cyc:  232269616 now IPC :1.24593: AVG IPC :0.46696: L2-Pf-HR :0.87492: L2-HR :0.86381: (Sim:2h38m36s) 
CPU  2 inst:  111000002 cyc:  232433111 now IPC :1.32989: AVG IPC :0.47095: L2-Pf-HR :0.87766: L2-HR :0.86685: (Sim:2h38m49s) 
CPU  3 inst:  109000000 cyc:  232575614 now IPC :1.51592: AVG IPC :0.46202: L2-Pf-HR :0.86867: L2-HR :0.85724: (Sim:2h39m1s) 
CPU  1 inst:  108000005 cyc:  232576579 now IPC :1.78074: AVG IPC :0.45770: L2-Pf-HR :0.85149: L2-HR :0.84108: (Sim:2h39m1s) 
CPU  0 inst:  111000002 cyc:  232977368 now IPC :1.41292: AVG IPC :0.46984: L2-Pf-HR :0.87692: L2-HR :0.86601: (Sim:2h39m37s) 
CPU  2 inst:  112000000 cyc:  232995172 now IPC :1.77916: AVG IPC :0.47412: L2-Pf-HR :0.87976: L2-HR :0.86914: (Sim:2h39m38s) 
CPU  1 inst:  109000000 cyc:  233165912 now IPC :1.69683: AVG IPC :0.46085: L2-Pf-HR :0.85420: L2-HR :0.84396: (Sim:2h39m54s) 
CPU  3 inst:  110000005 cyc:  233231703 now IPC :1.52419: AVG IPC :0.46502: L2-Pf-HR :0.87087: L2-HR :0.85964: (Sim:2h40m0s) 
CPU  0 inst:  112000000 cyc:  233524780 now IPC :1.82677: AVG IPC :0.47304: L2-Pf-HR :0.87886: L2-HR :0.86818: (Sim:2h40m26s) 
CPU  2 inst:  113000000 cyc:  233573500 now IPC :1.72912: AVG IPC :0.47724: L2-Pf-HR :0.88161: L2-HR :0.87120: (Sim:2h40m30s) 
CPU  1 inst:  110000005 cyc:  233861012 now IPC :1.43865: AVG IPC :0.46376: L2-Pf-HR :0.85677: L2-HR :0.84668: (Sim:2h40m54s) 
CPU  3 inst:  111000002 cyc:  233901265 now IPC :1.49351: AVG IPC :0.46798: L2-Pf-HR :0.87303: L2-HR :0.86199: (Sim:2h40m57s) 
CPU  0 inst:  113000000 cyc:  234093025 now IPC :1.75980: AVG IPC :0.47617: L2-Pf-HR :0.88069: L2-HR :0.87022: (Sim:2h41m14s) 
CPU  2 inst:  114000001 cyc:  234291390 now IPC :1.39297: AVG IPC :0.48006: L2-Pf-HR :0.88333: L2-HR :0.87312: (Sim:2h41m30s) 
CPU  3 inst:  112000000 cyc:  234451461 now IPC :1.81753: AVG IPC :0.47116: L2-Pf-HR :0.87521: L2-HR :0.86438: (Sim:2h41m44s) 
CPU  1 inst:  111000002 cyc:  234559479 now IPC :1.43170: AVG IPC :0.46666: L2-Pf-HR :0.85920: L2-HR :0.84926: (Sim:2h41m53s) 
CPU  0 inst:  114000001 cyc:  234788685 now IPC :1.43749: AVG IPC :0.47904: L2-Pf-HR :0.88241: L2-HR :0.87214: (Sim:2h42m14s) 
CPU  2 inst:  115000000 cyc:  234941245 now IPC :1.53880: AVG IPC :0.48300: L2-Pf-HR :0.88506: L2-HR :0.87504: (Sim:2h42m28s) 
CPU  3 inst:  113000000 cyc:  235037817 now IPC :1.70545: AVG IPC :0.47425: L2-Pf-HR :0.87749: L2-HR :0.86679: (Sim:2h42m35s) 
CPU  1 inst:  112000000 cyc:  235099383 now IPC :1.85218: AVG IPC :0.46985: L2-Pf-HR :0.86172: L2-HR :0.85192: (Sim:2h42m41s) 
CPU  0 inst:  115000000 cyc:  235448900 now IPC :1.51466: AVG IPC :0.48195: L2-Pf-HR :0.88415: L2-HR :0.87407: (Sim:2h43m12s) 
CPU  2 inst:  116000002 cyc:  235505675 now IPC :1.77170: AVG IPC :0.48610: L2-Pf-HR :0.88703: L2-HR :0.87714: (Sim:2h43m18s) 
CPU  1 inst:  113000004 cyc:  235664558 now IPC :1.76937: AVG IPC :0.47298: L2-Pf-HR :0.86407: L2-HR :0.85441: (Sim:2h43m32s) 
CPU  3 inst:  114000001 cyc:  235714733 now IPC :1.47729: AVG IPC :0.47715: L2-Pf-HR :0.87923: L2-HR :0.86874: (Sim:2h43m36s) 
CPU  0 inst:  116000002 cyc:  236002891 now IPC :1.80509: AVG IPC :0.48507: L2-Pf-HR :0.88602: L2-HR :0.87609: (Sim:2h44m2s) 
CPU  2 inst:  117000000 cyc:  236048640 now IPC :1.84174: AVG IPC :0.48923: L2-Pf-HR :0.88872: L2-HR :0.87901: (Sim:2h44m7s) 
CPU  1 inst:  114000001 cyc:  236369347 now IPC :1.41886: AVG IPC :0.47582: L2-Pf-HR :0.86613: L2-HR :0.85664: (Sim:2h44m33s) 
CPU  3 inst:  115000000 cyc:  236396583 now IPC :1.46660: AVG IPC :0.48001: L2-Pf-HR :0.88100: L2-HR :0.87071: (Sim:2h44m36s) 
CPU  0 inst:  117000004 cyc:  236559233 now IPC :1.79746: AVG IPC :0.48817: L2-Pf-HR :0.88765: L2-HR :0.87792: (Sim:2h44m49s) 
CPU  2 inst:  118000004 cyc:  236747814 now IPC :1.43026: AVG IPC :0.49202: L2-Pf-HR :0.89003: L2-HR :0.88052: (Sim:2h45m5s) 
CPU  3 inst:  116000002 cyc:  236980491 now IPC :1.71260: AVG IPC :0.48306: L2-Pf-HR :0.88297: L2-HR :0.87283: (Sim:2h45m25s) 
CPU  1 inst:  115000000 cyc:  237034435 now IPC :1.50356: AVG IPC :0.47871: L2-Pf-HR :0.86820: L2-HR :0.85887: (Sim:2h45m30s) 
CPU  0 inst:  118000004 cyc:  237238739 now IPC :1.47166: AVG IPC :0.49100: L2-Pf-HR :0.88904: L2-HR :0.87951: (Sim:2h45m48s) 
CPU  2 inst:  119000005 cyc:  237409324 now IPC :1.51169: AVG IPC :0.49487: L2-Pf-HR :0.89145: L2-HR :0.88213: (Sim:2h46m3s) 
CPU  3 inst:  117000004 cyc:  237520093 now IPC :1.85322: AVG IPC :0.48619: L2-Pf-HR :0.88481: L2-HR :0.87484: (Sim:2h46m13s) 
CPU  1 inst:  116000002 cyc:  237597836 now IPC :1.77494: AVG IPC :0.48180: L2-Pf-HR :0.87018: L2-HR :0.86101: (Sim:2h46m20s) 
CPU  0 inst:  119000005 cyc:  237894360 now IPC :1.52527: AVG IPC :0.49386: L2-Pf-HR :0.89047: L2-HR :0.88112: (Sim:2h46m47s) 
CPU  2 inst:  120000005 cyc:  237986484 now IPC :1.73262: AVG IPC :0.49789: L2-Pf-HR :0.89299: L2-HR :0.88381: (Sim:2h46m56s) 
CPU  1 inst:  117000000 cyc:  238147142 now IPC :1.82048: AVG IPC :0.48490: L2-Pf-HR :0.87234: L2-HR :0.86328: (Sim:2h47m10s) 
CPU  3 inst:  118000004 cyc:  238170971 now IPC :1.53639: AVG IPC :0.48907: L2-Pf-HR :0.88624: L2-HR :0.87647: (Sim:2h47m12s) 
CPU  0 inst:  120000005 cyc:  238477066 now IPC :1.71613: AVG IPC :0.49686: L2-Pf-HR :0.89194: L2-HR :0.88275: (Sim:2h47m39s) 
CPU  2 inst:  121000004 cyc:  238523246 now IPC :1.86302: AVG IPC :0.50097: L2-Pf-HR :0.89442: L2-HR :0.88541: (Sim:2h47m44s) 
CPU  1 inst:  118000004 cyc:  238851784 now IPC :1.41917: AVG IPC :0.48767: L2-Pf-HR :0.87401: L2-HR :0.86511: (Sim:2h48m12s) 
CPU  3 inst:  119000005 cyc:  238852396 now IPC :1.46751: AVG IPC :0.49187: L2-Pf-HR :0.88774: L2-HR :0.87815: (Sim:2h48m12s) 
CPU  0 inst:  121000004 cyc:  239025161 now IPC :1.82450: AVG IPC :0.49992: L2-Pf-HR :0.89357: L2-HR :0.88452: (Sim:2h48m27s) 
CPU  2 inst:  122000003 cyc:  239197509 now IPC :1.48310: AVG IPC :0.50375: L2-Pf-HR :0.89556: L2-HR :0.88674: (Sim:2h48m42s) 
CPU  3 inst:  120000005 cyc:  239444587 now IPC :1.68864: AVG IPC :0.49484: L2-Pf-HR :0.88911: L2-HR :0.87971: (Sim:2h49m3s) 
CPU  1 inst:  119000005 cyc:  239502498 now IPC :1.53677: AVG IPC :0.49053: L2-Pf-HR :0.87576: L2-HR :0.86701: (Sim:2h49m8s) 
CPU  0 inst:  122000003 cyc:  239702990 now IPC :1.47530: AVG IPC :0.50269: L2-Pf-HR :0.89488: L2-HR :0.88598: (Sim:2h49m24s) 
CPU  2 inst:  123000001 cyc:  239881570 now IPC :1.46186: AVG IPC :0.50650: L2-Pf-HR :0.89678: L2-HR :0.88812: (Sim:2h49m40s) 
CPU  3 inst:  121000004 cyc:  240010412 now IPC :1.76733: AVG IPC :0.49786: L2-Pf-HR :0.89087: L2-HR :0.88158: (Sim:2h49m52s) 
CPU  1 inst:  120000005 cyc:  240111736 now IPC :1.64139: AVG IPC :0.49346: L2-Pf-HR :0.87737: L2-HR :0.86878: (Sim:2h50m1s) 
CPU  0 inst:  123000001 cyc:  240344180 now IPC :1.55960: AVG IPC :0.50552: L2-Pf-HR :0.89609: L2-HR :0.88736: (Sim:2h50m22s) 
CPU  2 inst:  124000002 cyc:  240463548 now IPC :1.71828: AVG IPC :0.50944: L2-Pf-HR :0.89796: L2-HR :0.88947: (Sim:2h50m33s) 
CPU  3 inst:  122000003 cyc:  240639398 now IPC :1.58986: AVG IPC :0.50072: L2-Pf-HR :0.89208: L2-HR :0.88297: (Sim:2h50m49s) 
CPU  1 inst:  121000004 cyc:  240646845 now IPC :1.86878: AVG IPC :0.49653: L2-Pf-HR :0.87930: L2-HR :0.87080: (Sim:2h50m50s) 
CPU  0 inst:  124000002 cyc:  240928118 now IPC :1.71251: AVG IPC :0.50845: L2-Pf-HR :0.89718: L2-HR :0.88863: (Sim:2h51m16s) 
CPU  2 inst:  125000003 cyc:  240993765 now IPC :1.88602: AVG IPC :0.51248: L2-Pf-HR :0.89956: L2-HR :0.89115: (Sim:2h51m22s) 
CPU  3 inst:  123000001 cyc:  241284758 now IPC :1.54952: AVG IPC :0.50354: L2-Pf-HR :0.89331: L2-HR :0.88438: (Sim:2h51m48s) 
CPU  1 inst:  122000003 cyc:  241290676 now IPC :1.55320: AVG IPC :0.49936: L2-Pf-HR :0.88071: L2-HR :0.87237: (Sim:2h51m49s) 
CPU  0 inst:  125000001 cyc:  241464313 now IPC :1.86499: AVG IPC :0.51148: L2-Pf-HR :0.89841: L2-HR :0.89002: (Sim:2h52m4s) 
CPU  2 inst:  126000005 cyc:  241610774 now IPC :1.62073: AVG IPC :0.51532: L2-Pf-HR :0.90053: L2-HR :0.89229: (Sim:2h52m17s) 
CPU  3 inst:  124000002 cyc:  241885171 now IPC :1.66552: AVG IPC :0.50644: L2-Pf-HR :0.89458: L2-HR :0.88581: (Sim:2h52m41s) 
CPU  1 inst:  123000001 cyc:  241929788 now IPC :1.56467: AVG IPC :0.50219: L2-Pf-HR :0.88219: L2-HR :0.87399: (Sim:2h52m45s) 
CPU  0 inst:  126000005 cyc:  242115563 now IPC :1.53551: AVG IPC :0.51425: L2-Pf-HR :0.89938: L2-HR :0.89116: (Sim:2h53m1s) 
CPU  2 inst:  127000002 cyc:  242280561 now IPC :1.49301: AVG IPC :0.51804: L2-Pf-HR :0.90157: L2-HR :0.89349: (Sim:2h53m15s) 
CPU  3 inst:  125000004 cyc:  242438961 now IPC :1.80574: AVG IPC :0.50942: L2-Pf-HR :0.89574: L2-HR :0.88715: (Sim:2h53m29s) 
CPU  1 inst:  124000002 cyc:  242533564 now IPC :1.65624: AVG IPC :0.50507: L2-Pf-HR :0.88376: L2-HR :0.87567: (Sim:2h53m37s) 
CPU  0 inst:  127000002 cyc:  242789552 now IPC :1.48370: AVG IPC :0.51695: L2-Pf-HR :0.90042: L2-HR :0.89237: (Sim:2h54m0s) 
CPU  2 inst:  128000001 cyc:  242903105 now IPC :1.60631: AVG IPC :0.52084: L2-Pf-HR :0.90250: L2-HR :0.89458: (Sim:2h54m10s) 
CPU  3 inst:  126000005 cyc:  243059430 now IPC :1.61169: AVG IPC :0.51224: L2-Pf-HR :0.89674: L2-HR :0.88834: (Sim:2h54m24s) 
CPU  1 inst:  125000004 cyc:  243077264 now IPC :1.83925: AVG IPC :0.50807: L2-Pf-HR :0.88514: L2-HR :0.87721: (Sim:2h54m26s) 
CPU  0 inst:  128000001 cyc:  243393807 now IPC :1.65493: AVG IPC :0.51978: L2-Pf-HR :0.90137: L2-HR :0.89348: (Sim:2h54m55s) 
CPU  2 inst:  129000002 cyc:  243436948 now IPC :1.87321: AVG IPC :0.52382: L2-Pf-HR :0.90351: L2-HR :0.89575: (Sim:2h54m58s) 
CPU  3 inst:  127000002 cyc:  243694150 now IPC :1.57549: AVG IPC :0.51502: L2-Pf-HR :0.89782: L2-HR :0.88957: (Sim:2h55m22s) 
CPU  1 inst:  126000005 cyc:  243703140 now IPC :1.59776: AVG IPC :0.51088: L2-Pf-HR :0.88633: L2-HR :0.87856: (Sim:2h55m23s) 
CPU  0 inst:  129000000 cyc:  243938332 now IPC :1.83646: AVG IPC :0.52274: L2-Pf-HR :0.90243: L2-HR :0.89468: (Sim:2h55m44s) 
CPU  2 inst:  130000002 cyc:  244031155 now IPC :1.68292: AVG IPC :0.52665: L2-Pf-HR :0.90442: L2-HR :0.89681: (Sim:2h55m52s) 
CPU  3 inst:  128000001 cyc:  244297622 now IPC :1.65708: AVG IPC :0.51785: L2-Pf-HR :0.89882: L2-HR :0.89073: (Sim:2h56m17s) 
CPU  1 inst:  127000002 cyc:  244321944 now IPC :1.61602: AVG IPC :0.51369: L2-Pf-HR :0.88760: L2-HR :0.87997: (Sim:2h56m19s) 
CPU  0 inst:  130000002 cyc:  244564365 now IPC :1.59736: AVG IPC :0.52550: L2-Pf-HR :0.90345: L2-HR :0.89583: (Sim:2h56m39s) 
CPU  2 inst:  131000004 cyc:  244704923 now IPC :1.48419: AVG IPC :0.52930: L2-Pf-HR :0.90532: L2-HR :0.89785: (Sim:2h56m50s) 
CPU  3 inst:  129000000 cyc:  244863491 now IPC :1.76719: AVG IPC :0.52075: L2-Pf-HR :0.89988: L2-HR :0.89194: (Sim:2h57m4s) 
CPU  1 inst:  128000001 cyc:  244971870 now IPC :1.53864: AVG IPC :0.51642: L2-Pf-HR :0.88902: L2-HR :0.88149: (Sim:2h57m13s) 
CPU  0 inst:  131000004 cyc:  245244284 now IPC :1.47077: AVG IPC :0.52813: L2-Pf-HR :0.90435: L2-HR :0.89688: (Sim:2h57m38s) 
CPU  2 inst:  132000003 cyc:  245382088 now IPC :1.47674: AVG IPC :0.53192: L2-Pf-HR :0.90607: L2-HR :0.89877: (Sim:2h57m49s) 
CPU  3 inst:  130000002 cyc:  245485133 now IPC :1.60865: AVG IPC :0.52352: L2-Pf-HR :0.90082: L2-HR :0.89303: (Sim:2h57m58s) 
CPU  1 inst:  129000000 cyc:  245514876 now IPC :1.84160: AVG IPC :0.51936: L2-Pf-HR :0.89027: L2-HR :0.88287: (Sim:2h58m1s) 
CPU  0 inst:  132000003 cyc:  245892576 now IPC :1.54251: AVG IPC :0.53081: L2-Pf-HR :0.90512: L2-HR :0.89781: (Sim:2h58m35s) 
CPU  2 inst:  133000005 cyc:  245940418 now IPC :1.79106: AVG IPC :0.53479: L2-Pf-HR :0.90696: L2-HR :0.89981: (Sim:2h58m39s) 
CPU  1 inst:  130000002 cyc:  246141518 now IPC :1.59581: AVG IPC :0.52211: L2-Pf-HR :0.89132: L2-HR :0.88407: (Sim:2h58m57s) 
CPU  3 inst:  131000004 cyc:  246154083 now IPC :1.49488: AVG IPC :0.52617: L2-Pf-HR :0.90175: L2-HR :0.89411: (Sim:2h58m58s) 
CPU  0 inst:  133000005 cyc:  246445689 now IPC :1.80795: AVG IPC :0.53369: L2-Pf-HR :0.90605: L2-HR :0.89889: (Sim:2h59m23s) 
CPU  2 inst:  134000001 cyc:  246527375 now IPC :1.70370: AVG IPC :0.53759: L2-Pf-HR :0.90789: L2-HR :0.90085: (Sim:2h59m30s) 
CPU  3 inst:  132000003 cyc:  246817508 now IPC :1.50733: AVG IPC :0.52882: L2-Pf-HR :0.90254: L2-HR :0.89507: (Sim:2h59m55s) 
CPU  1 inst:  131000004 cyc:  246821049 now IPC :1.47161: AVG IPC :0.52474: L2-Pf-HR :0.89242: L2-HR :0.88531: (Sim:2h59m56s) 
CPU  0 inst:  134000001 cyc:  247038975 now IPC :1.68552: AVG IPC :0.53647: L2-Pf-HR :0.90701: L2-HR :0.89997: (Sim:3h0m14s) 
CPU  2 inst:  135000003 cyc:  247205217 now IPC :1.47527: AVG IPC :0.54017: L2-Pf-HR :0.90867: L2-HR :0.90177: (Sim:3h0m29s) 
CPU  3 inst:  133000005 cyc:  247386667 now IPC :1.75698: AVG IPC :0.53165: L2-Pf-HR :0.90342: L2-HR :0.89610: (Sim:3h0m43s) 
CPU  1 inst:  132000003 cyc:  247490793 now IPC :1.49311: AVG IPC :0.52737: L2-Pf-HR :0.89338: L2-HR :0.88641: (Sim:3h0m53s) 
CPU  0 inst:  135000003 cyc:  247676569 now IPC :1.56840: AVG IPC :0.53914: L2-Pf-HR :0.90780: L2-HR :0.90089: (Sim:3h1m10s) 
CPU  2 inst:  136000002 cyc:  247877295 now IPC :1.48792: AVG IPC :0.54275: L2-Pf-HR :0.90933: L2-HR :0.90257: (Sim:3h1m27s) 
CPU  3 inst:  134000001 cyc:  247971976 now IPC :1.70849: AVG IPC :0.53444: L2-Pf-HR :0.90440: L2-HR :0.89719: (Sim:3h1m36s) 
CPU  1 inst:  133000005 cyc:  248029734 now IPC :1.85549: AVG IPC :0.53027: L2-Pf-HR :0.89442: L2-HR :0.88759: (Sim:3h1m41s) 
CPU  0 inst:  136000002 cyc:  248342538 now IPC :1.50157: AVG IPC :0.54173: L2-Pf-HR :0.90846: L2-HR :0.90169: (Sim:3h2m10s) 
CPU  2 inst:  137000001 cyc:  248400780 now IPC :1.91027: AVG IPC :0.54564: L2-Pf-HR :0.91039: L2-HR :0.90371: (Sim:3h2m15s) 
CPU  3 inst:  135000003 cyc:  248617120 now IPC :1.55004: AVG IPC :0.53709: L2-Pf-HR :0.90520: L2-HR :0.89813: (Sim:3h2m35s) 
CPU  1 inst:  134000001 cyc:  248621898 now IPC :1.68871: AVG IPC :0.53304: L2-Pf-HR :0.89541: L2-HR :0.88871: (Sim:3h2m35s) 
CPU  0 inst:  137000001 cyc:  248887933 now IPC :1.83353: AVG IPC :0.54457: L2-Pf-HR :0.90941: L2-HR :0.90275: (Sim:3h2m59s) 
CPU  2 inst:  138000002 cyc:  248933293 now IPC :1.87789: AVG IPC :0.54850: L2-Pf-HR :0.91131: L2-HR :0.90474: (Sim:3h3m3s) 
CPU  1 inst:  135000003 cyc:  249278977 now IPC :1.52189: AVG IPC :0.53565: L2-Pf-HR :0.89638: L2-HR :0.88980: (Sim:3h3m32s) 
CPU  3 inst:  136000002 cyc:  249307610 now IPC :1.44825: AVG IPC :0.53962: L2-Pf-HR :0.90590: L2-HR :0.89897: (Sim:3h3m34s) 
CPU  0 inst:  138000002 cyc:  249448643 now IPC :1.78345: AVG IPC :0.54736: L2-Pf-HR :0.91021: L2-HR :0.90368: (Sim:3h3m47s) 
CPU  2 inst:  139000002 cyc:  249624338 now IPC :1.44708: AVG IPC :0.55100: L2-Pf-HR :0.91194: L2-HR :0.90549: (Sim:3h4m2s) 
CPU  3 inst:  137000001 cyc:  249850911 now IPC :1.84060: AVG IPC :0.54246: L2-Pf-HR :0.90685: L2-HR :0.90003: (Sim:3h4m22s) 
CPU  1 inst:  136000002 cyc:  249950209 now IPC :1.48980: AVG IPC :0.53823: L2-Pf-HR :0.89720: L2-HR :0.89075: (Sim:3h4m29s) 
CPU  0 inst:  139000002 cyc:  250142763 now IPC :1.44067: AVG IPC :0.54985: L2-Pf-HR :0.91084: L2-HR :0.90443: (Sim:3h4m47s) 
CPU  2 inst:  140000004 cyc:  250312600 now IPC :1.45294: AVG IPC :0.55349: L2-Pf-HR :0.91255: L2-HR :0.90623: (Sim:3h5m2s) 
CPU  3 inst:  138000002 cyc:  250398926 now IPC :1.82477: AVG IPC :0.54528: L2-Pf-HR :0.90765: L2-HR :0.90097: (Sim:3h5m10s) 
CPU  1 inst:  137000001 cyc:  250494209 now IPC :1.83823: AVG IPC :0.54106: L2-Pf-HR :0.89834: L2-HR :0.89198: (Sim:3h5m18s) 
CPU  0 inst:  140000004 cyc:  250808895 now IPC :1.50121: AVG IPC :0.55239: L2-Pf-HR :0.91146: L2-HR :0.90518: (Sim:3h5m47s) 
CPU  2 inst:  141000004 cyc:  250872150 now IPC :1.78715: AVG IPC :0.55625: L2-Pf-HR :0.91327: L2-HR :0.90706: (Sim:3h5m53s) 
CPU  1 inst:  138000002 cyc:  251031554 now IPC :1.86100: AVG IPC :0.54390: L2-Pf-HR :0.89936: L2-HR :0.89311: (Sim:3h6m8s) 
CPU  3 inst:  139000002 cyc:  251058945 now IPC :1.51511: AVG IPC :0.54784: L2-Pf-HR :0.90829: L2-HR :0.90174: (Sim:3h6m11s) 
CPU  0 inst:  141000003 cyc:  251371505 now IPC :1.77743: AVG IPC :0.55514: L2-Pf-HR :0.91219: L2-HR :0.90603: (Sim:3h6m38s) 
CPU  2 inst:  142000000 cyc:  251410206 now IPC :1.85854: AVG IPC :0.55905: L2-Pf-HR :0.91395: L2-HR :0.90786: (Sim:3h6m42s) 
CPU  1 inst:  139000002 cyc:  251726206 now IPC :1.43957: AVG IPC :0.54638: L2-Pf-HR :0.90016: L2-HR :0.89402: (Sim:3h7m9s) 
CPU  3 inst:  140000001 cyc:  251755232 now IPC :1.43619: AVG IPC :0.55031: L2-Pf-HR :0.90896: L2-HR :0.90254: (Sim:3h7m11s) 
CPU  0 inst:  142000000 cyc:  251921245 now IPC :1.81904: AVG IPC :0.55791: L2-Pf-HR :0.91288: L2-HR :0.90684: (Sim:3h7m26s) 
CPU  2 inst:  143000000 cyc:  252057684 now IPC :1.54445: AVG IPC :0.56159: L2-Pf-HR :0.91450: L2-HR :0.90854: (Sim:3h7m38s) 
CPU  3 inst:  141000004 cyc:  252325420 now IPC :1.75381: AVG IPC :0.55304: L2-Pf-HR :0.90970: L2-HR :0.90341: (Sim:3h8m1s) 
CPU  1 inst:  140000005 cyc:  252396725 now IPC :1.49139: AVG IPC :0.54890: L2-Pf-HR :0.90095: L2-HR :0.89493: (Sim:3h8m6s) 
CPU  0 inst:  143000000 cyc:  252614178 now IPC :1.44314: AVG IPC :0.56035: L2-Pf-HR :0.91350: L2-HR :0.90757: (Sim:3h8m25s) 
CPU  2 inst:  144000005 cyc:  252765610 now IPC :1.41258: AVG IPC :0.56398: L2-Pf-HR :0.91508: L2-HR :0.90923: (Sim:3h8m39s) 
CPU  3 inst:  142000000 cyc:  252867253 now IPC :1.84558: AVG IPC :0.55582: L2-Pf-HR :0.91052: L2-HR :0.90433: (Sim:3h8m49s) 
CPU  1 inst:  141000004 cyc:  252961958 now IPC :1.76918: AVG IPC :0.55164: L2-Pf-HR :0.90181: L2-HR :0.89589: (Sim:3h8m57s) 
CPU  0 inst:  144000005 cyc:  253268581 now IPC :1.52812: AVG IPC :0.56286: L2-Pf-HR :0.91407: L2-HR :0.90826: (Sim:3h9m25s) 
CPU  2 inst:  145000004 cyc:  253336478 now IPC :1.75172: AVG IPC :0.56667: L2-Pf-HR :0.91575: L2-HR :0.91000: (Sim:3h9m31s) 
CPU  1 inst:  142000000 cyc:  253509985 now IPC :1.82472: AVG IPC :0.55440: L2-Pf-HR :0.90274: L2-HR :0.89692: (Sim:3h9m47s) 
CPU  3 inst:  143000000 cyc:  253511815 now IPC :1.55144: AVG IPC :0.55836: L2-Pf-HR :0.91116: L2-HR :0.90508: (Sim:3h9m47s) 
CPU  0 inst:  145000004 cyc:  253856255 now IPC :1.70162: AVG IPC :0.56551: L2-Pf-HR :0.91471: L2-HR :0.90899: (Sim:3h10m17s) 
CPU  2 inst:  146000004 cyc:  253877111 now IPC :1.84968: AVG IPC :0.56941: L2-Pf-HR :0.91639: L2-HR :0.91074: (Sim:3h10m20s) 
CPU  1 inst:  143000000 cyc:  254177164 now IPC :1.49885: AVG IPC :0.55689: L2-Pf-HR :0.90352: L2-HR :0.89780: (Sim:3h10m46s) 
CPU  3 inst:  144000005 cyc:  254196449 now IPC :1.46064: AVG IPC :0.56080: L2-Pf-HR :0.91177: L2-HR :0.90580: (Sim:3h10m48s) 
CPU  0 inst:  146000004 cyc:  254395375 now IPC :1.85487: AVG IPC :0.56825: L2-Pf-HR :0.91529: L2-HR :0.90970: (Sim:3h11m5s) 
CPU  2 inst:  147000000 cyc:  254510625 now IPC :1.57849: AVG IPC :0.57194: L2-Pf-HR :0.91694: L2-HR :0.91139: (Sim:3h11m15s) 
CPU  3 inst:  145000004 cyc:  254792779 now IPC :1.67692: AVG IPC :0.56342: L2-Pf-HR :0.91230: L2-HR :0.90647: (Sim:3h11m40s) 
CPU  1 inst:  144000005 cyc:  254826850 now IPC :1.53921: AVG IPC :0.55940: L2-Pf-HR :0.90423: L2-HR :0.89862: (Sim:3h11m43s) 
CPU  0 inst:  147000000 cyc:  255062828 now IPC :1.49823: AVG IPC :0.57069: L2-Pf-HR :0.91580: L2-HR :0.91032: (Sim:3h12m2s) 
CPU  2 inst:  148000004 cyc:  255213239 now IPC :1.42326: AVG IPC :0.57429: L2-Pf-HR :0.91743: L2-HR :0.91200: (Sim:3h12m15s) 
CPU  3 inst:  146000004 cyc:  255350979 now IPC :1.79147: AVG IPC :0.56612: L2-Pf-HR :0.91289: L2-HR :0.90717: (Sim:3h12m28s) 
CPU  1 inst:  145000004 cyc:  255447422 now IPC :1.61141: AVG IPC :0.56197: L2-Pf-HR :0.90491: L2-HR :0.89941: (Sim:3h12m37s) 
CPU  0 inst:  148000003 cyc:  255729251 now IPC :1.50055: AVG IPC :0.57313: L2-Pf-HR :0.91631: L2-HR :0.91094: (Sim:3h13m2s) 
CPU  2 inst:  149000001 cyc:  255801251 now IPC :1.70064: AVG IPC :0.57689: L2-Pf-HR :0.91791: L2-HR :0.91258: (Sim:3h13m9s) 
CPU  3 inst:  147000000 cyc:  255974510 now IPC :1.60376: AVG IPC :0.56865: L2-Pf-HR :0.91341: L2-HR :0.90781: (Sim:3h13m24s) 
CPU  1 inst:  146000004 cyc:  255993264 now IPC :1.83203: AVG IPC :0.56469: L2-Pf-HR :0.90562: L2-HR :0.90023: (Sim:3h13m26s) 
CPU  0 inst:  149000001 cyc:  256322412 now IPC :1.68588: AVG IPC :0.57571: L2-Pf-HR :0.91680: L2-HR :0.91153: (Sim:3h13m56s) 
CPU  2 inst:  150000000 cyc:  256342654 now IPC :1.84705: AVG IPC :0.57958: L2-Pf-HR :0.91847: L2-HR :0.91325: (Sim:3h13m58s) 
CPU  3 inst:  148000003 cyc:  256630964 now IPC :1.52334: AVG IPC :0.57110: L2-Pf-HR :0.91395: L2-HR :0.90845: (Sim:3h14m24s) 
CPU  1 inst:  147000000 cyc:  256632150 now IPC :1.56522: AVG IPC :0.56719: L2-Pf-HR :0.90625: L2-HR :0.90096: (Sim:3h14m24s) 
CPU  0 inst:  150000000 cyc:  256870065 now IPC :1.82597: AVG IPC :0.57839: L2-Pf-HR :0.91740: L2-HR :0.91223: (Sim:3h14m44s) 
CPU  2 inst:  151000005 cyc:  256981819 now IPC :1.56455: AVG IPC :0.58204: L2-Pf-HR :0.91889: L2-HR :0.91377: (Sim:3h14m54s) 
CPU  3 inst:  149000001 cyc:  257237703 now IPC :1.64815: AVG IPC :0.57365: L2-Pf-HR :0.91465: L2-HR :0.90924: (Sim:3h15m17s) 
CPU  1 inst:  148000004 cyc:  257277117 now IPC :1.55047: AVG IPC :0.56966: L2-Pf-HR :0.90689: L2-HR :0.90170: (Sim:3h15m21s) 
CPU  0 inst:  151000005 cyc:  257487157 now IPC :1.62051: AVG IPC :0.58089: L2-Pf-HR :0.91783: L2-HR :0.91278: (Sim:3h15m39s) 
CPU  2 inst:  152000003 cyc:  257654076 now IPC :1.48752: AVG IPC :0.58441: L2-Pf-HR :0.91936: L2-HR :0.91434: (Sim:3h15m53s) 
CPU  3 inst:  150000000 cyc:  257784679 now IPC :1.82823: AVG IPC :0.57633: L2-Pf-HR :0.91527: L2-HR :0.90995: (Sim:3h16m5s) 
CPU  1 inst:  149000001 cyc:  257888248 now IPC :1.63631: AVG IPC :0.57220: L2-Pf-HR :0.90767: L2-HR :0.90255: (Sim:3h16m14s) 
CPU  0 inst:  152000003 cyc:  258163962 now IPC :1.47753: AVG IPC :0.58325: L2-Pf-HR :0.91832: L2-HR :0.91335: (Sim:3h16m39s) 
CPU  2 inst:  153000002 cyc:  258252691 now IPC :1.67052: AVG IPC :0.58694: L2-Pf-HR :0.91995: L2-HR :0.91501: (Sim:3h16m47s) 
CPU  3 inst:  151000001 cyc:  258405472 now IPC :1.61084: AVG IPC :0.57882: L2-Pf-HR :0.91581: L2-HR :0.91059: (Sim:3h17m1s) 
CPU  1 inst:  150000000 cyc:  258425147 now IPC :1.86255: AVG IPC :0.57489: L2-Pf-HR :0.90834: L2-HR :0.90332: (Sim:3h17m3s) 
CPU  0 inst:  153000002 cyc:  258764992 now IPC :1.66381: AVG IPC :0.58577: L2-Pf-HR :0.91890: L2-HR :0.91402: (Sim:3h17m34s) 
CPU  2 inst:  154000003 cyc:  258785445 now IPC :1.87704: AVG IPC :0.58960: L2-Pf-HR :0.92064: L2-HR :0.91576: (Sim:3h17m36s) 
CPU  1 inst:  151000001 cyc:  259067552 now IPC :1.55665: AVG IPC :0.57733: L2-Pf-HR :0.90907: L2-HR :0.90412: (Sim:3h18m0s) 
CPU  3 inst:  152000003 cyc:  259082537 now IPC :1.47697: AVG IPC :0.58118: L2-Pf-HR :0.91630: L2-HR :0.91118: (Sim:3h18m1s) 
CPU  0 inst:  154000003 cyc:  259317807 now IPC :1.80893: AVG IPC :0.58839: L2-Pf-HR :0.91953: L2-HR :0.91472: (Sim:3h18m22s) 
CPU  2 inst:  155000003 cyc:  259404798 now IPC :1.61459: AVG IPC :0.59206: L2-Pf-HR :0.92100: L2-HR :0.91623: (Sim:3h18m30s) 
CPU  3 inst:  153000002 cyc:  259712726 now IPC :1.58682: AVG IPC :0.58363: L2-Pf-HR :0.91683: L2-HR :0.91180: (Sim:3h18m57s) 
[...]
Core_3_L1I_writebacks 0
Core_3_L1I_writeback_hit 0
Core_3_L1I_writeback_miss 0

Core_3_L2C_total_access 20782065
Core_3_L2C_total_hit 19083746
Core_3_L2C_total_miss 1698319
Core_3_L2C_loads 4001611
Core_3_L2C_load_hit 3684176
Core_3_L2C_load_miss 317435
Core_3_L2C_RFOs 239882
Core_3_L2C_RFO_hit 67368
Core_3_L2C_RFO_miss 172514
Core_3_L2C_prefetches 15538631
Core_3_L2C_prefetch_hit 14331267
Core_3_L2C_prefetch_miss 1207364
Core_3_L2C_writebacks 1001941
Core_3_L2C_writeback_hit 1000935
Core_3_L2C_writeback_miss 1006

CPU 3 L1D next line prefetcher final stats
CPU 3 L2C PC-based stride prefetcher final stats
Stride Degree: 15
MK1  MARKOV_LRU_SIZE: 128
MK1  MARKOV_PREDICTION_PERCENTTHRESHOLD: 40.00000
MK1  OUTLIERS_THRESHOLD_Max: 64
MK1  OUTLIERS_THRESHOLD_Min: 32
MK2  MARKOV_LRU_SIZE: 256
MK2  MARKOV_PREDICTION_PERCENTTHRESHOLD: 30.00000
MK2  OUTLIERS_THRESHOLD_Max: 32
MK2  OUTLIERS_THRESHOLD_Min: 16
MK3  MARKOV_LRU_SIZE: 384
MK3  MARKOV_PREDICTION_PERCENTTHRESHOLD: 25.00000
MK3  OUTLIERS_THRESHOLD_Max: 16
MK3  OUTLIERS_THRESHOLD_Min: 8
MK4  MARKOV_LRU_SIZE: 512
MK4  MARKOV_PREDICTION_PERCENTTHRESHOLD: 20.00000
MK4  OUTLIERS_THRESHOLD_Max: 8
MK4  OUTLIERS_THRESHOLD_Min: 0
IPStride Degree/Access Ratio: 2.28978
MK1 IPDEltaMarkov  Degree/Access Ratio: 0.50450
MK2 IPDEltaMarkov  Degree/Access Ratio: 0.78118
MK3 IPDEltaMarkov  Degree/Access Ratio: 0.77318
MK4 IPDEltaMarkov  Degree/Access Ratio: 1.42028
Core_3_LLC_total_access 2612631
Core_3_LLC_total_hit 1162665
Core_3_LLC_total_miss 1449966
Core_3_LLC_loads 161111
Core_3_LLC_load_hit 45405
Core_3_LLC_load_miss 115706
Core_3_LLC_RFOs 172514
Core_3_LLC_RFO_hit 23
Core_3_LLC_RFO_miss 172491
Core_3_LLC_prefetches 1413843
Core_3_LLC_prefetch_hit 264744
Core_3_LLC_prefetch_miss 1149099
Core_3_LLC_writebacks 865163
Core_3_LLC_writeback_hit 852493
Core_3_LLC_writeback_miss 12670


[ROI Statistics]
Core_0_instructions 162000004
Core_0_cycles 264671980
Core_0_IPC 0.61208

Core_0_branch_prediction_accuracy 99.21133
Core_0_branch_MPKI 0.23147
Core_0_average_ROB_occupancy_at_mispredict 452.45754

Core_0_L1D_total_access 100541876
Core_0_L1D_total_hit 92297543 L1D_total_Hit Ratio: 0.91800
Core_0_L1D_total_miss 8244333
Core_0_L1D_loads 40394841
Core_0_L1D_load_hit 36252203 L1D_load_Hit Ratio: 0.89745
Core_0_L1D_load_miss 4142638
Core_0_L1D_RFOs 4376052
Core_0_L1D_RFO_hit 4136193 L1D_RFO_Hit Ratio: 0.94519
Core_0_L1D_RFO_miss 239859
Core_0_L1D_prefetches 55770983
Core_0_L1D_prefetch_hit 51909147 L1D_prefetch_Hit Ratio: 0.93076
Core_0_L1D_prefetch_miss 3861836
Core_0_L1D_writebacks 0
Core_0_L1D_writeback_hit 0 L1D_writeback_Hit Ratio: -nan
Core_0_L1D_writeback_miss 0
Core_0_L1D_prefetch_requested 128494386
Core_0_L1D_prefetch_issued 65679781
Core_0_L1D_prefetch_useful 1893581 L1D_Useful Ratio: 0.02883
Core_0_L1D_prefetch_useless 2112341
Core_0_L1D_prefetch_late 195999
Core_0_L1D_average_miss_latency 2338599.76614

Core_0_L1I_total_access 22904675
Core_0_L1I_total_hit 22899644 L1I_total_Hit Ratio: 0.99978
Core_0_L1I_total_miss 5031
Core_0_L1I_loads 22904675
Core_0_L1I_load_hit 22899644 L1I_load_Hit Ratio: 0.99978
Core_0_L1I_load_miss 5031
Core_0_L1I_RFOs 0
Core_0_L1I_RFO_hit 0 L1I_RFO_Hit Ratio: -nan
Core_0_L1I_RFO_miss 0
Core_0_L1I_prefetches 0
Core_0_L1I_prefetch_hit 0 L1I_prefetch_Hit Ratio: -nan
Core_0_L1I_prefetch_miss 0
Core_0_L1I_writebacks 0
Core_0_L1I_writeback_hit 0 L1I_writeback_Hit Ratio: -nan
Core_0_L1I_writeback_miss 0
Core_0_L1I_prefetch_requested 0
Core_0_L1I_prefetch_issued 0
Core_0_L1I_prefetch_useful 0 L1I_Useful Ratio: -nan
Core_0_L1I_prefetch_useless 0
Core_0_L1I_prefetch_late 0
Core_0_L1I_average_miss_latency 1292.17571

Core_0_L2C_total_access 20472637
Core_0_L2C_total_hit 18832914 L2C_total_Hit Ratio: 0.91991
Core_0_L2C_total_miss 1639723
Core_0_L2C_loads 3954302
Core_0_L2C_load_hit 3649865 L2C_load_Hit Ratio: 0.92301
Core_0_L2C_load_miss 304437
Core_0_L2C_RFOs 239852
Core_0_L2C_RFO_hit 67289 L2C_RFO_Hit Ratio: 0.28054
Core_0_L2C_RFO_miss 172563
Core_0_L2C_prefetches 15277625
Core_0_L2C_prefetch_hit 14115006 L2C_prefetch_Hit Ratio: 0.92390
Core_0_L2C_prefetch_miss 1162619
Core_0_L2C_writebacks 1000858
Core_0_L2C_writeback_hit 1000754 L2C_writeback_Hit Ratio: 0.99990
Core_0_L2C_writeback_miss 104
Core_0_L2C_prefetch_requested 45880004
Core_0_L2C_prefetch_issued 18140635
Core_0_L2C_prefetch_useful 384510 L2C_Useful Ratio: 0.02120
Core_0_L2C_prefetch_useless 800524
Core_0_L2C_prefetch_late 155242
Core_0_L2C_average_miss_latency 1101.21329

Core_0_LLC_total_access 2543721
Core_0_LLC_total_hit 1099972 LLC_total_Hit Ratio: 0.43243
Core_0_LLC_total_miss 1443749
Core_0_LLC_loads 149439
Core_0_LLC_load_hit 34466 LLC_load_Hit Ratio: 0.23064
Core_0_LLC_load_miss 114973
Core_0_LLC_RFOs 172563
Core_0_LLC_RFO_hit 52 LLC_RFO_Hit Ratio: 0.00030
Core_0_LLC_RFO_miss 172511
Core_0_LLC_prefetches 1368664
Core_0_LLC_prefetch_hit 226492 LLC_prefetch_Hit Ratio: 0.16548
Core_0_LLC_prefetch_miss 1142172
Core_0_LLC_writebacks 853055
Core_0_LLC_writeback_hit 838962 LLC_writeback_Hit Ratio: 0.98348
Core_0_LLC_writeback_miss 14093
Core_0_LLC_prefetch_requested 0
Core_0_LLC_prefetch_issued 0
Core_0_LLC_prefetch_useful 128259 LLC_Useful Ratio: inf
Core_0_LLC_prefetch_useless 4369603
Core_0_LLC_prefetch_late 34391
Core_0_LLC_average_miss_latency 4833.11125

Core_0_major_page_fault 0
Core_0_minor_page_fault 11231

Core_1_instructions 162000001
Core_1_cycles 266248170
Core_1_IPC 0.60845

Core_1_branch_prediction_accuracy 99.21038
Core_1_branch_MPKI 0.23475
Core_1_average_ROB_occupancy_at_mispredict 452.61805

Core_1_L1D_total_access 100536771
Core_1_L1D_total_hit 92286908 L1D_total_Hit Ratio: 0.91794
Core_1_L1D_total_miss 8249863
Core_1_L1D_loads 40397638
Core_1_L1D_load_hit 36250355 L1D_load_Hit Ratio: 0.89734
Core_1_L1D_load_miss 4147283
Core_1_L1D_RFOs 4375217
Core_1_L1D_RFO_hit 4135350 L1D_RFO_Hit Ratio: 0.94518
Core_1_L1D_RFO_miss 239867
Core_1_L1D_prefetches 55763916
Core_1_L1D_prefetch_hit 51901203 L1D_prefetch_Hit Ratio: 0.93073
Core_1_L1D_prefetch_miss 3862713
Core_1_L1D_writebacks 0
Core_1_L1D_writeback_hit 0 L1D_writeback_Hit Ratio: -nan
Core_1_L1D_writeback_miss 0
Core_1_L1D_prefetch_requested 126204468
Core_1_L1D_prefetch_issued 65014238
Core_1_L1D_prefetch_useful 1837644 L1D_Useful Ratio: 0.02827
Core_1_L1D_prefetch_useless 2046080
Core_1_L1D_prefetch_late 200247
Core_1_L1D_average_miss_latency 2375023.69792

Core_1_L1I_total_access 22887146
Core_1_L1I_total_hit 22882126 L1I_total_Hit Ratio: 0.99978
Core_1_L1I_total_miss 5020
Core_1_L1I_loads 22887146
Core_1_L1I_load_hit 22882126 L1I_load_Hit Ratio: 0.99978
Core_1_L1I_load_miss 5020
Core_1_L1I_RFOs 0
Core_1_L1I_RFO_hit 0 L1I_RFO_Hit Ratio: -nan
Core_1_L1I_RFO_miss 0
Core_1_L1I_prefetches 0
Core_1_L1I_prefetch_hit 0 L1I_prefetch_Hit Ratio: -nan
Core_1_L1I_prefetch_miss 0
Core_1_L1I_writebacks 0
Core_1_L1I_writeback_hit 0 L1I_writeback_Hit Ratio: -nan
Core_1_L1I_writeback_miss 0
Core_1_L1I_prefetch_requested 0
Core_1_L1I_prefetch_issued 0
Core_1_L1I_prefetch_useful 0 L1I_Useful Ratio: -nan
Core_1_L1I_prefetch_useless 0
Core_1_L1I_prefetch_late 0
Core_1_L1I_average_miss_latency 1447.99761

Core_1_L2C_total_access 20470983
Core_1_L2C_total_hit 18673261 L2C_total_Hit Ratio: 0.91218
Core_1_L2C_total_miss 1797722
Core_1_L2C_loads 3953276
Core_1_L2C_load_hit 3610741 L2C_load_Hit Ratio: 0.91335
Core_1_L2C_load_miss 342535
Core_1_L2C_RFOs 239857
Core_1_L2C_RFO_hit 67234 L2C_RFO_Hit Ratio: 0.28031
Core_1_L2C_RFO_miss 172623
Core_1_L2C_prefetches 15276997
Core_1_L2C_prefetch_hit 13994800 L2C_prefetch_Hit Ratio: 0.91607
Core_1_L2C_prefetch_miss 1282197
Core_1_L2C_writebacks 1000853
Core_1_L2C_writeback_hit 1000486 L2C_writeback_Hit Ratio: 0.99963
Core_1_L2C_writeback_miss 367
Core_1_L2C_prefetch_requested 42952762
Core_1_L2C_prefetch_issued 17851667
Core_1_L2C_prefetch_useful 411986 L2C_Useful Ratio: 0.02308
Core_1_L2C_prefetch_useless 877257
Core_1_L2C_prefetch_late 162679
Core_1_L2C_average_miss_latency 977.86777

Core_1_LLC_total_access 2726540
Core_1_LLC_total_hit 1283736 LLC_total_Hit Ratio: 0.47083
Core_1_LLC_total_miss 1442804
Core_1_LLC_loads 179935
Core_1_LLC_load_hit 66359 LLC_load_Hit Ratio: 0.36879
Core_1_LLC_load_miss 113576
Core_1_LLC_RFOs 172621
Core_1_LLC_RFO_hit 47 LLC_RFO_Hit Ratio: 0.00027
Core_1_LLC_RFO_miss 172574
Core_1_LLC_prefetches 1493495
Core_1_LLC_prefetch_hit 350033 LLC_prefetch_Hit Ratio: 0.23437
Core_1_LLC_prefetch_miss 1143462
Core_1_LLC_writebacks 880489
Core_1_LLC_writeback_hit 867297 LLC_writeback_Hit Ratio: 0.98502
Core_1_LLC_writeback_miss 13192
Core_1_LLC_prefetch_requested 0
Core_1_LLC_prefetch_issued 0
Core_1_LLC_prefetch_useful 128259 LLC_Useful Ratio: inf
Core_1_LLC_prefetch_useless 4369603
Core_1_LLC_prefetch_late 34391
Core_1_LLC_average_miss_latency 4836.27682

Core_1_major_page_fault 0
Core_1_minor_page_fault 11197

Core_2_instructions 162000003
Core_2_cycles 264107306
Core_2_IPC 0.61339

Core_2_branch_prediction_accuracy 99.20896
Core_2_branch_MPKI 0.23135
Core_2_average_ROB_occupancy_at_mispredict 451.18019

Core_2_L1D_total_access 100523992
Core_2_L1D_total_hit 92279307 L1D_total_Hit Ratio: 0.91798
Core_2_L1D_total_miss 8244685
Core_2_L1D_loads 40392433
Core_2_L1D_load_hit 36248720 L1D_load_Hit Ratio: 0.89741
Core_2_L1D_load_miss 4143713
Core_2_L1D_RFOs 4375052
Core_2_L1D_RFO_hit 4135150 L1D_RFO_Hit Ratio: 0.94517
Core_2_L1D_RFO_miss 239902
Core_2_L1D_prefetches 55756507
Core_2_L1D_prefetch_hit 51895437 L1D_prefetch_Hit Ratio: 0.93075
Core_2_L1D_prefetch_miss 3861070
Core_2_L1D_writebacks 0
Core_2_L1D_writeback_hit 0 L1D_writeback_Hit Ratio: -nan
Core_2_L1D_writeback_miss 0
Core_2_L1D_prefetch_requested 128989278
Core_2_L1D_prefetch_issued 65839540
Core_2_L1D_prefetch_useful 1904204 L1D_Useful Ratio: 0.02892
Core_2_L1D_prefetch_useless 2130421
Core_2_L1D_prefetch_late 197437
Core_2_L1D_average_miss_latency 2350476.36290

Core_2_L1I_total_access 22899173
Core_2_L1I_total_hit 22894146 L1I_total_Hit Ratio: 0.99978
Core_2_L1I_total_miss 5027
Core_2_L1I_loads 22899173
Core_2_L1I_load_hit 22894146 L1I_load_Hit Ratio: 0.99978
Core_2_L1I_load_miss 5027
Core_2_L1I_RFOs 0
Core_2_L1I_RFO_hit 0 L1I_RFO_Hit Ratio: -nan
Core_2_L1I_RFO_miss 0
Core_2_L1I_prefetches 0
Core_2_L1I_prefetch_hit 0 L1I_prefetch_Hit Ratio: -nan
Core_2_L1I_prefetch_miss 0
Core_2_L1I_writebacks 0
Core_2_L1I_writeback_hit 0 L1I_writeback_Hit Ratio: -nan
Core_2_L1I_writeback_miss 0
Core_2_L1I_prefetch_requested 0
Core_2_L1I_prefetch_issued 0
Core_2_L1I_prefetch_useful 0 L1I_Useful Ratio: -nan
Core_2_L1I_prefetch_useless 0
Core_2_L1I_prefetch_late 0
Core_2_L1I_average_miss_latency 1622.13527

Core_2_L2C_total_access 20427521
Core_2_L2C_total_hit 18811818 L2C_total_Hit Ratio: 0.92091
Core_2_L2C_total_miss 1615703
Core_2_L2C_loads 3954453
Core_2_L2C_load_hit 3654346 L2C_load_Hit Ratio: 0.92411
Core_2_L2C_load_miss 300107
Core_2_L2C_RFOs 239898
Core_2_L2C_RFO_hit 67138 L2C_RFO_Hit Ratio: 0.27986
Core_2_L2C_RFO_miss 172760
Core_2_L2C_prefetches 15232312
Core_2_L2C_prefetch_hit 14089577 L2C_prefetch_Hit Ratio: 0.92498
Core_2_L2C_prefetch_miss 1142735
Core_2_L2C_writebacks 1000858
Core_2_L2C_writeback_hit 1000757 L2C_writeback_Hit Ratio: 0.99990
Core_2_L2C_writeback_miss 101
Core_2_L2C_prefetch_requested 44899221
Core_2_L2C_prefetch_issued 18231757
Core_2_L2C_prefetch_useful 383227 L2C_Useful Ratio: 0.02102
Core_2_L2C_prefetch_useless 785492
Core_2_L2C_prefetch_late 155478
Core_2_L2C_average_miss_latency 1122.94447

Core_2_LLC_total_access 2514757
Core_2_LLC_total_hit 1070887 LLC_total_Hit Ratio: 0.42584
Core_2_LLC_total_miss 1443870
Core_2_LLC_loads 144899
Core_2_LLC_load_hit 30590 LLC_load_Hit Ratio: 0.21111
Core_2_LLC_load_miss 114309
Core_2_LLC_RFOs 172759
Core_2_LLC_RFO_hit 50 LLC_RFO_Hit Ratio: 0.00029
Core_2_LLC_RFO_miss 172709
Core_2_LLC_prefetches 1348338
Core_2_LLC_prefetch_hit 206144 LLC_prefetch_Hit Ratio: 0.15289
Core_2_LLC_prefetch_miss 1142194
Core_2_LLC_writebacks 848761
Core_2_LLC_writeback_hit 834103 LLC_writeback_Hit Ratio: 0.98273
Core_2_LLC_writeback_miss 14658
Core_2_LLC_prefetch_requested 0
Core_2_LLC_prefetch_issued 0
Core_2_LLC_prefetch_useful 128259 LLC_Useful Ratio: inf
Core_2_LLC_prefetch_useless 4369603
Core_2_LLC_prefetch_late 34391
Core_2_LLC_average_miss_latency 4832.70622

Core_2_major_page_fault 0
Core_2_minor_page_fault 11304

Core_3_instructions 162000005
Core_3_cycles 265578042
Core_3_IPC 0.60999

Core_3_branch_prediction_accuracy 99.21072
Core_3_branch_MPKI 0.23349
Core_3_average_ROB_occupancy_at_mispredict 452.50498

Core_3_L1D_total_access 100570650
Core_3_L1D_total_hit 92323034 L1D_total_Hit Ratio: 0.91799
Core_3_L1D_total_miss 8247616
Core_3_L1D_loads 40402625
Core_3_L1D_load_hit 36261487 L1D_load_Hit Ratio: 0.89750
Core_3_L1D_load_miss 4141138
Core_3_L1D_RFOs 4375357
Core_3_L1D_RFO_hit 4135639 L1D_RFO_Hit Ratio: 0.94521
Core_3_L1D_RFO_miss 239718
Core_3_L1D_prefetches 55792668
Core_3_L1D_prefetch_hit 51925908 L1D_prefetch_Hit Ratio: 0.93069
Core_3_L1D_prefetch_miss 3866760
Core_3_L1D_writebacks 0
Core_3_L1D_writeback_hit 0 L1D_writeback_Hit Ratio: -nan
Core_3_L1D_writeback_miss 0
Core_3_L1D_prefetch_requested 127100463
Core_3_L1D_prefetch_issued 65261831
Core_3_L1D_prefetch_useful 1863254 L1D_Useful Ratio: 0.02855
Core_3_L1D_prefetch_useless 2069941
Core_3_L1D_prefetch_late 194730
Core_3_L1D_average_miss_latency 2325957.67519

Core_3_L1I_total_access 22893142
Core_3_L1I_total_hit 22888125 L1I_total_Hit Ratio: 0.99978
Core_3_L1I_total_miss 5017
Core_3_L1I_loads 22893142
Core_3_L1I_load_hit 22888125 L1I_load_Hit Ratio: 0.99978
Core_3_L1I_load_miss 5017
Core_3_L1I_RFOs 0
Core_3_L1I_RFO_hit 0 L1I_RFO_Hit Ratio: -nan
Core_3_L1I_RFO_miss 0
Core_3_L1I_prefetches 0
Core_3_L1I_prefetch_hit 0 L1I_prefetch_Hit Ratio: -nan
Core_3_L1I_prefetch_miss 0
Core_3_L1I_writebacks 0
Core_3_L1I_writeback_hit 0 L1I_writeback_Hit Ratio: -nan
Core_3_L1I_writeback_miss 0
Core_3_L1I_prefetch_requested 0
Core_3_L1I_prefetch_issued 0
Core_3_L1I_prefetch_useful 0 L1I_Useful Ratio: -nan
Core_3_L1I_prefetch_useless 0
Core_3_L1I_prefetch_late 0
Core_3_L1I_average_miss_latency 1494.01894

Core_3_L2C_total_access 20565549
Core_3_L2C_total_hit 18874949 L2C_total_Hit Ratio: 0.91779
Core_3_L2C_total_miss 1690600
Core_3_L2C_loads 3953634
Core_3_L2C_load_hit 3637171 L2C_load_Hit Ratio: 0.91996
Core_3_L2C_load_miss 316463
Core_3_L2C_RFOs 239708
Core_3_L2C_RFO_hit 67194 L2C_RFO_Hit Ratio: 0.28032
Core_3_L2C_RFO_miss 172514
Core_3_L2C_prefetches 15371349
Core_3_L2C_prefetch_hit 14170732 L2C_prefetch_Hit Ratio: 0.92189
Core_3_L2C_prefetch_miss 1200617
Core_3_L2C_writebacks 1000858
Core_3_L2C_writeback_hit 999852 L2C_writeback_Hit Ratio: 0.99899
Core_3_L2C_writeback_miss 1006
Core_3_L2C_prefetch_requested 45615711
Core_3_L2C_prefetch_issued 17975803
Core_3_L2C_prefetch_useful 390200 L2C_Useful Ratio: 0.02171
Core_3_L2C_prefetch_useless 819591
Core_3_L2C_prefetch_late 156410
Core_3_L2C_average_miss_latency 1053.02328

Core_3_LLC_total_access 2604462
Core_3_LLC_total_hit 1162291 LLC_total_Hit Ratio: 0.44627
Core_3_LLC_total_miss 1442171
Core_3_LLC_loads 160172
Core_3_LLC_load_hit 45403 LLC_load_Hit Ratio: 0.28346
Core_3_LLC_load_miss 114769
Core_3_LLC_RFOs 172514
Core_3_LLC_RFO_hit 23 LLC_RFO_Hit Ratio: 0.00013
Core_3_LLC_RFO_miss 172491
Core_3_LLC_prefetches 1407047
Core_3_LLC_prefetch_hit 264728 LLC_prefetch_Hit Ratio: 0.18814
Core_3_LLC_prefetch_miss 1142319
Core_3_LLC_writebacks 864729
Core_3_LLC_writeback_hit 852137 LLC_writeback_Hit Ratio: 0.98544
Core_3_LLC_writeback_miss 12592
Core_3_LLC_prefetch_requested 0
Core_3_LLC_prefetch_issued 0
Core_3_LLC_prefetch_useful 128259 LLC_Useful Ratio: inf
Core_3_LLC_prefetch_useless 4369603
Core_3_LLC_prefetch_late 34391
Core_3_LLC_average_miss_latency 4838.39956

Core_3_major_page_fault 0
Core_3_minor_page_fault 11212

CPU 0 L1D next line prefetcher final stats
CPU 0 L2C PC-based stride prefetcher final stats
Stride Degree: 15
MK1  MARKOV_LRU_SIZE: 128
MK1  MARKOV_PREDICTION_PERCENTTHRESHOLD: 40.00000
MK1  OUTLIERS_THRESHOLD_Max: 64
MK1  OUTLIERS_THRESHOLD_Min: 32
MK2  MARKOV_LRU_SIZE: 256
MK2  MARKOV_PREDICTION_PERCENTTHRESHOLD: 30.00000
MK2  OUTLIERS_THRESHOLD_Max: 32
MK2  OUTLIERS_THRESHOLD_Min: 16
MK3  MARKOV_LRU_SIZE: 384
MK3  MARKOV_PREDICTION_PERCENTTHRESHOLD: 25.00000
MK3  OUTLIERS_THRESHOLD_Max: 16
MK3  OUTLIERS_THRESHOLD_Min: 8
MK4  MARKOV_LRU_SIZE: 512
MK4  MARKOV_PREDICTION_PERCENTTHRESHOLD: 20.00000
MK4  OUTLIERS_THRESHOLD_Max: 8
MK4  OUTLIERS_THRESHOLD_Min: 0
IPStride Degree/Access Ratio: 2.28978
MK1 IPDEltaMarkov  Degree/Access Ratio: 0.50450
MK2 IPDEltaMarkov  Degree/Access Ratio: 0.78118
MK3 IPDEltaMarkov  Degree/Access Ratio: 0.77318
MK4 IPDEltaMarkov  Degree/Access Ratio: 1.42028
CPU 1 L1D next line prefetcher final stats
CPU 1 L2C PC-based stride prefetcher final stats
Stride Degree: 15
MK1  MARKOV_LRU_SIZE: 128
MK1  MARKOV_PREDICTION_PERCENTTHRESHOLD: 40.00000
MK1  OUTLIERS_THRESHOLD_Max: 64
MK1  OUTLIERS_THRESHOLD_Min: 32
MK2  MARKOV_LRU_SIZE: 256
MK2  MARKOV_PREDICTION_PERCENTTHRESHOLD: 30.00000
MK2  OUTLIERS_THRESHOLD_Max: 32
MK2  OUTLIERS_THRESHOLD_Min: 16
MK3  MARKOV_LRU_SIZE: 384
MK3  MARKOV_PREDICTION_PERCENTTHRESHOLD: 25.00000
MK3  OUTLIERS_THRESHOLD_Max: 16
MK3  OUTLIERS_THRESHOLD_Min: 8
MK4  MARKOV_LRU_SIZE: 512
MK4  MARKOV_PREDICTION_PERCENTTHRESHOLD: 20.00000
MK4  OUTLIERS_THRESHOLD_Max: 8
MK4  OUTLIERS_THRESHOLD_Min: 0
IPStride Degree/Access Ratio: 2.28978
MK1 IPDEltaMarkov  Degree/Access Ratio: 0.50450
MK2 IPDEltaMarkov  Degree/Access Ratio: 0.78118
MK3 IPDEltaMarkov  Degree/Access Ratio: 0.77318
MK4 IPDEltaMarkov  Degree/Access Ratio: 1.42028
CPU 2 L1D next line prefetcher final stats
CPU 2 L2C PC-based stride prefetcher final stats
Stride Degree: 15
MK1  MARKOV_LRU_SIZE: 128
MK1  MARKOV_PREDICTION_PERCENTTHRESHOLD: 40.00000
MK1  OUTLIERS_THRESHOLD_Max: 64
MK1  OUTLIERS_THRESHOLD_Min: 32
MK2  MARKOV_LRU_SIZE: 256
MK2  MARKOV_PREDICTION_PERCENTTHRESHOLD: 30.00000
MK2  OUTLIERS_THRESHOLD_Max: 32
MK2  OUTLIERS_THRESHOLD_Min: 16
MK3  MARKOV_LRU_SIZE: 384
MK3  MARKOV_PREDICTION_PERCENTTHRESHOLD: 25.00000
MK3  OUTLIERS_THRESHOLD_Max: 16
MK3  OUTLIERS_THRESHOLD_Min: 8
MK4  MARKOV_LRU_SIZE: 512
MK4  MARKOV_PREDICTION_PERCENTTHRESHOLD: 20.00000
MK4  OUTLIERS_THRESHOLD_Max: 8
MK4  OUTLIERS_THRESHOLD_Min: 0
IPStride Degree/Access Ratio: 2.28978
MK1 IPDEltaMarkov  Degree/Access Ratio: 0.50450
MK2 IPDEltaMarkov  Degree/Access Ratio: 0.78118
MK3 IPDEltaMarkov  Degree/Access Ratio: 0.77318
MK4 IPDEltaMarkov  Degree/Access Ratio: 1.42028
CPU 3 L1D next line prefetcher final stats
CPU 3 L2C PC-based stride prefetcher final stats
Stride Degree: 15
MK1  MARKOV_LRU_SIZE: 128
MK1  MARKOV_PREDICTION_PERCENTTHRESHOLD: 40.00000
MK1  OUTLIERS_THRESHOLD_Max: 64
MK1  OUTLIERS_THRESHOLD_Min: 32
MK2  MARKOV_LRU_SIZE: 256
MK2  MARKOV_PREDICTION_PERCENTTHRESHOLD: 30.00000
MK2  OUTLIERS_THRESHOLD_Max: 32
MK2  OUTLIERS_THRESHOLD_Min: 16
MK3  MARKOV_LRU_SIZE: 384
MK3  MARKOV_PREDICTION_PERCENTTHRESHOLD: 25.00000
MK3  OUTLIERS_THRESHOLD_Max: 16
MK3  OUTLIERS_THRESHOLD_Min: 8
MK4  MARKOV_LRU_SIZE: 512
MK4  MARKOV_PREDICTION_PERCENTTHRESHOLD: 20.00000
MK4  OUTLIERS_THRESHOLD_Max: 8
MK4  OUTLIERS_THRESHOLD_Min: 0
IPStride Degree/Access Ratio: 2.28978
MK1 IPDEltaMarkov  Degree/Access Ratio: 0.50450
MK2 IPDEltaMarkov  Degree/Access Ratio: 0.78118
MK3 IPDEltaMarkov  Degree/Access Ratio: 0.77318
MK4 IPDEltaMarkov  Degree/Access Ratio: 1.42028
Channel_0_RQ_row_buffer_hit 2326447
Channel_0_RQ_row_buffer_miss 3425874
Channel_0_WQ_row_buffer_hit 1104643
Channel_0_WQ_row_buffer_miss 2180213
Channel_0_WQ_full 3445
Channel_0_dbus_congested 6946162

avg_congested_cycle 11

EzSearch AVG IPC :0.61208: L2-Pf-HR :0.92390 : L2-HR :0.92103 Uful:0.02120
EzSearch AVG IPC :0.60845: L2-Pf-HR :0.91607 : L2-HR :0.91218 Uful:0.02308
EzSearch AVG IPC :0.61339: L2-Pf-HR :0.92498 : L2-HR :0.92228 Uful:0.02102
EzSearch AVG IPC :0.60999: L2-Pf-HR :0.92189 : L2-HR :0.91828 Uful:0.02171
     > Finished combination: TraceType=770-tot Sim:162000000 Prefetcher=L2029-SecTOP-L2-MultiMarkovDelta_ip_stride_v4-IPStrS256 L1=next_line
