TRACE: [151000000]_FE_[OPT-6_7B]_[h32]_[s256]_[d128] Warmup: 2000000 NumTraces: 151000000
L1:bingo_dpc3:L2:bingo_dpc3
*************************************************
   ChampSim Multicore Out-of-Order Simulator
   Last compiled: Oct 28 2024 10:28:44
*************************************************

trace_0 770-tot_memTraces_v3/memTraces[151000000]_FE_[OPT-6_7B]_[h32]_[s256]_[d128].champsim.xz
trace_1 770-tot_memTraces_v3/memTraces[151000000]_FE_[OPT-6_7B]_[h32]_[s256]_[d128].champsim.xz
trace_2 770-tot_memTraces_v3/memTraces[151000000]_FE_[OPT-6_7B]_[h32]_[s256]_[d128].champsim.xz
trace_3 770-tot_memTraces_v3/memTraces[151000000]_FE_[OPT-6_7B]_[h32]_[s256]_[d128].champsim.xz
Bingo PHT WAYS: 16 and PHT_SIZE: 16384
Bingo2 PHT WAYS: 16 and PHT_SIZE: 16384
Bingo PHT WAYS: 16 and PHT_SIZE: 16384
Bingo2 PHT WAYS: 16 and PHT_SIZE: 16384
Bingo PHT WAYS: 16 and PHT_SIZE: 16384
Bingo2 PHT WAYS: 16 and PHT_SIZE: 16384
Bingo PHT WAYS: 16 and PHT_SIZE: 16384
Bingo2 PHT WAYS: 16 and PHT_SIZE: 16384
MAIN.cc ln 751 stats print skipped
CPU  2 inst:    1000000 cyc:     501182 now IPC :1.99528: AVG IPC :1.99528: L2-Pf-HR :0.77886: L2-HR :0.64531: (Sim:0h1m42s) 
CPU  0 inst:    1000000 cyc:     501222 now IPC :1.99512: AVG IPC :1.99512: L2-Pf-HR :0.77517: L2-HR :0.65351: (Sim:0h1m42s) 
CPU  1 inst:    1000000 cyc:     501618 now IPC :1.99355: AVG IPC :1.99355: L2-Pf-HR :0.78459: L2-HR :0.65503: (Sim:0h1m42s) 
CPU  3 inst:    1000000 cyc:     501692 now IPC :1.99325: AVG IPC :1.99325: L2-Pf-HR :0.78273: L2-HR :0.64499: (Sim:0h1m42s) 
CPU  0 inst:    2000000 cyc:     986566 now IPC :2.06039: AVG IPC :2.02723: L2-Pf-HR :0.84546: L2-HR :0.74226: (Sim:0h3m33s) 
CPU  2 inst:    2000000 cyc:     986575 now IPC :2.06019: AVG IPC :2.02722: L2-Pf-HR :0.85017: L2-HR :0.73994: (Sim:0h3m33s) 
CPU  3 inst:    2000000 cyc:     987030 now IPC :2.06042: AVG IPC :2.02628: L2-Pf-HR :0.84831: L2-HR :0.73168: (Sim:0h3m33s) 
CPU  1 inst:    2000000 cyc:     987033 now IPC :2.06009: AVG IPC :2.02627: L2-Pf-HR :0.85109: L2-HR :0.74409: (Sim:0h3m33s) 

Warmup complete CPU  0 instructions:    2000913 cycles:     987034 (Simulation time: 0 hr 3 min 33 sec) 
Warmup complete CPU  1 instructions:    2000003 cycles:     987034 (Simulation time: 0 hr 3 min 33 sec) 
Warmup complete CPU  2 instructions:    2000913 cycles:     987033 (Simulation time: 0 hr 3 min 33 sec) 
Warmup complete CPU  3 instructions:    2000009 cycles:     987033 (Simulation time: 0 hr 3 min 33 sec) 

CPU  0 inst:    3000000 cyc:    1666627 now IPC :1.47046: AVG IPC :1.47013: L2-Pf-HR :0.82435: L2-HR :0.80395: (Sim:0h5m5s) 
CPU  3 inst:    3000000 cyc:    1668778 now IPC :1.46682: AVG IPC :1.46681: L2-Pf-HR :0.81140: L2-HR :0.80023: (Sim:0h5m6s) 
CPU  2 inst:    3000000 cyc:    1670988 now IPC :1.46111: AVG IPC :1.46075: L2-Pf-HR :0.81290: L2-HR :0.80109: (Sim:0h5m6s) 
CPU  1 inst:    3000000 cyc:    1682253 now IPC :1.43839: AVG IPC :1.43839: L2-Pf-HR :0.81789: L2-HR :0.79583: (Sim:0h5m8s) 
CPU  2 inst:    4000001 cyc:    2210009 now IPC :1.85522: AVG IPC :1.63461: L2-Pf-HR :0.85380: L2-HR :0.83951: (Sim:0h6m29s) 
CPU  0 inst:    4000001 cyc:    2215714 now IPC :1.82121: AVG IPC :1.62702: L2-Pf-HR :0.86355: L2-HR :0.83809: (Sim:0h6m29s) 
CPU  3 inst:    4000001 cyc:    2216018 now IPC :1.82735: AVG IPC :1.62735: L2-Pf-HR :0.85991: L2-HR :0.84218: (Sim:0h6m30s) 
CPU  1 inst:    4000001 cyc:    2233456 now IPC :1.81422: AVG IPC :1.60459: L2-Pf-HR :0.86650: L2-HR :0.83756: (Sim:0h6m32s) 
CPU  2 inst:    5000000 cyc:    2832129 now IPC :1.60741: AVG IPC :1.62544: L2-Pf-HR :0.84187: L2-HR :0.83468: (Sim:0h7m55s) 
CPU  3 inst:    5000000 cyc:    2836633 now IPC :1.61130: AVG IPC :1.62197: L2-Pf-HR :0.84380: L2-HR :0.83592: (Sim:0h7m56s) 
CPU  0 inst:    5000000 cyc:    2850493 now IPC :1.57535: AVG IPC :1.60942: L2-Pf-HR :0.85562: L2-HR :0.84050: (Sim:0h7m58s) 
CPU  1 inst:    5000000 cyc:    2877617 now IPC :1.55241: AVG IPC :1.58681: L2-Pf-HR :0.85220: L2-HR :0.83320: (Sim:0h8m2s) 
CPU  2 inst:    6000003 cyc:    3343340 now IPC :1.95615: AVG IPC :1.69719: L2-Pf-HR :0.84972: L2-HR :0.84477: (Sim:0h9m13s) 
CPU  3 inst:    6000003 cyc:    3381920 now IPC :1.83390: AVG IPC :1.67022: L2-Pf-HR :0.85527: L2-HR :0.84342: (Sim:0h9m19s) 
CPU  0 inst:    6000003 cyc:    3413500 now IPC :1.77618: AVG IPC :1.64811: L2-Pf-HR :0.86019: L2-HR :0.84136: (Sim:0h9m24s) 
CPU  1 inst:    6000003 cyc:    3433973 now IPC :1.79742: AVG IPC :1.63470: L2-Pf-HR :0.86709: L2-HR :0.84234: (Sim:0h9m27s) 
CPU  2 inst:    7000002 cyc:    3929347 now IPC :1.70646: AVG IPC :1.69903: L2-Pf-HR :0.84338: L2-HR :0.84211: (Sim:0h10m38s) 
CPU  3 inst:    7000002 cyc:    3960460 now IPC :1.72849: AVG IPC :1.68156: L2-Pf-HR :0.85065: L2-HR :0.84236: (Sim:0h10m43s) 
CPU  1 inst:    7000002 cyc:    4023995 now IPC :1.69485: AVG IPC :1.64638: L2-Pf-HR :0.85651: L2-HR :0.83916: (Sim:0h10m53s) 
CPU  0 inst:    7000002 cyc:    4040742 now IPC :1.59428: AVG IPC :1.63706: L2-Pf-HR :0.84932: L2-HR :0.83471: (Sim:0h10m56s) 
CPU  2 inst:    8000000 cyc:    4465140 now IPC :1.86639: AVG IPC :1.72481: L2-Pf-HR :0.85025: L2-HR :0.84631: (Sim:0h12m4s) 
CPU  3 inst:    8000000 cyc:    4510166 now IPC :1.81915: AVG IPC :1.70303: L2-Pf-HR :0.85692: L2-HR :0.84611: (Sim:0h12m10s) 
CPU  0 inst:    8000000 cyc:    4575336 now IPC :1.87057: AVG IPC :1.67185: L2-Pf-HR :0.85881: L2-HR :0.84139: (Sim:0h12m20s) 
CPU  1 inst:    8000000 cyc:    4577299 now IPC :1.80732: AVG IPC :1.67119: L2-Pf-HR :0.86530: L2-HR :0.84345: (Sim:0h12m20s) 
CPU  2 inst:    9000004 cyc:    5092304 now IPC :1.59449: AVG IPC :1.70490: L2-Pf-HR :0.84254: L2-HR :0.83973: (Sim:0h13m30s) 
CPU  3 inst:    9000004 cyc:    5146949 now IPC :1.57040: AVG IPC :1.68273: L2-Pf-HR :0.84711: L2-HR :0.83821: (Sim:0h13m39s) 
CPU  0 inst:    9000004 cyc:    5193547 now IPC :1.61758: AVG IPC :1.66387: L2-Pf-HR :0.85410: L2-HR :0.83933: (Sim:0h13m46s) 
CPU  1 inst:    9000004 cyc:    5205829 now IPC :1.59102: AVG IPC :1.65924: L2-Pf-HR :0.85755: L2-HR :0.83948: (Sim:0h13m48s) 
CPU  2 inst:   10000005 cyc:    5624171 now IPC :1.88017: AVG IPC :1.72501: L2-Pf-HR :0.84902: L2-HR :0.84514: (Sim:0h14m51s) 
CPU  3 inst:   10000005 cyc:    5676450 now IPC :1.88857: AVG IPC :1.70597: L2-Pf-HR :0.85449: L2-HR :0.84488: (Sim:0h14m59s) 
CPU  1 inst:   10000005 cyc:    5744947 now IPC :1.85488: AVG IPC :1.68141: L2-Pf-HR :0.86143: L2-HR :0.84315: (Sim:0h15m10s) 
CPU  0 inst:   10000005 cyc:    5745948 now IPC :1.81028: AVG IPC :1.68087: L2-Pf-HR :0.85876: L2-HR :0.84331: (Sim:0h15m10s) 
CPU  2 inst:   11000000 cyc:    6264313 now IPC :1.56215: AVG IPC :1.70525: L2-Pf-HR :0.84333: L2-HR :0.84075: (Sim:0h16m20s) 
CPU  3 inst:   11000000 cyc:    6312507 now IPC :1.57218: AVG IPC :1.68999: L2-Pf-HR :0.84968: L2-HR :0.84252: (Sim:0h16m27s) 
CPU  1 inst:   11000000 cyc:    6366338 now IPC :1.60928: AVG IPC :1.67308: L2-Pf-HR :0.85673: L2-HR :0.84191: (Sim:0h16m35s) 
CPU  0 inst:   11000000 cyc:    6404201 now IPC :1.51917: AVG IPC :1.66122: L2-Pf-HR :0.85687: L2-HR :0.84098: (Sim:0h16m41s) 
CPU  2 inst:   12000004 cyc:    6820842 now IPC :1.79686: AVG IPC :1.71399: L2-Pf-HR :0.85002: L2-HR :0.84450: (Sim:0h17m46s) 
CPU  3 inst:   12000004 cyc:    6828198 now IPC :1.93915: AVG IPC :1.71199: L2-Pf-HR :0.85290: L2-HR :0.84582: (Sim:0h17m47s) 
CPU  1 inst:   12000004 cyc:    6906505 now IPC :1.85129: AVG IPC :1.68934: L2-Pf-HR :0.85958: L2-HR :0.84498: (Sim:0h17m59s) 
CPU  0 inst:   12000004 cyc:    6938603 now IPC :1.87126: AVG IPC :1.68008: L2-Pf-HR :0.85899: L2-HR :0.84324: (Sim:0h18m4s) 
CPU  3 inst:   13000005 cyc:    7607390 now IPC :1.28338: AVG IPC :1.66154: L2-Pf-HR :0.84873: L2-HR :0.84304: (Sim:0h19m11s) 
CPU  2 inst:   13000005 cyc:    7612741 now IPC :1.26279: AVG IPC :1.66006: L2-Pf-HR :0.84682: L2-HR :0.84154: (Sim:0h19m11s) 
CPU  1 inst:   13000005 cyc:    7675719 now IPC :1.30003: AVG IPC :1.64457: L2-Pf-HR :0.85499: L2-HR :0.84115: (Sim:0h19m19s) 
CPU  0 inst:   13000005 cyc:    7699761 now IPC :1.31379: AVG IPC :1.63854: L2-Pf-HR :0.85459: L2-HR :0.84019: (Sim:0h19m23s) 
CPU  3 inst:   14000000 cyc:    8183166 now IPC :1.73678: AVG IPC :1.66756: L2-Pf-HR :0.85409: L2-HR :0.84671: (Sim:0h20m36s) 
CPU  2 inst:   14000000 cyc:    8186719 now IPC :1.74222: AVG IPC :1.66661: L2-Pf-HR :0.85099: L2-HR :0.84424: (Sim:0h20m37s) 
CPU  1 inst:   14000000 cyc:    8226915 now IPC :1.81423: AVG IPC :1.65749: L2-Pf-HR :0.85956: L2-HR :0.84559: (Sim:0h20m42s) 
CPU  0 inst:   14000000 cyc:    8248531 now IPC :1.82225: AVG IPC :1.65243: L2-Pf-HR :0.85850: L2-HR :0.84430: (Sim:0h20m46s) 
CPU  3 inst:   15000005 cyc:    9116792 now IPC :1.07110: AVG IPC :1.59906: L2-Pf-HR :0.85033: L2-HR :0.84414: (Sim:0h22m19s) 
CPU  2 inst:   15000005 cyc:    9143800 now IPC :1.04485: AVG IPC :1.59366: L2-Pf-HR :0.84858: L2-HR :0.84260: (Sim:0h22m23s) 
CPU  1 inst:   15000005 cyc:    9204165 now IPC :1.02328: AVG IPC :1.58206: L2-Pf-HR :0.85507: L2-HR :0.84230: (Sim:0h22m31s) 
CPU  0 inst:   15000005 cyc:    9209142 now IPC :1.04101: AVG IPC :1.58099: L2-Pf-HR :0.85422: L2-HR :0.84128: (Sim:0h22m32s) 
CPU  3 inst:   16000002 cyc:    9701673 now IPC :1.70974: AVG IPC :1.60649: L2-Pf-HR :0.85466: L2-HR :0.84709: (Sim:0h23m46s) 
CPU  2 inst:   16000002 cyc:    9720355 now IPC :1.73443: AVG IPC :1.60295: L2-Pf-HR :0.85308: L2-HR :0.84539: (Sim:0h23m49s) 
CPU  1 inst:   16000002 cyc:    9760113 now IPC :1.79872: AVG IPC :1.59579: L2-Pf-HR :0.85790: L2-HR :0.84511: (Sim:0h23m55s) 
CPU  0 inst:   16000002 cyc:    9800871 now IPC :1.68996: AVG IPC :1.58831: L2-Pf-HR :0.85828: L2-HR :0.84387: (Sim:0h24m0s) 
CPU  3 inst:   17000004 cyc:   10627228 now IPC :1.08044: AVG IPC :1.55598: L2-Pf-HR :0.85080: L2-HR :0.84386: (Sim:0h25m32s) 
CPU  2 inst:   17000004 cyc:   10641893 now IPC :1.08514: AVG IPC :1.55353: L2-Pf-HR :0.84974: L2-HR :0.84300: (Sim:0h25m33s) 
CPU  1 inst:   17000004 cyc:   10676701 now IPC :1.09100: AVG IPC :1.54804: L2-Pf-HR :0.85533: L2-HR :0.84362: (Sim:0h25m38s) 
CPU  0 inst:   17000004 cyc:   10682340 now IPC :1.13447: AVG IPC :1.54705: L2-Pf-HR :0.85496: L2-HR :0.84174: (Sim:0h25m39s) 
CPU  2 inst:   18000005 cyc:   11211923 now IPC :1.75430: AVG IPC :1.56472: L2-Pf-HR :0.85257: L2-HR :0.84497: (Sim:0h26m57s) 
CPU  3 inst:   18000005 cyc:   11226577 now IPC :1.66848: AVG IPC :1.56257: L2-Pf-HR :0.85461: L2-HR :0.84648: (Sim:0h26m59s) 
CPU  0 inst:   18000005 cyc:   11281368 now IPC :1.66937: AVG IPC :1.55416: L2-Pf-HR :0.85803: L2-HR :0.84343: (Sim:0h27m7s) 
CPU  1 inst:   18000005 cyc:   11289907 now IPC :1.63077: AVG IPC :1.55297: L2-Pf-HR :0.85866: L2-HR :0.84501: (Sim:0h27m8s) 
CPU  2 inst:   19000002 cyc:   12110436 now IPC :1.11295: AVG IPC :1.52823: L2-Pf-HR :0.85076: L2-HR :0.84328: (Sim:0h28m40s) 
CPU  3 inst:   19000002 cyc:   12126217 now IPC :1.11155: AVG IPC :1.52614: L2-Pf-HR :0.85294: L2-HR :0.84517: (Sim:0h28m42s) 
CPU  0 inst:   19000002 cyc:   12182417 now IPC :1.10981: AVG IPC :1.51840: L2-Pf-HR :0.85522: L2-HR :0.84159: (Sim:0h28m50s) 
CPU  1 inst:   19000002 cyc:   12184301 now IPC :1.11807: AVG IPC :1.51823: L2-Pf-HR :0.85618: L2-HR :0.84314: (Sim:0h28m50s) 
CPU  2 inst:   20000005 cyc:   12754473 now IPC :1.55271: AVG IPC :1.52957: L2-Pf-HR :0.85304: L2-HR :0.84478: (Sim:0h30m16s) 
CPU  3 inst:   20000005 cyc:   12765052 now IPC :1.56535: AVG IPC :1.52827: L2-Pf-HR :0.85469: L2-HR :0.84616: (Sim:0h30m17s) 
CPU  0 inst:   20000005 cyc:   12801517 now IPC :1.61525: AVG IPC :1.52348: L2-Pf-HR :0.85708: L2-HR :0.84292: (Sim:0h30m23s) 
CPU  1 inst:   20000005 cyc:   12808113 now IPC :1.60305: AVG IPC :1.52270: L2-Pf-HR :0.85780: L2-HR :0.84407: (Sim:0h30m24s) 
CPU  2 inst:   21000002 cyc:   13702137 now IPC :1.05522: AVG IPC :1.49421: L2-Pf-HR :0.85178: L2-HR :0.84385: (Sim:0h32m9s) 
CPU  3 inst:   21000002 cyc:   13711452 now IPC :1.05663: AVG IPC :1.49319: L2-Pf-HR :0.85352: L2-HR :0.84532: (Sim:0h32m11s) 
CPU  0 inst:   21000002 cyc:   13725605 now IPC :1.08214: AVG IPC :1.49146: L2-Pf-HR :0.85576: L2-HR :0.84248: (Sim:0h32m13s) 
CPU  1 inst:   21000002 cyc:   13728924 now IPC :1.08600: AVG IPC :1.49114: L2-Pf-HR :0.85602: L2-HR :0.84326: (Sim:0h32m13s) 
CPU  2 inst:   22000003 cyc:   14278651 now IPC :1.73457: AVG IPC :1.50464: L2-Pf-HR :0.85413: L2-HR :0.84577: (Sim:0h33m39s) 
CPU  3 inst:   22000003 cyc:   14297620 now IPC :1.70600: AVG IPC :1.50256: L2-Pf-HR :0.85556: L2-HR :0.84671: (Sim:0h33m43s) 
CPU  1 inst:   22000003 cyc:   14301594 now IPC :1.74621: AVG IPC :1.50212: L2-Pf-HR :0.85737: L2-HR :0.84461: (Sim:0h33m43s) 
CPU  0 inst:   22000003 cyc:   14333348 now IPC :1.64543: AVG IPC :1.49847: L2-Pf-HR :0.85888: L2-HR :0.84397: (Sim:0h33m48s) 
CPU  1 inst:   23000005 cyc:   15248492 now IPC :1.05608: AVG IPC :1.47250: L2-Pf-HR :0.85547: L2-HR :0.84352: (Sim:0h35m36s) 
CPU  2 inst:   23000000 cyc:   15268318 now IPC :1.01044: AVG IPC :1.47039: L2-Pf-HR :0.85180: L2-HR :0.84411: (Sim:0h35m38s) 
CPU  3 inst:   23000000 cyc:   15287019 now IPC :1.01071: AVG IPC :1.46853: L2-Pf-HR :0.85390: L2-HR :0.84544: (Sim:0h35m41s) 
CPU  0 inst:   23000005 cyc:   15307386 now IPC :1.02666: AVG IPC :1.46638: L2-Pf-HR :0.85671: L2-HR :0.84238: (Sim:0h35m43s) 
CPU  1 inst:   24000002 cyc:   15890555 now IPC :1.55747: AVG IPC :1.47616: L2-Pf-HR :0.85781: L2-HR :0.84475: (Sim:0h37m11s) 
CPU  3 inst:   24000002 cyc:   15894160 now IPC :1.64707: AVG IPC :1.47580: L2-Pf-HR :0.85508: L2-HR :0.84656: (Sim:0h37m12s) 
CPU  2 inst:   24000002 cyc:   15899832 now IPC :1.58350: AVG IPC :1.47518: L2-Pf-HR :0.85437: L2-HR :0.84544: (Sim:0h37m13s) 
CPU  0 inst:   24000002 cyc:   15921822 now IPC :1.62750: AVG IPC :1.47301: L2-Pf-HR :0.85928: L2-HR :0.84376: (Sim:0h37m16s) 
CPU  3 inst:   25000004 cyc:   16667910 now IPC :1.29241: AVG IPC :1.46675: L2-Pf-HR :0.85437: L2-HR :0.84637: (Sim:0h38m53s) 
CPU  1 inst:   25000004 cyc:   16723106 now IPC :1.20113: AVG IPC :1.46161: L2-Pf-HR :0.85703: L2-HR :0.84396: (Sim:0h39m0s) 
CPU  2 inst:   25000004 cyc:   16733977 now IPC :1.19883: AVG IPC :1.46054: L2-Pf-HR :0.85384: L2-HR :0.84492: (Sim:0h39m1s) 
CPU  0 inst:   25000004 cyc:   16740648 now IPC :1.22126: AVG IPC :1.45992: L2-Pf-HR :0.85845: L2-HR :0.84293: (Sim:0h39m2s) 
CPU  3 inst:   26000004 cyc:   17276031 now IPC :1.64441: AVG IPC :1.47339: L2-Pf-HR :0.85590: L2-HR :0.84771: (Sim:0h40m24s) 
CPU  1 inst:   26000004 cyc:   17313900 now IPC :1.69264: AVG IPC :1.46997: L2-Pf-HR :0.85710: L2-HR :0.84410: (Sim:0h40m29s) 
CPU  2 inst:   26000004 cyc:   17348934 now IPC :1.62613: AVG IPC :1.46677: L2-Pf-HR :0.85469: L2-HR :0.84535: (Sim:0h40m35s) 
CPU  0 inst:   26000004 cyc:   17372550 now IPC :1.58252: AVG IPC :1.46465: L2-Pf-HR :0.85977: L2-HR :0.84334: (Sim:0h40m38s) 
CPU  3 inst:   27000001 cyc:   18014398 now IPC :1.35434: AVG IPC :1.46822: L2-Pf-HR :0.85480: L2-HR :0.84719: (Sim:0h42m6s) 
CPU  1 inst:   27000001 cyc:   18060840 now IPC :1.33879: AVG IPC :1.46423: L2-Pf-HR :0.85707: L2-HR :0.84466: (Sim:0h42m10s) 
CPU  2 inst:   27000001 cyc:   18132489 now IPC :1.27623: AVG IPC :1.45806: L2-Pf-HR :0.85457: L2-HR :0.84570: (Sim:0h42m17s) 
CPU  0 inst:   27000001 cyc:   18191489 now IPC :1.22109: AVG IPC :1.45306: L2-Pf-HR :0.86002: L2-HR :0.84361: (Sim:0h42m23s) 
CPU  2 inst:   28000004 cyc:   18749309 now IPC :1.62122: AVG IPC :1.46373: L2-Pf-HR :0.85570: L2-HR :0.84646: (Sim:0h43m46s) 
CPU  3 inst:   28000004 cyc:   18759066 now IPC :1.34288: AVG IPC :1.46297: L2-Pf-HR :0.85547: L2-HR :0.84715: (Sim:0h43m48s) 
CPU  1 inst:   28000004 cyc:   18760945 now IPC :1.42836: AVG IPC :1.46282: L2-Pf-HR :0.85700: L2-HR :0.84443: (Sim:0h43m48s) 
CPU  0 inst:   28000004 cyc:   18781817 now IPC :1.69398: AVG IPC :1.46105: L2-Pf-HR :0.86015: L2-HR :0.84391: (Sim:0h43m51s) 
CPU  1 inst:   29000001 cyc:   19598127 now IPC :1.19448: AVG IPC :1.45075: L2-Pf-HR :0.85700: L2-HR :0.84510: (Sim:0h45m36s) 
CPU  2 inst:   29000001 cyc:   19606569 now IPC :1.16650: AVG IPC :1.45004: L2-Pf-HR :0.85484: L2-HR :0.84595: (Sim:0h45m37s) 
CPU  0 inst:   29000001 cyc:   19634150 now IPC :1.17325: AVG IPC :1.44790: L2-Pf-HR :0.85950: L2-HR :0.84381: (Sim:0h45m39s) 
CPU  3 inst:   29000001 cyc:   19639405 now IPC :1.13592: AVG IPC :1.44754: L2-Pf-HR :0.85538: L2-HR :0.84728: (Sim:0h45m39s) 
CPU  3 inst:   30000002 cyc:   20368610 now IPC :1.37136: AVG IPC :1.44467: L2-Pf-HR :0.85539: L2-HR :0.84738: (Sim:0h47m13s) 
CPU  0 inst:   30000002 cyc:   20388876 now IPC :1.32499: AVG IPC :1.44311: L2-Pf-HR :0.85939: L2-HR :0.84358: (Sim:0h47m17s) 
CPU  1 inst:   30000002 cyc:   20397629 now IPC :1.25078: AVG IPC :1.44251: L2-Pf-HR :0.85702: L2-HR :0.84499: (Sim:0h47m18s) 
CPU  2 inst:   30000002 cyc:   20397892 now IPC :1.26371: AVG IPC :1.44244: L2-Pf-HR :0.85482: L2-HR :0.84531: (Sim:0h47m18s) 
CPU  3 inst:   31000000 cyc:   20950474 now IPC :1.71861: AVG IPC :1.45265: L2-Pf-HR :0.85734: L2-HR :0.84894: (Sim:0h48m44s) 
CPU  0 inst:   31000003 cyc:   20982220 now IPC :1.68536: AVG IPC :1.45030: L2-Pf-HR :0.86164: L2-HR :0.84534: (Sim:0h48m48s) 
CPU  2 inst:   31000000 cyc:   21001276 now IPC :1.65732: AVG IPC :1.44892: L2-Pf-HR :0.85740: L2-HR :0.84731: (Sim:0h48m50s) 
CPU  1 inst:   31000000 cyc:   21015524 now IPC :1.61839: AVG IPC :1.44794: L2-Pf-HR :0.85929: L2-HR :0.84678: (Sim:0h48m51s) 
CPU  3 inst:   32000001 cyc:   21879677 now IPC :1.07619: AVG IPC :1.43591: L2-Pf-HR :0.85521: L2-HR :0.84706: (Sim:0h50m32s) 
CPU  0 inst:   32000001 cyc:   21922330 now IPC :1.06370: AVG IPC :1.43294: L2-Pf-HR :0.85976: L2-HR :0.84361: (Sim:0h50m38s) 
CPU  2 inst:   32000001 cyc:   21922849 now IPC :1.08510: AVG IPC :1.43291: L2-Pf-HR :0.85508: L2-HR :0.84546: (Sim:0h50m39s) 
CPU  1 inst:   32000001 cyc:   21935242 now IPC :1.08729: AVG IPC :1.43210: L2-Pf-HR :0.85739: L2-HR :0.84497: (Sim:0h50m40s) 
CPU  3 inst:   33000001 cyc:   22463067 now IPC :1.71412: AVG IPC :1.44347: L2-Pf-HR :0.85736: L2-HR :0.84853: (Sim:0h52m4s) 
CPU  2 inst:   33000001 cyc:   22468824 now IPC :1.83159: AVG IPC :1.44304: L2-Pf-HR :0.85708: L2-HR :0.84714: (Sim:0h52m5s) 
CPU  0 inst:   33000001 cyc:   22489949 now IPC :1.76175: AVG IPC :1.44162: L2-Pf-HR :0.86192: L2-HR :0.84502: (Sim:0h52m9s) 
CPU  1 inst:   33000001 cyc:   22500117 now IPC :1.77030: AVG IPC :1.44098: L2-Pf-HR :0.85967: L2-HR :0.84647: (Sim:0h52m10s) 
CPU  2 inst:   34000004 cyc:   23456050 now IPC :1.01294: AVG IPC :1.42414: L2-Pf-HR :0.85450: L2-HR :0.84520: (Sim:0h53m58s) 
CPU  3 inst:   34000001 cyc:   23458297 now IPC :1.00479: AVG IPC :1.42404: L2-Pf-HR :0.85564: L2-HR :0.84718: (Sim:0h53m58s) 
CPU  1 inst:   34000001 cyc:   23467911 now IPC :1.03328: AVG IPC :1.42343: L2-Pf-HR :0.85731: L2-HR :0.84485: (Sim:0h54m0s) 
CPU  0 inst:   34000001 cyc:   23470660 now IPC :1.01967: AVG IPC :1.42322: L2-Pf-HR :0.86016: L2-HR :0.84373: (Sim:0h54m0s) 
CPU  2 inst:   35000001 cyc:   24012841 now IPC :1.79600: AVG IPC :1.43313: L2-Pf-HR :0.85623: L2-HR :0.84665: (Sim:0h55m25s) 
CPU  1 inst:   35000001 cyc:   24046706 now IPC :1.72773: AVG IPC :1.43107: L2-Pf-HR :0.85918: L2-HR :0.84622: (Sim:0h55m30s) 
CPU  3 inst:   35000001 cyc:   24050668 now IPC :1.68813: AVG IPC :1.43082: L2-Pf-HR :0.85703: L2-HR :0.84829: (Sim:0h55m31s) 
CPU  0 inst:   35000001 cyc:   24076210 now IPC :1.65139: AVG IPC :1.42920: L2-Pf-HR :0.86195: L2-HR :0.84461: (Sim:0h55m35s) 
CPU  2 inst:   36000005 cyc:   24918403 now IPC :1.10429: AVG IPC :1.42069: L2-Pf-HR :0.85411: L2-HR :0.84522: (Sim:0h57m10s) 
CPU  0 inst:   36000005 cyc:   24994654 now IPC :1.08880: AVG IPC :1.41618: L2-Pf-HR :0.86018: L2-HR :0.84347: (Sim:0h57m21s) 
CPU  1 inst:   36000005 cyc:   24994757 now IPC :1.05480: AVG IPC :1.41621: L2-Pf-HR :0.85709: L2-HR :0.84477: (Sim:0h57m21s) 
CPU  3 inst:   36000005 cyc:   25009204 now IPC :1.04326: AVG IPC :1.41536: L2-Pf-HR :0.85551: L2-HR :0.84698: (Sim:0h57m24s) 
CPU  2 inst:   37000003 cyc:   25492386 now IPC :1.74221: AVG IPC :1.42822: L2-Pf-HR :0.85601: L2-HR :0.84659: (Sim:0h58m40s) 
CPU  1 inst:   37000003 cyc:   25552131 now IPC :1.79412: AVG IPC :1.42479: L2-Pf-HR :0.85863: L2-HR :0.84612: (Sim:0h58m49s) 
CPU  0 inst:   37000003 cyc:   25587341 now IPC :1.68723: AVG IPC :1.42271: L2-Pf-HR :0.86182: L2-HR :0.84459: (Sim:0h58m55s) 
CPU  3 inst:   37000003 cyc:   25596219 now IPC :1.70353: AVG IPC :1.42223: L2-Pf-HR :0.85729: L2-HR :0.84792: (Sim:0h58m57s) 
CPU  2 inst:   38000004 cyc:   26406017 now IPC :1.09453: AVG IPC :1.41623: L2-Pf-HR :0.85446: L2-HR :0.84536: (Sim:1h0m28s) 
CPU  3 inst:   38000004 cyc:   26491463 now IPC :1.11702: AVG IPC :1.41152: L2-Pf-HR :0.85599: L2-HR :0.84712: (Sim:1h0m41s) 
CPU  0 inst:   38000004 cyc:   26491699 now IPC :1.10576: AVG IPC :1.41147: L2-Pf-HR :0.86042: L2-HR :0.84390: (Sim:1h0m42s) 
CPU  1 inst:   38000004 cyc:   26492069 now IPC :1.06390: AVG IPC :1.41149: L2-Pf-HR :0.85714: L2-HR :0.84493: (Sim:1h0m42s) 
CPU  2 inst:   39000003 cyc:   26973337 now IPC :1.76267: AVG IPC :1.42379: L2-Pf-HR :0.85585: L2-HR :0.84654: (Sim:1h1m57s) 
CPU  3 inst:   39000003 cyc:   27063079 now IPC :1.74942: AVG IPC :1.41893: L2-Pf-HR :0.85736: L2-HR :0.84793: (Sim:1h2m12s) 
CPU  1 inst:   39000003 cyc:   27067551 now IPC :1.73767: AVG IPC :1.41868: L2-Pf-HR :0.85852: L2-HR :0.84597: (Sim:1h2m12s) 
CPU  0 inst:   39000003 cyc:   27074523 now IPC :1.71578: AVG IPC :1.41827: L2-Pf-HR :0.86146: L2-HR :0.84457: (Sim:1h2m13s) 
CPU  2 inst:   40000005 cyc:   27840806 now IPC :1.15278: AVG IPC :1.41504: L2-Pf-HR :0.85408: L2-HR :0.84533: (Sim:1h3m40s) 
CPU  3 inst:   40000002 cyc:   27983752 now IPC :1.08616: AVG IPC :1.40758: L2-Pf-HR :0.85690: L2-HR :0.84764: (Sim:1h4m1s) 
CPU  1 inst:   40000002 cyc:   27998571 now IPC :1.07409: AVG IPC :1.40681: L2-Pf-HR :0.85657: L2-HR :0.84475: (Sim:1h4m4s) 
CPU  0 inst:   40000004 cyc:   28014250 now IPC :1.06414: AVG IPC :1.40596: L2-Pf-HR :0.85983: L2-HR :0.84347: (Sim:1h4m6s) 
CPU  2 inst:   41000000 cyc:   28393309 now IPC :1.80994: AVG IPC :1.42300: L2-Pf-HR :0.85535: L2-HR :0.84641: (Sim:1h5m8s) 
CPU  1 inst:   41000000 cyc:   28538244 now IPC :1.85297: AVG IPC :1.41555: L2-Pf-HR :0.85771: L2-HR :0.84589: (Sim:1h5m32s) 
CPU  3 inst:   41000000 cyc:   28550168 now IPC :1.76548: AVG IPC :1.41493: L2-Pf-HR :0.85725: L2-HR :0.84755: (Sim:1h5m34s) 
CPU  0 inst:   41000000 cyc:   28559442 now IPC :1.83421: AVG IPC :1.41442: L2-Pf-HR :0.86109: L2-HR :0.84453: (Sim:1h5m35s) 
CPU  2 inst:   42000000 cyc:   29238274 now IPC :1.18348: AVG IPC :1.41583: L2-Pf-HR :0.85405: L2-HR :0.84546: (Sim:1h6m53s) 
CPU  1 inst:   42000000 cyc:   29377942 now IPC :1.19090: AVG IPC :1.40890: L2-Pf-HR :0.85636: L2-HR :0.84518: (Sim:1h7m15s) 
CPU  3 inst:   42000000 cyc:   29419412 now IPC :1.15042: AVG IPC :1.40685: L2-Pf-HR :0.85606: L2-HR :0.84665: (Sim:1h7m22s) 
CPU  0 inst:   42000000 cyc:   29425524 now IPC :1.15463: AVG IPC :1.40651: L2-Pf-HR :0.85949: L2-HR :0.84360: (Sim:1h7m23s) 
CPU  2 inst:   43000002 cyc:   29792133 now IPC :1.80552: AVG IPC :1.42333: L2-Pf-HR :0.85530: L2-HR :0.84654: (Sim:1h8m20s) 
CPU  1 inst:   43000002 cyc:   29974815 now IPC :1.67540: AVG IPC :1.41439: L2-Pf-HR :0.85800: L2-HR :0.84603: (Sim:1h8m48s) 
CPU  3 inst:   43000002 cyc:   29989261 now IPC :1.75485: AVG IPC :1.41368: L2-Pf-HR :0.85727: L2-HR :0.84753: (Sim:1h8m51s) 
CPU  0 inst:   43000002 cyc:   30006717 now IPC :1.72060: AVG IPC :1.41280: L2-Pf-HR :0.86082: L2-HR :0.84475: (Sim:1h8m53s) 
CPU  2 inst:   44000001 cyc:   30617346 now IPC :1.21181: AVG IPC :1.41744: L2-Pf-HR :0.85383: L2-HR :0.84556: (Sim:1h10m0s) 
CPU  0 inst:   44000001 cyc:   30872935 now IPC :1.15444: AVG IPC :1.40531: L2-Pf-HR :0.85985: L2-HR :0.84432: (Sim:1h10m39s) 
CPU  1 inst:   44000001 cyc:   30883118 now IPC :1.10095: AVG IPC :1.40487: L2-Pf-HR :0.85653: L2-HR :0.84499: (Sim:1h10m40s) 
CPU  3 inst:   44000001 cyc:   30891874 now IPC :1.10789: AVG IPC :1.40445: L2-Pf-HR :0.85614: L2-HR :0.84656: (Sim:1h10m42s) 
CPU  2 inst:   45000002 cyc:   31194284 now IPC :1.73329: AVG IPC :1.42347: L2-Pf-HR :0.85510: L2-HR :0.84653: (Sim:1h11m27s) 
CPU  0 inst:   45000002 cyc:   31441364 now IPC :1.75924: AVG IPC :1.41192: L2-Pf-HR :0.86048: L2-HR :0.84500: (Sim:1h12m6s) 
CPU  1 inst:   45000002 cyc:   31472772 now IPC :1.69591: AVG IPC :1.41050: L2-Pf-HR :0.85761: L2-HR :0.84589: (Sim:1h12m10s) 
CPU  3 inst:   45000002 cyc:   31536698 now IPC :1.55081: AVG IPC :1.40754: L2-Pf-HR :0.85763: L2-HR :0.84726: (Sim:1h12m17s) 
CPU  2 inst:   46000002 cyc:   31988839 now IPC :1.25857: AVG IPC :1.41924: L2-Pf-HR :0.85400: L2-HR :0.84576: (Sim:1h13m8s) 
CPU  0 inst:   46000002 cyc:   32379433 now IPC :1.06602: AVG IPC :1.40158: L2-Pf-HR :0.85912: L2-HR :0.84399: (Sim:1h14m0s) 
CPU  1 inst:   46000002 cyc:   32380470 now IPC :1.10169: AVG IPC :1.40157: L2-Pf-HR :0.85661: L2-HR :0.84524: (Sim:1h14m1s) 
CPU  3 inst:   46000002 cyc:   32413457 now IPC :1.14056: AVG IPC :1.40010: L2-Pf-HR :0.85638: L2-HR :0.84621: (Sim:1h14m6s) 
CPU  2 inst:   47000004 cyc:   32585823 now IPC :1.67509: AVG IPC :1.42408: L2-Pf-HR :0.85520: L2-HR :0.84672: (Sim:1h14m33s) 
CPU  3 inst:   47000004 cyc:   32979269 now IPC :1.76737: AVG IPC :1.40659: L2-Pf-HR :0.85754: L2-HR :0.84697: (Sim:1h15m31s) 
CPU  1 inst:   47000004 cyc:   32981640 now IPC :1.66343: AVG IPC :1.40649: L2-Pf-HR :0.85762: L2-HR :0.84597: (Sim:1h15m31s) 
CPU  0 inst:   47000004 cyc:   32992249 now IPC :1.63181: AVG IPC :1.40599: L2-Pf-HR :0.86026: L2-HR :0.84469: (Sim:1h15m33s) 
CPU  2 inst:   48000003 cyc:   33243513 now IPC :1.52047: AVG IPC :1.42604: L2-Pf-HR :0.85450: L2-HR :0.84611: (Sim:1h16m10s) 
CPU  3 inst:   48000003 cyc:   33836080 now IPC :1.16712: AVG IPC :1.40034: L2-Pf-HR :0.85667: L2-HR :0.84617: (Sim:1h17m19s) 
CPU  1 inst:   48000003 cyc:   33846644 now IPC :1.15606: AVG IPC :1.39989: L2-Pf-HR :0.85668: L2-HR :0.84532: (Sim:1h17m21s) 
CPU  0 inst:   48000003 cyc:   33849613 now IPC :1.16636: AVG IPC :1.39974: L2-Pf-HR :0.85906: L2-HR :0.84383: (Sim:1h17m22s) 
CPU  2 inst:   49000000 cyc:   33966814 now IPC :1.38255: AVG IPC :1.42509: L2-Pf-HR :0.85530: L2-HR :0.84665: (Sim:1h17m39s) 
CPU  1 inst:   49000000 cyc:   34443834 now IPC :1.67450: AVG IPC :1.40480: L2-Pf-HR :0.85755: L2-HR :0.84613: (Sim:1h18m49s) 
CPU  0 inst:   49000000 cyc:   34445748 now IPC :1.67747: AVG IPC :1.40469: L2-Pf-HR :0.86000: L2-HR :0.84465: (Sim:1h18m49s) 
CPU  3 inst:   49000000 cyc:   34454519 now IPC :1.61697: AVG IPC :1.40435: L2-Pf-HR :0.85809: L2-HR :0.84703: (Sim:1h18m51s) 
CPU  2 inst:   50000000 cyc:   34652235 now IPC :1.45896: AVG IPC :1.42578: L2-Pf-HR :0.85462: L2-HR :0.84607: (Sim:1h19m20s) 
CPU  3 inst:   50000000 cyc:   35327547 now IPC :1.14544: AVG IPC :1.39777: L2-Pf-HR :0.85736: L2-HR :0.84651: (Sim:1h20m38s) 
CPU  0 inst:   50000000 cyc:   35352228 now IPC :1.10317: AVG IPC :1.39674: L2-Pf-HR :0.85876: L2-HR :0.84392: (Sim:1h20m41s) 
CPU  1 inst:   50000000 cyc:   35367574 now IPC :1.08256: AVG IPC :1.39614: L2-Pf-HR :0.85636: L2-HR :0.84514: (Sim:1h20m43s) 
CPU  2 inst:   51000000 cyc:   35391331 now IPC :1.35300: AVG IPC :1.42421: L2-Pf-HR :0.85543: L2-HR :0.84664: (Sim:1h20m47s) 
CPU  3 inst:   51000000 cyc:   35884459 now IPC :1.79562: AVG IPC :1.40411: L2-Pf-HR :0.85746: L2-HR :0.84690: (Sim:1h22m1s) 
CPU  0 inst:   51000000 cyc:   35971683 now IPC :1.61432: AVG IPC :1.40059: L2-Pf-HR :0.85980: L2-HR :0.84470: (Sim:1h22m12s) 
CPU  1 inst:   51000000 cyc:   35994764 now IPC :1.59441: AVG IPC :1.39969: L2-Pf-HR :0.85733: L2-HR :0.84578: (Sim:1h22m16s) 
CPU  2 inst:   52000005 cyc:   36092064 now IPC :1.42708: AVG IPC :1.42427: L2-Pf-HR :0.85471: L2-HR :0.84601: (Sim:1h22m30s) 
CPU  3 inst:   52000005 cyc:   36743328 now IPC :1.16433: AVG IPC :1.39836: L2-Pf-HR :0.85652: L2-HR :0.84637: (Sim:1h23m47s) 
CPU  0 inst:   52000005 cyc:   36838887 now IPC :1.15314: AVG IPC :1.39460: L2-Pf-HR :0.85862: L2-HR :0.84394: (Sim:1h24m0s) 
CPU  1 inst:   52000005 cyc:   36845542 now IPC :1.17540: AVG IPC :1.39437: L2-Pf-HR :0.85640: L2-HR :0.84525: (Sim:1h24m1s) 
CPU  2 inst:   53000004 cyc:   36850460 now IPC :1.31857: AVG IPC :1.42204: L2-Pf-HR :0.85563: L2-HR :0.84663: (Sim:1h24m2s) 
CPU  3 inst:   53000004 cyc:   37410010 now IPC :1.49996: AVG IPC :1.40021: L2-Pf-HR :0.85731: L2-HR :0.84678: (Sim:1h25m22s) 
CPU  1 inst:   53000004 cyc:   37466120 now IPC :1.61140: AVG IPC :1.39806: L2-Pf-HR :0.85713: L2-HR :0.84602: (Sim:1h25m31s) 
CPU  0 inst:   53000004 cyc:   37472172 now IPC :1.57907: AVG IPC :1.39780: L2-Pf-HR :0.85935: L2-HR :0.84458: (Sim:1h25m32s) 
CPU  2 inst:   54000000 cyc:   37551728 now IPC :1.42598: AVG IPC :1.42211: L2-Pf-HR :0.85534: L2-HR :0.84647: (Sim:1h25m45s) 
CPU  3 inst:   54000000 cyc:   38199595 now IPC :1.26648: AVG IPC :1.39738: L2-Pf-HR :0.85655: L2-HR :0.84652: (Sim:1h27m3s) 
CPU  2 inst:   55000000 cyc:   38263833 now IPC :1.40429: AVG IPC :1.42177: L2-Pf-HR :0.85584: L2-HR :0.84690: (Sim:1h27m12s) 
CPU  0 inst:   54000000 cyc:   38299062 now IPC :1.20935: AVG IPC :1.39363: L2-Pf-HR :0.85855: L2-HR :0.84408: (Sim:1h27m17s) 
CPU  1 inst:   54000000 cyc:   38302350 now IPC :1.19584: AVG IPC :1.39353: L2-Pf-HR :0.85662: L2-HR :0.84568: (Sim:1h27m18s) 
CPU  3 inst:   55000000 cyc:   38868853 now IPC :1.49419: AVG IPC :1.39909: L2-Pf-HR :0.85749: L2-HR :0.84705: (Sim:1h28m40s) 
CPU  1 inst:   55000000 cyc:   38900893 now IPC :1.67072: AVG IPC :1.39791: L2-Pf-HR :0.85687: L2-HR :0.84608: (Sim:1h28m44s) 
CPU  0 inst:   55000000 cyc:   38940174 now IPC :1.55979: AVG IPC :1.39643: L2-Pf-HR :0.85925: L2-HR :0.84472: (Sim:1h28m50s) 
CPU  2 inst:   56000001 cyc:   38976620 now IPC :1.40295: AVG IPC :1.42142: L2-Pf-HR :0.85464: L2-HR :0.84616: (Sim:1h28m55s) 
CPU  3 inst:   56000001 cyc:   39628761 now IPC :1.31595: AVG IPC :1.39745: L2-Pf-HR :0.85673: L2-HR :0.84637: (Sim:1h30m22s) 
CPU  2 inst:   57000003 cyc:   39645442 now IPC :1.49517: AVG IPC :1.42269: L2-Pf-HR :0.85534: L2-HR :0.84678: (Sim:1h30m24s) 
CPU  1 inst:   56000001 cyc:   39659213 now IPC :1.31871: AVG IPC :1.39635: L2-Pf-HR :0.85640: L2-HR :0.84581: (Sim:1h30m26s) 
CPU  0 inst:   56000001 cyc:   39674995 now IPC :1.36088: AVG IPC :1.39576: L2-Pf-HR :0.85907: L2-HR :0.84468: (Sim:1h30m29s) 
CPU  0 inst:   57000003 cyc:   40236780 now IPC :1.78004: AVG IPC :1.40126: L2-Pf-HR :0.85924: L2-HR :0.84507: (Sim:1h31m53s) 
CPU  1 inst:   57000003 cyc:   40255669 now IPC :1.67657: AVG IPC :1.40061: L2-Pf-HR :0.85679: L2-HR :0.84618: (Sim:1h31m56s) 
CPU  3 inst:   57000003 cyc:   40274035 now IPC :1.54973: AVG IPC :1.39995: L2-Pf-HR :0.85779: L2-HR :0.84700: (Sim:1h31m58s) 
CPU  2 inst:   58000002 cyc:   40324009 now IPC :1.47369: AVG IPC :1.42357: L2-Pf-HR :0.85469: L2-HR :0.84640: (Sim:1h32m4s) 
CPU  0 inst:   58000002 cyc:   41056629 now IPC :1.21974: AVG IPC :1.39755: L2-Pf-HR :0.85833: L2-HR :0.84462: (Sim:1h33m35s) 
CPU  2 inst:   59000004 cyc:   41132825 now IPC :1.23638: AVG IPC :1.41980: L2-Pf-HR :0.85524: L2-HR :0.84672: (Sim:1h33m43s) 
CPU  1 inst:   58000002 cyc:   41149278 now IPC :1.11906: AVG IPC :1.39434: L2-Pf-HR :0.85634: L2-HR :0.84582: (Sim:1h33m46s) 
CPU  3 inst:   58000002 cyc:   41177754 now IPC :1.10654: AVG IPC :1.39336: L2-Pf-HR :0.85733: L2-HR :0.84643: (Sim:1h33m50s) 
CPU  0 inst:   59000004 cyc:   41688929 now IPC :1.58153: AVG IPC :1.40040: L2-Pf-HR :0.85876: L2-HR :0.84509: (Sim:1h35m6s) 
CPU  1 inst:   59000004 cyc:   41780894 now IPC :1.58324: AVG IPC :1.39727: L2-Pf-HR :0.85687: L2-HR :0.84620: (Sim:1h35m17s) 
CPU  3 inst:   59000004 cyc:   41821574 now IPC :1.55323: AVG IPC :1.39588: L2-Pf-HR :0.85786: L2-HR :0.84668: (Sim:1h35m22s) 
CPU  2 inst:   60000003 cyc:   41838789 now IPC :1.41650: AVG IPC :1.41975: L2-Pf-HR :0.85488: L2-HR :0.84661: (Sim:1h35m25s) 
CPU  2 inst:   61000002 cyc:   42499887 now IPC :1.51263: AVG IPC :1.42122: L2-Pf-HR :0.85506: L2-HR :0.84675: (Sim:1h36m38s) 
CPU  0 inst:   60000003 cyc:   42524417 now IPC :1.19690: AVG IPC :1.39631: L2-Pf-HR :0.85840: L2-HR :0.84470: (Sim:1h36m39s) 
CPU  1 inst:   60000003 cyc:   42583180 now IPC :1.24644: AVG IPC :1.39436: L2-Pf-HR :0.85657: L2-HR :0.84602: (Sim:1h36m43s) 
CPU  3 inst:   60000003 cyc:   42621691 now IPC :1.24982: AVG IPC :1.39307: L2-Pf-HR :0.85775: L2-HR :0.84650: (Sim:1h36m45s) 
CPU  0 inst:   61000002 cyc:   43207040 now IPC :1.46494: AVG IPC :1.39742: L2-Pf-HR :0.85844: L2-HR :0.84466: (Sim:1h37m26s) 
CPU  2 inst:   62000001 cyc:   43274333 now IPC :1.29124: AVG IPC :1.41884: L2-Pf-HR :0.85511: L2-HR :0.84690: (Sim:1h37m30s) 
CPU  1 inst:   61000002 cyc:   43276338 now IPC :1.44267: AVG IPC :1.39515: L2-Pf-HR :0.85683: L2-HR :0.84630: (Sim:1h37m30s) 
CPU  3 inst:   61000002 cyc:   43310643 now IPC :1.45148: AVG IPC :1.39402: L2-Pf-HR :0.85820: L2-HR :0.84665: (Sim:1h37m33s) 
CPU  2 inst:   63000000 cyc:   43822319 now IPC :1.82486: AVG IPC :1.42404: L2-Pf-HR :0.85540: L2-HR :0.84728: (Sim:1h38m13s) 
CPU  0 inst:   62000001 cyc:   43982501 now IPC :1.28955: AVG IPC :1.39547: L2-Pf-HR :0.85832: L2-HR :0.84489: (Sim:1h38m19s) 
CPU  1 inst:   62000001 cyc:   44101670 now IPC :1.21163: AVG IPC :1.39164: L2-Pf-HR :0.85649: L2-HR :0.84622: (Sim:1h38m25s) 
CPU  3 inst:   62000001 cyc:   44115951 now IPC :1.24176: AVG IPC :1.39118: L2-Pf-HR :0.85801: L2-HR :0.84671: (Sim:1h38m26s) 
CPU  2 inst:   64000002 cyc:   44641917 now IPC :1.22011: AVG IPC :1.42021: L2-Pf-HR :0.85537: L2-HR :0.84726: (Sim:1h39m3s) 
CPU  0 inst:   63000000 cyc:   44700732 now IPC :1.39231: AVG IPC :1.39542: L2-Pf-HR :0.85798: L2-HR :0.84462: (Sim:1h39m7s) 
CPU  1 inst:   63000000 cyc:   44775930 now IPC :1.48311: AVG IPC :1.39305: L2-Pf-HR :0.85667: L2-HR :0.84624: (Sim:1h39m13s) 
CPU  3 inst:   63000000 cyc:   44794350 now IPC :1.47406: AVG IPC :1.39246: L2-Pf-HR :0.85816: L2-HR :0.84674: (Sim:1h39m14s) 
CPU  2 inst:   65000001 cyc:   45227427 now IPC :1.70791: AVG IPC :1.42402: L2-Pf-HR :0.85515: L2-HR :0.84712: (Sim:1h39m49s) 
CPU  0 inst:   64000002 cyc:   45271934 now IPC :1.75070: AVG IPC :1.40001: L2-Pf-HR :0.85853: L2-HR :0.84513: (Sim:1h39m53s) 
CPU  1 inst:   64000005 cyc:   45439288 now IPC :1.50749: AVG IPC :1.39476: L2-Pf-HR :0.85713: L2-HR :0.84651: (Sim:1h40m2s) 
CPU  3 inst:   64000000 cyc:   45477910 now IPC :1.46293: AVG IPC :1.39354: L2-Pf-HR :0.85858: L2-HR :0.84693: (Sim:1h40m4s) 
CPU  2 inst:   66000003 cyc:   45858743 now IPC :1.58400: AVG IPC :1.42627: L2-Pf-HR :0.85563: L2-HR :0.84767: (Sim:1h40m31s) 
CPU  0 inst:   65000001 cyc:   46032616 now IPC :1.31461: AVG IPC :1.39856: L2-Pf-HR :0.85775: L2-HR :0.84454: (Sim:1h40m40s) 
CPU  1 inst:   65000001 cyc:   46171309 now IPC :1.36608: AVG IPC :1.39429: L2-Pf-HR :0.85684: L2-HR :0.84607: (Sim:1h40m49s) 
CPU  3 inst:   65000001 cyc:   46185899 now IPC :1.41245: AVG IPC :1.39384: L2-Pf-HR :0.85811: L2-HR :0.84647: (Sim:1h40m50s) 
CPU  0 inst:   66000003 cyc:   46734248 now IPC :1.42525: AVG IPC :1.39897: L2-Pf-HR :0.85889: L2-HR :0.84558: (Sim:1h41m20s) 
CPU  3 inst:   66000003 cyc:   47081381 now IPC :1.11672: AVG IPC :1.38846: L2-Pf-HR :0.85915: L2-HR :0.84729: (Sim:1h41m38s) 
CPU  1 inst:   66000003 cyc:   47121749 now IPC :1.05215: AVG IPC :1.38724: L2-Pf-HR :0.85796: L2-HR :0.84677: (Sim:1h41m41s) 
CPU  2 inst:   67000004 cyc:   58136859 now IPC :0.08145: AVG IPC :1.13735: L2-Pf-HR :0.83249: L2-HR :0.81080: (Sim:1h52m30s) 
CPU  0 inst:   67000001 cyc:   64376804 now IPC :0.05668: AVG IPC :1.02539: L2-Pf-HR :0.83515: L2-HR :0.80854: (Sim:1h58m50s) 
CPU  3 inst:   67000001 cyc:   65808772 now IPC :0.05340: AVG IPC :1.00275: L2-Pf-HR :0.83571: L2-HR :0.81043: (Sim:2h0m12s) 
CPU  1 inst:   67000001 cyc:   65893364 now IPC :0.05327: AVG IPC :1.00144: L2-Pf-HR :0.83456: L2-HR :0.80984: (Sim:2h0m17s) 
CPU  2 inst:   68000005 cyc:   69686207 now IPC :0.08659: AVG IPC :0.96070: L2-Pf-HR :0.81980: L2-HR :0.79798: (Sim:2h3m58s) 
CPU  0 inst:   68000005 cyc:   72718870 now IPC :0.11987: AVG IPC :0.92008: L2-Pf-HR :0.82169: L2-HR :0.79563: (Sim:2h6m48s) 
CPU  3 inst:   68000005 cyc:   73014381 now IPC :0.13878: AVG IPC :0.91632: L2-Pf-HR :0.82227: L2-HR :0.79760: (Sim:2h7m6s) 
CPU  1 inst:   68000005 cyc:   73025567 now IPC :0.14021: AVG IPC :0.91618: L2-Pf-HR :0.82105: L2-HR :0.79698: (Sim:2h7m7s) 
CPU  2 inst:   69000001 cyc:   73289057 now IPC :0.27756: AVG IPC :0.92666: L2-Pf-HR :0.80982: L2-HR :0.79246: (Sim:2h7m23s) 
CPU  0 inst:   69000001 cyc:   76124377 now IPC :0.29364: AVG IPC :0.89169: L2-Pf-HR :0.81139: L2-HR :0.79005: (Sim:2h10m14s) 
CPU  3 inst:   69000001 cyc:   76417341 now IPC :0.29386: AVG IPC :0.88824: L2-Pf-HR :0.81212: L2-HR :0.79204: (Sim:2h10m32s) 
CPU  1 inst:   69000001 cyc:   76427888 now IPC :0.29392: AVG IPC :0.88811: L2-Pf-HR :0.81086: L2-HR :0.79141: (Sim:2h10m32s) 
CPU  2 inst:   70000005 cyc:   76691137 now IPC :0.29394: AVG IPC :0.89822: L2-Pf-HR :0.79997: L2-HR :0.78704: (Sim:2h10m48s) 
CPU  0 inst:   70000005 cyc:   79526953 now IPC :0.29390: AVG IPC :0.86579: L2-Pf-HR :0.80136: L2-HR :0.78461: (Sim:2h13m39s) 
CPU  3 inst:   70000005 cyc:   79817814 now IPC :0.29408: AVG IPC :0.86261: L2-Pf-HR :0.80224: L2-HR :0.78662: (Sim:2h13m57s) 
CPU  1 inst:   70000005 cyc:   79829540 now IPC :0.29398: AVG IPC :0.86248: L2-Pf-HR :0.80091: L2-HR :0.78598: (Sim:2h13m58s) 
CPU  2 inst:   71000005 cyc:   80091938 now IPC :0.29405: AVG IPC :0.87225: L2-Pf-HR :0.79037: L2-HR :0.78175: (Sim:2h14m14s) 
CPU  0 inst:   71000005 cyc:   82928198 now IPC :0.29401: AVG IPC :0.84206: L2-Pf-HR :0.79158: L2-HR :0.77930: (Sim:2h17m5s) 
CPU  3 inst:   71000005 cyc:   83218686 now IPC :0.29404: AVG IPC :0.83909: L2-Pf-HR :0.79262: L2-HR :0.78135: (Sim:2h17m23s) 
CPU  1 inst:   71000005 cyc:   83229171 now IPC :0.29415: AVG IPC :0.83899: L2-Pf-HR :0.79121: L2-HR :0.78066: (Sim:2h17m23s) 
CPU  2 inst:   72000001 cyc:   83494746 now IPC :0.29387: AVG IPC :0.84839: L2-Pf-HR :0.78101: L2-HR :0.77660: (Sim:2h17m39s) 
CPU  0 inst:   72000001 cyc:   86328222 now IPC :0.29411: AVG IPC :0.82023: L2-Pf-HR :0.78201: L2-HR :0.77410: (Sim:2h20m30s) 
CPU  3 inst:   72000001 cyc:   86619785 now IPC :0.29402: AVG IPC :0.81744: L2-Pf-HR :0.78323: L2-HR :0.77619: (Sim:2h20m48s) 
CPU  1 inst:   72000001 cyc:   86630155 now IPC :0.29403: AVG IPC :0.81735: L2-Pf-HR :0.78174: L2-HR :0.77548: (Sim:2h20m49s) 
CPU  2 inst:   73000001 cyc:   86895268 now IPC :0.29407: AVG IPC :0.82645: L2-Pf-HR :0.77185: L2-HR :0.77155: (Sim:2h21m5s) 
CPU  0 inst:   73000001 cyc:   89728687 now IPC :0.29408: AVG IPC :0.80006: L2-Pf-HR :0.77266: L2-HR :0.76901: (Sim:2h23m56s) 
CPU  3 inst:   73000001 cyc:   90020218 now IPC :0.29408: AVG IPC :0.79746: L2-Pf-HR :0.77406: L2-HR :0.77116: (Sim:2h24m13s) 
CPU  1 inst:   73000001 cyc:   90031421 now IPC :0.29401: AVG IPC :0.79736: L2-Pf-HR :0.77249: L2-HR :0.77041: (Sim:2h24m14s) 
CPU  2 inst:   74000005 cyc:   90295395 now IPC :0.29411: AVG IPC :0.80619: L2-Pf-HR :0.76292: L2-HR :0.76662: (Sim:2h24m30s) 
CPU  0 inst:   74000005 cyc:   93129184 now IPC :0.29408: AVG IPC :0.78139: L2-Pf-HR :0.76355: L2-HR :0.76405: (Sim:2h27m21s) 
CPU  3 inst:   74000005 cyc:   93422082 now IPC :0.29396: AVG IPC :0.77893: L2-Pf-HR :0.76508: L2-HR :0.76622: (Sim:2h27m39s) 
CPU  1 inst:   74000005 cyc:   93431609 now IPC :0.29410: AVG IPC :0.77885: L2-Pf-HR :0.76346: L2-HR :0.76545: (Sim:2h27m40s) 
CPU  2 inst:   75000005 cyc:   93696548 now IPC :0.29402: AVG IPC :0.78740: L2-Pf-HR :0.75423: L2-HR :0.76182: (Sim:2h27m56s) 
CPU  0 inst:   75000005 cyc:   96530690 now IPC :0.29399: AVG IPC :0.76404: L2-Pf-HR :0.75466: L2-HR :0.75921: (Sim:2h30m47s) 
CPU  3 inst:   75000005 cyc:   96823691 now IPC :0.29398: AVG IPC :0.76171: L2-Pf-HR :0.75630: L2-HR :0.76139: (Sim:2h31m5s) 
CPU  1 inst:   75000005 cyc:   96833711 now IPC :0.29394: AVG IPC :0.76163: L2-Pf-HR :0.75464: L2-HR :0.76061: (Sim:2h31m5s) 
CPU  2 inst:   76000001 cyc:   97097002 now IPC :0.29408: AVG IPC :0.76994: L2-Pf-HR :0.74569: L2-HR :0.75711: (Sim:2h31m21s) 
CPU  0 inst:   76000001 cyc:   99932137 now IPC :0.29399: AVG IPC :0.74788: L2-Pf-HR :0.74599: L2-HR :0.75448: (Sim:2h34m10s) 
CPU  3 inst:   76000001 cyc:  100224874 now IPC :0.29401: AVG IPC :0.74568: L2-Pf-HR :0.74772: L2-HR :0.75666: (Sim:2h34m28s) 
CPU  1 inst:   76000001 cyc:  100234344 now IPC :0.29406: AVG IPC :0.74561: L2-Pf-HR :0.74602: L2-HR :0.75587: (Sim:2h34m28s) 
CPU  2 inst:   77000001 cyc:  100497817 now IPC :0.29405: AVG IPC :0.75368: L2-Pf-HR :0.73739: L2-HR :0.75252: (Sim:2h34m44s) 
CPU  0 inst:   77000001 cyc:  103332659 now IPC :0.29407: AVG IPC :0.73280: L2-Pf-HR :0.73751: L2-HR :0.74985: (Sim:2h37m33s) 
CPU  3 inst:   77000001 cyc:  103625404 now IPC :0.29407: AVG IPC :0.73072: L2-Pf-HR :0.73934: L2-HR :0.75204: (Sim:2h37m50s) 
CPU  1 inst:   77000001 cyc:  103634839 now IPC :0.29407: AVG IPC :0.73065: L2-Pf-HR :0.73759: L2-HR :0.75124: (Sim:2h37m51s) 
CPU  2 inst:   78000005 cyc:  103899431 now IPC :0.29398: AVG IPC :0.73848: L2-Pf-HR :0.72926: L2-HR :0.74802: (Sim:2h38m7s) 
CPU  0 inst:   78000005 cyc:  106733344 now IPC :0.29406: AVG IPC :0.71869: L2-Pf-HR :0.72923: L2-HR :0.74533: (Sim:2h40m55s) 
CPU  3 inst:   78000005 cyc:  107026063 now IPC :0.29406: AVG IPC :0.71672: L2-Pf-HR :0.73113: L2-HR :0.74752: (Sim:2h41m13s) 
CPU  1 inst:   78000005 cyc:  107035678 now IPC :0.29405: AVG IPC :0.71665: L2-Pf-HR :0.72936: L2-HR :0.74671: (Sim:2h41m13s) 
CPU  2 inst:   79000000 cyc:  107301267 now IPC :0.29396: AVG IPC :0.72426: L2-Pf-HR :0.72131: L2-HR :0.74362: (Sim:2h41m29s) 
CPU  0 inst:   79000000 cyc:  110135039 now IPC :0.29397: AVG IPC :0.70546: L2-Pf-HR :0.72113: L2-HR :0.74090: (Sim:2h44m18s) 
CPU  3 inst:   79000000 cyc:  110428048 now IPC :0.29394: AVG IPC :0.70358: L2-Pf-HR :0.72310: L2-HR :0.74309: (Sim:2h44m35s) 
CPU  1 inst:   79000000 cyc:  110437996 now IPC :0.29392: AVG IPC :0.70351: L2-Pf-HR :0.72130: L2-HR :0.74228: (Sim:2h44m36s) 
CPU  2 inst:   80000001 cyc:  110703702 now IPC :0.29391: AVG IPC :0.71091: L2-Pf-HR :0.71351: L2-HR :0.73930: (Sim:2h44m51s) 
CPU  0 inst:   80000001 cyc:  113536684 now IPC :0.29398: AVG IPC :0.69302: L2-Pf-HR :0.71321: L2-HR :0.73656: (Sim:2h47m40s) 
CPU  3 inst:   80000001 cyc:  113829791 now IPC :0.29397: AVG IPC :0.69123: L2-Pf-HR :0.71525: L2-HR :0.73875: (Sim:2h47m57s) 
CPU  1 inst:   80000001 cyc:  113838621 now IPC :0.29406: AVG IPC :0.69117: L2-Pf-HR :0.71343: L2-HR :0.73794: (Sim:2h47m58s) 
CPU  2 inst:   81000005 cyc:  114104032 now IPC :0.29409: AVG IPC :0.69838: L2-Pf-HR :0.70587: L2-HR :0.73506: (Sim:2h48m14s) 
CPU  0 inst:   81000005 cyc:  116938173 now IPC :0.29399: AVG IPC :0.68131: L2-Pf-HR :0.70546: L2-HR :0.73232: (Sim:2h51m2s) 
CPU  3 inst:   81000005 cyc:  117231142 now IPC :0.29400: AVG IPC :0.67960: L2-Pf-HR :0.70757: L2-HR :0.73451: (Sim:2h51m20s) 
CPU  1 inst:   81000005 cyc:  117241269 now IPC :0.29389: AVG IPC :0.67955: L2-Pf-HR :0.70572: L2-HR :0.73369: (Sim:2h51m20s) 
CPU  2 inst:   82000005 cyc:  117504862 now IPC :0.29405: AVG IPC :0.68658: L2-Pf-HR :0.69843: L2-HR :0.73093: (Sim:2h51m36s) 
CPU  0 inst:   82000005 cyc:  120339304 now IPC :0.29402: AVG IPC :0.67028: L2-Pf-HR :0.69789: L2-HR :0.72817: (Sim:2h54m25s) 
CPU  3 inst:   82000005 cyc:  120632154 now IPC :0.29403: AVG IPC :0.66864: L2-Pf-HR :0.70005: L2-HR :0.73035: (Sim:2h54m42s) 
CPU  1 inst:   82000005 cyc:  120641639 now IPC :0.29409: AVG IPC :0.66859: L2-Pf-HR :0.69817: L2-HR :0.72953: (Sim:2h54m43s) 
CPU  2 inst:   83000001 cyc:  120906169 now IPC :0.29400: AVG IPC :0.67545: L2-Pf-HR :0.69115: L2-HR :0.72690: (Sim:2h54m58s) 
CPU  0 inst:   83000001 cyc:  123786583 now IPC :0.29008: AVG IPC :0.65960: L2-Pf-HR :0.69054: L2-HR :0.72412: (Sim:2h57m49s) 
CPU  2 inst:   84000003 cyc:  124029823 now IPC :0.32014: AVG IPC :0.66643: L2-Pf-HR :0.68410: L2-HR :0.72190: (Sim:2h58m13s) 
CPU  3 inst:   83000001 cyc:  124091250 now IPC :0.28909: AVG IPC :0.65798: L2-Pf-HR :0.69280: L2-HR :0.72631: (Sim:2h58m19s) 
CPU  1 inst:   83000001 cyc:  124100352 now IPC :0.28912: AVG IPC :0.65793: L2-Pf-HR :0.69090: L2-HR :0.72548: (Sim:2h58m19s) 
CPU  2 inst:   85000004 cyc:  124615836 now IPC :1.70645: AVG IPC :0.67136: L2-Pf-HR :0.68669: L2-HR :0.72335: (Sim:2h59m12s) 
CPU  2 inst:   86000002 cyc:  125461844 now IPC :1.18202: AVG IPC :0.67483: L2-Pf-HR :0.68860: L2-HR :0.72477: (Sim:3h0m27s) 
CPU  2 inst:   87000002 cyc:  125933932 now IPC :2.11825: AVG IPC :0.68028: L2-Pf-HR :0.69109: L2-HR :0.72641: (Sim:3h1m10s) 
CPU  2 inst:   88000004 cyc:  126828180 now IPC :1.11826: AVG IPC :0.68339: L2-Pf-HR :0.69349: L2-HR :0.72840: (Sim:3h2m11s) 
CPU  0 inst:   84000003 cyc:  127296681 now IPC :0.28489: AVG IPC :0.64919: L2-Pf-HR :0.68328: L2-HR :0.71916: (Sim:3h3m0s) 
CPU  2 inst:   89000001 cyc:  127836652 now IPC :0.99160: AVG IPC :0.68584: L2-Pf-HR :0.69507: L2-HR :0.72939: (Sim:3h4m11s) 
CPU  3 inst:   84000003 cyc:  127992171 now IPC :0.25635: AVG IPC :0.64564: L2-Pf-HR :0.68583: L2-HR :0.72137: (Sim:3h4m46s) 
CPU  1 inst:   84000003 cyc:  128005675 now IPC :0.25606: AVG IPC :0.64557: L2-Pf-HR :0.68382: L2-HR :0.72046: (Sim:3h4m49s) 
CPU  0 inst:   85000004 cyc:  128064498 now IPC :1.30239: AVG IPC :0.65314: L2-Pf-HR :0.68590: L2-HR :0.72064: (Sim:3h4m58s) 
CPU  2 inst:   90000000 cyc:  128339339 now IPC :1.98931: AVG IPC :0.69099: L2-Pf-HR :0.69797: L2-HR :0.73137: (Sim:3h6m2s) 
CPU  1 inst:   85000004 cyc:  128709984 now IPC :1.41983: AVG IPC :0.64984: L2-Pf-HR :0.68642: L2-HR :0.72192: (Sim:3h7m9s) 
CPU  3 inst:   85000004 cyc:  128731968 now IPC :1.35172: AVG IPC :0.64973: L2-Pf-HR :0.68835: L2-HR :0.72275: (Sim:3h7m12s) 
CPU  0 inst:   86000002 cyc:  128893707 now IPC :1.20597: AVG IPC :0.65672: L2-Pf-HR :0.68839: L2-HR :0.72243: (Sim:3h7m48s) 
CPU  2 inst:   91000005 cyc:  129105130 now IPC :1.30585: AVG IPC :0.69466: L2-Pf-HR :0.69885: L2-HR :0.73224: (Sim:3h8m28s) 
CPU  0 inst:   87000002 cyc:  129432520 now IPC :1.85593: AVG IPC :0.66175: L2-Pf-HR :0.69059: L2-HR :0.72381: (Sim:3h9m14s) 
CPU  1 inst:   86000002 cyc:  129652673 now IPC :1.06079: AVG IPC :0.65285: L2-Pf-HR :0.68847: L2-HR :0.72348: (Sim:3h9m56s) 
CPU  3 inst:   86000002 cyc:  129693864 now IPC :1.03961: AVG IPC :0.65265: L2-Pf-HR :0.69027: L2-HR :0.72419: (Sim:3h10m3s) 
CPU  2 inst:   92000005 cyc:  129701634 now IPC :1.67643: AVG IPC :0.69921: L2-Pf-HR :0.70143: L2-HR :0.73400: (Sim:3h10m4s) 
CPU  0 inst:   88000002 cyc:  130160822 now IPC :1.37306: AVG IPC :0.66576: L2-Pf-HR :0.69315: L2-HR :0.72585: (Sim:3h11m15s) 
CPU  1 inst:   87000002 cyc:  130237574 now IPC :1.70969: AVG IPC :0.65764: L2-Pf-HR :0.69093: L2-HR :0.72509: (Sim:3h11m28s) 
CPU  3 inst:   87000002 cyc:  130242197 now IPC :1.82371: AVG IPC :0.65761: L2-Pf-HR :0.69283: L2-HR :0.72590: (Sim:3h11m29s) 
CPU  2 inst:   93000002 cyc:  130486753 now IPC :1.27369: AVG IPC :0.70270: L2-Pf-HR :0.70268: L2-HR :0.73510: (Sim:3h12m15s) 
CPU  0 inst:   89000001 cyc:  130730088 now IPC :1.75665: AVG IPC :0.67055: L2-Pf-HR :0.69495: L2-HR :0.72693: (Sim:3h12m58s) 
CPU  1 inst:   88000005 cyc:  130963291 now IPC :1.37795: AVG IPC :0.66166: L2-Pf-HR :0.69345: L2-HR :0.72711: (Sim:3h13m27s) 
CPU  3 inst:   88000001 cyc:  131014957 now IPC :1.29406: AVG IPC :0.66140: L2-Pf-HR :0.69518: L2-HR :0.72787: (Sim:3h13m34s) 
CPU  2 inst:   94000001 cyc:  131061159 now IPC :1.74093: AVG IPC :0.70728: L2-Pf-HR :0.70500: L2-HR :0.73665: (Sim:3h13m47s) 
CPU  0 inst:   90000000 cyc:  131361983 now IPC :1.58254: AVG IPC :0.67497: L2-Pf-HR :0.69791: L2-HR :0.72889: (Sim:3h14m34s) 
CPU  1 inst:   89000001 cyc:  131730111 now IPC :1.30408: AVG IPC :0.66543: L2-Pf-HR :0.69524: L2-HR :0.72827: (Sim:3h15m32s) 
CPU  3 inst:   89000001 cyc:  131761667 now IPC :1.33921: AVG IPC :0.66527: L2-Pf-HR :0.69686: L2-HR :0.72900: (Sim:3h15m38s) 
CPU  2 inst:   95000001 cyc:  131864277 now IPC :1.24515: AVG IPC :0.71058: L2-Pf-HR :0.70630: L2-HR :0.73777: (Sim:3h15m57s) 
CPU  0 inst:   91000005 cyc:  132104546 now IPC :1.34669: AVG IPC :0.67877: L2-Pf-HR :0.69891: L2-HR :0.72988: (Sim:3h16m41s) 
CPU  1 inst:   90000000 cyc:  132212044 now IPC :2.07498: AVG IPC :0.67060: L2-Pf-HR :0.69812: L2-HR :0.73019: (Sim:3h17m0s) 
CPU  3 inst:   90000000 cyc:  132229198 now IPC :2.13889: AVG IPC :0.67052: L2-Pf-HR :0.69972: L2-HR :0.73099: (Sim:3h17m3s) 
CPU  2 inst:   96000004 cyc:  132322616 now IPC :2.18180: AVG IPC :0.71572: L2-Pf-HR :0.70861: L2-HR :0.73939: (Sim:3h17m15s) 
CPU  0 inst:   92000005 cyc:  132644877 now IPC :1.85072: AVG IPC :0.68358: L2-Pf-HR :0.70153: L2-HR :0.73177: (Sim:3h18m6s) 
CPU  1 inst:   91000005 cyc:  133088313 now IPC :1.14121: AVG IPC :0.67373: L2-Pf-HR :0.69928: L2-HR :0.73122: (Sim:3h19m17s) 
CPU  3 inst:   91000005 cyc:  133115697 now IPC :1.12804: AVG IPC :0.67359: L2-Pf-HR :0.70078: L2-HR :0.73201: (Sim:3h19m22s) 
CPU  2 inst:   97000000 cyc:  133141838 now IPC :1.22067: AVG IPC :0.71885: L2-Pf-HR :0.70968: L2-HR :0.74036: (Sim:3h19m26s) 
CPU  0 inst:   93000002 cyc:  133367602 now IPC :1.38365: AVG IPC :0.68741: L2-Pf-HR :0.70253: L2-HR :0.73274: (Sim:3h20m8s) 
CPU  1 inst:   92000005 cyc:  133537336 now IPC :2.22706: AVG IPC :0.67899: L2-Pf-HR :0.70182: L2-HR :0.73304: (Sim:3h20m39s) 
CPU  3 inst:   92000005 cyc:  133566934 now IPC :2.21613: AVG IPC :0.67884: L2-Pf-HR :0.70325: L2-HR :0.73379: (Sim:3h20m44s) 
CPU  2 inst:   98000002 cyc:  133588344 now IPC :2.23962: AVG IPC :0.72397: L2-Pf-HR :0.71187: L2-HR :0.74193: (Sim:3h20m48s) 
CPU  0 inst:   94000001 cyc:  133850000 now IPC :2.07297: AVG IPC :0.69244: L2-Pf-HR :0.70489: L2-HR :0.73440: (Sim:3h21m21s) 
CPU  1 inst:   93000002 cyc:  134424969 now IPC :1.12659: AVG IPC :0.68196: L2-Pf-HR :0.70313: L2-HR :0.73415: (Sim:3h22m50s) 
CPU  3 inst:   93000002 cyc:  134450667 now IPC :1.13156: AVG IPC :0.68183: L2-Pf-HR :0.70444: L2-HR :0.73487: (Sim:3h22m53s) 
CPU  2 inst:   99000003 cyc:  134475000 now IPC :1.12783: AVG IPC :0.72665: L2-Pf-HR :0.71274: L2-HR :0.74272: (Sim:3h22m58s) 
CPU  0 inst:   95000001 cyc:  134627311 now IPC :1.28649: AVG IPC :0.69589: L2-Pf-HR :0.70592: L2-HR :0.73534: (Sim:3h23m22s) 
CPU  1 inst:   94000001 cyc:  134866343 now IPC :2.26565: AVG IPC :0.68719: L2-Pf-HR :0.70541: L2-HR :0.73572: (Sim:3h24m0s) 
CPU  3 inst:   94000001 cyc:  134888010 now IPC :2.28653: AVG IPC :0.68707: L2-Pf-HR :0.70669: L2-HR :0.73648: (Sim:3h24m4s) 
CPU  2 inst:  100000005 cyc:  134931513 now IPC :2.19052: AVG IPC :0.73164: L2-Pf-HR :0.71486: L2-HR :0.74419: (Sim:3h24m10s) 
CPU  0 inst:   96000004 cyc:  135088787 now IPC :2.16697: AVG IPC :0.70095: L2-Pf-HR :0.70824: L2-HR :0.73703: (Sim:3h24m31s) 
CPU  1 inst:   95000001 cyc:  135736758 now IPC :1.14888: AVG IPC :0.69017: L2-Pf-HR :0.70640: L2-HR :0.73665: (Sim:3h26m0s) 
CPU  3 inst:   95000001 cyc:  135787616 now IPC :1.11160: AVG IPC :0.68991: L2-Pf-HR :0.70782: L2-HR :0.73747: (Sim:3h26m9s) 
CPU  2 inst:  101000001 cyc:  135822889 now IPC :1.12186: AVG IPC :0.73422: L2-Pf-HR :0.71583: L2-HR :0.74503: (Sim:3h26m15s) 
CPU  0 inst:   97000000 cyc:  135925983 now IPC :1.19446: AVG IPC :0.70402: L2-Pf-HR :0.70929: L2-HR :0.73799: (Sim:3h26m30s) 
CPU  1 inst:   96000004 cyc:  136184194 now IPC :2.23496: AVG IPC :0.69528: L2-Pf-HR :0.70867: L2-HR :0.73824: (Sim:3h27m14s) 
CPU  3 inst:   96000004 cyc:  136228898 now IPC :2.26613: AVG IPC :0.69505: L2-Pf-HR :0.71017: L2-HR :0.73919: (Sim:3h27m21s) 
CPU  2 inst:  102000005 cyc:  136263502 now IPC :2.26957: AVG IPC :0.73922: L2-Pf-HR :0.71787: L2-HR :0.74649: (Sim:3h27m28s) 
CPU  0 inst:   98000002 cyc:  136368449 now IPC :2.26007: AVG IPC :0.70910: L2-Pf-HR :0.71153: L2-HR :0.73963: (Sim:3h27m42s) 
CPU  1 inst:   97000000 cyc:  136995345 now IPC :1.23281: AVG IPC :0.69849: L2-Pf-HR :0.70982: L2-HR :0.73927: (Sim:3h28m59s) 
CPU  3 inst:   97000000 cyc:  137091683 now IPC :1.15903: AVG IPC :0.69799: L2-Pf-HR :0.71153: L2-HR :0.74024: (Sim:3h29m13s) 
CPU  2 inst:  103000003 cyc:  137092942 now IPC :1.20563: AVG IPC :0.74206: L2-Pf-HR :0.71854: L2-HR :0.74711: (Sim:3h29m14s) 
CPU  0 inst:   99000003 cyc:  137198130 now IPC :1.20528: AVG IPC :0.71212: L2-Pf-HR :0.71239: L2-HR :0.74040: (Sim:3h29m31s) 
CPU  1 inst:   98000002 cyc:  137441466 now IPC :2.24155: AVG IPC :0.70353: L2-Pf-HR :0.71206: L2-HR :0.74089: (Sim:3h30m11s) 
CPU  2 inst:  104000003 cyc:  137538052 now IPC :2.24664: AVG IPC :0.74697: L2-Pf-HR :0.72052: L2-HR :0.74857: (Sim:3h30m27s) 
CPU  3 inst:   98000002 cyc:  137546610 now IPC :2.19816: AVG IPC :0.70299: L2-Pf-HR :0.71374: L2-HR :0.74173: (Sim:3h30m28s) 
CPU  0 inst:  100000005 cyc:  137642344 now IPC :2.25117: AVG IPC :0.71713: L2-Pf-HR :0.71460: L2-HR :0.74203: (Sim:3h30m43s) 
CPU  1 inst:   99000003 cyc:  138181805 now IPC :1.35073: AVG IPC :0.70702: L2-Pf-HR :0.71300: L2-HR :0.74167: (Sim:3h31m51s) 
CPU  2 inst:  105000000 cyc:  138378356 now IPC :1.19004: AVG IPC :0.74968: L2-Pf-HR :0.72124: L2-HR :0.74926: (Sim:3h32m19s) 
CPU  3 inst:   99000003 cyc:  138396007 now IPC :1.17731: AVG IPC :0.70592: L2-Pf-HR :0.71435: L2-HR :0.74237: (Sim:3h32m21s) 
CPU  0 inst:  101000001 cyc:  138514476 now IPC :1.14661: AVG IPC :0.71985: L2-Pf-HR :0.71563: L2-HR :0.74287: (Sim:3h32m40s) 
CPU  1 inst:  100000005 cyc:  138663090 now IPC :2.07778: AVG IPC :0.71182: L2-Pf-HR :0.71520: L2-HR :0.74329: (Sim:3h33m5s) 
CPU  2 inst:  106000003 cyc:  138843274 now IPC :2.15092: AVG IPC :0.75440: L2-Pf-HR :0.72307: L2-HR :0.75059: (Sim:3h33m33s) 
CPU  3 inst:  100000005 cyc:  138850437 now IPC :2.20056: AVG IPC :0.71085: L2-Pf-HR :0.71654: L2-HR :0.74397: (Sim:3h33m34s) 
CPU  0 inst:  102000005 cyc:  138974770 now IPC :2.17253: AVG IPC :0.72470: L2-Pf-HR :0.71774: L2-HR :0.74429: (Sim:3h33m53s) 
CPU  1 inst:  101000001 cyc:  139349428 now IPC :1.45700: AVG IPC :0.71551: L2-Pf-HR :0.71604: L2-HR :0.74403: (Sim:3h34m49s) 
CPU  3 inst:  101000001 cyc:  139557041 now IPC :1.41521: AVG IPC :0.71444: L2-Pf-HR :0.71710: L2-HR :0.74458: (Sim:3h35m17s) 
CPU  2 inst:  107000002 cyc:  139595360 now IPC :1.32963: AVG IPC :0.75752: L2-Pf-HR :0.72411: L2-HR :0.75153: (Sim:3h35m23s) 
CPU  0 inst:  103000003 cyc:  139784063 now IPC :1.23564: AVG IPC :0.72767: L2-Pf-HR :0.71846: L2-HR :0.74490: (Sim:3h35m54s) 
CPU  1 inst:  102000005 cyc:  139860742 now IPC :1.95575: AVG IPC :0.72008: L2-Pf-HR :0.71811: L2-HR :0.74549: (Sim:3h36m5s) 
CPU  3 inst:  102000005 cyc:  140017551 now IPC :2.17151: AVG IPC :0.71927: L2-Pf-HR :0.71916: L2-HR :0.74608: (Sim:3h36m26s) 
CPU  2 inst:  108000002 cyc:  140078238 now IPC :2.07092: AVG IPC :0.76208: L2-Pf-HR :0.72580: L2-HR :0.75269: (Sim:3h36m36s) 
CPU  0 inst:  104000003 cyc:  140235285 now IPC :2.21620: AVG IPC :0.73250: L2-Pf-HR :0.72056: L2-HR :0.74645: (Sim:3h36m59s) 
CPU  1 inst:  103000003 cyc:  140510628 now IPC :1.53873: AVG IPC :0.72389: L2-Pf-HR :0.71936: L2-HR :0.74656: (Sim:3h37m38s) 
CPU  3 inst:  103000003 cyc:  140707069 now IPC :1.45029: AVG IPC :0.72287: L2-Pf-HR :0.72008: L2-HR :0.74696: (Sim:3h38m0s) 
CPU  2 inst:  109000001 cyc:  140723372 now IPC :1.55006: AVG IPC :0.76572: L2-Pf-HR :0.72748: L2-HR :0.75405: (Sim:3h38m2s) 
CPU  0 inst:  105000000 cyc:  140960965 now IPC :1.37801: AVG IPC :0.73584: L2-Pf-HR :0.72188: L2-HR :0.74759: (Sim:3h38m41s) 
CPU  1 inst:  104000003 cyc:  141044622 now IPC :1.87268: AVG IPC :0.72827: L2-Pf-HR :0.72117: L2-HR :0.74782: (Sim:3h38m54s) 
CPU  3 inst:  104000003 cyc:  141216698 now IPC :1.96221: AVG IPC :0.72738: L2-Pf-HR :0.72195: L2-HR :0.74830: (Sim:3h39m27s) 
CPU  2 inst:  110000005 cyc:  141302463 now IPC :1.72685: AVG IPC :0.76969: L2-Pf-HR :0.72849: L2-HR :0.75471: (Sim:3h39m42s) 
CPU  0 inst:  106000003 cyc:  141447705 now IPC :2.05449: AVG IPC :0.74041: L2-Pf-HR :0.72339: L2-HR :0.74864: (Sim:3h40m2s) 
CPU  1 inst:  105000000 cyc:  141704529 now IPC :1.51536: AVG IPC :0.73196: L2-Pf-HR :0.72192: L2-HR :0.74849: (Sim:3h40m42s) 
CPU  2 inst:  111000000 cyc:  141822296 now IPC :1.92369: AVG IPC :0.77395: L2-Pf-HR :0.73050: L2-HR :0.75607: (Sim:3h40m58s) 
CPU  3 inst:  105000000 cyc:  141865173 now IPC :1.54207: AVG IPC :0.73113: L2-Pf-HR :0.72315: L2-HR :0.74931: (Sim:3h41m4s) 
CPU  0 inst:  107000002 cyc:  142178034 now IPC :1.36924: AVG IPC :0.74367: L2-Pf-HR :0.72449: L2-HR :0.74960: (Sim:3h41m51s) 
CPU  1 inst:  106000003 cyc:  142207489 now IPC :1.98824: AVG IPC :0.73644: L2-Pf-HR :0.72373: L2-HR :0.74979: (Sim:3h41m56s) 
CPU  3 inst:  106000003 cyc:  142389564 now IPC :1.90698: AVG IPC :0.73549: L2-Pf-HR :0.72468: L2-HR :0.75031: (Sim:3h42m29s) 
CPU  2 inst:  112000000 cyc:  142540949 now IPC :1.39149: AVG IPC :0.77708: L2-Pf-HR :0.73108: L2-HR :0.75655: (Sim:3h42m56s) 
CPU  0 inst:  108000002 cyc:  142647722 now IPC :2.12907: AVG IPC :0.74826: L2-Pf-HR :0.72623: L2-HR :0.75071: (Sim:3h43m13s) 
CPU  1 inst:  107000002 cyc:  142837577 now IPC :1.58708: AVG IPC :0.74022: L2-Pf-HR :0.72455: L2-HR :0.75057: (Sim:3h43m42s) 
CPU  3 inst:  107000002 cyc:  143012634 now IPC :1.60495: AVG IPC :0.73930: L2-Pf-HR :0.72595: L2-HR :0.75134: (Sim:3h44m8s) 
CPU  2 inst:  113000005 cyc:  143058598 now IPC :1.93182: AVG IPC :0.78129: L2-Pf-HR :0.73283: L2-HR :0.75779: (Sim:3h44m15s) 
CPU  0 inst:  109000001 cyc:  143304037 now IPC :1.52366: AVG IPC :0.75184: L2-Pf-HR :0.72775: L2-HR :0.75198: (Sim:3h44m49s) 
CPU  1 inst:  108000002 cyc:  143336641 now IPC :2.00375: AVG IPC :0.74465: L2-Pf-HR :0.72620: L2-HR :0.75172: (Sim:3h44m53s) 
CPU  3 inst:  108000002 cyc:  143551055 now IPC :1.85728: AVG IPC :0.74353: L2-Pf-HR :0.72731: L2-HR :0.75221: (Sim:3h45m35s) 
CPU  2 inst:  114000005 cyc:  143791771 now IPC :1.36393: AVG IPC :0.78428: L2-Pf-HR :0.73347: L2-HR :0.75840: (Sim:3h46m18s) 
CPU  1 inst:  109000004 cyc:  143904021 now IPC :1.76249: AVG IPC :0.74869: L2-Pf-HR :0.72775: L2-HR :0.75305: (Sim:3h46m35s) 
CPU  0 inst:  110000005 cyc:  143916144 now IPC :1.63371: AVG IPC :0.75561: L2-Pf-HR :0.72882: L2-HR :0.75263: (Sim:3h46m37s) 
CPU  3 inst:  109000001 cyc:  144120072 now IPC :1.75741: AVG IPC :0.74756: L2-Pf-HR :0.72889: L2-HR :0.75353: (Sim:3h47m7s) 
CPU  2 inst:  115000000 cyc:  144282253 now IPC :2.03880: AVG IPC :0.78858: L2-Pf-HR :0.73508: L2-HR :0.75956: (Sim:3h47m32s) 
CPU  0 inst:  111000000 cyc:  144436158 now IPC :1.92302: AVG IPC :0.75984: L2-Pf-HR :0.73086: L2-HR :0.75407: (Sim:3h47m57s) 
CPU  1 inst:  110000005 cyc:  144510947 now IPC :1.64765: AVG IPC :0.75249: L2-Pf-HR :0.72867: L2-HR :0.75373: (Sim:3h48m4s) 
CPU  3 inst:  110000005 cyc:  144735659 now IPC :1.62447: AVG IPC :0.75131: L2-Pf-HR :0.73003: L2-HR :0.75422: (Sim:3h48m37s) 
CPU  1 inst:  111000000 cyc:  145028977 now IPC :1.93038: AVG IPC :0.75672: L2-Pf-HR :0.73064: L2-HR :0.75516: (Sim:3h49m28s) 
CPU  2 inst:  116000003 cyc:  145034604 now IPC :1.32917: AVG IPC :0.79140: L2-Pf-HR :0.73567: L2-HR :0.76013: (Sim:3h49m29s) 
CPU  0 inst:  112000000 cyc:  145193000 now IPC :1.32128: AVG IPC :0.76279: L2-Pf-HR :0.73128: L2-HR :0.75453: (Sim:3h49m52s) 
CPU  3 inst:  111000000 cyc:  145210487 now IPC :2.10602: AVG IPC :0.75577: L2-Pf-HR :0.73193: L2-HR :0.75557: (Sim:3h49m57s) 
CPU  2 inst:  117000000 cyc:  145521788 now IPC :2.05261: AVG IPC :0.79565: L2-Pf-HR :0.73726: L2-HR :0.76129: (Sim:3h50m41s) 
CPU  0 inst:  113000005 cyc:  145659458 now IPC :2.14383: AVG IPC :0.76724: L2-Pf-HR :0.73304: L2-HR :0.75583: (Sim:3h51m4s) 
CPU  1 inst:  112000000 cyc:  145661822 now IPC :1.58017: AVG IPC :0.76033: L2-Pf-HR :0.73094: L2-HR :0.75561: (Sim:3h51m4s) 
CPU  3 inst:  112000000 cyc:  145854967 now IPC :1.55164: AVG IPC :0.75931: L2-Pf-HR :0.73245: L2-HR :0.75610: (Sim:3h51m28s) 
CPU  1 inst:  113000005 cyc:  146158174 now IPC :2.01471: AVG IPC :0.76461: L2-Pf-HR :0.73269: L2-HR :0.75693: (Sim:3h52m18s) 
CPU  2 inst:  118000003 cyc:  146224630 now IPC :1.42280: AVG IPC :0.79869: L2-Pf-HR :0.73772: L2-HR :0.76175: (Sim:3h52m29s) 
CPU  3 inst:  113000005 cyc:  146334113 now IPC :2.08706: AVG IPC :0.76369: L2-Pf-HR :0.73417: L2-HR :0.75737: (Sim:3h52m45s) 
CPU  0 inst:  114000005 cyc:  146391909 now IPC :1.36528: AVG IPC :0.77026: L2-Pf-HR :0.73356: L2-HR :0.75641: (Sim:3h52m53s) 
CPU  2 inst:  119000002 cyc:  146736954 now IPC :1.95189: AVG IPC :0.80274: L2-Pf-HR :0.73929: L2-HR :0.76292: (Sim:3h53m49s) 
CPU  1 inst:  114000005 cyc:  146852551 now IPC :1.44014: AVG IPC :0.76783: L2-Pf-HR :0.73326: L2-HR :0.75751: (Sim:3h54m6s) 
CPU  0 inst:  115000000 cyc:  146856266 now IPC :2.15350: AVG IPC :0.77466: L2-Pf-HR :0.73518: L2-HR :0.75762: (Sim:3h54m7s) 
CPU  3 inst:  114000005 cyc:  147023167 now IPC :1.45127: AVG IPC :0.76693: L2-Pf-HR :0.73464: L2-HR :0.75789: (Sim:3h54m31s) 
CPU  1 inst:  115000000 cyc:  147388311 now IPC :1.86650: AVG IPC :0.77185: L2-Pf-HR :0.73491: L2-HR :0.75871: (Sim:3h55m26s) 
CPU  2 inst:  120000001 cyc:  147495824 now IPC :1.31775: AVG IPC :0.80541: L2-Pf-HR :0.73971: L2-HR :0.76334: (Sim:3h55m44s) 
CPU  3 inst:  115000000 cyc:  147512003 now IPC :2.04567: AVG IPC :0.77120: L2-Pf-HR :0.73623: L2-HR :0.75906: (Sim:3h55m46s) 
CPU  0 inst:  116000003 cyc:  147617607 now IPC :1.31348: AVG IPC :0.77746: L2-Pf-HR :0.73556: L2-HR :0.75808: (Sim:3h56m0s) 
CPU  2 inst:  121000005 cyc:  147975544 now IPC :2.08456: AVG IPC :0.80958: L2-Pf-HR :0.74129: L2-HR :0.76453: (Sim:3h56m55s) 
CPU  1 inst:  116000003 cyc:  148071987 now IPC :1.46269: AVG IPC :0.77506: L2-Pf-HR :0.73561: L2-HR :0.75936: (Sim:3h57m9s) 
CPU  0 inst:  117000000 cyc:  148102875 now IPC :2.06071: AVG IPC :0.78169: L2-Pf-HR :0.73721: L2-HR :0.75934: (Sim:3h57m14s) 
CPU  3 inst:  116000003 cyc:  148200279 now IPC :1.45291: AVG IPC :0.77439: L2-Pf-HR :0.73650: L2-HR :0.75941: (Sim:3h57m29s) 
CPU  1 inst:  117000000 cyc:  148616435 now IPC :1.83672: AVG IPC :0.77898: L2-Pf-HR :0.73701: L2-HR :0.76032: (Sim:3h58m35s) 
CPU  3 inst:  117000000 cyc:  148684689 now IPC :2.06436: AVG IPC :0.77862: L2-Pf-HR :0.73815: L2-HR :0.76067: (Sim:3h58m46s) 
CPU  2 inst:  122000000 cyc:  148687940 now IPC :1.40371: AVG IPC :0.81245: L2-Pf-HR :0.74175: L2-HR :0.76497: (Sim:3h58m46s) 
CPU  0 inst:  118000003 cyc:  148842117 now IPC :1.35274: AVG IPC :0.78455: L2-Pf-HR :0.73775: L2-HR :0.75993: (Sim:3h59m8s) 
CPU  2 inst:  123000004 cyc:  149152202 now IPC :2.15396: AVG IPC :0.81665: L2-Pf-HR :0.74326: L2-HR :0.76610: (Sim:3h59m56s) 
CPU  1 inst:  118000003 cyc:  149288218 now IPC :1.48858: AVG IPC :0.78219: L2-Pf-HR :0.73758: L2-HR :0.76088: (Sim:4h0m19s) 
CPU  0 inst:  119000002 cyc:  149317791 now IPC :2.10228: AVG IPC :0.78877: L2-Pf-HR :0.73936: L2-HR :0.76115: (Sim:4h0m24s) 
CPU  3 inst:  118000003 cyc:  149391367 now IPC :1.41508: AVG IPC :0.78165: L2-Pf-HR :0.73885: L2-HR :0.76128: (Sim:4h0m34s) 
CPU  1 inst:  119000002 cyc:  149784114 now IPC :2.01655: AVG IPC :0.78631: L2-Pf-HR :0.73919: L2-HR :0.76211: (Sim:4h1m30s) 
CPU  2 inst:  124000005 cyc:  149843466 now IPC :1.44663: AVG IPC :0.81958: L2-Pf-HR :0.74362: L2-HR :0.76651: (Sim:4h1m39s) 
CPU  3 inst:  119000002 cyc:  149883906 now IPC :2.03029: AVG IPC :0.78578: L2-Pf-HR :0.74045: L2-HR :0.76241: (Sim:4h1m46s) 
CPU  0 inst:  120000001 cyc:  150013566 now IPC :1.43724: AVG IPC :0.79180: L2-Pf-HR :0.74014: L2-HR :0.76188: (Sim:4h2m5s) 
CPU  2 inst:  125000005 cyc:  150307521 now IPC :2.15492: AVG IPC :0.82373: L2-Pf-HR :0.74511: L2-HR :0.76763: (Sim:4h2m57s) 
CPU  1 inst:  120000001 cyc:  150439988 now IPC :1.52468: AVG IPC :0.78955: L2-Pf-HR :0.73978: L2-HR :0.76267: (Sim:4h3m21s) 
CPU  0 inst:  121000005 cyc:  150522754 now IPC :1.96392: AVG IPC :0.79579: L2-Pf-HR :0.74158: L2-HR :0.76287: (Sim:4h3m35s) 
CPU  3 inst:  120000001 cyc:  150573945 now IPC :1.44919: AVG IPC :0.78884: L2-Pf-HR :0.74067: L2-HR :0.76275: (Sim:4h3m44s) 
CPU  1 inst:  121000005 cyc:  150945305 now IPC :1.97896: AVG IPC :0.79355: L2-Pf-HR :0.74133: L2-HR :0.76377: (Sim:4h4m38s) 
CPU  2 inst:  126000004 cyc:  150973795 now IPC :1.50088: AVG IPC :0.82673: L2-Pf-HR :0.74560: L2-HR :0.76812: (Sim:4h4m42s) 
CPU  3 inst:  121000005 cyc:  151053290 now IPC :2.08619: AVG IPC :0.79298: L2-Pf-HR :0.74229: L2-HR :0.76399: (Sim:4h4m55s) 
CPU  0 inst:  122000000 cyc:  151198395 now IPC :1.48007: AVG IPC :0.79887: L2-Pf-HR :0.74208: L2-HR :0.76337: (Sim:4h5m16s) 
CPU  2 inst:  127000003 cyc:  151483822 now IPC :1.96068: AVG IPC :0.83058: L2-Pf-HR :0.74697: L2-HR :0.76914: (Sim:4h6m0s) 
CPU  1 inst:  122000000 cyc:  151667406 now IPC :1.38484: AVG IPC :0.79639: L2-Pf-HR :0.74180: L2-HR :0.76422: (Sim:4h6m31s) 
CPU  0 inst:  123000004 cyc:  151723343 now IPC :1.90496: AVG IPC :0.80272: L2-Pf-HR :0.74363: L2-HR :0.76443: (Sim:4h6m41s) 
CPU  3 inst:  122000000 cyc:  151765354 now IPC :1.40436: AVG IPC :0.79587: L2-Pf-HR :0.74247: L2-HR :0.76423: (Sim:4h6m48s) 
CPU  2 inst:  128000003 cyc:  152103891 now IPC :1.61272: AVG IPC :0.83379: L2-Pf-HR :0.74745: L2-HR :0.76963: (Sim:4h7m38s) 
CPU  1 inst:  123000004 cyc:  152139216 now IPC :2.11951: AVG IPC :0.80052: L2-Pf-HR :0.74328: L2-HR :0.76533: (Sim:4h7m43s) 
CPU  3 inst:  123000004 cyc:  152221483 now IPC :2.19237: AVG IPC :0.80008: L2-Pf-HR :0.74403: L2-HR :0.76543: (Sim:4h7m56s) 
CPU  0 inst:  124000005 cyc:  152355687 now IPC :1.58142: AVG IPC :0.80597: L2-Pf-HR :0.74439: L2-HR :0.76509: (Sim:4h8m17s) 
CPU  2 inst:  129000003 cyc:  152591052 now IPC :2.05271: AVG IPC :0.83770: L2-Pf-HR :0.74864: L2-HR :0.77048: (Sim:4h8m49s) 
CPU  1 inst:  124000005 cyc:  152833705 now IPC :1.43991: AVG IPC :0.80344: L2-Pf-HR :0.74375: L2-HR :0.76580: (Sim:4h9m28s) 
CPU  0 inst:  125000005 cyc:  152855141 now IPC :2.00219: AVG IPC :0.80991: L2-Pf-HR :0.74557: L2-HR :0.76593: (Sim:4h9m32s) 
CPU  3 inst:  124000005 cyc:  152908412 now IPC :1.45576: AVG IPC :0.80305: L2-Pf-HR :0.74440: L2-HR :0.76587: (Sim:4h9m40s) 
CPU  2 inst:  130000004 cyc:  153148634 now IPC :1.79346: AVG IPC :0.84120: L2-Pf-HR :0.74982: L2-HR :0.77148: (Sim:4h10m19s) 
CPU  1 inst:  125000005 cyc:  153321302 now IPC :2.05087: AVG IPC :0.80743: L2-Pf-HR :0.74520: L2-HR :0.76687: (Sim:4h10m45s) 
CPU  3 inst:  125000005 cyc:  153375362 now IPC :2.14156: AVG IPC :0.80715: L2-Pf-HR :0.74582: L2-HR :0.76696: (Sim:4h10m51s) 
CPU  0 inst:  126000004 cyc:  153538637 now IPC :1.46306: AVG IPC :0.81283: L2-Pf-HR :0.74603: L2-HR :0.76639: (Sim:4h11m19s) 
CPU  2 inst:  131000003 cyc:  153748376 now IPC :1.66738: AVG IPC :0.84445: L2-Pf-HR :0.75032: L2-HR :0.77188: (Sim:4h11m50s) 
CPU  0 inst:  127000003 cyc:  154036101 now IPC :2.01019: AVG IPC :0.81673: L2-Pf-HR :0.74738: L2-HR :0.76742: (Sim:4h12m30s) 
CPU  1 inst:  126000004 cyc:  154065024 now IPC :1.34459: AVG IPC :0.81004: L2-Pf-HR :0.74576: L2-HR :0.76742: (Sim:4h12m35s) 
CPU  3 inst:  126000004 cyc:  154116171 now IPC :1.34987: AVG IPC :0.80977: L2-Pf-HR :0.74625: L2-HR :0.76743: (Sim:4h12m43s) 
CPU  2 inst:  132000000 cyc:  154267616 now IPC :1.92589: AVG IPC :0.84811: L2-Pf-HR :0.75178: L2-HR :0.77297: (Sim:4h13m7s) 
CPU  1 inst:  127000003 cyc:  154539347 now IPC :2.10827: AVG IPC :0.81405: L2-Pf-HR :0.74711: L2-HR :0.76842: (Sim:4h13m49s) 
CPU  3 inst:  127000003 cyc:  154605897 now IPC :2.04196: AVG IPC :0.81370: L2-Pf-HR :0.74758: L2-HR :0.76844: (Sim:4h13m59s) 
CPU  0 inst:  128000003 cyc:  154707661 now IPC :1.48907: AVG IPC :0.81966: L2-Pf-HR :0.74784: L2-HR :0.76797: (Sim:4h14m18s) 
CPU  2 inst:  133000002 cyc:  154933132 now IPC :1.50260: AVG IPC :0.85094: L2-Pf-HR :0.75196: L2-HR :0.77325: (Sim:4h14m53s) 
CPU  0 inst:  129000003 cyc:  155178465 now IPC :2.12403: AVG IPC :0.82365: L2-Pf-HR :0.74907: L2-HR :0.76885: (Sim:4h15m28s) 
CPU  1 inst:  128000003 cyc:  155199587 now IPC :1.51460: AVG IPC :0.81705: L2-Pf-HR :0.74774: L2-HR :0.76905: (Sim:4h15m31s) 
CPU  3 inst:  128000003 cyc:  155329416 now IPC :1.38213: AVG IPC :0.81637: L2-Pf-HR :0.74797: L2-HR :0.76893: (Sim:4h15m52s) 
CPU  2 inst:  134000004 cyc:  155433831 now IPC :1.99721: AVG IPC :0.85466: L2-Pf-HR :0.75325: L2-HR :0.77423: (Sim:4h16m8s) 
CPU  1 inst:  129000003 cyc:  155708176 now IPC :1.96622: AVG IPC :0.82083: L2-Pf-HR :0.74892: L2-HR :0.76985: (Sim:4h16m53s) 
CPU  0 inst:  130000004 cyc:  155782101 now IPC :1.65663: AVG IPC :0.82689: L2-Pf-HR :0.75030: L2-HR :0.76989: (Sim:4h17m5s) 
CPU  3 inst:  129000003 cyc:  155804782 now IPC :2.10364: AVG IPC :0.82032: L2-Pf-HR :0.74923: L2-HR :0.76982: (Sim:4h17m9s) 
CPU  2 inst:  135000001 cyc:  156131411 now IPC :1.43352: AVG IPC :0.85726: L2-Pf-HR :0.75352: L2-HR :0.77452: (Sim:4h18m0s) 
CPU  1 inst:  130000004 cyc:  156251125 now IPC :1.84180: AVG IPC :0.82440: L2-Pf-HR :0.75014: L2-HR :0.77088: (Sim:4h18m14s) 
CPU  0 inst:  131000003 cyc:  156349222 now IPC :1.76329: AVG IPC :0.83031: L2-Pf-HR :0.75081: L2-HR :0.77025: (Sim:4h18m25s) 
CPU  3 inst:  130000004 cyc:  156416587 now IPC :1.63451: AVG IPC :0.82352: L2-Pf-HR :0.75036: L2-HR :0.77081: (Sim:4h18m38s) 
CPU  2 inst:  136000005 cyc:  156652386 now IPC :1.91949: AVG IPC :0.86082: L2-Pf-HR :0.75473: L2-HR :0.77542: (Sim:4h19m16s) 
CPU  0 inst:  132000000 cyc:  156842380 now IPC :2.02774: AVG IPC :0.83410: L2-Pf-HR :0.75230: L2-HR :0.77138: (Sim:4h19m42s) 
CPU  1 inst:  131000003 cyc:  156909762 now IPC :1.51829: AVG IPC :0.82733: L2-Pf-HR :0.75044: L2-HR :0.77115: (Sim:4h19m51s) 
CPU  3 inst:  131000003 cyc:  157055033 now IPC :1.56630: AVG IPC :0.82656: L2-Pf-HR :0.75075: L2-HR :0.77111: (Sim:4h20m12s) 
CPU  2 inst:  137000004 cyc:  157339710 now IPC :1.45492: AVG IPC :0.86343: L2-Pf-HR :0.75510: L2-HR :0.77580: (Sim:4h21m4s) 
CPU  1 inst:  132000000 cyc:  157395513 now IPC :2.05866: AVG IPC :0.83116: L2-Pf-HR :0.75189: L2-HR :0.77222: (Sim:4h21m14s) 
CPU  3 inst:  132000000 cyc:  157525621 now IPC :2.12499: AVG IPC :0.83047: L2-Pf-HR :0.75223: L2-HR :0.77220: (Sim:4h21m37s) 
CPU  0 inst:  133000002 cyc:  157538268 now IPC :1.43702: AVG IPC :0.83678: L2-Pf-HR :0.75260: L2-HR :0.77165: (Sim:4h21m39s) 
CPU  2 inst:  138000003 cyc:  157836056 now IPC :2.01472: AVG IPC :0.86707: L2-Pf-HR :0.75633: L2-HR :0.77674: (Sim:4h22m32s) 
CPU  0 inst:  134000004 cyc:  158022185 now IPC :2.06647: AVG IPC :0.84057: L2-Pf-HR :0.75386: L2-HR :0.77257: (Sim:4h23m5s) 
CPU  1 inst:  133000002 cyc:  158041096 now IPC :1.54899: AVG IPC :0.83411: L2-Pf-HR :0.75210: L2-HR :0.77250: (Sim:4h23m8s) 
CPU  3 inst:  133000004 cyc:  158197684 now IPC :1.48796: AVG IPC :0.83328: L2-Pf-HR :0.75236: L2-HR :0.77244: (Sim:4h23m35s) 
CPU  2 inst:  139000003 cyc:  158517985 now IPC :1.46643: AVG IPC :0.86966: L2-Pf-HR :0.75664: L2-HR :0.77708: (Sim:4h24m31s) 
CPU  1 inst:  134000004 cyc:  158533757 now IPC :2.02980: AVG IPC :0.83785: L2-Pf-HR :0.75339: L2-HR :0.77349: (Sim:4h24m34s) 
CPU  3 inst:  134000004 cyc:  158658215 now IPC :2.17141: AVG IPC :0.83719: L2-Pf-HR :0.75365: L2-HR :0.77345: (Sim:4h24m56s) 
CPU  0 inst:  135000001 cyc:  158714504 now IPC :1.44442: AVG IPC :0.84322: L2-Pf-HR :0.75402: L2-HR :0.77283: (Sim:4h25m6s) 
CPU  2 inst:  140000001 cyc:  159016089 now IPC :2.00761: AVG IPC :0.87325: L2-Pf-HR :0.75789: L2-HR :0.77801: (Sim:4h25m57s) 
CPU  0 inst:  136000005 cyc:  159177661 now IPC :2.15910: AVG IPC :0.84707: L2-Pf-HR :0.75525: L2-HR :0.77377: (Sim:4h26m27s) 
CPU  1 inst:  135000001 cyc:  159188168 now IPC :1.52809: AVG IPC :0.84070: L2-Pf-HR :0.75368: L2-HR :0.77379: (Sim:4h26m29s) 
CPU  3 inst:  135000001 cyc:  159319960 now IPC :1.51115: AVG IPC :0.84000: L2-Pf-HR :0.75381: L2-HR :0.77369: (Sim:4h26m51s) 
CPU  1 inst:  136000005 cyc:  159703763 now IPC :1.93951: AVG IPC :0.84427: L2-Pf-HR :0.75491: L2-HR :0.77469: (Sim:4h28m0s) 
CPU  2 inst:  141000004 cyc:  159710688 now IPC :1.43968: AVG IPC :0.87573: L2-Pf-HR :0.75812: L2-HR :0.77828: (Sim:4h28m1s) 
CPU  3 inst:  136000005 cyc:  159778009 now IPC :2.18318: AVG IPC :0.84388: L2-Pf-HR :0.75504: L2-HR :0.77462: (Sim:4h28m13s) 
CPU  0 inst:  137000004 cyc:  159896241 now IPC :1.39163: AVG IPC :0.84954: L2-Pf-HR :0.75545: L2-HR :0.77406: (Sim:4h28m34s) 
CPU  2 inst:  142000003 cyc:  160201909 now IPC :2.03574: AVG IPC :0.87931: L2-Pf-HR :0.75931: L2-HR :0.77919: (Sim:4h29m27s) 
CPU  0 inst:  138000003 cyc:  160380172 now IPC :2.06641: AVG IPC :0.85323: L2-Pf-HR :0.75670: L2-HR :0.77500: (Sim:4h30m0s) 
CPU  1 inst:  137000004 cyc:  160382594 now IPC :1.47312: AVG IPC :0.84695: L2-Pf-HR :0.75521: L2-HR :0.77503: (Sim:4h30m0s) 
CPU  3 inst:  137000004 cyc:  160482842 now IPC :1.41877: AVG IPC :0.84642: L2-Pf-HR :0.75531: L2-HR :0.77494: (Sim:4h30m19s) 
CPU  1 inst:  138000003 cyc:  160888165 now IPC :1.97796: AVG IPC :0.85053: L2-Pf-HR :0.75645: L2-HR :0.77597: (Sim:4h31m31s) 
CPU  2 inst:  143000001 cyc:  160888820 now IPC :1.45579: AVG IPC :0.88179: L2-Pf-HR :0.75952: L2-HR :0.77938: (Sim:4h31m31s) 
CPU  3 inst:  138000003 cyc:  160945507 now IPC :2.16139: AVG IPC :0.85022: L2-Pf-HR :0.75654: L2-HR :0.77589: (Sim:4h31m41s) 
CPU  0 inst:  139000003 cyc:  161085165 now IPC :1.41845: AVG IPC :0.85572: L2-Pf-HR :0.75695: L2-HR :0.77528: (Sim:4h32m6s) 
CPU  2 inst:  144000001 cyc:  161395043 now IPC :1.97541: AVG IPC :0.88524: L2-Pf-HR :0.76067: L2-HR :0.78028: (Sim:4h33m1s) 
CPU  0 inst:  140000001 cyc:  161569121 now IPC :2.06630: AVG IPC :0.85937: L2-Pf-HR :0.75825: L2-HR :0.77627: (Sim:4h33m32s) 
CPU  1 inst:  139000003 cyc:  161614877 now IPC :1.37606: AVG IPC :0.85290: L2-Pf-HR :0.75669: L2-HR :0.77622: (Sim:4h33m41s) 
CPU  3 inst:  139000003 cyc:  161691091 now IPC :1.34123: AVG IPC :0.85250: L2-Pf-HR :0.75666: L2-HR :0.77611: (Sim:4h33m55s) 
CPU  2 inst:  145000003 cyc:  162117302 now IPC :1.38455: AVG IPC :0.88748: L2-Pf-HR :0.76094: L2-HR :0.78059: (Sim:4h35m5s) 
CPU  1 inst:  140000001 cyc:  162139799 now IPC :1.90504: AVG IPC :0.85633: L2-Pf-HR :0.75791: L2-HR :0.77715: (Sim:4h35m9s) 
CPU  3 inst:  140000001 cyc:  162199975 now IPC :1.96508: AVG IPC :0.85601: L2-Pf-HR :0.75791: L2-HR :0.77706: (Sim:4h35m20s) 
CPU  0 inst:  141000004 cyc:  162312989 now IPC :1.34433: AVG IPC :0.86160: L2-Pf-HR :0.75843: L2-HR :0.77654: (Sim:4h35m41s) 
CPU  2 inst:  146000005 cyc:  162609794 now IPC :2.03049: AVG IPC :0.89096: L2-Pf-HR :0.76202: L2-HR :0.78142: (Sim:4h36m27s) 
CPU  0 inst:  142000003 cyc:  162806179 now IPC :2.02761: AVG IPC :0.86516: L2-Pf-HR :0.75966: L2-HR :0.77747: (Sim:4h37m3s) 
CPU  1 inst:  141000004 cyc:  162853168 now IPC :1.40180: AVG IPC :0.85873: L2-Pf-HR :0.75807: L2-HR :0.77740: (Sim:4h37m12s) 
CPU  3 inst:  141000004 cyc:  162936974 now IPC :1.35686: AVG IPC :0.85829: L2-Pf-HR :0.75807: L2-HR :0.77731: (Sim:4h37m27s) 
CPU  2 inst:  147000003 cyc:  163311702 now IPC :1.42469: AVG IPC :0.89327: L2-Pf-HR :0.76230: L2-HR :0.78173: (Sim:4h38m29s) 
CPU  1 inst:  142000004 cyc:  163340677 now IPC :2.05124: AVG IPC :0.86232: L2-Pf-HR :0.75924: L2-HR :0.77830: (Sim:4h38m35s) 
CPU  3 inst:  142000003 cyc:  163399010 now IPC :2.16433: AVG IPC :0.86201: L2-Pf-HR :0.75929: L2-HR :0.77823: (Sim:4h38m45s) 
CPU  0 inst:  143000001 cyc:  163501345 now IPC :1.43850: AVG IPC :0.86761: L2-Pf-HR :0.76016: L2-HR :0.77794: (Sim:4h39m4s) 
CPU  2 inst:  148000004 cyc:  163794672 now IPC :2.07052: AVG IPC :0.89676: L2-Pf-HR :0.76340: L2-HR :0.78255: (Sim:4h39m52s) 
Finished CPU 2 instr: 146000003 cyc: 162808048 AVG IPC: 0.89676 (Sim time: 4h39m52s)
CPU  0 inst:  144000001 cyc:  164033287 now IPC :1.87990: AVG IPC :0.87091: L2-Pf-HR :0.76113: L2-HR :0.77867: (Sim:4h40m34s) 
CPU  1 inst:  143000001 cyc:  164051239 now IPC :1.40733: AVG IPC :0.86469: L2-Pf-HR :0.75945: L2-HR :0.77856: (Sim:4h40m37s) 
CPU  3 inst:  143000001 cyc:  164138156 now IPC :1.35291: AVG IPC :0.86423: L2-Pf-HR :0.75943: L2-HR :0.77847: (Sim:4h40m54s) 
CPU  2 inst:  149000004 cyc:  164438608 now IPC :1.55295: AVG IPC :0.89934: L2-Pf-HR :0.76408: L2-HR :0.78315: (Sim:4h41m46s) 
CPU  1 inst:  144000001 cyc:  164512100 now IPC :2.16985: AVG IPC :0.86837: L2-Pf-HR :0.76064: L2-HR :0.77948: (Sim:4h41m57s) 
CPU  3 inst:  144000001 cyc:  164618814 now IPC :2.08048: AVG IPC :0.86780: L2-Pf-HR :0.76063: L2-HR :0.77939: (Sim:4h42m17s) 
CPU  0 inst:  145000003 cyc:  164700381 now IPC :1.49904: AVG IPC :0.87347: L2-Pf-HR :0.76128: L2-HR :0.77885: (Sim:4h42m33s) 
CPU  2 inst:  150000003 cyc:  164989824 now IPC :1.81417: AVG IPC :0.90242: L2-Pf-HR :0.76490: L2-HR :0.78363: (Sim:4h43m21s) 
CPU  1 inst:  145000003 cyc:  165179992 now IPC :1.49725: AVG IPC :0.87093: L2-Pf-HR :0.76090: L2-HR :0.77980: (Sim:4h43m54s) 
CPU  0 inst:  146000003 cyc:  165208283 now IPC :1.96888: AVG IPC :0.87686: L2-Pf-HR :0.76241: L2-HR :0.77973: (Sim:4h43m59s) 
CPU  3 inst:  145000003 cyc:  165322437 now IPC :1.42122: AVG IPC :0.87017: L2-Pf-HR :0.76080: L2-HR :0.77965: (Sim:4h44m20s) 
CPU  1 inst:  146000003 cyc:  165649683 now IPC :2.12906: AVG IPC :0.87452: L2-Pf-HR :0.76199: L2-HR :0.78064: (Sim:4h45m14s) 
CPU  2 inst:  151000004 cyc:  165649986 now IPC :1.51478: AVG IPC :0.90487: L2-Pf-HR :0.76591: L2-HR :0.78408: (Sim:4h45m14s) 
*** Reached end of trace for Core: 2 Repeating trace: 770-tot_memTraces_v3/memTraces[151000000]_FE_[OPT-6_7B]_[h32]_[s256]_[d128].champsim.xz
CPU  3 inst:  146000003 cyc:  165786180 now IPC :2.15637: AVG IPC :0.87379: L2-Pf-HR :0.76191: L2-HR :0.78051: (Sim:4h45m35s) 
CPU  0 inst:  147000003 cyc:  165872322 now IPC :1.50594: AVG IPC :0.87939: L2-Pf-HR :0.76270: L2-HR :0.78009: (Sim:4h45m48s) 
CPU  0 inst:  148000004 cyc:  166413507 now IPC :1.84780: AVG IPC :0.88256: L2-Pf-HR :0.76377: L2-HR :0.78089: (Sim:4h47m2s) 
Finished CPU 0 instr: 146000003 cyc: 165429534 AVG IPC: 0.88255 (Sim time: 4h47m2s)
CPU  1 inst:  147000003 cyc:  166522452 now IPC :1.14578: AVG IPC :0.87595: L2-Pf-HR :0.76228: L2-HR :0.78099: (Sim:4h47m18s) 
CPU  3 inst:  147000003 cyc:  166597964 now IPC :1.23185: AVG IPC :0.87555: L2-Pf-HR :0.76247: L2-HR :0.78104: (Sim:4h47m32s) 
CPU  2 inst:  152000002 cyc:  166815277 now IPC :0.85815: AVG IPC :0.90454: L2-Pf-HR :0.76520: L2-HR :0.78315: (Sim:4h48m11s) 
CPU  1 inst:  148000004 cyc:  167011636 now IPC :2.04422: AVG IPC :0.87939: L2-Pf-HR :0.76332: L2-HR :0.78179: (Sim:4h48m43s) 
Finished CPU 1 instr: 146000001 cyc: 166024602 AVG IPC: 0.87939 (Sim time: 4h48m43s)
CPU  0 inst:  149000004 cyc:  167037232 now IPC :1.60327: AVG IPC :0.88527: L2-Pf-HR :0.76435: L2-HR :0.78144: (Sim:4h48m48s) 
CPU  3 inst:  148000004 cyc:  167119318 now IPC :1.91808: AVG IPC :0.87882: L2-Pf-HR :0.76329: L2-HR :0.78159: (Sim:4h49m3s) 
Finished CPU 3 instr: 146000000 cyc: 166132286 AVG IPC: 0.87882 (Sim time: 4h49m3s)

ChampSim completed all CPUs

Total Simulation Statistics (not including warmup)

CPU 0 cumulative IPC: 0.88581 instructions: 147162449 cycles: 166132285
Core_0_L1D_total_access 36250914
Core_0_L1D_total_hit 33425150
Core_0_L1D_total_miss 2825764
Core_0_L1D_loads 30936427
Core_0_L1D_load_hit 30111391
Core_0_L1D_load_miss 825036
Core_0_L1D_RFOs 3264028
Core_0_L1D_RFO_hit 3229607
Core_0_L1D_RFO_miss 34421
Core_0_L1D_prefetches 2050459
Core_0_L1D_prefetch_hit 84152
Core_0_L1D_prefetch_miss 1966307
Core_0_L1D_writebacks 0
Core_0_L1D_writeback_hit 0
Core_0_L1D_writeback_miss 0

Core_0_L1I_total_access 17908458
Core_0_L1I_total_hit 17903638
Core_0_L1I_total_miss 4820
Core_0_L1I_loads 17908458
Core_0_L1I_load_hit 17903638
Core_0_L1I_load_miss 4820
Core_0_L1I_RFOs 0
Core_0_L1I_RFO_hit 0
Core_0_L1I_RFO_miss 0
Core_0_L1I_prefetches 0
Core_0_L1I_prefetch_hit 0
Core_0_L1I_prefetch_miss 0
Core_0_L1I_writebacks 0
Core_0_L1I_writeback_hit 0
Core_0_L1I_writeback_miss 0

Core_0_L2C_total_access 4218633
Core_0_L2C_total_hit 3296803
Core_0_L2C_total_miss 921830
Core_0_L2C_loads 677039
Core_0_L2C_load_hit 414345
Core_0_L2C_load_miss 262694
Core_0_L2C_RFOs 34241
Core_0_L2C_RFO_hit 23153
Core_0_L2C_RFO_miss 11088
Core_0_L2C_prefetches 2750583
Core_0_L2C_prefetch_hit 2102644
Core_0_L2C_prefetch_miss 647939
Core_0_L2C_writebacks 756770
Core_0_L2C_writeback_hit 756661
Core_0_L2C_writeback_miss 109

[Bingo] PHT Access: 162754
[Bingo] PHT Hit PC+Addr: 19856
[Bingo] PHT Hit PC+Offs: 138666
[Bingo] PHT Miss: 4232
[Bingo] Prefetch PC+Addr: 0
[Bingo] Prefetch PC+Offs: 0
[Bingo] Useful PC+Addr: 0
[Bingo] Useful PC+Offs: 0
[Bingo] Useless PC+Addr: 0
[Bingo] Useless PC+Offs: 0
[Bingo] L1 Prefetch per Region: 18.08388
[Bingo] L2 Prefetch per Region: 0.00196
[Bingo] L3 Prefetch per Region: 0.00000
[Bingo] No Prefetch per Region: 13.91416
[Bingo] Number of Voters Mean: 15.86865
[Bingo] Number of Voters SD: 2.07499
PHT read accesses: 2292750
PHT write accesses: 159297
AT read accesses: 29781196
AT write accesses: 29781195
FT read accesses: 3178163
FT write accesses: 162754
PS read accesses: 1531293
PS write accesses: 158522
PHT tag read accesses: 7106277
PHT tag write accesses: 179153
AT tag read accesses: 684591415
AT tag write accesses: 29940492
FT tag read accesses: 212996745
FT tag write accesses: 1833149
PS tag read accesses: 503394741
PS tag write accesses: 1689422
[Bingo2] PHT Access: 113146
[Bingo2] PHT Hit PC+Addr: 7811
[...]
Core_0_L2C_prefetch_miss 643681
Core_0_L2C_writebacks 750531
Core_0_L2C_writeback_hit 750422 L2C_writeback_Hit Ratio: 0.99985
Core_0_L2C_writeback_miss 109
Core_0_L2C_prefetch_requested 1341870
Core_0_L2C_prefetch_issued 1341870
Core_0_L2C_prefetch_useful 172082 L2C_Useful Ratio: 0.12824
Core_0_L2C_prefetch_useless 473069
Core_0_L2C_prefetch_late 124457
Core_0_L2C_average_miss_latency 912.46333

Core_0_LLC_total_access 1373731
Core_0_LLC_total_hit 455005 LLC_total_Hit Ratio: 0.33122
Core_0_LLC_total_miss 918726
Core_0_LLC_loads 137618
Core_0_LLC_load_hit 318 LLC_load_Hit Ratio: 0.00231
Core_0_LLC_load_miss 137300
Core_0_LLC_RFOs 11088
Core_0_LLC_RFO_hit 1734 LLC_RFO_Hit Ratio: 0.15639
Core_0_LLC_RFO_miss 9354
Core_0_LLC_prefetches 767027
Core_0_LLC_prefetch_hit 2189 LLC_prefetch_Hit Ratio: 0.00285
Core_0_LLC_prefetch_miss 764838
Core_0_LLC_writebacks 457998
Core_0_LLC_writeback_hit 450764 LLC_writeback_Hit Ratio: 0.98421
Core_0_LLC_writeback_miss 7234
Core_0_LLC_prefetch_requested 0
Core_0_LLC_prefetch_issued 0
Core_0_LLC_prefetch_useful 722 LLC_Useful Ratio: inf
Core_0_LLC_prefetch_useless 2944856
Core_0_LLC_prefetch_late 0
Core_0_LLC_average_miss_latency 3452.27548

Core_0_major_page_fault 0
Core_0_minor_page_fault 9207

Core_1_instructions 146000001
Core_1_cycles 166024602
Core_1_IPC 0.87939

Core_1_branch_prediction_accuracy 97.68881
Core_1_branch_MPKI 0.56875
Core_1_average_ROB_occupancy_at_mispredict 508.84700

Core_1_L1D_total_access 36014633
Core_1_L1D_total_hit 33215648 L1D_total_Hit Ratio: 0.92228
Core_1_L1D_total_miss 2798985
Core_1_L1D_loads 30732394
Core_1_L1D_load_hit 29922591 L1D_load_Hit Ratio: 0.97365
Core_1_L1D_load_miss 809803
Core_1_L1D_RFOs 3243855
Core_1_L1D_RFO_hit 3209788 L1D_RFO_Hit Ratio: 0.98950
Core_1_L1D_RFO_miss 34067
Core_1_L1D_prefetches 2038384
Core_1_L1D_prefetch_hit 83269 L1D_prefetch_Hit Ratio: 0.04085
Core_1_L1D_prefetch_miss 1955115
Core_1_L1D_writebacks 0
Core_1_L1D_writeback_hit 0 L1D_writeback_Hit Ratio: -nan
Core_1_L1D_writeback_miss 0
Core_1_L1D_prefetch_requested 2393205
Core_1_L1D_prefetch_issued 2393205
Core_1_L1D_prefetch_useful 1970177 L1D_Useful Ratio: 0.82324
Core_1_L1D_prefetch_useless 12876
Core_1_L1D_prefetch_late 149974
Core_1_L1D_average_miss_latency 4192063.36231

Core_1_L1I_total_access 17784138
Core_1_L1I_total_hit 17779321 L1I_total_Hit Ratio: 0.99973
Core_1_L1I_total_miss 4817
Core_1_L1I_loads 17784138
Core_1_L1I_load_hit 17779321 L1I_load_Hit Ratio: 0.99973
Core_1_L1I_load_miss 4817
Core_1_L1I_RFOs 0
Core_1_L1I_RFO_hit 0 L1I_RFO_Hit Ratio: -nan
Core_1_L1I_RFO_miss 0
Core_1_L1I_prefetches 0
Core_1_L1I_prefetch_hit 0 L1I_prefetch_Hit Ratio: -nan
Core_1_L1I_prefetch_miss 0
Core_1_L1I_writebacks 0
Core_1_L1I_writeback_hit 0 L1I_writeback_Hit Ratio: -nan
Core_1_L1I_writeback_miss 0
Core_1_L1I_prefetch_requested 0
Core_1_L1I_prefetch_issued 0
Core_1_L1I_prefetch_useful 0 L1I_Useful Ratio: -nan
Core_1_L1I_prefetch_useless 0
Core_1_L1I_prefetch_late 0
Core_1_L1I_average_miss_latency 923.45319

Core_1_L2C_total_access 4199407
Core_1_L2C_total_hit 3283049 L2C_total_Hit Ratio: 0.78179
Core_1_L2C_total_miss 916358
Core_1_L2C_loads 665279
Core_1_L2C_load_hit 410271 L2C_load_Hit Ratio: 0.61669
Core_1_L2C_load_miss 255008
Core_1_L2C_RFOs 33820
Core_1_L2C_RFO_hit 23405 L2C_RFO_Hit Ratio: 0.69205
Core_1_L2C_RFO_miss 10415
Core_1_L2C_prefetches 2749828
Core_1_L2C_prefetch_hit 2098985 L2C_prefetch_Hit Ratio: 0.76332
Core_1_L2C_prefetch_miss 650843
Core_1_L2C_writebacks 750480
Core_1_L2C_writeback_hit 750388 L2C_writeback_Hit Ratio: 0.99988
Core_1_L2C_writeback_miss 92
Core_1_L2C_prefetch_requested 1351832
Core_1_L2C_prefetch_issued 1351832
Core_1_L2C_prefetch_useful 175350 L2C_Useful Ratio: 0.12971
Core_1_L2C_prefetch_useless 473165
Core_1_L2C_prefetch_late 119517
Core_1_L2C_average_miss_latency 920.68421

Core_1_LLC_total_access 1374812
Core_1_LLC_total_hit 454437 LLC_total_Hit Ratio: 0.33054
Core_1_LLC_total_miss 920375
Core_1_LLC_loads 135646
Core_1_LLC_load_hit 431 LLC_load_Hit Ratio: 0.00318
Core_1_LLC_load_miss 135215
Core_1_LLC_RFOs 10414
Core_1_LLC_RFO_hit 1039 LLC_RFO_Hit Ratio: 0.09977
Core_1_LLC_RFO_miss 9375
Core_1_LLC_prefetches 770203
Core_1_LLC_prefetch_hit 3039 LLC_prefetch_Hit Ratio: 0.00395
Core_1_LLC_prefetch_miss 767164
Core_1_LLC_writebacks 458549
Core_1_LLC_writeback_hit 449928 LLC_writeback_Hit Ratio: 0.98120
Core_1_LLC_writeback_miss 8621
Core_1_LLC_prefetch_requested 0
Core_1_LLC_prefetch_issued 0
Core_1_LLC_prefetch_useful 722 LLC_Useful Ratio: inf
Core_1_LLC_prefetch_useless 2944856
Core_1_LLC_prefetch_late 0
Core_1_LLC_average_miss_latency 3446.09017

Core_1_major_page_fault 0
Core_1_minor_page_fault 9156

Core_2_instructions 146000003
Core_2_cycles 162808048
Core_2_IPC 0.89676

Core_2_branch_prediction_accuracy 97.66584
Core_2_branch_MPKI 0.56803
Core_2_average_ROB_occupancy_at_mispredict 507.00147

Core_2_L1D_total_access 35999197
Core_2_L1D_total_hit 33200201 L1D_total_Hit Ratio: 0.92225
Core_2_L1D_total_miss 2798996
Core_2_L1D_loads 30723779
Core_2_L1D_load_hit 29910522 L1D_load_Hit Ratio: 0.97353
Core_2_L1D_load_miss 813257
Core_2_L1D_RFOs 3241780
Core_2_L1D_RFO_hit 3206212 L1D_RFO_Hit Ratio: 0.98903
Core_2_L1D_RFO_miss 35568
Core_2_L1D_prefetches 2033638
Core_2_L1D_prefetch_hit 83467 L1D_prefetch_Hit Ratio: 0.04104
Core_2_L1D_prefetch_miss 1950171
Core_2_L1D_writebacks 0
Core_2_L1D_writeback_hit 0 L1D_writeback_Hit Ratio: -nan
Core_2_L1D_writeback_miss 0
Core_2_L1D_prefetch_requested 2457273
Core_2_L1D_prefetch_issued 2457273
Core_2_L1D_prefetch_useful 2019877 L1D_Useful Ratio: 0.82200
Core_2_L1D_prefetch_useless 13510
Core_2_L1D_prefetch_late 154759
Core_2_L1D_average_miss_latency 4321870.70484

Core_2_L1I_total_access 17771073
Core_2_L1I_total_hit 17766253 L1I_total_Hit Ratio: 0.99973
Core_2_L1I_total_miss 4820
Core_2_L1I_loads 17771073
Core_2_L1I_load_hit 17766253 L1I_load_Hit Ratio: 0.99973
Core_2_L1I_load_miss 4820
Core_2_L1I_RFOs 0
Core_2_L1I_RFO_hit 0 L1I_RFO_Hit Ratio: -nan
Core_2_L1I_RFO_miss 0
Core_2_L1I_prefetches 0
Core_2_L1I_prefetch_hit 0 L1I_prefetch_Hit Ratio: -nan
Core_2_L1I_prefetch_miss 0
Core_2_L1I_writebacks 0
Core_2_L1I_writeback_hit 0 L1I_writeback_Hit Ratio: -nan
Core_2_L1I_writeback_miss 0
Core_2_L1I_prefetch_requested 0
Core_2_L1I_prefetch_issued 0
Core_2_L1I_prefetch_useful 0 L1I_Useful Ratio: -nan
Core_2_L1I_prefetch_useless 0
Core_2_L1I_prefetch_late 0
Core_2_L1I_average_miss_latency 1174.84129

Core_2_L2C_total_access 4212256
Core_2_L2C_total_hit 3296305 L2C_total_Hit Ratio: 0.78255
Core_2_L2C_total_miss 915951
Core_2_L2C_loads 667326
Core_2_L2C_load_hit 416075 L2C_load_Hit Ratio: 0.62350
Core_2_L2C_load_miss 251251
Core_2_L2C_RFOs 34309
Core_2_L2C_RFO_hit 22879 L2C_RFO_Hit Ratio: 0.66685
Core_2_L2C_RFO_miss 11430
Core_2_L2C_prefetches 2760192
Core_2_L2C_prefetch_hit 2107116 L2C_prefetch_Hit Ratio: 0.76339
Core_2_L2C_prefetch_miss 653076
Core_2_L2C_writebacks 750429
Core_2_L2C_writeback_hit 750235 L2C_writeback_Hit Ratio: 0.99974
Core_2_L2C_writeback_miss 194
Core_2_L2C_prefetch_requested 1410432
Core_2_L2C_prefetch_issued 1410432
Core_2_L2C_prefetch_useful 184499 L2C_Useful Ratio: 0.13081
Core_2_L2C_prefetch_useless 481198
Core_2_L2C_prefetch_late 120463
Core_2_L2C_average_miss_latency 899.50753

Core_2_LLC_total_access 1373618
Core_2_LLC_total_hit 453669 LLC_total_Hit Ratio: 0.33027
Core_2_LLC_total_miss 919949
Core_2_LLC_loads 133118
Core_2_LLC_load_hit 314 LLC_load_Hit Ratio: 0.00236
Core_2_LLC_load_miss 132804
Core_2_LLC_RFOs 11430
Core_2_LLC_RFO_hit 1516 LLC_RFO_Hit Ratio: 0.13263
Core_2_LLC_RFO_miss 9914
Core_2_LLC_prefetches 771208
Core_2_LLC_prefetch_hit 2395 LLC_prefetch_Hit Ratio: 0.00311
Core_2_LLC_prefetch_miss 768813
Core_2_LLC_writebacks 457862
Core_2_LLC_writeback_hit 449444 LLC_writeback_Hit Ratio: 0.98161
Core_2_LLC_writeback_miss 8418
Core_2_LLC_prefetch_requested 0
Core_2_LLC_prefetch_issued 0
Core_2_LLC_prefetch_useful 722 LLC_Useful Ratio: inf
Core_2_LLC_prefetch_useless 2944856
Core_2_LLC_prefetch_late 0
Core_2_LLC_average_miss_latency 3447.68595

Core_2_major_page_fault 0
Core_2_minor_page_fault 9296

Core_3_instructions 146000000
Core_3_cycles 166132286
Core_3_IPC 0.87882

Core_3_branch_prediction_accuracy 97.68931
Core_3_branch_MPKI 0.56912
Core_3_average_ROB_occupancy_at_mispredict 508.71937

Core_3_L1D_total_access 35995901
Core_3_L1D_total_hit 33196768 L1D_total_Hit Ratio: 0.92224
Core_3_L1D_total_miss 2799133
Core_3_L1D_loads 30718179
Core_3_L1D_load_hit 29903613 L1D_load_Hit Ratio: 0.97348
Core_3_L1D_load_miss 814566
Core_3_L1D_RFOs 3243724
Core_3_L1D_RFO_hit 3209721 L1D_RFO_Hit Ratio: 0.98952
Core_3_L1D_RFO_miss 34003
Core_3_L1D_prefetches 2033998
Core_3_L1D_prefetch_hit 83434 L1D_prefetch_Hit Ratio: 0.04102
Core_3_L1D_prefetch_miss 1950564
Core_3_L1D_writebacks 0
Core_3_L1D_writeback_hit 0 L1D_writeback_Hit Ratio: -nan
Core_3_L1D_writeback_miss 0
Core_3_L1D_prefetch_requested 2387019
Core_3_L1D_prefetch_issued 2387019
Core_3_L1D_prefetch_useful 1962352 L1D_Useful Ratio: 0.82209
Core_3_L1D_prefetch_useless 13022
Core_3_L1D_prefetch_late 151425
Core_3_L1D_average_miss_latency 4270994.43835

Core_3_L1I_total_access 17783488
Core_3_L1I_total_hit 17778668 L1I_total_Hit Ratio: 0.99973
Core_3_L1I_total_miss 4820
Core_3_L1I_loads 17783488
Core_3_L1I_load_hit 17778668 L1I_load_Hit Ratio: 0.99973
Core_3_L1I_load_miss 4820
Core_3_L1I_RFOs 0
Core_3_L1I_RFO_hit 0 L1I_RFO_Hit Ratio: -nan
Core_3_L1I_RFO_miss 0
Core_3_L1I_prefetches 0
Core_3_L1I_prefetch_hit 0 L1I_prefetch_Hit Ratio: -nan
Core_3_L1I_prefetch_miss 0
Core_3_L1I_writebacks 0
Core_3_L1I_writeback_hit 0 L1I_writeback_Hit Ratio: -nan
Core_3_L1I_writeback_miss 0
Core_3_L1I_prefetch_requested 0
Core_3_L1I_prefetch_issued 0
Core_3_L1I_prefetch_useful 0 L1I_Useful Ratio: -nan
Core_3_L1I_prefetch_useless 0
Core_3_L1I_prefetch_late 0
Core_3_L1I_average_miss_latency 918.75788

Core_3_L2C_total_access 4196940
Core_3_L2C_total_hit 3280307 L2C_total_Hit Ratio: 0.78159
Core_3_L2C_total_miss 916633
Core_3_L2C_loads 668666
Core_3_L2C_load_hit 412530 L2C_load_Hit Ratio: 0.61694
Core_3_L2C_load_miss 256136
Core_3_L2C_RFOs 33807
Core_3_L2C_RFO_hit 22894 L2C_RFO_Hit Ratio: 0.67720
Core_3_L2C_RFO_miss 10913
Core_3_L2C_prefetches 2744039
Core_3_L2C_prefetch_hit 2094493 L2C_prefetch_Hit Ratio: 0.76329
Core_3_L2C_prefetch_miss 649546
Core_3_L2C_writebacks 750428
Core_3_L2C_writeback_hit 750390 L2C_writeback_Hit Ratio: 0.99995
Core_3_L2C_writeback_miss 38
Core_3_L2C_prefetch_requested 1350642
Core_3_L2C_prefetch_issued 1350642
Core_3_L2C_prefetch_useful 175631 L2C_Useful Ratio: 0.13004
Core_3_L2C_prefetch_useless 471912
Core_3_L2C_prefetch_late 120455
Core_3_L2C_average_miss_latency 926.26361

Core_3_LLC_total_access 1375546
Core_3_LLC_total_hit 454063 LLC_total_Hit Ratio: 0.33010
Core_3_LLC_total_miss 921483
Core_3_LLC_loads 135852
Core_3_LLC_load_hit 418 LLC_load_Hit Ratio: 0.00308
Core_3_LLC_load_miss 135434
Core_3_LLC_RFOs 10913
Core_3_LLC_RFO_hit 1436 LLC_RFO_Hit Ratio: 0.13159
Core_3_LLC_RFO_miss 9477
Core_3_LLC_prefetches 769828
Core_3_LLC_prefetch_hit 3274 LLC_prefetch_Hit Ratio: 0.00425
Core_3_LLC_prefetch_miss 766554
Core_3_LLC_writebacks 458953
Core_3_LLC_writeback_hit 448935 LLC_writeback_Hit Ratio: 0.97817
Core_3_LLC_writeback_miss 10018
Core_3_LLC_prefetch_requested 0
Core_3_LLC_prefetch_issued 0
Core_3_LLC_prefetch_useful 722 LLC_Useful Ratio: inf
Core_3_LLC_prefetch_useless 2944856
Core_3_LLC_prefetch_late 0
Core_3_LLC_average_miss_latency 3441.94656

Core_3_major_page_fault 0
Core_3_minor_page_fault 9156

[Bingo] PHT Access: 162754
[Bingo] PHT Hit PC+Addr: 19856
[Bingo] PHT Hit PC+Offs: 138666
[Bingo] PHT Miss: 4232
[Bingo] Prefetch PC+Addr: 0
[Bingo] Prefetch PC+Offs: 0
[Bingo] Useful PC+Addr: 0
[Bingo] Useful PC+Offs: 0
[Bingo] Useless PC+Addr: 0
[Bingo] Useless PC+Offs: 0
[Bingo] L1 Prefetch per Region: 18.08388
[Bingo] L2 Prefetch per Region: 0.00196
[Bingo] L3 Prefetch per Region: 0.00000
[Bingo] No Prefetch per Region: 13.91416
[Bingo] Number of Voters Mean: 15.86865
[Bingo] Number of Voters SD: 2.07499
PHT read accesses: 2292750
PHT write accesses: 159297
AT read accesses: 29781196
AT write accesses: 29781195
FT read accesses: 3178163
FT write accesses: 162754
PS read accesses: 1531293
PS write accesses: 158522
PHT tag read accesses: 7106277
PHT tag write accesses: 179153
AT tag read accesses: 684591415
AT tag write accesses: 29940492
FT tag read accesses: 212996745
FT tag write accesses: 1833149
PS tag read accesses: 503394741
PS tag write accesses: 1689422
[Bingo2] PHT Access: 113146
[Bingo2] PHT Hit PC+Addr: 7811
[Bingo2] PHT Hit PC+Offs: 100509
[Bingo2] PHT Miss: 4826
[Bingo2] Prefetch PC+Addr: 0
[Bingo2] Prefetch PC+Offs: 0
[Bingo2] Useful PC+Addr: 0
[Bingo2] Useful PC+Offs: 0
[Bingo2] Useless PC+Addr: 0
[Bingo2] Useless PC+Offs: 0
[Bingo2] L1 Prefetch per Region: 0.00000
[Bingo2] L2 Prefetch per Region: 19.60543
[Bingo2] L3 Prefetch per Region: 0.00000
[Bingo2] No Prefetch per Region: 12.39457
[Bingo2] Number of Voters Mean: 13.47441
[Bingo2] Number of Voters SD: 4.02903
PHT read accesses: 1626551
PHT write accesses: 67674
AT read accesses: 554772
AT write accesses: 622297
FT read accesses: 221832
FT write accesses: 113146
PS read accesses: 293992
PS write accesses: 108320
PHT tag read accesses: 3809376
PHT tag write accesses: 75485
AT tag read accesses: 72622183
AT tag write accesses: 622447
FT tag read accesses: 65725594
FT tag write accesses: 258029
PS tag read accesses: 14156347
PS tag write accesses: 374642
[Bingo] PHT Access: 164238
[Bingo] PHT Hit PC+Addr: 20352
[Bingo] PHT Hit PC+Offs: 139153
[Bingo] PHT Miss: 4733
[Bingo] Prefetch PC+Addr: 0
[Bingo] Prefetch PC+Offs: 0
[Bingo] Useful PC+Addr: 0
[Bingo] Useful PC+Offs: 0
[Bingo] Useless PC+Addr: 0
[Bingo] Useless PC+Offs: 0
[Bingo] L1 Prefetch per Region: 18.02585
[Bingo] L2 Prefetch per Region: 0.00206
[Bingo] L3 Prefetch per Region: 0.00000
[Bingo] No Prefetch per Region: 13.97208
[Bingo] Number of Voters Mean: 15.84562
[Bingo] Number of Voters SD: 1.23876
PHT read accesses: 2301158
PHT write accesses: 160566
AT read accesses: 30312522
AT write accesses: 30312546
FT read accesses: 3183643
FT write accesses: 164238
PS read accesses: 1517542
PS write accesses: 159505
PHT tag read accesses: 7153844
PHT tag write accesses: 180918
AT tag read accesses: 695315435
AT tag write accesses: 30473112
FT tag read accesses: 215253673
FT tag write accesses: 1838051
PS tag read accesses: 511955890
PS tag write accesses: 1676642
[Bingo2] PHT Access: 113827
[Bingo2] PHT Hit PC+Addr: 9079
[Bingo2] PHT Hit PC+Offs: 97953
[Bingo2] PHT Miss: 6795
[Bingo2] Prefetch PC+Addr: 0
[Bingo2] Prefetch PC+Offs: 0
[Bingo2] Useful PC+Addr: 0
[Bingo2] Useful PC+Offs: 0
[Bingo2] Useless PC+Addr: 0
[Bingo2] Useless PC+Offs: 0
[Bingo2] L1 Prefetch per Region: 0.00000
[Bingo2] L2 Prefetch per Region: 20.12896
[Bingo2] L3 Prefetch per Region: 0.00000
[Bingo2] No Prefetch per Region: 11.87104
[Bingo2] Number of Voters Mean: 13.42772
[Bingo2] Number of Voters SD: 4.05333
PHT read accesses: 1585947
PHT write accesses: 67410
AT read accesses: 555089
AT write accesses: 622441
FT read accesses: 221137
FT write accesses: 113827
PS read accesses: 297309
PS write accesses: 107032
PHT tag read accesses: 3780131
PHT tag write accesses: 76489
AT tag read accesses: 72755144
AT tag write accesses: 622626
FT tag read accesses: 65861131
FT tag write accesses: 258294
PS tag read accesses: 14128396
PS tag write accesses: 375797
[Bingo] PHT Access: 169041
[Bingo] PHT Hit PC+Addr: 22787
[Bingo] PHT Hit PC+Offs: 141220
[Bingo] PHT Miss: 5034
[Bingo] Prefetch PC+Addr: 0
[Bingo] Prefetch PC+Offs: 0
[Bingo] Useful PC+Addr: 0
[Bingo] Useful PC+Offs: 0
[Bingo] Useless PC+Addr: 0
[Bingo] Useless PC+Offs: 0
[Bingo] L1 Prefetch per Region: 18.01455
[Bingo] L2 Prefetch per Region: 0.00298
[Bingo] L3 Prefetch per Region: 0.00000
[Bingo] No Prefetch per Region: 13.98247
[Bingo] Number of Voters Mean: 15.84579
[Bingo] Number of Voters SD: 1.23605
PHT read accesses: 2353769
PHT write accesses: 165070
AT read accesses: 31108621
AT write accesses: 31108647
FT read accesses: 3199036
FT write accesses: 169041
PS read accesses: 1574892
PS write accesses: 164007
PHT tag read accesses: 7313009
PHT tag write accesses: 187857
AT tag read accesses: 708223611
AT tag write accesses: 31273717
FT tag read accesses: 215578108
FT tag write accesses: 1852874
PS tag read accesses: 524850148
PS tag write accesses: 1738476
[Bingo2] PHT Access: 120116
[Bingo2] PHT Hit PC+Addr: 10027
[Bingo2] PHT Hit PC+Offs: 102343
[Bingo2] PHT Miss: 7746
[Bingo2] Prefetch PC+Addr: 0
[Bingo2] Prefetch PC+Offs: 0
[Bingo2] Useful PC+Addr: 0
[Bingo2] Useful PC+Offs: 0
[Bingo2] Useless PC+Addr: 0
[Bingo2] Useless PC+Offs: 0
[Bingo2] L1 Prefetch per Region: 0.00000
[Bingo2] L2 Prefetch per Region: 20.02277
[Bingo2] L3 Prefetch per Region: 0.00000
[Bingo2] No Prefetch per Region: 11.97723
[Bingo2] Number of Voters Mean: 13.79896
[Bingo2] Number of Voters SD: 3.81696
PHT read accesses: 1670186
PHT write accesses: 69607
AT read accesses: 576148
AT write accesses: 645545
FT read accesses: 224605
FT write accesses: 120116
PS read accesses: 307729
PS write accesses: 112370
PHT tag read accesses: 3934212
PHT tag write accesses: 79634
AT tag read accesses: 73269702
AT tag write accesses: 645879
FT tag read accesses: 66203737
FT tag write accesses: 267406
PS tag read accesses: 14720176
PS tag write accesses: 389530
[Bingo] PHT Access: 164049
[Bingo] PHT Hit PC+Addr: 20920
[Bingo] PHT Hit PC+Offs: 138402
[Bingo] PHT Miss: 4727
[Bingo] Prefetch PC+Addr: 0
[Bingo] Prefetch PC+Offs: 0
[Bingo] Useful PC+Addr: 0
[Bingo] Useful PC+Offs: 0
[Bingo] Useless PC+Addr: 0
[Bingo] Useless PC+Offs: 0
[Bingo] L1 Prefetch per Region: 18.02545
[Bingo] L2 Prefetch per Region: 0.00199
[Bingo] L3 Prefetch per Region: 0.00000
[Bingo] No Prefetch per Region: 13.97256
[Bingo] Number of Voters Mean: 15.84603
[Bingo] Number of Voters SD: 1.23736
PHT read accesses: 2293540
PHT write accesses: 160378
AT read accesses: 30256562
AT write accesses: 30256590
FT read accesses: 3183095
FT write accesses: 164049
PS read accesses: 1527128
PS write accesses: 159322
PHT tag read accesses: 7129077
PHT tag write accesses: 181298
AT tag read accesses: 694407579
AT tag write accesses: 30416963
FT tag read accesses: 215245993
FT tag write accesses: 1837495
PS tag read accesses: 511035426
PS tag write accesses: 1686062
[Bingo2] PHT Access: 115152
[Bingo2] PHT Hit PC+Addr: 7880
[Bingo2] PHT Hit PC+Offs: 100523
[Bingo2] PHT Miss: 6749
[Bingo2] Prefetch PC+Addr: 0
[Bingo2] Prefetch PC+Offs: 0
[Bingo2] Useful PC+Addr: 0
[Bingo2] Useful PC+Offs: 0
[Bingo2] Useless PC+Addr: 0
[Bingo2] Useless PC+Offs: 0
[Bingo2] L1 Prefetch per Region: 0.00000
[Bingo2] L2 Prefetch per Region: 19.77027
[Bingo2] L3 Prefetch per Region: 0.00000
[Bingo2] No Prefetch per Region: 12.22973
[Bingo2] Number of Voters Mean: 12.73315
[Bingo2] Number of Voters SD: 4.74238
PHT read accesses: 1616800
PHT write accesses: 68421
AT read accesses: 557266
AT write accesses: 625434
FT read accesses: 223902
FT write accesses: 115152
PS read accesses: 291389
PS write accesses: 108403
PHT tag read accesses: 3857765
PHT tag write accesses: 76301
AT tag read accesses: 72852278
AT tag write accesses: 625815
FT tag read accesses: 65978449
FT tag write accesses: 261549
PS tag read accesses: 14335061
PS tag write accesses: 377356
Channel_0_RQ_row_buffer_hit 2163739
Channel_0_RQ_row_buffer_miss 1511470
Channel_0_WQ_row_buffer_hit 693442
Channel_0_WQ_row_buffer_miss 1111172
Channel_0_WQ_full 2145
Channel_0_dbus_congested 4415123

avg_congested_cycle 11

EzSearch AVG IPC :0.88255: L2-Pf-HR :0.76377 : L2-HR :0.78149 Uful:0.12824
EzSearch AVG IPC :0.87939: L2-Pf-HR :0.76332 : L2-HR :0.78196 Uful:0.12971
EzSearch AVG IPC :0.89676: L2-Pf-HR :0.76339 : L2-HR :0.78337 Uful:0.13081
EzSearch AVG IPC :0.87882: L2-Pf-HR :0.76329 : L2-HR :0.78159 Uful:0.13004
     > Finished combination: TraceType=770-tot Sim:146000000 Prefetcher=L2bingo_dpc3 L1=bingo_dpc3
