TRACE: [298000000][GPT-Neo_1_3B]_[h16][s512][d128] Warmup: 2000000 NumTraces: 298000000
L1:next_line:L2:029-SecTOP-L2-MultiMarkovDelta_ip_stride_v4-IPStrS256
*************************************************
   ChampSim Multicore Out-of-Order Simulator
   Last compiled: Oct 28 2024 06:16:29
*************************************************

trace_0 770-tot_memTraces_v3/memTraces[298000000][GPT-Neo_1_3B]_[h16][s512][d128].champsim.xz
trace_1 770-tot_memTraces_v3/memTraces[298000000][GPT-Neo_1_3B]_[h16][s512][d128].champsim.xz
trace_2 770-tot_memTraces_v3/memTraces[298000000][GPT-Neo_1_3B]_[h16][s512][d128].champsim.xz
trace_3 770-tot_memTraces_v3/memTraces[298000000][GPT-Neo_1_3B]_[h16][s512][d128].champsim.xz
CPU 0 L1D next line prefetcher
MK1: Size: 128 TMAX: 64 TMIN: 32 MKPTHRESH: 40
MK2: Size: 256 TMAX: 32 TMIN: 16 MK2PTHRESH: 30
MK3: Size: 384 TMAX: 16 TMIN: 8 MK3PTHRESH: 25
MK4: Size: 512 TMAX: 8 TMIN: 0 MK4PTHRESH: 20
Stride Size: 256 Prefetch Degree: 15

CPU 0 L2C prefetcher
CPU 1 L1D next line prefetcher
MK1: Size: 128 TMAX: 64 TMIN: 32 MKPTHRESH: 40
MK2: Size: 256 TMAX: 32 TMIN: 16 MK2PTHRESH: 30
MK3: Size: 384 TMAX: 16 TMIN: 8 MK3PTHRESH: 25
MK4: Size: 512 TMAX: 8 TMIN: 0 MK4PTHRESH: 20
Stride Size: 256 Prefetch Degree: 15

CPU 1 L2C prefetcher
CPU 2 L1D next line prefetcher
MK1: Size: 128 TMAX: 64 TMIN: 32 MKPTHRESH: 40
MK2: Size: 256 TMAX: 32 TMIN: 16 MK2PTHRESH: 30
MK3: Size: 384 TMAX: 16 TMIN: 8 MK3PTHRESH: 25
MK4: Size: 512 TMAX: 8 TMIN: 0 MK4PTHRESH: 20
Stride Size: 256 Prefetch Degree: 15

CPU 2 L2C prefetcher
CPU 3 L1D next line prefetcher
MK1: Size: 128 TMAX: 64 TMIN: 32 MKPTHRESH: 40
MK2: Size: 256 TMAX: 32 TMIN: 16 MK2PTHRESH: 30
MK3: Size: 384 TMAX: 16 TMIN: 8 MK3PTHRESH: 25
MK4: Size: 512 TMAX: 8 TMIN: 0 MK4PTHRESH: 20
Stride Size: 256 Prefetch Degree: 15

CPU 3 L2C prefetcher
MAIN.cc ln 751 stats print skipped
CPU 0 L2C prefetcher initialized


Cache Size: 1280
number of cache lines: 20480
CPU  3 inst:    1000003 cyc:     501015 now IPC :1.99595: AVG IPC :1.99595: L2-Pf-HR :0.82414: L2-HR :0.77137: (Sim:0h1m37s) 
CPU  1 inst:    1000003 cyc:     501366 now IPC :1.99456: AVG IPC :1.99456: L2-Pf-HR :0.82964: L2-HR :0.76805: (Sim:0h1m37s) 
CPU  0 inst:    1000003 cyc:     501368 now IPC :1.99455: AVG IPC :1.99455: L2-Pf-HR :0.82720: L2-HR :0.76665: (Sim:0h1m37s) 
CPU  2 inst:    1000003 cyc:     501618 now IPC :1.99355: AVG IPC :1.99355: L2-Pf-HR :0.81991: L2-HR :0.77530: (Sim:0h1m37s) 
CPU  3 inst:    2000001 cyc:     985684 now IPC :2.06326: AVG IPC :2.02905: L2-Pf-HR :0.88475: L2-HR :0.83893: (Sim:0h3m16s) 
CPU  0 inst:    2000001 cyc:     986156 now IPC :2.06275: AVG IPC :2.02808: L2-Pf-HR :0.88760: L2-HR :0.83739: (Sim:0h3m17s) 
CPU  1 inst:    2000001 cyc:     986173 now IPC :2.06267: AVG IPC :2.02804: L2-Pf-HR :0.89042: L2-HR :0.84052: (Sim:0h3m17s) 
CPU  2 inst:    2000001 cyc:     986268 now IPC :2.06334: AVG IPC :2.02785: L2-Pf-HR :0.88491: L2-HR :0.84320: (Sim:0h3m17s) 

Warmup complete CPU  0 instructions:    2000282 cycles:     986268 (Simulation time: 0 hr 3 min 17 sec) 
Warmup complete CPU  1 instructions:    2000280 cycles:     986268 (Simulation time: 0 hr 3 min 17 sec) 
Warmup complete CPU  2 instructions:    2000001 cycles:     986268 (Simulation time: 0 hr 3 min 17 sec) 
Warmup complete CPU  3 instructions:    2001186 cycles:     986267 (Simulation time: 0 hr 3 min 17 sec) 

CPU  3 inst:    3000000 cyc:    1542457 now IPC :1.79606: AVG IPC :1.79581: L2-Pf-HR :0.88366: L2-HR :0.86263: (Sim:0h4m40s) 
CPU  0 inst:    3000000 cyc:    1547431 now IPC :1.78166: AVG IPC :1.78151: L2-Pf-HR :0.87041: L2-HR :0.85440: (Sim:0h4m41s) 
CPU  1 inst:    3000000 cyc:    1552444 now IPC :1.76594: AVG IPC :1.76574: L2-Pf-HR :0.88022: L2-HR :0.86410: (Sim:0h4m41s) 
CPU  2 inst:    3000000 cyc:    1552574 now IPC :1.76583: AVG IPC :1.76583: L2-Pf-HR :0.88275: L2-HR :0.85960: (Sim:0h4m41s) 
CPU  3 inst:    4000002 cyc:    2066243 now IPC :1.90918: AVG IPC :1.85080: L2-Pf-HR :0.87709: L2-HR :0.85747: (Sim:0h6m2s) 
CPU  0 inst:    4000002 cyc:    2075011 now IPC :1.89545: AVG IPC :1.83672: L2-Pf-HR :0.87210: L2-HR :0.85625: (Sim:0h6m3s) 
CPU  1 inst:    4000002 cyc:    2085098 now IPC :1.87740: AVG IPC :1.81986: L2-Pf-HR :0.87651: L2-HR :0.86110: (Sim:0h6m5s) 
CPU  2 inst:    4000002 cyc:    2085772 now IPC :1.87548: AVG IPC :1.81900: L2-Pf-HR :0.87652: L2-HR :0.85536: (Sim:0h6m5s) 
CPU  3 inst:    5000004 cyc:    2592660 now IPC :1.89964: AVG IPC :1.86680: L2-Pf-HR :0.87065: L2-HR :0.85211: (Sim:0h7m23s) 
CPU  0 inst:    5000004 cyc:    2605883 now IPC :1.88370: AVG IPC :1.85212: L2-Pf-HR :0.86908: L2-HR :0.85395: (Sim:0h7m25s) 
CPU  1 inst:    5000004 cyc:    2613881 now IPC :1.89114: AVG IPC :1.84302: L2-Pf-HR :0.87150: L2-HR :0.85718: (Sim:0h7m27s) 
CPU  2 inst:    5000004 cyc:    2617144 now IPC :1.88192: AVG IPC :1.83950: L2-Pf-HR :0.86946: L2-HR :0.84927: (Sim:0h7m27s) 
CPU  3 inst:    6000003 cyc:    3126062 now IPC :1.87476: AVG IPC :1.86879: L2-Pf-HR :0.86849: L2-HR :0.85049: (Sim:0h8m21s) 
CPU  0 inst:    6000003 cyc:    3140358 now IPC :1.87099: AVG IPC :1.85680: L2-Pf-HR :0.86708: L2-HR :0.85251: (Sim:0h8m22s) 
CPU  1 inst:    6000003 cyc:    3147888 now IPC :1.87263: AVG IPC :1.85034: L2-Pf-HR :0.87194: L2-HR :0.85735: (Sim:0h8m23s) 
CPU  2 inst:    6000003 cyc:    3149247 now IPC :1.87933: AVG IPC :1.84930: L2-Pf-HR :0.86869: L2-HR :0.84876: (Sim:0h8m23s) 
CPU  3 inst:    7000003 cyc:    3688235 now IPC :1.77881: AVG IPC :1.85007: L2-Pf-HR :0.87749: L2-HR :0.86147: (Sim:0h9m10s) 
CPU  0 inst:    7000003 cyc:    3706094 now IPC :1.76761: AVG IPC :1.83825: L2-Pf-HR :0.87675: L2-HR :0.86361: (Sim:0h9m11s) 
CPU  1 inst:    7000003 cyc:    3712456 now IPC :1.77127: AVG IPC :1.83396: L2-Pf-HR :0.88114: L2-HR :0.86794: (Sim:0h9m12s) 
CPU  2 inst:    7000003 cyc:    3714490 now IPC :1.76915: AVG IPC :1.83270: L2-Pf-HR :0.87751: L2-HR :0.85986: (Sim:0h9m12s) 
CPU  3 inst:    8000004 cyc:    4180079 now IPC :2.03317: AVG IPC :1.87826: L2-Pf-HR :0.89022: L2-HR :0.87612: (Sim:0h9m57s) 
CPU  0 inst:    8000004 cyc:    4193960 now IPC :2.04975: AVG IPC :1.87042: L2-Pf-HR :0.88956: L2-HR :0.87780: (Sim:0h9m58s) 
CPU  1 inst:    8000004 cyc:    4200881 now IPC :2.04740: AVG IPC :1.86639: L2-Pf-HR :0.89359: L2-HR :0.88185: (Sim:0h9m59s) 
CPU  2 inst:    8000004 cyc:    4201951 now IPC :2.05145: AVG IPC :1.86586: L2-Pf-HR :0.89037: L2-HR :0.87488: (Sim:0h9m59s) 
CPU  3 inst:    9000005 cyc:    4873792 now IPC :1.44152: AVG IPC :1.80033: L2-Pf-HR :0.88730: L2-HR :0.87316: (Sim:0h10m50s) 
CPU  0 inst:    9000005 cyc:    4883622 now IPC :1.44999: AVG IPC :1.79602: L2-Pf-HR :0.88480: L2-HR :0.87211: (Sim:0h10m51s) 
CPU  1 inst:    9000005 cyc:    4893139 now IPC :1.44455: AVG IPC :1.79164: L2-Pf-HR :0.88626: L2-HR :0.87387: (Sim:0h10m52s) 
CPU  2 inst:    9000005 cyc:    4894945 now IPC :1.44302: AVG IPC :1.79089: L2-Pf-HR :0.88637: L2-HR :0.87046: (Sim:0h10m52s) 
CPU  3 inst:   10000001 cyc:    5379995 now IPC :1.97548: AVG IPC :1.82051: L2-Pf-HR :0.88553: L2-HR :0.87287: (Sim:0h11m38s) 
CPU  0 inst:   10000001 cyc:    5385509 now IPC :1.99247: AVG IPC :1.81843: L2-Pf-HR :0.88586: L2-HR :0.87351: (Sim:0h11m38s) 
CPU  2 inst:   10000001 cyc:    5399686 now IPC :1.98121: AVG IPC :1.81265: L2-Pf-HR :0.88610: L2-HR :0.87083: (Sim:0h11m40s) 
CPU  1 inst:   10000001 cyc:    5406500 now IPC :1.94794: AVG IPC :1.80980: L2-Pf-HR :0.88473: L2-HR :0.87291: (Sim:0h11m40s) 
CPU  3 inst:   11000003 cyc:    5887505 now IPC :1.97041: AVG IPC :1.83603: L2-Pf-HR :0.88392: L2-HR :0.87224: (Sim:0h12m26s) 
CPU  0 inst:   11000003 cyc:    5893019 now IPC :1.97041: AVG IPC :1.83415: L2-Pf-HR :0.88669: L2-HR :0.87459: (Sim:0h12m26s) 
CPU  2 inst:   11000003 cyc:    5904234 now IPC :1.98198: AVG IPC :1.83003: L2-Pf-HR :0.88581: L2-HR :0.87091: (Sim:0h12m27s) 
CPU  1 inst:   11000003 cyc:    5912189 now IPC :1.97750: AVG IPC :1.82701: L2-Pf-HR :0.88402: L2-HR :0.87255: (Sim:0h12m28s) 
CPU  3 inst:   12000000 cyc:    6394033 now IPC :1.97422: AVG IPC :1.84897: L2-Pf-HR :0.88332: L2-HR :0.87237: (Sim:0h13m13s) 
CPU  0 inst:   12000005 cyc:    6400452 now IPC :1.97071: AVG IPC :1.84695: L2-Pf-HR :0.88758: L2-HR :0.87580: (Sim:0h13m14s) 
CPU  2 inst:   12000000 cyc:    6408952 now IPC :1.98130: AVG IPC :1.84411: L2-Pf-HR :0.88610: L2-HR :0.87167: (Sim:0h13m15s) 
CPU  1 inst:   12000005 cyc:    6421370 now IPC :1.96394: AVG IPC :1.83984: L2-Pf-HR :0.88210: L2-HR :0.87134: (Sim:0h13m16s) 
CPU  3 inst:   13000004 cyc:    6900182 now IPC :1.97571: AVG IPC :1.85982: L2-Pf-HR :0.88448: L2-HR :0.87391: (Sim:0h14m1s) 
CPU  0 inst:   13000004 cyc:    6903243 now IPC :1.98890: AVG IPC :1.85901: L2-Pf-HR :0.88959: L2-HR :0.87773: (Sim:0h14m1s) 
CPU  2 inst:   13000004 cyc:    6911092 now IPC :1.99148: AVG IPC :1.85660: L2-Pf-HR :0.88721: L2-HR :0.87284: (Sim:0h14m2s) 
CPU  1 inst:   13000004 cyc:    6921982 now IPC :1.99755: AVG IPC :1.85314: L2-Pf-HR :0.88280: L2-HR :0.87208: (Sim:0h14m3s) 
CPU  3 inst:   14000000 cyc:    7396028 now IPC :2.01675: AVG IPC :1.87196: L2-Pf-HR :0.88557: L2-HR :0.87484: (Sim:0h14m48s) 
CPU  0 inst:   14000000 cyc:    7396545 now IPC :2.02715: AVG IPC :1.87195: L2-Pf-HR :0.89135: L2-HR :0.87896: (Sim:0h14m48s) 
CPU  2 inst:   14000000 cyc:    7402334 now IPC :2.03565: AVG IPC :1.87030: L2-Pf-HR :0.88838: L2-HR :0.87372: (Sim:0h14m49s) 
CPU  1 inst:   14000000 cyc:    7413461 now IPC :2.03467: AVG IPC :1.86702: L2-Pf-HR :0.88414: L2-HR :0.87303: (Sim:0h14m50s) 
CPU  0 inst:   15000001 cyc:    8017539 now IPC :1.61032: AVG IPC :1.84884: L2-Pf-HR :0.89370: L2-HR :0.88163: (Sim:0h15m38s) 
CPU  3 inst:   15000001 cyc:    8024209 now IPC :1.59190: AVG IPC :1.84696: L2-Pf-HR :0.88791: L2-HR :0.87733: (Sim:0h15m38s) 
CPU  2 inst:   15000001 cyc:    8038163 now IPC :1.57275: AVG IPC :1.84348: L2-Pf-HR :0.89140: L2-HR :0.87742: (Sim:0h15m39s) 
CPU  1 inst:   15000001 cyc:    8053085 now IPC :1.56342: AVG IPC :1.83954: L2-Pf-HR :0.88740: L2-HR :0.87663: (Sim:0h15m41s) 
CPU  0 inst:   16000000 cyc:    8523066 now IPC :1.97813: AVG IPC :1.85752: L2-Pf-HR :0.89673: L2-HR :0.88536: (Sim:0h16m24s) 
CPU  3 inst:   16000000 cyc:    8529202 now IPC :1.98022: AVG IPC :1.85588: L2-Pf-HR :0.89119: L2-HR :0.88118: (Sim:0h16m25s) 
CPU  2 inst:   16000000 cyc:    8543359 now IPC :1.97943: AVG IPC :1.85256: L2-Pf-HR :0.89537: L2-HR :0.88222: (Sim:0h16m26s) 
CPU  1 inst:   16000000 cyc:    8558411 now IPC :1.97892: AVG IPC :1.84885: L2-Pf-HR :0.89163: L2-HR :0.88150: (Sim:0h16m28s) 
CPU  0 inst:   17000002 cyc:    9914952 now IPC :0.71845: AVG IPC :1.67995: L2-Pf-HR :0.89510: L2-HR :0.88393: (Sim:0h17m36s) 
CPU  3 inst:   17000002 cyc:    9930599 now IPC :0.71358: AVG IPC :1.67691: L2-Pf-HR :0.89084: L2-HR :0.88071: (Sim:0h17m37s) 
CPU  1 inst:   17000002 cyc:    9949831 now IPC :0.71869: AVG IPC :1.67341: L2-Pf-HR :0.89135: L2-HR :0.88112: (Sim:0h17m38s) 
CPU  2 inst:   17000002 cyc:    9988121 now IPC :0.69216: AVG IPC :1.66632: L2-Pf-HR :0.89415: L2-HR :0.88125: (Sim:0h17m41s) 
CPU  0 inst:   18000005 cyc:   10546795 now IPC :1.58268: AVG IPC :1.67352: L2-Pf-HR :0.89560: L2-HR :0.88533: (Sim:0h18m27s) 
CPU  3 inst:   18000005 cyc:   10551789 now IPC :1.60982: AVG IPC :1.67255: L2-Pf-HR :0.89237: L2-HR :0.88289: (Sim:0h18m27s) 
CPU  1 inst:   18000005 cyc:   10574317 now IPC :1.60132: AVG IPC :1.66872: L2-Pf-HR :0.89274: L2-HR :0.88307: (Sim:0h18m29s) 
CPU  2 inst:   18000005 cyc:   10623144 now IPC :1.57475: AVG IPC :1.66029: L2-Pf-HR :0.89456: L2-HR :0.88277: (Sim:0h18m33s) 
CPU  0 inst:   19000003 cyc:   11126447 now IPC :1.72517: AVG IPC :1.67647: L2-Pf-HR :0.89491: L2-HR :0.88557: (Sim:0h19m15s) 
CPU  3 inst:   19000003 cyc:   11159346 now IPC :1.64593: AVG IPC :1.67096: L2-Pf-HR :0.89259: L2-HR :0.88385: (Sim:0h19m18s) 
CPU  1 inst:   19000003 cyc:   11161441 now IPC :1.70321: AVG IPC :1.67071: L2-Pf-HR :0.89291: L2-HR :0.88377: (Sim:0h19m18s) 
CPU  2 inst:   19000003 cyc:   11191112 now IPC :1.76066: AVG IPC :1.66588: L2-Pf-HR :0.89455: L2-HR :0.88383: (Sim:0h19m20s) 
CPU  0 inst:   20000003 cyc:   11730255 now IPC :1.65616: AVG IPC :1.67533: L2-Pf-HR :0.89525: L2-HR :0.88664: (Sim:0h20m4s) 
CPU  3 inst:   20000005 cyc:   11783218 now IPC :1.60290: AVG IPC :1.66703: L2-Pf-HR :0.89300: L2-HR :0.88495: (Sim:0h20m9s) 
CPU  1 inst:   20000003 cyc:   11790424 now IPC :1.58987: AVG IPC :1.66600: L2-Pf-HR :0.89253: L2-HR :0.88404: (Sim:0h20m10s) 
CPU  2 inst:   20000005 cyc:   11790728 now IPC :1.66774: AVG IPC :1.66598: L2-Pf-HR :0.89471: L2-HR :0.88496: (Sim:0h20m10s) 
CPU  0 inst:   21000001 cyc:   12269613 now IPC :1.85405: AVG IPC :1.68387: L2-Pf-HR :0.89538: L2-HR :0.88741: (Sim:0h20m52s) 
CPU  3 inst:   21000001 cyc:   12318831 now IPC :1.86701: AVG IPC :1.67648: L2-Pf-HR :0.89383: L2-HR :0.88628: (Sim:0h20m56s) 
CPU  2 inst:   21000001 cyc:   12361649 now IPC :1.75155: AVG IPC :1.67027: L2-Pf-HR :0.89484: L2-HR :0.88585: (Sim:0h21m0s) 
CPU  1 inst:   21000001 cyc:   12361705 now IPC :1.75045: AVG IPC :1.67024: L2-Pf-HR :0.89311: L2-HR :0.88495: (Sim:0h21m0s) 
CPU  0 inst:   22000001 cyc:   12785695 now IPC :1.93768: AVG IPC :1.69497: L2-Pf-HR :0.89612: L2-HR :0.88865: (Sim:0h22m9s) 
CPU  3 inst:   22000001 cyc:   12837905 now IPC :1.92651: AVG IPC :1.68743: L2-Pf-HR :0.89498: L2-HR :0.88767: (Sim:0h22m18s) 
CPU  2 inst:   22000001 cyc:   12873699 now IPC :1.95293: AVG IPC :1.68245: L2-Pf-HR :0.89583: L2-HR :0.88732: (Sim:0h22m24s) 
CPU  1 inst:   22000001 cyc:   12880303 now IPC :1.92828: AVG IPC :1.68149: L2-Pf-HR :0.89422: L2-HR :0.88634: (Sim:0h22m25s) 
CPU  0 inst:   23000005 cyc:   13460229 now IPC :1.48251: AVG IPC :1.68348: L2-Pf-HR :0.89843: L2-HR :0.89080: (Sim:0h23m40s) 
CPU  3 inst:   23000005 cyc:   13523437 now IPC :1.45873: AVG IPC :1.67492: L2-Pf-HR :0.89631: L2-HR :0.88891: (Sim:0h23m50s) 
CPU  2 inst:   23000005 cyc:   13587416 now IPC :1.40112: AVG IPC :1.66652: L2-Pf-HR :0.89682: L2-HR :0.88837: (Sim:0h24m1s) 
CPU  1 inst:   23000005 cyc:   13590709 now IPC :1.40765: AVG IPC :1.66606: L2-Pf-HR :0.89533: L2-HR :0.88742: (Sim:0h24m2s) 
CPU  0 inst:   24000003 cyc:   13967433 now IPC :1.97159: AVG IPC :1.69474: L2-Pf-HR :0.90015: L2-HR :0.89270: (Sim:0h25m4s) 
CPU  3 inst:   24000003 cyc:   14027231 now IPC :1.98493: AVG IPC :1.68690: L2-Pf-HR :0.89788: L2-HR :0.89067: (Sim:0h25m15s) 
CPU  2 inst:   24000003 cyc:   14094326 now IPC :1.97273: AVG IPC :1.67836: L2-Pf-HR :0.89885: L2-HR :0.89060: (Sim:0h25m25s) 
CPU  1 inst:   24000003 cyc:   14097541 now IPC :1.97304: AVG IPC :1.67792: L2-Pf-HR :0.89737: L2-HR :0.88968: (Sim:0h25m26s) 
CPU  0 inst:   25000002 cyc:   15094029 now IPC :0.88763: AVG IPC :1.63029: L2-Pf-HR :0.89886: L2-HR :0.89132: (Sim:0h26m55s) 
CPU  3 inst:   25000002 cyc:   15301031 now IPC :0.78505: AVG IPC :1.60665: L2-Pf-HR :0.89721: L2-HR :0.88979: (Sim:0h27m24s) 
CPU  2 inst:   25000002 cyc:   15387136 now IPC :0.77351: AVG IPC :1.59713: L2-Pf-HR :0.89776: L2-HR :0.88948: (Sim:0h27m36s) 
CPU  1 inst:   25000002 cyc:   15390817 now IPC :0.77323: AVG IPC :1.59670: L2-Pf-HR :0.89636: L2-HR :0.88865: (Sim:0h27m36s) 
CPU  0 inst:   26000001 cyc:   15728242 now IPC :1.57676: AVG IPC :1.62799: L2-Pf-HR :0.89823: L2-HR :0.89131: (Sim:0h28m26s) 
CPU  3 inst:   26000001 cyc:   15892924 now IPC :1.68949: AVG IPC :1.60994: L2-Pf-HR :0.89724: L2-HR :0.89023: (Sim:0h28m51s) 
CPU  2 inst:   26000001 cyc:   15996952 now IPC :1.63984: AVG IPC :1.59886: L2-Pf-HR :0.89705: L2-HR :0.88944: (Sim:0h29m8s) 
CPU  1 inst:   26000001 cyc:   15998813 now IPC :1.64475: AVG IPC :1.59864: L2-Pf-HR :0.89695: L2-HR :0.88985: (Sim:0h29m8s) 
CPU  0 inst:   27000004 cyc:   16293316 now IPC :1.76969: AVG IPC :1.63322: L2-Pf-HR :0.89765: L2-HR :0.89132: (Sim:0h29m52s) 
CPU  3 inst:   27000004 cyc:   16464852 now IPC :1.74848: AVG IPC :1.61506: L2-Pf-HR :0.89773: L2-HR :0.89107: (Sim:0h30m18s) 
CPU  2 inst:   27000004 cyc:   16575111 now IPC :1.72963: AVG IPC :1.60371: L2-Pf-HR :0.89684: L2-HR :0.88976: (Sim:0h30m36s) 
CPU  1 inst:   27000004 cyc:   16576066 now IPC :1.73235: AVG IPC :1.60360: L2-Pf-HR :0.89780: L2-HR :0.89112: (Sim:0h30m36s) 
CPU  0 inst:   28000003 cyc:   16877674 now IPC :1.71128: AVG IPC :1.63609: L2-Pf-HR :0.89728: L2-HR :0.89139: (Sim:0h31m22s) 
CPU  3 inst:   28000003 cyc:   17038983 now IPC :1.74176: AVG IPC :1.61959: L2-Pf-HR :0.89816: L2-HR :0.89178: (Sim:0h31m47s) 
CPU  2 inst:   28000003 cyc:   17155540 now IPC :1.72286: AVG IPC :1.60799: L2-Pf-HR :0.89660: L2-HR :0.89000: (Sim:0h32m4s) 
CPU  1 inst:   28000003 cyc:   17156933 now IPC :1.72156: AVG IPC :1.60783: L2-Pf-HR :0.89824: L2-HR :0.89202: (Sim:0h32m5s) 
CPU  0 inst:   29000001 cyc:   17444755 now IPC :1.76341: AVG IPC :1.64047: L2-Pf-HR :0.89716: L2-HR :0.89169: (Sim:0h32m50s) 
CPU  3 inst:   29000001 cyc:   17594944 now IPC :1.79868: AVG IPC :1.62558: L2-Pf-HR :0.89863: L2-HR :0.89252: (Sim:0h33m14s) 
CPU  2 inst:   29000001 cyc:   17725565 now IPC :1.75431: AVG IPC :1.61297: L2-Pf-HR :0.89665: L2-HR :0.89049: (Sim:0h33m36s) 
CPU  1 inst:   29000001 cyc:   17726148 now IPC :1.75680: AVG IPC :1.61290: L2-Pf-HR :0.89900: L2-HR :0.89314: (Sim:0h33m36s) 
CPU  0 inst:   30000002 cyc:   17959972 now IPC :1.94093: AVG IPC :1.64959: L2-Pf-HR :0.89746: L2-HR :0.89230: (Sim:0h34m15s) 
CPU  3 inst:   30000002 cyc:   18116250 now IPC :1.91826: AVG IPC :1.63449: L2-Pf-HR :0.89975: L2-HR :0.89372: (Sim:0h34m40s) 
CPU  2 inst:   30000002 cyc:   18244917 now IPC :1.92548: AVG IPC :1.62238: L2-Pf-HR :0.89758: L2-HR :0.89168: (Sim:0h35m0s) 
CPU  1 inst:   30000002 cyc:   18252313 now IPC :1.90055: AVG IPC :1.62166: L2-Pf-HR :0.90032: L2-HR :0.89459: (Sim:0h35m1s) 
CPU  0 inst:   31000003 cyc:   18603579 now IPC :1.55374: AVG IPC :1.64609: L2-Pf-HR :0.89883: L2-HR :0.89349: (Sim:0h35m48s) 
CPU  3 inst:   31000003 cyc:   18736137 now IPC :1.61320: AVG IPC :1.63375: L2-Pf-HR :0.90087: L2-HR :0.89465: (Sim:0h36m10s) 
CPU  2 inst:   31000003 cyc:   18879845 now IPC :1.57498: AVG IPC :1.62069: L2-Pf-HR :0.89834: L2-HR :0.89242: (Sim:0h36m33s) 
CPU  1 inst:   31000003 cyc:   18893129 now IPC :1.56051: AVG IPC :1.61948: L2-Pf-HR :0.90105: L2-HR :0.89523: (Sim:0h36m36s) 
CPU  0 inst:   32000002 cyc:   19109787 now IPC :1.97547: AVG IPC :1.65529: L2-Pf-HR :0.89987: L2-HR :0.89461: (Sim:0h37m11s) 
CPU  3 inst:   32000002 cyc:   19241228 now IPC :1.97984: AVG IPC :1.64332: L2-Pf-HR :0.90186: L2-HR :0.89573: (Sim:0h37m33s) 
CPU  2 inst:   32000002 cyc:   19411979 now IPC :1.87922: AVG IPC :1.62816: L2-Pf-HR :0.89979: L2-HR :0.89394: (Sim:0h37m54s) 
CPU  1 inst:   32000002 cyc:   19433870 now IPC :1.84931: AVG IPC :1.62621: L2-Pf-HR :0.90249: L2-HR :0.89672: (Sim:0h37m57s) 
CPU  0 inst:   33000004 cyc:   20109160 now IPC :1.00063: AVG IPC :1.62108: L2-Pf-HR :0.89882: L2-HR :0.89350: (Sim:0h38m55s) 
CPU  3 inst:   33000004 cyc:   20408358 now IPC :0.85680: AVG IPC :1.59606: L2-Pf-HR :0.90099: L2-HR :0.89479: (Sim:0h39m27s) 
CPU  2 inst:   33000004 cyc:   20705949 now IPC :0.77282: AVG IPC :1.57203: L2-Pf-HR :0.89883: L2-HR :0.89296: (Sim:0h40m8s) 
CPU  1 inst:   33000004 cyc:   20712658 now IPC :0.78199: AVG IPC :1.57148: L2-Pf-HR :0.90116: L2-HR :0.89541: (Sim:0h40m9s) 
CPU  0 inst:   34000001 cyc:   20787927 now IPC :1.47326: AVG IPC :1.61601: L2-Pf-HR :0.89871: L2-HR :0.89379: (Sim:0h40m20s) 
CPU  3 inst:   34000001 cyc:   21023933 now IPC :1.62449: AVG IPC :1.59693: L2-Pf-HR :0.90068: L2-HR :0.89488: (Sim:0h40m55s) 
CPU  2 inst:   34000001 cyc:   21324286 now IPC :1.61724: AVG IPC :1.57341: L2-Pf-HR :0.89831: L2-HR :0.89286: (Sim:0h41m44s) 
CPU  1 inst:   34000001 cyc:   21342648 now IPC :1.58732: AVG IPC :1.57197: L2-Pf-HR :0.90068: L2-HR :0.89542: (Sim:0h41m47s) 
CPU  0 inst:   35000003 cyc:   21349044 now IPC :1.78216: AVG IPC :1.62059: L2-Pf-HR :0.89826: L2-HR :0.89378: (Sim:0h41m48s) 
CPU  3 inst:   35000003 cyc:   21581414 now IPC :1.79379: AVG IPC :1.60226: L2-Pf-HR :0.90027: L2-HR :0.89486: (Sim:0h42m28s) 
CPU  2 inst:   35000003 cyc:   21856627 now IPC :1.87850: AVG IPC :1.58119: L2-Pf-HR :0.89808: L2-HR :0.89309: (Sim:0h43m13s) 
CPU  1 inst:   35000003 cyc:   21897766 now IPC :1.80142: AVG IPC :1.57807: L2-Pf-HR :0.90018: L2-HR :0.89538: (Sim:0h43m21s) 
CPU  0 inst:   36000000 cyc:   21912483 now IPC :1.77481: AVG IPC :1.62474: L2-Pf-HR :0.89785: L2-HR :0.89371: (Sim:0h43m23s) 
CPU  3 inst:   36000000 cyc:   22144164 now IPC :1.77698: AVG IPC :1.60691: L2-Pf-HR :0.90028: L2-HR :0.89515: (Sim:0h44m2s) 
CPU  2 inst:   36000000 cyc:   22389962 now IPC :1.87499: AVG IPC :1.58851: L2-Pf-HR :0.89871: L2-HR :0.89397: (Sim:0h44m43s) 
CPU  1 inst:   36000000 cyc:   22450290 now IPC :1.80987: AVG IPC :1.58403: L2-Pf-HR :0.90039: L2-HR :0.89588: (Sim:0h44m53s) 
CPU  0 inst:   37000001 cyc:   22452693 now IPC :1.85113: AVG IPC :1.63044: L2-Pf-HR :0.89825: L2-HR :0.89427: (Sim:0h44m54s) 
CPU  3 inst:   37000001 cyc:   22665633 now IPC :1.91766: AVG IPC :1.61438: L2-Pf-HR :0.90093: L2-HR :0.89592: (Sim:0h45m30s) 
CPU  2 inst:   37000001 cyc:   22907574 now IPC :1.93195: AVG IPC :1.59662: L2-Pf-HR :0.89940: L2-HR :0.89485: (Sim:0h46m12s) 
CPU  1 inst:   37000001 cyc:   22970055 now IPC :1.92395: AVG IPC :1.59207: L2-Pf-HR :0.90093: L2-HR :0.89659: (Sim:0h46m23s) 
CPU  0 inst:   38000000 cyc:   22978424 now IPC :1.90211: AVG IPC :1.63693: L2-Pf-HR :0.89898: L2-HR :0.89513: (Sim:0h46m24s) 
CPU  3 inst:   38000000 cyc:   23202620 now IPC :1.86224: AVG IPC :1.62037: L2-Pf-HR :0.90182: L2-HR :0.89685: (Sim:0h47m1s) 
CPU  2 inst:   38000000 cyc:   23452671 now IPC :1.83453: AVG IPC :1.60239: L2-Pf-HR :0.90085: L2-HR :0.89631: (Sim:0h47m40s) 
CPU  1 inst:   38000000 cyc:   23507958 now IPC :1.85907: AVG IPC :1.59845: L2-Pf-HR :0.90193: L2-HR :0.89761: (Sim:0h47m50s) 
CPU  0 inst:   39000001 cyc:   23589632 now IPC :1.63611: AVG IPC :1.63691: L2-Pf-HR :0.90053: L2-HR :0.89637: (Sim:0h48m4s) 
CPU  3 inst:   39000001 cyc:   23852650 now IPC :1.53839: AVG IPC :1.61804: L2-Pf-HR :0.90334: L2-HR :0.89805: (Sim:0h48m39s) 
CPU  2 inst:   39000001 cyc:   24084896 now IPC :1.58172: AVG IPC :1.60183: L2-Pf-HR :0.90198: L2-HR :0.89720: (Sim:0h49m19s) 
CPU  1 inst:   39000001 cyc:   24137293 now IPC :1.58898: AVG IPC :1.59819: L2-Pf-HR :0.90303: L2-HR :0.89846: (Sim:0h49m28s) 
CPU  0 inst:   40000002 cyc:   24160360 now IPC :1.75215: AVG IPC :1.63975: L2-Pf-HR :0.90198: L2-HR :0.89770: (Sim:0h49m32s) 
CPU  3 inst:   40000002 cyc:   24392305 now IPC :1.85304: AVG IPC :1.62346: L2-Pf-HR :0.90454: L2-HR :0.89917: (Sim:0h50m7s) 
CPU  2 inst:   40000002 cyc:   24694927 now IPC :1.63926: AVG IPC :1.60279: L2-Pf-HR :0.90347: L2-HR :0.89857: (Sim:0h50m45s) 
CPU  1 inst:   40000002 cyc:   24744766 now IPC :1.64617: AVG IPC :1.59942: L2-Pf-HR :0.90458: L2-HR :0.89990: (Sim:0h50m51s) 
CPU  0 inst:   41000002 cyc:   25057776 now IPC :1.11431: AVG IPC :1.62016: L2-Pf-HR :0.90161: L2-HR :0.89709: (Sim:0h51m25s) 
CPU  3 inst:   41000002 cyc:   25441336 now IPC :0.95326: AVG IPC :1.59471: L2-Pf-HR :0.90448: L2-HR :0.89892: (Sim:0h52m5s) 
CPU  0 inst:   42000000 cyc:   25731778 now IPC :1.48367: AVG IPC :1.61644: L2-Pf-HR :0.90215: L2-HR :0.89779: (Sim:0h52m42s) 
CPU  2 inst:   41000002 cyc:   25875926 now IPC :0.84674: AVG IPC :1.56692: L2-Pf-HR :0.90318: L2-HR :0.89811: (Sim:0h53m3s) 
CPU  1 inst:   41000002 cyc:   25930300 now IPC :0.84350: AVG IPC :1.56349: L2-Pf-HR :0.90410: L2-HR :0.89924: (Sim:0h53m12s) 
CPU  3 inst:   42000000 cyc:   26046228 now IPC :1.65318: AVG IPC :1.59612: L2-Pf-HR :0.90451: L2-HR :0.89919: (Sim:0h53m30s) 
CPU  0 inst:   43000003 cyc:   26319860 now IPC :1.70045: AVG IPC :1.61839: L2-Pf-HR :0.90209: L2-HR :0.89799: (Sim:0h54m14s) 
CPU  2 inst:   42000000 cyc:   26453151 now IPC :1.73242: AVG IPC :1.57067: L2-Pf-HR :0.90297: L2-HR :0.89817: (Sim:0h54m35s) 
CPU  1 inst:   42000000 cyc:   26491703 now IPC :1.78125: AVG IPC :1.56828: L2-Pf-HR :0.90413: L2-HR :0.89953: (Sim:0h54m42s) 
CPU  3 inst:   43000003 cyc:   26613068 now IPC :1.76417: AVG IPC :1.59984: L2-Pf-HR :0.90455: L2-HR :0.89946: (Sim:0h55m1s) 
CPU  0 inst:   44000005 cyc:   26886829 now IPC :1.76377: AVG IPC :1.62158: L2-Pf-HR :0.90233: L2-HR :0.89838: (Sim:0h55m44s) 
CPU  2 inst:   43000003 cyc:   27019182 now IPC :1.76669: AVG IPC :1.57493: L2-Pf-HR :0.90300: L2-HR :0.89845: (Sim:0h56m6s) 
CPU  1 inst:   43000003 cyc:   27058323 now IPC :1.76486: AVG IPC :1.57255: L2-Pf-HR :0.90409: L2-HR :0.89976: (Sim:0h56m13s) 
CPU  3 inst:   44000005 cyc:   27205453 now IPC :1.68809: AVG IPC :1.60184: L2-Pf-HR :0.90463: L2-HR :0.89973: (Sim:0h56m36s) 
CPU  0 inst:   45000004 cyc:   27445393 now IPC :1.79030: AVG IPC :1.62514: L2-Pf-HR :0.90274: L2-HR :0.89889: (Sim:0h57m15s) 
CPU  2 inst:   44000005 cyc:   27566504 now IPC :1.82708: AVG IPC :1.58012: L2-Pf-HR :0.90352: L2-HR :0.89910: (Sim:0h57m35s) 
CPU  1 inst:   44000005 cyc:   27595888 now IPC :1.86024: AVG IPC :1.57837: L2-Pf-HR :0.90452: L2-HR :0.90033: (Sim:0h57m40s) 
CPU  3 inst:   45000004 cyc:   27746084 now IPC :1.84969: AVG IPC :1.60684: L2-Pf-HR :0.90523: L2-HR :0.90042: (Sim:0h58m5s) 
CPU  0 inst:   46000000 cyc:   27981412 now IPC :1.86560: AVG IPC :1.62991: L2-Pf-HR :0.90376: L2-HR :0.89992: (Sim:0h58m45s) 
CPU  2 inst:   45000004 cyc:   28077370 now IPC :1.95746: AVG IPC :1.58724: L2-Pf-HR :0.90466: L2-HR :0.90023: (Sim:0h59m1s) 
CPU  1 inst:   45000004 cyc:   28103250 now IPC :1.97098: AVG IPC :1.58571: L2-Pf-HR :0.90558: L2-HR :0.90142: (Sim:0h59m6s) 
CPU  3 inst:   46000000 cyc:   28269680 now IPC :1.90986: AVG IPC :1.61266: L2-Pf-HR :0.90630: L2-HR :0.90150: (Sim:0h59m33s) 
CPU  0 inst:   47000004 cyc:   28576941 now IPC :1.67919: AVG IPC :1.63098: L2-Pf-HR :0.90496: L2-HR :0.90083: (Sim:1h0m23s) 
CPU  2 inst:   46000000 cyc:   28594690 now IPC :1.93303: AVG IPC :1.59372: L2-Pf-HR :0.90596: L2-HR :0.90151: (Sim:1h0m26s) 
CPU  1 inst:   46000000 cyc:   28615998 now IPC :1.95027: AVG IPC :1.59248: L2-Pf-HR :0.90680: L2-HR :0.90262: (Sim:1h0m30s) 
CPU  3 inst:   47000004 cyc:   28889936 now IPC :1.61224: AVG IPC :1.61265: L2-Pf-HR :0.90719: L2-HR :0.90218: (Sim:1h1m8s) 
CPU  0 inst:   48000002 cyc:   29140445 now IPC :1.77461: AVG IPC :1.63385: L2-Pf-HR :0.90638: L2-HR :0.90208: (Sim:1h1m49s) 
CPU  2 inst:   47000004 cyc:   29237729 now IPC :1.55512: AVG IPC :1.59284: L2-Pf-HR :0.90690: L2-HR :0.90218: (Sim:1h2m5s) 
CPU  1 inst:   47000004 cyc:   29261945 now IPC :1.54812: AVG IPC :1.59146: L2-Pf-HR :0.90790: L2-HR :0.90345: (Sim:1h2m10s) 
CPU  3 inst:   48000002 cyc:   29448117 now IPC :1.79153: AVG IPC :1.61616: L2-Pf-HR :0.90875: L2-HR :0.90354: (Sim:1h2m35s) 
CPU  2 inst:   48000002 cyc:   29862741 now IPC :1.59997: AVG IPC :1.59299: L2-Pf-HR :0.90866: L2-HR :0.90373: (Sim:1h3m30s) 
CPU  1 inst:   48000002 cyc:   29890768 now IPC :1.59027: AVG IPC :1.59144: L2-Pf-HR :0.90962: L2-HR :0.90494: (Sim:1h3m34s) 
CPU  0 inst:   49000005 cyc:   29950598 now IPC :1.23434: AVG IPC :1.62268: L2-Pf-HR :0.90631: L2-HR :0.90177: (Sim:1h3m42s) 
CPU  3 inst:   49000005 cyc:   30410946 now IPC :1.03861: AVG IPC :1.59726: L2-Pf-HR :0.90908: L2-HR :0.90361: (Sim:1h4m33s) 
CPU  0 inst:   50000003 cyc:   30649640 now IPC :1.43053: AVG IPC :1.61815: L2-Pf-HR :0.90719: L2-HR :0.90264: (Sim:1h5m0s) 
CPU  2 inst:   49000005 cyc:   31033331 now IPC :0.85427: AVG IPC :1.56421: L2-Pf-HR :0.90876: L2-HR :0.90360: (Sim:1h5m52s) 
CPU  1 inst:   49000005 cyc:   31059898 now IPC :0.85534: AVG IPC :1.56282: L2-Pf-HR :0.90952: L2-HR :0.90461: (Sim:1h5m56s) 
CPU  3 inst:   50000003 cyc:   31063298 now IPC :1.53291: AVG IPC :1.59586: L2-Pf-HR :0.90979: L2-HR :0.90438: (Sim:1h5m56s) 
CPU  0 inst:   51000002 cyc:   31299076 now IPC :1.53980: AVG IPC :1.61647: L2-Pf-HR :0.90784: L2-HR :0.90327: (Sim:1h6m33s) 
CPU  2 inst:   50000002 cyc:   31598938 now IPC :1.76801: AVG IPC :1.56798: L2-Pf-HR :0.90916: L2-HR :0.90407: (Sim:1h7m21s) 
CPU  1 inst:   50000003 cyc:   31627623 now IPC :1.76141: AVG IPC :1.56650: L2-Pf-HR :0.91012: L2-HR :0.90528: (Sim:1h7m26s) 
CPU  3 inst:   51000002 cyc:   31644368 now IPC :1.72096: AVG IPC :1.59823: L2-Pf-HR :0.91047: L2-HR :0.90512: (Sim:1h7m29s) 
CPU  0 inst:   52000002 cyc:   31869429 now IPC :1.75330: AVG IPC :1.61900: L2-Pf-HR :0.90822: L2-HR :0.90367: (Sim:1h8m4s) 
CPU  2 inst:   51000002 cyc:   32190718 now IPC :1.68982: AVG IPC :1.57029: L2-Pf-HR :0.90975: L2-HR :0.90468: (Sim:1h8m56s) 
CPU  1 inst:   51000002 cyc:   32197351 now IPC :1.75522: AVG IPC :1.56995: L2-Pf-HR :0.91089: L2-HR :0.90608: (Sim:1h8m57s) 
CPU  3 inst:   52000002 cyc:   32204819 now IPC :1.78428: AVG IPC :1.60157: L2-Pf-HR :0.91120: L2-HR :0.90590: (Sim:1h8m58s) 
CPU  0 inst:   53000004 cyc:   32403435 now IPC :1.87264: AVG IPC :1.62331: L2-Pf-HR :0.90875: L2-HR :0.90421: (Sim:1h9m32s) 
CPU  3 inst:   53000004 cyc:   32726490 now IPC :1.91692: AVG IPC :1.60676: L2-Pf-HR :0.91167: L2-HR :0.90646: (Sim:1h10m25s) 
CPU  1 inst:   52000002 cyc:   32743298 now IPC :1.83168: AVG IPC :1.57445: L2-Pf-HR :0.91120: L2-HR :0.90649: (Sim:1h10m27s) 
CPU  2 inst:   52000002 cyc:   32743784 now IPC :1.80810: AVG IPC :1.57443: L2-Pf-HR :0.91009: L2-HR :0.90510: (Sim:1h10m27s) 
CPU  0 inst:   54000003 cyc:   32948723 now IPC :1.83389: AVG IPC :1.62690: L2-Pf-HR :0.90940: L2-HR :0.90486: (Sim:1h11m2s) 
CPU  3 inst:   54000003 cyc:   33255405 now IPC :1.89066: AVG IPC :1.61141: L2-Pf-HR :0.91246: L2-HR :0.90728: (Sim:1h11m42s) 
CPU  2 inst:   53000004 cyc:   33281309 now IPC :1.86038: AVG IPC :1.57919: L2-Pf-HR :0.91034: L2-HR :0.90545: (Sim:1h11m44s) 
CPU  1 inst:   53000004 cyc:   33281990 now IPC :1.85635: AVG IPC :1.57915: L2-Pf-HR :0.91157: L2-HR :0.90695: (Sim:1h11m44s) 
CPU  0 inst:   55000000 cyc:   33546366 now IPC :1.67323: AVG IPC :1.62775: L2-Pf-HR :0.91002: L2-HR :0.90537: (Sim:1h12m5s) 
CPU  2 inst:   54000003 cyc:   33833818 now IPC :1.80992: AVG IPC :1.58307: L2-Pf-HR :0.91084: L2-HR :0.90596: (Sim:1h12m32s) 
CPU  3 inst:   55000000 cyc:   33836817 now IPC :1.71995: AVG IPC :1.61333: L2-Pf-HR :0.91297: L2-HR :0.90768: (Sim:1h12m32s) 
CPU  1 inst:   54000003 cyc:   33840498 now IPC :1.79048: AVG IPC :1.58274: L2-Pf-HR :0.91209: L2-HR :0.90746: (Sim:1h12m33s) 
CPU  0 inst:   56000004 cyc:   34092605 now IPC :1.83071: AVG IPC :1.63110: L2-Pf-HR :0.91078: L2-HR :0.90604: (Sim:1h13m9s) 
CPU  3 inst:   56000004 cyc:   34413683 now IPC :1.73351: AVG IPC :1.61541: L2-Pf-HR :0.91374: L2-HR :0.90835: (Sim:1h13m52s) 
CPU  2 inst:   55000000 cyc:   34484399 now IPC :1.53708: AVG IPC :1.58218: L2-Pf-HR :0.91147: L2-HR :0.90647: (Sim:1h14m0s) 
CPU  1 inst:   55000000 cyc:   34498444 now IPC :1.51988: AVG IPC :1.58151: L2-Pf-HR :0.91260: L2-HR :0.90785: (Sim:1h14m1s) 
CPU  0 inst:   57000002 cyc:   34935798 now IPC :1.18597: AVG IPC :1.62004: L2-Pf-HR :0.91060: L2-HR :0.90570: (Sim:1h14m53s) 
CPU  2 inst:   56000004 cyc:   35124168 now IPC :1.56307: AVG IPC :1.58182: L2-Pf-HR :0.91251: L2-HR :0.90740: (Sim:1h15m19s) 
CPU  1 inst:   56000004 cyc:   35132103 now IPC :1.57814: AVG IPC :1.58144: L2-Pf-HR :0.91361: L2-HR :0.90875: (Sim:1h15m20s) 
CPU  3 inst:   57000002 cyc:   35268127 now IPC :1.17035: AVG IPC :1.60431: L2-Pf-HR :0.91345: L2-HR :0.90795: (Sim:1h15m42s) 
CPU  0 inst:   58000001 cyc:   35519377 now IPC :1.71356: AVG IPC :1.62162: L2-Pf-HR :0.91110: L2-HR :0.90629: (Sim:1h16m8s) 
CPU  3 inst:   58000001 cyc:   35938498 now IPC :1.49171: AVG IPC :1.60215: L2-Pf-HR :0.91391: L2-HR :0.90848: (Sim:1h16m52s) 
CPU  2 inst:   57000002 cyc:   36183622 now IPC :0.94388: AVG IPC :1.56262: L2-Pf-HR :0.91252: L2-HR :0.90723: (Sim:1h17m23s) 
CPU  0 inst:   59000003 cyc:   36190764 now IPC :1.48946: AVG IPC :1.61910: L2-Pf-HR :0.91174: L2-HR :0.90694: (Sim:1h17m24s) 
CPU  1 inst:   57000002 cyc:   36190948 now IPC :0.94442: AVG IPC :1.56228: L2-Pf-HR :0.91347: L2-HR :0.90843: (Sim:1h17m24s) 
CPU  3 inst:   59000003 cyc:   36546665 now IPC :1.64429: AVG IPC :1.60287: L2-Pf-HR :0.91436: L2-HR :0.90895: (Sim:1h18m16s) 
CPU  0 inst:   60000005 cyc:   36746210 now IPC :1.80036: AVG IPC :1.62192: L2-Pf-HR :0.91220: L2-HR :0.90746: (Sim:1h18m46s) 
CPU  2 inst:   58000001 cyc:   36751641 now IPC :1.76050: AVG IPC :1.56576: L2-Pf-HR :0.91281: L2-HR :0.90763: (Sim:1h18m47s) 
CPU  1 inst:   58000001 cyc:   36754529 now IPC :1.77437: AVG IPC :1.56563: L2-Pf-HR :0.91356: L2-HR :0.90865: (Sim:1h18m47s) 
CPU  3 inst:   60000005 cyc:   37094896 now IPC :1.82405: AVG IPC :1.60623: L2-Pf-HR :0.91477: L2-HR :0.90939: (Sim:1h19m39s) 
CPU  0 inst:   61000004 cyc:   37271659 now IPC :1.90313: AVG IPC :1.62599: L2-Pf-HR :0.91280: L2-HR :0.90808: (Sim:1h20m5s) 
CPU  1 inst:   59000003 cyc:   37290437 now IPC :1.86600: AVG IPC :1.57006: L2-Pf-HR :0.91391: L2-HR :0.90901: (Sim:1h20m8s) 
CPU  2 inst:   59000003 cyc:   37304125 now IPC :1.81001: AVG IPC :1.56948: L2-Pf-HR :0.91332: L2-HR :0.90814: (Sim:1h20m11s) 
CPU  3 inst:   61000004 cyc:   37638495 now IPC :1.83959: AVG IPC :1.60969: L2-Pf-HR :0.91515: L2-HR :0.90982: (Sim:1h21m2s) 
CPU  0 inst:   62000003 cyc:   37818378 now IPC :1.82909: AVG IPC :1.62901: L2-Pf-HR :0.91363: L2-HR :0.90885: (Sim:1h21m28s) 
CPU  1 inst:   60000005 cyc:   37826542 now IPC :1.86531: AVG IPC :1.57436: L2-Pf-HR :0.91405: L2-HR :0.90921: (Sim:1h21m29s) 
CPU  2 inst:   60000005 cyc:   37838467 now IPC :1.87146: AVG IPC :1.57385: L2-Pf-HR :0.91387: L2-HR :0.90871: (Sim:1h21m31s) 
CPU  3 inst:   62000003 cyc:   38212896 now IPC :1.74094: AVG IPC :1.61172: L2-Pf-HR :0.91586: L2-HR :0.91048: (Sim:1h22m24s) 
CPU  1 inst:   61000004 cyc:   38372226 now IPC :1.83256: AVG IPC :1.57813: L2-Pf-HR :0.91420: L2-HR :0.90942: (Sim:1h22m49s) 
CPU  2 inst:   61000004 cyc:   38383257 now IPC :1.83557: AVG IPC :1.57767: L2-Pf-HR :0.91451: L2-HR :0.90936: (Sim:1h22m51s) 
CPU  0 inst:   63000000 cyc:   38407189 now IPC :1.69833: AVG IPC :1.63010: L2-Pf-HR :0.91449: L2-HR :0.90953: (Sim:1h22m55s) 
CPU  3 inst:   63000000 cyc:   38819905 now IPC :1.64742: AVG IPC :1.61229: L2-Pf-HR :0.91659: L2-HR :0.91102: (Sim:1h23m52s) 
CPU  1 inst:   62000003 cyc:   38934633 now IPC :1.77807: AVG IPC :1.58109: L2-Pf-HR :0.91473: L2-HR :0.90991: (Sim:1h24m9s) 
CPU  2 inst:   62000003 cyc:   38944881 now IPC :1.78055: AVG IPC :1.58067: L2-Pf-HR :0.91530: L2-HR :0.91004: (Sim:1h24m11s) 
CPU  0 inst:   64000004 cyc:   38969474 now IPC :1.77846: AVG IPC :1.63229: L2-Pf-HR :0.91537: L2-HR :0.91024: (Sim:1h24m15s) 
CPU  3 inst:   64000004 cyc:   39450181 now IPC :1.58661: AVG IPC :1.61187: L2-Pf-HR :0.91762: L2-HR :0.91189: (Sim:1h25m10s) 
CPU  1 inst:   63000000 cyc:   39650206 now IPC :1.39748: AVG IPC :1.57769: L2-Pf-HR :0.91531: L2-HR :0.91037: (Sim:1h25m39s) 
CPU  2 inst:   63000000 cyc:   39657241 now IPC :1.40378: AVG IPC :1.57741: L2-Pf-HR :0.91598: L2-HR :0.91056: (Sim:1h25m39s) 
CPU  0 inst:   65000002 cyc:   39815085 now IPC :1.18257: AVG IPC :1.62250: L2-Pf-HR :0.91525: L2-HR :0.90999: (Sim:1h25m58s) 
CPU  3 inst:   65000002 cyc:   40297959 now IPC :1.17955: AVG IPC :1.60255: L2-Pf-HR :0.91759: L2-HR :0.91171: (Sim:1h27m1s) 
CPU  1 inst:   64000004 cyc:   40302340 now IPC :1.53343: AVG IPC :1.57696: L2-Pf-HR :0.91619: L2-HR :0.91111: (Sim:1h27m2s) 
CPU  2 inst:   64000004 cyc:   40313283 now IPC :1.52430: AVG IPC :1.57652: L2-Pf-HR :0.91683: L2-HR :0.91128: (Sim:1h27m3s) 
CPU  0 inst:   66000004 cyc:   40400543 now IPC :1.70807: AVG IPC :1.62377: L2-Pf-HR :0.91520: L2-HR :0.91005: (Sim:1h27m16s) 
CPU  3 inst:   66000004 cyc:   40959869 now IPC :1.51078: AVG IPC :1.60103: L2-Pf-HR :0.91786: L2-HR :0.91206: (Sim:1h28m15s) 
CPU  0 inst:   67000003 cyc:   41103275 now IPC :1.42302: AVG IPC :1.62025: L2-Pf-HR :0.91572: L2-HR :0.91058: (Sim:1h28m31s) 
CPU  1 inst:   65000002 cyc:   41372381 now IPC :0.93454: AVG IPC :1.55994: L2-Pf-HR :0.91617: L2-HR :0.91091: (Sim:1h29m6s) 
CPU  2 inst:   65000002 cyc:   41392453 now IPC :0.92664: AVG IPC :1.55917: L2-Pf-HR :0.91663: L2-HR :0.91091: (Sim:1h29m9s) 
CPU  3 inst:   67000003 cyc:   41617868 now IPC :1.51976: AVG IPC :1.59971: L2-Pf-HR :0.91810: L2-HR :0.91237: (Sim:1h29m38s) 
CPU  0 inst:   68000002 cyc:   41696447 now IPC :1.68585: AVG IPC :1.62121: L2-Pf-HR :0.91594: L2-HR :0.91084: (Sim:1h29m52s) 
CPU  1 inst:   66000004 cyc:   41956077 now IPC :1.71322: AVG IPC :1.56212: L2-Pf-HR :0.91652: L2-HR :0.91121: (Sim:1h30m28s) 
CPU  2 inst:   66000004 cyc:   41998070 now IPC :1.65121: AVG IPC :1.56053: L2-Pf-HR :0.91609: L2-HR :0.91040: (Sim:1h30m35s) 
CPU  3 inst:   68000002 cyc:   42187062 now IPC :1.75687: AVG IPC :1.60188: L2-Pf-HR :0.91832: L2-HR :0.91265: (Sim:1h31m2s) 
CPU  0 inst:   69000001 cyc:   42277768 now IPC :1.72022: AVG IPC :1.62260: L2-Pf-HR :0.91607: L2-HR :0.91105: (Sim:1h31m14s) 
CPU  1 inst:   67000003 cyc:   42498944 now IPC :1.84207: AVG IPC :1.56578: L2-Pf-HR :0.91686: L2-HR :0.91152: (Sim:1h31m33s) 
CPU  2 inst:   67000003 cyc:   42578190 now IPC :1.72378: AVG IPC :1.56280: L2-Pf-HR :0.91571: L2-HR :0.91003: (Sim:1h31m40s) 
CPU  3 inst:   69000001 cyc:   42745546 now IPC :1.79056: AVG IPC :1.60441: L2-Pf-HR :0.91837: L2-HR :0.91280: (Sim:1h31m54s) 
CPU  0 inst:   70000002 cyc:   42807822 now IPC :1.88660: AVG IPC :1.62595: L2-Pf-HR :0.91628: L2-HR :0.91128: (Sim:1h32m0s) 
CPU  1 inst:   68000002 cyc:   43024101 now IPC :1.90419: AVG IPC :1.57001: L2-Pf-HR :0.91715: L2-HR :0.91182: (Sim:1h32m19s) 
CPU  2 inst:   68000002 cyc:   43112107 now IPC :1.87295: AVG IPC :1.56673: L2-Pf-HR :0.91538: L2-HR :0.90969: (Sim:1h32m25s) 
CPU  3 inst:   70000002 cyc:   43305478 now IPC :1.78593: AVG IPC :1.60681: L2-Pf-HR :0.91858: L2-HR :0.91303: (Sim:1h32m41s) 
CPU  0 inst:   71000000 cyc:   43396987 now IPC :1.69731: AVG IPC :1.62694: L2-Pf-HR :0.91661: L2-HR :0.91154: (Sim:1h32m49s) 
CPU  1 inst:   69000001 cyc:   43577576 now IPC :1.80676: AVG IPC :1.57308: L2-Pf-HR :0.91744: L2-HR :0.91211: (Sim:1h33m4s) 
CPU  2 inst:   69000001 cyc:   43677150 now IPC :1.76978: AVG IPC :1.56942: L2-Pf-HR :0.91501: L2-HR :0.90933: (Sim:1h33m15s) 
CPU  3 inst:   71000000 cyc:   43913953 now IPC :1.64345: AVG IPC :1.60733: L2-Pf-HR :0.91886: L2-HR :0.91324: (Sim:1h33m56s) 
CPU  0 inst:   72000001 cyc:   43954343 now IPC :1.79419: AVG IPC :1.62911: L2-Pf-HR :0.91698: L2-HR :0.91185: (Sim:1h34m3s) 
CPU  1 inst:   70000002 cyc:   44111794 now IPC :1.87190: AVG IPC :1.57679: L2-Pf-HR :0.91782: L2-HR :0.91243: (Sim:1h34m30s) 
CPU  2 inst:   70000002 cyc:   44201433 now IPC :1.90737: AVG IPC :1.57352: L2-Pf-HR :0.91502: L2-HR :0.90931: (Sim:1h34m44s) 
CPU  3 inst:   72000001 cyc:   44526905 now IPC :1.63145: AVG IPC :1.60767: L2-Pf-HR :0.91935: L2-HR :0.91365: (Sim:1h35m23s) 
CPU  0 inst:   73000005 cyc:   44795504 now IPC :1.18884: AVG IPC :1.62066: L2-Pf-HR :0.91661: L2-HR :0.91136: (Sim:1h36m3s) 
CPU  1 inst:   71000000 cyc:   44803745 now IPC :1.44519: AVG IPC :1.57471: L2-Pf-HR :0.91828: L2-HR :0.91278: (Sim:1h36m4s) 
CPU  2 inst:   71000000 cyc:   44904160 now IPC :1.42302: AVG IPC :1.57111: L2-Pf-HR :0.91533: L2-HR :0.90953: (Sim:1h36m16s) 
CPU  3 inst:   73000005 cyc:   45386418 now IPC :1.16345: AVG IPC :1.59907: L2-Pf-HR :0.91914: L2-HR :0.91332: (Sim:1h37m26s) 
CPU  1 inst:   72000001 cyc:   45414879 now IPC :1.63630: AVG IPC :1.57555: L2-Pf-HR :0.91874: L2-HR :0.91319: (Sim:1h37m31s) 
CPU  0 inst:   74000005 cyc:   45429092 now IPC :1.57831: AVG IPC :1.62005: L2-Pf-HR :0.91644: L2-HR :0.91130: (Sim:1h37m33s) 
CPU  2 inst:   72000001 cyc:   45491765 now IPC :1.70183: AVG IPC :1.57284: L2-Pf-HR :0.91585: L2-HR :0.91001: (Sim:1h37m44s) 
CPU  3 inst:   74000000 cyc:   46050101 now IPC :1.50674: AVG IPC :1.59771: L2-Pf-HR :0.91899: L2-HR :0.91329: (Sim:1h38m48s) 
CPU  0 inst:   75000000 cyc:   46076070 now IPC :1.54564: AVG IPC :1.61899: L2-Pf-HR :0.91648: L2-HR :0.91140: (Sim:1h38m50s) 
CPU  1 inst:   73000005 cyc:   46499562 now IPC :0.92193: AVG IPC :1.55998: L2-Pf-HR :0.91843: L2-HR :0.91277: (Sim:1h39m40s) 
CPU  2 inst:   73000005 cyc:   46574230 now IPC :0.92382: AVG IPC :1.55743: L2-Pf-HR :0.91573: L2-HR :0.90977: (Sim:1h39m51s) 
CPU  0 inst:   76000005 cyc:   46695779 now IPC :1.61367: AVG IPC :1.61891: L2-Pf-HR :0.91642: L2-HR :0.91139: (Sim:1h40m8s) 
CPU  3 inst:   75000000 cyc:   46742751 now IPC :1.44373: AVG IPC :1.59538: L2-Pf-HR :0.91901: L2-HR :0.91339: (Sim:1h40m13s) 
CPU  1 inst:   74000005 cyc:   47140904 now IPC :1.55923: AVG IPC :1.55997: L2-Pf-HR :0.91821: L2-HR :0.91267: (Sim:1h41m11s) 
CPU  2 inst:   74000004 cyc:   47177456 now IPC :1.65775: AVG IPC :1.55874: L2-Pf-HR :0.91547: L2-HR :0.90960: (Sim:1h41m17s) 
CPU  0 inst:   77000001 cyc:   47278419 now IPC :1.71632: AVG IPC :1.62014: L2-Pf-HR :0.91641: L2-HR :0.91141: (Sim:1h41m32s) 
CPU  3 inst:   76000005 cyc:   47317988 now IPC :1.73842: AVG IPC :1.59715: L2-Pf-HR :0.91900: L2-HR :0.91347: (Sim:1h41m39s) 
CPU  1 inst:   75000000 cyc:   47702102 now IPC :1.78189: AVG IPC :1.56263: L2-Pf-HR :0.91809: L2-HR :0.91266: (Sim:1h42m37s) 
CPU  2 inst:   75000000 cyc:   47736564 now IPC :1.78856: AVG IPC :1.56149: L2-Pf-HR :0.91535: L2-HR :0.90955: (Sim:1h42m43s) 
CPU  0 inst:   78000005 cyc:   47823893 now IPC :1.83328: AVG IPC :1.62262: L2-Pf-HR :0.91651: L2-HR :0.91155: (Sim:1h42m57s) 
CPU  3 inst:   77000001 cyc:   47855988 now IPC :1.85873: AVG IPC :1.60015: L2-Pf-HR :0.91910: L2-HR :0.91362: (Sim:1h43m2s) 
CPU  1 inst:   76000005 cyc:   48245017 now IPC :1.84192: AVG IPC :1.56584: L2-Pf-HR :0.91797: L2-HR :0.91264: (Sim:1h43m58s) 
CPU  2 inst:   76000005 cyc:   48272622 now IPC :1.86548: AVG IPC :1.56493: L2-Pf-HR :0.91524: L2-HR :0.90954: (Sim:1h44m2s) 
CPU  3 inst:   78000005 cyc:   48430362 now IPC :1.74103: AVG IPC :1.60186: L2-Pf-HR :0.91931: L2-HR :0.91388: (Sim:1h44m26s) 
CPU  0 inst:   79000000 cyc:   48460074 now IPC :1.57187: AVG IPC :1.62194: L2-Pf-HR :0.91681: L2-HR :0.91178: (Sim:1h44m30s) 
CPU  1 inst:   77000001 cyc:   48821555 now IPC :1.73448: AVG IPC :1.56787: L2-Pf-HR :0.91798: L2-HR :0.91270: (Sim:1h45m22s) 
CPU  2 inst:   77000001 cyc:   48830755 now IPC :1.79168: AVG IPC :1.56758: L2-Pf-HR :0.91526: L2-HR :0.90960: (Sim:1h45m23s) 
CPU  0 inst:   80000003 cyc:   49020105 now IPC :1.78562: AVG IPC :1.62385: L2-Pf-HR :0.91713: L2-HR :0.91207: (Sim:1h45m53s) 
CPU  3 inst:   79000000 cyc:   49050167 now IPC :1.61340: AVG IPC :1.60201: L2-Pf-HR :0.91952: L2-HR :0.91401: (Sim:1h45m58s) 
CPU  1 inst:   78000005 cyc:   49343215 now IPC :1.91697: AVG IPC :1.57164: L2-Pf-HR :0.91826: L2-HR :0.91302: (Sim:1h46m41s) 
CPU  2 inst:   78000005 cyc:   49360441 now IPC :1.88792: AVG IPC :1.57109: L2-Pf-HR :0.91547: L2-HR :0.90982: (Sim:1h46m43s) 
CPU  3 inst:   80000003 cyc:   49616662 now IPC :1.76525: AVG IPC :1.60391: L2-Pf-HR :0.91984: L2-HR :0.91430: (Sim:1h47m18s) 
CPU  0 inst:   81000002 cyc:   49801456 now IPC :1.27983: AVG IPC :1.61834: L2-Pf-HR :0.91684: L2-HR :0.91165: (Sim:1h47m37s) 
CPU  1 inst:   79000000 cyc:   50053724 now IPC :1.40743: AVG IPC :1.56926: L2-Pf-HR :0.91858: L2-HR :0.91328: (Sim:1h48m9s) 
CPU  2 inst:   79000000 cyc:   50083597 now IPC :1.38282: AVG IPC :1.56831: L2-Pf-HR :0.91577: L2-HR :0.91004: (Sim:1h48m13s) 
CPU  0 inst:   82000002 cyc:   50423751 now IPC :1.60695: AVG IPC :1.61820: L2-Pf-HR :0.91679: L2-HR :0.91166: (Sim:1h48m57s) 
CPU  3 inst:   81000002 cyc:   50521556 now IPC :1.10510: AVG IPC :1.59480: L2-Pf-HR :0.91977: L2-HR :0.91409: (Sim:1h49m13s) 
CPU  1 inst:   80000003 cyc:   50645554 now IPC :1.68968: AVG IPC :1.57070: L2-Pf-HR :0.91900: L2-HR :0.91364: (Sim:1h49m32s) 
CPU  2 inst:   80000003 cyc:   50663788 now IPC :1.72358: AVG IPC :1.57013: L2-Pf-HR :0.91626: L2-HR :0.91047: (Sim:1h49m35s) 
CPU  0 inst:   83000003 cyc:   50961333 now IPC :1.86018: AVG IPC :1.62080: L2-Pf-HR :0.91689: L2-HR :0.91181: (Sim:1h50m17s) 
CPU  3 inst:   82000002 cyc:   51133836 now IPC :1.63324: AVG IPC :1.59527: L2-Pf-HR :0.91986: L2-HR :0.91423: (Sim:1h50m33s) 
CPU  0 inst:   84000002 cyc:   51616996 now IPC :1.52517: AVG IPC :1.61956: L2-Pf-HR :0.91719: L2-HR :0.91212: (Sim:1h51m27s) 
CPU  1 inst:   81000002 cyc:   51688438 now IPC :0.95888: AVG IPC :1.55811: L2-Pf-HR :0.91896: L2-HR :0.91346: (Sim:1h51m38s) 
CPU  2 inst:   81000002 cyc:   51721330 now IPC :0.94559: AVG IPC :1.55711: L2-Pf-HR :0.91619: L2-HR :0.91028: (Sim:1h51m42s) 
CPU  3 inst:   83000003 cyc:   51787785 now IPC :1.52917: AVG IPC :1.59442: L2-Pf-HR :0.92012: L2-HR :0.91452: (Sim:1h51m52s) 
CPU  0 inst:   85000003 cyc:   52199866 now IPC :1.71565: AVG IPC :1.62066: L2-Pf-HR :0.91740: L2-HR :0.91233: (Sim:1h52m53s) 
CPU  1 inst:   82000002 cyc:   52275884 now IPC :1.70228: AVG IPC :1.55976: L2-Pf-HR :0.91926: L2-HR :0.91376: (Sim:1h53m4s) 
CPU  2 inst:   82000002 cyc:   52298284 now IPC :1.73324: AVG IPC :1.55909: L2-Pf-HR :0.91616: L2-HR :0.91029: (Sim:1h53m7s) 
CPU  3 inst:   84000002 cyc:   52357717 now IPC :1.75459: AVG IPC :1.59619: L2-Pf-HR :0.92030: L2-HR :0.91475: (Sim:1h53m17s) 
CPU  0 inst:   86000000 cyc:   52749707 now IPC :1.81870: AVG IPC :1.62276: L2-Pf-HR :0.91771: L2-HR :0.91267: (Sim:1h54m16s) 
CPU  1 inst:   83000003 cyc:   52810793 now IPC :1.86948: AVG IPC :1.56296: L2-Pf-HR :0.91960: L2-HR :0.91413: (Sim:1h54m26s) 
CPU  2 inst:   83000003 cyc:   52837241 now IPC :1.85544: AVG IPC :1.56217: L2-Pf-HR :0.91614: L2-HR :0.91031: (Sim:1h54m30s) 
CPU  3 inst:   85000003 cyc:   52906421 now IPC :1.82248: AVG IPC :1.59859: L2-Pf-HR :0.92055: L2-HR :0.91503: (Sim:1h54m42s) 
CPU  0 inst:   87000005 cyc:   53359707 now IPC :1.63935: AVG IPC :1.62295: L2-Pf-HR :0.91818: L2-HR :0.91304: (Sim:1h55m49s) 
CPU  1 inst:   84000002 cyc:   53361637 now IPC :1.81539: AVG IPC :1.56562: L2-Pf-HR :0.92000: L2-HR :0.91455: (Sim:1h55m49s) 
CPU  2 inst:   84000002 cyc:   53386409 now IPC :1.82093: AVG IPC :1.56488: L2-Pf-HR :0.91617: L2-HR :0.91038: (Sim:1h55m53s) 
CPU  3 inst:   86000000 cyc:   53445445 now IPC :1.85520: AVG IPC :1.60122: L2-Pf-HR :0.92090: L2-HR :0.91540: (Sim:1h56m3s) 
CPU  1 inst:   85000003 cyc:   53904765 now IPC :1.84119: AVG IPC :1.56844: L2-Pf-HR :0.92037: L2-HR :0.91491: (Sim:1h57m11s) 
CPU  0 inst:   88000005 cyc:   53908311 now IPC :1.82281: AVG IPC :1.62503: L2-Pf-HR :0.91861: L2-HR :0.91340: (Sim:1h57m12s) 
CPU  2 inst:   85000003 cyc:   53924778 now IPC :1.85746: AVG IPC :1.56786: L2-Pf-HR :0.91625: L2-HR :0.91048: (Sim:1h57m14s) 
CPU  3 inst:   87000005 cyc:   54042237 now IPC :1.67563: AVG IPC :1.60206: L2-Pf-HR :0.92119: L2-HR :0.91561: (Sim:1h57m33s) 
CPU  1 inst:   86000000 cyc:   54489805 now IPC :1.70928: AVG IPC :1.56998: L2-Pf-HR :0.92085: L2-HR :0.91538: (Sim:1h58m35s) 
CPU  2 inst:   86000000 cyc:   54494736 now IPC :1.75451: AVG IPC :1.56984: L2-Pf-HR :0.91647: L2-HR :0.91074: (Sim:1h58m35s) 
CPU  3 inst:   88000005 cyc:   54617349 now IPC :1.73879: AVG IPC :1.60353: L2-Pf-HR :0.92157: L2-HR :0.91592: (Sim:1h58m54s) 
CPU  0 inst:   89000002 cyc:   54656789 now IPC :1.33604: AVG IPC :1.62100: L2-Pf-HR :0.91843: L2-HR :0.91311: (Sim:1h59m0s) 
CPU  1 inst:   87000005 cyc:   55230877 now IPC :1.34940: AVG IPC :1.56697: L2-Pf-HR :0.92123: L2-HR :0.91567: (Sim:2h0m8s) 
CPU  2 inst:   87000005 cyc:   55235296 now IPC :1.35034: AVG IPC :1.56685: L2-Pf-HR :0.91682: L2-HR :0.91100: (Sim:2h0m8s) 
CPU  0 inst:   90000001 cyc:   55306538 now IPC :1.53905: AVG IPC :1.62002: L2-Pf-HR :0.91847: L2-HR :0.91320: (Sim:2h0m18s) 
CPU  3 inst:   89000002 cyc:   55529408 now IPC :1.09642: AVG IPC :1.59505: L2-Pf-HR :0.92157: L2-HR :0.91580: (Sim:2h0m51s) 
CPU  1 inst:   88000005 cyc:   55783008 now IPC :1.81116: AVG IPC :1.56943: L2-Pf-HR :0.92165: L2-HR :0.91604: (Sim:2h1m30s) 
CPU  2 inst:   88000005 cyc:   55783210 now IPC :1.82510: AVG IPC :1.56943: L2-Pf-HR :0.91725: L2-HR :0.91139: (Sim:2h1m30s) 
CPU  0 inst:   91000003 cyc:   55844680 now IPC :1.85825: AVG IPC :1.62235: L2-Pf-HR :0.91837: L2-HR :0.91316: (Sim:2h1m40s) 
CPU  3 inst:   90000001 cyc:   56088599 now IPC :1.78830: AVG IPC :1.59701: L2-Pf-HR :0.92146: L2-HR :0.91579: (Sim:2h2m14s) 
CPU  0 inst:   92000002 cyc:   56475979 now IPC :1.58403: AVG IPC :1.62192: L2-Pf-HR :0.91859: L2-HR :0.91341: (Sim:2h2m52s) 
CPU  3 inst:   91000003 cyc:   56775575 now IPC :1.45566: AVG IPC :1.59527: L2-Pf-HR :0.92174: L2-HR :0.91611: (Sim:2h3m29s) 
CPU  2 inst:   89000002 cyc:   56785917 now IPC :0.99730: AVG IPC :1.55915: L2-Pf-HR :0.91731: L2-HR :0.91132: (Sim:2h3m31s) 
CPU  1 inst:   89000002 cyc:   56805356 now IPC :0.97814: AVG IPC :1.55860: L2-Pf-HR :0.92164: L2-HR :0.91589: (Sim:2h3m34s) 
CPU  0 inst:   93000004 cyc:   57104681 now IPC :1.59058: AVG IPC :1.62157: L2-Pf-HR :0.91894: L2-HR :0.91375: (Sim:2h4m17s) 
CPU  3 inst:   92000002 cyc:   57360353 now IPC :1.71005: AVG IPC :1.59646: L2-Pf-HR :0.92198: L2-HR :0.91641: (Sim:2h4m55s) 
CPU  1 inst:   90000001 cyc:   57385186 now IPC :1.72464: AVG IPC :1.56031: L2-Pf-HR :0.92197: L2-HR :0.91627: (Sim:2h4m59s) 
CPU  2 inst:   90000001 cyc:   57387755 now IPC :1.66158: AVG IPC :1.56024: L2-Pf-HR :0.91738: L2-HR :0.91144: (Sim:2h5m0s) 
CPU  0 inst:   94000001 cyc:   57640080 now IPC :1.86776: AVG IPC :1.62389: L2-Pf-HR :0.91942: L2-HR :0.91420: (Sim:2h5m38s) 
CPU  3 inst:   93000004 cyc:   57897162 now IPC :1.86286: AVG IPC :1.59897: L2-Pf-HR :0.92229: L2-HR :0.91674: (Sim:2h6m19s) 
CPU  2 inst:   91000003 cyc:   57940723 now IPC :1.80843: AVG IPC :1.56265: L2-Pf-HR :0.91758: L2-HR :0.91165: (Sim:2h6m24s) 
CPU  1 inst:   91000003 cyc:   57942020 now IPC :1.79587: AVG IPC :1.56261: L2-Pf-HR :0.92238: L2-HR :0.91671: (Sim:2h6m25s) 
CPU  0 inst:   95000001 cyc:   58282609 now IPC :1.55635: AVG IPC :1.62314: L2-Pf-HR :0.91990: L2-HR :0.91459: (Sim:2h7m13s) 
CPU  3 inst:   94000001 cyc:   58462215 now IPC :1.76974: AVG IPC :1.60065: L2-Pf-HR :0.92273: L2-HR :0.91716: (Sim:2h7m41s) 
CPU  1 inst:   92000002 cyc:   58498514 now IPC :1.79696: AVG IPC :1.56488: L2-Pf-HR :0.92262: L2-HR :0.91701: (Sim:2h7m47s) 
CPU  2 inst:   92000002 cyc:   58506554 now IPC :1.76731: AVG IPC :1.56467: L2-Pf-HR :0.91770: L2-HR :0.91182: (Sim:2h7m48s) 
CPU  0 inst:   96000005 cyc:   58833377 now IPC :1.81565: AVG IPC :1.62497: L2-Pf-HR :0.92035: L2-HR :0.91497: (Sim:2h8m37s) 
CPU  1 inst:   93000004 cyc:   59032000 now IPC :1.87447: AVG IPC :1.56772: L2-Pf-HR :0.92298: L2-HR :0.91737: (Sim:2h9m8s) 
CPU  3 inst:   95000005 cyc:   59045593 now IPC :1.71416: AVG IPC :1.60179: L2-Pf-HR :0.92313: L2-HR :0.91747: (Sim:2h9m10s) 
CPU  2 inst:   93000004 cyc:   59046316 now IPC :1.85267: AVG IPC :1.56734: L2-Pf-HR :0.91797: L2-HR :0.91209: (Sim:2h9m10s) 
CPU  1 inst:   94000001 cyc:   59601073 now IPC :1.75724: AVG IPC :1.56956: L2-Pf-HR :0.92347: L2-HR :0.91785: (Sim:2h10m27s) 
CPU  0 inst:   97000005 cyc:   59610180 now IPC :1.28733: AVG IPC :1.62049: L2-Pf-HR :0.92020: L2-HR :0.91471: (Sim:2h10m28s) 
CPU  2 inst:   94000001 cyc:   59626582 now IPC :1.72334: AVG IPC :1.56889: L2-Pf-HR :0.91826: L2-HR :0.91235: (Sim:2h10m31s) 
CPU  3 inst:   96000005 cyc:   59640701 now IPC :1.68037: AVG IPC :1.60259: L2-Pf-HR :0.92342: L2-HR :0.91770: (Sim:2h10m34s) 
CPU  0 inst:   98000000 cyc:   60272369 now IPC :1.51014: AVG IPC :1.61926: L2-Pf-HR :0.92033: L2-HR :0.91488: (Sim:2h11m49s) 
CPU  1 inst:   95000005 cyc:   60345660 now IPC :1.34303: AVG IPC :1.56672: L2-Pf-HR :0.92381: L2-HR :0.91812: (Sim:2h11m59s) 
CPU  2 inst:   95000005 cyc:   60384599 now IPC :1.31924: AVG IPC :1.56570: L2-Pf-HR :0.91849: L2-HR :0.91255: (Sim:2h12m5s) 
CPU  3 inst:   97000005 cyc:   60573935 now IPC :1.07154: AVG IPC :1.59427: L2-Pf-HR :0.92334: L2-HR :0.91749: (Sim:2h12m31s) 
CPU  0 inst:   99000003 cyc:   60818970 now IPC :1.82949: AVG IPC :1.62118: L2-Pf-HR :0.92044: L2-HR :0.91503: (Sim:2h13m9s) 
CPU  1 inst:   96000005 cyc:   60905472 now IPC :1.78631: AVG IPC :1.56877: L2-Pf-HR :0.92417: L2-HR :0.91845: (Sim:2h13m22s) 
CPU  2 inst:   96000005 cyc:   60942414 now IPC :1.79271: AVG IPC :1.56781: L2-Pf-HR :0.91886: L2-HR :0.91288: (Sim:2h13m28s) 
CPU  3 inst:   98000000 cyc:   61108075 now IPC :1.87216: AVG IPC :1.59674: L2-Pf-HR :0.92323: L2-HR :0.91747: (Sim:2h13m54s) 
CPU  0 inst:  100000002 cyc:   61382762 now IPC :1.77370: AVG IPC :1.62261: L2-Pf-HR :0.92058: L2-HR :0.91519: (Sim:2h14m26s) 
CPU  3 inst:   99000003 cyc:   61760699 now IPC :1.53228: AVG IPC :1.59605: L2-Pf-HR :0.92336: L2-HR :0.91765: (Sim:2h15m6s) 
CPU  1 inst:   97000005 cyc:   61935512 now IPC :0.97084: AVG IPC :1.55867: L2-Pf-HR :0.92401: L2-HR :0.91816: (Sim:2h15m28s) 
CPU  2 inst:   97000005 cyc:   61979495 now IPC :0.96424: AVG IPC :1.55755: L2-Pf-HR :0.91883: L2-HR :0.91275: (Sim:2h15m35s) 
CPU  0 inst:  101000001 cyc:   62025703 now IPC :1.55535: AVG IPC :1.62190: L2-Pf-HR :0.92073: L2-HR :0.91535: (Sim:2h15m42s) 
CPU  3 inst:  100000002 cyc:   62345210 now IPC :1.71083: AVG IPC :1.59714: L2-Pf-HR :0.92339: L2-HR :0.91773: (Sim:2h16m30s) 
CPU  1 inst:   98000000 cyc:   62505114 now IPC :1.75560: AVG IPC :1.56049: L2-Pf-HR :0.92383: L2-HR :0.91798: (Sim:2h16m53s) 
CPU  2 inst:   98000000 cyc:   62561425 now IPC :1.71841: AVG IPC :1.55907: L2-Pf-HR :0.91873: L2-HR :0.91270: (Sim:2h17m2s) 
CPU  0 inst:  102000003 cyc:   62608273 now IPC :1.71654: AVG IPC :1.62279: L2-Pf-HR :0.92082: L2-HR :0.91546: (Sim:2h17m9s) 
CPU  3 inst:  101000001 cyc:   62878009 now IPC :1.87688: AVG IPC :1.59955: L2-Pf-HR :0.92346: L2-HR :0.91784: (Sim:2h17m52s) 
CPU  1 inst:   99000003 cyc:   63055747 now IPC :1.81610: AVG IPC :1.56276: L2-Pf-HR :0.92375: L2-HR :0.91788: (Sim:2h18m15s) 
CPU  2 inst:   99000003 cyc:   63111016 now IPC :1.81954: AVG IPC :1.56137: L2-Pf-HR :0.91880: L2-HR :0.91279: (Sim:2h18m23s) 
CPU  0 inst:  103000002 cyc:   63251380 now IPC :1.55495: AVG IPC :1.62209: L2-Pf-HR :0.92107: L2-HR :0.91566: (Sim:2h18m46s) 
CPU  3 inst:  102000003 cyc:   63455728 now IPC :1.73095: AVG IPC :1.60076: L2-Pf-HR :0.92373: L2-HR :0.91811: (Sim:2h19m17s) 
CPU  1 inst:  100000002 cyc:   63590570 now IPC :1.86978: AVG IPC :1.56538: L2-Pf-HR :0.92370: L2-HR :0.91781: (Sim:2h19m39s) 
CPU  2 inst:  100000005 cyc:   63638387 now IPC :1.89620: AVG IPC :1.56419: L2-Pf-HR :0.91901: L2-HR :0.91296: (Sim:2h19m47s) 
CPU  0 inst:  104000002 cyc:   63821094 now IPC :1.75527: AVG IPC :1.62330: L2-Pf-HR :0.92148: L2-HR :0.91601: (Sim:2h20m13s) 
CPU  3 inst:  103000003 cyc:   64068165 now IPC :1.63282: AVG IPC :1.60107: L2-Pf-HR :0.92398: L2-HR :0.91830: (Sim:2h20m50s) 
CPU  1 inst:  101000001 cyc:   64115628 now IPC :1.90455: AVG IPC :1.56820: L2-Pf-HR :0.92372: L2-HR :0.91780: (Sim:2h20m58s) 
CPU  2 inst:  101000001 cyc:   64176787 now IPC :1.85735: AVG IPC :1.56669: L2-Pf-HR :0.91926: L2-HR :0.91318: (Sim:2h21m5s) 
CPU  0 inst:  105000004 cyc:   64610171 now IPC :1.26731: AVG IPC :1.61888: L2-Pf-HR :0.92134: L2-HR :0.91578: (Sim:2h22m3s) 
CPU  3 inst:  104000002 cyc:   64666092 now IPC :1.67244: AVG IPC :1.60174: L2-Pf-HR :0.92424: L2-HR :0.91853: (Sim:2h22m13s) 
CPU  1 inst:  102000003 cyc:   64712311 now IPC :1.67594: AVG IPC :1.56921: L2-Pf-HR :0.92376: L2-HR :0.91775: (Sim:2h22m20s) 
CPU  2 inst:  102000003 cyc:   64749719 now IPC :1.74541: AVG IPC :1.56830: L2-Pf-HR :0.91946: L2-HR :0.91336: (Sim:2h22m26s) 
CPU  0 inst:  106000001 cyc:   65205234 now IPC :1.68049: AVG IPC :1.61945: L2-Pf-HR :0.92140: L2-HR :0.91588: (Sim:2h23m23s) 
CPU  1 inst:  103000003 cyc:   65463670 now IPC :1.33092: AVG IPC :1.56644: L2-Pf-HR :0.92379: L2-HR :0.91770: (Sim:2h23m54s) 
CPU  2 inst:  103000003 cyc:   65494385 now IPC :1.34288: AVG IPC :1.56569: L2-Pf-HR :0.91968: L2-HR :0.91352: (Sim:2h23m58s) 
CPU  3 inst:  105000004 cyc:   65605448 now IPC :1.06456: AVG IPC :1.59394: L2-Pf-HR :0.92419: L2-HR :0.91837: (Sim:2h24m14s) 
CPU  0 inst:  107000003 cyc:   65795079 now IPC :1.69536: AVG IPC :1.62015: L2-Pf-HR :0.92139: L2-HR :0.91591: (Sim:2h24m43s) 
CPU  1 inst:  104000002 cyc:   66017058 now IPC :1.80705: AVG IPC :1.56848: L2-Pf-HR :0.92421: L2-HR :0.91813: (Sim:2h25m17s) 
CPU  2 inst:  104000002 cyc:   66042094 now IPC :1.82579: AVG IPC :1.56788: L2-Pf-HR :0.91999: L2-HR :0.91381: (Sim:2h25m21s) 
CPU  3 inst:  106000001 cyc:   66133515 now IPC :1.89369: AVG IPC :1.59637: L2-Pf-HR :0.92412: L2-HR :0.91836: (Sim:2h25m36s) 
CPU  0 inst:  108000005 cyc:   66332001 now IPC :1.86247: AVG IPC :1.62214: L2-Pf-HR :0.92150: L2-HR :0.91599: (Sim:2h26m6s) 
CPU  3 inst:  107000003 cyc:   66753031 now IPC :1.61417: AVG IPC :1.59653: L2-Pf-HR :0.92430: L2-HR :0.91857: (Sim:2h26m48s) 
CPU  0 inst:  109000002 cyc:   66994759 now IPC :1.50884: AVG IPC :1.62100: L2-Pf-HR :0.92175: L2-HR :0.91623: (Sim:2h27m17s) 
CPU  1 inst:  105000004 cyc:   67065131 now IPC :0.95413: AVG IPC :1.55874: L2-Pf-HR :0.92427: L2-HR :0.91807: (Sim:2h27m26s) 
CPU  2 inst:  105000004 cyc:   67104378 now IPC :0.94137: AVG IPC :1.55782: L2-Pf-HR :0.92006: L2-HR :0.91377: (Sim:2h27m32s) 
CPU  3 inst:  108000005 cyc:   67363599 now IPC :1.63782: AVG IPC :1.59691: L2-Pf-HR :0.92443: L2-HR :0.91873: (Sim:2h28m10s) 
CPU  0 inst:  110000000 cyc:   67596251 now IPC :1.66253: AVG IPC :1.62137: L2-Pf-HR :0.92198: L2-HR :0.91646: (Sim:2h28m45s) 
CPU  1 inst:  106000001 cyc:   67645734 now IPC :1.72234: AVG IPC :1.56016: L2-Pf-HR :0.92431: L2-HR :0.91817: (Sim:2h28m52s) 
CPU  2 inst:  106000001 cyc:   67678229 now IPC :1.74261: AVG IPC :1.55941: L2-Pf-HR :0.92002: L2-HR :0.91378: (Sim:2h28m57s) 
CPU  3 inst:  109000001 cyc:   67907541 now IPC :1.83842: AVG IPC :1.59888: L2-Pf-HR :0.92455: L2-HR :0.91888: (Sim:2h29m33s) 
CPU  1 inst:  107000003 cyc:   68214769 now IPC :1.75736: AVG IPC :1.56183: L2-Pf-HR :0.92437: L2-HR :0.91828: (Sim:2h30m15s) 
CPU  0 inst:  111000000 cyc:   68241418 now IPC :1.54999: AVG IPC :1.62069: L2-Pf-HR :0.92227: L2-HR :0.91669: (Sim:2h30m19s) 
CPU  2 inst:  107000003 cyc:   68255599 now IPC :1.73200: AVG IPC :1.56089: L2-Pf-HR :0.92004: L2-HR :0.91385: (Sim:2h30m22s) 
CPU  3 inst:  110000000 cyc:   68488168 now IPC :1.72227: AVG IPC :1.59994: L2-Pf-HR :0.92477: L2-HR :0.91911: (Sim:2h30m59s) 
CPU  1 inst:  108000005 cyc:   68741179 now IPC :1.89966: AVG IPC :1.56446: L2-Pf-HR :0.92450: L2-HR :0.91844: (Sim:2h31m43s) 
CPU  0 inst:  112000005 cyc:   68777222 now IPC :1.86636: AVG IPC :1.62263: L2-Pf-HR :0.92257: L2-HR :0.91695: (Sim:2h31m49s) 
CPU  2 inst:  108000005 cyc:   68781944 now IPC :1.89990: AVG IPC :1.56352: L2-Pf-HR :0.92016: L2-HR :0.91400: (Sim:2h31m49s) 
CPU  3 inst:  111000000 cyc:   69066557 now IPC :1.72894: AVG IPC :1.60103: L2-Pf-HR :0.92498: L2-HR :0.91923: (Sim:2h32m35s) 
CPU  1 inst:  109000002 cyc:   69312562 now IPC :1.75013: AVG IPC :1.56601: L2-Pf-HR :0.92453: L2-HR :0.91853: (Sim:2h33m8s) 
CPU  2 inst:  109000001 cyc:   69352034 now IPC :1.75410: AVG IPC :1.56511: L2-Pf-HR :0.92026: L2-HR :0.91414: (Sim:2h33m13s) 
CPU  0 inst:  113000002 cyc:   69604973 now IPC :1.20809: AVG IPC :1.61763: L2-Pf-HR :0.92238: L2-HR :0.91667: (Sim:2h33m52s) 
CPU  3 inst:  112000005 cyc:   69674039 now IPC :1.64615: AVG IPC :1.60143: L2-Pf-HR :0.92517: L2-HR :0.91940: (Sim:2h34m4s) 
CPU  1 inst:  110000000 cyc:   69857914 now IPC :1.83367: AVG IPC :1.56813: L2-Pf-HR :0.92462: L2-HR :0.91865: (Sim:2h34m34s) 
CPU  2 inst:  110000000 cyc:   69918040 now IPC :1.76676: AVG IPC :1.56677: L2-Pf-HR :0.92027: L2-HR :0.91418: (Sim:2h34m44s) 
CPU  0 inst:  114000004 cyc:   70172871 now IPC :1.76088: AVG IPC :1.61881: L2-Pf-HR :0.92227: L2-HR :0.91663: (Sim:2h35m22s) 
CPU  3 inst:  113000002 cyc:   70539855 now IPC :1.15498: AVG IPC :1.59587: L2-Pf-HR :0.92503: L2-HR :0.91917: (Sim:2h36m8s) 
CPU  1 inst:  111000000 cyc:   70589750 now IPC :1.36643: AVG IPC :1.56601: L2-Pf-HR :0.92476: L2-HR :0.91875: (Sim:2h36m16s) 
CPU  2 inst:  111000000 cyc:   70636538 now IPC :1.39179: AVG IPC :1.56496: L2-Pf-HR :0.92046: L2-HR :0.91432: (Sim:2h36m25s) 
CPU  0 inst:  115000000 cyc:   70773955 now IPC :1.66365: AVG IPC :1.61919: L2-Pf-HR :0.92223: L2-HR :0.91666: (Sim:2h36m48s) 
CPU  3 inst:  114000004 cyc:   71074534 now IPC :1.87028: AVG IPC :1.59797: L2-Pf-HR :0.92484: L2-HR :0.91905: (Sim:2h37m40s) 
CPU  1 inst:  112000005 cyc:   71130061 now IPC :1.85080: AVG IPC :1.56820: L2-Pf-HR :0.92492: L2-HR :0.91891: (Sim:2h37m50s) 
CPU  2 inst:  112000005 cyc:   71171303 now IPC :1.86999: AVG IPC :1.56729: L2-Pf-HR :0.92068: L2-HR :0.91454: (Sim:2h37m57s) 
CPU  0 inst:  116000002 cyc:   71294965 now IPC :1.91935: AVG IPC :1.62142: L2-Pf-HR :0.92215: L2-HR :0.91661: (Sim:2h38m19s) 
CPU  3 inst:  115000000 cyc:   71628609 now IPC :1.80480: AVG IPC :1.59959: L2-Pf-HR :0.92476: L2-HR :0.91904: (Sim:2h39m8s) 
CPU  0 inst:  117000000 cyc:   71912581 now IPC :1.61913: AVG IPC :1.62140: L2-Pf-HR :0.92225: L2-HR :0.91673: (Sim:2h39m42s) 
CPU  1 inst:  113000002 cyc:   72089408 now IPC :1.04237: AVG IPC :1.56111: L2-Pf-HR :0.92483: L2-HR :0.91872: (Sim:2h40m5s) 
CPU  2 inst:  113000002 cyc:   72145818 now IPC :1.02615: AVG IPC :1.55988: L2-Pf-HR :0.92063: L2-HR :0.91440: (Sim:2h40m14s) 
CPU  3 inst:  116000002 cyc:   72264871 now IPC :1.57168: AVG IPC :1.59934: L2-Pf-HR :0.92478: L2-HR :0.91910: (Sim:2h40m33s) 
CPU  0 inst:  118000003 cyc:   72535587 now IPC :1.60513: AVG IPC :1.62126: L2-Pf-HR :0.92241: L2-HR :0.91689: (Sim:2h41m18s) 
CPU  1 inst:  114000004 cyc:   72662756 now IPC :1.74414: AVG IPC :1.56257: L2-Pf-HR :0.92476: L2-HR :0.91870: (Sim:2h41m39s) 
CPU  2 inst:  114000004 cyc:   72709332 now IPC :1.77458: AVG IPC :1.56156: L2-Pf-HR :0.92063: L2-HR :0.91445: (Sim:2h41m47s) 
CPU  3 inst:  117000000 cyc:   72813291 now IPC :1.82342: AVG IPC :1.60105: L2-Pf-HR :0.92484: L2-HR :0.91919: (Sim:2h42m5s) 
CPU  0 inst:  119000002 cyc:   73190540 now IPC :1.52683: AVG IPC :1.62040: L2-Pf-HR :0.92265: L2-HR :0.91709: (Sim:2h43m3s) 
CPU  1 inst:  115000000 cyc:   73246029 now IPC :1.71446: AVG IPC :1.56380: L2-Pf-HR :0.92466: L2-HR :0.91867: (Sim:2h43m12s) 
CPU  2 inst:  115000000 cyc:   73286075 now IPC :1.73387: AVG IPC :1.56294: L2-Pf-HR :0.92061: L2-HR :0.91451: (Sim:2h43m20s) 
CPU  3 inst:  118000003 cyc:   73397494 now IPC :1.71174: AVG IPC :1.60195: L2-Pf-HR :0.92489: L2-HR :0.91926: (Sim:2h43m38s) 
CPU  0 inst:  120000002 cyc:   73737408 now IPC :1.82859: AVG IPC :1.62196: L2-Pf-HR :0.92278: L2-HR :0.91720: (Sim:2h44m38s) 
CPU  1 inst:  116000002 cyc:   73779859 now IPC :1.87326: AVG IPC :1.56607: L2-Pf-HR :0.92449: L2-HR :0.91855: (Sim:2h44m44s) 
CPU  2 inst:  116000002 cyc:   73824764 now IPC :1.85636: AVG IPC :1.56511: L2-Pf-HR :0.92063: L2-HR :0.91457: (Sim:2h44m50s) 
CPU  3 inst:  119000002 cyc:   74006314 now IPC :1.64252: AVG IPC :1.60228: L2-Pf-HR :0.92498: L2-HR :0.91932: (Sim:2h45m21s) 
CPU  1 inst:  117000005 cyc:   74359713 now IPC :1.72458: AVG IPC :1.56732: L2-Pf-HR :0.92461: L2-HR :0.91868: (Sim:2h46m11s) 
CPU  2 inst:  117000000 cyc:   74403535 now IPC :1.72780: AVG IPC :1.56639: L2-Pf-HR :0.92100: L2-HR :0.91494: (Sim:2h46m19s) 
CPU  0 inst:  121000002 cyc:   74590693 now IPC :1.17194: AVG IPC :1.61675: L2-Pf-HR :0.92277: L2-HR :0.91708: (Sim:2h46m47s) 
CPU  3 inst:  120000002 cyc:   74630310 now IPC :1.60257: AVG IPC :1.60229: L2-Pf-HR :0.92537: L2-HR :0.91964: (Sim:2h46m54s) 
CPU  1 inst:  118000003 cyc:   74915140 now IPC :1.80041: AVG IPC :1.56907: L2-Pf-HR :0.92487: L2-HR :0.91892: (Sim:2h47m44s) 
CPU  2 inst:  118000003 cyc:   74948208 now IPC :1.83597: AVG IPC :1.56837: L2-Pf-HR :0.92136: L2-HR :0.91530: (Sim:2h47m50s) 
CPU  0 inst:  122000004 cyc:   75134434 now IPC :1.83911: AVG IPC :1.61838: L2-Pf-HR :0.92287: L2-HR :0.91722: (Sim:2h48m16s) 
CPU  3 inst:  121000002 cyc:   75479441 now IPC :1.17767: AVG IPC :1.59745: L2-Pf-HR :0.92546: L2-HR :0.91961: (Sim:2h49m0s) 
CPU  1 inst:  119000002 cyc:   75661812 now IPC :1.33927: AVG IPC :1.56677: L2-Pf-HR :0.92508: L2-HR :0.91907: (Sim:2h49m28s) 
CPU  2 inst:  119000002 cyc:   75694415 now IPC :1.34011: AVG IPC :1.56609: L2-Pf-HR :0.92168: L2-HR :0.91556: (Sim:2h49m34s) 
CPU  0 inst:  123000003 cyc:   75764564 now IPC :1.58697: AVG IPC :1.61811: L2-Pf-HR :0.92294: L2-HR :0.91732: (Sim:2h49m46s) 
CPU  3 inst:  122000004 cyc:   76029813 now IPC :1.81696: AVG IPC :1.59906: L2-Pf-HR :0.92532: L2-HR :0.91953: (Sim:2h50m32s) 
CPU  1 inst:  120000002 cyc:   76197780 now IPC :1.86578: AVG IPC :1.56891: L2-Pf-HR :0.92529: L2-HR :0.91926: (Sim:2h51m2s) 
CPU  2 inst:  120000002 cyc:   76233178 now IPC :1.85610: AVG IPC :1.56817: L2-Pf-HR :0.92190: L2-HR :0.91576: (Sim:2h51m7s) 
CPU  0 inst:  124000002 cyc:   76287129 now IPC :1.91364: AVG IPC :1.62016: L2-Pf-HR :0.92294: L2-HR :0.91736: (Sim:2h51m17s) 
CPU  3 inst:  123000003 cyc:   76565845 now IPC :1.86556: AVG IPC :1.60095: L2-Pf-HR :0.92529: L2-HR :0.91955: (Sim:2h52m4s) 
CPU  0 inst:  125000002 cyc:   76925784 now IPC :1.56579: AVG IPC :1.61971: L2-Pf-HR :0.92313: L2-HR :0.91754: (Sim:2h52m43s) 
CPU  1 inst:  121000002 cyc:   77223806 now IPC :0.97463: AVG IPC :1.56091: L2-Pf-HR :0.92525: L2-HR :0.91913: (Sim:2h53m22s) 
CPU  3 inst:  124000002 cyc:   77237560 now IPC :1.48873: AVG IPC :1.59996: L2-Pf-HR :0.92547: L2-HR :0.91975: (Sim:2h53m24s) 
CPU  2 inst:  121000002 cyc:   77249758 now IPC :0.98369: AVG IPC :1.56038: L2-Pf-HR :0.92191: L2-HR :0.91569: (Sim:2h53m27s) 
CPU  0 inst:  126000003 cyc:   77558145 now IPC :1.58138: AVG IPC :1.61939: L2-Pf-HR :0.92336: L2-HR :0.91778: (Sim:2h54m16s) 
CPU  2 inst:  122000004 cyc:   77804775 now IPC :1.80175: AVG IPC :1.56212: L2-Pf-HR :0.92194: L2-HR :0.91577: (Sim:2h54m58s) 
CPU  1 inst:  122000004 cyc:   77805994 now IPC :1.71766: AVG IPC :1.56210: L2-Pf-HR :0.92521: L2-HR :0.91913: (Sim:2h54m59s) 
CPU  3 inst:  125000004 cyc:   77820101 now IPC :1.71662: AVG IPC :1.60084: L2-Pf-HR :0.92554: L2-HR :0.91984: (Sim:2h55m1s) 
CPU  0 inst:  127000002 cyc:   78202239 now IPC :1.55257: AVG IPC :1.61883: L2-Pf-HR :0.92352: L2-HR :0.91791: (Sim:2h56m0s) 
CPU  1 inst:  123000003 cyc:   78391433 now IPC :1.70812: AVG IPC :1.56320: L2-Pf-HR :0.92517: L2-HR :0.91911: (Sim:2h56m33s) 
CPU  2 inst:  123000003 cyc:   78391854 now IPC :1.70335: AVG IPC :1.56319: L2-Pf-HR :0.92198: L2-HR :0.91585: (Sim:2h56m33s) 
CPU  3 inst:  126000003 cyc:   78397385 now IPC :1.73225: AVG IPC :1.60182: L2-Pf-HR :0.92568: L2-HR :0.92000: (Sim:2h56m34s) 
CPU  0 inst:  128000004 cyc:   78735644 now IPC :1.87475: AVG IPC :1.62059: L2-Pf-HR :0.92374: L2-HR :0.91810: (Sim:2h57m33s) 
CPU  2 inst:  124000002 cyc:   78948755 now IPC :1.79565: AVG IPC :1.56486: L2-Pf-HR :0.92208: L2-HR :0.91600: (Sim:2h58m5s) 
CPU  1 inst:  124000002 cyc:   78952311 now IPC :1.78292: AVG IPC :1.56478: L2-Pf-HR :0.92509: L2-HR :0.91908: (Sim:2h58m5s) 
CPU  3 inst:  127000002 cyc:   79040350 now IPC :1.55529: AVG IPC :1.60144: L2-Pf-HR :0.92582: L2-HR :0.92010: (Sim:2h58m19s) 
CPU  1 inst:  125000004 cyc:   79565176 now IPC :1.63168: AVG IPC :1.56530: L2-Pf-HR :0.92507: L2-HR :0.91907: (Sim:2h59m28s) 
CPU  2 inst:  125000004 cyc:   79565365 now IPC :1.62177: AVG IPC :1.56530: L2-Pf-HR :0.92222: L2-HR :0.91616: (Sim:2h59m28s) 
CPU  3 inst:  128000004 cyc:   79619679 now IPC :1.72614: AVG IPC :1.60236: L2-Pf-HR :0.92604: L2-HR :0.92028: (Sim:2h59m37s) 
CPU  1 inst:  126000003 cyc:   80285717 now IPC :1.38784: AVG IPC :1.56369: L2-Pf-HR :0.92526: L2-HR :0.91924: (Sim:3h0m52s) 
CPU  2 inst:  126000003 cyc:   80310803 now IPC :1.34149: AVG IPC :1.56320: L2-Pf-HR :0.92250: L2-HR :0.91643: (Sim:3h0m55s) 
CPU  1 inst:  127000002 cyc:   81249759 now IPC :1.03730: AVG IPC :1.55737: L2-Pf-HR :0.92556: L2-HR :0.91950: (Sim:3h2m17s) 
CPU  2 inst:  127000002 cyc:   81309820 now IPC :1.00098: AVG IPC :1.55621: L2-Pf-HR :0.92284: L2-HR :0.91672: (Sim:3h2m23s) 
CPU  0 inst:  129000001 cyc:   82104650 now IPC :0.29682: AVG IPC :1.56561: L2-Pf-HR :0.92213: L2-HR :0.91481: (Sim:3h3m37s) 
CPU  1 inst:  128000004 cyc:   82245948 now IPC :1.00383: AVG IPC :1.55058: L2-Pf-HR :0.92599: L2-HR :0.91988: (Sim:3h3m51s) 
CPU  2 inst:  128000004 cyc:   82281464 now IPC :1.02919: AVG IPC :1.54991: L2-Pf-HR :0.92336: L2-HR :0.91719: (Sim:3h3m54s) 
CPU  3 inst:  129000001 cyc:   84475379 now IPC :0.20594: AVG IPC :1.52114: L2-Pf-HR :0.92439: L2-HR :0.91696: (Sim:3h6m13s) 
CPU  1 inst:  129000004 cyc:   90684479 now IPC :0.11850: AVG IPC :1.41586: L2-Pf-HR :0.92447: L2-HR :0.91662: (Sim:3h13m29s) 
CPU  2 inst:  129000000 cyc:   90695492 now IPC :0.11885: AVG IPC :1.41568: L2-Pf-HR :0.92188: L2-HR :0.91395: (Sim:3h13m30s) 
CPU  0 inst:  130000000 cyc:  100484101 now IPC :0.05441: AVG IPC :1.28646: L2-Pf-HR :0.91696: L2-HR :0.90487: (Sim:3h24m17s) 
CPU  3 inst:  130000000 cyc:  105183330 now IPC :0.04829: AVG IPC :1.22843: L2-Pf-HR :0.91923: L2-HR :0.90693: (Sim:3h28m54s) 
CPU  2 inst:  130000001 cyc:  112460797 now IPC :0.04594: AVG IPC :1.14824: L2-Pf-HR :0.91659: L2-HR :0.90389: (Sim:3h36m34s) 
CPU  1 inst:  130000003 cyc:  112487556 now IPC :0.04587: AVG IPC :1.14797: L2-Pf-HR :0.91917: L2-HR :0.90650: (Sim:3h36m35s) 
CPU  0 inst:  131000002 cyc:  122048724 now IPC :0.04637: AVG IPC :1.06556: L2-Pf-HR :0.91187: L2-HR :0.89546: (Sim:3h43m37s) 
CPU  3 inst:  131000002 cyc:  126388863 now IPC :0.04716: AVG IPC :1.02868: L2-Pf-HR :0.91412: L2-HR :0.89745: (Sim:3h46m7s) 
CPU  0 inst:  132000004 cyc:  129728089 now IPC :0.13022: AVG IPC :1.00977: L2-Pf-HR :0.91043: L2-HR :0.89363: (Sim:3h47m58s) 
CPU  2 inst:  131000000 cyc:  131693993 now IPC :0.05199: AVG IPC :0.98693: L2-Pf-HR :0.91133: L2-HR :0.89442: (Sim:3h49m4s) 
CPU  1 inst:  131000005 cyc:  131789796 now IPC :0.05181: AVG IPC :0.98621: L2-Pf-HR :0.91391: L2-HR :0.89695: (Sim:3h49m7s) 
CPU  3 inst:  132000004 cyc:  133172976 now IPC :0.14740: AVG IPC :0.98345: L2-Pf-HR :0.91264: L2-HR :0.89561: (Sim:3h49m51s) 
CPU  0 inst:  133000000 cyc:  134641986 now IPC :0.20350: AVG IPC :0.98013: L2-Pf-HR :0.90926: L2-HR :0.89240: (Sim:3h50m42s) 
CPU  2 inst:  132000004 cyc:  136329089 now IPC :0.21575: AVG IPC :0.96052: L2-Pf-HR :0.90989: L2-HR :0.89266: (Sim:3h51m41s) 
CPU  1 inst:  132000004 cyc:  136365450 now IPC :0.21855: AVG IPC :0.96026: L2-Pf-HR :0.91243: L2-HR :0.89516: (Sim:3h51m42s) 
CPU  3 inst:  133000000 cyc:  137043609 now IPC :0.25835: AVG IPC :0.96282: L2-Pf-HR :0.91149: L2-HR :0.89441: (Sim:3h52m6s) 
CPU  0 inst:  134000000 cyc:  138480678 now IPC :0.26051: AVG IPC :0.96004: L2-Pf-HR :0.90813: L2-HR :0.89121: (Sim:3h52m56s) 
CPU  2 inst:  133000000 cyc:  140151321 now IPC :0.26163: AVG IPC :0.94133: L2-Pf-HR :0.90880: L2-HR :0.89151: (Sim:3h53m55s) 
CPU  1 inst:  133000000 cyc:  140184057 now IPC :0.26187: AVG IPC :0.94110: L2-Pf-HR :0.91126: L2-HR :0.89395: (Sim:3h53m56s) 
CPU  3 inst:  134000000 cyc:  140840762 now IPC :0.26336: AVG IPC :0.94383: L2-Pf-HR :0.91041: L2-HR :0.89326: (Sim:3h54m19s) 
CPU  0 inst:  135000004 cyc:  142247048 now IPC :0.26551: AVG IPC :0.94152: L2-Pf-HR :0.90704: L2-HR :0.89005: (Sim:3h55m9s) 
CPU  2 inst:  134000000 cyc:  143871689 now IPC :0.26879: AVG IPC :0.92382: L2-Pf-HR :0.90772: L2-HR :0.89036: (Sim:3h56m6s) 
CPU  1 inst:  134000000 cyc:  143896073 now IPC :0.26940: AVG IPC :0.92366: L2-Pf-HR :0.91019: L2-HR :0.89280: (Sim:3h56m7s) 
CPU  3 inst:  135000004 cyc:  144550974 now IPC :0.26953: AVG IPC :0.92640: L2-Pf-HR :0.90940: L2-HR :0.89218: (Sim:3h56m30s) 
CPU  0 inst:  136000000 cyc:  145927573 now IPC :0.27170: AVG IPC :0.92451: L2-Pf-HR :0.90599: L2-HR :0.88895: (Sim:3h57m19s) 
CPU  2 inst:  135000004 cyc:  147539165 now IPC :0.27267: AVG IPC :0.90752: L2-Pf-HR :0.90667: L2-HR :0.88926: (Sim:3h58m16s) 
CPU  1 inst:  135000004 cyc:  147564641 now IPC :0.27259: AVG IPC :0.90736: L2-Pf-HR :0.90918: L2-HR :0.89173: (Sim:3h58m17s) 
CPU  3 inst:  136000000 cyc:  148212084 now IPC :0.27314: AVG IPC :0.91016: L2-Pf-HR :0.90843: L2-HR :0.89114: (Sim:3h58m39s) 
CPU  0 inst:  137000000 cyc:  149562491 now IPC :0.27511: AVG IPC :0.90862: L2-Pf-HR :0.90506: L2-HR :0.88795: (Sim:3h59m27s) 
CPU  2 inst:  136000000 cyc:  151167472 now IPC :0.27561: AVG IPC :0.89226: L2-Pf-HR :0.90581: L2-HR :0.88834: (Sim:4h0m23s) 
CPU  1 inst:  136000000 cyc:  151191242 now IPC :0.27574: AVG IPC :0.89211: L2-Pf-HR :0.90833: L2-HR :0.89081: (Sim:4h0m24s) 
CPU  3 inst:  137000000 cyc:  151838155 now IPC :0.27578: AVG IPC :0.89491: L2-Pf-HR :0.90759: L2-HR :0.89024: (Sim:4h0m47s) 
CPU  0 inst:  138000000 cyc:  153196217 now IPC :0.27520: AVG IPC :0.89350: L2-Pf-HR :0.90425: L2-HR :0.88707: (Sim:4h1m35s) 
CPU  2 inst:  137000000 cyc:  154799706 now IPC :0.27531: AVG IPC :0.87769: L2-Pf-HR :0.90495: L2-HR :0.88742: (Sim:4h3m4s) 
CPU  1 inst:  137000000 cyc:  154821917 now IPC :0.27543: AVG IPC :0.87756: L2-Pf-HR :0.90750: L2-HR :0.88992: (Sim:4h3m6s) 
CPU  3 inst:  138000000 cyc:  155472984 now IPC :0.27512: AVG IPC :0.88033: L2-Pf-HR :0.90674: L2-HR :0.88932: (Sim:4h3m46s) 
CPU  0 inst:  139000000 cyc:  156845275 now IPC :0.27404: AVG IPC :0.87900: L2-Pf-HR :0.90344: L2-HR :0.88619: (Sim:4h5m12s) 
CPU  2 inst:  138000000 cyc:  158438750 now IPC :0.27480: AVG IPC :0.86375: L2-Pf-HR :0.90412: L2-HR :0.88652: (Sim:4h6m53s) 
CPU  1 inst:  138000000 cyc:  158461048 now IPC :0.27479: AVG IPC :0.86363: L2-Pf-HR :0.90666: L2-HR :0.88901: (Sim:4h6m54s) 
CPU  3 inst:  139000000 cyc:  159115450 now IPC :0.27454: AVG IPC :0.86637: L2-Pf-HR :0.90591: L2-HR :0.88842: (Sim:4h7m36s) 
CPU  0 inst:  140000000 cyc:  160471297 now IPC :0.27578: AVG IPC :0.86528: L2-Pf-HR :0.90267: L2-HR :0.88535: (Sim:4h9m4s) 
CPU  2 inst:  139000000 cyc:  162061616 now IPC :0.27602: AVG IPC :0.85053: L2-Pf-HR :0.90333: L2-HR :0.88567: (Sim:4h10m47s) 
CPU  1 inst:  139000000 cyc:  162082284 now IPC :0.27615: AVG IPC :0.85042: L2-Pf-HR :0.90587: L2-HR :0.88816: (Sim:4h10m49s) 
CPU  3 inst:  140000000 cyc:  162739076 now IPC :0.27597: AVG IPC :0.85315: L2-Pf-HR :0.90511: L2-HR :0.88756: (Sim:4h11m31s) 
CPU  0 inst:  141000002 cyc:  164101883 now IPC :0.27544: AVG IPC :0.85215: L2-Pf-HR :0.90190: L2-HR :0.88451: (Sim:4h12m58s) 
CPU  2 inst:  140000000 cyc:  165698293 now IPC :0.27498: AVG IPC :0.83783: L2-Pf-HR :0.90252: L2-HR :0.88480: (Sim:4h14m40s) 
CPU  1 inst:  140000000 cyc:  165717964 now IPC :0.27505: AVG IPC :0.83772: L2-Pf-HR :0.90504: L2-HR :0.88728: (Sim:4h14m41s) 
CPU  3 inst:  141000002 cyc:  166375078 now IPC :0.27503: AVG IPC :0.84044: L2-Pf-HR :0.90429: L2-HR :0.88669: (Sim:4h15m23s) 
CPU  0 inst:  142000003 cyc:  167727796 now IPC :0.27579: AVG IPC :0.83962: L2-Pf-HR :0.90115: L2-HR :0.88371: (Sim:4h16m49s) 
CPU  2 inst:  141000002 cyc:  169329684 now IPC :0.27538: AVG IPC :0.82569: L2-Pf-HR :0.90176: L2-HR :0.88399: (Sim:4h18m31s) 
CPU  1 inst:  141000002 cyc:  169346843 now IPC :0.27557: AVG IPC :0.82561: L2-Pf-HR :0.90424: L2-HR :0.88643: (Sim:4h18m32s) 
CPU  3 inst:  142000003 cyc:  170007900 now IPC :0.27527: AVG IPC :0.82829: L2-Pf-HR :0.90349: L2-HR :0.88584: (Sim:4h19m14s) 
CPU  0 inst:  143000001 cyc:  171362519 now IPC :0.27512: AVG IPC :0.82758: L2-Pf-HR :0.90040: L2-HR :0.88291: (Sim:4h20m41s) 
CPU  2 inst:  142000003 cyc:  172952693 now IPC :0.27601: AVG IPC :0.81411: L2-Pf-HR :0.90099: L2-HR :0.88317: (Sim:4h22m23s) 
CPU  1 inst:  142000003 cyc:  172970812 now IPC :0.27594: AVG IPC :0.81403: L2-Pf-HR :0.90346: L2-HR :0.88560: (Sim:4h22m24s) 
CPU  3 inst:  143000001 cyc:  173628949 now IPC :0.27616: AVG IPC :0.81671: L2-Pf-HR :0.90272: L2-HR :0.88502: (Sim:4h23m8s) 
CPU  0 inst:  144000000 cyc:  174986694 now IPC :0.27592: AVG IPC :0.81609: L2-Pf-HR :0.89967: L2-HR :0.88212: (Sim:4h24m37s) 
CPU  2 inst:  143000001 cyc:  176561459 now IPC :0.27710: AVG IPC :0.80307: L2-Pf-HR :0.90024: L2-HR :0.88237: (Sim:4h26m21s) 
CPU  1 inst:  143000001 cyc:  176583554 now IPC :0.27680: AVG IPC :0.80297: L2-Pf-HR :0.90270: L2-HR :0.88479: (Sim:4h26m23s) 
CPU  3 inst:  144000000 cyc:  177241833 now IPC :0.27679: AVG IPC :0.80564: L2-Pf-HR :0.90200: L2-HR :0.88424: (Sim:4h27m6s) 
CPU  0 inst:  145000000 cyc:  178598018 now IPC :0.27691: AVG IPC :0.80513: L2-Pf-HR :0.89896: L2-HR :0.88136: (Sim:4h28m35s) 
CPU  2 inst:  144000000 cyc:  180187420 now IPC :0.27579: AVG IPC :0.79241: L2-Pf-HR :0.89949: L2-HR :0.88157: (Sim:4h30m20s) 
CPU  1 inst:  144000000 cyc:  180211291 now IPC :0.27565: AVG IPC :0.79230: L2-Pf-HR :0.90192: L2-HR :0.88397: (Sim:4h30m21s) 
CPU  3 inst:  145000000 cyc:  180869784 now IPC :0.27564: AVG IPC :0.79495: L2-Pf-HR :0.90128: L2-HR :0.88347: (Sim:4h31m5s) 
CPU  0 inst:  146000000 cyc:  182225060 now IPC :0.27571: AVG IPC :0.79453: L2-Pf-HR :0.89824: L2-HR :0.88060: (Sim:4h32m34s) 
CPU  2 inst:  145000000 cyc:  183812089 now IPC :0.27589: AVG IPC :0.78217: L2-Pf-HR :0.89874: L2-HR :0.88078: (Sim:4h34m18s) 
CPU  1 inst:  145000000 cyc:  183831765 now IPC :0.27621: AVG IPC :0.78208: L2-Pf-HR :0.90115: L2-HR :0.88315: (Sim:4h34m19s) 
CPU  3 inst:  146000000 cyc:  184483572 now IPC :0.27672: AVG IPC :0.78475: L2-Pf-HR :0.90056: L2-HR :0.88270: (Sim:4h35m2s) 
CPU  0 inst:  147000000 cyc:  185844289 now IPC :0.27630: AVG IPC :0.78438: L2-Pf-HR :0.89753: L2-HR :0.87983: (Sim:4h36m32s) 
CPU  2 inst:  146000000 cyc:  187436846 now IPC :0.27588: AVG IPC :0.77232: L2-Pf-HR :0.89803: L2-HR :0.88001: (Sim:4h37m32s) 
CPU  1 inst:  146000000 cyc:  187457450 now IPC :0.27581: AVG IPC :0.77224: L2-Pf-HR :0.90040: L2-HR :0.88236: (Sim:4h37m33s) 
CPU  3 inst:  147000000 cyc:  188103416 now IPC :0.27626: AVG IPC :0.77491: L2-Pf-HR :0.89983: L2-HR :0.88192: (Sim:4h37m55s) 
CPU  0 inst:  148000000 cyc:  189463500 now IPC :0.27630: AVG IPC :0.77463: L2-Pf-HR :0.89685: L2-HR :0.87910: (Sim:4h39m0s) 
CPU  2 inst:  147000000 cyc:  191057345 now IPC :0.27621: AVG IPC :0.76287: L2-Pf-HR :0.89731: L2-HR :0.87925: (Sim:4h40m37s) 
CPU  1 inst:  147000000 cyc:  191079603 now IPC :0.27608: AVG IPC :0.76278: L2-Pf-HR :0.89969: L2-HR :0.88159: (Sim:4h40m38s) 
CPU  3 inst:  148000000 cyc:  191743287 now IPC :0.27474: AVG IPC :0.76537: L2-Pf-HR :0.89911: L2-HR :0.88115: (Sim:4h41m18s) 
CPU  0 inst:  149000000 cyc:  193095250 now IPC :0.27535: AVG IPC :0.76519: L2-Pf-HR :0.89616: L2-HR :0.87836: (Sim:4h42m40s) 
CPU  2 inst:  148000000 cyc:  194684052 now IPC :0.27573: AVG IPC :0.75375: L2-Pf-HR :0.89662: L2-HR :0.87851: (Sim:4h44m16s) 
CPU  1 inst:  148000000 cyc:  194717852 now IPC :0.27486: AVG IPC :0.75362: L2-Pf-HR :0.89893: L2-HR :0.88078: (Sim:4h44m18s) 
CPU  3 inst:  149000000 cyc:  195351592 now IPC :0.27714: AVG IPC :0.75630: L2-Pf-HR :0.89840: L2-HR :0.88039: (Sim:4h44m56s) 
CPU  0 inst:  150000000 cyc:  196708411 now IPC :0.27677: AVG IPC :0.75617: L2-Pf-HR :0.89549: L2-HR :0.87763: (Sim:4h46m18s) 
CPU  2 inst:  149000000 cyc:  198314641 now IPC :0.27544: AVG IPC :0.74495: L2-Pf-HR :0.89596: L2-HR :0.87778: (Sim:4h47m54s) 
CPU  1 inst:  149000000 cyc:  198344728 now IPC :0.27572: AVG IPC :0.74484: L2-Pf-HR :0.89823: L2-HR :0.88003: (Sim:4h47m56s) 
CPU  3 inst:  150000000 cyc:  198975115 now IPC :0.27597: AVG IPC :0.74751: L2-Pf-HR :0.89774: L2-HR :0.87967: (Sim:4h48m34s) 
CPU  0 inst:  151000002 cyc:  200342352 now IPC :0.27518: AVG IPC :0.74740: L2-Pf-HR :0.89482: L2-HR :0.87690: (Sim:4h49m24s) 
CPU  2 inst:  150000000 cyc:  201941329 now IPC :0.27573: AVG IPC :0.73648: L2-Pf-HR :0.89528: L2-HR :0.87704: (Sim:4h50m48s) 
CPU  1 inst:  150000000 cyc:  201972789 now IPC :0.27563: AVG IPC :0.73637: L2-Pf-HR :0.89755: L2-HR :0.87928: (Sim:4h50m50s) 
CPU  3 inst:  151000002 cyc:  202602651 now IPC :0.27567: AVG IPC :0.73902: L2-Pf-HR :0.89709: L2-HR :0.87895: (Sim:4h51m33s) 
CPU  0 inst:  152000000 cyc:  203959998 now IPC :0.27642: AVG IPC :0.73901: L2-Pf-HR :0.89419: L2-HR :0.87620: (Sim:4h52m32s) 
CPU  2 inst:  151000002 cyc:  205546929 now IPC :0.27735: AVG IPC :0.72839: L2-Pf-HR :0.89465: L2-HR :0.87634: (Sim:4h53m47s) 
CPU  1 inst:  151000002 cyc:  205578080 now IPC :0.27737: AVG IPC :0.72828: L2-Pf-HR :0.89689: L2-HR :0.87856: (Sim:4h53m49s) 
CPU  3 inst:  152000000 cyc:  206202375 now IPC :0.27780: AVG IPC :0.73093: L2-Pf-HR :0.89649: L2-HR :0.87828: (Sim:4h54m28s) 
CPU  0 inst:  153000002 cyc:  207573709 now IPC :0.27672: AVG IPC :0.73092: L2-Pf-HR :0.89358: L2-HR :0.87552: (Sim:4h55m54s) 
CPU  2 inst:  152000000 cyc:  209173253 now IPC :0.27576: AVG IPC :0.72051: L2-Pf-HR :0.89400: L2-HR :0.87563: (Sim:4h57m24s) 
CPU  1 inst:  152000000 cyc:  209206735 now IPC :0.27558: AVG IPC :0.72039: L2-Pf-HR :0.89620: L2-HR :0.87781: (Sim:4h57m26s) 
CPU  3 inst:  153000002 cyc:  209844775 now IPC :0.27454: AVG IPC :0.72297: L2-Pf-HR :0.89585: L2-HR :0.87758: (Sim:4h58m2s) 
CPU  0 inst:  154000000 cyc:  211229901 now IPC :0.27351: AVG IPC :0.72297: L2-Pf-HR :0.89294: L2-HR :0.87482: (Sim:4h59m26s) 
CPU  2 inst:  153000002 cyc:  212829933 now IPC :0.27347: AVG IPC :0.71279: L2-Pf-HR :0.89332: L2-HR :0.87490: (Sim:5h1m3s) 
CPU  1 inst:  153000002 cyc:  212860883 now IPC :0.27366: AVG IPC :0.71268: L2-Pf-HR :0.89550: L2-HR :0.87706: (Sim:5h1m5s) 
[...]
Core_3_L1I_writeback_hit 0
Core_3_L1I_writeback_miss 0

Core_3_L2C_total_access 24396412
Core_3_L2C_total_hit 22134409
Core_3_L2C_total_miss 2262003
Core_3_L2C_loads 3180985
Core_3_L2C_load_hit 2603509
Core_3_L2C_load_miss 577476
Core_3_L2C_RFOs 296774
Core_3_L2C_RFO_hit 128428
Core_3_L2C_RFO_miss 168346
Core_3_L2C_prefetches 19296601
Core_3_L2C_prefetch_hit 17781367
Core_3_L2C_prefetch_miss 1515234
Core_3_L2C_writebacks 1622052
Core_3_L2C_writeback_hit 1621105
Core_3_L2C_writeback_miss 947

CPU 3 L1D next line prefetcher final stats
CPU 3 L2C PC-based stride prefetcher final stats
Stride Degree: 15
MK1  MARKOV_LRU_SIZE: 128
MK1  MARKOV_PREDICTION_PERCENTTHRESHOLD: 40.00000
MK1  OUTLIERS_THRESHOLD_Max: 64
MK1  OUTLIERS_THRESHOLD_Min: 32
MK2  MARKOV_LRU_SIZE: 256
MK2  MARKOV_PREDICTION_PERCENTTHRESHOLD: 30.00000
MK2  OUTLIERS_THRESHOLD_Max: 32
MK2  OUTLIERS_THRESHOLD_Min: 16
MK3  MARKOV_LRU_SIZE: 384
MK3  MARKOV_PREDICTION_PERCENTTHRESHOLD: 25.00000
MK3  OUTLIERS_THRESHOLD_Max: 16
MK3  OUTLIERS_THRESHOLD_Min: 8
MK4  MARKOV_LRU_SIZE: 512
MK4  MARKOV_PREDICTION_PERCENTTHRESHOLD: 20.00000
MK4  OUTLIERS_THRESHOLD_Max: 8
MK4  OUTLIERS_THRESHOLD_Min: 0
IPStride Degree/Access Ratio: 3.18170
MK1 IPDEltaMarkov  Degree/Access Ratio: 0.29153
MK2 IPDEltaMarkov  Degree/Access Ratio: 0.68187
MK3 IPDEltaMarkov  Degree/Access Ratio: 0.74997
MK4 IPDEltaMarkov  Degree/Access Ratio: 1.49175
Core_3_LLC_total_access 3422760
Core_3_LLC_total_hit 1764776
Core_3_LLC_total_miss 1657984
Core_3_LLC_loads 347011
Core_3_LLC_load_hit 161126
Core_3_LLC_load_miss 185885
Core_3_LLC_RFOs 168345
Core_3_LLC_RFO_hit 2450
Core_3_LLC_RFO_miss 165895
Core_3_LLC_prefetches 1795622
Core_3_LLC_prefetch_hit 532195
Core_3_LLC_prefetch_miss 1263427
Core_3_LLC_writebacks 1111782
Core_3_LLC_writeback_hit 1069005
Core_3_LLC_writeback_miss 42777


[ROI Statistics]
Core_0_instructions 293000002
Core_0_cycles 320633403
Core_0_IPC 0.91382

Core_0_branch_prediction_accuracy 98.20460
Core_0_branch_MPKI 0.42881
Core_0_average_ROB_occupancy_at_mispredict 571.53190

Core_0_L1D_total_access 158146217
Core_0_L1D_total_hit 151955137 L1D_total_Hit Ratio: 0.96085
Core_0_L1D_total_miss 6191080
Core_0_L1D_loads 61797294
Core_0_L1D_load_hit 58254445 L1D_load_Hit Ratio: 0.94267
Core_0_L1D_load_miss 3542849
Core_0_L1D_RFOs 5936029
Core_0_L1D_RFO_hit 5640620 L1D_RFO_Hit Ratio: 0.95023
Core_0_L1D_RFO_miss 295409
Core_0_L1D_prefetches 90412894
Core_0_L1D_prefetch_hit 88060072 L1D_prefetch_Hit Ratio: 0.97398
Core_0_L1D_prefetch_miss 2352822
Core_0_L1D_writebacks 0
Core_0_L1D_writeback_hit 0 L1D_writeback_Hit Ratio: -nan
Core_0_L1D_writeback_miss 0
Core_0_L1D_prefetch_requested 196562490
Core_0_L1D_prefetch_issued 114514946
Core_0_L1D_prefetch_useful 1909650 L1D_Useful Ratio: 0.01668
Core_0_L1D_prefetch_useless 565544
Core_0_L1D_prefetch_late 483779
Core_0_L1D_average_miss_latency 14677410.88134

Core_0_L1I_total_access 37271561
Core_0_L1I_total_hit 37266714 L1I_total_Hit Ratio: 0.99987
Core_0_L1I_total_miss 4847
Core_0_L1I_loads 37271561
Core_0_L1I_load_hit 37266714 L1I_load_Hit Ratio: 0.99987
Core_0_L1I_load_miss 4847
Core_0_L1I_RFOs 0
Core_0_L1I_RFO_hit 0 L1I_RFO_Hit Ratio: -nan
Core_0_L1I_RFO_miss 0
Core_0_L1I_prefetches 0
Core_0_L1I_prefetch_hit 0 L1I_prefetch_Hit Ratio: -nan
Core_0_L1I_prefetch_miss 0
Core_0_L1I_writebacks 0
Core_0_L1I_writeback_hit 0 L1I_writeback_Hit Ratio: -nan
Core_0_L1I_writeback_miss 0
Core_0_L1I_prefetch_requested 0
Core_0_L1I_prefetch_issued 0
Core_0_L1I_prefetch_useful 0 L1I_Useful Ratio: -nan
Core_0_L1I_prefetch_useless 0
Core_0_L1I_prefetch_late 0
Core_0_L1I_average_miss_latency 1434.83000

Core_0_L2C_total_access 24561271
Core_0_L2C_total_hit 22322391 L2C_total_Hit Ratio: 0.90885
Core_0_L2C_total_miss 2238880
Core_0_L2C_loads 3082626
Core_0_L2C_load_hit 2525461 L2C_load_Hit Ratio: 0.81926
Core_0_L2C_load_miss 557165
Core_0_L2C_RFOs 295332
Core_0_L2C_RFO_hit 128286 L2C_RFO_Hit Ratio: 0.43438
Core_0_L2C_RFO_miss 167046
Core_0_L2C_prefetches 19594113
Core_0_L2C_prefetch_hit 18081396 L2C_prefetch_Hit Ratio: 0.92280
Core_0_L2C_prefetch_miss 1512717
Core_0_L2C_writebacks 1589200
Core_0_L2C_writeback_hit 1587248 L2C_writeback_Hit Ratio: 0.99877
Core_0_L2C_writeback_miss 1952
Core_0_L2C_prefetch_requested 41499991
Core_0_L2C_prefetch_issued 25941707
Core_0_L2C_prefetch_useful 639458 L2C_Useful Ratio: 0.02465
Core_0_L2C_prefetch_useless 949328
Core_0_L2C_prefetch_late 232326
Core_0_L2C_average_miss_latency 658.50123

Core_0_LLC_total_access 3396434
Core_0_LLC_total_hit 1770841 LLC_total_Hit Ratio: 0.52138
Core_0_LLC_total_miss 1625593
Core_0_LLC_loads 327993
Core_0_LLC_load_hit 151895 LLC_load_Hit Ratio: 0.46310
Core_0_LLC_load_miss 176098
Core_0_LLC_RFOs 167042
Core_0_LLC_RFO_hit 886 LLC_RFO_Hit Ratio: 0.00530
Core_0_LLC_RFO_miss 166156
Core_0_LLC_prefetches 1791261
Core_0_LLC_prefetch_hit 545835 LLC_prefetch_Hit Ratio: 0.30472
Core_0_LLC_prefetch_miss 1245426
Core_0_LLC_writebacks 1110138
Core_0_LLC_writeback_hit 1072225 LLC_writeback_Hit Ratio: 0.96585
Core_0_LLC_writeback_miss 37913
Core_0_LLC_prefetch_requested 0
Core_0_LLC_prefetch_issued 0
Core_0_LLC_prefetch_useful 367043 LLC_Useful Ratio: inf
Core_0_LLC_prefetch_useless 4595150
Core_0_LLC_prefetch_late 67562
Core_0_LLC_average_miss_latency 3682.91639

Core_0_major_page_fault 0
Core_0_minor_page_fault 13422

Core_1_instructions 293000004
Core_1_cycles 327320583
Core_1_IPC 0.89515

Core_1_branch_prediction_accuracy 98.23427
Core_1_branch_MPKI 0.42791
Core_1_average_ROB_occupancy_at_mispredict 572.83202

Core_1_L1D_total_access 158154619
Core_1_L1D_total_hit 151962490 L1D_total_Hit Ratio: 0.96085
Core_1_L1D_total_miss 6192129
Core_1_L1D_loads 61785017
Core_1_L1D_load_hit 58241506 L1D_load_Hit Ratio: 0.94265
Core_1_L1D_load_miss 3543511
Core_1_L1D_RFOs 5937999
Core_1_L1D_RFO_hit 5642583 L1D_RFO_Hit Ratio: 0.95025
Core_1_L1D_RFO_miss 295416
Core_1_L1D_prefetches 90431603
Core_1_L1D_prefetch_hit 88078401 L1D_prefetch_Hit Ratio: 0.97398
Core_1_L1D_prefetch_miss 2353202
Core_1_L1D_writebacks 0
Core_1_L1D_writeback_hit 0 L1D_writeback_Hit Ratio: -nan
Core_1_L1D_writeback_miss 0
Core_1_L1D_prefetch_requested 190418415
Core_1_L1D_prefetch_issued 111379237
Core_1_L1D_prefetch_useful 1851070 L1D_Useful Ratio: 0.01662
Core_1_L1D_prefetch_useless 543940
Core_1_L1D_prefetch_late 469999
Core_1_L1D_average_miss_latency 14374060.45928

Core_1_L1I_total_access 37280009
Core_1_L1I_total_hit 37275167 L1I_total_Hit Ratio: 0.99987
Core_1_L1I_total_miss 4842
Core_1_L1I_loads 37280009
Core_1_L1I_load_hit 37275167 L1I_load_Hit Ratio: 0.99987
Core_1_L1I_load_miss 4842
Core_1_L1I_RFOs 0
Core_1_L1I_RFO_hit 0 L1I_RFO_Hit Ratio: -nan
Core_1_L1I_RFO_miss 0
Core_1_L1I_prefetches 0
Core_1_L1I_prefetch_hit 0 L1I_prefetch_Hit Ratio: -nan
Core_1_L1I_prefetch_miss 0
Core_1_L1I_writebacks 0
Core_1_L1I_writeback_hit 0 L1I_writeback_Hit Ratio: -nan
Core_1_L1I_writeback_miss 0
Core_1_L1I_prefetch_requested 0
Core_1_L1I_prefetch_issued 0
Core_1_L1I_prefetch_useful 0 L1I_Useful Ratio: -nan
Core_1_L1I_prefetch_useless 0
Core_1_L1I_prefetch_late 0
Core_1_L1I_average_miss_latency 1269.97873

Core_1_L2C_total_access 23264546
Core_1_L2C_total_hit 21034351 L2C_total_Hit Ratio: 0.90414
Core_1_L2C_total_miss 2230195
Core_1_L2C_loads 3084774
Core_1_L2C_load_hit 2525257 L2C_load_Hit Ratio: 0.81862
Core_1_L2C_load_miss 559517
Core_1_L2C_RFOs 295333
Core_1_L2C_RFO_hit 127429 L2C_RFO_Hit Ratio: 0.43148
Core_1_L2C_RFO_miss 167904
Core_1_L2C_prefetches 18295235
Core_1_L2C_prefetch_hit 16795165 L2C_prefetch_Hit Ratio: 0.91801
Core_1_L2C_prefetch_miss 1500070
Core_1_L2C_writebacks 1589204
Core_1_L2C_writeback_hit 1586500 L2C_writeback_Hit Ratio: 0.99830
Core_1_L2C_writeback_miss 2704
Core_1_L2C_prefetch_requested 35353279
Core_1_L2C_prefetch_issued 22731810
Core_1_L2C_prefetch_useful 608766 L2C_Useful Ratio: 0.02678
Core_1_L2C_prefetch_useless 906975
Core_1_L2C_prefetch_late 226879
Core_1_L2C_average_miss_latency 678.26455

Core_1_LLC_total_access 3379324
Core_1_LLC_total_hit 1745830 LLC_total_Hit Ratio: 0.51662
Core_1_LLC_total_miss 1633494
Core_1_LLC_loads 333253
Core_1_LLC_load_hit 154334 LLC_load_Hit Ratio: 0.46311
Core_1_LLC_load_miss 178919
Core_1_LLC_RFOs 167897
Core_1_LLC_RFO_hit 2250 LLC_RFO_Hit Ratio: 0.01340
Core_1_LLC_RFO_miss 165647
Core_1_LLC_prefetches 1773905
Core_1_LLC_prefetch_hit 530773 LLC_prefetch_Hit Ratio: 0.29921
Core_1_LLC_prefetch_miss 1243132
Core_1_LLC_writebacks 1104269
Core_1_LLC_writeback_hit 1058473 LLC_writeback_Hit Ratio: 0.95853
Core_1_LLC_writeback_miss 45796
Core_1_LLC_prefetch_requested 0
Core_1_LLC_prefetch_issued 0
Core_1_LLC_prefetch_useful 367043 LLC_Useful Ratio: inf
Core_1_LLC_prefetch_useless 4595150
Core_1_LLC_prefetch_late 67562
Core_1_LLC_average_miss_latency 3665.10260

Core_1_major_page_fault 0
Core_1_minor_page_fault 13348

Core_2_instructions 293000000
Core_2_cycles 328732673
Core_2_IPC 0.89130

Core_2_branch_prediction_accuracy 98.23791
Core_2_branch_MPKI 0.42863
Core_2_average_ROB_occupancy_at_mispredict 572.46137

Core_2_L1D_total_access 158103870
Core_2_L1D_total_hit 151911933 L1D_total_Hit Ratio: 0.96084
Core_2_L1D_total_miss 6191937
Core_2_L1D_loads 61763548
Core_2_L1D_load_hit 58215220 L1D_load_Hit Ratio: 0.94255
Core_2_L1D_load_miss 3548328
Core_2_L1D_RFOs 5937292
Core_2_L1D_RFO_hit 5641883 L1D_RFO_Hit Ratio: 0.95025
Core_2_L1D_RFO_miss 295409
Core_2_L1D_prefetches 90403030
Core_2_L1D_prefetch_hit 88054830 L1D_prefetch_Hit Ratio: 0.97403
Core_2_L1D_prefetch_miss 2348200
Core_2_L1D_writebacks 0
Core_2_L1D_writeback_hit 0 L1D_writeback_Hit Ratio: -nan
Core_2_L1D_writeback_miss 0
Core_2_L1D_prefetch_requested 188658258
Core_2_L1D_prefetch_issued 110451177
Core_2_L1D_prefetch_useful 1828106 L1D_Useful Ratio: 0.01655
Core_2_L1D_prefetch_useless 536546
Core_2_L1D_prefetch_late 464709
Core_2_L1D_average_miss_latency 14120759.59056

Core_2_L1I_total_access 37278019
Core_2_L1I_total_hit 37273178 L1I_total_Hit Ratio: 0.99987
Core_2_L1I_total_miss 4841
Core_2_L1I_loads 37278019
Core_2_L1I_load_hit 37273178 L1I_load_Hit Ratio: 0.99987
Core_2_L1I_load_miss 4841
Core_2_L1I_RFOs 0
Core_2_L1I_RFO_hit 0 L1I_RFO_Hit Ratio: -nan
Core_2_L1I_RFO_miss 0
Core_2_L1I_prefetches 0
Core_2_L1I_prefetch_hit 0 L1I_prefetch_Hit Ratio: -nan
Core_2_L1I_prefetch_miss 0
Core_2_L1I_writebacks 0
Core_2_L1I_writeback_hit 0 L1I_writeback_Hit Ratio: -nan
Core_2_L1I_writeback_miss 0
Core_2_L1I_prefetch_requested 0
Core_2_L1I_prefetch_issued 0
Core_2_L1I_prefetch_useful 0 L1I_Useful Ratio: -nan
Core_2_L1I_prefetch_useless 0
Core_2_L1I_prefetch_late 0
Core_2_L1I_average_miss_latency 1212.80128

Core_2_L2C_total_access 22768011
Core_2_L2C_total_hit 20505361 L2C_total_Hit Ratio: 0.90062
Core_2_L2C_total_miss 2262650
Core_2_L2C_loads 3089658
Core_2_L2C_load_hit 2517245 L2C_load_Hit Ratio: 0.81473
Core_2_L2C_load_miss 572413
Core_2_L2C_RFOs 295336
Core_2_L2C_RFO_hit 127870 L2C_RFO_Hit Ratio: 0.43296
Core_2_L2C_RFO_miss 167466
Core_2_L2C_prefetches 17793822
Core_2_L2C_prefetch_hit 16275051 L2C_prefetch_Hit Ratio: 0.91465
Core_2_L2C_prefetch_miss 1518771
Core_2_L2C_writebacks 1589195
Core_2_L2C_writeback_hit 1585195 L2C_writeback_Hit Ratio: 0.99748
Core_2_L2C_writeback_miss 4000
Core_2_L2C_prefetch_requested 33230950
Core_2_L2C_prefetch_issued 21657999
Core_2_L2C_prefetch_useful 612861 L2C_Useful Ratio: 0.02830
Core_2_L2C_prefetch_useless 912768
Core_2_L2C_prefetch_late 230199
Core_2_L2C_average_miss_latency 680.89053

Core_2_LLC_total_access 3415901
Core_2_LLC_total_hit 1787103 LLC_total_Hit Ratio: 0.52317
Core_2_LLC_total_miss 1628798
Core_2_LLC_loads 342443
Core_2_LLC_load_hit 162137 LLC_load_Hit Ratio: 0.47347
Core_2_LLC_load_miss 180306
Core_2_LLC_RFOs 167462
Core_2_LLC_RFO_hit 1786 LLC_RFO_Hit Ratio: 0.01067
Core_2_LLC_RFO_miss 165676
Core_2_LLC_prefetches 1796652
Core_2_LLC_prefetch_hit 555375 LLC_prefetch_Hit Ratio: 0.30912
Core_2_LLC_prefetch_miss 1241277
Core_2_LLC_writebacks 1109344
Core_2_LLC_writeback_hit 1067805 LLC_writeback_Hit Ratio: 0.96256
Core_2_LLC_writeback_miss 41539
Core_2_LLC_prefetch_requested 0
Core_2_LLC_prefetch_issued 0
Core_2_LLC_prefetch_useful 367043 LLC_Useful Ratio: inf
Core_2_LLC_prefetch_useless 4595150
Core_2_LLC_prefetch_late 67562
Core_2_LLC_average_miss_latency 3675.66948

Core_2_major_page_fault 0
Core_2_minor_page_fault 13331

Core_3_instructions 293000001
Core_3_cycles 323823583
Core_3_IPC 0.90481

Core_3_branch_prediction_accuracy 98.21517
Core_3_branch_MPKI 0.42949
Core_3_average_ROB_occupancy_at_mispredict 570.72254

Core_3_L1D_total_access 158122435
Core_3_L1D_total_hit 151931393 L1D_total_Hit Ratio: 0.96085
Core_3_L1D_total_miss 6191042
Core_3_L1D_loads 61772961
Core_3_L1D_load_hit 58226365 L1D_load_Hit Ratio: 0.94259
Core_3_L1D_load_miss 3546596
Core_3_L1D_RFOs 5937360
Core_3_L1D_RFO_hit 5641962 L1D_RFO_Hit Ratio: 0.95025
Core_3_L1D_RFO_miss 295398
Core_3_L1D_prefetches 90412114
Core_3_L1D_prefetch_hit 88063066 L1D_prefetch_Hit Ratio: 0.97402
Core_3_L1D_prefetch_miss 2349048
Core_3_L1D_writebacks 0
Core_3_L1D_writeback_hit 0 L1D_writeback_Hit Ratio: -nan
Core_3_L1D_writeback_miss 0
Core_3_L1D_prefetch_requested 193322358
Core_3_L1D_prefetch_issued 112854601
Core_3_L1D_prefetch_useful 1875844 L1D_Useful Ratio: 0.01662
Core_3_L1D_prefetch_useless 555217
Core_3_L1D_prefetch_late 475093
Core_3_L1D_average_miss_latency 14400793.65175

Core_3_L1I_total_access 37275297
Core_3_L1I_total_hit 37270458 L1I_total_Hit Ratio: 0.99987
Core_3_L1I_total_miss 4839
Core_3_L1I_loads 37275297
Core_3_L1I_load_hit 37270458 L1I_load_Hit Ratio: 0.99987
Core_3_L1I_load_miss 4839
Core_3_L1I_RFOs 0
Core_3_L1I_RFO_hit 0 L1I_RFO_Hit Ratio: -nan
Core_3_L1I_RFO_miss 0
Core_3_L1I_prefetches 0
Core_3_L1I_prefetch_hit 0 L1I_prefetch_Hit Ratio: -nan
Core_3_L1I_prefetch_miss 0
Core_3_L1I_writebacks 0
Core_3_L1I_writeback_hit 0 L1I_writeback_Hit Ratio: -nan
Core_3_L1I_writeback_miss 0
Core_3_L1I_prefetch_requested 0
Core_3_L1I_prefetch_issued 0
Core_3_L1I_prefetch_useful 0 L1I_Useful Ratio: -nan
Core_3_L1I_prefetch_useless 0
Core_3_L1I_prefetch_late 0
Core_3_L1I_average_miss_latency 1830.05745

Core_3_L2C_total_access 23686660
Core_3_L2C_total_hit 21488107 L2C_total_Hit Ratio: 0.90718
Core_3_L2C_total_miss 2198553
Core_3_L2C_loads 3088403
Core_3_L2C_load_hit 2531569 L2C_load_Hit Ratio: 0.81970
Core_3_L2C_load_miss 556834
Core_3_L2C_RFOs 295331
Core_3_L2C_RFO_hit 127037 L2C_RFO_Hit Ratio: 0.43015
Core_3_L2C_RFO_miss 168294
Core_3_L2C_prefetches 18713733
Core_3_L2C_prefetch_hit 17240953 L2C_prefetch_Hit Ratio: 0.92130
Core_3_L2C_prefetch_miss 1472780
Core_3_L2C_writebacks 1589193
Core_3_L2C_writeback_hit 1588548 L2C_writeback_Hit Ratio: 0.99959
Core_3_L2C_writeback_miss 645
Core_3_L2C_prefetch_requested 37601034
Core_3_L2C_prefetch_issued 23798489
Core_3_L2C_prefetch_useful 604270 L2C_Useful Ratio: 0.02539
Core_3_L2C_prefetch_useless 916993
Core_3_L2C_prefetch_late 230520
Core_3_L2C_average_miss_latency 681.48341

Core_3_LLC_total_access 3338885
Core_3_LLC_total_hit 1713438 LLC_total_Hit Ratio: 0.51318
Core_3_LLC_total_miss 1625447
Core_3_LLC_loads 328205
Core_3_LLC_load_hit 150118 LLC_load_Hit Ratio: 0.45739
Core_3_LLC_load_miss 178087
Core_3_LLC_RFOs 168293
Core_3_LLC_RFO_hit 2428 LLC_RFO_Hit Ratio: 0.01443
Core_3_LLC_RFO_miss 165865
Core_3_LLC_prefetches 1750452
Core_3_LLC_prefetch_hit 508555 LLC_prefetch_Hit Ratio: 0.29053
Core_3_LLC_prefetch_miss 1241897
Core_3_LLC_writebacks 1091935
Core_3_LLC_writeback_hit 1052337 LLC_writeback_Hit Ratio: 0.96374
Core_3_LLC_writeback_miss 39598
Core_3_LLC_prefetch_requested 0
Core_3_LLC_prefetch_issued 0
Core_3_LLC_prefetch_useful 367043 LLC_Useful Ratio: inf
Core_3_LLC_prefetch_useless 4595150
Core_3_LLC_prefetch_late 67562
Core_3_LLC_average_miss_latency 3683.24719

Core_3_major_page_fault 0
Core_3_minor_page_fault 13422

CPU 0 L1D next line prefetcher final stats
CPU 0 L2C PC-based stride prefetcher final stats
Stride Degree: 15
MK1  MARKOV_LRU_SIZE: 128
MK1  MARKOV_PREDICTION_PERCENTTHRESHOLD: 40.00000
MK1  OUTLIERS_THRESHOLD_Max: 64
MK1  OUTLIERS_THRESHOLD_Min: 32
MK2  MARKOV_LRU_SIZE: 256
MK2  MARKOV_PREDICTION_PERCENTTHRESHOLD: 30.00000
MK2  OUTLIERS_THRESHOLD_Max: 32
MK2  OUTLIERS_THRESHOLD_Min: 16
MK3  MARKOV_LRU_SIZE: 384
MK3  MARKOV_PREDICTION_PERCENTTHRESHOLD: 25.00000
MK3  OUTLIERS_THRESHOLD_Max: 16
MK3  OUTLIERS_THRESHOLD_Min: 8
MK4  MARKOV_LRU_SIZE: 512
MK4  MARKOV_PREDICTION_PERCENTTHRESHOLD: 20.00000
MK4  OUTLIERS_THRESHOLD_Max: 8
MK4  OUTLIERS_THRESHOLD_Min: 0
IPStride Degree/Access Ratio: 3.18170
MK1 IPDEltaMarkov  Degree/Access Ratio: 0.29153
MK2 IPDEltaMarkov  Degree/Access Ratio: 0.68187
MK3 IPDEltaMarkov  Degree/Access Ratio: 0.74997
MK4 IPDEltaMarkov  Degree/Access Ratio: 1.49175
CPU 1 L1D next line prefetcher final stats
CPU 1 L2C PC-based stride prefetcher final stats
Stride Degree: 15
MK1  MARKOV_LRU_SIZE: 128
MK1  MARKOV_PREDICTION_PERCENTTHRESHOLD: 40.00000
MK1  OUTLIERS_THRESHOLD_Max: 64
MK1  OUTLIERS_THRESHOLD_Min: 32
MK2  MARKOV_LRU_SIZE: 256
MK2  MARKOV_PREDICTION_PERCENTTHRESHOLD: 30.00000
MK2  OUTLIERS_THRESHOLD_Max: 32
MK2  OUTLIERS_THRESHOLD_Min: 16
MK3  MARKOV_LRU_SIZE: 384
MK3  MARKOV_PREDICTION_PERCENTTHRESHOLD: 25.00000
MK3  OUTLIERS_THRESHOLD_Max: 16
MK3  OUTLIERS_THRESHOLD_Min: 8
MK4  MARKOV_LRU_SIZE: 512
MK4  MARKOV_PREDICTION_PERCENTTHRESHOLD: 20.00000
MK4  OUTLIERS_THRESHOLD_Max: 8
MK4  OUTLIERS_THRESHOLD_Min: 0
IPStride Degree/Access Ratio: 3.18170
MK1 IPDEltaMarkov  Degree/Access Ratio: 0.29153
MK2 IPDEltaMarkov  Degree/Access Ratio: 0.68187
MK3 IPDEltaMarkov  Degree/Access Ratio: 0.74997
MK4 IPDEltaMarkov  Degree/Access Ratio: 1.49175
CPU 2 L1D next line prefetcher final stats
CPU 2 L2C PC-based stride prefetcher final stats
Stride Degree: 15
MK1  MARKOV_LRU_SIZE: 128
MK1  MARKOV_PREDICTION_PERCENTTHRESHOLD: 40.00000
MK1  OUTLIERS_THRESHOLD_Max: 64
MK1  OUTLIERS_THRESHOLD_Min: 32
MK2  MARKOV_LRU_SIZE: 256
MK2  MARKOV_PREDICTION_PERCENTTHRESHOLD: 30.00000
MK2  OUTLIERS_THRESHOLD_Max: 32
MK2  OUTLIERS_THRESHOLD_Min: 16
MK3  MARKOV_LRU_SIZE: 384
MK3  MARKOV_PREDICTION_PERCENTTHRESHOLD: 25.00000
MK3  OUTLIERS_THRESHOLD_Max: 16
MK3  OUTLIERS_THRESHOLD_Min: 8
MK4  MARKOV_LRU_SIZE: 512
MK4  MARKOV_PREDICTION_PERCENTTHRESHOLD: 20.00000
MK4  OUTLIERS_THRESHOLD_Max: 8
MK4  OUTLIERS_THRESHOLD_Min: 0
IPStride Degree/Access Ratio: 3.18170
MK1 IPDEltaMarkov  Degree/Access Ratio: 0.29153
MK2 IPDEltaMarkov  Degree/Access Ratio: 0.68187
MK3 IPDEltaMarkov  Degree/Access Ratio: 0.74997
MK4 IPDEltaMarkov  Degree/Access Ratio: 1.49175
CPU 3 L1D next line prefetcher final stats
CPU 3 L2C PC-based stride prefetcher final stats
Stride Degree: 15
MK1  MARKOV_LRU_SIZE: 128
MK1  MARKOV_PREDICTION_PERCENTTHRESHOLD: 40.00000
MK1  OUTLIERS_THRESHOLD_Max: 64
MK1  OUTLIERS_THRESHOLD_Min: 32
MK2  MARKOV_LRU_SIZE: 256
MK2  MARKOV_PREDICTION_PERCENTTHRESHOLD: 30.00000
MK2  OUTLIERS_THRESHOLD_Max: 32
MK2  OUTLIERS_THRESHOLD_Min: 16
MK3  MARKOV_LRU_SIZE: 384
MK3  MARKOV_PREDICTION_PERCENTTHRESHOLD: 25.00000
MK3  OUTLIERS_THRESHOLD_Max: 16
MK3  OUTLIERS_THRESHOLD_Min: 8
MK4  MARKOV_LRU_SIZE: 512
MK4  MARKOV_PREDICTION_PERCENTTHRESHOLD: 20.00000
MK4  OUTLIERS_THRESHOLD_Max: 8
MK4  OUTLIERS_THRESHOLD_Min: 0
IPStride Degree/Access Ratio: 3.18170
MK1 IPDEltaMarkov  Degree/Access Ratio: 0.29153
MK2 IPDEltaMarkov  Degree/Access Ratio: 0.68187
MK3 IPDEltaMarkov  Degree/Access Ratio: 0.74997
MK4 IPDEltaMarkov  Degree/Access Ratio: 1.49175
Channel_0_RQ_row_buffer_hit 3002660
Channel_0_RQ_row_buffer_miss 3426035
Channel_0_WQ_row_buffer_hit 1204710
Channel_0_WQ_row_buffer_miss 2313274
Channel_0_WQ_full 10493
Channel_0_dbus_congested 7483402

avg_congested_cycle 11

EzSearch AVG IPC :0.91382: L2-Pf-HR :0.92280 : L2-HR :0.90931 Uful:0.02465
EzSearch AVG IPC :0.89515: L2-Pf-HR :0.91801 : L2-HR :0.90467 Uful:0.02678
EzSearch AVG IPC :0.89130: L2-Pf-HR :0.91465 : L2-HR :0.90062 Uful:0.02830
EzSearch AVG IPC :0.90481: L2-Pf-HR :0.92130 : L2-HR :0.90728 Uful:0.02539
     > Finished combination: TraceType=770-tot Sim:293000000 Prefetcher=L2029-SecTOP-L2-MultiMarkovDelta_ip_stride_v4-IPStrS256 L1=next_line
