TRACE: [125000000][OPT-125M]_[h12][s512][d64] Warmup: 2000000 NumTraces: 125000000
L1:ipcp:L2:ipcp
*************************************************
   ChampSim Multicore Out-of-Order Simulator
   Last compiled: Oct 28 2024 06:03:30
*************************************************

trace_0 770-tot_memTraces_v3/memTraces[125000000][OPT-125M]_[h12][s512][d64].champsim.xz
trace_1 770-tot_memTraces_v3/memTraces[125000000][OPT-125M]_[h12][s512][d64].champsim.xz
trace_2 770-tot_memTraces_v3/memTraces[125000000][OPT-125M]_[h12][s512][d64].champsim.xz
trace_3 770-tot_memTraces_v3/memTraces[125000000][OPT-125M]_[h12][s512][d64].champsim.xz
MAIN.cc ln 751 stats print skipped
CPU  1 inst:    1000001 cyc:     500986 now IPC :1.99607: AVG IPC :1.99607: L2-Pf-HR :0.80448: L2-HR :0.74652: (Sim:0h0m50s) 
CPU  0 inst:    1000001 cyc:     501127 now IPC :1.99550: AVG IPC :1.99550: L2-Pf-HR :0.81454: L2-HR :0.75875: (Sim:0h0m50s) 
CPU  2 inst:    1000001 cyc:     501250 now IPC :1.99501: AVG IPC :1.99501: L2-Pf-HR :0.82173: L2-HR :0.75254: (Sim:0h0m50s) 
CPU  3 inst:    1000001 cyc:     501318 now IPC :1.99474: AVG IPC :1.99474: L2-Pf-HR :0.83709: L2-HR :0.75530: (Sim:0h0m50s) 
CPU  1 inst:    2000000 cyc:     984010 now IPC :2.07029: AVG IPC :2.03250: L2-Pf-HR :0.86034: L2-HR :0.79238: (Sim:0h1m43s) 
CPU  0 inst:    2000000 cyc:     984132 now IPC :2.07037: AVG IPC :2.03225: L2-Pf-HR :0.86637: L2-HR :0.80819: (Sim:0h1m43s) 
CPU  2 inst:    2000000 cyc:     984329 now IPC :2.07005: AVG IPC :2.03184: L2-Pf-HR :0.87680: L2-HR :0.80221: (Sim:0h1m43s) 
CPU  3 inst:    2000000 cyc:     984457 now IPC :2.06980: AVG IPC :2.03158: L2-Pf-HR :0.89366: L2-HR :0.80667: (Sim:0h1m43s) 

Warmup complete CPU  0 instructions:    2000689 cycles:     984458 (Simulation time: 0 hr 1 min 43 sec) 
Warmup complete CPU  1 instructions:    2000913 cycles:     984458 (Simulation time: 0 hr 1 min 43 sec) 
Warmup complete CPU  2 instructions:    2000282 cycles:     984458 (Simulation time: 0 hr 1 min 43 sec) 
Warmup complete CPU  3 instructions:    2000003 cycles:     984458 (Simulation time: 0 hr 1 min 43 sec) 

CPU  2 inst:    3000001 cyc:    1798633 now IPC :1.22804: AVG IPC :1.22789: L2-Pf-HR :0.92952: L2-HR :0.84951: (Sim:0h2m36s) 
CPU  1 inst:    3000004 cyc:    1798886 now IPC :1.22719: AVG IPC :1.22674: L2-Pf-HR :0.93534: L2-HR :0.83011: (Sim:0h2m36s) 
CPU  0 inst:    3000001 cyc:    1805922 now IPC :1.21686: AVG IPC :1.21650: L2-Pf-HR :0.94525: L2-HR :0.85386: (Sim:0h2m37s) 
CPU  3 inst:    3000001 cyc:    1815567 now IPC :1.20321: AVG IPC :1.20321: L2-Pf-HR :0.95742: L2-HR :0.85455: (Sim:0h2m37s) 
CPU  2 inst:    4000004 cyc:    2535460 now IPC :1.35717: AVG IPC :1.28931: L2-Pf-HR :0.92037: L2-HR :0.83835: (Sim:0h3m34s) 
CPU  1 inst:    4000004 cyc:    2555788 now IPC :1.32117: AVG IPC :1.27223: L2-Pf-HR :0.92732: L2-HR :0.82270: (Sim:0h3m37s) 
CPU  0 inst:    4000004 cyc:    2556192 now IPC :1.33286: AVG IPC :1.27204: L2-Pf-HR :0.93702: L2-HR :0.84267: (Sim:0h3m37s) 
CPU  3 inst:    4000004 cyc:    2562573 now IPC :1.33868: AVG IPC :1.26734: L2-Pf-HR :0.94640: L2-HR :0.84317: (Sim:0h3m38s) 
CPU  2 inst:    5000000 cyc:    3312574 now IPC :1.28681: AVG IPC :1.28847: L2-Pf-HR :0.92207: L2-HR :0.83985: (Sim:0h4m38s) 
CPU  0 inst:    5000000 cyc:    3354206 now IPC :1.25311: AVG IPC :1.26567: L2-Pf-HR :0.93253: L2-HR :0.84517: (Sim:0h4m42s) 
CPU  1 inst:    5000000 cyc:    3357040 now IPC :1.24804: AVG IPC :1.26406: L2-Pf-HR :0.92918: L2-HR :0.82548: (Sim:0h4m42s) 
CPU  3 inst:    5000000 cyc:    3360932 now IPC :1.25256: AVG IPC :1.26237: L2-Pf-HR :0.94534: L2-HR :0.83973: (Sim:0h4m42s) 
CPU  2 inst:    6000001 cyc:    4029912 now IPC :1.39404: AVG IPC :1.31334: L2-Pf-HR :0.92683: L2-HR :0.84740: (Sim:0h5m37s) 
CPU  0 inst:    6000001 cyc:    4088333 now IPC :1.36216: AVG IPC :1.28849: L2-Pf-HR :0.93863: L2-HR :0.85290: (Sim:0h5m41s) 
CPU  1 inst:    6000004 cyc:    4090680 now IPC :1.36307: AVG IPC :1.28745: L2-Pf-HR :0.93561: L2-HR :0.83185: (Sim:0h5m41s) 
CPU  3 inst:    6000001 cyc:    4095330 now IPC :1.36166: AVG IPC :1.28581: L2-Pf-HR :0.95234: L2-HR :0.84362: (Sim:0h5m42s) 
CPU  2 inst:    7000005 cyc:    4746172 now IPC :1.39615: AVG IPC :1.32911: L2-Pf-HR :0.92994: L2-HR :0.85135: (Sim:0h6m30s) 
CPU  0 inst:    7000005 cyc:    4821112 now IPC :1.36467: AVG IPC :1.30304: L2-Pf-HR :0.94036: L2-HR :0.85720: (Sim:0h6m35s) 
CPU  1 inst:    7000005 cyc:    4830701 now IPC :1.35131: AVG IPC :1.29973: L2-Pf-HR :0.93834: L2-HR :0.83475: (Sim:0h6m36s) 
CPU  3 inst:    7000005 cyc:    4833023 now IPC :1.35558: AVG IPC :1.29919: L2-Pf-HR :0.95489: L2-HR :0.84460: (Sim:0h6m36s) 
CPU  2 inst:    8000004 cyc:    5436739 now IPC :1.44808: AVG IPC :1.34756: L2-Pf-HR :0.92839: L2-HR :0.84936: (Sim:0h7m20s) 
CPU  0 inst:    8000005 cyc:    5567780 now IPC :1.33928: AVG IPC :1.30894: L2-Pf-HR :0.93789: L2-HR :0.85465: (Sim:0h7m29s) 
CPU  1 inst:    8000005 cyc:    5601874 now IPC :1.29673: AVG IPC :1.29923: L2-Pf-HR :0.93451: L2-HR :0.83250: (Sim:0h7m31s) 
CPU  3 inst:    8000005 cyc:    5602227 now IPC :1.30005: AVG IPC :1.29933: L2-Pf-HR :0.94978: L2-HR :0.84110: (Sim:0h7m31s) 
CPU  2 inst:    9000000 cyc:    6302613 now IPC :1.15490: AVG IPC :1.31619: L2-Pf-HR :0.92778: L2-HR :0.84852: (Sim:0h8m12s) 
CPU  0 inst:    9000000 cyc:    6476935 now IPC :1.09992: AVG IPC :1.27435: L2-Pf-HR :0.93663: L2-HR :0.85327: (Sim:0h8m23s) 
CPU  1 inst:    9000000 cyc:    6598167 now IPC :1.00372: AVG IPC :1.24678: L2-Pf-HR :0.93531: L2-HR :0.83363: (Sim:0h8m30s) 
CPU  3 inst:    9000000 cyc:    6598472 now IPC :1.00376: AVG IPC :1.24688: L2-Pf-HR :0.94876: L2-HR :0.84103: (Sim:0h8m30s) 
CPU  2 inst:   10000000 cyc:    7122080 now IPC :1.22031: AVG IPC :1.30339: L2-Pf-HR :0.93087: L2-HR :0.85232: (Sim:0h9m5s) 
CPU  0 inst:   10000001 cyc:    7295515 now IPC :1.22163: AVG IPC :1.26751: L2-Pf-HR :0.93973: L2-HR :0.85683: (Sim:0h9m16s) 
CPU  1 inst:   10000001 cyc:    7524378 now IPC :1.07967: AVG IPC :1.22312: L2-Pf-HR :0.93952: L2-HR :0.83788: (Sim:0h9m30s) 
CPU  3 inst:   10000001 cyc:    7528754 now IPC :1.07494: AVG IPC :1.22244: L2-Pf-HR :0.95114: L2-HR :0.84418: (Sim:0h9m31s) 
CPU  2 inst:   11000005 cyc:    7930997 now IPC :1.23623: AVG IPC :1.29557: L2-Pf-HR :0.93245: L2-HR :0.85390: (Sim:0h10m0s) 
CPU  0 inst:   11000005 cyc:    8100262 now IPC :1.24263: AVG IPC :1.26469: L2-Pf-HR :0.94150: L2-HR :0.85795: (Sim:0h10m14s) 
CPU  3 inst:   11000005 cyc:    8545468 now IPC :0.98356: AVG IPC :1.19032: L2-Pf-HR :0.95179: L2-HR :0.84528: (Sim:0h10m40s) 
CPU  1 inst:   11000005 cyc:    8554341 now IPC :0.97091: AVG IPC :1.18880: L2-Pf-HR :0.94093: L2-HR :0.83951: (Sim:0h10m40s) 
CPU  2 inst:   12000005 cyc:    8895048 now IPC :1.03729: AVG IPC :1.26409: L2-Pf-HR :0.93065: L2-HR :0.85248: (Sim:0h10m59s) 
CPU  0 inst:   12000005 cyc:    9082617 now IPC :1.01796: AVG IPC :1.23476: L2-Pf-HR :0.93916: L2-HR :0.85642: (Sim:0h11m10s) 
CPU  1 inst:   12000005 cyc:    9785414 now IPC :0.81230: AVG IPC :1.13614: L2-Pf-HR :0.93916: L2-HR :0.83949: (Sim:0h12m9s) 
CPU  3 inst:   12000005 cyc:    9828284 now IPC :0.77953: AVG IPC :1.13073: L2-Pf-HR :0.95009: L2-HR :0.84425: (Sim:0h12m13s) 
CPU  2 inst:   13000002 cyc:   10132601 now IPC :0.80804: AVG IPC :1.20240: L2-Pf-HR :0.92996: L2-HR :0.85119: (Sim:0h12m48s) 
CPU  0 inst:   13000002 cyc:   10225585 now IPC :0.87491: AVG IPC :1.19026: L2-Pf-HR :0.93814: L2-HR :0.85496: (Sim:0h12m57s) 
CPU  1 inst:   13000002 cyc:   11126197 now IPC :0.74583: AVG IPC :1.08454: L2-Pf-HR :0.93863: L2-HR :0.83841: (Sim:0h14m14s) 
CPU  3 inst:   13000002 cyc:   11283152 now IPC :0.68735: AVG IPC :1.06810: L2-Pf-HR :0.94925: L2-HR :0.84356: (Sim:0h14m28s) 
CPU  2 inst:   14000002 cyc:   11618640 now IPC :0.67293: AVG IPC :1.12841: L2-Pf-HR :0.93198: L2-HR :0.85324: (Sim:0h14m59s) 
CPU  0 inst:   14000005 cyc:   11672352 now IPC :0.69120: AVG IPC :1.12270: L2-Pf-HR :0.93944: L2-HR :0.85690: (Sim:0h15m4s) 
CPU  1 inst:   14000004 cyc:   12193111 now IPC :0.93728: AVG IPC :1.07052: L2-Pf-HR :0.94115: L2-HR :0.84041: (Sim:0h15m54s) 
CPU  3 inst:   14000000 cyc:   12588627 now IPC :0.76600: AVG IPC :1.03411: L2-Pf-HR :0.95092: L2-HR :0.84610: (Sim:0h16m33s) 
CPU  2 inst:   15000001 cyc:   12871480 now IPC :0.79819: AVG IPC :1.09361: L2-Pf-HR :0.93305: L2-HR :0.85474: (Sim:0h17m0s) 
CPU  0 inst:   15000001 cyc:   12929862 now IPC :0.79522: AVG IPC :1.08823: L2-Pf-HR :0.94101: L2-HR :0.85820: (Sim:0h17m6s) 
CPU  1 inst:   15000001 cyc:   13174716 now IPC :1.01874: AVG IPC :1.06635: L2-Pf-HR :0.94216: L2-HR :0.84151: (Sim:0h17m29s) 
CPU  3 inst:   15000001 cyc:   13847917 now IPC :0.79410: AVG IPC :1.01061: L2-Pf-HR :0.95110: L2-HR :0.84748: (Sim:0h18m35s) 
CPU  2 inst:   16000005 cyc:   14045535 now IPC :0.85175: AVG IPC :1.07187: L2-Pf-HR :0.93251: L2-HR :0.85430: (Sim:0h18m56s) 
CPU  0 inst:   16000005 cyc:   14089319 now IPC :0.86248: AVG IPC :1.06825: L2-Pf-HR :0.94006: L2-HR :0.85742: (Sim:0h19m1s) 
CPU  1 inst:   16000005 cyc:   14252838 now IPC :0.92754: AVG IPC :1.05507: L2-Pf-HR :0.94169: L2-HR :0.84147: (Sim:0h19m18s) 
CPU  3 inst:   16000005 cyc:   15011719 now IPC :0.85926: AVG IPC :0.99806: L2-Pf-HR :0.94980: L2-HR :0.84744: (Sim:0h20m29s) 
CPU  0 inst:   17000000 cyc:   15384993 now IPC :0.77180: AVG IPC :1.04158: L2-Pf-HR :0.93889: L2-HR :0.85571: (Sim:0h21m7s) 
CPU  2 inst:   17000003 cyc:   15385974 now IPC :0.74602: AVG IPC :1.04154: L2-Pf-HR :0.93124: L2-HR :0.85247: (Sim:0h21m7s) 
CPU  1 inst:   17000003 cyc:   15505135 now IPC :0.79853: AVG IPC :1.03295: L2-Pf-HR :0.94075: L2-HR :0.84009: (Sim:0h21m19s) 
CPU  3 inst:   17000003 cyc:   16377163 now IPC :0.73236: AVG IPC :0.97449: L2-Pf-HR :0.94853: L2-HR :0.84591: (Sim:0h22m34s) 
CPU  0 inst:   18000001 cyc:   16843755 now IPC :0.68551: AVG IPC :1.00883: L2-Pf-HR :0.94000: L2-HR :0.85772: (Sim:0h23m14s) 
CPU  2 inst:   18000001 cyc:   16865586 now IPC :0.67585: AVG IPC :1.00747: L2-Pf-HR :0.93276: L2-HR :0.85449: (Sim:0h23m16s) 
CPU  1 inst:   18000001 cyc:   16883806 now IPC :0.72533: AVG IPC :1.00627: L2-Pf-HR :0.94201: L2-HR :0.84200: (Sim:0h23m18s) 
CPU  3 inst:   18000001 cyc:   17888856 now IPC :0.66151: AVG IPC :0.94650: L2-Pf-HR :0.95001: L2-HR :0.84813: (Sim:0h24m40s) 
CPU  0 inst:   19000002 cyc:   18386698 now IPC :0.64811: AVG IPC :0.97685: L2-Pf-HR :0.94036: L2-HR :0.85791: (Sim:0h25m25s) 
CPU  1 inst:   19000002 cyc:   18412313 now IPC :0.65423: AVG IPC :0.97540: L2-Pf-HR :0.94298: L2-HR :0.84259: (Sim:0h25m27s) 
CPU  2 inst:   19000002 cyc:   18417259 now IPC :0.64447: AVG IPC :0.97516: L2-Pf-HR :0.93362: L2-HR :0.85516: (Sim:0h25m28s) 
CPU  3 inst:   19000002 cyc:   18927719 now IPC :0.96259: AVG IPC :0.94743: L2-Pf-HR :0.95104: L2-HR :0.84896: (Sim:0h26m16s) 
CPU  0 inst:   20000002 cyc:   19642070 now IPC :0.79658: AVG IPC :0.96472: L2-Pf-HR :0.94007: L2-HR :0.85784: (Sim:0h27m26s) 
CPU  2 inst:   20000002 cyc:   19684578 now IPC :0.78907: AVG IPC :0.96255: L2-Pf-HR :0.93363: L2-HR :0.85541: (Sim:0h27m30s) 
CPU  1 inst:   20000002 cyc:   19686392 now IPC :0.78488: AVG IPC :0.96242: L2-Pf-HR :0.94269: L2-HR :0.84274: (Sim:0h27m30s) 
CPU  3 inst:   20000002 cyc:   19988703 now IPC :0.94252: AVG IPC :0.94716: L2-Pf-HR :0.95017: L2-HR :0.84934: (Sim:0h28m3s) 
CPU  0 inst:   21000004 cyc:   20773039 now IPC :0.88420: AVG IPC :0.96012: L2-Pf-HR :0.93830: L2-HR :0.85611: (Sim:0h29m20s) 
CPU  2 inst:   21000005 cyc:   20936088 now IPC :0.79904: AVG IPC :0.95229: L2-Pf-HR :0.93260: L2-HR :0.85389: (Sim:0h29m34s) 
CPU  1 inst:   21000005 cyc:   20980894 now IPC :0.77250: AVG IPC :0.95012: L2-Pf-HR :0.94149: L2-HR :0.84151: (Sim:0h29m39s) 
CPU  3 inst:   21000005 cyc:   21226775 now IPC :0.80771: AVG IPC :0.93863: L2-Pf-HR :0.94855: L2-HR :0.84795: (Sim:0h30m5s) 
CPU  0 inst:   22000000 cyc:   21772867 now IPC :1.00017: AVG IPC :0.96204: L2-Pf-HR :0.93910: L2-HR :0.85739: (Sim:0h31m2s) 
CPU  2 inst:   22000005 cyc:   21991442 now IPC :0.94755: AVG IPC :0.95205: L2-Pf-HR :0.93353: L2-HR :0.85467: (Sim:0h31m25s) 
CPU  1 inst:   22000005 cyc:   22072626 now IPC :0.91598: AVG IPC :0.94836: L2-Pf-HR :0.94324: L2-HR :0.84303: (Sim:0h31m34s) 
CPU  3 inst:   22000000 cyc:   22228301 now IPC :0.99847: AVG IPC :0.94145: L2-Pf-HR :0.94978: L2-HR :0.84930: (Sim:0h31m50s) 
CPU  0 inst:   23000001 cyc:   22770582 now IPC :1.00229: AVG IPC :0.96388: L2-Pf-HR :0.94009: L2-HR :0.85844: (Sim:0h32m46s) 
CPU  2 inst:   23000001 cyc:   23010257 now IPC :0.98153: AVG IPC :0.95341: L2-Pf-HR :0.93429: L2-HR :0.85550: (Sim:0h33m12s) 
CPU  1 inst:   23000001 cyc:   23141751 now IPC :0.93534: AVG IPC :0.94773: L2-Pf-HR :0.94438: L2-HR :0.84425: (Sim:0h33m26s) 
CPU  3 inst:   23000001 cyc:   23251867 now IPC :0.97698: AVG IPC :0.94308: L2-Pf-HR :0.95063: L2-HR :0.85050: (Sim:0h33m38s) 
CPU  0 inst:   24000004 cyc:   23779185 now IPC :0.99147: AVG IPC :0.96511: L2-Pf-HR :0.94045: L2-HR :0.85886: (Sim:0h34m33s) 
CPU  2 inst:   24000004 cyc:   24037451 now IPC :0.97353: AVG IPC :0.95431: L2-Pf-HR :0.93488: L2-HR :0.85601: (Sim:0h35m0s) 
CPU  1 inst:   24000004 cyc:   24191634 now IPC :0.95249: AVG IPC :0.94794: L2-Pf-HR :0.94410: L2-HR :0.84466: (Sim:0h35m15s) 
CPU  3 inst:   24000004 cyc:   24341707 now IPC :0.91757: AVG IPC :0.94189: L2-Pf-HR :0.95073: L2-HR :0.85106: (Sim:0h35m23s) 
CPU  0 inst:   25000003 cyc:   24937107 now IPC :0.86362: AVG IPC :0.96020: L2-Pf-HR :0.93877: L2-HR :0.85710: (Sim:0h35m56s) 
CPU  2 inst:   25000002 cyc:   25246718 now IPC :0.82695: AVG IPC :0.94796: L2-Pf-HR :0.93329: L2-HR :0.85411: (Sim:0h36m11s) 
CPU  1 inst:   25000002 cyc:   25374935 now IPC :0.84509: AVG IPC :0.94295: L2-Pf-HR :0.94231: L2-HR :0.84291: (Sim:0h36m17s) 
CPU  3 inst:   25000003 cyc:   25623712 now IPC :0.78003: AVG IPC :0.93347: L2-Pf-HR :0.94917: L2-HR :0.84929: (Sim:0h36m31s) 
CPU  0 inst:   26000005 cyc:   26026514 now IPC :0.91793: AVG IPC :0.95836: L2-Pf-HR :0.93984: L2-HR :0.85813: (Sim:0h36m55s) 
CPU  2 inst:   26000005 cyc:   26301280 now IPC :0.94826: AVG IPC :0.94798: L2-Pf-HR :0.93422: L2-HR :0.85528: (Sim:0h37m12s) 
CPU  1 inst:   26000005 cyc:   26399916 now IPC :0.97563: AVG IPC :0.94427: L2-Pf-HR :0.94327: L2-HR :0.84396: (Sim:0h37m18s) 
CPU  3 inst:   26000002 cyc:   26607479 now IPC :1.01650: AVG IPC :0.93666: L2-Pf-HR :0.95037: L2-HR :0.85052: (Sim:0h37m31s) 
CPU  0 inst:   27000000 cyc:   26989197 now IPC :1.03876: AVG IPC :0.96134: L2-Pf-HR :0.94071: L2-HR :0.85899: (Sim:0h37m53s) 
CPU  2 inst:   27000000 cyc:   27290811 now IPC :1.01057: AVG IPC :0.95033: L2-Pf-HR :0.93502: L2-HR :0.85628: (Sim:0h38m10s) 
CPU  1 inst:   27000000 cyc:   27405489 now IPC :0.99445: AVG IPC :0.94618: L2-Pf-HR :0.94412: L2-HR :0.84477: (Sim:0h38m18s) 
CPU  3 inst:   27000000 cyc:   27655140 now IPC :0.95451: AVG IPC :0.93736: L2-Pf-HR :0.95138: L2-HR :0.85148: (Sim:0h38m32s) 
CPU  0 inst:   28000000 cyc:   28032225 now IPC :0.95875: AVG IPC :0.96124: L2-Pf-HR :0.94146: L2-HR :0.85968: (Sim:0h38m54s) 
CPU  2 inst:   28000004 cyc:   28306663 now IPC :0.98440: AVG IPC :0.95160: L2-Pf-HR :0.93526: L2-HR :0.85680: (Sim:0h39m10s) 
CPU  1 inst:   28000001 cyc:   28447526 now IPC :0.95966: AVG IPC :0.94669: L2-Pf-HR :0.94420: L2-HR :0.84538: (Sim:0h39m18s) 
CPU  3 inst:   28000001 cyc:   28719065 now IPC :0.93992: AVG IPC :0.93746: L2-Pf-HR :0.95162: L2-HR :0.85225: (Sim:0h39m34s) 
CPU  0 inst:   29000000 cyc:   29133733 now IPC :0.90785: AVG IPC :0.95915: L2-Pf-HR :0.94000: L2-HR :0.85771: (Sim:0h39m57s) 
CPU  2 inst:   29000000 cyc:   29434851 now IPC :0.88637: AVG IPC :0.94901: L2-Pf-HR :0.93392: L2-HR :0.85512: (Sim:0h40m12s) 
CPU  1 inst:   29000000 cyc:   29637898 now IPC :0.84007: AVG IPC :0.94226: L2-Pf-HR :0.94283: L2-HR :0.84380: (Sim:0h40m22s) 
CPU  3 inst:   29000000 cyc:   29982323 now IPC :0.79160: AVG IPC :0.93110: L2-Pf-HR :0.95024: L2-HR :0.85044: (Sim:0h40m41s) 
CPU  0 inst:   30000000 cyc:   30355164 now IPC :0.81871: AVG IPC :0.95331: L2-Pf-HR :0.94079: L2-HR :0.85870: (Sim:0h41m1s) 
CPU  2 inst:   30000000 cyc:   30498737 now IPC :0.93995: AVG IPC :0.94868: L2-Pf-HR :0.93481: L2-HR :0.85610: (Sim:0h41m10s) 
CPU  1 inst:   30000000 cyc:   30722006 now IPC :0.92242: AVG IPC :0.94154: L2-Pf-HR :0.94371: L2-HR :0.84468: (Sim:0h41m22s) 
CPU  3 inst:   30000000 cyc:   31195720 now IPC :0.82413: AVG IPC :0.92681: L2-Pf-HR :0.95139: L2-HR :0.85152: (Sim:0h41m48s) 
CPU  0 inst:   31000003 cyc:   31638380 now IPC :0.77929: AVG IPC :0.94602: L2-Pf-HR :0.94125: L2-HR :0.85923: (Sim:0h42m12s) 
CPU  2 inst:   31000003 cyc:   31673119 now IPC :0.85151: AVG IPC :0.94497: L2-Pf-HR :0.93535: L2-HR :0.85673: (Sim:0h42m13s) 
CPU  1 inst:   31000003 cyc:   31771046 now IPC :0.95326: AVG IPC :0.94194: L2-Pf-HR :0.94450: L2-HR :0.84528: (Sim:0h42m19s) 
CPU  3 inst:   31000003 cyc:   32321808 now IPC :0.88803: AVG IPC :0.92541: L2-Pf-HR :0.95222: L2-HR :0.85229: (Sim:0h43m8s) 
CPU  0 inst:   32000002 cyc:   32865572 now IPC :0.81487: AVG IPC :0.94097: L2-Pf-HR :0.94166: L2-HR :0.86010: (Sim:0h44m2s) 
CPU  2 inst:   32000002 cyc:   32888751 now IPC :0.82262: AVG IPC :0.94030: L2-Pf-HR :0.93582: L2-HR :0.85754: (Sim:0h44m4s) 
CPU  1 inst:   32000002 cyc:   32915926 now IPC :0.87345: AVG IPC :0.93948: L2-Pf-HR :0.94484: L2-HR :0.84599: (Sim:0h44m7s) 
CPU  3 inst:   32000005 cyc:   33379054 now IPC :0.94586: AVG IPC :0.92608: L2-Pf-HR :0.95251: L2-HR :0.85306: (Sim:0h44m55s) 
CPU  0 inst:   33000002 cyc:   34131838 now IPC :0.78972: AVG IPC :0.93520: L2-Pf-HR :0.94087: L2-HR :0.85855: (Sim:0h46m6s) 
CPU  2 inst:   33000005 cyc:   34185238 now IPC :0.77132: AVG IPC :0.93370: L2-Pf-HR :0.93444: L2-HR :0.85606: (Sim:0h46m10s) 
CPU  1 inst:   33000003 cyc:   34188841 now IPC :0.78560: AVG IPC :0.93358: L2-Pf-HR :0.94348: L2-HR :0.84464: (Sim:0h46m10s) 
CPU  3 inst:   33000003 cyc:   34516013 now IPC :0.87954: AVG IPC :0.92450: L2-Pf-HR :0.95106: L2-HR :0.85151: (Sim:0h46m38s) 
CPU  0 inst:   34000004 cyc:   35468465 now IPC :0.74815: AVG IPC :0.92795: L2-Pf-HR :0.94125: L2-HR :0.85886: (Sim:0h48m9s) 
CPU  2 inst:   34000004 cyc:   35631476 now IPC :0.69145: AVG IPC :0.92359: L2-Pf-HR :0.93486: L2-HR :0.85645: (Sim:0h48m24s) 
CPU  1 inst:   34000004 cyc:   35645512 now IPC :0.68650: AVG IPC :0.92320: L2-Pf-HR :0.94417: L2-HR :0.84523: (Sim:0h48m25s) 
CPU  3 inst:   34000004 cyc:   35698075 now IPC :0.84598: AVG IPC :0.92183: L2-Pf-HR :0.95173: L2-HR :0.85205: (Sim:0h48m31s) 
CPU  0 inst:   35000004 cyc:   36483292 now IPC :0.98539: AVG IPC :0.92959: L2-Pf-HR :0.94186: L2-HR :0.85947: (Sim:0h49m46s) 
CPU  2 inst:   35000004 cyc:   36889719 now IPC :0.79476: AVG IPC :0.91908: L2-Pf-HR :0.93529: L2-HR :0.85719: (Sim:0h50m26s) 
CPU  1 inst:   35000004 cyc:   36979696 now IPC :0.74952: AVG IPC :0.91676: L2-Pf-HR :0.94500: L2-HR :0.84609: (Sim:0h50m36s) 
CPU  3 inst:   35000004 cyc:   36993354 now IPC :0.77203: AVG IPC :0.91644: L2-Pf-HR :0.95211: L2-HR :0.85287: (Sim:0h50m37s) 
CPU  0 inst:   36000004 cyc:   37510506 now IPC :0.97351: AVG IPC :0.93082: L2-Pf-HR :0.94229: L2-HR :0.85944: (Sim:0h51m29s) 
CPU  2 inst:   36000004 cyc:   37953301 now IPC :0.94022: AVG IPC :0.91969: L2-Pf-HR :0.93572: L2-HR :0.85736: (Sim:0h52m13s) 
CPU  1 inst:   36000004 cyc:   38217728 now IPC :0.80773: AVG IPC :0.91314: L2-Pf-HR :0.94543: L2-HR :0.84634: (Sim:0h52m40s) 
CPU  3 inst:   36000004 cyc:   38252160 now IPC :0.79440: AVG IPC :0.91232: L2-Pf-HR :0.95234: L2-HR :0.85296: (Sim:0h52m45s) 
CPU  0 inst:   37000000 cyc:   38577722 now IPC :0.93701: AVG IPC :0.93100: L2-Pf-HR :0.94167: L2-HR :0.85863: (Sim:0h53m19s) 
CPU  2 inst:   37000000 cyc:   38943450 now IPC :1.00994: AVG IPC :0.92204: L2-Pf-HR :0.93496: L2-HR :0.85664: (Sim:0h53m54s) 
CPU  1 inst:   37000000 cyc:   39375398 now IPC :0.86380: AVG IPC :0.91165: L2-Pf-HR :0.94519: L2-HR :0.84583: (Sim:0h54m36s) 
CPU  3 inst:   37000000 cyc:   39409669 now IPC :0.86392: AVG IPC :0.91086: L2-Pf-HR :0.95179: L2-HR :0.85226: (Sim:0h54m39s) 
CPU  0 inst:   38000003 cyc:   39868089 now IPC :0.77498: AVG IPC :0.92582: L2-Pf-HR :0.94126: L2-HR :0.85858: (Sim:0h55m19s) 
CPU  2 inst:   38000003 cyc:   40097962 now IPC :0.86617: AVG IPC :0.92039: L2-Pf-HR :0.93486: L2-HR :0.85657: (Sim:0h55m42s) 
CPU  1 inst:   38000003 cyc:   40867048 now IPC :0.67040: AVG IPC :0.90263: L2-Pf-HR :0.94529: L2-HR :0.84602: (Sim:0h56m52s) 
CPU  3 inst:   38000003 cyc:   40898262 now IPC :0.67178: AVG IPC :0.90194: L2-Pf-HR :0.95184: L2-HR :0.85236: (Sim:0h56m55s) 
CPU  0 inst:   39000001 cyc:   41235922 now IPC :0.73108: AVG IPC :0.91920: L2-Pf-HR :0.94177: L2-HR :0.85910: (Sim:0h57m24s) 
CPU  2 inst:   39000001 cyc:   41350978 now IPC :0.79807: AVG IPC :0.91659: L2-Pf-HR :0.93537: L2-HR :0.85704: (Sim:0h57m34s) 
CPU  1 inst:   39000001 cyc:   42331344 now IPC :0.68292: AVG IPC :0.89485: L2-Pf-HR :0.94598: L2-HR :0.84662: (Sim:0h58m59s) 
CPU  3 inst:   39000001 cyc:   42369632 now IPC :0.67964: AVG IPC :0.89404: L2-Pf-HR :0.95239: L2-HR :0.85290: (Sim:0h59m2s) 
CPU  0 inst:   40000000 cyc:   42634843 now IPC :0.71484: AVG IPC :0.91234: L2-Pf-HR :0.94231: L2-HR :0.85950: (Sim:0h59m26s) 
CPU  2 inst:   40000000 cyc:   42752124 now IPC :0.71370: AVG IPC :0.90979: L2-Pf-HR :0.93552: L2-HR :0.85734: (Sim:0h59m36s) 
CPU  1 inst:   40000000 cyc:   43629850 now IPC :0.77012: AVG IPC :0.89105: L2-Pf-HR :0.94605: L2-HR :0.84704: (Sim:1h1m5s) 
CPU  3 inst:   40000000 cyc:   43635325 now IPC :0.79008: AVG IPC :0.89095: L2-Pf-HR :0.95248: L2-HR :0.85324: (Sim:1h1m5s) 
CPU  0 inst:   41000003 cyc:   43647888 now IPC :0.98713: AVG IPC :0.91412: L2-Pf-HR :0.94185: L2-HR :0.85883: (Sim:1h1m6s) 
CPU  2 inst:   41000003 cyc:   43785393 now IPC :0.96781: AVG IPC :0.91119: L2-Pf-HR :0.93490: L2-HR :0.85670: (Sim:1h1m21s) 
CPU  0 inst:   42000001 cyc:   44787290 now IPC :0.87765: AVG IPC :0.91317: L2-Pf-HR :0.94125: L2-HR :0.85856: (Sim:1h2m58s) 
CPU  1 inst:   41000003 cyc:   44873426 now IPC :0.80414: AVG IPC :0.88859: L2-Pf-HR :0.94576: L2-HR :0.84659: (Sim:1h3m6s) 
CPU  3 inst:   41000003 cyc:   44892167 now IPC :0.79565: AVG IPC :0.88823: L2-Pf-HR :0.95189: L2-HR :0.85261: (Sim:1h3m8s) 
CPU  2 inst:   42000001 cyc:   44932319 now IPC :0.87189: AVG IPC :0.91016: L2-Pf-HR :0.93474: L2-HR :0.85642: (Sim:1h3m12s) 
CPU  0 inst:   43000003 cyc:   45915884 now IPC :0.88606: AVG IPC :0.91249: L2-Pf-HR :0.94165: L2-HR :0.85897: (Sim:1h4m50s) 
CPU  2 inst:   43000000 cyc:   46019109 now IPC :0.92014: AVG IPC :0.91040: L2-Pf-HR :0.93512: L2-HR :0.85679: (Sim:1h5m0s) 
CPU  1 inst:   42000001 cyc:   46118830 now IPC :0.80295: AVG IPC :0.88622: L2-Pf-HR :0.94581: L2-HR :0.84654: (Sim:1h5m10s) 
CPU  3 inst:   42000001 cyc:   46134851 now IPC :0.80471: AVG IPC :0.88593: L2-Pf-HR :0.95172: L2-HR :0.85239: (Sim:1h5m12s) 
CPU  0 inst:   44000004 cyc:   47037723 now IPC :0.89139: AVG IPC :0.91197: L2-Pf-HR :0.94229: L2-HR :0.85927: (Sim:1h6m42s) 
CPU  2 inst:   44000004 cyc:   47100364 now IPC :0.92485: AVG IPC :0.91074: L2-Pf-HR :0.93529: L2-HR :0.85698: (Sim:1h6m49s) 
CPU  1 inst:   43000000 cyc:   47260364 now IPC :0.87601: AVG IPC :0.88597: L2-Pf-HR :0.94642: L2-HR :0.84708: (Sim:1h7m5s) 
CPU  3 inst:   43000003 cyc:   47280347 now IPC :0.87299: AVG IPC :0.88561: L2-Pf-HR :0.95223: L2-HR :0.85280: (Sim:1h7m7s) 
CPU  0 inst:   45000000 cyc:   48165674 now IPC :0.88656: AVG IPC :0.91137: L2-Pf-HR :0.94200: L2-HR :0.85889: (Sim:1h8m31s) 
CPU  2 inst:   45000000 cyc:   48202603 now IPC :0.90724: AVG IPC :0.91066: L2-Pf-HR :0.93459: L2-HR :0.85642: (Sim:1h8m35s) 
CPU  1 inst:   44000004 cyc:   48652499 now IPC :0.71832: AVG IPC :0.88107: L2-Pf-HR :0.94657: L2-HR :0.84744: (Sim:1h9m15s) 
CPU  3 inst:   44000004 cyc:   48675637 now IPC :0.71670: AVG IPC :0.88067: L2-Pf-HR :0.95218: L2-HR :0.85303: (Sim:1h9m16s) 
CPU  0 inst:   46000002 cyc:   49516690 now IPC :0.74019: AVG IPC :0.90660: L2-Pf-HR :0.94170: L2-HR :0.85864: (Sim:1h10m35s) 
CPU  2 inst:   46000002 cyc:   49553466 now IPC :0.74027: AVG IPC :0.90592: L2-Pf-HR :0.93437: L2-HR :0.85609: (Sim:1h10m39s) 
CPU  3 inst:   45000000 cyc:   49956678 now IPC :0.78061: AVG IPC :0.87805: L2-Pf-HR :0.95175: L2-HR :0.85259: (Sim:1h11m16s) 
CPU  1 inst:   45000000 cyc:   49965600 now IPC :0.76155: AVG IPC :0.87787: L2-Pf-HR :0.94619: L2-HR :0.84709: (Sim:1h11m17s) 
CPU  0 inst:   47000004 cyc:   50858480 now IPC :0.74527: AVG IPC :0.90226: L2-Pf-HR :0.94201: L2-HR :0.85895: (Sim:1h12m35s) 
CPU  2 inst:   47000004 cyc:   50880742 now IPC :0.75342: AVG IPC :0.90187: L2-Pf-HR :0.93469: L2-HR :0.85644: (Sim:1h12m38s) 
CPU  3 inst:   46000002 cyc:   51508083 now IPC :0.64458: AVG IPC :0.87088: L2-Pf-HR :0.95141: L2-HR :0.85236: (Sim:1h13m32s) 
CPU  1 inst:   46000002 cyc:   51556618 now IPC :0.62853: AVG IPC :0.87003: L2-Pf-HR :0.94603: L2-HR :0.84684: (Sim:1h13m35s) 
CPU  0 inst:   48000002 cyc:   52305682 now IPC :0.69099: AVG IPC :0.89630: L2-Pf-HR :0.94225: L2-HR :0.85913: (Sim:1h14m41s) 
CPU  2 inst:   48000002 cyc:   52330811 now IPC :0.68962: AVG IPC :0.89587: L2-Pf-HR :0.93489: L2-HR :0.85662: (Sim:1h14m43s) 
CPU  3 inst:   47000000 cyc:   52974631 now IPC :0.68187: AVG IPC :0.86555: L2-Pf-HR :0.95169: L2-HR :0.85281: (Sim:1h15m39s) 
CPU  1 inst:   47000000 cyc:   53050888 now IPC :0.66922: AVG IPC :0.86426: L2-Pf-HR :0.94647: L2-HR :0.84726: (Sim:1h15m46s) 
CPU  0 inst:   49000000 cyc:   53580343 now IPC :0.78452: AVG IPC :0.89359: L2-Pf-HR :0.94212: L2-HR :0.85886: (Sim:1h16m41s) 
CPU  2 inst:   49000000 cyc:   53583503 now IPC :0.79828: AVG IPC :0.89355: L2-Pf-HR :0.93444: L2-HR :0.85632: (Sim:1h16m41s) 
CPU  3 inst:   48000002 cyc:   54165459 now IPC :0.83975: AVG IPC :0.86497: L2-Pf-HR :0.95173: L2-HR :0.85311: (Sim:1h17m33s) 
CPU  1 inst:   48000002 cyc:   54231231 now IPC :0.84721: AVG IPC :0.86388: L2-Pf-HR :0.94654: L2-HR :0.84749: (Sim:1h17m36s) 
CPU  1 inst:   49000000 cyc:   56448277 now IPC :0.45105: AVG IPC :0.84738: L2-Pf-HR :0.94583: L2-HR :0.84734: (Sim:1h20m3s) 
CPU  3 inst:   49000000 cyc:   56487198 now IPC :0.43071: AVG IPC :0.84680: L2-Pf-HR :0.95099: L2-HR :0.85287: (Sim:1h20m6s) 
CPU  2 inst:   50000001 cyc:   62594061 now IPC :0.11098: AVG IPC :0.77909: L2-Pf-HR :0.91845: L2-HR :0.83238: (Sim:1h26m1s) 
CPU  0 inst:   50000004 cyc:   62680735 now IPC :0.10989: AVG IPC :0.77799: L2-Pf-HR :0.92608: L2-HR :0.83496: (Sim:1h26m6s) 
CPU  3 inst:   50000004 cyc:   69861677 now IPC :0.07477: AVG IPC :0.69689: L2-Pf-HR :0.93420: L2-HR :0.82893: (Sim:1h33m12s) 
CPU  1 inst:   50000001 cyc:   69891139 now IPC :0.07439: AVG IPC :0.69658: L2-Pf-HR :0.92912: L2-HR :0.82374: (Sim:1h33m14s) 
CPU  2 inst:   51000001 cyc:   84149412 now IPC :0.04639: AVG IPC :0.58919: L2-Pf-HR :0.89276: L2-HR :0.79761: (Sim:1h44m1s) 
CPU  0 inst:   51000000 cyc:   84323520 now IPC :0.04620: AVG IPC :0.58795: L2-Pf-HR :0.90009: L2-HR :0.80022: (Sim:1h44m7s) 
CPU  3 inst:   51000000 cyc:   90994650 now IPC :0.04732: AVG IPC :0.54438: L2-Pf-HR :0.90746: L2-HR :0.79421: (Sim:1h50m14s) 
CPU  1 inst:   51000001 cyc:   91004494 now IPC :0.04736: AVG IPC :0.54431: L2-Pf-HR :0.90246: L2-HR :0.78951: (Sim:1h50m15s) 
CPU  2 inst:   52000000 cyc:   94709530 now IPC :0.09470: AVG IPC :0.53347: L2-Pf-HR :0.88102: L2-HR :0.78631: (Sim:1h53m45s) 
CPU  0 inst:   52000000 cyc:   94820997 now IPC :0.09526: AVG IPC :0.53283: L2-Pf-HR :0.88829: L2-HR :0.78895: (Sim:1h53m52s) 
CPU  1 inst:   52000000 cyc:   97739589 now IPC :0.14848: AVG IPC :0.51676: L2-Pf-HR :0.89038: L2-HR :0.77839: (Sim:1h56m49s) 
CPU  3 inst:   52000000 cyc:   97760266 now IPC :0.14781: AVG IPC :0.51666: L2-Pf-HR :0.89533: L2-HR :0.78296: (Sim:1h56m50s) 
CPU  2 inst:   53000000 cyc:   98920952 now IPC :0.23745: AVG IPC :0.52074: L2-Pf-HR :0.87389: L2-HR :0.78142: (Sim:1h58m0s) 
CPU  0 inst:   53000000 cyc:   99030417 now IPC :0.23756: AVG IPC :0.52016: L2-Pf-HR :0.88109: L2-HR :0.78407: (Sim:1h58m7s) 
CPU  1 inst:   53000000 cyc:  101929899 now IPC :0.23865: AVG IPC :0.50521: L2-Pf-HR :0.88301: L2-HR :0.77354: (Sim:2h1m3s) 
CPU  3 inst:   53000000 cyc:  101951526 now IPC :0.23859: AVG IPC :0.50512: L2-Pf-HR :0.88792: L2-HR :0.77806: (Sim:2h1m4s) 
CPU  2 inst:   54000000 cyc:  103076722 now IPC :0.24063: AVG IPC :0.50934: L2-Pf-HR :0.86688: L2-HR :0.77663: (Sim:2h2m13s) 
CPU  0 inst:   54000000 cyc:  103187031 now IPC :0.24058: AVG IPC :0.50879: L2-Pf-HR :0.87401: L2-HR :0.77930: (Sim:2h2m20s) 
CPU  1 inst:   54000000 cyc:  106046723 now IPC :0.24291: AVG IPC :0.49494: L2-Pf-HR :0.87576: L2-HR :0.76880: (Sim:2h5m14s) 
CPU  3 inst:   54000000 cyc:  106069382 now IPC :0.24284: AVG IPC :0.49484: L2-Pf-HR :0.88065: L2-HR :0.77327: (Sim:2h5m15s) 
CPU  2 inst:   55000001 cyc:  107207105 now IPC :0.24211: AVG IPC :0.49895: L2-Pf-HR :0.85997: L2-HR :0.77195: (Sim:2h6m25s) 
CPU  0 inst:   55000001 cyc:  107322355 now IPC :0.24182: AVG IPC :0.49840: L2-Pf-HR :0.86704: L2-HR :0.77462: (Sim:2h6m32s) 
CPU  1 inst:   55000001 cyc:  110051787 now IPC :0.24968: AVG IPC :0.48593: L2-Pf-HR :0.86861: L2-HR :0.76414: (Sim:2h9m19s) 
CPU  3 inst:   55000001 cyc:  110071458 now IPC :0.24987: AVG IPC :0.48585: L2-Pf-HR :0.87348: L2-HR :0.76858: (Sim:2h9m21s) 
CPU  2 inst:   56000000 cyc:  111153130 now IPC :0.25342: AVG IPC :0.49015: L2-Pf-HR :0.85319: L2-HR :0.76736: (Sim:2h10m15s) 
CPU  0 inst:   56000000 cyc:  111269712 now IPC :0.25333: AVG IPC :0.48963: L2-Pf-HR :0.86018: L2-HR :0.77004: (Sim:2h10m19s) 
CPU  1 inst:   56000002 cyc:  113985605 now IPC :0.25421: AVG IPC :0.47786: L2-Pf-HR :0.86160: L2-HR :0.75959: (Sim:2h11m50s) 
CPU  3 inst:   56000000 cyc:  114002893 now IPC :0.25436: AVG IPC :0.47780: L2-Pf-HR :0.86645: L2-HR :0.76400: (Sim:2h11m51s) 
CPU  2 inst:   57000000 cyc:  115083908 now IPC :0.25440: AVG IPC :0.48203: L2-Pf-HR :0.84654: L2-HR :0.76288: (Sim:2h12m27s) 
CPU  0 inst:   57000000 cyc:  115225772 now IPC :0.25278: AVG IPC :0.48143: L2-Pf-HR :0.85346: L2-HR :0.76556: (Sim:2h12m32s) 
CPU  1 inst:   57000000 cyc:  117915739 now IPC :0.25444: AVG IPC :0.47035: L2-Pf-HR :0.85473: L2-HR :0.75516: (Sim:2h14m3s) 
CPU  3 inst:   57000000 cyc:  117931442 now IPC :0.25455: AVG IPC :0.47030: L2-Pf-HR :0.85955: L2-HR :0.75952: (Sim:2h14m3s) 
CPU  2 inst:   58000000 cyc:  118997591 now IPC :0.25551: AVG IPC :0.47452: L2-Pf-HR :0.84001: L2-HR :0.75849: (Sim:2h14m39s) 
CPU  0 inst:   58000000 cyc:  119146266 now IPC :0.25507: AVG IPC :0.47392: L2-Pf-HR :0.84685: L2-HR :0.76118: (Sim:2h14m44s) 
CPU  1 inst:   58000000 cyc:  121811317 now IPC :0.25670: AVG IPC :0.46347: L2-Pf-HR :0.84797: L2-HR :0.75081: (Sim:2h16m14s) 
CPU  3 inst:   58000000 cyc:  121833347 now IPC :0.25629: AVG IPC :0.46339: L2-Pf-HR :0.85276: L2-HR :0.75513: (Sim:2h16m15s) 
CPU  2 inst:   59000000 cyc:  122886007 now IPC :0.25717: AVG IPC :0.46759: L2-Pf-HR :0.83358: L2-HR :0.75420: (Sim:2h16m51s) 
CPU  0 inst:   59000000 cyc:  123015675 now IPC :0.25844: AVG IPC :0.46709: L2-Pf-HR :0.84036: L2-HR :0.75688: (Sim:2h16m55s) 
CPU  1 inst:   59000000 cyc:  125727280 now IPC :0.25537: AVG IPC :0.45693: L2-Pf-HR :0.84133: L2-HR :0.74655: (Sim:2h18m26s) 
CPU  3 inst:   59000000 cyc:  125759807 now IPC :0.25468: AVG IPC :0.45682: L2-Pf-HR :0.84609: L2-HR :0.75083: (Sim:2h18m27s) 
CPU  2 inst:   60000000 cyc:  126805068 now IPC :0.25516: AVG IPC :0.46097: L2-Pf-HR :0.82726: L2-HR :0.75000: (Sim:2h19m2s) 
CPU  0 inst:   60000000 cyc:  126936161 now IPC :0.25507: AVG IPC :0.46049: L2-Pf-HR :0.83397: L2-HR :0.75269: (Sim:2h19m7s) 
CPU  1 inst:   60000000 cyc:  129624178 now IPC :0.25661: AVG IPC :0.45086: L2-Pf-HR :0.83480: L2-HR :0.74239: (Sim:2h20m37s) 
CPU  3 inst:   60000000 cyc:  129652236 now IPC :0.25691: AVG IPC :0.45077: L2-Pf-HR :0.83955: L2-HR :0.74664: (Sim:2h20m38s) 
CPU  2 inst:   61000004 cyc:  130711143 now IPC :0.25601: AVG IPC :0.45480: L2-Pf-HR :0.82104: L2-HR :0.74589: (Sim:2h21m14s) 
CPU  0 inst:   61000004 cyc:  130847248 now IPC :0.25568: AVG IPC :0.45432: L2-Pf-HR :0.82769: L2-HR :0.74858: (Sim:2h21m18s) 
CPU  1 inst:   61000004 cyc:  133530277 now IPC :0.25601: AVG IPC :0.44512: L2-Pf-HR :0.82840: L2-HR :0.73832: (Sim:2h22m49s) 
CPU  3 inst:   61000004 cyc:  133570818 now IPC :0.25520: AVG IPC :0.44499: L2-Pf-HR :0.83312: L2-HR :0.74253: (Sim:2h22m50s) 
CPU  2 inst:   62000000 cyc:  134663512 now IPC :0.25301: AVG IPC :0.44883: L2-Pf-HR :0.81492: L2-HR :0.74186: (Sim:2h23m27s) 
CPU  0 inst:   62000000 cyc:  134797783 now IPC :0.25313: AVG IPC :0.44838: L2-Pf-HR :0.82152: L2-HR :0.74455: (Sim:2h23m31s) 
CPU  1 inst:   62000000 cyc:  137451082 now IPC :0.25505: AVG IPC :0.43966: L2-Pf-HR :0.82209: L2-HR :0.73433: (Sim:2h25m0s) 
CPU  3 inst:   62000000 cyc:  137481491 now IPC :0.25571: AVG IPC :0.43957: L2-Pf-HR :0.82680: L2-HR :0.73850: (Sim:2h25m1s) 
CPU  2 inst:   63000000 cyc:  138551489 now IPC :0.25720: AVG IPC :0.44342: L2-Pf-HR :0.80890: L2-HR :0.73792: (Sim:2h25m37s) 
CPU  0 inst:   63000000 cyc:  138678048 now IPC :0.25771: AVG IPC :0.44301: L2-Pf-HR :0.81544: L2-HR :0.74061: (Sim:2h25m41s) 
CPU  1 inst:   63000000 cyc:  141355484 now IPC :0.25612: AVG IPC :0.43456: L2-Pf-HR :0.81589: L2-HR :0.73043: (Sim:2h27m10s) 
CPU  3 inst:   63000000 cyc:  141378009 now IPC :0.25664: AVG IPC :0.43449: L2-Pf-HR :0.82058: L2-HR :0.73456: (Sim:2h27m11s) 
CPU  2 inst:   64000001 cyc:  142466246 now IPC :0.25544: AVG IPC :0.43822: L2-Pf-HR :0.80299: L2-HR :0.73406: (Sim:2h27m47s) 
CPU  0 inst:   64000001 cyc:  142612178 now IPC :0.25419: AVG IPC :0.43776: L2-Pf-HR :0.80948: L2-HR :0.73675: (Sim:2h27m52s) 
CPU  1 inst:   64000001 cyc:  145260985 now IPC :0.25605: AVG IPC :0.42972: L2-Pf-HR :0.80979: L2-HR :0.72660: (Sim:2h29m52s) 
CPU  3 inst:   64000005 cyc:  145268111 now IPC :0.25706: AVG IPC :0.42971: L2-Pf-HR :0.81446: L2-HR :0.73070: (Sim:2h29m52s) 
CPU  2 inst:   65000002 cyc:  146364517 now IPC :0.25652: AVG IPC :0.43334: L2-Pf-HR :0.79715: L2-HR :0.73027: (Sim:2h30m59s) 
CPU  0 inst:   65000002 cyc:  146507257 now IPC :0.25673: AVG IPC :0.43292: L2-Pf-HR :0.80360: L2-HR :0.73296: (Sim:2h31m8s) 
CPU  3 inst:   65000002 cyc:  149179189 now IPC :0.25568: AVG IPC :0.42512: L2-Pf-HR :0.80844: L2-HR :0.72692: (Sim:2h33m41s) 
CPU  1 inst:   65000002 cyc:  149192454 now IPC :0.25436: AVG IPC :0.42507: L2-Pf-HR :0.80379: L2-HR :0.72286: (Sim:2h33m42s) 
CPU  2 inst:   66000000 cyc:  150277755 now IPC :0.25554: AVG IPC :0.42868: L2-Pf-HR :0.79143: L2-HR :0.72656: (Sim:2h34m25s) 
CPU  0 inst:   66000000 cyc:  150433215 now IPC :0.25471: AVG IPC :0.42824: L2-Pf-HR :0.79783: L2-HR :0.72926: (Sim:2h34m34s) 
CPU  3 inst:   66000000 cyc:  153070128 now IPC :0.25701: AVG IPC :0.42082: L2-Pf-HR :0.80253: L2-HR :0.72322: (Sim:2h37m16s) 
CPU  1 inst:   66000000 cyc:  153071611 now IPC :0.25779: AVG IPC :0.42081: L2-Pf-HR :0.79791: L2-HR :0.71920: (Sim:2h37m16s) 
CPU  2 inst:   67000000 cyc:  154188422 now IPC :0.25571: AVG IPC :0.42427: L2-Pf-HR :0.78579: L2-HR :0.72292: (Sim:2h38m26s) 
CPU  0 inst:   67000000 cyc:  154343801 now IPC :0.25572: AVG IPC :0.42384: L2-Pf-HR :0.79215: L2-HR :0.72562: (Sim:2h38m35s) 
CPU  1 inst:   67000000 cyc:  156989138 now IPC :0.25526: AVG IPC :0.41665: L2-Pf-HR :0.79212: L2-HR :0.71560: (Sim:2h41m19s) 
CPU  3 inst:   67000000 cyc:  156991680 now IPC :0.25500: AVG IPC :0.41665: L2-Pf-HR :0.79671: L2-HR :0.71959: (Sim:2h41m19s) 
CPU  2 inst:   68000000 cyc:  158119341 now IPC :0.25439: AVG IPC :0.42002: L2-Pf-HR :0.78024: L2-HR :0.71935: (Sim:2h42m29s) 
CPU  0 inst:   68000000 cyc:  158278340 now IPC :0.25416: AVG IPC :0.41959: L2-Pf-HR :0.78655: L2-HR :0.72206: (Sim:2h42m39s) 
CPU  1 inst:   68000000 cyc:  160921845 now IPC :0.25428: AVG IPC :0.41266: L2-Pf-HR :0.78641: L2-HR :0.71208: (Sim:2h45m21s) 
CPU  3 inst:   68000000 cyc:  160926648 now IPC :0.25413: AVG IPC :0.41265: L2-Pf-HR :0.79099: L2-HR :0.71603: (Sim:2h45m21s) 
CPU  2 inst:   69000004 cyc:  162033994 now IPC :0.25545: AVG IPC :0.41602: L2-Pf-HR :0.77477: L2-HR :0.71585: (Sim:2h46m29s) 
CPU  0 inst:   69000004 cyc:  162181126 now IPC :0.25623: AVG IPC :0.41564: L2-Pf-HR :0.78104: L2-HR :0.71856: (Sim:2h46m38s) 
CPU  3 inst:   69000004 cyc:  164812151 now IPC :0.25737: AVG IPC :0.40897: L2-Pf-HR :0.78537: L2-HR :0.71255: (Sim:2h49m19s) 
CPU  1 inst:   69000004 cyc:  164815895 now IPC :0.25680: AVG IPC :0.40895: L2-Pf-HR :0.78079: L2-HR :0.70862: (Sim:2h49m19s) 
CPU  2 inst:   70000000 cyc:  165917545 now IPC :0.25750: AVG IPC :0.41229: L2-Pf-HR :0.76941: L2-HR :0.71242: (Sim:2h50m26s) 
CPU  0 inst:   70000000 cyc:  166065225 now IPC :0.25746: AVG IPC :0.41192: L2-Pf-HR :0.77563: L2-HR :0.71514: (Sim:2h50m35s) 
CPU  3 inst:   70000000 cyc:  168726715 now IPC :0.25546: AVG IPC :0.40538: L2-Pf-HR :0.77981: L2-HR :0.70912: (Sim:2h53m18s) 
CPU  1 inst:   70000000 cyc:  168738195 now IPC :0.25495: AVG IPC :0.40535: L2-Pf-HR :0.77526: L2-HR :0.70523: (Sim:2h53m19s) 
CPU  2 inst:   71000000 cyc:  169830301 now IPC :0.25557: AVG IPC :0.40866: L2-Pf-HR :0.76413: L2-HR :0.70906: (Sim:2h54m26s) 
CPU  0 inst:   71000000 cyc:  169976687 now IPC :0.25566: AVG IPC :0.40830: L2-Pf-HR :0.77031: L2-HR :0.71178: (Sim:2h54m35s) 
CPU  3 inst:   71000000 cyc:  172629246 now IPC :0.25624: AVG IPC :0.40199: L2-Pf-HR :0.77435: L2-HR :0.70577: (Sim:2h57m17s) 
CPU  1 inst:   71000000 cyc:  172663756 now IPC :0.25474: AVG IPC :0.40191: L2-Pf-HR :0.76982: L2-HR :0.70191: (Sim:2h57m19s) 
CPU  2 inst:   72000000 cyc:  173735968 now IPC :0.25604: AVG IPC :0.40520: L2-Pf-HR :0.75894: L2-HR :0.70577: (Sim:2h58m25s) 
CPU  0 inst:   72000000 cyc:  173883604 now IPC :0.25596: AVG IPC :0.40486: L2-Pf-HR :0.76506: L2-HR :0.70848: (Sim:2h58m34s) 
CPU  3 inst:   72000000 cyc:  176538090 now IPC :0.25583: AVG IPC :0.39874: L2-Pf-HR :0.76898: L2-HR :0.70248: (Sim:3h1m17s) 
CPU  1 inst:   72000000 cyc:  176570973 now IPC :0.25594: AVG IPC :0.39866: L2-Pf-HR :0.76446: L2-HR :0.69864: (Sim:3h1m19s) 
CPU  2 inst:   73000000 cyc:  177654306 now IPC :0.25521: AVG IPC :0.40188: L2-Pf-HR :0.75382: L2-HR :0.70253: (Sim:3h2m26s) 
CPU  0 inst:   73000000 cyc:  177803443 now IPC :0.25511: AVG IPC :0.40154: L2-Pf-HR :0.75987: L2-HR :0.70523: (Sim:3h2m35s) 
CPU  3 inst:   73000000 cyc:  180461746 now IPC :0.25486: AVG IPC :0.39559: L2-Pf-HR :0.76368: L2-HR :0.69925: (Sim:3h5m17s) 
CPU  1 inst:   73000000 cyc:  180489960 now IPC :0.25517: AVG IPC :0.39553: L2-Pf-HR :0.75917: L2-HR :0.69544: (Sim:3h5m18s) 
CPU  2 inst:   74000001 cyc:  181569498 now IPC :0.25542: AVG IPC :0.39870: L2-Pf-HR :0.74878: L2-HR :0.69936: (Sim:3h6m24s) 
CPU  0 inst:   74000001 cyc:  181718455 now IPC :0.25543: AVG IPC :0.39837: L2-Pf-HR :0.75478: L2-HR :0.70205: (Sim:3h6m33s) 
CPU  3 inst:   74000001 cyc:  184401543 now IPC :0.25382: AVG IPC :0.39255: L2-Pf-HR :0.75847: L2-HR :0.69608: (Sim:3h9m17s) 
CPU  1 inst:   74000001 cyc:  184402225 now IPC :0.25561: AVG IPC :0.39254: L2-Pf-HR :0.75398: L2-HR :0.69230: (Sim:3h9m17s) 
CPU  2 inst:   75000002 cyc:  185489247 now IPC :0.25512: AVG IPC :0.39565: L2-Pf-HR :0.74379: L2-HR :0.69624: (Sim:3h10m24s) 
CPU  0 inst:   75000002 cyc:  185651026 now IPC :0.25429: AVG IPC :0.39530: L2-Pf-HR :0.74972: L2-HR :0.69892: (Sim:3h10m34s) 
CPU  2 inst:   76000001 cyc:  187838481 now IPC :0.42567: AVG IPC :0.39603: L2-Pf-HR :0.74752: L2-HR :0.70027: (Sim:3h12m57s) 
CPU  0 inst:   76000001 cyc:  188029945 now IPC :0.42036: AVG IPC :0.39562: L2-Pf-HR :0.75528: L2-HR :0.70416: (Sim:3h13m16s) 
CPU  1 inst:   75000002 cyc:  188530283 now IPC :0.24224: AVG IPC :0.38923: L2-Pf-HR :0.74892: L2-HR :0.68923: (Sim:3h14m8s) 
CPU  3 inst:   75000002 cyc:  188535358 now IPC :0.24191: AVG IPC :0.38923: L2-Pf-HR :0.75334: L2-HR :0.69298: (Sim:3h14m9s) 
CPU  2 inst:   77000001 cyc:  188632023 now IPC :1.26017: AVG IPC :0.39968: L2-Pf-HR :0.75803: L2-HR :0.70969: (Sim:3h14m19s) 
CPU  0 inst:   77000001 cyc:  188835977 now IPC :1.24065: AVG IPC :0.39925: L2-Pf-HR :0.76808: L2-HR :0.71528: (Sim:3h14m40s) 
CPU  2 inst:   78000004 cyc:  189407004 now IPC :1.29036: AVG IPC :0.40335: L2-Pf-HR :0.76762: L2-HR :0.71831: (Sim:3h15m40s) 
CPU  0 inst:   78000004 cyc:  189566240 now IPC :1.36937: AVG IPC :0.40300: L2-Pf-HR :0.77702: L2-HR :0.72361: (Sim:3h16m0s) 
CPU  2 inst:   79000000 cyc:  189989663 now IPC :1.71626: AVG IPC :0.40739: L2-Pf-HR :0.77582: L2-HR :0.72600: (Sim:3h16m52s) 
CPU  0 inst:   79000000 cyc:  190167877 now IPC :1.66213: AVG IPC :0.40701: L2-Pf-HR :0.78426: L2-HR :0.73077: (Sim:3h17m9s) 
CPU  2 inst:   80000000 cyc:  190986670 now IPC :1.00300: AVG IPC :0.41052: L2-Pf-HR :0.78257: L2-HR :0.73297: (Sim:3h18m35s) 
CPU  0 inst:   80000000 cyc:  191064933 now IPC :1.11476: AVG IPC :0.41035: L2-Pf-HR :0.79145: L2-HR :0.73820: (Sim:3h18m46s) 
CPU  3 inst:   76000001 cyc:  191170266 now IPC :0.37952: AVG IPC :0.38909: L2-Pf-HR :0.75622: L2-HR :0.69673: (Sim:3h18m59s) 
CPU  1 inst:   76000000 cyc:  191172586 now IPC :0.37846: AVG IPC :0.38908: L2-Pf-HR :0.75183: L2-HR :0.69298: (Sim:3h18m59s) 
CPU  2 inst:   81000005 cyc:  191854506 now IPC :1.15230: AVG IPC :0.41389: L2-Pf-HR :0.79016: L2-HR :0.74046: (Sim:3h20m30s) 
CPU  0 inst:   81000005 cyc:  192040711 now IPC :1.02483: AVG IPC :0.41349: L2-Pf-HR :0.80020: L2-HR :0.74672: (Sim:3h20m50s) 
CPU  3 inst:   77000001 cyc:  192175730 now IPC :0.99457: AVG IPC :0.39228: L2-Pf-HR :0.76556: L2-HR :0.70565: (Sim:3h21m8s) 
CPU  1 inst:   77000001 cyc:  192213981 now IPC :0.96025: AVG IPC :0.39219: L2-Pf-HR :0.76128: L2-HR :0.70199: (Sim:3h21m12s) 
CPU  2 inst:   82000002 cyc:  192873182 now IPC :0.98166: AVG IPC :0.41691: L2-Pf-HR :0.79684: L2-HR :0.74725: (Sim:3h22m32s) 
CPU  0 inst:   82000002 cyc:  193039979 now IPC :1.00073: AVG IPC :0.41654: L2-Pf-HR :0.80672: L2-HR :0.75357: (Sim:3h23m0s) 
CPU  3 inst:   78000004 cyc:  193044027 now IPC :1.15168: AVG IPC :0.39571: L2-Pf-HR :0.77414: L2-HR :0.71394: (Sim:3h23m1s) 
CPU  1 inst:   78000004 cyc:  193173175 now IPC :1.04255: AVG IPC :0.39544: L2-Pf-HR :0.77004: L2-HR :0.71039: (Sim:3h23m21s) 
CPU  2 inst:   83000004 cyc:  193489024 now IPC :1.62380: AVG IPC :0.42077: L2-Pf-HR :0.80283: L2-HR :0.75335: (Sim:3h24m14s) 
CPU  0 inst:   83000004 cyc:  193713402 now IPC :1.48495: AVG IPC :0.42028: L2-Pf-HR :0.81177: L2-HR :0.75909: (Sim:3h24m54s) 
CPU  3 inst:   79000000 cyc:  193729295 now IPC :1.45928: AVG IPC :0.39949: L2-Pf-HR :0.78229: L2-HR :0.72196: (Sim:3h24m57s) 
CPU  1 inst:   79000000 cyc:  193773589 now IPC :1.66551: AVG IPC :0.39940: L2-Pf-HR :0.77806: L2-HR :0.71829: (Sim:3h25m5s) 
CPU  2 inst:   84000005 cyc:  194286577 now IPC :1.25384: AVG IPC :0.42420: L2-Pf-HR :0.80768: L2-HR :0.75880: (Sim:3h26m17s) 
CPU  0 inst:   84000005 cyc:  194509333 now IPC :1.25639: AVG IPC :0.42371: L2-Pf-HR :0.81626: L2-HR :0.76441: (Sim:3h26m45s) 
CPU  3 inst:   80000000 cyc:  194671459 now IPC :1.06139: AVG IPC :0.40271: L2-Pf-HR :0.78922: L2-HR :0.72922: (Sim:3h27m8s) 
CPU  1 inst:   80000000 cyc:  194683788 now IPC :1.09866: AVG IPC :0.40268: L2-Pf-HR :0.78499: L2-HR :0.72552: (Sim:3h27m10s) 
CPU  2 inst:   85000000 cyc:  195057246 now IPC :1.29757: AVG IPC :0.42767: L2-Pf-HR :0.81314: L2-HR :0.76468: (Sim:3h28m5s) 
CPU  0 inst:   85000000 cyc:  195281777 now IPC :1.29459: AVG IPC :0.42718: L2-Pf-HR :0.82243: L2-HR :0.77100: (Sim:3h28m39s) 
CPU  3 inst:   81000001 cyc:  195463518 now IPC :1.26253: AVG IPC :0.40621: L2-Pf-HR :0.79555: L2-HR :0.73604: (Sim:3h29m7s) 
CPU  1 inst:   81000001 cyc:  195493929 now IPC :1.23435: AVG IPC :0.40615: L2-Pf-HR :0.79151: L2-HR :0.73245: (Sim:3h29m11s) 
CPU  2 inst:   86000005 cyc:  195858055 now IPC :1.24874: AVG IPC :0.43105: L2-Pf-HR :0.81790: L2-HR :0.77001: (Sim:3h30m8s) 
CPU  0 inst:   86000005 cyc:  196010902 now IPC :1.37151: AVG IPC :0.43071: L2-Pf-HR :0.82745: L2-HR :0.77666: (Sim:3h30m31s) 
CPU  3 inst:   82000002 cyc:  196165263 now IPC :1.42502: AVG IPC :0.40988: L2-Pf-HR :0.80116: L2-HR :0.74229: (Sim:3h30m57s) 
CPU  1 inst:   82000002 cyc:  196228502 now IPC :1.36134: AVG IPC :0.40974: L2-Pf-HR :0.79725: L2-HR :0.73877: (Sim:3h31m10s) 
CPU  2 inst:   87000004 cyc:  196447508 now IPC :1.69649: AVG IPC :0.43486: L2-Pf-HR :0.82227: L2-HR :0.77483: (Sim:3h31m52s) 
CPU  0 inst:   87000004 cyc:  196594743 now IPC :1.71279: AVG IPC :0.43453: L2-Pf-HR :0.83091: L2-HR :0.78087: (Sim:3h32m20s) 
CPU  3 inst:   83000004 cyc:  196713328 now IPC :1.82460: AVG IPC :0.41384: L2-Pf-HR :0.80720: L2-HR :0.74866: (Sim:3h32m43s) 
CPU  1 inst:   83000004 cyc:  196807140 now IPC :1.72820: AVG IPC :0.41363: L2-Pf-HR :0.80294: L2-HR :0.74495: (Sim:3h33m0s) 
CPU  2 inst:   88000005 cyc:  197037354 now IPC :1.69536: AVG IPC :0.43866: L2-Pf-HR :0.82609: L2-HR :0.77926: (Sim:3h33m40s) 
CPU  0 inst:   88000005 cyc:  197278788 now IPC :1.46189: AVG IPC :0.43811: L2-Pf-HR :0.83418: L2-HR :0.78504: (Sim:3h34m15s) 
CPU  3 inst:   84000005 cyc:  197456677 now IPC :1.34526: AVG IPC :0.41736: L2-Pf-HR :0.81145: L2-HR :0.75393: (Sim:3h34m41s) 
CPU  1 inst:   84000005 cyc:  197525014 now IPC :1.39300: AVG IPC :0.41721: L2-Pf-HR :0.80722: L2-HR :0.75021: (Sim:3h34m52s) 
CPU  2 inst:   89000005 cyc:  197753813 now IPC :1.39575: AVG IPC :0.44214: L2-Pf-HR :0.83004: L2-HR :0.78390: (Sim:3h35m31s) 
CPU  0 inst:   89000005 cyc:  197950747 now IPC :1.48819: AVG IPC :0.44170: L2-Pf-HR :0.83874: L2-HR :0.79026: (Sim:3h36m5s) 
CPU  3 inst:   85000000 cyc:  198117568 now IPC :1.51310: AVG IPC :0.42104: L2-Pf-HR :0.81608: L2-HR :0.75932: (Sim:3h36m33s) 
CPU  1 inst:   85000000 cyc:  198170610 now IPC :1.54895: AVG IPC :0.42092: L2-Pf-HR :0.81191: L2-HR :0.75565: (Sim:3h36m43s) 
CPU  2 inst:   90000002 cyc:  198400336 now IPC :1.54673: AVG IPC :0.44576: L2-Pf-HR :0.83394: L2-HR :0.78841: (Sim:3h37m21s) 
CPU  0 inst:   90000001 cyc:  198599222 now IPC :1.54207: AVG IPC :0.44531: L2-Pf-HR :0.84303: L2-HR :0.79521: (Sim:3h37m54s) 
CPU  3 inst:   86000005 cyc:  198791439 now IPC :1.48397: AVG IPC :0.42466: L2-Pf-HR :0.82023: L2-HR :0.76430: (Sim:3h38m23s) 
CPU  1 inst:   86000005 cyc:  198850875 now IPC :1.47002: AVG IPC :0.42452: L2-Pf-HR :0.81600: L2-HR :0.76060: (Sim:3h38m34s) 
CPU  2 inst:   91000003 cyc:  199011833 now IPC :1.63533: AVG IPC :0.44943: L2-Pf-HR :0.83662: L2-HR :0.79191: (Sim:3h39m6s) 
CPU  0 inst:   91000003 cyc:  199198102 now IPC :1.66979: AVG IPC :0.44901: L2-Pf-HR :0.84529: L2-HR :0.79837: (Sim:3h39m44s) 
CPU  3 inst:   87000004 cyc:  199330130 now IPC :1.85635: AVG IPC :0.42854: L2-Pf-HR :0.82434: L2-HR :0.76914: (Sim:3h40m10s) 
CPU  1 inst:   87000004 cyc:  199388550 now IPC :1.85986: AVG IPC :0.42841: L2-Pf-HR :0.82013: L2-HR :0.76546: (Sim:3h40m22s) 
CPU  2 inst:   92000001 cyc:  199555062 now IPC :1.84084: AVG IPC :0.45324: L2-Pf-HR :0.83958: L2-HR :0.79552: (Sim:3h40m54s) 
CPU  0 inst:   92000001 cyc:  199759366 now IPC :1.78169: AVG IPC :0.45277: L2-Pf-HR :0.84787: L2-HR :0.80174: (Sim:3h41m31s) 
CPU  3 inst:   88000002 cyc:  199927421 now IPC :1.67422: AVG IPC :0.43228: L2-Pf-HR :0.82780: L2-HR :0.77351: (Sim:3h41m59s) 
CPU  1 inst:   88000000 cyc:  199991526 now IPC :1.65843: AVG IPC :0.43214: L2-Pf-HR :0.82345: L2-HR :0.76975: (Sim:3h42m9s) 
CPU  2 inst:   93000002 cyc:  200223710 now IPC :1.49556: AVG IPC :0.45674: L2-Pf-HR :0.84222: L2-HR :0.79899: (Sim:3h42m50s) 
CPU  0 inst:   93000002 cyc:  200422290 now IPC :1.50847: AVG IPC :0.45628: L2-Pf-HR :0.85109: L2-HR :0.80576: (Sim:3h43m24s) 
CPU  3 inst:   89000005 cyc:  200589213 now IPC :1.51105: AVG IPC :0.43586: L2-Pf-HR :0.83114: L2-HR :0.77779: (Sim:3h43m52s) 
CPU  1 inst:   89000005 cyc:  200646817 now IPC :1.52605: AVG IPC :0.43573: L2-Pf-HR :0.82689: L2-HR :0.77409: (Sim:3h44m2s) 
CPU  2 inst:   94000005 cyc:  200872568 now IPC :1.54117: AVG IPC :0.46026: L2-Pf-HR :0.84527: L2-HR :0.80271: (Sim:3h44m42s) 
CPU  0 inst:   94000005 cyc:  201059039 now IPC :1.57048: AVG IPC :0.45983: L2-Pf-HR :0.85448: L2-HR :0.80985: (Sim:3h45m12s) 
CPU  3 inst:   90000001 cyc:  201226695 now IPC :1.56867: AVG IPC :0.43947: L2-Pf-HR :0.83444: L2-HR :0.78195: (Sim:3h45m41s) 
CPU  1 inst:   90000001 cyc:  201289277 now IPC :1.55651: AVG IPC :0.43933: L2-Pf-HR :0.83034: L2-HR :0.77834: (Sim:3h45m51s) 
CPU  2 inst:   95000000 cyc:  201500052 now IPC :1.59366: AVG IPC :0.46380: L2-Pf-HR :0.84749: L2-HR :0.80569: (Sim:3h46m30s) 
CPU  0 inst:   95000000 cyc:  201666541 now IPC :1.64608: AVG IPC :0.46342: L2-Pf-HR :0.85627: L2-HR :0.81253: (Sim:3h47m3s) 
CPU  3 inst:   91000004 cyc:  201812972 now IPC :1.70568: AVG IPC :0.44316: L2-Pf-HR :0.83711: L2-HR :0.78556: (Sim:3h47m32s) 
CPU  1 inst:   91000003 cyc:  201865621 now IPC :1.73508: AVG IPC :0.44304: L2-Pf-HR :0.83305: L2-HR :0.78200: (Sim:3h47m43s) 
CPU  2 inst:   96000004 cyc:  202039862 now IPC :1.85251: AVG IPC :0.46753: L2-Pf-HR :0.84995: L2-HR :0.80876: (Sim:3h48m18s) 
CPU  0 inst:   96000001 cyc:  202215978 now IPC :1.82005: AVG IPC :0.46712: L2-Pf-HR :0.85831: L2-HR :0.81528: (Sim:3h48m52s) 
CPU  3 inst:   92000001 cyc:  202349372 now IPC :1.86427: AVG IPC :0.44695: L2-Pf-HR :0.84070: L2-HR :0.78977: (Sim:3h49m18s) 
CPU  1 inst:   92000001 cyc:  202425262 now IPC :1.78686: AVG IPC :0.44678: L2-Pf-HR :0.83631: L2-HR :0.78599: (Sim:3h49m29s) 
CPU  2 inst:   97000003 cyc:  202713230 now IPC :1.48507: AVG IPC :0.47093: L2-Pf-HR :0.85209: L2-HR :0.81165: (Sim:3h50m12s) 
CPU  0 inst:   97000003 cyc:  202902538 now IPC :1.45654: AVG IPC :0.47048: L2-Pf-HR :0.86083: L2-HR :0.81857: (Sim:3h50m44s) 
CPU  3 inst:   93000002 cyc:  203072209 now IPC :1.38344: AVG IPC :0.45030: L2-Pf-HR :0.84303: L2-HR :0.79310: (Sim:3h51m13s) 
CPU  1 inst:   93000002 cyc:  203149681 now IPC :1.38042: AVG IPC :0.45012: L2-Pf-HR :0.83877: L2-HR :0.78941: (Sim:3h51m25s) 
CPU  2 inst:   98000000 cyc:  203363886 now IPC :1.53691: AVG IPC :0.47436: L2-Pf-HR :0.85453: L2-HR :0.81476: (Sim:3h52m2s) 
CPU  0 inst:   98000000 cyc:  203567708 now IPC :1.50337: AVG IPC :0.47388: L2-Pf-HR :0.86351: L2-HR :0.82197: (Sim:3h52m36s) 
CPU  3 inst:   94000005 cyc:  203735305 now IPC :1.50808: AVG IPC :0.45376: L2-Pf-HR :0.84557: L2-HR :0.79653: (Sim:3h53m3s) 
CPU  1 inst:   94000005 cyc:  203807150 now IPC :1.52099: AVG IPC :0.45359: L2-Pf-HR :0.84144: L2-HR :0.79291: (Sim:3h53m16s) 
CPU  2 inst:   99000005 cyc:  204026184 now IPC :1.50990: AVG IPC :0.47773: L2-Pf-HR :0.85635: L2-HR :0.81733: (Sim:3h53m53s) 
CPU  0 inst:   99000005 cyc:  204195880 now IPC :1.59193: AVG IPC :0.47733: L2-Pf-HR :0.86515: L2-HR :0.82442: (Sim:3h54m27s) 
CPU  3 inst:   95000005 cyc:  204341160 now IPC :1.65056: AVG IPC :0.45732: L2-Pf-HR :0.84801: L2-HR :0.79978: (Sim:3h54m56s) 
CPU  1 inst:   95000005 cyc:  204406536 now IPC :1.66837: AVG IPC :0.45717: L2-Pf-HR :0.84398: L2-HR :0.79624: (Sim:3h55m9s) 
CPU  2 inst:  100000002 cyc:  204566502 now IPC :1.85076: AVG IPC :0.48138: L2-Pf-HR :0.85829: L2-HR :0.81987: (Sim:3h55m40s) 
CPU  0 inst:  100000002 cyc:  204724220 now IPC :1.89271: AVG IPC :0.48100: L2-Pf-HR :0.86680: L2-HR :0.82673: (Sim:3h56m12s) 
CPU  3 inst:   96000001 cyc:  204881115 now IPC :1.85200: AVG IPC :0.46102: L2-Pf-HR :0.85041: L2-HR :0.80296: (Sim:3h56m41s) 
CPU  1 inst:   96000001 cyc:  204944019 now IPC :1.86052: AVG IPC :0.46087: L2-Pf-HR :0.84643: L2-HR :0.79946: (Sim:3h56m54s) 
CPU  2 inst:  101000004 cyc:  205211971 now IPC :1.54926: AVG IPC :0.48475: L2-Pf-HR :0.86006: L2-HR :0.82232: (Sim:3h57m36s) 
CPU  0 inst:  101000004 cyc:  205368949 now IPC :1.55104: AVG IPC :0.48438: L2-Pf-HR :0.86879: L2-HR :0.82942: (Sim:3h58m3s) 
CPU  3 inst:   97000003 cyc:  205531709 now IPC :1.53706: AVG IPC :0.46444: L2-Pf-HR :0.85245: L2-HR :0.80584: (Sim:3h58m32s) 
CPU  1 inst:   97000003 cyc:  205628827 now IPC :1.46027: AVG IPC :0.46422: L2-Pf-HR :0.84853: L2-HR :0.80240: (Sim:3h58m49s) 
CPU  2 inst:  102000005 cyc:  205846539 now IPC :1.57588: AVG IPC :0.48813: L2-Pf-HR :0.86209: L2-HR :0.82498: (Sim:3h59m25s) 
CPU  0 inst:  102000005 cyc:  206052341 now IPC :1.46329: AVG IPC :0.48764: L2-Pf-HR :0.87098: L2-HR :0.83230: (Sim:4h0m0s) 
CPU  3 inst:   98000000 cyc:  206218313 now IPC :1.45644: AVG IPC :0.46776: L2-Pf-HR :0.85448: L2-HR :0.80872: (Sim:4h0m26s) 
CPU  1 inst:   98000000 cyc:  206343416 now IPC :1.39940: AVG IPC :0.46747: L2-Pf-HR :0.85062: L2-HR :0.80532: (Sim:4h0m44s) 
CPU  2 inst:  103000005 cyc:  206561786 now IPC :1.39812: AVG IPC :0.49130: L2-Pf-HR :0.86361: L2-HR :0.82720: (Sim:4h1m17s) 
CPU  0 inst:  103000005 cyc:  206753851 now IPC :1.42550: AVG IPC :0.49084: L2-Pf-HR :0.87225: L2-HR :0.83435: (Sim:4h1m52s) 
CPU  3 inst:   99000005 cyc:  206904198 now IPC :1.45798: AVG IPC :0.47106: L2-Pf-HR :0.85602: L2-HR :0.81118: (Sim:4h2m20s) 
CPU  1 inst:   99000005 cyc:  207009774 now IPC :1.50070: AVG IPC :0.47081: L2-Pf-HR :0.85242: L2-HR :0.80797: (Sim:4h2m41s) 
CPU  2 inst:  104000002 cyc:  207117560 now IPC :1.79929: AVG IPC :0.49482: L2-Pf-HR :0.86528: L2-HR :0.82942: (Sim:4h3m2s) 
CPU  0 inst:  104000002 cyc:  207275722 now IPC :1.91618: AVG IPC :0.49444: L2-Pf-HR :0.87369: L2-HR :0.83636: (Sim:4h3m34s) 
CPU  3 inst:  100000002 cyc:  207458029 now IPC :1.80560: AVG IPC :0.47464: L2-Pf-HR :0.85833: L2-HR :0.81410: (Sim:4h4m9s) 
CPU  1 inst:  100000002 cyc:  207573823 now IPC :1.77289: AVG IPC :0.47437: L2-Pf-HR :0.85459: L2-HR :0.81081: (Sim:4h4m29s) 
CPU  2 inst:  105000002 cyc:  207719687 now IPC :1.66078: AVG IPC :0.49822: L2-Pf-HR :0.86671: L2-HR :0.83146: (Sim:4h4m54s) 
CPU  0 inst:  105000002 cyc:  207918797 now IPC :1.55503: AVG IPC :0.49774: L2-Pf-HR :0.87509: L2-HR :0.83843: (Sim:4h5m22s) 
CPU  3 inst:  101000004 cyc:  208205692 now IPC :1.33750: AVG IPC :0.47775: L2-Pf-HR :0.86002: L2-HR :0.81659: (Sim:4h6m6s) 
CPU  1 inst:  101000004 cyc:  208326355 now IPC :1.32885: AVG IPC :0.47747: L2-Pf-HR :0.85631: L2-HR :0.81332: (Sim:4h6m24s) 
CPU  2 inst:  106000001 cyc:  208435720 now IPC :1.39658: AVG IPC :0.50132: L2-Pf-HR :0.86830: L2-HR :0.83367: (Sim:4h6m40s) 
CPU  0 inst:  106000001 cyc:  208667351 now IPC :1.33591: AVG IPC :0.50076: L2-Pf-HR :0.87687: L2-HR :0.84087: (Sim:4h7m20s) 
CPU  3 inst:  102000005 cyc:  208916948 now IPC :1.40596: AVG IPC :0.48093: L2-Pf-HR :0.86168: L2-HR :0.81903: (Sim:4h8m0s) 
CPU  1 inst:  102000005 cyc:  208979086 now IPC :1.53203: AVG IPC :0.48078: L2-Pf-HR :0.85803: L2-HR :0.81579: (Sim:4h8m9s) 
CPU  2 inst:  107000003 cyc:  209145990 now IPC :1.40792: AVG IPC :0.50441: L2-Pf-HR :0.86955: L2-HR :0.83559: (Sim:4h8m37s) 
CPU  0 inst:  107000003 cyc:  209404899 now IPC :1.35585: AVG IPC :0.50379: L2-Pf-HR :0.87824: L2-HR :0.84292: (Sim:4h9m17s) 
CPU  3 inst:  103000005 cyc:  209635073 now IPC :1.39252: AVG IPC :0.48406: L2-Pf-HR :0.86311: L2-HR :0.82125: (Sim:4h9m58s) 
CPU  1 inst:  103000005 cyc:  209643641 now IPC :1.50477: AVG IPC :0.48404: L2-Pf-HR :0.85935: L2-HR :0.81794: (Sim:4h10m0s) 
CPU  2 inst:  108000005 cyc:  209779257 now IPC :1.57912: AVG IPC :0.50767: L2-Pf-HR :0.87110: L2-HR :0.83763: (Sim:4h10m24s) 
CPU  0 inst:  108000005 cyc:  210018390 now IPC :1.63002: AVG IPC :0.50709: L2-Pf-HR :0.87956: L2-HR :0.84476: (Sim:4h11m7s) 
CPU  3 inst:  104000002 cyc:  210240648 now IPC :1.65132: AVG IPC :0.48744: L2-Pf-HR :0.86486: L2-HR :0.82367: (Sim:4h11m47s) 
CPU  1 inst:  104000002 cyc:  210243330 now IPC :1.66753: AVG IPC :0.48743: L2-Pf-HR :0.86104: L2-HR :0.82031: (Sim:4h11m48s) 
CPU  2 inst:  109000003 cyc:  210405229 now IPC :1.59751: AVG IPC :0.51093: L2-Pf-HR :0.87224: L2-HR :0.83935: (Sim:4h12m17s) 
CPU  0 inst:  109000003 cyc:  210638578 now IPC :1.61241: AVG IPC :0.51036: L2-Pf-HR :0.88069: L2-HR :0.84649: (Sim:4h12m57s) 
CPU  3 inst:  105000002 cyc:  210944862 now IPC :1.42002: AVG IPC :0.49057: L2-Pf-HR :0.86628: L2-HR :0.82581: (Sim:4h13m42s) 
CPU  1 inst:  105000002 cyc:  210960986 now IPC :1.39343: AVG IPC :0.49053: L2-Pf-HR :0.86263: L2-HR :0.82256: (Sim:4h13m45s) 
CPU  2 inst:  110000004 cyc:  211145191 now IPC :1.35142: AVG IPC :0.51389: L2-Pf-HR :0.87345: L2-HR :0.84117: (Sim:4h14m14s) 
CPU  0 inst:  110000004 cyc:  211332473 now IPC :1.44114: AVG IPC :0.51343: L2-Pf-HR :0.88214: L2-HR :0.84856: (Sim:4h14m46s) 
CPU  3 inst:  106000001 cyc:  211610799 now IPC :1.50164: AVG IPC :0.49377: L2-Pf-HR :0.86763: L2-HR :0.82789: (Sim:4h15m33s) 
CPU  1 inst:  106000001 cyc:  211649535 now IPC :1.45233: AVG IPC :0.49367: L2-Pf-HR :0.86405: L2-HR :0.82469: (Sim:4h15m40s) 
CPU  2 inst:  111000000 cyc:  211842872 now IPC :1.43331: AVG IPC :0.51693: L2-Pf-HR :0.87462: L2-HR :0.84292: (Sim:4h16m12s) 
CPU  0 inst:  111000000 cyc:  211988932 now IPC :1.52332: AVG IPC :0.51657: L2-Pf-HR :0.88347: L2-HR :0.85048: (Sim:4h16m36s) 
CPU  3 inst:  107000003 cyc:  212257688 now IPC :1.54586: AVG IPC :0.49699: L2-Pf-HR :0.86872: L2-HR :0.82972: (Sim:4h17m25s) 
CPU  1 inst:  107000003 cyc:  212317609 now IPC :1.49684: AVG IPC :0.49684: L2-Pf-HR :0.86522: L2-HR :0.82660: (Sim:4h17m37s) 
CPU  2 inst:  112000005 cyc:  212409516 now IPC :1.76479: AVG IPC :0.52028: L2-Pf-HR :0.87582: L2-HR :0.84460: (Sim:4h17m55s) 
CPU  0 inst:  112000005 cyc:  212548405 now IPC :1.78741: AVG IPC :0.51993: L2-Pf-HR :0.88431: L2-HR :0.85186: (Sim:4h18m23s) 
CPU  3 inst:  108000005 cyc:  212780837 now IPC :1.91151: AVG IPC :0.50048: L2-Pf-HR :0.87022: L2-HR :0.83181: (Sim:4h19m9s) 
CPU  1 inst:  108000005 cyc:  212862219 now IPC :1.83618: AVG IPC :0.50028: L2-Pf-HR :0.86671: L2-HR :0.82868: (Sim:4h19m24s) 
CPU  2 inst:  113000002 cyc:  212962346 now IPC :1.80887: AVG IPC :0.52364: L2-Pf-HR :0.87694: L2-HR :0.84618: (Sim:4h19m42s) 
CPU  0 inst:  113000002 cyc:  213130341 now IPC :1.71840: AVG IPC :0.52322: L2-Pf-HR :0.88512: L2-HR :0.85321: (Sim:4h20m13s) 
CPU  3 inst:  109000000 cyc:  213416315 now IPC :1.57361: AVG IPC :0.50369: L2-Pf-HR :0.87152: L2-HR :0.83373: (Sim:4h20m59s) 
CPU  1 inst:  109000003 cyc:  213504792 now IPC :1.55624: AVG IPC :0.50348: L2-Pf-HR :0.86807: L2-HR :0.83064: (Sim:4h21m14s) 
CPU  2 inst:  114000000 cyc:  213625304 now IPC :1.50839: AVG IPC :0.52671: L2-Pf-HR :0.87785: L2-HR :0.84770: (Sim:4h21m34s) 
CPU  0 inst:  114000000 cyc:  213831669 now IPC :1.42586: AVG IPC :0.52620: L2-Pf-HR :0.88628: L2-HR :0.85497: (Sim:4h22m9s) 
CPU  3 inst:  110000002 cyc:  214091934 now IPC :1.48013: AVG IPC :0.50679: L2-Pf-HR :0.87258: L2-HR :0.83548: (Sim:4h22m53s) 
CPU  1 inst:  110000004 cyc:  214155409 now IPC :1.53700: AVG IPC :0.50663: L2-Pf-HR :0.86917: L2-HR :0.83243: (Sim:4h23m3s) 
CPU  2 inst:  115000001 cyc:  214302240 now IPC :1.47725: AVG IPC :0.52972: L2-Pf-HR :0.87908: L2-HR :0.84942: (Sim:4h23m27s) 
CPU  0 inst:  115000001 cyc:  214500044 now IPC :1.49617: AVG IPC :0.52923: L2-Pf-HR :0.88756: L2-HR :0.85676: (Sim:4h23m58s) 
CPU  3 inst:  111000000 cyc:  214808133 now IPC :1.39626: AVG IPC :0.50977: L2-Pf-HR :0.87350: L2-HR :0.83709: (Sim:4h24m50s) 
CPU  1 inst:  111000000 cyc:  214836013 now IPC :1.46928: AVG IPC :0.50970: L2-Pf-HR :0.87020: L2-HR :0.83412: (Sim:4h24m55s) 
CPU  2 inst:  116000002 cyc:  214957391 now IPC :1.52637: AVG IPC :0.53278: L2-Pf-HR :0.88007: L2-HR :0.85088: (Sim:4h25m19s) 
CPU  0 inst:  116000002 cyc:  215082677 now IPC :1.71635: AVG IPC :0.53246: L2-Pf-HR :0.88833: L2-HR :0.85802: (Sim:4h25m45s) 
CPU  3 inst:  112000005 cyc:  215338763 now IPC :1.88456: AVG IPC :0.51317: L2-Pf-HR :0.87467: L2-HR :0.83883: (Sim:4h26m34s) 
CPU  1 inst:  112000005 cyc:  215402126 now IPC :1.76644: AVG IPC :0.51301: L2-Pf-HR :0.87155: L2-HR :0.83601: (Sim:4h26m46s) 
CPU  2 inst:  117000005 cyc:  215521880 now IPC :1.77152: AVG IPC :0.53604: L2-Pf-HR :0.88110: L2-HR :0.85234: (Sim:4h27m9s) 
CPU  0 inst:  117000005 cyc:  215644922 now IPC :1.77859: AVG IPC :0.53573: L2-Pf-HR :0.88909: L2-HR :0.85925: (Sim:4h27m33s) 
CPU  3 inst:  113000005 cyc:  215923393 now IPC :1.71048: AVG IPC :0.51643: L2-Pf-HR :0.87594: L2-HR :0.84062: (Sim:4h28m19s) 
CPU  1 inst:  113000005 cyc:  215993661 now IPC :1.69052: AVG IPC :0.51625: L2-Pf-HR :0.87290: L2-HR :0.83786: (Sim:4h28m29s) 
CPU  2 inst:  118000000 cyc:  216237550 now IPC :1.39729: AVG IPC :0.53890: L2-Pf-HR :0.88172: L2-HR :0.85353: (Sim:4h29m7s) 
CPU  0 inst:  118000000 cyc:  216375622 now IPC :1.36854: AVG IPC :0.53855: L2-Pf-HR :0.88999: L2-HR :0.86069: (Sim:4h29m31s) 
CPU  3 inst:  114000000 cyc:  216655001 now IPC :1.36685: AVG IPC :0.51931: L2-Pf-HR :0.87671: L2-HR :0.84207: (Sim:4h30m16s) 
CPU  1 inst:  114000000 cyc:  216676746 now IPC :1.46394: AVG IPC :0.51925: L2-Pf-HR :0.87372: L2-HR :0.83934: (Sim:4h30m20s) 
CPU  2 inst:  119000005 cyc:  216896297 now IPC :1.51804: AVG IPC :0.54189: L2-Pf-HR :0.88279: L2-HR :0.85504: (Sim:4h30m57s) 
CPU  0 inst:  119000005 cyc:  217092778 now IPC :1.39440: AVG IPC :0.54139: L2-Pf-HR :0.89115: L2-HR :0.86233: (Sim:4h31m26s) 
CPU  3 inst:  115000001 cyc:  217346204 now IPC :1.44675: AVG IPC :0.52227: L2-Pf-HR :0.87769: L2-HR :0.84364: (Sim:4h32m10s) 
CPU  1 inst:  115000001 cyc:  217363940 now IPC :1.45519: AVG IPC :0.52223: L2-Pf-HR :0.87475: L2-HR :0.84095: (Sim:4h32m14s) 
CPU  2 inst:  120000005 cyc:  217522117 now IPC :1.59790: AVG IPC :0.54494: L2-Pf-HR :0.88361: L2-HR :0.85631: (Sim:4h32m40s) 
CPU  0 inst:  120000005 cyc:  217689610 now IPC :1.67551: AVG IPC :0.54452: L2-Pf-HR :0.89177: L2-HR :0.86342: (Sim:4h33m12s) 
CPU  3 inst:  116000002 cyc:  217955316 now IPC :1.64174: AVG IPC :0.52542: L2-Pf-HR :0.87868: L2-HR :0.84515: (Sim:4h34m5s) 
CPU  1 inst:  116000002 cyc:  217961896 now IPC :1.67237: AVG IPC :0.52540: L2-Pf-HR :0.87576: L2-HR :0.84248: (Sim:4h34m6s) 
CPU  2 inst:  121000001 cyc:  218053557 now IPC :1.88167: AVG IPC :0.54821: L2-Pf-HR :0.88450: L2-HR :0.85760: (Sim:4h34m24s) 
CPU  0 inst:  121000001 cyc:  218213454 now IPC :1.90896: AVG IPC :0.54781: L2-Pf-HR :0.89239: L2-HR :0.86447: (Sim:4h34m56s) 
CPU  3 inst:  117000005 cyc:  218517599 now IPC :1.77847: AVG IPC :0.52866: L2-Pf-HR :0.87979: L2-HR :0.84675: (Sim:4h35m50s) 
CPU  1 inst:  117000003 cyc:  218525384 now IPC :1.77466: AVG IPC :0.52863: L2-Pf-HR :0.87696: L2-HR :0.84415: (Sim:4h35m51s) 
CPU  2 inst:  122000002 cyc:  218698963 now IPC :1.54941: AVG IPC :0.55118: L2-Pf-HR :0.88503: L2-HR :0.85863: (Sim:4h36m17s) 
Finished CPU 2 instr: 120000005 cyc: 217714761 AVG IPC: 0.55118 (Sim time: 4h36m17s)
CPU  0 inst:  122000002 cyc:  218891709 now IPC :1.47437: AVG IPC :0.55069: L2-Pf-HR :0.89308: L2-HR :0.86566: (Sim:4h36m48s) 
Finished CPU 0 instr: 120000000 cyc: 217907736 AVG IPC: 0.55069 (Sim time: 4h36m48s)
CPU  3 inst:  118000000 cyc:  219265229 now IPC :1.33755: AVG IPC :0.53143: L2-Pf-HR :0.88035: L2-HR :0.84794: (Sim:4h37m49s) 
CPU  1 inst:  118000000 cyc:  219281239 now IPC :1.32300: AVG IPC :0.53138: L2-Pf-HR :0.87757: L2-HR :0.84538: (Sim:4h37m51s) 
CPU  2 inst:  123000002 cyc:  219340134 now IPC :1.55965: AVG IPC :0.55414: L2-Pf-HR :0.88592: L2-HR :0.85995: (Sim:4h38m2s) 
CPU  0 inst:  123000002 cyc:  219596993 now IPC :1.41787: AVG IPC :0.55349: L2-Pf-HR :0.89409: L2-HR :0.86711: (Sim:4h38m44s) 
CPU  3 inst:  119000005 cyc:  219883208 now IPC :1.61819: AVG IPC :0.53449: L2-Pf-HR :0.88119: L2-HR :0.84932: (Sim:4h39m33s) 
CPU  1 inst:  119000005 cyc:  219952923 now IPC :1.48880: AVG IPC :0.53432: L2-Pf-HR :0.87847: L2-HR :0.84681: (Sim:4h39m44s) 
CPU  2 inst:  124000001 cyc:  219996276 now IPC :1.52406: AVG IPC :0.55705: L2-Pf-HR :0.88667: L2-HR :0.86110: (Sim:4h39m53s) 
CPU  0 inst:  124000001 cyc:  220232298 now IPC :1.57405: AVG IPC :0.55644: L2-Pf-HR :0.89473: L2-HR :0.86818: (Sim:4h40m34s) 
CPU  3 inst:  120000005 cyc:  220476341 now IPC :1.68596: AVG IPC :0.53761: L2-Pf-HR :0.88225: L2-HR :0.85081: (Sim:4h41m21s) 
CPU  2 inst:  125000001 cyc:  220566267 now IPC :1.75441: AVG IPC :0.56015: L2-Pf-HR :0.88776: L2-HR :0.86250: (Sim:4h41m38s) 
CPU  1 inst:  120000005 cyc:  220568365 now IPC :1.62485: AVG IPC :0.53738: L2-Pf-HR :0.87944: L2-HR :0.84825: (Sim:4h41m38s) 
CPU  0 inst:  125000001 cyc:  220801402 now IPC :1.75715: AVG IPC :0.55955: L2-Pf-HR :0.89524: L2-HR :0.86910: (Sim:4h42m23s) 
*** Reached end of trace for Core: 2 Repeating trace: 770-tot_memTraces_v3/memTraces[125000000][OPT-125M]_[h12][s512][d64].champsim.xz
CPU  3 inst:  121000001 cyc:  221035225 now IPC :1.78927: AVG IPC :0.54078: L2-Pf-HR :0.88319: L2-HR :0.85222: (Sim:4h43m1s) 
CPU  1 inst:  121000001 cyc:  221135683 now IPC :1.76267: AVG IPC :0.54053: L2-Pf-HR :0.88035: L2-HR :0.84963: (Sim:4h43m13s) 
*** Reached end of trace for Core: 0 Repeating trace: 770-tot_memTraces_v3/memTraces[125000000][OPT-125M]_[h12][s512][d64].champsim.xz
CPU  2 inst:  126000003 cyc:  221699582 now IPC :0.88237: AVG IPC :0.56181: L2-Pf-HR :0.88778: L2-HR :0.86231: (Sim:4h44m8s) 
CPU  3 inst:  122000002 cyc:  221797898 now IPC :1.31118: AVG IPC :0.54345: L2-Pf-HR :0.88369: L2-HR :0.85329: (Sim:4h44m19s) 
Finished CPU 3 instr: 120000005 cyc: 220813441 AVG IPC: 0.54345 (Sim time: 4h44m19s)
CPU  1 inst:  122000002 cyc:  221900989 now IPC :1.30667: AVG IPC :0.54319: L2-Pf-HR :0.88078: L2-HR :0.85065: (Sim:4h44m33s) 
Finished CPU 1 instr: 120000002 cyc: 220917115 AVG IPC: 0.54319 (Sim time: 4h44m33s)

ChampSim completed all CPUs

Total Simulation Statistics (not including warmup)

CPU 0 cumulative IPC: 0.56074 instructions: 123877911 cycles: 220917115
Core_0_L1D_total_access 54849297
Core_0_L1D_total_hit 49551138
Core_0_L1D_total_miss 5298159
Core_0_L1D_loads 31264823
Core_0_L1D_load_hit 28477117
Core_0_L1D_load_miss 2787706
Core_0_L1D_RFOs 3245019
Core_0_L1D_RFO_hit 3057496
Core_0_L1D_RFO_miss 187523
Core_0_L1D_prefetches 20339455
Core_0_L1D_prefetch_hit 18016525
Core_0_L1D_prefetch_miss 2322930
Core_0_L1D_writebacks 0
Core_0_L1D_writeback_hit 0
Core_0_L1D_writeback_miss 0

Core_0_L1I_total_access 17420044
Core_0_L1I_total_hit 17409504
Core_0_L1I_total_miss 10540
Core_0_L1I_loads 17420044
Core_0_L1I_load_hit 17409504
Core_0_L1I_load_miss 10540
Core_0_L1I_RFOs 0
Core_0_L1I_RFO_hit 0
Core_0_L1I_RFO_miss 0
Core_0_L1I_prefetches 0
Core_0_L1I_prefetch_hit 0
Core_0_L1I_prefetch_miss 0
Core_0_L1I_writebacks 0
Core_0_L1I_writeback_hit 0
Core_0_L1I_writeback_miss 0

Core_0_L2C_total_access 8857607
Core_0_L2C_total_hit 7695303
Core_0_L2C_total_miss 1162304
Core_0_L2C_loads 2291593
Core_0_L2C_load_hit 1898178
Core_0_L2C_load_miss 393415
Core_0_L2C_RFOs 187516
Core_0_L2C_RFO_hit 9050
Core_0_L2C_RFO_miss 178466
Core_0_L2C_prefetches 5626038
Core_0_L2C_prefetch_hit 5035678
Core_0_L2C_prefetch_miss 590360
Core_0_L2C_writebacks 752460
Core_0_L2C_writeback_hit 752397
Core_0_L2C_writeback_miss 63


Core_0_LLC_total_access 1797935
Core_0_LLC_total_hit 697356
Core_0_LLC_total_miss 1100579
Core_0_LLC_loads 244288
Core_0_LLC_load_hit 14149
Core_0_LLC_load_miss 230139
Core_0_LLC_RFOs 178462
Core_0_LLC_RFO_hit 151
Core_0_LLC_RFO_miss 178311
Core_0_LLC_prefetches 739488
Core_0_LLC_prefetch_hit 58156
Core_0_LLC_prefetch_miss 681332
Core_0_LLC_writebacks 635697
Core_0_LLC_writeback_hit 624900
Core_0_LLC_writeback_miss 10797


CPU 1 cumulative IPC: 0.54319 instructions: 120000002 cycles: 220917115
Core_1_L1D_total_access 52887829
Core_1_L1D_total_hit 48131325
Core_1_L1D_total_miss 4756504
Core_1_L1D_loads 30273094
Core_1_L1D_load_hit 27703470
Core_1_L1D_load_miss 2569624
Core_1_L1D_RFOs 3225461
Core_1_L1D_RFO_hit 3039136
Core_1_L1D_RFO_miss 186325
Core_1_L1D_prefetches 19389274
Core_1_L1D_prefetch_hit 17388719
Core_1_L1D_prefetch_miss 2000555
Core_1_L1D_writebacks 0
Core_1_L1D_writeback_hit 0
Core_1_L1D_writeback_miss 0

Core_1_L1I_total_access 17040792
Core_1_L1I_total_hit 17035850
Core_1_L1I_total_miss 4942
Core_1_L1I_loads 17040792
Core_1_L1I_load_hit 17035850
Core_1_L1I_load_miss 4942
Core_1_L1I_RFOs 0
Core_1_L1I_RFO_hit 0
Core_1_L1I_RFO_miss 0
Core_1_L1I_prefetches 0
Core_1_L1I_prefetch_hit 0
Core_1_L1I_prefetch_miss 0
Core_1_L1I_writebacks 0
Core_1_L1I_writeback_hit 0
Core_1_L1I_writeback_miss 0

Core_1_L2C_total_access 7675299
Core_1_L2C_total_hit 6528978
Core_1_L2C_total_miss 1146321
Core_1_L2C_loads 2022385
Core_1_L2C_load_hit 1617372
Core_1_L2C_load_miss 405013
Core_1_L2C_RFOs 186319
Core_1_L2C_RFO_hit 7808
Core_1_L2C_RFO_miss 178511
Core_1_L2C_prefetches 4720206
Core_1_L2C_prefetch_hit 4157454
Core_1_L2C_prefetch_miss 562752
Core_1_L2C_writebacks 746389
Core_1_L2C_writeback_hit 746344
Core_1_L2C_writeback_miss 45


Core_1_LLC_total_access 1791550
Core_1_LLC_total_hit 712764
Core_1_LLC_total_miss 1078786
Core_1_LLC_loads 259130
Core_1_LLC_load_hit 18096
Core_1_LLC_load_miss 241034
Core_1_LLC_RFOs 178507
Core_1_LLC_RFO_hit 130
Core_1_LLC_RFO_miss 178377
Core_1_LLC_prefetches 708629
Core_1_LLC_prefetch_hit 63003
Core_1_LLC_prefetch_miss 645626
Core_1_LLC_writebacks 645284
Core_1_LLC_writeback_hit 631535
Core_1_LLC_writeback_miss 13749


CPU 2 cumulative IPC: 0.56223 instructions: 124206958 cycles: 220917115
Core_2_L1D_total_access 54717557
Core_2_L1D_total_hit 49607057
Core_2_L1D_total_miss 5110500
Core_2_L1D_loads 31336675
Core_2_L1D_load_hit 28597486
Core_2_L1D_load_miss 2739189
Core_2_L1D_RFOs 3249618
Core_2_L1D_RFO_hit 3063355
Core_2_L1D_RFO_miss 186263
Core_2_L1D_prefetches 20131264
Core_2_L1D_prefetch_hit 17946216
Core_2_L1D_prefetch_miss 2185048
Core_2_L1D_writebacks 0
Core_2_L1D_writeback_hit 0
Core_2_L1D_writeback_miss 0

Core_2_L1I_total_access 17457023
Core_2_L1I_total_hit 17446484
Core_2_L1I_total_miss 10539
Core_2_L1I_loads 17457023
Core_2_L1I_load_hit 17446484
Core_2_L1I_load_miss 10539
Core_2_L1I_RFOs 0
Core_2_L1I_RFO_hit 0
Core_2_L1I_RFO_miss 0
Core_2_L1I_prefetches 0
Core_2_L1I_prefetch_hit 0
Core_2_L1I_prefetch_miss 0
Core_2_L1I_writebacks 0
Core_2_L1I_writeback_hit 0
Core_2_L1I_writeback_miss 0

Core_2_L2C_total_access 8477436
Core_2_L2C_total_hit 7309904
Core_2_L2C_total_miss 1167532
Core_2_L2C_loads 2210901
Core_2_L2C_load_hit 1819504
Core_2_L2C_load_miss 391397
Core_2_L2C_RFOs 186253
Core_2_L2C_RFO_hit 7791
Core_2_L2C_RFO_miss 178462
Core_2_L2C_prefetches 5325837
Core_2_L2C_prefetch_hit 4728203
Core_2_L2C_prefetch_miss 597634
Core_2_L2C_writebacks 754445
Core_2_L2C_writeback_hit 754406
Core_2_L2C_writeback_miss 39


Core_2_LLC_total_access 1806820
Core_2_LLC_total_hit 701628
Core_2_LLC_total_miss 1105192
Core_2_LLC_loads 243613
Core_2_LLC_load_hit 15609
Core_2_LLC_load_miss 228004
Core_2_LLC_RFOs 178458
Core_2_LLC_RFO_hit 164
Core_2_LLC_RFO_miss 178294
Core_2_LLC_prefetches 745419
Core_2_LLC_prefetch_hit 59833
Core_2_LLC_prefetch_miss 685586
Core_2_LLC_writebacks 639330
Core_2_LLC_writeback_hit 626022
Core_2_LLC_writeback_miss 13308


CPU 3 cumulative IPC: 0.54388 instructions: 120153146 cycles: 220917115
Core_3_L1D_total_access 52916903
Core_3_L1D_total_hit 48149592
Core_3_L1D_total_miss 4767311
Core_3_L1D_loads 30317002
Core_3_L1D_load_hit 27740096
Core_3_L1D_load_miss 2576906
Core_3_L1D_RFOs 3225407
Core_3_L1D_RFO_hit 3039046
Core_3_L1D_RFO_miss 186361
Core_3_L1D_prefetches 19374494
Core_3_L1D_prefetch_hit 17370450
Core_3_L1D_prefetch_miss 2004044
Core_3_L1D_writebacks 0
Core_3_L1D_writeback_hit 0
Core_3_L1D_writeback_miss 0

Core_3_L1I_total_access 17054989
Core_3_L1I_total_hit 17050052
Core_3_L1I_total_miss 4937
Core_3_L1I_loads 17054989
Core_3_L1I_load_hit 17050052
Core_3_L1I_load_miss 4937
Core_3_L1I_RFOs 0
Core_3_L1I_RFO_hit 0
Core_3_L1I_RFO_miss 0
Core_3_L1I_prefetches 0
Core_3_L1I_prefetch_hit 0
Core_3_L1I_prefetch_miss 0
Core_3_L1I_writebacks 0
Core_3_L1I_writeback_hit 0
Core_3_L1I_writeback_miss 0

Core_3_L2C_total_access 7745579
Core_3_L2C_total_hit 6610737
Core_3_L2C_total_miss 1134842
Core_3_L2C_loads 2028032
Core_3_L2C_load_hit 1627610
Core_3_L2C_load_miss 400422
Core_3_L2C_RFOs 186353
Core_3_L2C_RFO_hit 7975
Core_3_L2C_RFO_miss 178378
Core_3_L2C_prefetches 4784639
Core_3_L2C_prefetch_hit 4228734
Core_3_L2C_prefetch_miss 555905
Core_3_L2C_writebacks 746555
Core_3_L2C_writeback_hit 746418
Core_3_L2C_writeback_miss 137


Core_3_LLC_total_access 1770968
Core_3_LLC_total_hit 695269
Core_3_LLC_total_miss 1075699
Core_3_LLC_loads 255072
Core_3_LLC_load_hit 14300
Core_3_LLC_load_miss 240772
Core_3_LLC_RFOs 178375
Core_3_LLC_RFO_hit 116
Core_3_LLC_RFO_miss 178259
Core_3_LLC_prefetches 701258
Core_3_LLC_prefetch_hit 54592
Core_3_LLC_prefetch_miss 646666
Core_3_LLC_writebacks 636263
Core_3_LLC_writeback_hit 626261
Core_3_LLC_writeback_miss 10002


[ROI Statistics]
Core_0_instructions 120000000
Core_0_cycles 217907736
Core_0_IPC 0.55069

Core_0_branch_prediction_accuracy 99.17659
Core_0_branch_MPKI 0.24127
Core_0_average_ROB_occupancy_at_mispredict 437.40116

Core_0_L1D_total_access 53220795
Core_0_L1D_total_hit 48192251 L1D_total_Hit Ratio: 0.90552
Core_0_L1D_total_miss 5028544
Core_0_L1D_loads 30259167
Core_0_L1D_load_hit 27614941 L1D_load_Hit Ratio: 0.91261
Core_0_L1D_load_miss 2644226
Core_0_L1D_RFOs 3224307
Core_0_L1D_RFO_hit 3037160 L1D_RFO_Hit Ratio: 0.94196
Core_0_L1D_RFO_miss 187147
Core_0_L1D_prefetches 19737321
Core_0_L1D_prefetch_hit 17540150 L1D_prefetch_Hit Ratio: 0.88868
Core_0_L1D_prefetch_miss 2197171
Core_0_L1D_writebacks 0
Core_0_L1D_writeback_hit 0 L1D_writeback_Hit Ratio: -nan
Core_0_L1D_writeback_miss 0
Core_0_L1D_prefetch_requested 42467731
Core_0_L1D_prefetch_issued 29604279
Core_0_L1D_prefetch_useful 1854153 L1D_Useful Ratio: 0.06263
Core_0_L1D_prefetch_useless 486112
Core_0_L1D_prefetch_late 506808
Core_0_L1D_average_miss_latency 16995429.57272

Core_0_L1I_total_access 17036550
Core_0_L1I_total_hit 17031601 L1I_total_Hit Ratio: 0.99971
Core_0_L1I_total_miss 4949
Core_0_L1I_loads 17036550
Core_0_L1I_load_hit 17031601 L1I_load_Hit Ratio: 0.99971
Core_0_L1I_load_miss 4949
Core_0_L1I_RFOs 0
Core_0_L1I_RFO_hit 0 L1I_RFO_Hit Ratio: -nan
Core_0_L1I_RFO_miss 0
Core_0_L1I_prefetches 0
Core_0_L1I_prefetch_hit 0 L1I_prefetch_Hit Ratio: -nan
Core_0_L1I_prefetch_miss 0
Core_0_L1I_writebacks 0
Core_0_L1I_writeback_hit 0 L1I_writeback_Hit Ratio: -nan
Core_0_L1I_writeback_miss 0
Core_0_L1I_prefetch_requested 0
Core_0_L1I_prefetch_issued 0
Core_0_L1I_prefetch_useful 0 L1I_Useful Ratio: -nan
Core_0_L1I_prefetch_useless 0
Core_0_L1I_prefetch_late 0
Core_0_L1I_average_miss_latency 1202.16630

Core_0_L2C_total_access 8427793
Core_0_L2C_total_hit 7295650 L2C_total_Hit Ratio: 0.86567
Core_0_L2C_total_miss 1132143
Core_0_L2C_loads 2169706
Core_0_L2C_load_hit 1785335 L2C_load_Hit Ratio: 0.82285
Core_0_L2C_load_miss 384371
Core_0_L2C_RFOs 187142
Core_0_L2C_RFO_hit 8736 L2C_RFO_Hit Ratio: 0.04668
Core_0_L2C_RFO_miss 178406
Core_0_L2C_prefetches 5324554
Core_0_L2C_prefetch_hit 4755251 L2C_prefetch_Hit Ratio: 0.89308
Core_0_L2C_prefetch_miss 569303
Core_0_L2C_writebacks 746391
Core_0_L2C_writeback_hit 746328 L2C_writeback_Hit Ratio: 0.99992
Core_0_L2C_writeback_miss 63
Core_0_L2C_prefetch_requested 5084718
Core_0_L2C_prefetch_issued 4988300
Core_0_L2C_prefetch_useful 98254 L2C_Useful Ratio: 0.01970
Core_0_L2C_prefetch_useless 490781
Core_0_L2C_prefetch_late 150107
Core_0_L2C_average_miss_latency 850.23031

Core_0_LLC_total_access 1764363
Core_0_LLC_total_hit 689181 LLC_total_Hit Ratio: 0.39061
Core_0_LLC_total_miss 1075182
Core_0_LLC_loads 237628
Core_0_LLC_load_hit 13141 LLC_load_Hit Ratio: 0.05530
Core_0_LLC_load_miss 224487
Core_0_LLC_RFOs 178403
Core_0_LLC_RFO_hit 151 LLC_RFO_Hit Ratio: 0.00085
Core_0_LLC_RFO_miss 178252
Core_0_LLC_prefetches 716046
Core_0_LLC_prefetch_hit 53960 LLC_prefetch_Hit Ratio: 0.07536
Core_0_LLC_prefetch_miss 662086
Core_0_LLC_writebacks 632286
Core_0_LLC_writeback_hit 621929 LLC_writeback_Hit Ratio: 0.98362
Core_0_LLC_writeback_miss 10357
Core_0_LLC_prefetch_requested 0
Core_0_LLC_prefetch_issued 0
Core_0_LLC_prefetch_useful 35914 LLC_Useful Ratio: inf
Core_0_LLC_prefetch_useless 2493655
Core_0_LLC_prefetch_late 0
Core_0_LLC_average_miss_latency 3475.39059

Core_0_major_page_fault 0
Core_0_minor_page_fault 8740

Core_1_instructions 120000002
Core_1_cycles 220917115
Core_1_IPC 0.54319

Core_1_branch_prediction_accuracy 99.19469
Core_1_branch_MPKI 0.24154
Core_1_average_ROB_occupancy_at_mispredict 446.96060

Core_1_L1D_total_access 52887829
Core_1_L1D_total_hit 48131325 L1D_total_Hit Ratio: 0.91006
Core_1_L1D_total_miss 4756504
Core_1_L1D_loads 30273094
Core_1_L1D_load_hit 27703470 L1D_load_Hit Ratio: 0.91512
Core_1_L1D_load_miss 2569624
Core_1_L1D_RFOs 3225461
Core_1_L1D_RFO_hit 3039136 L1D_RFO_Hit Ratio: 0.94223
Core_1_L1D_RFO_miss 186325
Core_1_L1D_prefetches 19389274
Core_1_L1D_prefetch_hit 17388719 L1D_prefetch_Hit Ratio: 0.89682
Core_1_L1D_prefetch_miss 2000555
Core_1_L1D_writebacks 0
Core_1_L1D_writeback_hit 0 L1D_writeback_Hit Ratio: -nan
Core_1_L1D_writeback_miss 0
Core_1_L1D_prefetch_requested 40265451
Core_1_L1D_prefetch_issued 28658349
Core_1_L1D_prefetch_useful 1831941 L1D_Useful Ratio: 0.06392
Core_1_L1D_prefetch_useless 186091
Core_1_L1D_prefetch_late 552249
Core_1_L1D_average_miss_latency 20167006.09788

Core_1_L1I_total_access 17040792
Core_1_L1I_total_hit 17035850 L1I_total_Hit Ratio: 0.99971
Core_1_L1I_total_miss 4942
Core_1_L1I_loads 17040792
Core_1_L1I_load_hit 17035850 L1I_load_Hit Ratio: 0.99971
Core_1_L1I_load_miss 4942
Core_1_L1I_RFOs 0
Core_1_L1I_RFO_hit 0 L1I_RFO_Hit Ratio: -nan
Core_1_L1I_RFO_miss 0
Core_1_L1I_prefetches 0
Core_1_L1I_prefetch_hit 0 L1I_prefetch_Hit Ratio: -nan
Core_1_L1I_prefetch_miss 0
Core_1_L1I_writebacks 0
Core_1_L1I_writeback_hit 0 L1I_writeback_Hit Ratio: -nan
Core_1_L1I_writeback_miss 0
Core_1_L1I_prefetch_requested 0
Core_1_L1I_prefetch_issued 0
Core_1_L1I_prefetch_useful 0 L1I_Useful Ratio: -nan
Core_1_L1I_prefetch_useless 0
Core_1_L1I_prefetch_late 0
Core_1_L1I_average_miss_latency 985.92372

Core_1_L2C_total_access 7675299
Core_1_L2C_total_hit 6528978 L2C_total_Hit Ratio: 0.85065
Core_1_L2C_total_miss 1146321
Core_1_L2C_loads 2022385
Core_1_L2C_load_hit 1617372 L2C_load_Hit Ratio: 0.79973
Core_1_L2C_load_miss 405013
Core_1_L2C_RFOs 186319
Core_1_L2C_RFO_hit 7808 L2C_RFO_Hit Ratio: 0.04191
Core_1_L2C_RFO_miss 178511
Core_1_L2C_prefetches 4720206
Core_1_L2C_prefetch_hit 4157454 L2C_prefetch_Hit Ratio: 0.88078
Core_1_L2C_prefetch_miss 562752
Core_1_L2C_writebacks 746389
Core_1_L2C_writeback_hit 746344 L2C_writeback_Hit Ratio: 0.99994
Core_1_L2C_writeback_miss 45
Core_1_L2C_prefetch_requested 4454555
Core_1_L2C_prefetch_issued 4418903
Core_1_L2C_prefetch_useful 86428 L2C_Useful Ratio: 0.01956
Core_1_L2C_prefetch_useless 471935
Core_1_L2C_prefetch_late 146339
Core_1_L2C_average_miss_latency 841.50709

Core_1_LLC_total_access 1791550
Core_1_LLC_total_hit 712764 LLC_total_Hit Ratio: 0.39785
Core_1_LLC_total_miss 1078786
Core_1_LLC_loads 259130
Core_1_LLC_load_hit 18096 LLC_load_Hit Ratio: 0.06983
Core_1_LLC_load_miss 241034
Core_1_LLC_RFOs 178507
Core_1_LLC_RFO_hit 130 LLC_RFO_Hit Ratio: 0.00073
Core_1_LLC_RFO_miss 178377
Core_1_LLC_prefetches 708629
Core_1_LLC_prefetch_hit 63003 LLC_prefetch_Hit Ratio: 0.08891
Core_1_LLC_prefetch_miss 645626
Core_1_LLC_writebacks 645284
Core_1_LLC_writeback_hit 631535 LLC_writeback_Hit Ratio: 0.97869
Core_1_LLC_writeback_miss 13749
Core_1_LLC_prefetch_requested 0
Core_1_LLC_prefetch_issued 0
Core_1_LLC_prefetch_useful 35914 LLC_Useful Ratio: inf
Core_1_LLC_prefetch_useless 2493655
Core_1_LLC_prefetch_late 0
Core_1_LLC_average_miss_latency 3463.78003

Core_1_major_page_fault 0
Core_1_minor_page_fault 8629

Core_2_instructions 120000005
Core_2_cycles 217714761
Core_2_IPC 0.55118

Core_2_branch_prediction_accuracy 99.17738
Core_2_branch_MPKI 0.24070
Core_2_average_ROB_occupancy_at_mispredict 437.36763

Core_2_L1D_total_access 52944283
Core_2_L1D_total_hit 48100163 L1D_total_Hit Ratio: 0.90851
Core_2_L1D_total_miss 4844120
Core_2_L1D_loads 30262954
Core_2_L1D_load_hit 27669732 L1D_load_Hit Ratio: 0.91431
Core_2_L1D_load_miss 2593222
Core_2_L1D_RFOs 3225475
Core_2_L1D_RFO_hit 3039522 L1D_RFO_Hit Ratio: 0.94235
Core_2_L1D_RFO_miss 185953
Core_2_L1D_prefetches 19455854
Core_2_L1D_prefetch_hit 17390909 L1D_prefetch_Hit Ratio: 0.89387
Core_2_L1D_prefetch_miss 2064945
Core_2_L1D_writebacks 0
Core_2_L1D_writeback_hit 0 L1D_writeback_Hit Ratio: -nan
Core_2_L1D_writeback_miss 0
Core_2_L1D_prefetch_requested 41981034
Core_2_L1D_prefetch_issued 29535079
Core_2_L1D_prefetch_useful 1907853 L1D_Useful Ratio: 0.06460
Core_2_L1D_prefetch_useless 294513
Core_2_L1D_prefetch_late 539025
Core_2_L1D_average_miss_latency 19028236.02508

Core_2_L1I_total_access 17037832
Core_2_L1I_total_hit 17032891 L1I_total_Hit Ratio: 0.99971
Core_2_L1I_total_miss 4941
Core_2_L1I_loads 17037832
Core_2_L1I_load_hit 17032891 L1I_load_Hit Ratio: 0.99971
Core_2_L1I_load_miss 4941
Core_2_L1I_RFOs 0
Core_2_L1I_RFO_hit 0 L1I_RFO_Hit Ratio: -nan
Core_2_L1I_RFO_miss 0
Core_2_L1I_prefetches 0
Core_2_L1I_prefetch_hit 0 L1I_prefetch_Hit Ratio: -nan
Core_2_L1I_prefetch_miss 0
Core_2_L1I_writebacks 0
Core_2_L1I_writeback_hit 0 L1I_writeback_Hit Ratio: -nan
Core_2_L1I_writeback_miss 0
Core_2_L1I_prefetch_requested 0
Core_2_L1I_prefetch_issued 0
Core_2_L1I_prefetch_useful 0 L1I_Useful Ratio: -nan
Core_2_L1I_prefetch_useless 0
Core_2_L1I_prefetch_late 0
Core_2_L1I_average_miss_latency 1158.08480

Core_2_L2C_total_access 8048562
Core_2_L2C_total_hit 6910743 L2C_total_Hit Ratio: 0.85863
Core_2_L2C_total_miss 1137819
Core_2_L2C_loads 2088523
Core_2_L2C_load_hit 1707155 L2C_load_Hit Ratio: 0.81740
Core_2_L2C_load_miss 381368
Core_2_L2C_RFOs 185946
Core_2_L2C_RFO_hit 7552 L2C_RFO_Hit Ratio: 0.04061
Core_2_L2C_RFO_miss 178394
Core_2_L2C_prefetches 5027702
Core_2_L2C_prefetch_hit 4449684 L2C_prefetch_Hit Ratio: 0.88503
Core_2_L2C_prefetch_miss 578018
Core_2_L2C_writebacks 746391
Core_2_L2C_writeback_hit 746352 L2C_writeback_Hit Ratio: 0.99995
Core_2_L2C_writeback_miss 39
Core_2_L2C_prefetch_requested 4853986
Core_2_L2C_prefetch_issued 4776657
Core_2_L2C_prefetch_useful 103206 L2C_Useful Ratio: 0.02161
Core_2_L2C_prefetch_useless 493193
Core_2_L2C_prefetch_late 148529
Core_2_L2C_average_miss_latency 840.06457

Core_2_LLC_total_access 1773356
Core_2_LLC_total_hit 695220 LLC_total_Hit Ratio: 0.39204
Core_2_LLC_total_miss 1078136
Core_2_LLC_loads 235933
Core_2_LLC_load_hit 14832 LLC_load_Hit Ratio: 0.06287
Core_2_LLC_load_miss 221101
Core_2_LLC_RFOs 178391
Core_2_LLC_RFO_hit 153 LLC_RFO_Hit Ratio: 0.00086
Core_2_LLC_RFO_miss 178238
Core_2_LLC_prefetches 723453
Core_2_LLC_prefetch_hit 57883 LLC_prefetch_Hit Ratio: 0.08001
Core_2_LLC_prefetch_miss 665570
Core_2_LLC_writebacks 635579
Core_2_LLC_writeback_hit 622352 LLC_writeback_Hit Ratio: 0.97919
Core_2_LLC_writeback_miss 13227
Core_2_LLC_prefetch_requested 0
Core_2_LLC_prefetch_issued 0
Core_2_LLC_prefetch_useful 35914 LLC_Useful Ratio: inf
Core_2_LLC_prefetch_useless 2493655
Core_2_LLC_prefetch_late 0
Core_2_LLC_average_miss_latency 3465.86832

Core_2_major_page_fault 0
Core_2_minor_page_fault 8740

Core_3_instructions 120000005
Core_3_cycles 220813441
Core_3_IPC 0.54345

Core_3_branch_prediction_accuracy 99.19478
Core_3_branch_MPKI 0.24128
Core_3_average_ROB_occupancy_at_mispredict 446.93622

Core_3_L1D_total_access 52850237
Core_3_L1D_total_hit 48093634 L1D_total_Hit Ratio: 0.91000
Core_3_L1D_total_miss 4756603
Core_3_L1D_loads 30274976
Core_3_L1D_load_hit 27703998 L1D_load_Hit Ratio: 0.91508
Core_3_L1D_load_miss 2570978
Core_3_L1D_RFOs 3225069
Core_3_L1D_RFO_hit 3038732 L1D_RFO_Hit Ratio: 0.94222
Core_3_L1D_RFO_miss 186337
Core_3_L1D_prefetches 19350192
Core_3_L1D_prefetch_hit 17350904 L1D_prefetch_Hit Ratio: 0.89668
Core_3_L1D_prefetch_miss 1999288
Core_3_L1D_writebacks 0
Core_3_L1D_writeback_hit 0 L1D_writeback_Hit Ratio: -nan
Core_3_L1D_writeback_miss 0
Core_3_L1D_prefetch_requested 39947830
Core_3_L1D_prefetch_issued 28885824
Core_3_L1D_prefetch_useful 1834641 L1D_Useful Ratio: 0.06351
Core_3_L1D_prefetch_useless 186681
Core_3_L1D_prefetch_late 554025
Core_3_L1D_average_miss_latency 20283706.63706

Core_3_L1I_total_access 17039967
Core_3_L1I_total_hit 17035030 L1I_total_Hit Ratio: 0.99971
Core_3_L1I_total_miss 4937
Core_3_L1I_loads 17039967
Core_3_L1I_load_hit 17035030 L1I_load_Hit Ratio: 0.99971
Core_3_L1I_load_miss 4937
Core_3_L1I_RFOs 0
Core_3_L1I_RFO_hit 0 L1I_RFO_Hit Ratio: -nan
Core_3_L1I_RFO_miss 0
Core_3_L1I_prefetches 0
Core_3_L1I_prefetch_hit 0 L1I_prefetch_Hit Ratio: -nan
Core_3_L1I_prefetch_miss 0
Core_3_L1I_writebacks 0
Core_3_L1I_writeback_hit 0 L1I_writeback_Hit Ratio: -nan
Core_3_L1I_writeback_miss 0
Core_3_L1I_prefetch_requested 0
Core_3_L1I_prefetch_issued 0
Core_3_L1I_prefetch_useful 0 L1I_Useful Ratio: -nan
Core_3_L1I_prefetch_useless 0
Core_3_L1I_prefetch_late 0
Core_3_L1I_average_miss_latency 1003.18675

Core_3_L2C_total_access 7729480
Core_3_L2C_total_hit 6595495 L2C_total_Hit Ratio: 0.85329
Core_3_L2C_total_miss 1133985
Core_3_L2C_loads 2023399
Core_3_L2C_load_hit 1623102 L2C_load_Hit Ratio: 0.80217
Core_3_L2C_load_miss 400297
Core_3_L2C_RFOs 186329
Core_3_L2C_RFO_hit 7951 L2C_RFO_Hit Ratio: 0.04267
Core_3_L2C_RFO_miss 178378
Core_3_L2C_prefetches 4773364
Core_3_L2C_prefetch_hit 4218191 L2C_prefetch_Hit Ratio: 0.88369
Core_3_L2C_prefetch_miss 555173
Core_3_L2C_writebacks 746388
Core_3_L2C_writeback_hit 746251 L2C_writeback_Hit Ratio: 0.99982
Core_3_L2C_writeback_miss 137
Core_3_L2C_prefetch_requested 4489776
Core_3_L2C_prefetch_issued 4445955
Core_3_L2C_prefetch_useful 79750 L2C_Useful Ratio: 0.01794
Core_3_L2C_prefetch_useless 468691
Core_3_L2C_prefetch_late 146218
Core_3_L2C_average_miss_latency 847.05953

Core_3_LLC_total_access 1769901
Core_3_LLC_total_hit 695059 LLC_total_Hit Ratio: 0.39271
Core_3_LLC_total_miss 1074842
Core_3_LLC_loads 254959
Core_3_LLC_load_hit 14300 LLC_load_Hit Ratio: 0.05609
Core_3_LLC_load_miss 240659
Core_3_LLC_RFOs 178375
Core_3_LLC_RFO_hit 116 LLC_RFO_Hit Ratio: 0.00065
Core_3_LLC_RFO_miss 178259
Core_3_LLC_prefetches 700514
Core_3_LLC_prefetch_hit 54592 LLC_prefetch_Hit Ratio: 0.07793
Core_3_LLC_prefetch_miss 645922
Core_3_LLC_writebacks 636053
Core_3_LLC_writeback_hit 626051 LLC_writeback_Hit Ratio: 0.98427
Core_3_LLC_writeback_miss 10002
Core_3_LLC_prefetch_requested 0
Core_3_LLC_prefetch_issued 0
Core_3_LLC_prefetch_useful 35914 LLC_Useful Ratio: inf
Core_3_LLC_prefetch_useless 2493655
Core_3_LLC_prefetch_late 0
Core_3_LLC_average_miss_latency 3476.48995

Core_3_major_page_fault 0
Core_3_minor_page_fault 8632





Channel_0_RQ_row_buffer_hit 1672532
Channel_0_RQ_row_buffer_miss 2639864
Channel_0_WQ_row_buffer_hit 866755
Channel_0_WQ_row_buffer_miss 1595655
Channel_0_WQ_full 1203
Channel_0_dbus_congested 4408055

avg_congested_cycle 10

EzSearch AVG IPC :0.55069: L2-Pf-HR :0.89308 : L2-HR :0.86878 Uful:0.01970
EzSearch AVG IPC :0.54319: L2-Pf-HR :0.88078 : L2-HR :0.85065 Uful:0.01956
EzSearch AVG IPC :0.55118: L2-Pf-HR :0.88503 : L2-HR :0.86228 Uful:0.02161
EzSearch AVG IPC :0.54345: L2-Pf-HR :0.88369 : L2-HR :0.85349 Uful:0.01794
     > Finished combination: TraceType=770-tot Sim:120000000 Prefetcher=L2ipcp L1=ipcp
