TRACE: [21000000]_FE_[Pythia-70M]_[h8]_[s256]_[d64] Warmup: 2000000 NumTraces: 21000000
L1:no:L2:no
*************************************************
   ChampSim Multicore Out-of-Order Simulator
   Last compiled: Oct 28 2024 16:42:08
*************************************************

trace_0 770-tot_memTraces_v3/memTraces[21000000]_FE_[Pythia-70M]_[h8]_[s256]_[d64].champsim.xz
trace_1 770-tot_memTraces_v3/memTraces[21000000]_FE_[Pythia-70M]_[h8]_[s256]_[d64].champsim.xz
trace_2 770-tot_memTraces_v3/memTraces[21000000]_FE_[Pythia-70M]_[h8]_[s256]_[d64].champsim.xz
trace_3 770-tot_memTraces_v3/memTraces[21000000]_FE_[Pythia-70M]_[h8]_[s256]_[d64].champsim.xz
MAIN.cc ln 751 stats print skipped
CPU  1 inst:    1000001 cyc:     500736 now IPC :1.99706: AVG IPC :1.99706: L2-Pf-HR :-nan: L2-HR :0.66161: (Sim:0h1m37s) 
CPU  2 inst:    1000001 cyc:     501139 now IPC :1.99546: AVG IPC :1.99546: L2-Pf-HR :-nan: L2-HR :0.66162: (Sim:0h1m37s) 
CPU  3 inst:    1000001 cyc:     501160 now IPC :1.99537: AVG IPC :1.99537: L2-Pf-HR :-nan: L2-HR :0.66162: (Sim:0h1m37s) 
CPU  0 inst:    1000001 cyc:     501161 now IPC :1.99537: AVG IPC :1.99537: L2-Pf-HR :-nan: L2-HR :0.66161: (Sim:0h1m37s) 
CPU  1 inst:    2000003 cyc:     988604 now IPC :2.04974: AVG IPC :2.02306: L2-Pf-HR :-nan: L2-HR :0.72241: (Sim:0h3m19s) 
CPU  3 inst:    2000003 cyc:     988919 now IPC :2.05020: AVG IPC :2.02241: L2-Pf-HR :-nan: L2-HR :0.71484: (Sim:0h3m19s) 
CPU  2 inst:    2000003 cyc:     989099 now IPC :2.04935: AVG IPC :2.02205: L2-Pf-HR :-nan: L2-HR :0.72250: (Sim:0h3m19s) 
CPU  0 inst:    2000003 cyc:     989100 now IPC :2.04944: AVG IPC :2.02204: L2-Pf-HR :-nan: L2-HR :0.72249: (Sim:0h3m19s) 

Warmup complete CPU  0 instructions:    2000003 cycles:     989100 (Simulation time: 0 hr 3 min 19 sec) 
Warmup complete CPU  1 instructions:    2000974 cycles:     989099 (Simulation time: 0 hr 3 min 19 sec) 
Warmup complete CPU  2 instructions:    2000003 cycles:     989099 (Simulation time: 0 hr 3 min 19 sec) 
Warmup complete CPU  3 instructions:    2000321 cycles:     989099 (Simulation time: 0 hr 3 min 19 sec) 

CPU  1 inst:    3000005 cyc:    1767440 now IPC :1.28397: AVG IPC :1.28354: L2-Pf-HR :-nan: L2-HR :0.78713: (Sim:0h4m57s) 
CPU  2 inst:    3000005 cyc:    1767644 now IPC :1.28445: AVG IPC :1.28445: L2-Pf-HR :-nan: L2-HR :0.78748: (Sim:0h4m57s) 
CPU  3 inst:    3000005 cyc:    1768864 now IPC :1.28214: AVG IPC :1.28203: L2-Pf-HR :-nan: L2-HR :0.78344: (Sim:0h4m57s) 
CPU  0 inst:    3000005 cyc:    1769238 now IPC :1.28183: AVG IPC :1.28183: L2-Pf-HR :-nan: L2-HR :0.78744: (Sim:0h4m57s) 
CPU  2 inst:    4000004 cyc:    2563787 now IPC :1.25605: AVG IPC :1.27009: L2-Pf-HR :-nan: L2-HR :0.78653: (Sim:0h6m34s) 
CPU  1 inst:    4000004 cyc:    2564091 now IPC :1.25525: AVG IPC :1.26923: L2-Pf-HR :-nan: L2-HR :0.78643: (Sim:0h6m34s) 
CPU  0 inst:    4000004 cyc:    2567622 now IPC :1.25253: AVG IPC :1.26701: L2-Pf-HR :-nan: L2-HR :0.78654: (Sim:0h6m34s) 
CPU  3 inst:    4000004 cyc:    2567826 now IPC :1.25162: AVG IPC :1.26664: L2-Pf-HR :-nan: L2-HR :0.78458: (Sim:0h6m34s) 
CPU  2 inst:    5000000 cyc:    3367472 now IPC :1.24426: AVG IPC :1.26137: L2-Pf-HR :-nan: L2-HR :0.78623: (Sim:0h8m11s) 
CPU  0 inst:    5000000 cyc:    3370646 now IPC :1.24529: AVG IPC :1.25968: L2-Pf-HR :-nan: L2-HR :0.78624: (Sim:0h8m12s) 
CPU  3 inst:    5000000 cyc:    3372822 now IPC :1.24224: AVG IPC :1.25840: L2-Pf-HR :-nan: L2-HR :0.78493: (Sim:0h8m12s) 
CPU  1 inst:    5000000 cyc:    3373325 now IPC :1.23573: AVG IPC :1.25786: L2-Pf-HR :-nan: L2-HR :0.78616: (Sim:0h8m12s) 
CPU  2 inst:    6000003 cyc:    4176961 now IPC :1.23535: AVG IPC :1.25476: L2-Pf-HR :-nan: L2-HR :0.78655: (Sim:0h9m49s) 
CPU  0 inst:    6000003 cyc:    4183376 now IPC :1.23042: AVG IPC :1.25224: L2-Pf-HR :-nan: L2-HR :0.78656: (Sim:0h9m50s) 
CPU  3 inst:    6000003 cyc:    4186643 now IPC :1.22878: AVG IPC :1.25086: L2-Pf-HR :-nan: L2-HR :0.78558: (Sim:0h9m50s) 
CPU  1 inst:    6000003 cyc:    4186947 now IPC :1.22908: AVG IPC :1.25054: L2-Pf-HR :-nan: L2-HR :0.78650: (Sim:0h9m50s) 
CPU  2 inst:    7000003 cyc:    4959688 now IPC :1.27758: AVG IPC :1.25926: L2-Pf-HR :-nan: L2-HR :0.78693: (Sim:0h11m26s) 
CPU  0 inst:    7000003 cyc:    4964070 now IPC :1.28091: AVG IPC :1.25787: L2-Pf-HR :-nan: L2-HR :0.78693: (Sim:0h11m27s) 
CPU  1 inst:    7000003 cyc:    4966691 now IPC :1.28247: AVG IPC :1.25680: L2-Pf-HR :-nan: L2-HR :0.78689: (Sim:0h11m27s) 
CPU  3 inst:    7000003 cyc:    4967303 now IPC :1.28097: AVG IPC :1.25677: L2-Pf-HR :-nan: L2-HR :0.78615: (Sim:0h11m27s) 
CPU  2 inst:    8000002 cyc:    5802094 now IPC :1.18707: AVG IPC :1.24662: L2-Pf-HR :-nan: L2-HR :0.78613: (Sim:0h13m5s) 
CPU  0 inst:    8000002 cyc:    5803006 now IPC :1.19198: AVG IPC :1.24639: L2-Pf-HR :-nan: L2-HR :0.78613: (Sim:0h13m6s) 
CPU  3 inst:    8000002 cyc:    5807863 now IPC :1.18968: AVG IPC :1.24507: L2-Pf-HR :-nan: L2-HR :0.78548: (Sim:0h13m6s) 
CPU  1 inst:    8000002 cyc:    5813967 now IPC :1.18025: AVG IPC :1.24336: L2-Pf-HR :-nan: L2-HR :0.78609: (Sim:0h13m7s) 
CPU  0 inst:    9000000 cyc:    8428207 now IPC :0.38092: AVG IPC :0.94097: L2-Pf-HR :-nan: L2-HR :0.69872: (Sim:0h16m8s) 
CPU  3 inst:    9000000 cyc:    8467290 now IPC :0.37602: AVG IPC :0.93601: L2-Pf-HR :-nan: L2-HR :0.69827: (Sim:0h16m10s) 
CPU  2 inst:    9000000 cyc:    8483500 now IPC :0.37294: AVG IPC :0.93403: L2-Pf-HR :-nan: L2-HR :0.70188: (Sim:0h16m11s) 
CPU  1 inst:    9000000 cyc:    8503537 now IPC :0.37181: AVG IPC :0.93141: L2-Pf-HR :-nan: L2-HR :0.70014: (Sim:0h16m12s) 
CPU  3 inst:   10000000 cyc:   12421797 now IPC :0.25288: AVG IPC :0.69972: L2-Pf-HR :-nan: L2-HR :0.66623: (Sim:0h19m41s) 
CPU  1 inst:   10000000 cyc:   12472983 now IPC :0.25192: AVG IPC :0.69654: L2-Pf-HR :-nan: L2-HR :0.66842: (Sim:0h19m43s) 
CPU  2 inst:   10000000 cyc:   12490274 now IPC :0.24958: AVG IPC :0.69558: L2-Pf-HR :-nan: L2-HR :0.66952: (Sim:0h19m44s) 
CPU  0 inst:   10000000 cyc:   12497340 now IPC :0.24575: AVG IPC :0.69515: L2-Pf-HR :-nan: L2-HR :0.66664: (Sim:0h19m45s) 
CPU  1 inst:   11000000 cyc:   16818839 now IPC :0.23010: AVG IPC :0.56849: L2-Pf-HR :-nan: L2-HR :0.64137: (Sim:0h23m0s) 
CPU  2 inst:   11000000 cyc:   16890096 now IPC :0.22728: AVG IPC :0.56600: L2-Pf-HR :-nan: L2-HR :0.64351: (Sim:0h23m4s) 
CPU  3 inst:   11000000 cyc:   17094065 now IPC :0.21403: AVG IPC :0.55881: L2-Pf-HR :-nan: L2-HR :0.63937: (Sim:0h23m15s) 
CPU  0 inst:   11000000 cyc:   17154498 now IPC :0.21472: AVG IPC :0.55674: L2-Pf-HR :-nan: L2-HR :0.63975: (Sim:0h23m19s) 
CPU  2 inst:   12000000 cyc:   21702057 now IPC :0.20782: AVG IPC :0.48279: L2-Pf-HR :-nan: L2-HR :0.62034: (Sim:0h27m22s) 
CPU  1 inst:   12000000 cyc:   21905855 now IPC :0.19658: AVG IPC :0.47804: L2-Pf-HR :-nan: L2-HR :0.61837: (Sim:0h27m32s) 
CPU  0 inst:   12000000 cyc:   22136837 now IPC :0.20071: AVG IPC :0.47286: L2-Pf-HR :-nan: L2-HR :0.61686: (Sim:0h27m44s) 
CPU  3 inst:   12000000 cyc:   22144960 now IPC :0.19798: AVG IPC :0.47267: L2-Pf-HR :-nan: L2-HR :0.61651: (Sim:0h27m45s) 
CPU  2 inst:   13000000 cyc:   26839288 now IPC :0.19466: AVG IPC :0.42553: L2-Pf-HR :-nan: L2-HR :0.60040: (Sim:0h31m57s) 
CPU  1 inst:   13000000 cyc:   27083181 now IPC :0.19315: AVG IPC :0.42151: L2-Pf-HR :-nan: L2-HR :0.59856: (Sim:0h32m8s) 
CPU  3 inst:   13000000 cyc:   27328626 now IPC :0.19291: AVG IPC :0.41761: L2-Pf-HR :-nan: L2-HR :0.59683: (Sim:0h32m23s) 
CPU  0 inst:   13000000 cyc:   27457104 now IPC :0.18796: AVG IPC :0.41560: L2-Pf-HR :-nan: L2-HR :0.59716: (Sim:0h32m30s) 
CPU  2 inst:   14000000 cyc:   28283733 now IPC :0.69231: AVG IPC :0.43965: L2-Pf-HR :-nan: L2-HR :0.64537: (Sim:0h33m48s) 
CPU  1 inst:   14000004 cyc:   28596160 now IPC :0.66095: AVG IPC :0.43464: L2-Pf-HR :-nan: L2-HR :0.64383: (Sim:0h34m27s) 
CPU  3 inst:   14000004 cyc:   28881347 now IPC :0.64403: AVG IPC :0.43022: L2-Pf-HR :-nan: L2-HR :0.64238: (Sim:0h35m0s) 
CPU  0 inst:   14000004 cyc:   28964962 now IPC :0.66320: AVG IPC :0.42894: L2-Pf-HR :-nan: L2-HR :0.64265: (Sim:0h35m12s) 
CPU  2 inst:   15000005 cyc:   29326003 now IPC :0.95945: AVG IPC :0.45877: L2-Pf-HR :-nan: L2-HR :0.68187: (Sim:0h35m56s) 
CPU  1 inst:   15000005 cyc:   29645161 now IPC :0.95329: AVG IPC :0.45362: L2-Pf-HR :-nan: L2-HR :0.68055: (Sim:0h36m36s) 
CPU  3 inst:   15000005 cyc:   29930699 now IPC :0.95297: AVG IPC :0.44917: L2-Pf-HR :-nan: L2-HR :0.67928: (Sim:0h37m10s) 
CPU  0 inst:   15000005 cyc:   30020465 now IPC :0.94742: AVG IPC :0.44779: L2-Pf-HR :-nan: L2-HR :0.67953: (Sim:0h37m22s) 
CPU  2 inst:   16000004 cyc:   30274585 now IPC :1.05420: AVG IPC :0.47805: L2-Pf-HR :-nan: L2-HR :0.70958: (Sim:0h37m56s) 
CPU  1 inst:   16000004 cyc:   30616900 now IPC :1.02908: AVG IPC :0.47250: L2-Pf-HR :-nan: L2-HR :0.70842: (Sim:0h38m41s) 
CPU  3 inst:   16000004 cyc:   30845909 now IPC :1.09264: AVG IPC :0.46889: L2-Pf-HR :-nan: L2-HR :0.70731: (Sim:0h39m9s) 
CPU  0 inst:   16000004 cyc:   30949836 now IPC :1.07600: AVG IPC :0.46728: L2-Pf-HR :-nan: L2-HR :0.70752: (Sim:0h39m20s) 
CPU  2 inst:   17000004 cyc:   31255619 now IPC :1.01933: AVG IPC :0.49560: L2-Pf-HR :-nan: L2-HR :0.73145: (Sim:0h39m58s) 
CPU  1 inst:   17000002 cyc:   31574764 now IPC :1.04399: AVG IPC :0.49039: L2-Pf-HR :-nan: L2-HR :0.73042: (Sim:0h40m46s) 
CPU  3 inst:   17000002 cyc:   31768854 now IPC :1.08349: AVG IPC :0.48732: L2-Pf-HR :-nan: L2-HR :0.72943: (Sim:0h41m15s) 
CPU  0 inst:   17000004 cyc:   31872131 now IPC :1.08425: AVG IPC :0.48570: L2-Pf-HR :-nan: L2-HR :0.72961: (Sim:0h41m25s) 
CPU  2 inst:   18000000 cyc:   32176882 now IPC :1.08546: AVG IPC :0.51302: L2-Pf-HR :-nan: L2-HR :0.74981: (Sim:0h42m2s) 
Finished CPU 2 instr: 16000003 cyc: 31187784 AVG IPC: 0.51302 (Sim time: 0h42m2s)
CPU  1 inst:   18000000 cyc:   32521580 now IPC :1.05617: AVG IPC :0.50738: L2-Pf-HR :-nan: L2-HR :0.74888: (Sim:0h42m47s) 
Finished CPU 1 instr: 16000000 cyc: 31533613 AVG IPC: 0.50740 (Sim time: 0h42m47s)
CPU  3 inst:   18000000 cyc:   32739928 now IPC :1.02979: AVG IPC :0.50391: L2-Pf-HR :-nan: L2-HR :0.74798: (Sim:0h43m16s) 
Finished CPU 3 instr: 16000001 cyc: 31751375 AVG IPC: 0.50392 (Sim time: 0h43m16s)
CPU  0 inst:   18000000 cyc:   32835463 now IPC :1.03806: AVG IPC :0.50241: L2-Pf-HR :-nan: L2-HR :0.74816: (Sim:0h43m28s) 
Finished CPU 0 instr: 16000003 cyc: 31846364 AVG IPC: 0.50241 (Sim time: 0h43m28s)

ChampSim completed all CPUs

Total Simulation Statistics (not including warmup)

CPU 0 cumulative IPC: 0.50241 instructions: 16000003 cycles: 31846364
Core_0_L1D_total_access 4458779
Core_0_L1D_total_hit 3898175
Core_0_L1D_total_miss 560604
Core_0_L1D_loads 3918949
Core_0_L1D_load_hit 3391759
Core_0_L1D_load_miss 527190
Core_0_L1D_RFOs 539830
Core_0_L1D_RFO_hit 506416
Core_0_L1D_RFO_miss 33414
Core_0_L1D_prefetches 0
Core_0_L1D_prefetch_hit 0
Core_0_L1D_prefetch_miss 0
Core_0_L1D_writebacks 0
Core_0_L1D_writeback_hit 0
Core_0_L1D_writeback_miss 0

Core_0_L1I_total_access 2212837
Core_0_L1I_total_hit 2208130
Core_0_L1I_total_miss 4707
Core_0_L1I_loads 2212837
Core_0_L1I_load_hit 2208130
Core_0_L1I_load_miss 4707
Core_0_L1I_RFOs 0
Core_0_L1I_RFO_hit 0
Core_0_L1I_RFO_miss 0
Core_0_L1I_prefetches 0
Core_0_L1I_prefetch_hit 0
Core_0_L1I_prefetch_miss 0
Core_0_L1I_writebacks 0
Core_0_L1I_writeback_hit 0
Core_0_L1I_writeback_miss 0

Core_0_L2C_total_access 677454
Core_0_L2C_total_hit 506841
Core_0_L2C_total_miss 170613
Core_0_L2C_loads 531897
Core_0_L2C_load_hit 394258
Core_0_L2C_load_miss 137639
Core_0_L2C_RFOs 33414
Core_0_L2C_RFO_hit 445
Core_0_L2C_RFO_miss 32969
Core_0_L2C_prefetches 0
Core_0_L2C_prefetch_hit 0
Core_0_L2C_prefetch_miss 0
Core_0_L2C_writebacks 112143
Core_0_L2C_writeback_hit 112138
Core_0_L2C_writeback_miss 5

Core_0_LLC_total_access 271500
Core_0_LLC_total_hit 144152
Core_0_LLC_total_miss 127348
Core_0_LLC_loads 137639
Core_0_LLC_load_hit 45805
Core_0_LLC_load_miss 91834
Core_0_LLC_RFOs 32969
Core_0_LLC_RFO_hit 31
Core_0_LLC_RFO_miss 32938
Core_0_LLC_prefetches 0
Core_0_LLC_prefetch_hit 0
Core_0_LLC_prefetch_miss 0
Core_0_LLC_writebacks 100892
Core_0_LLC_writeback_hit 98316
Core_0_LLC_writeback_miss 2576


CPU 1 cumulative IPC: 0.51153 instructions: 16290428 cycles: 31846365
Core_1_L1D_total_access 4535168
Core_1_L1D_total_hit 3955256
Core_1_L1D_total_miss 579912
Core_1_L1D_loads 3994374
Core_1_L1D_load_hit 3447892
Core_1_L1D_load_miss 546482
Core_1_L1D_RFOs 540794
Core_1_L1D_RFO_hit 507364
Core_1_L1D_RFO_miss 33430
Core_1_L1D_prefetches 0
Core_1_L1D_prefetch_hit 0
Core_1_L1D_prefetch_miss 0
Core_1_L1D_writebacks 0
Core_1_L1D_writeback_hit 0
Core_1_L1D_writeback_miss 0

Core_1_L1I_total_access 2243428
Core_1_L1I_total_hit 2238722
Core_1_L1I_total_miss 4706
Core_1_L1I_loads 2243428
Core_1_L1I_load_hit 2238722
Core_1_L1I_load_miss 4706
Core_1_L1I_RFOs 0
Core_1_L1I_RFO_hit 0
Core_1_L1I_RFO_miss 0
Core_1_L1I_prefetches 0
Core_1_L1I_prefetch_hit 0
Core_1_L1I_prefetch_miss 0
Core_1_L1I_writebacks 0
Core_1_L1I_writeback_hit 0
Core_1_L1I_writeback_miss 0

Core_1_L2C_total_access 697078
Core_1_L2C_total_hit 524549
Core_1_L2C_total_miss 172529
Core_1_L2C_loads 551188
Core_1_L2C_load_hit 411628
Core_1_L2C_load_miss 139560
Core_1_L2C_RFOs 33430
Core_1_L2C_RFO_hit 466
Core_1_L2C_RFO_miss 32964
Core_1_L2C_prefetches 0
Core_1_L2C_prefetch_hit 0
Core_1_L2C_prefetch_miss 0
Core_1_L2C_writebacks 112460
Core_1_L2C_writeback_hit 112455
Core_1_L2C_writeback_miss 5

Core_1_LLC_total_access 273373
Core_1_LLC_total_hit 144033
Core_1_LLC_total_miss 129340
Core_1_LLC_loads 139560
Core_1_LLC_load_hit 46503
Core_1_LLC_load_miss 93057
Core_1_LLC_RFOs 32964
Core_1_LLC_RFO_hit 26
Core_1_LLC_RFO_miss 32938
Core_1_LLC_prefetches 0
Core_1_LLC_prefetch_hit 0
Core_1_LLC_prefetch_miss 0
Core_1_LLC_writebacks 100849
Core_1_LLC_writeback_hit 97504
Core_1_LLC_writeback_miss 3345


CPU 2 cumulative IPC: 0.52272 instructions: 16646767 cycles: 31846365
Core_2_L1D_total_access 4629876
Core_2_L1D_total_hit 4026852
Core_2_L1D_total_miss 603024
Core_2_L1D_loads 4088439
Core_2_L1D_load_hit 3518847
Core_2_L1D_load_miss 569592
Core_2_L1D_RFOs 541437
Core_2_L1D_RFO_hit 508005
Core_2_L1D_RFO_miss 33432
Core_2_L1D_prefetches 0
Core_2_L1D_prefetch_hit 0
Core_2_L1D_prefetch_miss 0
Core_2_L1D_writebacks 0
Core_2_L1D_writeback_hit 0
Core_2_L1D_writeback_miss 0

Core_2_L1I_total_access 2279082
Core_2_L1I_total_hit 2274377
Core_2_L1I_total_miss 4705
Core_2_L1I_loads 2279082
Core_2_L1I_load_hit 2274377
Core_2_L1I_load_miss 4705
Core_2_L1I_RFOs 0
Core_2_L1I_RFO_hit 0
Core_2_L1I_RFO_miss 0
Core_2_L1I_prefetches 0
Core_2_L1I_prefetch_hit 0
Core_2_L1I_prefetch_miss 0
Core_2_L1I_writebacks 0
Core_2_L1I_writeback_hit 0
Core_2_L1I_writeback_miss 0

Core_2_L2C_total_access 720578
Core_2_L2C_total_hit 546958
Core_2_L2C_total_miss 173620
Core_2_L2C_loads 574299
Core_2_L2C_load_hit 433650
Core_2_L2C_load_miss 140649
Core_2_L2C_RFOs 33432
Core_2_L2C_RFO_hit 466
Core_2_L2C_RFO_miss 32966
Core_2_L2C_prefetches 0
Core_2_L2C_prefetch_hit 0
Core_2_L2C_prefetch_miss 0
Core_2_L2C_writebacks 112847
Core_2_L2C_writeback_hit 112842
Core_2_L2C_writeback_miss 5

Core_2_LLC_total_access 274050
Core_2_LLC_total_hit 143584
Core_2_LLC_total_miss 130466
Core_2_LLC_loads 140649
Core_2_LLC_load_hit 47125
Core_2_LLC_load_miss 93524
Core_2_LLC_RFOs 32966
Core_2_LLC_RFO_hit 32
Core_2_LLC_RFO_miss 32934
Core_2_LLC_prefetches 0
Core_2_LLC_prefetch_hit 0
Core_2_LLC_prefetch_miss 0
Core_2_LLC_writebacks 100435
Core_2_LLC_writeback_hit 96427
Core_2_LLC_writeback_miss 4008


CPU 3 cumulative IPC: 0.50423 instructions: 16057844 cycles: 31846365
Core_3_L1D_total_access 4472649
Core_3_L1D_total_hit 3908187
Core_3_L1D_total_miss 564462
Core_3_L1D_loads 3932589
Core_3_L1D_load_hit 3401541
Core_3_L1D_load_miss 531048
Core_3_L1D_RFOs 540060
Core_3_L1D_RFO_hit 506646
Core_3_L1D_RFO_miss 33414
Core_3_L1D_prefetches 0
Core_3_L1D_prefetch_hit 0
Core_3_L1D_prefetch_miss 0
Core_3_L1D_writebacks 0
Core_3_L1D_writeback_hit 0
Core_3_L1D_writeback_miss 0

Core_3_L1I_total_access 2219052
Core_3_L1I_total_hit 2214345
Core_3_L1I_total_miss 4707
Core_3_L1I_loads 2219052
Core_3_L1I_load_hit 2214345
Core_3_L1I_load_miss 4707
Core_3_L1I_RFOs 0
Core_3_L1I_RFO_hit 0
Core_3_L1I_RFO_miss 0
Core_3_L1I_prefetches 0
Core_3_L1I_prefetch_hit 0
Core_3_L1I_prefetch_miss 0
Core_3_L1I_writebacks 0
Core_3_L1I_writeback_hit 0
Core_3_L1I_writeback_miss 0

Core_3_L2C_total_access 681372
Core_3_L2C_total_hit 509686
Core_3_L2C_total_miss 171686
Core_3_L2C_loads 535755
Core_3_L2C_load_hit 397042
Core_3_L2C_load_miss 138713
Core_3_L2C_RFOs 33414
Core_3_L2C_RFO_hit 446
Core_3_L2C_RFO_miss 32968
Core_3_L2C_prefetches 0
Core_3_L2C_prefetch_hit 0
Core_3_L2C_prefetch_miss 0
Core_3_L2C_writebacks 112203
Core_3_L2C_writeback_hit 112198
Core_3_L2C_writeback_miss 5

Core_3_LLC_total_access 272779
Core_3_LLC_total_hit 145151
Core_3_LLC_total_miss 127628
Core_3_LLC_loads 138713
Core_3_LLC_load_hit 46003
Core_3_LLC_load_miss 92710
Core_3_LLC_RFOs 32968
Core_3_LLC_RFO_hit 21
Core_3_LLC_RFO_miss 32947
Core_3_LLC_prefetches 0
Core_3_LLC_prefetch_hit 0
Core_3_LLC_prefetch_miss 0
Core_3_LLC_writebacks 101098
Core_3_LLC_writeback_hit 99127
Core_3_LLC_writeback_miss 1971


[ROI Statistics]
Core_0_instructions 16000003
Core_0_cycles 31846364
Core_0_IPC 0.50241

Core_0_branch_prediction_accuracy 98.24556
Core_0_branch_MPKI 0.63131
Core_0_average_ROB_occupancy_at_mispredict 322.28839

Core_0_L1D_total_access 4458779
Core_0_L1D_total_hit 3898175 L1D_total_Hit Ratio: 0.87427
Core_0_L1D_total_miss 560604
Core_0_L1D_loads 3918949
Core_0_L1D_load_hit 3391759 L1D_load_Hit Ratio: 0.86548
Core_0_L1D_load_miss 527190
Core_0_L1D_RFOs 539830
Core_0_L1D_RFO_hit 506416 L1D_RFO_Hit Ratio: 0.93810
Core_0_L1D_RFO_miss 33414
Core_0_L1D_prefetches 0
Core_0_L1D_prefetch_hit 0 L1D_prefetch_Hit Ratio: -nan
Core_0_L1D_prefetch_miss 0
Core_0_L1D_writebacks 0
Core_0_L1D_writeback_hit 0 L1D_writeback_Hit Ratio: -nan
Core_0_L1D_writeback_miss 0
Core_0_L1D_prefetch_requested 0
Core_0_L1D_prefetch_issued 0
Core_0_L1D_prefetch_useful 0 L1D_Useful Ratio: -nan
Core_0_L1D_prefetch_useless 0
Core_0_L1D_prefetch_late 0
Core_0_L1D_average_miss_latency 118.05169

Core_0_L1I_total_access 2212837
Core_0_L1I_total_hit 2208130 L1I_total_Hit Ratio: 0.99787
Core_0_L1I_total_miss 4707
Core_0_L1I_loads 2212837
Core_0_L1I_load_hit 2208130 L1I_load_Hit Ratio: 0.99787
Core_0_L1I_load_miss 4707
Core_0_L1I_RFOs 0
Core_0_L1I_RFO_hit 0 L1I_RFO_Hit Ratio: -nan
Core_0_L1I_RFO_miss 0
Core_0_L1I_prefetches 0
Core_0_L1I_prefetch_hit 0 L1I_prefetch_Hit Ratio: -nan
Core_0_L1I_prefetch_miss 0
Core_0_L1I_writebacks 0
Core_0_L1I_writeback_hit 0 L1I_writeback_Hit Ratio: -nan
Core_0_L1I_writeback_miss 0
Core_0_L1I_prefetch_requested 0
Core_0_L1I_prefetch_issued 0
Core_0_L1I_prefetch_useful 0 L1I_Useful Ratio: -nan
Core_0_L1I_prefetch_useless 0
Core_0_L1I_prefetch_late 0
Core_0_L1I_average_miss_latency 481.10622

Core_0_L2C_total_access 677454
Core_0_L2C_total_hit 506841 L2C_total_Hit Ratio: 0.74816
Core_0_L2C_total_miss 170613
Core_0_L2C_loads 531897
Core_0_L2C_load_hit 394258 L2C_load_Hit Ratio: 0.74123
Core_0_L2C_load_miss 137639
Core_0_L2C_RFOs 33414
Core_0_L2C_RFO_hit 445 L2C_RFO_Hit Ratio: 0.01332
Core_0_L2C_RFO_miss 32969
Core_0_L2C_prefetches 0
Core_0_L2C_prefetch_hit 0 L2C_prefetch_Hit Ratio: -nan
Core_0_L2C_prefetch_miss 0
Core_0_L2C_writebacks 112143
Core_0_L2C_writeback_hit 112138 L2C_writeback_Hit Ratio: 0.99996
Core_0_L2C_writeback_miss 5
Core_0_L2C_prefetch_requested 0
Core_0_L2C_prefetch_issued 0
Core_0_L2C_prefetch_useful 0 L2C_Useful Ratio: -nan
Core_0_L2C_prefetch_useless 0
Core_0_L2C_prefetch_late 0
Core_0_L2C_average_miss_latency 350.83690

Core_0_LLC_total_access 271500
Core_0_LLC_total_hit 144152 LLC_total_Hit Ratio: 0.53095
Core_0_LLC_total_miss 127348
Core_0_LLC_loads 137639
Core_0_LLC_load_hit 45805 LLC_load_Hit Ratio: 0.33279
Core_0_LLC_load_miss 91834
Core_0_LLC_RFOs 32969
Core_0_LLC_RFO_hit 31 LLC_RFO_Hit Ratio: 0.00094
Core_0_LLC_RFO_miss 32938
Core_0_LLC_prefetches 0
Core_0_LLC_prefetch_hit 0 LLC_prefetch_Hit Ratio: -nan
Core_0_LLC_prefetch_miss 0
Core_0_LLC_writebacks 100892
Core_0_LLC_writeback_hit 98316 LLC_writeback_Hit Ratio: 0.97447
Core_0_LLC_writeback_miss 2576
Core_0_LLC_prefetch_requested 0
Core_0_LLC_prefetch_issued 0
Core_0_LLC_prefetch_useful 0 LLC_Useful Ratio: -nan
Core_0_LLC_prefetch_useless 0
Core_0_LLC_prefetch_late 0
Core_0_LLC_average_miss_latency 1657.57588

Core_0_major_page_fault 0
Core_0_minor_page_fault 2382

Core_1_instructions 16000000
Core_1_cycles 31533613
Core_1_IPC 0.50740

Core_1_branch_prediction_accuracy 98.24945
Core_1_branch_MPKI 0.62076
Core_1_average_ROB_occupancy_at_mispredict 322.44448

Core_1_L1D_total_access 4460168
Core_1_L1D_total_hit 3899505 L1D_total_Hit Ratio: 0.87430
Core_1_L1D_total_miss 560663
Core_1_L1D_loads 3920129
Core_1_L1D_load_hit 3392878 L1D_load_Hit Ratio: 0.86550
Core_1_L1D_load_miss 527251
Core_1_L1D_RFOs 540039
Core_1_L1D_RFO_hit 506627 L1D_RFO_Hit Ratio: 0.93813
Core_1_L1D_RFO_miss 33412
Core_1_L1D_prefetches 0
Core_1_L1D_prefetch_hit 0 L1D_prefetch_Hit Ratio: -nan
Core_1_L1D_prefetch_miss 0
Core_1_L1D_writebacks 0
Core_1_L1D_writeback_hit 0 L1D_writeback_Hit Ratio: -nan
Core_1_L1D_writeback_miss 0
Core_1_L1D_prefetch_requested 0
Core_1_L1D_prefetch_issued 0
Core_1_L1D_prefetch_useful 0 L1D_Useful Ratio: -nan
Core_1_L1D_prefetch_useless 0
Core_1_L1D_prefetch_late 0
Core_1_L1D_average_miss_latency 123.91059

Core_1_L1I_total_access 2214776
Core_1_L1I_total_hit 2210070 L1I_total_Hit Ratio: 0.99788
Core_1_L1I_total_miss 4706
Core_1_L1I_loads 2214776
Core_1_L1I_load_hit 2210070 L1I_load_Hit Ratio: 0.99788
Core_1_L1I_load_miss 4706
Core_1_L1I_RFOs 0
Core_1_L1I_RFO_hit 0 L1I_RFO_Hit Ratio: -nan
Core_1_L1I_RFO_miss 0
Core_1_L1I_prefetches 0
Core_1_L1I_prefetch_hit 0 L1I_prefetch_Hit Ratio: -nan
Core_1_L1I_prefetch_miss 0
Core_1_L1I_writebacks 0
Core_1_L1I_writeback_hit 0 L1I_writeback_Hit Ratio: -nan
Core_1_L1I_writeback_miss 0
Core_1_L1I_prefetch_requested 0
Core_1_L1I_prefetch_issued 0
Core_1_L1I_prefetch_useful 0 L1I_Useful Ratio: -nan
Core_1_L1I_prefetch_useless 0
Core_1_L1I_prefetch_late 0
Core_1_L1I_average_miss_latency 393.94688

Core_1_L2C_total_access 677506
Core_1_L2C_total_hit 507372 L2C_total_Hit Ratio: 0.74888
Core_1_L2C_total_miss 170134
Core_1_L2C_loads 531957
Core_1_L2C_load_hit 394792 L2C_load_Hit Ratio: 0.74215
Core_1_L2C_load_miss 137165
Core_1_L2C_RFOs 33412
Core_1_L2C_RFO_hit 448 L2C_RFO_Hit Ratio: 0.01341
Core_1_L2C_RFO_miss 32964
Core_1_L2C_prefetches 0
Core_1_L2C_prefetch_hit 0 L2C_prefetch_Hit Ratio: -nan
Core_1_L2C_prefetch_miss 0
Core_1_L2C_writebacks 112137
Core_1_L2C_writeback_hit 112132 L2C_writeback_Hit Ratio: 0.99996
Core_1_L2C_writeback_miss 5
Core_1_L2C_prefetch_requested 0
Core_1_L2C_prefetch_issued 0
Core_1_L2C_prefetch_useful 0 L2C_Useful Ratio: -nan
Core_1_L2C_prefetch_useless 0
Core_1_L2C_prefetch_late 0
Core_1_L2C_average_miss_latency 367.03245

Core_1_LLC_total_access 270210
Core_1_LLC_total_hit 143010 LLC_total_Hit Ratio: 0.52926
Core_1_LLC_total_miss 127200
Core_1_LLC_loads 137165
Core_1_LLC_load_hit 46247 LLC_load_Hit Ratio: 0.33716
Core_1_LLC_load_miss 90918
Core_1_LLC_RFOs 32964
Core_1_LLC_RFO_hit 26 LLC_RFO_Hit Ratio: 0.00079
Core_1_LLC_RFO_miss 32938
Core_1_LLC_prefetches 0
Core_1_LLC_prefetch_hit 0 LLC_prefetch_Hit Ratio: -nan
Core_1_LLC_prefetch_miss 0
Core_1_LLC_writebacks 100081
Core_1_LLC_writeback_hit 96737 LLC_writeback_Hit Ratio: 0.96659
Core_1_LLC_writeback_miss 3344
Core_1_LLC_prefetch_requested 0
Core_1_LLC_prefetch_issued 0
Core_1_LLC_prefetch_useful 0 LLC_Useful Ratio: -nan
Core_1_LLC_prefetch_useless 0
Core_1_LLC_prefetch_late 0
Core_1_LLC_average_miss_latency 1659.50450

Core_1_major_page_fault 0
Core_1_minor_page_fault 2404

Core_2_instructions 16000003
Core_2_cycles 31187784
Core_2_IPC 0.51302

Core_2_branch_prediction_accuracy 98.25422
Core_2_branch_MPKI 0.60829
Core_2_average_ROB_occupancy_at_mispredict 322.45724

Core_2_L1D_total_access 4460322
Core_2_L1D_total_hit 3899714 L1D_total_Hit Ratio: 0.87431
Core_2_L1D_total_miss 560608
Core_2_L1D_loads 3920467
Core_2_L1D_load_hit 3393271 L1D_load_Hit Ratio: 0.86553
Core_2_L1D_load_miss 527196
Core_2_L1D_RFOs 539855
Core_2_L1D_RFO_hit 506443 L1D_RFO_Hit Ratio: 0.93811
Core_2_L1D_RFO_miss 33412
Core_2_L1D_prefetches 0
Core_2_L1D_prefetch_hit 0 L1D_prefetch_Hit Ratio: -nan
Core_2_L1D_prefetch_miss 0
Core_2_L1D_writebacks 0
Core_2_L1D_writeback_hit 0 L1D_writeback_Hit Ratio: -nan
Core_2_L1D_writeback_miss 0
Core_2_L1D_prefetch_requested 0
Core_2_L1D_prefetch_issued 0
Core_2_L1D_prefetch_useful 0 L1D_Useful Ratio: -nan
Core_2_L1D_prefetch_useless 0
Core_2_L1D_prefetch_late 0
Core_2_L1D_average_miss_latency 124.28260

Core_2_L1I_total_access 2215699
Core_2_L1I_total_hit 2210994 L1I_total_Hit Ratio: 0.99788
Core_2_L1I_total_miss 4705
Core_2_L1I_loads 2215699
Core_2_L1I_load_hit 2210994 L1I_load_Hit Ratio: 0.99788
Core_2_L1I_load_miss 4705
Core_2_L1I_RFOs 0
Core_2_L1I_RFO_hit 0 L1I_RFO_Hit Ratio: -nan
Core_2_L1I_RFO_miss 0
Core_2_L1I_prefetches 0
Core_2_L1I_prefetch_hit 0 L1I_prefetch_Hit Ratio: -nan
Core_2_L1I_prefetch_miss 0
Core_2_L1I_writebacks 0
Core_2_L1I_writeback_hit 0 L1I_writeback_Hit Ratio: -nan
Core_2_L1I_writeback_miss 0
Core_2_L1I_prefetch_requested 0
Core_2_L1I_prefetch_issued 0
Core_2_L1I_prefetch_useful 0 L1I_Useful Ratio: -nan
Core_2_L1I_prefetch_useless 0
Core_2_L1I_prefetch_late 0
Core_2_L1I_average_miss_latency 361.54070

Core_2_L2C_total_access 677456
Core_2_L2C_total_hit 507964 L2C_total_Hit Ratio: 0.74981
Core_2_L2C_total_miss 169492
Core_2_L2C_loads 531901
Core_2_L2C_load_hit 395380 L2C_load_Hit Ratio: 0.74333
Core_2_L2C_load_miss 136521
Core_2_L2C_RFOs 33412
Core_2_L2C_RFO_hit 446 L2C_RFO_Hit Ratio: 0.01335
Core_2_L2C_RFO_miss 32966
Core_2_L2C_prefetches 0
Core_2_L2C_prefetch_hit 0 L2C_prefetch_Hit Ratio: -nan
Core_2_L2C_prefetch_miss 0
Core_2_L2C_writebacks 112143
Core_2_L2C_writeback_hit 112138 L2C_writeback_Hit Ratio: 0.99996
Core_2_L2C_writeback_miss 5
Core_2_L2C_prefetch_requested 0
Core_2_L2C_prefetch_issued 0
Core_2_L2C_prefetch_useful 0 L2C_Useful Ratio: -nan
Core_2_L2C_prefetch_useless 0
Core_2_L2C_prefetch_late 0
Core_2_L2C_average_miss_latency 366.64088

Core_2_LLC_total_access 269346
Core_2_LLC_total_hit 142645 LLC_total_Hit Ratio: 0.52960
Core_2_LLC_total_miss 126701
Core_2_LLC_loads 136521
Core_2_LLC_load_hit 46762 LLC_load_Hit Ratio: 0.34253
Core_2_LLC_load_miss 89759
Core_2_LLC_RFOs 32966
Core_2_LLC_RFO_hit 32 LLC_RFO_Hit Ratio: 0.00097
Core_2_LLC_RFO_miss 32934
Core_2_LLC_prefetches 0
Core_2_LLC_prefetch_hit 0 LLC_prefetch_Hit Ratio: -nan
Core_2_LLC_prefetch_miss 0
Core_2_LLC_writebacks 99859
Core_2_LLC_writeback_hit 95851 LLC_writeback_Hit Ratio: 0.95986
Core_2_LLC_writeback_miss 4008
Core_2_LLC_prefetch_requested 0
Core_2_LLC_prefetch_issued 0
Core_2_LLC_prefetch_useful 0 LLC_Useful Ratio: -nan
Core_2_LLC_prefetch_useless 0
Core_2_LLC_prefetch_late 0
Core_2_LLC_average_miss_latency 1666.04031

Core_2_major_page_fault 0
Core_2_minor_page_fault 2407

Core_3_instructions 16000001
Core_3_cycles 31751375
Core_3_IPC 0.50392

Core_3_branch_prediction_accuracy 98.24620
Core_3_branch_MPKI 0.62921
Core_3_average_ROB_occupancy_at_mispredict 322.17260

Core_3_L1D_total_access 4459380
Core_3_L1D_total_hit 3898748 L1D_total_Hit Ratio: 0.87428
Core_3_L1D_total_miss 560632
Core_3_L1D_loads 3919435
Core_3_L1D_load_hit 3392217 L1D_load_Hit Ratio: 0.86549
Core_3_L1D_load_miss 527218
Core_3_L1D_RFOs 539945
Core_3_L1D_RFO_hit 506531 L1D_RFO_Hit Ratio: 0.93812
Core_3_L1D_RFO_miss 33414
Core_3_L1D_prefetches 0
Core_3_L1D_prefetch_hit 0 L1D_prefetch_Hit Ratio: -nan
Core_3_L1D_prefetch_miss 0
Core_3_L1D_writebacks 0
Core_3_L1D_writeback_hit 0 L1D_writeback_Hit Ratio: -nan
Core_3_L1D_writeback_miss 0
Core_3_L1D_prefetch_requested 0
Core_3_L1D_prefetch_issued 0
Core_3_L1D_prefetch_useful 0 L1D_Useful Ratio: -nan
Core_3_L1D_prefetch_useless 0
Core_3_L1D_prefetch_late 0
Core_3_L1D_average_miss_latency 120.43011

Core_3_L1I_total_access 2213171
Core_3_L1I_total_hit 2208464 L1I_total_Hit Ratio: 0.99787
Core_3_L1I_total_miss 4707
Core_3_L1I_loads 2213171
Core_3_L1I_load_hit 2208464 L1I_load_Hit Ratio: 0.99787
Core_3_L1I_load_miss 4707
Core_3_L1I_RFOs 0
Core_3_L1I_RFO_hit 0 L1I_RFO_Hit Ratio: -nan
Core_3_L1I_RFO_miss 0
Core_3_L1I_prefetches 0
Core_3_L1I_prefetch_hit 0 L1I_prefetch_Hit Ratio: -nan
Core_3_L1I_prefetch_miss 0
Core_3_L1I_writebacks 0
Core_3_L1I_writeback_hit 0 L1I_writeback_Hit Ratio: -nan
Core_3_L1I_writeback_miss 0
Core_3_L1I_prefetch_requested 0
Core_3_L1I_prefetch_issued 0
Core_3_L1I_prefetch_useful 0 L1I_Useful Ratio: -nan
Core_3_L1I_prefetch_useless 0
Core_3_L1I_prefetch_late 0
Core_3_L1I_average_miss_latency 475.37476

Core_3_L2C_total_access 677476
Core_3_L2C_total_hit 506742 L2C_total_Hit Ratio: 0.74799
Core_3_L2C_total_miss 170734
Core_3_L2C_loads 531925
Core_3_L2C_load_hit 394164 L2C_load_Hit Ratio: 0.74101
Core_3_L2C_load_miss 137761
Core_3_L2C_RFOs 33414
Core_3_L2C_RFO_hit 446 L2C_RFO_Hit Ratio: 0.01335
Core_3_L2C_RFO_miss 32968
Core_3_L2C_prefetches 0
Core_3_L2C_prefetch_hit 0 L2C_prefetch_Hit Ratio: -nan
Core_3_L2C_prefetch_miss 0
Core_3_L2C_writebacks 112137
Core_3_L2C_writeback_hit 112132 L2C_writeback_Hit Ratio: 0.99996
Core_3_L2C_writeback_miss 5
Core_3_L2C_prefetch_requested 0
Core_3_L2C_prefetch_issued 0
Core_3_L2C_prefetch_useful 0 L2C_Useful Ratio: -nan
Core_3_L2C_prefetch_useless 0
Core_3_L2C_prefetch_late 0
Core_3_L2C_average_miss_latency 357.91045

Core_3_LLC_total_access 271667
Core_3_LLC_total_hit 144991 LLC_total_Hit Ratio: 0.53371
Core_3_LLC_total_miss 126676
Core_3_LLC_loads 137761
Core_3_LLC_load_hit 46003 LLC_load_Hit Ratio: 0.33393
Core_3_LLC_load_miss 91758
Core_3_LLC_RFOs 32968
Core_3_LLC_RFO_hit 21 LLC_RFO_Hit Ratio: 0.00064
Core_3_LLC_RFO_miss 32947
Core_3_LLC_prefetches 0
Core_3_LLC_prefetch_hit 0 LLC_prefetch_Hit Ratio: -nan
Core_3_LLC_prefetch_miss 0
Core_3_LLC_writebacks 100938
Core_3_LLC_writeback_hit 98967 LLC_writeback_Hit Ratio: 0.98047
Core_3_LLC_writeback_miss 1971
Core_3_LLC_prefetch_requested 0
Core_3_LLC_prefetch_issued 0
Core_3_LLC_prefetch_useful 0 LLC_Useful Ratio: -nan
Core_3_LLC_prefetch_useless 0
Core_3_LLC_prefetch_late 0
Core_3_LLC_average_miss_latency 1666.36911

Core_3_major_page_fault 0
Core_3_minor_page_fault 2391

Channel_0_RQ_row_buffer_hit 248826
Channel_0_RQ_row_buffer_miss 253868
Channel_0_WQ_row_buffer_hit 109039
Channel_0_WQ_row_buffer_miss 126593
Channel_0_WQ_full 895
Channel_0_dbus_congested 346003

avg_congested_cycle 10

EzSearch AVG IPC :0.50241: L2-Pf-HR :-nan : L2-HR :0.74816 Uful:-nan
EzSearch AVG IPC :0.50740: L2-Pf-HR :-nan : L2-HR :0.75250 Uful:-nan
EzSearch AVG IPC :0.51302: L2-Pf-HR :-nan : L2-HR :0.75905 Uful:-nan
EzSearch AVG IPC :0.50392: L2-Pf-HR :-nan : L2-HR :0.74803 Uful:-nan
     > Finished combination: TraceType=770-tot Sim:16000000 Prefetcher=L2no L1=no
