TRACE: [496000000][OPT-125M]_[h12][s1024][d64] Warmup: 2000000 NumTraces: 496000000
L1:next_line:L2:029-SecTOP-L2-MultiMarkovDelta_ip_stride_v4-MK2-P30
*************************************************
   ChampSim Multicore Out-of-Order Simulator
   Last compiled: Oct 28 2024 05:58:27
*************************************************

trace_0 770-tot_memTraces_v3/memTraces[496000000][OPT-125M]_[h12][s1024][d64].champsim.xz
trace_1 770-tot_memTraces_v3/memTraces[496000000][OPT-125M]_[h12][s1024][d64].champsim.xz
trace_2 770-tot_memTraces_v3/memTraces[496000000][OPT-125M]_[h12][s1024][d64].champsim.xz
trace_3 770-tot_memTraces_v3/memTraces[496000000][OPT-125M]_[h12][s1024][d64].champsim.xz
CPU 0 L1D next line prefetcher
MK1: Size: 128 TMAX: 64 TMIN: 32 MKPTHRESH: 40
MK2: Size: 256 TMAX: 32 TMIN: 16 MK2PTHRESH: 30
MK3: Size: 384 TMAX: 16 TMIN: 8 MK3PTHRESH: 25
MK4: Size: 512 TMAX: 8 TMIN: 0 MK4PTHRESH: 20
Stride Size: 512 Prefetch Degree: 15

CPU 0 L2C prefetcher
CPU 1 L1D next line prefetcher
MK1: Size: 128 TMAX: 64 TMIN: 32 MKPTHRESH: 40
MK2: Size: 256 TMAX: 32 TMIN: 16 MK2PTHRESH: 30
MK3: Size: 384 TMAX: 16 TMIN: 8 MK3PTHRESH: 25
MK4: Size: 512 TMAX: 8 TMIN: 0 MK4PTHRESH: 20
Stride Size: 512 Prefetch Degree: 15

CPU 1 L2C prefetcher
CPU 2 L1D next line prefetcher
MK1: Size: 128 TMAX: 64 TMIN: 32 MKPTHRESH: 40
MK2: Size: 256 TMAX: 32 TMIN: 16 MK2PTHRESH: 30
MK3: Size: 384 TMAX: 16 TMIN: 8 MK3PTHRESH: 25
MK4: Size: 512 TMAX: 8 TMIN: 0 MK4PTHRESH: 20
Stride Size: 512 Prefetch Degree: 15

CPU 2 L2C prefetcher
CPU 3 L1D next line prefetcher
MK1: Size: 128 TMAX: 64 TMIN: 32 MKPTHRESH: 40
MK2: Size: 256 TMAX: 32 TMIN: 16 MK2PTHRESH: 30
MK3: Size: 384 TMAX: 16 TMIN: 8 MK3PTHRESH: 25
MK4: Size: 512 TMAX: 8 TMIN: 0 MK4PTHRESH: 20
Stride Size: 512 Prefetch Degree: 15

CPU 3 L2C prefetcher
MAIN.cc ln 751 stats print skipped
CPU 0 L2C prefetcher initialized


Cache Size: 1280
number of cache lines: 20480
CPU  1 inst:    1000002 cyc:     502937 now IPC :1.98832: AVG IPC :1.98832: L2-Pf-HR :0.69224: L2-HR :0.69165: (Sim:0h0m49s) 
CPU  3 inst:    1000002 cyc:     503031 now IPC :1.98795: AVG IPC :1.98795: L2-Pf-HR :0.69613: L2-HR :0.69753: (Sim:0h0m49s) 
CPU  0 inst:    1000002 cyc:     503060 now IPC :1.98784: AVG IPC :1.98784: L2-Pf-HR :0.68924: L2-HR :0.69018: (Sim:0h0m49s) 
CPU  2 inst:    1000002 cyc:     503194 now IPC :1.98731: AVG IPC :1.98731: L2-Pf-HR :0.68414: L2-HR :0.68663: (Sim:0h0m49s) 
CPU  1 inst:    2000000 cyc:     987072 now IPC :2.06554: AVG IPC :2.02619: L2-Pf-HR :0.75853: L2-HR :0.75361: (Sim:0h1m41s) 
CPU  3 inst:    2000000 cyc:     987136 now IPC :2.06566: AVG IPC :2.02606: L2-Pf-HR :0.75613: L2-HR :0.75241: (Sim:0h1m41s) 
CPU  0 inst:    2000000 cyc:     987208 now IPC :2.06548: AVG IPC :2.02592: L2-Pf-HR :0.75072: L2-HR :0.74782: (Sim:0h1m41s) 
CPU  2 inst:    2000000 cyc:     987303 now IPC :2.06565: AVG IPC :2.02572: L2-Pf-HR :0.74955: L2-HR :0.74784: (Sim:0h1m41s) 

Warmup complete CPU  0 instructions:    2000280 cycles:     987304 (Simulation time: 0 hr 1 min 41 sec) 
Warmup complete CPU  1 instructions:    2000416 cycles:     987304 (Simulation time: 0 hr 1 min 41 sec) 
Warmup complete CPU  2 instructions:    2000002 cycles:     987304 (Simulation time: 0 hr 1 min 41 sec) 
Warmup complete CPU  3 instructions:    2000281 cycles:     987303 (Simulation time: 0 hr 1 min 41 sec) 

CPU  2 inst:    3000002 cyc:    1504533 now IPC :1.93338: AVG IPC :1.93338: L2-Pf-HR :0.76300: L2-HR :0.76710: (Sim:0h2m27s) 
CPU  1 inst:    3000005 cyc:    1505090 now IPC :1.93044: AVG IPC :1.93051: L2-Pf-HR :0.76409: L2-HR :0.76590: (Sim:0h2m27s) 
CPU  0 inst:    3000005 cyc:    1505433 now IPC :1.92967: AVG IPC :1.92949: L2-Pf-HR :0.75076: L2-HR :0.75611: (Sim:0h2m27s) 
CPU  3 inst:    3000005 cyc:    1505743 now IPC :1.92825: AVG IPC :1.92833: L2-Pf-HR :0.75927: L2-HR :0.75887: (Sim:0h2m27s) 
CPU  1 inst:    4000000 cyc:    2015954 now IPC :1.95746: AVG IPC :1.94389: L2-Pf-HR :0.76112: L2-HR :0.76534: (Sim:0h3m12s) 
CPU  3 inst:    4000000 cyc:    2019293 now IPC :1.94722: AVG IPC :1.93773: L2-Pf-HR :0.75625: L2-HR :0.75778: (Sim:0h3m12s) 
CPU  0 inst:    4000000 cyc:    2019504 now IPC :1.94525: AVG IPC :1.93734: L2-Pf-HR :0.74581: L2-HR :0.75413: (Sim:0h3m12s) 
CPU  2 inst:    4000000 cyc:    2019575 now IPC :1.94159: AVG IPC :1.93747: L2-Pf-HR :0.75732: L2-HR :0.76441: (Sim:0h3m12s) 
CPU  1 inst:    5000004 cyc:    2536751 now IPC :1.92014: AVG IPC :1.93591: L2-Pf-HR :0.75785: L2-HR :0.76283: (Sim:0h3m58s) 
CPU  3 inst:    5000005 cyc:    2537131 now IPC :1.93112: AVG IPC :1.93552: L2-Pf-HR :0.75232: L2-HR :0.75464: (Sim:0h3m58s) 
CPU  2 inst:    5000005 cyc:    2537249 now IPC :1.93173: AVG IPC :1.93555: L2-Pf-HR :0.75243: L2-HR :0.76094: (Sim:0h3m58s) 
CPU  0 inst:    5000001 cyc:    2537365 now IPC :1.93102: AVG IPC :1.93523: L2-Pf-HR :0.74192: L2-HR :0.75113: (Sim:0h3m58s) 
CPU  0 inst:    6000005 cyc:    3043731 now IPC :1.97486: AVG IPC :1.94499: L2-Pf-HR :0.74735: L2-HR :0.75490: (Sim:0h4m43s) 
CPU  3 inst:    6000005 cyc:    3044691 now IPC :1.97021: AVG IPC :1.94408: L2-Pf-HR :0.75908: L2-HR :0.75906: (Sim:0h4m43s) 
CPU  1 inst:    6000005 cyc:    3045630 now IPC :1.96511: AVG IPC :1.94313: L2-Pf-HR :0.76482: L2-HR :0.76778: (Sim:0h4m43s) 
CPU  2 inst:    6000005 cyc:    3046938 now IPC :1.96198: AVG IPC :1.94209: L2-Pf-HR :0.75857: L2-HR :0.76553: (Sim:0h4m44s) 
CPU  0 inst:    7000005 cyc:    4102209 now IPC :0.94475: AVG IPC :1.60510: L2-Pf-HR :0.75417: L2-HR :0.75973: (Sim:0h5m42s) 
CPU  3 inst:    7000005 cyc:    4103619 now IPC :0.94435: AVG IPC :1.60437: L2-Pf-HR :0.76157: L2-HR :0.76097: (Sim:0h5m43s) 
CPU  2 inst:    7000005 cyc:    4104190 now IPC :0.94585: AVG IPC :1.60417: L2-Pf-HR :0.76233: L2-HR :0.76633: (Sim:0h5m43s) 
CPU  1 inst:    7000005 cyc:    4109709 now IPC :0.93978: AVG IPC :1.60120: L2-Pf-HR :0.76385: L2-HR :0.76670: (Sim:0h5m43s) 
CPU  2 inst:    8000001 cyc:    4714544 now IPC :1.63839: AVG IPC :1.60977: L2-Pf-HR :0.75908: L2-HR :0.76386: (Sim:0h6m32s) 
CPU  1 inst:    8000001 cyc:    4717710 now IPC :1.64473: AVG IPC :1.60829: L2-Pf-HR :0.75994: L2-HR :0.76566: (Sim:0h6m33s) 
CPU  0 inst:    8000001 cyc:    4718585 now IPC :1.62238: AVG IPC :1.60795: L2-Pf-HR :0.75431: L2-HR :0.76158: (Sim:0h6m33s) 
CPU  3 inst:    8000001 cyc:    4719534 now IPC :1.62359: AVG IPC :1.60754: L2-Pf-HR :0.75813: L2-HR :0.76023: (Sim:0h6m33s) 
CPU  3 inst:    9000005 cyc:    5351818 now IPC :1.58157: AVG IPC :1.60378: L2-Pf-HR :0.76283: L2-HR :0.76446: (Sim:0h7m22s) 
CPU  2 inst:    9000005 cyc:    5360162 now IPC :1.54891: AVG IPC :1.60078: L2-Pf-HR :0.76371: L2-HR :0.76650: (Sim:0h7m23s) 
CPU  1 inst:    9000005 cyc:    5364598 now IPC :1.54587: AVG IPC :1.59907: L2-Pf-HR :0.76458: L2-HR :0.76957: (Sim:0h7m23s) 
CPU  0 inst:    9000005 cyc:    5366242 now IPC :1.54403: AVG IPC :1.59850: L2-Pf-HR :0.76195: L2-HR :0.76800: (Sim:0h7m23s) 
CPU  3 inst:   10000002 cyc:    5977975 now IPC :1.59704: AVG IPC :1.60293: L2-Pf-HR :0.76718: L2-HR :0.76826: (Sim:0h8m12s) 
CPU  0 inst:   10000002 cyc:    5985404 now IPC :1.61508: AVG IPC :1.60055: L2-Pf-HR :0.76890: L2-HR :0.77365: (Sim:0h8m13s) 
CPU  1 inst:   10000002 cyc:    5986164 now IPC :1.60883: AVG IPC :1.60028: L2-Pf-HR :0.76827: L2-HR :0.77269: (Sim:0h8m13s) 
CPU  2 inst:   10000002 cyc:    5986372 now IPC :1.59690: AVG IPC :1.60030: L2-Pf-HR :0.76807: L2-HR :0.76928: (Sim:0h8m13s) 
CPU  1 inst:   11000003 cyc:    6590547 now IPC :1.65458: AVG IPC :1.60614: L2-Pf-HR :0.77193: L2-HR :0.77580: (Sim:0h9m12s) 
CPU  3 inst:   11000003 cyc:    6591171 now IPC :1.63080: AVG IPC :1.60598: L2-Pf-HR :0.77094: L2-HR :0.77110: (Sim:0h9m12s) 
CPU  2 inst:   11000003 cyc:    6591373 now IPC :1.65289: AVG IPC :1.60598: L2-Pf-HR :0.77183: L2-HR :0.77164: (Sim:0h9m12s) 
CPU  0 inst:   11000003 cyc:    6594219 now IPC :1.64254: AVG IPC :1.60511: L2-Pf-HR :0.77380: L2-HR :0.77755: (Sim:0h9m12s) 
CPU  0 inst:   12000002 cyc:    7090744 now IPC :2.01400: AVG IPC :1.63837: L2-Pf-HR :0.78217: L2-HR :0.78383: (Sim:0h10m7s) 
CPU  3 inst:   12000002 cyc:    7093116 now IPC :1.99225: AVG IPC :1.63774: L2-Pf-HR :0.77793: L2-HR :0.77635: (Sim:0h10m7s) 
CPU  2 inst:   12000002 cyc:    7105583 now IPC :1.94473: AVG IPC :1.63445: L2-Pf-HR :0.77830: L2-HR :0.77604: (Sim:0h10m8s) 
CPU  1 inst:   12000002 cyc:    7107791 now IPC :1.93332: AVG IPC :1.63379: L2-Pf-HR :0.77908: L2-HR :0.78114: (Sim:0h10m8s) 
CPU  3 inst:   13000005 cyc:    8452465 now IPC :0.73565: AVG IPC :1.47347: L2-Pf-HR :0.78765: L2-HR :0.78552: (Sim:0h11m40s) 
CPU  2 inst:   13000005 cyc:    8460643 now IPC :0.73798: AVG IPC :1.47190: L2-Pf-HR :0.78815: L2-HR :0.78542: (Sim:0h11m41s) 
CPU  0 inst:   13000005 cyc:    8469127 now IPC :0.72549: AVG IPC :1.47019: L2-Pf-HR :0.79144: L2-HR :0.79240: (Sim:0h11m41s) 
CPU  1 inst:   13000005 cyc:    8471885 now IPC :0.73309: AVG IPC :1.46963: L2-Pf-HR :0.78776: L2-HR :0.78923: (Sim:0h11m42s) 
CPU  0 inst:   14000005 cyc:    9308173 now IPC :1.19183: AVG IPC :1.44212: L2-Pf-HR :0.79984: L2-HR :0.80182: (Sim:0h12m37s) 
CPU  2 inst:   14000005 cyc:    9310265 now IPC :1.17699: AVG IPC :1.44179: L2-Pf-HR :0.79681: L2-HR :0.79528: (Sim:0h12m37s) 
CPU  3 inst:   14000005 cyc:    9316386 now IPC :1.15751: AVG IPC :1.44070: L2-Pf-HR :0.79641: L2-HR :0.79559: (Sim:0h12m38s) 
CPU  1 inst:   14000005 cyc:    9319023 now IPC :1.18045: AVG IPC :1.44023: L2-Pf-HR :0.79518: L2-HR :0.79808: (Sim:0h12m38s) 
CPU  1 inst:   15000004 cyc:   10174612 now IPC :1.16878: AVG IPC :1.41495: L2-Pf-HR :0.80179: L2-HR :0.80572: (Sim:0h13m33s) 
CPU  2 inst:   15000004 cyc:   10174682 now IPC :1.15685: AVG IPC :1.41498: L2-Pf-HR :0.80447: L2-HR :0.80387: (Sim:0h13m33s) 
CPU  3 inst:   15000004 cyc:   10195991 now IPC :1.13687: AVG IPC :1.41168: L2-Pf-HR :0.80390: L2-HR :0.80418: (Sim:0h13m34s) 
CPU  0 inst:   15000004 cyc:   10204897 now IPC :1.11517: AVG IPC :1.41032: L2-Pf-HR :0.80744: L2-HR :0.81028: (Sim:0h13m35s) 
CPU  0 inst:   16000004 cyc:   10876919 now IPC :1.48805: AVG IPC :1.41560: L2-Pf-HR :0.81518: L2-HR :0.81842: (Sim:0h14m25s) 
CPU  1 inst:   16000003 cyc:   10884053 now IPC :1.40956: AVG IPC :1.41456: L2-Pf-HR :0.80908: L2-HR :0.81346: (Sim:0h14m25s) 
CPU  3 inst:   16000004 cyc:   10887891 now IPC :1.44530: AVG IPC :1.41403: L2-Pf-HR :0.81177: L2-HR :0.81247: (Sim:0h14m26s) 
CPU  2 inst:   16000004 cyc:   10892103 now IPC :1.39388: AVG IPC :1.41346: L2-Pf-HR :0.81190: L2-HR :0.81184: (Sim:0h14m26s) 
CPU  0 inst:   17000005 cyc:   12777878 now IPC :0.52605: AVG IPC :1.27218: L2-Pf-HR :0.81769: L2-HR :0.81893: (Sim:0h16m6s) 
CPU  3 inst:   17000003 cyc:   12819941 now IPC :0.51758: AVG IPC :1.26766: L2-Pf-HR :0.81302: L2-HR :0.81246: (Sim:0h16m11s) 
CPU  1 inst:   17000004 cyc:   12824578 now IPC :0.51532: AVG IPC :1.26715: L2-Pf-HR :0.81069: L2-HR :0.81352: (Sim:0h16m12s) 
CPU  2 inst:   17000004 cyc:   12825203 now IPC :0.51730: AVG IPC :1.26712: L2-Pf-HR :0.81390: L2-HR :0.81231: (Sim:0h16m12s) 
CPU  0 inst:   18000000 cyc:   13727995 now IPC :1.05250: AVG IPC :1.25580: L2-Pf-HR :0.81862: L2-HR :0.81824: (Sim:0h17m11s) 
CPU  2 inst:   18000000 cyc:   13743327 now IPC :1.08917: AVG IPC :1.25431: L2-Pf-HR :0.81415: L2-HR :0.81131: (Sim:0h17m12s) 
CPU  3 inst:   18000000 cyc:   13748852 now IPC :1.07653: AVG IPC :1.25374: L2-Pf-HR :0.81295: L2-HR :0.81136: (Sim:0h17m13s) 
CPU  1 inst:   18000000 cyc:   13768473 now IPC :1.05944: AVG IPC :1.25181: L2-Pf-HR :0.81106: L2-HR :0.81256: (Sim:0h17m14s) 
CPU  2 inst:   19000000 cyc:   14759482 now IPC :0.98410: AVG IPC :1.23437: L2-Pf-HR :0.81524: L2-HR :0.81134: (Sim:0h18m35s) 
CPU  0 inst:   19000000 cyc:   14786676 now IPC :0.94457: AVG IPC :1.23192: L2-Pf-HR :0.81948: L2-HR :0.81781: (Sim:0h18m38s) 
CPU  3 inst:   19000000 cyc:   14813275 now IPC :0.93948: AVG IPC :1.22955: L2-Pf-HR :0.81346: L2-HR :0.81086: (Sim:0h18m40s) 
CPU  1 inst:   19000000 cyc:   14814873 now IPC :0.95566: AVG IPC :1.22940: L2-Pf-HR :0.81137: L2-HR :0.81173: (Sim:0h18m40s) 
CPU  1 inst:   20000003 cyc:   15793166 now IPC :1.02219: AVG IPC :1.21571: L2-Pf-HR :0.81197: L2-HR :0.81134: (Sim:0h20m27s) 
CPU  2 inst:   20000003 cyc:   15798566 now IPC :0.96239: AVG IPC :1.21529: L2-Pf-HR :0.81581: L2-HR :0.81105: (Sim:0h20m27s) 
CPU  3 inst:   20000003 cyc:   15831062 now IPC :0.98253: AVG IPC :1.21261: L2-Pf-HR :0.81398: L2-HR :0.81060: (Sim:0h20m31s) 
CPU  0 inst:   20000003 cyc:   15836500 now IPC :0.95254: AVG IPC :1.21217: L2-Pf-HR :0.82022: L2-HR :0.81741: (Sim:0h20m32s) 
CPU  2 inst:   21000001 cyc:   16881959 now IPC :0.92302: AVG IPC :1.19537: L2-Pf-HR :0.81604: L2-HR :0.81048: (Sim:0h22m20s) 
CPU  1 inst:   21000004 cyc:   16897592 now IPC :0.90545: AVG IPC :1.19417: L2-Pf-HR :0.81206: L2-HR :0.81065: (Sim:0h22m22s) 
CPU  3 inst:   21000001 cyc:   16910918 now IPC :0.92605: AVG IPC :1.19318: L2-Pf-HR :0.81416: L2-HR :0.81008: (Sim:0h22m24s) 
CPU  0 inst:   21000001 cyc:   16919090 now IPC :0.92371: AVG IPC :1.19257: L2-Pf-HR :0.82094: L2-HR :0.81705: (Sim:0h22m25s) 
CPU  2 inst:   22000000 cyc:   17613515 now IPC :1.36695: AVG IPC :1.20292: L2-Pf-HR :0.81722: L2-HR :0.81068: (Sim:0h23m59s) 
CPU  3 inst:   22000005 cyc:   17625470 now IPC :1.39948: AVG IPC :1.20204: L2-Pf-HR :0.81482: L2-HR :0.80991: (Sim:0h24m1s) 
CPU  1 inst:   22000005 cyc:   17626287 now IPC :1.37232: AVG IPC :1.20197: L2-Pf-HR :0.81299: L2-HR :0.81067: (Sim:0h24m1s) 
CPU  0 inst:   22000000 cyc:   17627330 now IPC :1.41195: AVG IPC :1.20190: L2-Pf-HR :0.82174: L2-HR :0.81675: (Sim:0h24m1s) 
CPU  2 inst:   23000000 cyc:   19289984 now IPC :0.59649: AVG IPC :1.14737: L2-Pf-HR :0.81727: L2-HR :0.81004: (Sim:0h26m17s) 
CPU  1 inst:   23000000 cyc:   19351923 now IPC :0.57949: AVG IPC :1.14348: L2-Pf-HR :0.81321: L2-HR :0.81002: (Sim:0h26m23s) 
CPU  3 inst:   23000000 cyc:   19360333 now IPC :0.57641: AVG IPC :1.14296: L2-Pf-HR :0.81498: L2-HR :0.80936: (Sim:0h26m24s) 
CPU  0 inst:   23000000 cyc:   19370862 now IPC :0.57355: AVG IPC :1.14231: L2-Pf-HR :0.82171: L2-HR :0.81593: (Sim:0h26m25s) 
CPU  3 inst:   24000000 cyc:   20172441 now IPC :1.23136: AVG IPC :1.14671: L2-Pf-HR :0.81531: L2-HR :0.80916: (Sim:0h28m4s) 
CPU  0 inst:   24000000 cyc:   20173291 now IPC :1.24622: AVG IPC :1.14666: L2-Pf-HR :0.82213: L2-HR :0.81571: (Sim:0h28m4s) 
CPU  2 inst:   24000003 cyc:   20175270 now IPC :1.12958: AVG IPC :1.14655: L2-Pf-HR :0.81786: L2-HR :0.81014: (Sim:0h28m5s) 
CPU  1 inst:   24000000 cyc:   20184361 now IPC :1.20129: AVG IPC :1.14599: L2-Pf-HR :0.81323: L2-HR :0.80946: (Sim:0h28m6s) 
CPU  1 inst:   25000000 cyc:   21095843 now IPC :1.09711: AVG IPC :1.14377: L2-Pf-HR :0.81345: L2-HR :0.80913: (Sim:0h29m50s) 
CPU  0 inst:   25000003 cyc:   21095897 now IPC :1.08389: AVG IPC :1.14378: L2-Pf-HR :0.82258: L2-HR :0.81560: (Sim:0h29m50s) 
CPU  2 inst:   25000000 cyc:   21110445 now IPC :1.06932: AVG IPC :1.14296: L2-Pf-HR :0.81825: L2-HR :0.81023: (Sim:0h29m52s) 
CPU  3 inst:   25000000 cyc:   21112490 now IPC :1.06377: AVG IPC :1.14283: L2-Pf-HR :0.81558: L2-HR :0.80908: (Sim:0h29m52s) 
CPU  1 inst:   26000004 cyc:   21933152 now IPC :1.19431: AVG IPC :1.14579: L2-Pf-HR :0.81377: L2-HR :0.80887: (Sim:0h31m28s) 
CPU  3 inst:   26000004 cyc:   21959699 now IPC :1.18035: AVG IPC :1.14435: L2-Pf-HR :0.81620: L2-HR :0.80913: (Sim:0h31m31s) 
CPU  2 inst:   26000004 cyc:   21988990 now IPC :1.13825: AVG IPC :1.14277: L2-Pf-HR :0.81855: L2-HR :0.81028: (Sim:0h31m34s) 
CPU  0 inst:   26000004 cyc:   22010932 now IPC :1.09286: AVG IPC :1.14156: L2-Pf-HR :0.82327: L2-HR :0.81559: (Sim:0h31m36s) 
CPU  3 inst:   27000004 cyc:   22835317 now IPC :1.14205: AVG IPC :1.14426: L2-Pf-HR :0.81656: L2-HR :0.80904: (Sim:0h33m15s) 
CPU  1 inst:   27000004 cyc:   22836158 now IPC :1.10741: AVG IPC :1.14421: L2-Pf-HR :0.81419: L2-HR :0.80880: (Sim:0h33m15s) 
CPU  0 inst:   27000004 cyc:   22841084 now IPC :1.20460: AVG IPC :1.14395: L2-Pf-HR :0.82369: L2-HR :0.81556: (Sim:0h33m15s) 
CPU  2 inst:   27000004 cyc:   22848572 now IPC :1.16336: AVG IPC :1.14358: L2-Pf-HR :0.81876: L2-HR :0.81022: (Sim:0h33m17s) 
CPU  1 inst:   28000005 cyc:   23456616 now IPC :1.61171: AVG IPC :1.15712: L2-Pf-HR :0.81497: L2-HR :0.80896: (Sim:0h34m45s) 
CPU  2 inst:   28000005 cyc:   23458524 now IPC :1.63947: AVG IPC :1.15704: L2-Pf-HR :0.81964: L2-HR :0.81063: (Sim:0h34m45s) 
CPU  3 inst:   28000005 cyc:   23463720 now IPC :1.59134: AVG IPC :1.15676: L2-Pf-HR :0.81728: L2-HR :0.80928: (Sim:0h34m46s) 
CPU  0 inst:   28000005 cyc:   23469329 now IPC :1.59174: AVG IPC :1.15647: L2-Pf-HR :0.82437: L2-HR :0.81567: (Sim:0h34m47s) 
CPU  2 inst:   29000005 cyc:   24741250 now IPC :0.77959: AVG IPC :1.13665: L2-Pf-HR :0.82109: L2-HR :0.81202: (Sim:0h36m47s) 
CPU  1 inst:   29000005 cyc:   24741919 now IPC :0.77803: AVG IPC :1.13660: L2-Pf-HR :0.81650: L2-HR :0.81018: (Sim:0h36m47s) 
CPU  0 inst:   29000005 cyc:   24745505 now IPC :0.78359: AVG IPC :1.13644: L2-Pf-HR :0.82547: L2-HR :0.81665: (Sim:0h36m48s) 
CPU  3 inst:   29000005 cyc:   24746088 now IPC :0.77981: AVG IPC :1.13641: L2-Pf-HR :0.81887: L2-HR :0.81084: (Sim:0h36m48s) 
CPU  1 inst:   30000003 cyc:   25584353 now IPC :1.18703: AVG IPC :1.13833: L2-Pf-HR :0.81838: L2-HR :0.81226: (Sim:0h38m27s) 
CPU  2 inst:   30000002 cyc:   25585126 now IPC :1.18500: AVG IPC :1.13831: L2-Pf-HR :0.82321: L2-HR :0.81453: (Sim:0h38m27s) 
CPU  3 inst:   30000002 cyc:   25585178 now IPC :1.19176: AVG IPC :1.13830: L2-Pf-HR :0.82121: L2-HR :0.81363: (Sim:0h38m27s) 
CPU  0 inst:   30000002 cyc:   25604100 now IPC :1.16469: AVG IPC :1.13742: L2-Pf-HR :0.82720: L2-HR :0.81876: (Sim:0h38m30s) 
CPU  1 inst:   31000003 cyc:   26457883 now IPC :1.14478: AVG IPC :1.13855: L2-Pf-HR :0.82050: L2-HR :0.81451: (Sim:0h40m12s) 
CPU  2 inst:   31000003 cyc:   26474851 now IPC :1.12394: AVG IPC :1.13781: L2-Pf-HR :0.82523: L2-HR :0.81696: (Sim:0h40m14s) 
CPU  3 inst:   31000003 cyc:   26478109 now IPC :1.11991: AVG IPC :1.13765: L2-Pf-HR :0.82352: L2-HR :0.81631: (Sim:0h40m15s) 
CPU  0 inst:   31000003 cyc:   26487460 now IPC :1.13204: AVG IPC :1.13724: L2-Pf-HR :0.82873: L2-HR :0.82062: (Sim:0h40m16s) 
CPU  3 inst:   32000004 cyc:   27228949 now IPC :1.33184: AVG IPC :1.14321: L2-Pf-HR :0.82615: L2-HR :0.81925: (Sim:0h41m49s) 
CPU  0 inst:   32000004 cyc:   27246305 now IPC :1.31779: AVG IPC :1.14245: L2-Pf-HR :0.83042: L2-HR :0.82255: (Sim:0h41m52s) 
CPU  2 inst:   32000004 cyc:   27249245 now IPC :1.29133: AVG IPC :1.14234: L2-Pf-HR :0.82743: L2-HR :0.81941: (Sim:0h41m53s) 
CPU  1 inst:   32000004 cyc:   27253222 now IPC :1.25733: AVG IPC :1.14215: L2-Pf-HR :0.82273: L2-HR :0.81679: (Sim:0h41m53s) 
CPU  3 inst:   33000000 cyc:   28960742 now IPC :0.57743: AVG IPC :1.10818: L2-Pf-HR :0.82709: L2-HR :0.81976: (Sim:0h44m14s) 
CPU  1 inst:   33000000 cyc:   28981774 now IPC :0.57852: AVG IPC :1.10735: L2-Pf-HR :0.82329: L2-HR :0.81689: (Sim:0h44m16s) 
CPU  2 inst:   33000000 cyc:   28983117 now IPC :0.57674: AVG IPC :1.10731: L2-Pf-HR :0.82792: L2-HR :0.81960: (Sim:0h44m16s) 
CPU  0 inst:   33000000 cyc:   28985651 now IPC :0.57493: AVG IPC :1.10720: L2-Pf-HR :0.83107: L2-HR :0.82275: (Sim:0h44m16s) 
CPU  3 inst:   34000005 cyc:   29984450 now IPC :0.97685: AVG IPC :1.10355: L2-Pf-HR :0.82727: L2-HR :0.81948: (Sim:0h46m5s) 
CPU  2 inst:   34000004 cyc:   30009292 now IPC :0.97450: AVG IPC :1.10261: L2-Pf-HR :0.82778: L2-HR :0.81928: (Sim:0h46m8s) 
CPU  0 inst:   34000001 cyc:   30020261 now IPC :0.96655: AVG IPC :1.10219: L2-Pf-HR :0.83090: L2-HR :0.82225: (Sim:0h46m10s) 
CPU  1 inst:   34000005 cyc:   30024064 now IPC :0.95943: AVG IPC :1.10204: L2-Pf-HR :0.82288: L2-HR :0.81626: (Sim:0h46m10s) 
CPU  3 inst:   35000005 cyc:   31016414 now IPC :0.96903: AVG IPC :1.09892: L2-Pf-HR :0.82752: L2-HR :0.81923: (Sim:0h48m0s) 
CPU  2 inst:   35000005 cyc:   31029613 now IPC :0.98008: AVG IPC :1.09845: L2-Pf-HR :0.82797: L2-HR :0.81926: (Sim:0h48m2s) 
CPU  0 inst:   35000005 cyc:   31032900 now IPC :0.98752: AVG IPC :1.09832: L2-Pf-HR :0.83086: L2-HR :0.82182: (Sim:0h48m2s) 
CPU  1 inst:   35000005 cyc:   31035424 now IPC :0.98877: AVG IPC :1.09822: L2-Pf-HR :0.82283: L2-HR :0.81588: (Sim:0h48m2s) 
CPU  0 inst:   36000005 cyc:   32064978 now IPC :0.96892: AVG IPC :1.09402: L2-Pf-HR :0.83069: L2-HR :0.82133: (Sim:0h49m52s) 
CPU  3 inst:   36000005 cyc:   32067903 now IPC :0.95103: AVG IPC :1.09392: L2-Pf-HR :0.82760: L2-HR :0.81891: (Sim:0h49m52s) 
CPU  1 inst:   36000005 cyc:   32082824 now IPC :0.95475: AVG IPC :1.09339: L2-Pf-HR :0.82259: L2-HR :0.81537: (Sim:0h49m54s) 
CPU  2 inst:   36000005 cyc:   32091343 now IPC :0.94186: AVG IPC :1.09311: L2-Pf-HR :0.82787: L2-HR :0.81910: (Sim:0h49m55s) 
CPU  3 inst:   37000000 cyc:   33133834 now IPC :0.93814: AVG IPC :1.08876: L2-Pf-HR :0.82768: L2-HR :0.81861: (Sim:0h51m47s) 
CPU  1 inst:   37000000 cyc:   33149258 now IPC :0.93770: AVG IPC :1.08823: L2-Pf-HR :0.82233: L2-HR :0.81487: (Sim:0h51m49s) 
CPU  2 inst:   37000000 cyc:   33156727 now IPC :0.93862: AVG IPC :1.08799: L2-Pf-HR :0.82773: L2-HR :0.81887: (Sim:0h51m50s) 
CPU  0 inst:   37000000 cyc:   33182995 now IPC :0.89444: AVG IPC :1.08709: L2-Pf-HR :0.83052: L2-HR :0.82091: (Sim:0h51m53s) 
CPU  1 inst:   38000004 cyc:   33994423 now IPC :1.18321: AVG IPC :1.09066: L2-Pf-HR :0.82224: L2-HR :0.81451: (Sim:0h53m30s) 
CPU  0 inst:   38000004 cyc:   34015546 now IPC :1.20113: AVG IPC :1.08997: L2-Pf-HR :0.83043: L2-HR :0.82053: (Sim:0h53m34s) 
CPU  3 inst:   38000004 cyc:   34017471 now IPC :1.13169: AVG IPC :1.08990: L2-Pf-HR :0.82778: L2-HR :0.81834: (Sim:0h53m34s) 
CPU  2 inst:   38000004 cyc:   34017574 now IPC :1.16165: AVG IPC :1.08991: L2-Pf-HR :0.82779: L2-HR :0.81885: (Sim:0h53m34s) 
CPU  1 inst:   39000004 cyc:   35566828 now IPC :0.63597: AVG IPC :1.06999: L2-Pf-HR :0.82225: L2-HR :0.81415: (Sim:0h55m45s) 
CPU  0 inst:   39000004 cyc:   35617002 now IPC :0.62443: AVG IPC :1.06844: L2-Pf-HR :0.83034: L2-HR :0.82016: (Sim:0h55m50s) 
CPU  2 inst:   39000004 cyc:   35636667 now IPC :0.61763: AVG IPC :1.06784: L2-Pf-HR :0.82777: L2-HR :0.81862: (Sim:0h55m52s) 
CPU  3 inst:   39000004 cyc:   35659940 now IPC :0.60884: AVG IPC :1.06712: L2-Pf-HR :0.82761: L2-HR :0.81795: (Sim:0h55m54s) 
CPU  0 inst:   40000001 cyc:   36497461 now IPC :1.13577: AVG IPC :1.07011: L2-Pf-HR :0.83037: L2-HR :0.82000: (Sim:0h57m31s) 
CPU  1 inst:   40000001 cyc:   36498788 now IPC :1.07300: AVG IPC :1.07006: L2-Pf-HR :0.82216: L2-HR :0.81381: (Sim:0h57m31s) 
CPU  2 inst:   40000001 cyc:   36506139 now IPC :1.15012: AVG IPC :1.06985: L2-Pf-HR :0.82778: L2-HR :0.81842: (Sim:0h57m32s) 
CPU  3 inst:   40000001 cyc:   36515727 now IPC :1.16851: AVG IPC :1.06956: L2-Pf-HR :0.82733: L2-HR :0.81771: (Sim:0h57m33s) 
CPU  0 inst:   41000001 cyc:   37391822 now IPC :1.11812: AVG IPC :1.07129: L2-Pf-HR :0.83046: L2-HR :0.81984: (Sim:0h59m14s) 
CPU  2 inst:   41000001 cyc:   37400347 now IPC :1.11831: AVG IPC :1.07104: L2-Pf-HR :0.82790: L2-HR :0.81830: (Sim:0h59m15s) 
CPU  3 inst:   41000001 cyc:   37409440 now IPC :1.11893: AVG IPC :1.07077: L2-Pf-HR :0.82722: L2-HR :0.81760: (Sim:0h59m16s) 
CPU  1 inst:   41000001 cyc:   37426001 now IPC :1.07850: AVG IPC :1.07028: L2-Pf-HR :0.82215: L2-HR :0.81353: (Sim:0h59m18s) 
CPU  2 inst:   42000001 cyc:   38310012 now IPC :1.09931: AVG IPC :1.07173: L2-Pf-HR :0.82772: L2-HR :0.81803: (Sim:1h0m58s) 
CPU  0 inst:   42000001 cyc:   38315305 now IPC :1.08286: AVG IPC :1.07157: L2-Pf-HR :0.83059: L2-HR :0.81975: (Sim:1h0m59s) 
CPU  1 inst:   42000001 cyc:   38318789 now IPC :1.12009: AVG IPC :1.07147: L2-Pf-HR :0.82212: L2-HR :0.81331: (Sim:1h0m59s) 
CPU  3 inst:   42000004 cyc:   38321762 now IPC :1.09611: AVG IPC :1.07139: L2-Pf-HR :0.82711: L2-HR :0.81755: (Sim:1h1m0s) 
CPU  0 inst:   43000005 cyc:   39185484 now IPC :1.14919: AVG IPC :1.07334: L2-Pf-HR :0.83079: L2-HR :0.81968: (Sim:1h2m41s) 
CPU  1 inst:   43000005 cyc:   39186504 now IPC :1.15246: AVG IPC :1.07331: L2-Pf-HR :0.82208: L2-HR :0.81300: (Sim:1h2m41s) 
CPU  2 inst:   43000005 cyc:   39188806 now IPC :1.13793: AVG IPC :1.07326: L2-Pf-HR :0.82754: L2-HR :0.81767: (Sim:1h2m42s) 
CPU  3 inst:   43000005 cyc:   39192725 now IPC :1.14816: AVG IPC :1.07314: L2-Pf-HR :0.82688: L2-HR :0.81733: (Sim:1h2m42s) 
CPU  2 inst:   44000000 cyc:   39879846 now IPC :1.44709: AVG IPC :1.07990: L2-Pf-HR :0.82759: L2-HR :0.81753: (Sim:1h4m17s) 
CPU  0 inst:   44000000 cyc:   39882681 now IPC :1.43431: AVG IPC :1.07981: L2-Pf-HR :0.83095: L2-HR :0.81957: (Sim:1h4m17s) 
CPU  3 inst:   44000000 cyc:   39884610 now IPC :1.44532: AVG IPC :1.07976: L2-Pf-HR :0.82687: L2-HR :0.81728: (Sim:1h4m18s) 
CPU  1 inst:   44000005 cyc:   39886977 now IPC :1.42761: AVG IPC :1.07969: L2-Pf-HR :0.82212: L2-HR :0.81280: (Sim:1h4m18s) 
CPU  3 inst:   45000004 cyc:   41104747 now IPC :0.81958: AVG IPC :1.07185: L2-Pf-HR :0.82723: L2-HR :0.81752: (Sim:1h6m13s) 
CPU  1 inst:   45000004 cyc:   41108664 now IPC :0.81854: AVG IPC :1.07174: L2-Pf-HR :0.82296: L2-HR :0.81353: (Sim:1h6m14s) 
CPU  0 inst:   45000004 cyc:   41116166 now IPC :0.81071: AVG IPC :1.07154: L2-Pf-HR :0.83152: L2-HR :0.82005: (Sim:1h6m14s) 
CPU  2 inst:   45000004 cyc:   41126734 now IPC :0.80200: AVG IPC :1.07127: L2-Pf-HR :0.82826: L2-HR :0.81809: (Sim:1h6m16s) 
CPU  0 inst:   46000000 cyc:   41914032 now IPC :1.25334: AVG IPC :1.07509: L2-Pf-HR :0.83276: L2-HR :0.82164: (Sim:1h7m51s) 
CPU  2 inst:   46000000 cyc:   41920954 now IPC :1.25909: AVG IPC :1.07491: L2-Pf-HR :0.82936: L2-HR :0.81957: (Sim:1h7m52s) 
CPU  3 inst:   46000000 cyc:   41928247 now IPC :1.21432: AVG IPC :1.07471: L2-Pf-HR :0.82724: L2-HR :0.81782: (Sim:1h7m53s) 
CPU  1 inst:   46000000 cyc:   41928812 now IPC :1.21929: AVG IPC :1.07469: L2-Pf-HR :0.82435: L2-HR :0.81544: (Sim:1h7m53s) 
CPU  3 inst:   47000000 cyc:   42824432 now IPC :1.11584: AVG IPC :1.07559: L2-Pf-HR :0.82731: L2-HR :0.81820: (Sim:1h9m35s) 
CPU  0 inst:   47000000 cyc:   42831447 now IPC :1.09002: AVG IPC :1.07541: L2-Pf-HR :0.83394: L2-HR :0.82324: (Sim:1h9m36s) 
CPU  2 inst:   47000000 cyc:   42835779 now IPC :1.09311: AVG IPC :1.07531: L2-Pf-HR :0.83041: L2-HR :0.82103: (Sim:1h9m36s) 
CPU  1 inst:   47000000 cyc:   42835830 now IPC :1.10251: AVG IPC :1.07530: L2-Pf-HR :0.82571: L2-HR :0.81728: (Sim:1h9m36s) 
CPU  2 inst:   48000002 cyc:   43686576 now IPC :1.17537: AVG IPC :1.07730: L2-Pf-HR :0.83162: L2-HR :0.82255: (Sim:1h11m17s) 
CPU  0 inst:   48000002 cyc:   43688169 now IPC :1.16724: AVG IPC :1.07726: L2-Pf-HR :0.83524: L2-HR :0.82480: (Sim:1h11m17s) 
CPU  1 inst:   48000002 cyc:   43688842 now IPC :1.17232: AVG IPC :1.07723: L2-Pf-HR :0.82716: L2-HR :0.81909: (Sim:1h11m17s) 
CPU  3 inst:   48000002 cyc:   43699210 now IPC :1.14315: AVG IPC :1.07698: L2-Pf-HR :0.82756: L2-HR :0.81867: (Sim:1h11m19s) 
CPU  1 inst:   49000003 cyc:   45367253 now IPC :0.59580: AVG IPC :1.05903: L2-Pf-HR :0.82788: L2-HR :0.81970: (Sim:1h13m36s) 
CPU  0 inst:   49000003 cyc:   45383959 now IPC :0.58970: AVG IPC :1.05863: L2-Pf-HR :0.83585: L2-HR :0.82527: (Sim:1h13m37s) 
CPU  2 inst:   49000003 cyc:   45388467 now IPC :0.58758: AVG IPC :1.05853: L2-Pf-HR :0.83218: L2-HR :0.82292: (Sim:1h13m38s) 
CPU  3 inst:   49000003 cyc:   45450502 now IPC :0.57101: AVG IPC :1.05705: L2-Pf-HR :0.82800: L2-HR :0.81886: (Sim:1h13m45s) 
CPU  0 inst:   50000004 cyc:   46411964 now IPC :0.97276: AVG IPC :1.05669: L2-Pf-HR :0.83571: L2-HR :0.82495: (Sim:1h15m26s) 
CPU  2 inst:   50000004 cyc:   46417297 now IPC :0.97198: AVG IPC :1.05657: L2-Pf-HR :0.83213: L2-HR :0.82253: (Sim:1h15m27s) 
CPU  3 inst:   50000004 cyc:   46421967 now IPC :1.02937: AVG IPC :1.05646: L2-Pf-HR :0.82812: L2-HR :0.81867: (Sim:1h15m27s) 
CPU  1 inst:   50000004 cyc:   46422511 now IPC :0.94764: AVG IPC :1.05644: L2-Pf-HR :0.82766: L2-HR :0.81936: (Sim:1h15m27s) 
CPU  0 inst:   51000000 cyc:   47407464 now IPC :1.00452: AVG IPC :1.05557: L2-Pf-HR :0.83573: L2-HR :0.82475: (Sim:1h17m17s) 
CPU  3 inst:   51000000 cyc:   47425648 now IPC :0.99633: AVG IPC :1.05516: L2-Pf-HR :0.82810: L2-HR :0.81837: (Sim:1h17m19s) 
CPU  1 inst:   51000005 cyc:   47429773 now IPC :0.99279: AVG IPC :1.05506: L2-Pf-HR :0.82741: L2-HR :0.81894: (Sim:1h17m20s) 
CPU  2 inst:   51000005 cyc:   47466335 now IPC :0.95326: AVG IPC :1.05424: L2-Pf-HR :0.83227: L2-HR :0.82230: (Sim:1h17m24s) 
CPU  2 inst:   52000000 cyc:   48510368 now IPC :0.95782: AVG IPC :1.05212: L2-Pf-HR :0.83235: L2-HR :0.82206: (Sim:1h18m58s) 
CPU  0 inst:   52000000 cyc:   48510847 now IPC :0.90630: AVG IPC :1.05210: L2-Pf-HR :0.83576: L2-HR :0.82458: (Sim:1h18m58s) 
CPU  1 inst:   52000000 cyc:   48515653 now IPC :0.92091: AVG IPC :1.05199: L2-Pf-HR :0.82730: L2-HR :0.81867: (Sim:1h18m59s) 
CPU  3 inst:   52000000 cyc:   48516086 now IPC :0.91706: AVG IPC :1.05199: L2-Pf-HR :0.82819: L2-HR :0.81819: (Sim:1h18m59s) 
CPU  2 inst:   53000000 cyc:   49581600 now IPC :0.93350: AVG IPC :1.04951: L2-Pf-HR :0.83218: L2-HR :0.82162: (Sim:1h20m40s) 
CPU  0 inst:   53000000 cyc:   49584979 now IPC :0.93098: AVG IPC :1.04943: L2-Pf-HR :0.83570: L2-HR :0.82431: (Sim:1h20m41s) 
CPU  1 inst:   53000005 cyc:   49602554 now IPC :0.92005: AVG IPC :1.04905: L2-Pf-HR :0.82699: L2-HR :0.81822: (Sim:1h20m43s) 
CPU  3 inst:   53000005 cyc:   49643351 now IPC :0.88711: AVG IPC :1.04817: L2-Pf-HR :0.82816: L2-HR :0.81788: (Sim:1h20m48s) 
CPU  0 inst:   54000002 cyc:   50507222 now IPC :1.08432: AVG IPC :1.05008: L2-Pf-HR :0.83562: L2-HR :0.82405: (Sim:1h22m29s) 
CPU  1 inst:   54000002 cyc:   50508772 now IPC :1.10348: AVG IPC :1.05004: L2-Pf-HR :0.82688: L2-HR :0.81796: (Sim:1h22m29s) 
CPU  2 inst:   54000002 cyc:   50510966 now IPC :1.07600: AVG IPC :1.05000: L2-Pf-HR :0.83218: L2-HR :0.82131: (Sim:1h22m29s) 
CPU  3 inst:   54000002 cyc:   50523063 now IPC :1.13673: AVG IPC :1.04974: L2-Pf-HR :0.82830: L2-HR :0.81773: (Sim:1h22m31s) 
CPU  2 inst:   55000005 cyc:   52046115 now IPC :0.65140: AVG IPC :1.03802: L2-Pf-HR :0.83218: L2-HR :0.82104: (Sim:1h24m35s) 
CPU  0 inst:   55000005 cyc:   52048709 now IPC :0.64873: AVG IPC :1.03796: L2-Pf-HR :0.83565: L2-HR :0.82385: (Sim:1h24m35s) 
CPU  3 inst:   55000002 cyc:   52055628 now IPC :0.65250: AVG IPC :1.03782: L2-Pf-HR :0.82841: L2-HR :0.81754: (Sim:1h24m35s) 
CPU  1 inst:   55000002 cyc:   52062054 now IPC :0.64380: AVG IPC :1.03769: L2-Pf-HR :0.82694: L2-HR :0.81772: (Sim:1h24m36s) 
CPU  2 inst:   56000001 cyc:   52993381 now IPC :1.05567: AVG IPC :1.03834: L2-Pf-HR :0.83217: L2-HR :0.82095: (Sim:1h25m34s) 
CPU  1 inst:   56000000 cyc:   53000547 now IPC :1.06554: AVG IPC :1.03819: L2-Pf-HR :0.82688: L2-HR :0.81750: (Sim:1h25m35s) 
CPU  3 inst:   56000000 cyc:   53008490 now IPC :1.04947: AVG IPC :1.03803: L2-Pf-HR :0.82827: L2-HR :0.81731: (Sim:1h25m35s) 
CPU  0 inst:   56000000 cyc:   53063060 now IPC :0.98585: AVG IPC :1.03695: L2-Pf-HR :0.83558: L2-HR :0.82371: (Sim:1h25m39s) 
CPU  0 inst:   57000002 cyc:   53912894 now IPC :1.17670: AVG IPC :1.03919: L2-Pf-HR :0.83556: L2-HR :0.82359: (Sim:1h26m34s) 
CPU  1 inst:   57000004 cyc:   53920104 now IPC :1.08748: AVG IPC :1.03905: L2-Pf-HR :0.82670: L2-HR :0.81720: (Sim:1h26m34s) 
CPU  2 inst:   57000004 cyc:   53923520 now IPC :1.07511: AVG IPC :1.03899: L2-Pf-HR :0.83205: L2-HR :0.82076: (Sim:1h26m35s) 
CPU  3 inst:   57000004 cyc:   53942931 now IPC :1.07016: AVG IPC :1.03860: L2-Pf-HR :0.82808: L2-HR :0.81702: (Sim:1h26m36s) 
CPU  1 inst:   58000005 cyc:   54814559 now IPC :1.11800: AVG IPC :1.04036: L2-Pf-HR :0.82660: L2-HR :0.81694: (Sim:1h27m33s) 
CPU  3 inst:   58000005 cyc:   54816774 now IPC :1.14437: AVG IPC :1.04032: L2-Pf-HR :0.82800: L2-HR :0.81683: (Sim:1h27m33s) 
CPU  2 inst:   58000005 cyc:   54825377 now IPC :1.10882: AVG IPC :1.04016: L2-Pf-HR :0.83201: L2-HR :0.82060: (Sim:1h27m33s) 
CPU  0 inst:   58000005 cyc:   54828089 now IPC :1.09267: AVG IPC :1.04010: L2-Pf-HR :0.83536: L2-HR :0.82335: (Sim:1h27m33s) 
CPU  0 inst:   59000002 cyc:   55682442 now IPC :1.17047: AVG IPC :1.04214: L2-Pf-HR :0.83526: L2-HR :0.82318: (Sim:1h28m30s) 
CPU  3 inst:   59000002 cyc:   55682592 now IPC :1.15497: AVG IPC :1.04213: L2-Pf-HR :0.82790: L2-HR :0.81665: (Sim:1h28m30s) 
CPU  2 inst:   59000002 cyc:   55707728 now IPC :1.13333: AVG IPC :1.04166: L2-Pf-HR :0.83197: L2-HR :0.82049: (Sim:1h28m32s) 
CPU  1 inst:   59000002 cyc:   55713795 now IPC :1.11205: AVG IPC :1.04154: L2-Pf-HR :0.82645: L2-HR :0.81668: (Sim:1h28m33s) 
CPU  0 inst:   60000003 cyc:   56416787 now IPC :1.36176: AVG IPC :1.04637: L2-Pf-HR :0.83505: L2-HR :0.82292: (Sim:1h29m24s) 
CPU  2 inst:   60000003 cyc:   56419011 now IPC :1.40591: AVG IPC :1.04633: L2-Pf-HR :0.83187: L2-HR :0.82028: (Sim:1h29m25s) 
CPU  1 inst:   60000003 cyc:   56424240 now IPC :1.40757: AVG IPC :1.04623: L2-Pf-HR :0.82632: L2-HR :0.81645: (Sim:1h29m25s) 
CPU  3 inst:   60000003 cyc:   56427391 now IPC :1.34265: AVG IPC :1.04617: L2-Pf-HR :0.82775: L2-HR :0.81643: (Sim:1h29m25s) 
CPU  1 inst:   61000001 cyc:   57563435 now IPC :0.87781: AVG IPC :1.04284: L2-Pf-HR :0.82677: L2-HR :0.81672: (Sim:1h30m30s) 
CPU  2 inst:   61000001 cyc:   57564848 now IPC :0.87272: AVG IPC :1.04282: L2-Pf-HR :0.83231: L2-HR :0.82060: (Sim:1h30m30s) 
CPU  0 inst:   61000003 cyc:   57572062 now IPC :0.86559: AVG IPC :1.04268: L2-Pf-HR :0.83543: L2-HR :0.82322: (Sim:1h30m30s) 
CPU  3 inst:   61000003 cyc:   57598680 now IPC :0.85376: AVG IPC :1.04219: L2-Pf-HR :0.82816: L2-HR :0.81671: (Sim:1h30m32s) 
CPU  3 inst:   62000000 cyc:   58418352 now IPC :1.22000: AVG IPC :1.04473: L2-Pf-HR :0.82893: L2-HR :0.81778: (Sim:1h31m26s) 
CPU  2 inst:   62000000 cyc:   58418381 now IPC :1.17160: AVG IPC :1.04473: L2-Pf-HR :0.83327: L2-HR :0.82189: (Sim:1h31m27s) 
CPU  0 inst:   62000000 cyc:   58418494 now IPC :1.18143: AVG IPC :1.04472: L2-Pf-HR :0.83634: L2-HR :0.82452: (Sim:1h31m27s) 
CPU  1 inst:   62000000 cyc:   58425063 now IPC :1.16059: AVG IPC :1.04460: L2-Pf-HR :0.82754: L2-HR :0.81780: (Sim:1h31m27s) 
CPU  2 inst:   63000005 cyc:   59309433 now IPC :1.12227: AVG IPC :1.04592: L2-Pf-HR :0.83426: L2-HR :0.82318: (Sim:1h32m59s) 
CPU  0 inst:   63000005 cyc:   59312108 now IPC :1.11906: AVG IPC :1.04586: L2-Pf-HR :0.83726: L2-HR :0.82585: (Sim:1h32m59s) 
CPU  1 inst:   63000005 cyc:   59325226 now IPC :1.11092: AVG IPC :1.04562: L2-Pf-HR :0.82843: L2-HR :0.81896: (Sim:1h33m1s) 
CPU  3 inst:   63000005 cyc:   59349937 now IPC :1.07344: AVG IPC :1.04518: L2-Pf-HR :0.82973: L2-HR :0.81887: (Sim:1h33m5s) 
CPU  1 inst:   64000005 cyc:   60168315 now IPC :1.18611: AVG IPC :1.04763: L2-Pf-HR :0.82926: L2-HR :0.82005: (Sim:1h34m49s) 
CPU  2 inst:   64000005 cyc:   60175273 now IPC :1.15495: AVG IPC :1.04751: L2-Pf-HR :0.83527: L2-HR :0.82445: (Sim:1h34m50s) 
CPU  3 inst:   64000005 cyc:   60184984 now IPC :1.19754: AVG IPC :1.04733: L2-Pf-HR :0.83057: L2-HR :0.81996: (Sim:1h34m51s) 
CPU  0 inst:   64000005 cyc:   60200807 now IPC :1.12524: AVG IPC :1.04705: L2-Pf-HR :0.83815: L2-HR :0.82711: (Sim:1h34m53s) 
CPU  2 inst:   65000000 cyc:   61698827 now IPC :0.65636: AVG IPC :1.03769: L2-Pf-HR :0.83594: L2-HR :0.82507: (Sim:1h37m16s) 
CPU  0 inst:   65000000 cyc:   61710641 now IPC :0.66232: AVG IPC :1.03749: L2-Pf-HR :0.83894: L2-HR :0.82784: (Sim:1h37m17s) 
CPU  1 inst:   65000000 cyc:   61716973 now IPC :0.64572: AVG IPC :1.03738: L2-Pf-HR :0.82997: L2-HR :0.82066: (Sim:1h37m18s) 
CPU  3 inst:   65000000 cyc:   61720688 now IPC :0.65116: AVG IPC :1.03732: L2-Pf-HR :0.83128: L2-HR :0.82055: (Sim:1h37m18s) 
CPU  0 inst:   66000003 cyc:   62815268 now IPC :0.90529: AVG IPC :1.03513: L2-Pf-HR :0.83880: L2-HR :0.82751: (Sim:1h39m11s) 
CPU  3 inst:   66000003 cyc:   62820506 now IPC :0.90924: AVG IPC :1.03504: L2-Pf-HR :0.83110: L2-HR :0.82029: (Sim:1h39m12s) 
CPU  2 inst:   66000003 cyc:   62822794 now IPC :0.88971: AVG IPC :1.03500: L2-Pf-HR :0.83577: L2-HR :0.82481: (Sim:1h39m12s) 
CPU  1 inst:   66000002 cyc:   62832951 now IPC :0.89608: AVG IPC :1.03483: L2-Pf-HR :0.82985: L2-HR :0.82046: (Sim:1h39m14s) 
CPU  2 inst:   67000005 cyc:   63812254 now IPC :1.01065: AVG IPC :1.03462: L2-Pf-HR :0.83558: L2-HR :0.82453: (Sim:1h41m7s) 
CPU  1 inst:   67000005 cyc:   63822554 now IPC :1.01051: AVG IPC :1.03444: L2-Pf-HR :0.82965: L2-HR :0.82021: (Sim:1h41m9s) 
CPU  3 inst:   67000005 cyc:   63824847 now IPC :0.99568: AVG IPC :1.03441: L2-Pf-HR :0.83092: L2-HR :0.81998: (Sim:1h41m9s) 
CPU  0 inst:   67000005 cyc:   63827387 now IPC :0.98803: AVG IPC :1.03437: L2-Pf-HR :0.83861: L2-HR :0.82716: (Sim:1h41m10s) 
CPU  1 inst:   68000000 cyc:   64884706 now IPC :0.94148: AVG IPC :1.03290: L2-Pf-HR :0.82954: L2-HR :0.82003: (Sim:1h43m10s) 
CPU  2 inst:   68000000 cyc:   64896198 now IPC :0.92255: AVG IPC :1.03272: L2-Pf-HR :0.83531: L2-HR :0.82419: (Sim:1h43m12s) 
CPU  0 inst:   68000000 cyc:   64912540 now IPC :0.92152: AVG IPC :1.03245: L2-Pf-HR :0.83847: L2-HR :0.82685: (Sim:1h43m14s) 
CPU  3 inst:   68000000 cyc:   64913229 now IPC :0.91879: AVG IPC :1.03244: L2-Pf-HR :0.83077: L2-HR :0.81973: (Sim:1h43m14s) 
CPU  0 inst:   69000000 cyc:   65988968 now IPC :0.92900: AVG IPC :1.03074: L2-Pf-HR :0.83837: L2-HR :0.82658: (Sim:1h45m15s) 
CPU  2 inst:   69000000 cyc:   65992047 now IPC :0.91253: AVG IPC :1.03069: L2-Pf-HR :0.83517: L2-HR :0.82397: (Sim:1h45m15s) 
CPU  3 inst:   69000000 cyc:   65996488 now IPC :0.92314: AVG IPC :1.03062: L2-Pf-HR :0.83058: L2-HR :0.81945: (Sim:1h45m16s) 
CPU  1 inst:   69000000 cyc:   65999983 now IPC :0.89664: AVG IPC :1.03056: L2-Pf-HR :0.82946: L2-HR :0.81985: (Sim:1h45m16s) 
CPU  0 inst:   70000001 cyc:   66927408 now IPC :1.06560: AVG IPC :1.03123: L2-Pf-HR :0.83825: L2-HR :0.82627: (Sim:1h47m7s) 
CPU  3 inst:   70000001 cyc:   66951467 now IPC :1.04714: AVG IPC :1.03086: L2-Pf-HR :0.83036: L2-HR :0.81913: (Sim:1h47m11s) 
CPU  2 inst:   70000001 cyc:   66954651 now IPC :1.03885: AVG IPC :1.03081: L2-Pf-HR :0.83500: L2-HR :0.82372: (Sim:1h47m12s) 
CPU  1 inst:   70000000 cyc:   66962300 now IPC :1.03916: AVG IPC :1.03069: L2-Pf-HR :0.82930: L2-HR :0.81961: (Sim:1h47m13s) 
CPU  0 inst:   71000003 cyc:   68218656 now IPC :0.77445: AVG IPC :1.02630: L2-Pf-HR :0.83823: L2-HR :0.82602: (Sim:1h49m19s) 
CPU  3 inst:   71000003 cyc:   68331377 now IPC :0.72469: AVG IPC :1.02458: L2-Pf-HR :0.83035: L2-HR :0.81892: (Sim:1h49m30s) 
CPU  2 inst:   71000003 cyc:   68343186 now IPC :0.72018: AVG IPC :1.02441: L2-Pf-HR :0.83499: L2-HR :0.82353: (Sim:1h49m31s) 
CPU  1 inst:   71000003 cyc:   68354952 now IPC :0.71806: AVG IPC :1.02422: L2-Pf-HR :0.82935: L2-HR :0.81945: (Sim:1h49m32s) 
CPU  0 inst:   72000003 cyc:   69383898 now IPC :0.85819: AVG IPC :1.02344: L2-Pf-HR :0.83806: L2-HR :0.82582: (Sim:1h51m25s) 
CPU  3 inst:   72000003 cyc:   69395038 now IPC :0.94015: AVG IPC :1.02327: L2-Pf-HR :0.83022: L2-HR :0.81878: (Sim:1h51m25s) 
CPU  1 inst:   72000003 cyc:   69395372 now IPC :0.96115: AVG IPC :1.02327: L2-Pf-HR :0.82910: L2-HR :0.81917: (Sim:1h51m25s) 
CPU  2 inst:   72000003 cyc:   69426525 now IPC :0.92307: AVG IPC :1.02281: L2-Pf-HR :0.83489: L2-HR :0.82335: (Sim:1h51m27s) 
CPU  0 inst:   73000004 cyc:   70255853 now IPC :1.14685: AVG IPC :1.02499: L2-Pf-HR :0.83797: L2-HR :0.82563: (Sim:1h52m22s) 
CPU  3 inst:   73000004 cyc:   70264763 now IPC :1.14979: AVG IPC :1.02486: L2-Pf-HR :0.83013: L2-HR :0.81861: (Sim:1h52m23s) 
CPU  1 inst:   73000004 cyc:   70279158 now IPC :1.13150: AVG IPC :1.02465: L2-Pf-HR :0.82890: L2-HR :0.81889: (Sim:1h52m24s) 
CPU  2 inst:   73000005 cyc:   70293642 now IPC :1.15325: AVG IPC :1.02444: L2-Pf-HR :0.83492: L2-HR :0.82320: (Sim:1h52m25s) 
CPU  0 inst:   74000005 cyc:   71142644 now IPC :1.12766: AVG IPC :1.02629: L2-Pf-HR :0.83777: L2-HR :0.82540: (Sim:1h53m20s) 
CPU  1 inst:   74000005 cyc:   71151293 now IPC :1.14661: AVG IPC :1.02616: L2-Pf-HR :0.82877: L2-HR :0.81870: (Sim:1h53m20s) 
CPU  3 inst:   74000005 cyc:   71151399 now IPC :1.12786: AVG IPC :1.02616: L2-Pf-HR :0.82997: L2-HR :0.81843: (Sim:1h53m20s) 
CPU  2 inst:   74000005 cyc:   71156076 now IPC :1.15951: AVG IPC :1.02610: L2-Pf-HR :0.83482: L2-HR :0.82300: (Sim:1h53m20s) 
CPU  0 inst:   75000001 cyc:   72025618 now IPC :1.13253: AVG IPC :1.02761: L2-Pf-HR :0.83771: L2-HR :0.82529: (Sim:1h54m17s) 
CPU  3 inst:   75000001 cyc:   72038078 now IPC :1.12780: AVG IPC :1.02743: L2-Pf-HR :0.82989: L2-HR :0.81831: (Sim:1h54m18s) 
CPU  1 inst:   75000001 cyc:   72041279 now IPC :1.12361: AVG IPC :1.02738: L2-Pf-HR :0.82866: L2-HR :0.81852: (Sim:1h54m18s) 
CPU  2 inst:   75000001 cyc:   72053236 now IPC :1.11462: AVG IPC :1.02722: L2-Pf-HR :0.83474: L2-HR :0.82281: (Sim:1h54m19s) 
CPU  2 inst:   76000005 cyc:   72822600 now IPC :1.29978: AVG IPC :1.03013: L2-Pf-HR :0.83461: L2-HR :0.82259: (Sim:1h55m14s) 
CPU  0 inst:   76000005 cyc:   72826115 now IPC :1.24923: AVG IPC :1.03008: L2-Pf-HR :0.83754: L2-HR :0.82509: (Sim:1h55m14s) 
CPU  1 inst:   76000005 cyc:   72833295 now IPC :1.26261: AVG IPC :1.02998: L2-Pf-HR :0.82848: L2-HR :0.81829: (Sim:1h55m15s) 
CPU  3 inst:   76000005 cyc:   72834611 now IPC :1.25545: AVG IPC :1.02996: L2-Pf-HR :0.82982: L2-HR :0.81818: (Sim:1h55m15s) 
CPU  2 inst:   77000001 cyc:   73947391 now IPC :0.88905: AVG IPC :1.02796: L2-Pf-HR :0.83467: L2-HR :0.82256: (Sim:1h56m17s) 
CPU  0 inst:   77000001 cyc:   73959883 now IPC :0.88201: AVG IPC :1.02778: L2-Pf-HR :0.83763: L2-HR :0.82507: (Sim:1h56m18s) 
CPU  1 inst:   77000002 cyc:   73965577 now IPC :0.88317: AVG IPC :1.02770: L2-Pf-HR :0.82865: L2-HR :0.81830: (Sim:1h56m18s) 
CPU  3 inst:   77000001 cyc:   73970350 now IPC :0.88048: AVG IPC :1.02763: L2-Pf-HR :0.83002: L2-HR :0.81829: (Sim:1h56m19s) 
CPU  3 inst:   78000003 cyc:   74812831 now IPC :1.18697: AVG IPC :1.02945: L2-Pf-HR :0.83066: L2-HR :0.81921: (Sim:1h57m14s) 
CPU  1 inst:   78000003 cyc:   74815700 now IPC :1.17630: AVG IPC :1.02941: L2-Pf-HR :0.82902: L2-HR :0.81885: (Sim:1h57m14s) 
CPU  2 inst:   78000002 cyc:   74829602 now IPC :1.13352: AVG IPC :1.02922: L2-Pf-HR :0.83543: L2-HR :0.82363: (Sim:1h57m15s) 
CPU  0 inst:   78000002 cyc:   74831262 now IPC :1.14761: AVG IPC :1.02919: L2-Pf-HR :0.83824: L2-HR :0.82594: (Sim:1h57m15s) 
CPU  2 inst:   79000000 cyc:   75671374 now IPC :1.18797: AVG IPC :1.03101: L2-Pf-HR :0.83613: L2-HR :0.82467: (Sim:1h58m11s) 
CPU  3 inst:   79000000 cyc:   75683252 now IPC :1.14887: AVG IPC :1.03084: L2-Pf-HR :0.83130: L2-HR :0.82013: (Sim:1h58m12s) 
CPU  0 inst:   79000000 cyc:   75684487 now IPC :1.17202: AVG IPC :1.03082: L2-Pf-HR :0.83885: L2-HR :0.82683: (Sim:1h58m12s) 
CPU  1 inst:   79000000 cyc:   75706634 now IPC :1.12241: AVG IPC :1.03052: L2-Pf-HR :0.82940: L2-HR :0.81939: (Sim:1h58m13s) 
CPU  3 inst:   80000000 cyc:   76588367 now IPC :1.10483: AVG IPC :1.03173: L2-Pf-HR :0.83204: L2-HR :0.82113: (Sim:1h59m9s) 
CPU  2 inst:   80000000 cyc:   76593412 now IPC :1.08455: AVG IPC :1.03166: L2-Pf-HR :0.83685: L2-HR :0.82570: (Sim:1h59m9s) 
CPU  1 inst:   80000000 cyc:   76603391 now IPC :1.11513: AVG IPC :1.03152: L2-Pf-HR :0.82985: L2-HR :0.82000: (Sim:1h59m10s) 
CPU  0 inst:   80000000 cyc:   76608288 now IPC :1.08248: AVG IPC :1.03146: L2-Pf-HR :0.83944: L2-HR :0.82769: (Sim:1h59m10s) 
CPU  2 inst:   81000004 cyc:   77990703 now IPC :0.71567: AVG IPC :1.02593: L2-Pf-HR :0.83754: L2-HR :0.82642: (Sim:2h0m20s) 
CPU  3 inst:   81000003 cyc:   78010943 now IPC :0.70295: AVG IPC :1.02566: L2-Pf-HR :0.83276: L2-HR :0.82188: (Sim:2h0m21s) 
CPU  1 inst:   81000004 cyc:   78049261 now IPC :0.69163: AVG IPC :1.02514: L2-Pf-HR :0.83024: L2-HR :0.82035: (Sim:2h0m22s) 
CPU  0 inst:   81000004 cyc:   78049867 now IPC :0.69369: AVG IPC :1.02514: L2-Pf-HR :0.84005: L2-HR :0.82829: (Sim:2h0m22s) 
CPU  3 inst:   82000005 cyc:   79234868 now IPC :0.81705: AVG IPC :1.02239: L2-Pf-HR :0.83276: L2-HR :0.82178: (Sim:2h1m27s) 
CPU  2 inst:   82000004 cyc:   79240924 now IPC :0.79986: AVG IPC :1.02232: L2-Pf-HR :0.83736: L2-HR :0.82619: (Sim:2h1m27s) 
CPU  1 inst:   82000005 cyc:   79245684 now IPC :0.83583: AVG IPC :1.02225: L2-Pf-HR :0.82993: L2-HR :0.82003: (Sim:2h1m27s) 
CPU  0 inst:   82000005 cyc:   79245701 now IPC :0.83624: AVG IPC :1.02225: L2-Pf-HR :0.83994: L2-HR :0.82806: (Sim:2h1m27s) 
CPU  2 inst:   83000004 cyc:   80236556 now IPC :1.00439: AVG IPC :1.02209: L2-Pf-HR :0.83718: L2-HR :0.82591: (Sim:2h2m28s) 
CPU  0 inst:   83000004 cyc:   80260897 now IPC :0.98503: AVG IPC :1.02177: L2-Pf-HR :0.83975: L2-HR :0.82775: (Sim:2h2m29s) 
CPU  1 inst:   83000004 cyc:   80301500 now IPC :0.94713: AVG IPC :1.02125: L2-Pf-HR :0.82961: L2-HR :0.81967: (Sim:2h2m32s) 
CPU  3 inst:   83000004 cyc:   80307214 now IPC :0.93253: AVG IPC :1.02118: L2-Pf-HR :0.83269: L2-HR :0.82158: (Sim:2h2m33s) 
CPU  2 inst:   84000000 cyc:   81349072 now IPC :0.89886: AVG IPC :1.02039: L2-Pf-HR :0.83704: L2-HR :0.82568: (Sim:2h3m34s) 
CPU  1 inst:   84000000 cyc:   81351597 now IPC :0.95229: AVG IPC :1.02035: L2-Pf-HR :0.82935: L2-HR :0.81938: (Sim:2h3m34s) 
CPU  3 inst:   84000000 cyc:   81361631 now IPC :0.94839: AVG IPC :1.02022: L2-Pf-HR :0.83268: L2-HR :0.82147: (Sim:2h3m35s) 
CPU  0 inst:   84000000 cyc:   81399045 now IPC :0.87862: AVG IPC :1.01975: L2-Pf-HR :0.83967: L2-HR :0.82755: (Sim:2h3m37s) 
CPU  1 inst:   85000001 cyc:   82429015 now IPC :0.92815: AVG IPC :1.01913: L2-Pf-HR :0.82913: L2-HR :0.81910: (Sim:2h4m38s) 
CPU  3 inst:   85000001 cyc:   82431327 now IPC :0.93485: AVG IPC :1.01910: L2-Pf-HR :0.83268: L2-HR :0.82134: (Sim:2h4m38s) 
CPU  2 inst:   85000001 cyc:   82445699 now IPC :0.91189: AVG IPC :1.01893: L2-Pf-HR :0.83690: L2-HR :0.82545: (Sim:2h4m39s) 
CPU  0 inst:   85000001 cyc:   82449668 now IPC :0.95182: AVG IPC :1.01887: L2-Pf-HR :0.83958: L2-HR :0.82731: (Sim:2h4m39s) 
CPU  2 inst:   86000002 cyc:   83471098 now IPC :0.97523: AVG IPC :1.01838: L2-Pf-HR :0.83680: L2-HR :0.82527: (Sim:2h5m40s) 
CPU  3 inst:   86000002 cyc:   83476047 now IPC :0.95720: AVG IPC :1.01832: L2-Pf-HR :0.83266: L2-HR :0.82119: (Sim:2h5m41s) 
CPU  0 inst:   86000002 cyc:   83476734 now IPC :0.97365: AVG IPC :1.01831: L2-Pf-HR :0.83943: L2-HR :0.82705: (Sim:2h5m41s) 
CPU  1 inst:   86000002 cyc:   83479765 now IPC :0.95170: AVG IPC :1.01827: L2-Pf-HR :0.82892: L2-HR :0.81885: (Sim:2h5m41s) 
CPU  2 inst:   87000002 cyc:   84600676 now IPC :0.88529: AVG IPC :1.01658: L2-Pf-HR :0.83683: L2-HR :0.82513: (Sim:2h6m47s) 
CPU  0 inst:   87000002 cyc:   84632703 now IPC :0.86508: AVG IPC :1.01619: L2-Pf-HR :0.83941: L2-HR :0.82684: (Sim:2h6m48s) 
CPU  1 inst:   87000002 cyc:   84635299 now IPC :0.86540: AVG IPC :1.01616: L2-Pf-HR :0.82901: L2-HR :0.81877: (Sim:2h6m48s) 
CPU  3 inst:   87000002 cyc:   84652869 now IPC :0.84975: AVG IPC :1.01595: L2-Pf-HR :0.83279: L2-HR :0.82113: (Sim:2h6m48s) 
CPU  1 inst:   88000000 cyc:   85887100 now IPC :0.79885: AVG IPC :1.01295: L2-Pf-HR :0.82872: L2-HR :0.81852: (Sim:2h7m52s) 
CPU  2 inst:   88000000 cyc:   85910755 now IPC :0.76331: AVG IPC :1.01268: L2-Pf-HR :0.83664: L2-HR :0.82490: (Sim:2h7m54s) 
CPU  3 inst:   88000000 cyc:   85915374 now IPC :0.79207: AVG IPC :1.01262: L2-Pf-HR :0.83268: L2-HR :0.82100: (Sim:2h7m54s) 
CPU  0 inst:   88000000 cyc:   85916042 now IPC :0.77922: AVG IPC :1.01261: L2-Pf-HR :0.83920: L2-HR :0.82662: (Sim:2h7m54s) 
CPU  2 inst:   89000001 cyc:   86772522 now IPC :1.16041: AVG IPC :1.01416: L2-Pf-HR :0.83655: L2-HR :0.82474: (Sim:2h8m51s) 
CPU  3 inst:   89000001 cyc:   86794906 now IPC :1.13697: AVG IPC :1.01389: L2-Pf-HR :0.83255: L2-HR :0.82087: (Sim:2h8m52s) 
CPU  0 inst:   89000001 cyc:   86809565 now IPC :1.11917: AVG IPC :1.01372: L2-Pf-HR :0.83902: L2-HR :0.82641: (Sim:2h8m53s) 
CPU  1 inst:   89000001 cyc:   86809617 now IPC :1.08399: AVG IPC :1.01372: L2-Pf-HR :0.82843: L2-HR :0.81832: (Sim:2h8m53s) 
CPU  1 inst:   90000002 cyc:   87668163 now IPC :1.16476: AVG IPC :1.01521: L2-Pf-HR :0.82814: L2-HR :0.81807: (Sim:2h9m50s) 
CPU  2 inst:   90000002 cyc:   87668901 now IPC :1.11560: AVG IPC :1.01521: L2-Pf-HR :0.83643: L2-HR :0.82456: (Sim:2h9m50s) 
CPU  0 inst:   90000002 cyc:   87669410 now IPC :1.16300: AVG IPC :1.01520: L2-Pf-HR :0.83894: L2-HR :0.82629: (Sim:2h9m50s) 
CPU  3 inst:   90000002 cyc:   87680584 now IPC :1.12908: AVG IPC :1.01507: L2-Pf-HR :0.83253: L2-HR :0.82081: (Sim:2h9m51s) 
CPU  2 inst:   91000000 cyc:   88494778 now IPC :1.21083: AVG IPC :1.01706: L2-Pf-HR :0.83629: L2-HR :0.82438: (Sim:2h10m47s) 
CPU  0 inst:   91000000 cyc:   88502567 now IPC :1.20025: AVG IPC :1.01696: L2-Pf-HR :0.83885: L2-HR :0.82617: (Sim:2h10m47s) 
CPU  3 inst:   91000000 cyc:   88506910 now IPC :1.21017: AVG IPC :1.01691: L2-Pf-HR :0.83249: L2-HR :0.82075: (Sim:2h10m47s) 
CPU  1 inst:   91000000 cyc:   88526503 now IPC :1.16504: AVG IPC :1.01668: L2-Pf-HR :0.82789: L2-HR :0.81788: (Sim:2h10m49s) 
CPU  3 inst:   92000005 cyc:   89320480 now IPC :1.22916: AVG IPC :1.01887: L2-Pf-HR :0.83249: L2-HR :0.82070: (Sim:2h11m55s) 
CPU  2 inst:   92000005 cyc:   89328235 now IPC :1.19983: AVG IPC :1.01878: L2-Pf-HR :0.83620: L2-HR :0.82422: (Sim:2h11m57s) 
CPU  0 inst:   92000005 cyc:   89338333 now IPC :1.19651: AVG IPC :1.01866: L2-Pf-HR :0.83876: L2-HR :0.82604: (Sim:2h11m58s) 
CPU  1 inst:   92000005 cyc:   89342325 now IPC :1.22576: AVG IPC :1.01861: L2-Pf-HR :0.82774: L2-HR :0.81777: (Sim:2h11m59s) 
CPU  2 inst:   93000001 cyc:   90246762 now IPC :1.08870: AVG IPC :1.01950: L2-Pf-HR :0.83625: L2-HR :0.82412: (Sim:2h13m43s) 
CPU  3 inst:   93000001 cyc:   90289097 now IPC :1.03240: AVG IPC :1.01901: L2-Pf-HR :0.83268: L2-HR :0.82073: (Sim:2h13m46s) 
CPU  1 inst:   93000001 cyc:   90289162 now IPC :1.05614: AVG IPC :1.01901: L2-Pf-HR :0.82794: L2-HR :0.81784: (Sim:2h13m46s) 
CPU  0 inst:   93000001 cyc:   90307687 now IPC :1.03161: AVG IPC :1.01880: L2-Pf-HR :0.83885: L2-HR :0.82600: (Sim:2h13m47s) 
CPU  3 inst:   94000005 cyc:   91260054 now IPC :1.02992: AVG IPC :1.01913: L2-Pf-HR :0.83319: L2-HR :0.82148: (Sim:2h15m29s) 
CPU  1 inst:   94000005 cyc:   91260122 now IPC :1.02991: AVG IPC :1.01913: L2-Pf-HR :0.82824: L2-HR :0.81838: (Sim:2h15m29s) 
CPU  2 inst:   94000005 cyc:   91267370 now IPC :0.97981: AVG IPC :1.01905: L2-Pf-HR :0.83656: L2-HR :0.82460: (Sim:2h15m30s) 
CPU  0 inst:   94000005 cyc:   91272624 now IPC :1.03634: AVG IPC :1.01899: L2-Pf-HR :0.83939: L2-HR :0.82680: (Sim:2h15m30s) 
CPU  0 inst:   95000001 cyc:   92160681 now IPC :1.12605: AVG IPC :1.02003: L2-Pf-HR :0.83993: L2-HR :0.82760: (Sim:2h17m10s) 
CPU  3 inst:   95000001 cyc:   92162541 now IPC :1.10804: AVG IPC :1.02001: L2-Pf-HR :0.83378: L2-HR :0.82231: (Sim:2h17m11s) 
CPU  1 inst:   95000002 cyc:   92176593 now IPC :1.09114: AVG IPC :1.01985: L2-Pf-HR :0.82864: L2-HR :0.81899: (Sim:2h17m12s) 
CPU  2 inst:   95000002 cyc:   92178960 now IPC :1.09698: AVG IPC :1.01983: L2-Pf-HR :0.83692: L2-HR :0.82513: (Sim:2h17m12s) 
CPU  1 inst:   96000002 cyc:   93045701 now IPC :1.15060: AVG IPC :1.02109: L2-Pf-HR :0.82905: L2-HR :0.81961: (Sim:2h18m50s) 
CPU  0 inst:   96000004 cyc:   93068705 now IPC :1.10130: AVG IPC :1.02083: L2-Pf-HR :0.84052: L2-HR :0.82845: (Sim:2h18m52s) 
CPU  3 inst:   96000001 cyc:   93082215 now IPC :1.08734: AVG IPC :1.02068: L2-Pf-HR :0.83441: L2-HR :0.82318: (Sim:2h18m54s) 
CPU  2 inst:   96000001 cyc:   93109016 now IPC :1.07520: AVG IPC :1.02039: L2-Pf-HR :0.83729: L2-HR :0.82567: (Sim:2h18m57s) 
CPU  0 inst:   97000001 cyc:   94094056 now IPC :0.97527: AVG IPC :1.02033: L2-Pf-HR :0.84125: L2-HR :0.82923: (Sim:2h20m42s) 
CPU  1 inst:   97000001 cyc:   94095870 now IPC :0.95223: AVG IPC :1.02031: L2-Pf-HR :0.82973: L2-HR :0.82030: (Sim:2h20m42s) 
CPU  3 inst:   97000001 cyc:   94121109 now IPC :0.96256: AVG IPC :1.02003: L2-Pf-HR :0.83520: L2-HR :0.82399: (Sim:2h20m44s) 
CPU  2 inst:   97000000 cyc:   94152193 now IPC :0.95861: AVG IPC :1.01970: L2-Pf-HR :0.83788: L2-HR :0.82623: (Sim:2h20m46s) 
CPU  0 inst:   98000000 cyc:   95609372 now IPC :0.65993: AVG IPC :1.01456: L2-Pf-HR :0.84111: L2-HR :0.82902: (Sim:2h22m48s) 
CPU  1 inst:   98000000 cyc:   95662094 now IPC :0.63848: AVG IPC :1.01399: L2-Pf-HR :0.82965: L2-HR :0.82012: (Sim:2h22m55s) 
CPU  3 inst:   98000000 cyc:   95674408 now IPC :0.64379: AVG IPC :1.01386: L2-Pf-HR :0.83515: L2-HR :0.82384: (Sim:2h22m56s) 
CPU  2 inst:   98000000 cyc:   95676719 now IPC :0.65594: AVG IPC :1.01384: L2-Pf-HR :0.83778: L2-HR :0.82607: (Sim:2h22m56s) 
CPU  3 inst:   99000002 cyc:   96628961 now IPC :1.04761: AVG IPC :1.01420: L2-Pf-HR :0.83508: L2-HR :0.82368: (Sim:2h24m40s) 
CPU  0 inst:   99000000 cyc:   96631980 now IPC :0.97789: AVG IPC :1.01417: L2-Pf-HR :0.84104: L2-HR :0.82885: (Sim:2h24m41s) 
CPU  2 inst:   99000004 cyc:   96639363 now IPC :1.03881: AVG IPC :1.01409: L2-Pf-HR :0.83770: L2-HR :0.82593: (Sim:2h24m41s) 
CPU  1 inst:   99000000 cyc:   96644673 now IPC :1.01773: AVG IPC :1.01403: L2-Pf-HR :0.82954: L2-HR :0.81991: (Sim:2h24m42s) 
CPU  2 inst:  100000000 cyc:   97662048 now IPC :0.97781: AVG IPC :1.01371: L2-Pf-HR :0.83761: L2-HR :0.82578: (Sim:2h26m30s) 
CPU  0 inst:  100000000 cyc:   97672057 now IPC :0.96147: AVG IPC :1.01360: L2-Pf-HR :0.84089: L2-HR :0.82863: (Sim:2h26m32s) 
CPU  3 inst:  100000000 cyc:   97689028 now IPC :0.94333: AVG IPC :1.01342: L2-Pf-HR :0.83503: L2-HR :0.82355: (Sim:2h26m34s) 
CPU  1 inst:  100000000 cyc:   97691104 now IPC :0.95563: AVG IPC :1.01340: L2-Pf-HR :0.82939: L2-HR :0.81967: (Sim:2h26m34s) 
CPU  0 inst:  101000000 cyc:   98718610 now IPC :0.95552: AVG IPC :1.01298: L2-Pf-HR :0.84079: L2-HR :0.82847: (Sim:2h28m21s) 
CPU  2 inst:  101000000 cyc:   98734620 now IPC :0.93234: AVG IPC :1.01282: L2-Pf-HR :0.83754: L2-HR :0.82565: (Sim:2h28m23s) 
CPU  1 inst:  101000000 cyc:   98754761 now IPC :0.94015: AVG IPC :1.01260: L2-Pf-HR :0.82928: L2-HR :0.81946: (Sim:2h28m24s) 
CPU  3 inst:  101000000 cyc:   98760293 now IPC :0.93348: AVG IPC :1.01255: L2-Pf-HR :0.83503: L2-HR :0.82348: (Sim:2h28m25s) 
CPU  0 inst:  102000002 cyc:   99765906 now IPC :0.95484: AVG IPC :1.01236: L2-Pf-HR :0.84067: L2-HR :0.82828: (Sim:2h30m9s) 
CPU  2 inst:  102000002 cyc:   99787428 now IPC :0.94984: AVG IPC :1.01214: L2-Pf-HR :0.83738: L2-HR :0.82546: (Sim:2h30m12s) 
CPU  1 inst:  102000002 cyc:   99789924 now IPC :0.96603: AVG IPC :1.01211: L2-Pf-HR :0.82914: L2-HR :0.81923: (Sim:2h30m12s) 
CPU  3 inst:  102000002 cyc:   99830379 now IPC :0.93451: AVG IPC :1.01170: L2-Pf-HR :0.83499: L2-HR :0.82336: (Sim:2h30m17s) 
CPU  0 inst:  103000005 cyc:  100397392 now IPC :1.58357: AVG IPC :1.01599: L2-Pf-HR :0.84073: L2-HR :0.82822: (Sim:2h31m42s) 
CPU  2 inst:  103000005 cyc:  100411583 now IPC :1.60217: AVG IPC :1.01585: L2-Pf-HR :0.83740: L2-HR :0.82540: (Sim:2h31m45s) 
CPU  1 inst:  103000005 cyc:  100417914 now IPC :1.59239: AVG IPC :1.01578: L2-Pf-HR :0.82921: L2-HR :0.81915: (Sim:2h31m45s) 
CPU  3 inst:  103000005 cyc:  100432753 now IPC :1.66010: AVG IPC :1.01563: L2-Pf-HR :0.83514: L2-HR :0.82337: (Sim:2h31m47s) 
CPU  2 inst:  104000005 cyc:  102144215 now IPC :0.57716: AVG IPC :1.00833: L2-Pf-HR :0.83723: L2-HR :0.82520: (Sim:2h34m13s) 
CPU  1 inst:  104000002 cyc:  102147272 now IPC :0.57825: AVG IPC :1.00830: L2-Pf-HR :0.82905: L2-HR :0.81896: (Sim:2h34m14s) 
CPU  0 inst:  104000005 cyc:  102152028 now IPC :0.56992: AVG IPC :1.00825: L2-Pf-HR :0.84043: L2-HR :0.82788: (Sim:2h34m14s) 
CPU  3 inst:  104000002 cyc:  102162501 now IPC :0.57812: AVG IPC :1.00815: L2-Pf-HR :0.83496: L2-HR :0.82315: (Sim:2h34m15s) 
CPU  2 inst:  105000002 cyc:  103034996 now IPC :1.12261: AVG IPC :1.00933: L2-Pf-HR :0.83711: L2-HR :0.82506: (Sim:2h35m59s) 
CPU  0 inst:  105000002 cyc:  103050649 now IPC :1.11281: AVG IPC :1.00917: L2-Pf-HR :0.84032: L2-HR :0.82768: (Sim:2h36m1s) 
CPU  1 inst:  105000002 cyc:  103065216 now IPC :1.08939: AVG IPC :1.00903: L2-Pf-HR :0.82896: L2-HR :0.81883: (Sim:2h36m2s) 
CPU  3 inst:  105000002 cyc:  103080642 now IPC :1.08916: AVG IPC :1.00888: L2-Pf-HR :0.83489: L2-HR :0.82302: (Sim:2h36m4s) 
CPU  0 inst:  106000002 cyc:  103927374 now IPC :1.14061: AVG IPC :1.01029: L2-Pf-HR :0.84016: L2-HR :0.82747: (Sim:2h37m44s) 
CPU  3 inst:  106000000 cyc:  103944013 now IPC :1.15825: AVG IPC :1.01013: L2-Pf-HR :0.83476: L2-HR :0.82286: (Sim:2h37m46s) 
CPU  1 inst:  106000000 cyc:  103945553 now IPC :1.13593: AVG IPC :1.01011: L2-Pf-HR :0.82884: L2-HR :0.81871: (Sim:2h37m46s) 
CPU  2 inst:  106000000 cyc:  103949523 now IPC :1.09346: AVG IPC :1.01008: L2-Pf-HR :0.83692: L2-HR :0.82488: (Sim:2h37m47s) 
CPU  1 inst:  107000000 cyc:  104808259 now IPC :1.15914: AVG IPC :1.01135: L2-Pf-HR :0.82878: L2-HR :0.81862: (Sim:2h39m30s) 
CPU  3 inst:  107000000 cyc:  104810219 now IPC :1.15446: AVG IPC :1.01133: L2-Pf-HR :0.83472: L2-HR :0.82275: (Sim:2h39m31s) 
CPU  0 inst:  107000000 cyc:  104815486 now IPC :1.12598: AVG IPC :1.01128: L2-Pf-HR :0.84010: L2-HR :0.82731: (Sim:2h39m31s) 
CPU  2 inst:  107000000 cyc:  104816832 now IPC :1.15299: AVG IPC :1.01127: L2-Pf-HR :0.83678: L2-HR :0.82474: (Sim:2h39m31s) 
CPU  0 inst:  108000000 cyc:  105666921 now IPC :1.17449: AVG IPC :1.01261: L2-Pf-HR :0.83990: L2-HR :0.82708: (Sim:2h41m13s) 
CPU  1 inst:  108000000 cyc:  105682793 now IPC :1.14347: AVG IPC :1.01246: L2-Pf-HR :0.82869: L2-HR :0.81851: (Sim:2h41m15s) 
CPU  2 inst:  108000000 cyc:  105685520 now IPC :1.15116: AVG IPC :1.01243: L2-Pf-HR :0.83660: L2-HR :0.82457: (Sim:2h41m16s) 
CPU  3 inst:  108000000 cyc:  105688084 now IPC :1.13913: AVG IPC :1.01241: L2-Pf-HR :0.83452: L2-HR :0.82253: (Sim:2h41m16s) 
CPU  0 inst:  109000001 cyc:  106205199 now IPC :1.85778: AVG IPC :1.01693: L2-Pf-HR :0.84004: L2-HR :0.82708: (Sim:2h42m43s) 
CPU  3 inst:  109000001 cyc:  106213922 now IPC :1.90173: AVG IPC :1.01685: L2-Pf-HR :0.83463: L2-HR :0.82253: (Sim:2h42m44s) 
CPU  1 inst:  109000001 cyc:  106215219 now IPC :1.87820: AVG IPC :1.01684: L2-Pf-HR :0.82889: L2-HR :0.81862: (Sim:2h42m45s) 
CPU  2 inst:  109000001 cyc:  106218654 now IPC :1.87570: AVG IPC :1.01681: L2-Pf-HR :0.83669: L2-HR :0.82459: (Sim:2h42m45s) 
CPU  2 inst:  110000000 cyc:  107573939 now IPC :0.73785: AVG IPC :1.01326: L2-Pf-HR :0.83714: L2-HR :0.82527: (Sim:2h44m50s) 
CPU  0 inst:  110000000 cyc:  107573955 now IPC :0.73059: AVG IPC :1.01326: L2-Pf-HR :0.84038: L2-HR :0.82758: (Sim:2h44m50s) 
CPU  1 inst:  110000000 cyc:  107596990 now IPC :0.72371: AVG IPC :1.01304: L2-Pf-HR :0.82926: L2-HR :0.81913: (Sim:2h44m51s) 
CPU  3 inst:  110000000 cyc:  107598190 now IPC :0.72240: AVG IPC :1.01303: L2-Pf-HR :0.83495: L2-HR :0.82295: (Sim:2h44m51s) 
CPU  0 inst:  111000003 cyc:  108439538 now IPC :1.15529: AVG IPC :1.01440: L2-Pf-HR :0.84085: L2-HR :0.82827: (Sim:2h45m50s) 
CPU  1 inst:  111000003 cyc:  108442592 now IPC :1.18259: AVG IPC :1.01437: L2-Pf-HR :0.82970: L2-HR :0.81980: (Sim:2h45m50s) 
CPU  3 inst:  111000003 cyc:  108447920 now IPC :1.17685: AVG IPC :1.01432: L2-Pf-HR :0.83532: L2-HR :0.82348: (Sim:2h45m51s) 
CPU  2 inst:  111000003 cyc:  108456214 now IPC :1.13344: AVG IPC :1.01425: L2-Pf-HR :0.83773: L2-HR :0.82617: (Sim:2h45m51s) 
CPU  1 inst:  112000005 cyc:  109312712 now IPC :1.14927: AVG IPC :1.01546: L2-Pf-HR :0.83020: L2-HR :0.82051: (Sim:2h46m46s) 
CPU  0 inst:  112000005 cyc:  109313796 now IPC :1.14383: AVG IPC :1.01545: L2-Pf-HR :0.84133: L2-HR :0.82896: (Sim:2h46m47s) 
CPU  2 inst:  112000005 cyc:  109343887 now IPC :1.12654: AVG IPC :1.01517: L2-Pf-HR :0.83835: L2-HR :0.82708: (Sim:2h46m48s) 
CPU  3 inst:  112000005 cyc:  109376549 now IPC :1.07686: AVG IPC :1.01486: L2-Pf-HR :0.83574: L2-HR :0.82405: (Sim:2h46m50s) 
CPU  0 inst:  113000003 cyc:  109985474 now IPC :1.48881: AVG IPC :1.01836: L2-Pf-HR :0.84203: L2-HR :0.82981: (Sim:2h47m37s) 
CPU  1 inst:  113000003 cyc:  110013258 now IPC :1.42746: AVG IPC :1.01810: L2-Pf-HR :0.83093: L2-HR :0.82137: (Sim:2h47m40s) 
CPU  2 inst:  113000003 cyc:  110013362 now IPC :1.49370: AVG IPC :1.01811: L2-Pf-HR :0.83922: L2-HR :0.82814: (Sim:2h47m40s) 
CPU  3 inst:  113000003 cyc:  110026048 now IPC :1.53965: AVG IPC :1.01798: L2-Pf-HR :0.83640: L2-HR :0.82478: (Sim:2h47m41s) 
CPU  0 inst:  114000001 cyc:  111935054 now IPC :0.51293: AVG IPC :1.00948: L2-Pf-HR :0.84188: L2-HR :0.82956: (Sim:2h49m3s) 
CPU  3 inst:  114000001 cyc:  111964533 now IPC :0.51587: AVG IPC :1.00921: L2-Pf-HR :0.83631: L2-HR :0.82459: (Sim:2h49m5s) 
CPU  1 inst:  114000001 cyc:  111968972 now IPC :0.51132: AVG IPC :1.00917: L2-Pf-HR :0.83078: L2-HR :0.82113: (Sim:2h49m5s) 
CPU  2 inst:  114000001 cyc:  111982283 now IPC :0.50789: AVG IPC :1.00905: L2-Pf-HR :0.83908: L2-HR :0.82791: (Sim:2h49m6s) 
CPU  0 inst:  115000004 cyc:  112930875 now IPC :1.00420: AVG IPC :1.00943: L2-Pf-HR :0.84179: L2-HR :0.82938: (Sim:2h50m3s) 
CPU  3 inst:  115000004 cyc:  112946196 now IPC :1.01868: AVG IPC :1.00930: L2-Pf-HR :0.83621: L2-HR :0.82442: (Sim:2h50m4s) 
CPU  1 inst:  115000004 cyc:  112968594 now IPC :1.00038: AVG IPC :1.00909: L2-Pf-HR :0.83056: L2-HR :0.82088: (Sim:2h50m6s) 
CPU  2 inst:  115000004 cyc:  112992242 now IPC :0.99014: AVG IPC :1.00888: L2-Pf-HR :0.83900: L2-HR :0.82773: (Sim:2h50m7s) 
CPU  0 inst:  116000000 cyc:  113977170 now IPC :0.95575: AVG IPC :1.00894: L2-Pf-HR :0.84165: L2-HR :0.82917: (Sim:2h51m7s) 
CPU  2 inst:  116000001 cyc:  113985035 now IPC :1.00726: AVG IPC :1.00887: L2-Pf-HR :0.83891: L2-HR :0.82756: (Sim:2h51m8s) 
CPU  1 inst:  116000001 cyc:  113989202 now IPC :0.97981: AVG IPC :1.00883: L2-Pf-HR :0.83041: L2-HR :0.82068: (Sim:2h51m8s) 
CPU  3 inst:  116000001 cyc:  113995622 now IPC :0.95290: AVG IPC :1.00877: L2-Pf-HR :0.83605: L2-HR :0.82420: (Sim:2h51m9s) 
CPU  1 inst:  117000004 cyc:  115015571 now IPC :0.97431: AVG IPC :1.00852: L2-Pf-HR :0.83026: L2-HR :0.82051: (Sim:2h52m9s) 
CPU  3 inst:  117000004 cyc:  115038209 now IPC :0.95916: AVG IPC :1.00832: L2-Pf-HR :0.83601: L2-HR :0.82409: (Sim:2h52m10s) 
CPU  0 inst:  117000004 cyc:  115060247 now IPC :0.92330: AVG IPC :1.00812: L2-Pf-HR :0.84158: L2-HR :0.82900: (Sim:2h52m12s) 
CPU  2 inst:  117000004 cyc:  115077907 now IPC :0.91502: AVG IPC :1.00797: L2-Pf-HR :0.83881: L2-HR :0.82738: (Sim:2h52m13s) 
CPU  1 inst:  118000002 cyc:  116093970 now IPC :0.92730: AVG IPC :1.00776: L2-Pf-HR :0.83012: L2-HR :0.82033: (Sim:2h53m26s) 
CPU  0 inst:  118000002 cyc:  116094204 now IPC :0.96716: AVG IPC :1.00776: L2-Pf-HR :0.84143: L2-HR :0.82879: (Sim:2h53m26s) 
CPU  2 inst:  118000002 cyc:  116117511 now IPC :0.96190: AVG IPC :1.00755: L2-Pf-HR :0.83867: L2-HR :0.82719: (Sim:2h53m28s) 
CPU  3 inst:  118000000 cyc:  116176047 now IPC :0.87886: AVG IPC :1.00704: L2-Pf-HR :0.83590: L2-HR :0.82392: (Sim:2h53m34s) 
CPU  1 inst:  119000002 cyc:  116819839 now IPC :1.37766: AVG IPC :1.01008: L2-Pf-HR :0.83020: L2-HR :0.82032: (Sim:2h55m3s) 
CPU  2 inst:  119000002 cyc:  116821475 now IPC :1.42053: AVG IPC :1.01006: L2-Pf-HR :0.83870: L2-HR :0.82710: (Sim:2h55m3s) 
CPU  0 inst:  119000002 cyc:  116823145 now IPC :1.37185: AVG IPC :1.01005: L2-Pf-HR :0.84145: L2-HR :0.82868: (Sim:2h55m4s) 
CPU  3 inst:  119000002 cyc:  116831339 now IPC :1.52604: AVG IPC :1.00998: L2-Pf-HR :0.83601: L2-HR :0.82390: (Sim:2h55m5s) 
CPU  1 inst:  120000000 cyc:  118546773 now IPC :0.57906: AVG IPC :1.00374: L2-Pf-HR :0.82998: L2-HR :0.82006: (Sim:2h57m23s) 
CPU  0 inst:  120000000 cyc:  118562958 now IPC :0.57477: AVG IPC :1.00361: L2-Pf-HR :0.84120: L2-HR :0.82839: (Sim:2h57m25s) 
CPU  2 inst:  120000000 cyc:  118563595 now IPC :0.57401: AVG IPC :1.00360: L2-Pf-HR :0.83843: L2-HR :0.82681: (Sim:2h57m25s) 
CPU  3 inst:  120000000 cyc:  118582422 now IPC :0.57107: AVG IPC :1.00344: L2-Pf-HR :0.83580: L2-HR :0.82365: (Sim:2h57m27s) 
CPU  0 inst:  121000000 cyc:  119432997 now IPC :1.14937: AVG IPC :1.00468: L2-Pf-HR :0.84112: L2-HR :0.82826: (Sim:2h59m5s) 
CPU  2 inst:  121000000 cyc:  119455930 now IPC :1.12066: AVG IPC :1.00449: L2-Pf-HR :0.83831: L2-HR :0.82664: (Sim:2h59m8s) 
CPU  3 inst:  121000000 cyc:  119463514 now IPC :1.13496: AVG IPC :1.00442: L2-Pf-HR :0.83571: L2-HR :0.82352: (Sim:2h59m9s) 
CPU  1 inst:  121000000 cyc:  119470242 now IPC :1.08287: AVG IPC :1.00436: L2-Pf-HR :0.82983: L2-HR :0.81987: (Sim:2h59m9s) 
CPU  2 inst:  122000001 cyc:  120330873 now IPC :1.14293: AVG IPC :1.00550: L2-Pf-HR :0.83816: L2-HR :0.82646: (Sim:3h0m50s) 
CPU  3 inst:  122000001 cyc:  120338017 now IPC :1.14351: AVG IPC :1.00544: L2-Pf-HR :0.83560: L2-HR :0.82337: (Sim:3h0m51s) 
CPU  0 inst:  122000001 cyc:  120338038 now IPC :1.10492: AVG IPC :1.00544: L2-Pf-HR :0.84099: L2-HR :0.82809: (Sim:3h0m51s) 
CPU  1 inst:  122000001 cyc:  120338767 now IPC :1.15138: AVG IPC :1.00543: L2-Pf-HR :0.82971: L2-HR :0.81971: (Sim:3h0m51s) 
CPU  2 inst:  123000002 cyc:  121211027 now IPC :1.13617: AVG IPC :1.00646: L2-Pf-HR :0.83795: L2-HR :0.82625: (Sim:3h2m33s) 
CPU  1 inst:  123000001 cyc:  121233105 now IPC :1.11815: AVG IPC :1.00627: L2-Pf-HR :0.82958: L2-HR :0.81955: (Sim:3h2m35s) 
CPU  3 inst:  123000003 cyc:  121234543 now IPC :1.11542: AVG IPC :1.00626: L2-Pf-HR :0.83547: L2-HR :0.82321: (Sim:3h2m35s) 
CPU  0 inst:  123000003 cyc:  121238710 now IPC :1.11028: AVG IPC :1.00622: L2-Pf-HR :0.84086: L2-HR :0.82792: (Sim:3h2m36s) 
CPU  0 inst:  124000002 cyc:  122073834 now IPC :1.19743: AVG IPC :1.00754: L2-Pf-HR :0.84073: L2-HR :0.82776: (Sim:3h4m16s) 
CPU  3 inst:  124000002 cyc:  122076122 now IPC :1.18824: AVG IPC :1.00752: L2-Pf-HR :0.83538: L2-HR :0.82308: (Sim:3h4m17s) 
CPU  2 inst:  124000002 cyc:  122078202 now IPC :1.15317: AVG IPC :1.00751: L2-Pf-HR :0.83776: L2-HR :0.82604: (Sim:3h4m17s) 
CPU  1 inst:  124000002 cyc:  122080841 now IPC :1.17961: AVG IPC :1.00748: L2-Pf-HR :0.82948: L2-HR :0.81941: (Sim:3h4m18s) 
CPU  3 inst:  125000005 cyc:  122631636 now IPC :1.80014: AVG IPC :1.01114: L2-Pf-HR :0.83543: L2-HR :0.82304: (Sim:3h5m45s) 
CPU  1 inst:  125000005 cyc:  122635189 now IPC :1.80393: AVG IPC :1.01111: L2-Pf-HR :0.82952: L2-HR :0.81935: (Sim:3h5m45s) 
CPU  2 inst:  125000005 cyc:  122635484 now IPC :1.79443: AVG IPC :1.01111: L2-Pf-HR :0.83777: L2-HR :0.82598: (Sim:3h5m45s) 
CPU  0 inst:  125000005 cyc:  122639683 now IPC :1.76726: AVG IPC :1.01108: L2-Pf-HR :0.84078: L2-HR :0.82773: (Sim:3h5m46s) 
CPU  1 inst:  126000005 cyc:  123978399 now IPC :0.74449: AVG IPC :1.00820: L2-Pf-HR :0.82973: L2-HR :0.81966: (Sim:3h7m25s) 
CPU  3 inst:  126000005 cyc:  123981107 now IPC :0.74103: AVG IPC :1.00818: L2-Pf-HR :0.83564: L2-HR :0.82340: (Sim:3h7m25s) 
CPU  0 inst:  126000005 cyc:  123993949 now IPC :0.73841: AVG IPC :1.00807: L2-Pf-HR :0.84084: L2-HR :0.82789: (Sim:3h7m25s) 
CPU  2 inst:  126000005 cyc:  124001706 now IPC :0.73195: AVG IPC :1.00801: L2-Pf-HR :0.83793: L2-HR :0.82624: (Sim:3h7m26s) 
CPU  1 inst:  127000004 cyc:  124842923 now IPC :1.15670: AVG IPC :1.00924: L2-Pf-HR :0.83012: L2-HR :0.82023: (Sim:3h8m23s) 
CPU  3 inst:  127000005 cyc:  124845319 now IPC :1.15712: AVG IPC :1.00922: L2-Pf-HR :0.83606: L2-HR :0.82407: (Sim:3h8m23s) 
CPU  0 inst:  127000005 cyc:  124846027 now IPC :1.17360: AVG IPC :1.00921: L2-Pf-HR :0.84105: L2-HR :0.82830: (Sim:3h8m23s) 
CPU  2 inst:  127000000 cyc:  124848219 now IPC :1.18131: AVG IPC :1.00920: L2-Pf-HR :0.83828: L2-HR :0.82676: (Sim:3h8m23s) 
CPU  3 inst:  128000005 cyc:  125713566 now IPC :1.15175: AVG IPC :1.01021: L2-Pf-HR :0.83648: L2-HR :0.82474: (Sim:3h9m20s) 
CPU  2 inst:  128000005 cyc:  125721789 now IPC :1.14473: AVG IPC :1.01015: L2-Pf-HR :0.83863: L2-HR :0.82727: (Sim:3h9m20s) 
CPU  1 inst:  128000005 cyc:  125723059 now IPC :1.13619: AVG IPC :1.01013: L2-Pf-HR :0.83054: L2-HR :0.82082: (Sim:3h9m20s) 
CPU  0 inst:  128000005 cyc:  125740787 now IPC :1.11762: AVG IPC :1.00999: L2-Pf-HR :0.84132: L2-HR :0.82874: (Sim:3h9m21s) 
CPU  3 inst:  129000005 cyc:  126410017 now IPC :1.43585: AVG IPC :1.01257: L2-Pf-HR :0.83708: L2-HR :0.82553: (Sim:3h10m12s) 
CPU  2 inst:  129000005 cyc:  126411205 now IPC :1.45050: AVG IPC :1.01257: L2-Pf-HR :0.83910: L2-HR :0.82789: (Sim:3h10m12s) 
CPU  1 inst:  129000005 cyc:  126417848 now IPC :1.43929: AVG IPC :1.01251: L2-Pf-HR :0.83107: L2-HR :0.82148: (Sim:3h10m13s) 
CPU  0 inst:  129000005 cyc:  126428036 now IPC :1.45508: AVG IPC :1.01243: L2-Pf-HR :0.84171: L2-HR :0.82928: (Sim:3h10m14s) 
CPU  3 inst:  130000004 cyc:  128293381 now IPC :0.53096: AVG IPC :1.00545: L2-Pf-HR :0.83689: L2-HR :0.82535: (Sim:3h11m35s) 
CPU  0 inst:  130000004 cyc:  128305750 now IPC :0.53256: AVG IPC :1.00535: L2-Pf-HR :0.84161: L2-HR :0.82915: (Sim:3h11m36s) 
CPU  1 inst:  130000004 cyc:  128307722 now IPC :0.52914: AVG IPC :1.00533: L2-Pf-HR :0.83101: L2-HR :0.82137: (Sim:3h11m36s) 
CPU  2 inst:  130000004 cyc:  128310802 now IPC :0.52643: AVG IPC :1.00531: L2-Pf-HR :0.83892: L2-HR :0.82767: (Sim:3h11m36s) 
CPU  0 inst:  131000005 cyc:  129270336 now IPC :1.03672: AVG IPC :1.00559: L2-Pf-HR :0.84148: L2-HR :0.82900: (Sim:3h12m35s) 
CPU  2 inst:  131000005 cyc:  129270969 now IPC :1.04149: AVG IPC :1.00558: L2-Pf-HR :0.83874: L2-HR :0.82746: (Sim:3h12m35s) 
CPU  3 inst:  131000005 cyc:  129275517 now IPC :1.01819: AVG IPC :1.00555: L2-Pf-HR :0.83670: L2-HR :0.82515: (Sim:3h12m35s) 
CPU  1 inst:  131000002 cyc:  129277442 now IPC :1.03122: AVG IPC :1.00553: L2-Pf-HR :0.83085: L2-HR :0.82116: (Sim:3h12m36s) 
CPU  1 inst:  132000003 cyc:  130321439 now IPC :0.95786: AVG IPC :1.00515: L2-Pf-HR :0.83070: L2-HR :0.82097: (Sim:3h13m38s) 
CPU  0 inst:  132000003 cyc:  130332050 now IPC :0.94187: AVG IPC :1.00506: L2-Pf-HR :0.84137: L2-HR :0.82888: (Sim:3h13m39s) 
CPU  2 inst:  132000003 cyc:  130332522 now IPC :0.94201: AVG IPC :1.00506: L2-Pf-HR :0.83853: L2-HR :0.82724: (Sim:3h13m39s) 
CPU  3 inst:  132000003 cyc:  130336894 now IPC :0.94217: AVG IPC :1.00503: L2-Pf-HR :0.83654: L2-HR :0.82497: (Sim:3h13m39s) 
CPU  2 inst:  133000002 cyc:  131390053 now IPC :0.94560: AVG IPC :1.00458: L2-Pf-HR :0.83837: L2-HR :0.82708: (Sim:3h14m41s) 
CPU  3 inst:  133000002 cyc:  131408385 now IPC :0.93328: AVG IPC :1.00444: L2-Pf-HR :0.83644: L2-HR :0.82485: (Sim:3h14m42s) 
CPU  0 inst:  133000002 cyc:  131410946 now IPC :0.92687: AVG IPC :1.00442: L2-Pf-HR :0.84128: L2-HR :0.82879: (Sim:3h14m42s) 
CPU  1 inst:  133000002 cyc:  131424030 now IPC :0.90695: AVG IPC :1.00432: L2-Pf-HR :0.83060: L2-HR :0.82084: (Sim:3h14m43s) 
CPU  2 inst:  134000003 cyc:  132492941 now IPC :0.90671: AVG IPC :1.00376: L2-Pf-HR :0.83814: L2-HR :0.82683: (Sim:3h15m43s) 
CPU  1 inst:  134000003 cyc:  132502575 now IPC :0.92718: AVG IPC :1.00368: L2-Pf-HR :0.83051: L2-HR :0.82070: (Sim:3h15m44s) 
CPU  3 inst:  134000003 cyc:  132518719 now IPC :0.90063: AVG IPC :1.00356: L2-Pf-HR :0.83630: L2-HR :0.82469: (Sim:3h15m45s) 
CPU  0 inst:  134000003 cyc:  132578850 now IPC :0.85624: AVG IPC :1.00310: L2-Pf-HR :0.84116: L2-HR :0.82866: (Sim:3h15m49s) 
CPU  2 inst:  135000003 cyc:  133273311 now IPC :1.28144: AVG IPC :1.00540: L2-Pf-HR :0.83805: L2-HR :0.82672: (Sim:3h16m40s) 
CPU  1 inst:  135000003 cyc:  133275744 now IPC :1.29338: AVG IPC :1.00538: L2-Pf-HR :0.83050: L2-HR :0.82064: (Sim:3h16m40s) 
CPU  3 inst:  135000001 cyc:  133277432 now IPC :1.31802: AVG IPC :1.00536: L2-Pf-HR :0.83627: L2-HR :0.82463: (Sim:3h16m40s) 
CPU  0 inst:  135000003 cyc:  133284439 now IPC :1.41726: AVG IPC :1.00531: L2-Pf-HR :0.84119: L2-HR :0.82865: (Sim:3h16m41s) 
CPU  2 inst:  136000003 cyc:  134913263 now IPC :0.60977: AVG IPC :1.00055: L2-Pf-HR :0.83789: L2-HR :0.82654: (Sim:3h17m57s) 
CPU  1 inst:  136000002 cyc:  134938500 now IPC :0.60141: AVG IPC :1.00036: L2-Pf-HR :0.83034: L2-HR :0.82043: (Sim:3h17m58s) 
CPU  0 inst:  136000004 cyc:  134939846 now IPC :0.60408: AVG IPC :1.00035: L2-Pf-HR :0.84100: L2-HR :0.82846: (Sim:3h17m58s) 
CPU  3 inst:  136000004 cyc:  134940072 now IPC :0.60145: AVG IPC :1.00035: L2-Pf-HR :0.83611: L2-HR :0.82444: (Sim:3h17m58s) 
CPU  0 inst:  137000001 cyc:  135764306 now IPC :1.21291: AVG IPC :1.00165: L2-Pf-HR :0.84093: L2-HR :0.82837: (Sim:3h18m56s) 
CPU  2 inst:  137000001 cyc:  135770260 now IPC :1.16686: AVG IPC :1.00161: L2-Pf-HR :0.83772: L2-HR :0.82639: (Sim:3h18m56s) 
CPU  1 inst:  137000001 cyc:  135776784 now IPC :1.19291: AVG IPC :1.00156: L2-Pf-HR :0.83013: L2-HR :0.82022: (Sim:3h18m57s) 
CPU  3 inst:  137000001 cyc:  135777934 now IPC :1.19351: AVG IPC :1.00155: L2-Pf-HR :0.83602: L2-HR :0.82432: (Sim:3h18m57s) 
CPU  0 inst:  138000005 cyc:  136674160 now IPC :1.09908: AVG IPC :1.00231: L2-Pf-HR :0.84077: L2-HR :0.82824: (Sim:3h19m56s) 
CPU  2 inst:  138000005 cyc:  136677822 now IPC :1.10186: AVG IPC :1.00228: L2-Pf-HR :0.83754: L2-HR :0.82624: (Sim:3h19m56s) 
CPU  3 inst:  138000005 cyc:  136678569 now IPC :1.11033: AVG IPC :1.00227: L2-Pf-HR :0.83590: L2-HR :0.82420: (Sim:3h19m56s) 
CPU  1 inst:  138000005 cyc:  136681083 now IPC :1.10583: AVG IPC :1.00225: L2-Pf-HR :0.82993: L2-HR :0.82004: (Sim:3h19m56s) 
CPU  1 inst:  139000005 cyc:  137565968 now IPC :1.13009: AVG IPC :1.00308: L2-Pf-HR :0.82981: L2-HR :0.81990: (Sim:3h20m53s) 
CPU  0 inst:  139000005 cyc:  137591689 now IPC :1.08988: AVG IPC :1.00289: L2-Pf-HR :0.84070: L2-HR :0.82818: (Sim:3h20m55s) 
CPU  2 inst:  139000005 cyc:  137596536 now IPC :1.08848: AVG IPC :1.00286: L2-Pf-HR :0.83737: L2-HR :0.82609: (Sim:3h20m55s) 
CPU  3 inst:  139000005 cyc:  137601288 now IPC :1.08375: AVG IPC :1.00282: L2-Pf-HR :0.83585: L2-HR :0.82413: (Sim:3h20m56s) 
CPU  0 inst:  140000002 cyc:  138423227 now IPC :1.20259: AVG IPC :1.00410: L2-Pf-HR :0.84061: L2-HR :0.82809: (Sim:3h21m50s) 
CPU  3 inst:  140000002 cyc:  138439598 now IPC :1.19287: AVG IPC :1.00398: L2-Pf-HR :0.83579: L2-HR :0.82404: (Sim:3h21m51s) 
CPU  2 inst:  140000002 cyc:  138452729 now IPC :1.16796: AVG IPC :1.00389: L2-Pf-HR :0.83725: L2-HR :0.82599: (Sim:3h21m53s) 
CPU  1 inst:  140000002 cyc:  138459398 now IPC :1.11928: AVG IPC :1.00384: L2-Pf-HR :0.82967: L2-HR :0.81974: (Sim:3h21m53s) 
CPU  0 inst:  141000005 cyc:  139073691 now IPC :1.53737: AVG IPC :1.00661: L2-Pf-HR :0.84058: L2-HR :0.82805: (Sim:3h22m42s) 
CPU  1 inst:  141000005 cyc:  139085757 now IPC :1.59653: AVG IPC :1.00653: L2-Pf-HR :0.82962: L2-HR :0.81966: (Sim:3h22m43s) 
CPU  3 inst:  141000005 cyc:  139087149 now IPC :1.54428: AVG IPC :1.00652: L2-Pf-HR :0.83580: L2-HR :0.82402: (Sim:3h22m43s) 
CPU  2 inst:  141000005 cyc:  139089090 now IPC :1.57144: AVG IPC :1.00650: L2-Pf-HR :0.83722: L2-HR :0.82595: (Sim:3h22m44s) 
CPU  0 inst:  142000004 cyc:  140276301 now IPC :0.83152: AVG IPC :1.00510: L2-Pf-HR :0.84082: L2-HR :0.82840: (Sim:3h23m44s) 
CPU  2 inst:  142000004 cyc:  140361078 now IPC :0.78617: AVG IPC :1.00449: L2-Pf-HR :0.83744: L2-HR :0.82623: (Sim:3h23m50s) 
CPU  1 inst:  142000004 cyc:  140381512 now IPC :0.77175: AVG IPC :1.00434: L2-Pf-HR :0.82982: L2-HR :0.81991: (Sim:3h23m52s) 
CPU  3 inst:  142000004 cyc:  140405808 now IPC :0.75835: AVG IPC :1.00417: L2-Pf-HR :0.83593: L2-HR :0.82422: (Sim:3h23m53s) 
CPU  0 inst:  143000004 cyc:  140977780 now IPC :1.42556: AVG IPC :1.00721: L2-Pf-HR :0.84125: L2-HR :0.82905: (Sim:3h24m53s) 
CPU  2 inst:  143000004 cyc:  141205608 now IPC :1.18409: AVG IPC :1.00557: L2-Pf-HR :0.83786: L2-HR :0.82683: (Sim:3h25m19s) 
CPU  1 inst:  143000004 cyc:  141208323 now IPC :1.20947: AVG IPC :1.00555: L2-Pf-HR :0.83020: L2-HR :0.82044: (Sim:3h25m20s) 
CPU  3 inst:  143000004 cyc:  141230997 now IPC :1.21184: AVG IPC :1.00539: L2-Pf-HR :0.83622: L2-HR :0.82469: (Sim:3h25m22s) 
CPU  0 inst:  144000005 cyc:  141714124 now IPC :1.35806: AVG IPC :1.00905: L2-Pf-HR :0.84169: L2-HR :0.82973: (Sim:3h26m20s) 
CPU  3 inst:  144000005 cyc:  142097740 now IPC :1.15375: AVG IPC :1.00630: L2-Pf-HR :0.83654: L2-HR :0.82520: (Sim:3h27m4s) 
CPU  2 inst:  144000005 cyc:  142107483 now IPC :1.10880: AVG IPC :1.00623: L2-Pf-HR :0.83825: L2-HR :0.82742: (Sim:3h27m5s) 
CPU  1 inst:  144000005 cyc:  142121316 now IPC :1.09530: AVG IPC :1.00613: L2-Pf-HR :0.83059: L2-HR :0.82097: (Sim:3h27m7s) 
CPU  0 inst:  145000000 cyc:  142515827 now IPC :1.24734: AVG IPC :1.01040: L2-Pf-HR :0.84221: L2-HR :0.83044: (Sim:3h27m53s) 
CPU  3 inst:  145000000 cyc:  142819165 now IPC :1.38614: AVG IPC :1.00823: L2-Pf-HR :0.83696: L2-HR :0.82577: (Sim:3h28m36s) 
CPU  2 inst:  145000000 cyc:  142819286 now IPC :1.40488: AVG IPC :1.00824: L2-Pf-HR :0.83876: L2-HR :0.82809: (Sim:3h28m36s) 
CPU  1 inst:  145000000 cyc:  142820615 now IPC :1.43000: AVG IPC :1.00822: L2-Pf-HR :0.83106: L2-HR :0.82157: (Sim:3h28m36s) 
CPU  0 inst:  146000001 cyc:  143761413 now IPC :0.80284: AVG IPC :1.00858: L2-Pf-HR :0.84232: L2-HR :0.83051: (Sim:3h29m51s) 
CPU  0 inst:  147000002 cyc:  144601308 now IPC :1.19063: AVG IPC :1.00965: L2-Pf-HR :0.84226: L2-HR :0.83036: (Sim:3h31m6s) 
CPU  3 inst:  146000001 cyc:  144655476 now IPC :0.54457: AVG IPC :1.00231: L2-Pf-HR :0.83698: L2-HR :0.82577: (Sim:3h31m11s) 
CPU  2 inst:  146000001 cyc:  144665824 now IPC :0.54155: AVG IPC :1.00224: L2-Pf-HR :0.83879: L2-HR :0.82811: (Sim:3h31m12s) 
CPU  1 inst:  146000001 cyc:  144685257 now IPC :0.53630: AVG IPC :1.00210: L2-Pf-HR :0.83110: L2-HR :0.82158: (Sim:3h31m14s) 
CPU  0 inst:  148000000 cyc:  145486924 now IPC :1.12916: AVG IPC :1.01038: L2-Pf-HR :0.84214: L2-HR :0.83016: (Sim:3h32m38s) 
CPU  3 inst:  147000005 cyc:  145637339 now IPC :1.01848: AVG IPC :1.00242: L2-Pf-HR :0.83687: L2-HR :0.82561: (Sim:3h32m54s) 
CPU  2 inst:  147000005 cyc:  145647040 now IPC :1.01915: AVG IPC :1.00235: L2-Pf-HR :0.83872: L2-HR :0.82798: (Sim:3h32m55s) 
CPU  1 inst:  147000002 cyc:  145680009 now IPC :1.00528: AVG IPC :1.00212: L2-Pf-HR :0.83098: L2-HR :0.82138: (Sim:3h33m0s) 
CPU  0 inst:  149000004 cyc:  146482180 now IPC :1.00477: AVG IPC :1.01034: L2-Pf-HR :0.84198: L2-HR :0.82991: (Sim:3h34m19s) 
CPU  3 inst:  148000000 cyc:  146697147 now IPC :0.94356: AVG IPC :1.00199: L2-Pf-HR :0.83676: L2-HR :0.82545: (Sim:3h34m42s) 
CPU  2 inst:  148000000 cyc:  146697612 now IPC :0.95186: AVG IPC :1.00199: L2-Pf-HR :0.83862: L2-HR :0.82784: (Sim:3h34m42s) 
CPU  1 inst:  148000001 cyc:  146722506 now IPC :0.95923: AVG IPC :1.00181: L2-Pf-HR :0.83089: L2-HR :0.82122: (Sim:3h34m45s) 
CPU  0 inst:  150000005 cyc:  147555085 now IPC :0.93205: AVG IPC :1.00977: L2-Pf-HR :0.84183: L2-HR :0.82970: (Sim:3h35m49s) 
CPU  3 inst:  149000004 cyc:  147733639 now IPC :0.96480: AVG IPC :1.00173: L2-Pf-HR :0.83668: L2-HR :0.82531: (Sim:3h35m59s) 
CPU  1 inst:  149000001 cyc:  147761032 now IPC :0.96290: AVG IPC :1.00154: L2-Pf-HR :0.83077: L2-HR :0.82104: (Sim:3h36m2s) 
CPU  2 inst:  149000004 cyc:  147778381 now IPC :0.92527: AVG IPC :1.00142: L2-Pf-HR :0.83851: L2-HR :0.82770: (Sim:3h36m3s) 
CPU  0 inst:  151000003 cyc:  148466836 now IPC :1.09679: AVG IPC :1.01031: L2-Pf-HR :0.84179: L2-HR :0.82956: (Sim:3h36m47s) 
CPU  3 inst:  150000005 cyc:  148680416 now IPC :1.05622: AVG IPC :1.00208: L2-Pf-HR :0.83655: L2-HR :0.82514: (Sim:3h37m0s) 
CPU  1 inst:  150000005 cyc:  148710267 now IPC :1.05348: AVG IPC :1.00187: L2-Pf-HR :0.83059: L2-HR :0.82080: (Sim:3h37m2s) 
CPU  2 inst:  150000005 cyc:  148719642 now IPC :1.06241: AVG IPC :1.00181: L2-Pf-HR :0.83832: L2-HR :0.82751: (Sim:3h37m2s) 
CPU  1 inst:  151000003 cyc:  149502640 now IPC :1.26203: AVG IPC :1.00326: L2-Pf-HR :0.83055: L2-HR :0.82070: (Sim:3h37m51s) 
CPU  3 inst:  151000003 cyc:  149503597 now IPC :1.21480: AVG IPC :1.00326: L2-Pf-HR :0.83654: L2-HR :0.82506: (Sim:3h37m51s) 
CPU  2 inst:  151000003 cyc:  149522234 now IPC :1.24596: AVG IPC :1.00313: L2-Pf-HR :0.83828: L2-HR :0.82742: (Sim:3h37m53s) 
CPU  0 inst:  152000004 cyc:  149758671 now IPC :0.77409: AVG IPC :1.00826: L2-Pf-HR :0.84167: L2-HR :0.82935: (Sim:3h38m13s) 
CPU  0 inst:  153000004 cyc:  150487664 now IPC :1.37176: AVG IPC :1.01003: L2-Pf-HR :0.84182: L2-HR :0.82939: (Sim:3h38m46s) 
CPU  0 inst:  154000003 cyc:  151084585 now IPC :1.67526: AVG IPC :1.01267: L2-Pf-HR :0.84195: L2-HR :0.82940: (Sim:3h39m18s) 
CPU  2 inst:  152000003 cyc:  151175931 now IPC :0.60471: AVG IPC :0.99874: L2-Pf-HR :0.83822: L2-HR :0.82726: (Sim:3h39m24s) 
CPU  3 inst:  152000004 cyc:  151197212 now IPC :0.59045: AVG IPC :0.99860: L2-Pf-HR :0.83644: L2-HR :0.82489: (Sim:3h39m25s) 
CPU  1 inst:  152000004 cyc:  151214789 now IPC :0.58406: AVG IPC :0.99848: L2-Pf-HR :0.83051: L2-HR :0.82057: (Sim:3h39m26s) 
CPU  0 inst:  155000003 cyc:  151922927 now IPC :1.19283: AVG IPC :1.01368: L2-Pf-HR :0.84200: L2-HR :0.82936: (Sim:3h40m13s) 
CPU  1 inst:  153000004 cyc:  152065129 now IPC :1.17600: AVG IPC :0.99948: L2-Pf-HR :0.83042: L2-HR :0.82047: (Sim:3h40m23s) 
CPU  3 inst:  153000004 cyc:  152067151 now IPC :1.14951: AVG IPC :0.99947: L2-Pf-HR :0.83634: L2-HR :0.82476: (Sim:3h40m23s) 
[...]
Core_3_L2C_total_hit 54202397
Core_3_L2C_total_miss 6194162
Core_3_L2C_loads 12236294
Core_3_L2C_load_hit 10762745
Core_3_L2C_load_miss 1473549
Core_3_L2C_RFOs 970820
Core_3_L2C_RFO_hit 245490
Core_3_L2C_RFO_miss 725330
Core_3_L2C_prefetches 44275512
Core_3_L2C_prefetch_hit 40282341
Core_3_L2C_prefetch_miss 3993171
Core_3_L2C_writebacks 2913933
Core_3_L2C_writeback_hit 2911821
Core_3_L2C_writeback_miss 2112

CPU 3 L1D next line prefetcher final stats
CPU 3 L2C PC-based stride prefetcher final stats
Stride Degree: 15
MK1  MARKOV_LRU_SIZE: 128
MK1  MARKOV_PREDICTION_PERCENTTHRESHOLD: 40.00000
MK1  OUTLIERS_THRESHOLD_Max: 64
MK1  OUTLIERS_THRESHOLD_Min: 32
MK2  MARKOV_LRU_SIZE: 256
MK2  MARKOV_PREDICTION_PERCENTTHRESHOLD: 30.00000
MK2  OUTLIERS_THRESHOLD_Max: 32
MK2  OUTLIERS_THRESHOLD_Min: 16
MK3  MARKOV_LRU_SIZE: 384
MK3  MARKOV_PREDICTION_PERCENTTHRESHOLD: 25.00000
MK3  OUTLIERS_THRESHOLD_Max: 16
MK3  OUTLIERS_THRESHOLD_Min: 8
MK4  MARKOV_LRU_SIZE: 512
MK4  MARKOV_PREDICTION_PERCENTTHRESHOLD: 20.00000
MK4  OUTLIERS_THRESHOLD_Max: 8
MK4  OUTLIERS_THRESHOLD_Min: 0
IPStride Degree/Access Ratio: 1.64829
MK1 IPDEltaMarkov  Degree/Access Ratio: 0.44232
MK2 IPDEltaMarkov  Degree/Access Ratio: 0.58533
MK3 IPDEltaMarkov  Degree/Access Ratio: 0.76076
MK4 IPDEltaMarkov  Degree/Access Ratio: 1.42592
Core_3_LLC_total_access 9120026
Core_3_LLC_total_hit 4533194
Core_3_LLC_total_miss 4586832
Core_3_LLC_loads 1026772
Core_3_LLC_load_hit 672055
Core_3_LLC_load_miss 354717
Core_3_LLC_RFOs 725328
Core_3_LLC_RFO_hit 16
Core_3_LLC_RFO_miss 725312
Core_3_LLC_prefetches 4604370
Core_3_LLC_prefetch_hit 1146568
Core_3_LLC_prefetch_miss 3457802
Core_3_LLC_writebacks 2763556
Core_3_LLC_writeback_hit 2714555
Core_3_LLC_writeback_miss 49001


[ROI Statistics]
Core_0_instructions 491000000
Core_0_cycles 832493566
Core_0_IPC 0.58979

Core_0_branch_prediction_accuracy 99.58446
Core_0_branch_MPKI 0.11872
Core_0_average_ROB_occupancy_at_mispredict 562.47662

Core_0_L1D_total_access 302784571
Core_0_L1D_total_hit 277607803 L1D_total_Hit Ratio: 0.91685
Core_0_L1D_total_miss 25176768
Core_0_L1D_loads 122749472
Core_0_L1D_load_hit 109929934 L1D_load_Hit Ratio: 0.89556
Core_0_L1D_load_miss 12819538
Core_0_L1D_RFOs 12558067
Core_0_L1D_RFO_hit 11586915 L1D_RFO_Hit Ratio: 0.92267
Core_0_L1D_RFO_miss 971152
Core_0_L1D_prefetches 167477032
Core_0_L1D_prefetch_hit 156090954 L1D_prefetch_Hit Ratio: 0.93201
Core_0_L1D_prefetch_miss 11386078
Core_0_L1D_writebacks 0
Core_0_L1D_writeback_hit 0 L1D_writeback_Hit Ratio: -nan
Core_0_L1D_writeback_miss 0
Core_0_L1D_prefetch_requested 389100996
Core_0_L1D_prefetch_issued 198282953
Core_0_L1D_prefetch_useful 5785886 L1D_Useful Ratio: 0.02918
Core_0_L1D_prefetch_useless 5918936
Core_0_L1D_prefetch_late 622451
Core_0_L1D_average_miss_latency 8605331.19081

Core_0_L1I_total_access 71813625
Core_0_L1I_total_hit 71808651 L1I_total_Hit Ratio: 0.99993
Core_0_L1I_total_miss 4974
Core_0_L1I_loads 71813625
Core_0_L1I_load_hit 71808651 L1I_load_Hit Ratio: 0.99993
Core_0_L1I_load_miss 4974
Core_0_L1I_RFOs 0
Core_0_L1I_RFO_hit 0 L1I_RFO_Hit Ratio: -nan
Core_0_L1I_RFO_miss 0
Core_0_L1I_prefetches 0
Core_0_L1I_prefetch_hit 0 L1I_prefetch_Hit Ratio: -nan
Core_0_L1I_prefetch_miss 0
Core_0_L1I_writebacks 0
Core_0_L1I_writeback_hit 0 L1I_writeback_Hit Ratio: -nan
Core_0_L1I_writeback_miss 0
Core_0_L1I_prefetch_requested 0
Core_0_L1I_prefetch_issued 0
Core_0_L1I_prefetch_useful 0 L1I_Useful Ratio: -nan
Core_0_L1I_prefetch_useless 0
Core_0_L1I_prefetch_late 0
Core_0_L1I_average_miss_latency 1998.33434

Core_0_L2C_total_access 61021193
Core_0_L2C_total_hit 54815128 L2C_total_Hit Ratio: 0.89830
Core_0_L2C_total_miss 6206065
Core_0_L2C_loads 12218254
Core_0_L2C_load_hit 10756967 L2C_load_Hit Ratio: 0.88040
Core_0_L2C_load_miss 1461287
Core_0_L2C_RFOs 971118
Core_0_L2C_RFO_hit 245779 L2C_RFO_Hit Ratio: 0.25309
Core_0_L2C_RFO_miss 725339
Core_0_L2C_prefetches 44917986
Core_0_L2C_prefetch_hit 40900554 L2C_prefetch_Hit Ratio: 0.91056
Core_0_L2C_prefetch_miss 4017432
Core_0_L2C_writebacks 2913835
Core_0_L2C_writeback_hit 2911828 L2C_writeback_Hit Ratio: 0.99931
Core_0_L2C_writeback_miss 2007
Core_0_L2C_prefetch_requested 125943632
Core_0_L2C_prefetch_issued 52691133
Core_0_L2C_prefetch_useful 676233 L2C_Useful Ratio: 0.01283
Core_0_L2C_prefetch_useless 3507024
Core_0_L2C_prefetch_late 448106
Core_0_L2C_average_miss_latency 952.09637

Core_0_LLC_total_access 9121699
Core_0_LLC_total_hit 4642922 LLC_total_Hit Ratio: 0.50900
Core_0_LLC_total_miss 4478777
Core_0_LLC_loads 1015886
Core_0_LLC_load_hit 714104 LLC_load_Hit Ratio: 0.70294
Core_0_LLC_load_miss 301782
Core_0_LLC_RFOs 725338
Core_0_LLC_RFO_hit 6 LLC_RFO_Hit Ratio: 0.00001
Core_0_LLC_RFO_miss 725332
Core_0_LLC_prefetches 4619619
Core_0_LLC_prefetch_hit 1234360 LLC_prefetch_Hit Ratio: 0.26720
Core_0_LLC_prefetch_miss 3385259
Core_0_LLC_writebacks 2760856
Core_0_LLC_writeback_hit 2694452 LLC_writeback_Hit Ratio: 0.97595
Core_0_LLC_writeback_miss 66404
Core_0_LLC_prefetch_requested 0
Core_0_LLC_prefetch_issued 0
Core_0_LLC_prefetch_useful 2070886 LLC_Useful Ratio: inf
Core_0_LLC_prefetch_useless 11699505
Core_0_LLC_prefetch_late 77449
Core_0_LLC_average_miss_latency 5025.57533

Core_0_major_page_fault 0
Core_0_minor_page_fault 28740

Core_1_instructions 491000002
Core_1_cycles 841837332
Core_1_IPC 0.58325

Core_1_branch_prediction_accuracy 99.58583
Core_1_branch_MPKI 0.12029
Core_1_average_ROB_occupancy_at_mispredict 569.10869

Core_1_L1D_total_access 302166478
Core_1_L1D_total_hit 277043154 L1D_total_Hit Ratio: 0.91686
Core_1_L1D_total_miss 25123324
Core_1_L1D_loads 122519937
Core_1_L1D_load_hit 109667545 L1D_load_Hit Ratio: 0.89510
Core_1_L1D_load_miss 12852392
Core_1_L1D_RFOs 12557082
Core_1_L1D_RFO_hit 11584570 L1D_RFO_Hit Ratio: 0.92255
Core_1_L1D_RFO_miss 972512
Core_1_L1D_prefetches 167089459
Core_1_L1D_prefetch_hit 155791039 L1D_prefetch_Hit Ratio: 0.93238
Core_1_L1D_prefetch_miss 11298420
Core_1_L1D_writebacks 0
Core_1_L1D_writeback_hit 0 L1D_writeback_Hit Ratio: -nan
Core_1_L1D_writeback_miss 0
Core_1_L1D_prefetch_requested 378910962
Core_1_L1D_prefetch_issued 193822389
Core_1_L1D_prefetch_useful 5635912 L1D_Useful Ratio: 0.02908
Core_1_L1D_prefetch_useless 5735280
Core_1_L1D_prefetch_late 633138
Core_1_L1D_average_miss_latency 8756956.88158

Core_1_L1I_total_access 71834055
Core_1_L1I_total_hit 71829082 L1I_total_Hit Ratio: 0.99993
Core_1_L1I_total_miss 4973
Core_1_L1I_loads 71834055
Core_1_L1I_load_hit 71829082 L1I_load_Hit Ratio: 0.99993
Core_1_L1I_load_miss 4973
Core_1_L1I_RFOs 0
Core_1_L1I_RFO_hit 0 L1I_RFO_Hit Ratio: -nan
Core_1_L1I_RFO_miss 0
Core_1_L1I_prefetches 0
Core_1_L1I_prefetch_hit 0 L1I_prefetch_Hit Ratio: -nan
Core_1_L1I_prefetch_miss 0
Core_1_L1I_writebacks 0
Core_1_L1I_writeback_hit 0 L1I_writeback_Hit Ratio: -nan
Core_1_L1I_writeback_miss 0
Core_1_L1I_prefetch_requested 0
Core_1_L1I_prefetch_issued 0
Core_1_L1I_prefetch_useful 0 L1I_Useful Ratio: -nan
Core_1_L1I_prefetch_useless 0
Core_1_L1I_prefetch_late 0
Core_1_L1I_average_miss_latency 1263.62457

Core_1_L2C_total_access 60322588
Core_1_L2C_total_hit 54080679 L2C_total_Hit Ratio: 0.89652
Core_1_L2C_total_miss 6241909
Core_1_L2C_loads 12226205
Core_1_L2C_load_hit 10756317 L2C_load_Hit Ratio: 0.87978
Core_1_L2C_load_miss 1469888
Core_1_L2C_RFOs 972477
Core_1_L2C_RFO_hit 247136 L2C_RFO_Hit Ratio: 0.25413
Core_1_L2C_RFO_miss 725341
Core_1_L2C_prefetches 44210071
Core_1_L2C_prefetch_hit 40165699 L2C_prefetch_Hit Ratio: 0.90852
Core_1_L2C_prefetch_miss 4044372
Core_1_L2C_writebacks 2913835
Core_1_L2C_writeback_hit 2911527 L2C_writeback_Hit Ratio: 0.99921
Core_1_L2C_writeback_miss 2308
Core_1_L2C_prefetch_requested 111869013
Core_1_L2C_prefetch_issued 51023563
Core_1_L2C_prefetch_useful 699056 L2C_Useful Ratio: 0.01370
Core_1_L2C_prefetch_useless 3365199
Core_1_L2C_prefetch_late 452823
Core_1_L2C_average_miss_latency 963.29932

Core_1_LLC_total_access 9166968
Core_1_LLC_total_hit 4593192 LLC_total_Hit Ratio: 0.50106
Core_1_LLC_total_miss 4573776
Core_1_LLC_loads 1017106
Core_1_LLC_load_hit 664761 LLC_load_Hit Ratio: 0.65358
Core_1_LLC_load_miss 352345
Core_1_LLC_RFOs 725339
Core_1_LLC_RFO_hit 13 LLC_RFO_Hit Ratio: 0.00002
Core_1_LLC_RFO_miss 725326
Core_1_LLC_prefetches 4662877
Core_1_LLC_prefetch_hit 1215272 LLC_prefetch_Hit Ratio: 0.26063
Core_1_LLC_prefetch_miss 3447605
Core_1_LLC_writebacks 2761646
Core_1_LLC_writeback_hit 2713146 LLC_writeback_Hit Ratio: 0.98244
Core_1_LLC_writeback_miss 48500
Core_1_LLC_prefetch_requested 0
Core_1_LLC_prefetch_issued 0
Core_1_LLC_prefetch_useful 2070886 LLC_Useful Ratio: inf
Core_1_LLC_prefetch_useless 11699505
Core_1_LLC_prefetch_late 77449
Core_1_LLC_average_miss_latency 4921.19230

Core_1_major_page_fault 0
Core_1_minor_page_fault 28665

Core_2_instructions 491000002
Core_2_cycles 842577432
Core_2_IPC 0.58274

Core_2_branch_prediction_accuracy 99.58586
Core_2_branch_MPKI 0.12051
Core_2_average_ROB_occupancy_at_mispredict 569.19323

Core_2_L1D_total_access 301849980
Core_2_L1D_total_hit 276746045 L1D_total_Hit Ratio: 0.91683
Core_2_L1D_total_miss 25103935
Core_2_L1D_loads 122437248
Core_2_L1D_load_hit 109582085 L1D_load_Hit Ratio: 0.89501
Core_2_L1D_load_miss 12855163
Core_2_L1D_RFOs 12556978
Core_2_L1D_RFO_hit 11585437 L1D_RFO_Hit Ratio: 0.92263
Core_2_L1D_RFO_miss 971541
Core_2_L1D_prefetches 166855754
Core_2_L1D_prefetch_hit 155578523 L1D_prefetch_Hit Ratio: 0.93241
Core_2_L1D_prefetch_miss 11277231
Core_2_L1D_writebacks 0
Core_2_L1D_writeback_hit 0 L1D_writeback_Hit Ratio: -nan
Core_2_L1D_writeback_miss 0
Core_2_L1D_prefetch_requested 377625132
Core_2_L1D_prefetch_issued 193281803
Core_2_L1D_prefetch_useful 5610746 L1D_Useful Ratio: 0.02903
Core_2_L1D_prefetch_useless 5688421
Core_2_L1D_prefetch_late 628594
Core_2_L1D_average_miss_latency 8835055.88403

Core_2_L1I_total_access 71845579
Core_2_L1I_total_hit 71840611 L1I_total_Hit Ratio: 0.99993
Core_2_L1I_total_miss 4968
Core_2_L1I_loads 71845579
Core_2_L1I_load_hit 71840611 L1I_load_Hit Ratio: 0.99993
Core_2_L1I_load_miss 4968
Core_2_L1I_RFOs 0
Core_2_L1I_RFO_hit 0 L1I_RFO_Hit Ratio: -nan
Core_2_L1I_RFO_miss 0
Core_2_L1I_prefetches 0
Core_2_L1I_prefetch_hit 0 L1I_prefetch_Hit Ratio: -nan
Core_2_L1I_prefetch_miss 0
Core_2_L1I_writebacks 0
Core_2_L1I_writeback_hit 0 L1I_writeback_Hit Ratio: -nan
Core_2_L1I_writeback_miss 0
Core_2_L1I_prefetch_requested 0
Core_2_L1I_prefetch_issued 0
Core_2_L1I_prefetch_useful 0 L1I_Useful Ratio: -nan
Core_2_L1I_prefetch_useless 0
Core_2_L1I_prefetch_late 0
Core_2_L1I_average_miss_latency 1277.79610

Core_2_L2C_total_access 60413789
Core_2_L2C_total_hit 54246901 L2C_total_Hit Ratio: 0.89792
Core_2_L2C_total_miss 6166888
Core_2_L2C_loads 12232693
Core_2_L2C_load_hit 10769620 L2C_load_Hit Ratio: 0.88040
Core_2_L2C_load_miss 1463073
Core_2_L2C_RFOs 971509
Core_2_L2C_RFO_hit 246167 L2C_RFO_Hit Ratio: 0.25339
Core_2_L2C_RFO_miss 725342
Core_2_L2C_prefetches 44295752
Core_2_L2C_prefetch_hit 40319385 L2C_prefetch_Hit Ratio: 0.91023
Core_2_L2C_prefetch_miss 3976367
Core_2_L2C_writebacks 2913835
Core_2_L2C_writeback_hit 2911729 L2C_writeback_Hit Ratio: 0.99928
Core_2_L2C_writeback_miss 2106
Core_2_L2C_prefetch_requested 111207749
Core_2_L2C_prefetch_issued 51030088
Core_2_L2C_prefetch_useful 662101 L2C_Useful Ratio: 0.01297
Core_2_L2C_prefetch_useless 3328564
Core_2_L2C_prefetch_late 446283
Core_2_L2C_average_miss_latency 975.74470

Core_2_LLC_total_access 9089535
Core_2_LLC_total_hit 4492343 LLC_total_Hit Ratio: 0.49423
Core_2_LLC_total_miss 4597192
Core_2_LLC_loads 1016869
Core_2_LLC_load_hit 662265 LLC_load_Hit Ratio: 0.65128
Core_2_LLC_load_miss 354604
Core_2_LLC_RFOs 725340
Core_2_LLC_RFO_hit 14 LLC_RFO_Hit Ratio: 0.00002
Core_2_LLC_RFO_miss 725326
Core_2_LLC_prefetches 4586537
Core_2_LLC_prefetch_hit 1120914 LLC_prefetch_Hit Ratio: 0.24439
Core_2_LLC_prefetch_miss 3465623
Core_2_LLC_writebacks 2760789
Core_2_LLC_writeback_hit 2709150 LLC_writeback_Hit Ratio: 0.98130
Core_2_LLC_writeback_miss 51639
Core_2_LLC_prefetch_requested 0
Core_2_LLC_prefetch_issued 0
Core_2_LLC_prefetch_useful 2070886 LLC_Useful Ratio: inf
Core_2_LLC_prefetch_useless 11699505
Core_2_LLC_prefetch_late 77449
Core_2_LLC_average_miss_latency 4896.12599

Core_2_major_page_fault 0
Core_2_minor_page_fault 28665

Core_3_instructions 491000005
Core_3_cycles 842525711
Core_3_IPC 0.58277

Core_3_branch_prediction_accuracy 99.58585
Core_3_branch_MPKI 0.12049
Core_3_average_ROB_occupancy_at_mispredict 569.15176

Core_3_L1D_total_access 301893269
Core_3_L1D_total_hit 276782213 L1D_total_Hit Ratio: 0.91682
Core_3_L1D_total_miss 25111056
Core_3_L1D_loads 122460360
Core_3_L1D_load_hit 109605876 L1D_load_Hit Ratio: 0.89503
Core_3_L1D_load_miss 12854484
Core_3_L1D_RFOs 12556501
Core_3_L1D_RFO_hit 11585647 L1D_RFO_Hit Ratio: 0.92268
Core_3_L1D_RFO_miss 970854
Core_3_L1D_prefetches 166876408
Core_3_L1D_prefetch_hit 155590690 L1D_prefetch_Hit Ratio: 0.93237
Core_3_L1D_prefetch_miss 11285718
Core_3_L1D_writebacks 0
Core_3_L1D_writeback_hit 0 L1D_writeback_Hit Ratio: -nan
Core_3_L1D_writeback_miss 0
Core_3_L1D_prefetch_requested 377802798
Core_3_L1D_prefetch_issued 193322145
Core_3_L1D_prefetch_useful 5613501 L1D_Useful Ratio: 0.02904
Core_3_L1D_prefetch_useless 5698803
Core_3_L1D_prefetch_late 629058
Core_3_L1D_average_miss_latency 8808358.39236

Core_3_L1I_total_access 71842279
Core_3_L1I_total_hit 71837305 L1I_total_Hit Ratio: 0.99993
Core_3_L1I_total_miss 4974
Core_3_L1I_loads 71842279
Core_3_L1I_load_hit 71837305 L1I_load_Hit Ratio: 0.99993
Core_3_L1I_load_miss 4974
Core_3_L1I_RFOs 0
Core_3_L1I_RFO_hit 0 L1I_RFO_Hit Ratio: -nan
Core_3_L1I_RFO_miss 0
Core_3_L1I_prefetches 0
Core_3_L1I_prefetch_hit 0 L1I_prefetch_Hit Ratio: -nan
Core_3_L1I_prefetch_miss 0
Core_3_L1I_writebacks 0
Core_3_L1I_writeback_hit 0 L1I_writeback_Hit Ratio: -nan
Core_3_L1I_writeback_miss 0
Core_3_L1I_prefetch_requested 0
Core_3_L1I_prefetch_issued 0
Core_3_L1I_prefetch_useful 0 L1I_Useful Ratio: -nan
Core_3_L1I_prefetch_useless 0
Core_3_L1I_prefetch_late 0
Core_3_L1I_average_miss_latency 1420.89224

Core_3_L2C_total_access 60376381
Core_3_L2C_total_hit 54182412 L2C_total_Hit Ratio: 0.89741
Core_3_L2C_total_miss 6193969
Core_3_L2C_loads 12231632
Core_3_L2C_load_hit 10758086 L2C_load_Hit Ratio: 0.87953
Core_3_L2C_load_miss 1473546
Core_3_L2C_RFOs 970820
Core_3_L2C_RFO_hit 245490 L2C_RFO_Hit Ratio: 0.25287
Core_3_L2C_RFO_miss 725330
Core_3_L2C_prefetches 44260094
Core_3_L2C_prefetch_hit 40267113 L2C_prefetch_Hit Ratio: 0.90978
Core_3_L2C_prefetch_miss 3992981
Core_3_L2C_writebacks 2913835
Core_3_L2C_writeback_hit 2911723 L2C_writeback_Hit Ratio: 0.99928
Core_3_L2C_writeback_miss 2112
Core_3_L2C_prefetch_requested 111370919
Core_3_L2C_prefetch_issued 50960459
Core_3_L2C_prefetch_useful 657204 L2C_Useful Ratio: 0.01290
Core_3_L2C_prefetch_useless 3350000
Core_3_L2C_prefetch_late 446796
Core_3_L2C_average_miss_latency 973.67626

Core_3_LLC_total_access 9119826
Core_3_LLC_total_hit 4533164 LLC_total_Hit Ratio: 0.49707
Core_3_LLC_total_miss 4586662
Core_3_LLC_loads 1026769
Core_3_LLC_load_hit 672053 LLC_load_Hit Ratio: 0.65453
Core_3_LLC_load_miss 354716
Core_3_LLC_RFOs 725328
Core_3_LLC_RFO_hit 16 LLC_RFO_Hit Ratio: 0.00002
Core_3_LLC_RFO_miss 725312
Core_3_LLC_prefetches 4604180
Core_3_LLC_prefetch_hit 1146546 LLC_prefetch_Hit Ratio: 0.24902
Core_3_LLC_prefetch_miss 3457634
Core_3_LLC_writebacks 2763549
Core_3_LLC_writeback_hit 2714549 LLC_writeback_Hit Ratio: 0.98227
Core_3_LLC_writeback_miss 49000
Core_3_LLC_prefetch_requested 0
Core_3_LLC_prefetch_issued 0
Core_3_LLC_prefetch_useful 2070886 LLC_Useful Ratio: inf
Core_3_LLC_prefetch_useless 11699505
Core_3_LLC_prefetch_late 77449
Core_3_LLC_average_miss_latency 4907.36645

Core_3_major_page_fault 0
Core_3_minor_page_fault 28665

CPU 0 L1D next line prefetcher final stats
CPU 0 L2C PC-based stride prefetcher final stats
Stride Degree: 15
MK1  MARKOV_LRU_SIZE: 128
MK1  MARKOV_PREDICTION_PERCENTTHRESHOLD: 40.00000
MK1  OUTLIERS_THRESHOLD_Max: 64
MK1  OUTLIERS_THRESHOLD_Min: 32
MK2  MARKOV_LRU_SIZE: 256
MK2  MARKOV_PREDICTION_PERCENTTHRESHOLD: 30.00000
MK2  OUTLIERS_THRESHOLD_Max: 32
MK2  OUTLIERS_THRESHOLD_Min: 16
MK3  MARKOV_LRU_SIZE: 384
MK3  MARKOV_PREDICTION_PERCENTTHRESHOLD: 25.00000
MK3  OUTLIERS_THRESHOLD_Max: 16
MK3  OUTLIERS_THRESHOLD_Min: 8
MK4  MARKOV_LRU_SIZE: 512
MK4  MARKOV_PREDICTION_PERCENTTHRESHOLD: 20.00000
MK4  OUTLIERS_THRESHOLD_Max: 8
MK4  OUTLIERS_THRESHOLD_Min: 0
IPStride Degree/Access Ratio: 1.64829
MK1 IPDEltaMarkov  Degree/Access Ratio: 0.44232
MK2 IPDEltaMarkov  Degree/Access Ratio: 0.58533
MK3 IPDEltaMarkov  Degree/Access Ratio: 0.76076
MK4 IPDEltaMarkov  Degree/Access Ratio: 1.42592
CPU 1 L1D next line prefetcher final stats
CPU 1 L2C PC-based stride prefetcher final stats
Stride Degree: 15
MK1  MARKOV_LRU_SIZE: 128
MK1  MARKOV_PREDICTION_PERCENTTHRESHOLD: 40.00000
MK1  OUTLIERS_THRESHOLD_Max: 64
MK1  OUTLIERS_THRESHOLD_Min: 32
MK2  MARKOV_LRU_SIZE: 256
MK2  MARKOV_PREDICTION_PERCENTTHRESHOLD: 30.00000
MK2  OUTLIERS_THRESHOLD_Max: 32
MK2  OUTLIERS_THRESHOLD_Min: 16
MK3  MARKOV_LRU_SIZE: 384
MK3  MARKOV_PREDICTION_PERCENTTHRESHOLD: 25.00000
MK3  OUTLIERS_THRESHOLD_Max: 16
MK3  OUTLIERS_THRESHOLD_Min: 8
MK4  MARKOV_LRU_SIZE: 512
MK4  MARKOV_PREDICTION_PERCENTTHRESHOLD: 20.00000
MK4  OUTLIERS_THRESHOLD_Max: 8
MK4  OUTLIERS_THRESHOLD_Min: 0
IPStride Degree/Access Ratio: 1.64829
MK1 IPDEltaMarkov  Degree/Access Ratio: 0.44232
MK2 IPDEltaMarkov  Degree/Access Ratio: 0.58533
MK3 IPDEltaMarkov  Degree/Access Ratio: 0.76076
MK4 IPDEltaMarkov  Degree/Access Ratio: 1.42592
CPU 2 L1D next line prefetcher final stats
CPU 2 L2C PC-based stride prefetcher final stats
Stride Degree: 15
MK1  MARKOV_LRU_SIZE: 128
MK1  MARKOV_PREDICTION_PERCENTTHRESHOLD: 40.00000
MK1  OUTLIERS_THRESHOLD_Max: 64
MK1  OUTLIERS_THRESHOLD_Min: 32
MK2  MARKOV_LRU_SIZE: 256
MK2  MARKOV_PREDICTION_PERCENTTHRESHOLD: 30.00000
MK2  OUTLIERS_THRESHOLD_Max: 32
MK2  OUTLIERS_THRESHOLD_Min: 16
MK3  MARKOV_LRU_SIZE: 384
MK3  MARKOV_PREDICTION_PERCENTTHRESHOLD: 25.00000
MK3  OUTLIERS_THRESHOLD_Max: 16
MK3  OUTLIERS_THRESHOLD_Min: 8
MK4  MARKOV_LRU_SIZE: 512
MK4  MARKOV_PREDICTION_PERCENTTHRESHOLD: 20.00000
MK4  OUTLIERS_THRESHOLD_Max: 8
MK4  OUTLIERS_THRESHOLD_Min: 0
IPStride Degree/Access Ratio: 1.64829
MK1 IPDEltaMarkov  Degree/Access Ratio: 0.44232
MK2 IPDEltaMarkov  Degree/Access Ratio: 0.58533
MK3 IPDEltaMarkov  Degree/Access Ratio: 0.76076
MK4 IPDEltaMarkov  Degree/Access Ratio: 1.42592
CPU 3 L1D next line prefetcher final stats
CPU 3 L2C PC-based stride prefetcher final stats
Stride Degree: 15
MK1  MARKOV_LRU_SIZE: 128
MK1  MARKOV_PREDICTION_PERCENTTHRESHOLD: 40.00000
MK1  OUTLIERS_THRESHOLD_Max: 64
MK1  OUTLIERS_THRESHOLD_Min: 32
MK2  MARKOV_LRU_SIZE: 256
MK2  MARKOV_PREDICTION_PERCENTTHRESHOLD: 30.00000
MK2  OUTLIERS_THRESHOLD_Max: 32
MK2  OUTLIERS_THRESHOLD_Min: 16
MK3  MARKOV_LRU_SIZE: 384
MK3  MARKOV_PREDICTION_PERCENTTHRESHOLD: 25.00000
MK3  OUTLIERS_THRESHOLD_Max: 16
MK3  OUTLIERS_THRESHOLD_Min: 8
MK4  MARKOV_LRU_SIZE: 512
MK4  MARKOV_PREDICTION_PERCENTTHRESHOLD: 20.00000
MK4  OUTLIERS_THRESHOLD_Max: 8
MK4  OUTLIERS_THRESHOLD_Min: 0
IPStride Degree/Access Ratio: 1.64829
MK1 IPDEltaMarkov  Degree/Access Ratio: 0.44232
MK2 IPDEltaMarkov  Degree/Access Ratio: 0.58533
MK3 IPDEltaMarkov  Degree/Access Ratio: 0.76076
MK4 IPDEltaMarkov  Degree/Access Ratio: 1.42592
Channel_0_RQ_row_buffer_hit 6240679
Channel_0_RQ_row_buffer_miss 11875179
Channel_0_WQ_row_buffer_hit 2914836
Channel_0_WQ_row_buffer_miss 6975129
Channel_0_WQ_full 12454
Channel_0_dbus_congested 20043473

avg_congested_cycle 11

EzSearch AVG IPC :0.58979: L2-Pf-HR :0.91056 : L2-HR :0.89797 Uful:0.01283
EzSearch AVG IPC :0.58325: L2-Pf-HR :0.90852 : L2-HR :0.89679 Uful:0.01370
EzSearch AVG IPC :0.58274: L2-Pf-HR :0.91023 : L2-HR :0.89792 Uful:0.01297
EzSearch AVG IPC :0.58277: L2-Pf-HR :0.90978 : L2-HR :0.89744 Uful:0.01290
     > Finished combination: TraceType=770-tot Sim:491000000 Prefetcher=L2029-SecTOP-L2-MultiMarkovDelta_ip_stride_v4-MK2-P30 L1=next_line
