TRACE: [83000000][Pythia-70M]_[h8][s512][d64] Warmup: 2000000 NumTraces: 83000000
L1:bingo_dpc3_PHT1k:L2:bingo_dpc3_PHT1k
*************************************************
   ChampSim Multicore Out-of-Order Simulator
   Last compiled: Oct 29 2024 16:49:28
*************************************************

trace_0 770-tot_memTraces_v3_rexz/memTraces[83000000][Pythia-70M]_[h8][s512][d64].champsim.9.xz
trace_1 770-tot_memTraces_v3_rexz/memTraces[83000000][Pythia-70M]_[h8][s512][d64].champsim.9.xz
trace_2 770-tot_memTraces_v3_rexz/memTraces[83000000][Pythia-70M]_[h8][s512][d64].champsim.9.xz
trace_3 770-tot_memTraces_v3_rexz/memTraces[83000000][Pythia-70M]_[h8][s512][d64].champsim.9.xz
Bingo PHT WAYS: 16 and PHT_SIZE: 1024
Bingo2 PHT WAYS: 16 and PHT_SIZE: 1024
Bingo PHT WAYS: 16 and PHT_SIZE: 1024
Bingo2 PHT WAYS: 16 and PHT_SIZE: 1024
Bingo PHT WAYS: 16 and PHT_SIZE: 1024
Bingo2 PHT WAYS: 16 and PHT_SIZE: 1024
Bingo PHT WAYS: 16 and PHT_SIZE: 1024
Bingo2 PHT WAYS: 16 and PHT_SIZE: 1024
MAIN.cc ln 751 stats print skipped
CPU  1 inst:    1000003 cyc:     499538 now IPC :2.00186: AVG IPC :2.00186: L2-Pf-HR :0.77557: L2-HR :0.67272: (Sim:0h0m47s) 
CPU  0 inst:    1000003 cyc:     499588 now IPC :2.00166: AVG IPC :2.00166: L2-Pf-HR :0.77880: L2-HR :0.67954: (Sim:0h0m47s) 
CPU  2 inst:    1000003 cyc:     499679 now IPC :2.00129: AVG IPC :2.00129: L2-Pf-HR :0.73795: L2-HR :0.64462: (Sim:0h0m47s) 
CPU  3 inst:    1000003 cyc:     499883 now IPC :2.00047: AVG IPC :2.00047: L2-Pf-HR :0.77565: L2-HR :0.65702: (Sim:0h0m47s) 
CPU  1 inst:    2000001 cyc:     982019 now IPC :2.07262: AVG IPC :2.03662: L2-Pf-HR :0.78403: L2-HR :0.71550: (Sim:0h1m38s) 
CPU  0 inst:    2000001 cyc:     982062 now IPC :2.07265: AVG IPC :2.03653: L2-Pf-HR :0.79618: L2-HR :0.72916: (Sim:0h1m38s) 
CPU  2 inst:    2000001 cyc:     982126 now IPC :2.07276: AVG IPC :2.03640: L2-Pf-HR :0.77604: L2-HR :0.70731: (Sim:0h1m38s) 
CPU  3 inst:    2000001 cyc:     982368 now IPC :2.07260: AVG IPC :2.03590: L2-Pf-HR :0.78796: L2-HR :0.70223: (Sim:0h1m38s) 

Warmup complete CPU  0 instructions:    2000636 cycles:     982368 (Simulation time: 0 hr 1 min 38 sec) 
Warmup complete CPU  1 instructions:    2000759 cycles:     982368 (Simulation time: 0 hr 1 min 38 sec) 
Warmup complete CPU  2 instructions:    2000461 cycles:     982368 (Simulation time: 0 hr 1 min 38 sec) 
Warmup complete CPU  3 instructions:    2000001 cycles:     982368 (Simulation time: 0 hr 1 min 38 sec) 

CPU  1 inst:    3000004 cyc:    1728683 now IPC :1.33929: AVG IPC :1.33891: L2-Pf-HR :0.88289: L2-HR :0.77993: (Sim:0h2m27s) 
CPU  0 inst:    3000004 cyc:    1728734 now IPC :1.33928: AVG IPC :1.33898: L2-Pf-HR :0.90437: L2-HR :0.80446: (Sim:0h2m27s) 
CPU  3 inst:    3000004 cyc:    1729038 now IPC :1.33928: AVG IPC :1.33928: L2-Pf-HR :0.88799: L2-HR :0.76535: (Sim:0h2m27s) 
CPU  2 inst:    3000004 cyc:    1729342 now IPC :1.33831: AVG IPC :1.33812: L2-Pf-HR :0.90151: L2-HR :0.78856: (Sim:0h2m27s) 
CPU  1 inst:    4000005 cyc:    2451768 now IPC :1.38296: AVG IPC :1.36059: L2-Pf-HR :0.84392: L2-HR :0.76756: (Sim:0h3m10s) 
CPU  0 inst:    4000005 cyc:    2452074 now IPC :1.38248: AVG IPC :1.36039: L2-Pf-HR :0.86433: L2-HR :0.78695: (Sim:0h3m10s) 
CPU  2 inst:    4000005 cyc:    2452580 now IPC :1.38267: AVG IPC :1.36004: L2-Pf-HR :0.85508: L2-HR :0.77307: (Sim:0h3m10s) 
CPU  3 inst:    4000005 cyc:    2455188 now IPC :1.37713: AVG IPC :1.35794: L2-Pf-HR :0.84564: L2-HR :0.75661: (Sim:0h3m10s) 
CPU  0 inst:    5000003 cyc:    3240792 now IPC :1.26788: AVG IPC :1.32808: L2-Pf-HR :0.83379: L2-HR :0.78306: (Sim:0h3m55s) 
CPU  1 inst:    5000003 cyc:    3249169 now IPC :1.25407: AVG IPC :1.32312: L2-Pf-HR :0.83771: L2-HR :0.77872: (Sim:0h3m55s) 
CPU  2 inst:    5000002 cyc:    3253741 now IPC :1.24818: AVG IPC :1.32058: L2-Pf-HR :0.83149: L2-HR :0.77203: (Sim:0h3m56s) 
CPU  3 inst:    5000003 cyc:    3261111 now IPC :1.24081: AVG IPC :1.31652: L2-Pf-HR :0.82468: L2-HR :0.76514: (Sim:0h3m56s) 
CPU  1 inst:    6000003 cyc:    3900751 now IPC :1.53473: AVG IPC :1.37036: L2-Pf-HR :0.85531: L2-HR :0.79847: (Sim:0h4m39s) 
CPU  0 inst:    6000003 cyc:    3909701 now IPC :1.49497: AVG IPC :1.36622: L2-Pf-HR :0.83926: L2-HR :0.79198: (Sim:0h4m40s) 
CPU  3 inst:    6000003 cyc:    3948575 now IPC :1.45462: AVG IPC :1.34852: L2-Pf-HR :0.83044: L2-HR :0.77659: (Sim:0h4m43s) 
CPU  2 inst:    6000003 cyc:    3970052 now IPC :1.39604: AVG IPC :1.33868: L2-Pf-HR :0.84628: L2-HR :0.78474: (Sim:0h4m44s) 
CPU  1 inst:    7000002 cyc:    4590386 now IPC :1.45004: AVG IPC :1.38559: L2-Pf-HR :0.86686: L2-HR :0.80307: (Sim:0h5m26s) 
CPU  0 inst:    7000002 cyc:    4611884 now IPC :1.42413: AVG IPC :1.37742: L2-Pf-HR :0.84902: L2-HR :0.79499: (Sim:0h5m28s) 
CPU  3 inst:    7000002 cyc:    4669615 now IPC :1.38688: AVG IPC :1.35603: L2-Pf-HR :0.83581: L2-HR :0.77835: (Sim:0h5m32s) 
CPU  2 inst:    7000002 cyc:    4683703 now IPC :1.40124: AVG IPC :1.35074: L2-Pf-HR :0.85953: L2-HR :0.78784: (Sim:0h5m33s) 
CPU  1 inst:    8000001 cyc:    5246594 now IPC :1.52391: AVG IPC :1.40688: L2-Pf-HR :0.86686: L2-HR :0.80232: (Sim:0h6m12s) 
CPU  0 inst:    8000001 cyc:    5270845 now IPC :1.51754: AVG IPC :1.39895: L2-Pf-HR :0.84450: L2-HR :0.79062: (Sim:0h6m14s) 
CPU  3 inst:    8000001 cyc:    5348393 now IPC :1.47323: AVG IPC :1.37425: L2-Pf-HR :0.83800: L2-HR :0.77834: (Sim:0h6m19s) 
CPU  2 inst:    8000001 cyc:    5385585 now IPC :1.42474: AVG IPC :1.36254: L2-Pf-HR :0.85976: L2-HR :0.78641: (Sim:0h6m22s) 
CPU  1 inst:    9000001 cyc:    6231600 now IPC :1.01522: AVG IPC :1.33338: L2-Pf-HR :0.85663: L2-HR :0.80043: (Sim:0h7m4s) 
CPU  0 inst:    9000000 cyc:    6282871 now IPC :0.98812: AVG IPC :1.32051: L2-Pf-HR :0.83788: L2-HR :0.79047: (Sim:0h7m7s) 
CPU  3 inst:    9000000 cyc:    6372969 now IPC :0.97601: AVG IPC :1.29856: L2-Pf-HR :0.83464: L2-HR :0.78164: (Sim:0h7m12s) 
CPU  2 inst:    9000001 cyc:    6433946 now IPC :0.95387: AVG IPC :1.28395: L2-Pf-HR :0.84998: L2-HR :0.78697: (Sim:0h7m16s) 
CPU  1 inst:   10000002 cyc:    7075998 now IPC :1.18428: AVG IPC :1.31272: L2-Pf-HR :0.86240: L2-HR :0.80812: (Sim:0h7m54s) 
CPU  0 inst:   10000002 cyc:    7147542 now IPC :1.15651: AVG IPC :1.29751: L2-Pf-HR :0.84292: L2-HR :0.79712: (Sim:0h7m59s) 
CPU  3 inst:   10000002 cyc:    7231701 now IPC :1.16451: AVG IPC :1.28014: L2-Pf-HR :0.84392: L2-HR :0.79228: (Sim:0h8m4s) 
CPU  2 inst:   10000002 cyc:    7284954 now IPC :1.17508: AVG IPC :1.26925: L2-Pf-HR :0.85458: L2-HR :0.79516: (Sim:0h8m8s) 
CPU  1 inst:   11000000 cyc:    7883874 now IPC :1.23781: AVG IPC :1.30395: L2-Pf-HR :0.86744: L2-HR :0.81282: (Sim:0h8m44s) 
CPU  0 inst:   11000000 cyc:    7959186 now IPC :1.23206: AVG IPC :1.28990: L2-Pf-HR :0.84629: L2-HR :0.80139: (Sim:0h8m49s) 
CPU  2 inst:   11000000 cyc:    8077445 now IPC :1.26184: AVG IPC :1.26842: L2-Pf-HR :0.86028: L2-HR :0.80215: (Sim:0h8m57s) 
CPU  3 inst:   11000000 cyc:    8125147 now IPC :1.11926: AVG IPC :1.26001: L2-Pf-HR :0.85070: L2-HR :0.79728: (Sim:0h9m0s) 
CPU  1 inst:   12000005 cyc:    8820885 now IPC :1.06723: AVG IPC :1.27566: L2-Pf-HR :0.86522: L2-HR :0.81089: (Sim:0h9m37s) 
CPU  0 inst:   12000005 cyc:    8870119 now IPC :1.09778: AVG IPC :1.26771: L2-Pf-HR :0.84511: L2-HR :0.79987: (Sim:0h9m40s) 
CPU  2 inst:   12000005 cyc:    9055560 now IPC :1.02238: AVG IPC :1.23861: L2-Pf-HR :0.85977: L2-HR :0.80159: (Sim:0h9m50s) 
CPU  3 inst:   12000005 cyc:    9104187 now IPC :1.02141: AVG IPC :1.23125: L2-Pf-HR :0.85133: L2-HR :0.79743: (Sim:0h9m52s) 
CPU  1 inst:   13000002 cyc:   10141313 now IPC :0.75733: AVG IPC :1.20093: L2-Pf-HR :0.85713: L2-HR :0.80662: (Sim:0h10m26s) 
CPU  0 inst:   13000002 cyc:   10255700 now IPC :0.72172: AVG IPC :1.18613: L2-Pf-HR :0.84014: L2-HR :0.79739: (Sim:0h10m29s) 
CPU  2 inst:   13000002 cyc:   10398766 now IPC :0.74449: AVG IPC :1.16813: L2-Pf-HR :0.85278: L2-HR :0.79913: (Sim:0h10m34s) 
CPU  3 inst:   13000002 cyc:   10558350 now IPC :0.68768: AVG IPC :1.14871: L2-Pf-HR :0.84580: L2-HR :0.79552: (Sim:0h10m39s) 
CPU  1 inst:   14000002 cyc:   11183162 now IPC :0.95983: AVG IPC :1.17630: L2-Pf-HR :0.85885: L2-HR :0.80991: (Sim:0h11m1s) 
CPU  0 inst:   14000005 cyc:   11305862 now IPC :0.95224: AVG IPC :1.16234: L2-Pf-HR :0.84537: L2-HR :0.80250: (Sim:0h11m5s) 
CPU  2 inst:   14000001 cyc:   11391205 now IPC :1.00762: AVG IPC :1.15282: L2-Pf-HR :0.85483: L2-HR :0.80396: (Sim:0h11m8s) 
CPU  3 inst:   14000000 cyc:   11541932 now IPC :1.01669: AVG IPC :1.13641: L2-Pf-HR :0.84944: L2-HR :0.80081: (Sim:0h11m15s) 
CPU  1 inst:   15000002 cyc:   12136061 now IPC :1.04943: AVG IPC :1.16547: L2-Pf-HR :0.86034: L2-HR :0.81156: (Sim:0h11m42s) 
CPU  0 inst:   15000002 cyc:   12267650 now IPC :1.03973: AVG IPC :1.15189: L2-Pf-HR :0.84831: L2-HR :0.80518: (Sim:0h11m49s) 
CPU  2 inst:   15000002 cyc:   12368880 now IPC :1.02284: AVG IPC :1.14166: L2-Pf-HR :0.85983: L2-HR :0.80813: (Sim:0h11m53s) 
CPU  3 inst:   15000002 cyc:   12452816 now IPC :1.09784: AVG IPC :1.13335: L2-Pf-HR :0.85480: L2-HR :0.80559: (Sim:0h11m58s) 
CPU  1 inst:   16000000 cyc:   13121812 now IPC :1.01445: AVG IPC :1.15320: L2-Pf-HR :0.85961: L2-HR :0.81061: (Sim:0h12m34s) 
CPU  0 inst:   16000000 cyc:   13211922 now IPC :1.05901: AVG IPC :1.14472: L2-Pf-HR :0.84922: L2-HR :0.80549: (Sim:0h12m39s) 
CPU  2 inst:   16000000 cyc:   13327823 now IPC :1.04281: AVG IPC :1.13398: L2-Pf-HR :0.86025: L2-HR :0.80820: (Sim:0h12m46s) 
CPU  3 inst:   16000000 cyc:   13441624 now IPC :1.01132: AVG IPC :1.12366: L2-Pf-HR :0.85527: L2-HR :0.80553: (Sim:0h12m51s) 
CPU  1 inst:   17000000 cyc:   14422485 now IPC :0.76883: AVG IPC :1.11601: L2-Pf-HR :0.85412: L2-HR :0.80705: (Sim:0h13m21s) 
CPU  0 inst:   17000000 cyc:   14644938 now IPC :0.69783: AVG IPC :1.09784: L2-Pf-HR :0.84473: L2-HR :0.80247: (Sim:0h13m32s) 
CPU  2 inst:   17000000 cyc:   14717248 now IPC :0.71972: AVG IPC :1.09208: L2-Pf-HR :0.85550: L2-HR :0.80530: (Sim:0h13m36s) 
CPU  3 inst:   17000000 cyc:   14845844 now IPC :0.71214: AVG IPC :1.08198: L2-Pf-HR :0.85120: L2-HR :0.80304: (Sim:0h13m43s) 
CPU  1 inst:   18000000 cyc:   15344290 now IPC :1.08483: AVG IPC :1.11400: L2-Pf-HR :0.85691: L2-HR :0.81101: (Sim:0h14m10s) 
CPU  0 inst:   18000000 cyc:   15568799 now IPC :1.08241: AVG IPC :1.09687: L2-Pf-HR :0.84853: L2-HR :0.80666: (Sim:0h14m24s) 
CPU  2 inst:   18000000 cyc:   15708284 now IPC :1.00905: AVG IPC :1.08649: L2-Pf-HR :0.85884: L2-HR :0.80939: (Sim:0h14m31s) 
CPU  3 inst:   18000000 cyc:   15813247 now IPC :1.03370: AVG IPC :1.07883: L2-Pf-HR :0.85417: L2-HR :0.80692: (Sim:0h14m37s) 
CPU  1 inst:   19000000 cyc:   16319238 now IPC :1.02570: AVG IPC :1.10839: L2-Pf-HR :0.85848: L2-HR :0.81238: (Sim:0h15m6s) 
CPU  0 inst:   19000000 cyc:   16522957 now IPC :1.04804: AVG IPC :1.09387: L2-Pf-HR :0.85104: L2-HR :0.80877: (Sim:0h15m17s) 
CPU  2 inst:   19000000 cyc:   16669377 now IPC :1.04048: AVG IPC :1.08367: L2-Pf-HR :0.86192: L2-HR :0.81162: (Sim:0h15m25s) 
CPU  3 inst:   19000000 cyc:   16766104 now IPC :1.04948: AVG IPC :1.07706: L2-Pf-HR :0.85489: L2-HR :0.80834: (Sim:0h15m31s) 
CPU  1 inst:   20000000 cyc:   17306423 now IPC :1.01298: AVG IPC :1.10262: L2-Pf-HR :0.85888: L2-HR :0.81276: (Sim:0h16m1s) 
CPU  0 inst:   20000000 cyc:   17555505 now IPC :0.96848: AVG IPC :1.08606: L2-Pf-HR :0.85182: L2-HR :0.80890: (Sim:0h16m10s) 
CPU  2 inst:   20000000 cyc:   17644990 now IPC :1.02500: AVG IPC :1.08023: L2-Pf-HR :0.86294: L2-HR :0.81203: (Sim:0h16m13s) 
CPU  3 inst:   20000000 cyc:   17738796 now IPC :1.02807: AVG IPC :1.07421: L2-Pf-HR :0.85719: L2-HR :0.80981: (Sim:0h16m16s) 
CPU  1 inst:   21000002 cyc:   18572125 now IPC :0.79008: AVG IPC :1.08013: L2-Pf-HR :0.85469: L2-HR :0.80993: (Sim:0h16m44s) 
CPU  0 inst:   21000002 cyc:   18941346 now IPC :0.72158: AVG IPC :1.05793: L2-Pf-HR :0.84721: L2-HR :0.80598: (Sim:0h16m54s) 
CPU  2 inst:   21000001 cyc:   19064920 now IPC :0.70426: AVG IPC :1.05071: L2-Pf-HR :0.85910: L2-HR :0.80961: (Sim:0h16m58s) 
CPU  3 inst:   21000001 cyc:   19165666 now IPC :0.70084: AVG IPC :1.04491: L2-Pf-HR :0.85367: L2-HR :0.80744: (Sim:0h17m3s) 
CPU  1 inst:   22000004 cyc:   19652209 now IPC :0.92586: AVG IPC :1.07121: L2-Pf-HR :0.85590: L2-HR :0.81174: (Sim:0h17m20s) 
CPU  0 inst:   22000004 cyc:   19865764 now IPC :1.08176: AVG IPC :1.05910: L2-Pf-HR :0.84989: L2-HR :0.80883: (Sim:0h17m28s) 
CPU  2 inst:   22000004 cyc:   19981951 now IPC :1.09048: AVG IPC :1.05263: L2-Pf-HR :0.86119: L2-HR :0.81233: (Sim:0h17m32s) 
CPU  3 inst:   22000004 cyc:   20163668 now IPC :1.00200: AVG IPC :1.04268: L2-Pf-HR :0.85599: L2-HR :0.80976: (Sim:0h17m42s) 
CPU  1 inst:   23000004 cyc:   20556839 now IPC :1.10542: AVG IPC :1.07279: L2-Pf-HR :0.85893: L2-HR :0.81395: (Sim:0h18m5s) 
CPU  0 inst:   23000004 cyc:   20765839 now IPC :1.11102: AVG IPC :1.06146: L2-Pf-HR :0.85168: L2-HR :0.81069: (Sim:0h18m16s) 
CPU  2 inst:   23000004 cyc:   20886550 now IPC :1.10546: AVG IPC :1.05503: L2-Pf-HR :0.86258: L2-HR :0.81436: (Sim:0h18m22s) 
CPU  3 inst:   23000004 cyc:   21067564 now IPC :1.10632: AVG IPC :1.04555: L2-Pf-HR :0.85816: L2-HR :0.81167: (Sim:0h18m31s) 
CPU  1 inst:   24000003 cyc:   21553111 now IPC :1.00374: AVG IPC :1.06944: L2-Pf-HR :0.85951: L2-HR :0.81372: (Sim:0h18m59s) 
CPU  0 inst:   24000003 cyc:   21718495 now IPC :1.04970: AVG IPC :1.06092: L2-Pf-HR :0.85356: L2-HR :0.81137: (Sim:0h19m8s) 
CPU  2 inst:   24000003 cyc:   21838825 now IPC :1.05012: AVG IPC :1.05481: L2-Pf-HR :0.86416: L2-HR :0.81519: (Sim:0h19m14s) 
CPU  3 inst:   24000003 cyc:   22026577 now IPC :1.04274: AVG IPC :1.04542: L2-Pf-HR :0.86019: L2-HR :0.81247: (Sim:0h19m23s) 
CPU  1 inst:   25000004 cyc:   22797036 now IPC :0.80391: AVG IPC :1.05430: L2-Pf-HR :0.85491: L2-HR :0.81062: (Sim:0h19m57s) 
CPU  0 inst:   25000000 cyc:   22934952 now IPC :0.82206: AVG IPC :1.04768: L2-Pf-HR :0.84970: L2-HR :0.80872: (Sim:0h20m3s) 
CPU  2 inst:   25000000 cyc:   23161831 now IPC :0.75585: AVG IPC :1.03697: L2-Pf-HR :0.86013: L2-HR :0.81251: (Sim:0h20m12s) 
CPU  3 inst:   25000005 cyc:   23469550 now IPC :0.69302: AVG IPC :1.02281: L2-Pf-HR :0.85604: L2-HR :0.80974: (Sim:0h20m25s) 
CPU  1 inst:   26000002 cyc:   23939341 now IPC :0.87542: AVG IPC :1.04540: L2-Pf-HR :0.85636: L2-HR :0.81228: (Sim:0h20m50s) 
CPU  0 inst:   26000002 cyc:   24043970 now IPC :0.90170: AVG IPC :1.04066: L2-Pf-HR :0.85173: L2-HR :0.81097: (Sim:0h20m55s) 
CPU  2 inst:   26000002 cyc:   24166492 now IPC :0.99536: AVG IPC :1.03517: L2-Pf-HR :0.86154: L2-HR :0.81444: (Sim:0h21m2s) 
CPU  3 inst:   26000002 cyc:   24433326 now IPC :1.03758: AVG IPC :1.02341: L2-Pf-HR :0.85641: L2-HR :0.81119: (Sim:0h21m16s) 
CPU  1 inst:   27000005 cyc:   24878616 now IPC :1.06465: AVG IPC :1.04616: L2-Pf-HR :0.85763: L2-HR :0.81333: (Sim:0h21m43s) 
CPU  0 inst:   27000005 cyc:   24987130 now IPC :1.06027: AVG IPC :1.04143: L2-Pf-HR :0.85360: L2-HR :0.81252: (Sim:0h21m48s) 
CPU  2 inst:   27000005 cyc:   25092372 now IPC :1.08006: AVG IPC :1.03690: L2-Pf-HR :0.86275: L2-HR :0.81569: (Sim:0h21m54s) 
CPU  3 inst:   27000005 cyc:   25301889 now IPC :1.15133: AVG IPC :1.02798: L2-Pf-HR :0.85950: L2-HR :0.81337: (Sim:0h22m6s) 
CPU  1 inst:   28000003 cyc:   25802279 now IPC :1.08264: AVG IPC :1.04752: L2-Pf-HR :0.85894: L2-HR :0.81414: (Sim:0h22m34s) 
CPU  0 inst:   28000004 cyc:   25920838 now IPC :1.07100: AVG IPC :1.04254: L2-Pf-HR :0.85576: L2-HR :0.81361: (Sim:0h22m40s) 
CPU  2 inst:   28000004 cyc:   26029605 now IPC :1.06697: AVG IPC :1.03802: L2-Pf-HR :0.86473: L2-HR :0.81684: (Sim:0h22m46s) 
CPU  3 inst:   28000003 cyc:   26243793 now IPC :1.06168: AVG IPC :1.02924: L2-Pf-HR :0.86132: L2-HR :0.81427: (Sim:0h22m57s) 
CPU  1 inst:   29000004 cyc:   27053876 now IPC :0.79898: AVG IPC :1.03558: L2-Pf-HR :0.85447: L2-HR :0.81120: (Sim:0h23m34s) 
CPU  0 inst:   29000004 cyc:   27102659 now IPC :0.84615: AVG IPC :1.03365: L2-Pf-HR :0.85218: L2-HR :0.81116: (Sim:0h23m35s) 
CPU  2 inst:   29000004 cyc:   27316662 now IPC :0.77697: AVG IPC :1.02526: L2-Pf-HR :0.86114: L2-HR :0.81440: (Sim:0h23m44s) 
CPU  3 inst:   29000004 cyc:   27656860 now IPC :0.70768: AVG IPC :1.01220: L2-Pf-HR :0.85773: L2-HR :0.81189: (Sim:0h23m57s) 
CPU  1 inst:   30000000 cyc:   28206393 now IPC :0.86766: AVG IPC :1.02848: L2-Pf-HR :0.85553: L2-HR :0.81273: (Sim:0h24m26s) 
CPU  0 inst:   30000000 cyc:   28321385 now IPC :0.82053: AVG IPC :1.02415: L2-Pf-HR :0.85323: L2-HR :0.81252: (Sim:0h24m32s) 
CPU  2 inst:   30000000 cyc:   28459780 now IPC :0.87480: AVG IPC :1.01900: L2-Pf-HR :0.86174: L2-HR :0.81548: (Sim:0h24m39s) 
CPU  3 inst:   30000000 cyc:   28654646 now IPC :1.00221: AVG IPC :1.01184: L2-Pf-HR :0.85936: L2-HR :0.81362: (Sim:0h24m50s) 
CPU  1 inst:   31000004 cyc:   29179872 now IPC :1.02725: AVG IPC :1.02843: L2-Pf-HR :0.85765: L2-HR :0.81418: (Sim:0h25m15s) 
CPU  0 inst:   31000004 cyc:   29263080 now IPC :1.06192: AVG IPC :1.02541: L2-Pf-HR :0.85509: L2-HR :0.81430: (Sim:0h25m19s) 
CPU  2 inst:   31000004 cyc:   29344337 now IPC :1.13051: AVG IPC :1.02248: L2-Pf-HR :0.86408: L2-HR :0.81754: (Sim:0h25m24s) 
CPU  3 inst:   31000004 cyc:   29550803 now IPC :1.11588: AVG IPC :1.01511: L2-Pf-HR :0.86061: L2-HR :0.81460: (Sim:0h25m35s) 
CPU  1 inst:   32000002 cyc:   30173065 now IPC :1.00685: AVG IPC :1.02770: L2-Pf-HR :0.85866: L2-HR :0.81453: (Sim:0h26m10s) 
CPU  0 inst:   32000002 cyc:   30201077 now IPC :1.06610: AVG IPC :1.02672: L2-Pf-HR :0.85641: L2-HR :0.81553: (Sim:0h26m12s) 
CPU  2 inst:   32000002 cyc:   30327734 now IPC :1.01688: AVG IPC :1.02229: L2-Pf-HR :0.86543: L2-HR :0.81799: (Sim:0h26m19s) 
CPU  3 inst:   32000002 cyc:   30481854 now IPC :1.07405: AVG IPC :1.01697: L2-Pf-HR :0.86233: L2-HR :0.81556: (Sim:0h26m27s) 
CPU  1 inst:   33000000 cyc:   31435553 now IPC :0.79209: AVG IPC :1.01793: L2-Pf-HR :0.85667: L2-HR :0.81211: (Sim:0h27m10s) 
CPU  0 inst:   33000000 cyc:   31512019 now IPC :0.76281: AVG IPC :1.01539: L2-Pf-HR :0.85498: L2-HR :0.81340: (Sim:0h27m11s) 
CPU  2 inst:   33000000 cyc:   31558114 now IPC :0.81276: AVG IPC :1.01386: L2-Pf-HR :0.86397: L2-HR :0.81587: (Sim:0h27m12s) 
CPU  3 inst:   33000000 cyc:   31784617 now IPC :0.76760: AVG IPC :1.00642: L2-Pf-HR :0.86103: L2-HR :0.81355: (Sim:0h27m14s) 
CPU  1 inst:   34000000 cyc:   51397025 now IPC :0.05010: AVG IPC :0.63472: L2-Pf-HR :0.80246: L2-HR :0.75637: (Sim:0h37m15s) 
CPU  2 inst:   34000003 cyc:   51700511 now IPC :0.04965: AVG IPC :0.63093: L2-Pf-HR :0.80933: L2-HR :0.75920: (Sim:0h37m24s) 
CPU  0 inst:   34000000 cyc:   51725344 now IPC :0.04947: AVG IPC :0.63062: L2-Pf-HR :0.80128: L2-HR :0.75739: (Sim:0h37m25s) 
CPU  3 inst:   34000003 cyc:   53723510 now IPC :0.04558: AVG IPC :0.60674: L2-Pf-HR :0.80648: L2-HR :0.75737: (Sim:0h38m21s) 
CPU  1 inst:   35000002 cyc:   59654099 now IPC :0.12111: AVG IPC :0.56244: L2-Pf-HR :0.78018: L2-HR :0.74084: (Sim:0h40m45s) 
CPU  0 inst:   35000002 cyc:   59673839 now IPC :0.12581: AVG IPC :0.56225: L2-Pf-HR :0.77894: L2-HR :0.74181: (Sim:0h40m46s) 
CPU  2 inst:   35000002 cyc:   59692117 now IPC :0.12513: AVG IPC :0.56208: L2-Pf-HR :0.78656: L2-HR :0.74347: (Sim:0h40m46s) 
CPU  3 inst:   35000002 cyc:   59993943 now IPC :0.15948: AVG IPC :0.55921: L2-Pf-HR :0.78362: L2-HR :0.74177: (Sim:0h40m54s) 
CPU  1 inst:   36000001 cyc:   63446615 now IPC :0.26368: AVG IPC :0.54430: L2-Pf-HR :0.76450: L2-HR :0.73300: (Sim:0h42m21s) 
CPU  0 inst:   36000001 cyc:   63466881 now IPC :0.26364: AVG IPC :0.54412: L2-Pf-HR :0.76316: L2-HR :0.73397: (Sim:0h42m21s) 
CPU  2 inst:   36000001 cyc:   63485898 now IPC :0.26359: AVG IPC :0.54396: L2-Pf-HR :0.77049: L2-HR :0.73554: (Sim:0h42m22s) 
CPU  3 inst:   36000001 cyc:   63801172 now IPC :0.26266: AVG IPC :0.54124: L2-Pf-HR :0.76775: L2-HR :0.73389: (Sim:0h42m30s) 
CPU  1 inst:   37000001 cyc:   67186449 now IPC :0.26739: AVG IPC :0.52866: L2-Pf-HR :0.74931: L2-HR :0.72543: (Sim:0h43m56s) 
CPU  0 inst:   37000001 cyc:   67211460 now IPC :0.26705: AVG IPC :0.52846: L2-Pf-HR :0.74802: L2-HR :0.72639: (Sim:0h43m56s) 
CPU  2 inst:   37000001 cyc:   67222161 now IPC :0.26765: AVG IPC :0.52838: L2-Pf-HR :0.75510: L2-HR :0.72790: (Sim:0h43m56s) 
CPU  3 inst:   37000001 cyc:   67531169 now IPC :0.26810: AVG IPC :0.52593: L2-Pf-HR :0.75239: L2-HR :0.72628: (Sim:0h44m4s) 
CPU  1 inst:   38000000 cyc:   70815008 now IPC :0.27559: AVG IPC :0.51551: L2-Pf-HR :0.73458: L2-HR :0.71810: (Sim:0h45m27s) 
CPU  0 inst:   38000000 cyc:   70841138 now IPC :0.27551: AVG IPC :0.51532: L2-Pf-HR :0.73333: L2-HR :0.71903: (Sim:0h45m28s) 
CPU  2 inst:   38000000 cyc:   70851869 now IPC :0.27550: AVG IPC :0.51524: L2-Pf-HR :0.74020: L2-HR :0.72051: (Sim:0h45m28s) 
CPU  3 inst:   38000000 cyc:   71166668 now IPC :0.27507: AVG IPC :0.51294: L2-Pf-HR :0.73767: L2-HR :0.71895: (Sim:0h45m36s) 
CPU  1 inst:   39000000 cyc:   74440223 now IPC :0.27585: AVG IPC :0.50368: L2-Pf-HR :0.72045: L2-HR :0.71104: (Sim:0h46m59s) 
CPU  0 inst:   39000000 cyc:   74473137 now IPC :0.27533: AVG IPC :0.50346: L2-Pf-HR :0.71923: L2-HR :0.71197: (Sim:0h47m0s) 
CPU  2 inst:   39000000 cyc:   74475502 now IPC :0.27597: AVG IPC :0.50344: L2-Pf-HR :0.72588: L2-HR :0.71339: (Sim:0h47m0s) 
CPU  3 inst:   39000000 cyc:   74794100 now IPC :0.27568: AVG IPC :0.50128: L2-Pf-HR :0.72341: L2-HR :0.71186: (Sim:0h47m8s) 
CPU  1 inst:   40000003 cyc:   78064624 now IPC :0.27591: AVG IPC :0.49297: L2-Pf-HR :0.70682: L2-HR :0.70423: (Sim:0h48m30s) 
CPU  0 inst:   40000003 cyc:   78100531 now IPC :0.27568: AVG IPC :0.49274: L2-Pf-HR :0.70569: L2-HR :0.70516: (Sim:0h48m31s) 
CPU  2 inst:   40000003 cyc:   78101342 now IPC :0.27580: AVG IPC :0.49274: L2-Pf-HR :0.71204: L2-HR :0.70651: (Sim:0h48m31s) 
CPU  3 inst:   40000003 cyc:   78421210 now IPC :0.27570: AVG IPC :0.49071: L2-Pf-HR :0.70974: L2-HR :0.70505: (Sim:0h48m39s) 
CPU  1 inst:   41000001 cyc:   81700422 now IPC :0.27504: AVG IPC :0.48315: L2-Pf-HR :0.69376: L2-HR :0.69768: (Sim:0h50m2s) 
CPU  2 inst:   41000001 cyc:   81738185 now IPC :0.27496: AVG IPC :0.48293: L2-Pf-HR :0.69881: L2-HR :0.69991: (Sim:0h50m3s) 
CPU  0 inst:   41000001 cyc:   81741396 now IPC :0.27466: AVG IPC :0.48291: L2-Pf-HR :0.69266: L2-HR :0.69860: (Sim:0h50m3s) 
CPU  3 inst:   41000001 cyc:   82058859 now IPC :0.27490: AVG IPC :0.48103: L2-Pf-HR :0.69661: L2-HR :0.69849: (Sim:0h50m11s) 
CPU  1 inst:   42000001 cyc:   85342681 now IPC :0.27455: AVG IPC :0.47415: L2-Pf-HR :0.68122: L2-HR :0.69138: (Sim:0h51m34s) 
CPU  0 inst:   42000001 cyc:   85376954 now IPC :0.27506: AVG IPC :0.47396: L2-Pf-HR :0.68010: L2-HR :0.69227: (Sim:0h51m35s) 
CPU  2 inst:   42000001 cyc:   85378766 now IPC :0.27468: AVG IPC :0.47395: L2-Pf-HR :0.68608: L2-HR :0.69354: (Sim:0h51m35s) 
CPU  3 inst:   42000001 cyc:   85694296 now IPC :0.27507: AVG IPC :0.47219: L2-Pf-HR :0.68396: L2-HR :0.69214: (Sim:0h51m43s) 
CPU  1 inst:   43000002 cyc:   88962241 now IPC :0.27628: AVG IPC :0.46601: L2-Pf-HR :0.66905: L2-HR :0.68525: (Sim:0h53m6s) 
CPU  2 inst:   43000002 cyc:   88998063 now IPC :0.27630: AVG IPC :0.46582: L2-Pf-HR :0.67377: L2-HR :0.68736: (Sim:0h53m6s) 
CPU  0 inst:   43000002 cyc:   89001029 now IPC :0.27593: AVG IPC :0.46580: L2-Pf-HR :0.66799: L2-HR :0.68614: (Sim:0h53m6s) 
CPU  3 inst:   43000002 cyc:   89319935 now IPC :0.27581: AVG IPC :0.46413: L2-Pf-HR :0.67171: L2-HR :0.68600: (Sim:0h53m15s) 
CPU  1 inst:   44000001 cyc:   92575882 now IPC :0.27673: AVG IPC :0.45854: L2-Pf-HR :0.65727: L2-HR :0.67932: (Sim:0h54m50s) 
CPU  2 inst:   44000001 cyc:   92611492 now IPC :0.27675: AVG IPC :0.45836: L2-Pf-HR :0.66185: L2-HR :0.68138: (Sim:0h54m51s) 
CPU  0 inst:   44000001 cyc:   92614633 now IPC :0.27673: AVG IPC :0.45835: L2-Pf-HR :0.65625: L2-HR :0.68019: (Sim:0h54m51s) 
CPU  3 inst:   44000001 cyc:   92933124 now IPC :0.27676: AVG IPC :0.45677: L2-Pf-HR :0.65988: L2-HR :0.68005: (Sim:0h55m0s) 
CPU  1 inst:   45000001 cyc:   96195923 now IPC :0.27624: AVG IPC :0.45161: L2-Pf-HR :0.64598: L2-HR :0.67361: (Sim:0h56m33s) 
CPU  2 inst:   45000001 cyc:   96231559 now IPC :0.27624: AVG IPC :0.45144: L2-Pf-HR :0.65042: L2-HR :0.67563: (Sim:0h56m34s) 
CPU  0 inst:   45000001 cyc:   96234517 now IPC :0.27625: AVG IPC :0.45143: L2-Pf-HR :0.64494: L2-HR :0.67446: (Sim:0h56m35s) 
CPU  3 inst:   45000001 cyc:   96554146 now IPC :0.27617: AVG IPC :0.44992: L2-Pf-HR :0.64848: L2-HR :0.67432: (Sim:0h56m44s) 
CPU  1 inst:   46000000 cyc:   99809914 now IPC :0.27670: AVG IPC :0.44521: L2-Pf-HR :0.63501: L2-HR :0.66807: (Sim:0h58m16s) 
CPU  2 inst:   46000000 cyc:   99845425 now IPC :0.27671: AVG IPC :0.44506: L2-Pf-HR :0.63932: L2-HR :0.67003: (Sim:0h58m17s) 
CPU  0 inst:   46000000 cyc:   99848393 now IPC :0.27671: AVG IPC :0.44504: L2-Pf-HR :0.63403: L2-HR :0.66891: (Sim:0h58m17s) 
CPU  3 inst:   46000000 cyc:  100167110 now IPC :0.27678: AVG IPC :0.44362: L2-Pf-HR :0.63745: L2-HR :0.66876: (Sim:0h58m26s) 
CPU  1 inst:   47000000 cyc:  103424870 now IPC :0.27663: AVG IPC :0.43926: L2-Pf-HR :0.62440: L2-HR :0.66270: (Sim:0h59m59s) 
CPU  2 inst:   47000000 cyc:  103459784 now IPC :0.27667: AVG IPC :0.43912: L2-Pf-HR :0.62860: L2-HR :0.66462: (Sim:1h0m0s) 
CPU  0 inst:   47000000 cyc:  103463179 now IPC :0.27664: AVG IPC :0.43910: L2-Pf-HR :0.62346: L2-HR :0.66353: (Sim:1h0m0s) 
CPU  3 inst:   47000000 cyc:  103782506 now IPC :0.27659: AVG IPC :0.43774: L2-Pf-HR :0.62681: L2-HR :0.66339: (Sim:1h0m9s) 
CPU  1 inst:   48000000 cyc:  107047206 now IPC :0.27606: AVG IPC :0.43369: L2-Pf-HR :0.61423: L2-HR :0.65753: (Sim:1h1m42s) 
CPU  2 inst:   48000000 cyc:  107093139 now IPC :0.27523: AVG IPC :0.43350: L2-Pf-HR :0.61833: L2-HR :0.65942: (Sim:1h1m44s) 
CPU  0 inst:   48000000 cyc:  107100028 now IPC :0.27496: AVG IPC :0.43348: L2-Pf-HR :0.61331: L2-HR :0.65836: (Sim:1h1m44s) 
CPU  3 inst:   48000000 cyc:  107409442 now IPC :0.27571: AVG IPC :0.43222: L2-Pf-HR :0.61661: L2-HR :0.65822: (Sim:1h1m53s) 
CPU  1 inst:   49000000 cyc:  110681733 now IPC :0.27514: AVG IPC :0.42844: L2-Pf-HR :0.60444: L2-HR :0.65254: (Sim:1h3m25s) 
CPU  2 inst:   49000000 cyc:  110737308 now IPC :0.27441: AVG IPC :0.42822: L2-Pf-HR :0.60840: L2-HR :0.65439: (Sim:1h3m27s) 
CPU  0 inst:   49000000 cyc:  110742817 now IPC :0.27451: AVG IPC :0.42820: L2-Pf-HR :0.60355: L2-HR :0.65337: (Sim:1h3m27s) 
CPU  3 inst:   49000000 cyc:  111043910 now IPC :0.27514: AVG IPC :0.42703: L2-Pf-HR :0.60677: L2-HR :0.65323: (Sim:1h3m35s) 
CPU  1 inst:   50000003 cyc:  114316454 now IPC :0.27513: AVG IPC :0.42352: L2-Pf-HR :0.59500: L2-HR :0.64771: (Sim:1h5m8s) 
CPU  2 inst:   50000003 cyc:  114372339 now IPC :0.27510: AVG IPC :0.42331: L2-Pf-HR :0.59875: L2-HR :0.64949: (Sim:1h5m10s) 
CPU  0 inst:   50000003 cyc:  114382049 now IPC :0.27478: AVG IPC :0.42328: L2-Pf-HR :0.59404: L2-HR :0.64851: (Sim:1h5m10s) 
CPU  3 inst:   50000003 cyc:  114683319 now IPC :0.27477: AVG IPC :0.42216: L2-Pf-HR :0.59725: L2-HR :0.64839: (Sim:1h5m18s) 
CPU  1 inst:   51000000 cyc:  116442159 now IPC :0.47043: AVG IPC :0.42438: L2-Pf-HR :0.59929: L2-HR :0.65308: (Sim:1h6m18s) 
CPU  2 inst:   51000000 cyc:  116507722 now IPC :0.46830: AVG IPC :0.42415: L2-Pf-HR :0.60301: L2-HR :0.65478: (Sim:1h6m23s) 
CPU  0 inst:   51000000 cyc:  116617793 now IPC :0.44728: AVG IPC :0.42374: L2-Pf-HR :0.59832: L2-HR :0.65379: (Sim:1h6m30s) 
CPU  3 inst:   51000000 cyc:  116916494 now IPC :0.44779: AVG IPC :0.42265: L2-Pf-HR :0.60137: L2-HR :0.65371: (Sim:1h6m51s) 
CPU  1 inst:   52000003 cyc:  117345700 now IPC :1.10676: AVG IPC :0.42968: L2-Pf-HR :0.61086: L2-HR :0.66456: (Sim:1h7m20s) 
CPU  2 inst:   52000003 cyc:  117371308 now IPC :1.15797: AVG IPC :0.42959: L2-Pf-HR :0.61446: L2-HR :0.66623: (Sim:1h7m22s) 
CPU  0 inst:   52000003 cyc:  117545413 now IPC :1.07803: AVG IPC :0.42895: L2-Pf-HR :0.60988: L2-HR :0.66524: (Sim:1h7m35s) 
CPU  3 inst:   52000003 cyc:  117718384 now IPC :1.24706: AVG IPC :0.42832: L2-Pf-HR :0.61292: L2-HR :0.66521: (Sim:1h7m47s) 
CPU  1 inst:   53000002 cyc:  118199475 now IPC :1.17127: AVG IPC :0.43508: L2-Pf-HR :0.62123: L2-HR :0.67481: (Sim:1h8m17s) 
CPU  2 inst:   53000000 cyc:  118298288 now IPC :1.07877: AVG IPC :0.43472: L2-Pf-HR :0.62465: L2-HR :0.67643: (Sim:1h8m26s) 
CPU  0 inst:   53000000 cyc:  118455364 now IPC :1.09896: AVG IPC :0.43414: L2-Pf-HR :0.62027: L2-HR :0.67549: (Sim:1h8m37s) 
CPU  3 inst:   53000000 cyc:  118632105 now IPC :1.09442: AVG IPC :0.43349: L2-Pf-HR :0.62326: L2-HR :0.67551: (Sim:1h8m51s) 
CPU  1 inst:   54000001 cyc:  118959535 now IPC :1.31568: AVG IPC :0.44076: L2-Pf-HR :0.63154: L2-HR :0.68479: (Sim:1h9m17s) 
CPU  2 inst:   54000001 cyc:  118998745 now IPC :1.42764: AVG IPC :0.44061: L2-Pf-HR :0.63487: L2-HR :0.68638: (Sim:1h9m20s) 
CPU  0 inst:   54000001 cyc:  119149684 now IPC :1.44026: AVG IPC :0.44005: L2-Pf-HR :0.63050: L2-HR :0.68536: (Sim:1h9m34s) 
CPU  3 inst:   54000001 cyc:  119407522 now IPC :1.28963: AVG IPC :0.43910: L2-Pf-HR :0.63357: L2-HR :0.68549: (Sim:1h9m52s) 
CPU  1 inst:   55000004 cyc:  119904368 now IPC :1.05839: AVG IPC :0.44566: L2-Pf-HR :0.63992: L2-HR :0.69361: (Sim:1h10m22s) 
CPU  2 inst:   55000004 cyc:  119923918 now IPC :1.08088: AVG IPC :0.44559: L2-Pf-HR :0.64323: L2-HR :0.69521: (Sim:1h10m24s) 
CPU  0 inst:   55000004 cyc:  120105661 now IPC :1.04605: AVG IPC :0.44491: L2-Pf-HR :0.63893: L2-HR :0.69413: (Sim:1h10m37s) 
CPU  3 inst:   55000004 cyc:  120279768 now IPC :1.14647: AVG IPC :0.44427: L2-Pf-HR :0.64196: L2-HR :0.69434: (Sim:1h10m51s) 
CPU  1 inst:   56000004 cyc:  120644500 now IPC :1.35111: AVG IPC :0.45126: L2-Pf-HR :0.64843: L2-HR :0.70197: (Sim:1h11m18s) 
CPU  2 inst:   56000004 cyc:  120673137 now IPC :1.33472: AVG IPC :0.45116: L2-Pf-HR :0.65163: L2-HR :0.70355: (Sim:1h11m21s) 
CPU  0 inst:   56000004 cyc:  120860920 now IPC :1.32405: AVG IPC :0.45045: L2-Pf-HR :0.64736: L2-HR :0.70248: (Sim:1h11m36s) 
CPU  3 inst:   56000004 cyc:  121075862 now IPC :1.25613: AVG IPC :0.44965: L2-Pf-HR :0.65033: L2-HR :0.70269: (Sim:1h11m53s) 
CPU  1 inst:   57000002 cyc:  121526138 now IPC :1.13425: AVG IPC :0.45626: L2-Pf-HR :0.65529: L2-HR :0.70955: (Sim:1h12m24s) 
CPU  2 inst:   57000002 cyc:  121554301 now IPC :1.13486: AVG IPC :0.45616: L2-Pf-HR :0.65847: L2-HR :0.71114: (Sim:1h12m25s) 
CPU  0 inst:   57000002 cyc:  121713947 now IPC :1.17229: AVG IPC :0.45555: L2-Pf-HR :0.65424: L2-HR :0.71002: (Sim:1h12m37s) 
CPU  3 inst:   57000002 cyc:  121954837 now IPC :1.13769: AVG IPC :0.45465: L2-Pf-HR :0.65726: L2-HR :0.71033: (Sim:1h12m58s) 
CPU  1 inst:   58000005 cyc:  122267116 now IPC :1.34957: AVG IPC :0.46172: L2-Pf-HR :0.66295: L2-HR :0.71697: (Sim:1h13m25s) 
CPU  2 inst:   58000005 cyc:  122310048 now IPC :1.32320: AVG IPC :0.46156: L2-Pf-HR :0.66604: L2-HR :0.71852: (Sim:1h13m28s) 
CPU  0 inst:   58000005 cyc:  122461130 now IPC :1.33836: AVG IPC :0.46098: L2-Pf-HR :0.66203: L2-HR :0.71749: (Sim:1h13m41s) 
CPU  3 inst:   58000005 cyc:  122622370 now IPC :1.49806: AVG IPC :0.46037: L2-Pf-HR :0.66501: L2-HR :0.71780: (Sim:1h13m55s) 
CPU  1 inst:   59000003 cyc:  123063178 now IPC :1.25618: AVG IPC :0.46690: L2-Pf-HR :0.66959: L2-HR :0.72382: (Sim:1h14m27s) 
CPU  2 inst:   59000003 cyc:  123080542 now IPC :1.29787: AVG IPC :0.46683: L2-Pf-HR :0.67257: L2-HR :0.72531: (Sim:1h14m28s) 
CPU  0 inst:   59000003 cyc:  123278823 now IPC :1.22295: AVG IPC :0.46608: L2-Pf-HR :0.66878: L2-HR :0.72431: (Sim:1h14m44s) 
CPU  3 inst:   59000003 cyc:  123420549 now IPC :1.25285: AVG IPC :0.46554: L2-Pf-HR :0.67162: L2-HR :0.72463: (Sim:1h14m57s) 
CPU  1 inst:   60000005 cyc:  123736944 now IPC :1.48420: AVG IPC :0.47248: L2-Pf-HR :0.67601: L2-HR :0.73022: (Sim:1h15m25s) 
CPU  2 inst:   60000005 cyc:  123748085 now IPC :1.49803: AVG IPC :0.47244: L2-Pf-HR :0.67894: L2-HR :0.73168: (Sim:1h15m26s) 
CPU  0 inst:   60000005 cyc:  123919186 now IPC :1.56162: AVG IPC :0.47178: L2-Pf-HR :0.67526: L2-HR :0.73070: (Sim:1h15m41s) 
CPU  3 inst:   60000005 cyc:  124075230 now IPC :1.52746: AVG IPC :0.47119: L2-Pf-HR :0.67800: L2-HR :0.73100: (Sim:1h15m56s) 
CPU  2 inst:   61000004 cyc:  124488369 now IPC :1.35083: AVG IPC :0.47771: L2-Pf-HR :0.68390: L2-HR :0.73730: (Sim:1h16m28s) 
CPU  1 inst:   61000004 cyc:  124488521 now IPC :1.33053: AVG IPC :0.47770: L2-Pf-HR :0.68099: L2-HR :0.73587: (Sim:1h16m28s) 
CPU  0 inst:   61000004 cyc:  124629534 now IPC :1.40776: AVG IPC :0.47716: L2-Pf-HR :0.68027: L2-HR :0.73633: (Sim:1h16m41s) 
CPU  3 inst:   61000001 cyc:  124785630 now IPC :1.40765: AVG IPC :0.47656: L2-Pf-HR :0.68291: L2-HR :0.73661: (Sim:1h16m55s) 
CPU  2 inst:   62000002 cyc:  125095134 now IPC :1.64808: AVG IPC :0.48343: L2-Pf-HR :0.68993: L2-HR :0.74314: (Sim:1h17m25s) 
CPU  1 inst:   62000002 cyc:  125130962 now IPC :1.55656: AVG IPC :0.48329: L2-Pf-HR :0.68702: L2-HR :0.74171: (Sim:1h17m28s) 
CPU  0 inst:   62000002 cyc:  125253332 now IPC :1.60308: AVG IPC :0.48281: L2-Pf-HR :0.68629: L2-HR :0.74214: (Sim:1h17m40s) 
CPU  3 inst:   62000002 cyc:  125376481 now IPC :1.69248: AVG IPC :0.48234: L2-Pf-HR :0.68895: L2-HR :0.74243: (Sim:1h17m52s) 
CPU  2 inst:   63000000 cyc:  125697030 now IPC :1.66141: AVG IPC :0.48911: L2-Pf-HR :0.69517: L2-HR :0.74846: (Sim:1h18m22s) 
CPU  1 inst:   63000000 cyc:  125741605 now IPC :1.63761: AVG IPC :0.48894: L2-Pf-HR :0.69232: L2-HR :0.74708: (Sim:1h18m26s) 
CPU  0 inst:   63000000 cyc:  125896083 now IPC :1.55581: AVG IPC :0.48833: L2-Pf-HR :0.69150: L2-HR :0.74745: (Sim:1h18m40s) 
CPU  3 inst:   63000000 cyc:  126028748 now IPC :1.53311: AVG IPC :0.48782: L2-Pf-HR :0.69414: L2-HR :0.74775: (Sim:1h18m50s) 
CPU  2 inst:   64000000 cyc:  126328576 now IPC :1.58342: AVG IPC :0.49463: L2-Pf-HR :0.70017: L2-HR :0.75347: (Sim:1h19m17s) 
CPU  1 inst:   64000000 cyc:  126416054 now IPC :1.48269: AVG IPC :0.49428: L2-Pf-HR :0.69738: L2-HR :0.75211: (Sim:1h19m25s) 
CPU  0 inst:   64000000 cyc:  126569860 now IPC :1.48417: AVG IPC :0.49367: L2-Pf-HR :0.69658: L2-HR :0.75246: (Sim:1h19m39s) 
CPU  3 inst:   64000000 cyc:  126678654 now IPC :1.53868: AVG IPC :0.49325: L2-Pf-HR :0.69918: L2-HR :0.75278: (Sim:1h19m49s) 
CPU  2 inst:   65000003 cyc:  127002827 now IPC :1.48313: AVG IPC :0.49992: L2-Pf-HR :0.70390: L2-HR :0.75780: (Sim:1h20m17s) 
CPU  1 inst:   65000003 cyc:  127050713 now IPC :1.57565: AVG IPC :0.49972: L2-Pf-HR :0.70119: L2-HR :0.75645: (Sim:1h20m22s) 
CPU  0 inst:   65000005 cyc:  127263493 now IPC :1.44169: AVG IPC :0.49888: L2-Pf-HR :0.70041: L2-HR :0.75680: (Sim:1h20m41s) 
CPU  3 inst:   65000003 cyc:  127379356 now IPC :1.42714: AVG IPC :0.49843: L2-Pf-HR :0.70295: L2-HR :0.75712: (Sim:1h20m51s) 
CPU  2 inst:   66000004 cyc:  127611303 now IPC :1.64345: AVG IPC :0.50541: L2-Pf-HR :0.70880: L2-HR :0.76254: (Sim:1h21m14s) 
CPU  1 inst:   66000004 cyc:  127642501 now IPC :1.68980: AVG IPC :0.50528: L2-Pf-HR :0.70616: L2-HR :0.76123: (Sim:1h21m17s) 
CPU  0 inst:   66000004 cyc:  127874310 now IPC :1.63715: AVG IPC :0.50436: L2-Pf-HR :0.70545: L2-HR :0.76161: (Sim:1h21m39s) 
CPU  3 inst:   66000004 cyc:  127970098 now IPC :1.69279: AVG IPC :0.50399: L2-Pf-HR :0.70784: L2-HR :0.76185: (Sim:1h21m49s) 
CPU  2 inst:   67000001 cyc:  128158807 now IPC :1.82647: AVG IPC :0.51110: L2-Pf-HR :0.71365: L2-HR :0.76722: (Sim:1h22m8s) 
CPU  1 inst:   67000001 cyc:  128227546 now IPC :1.70927: AVG IPC :0.51082: L2-Pf-HR :0.71115: L2-HR :0.76597: (Sim:1h22m14s) 
CPU  0 inst:   67000001 cyc:  128457278 now IPC :1.71535: AVG IPC :0.50990: L2-Pf-HR :0.71044: L2-HR :0.76635: (Sim:1h22m36s) 
CPU  3 inst:   67000001 cyc:  128552988 now IPC :1.71558: AVG IPC :0.50952: L2-Pf-HR :0.71274: L2-HR :0.76656: (Sim:1h22m44s) 
CPU  2 inst:   68000004 cyc:  128771765 now IPC :1.63144: AVG IPC :0.51647: L2-Pf-HR :0.71718: L2-HR :0.77099: (Sim:1h23m5s) 
CPU  1 inst:   68000004 cyc:  128862783 now IPC :1.57422: AVG IPC :0.51610: L2-Pf-HR :0.71474: L2-HR :0.76977: (Sim:1h23m13s) 
CPU  0 inst:   68000004 cyc:  129107206 now IPC :1.53864: AVG IPC :0.51512: L2-Pf-HR :0.71408: L2-HR :0.77014: (Sim:1h23m36s) 
CPU  3 inst:   68000004 cyc:  129159831 now IPC :1.64788: AVG IPC :0.51491: L2-Pf-HR :0.71629: L2-HR :0.77035: (Sim:1h23m41s) 
CPU  2 inst:   69000003 cyc:  129414125 now IPC :1.55676: AVG IPC :0.52167: L2-Pf-HR :0.72057: L2-HR :0.77470: (Sim:1h24m5s) 
CPU  1 inst:   69000003 cyc:  129517987 now IPC :1.52624: AVG IPC :0.52125: L2-Pf-HR :0.71817: L2-HR :0.77349: (Sim:1h24m14s) 
CPU  0 inst:   69000003 cyc:  129756298 now IPC :1.54061: AVG IPC :0.52029: L2-Pf-HR :0.71753: L2-HR :0.77385: (Sim:1h24m36s) 
CPU  3 inst:   69000003 cyc:  129781683 now IPC :1.60810: AVG IPC :0.52019: L2-Pf-HR :0.71968: L2-HR :0.77408: (Sim:1h24m38s) 
CPU  2 inst:   70000002 cyc:  130055641 now IPC :1.55881: AVG IPC :0.52683: L2-Pf-HR :0.72420: L2-HR :0.77837: (Sim:1h25m3s) 
CPU  1 inst:   70000000 cyc:  130117848 now IPC :1.66705: AVG IPC :0.52657: L2-Pf-HR :0.72189: L2-HR :0.77720: (Sim:1h25m9s) 
CPU  0 inst:   70000000 cyc:  130384594 now IPC :1.59160: AVG IPC :0.52549: L2-Pf-HR :0.72118: L2-HR :0.77752: (Sim:1h25m35s) 
CPU  3 inst:   70000000 cyc:  130407370 now IPC :1.59824: AVG IPC :0.52540: L2-Pf-HR :0.72328: L2-HR :0.77773: (Sim:1h25m38s) 
CPU  2 inst:   71000002 cyc:  130650808 now IPC :1.68020: AVG IPC :0.53212: L2-Pf-HR :0.72831: L2-HR :0.78225: (Sim:1h26m2s) 
CPU  1 inst:   71000002 cyc:  130665949 now IPC :1.82448: AVG IPC :0.53206: L2-Pf-HR :0.72604: L2-HR :0.78111: (Sim:1h26m4s) 
CPU  0 inst:   71000002 cyc:  130955864 now IPC :1.75049: AVG IPC :0.53087: L2-Pf-HR :0.72533: L2-HR :0.78137: (Sim:1h26m29s) 
CPU  3 inst:   71000002 cyc:  131014721 now IPC :1.64650: AVG IPC :0.53064: L2-Pf-HR :0.72732: L2-HR :0.78154: (Sim:1h26m34s) 
CPU  2 inst:   72000000 cyc:  131353746 now IPC :1.42260: AVG IPC :0.53692: L2-Pf-HR :0.73119: L2-HR :0.78539: (Sim:1h27m4s) 
CPU  1 inst:   72000000 cyc:  131372284 now IPC :1.41576: AVG IPC :0.53685: L2-Pf-HR :0.72901: L2-HR :0.78428: (Sim:1h27m6s) 
CPU  0 inst:   72000000 cyc:  131640618 now IPC :1.46038: AVG IPC :0.53574: L2-Pf-HR :0.72826: L2-HR :0.78452: (Sim:1h27m30s) 
CPU  3 inst:   72000000 cyc:  131655962 now IPC :1.55947: AVG IPC :0.53569: L2-Pf-HR :0.73023: L2-HR :0.78470: (Sim:1h27m31s) 
CPU  2 inst:   73000004 cyc:  131967667 now IPC :1.62888: AVG IPC :0.54204: L2-Pf-HR :0.73409: L2-HR :0.78845: (Sim:1h27m59s) 
CPU  1 inst:   73000004 cyc:  132047596 now IPC :1.48080: AVG IPC :0.54171: L2-Pf-HR :0.73196: L2-HR :0.78736: (Sim:1h28m7s) 
CPU  0 inst:   73000004 cyc:  132342687 now IPC :1.42437: AVG IPC :0.54049: L2-Pf-HR :0.73125: L2-HR :0.78759: (Sim:1h28m32s) 
CPU  3 inst:   73000004 cyc:  132353986 now IPC :1.43262: AVG IPC :0.54045: L2-Pf-HR :0.73318: L2-HR :0.78777: (Sim:1h28m33s) 
CPU  2 inst:   74000005 cyc:  132643295 now IPC :1.48011: AVG IPC :0.54686: L2-Pf-HR :0.73677: L2-HR :0.79140: (Sim:1h28m58s) 
CPU  1 inst:   74000005 cyc:  132658340 now IPC :1.63735: AVG IPC :0.54679: L2-Pf-HR :0.73473: L2-HR :0.79035: (Sim:1h29m0s) 
CPU  0 inst:   74000005 cyc:  133028069 now IPC :1.45904: AVG IPC :0.54526: L2-Pf-HR :0.73403: L2-HR :0.79057: (Sim:1h29m34s) 
CPU  3 inst:   74000005 cyc:  133032742 now IPC :1.47328: AVG IPC :0.54525: L2-Pf-HR :0.73587: L2-HR :0.79072: (Sim:1h29m35s) 
CPU  2 inst:   75000002 cyc:  133201966 now IPC :1.78996: AVG IPC :0.55211: L2-Pf-HR :0.74007: L2-HR :0.79451: (Sim:1h29m51s) 
CPU  1 inst:   75000002 cyc:  133291900 now IPC :1.57838: AVG IPC :0.55173: L2-Pf-HR :0.73813: L2-HR :0.79354: (Sim:1h29m59s) 
CPU  0 inst:   75000002 cyc:  133669466 now IPC :1.55909: AVG IPC :0.55016: L2-Pf-HR :0.73743: L2-HR :0.79373: (Sim:1h30m31s) 
CPU  3 inst:   75000002 cyc:  133675881 now IPC :1.55487: AVG IPC :0.55014: L2-Pf-HR :0.73912: L2-HR :0.79382: (Sim:1h30m31s) 
CPU  2 inst:   76000001 cyc:  133868679 now IPC :1.49989: AVG IPC :0.55686: L2-Pf-HR :0.74240: L2-HR :0.79712: (Sim:1h30m49s) 
CPU  1 inst:   76000001 cyc:  133965050 now IPC :1.48555: AVG IPC :0.55646: L2-Pf-HR :0.74046: L2-HR :0.79615: (Sim:1h30m56s) 
CPU  0 inst:   76000001 cyc:  134311919 now IPC :1.55653: AVG IPC :0.55501: L2-Pf-HR :0.73979: L2-HR :0.79636: (Sim:1h31m27s) 
CPU  3 inst:   76000001 cyc:  134345253 now IPC :1.49394: AVG IPC :0.55488: L2-Pf-HR :0.74148: L2-HR :0.79644: (Sim:1h31m30s) 
CPU  2 inst:   77000000 cyc:  134519369 now IPC :1.53683: AVG IPC :0.56164: L2-Pf-HR :0.74492: L2-HR :0.79969: (Sim:1h31m46s) 
CPU  1 inst:   77000000 cyc:  134643319 now IPC :1.47434: AVG IPC :0.56112: L2-Pf-HR :0.74299: L2-HR :0.79874: (Sim:1h31m57s) 
CPU  0 inst:   77000000 cyc:  134910966 now IPC :1.66932: AVG IPC :0.56000: L2-Pf-HR :0.74237: L2-HR :0.79895: (Sim:1h32m21s) 
CPU  3 inst:   77000000 cyc:  135004232 now IPC :1.51750: AVG IPC :0.55961: L2-Pf-HR :0.74401: L2-HR :0.79903: (Sim:1h32m29s) 
CPU  2 inst:   78000001 cyc:  135147443 now IPC :1.59217: AVG IPC :0.56646: L2-Pf-HR :0.74734: L2-HR :0.80231: (Sim:1h32m43s) 
CPU  1 inst:   78000001 cyc:  135281694 now IPC :1.56648: AVG IPC :0.56589: L2-Pf-HR :0.74546: L2-HR :0.80138: (Sim:1h32m55s) 
CPU  0 inst:   78000001 cyc:  135540330 now IPC :1.58891: AVG IPC :0.56481: L2-Pf-HR :0.74478: L2-HR :0.80154: (Sim:1h33m18s) 
CPU  3 inst:   78000001 cyc:  135653486 now IPC :1.54023: AVG IPC :0.56434: L2-Pf-HR :0.74641: L2-HR :0.80161: (Sim:1h33m29s) 
CPU  2 inst:   79000000 cyc:  135749945 now IPC :1.65974: AVG IPC :0.57135: L2-Pf-HR :0.75014: L2-HR :0.80495: (Sim:1h33m38s) 
CPU  1 inst:   79000000 cyc:  135897917 now IPC :1.62279: AVG IPC :0.57072: L2-Pf-HR :0.74834: L2-HR :0.80406: (Sim:1h33m53s) 
CPU  0 inst:   79000000 cyc:  136156208 now IPC :1.62370: AVG IPC :0.56963: L2-Pf-HR :0.74773: L2-HR :0.80425: (Sim:1h34m8s) 
CPU  3 inst:   79000000 cyc:  136263802 now IPC :1.63849: AVG IPC :0.56918: L2-Pf-HR :0.74928: L2-HR :0.80429: (Sim:1h34m15s) 
CPU  2 inst:   80000002 cyc:  136359475 now IPC :1.64061: AVG IPC :0.57616: L2-Pf-HR :0.75203: L2-HR :0.80713: (Sim:1h34m23s) 
Finished CPU 2 instr: 78000000 cyc: 135377270 AVG IPC: 0.57617 (Sim time: 1h34m23s)
CPU  1 inst:   80000002 cyc:  136565962 now IPC :1.49691: AVG IPC :0.57529: L2-Pf-HR :0.75026: L2-HR :0.80625: (Sim:1h34m39s) 
Finished CPU 1 instr: 78000004 cyc: 135583928 AVG IPC: 0.57529 (Sim time: 1h34m39s)
CPU  0 inst:   80000002 cyc:  136845752 now IPC :1.45024: AVG IPC :0.57410: L2-Pf-HR :0.74962: L2-HR :0.80643: (Sim:1h34m56s) 
Finished CPU 0 instr: 78000001 cyc: 135863710 AVG IPC: 0.57410 (Sim time: 1h34m56s)
CPU  3 inst:   80000004 cyc:  136966125 now IPC :1.42385: AVG IPC :0.57360: L2-Pf-HR :0.75123: L2-HR :0.80651: (Sim:1h35m7s) 
Finished CPU 3 instr: 78000003 cyc: 135983757 AVG IPC: 0.57360 (Sim time: 1h35m7s)

ChampSim completed all CPUs

Total Simulation Statistics (not including warmup)

CPU 0 cumulative IPC: 0.57492 instructions: 78180019 cycles: 135983757
Core_0_L1D_total_access 23333589
Core_0_L1D_total_hit 20383122
Core_0_L1D_total_miss 2950467
Core_0_L1D_loads 19639457
Core_0_L1D_load_hit 17977459
Core_0_L1D_load_miss 1661998
Core_0_L1D_RFOs 2192150
Core_0_L1D_RFO_hit 2121452
Core_0_L1D_RFO_miss 70698
Core_0_L1D_prefetches 1501982
Core_0_L1D_prefetch_hit 284211
Core_0_L1D_prefetch_miss 1217771
Core_0_L1D_writebacks 0
Core_0_L1D_writeback_hit 0
Core_0_L1D_writeback_miss 0

Core_0_L1I_total_access 11192442
Core_0_L1I_total_hit 11187533
Core_0_L1I_total_miss 4909
Core_0_L1I_loads 11192442
Core_0_L1I_load_hit 11187533
Core_0_L1I_load_miss 4909
Core_0_L1I_RFOs 0
Core_0_L1I_RFO_hit 0
Core_0_L1I_RFO_miss 0
Core_0_L1I_prefetches 0
Core_0_L1I_prefetch_hit 0
Core_0_L1I_prefetch_miss 0
Core_0_L1I_writebacks 0
Core_0_L1I_writeback_hit 0
Core_0_L1I_writeback_miss 0

Core_0_L2C_total_access 3756610
Core_0_L2C_total_hit 3031188
Core_0_L2C_total_miss 725422
Core_0_L2C_loads 1463526
Core_0_L2C_load_hit 1240935
Core_0_L2C_load_miss 222591
Core_0_L2C_RFOs 70681
Core_0_L2C_RFO_hit 335
Core_0_L2C_RFO_miss 70346
Core_0_L2C_prefetches 1730628
Core_0_L2C_prefetch_hit 1298216
Core_0_L2C_prefetch_miss 432412
Core_0_L2C_writebacks 491775
Core_0_L2C_writeback_hit 491702
Core_0_L2C_writeback_miss 73

[Bingo] PHT Access: 397740
[Bingo] PHT Hit PC+Addr: 91206
[Bingo] PHT Hit PC+Offs: 259159
[Bingo] PHT Miss: 47375
[Bingo] Prefetch PC+Addr: 0
[Bingo] Prefetch PC+Offs: 0
[Bingo] Useful PC+Addr: 0
[Bingo] Useful PC+Offs: 0
[Bingo] Useless PC+Addr: 0
[Bingo] Useless PC+Offs: 0
[Bingo] L1 Prefetch per Region: 8.32692
[Bingo] L2 Prefetch per Region: 0.37142
[Bingo] L3 Prefetch per Region: 0.00000
[Bingo] No Prefetch per Region: 23.30166
[Bingo] Number of Voters Mean: 9.06584
[Bingo] Number of Voters SD: 5.54809
PHT read accesses: 5711450
PHT write accesses: 379404
AT read accesses: 19235012
AT write accesses: 19235035
FT read accesses: 4044897
FT write accesses: 397740
PS read accesses: 1899955
PS write accesses: 350365
PHT tag read accesses: 16880823
PHT tag write accesses: 470610
AT tag read accesses: 536818820
AT tag write accesses: 19614439
FT tag read accesses: 240948435
FT tag write accesses: 2618938
PS tag read accesses: 342873959
PS tag write accesses: 2243437
[Bingo2] PHT Access: 104225
[Bingo2] PHT Hit PC+Addr: 2983
[Bingo2] PHT Hit PC+Offs: 78388
[Bingo2] PHT Miss: 22854
[Bingo2] Prefetch PC+Addr: 0
[Bingo2] Prefetch PC+Offs: 0
[Bingo2] Useful PC+Addr: 0
[Bingo2] Useful PC+Offs: 0
[Bingo2] Useless PC+Addr: 0
[Bingo2] Useless PC+Offs: 0
[Bingo2] L1 Prefetch per Region: 0.00000
[Bingo2] L2 Prefetch per Region: 8.94095
[Bingo2] L3 Prefetch per Region: 0.00000
[Bingo2] No Prefetch per Region: 23.05905
[Bingo2] Number of Voters Mean: 12.26990
[Bingo2] Number of Voters SD: 5.18691
PHT read accesses: 1589702
PHT write accesses: 74203
AT read accesses: 1375160
AT write accesses: 1449064
FT read accesses: 225042
FT write accesses: 104225
PS read accesses: 208820
PS write accesses: 81371
PHT tag read accesses: 3980258
PHT tag write accesses: 77186
AT tag read accesses: 73536202
AT tag write accesses: 1449491
FT tag read accesses: 53042014
FT tag write accesses: 254075
PS tag read accesses: 26520397
PS tag write accesses: 286954
Core_0_LLC_total_access 1148550
Core_0_LLC_total_hit 440585
Core_0_LLC_total_miss 707965
Core_0_LLC_loads 139846
Core_0_LLC_load_hit 7262
Core_0_LLC_load_miss 132584
Core_0_LLC_RFOs 70346
Core_0_LLC_RFO_hit 116
Core_0_LLC_RFO_miss 70230
Core_0_LLC_prefetches 515149
Core_0_LLC_prefetch_hit 17085
Core_0_LLC_prefetch_miss 498064
Core_0_LLC_writebacks 423209
Core_0_LLC_writeback_hit 416122
Core_0_LLC_writeback_miss 7087


CPU 1 cumulative IPC: 0.57776 instructions: 78565515 cycles: 135983757
Core_1_L1D_total_access 23452429
Core_1_L1D_total_hit 20476848
Core_1_L1D_total_miss 2975581
Core_1_L1D_loads 19746386
Core_1_L1D_load_hit 18069384
Core_1_L1D_load_miss 1677002
Core_1_L1D_RFOs 2191768
Core_1_L1D_RFO_hit 2120869
Core_1_L1D_RFO_miss 70899
Core_1_L1D_prefetches 1514275
Core_1_L1D_prefetch_hit 286595
Core_1_L1D_prefetch_miss 1227680
Core_1_L1D_writebacks 0
Core_1_L1D_writeback_hit 0
Core_1_L1D_writeback_miss 0

Core_1_L1I_total_access 11231977
Core_1_L1I_total_hit 11227061
Core_1_L1I_total_miss 4916
Core_1_L1I_loads 11231977
Core_1_L1I_load_hit 11227061
Core_1_L1I_load_miss 4916
Core_1_L1I_RFOs 0
Core_1_L1I_RFO_hit 0
Core_1_L1I_RFO_miss 0
Core_1_L1I_prefetches 0
Core_1_L1I_prefetch_hit 0
Core_1_L1I_prefetch_miss 0
Core_1_L1I_writebacks 0
Core_1_L1I_writeback_hit 0
Core_1_L1I_writeback_miss 0

Core_1_L2C_total_access 3783921
Core_1_L2C_total_hit 3055945
Core_1_L2C_total_miss 727976
Core_1_L2C_loads 1476857
Core_1_L2C_load_hit 1252486
Core_1_L2C_load_miss 224371
Core_1_L2C_RFOs 70887
Core_1_L2C_RFO_hit 390
Core_1_L2C_RFO_miss 70497
Core_1_L2C_prefetches 1743999
Core_1_L2C_prefetch_hit 1310949
Core_1_L2C_prefetch_miss 433050
Core_1_L2C_writebacks 492178
Core_1_L2C_writeback_hit 492120
Core_1_L2C_writeback_miss 58

[Bingo] PHT Access: 394526
[Bingo] PHT Hit PC+Addr: 91828
[Bingo] PHT Hit PC+Offs: 255909
[Bingo] PHT Miss: 46789
[Bingo] Prefetch PC+Addr: 0
[Bingo] Prefetch PC+Offs: 0
[Bingo] Useful PC+Addr: 0
[Bingo] Useful PC+Offs: 0
[Bingo] Useless PC+Addr: 0
[Bingo] Useless PC+Offs: 0
[Bingo] L1 Prefetch per Region: 8.35304
[Bingo] L2 Prefetch per Region: 0.38087
[Bingo] L3 Prefetch per Region: 0.00000
[Bingo] No Prefetch per Region: 23.26609
[Bingo] Number of Voters Mean: 8.93274
[Bingo] Number of Voters SD: 5.93223
PHT read accesses: 5674486
PHT write accesses: 376293
AT read accesses: 18653183
AT write accesses: 18653179
FT read accesses: 4026580
FT write accesses: 394526
PS read accesses: 1895940
PS write accesses: 347737
PHT tag read accesses: 16733226
PHT tag write accesses: 468121
AT tag read accesses: 524746735
AT tag write accesses: 19029472
FT tag read accesses: 238103187
FT tag write accesses: 2605012
PS tag read accesses: 333396791
PS tag write accesses: 2236692
[Bingo2] PHT Access: 97235
[Bingo2] PHT Hit PC+Addr: 2685
[Bingo2] PHT Hit PC+Offs: 76789
[Bingo2] PHT Miss: 17761
[Bingo2] Prefetch PC+Addr: 0
[Bingo2] Prefetch PC+Offs: 0
[Bingo2] Useful PC+Addr: 0
[Bingo2] Useful PC+Offs: 0
[Bingo2] Useless PC+Addr: 0
[Bingo2] Useless PC+Offs: 0
[Bingo2] L1 Prefetch per Region: 0.00000
[Bingo2] L2 Prefetch per Region: 9.05857
[Bingo2] L3 Prefetch per Region: 0.00000
[Bingo2] No Prefetch per Region: 22.94143
[Bingo2] Number of Voters Mean: 12.30806
[Bingo2] Number of Voters SD: 5.15769
PHT read accesses: 1527043
PHT write accesses: 71886
AT read accesses: 1379139
AT write accesses: 1450629
FT read accesses: 217777
FT write accesses: 97235
PS read accesses: 204743
PS write accesses: 79474
PHT tag read accesses: 3806579
PHT tag write accesses: 74571
AT tag read accesses: 73141654
AT tag write accesses: 1451028
FT tag read accesses: 52418341
FT tag write accesses: 242238
PS tag read accesses: 26400824
PS tag write accesses: 281451
Core_1_LLC_total_access 1152181
Core_1_LLC_total_hit 442333
Core_1_LLC_total_miss 709848
Core_1_LLC_loads 141880
Core_1_LLC_load_hit 7636
Core_1_LLC_load_miss 134244
Core_1_LLC_RFOs 70497
Core_1_LLC_RFO_hit 72
Core_1_LLC_RFO_miss 70425
Core_1_LLC_prefetches 515536
Core_1_LLC_prefetch_hit 17411
Core_1_LLC_prefetch_miss 498125
Core_1_LLC_writebacks 424268
Core_1_LLC_writeback_hit 417214
Core_1_LLC_writeback_miss 7054


CPU 2 cumulative IPC: 0.58054 instructions: 78944280 cycles: 135983757
Core_2_L1D_total_access 23571763
Core_2_L1D_total_hit 20570559
Core_2_L1D_total_miss 3001204
Core_2_L1D_loads 19852078
Core_2_L1D_load_hit 18158832
Core_2_L1D_load_miss 1693246
Core_2_L1D_RFOs 2193677
Core_2_L1D_RFO_hit 2123025
Core_2_L1D_RFO_miss 70652
Core_2_L1D_prefetches 1526008
Core_2_L1D_prefetch_hit 288702
Core_2_L1D_prefetch_miss 1237306
Core_2_L1D_writebacks 0
Core_2_L1D_writeback_hit 0
Core_2_L1D_writeback_miss 0

Core_2_L1I_total_access 11270022
Core_2_L1I_total_hit 11265111
Core_2_L1I_total_miss 4911
Core_2_L1I_loads 11270022
Core_2_L1I_load_hit 11265111
Core_2_L1I_load_miss 4911
Core_2_L1I_RFOs 0
Core_2_L1I_RFO_hit 0
Core_2_L1I_RFO_miss 0
Core_2_L1I_prefetches 0
Core_2_L1I_prefetch_hit 0
Core_2_L1I_prefetch_miss 0
Core_2_L1I_writebacks 0
Core_2_L1I_writeback_hit 0
Core_2_L1I_writeback_miss 0

Core_2_L2C_total_access 3809266
Core_2_L2C_total_hit 3083106
Core_2_L2C_total_miss 726160
Core_2_L2C_loads 1491450
Core_2_L2C_load_hit 1266625
Core_2_L2C_load_miss 224825
Core_2_L2C_RFOs 70638
Core_2_L2C_RFO_hit 353
Core_2_L2C_RFO_miss 70285
Core_2_L2C_prefetches 1754603
Core_2_L2C_prefetch_hit 1323632
Core_2_L2C_prefetch_miss 430971
Core_2_L2C_writebacks 492575
Core_2_L2C_writeback_hit 492496
Core_2_L2C_writeback_miss 79

[Bingo] PHT Access: 404697
[Bingo] PHT Hit PC+Addr: 92439
[Bingo] PHT Hit PC+Offs: 264212
[Bingo] PHT Miss: 48046
[Bingo] Prefetch PC+Addr: 0
[Bingo] Prefetch PC+Offs: 0
[Bingo] Useful PC+Addr: 0
[Bingo] Useful PC+Offs: 0
[Bingo] Useless PC+Addr: 0
[Bingo] Useless PC+Offs: 0
[Bingo] L1 Prefetch per Region: 8.31541
[Bingo] L2 Prefetch per Region: 0.38014
[Bingo] L3 Prefetch per Region: 0.00000
[Bingo] No Prefetch per Region: 23.30446
[Bingo] Number of Voters Mean: 9.03968
[Bingo] Number of Voters SD: 5.54571
PHT read accesses: 5820428
PHT write accesses: 386027
AT read accesses: 19452293
AT write accesses: 19452319
FT read accesses: 4069607
FT write accesses: 404697
PS read accesses: 1936515
PS write accesses: 356651
PHT tag read accesses: 17198702
PHT tag write accesses: 478466
AT tag read accesses: 540563081
AT tag write accesses: 19838346
FT tag read accesses: 241429928
FT tag write accesses: 2641731
PS tag read accesses: 346619234
PS tag write accesses: 2286100
[Bingo2] PHT Access: 104291
[Bingo2] PHT Hit PC+Addr: 2843
[Bingo2] PHT Hit PC+Offs: 79045
[Bingo2] PHT Miss: 22403
[Bingo2] Prefetch PC+Addr: 0
[Bingo2] Prefetch PC+Offs: 0
[Bingo2] Useful PC+Addr: 0
[Bingo2] Useful PC+Offs: 0
[Bingo2] Useless PC+Addr: 0
[Bingo2] Useless PC+Offs: 0
[Bingo2] L1 Prefetch per Region: 0.00000
[Bingo2] L2 Prefetch per Region: 8.82007
[Bingo2] L3 Prefetch per Region: 0.00000
[Bingo2] No Prefetch per Region: 23.17993
[Bingo2] Number of Voters Mean: 12.05799
[Bingo2] Number of Voters SD: 5.29921
PHT read accesses: 1595298
PHT write accesses: 74214
AT read accesses: 1403213
AT write accesses: 1476803
FT read accesses: 225260
FT write accesses: 104291
PS read accesses: 210630
PS write accesses: 81888
PHT tag read accesses: 3985972
PHT tag write accesses: 77057
AT tag read accesses: 73979731
AT tag write accesses: 1477555
FT tag read accesses: 53046530
FT tag write accesses: 254289
PS tag read accesses: 26966531
PS tag write accesses: 289523
Core_2_LLC_total_access 1148288
Core_2_LLC_total_hit 437435
Core_2_LLC_total_miss 710853
Core_2_LLC_loads 141950
Core_2_LLC_load_hit 7977
Core_2_LLC_load_miss 133973
Core_2_LLC_RFOs 70285
Core_2_LLC_RFO_hit 106
Core_2_LLC_RFO_miss 70179
Core_2_LLC_prefetches 513843
Core_2_LLC_prefetch_hit 13400
Core_2_LLC_prefetch_miss 500443
Core_2_LLC_writebacks 422210
Core_2_LLC_writeback_hit 415952
Core_2_LLC_writeback_miss 6258


CPU 3 cumulative IPC: 0.57360 instructions: 78000003 cycles: 135983757
Core_3_L1D_total_access 23281165
Core_3_L1D_total_hit 20342402
Core_3_L1D_total_miss 2938763
Core_3_L1D_loads 19591774
Core_3_L1D_load_hit 17937526
Core_3_L1D_load_miss 1654248
Core_3_L1D_RFOs 2191157
Core_3_L1D_RFO_hit 2120273
Core_3_L1D_RFO_miss 70884
Core_3_L1D_prefetches 1498234
Core_3_L1D_prefetch_hit 284603
Core_3_L1D_prefetch_miss 1213631
Core_3_L1D_writebacks 0
Core_3_L1D_writeback_hit 0
Core_3_L1D_writeback_miss 0

Core_3_L1I_total_access 11175649
Core_3_L1I_total_hit 11170734
Core_3_L1I_total_miss 4915
Core_3_L1I_loads 11175649
Core_3_L1I_load_hit 11170734
Core_3_L1I_load_miss 4915
Core_3_L1I_RFOs 0
Core_3_L1I_RFO_hit 0
Core_3_L1I_RFO_miss 0
Core_3_L1I_prefetches 0
Core_3_L1I_prefetch_hit 0
Core_3_L1I_prefetch_miss 0
Core_3_L1I_writebacks 0
Core_3_L1I_writeback_hit 0
Core_3_L1I_writeback_miss 0

Core_3_L2C_total_access 3742104
Core_3_L2C_total_hit 3018058
Core_3_L2C_total_miss 724046
Core_3_L2C_loads 1456488
Core_3_L2C_load_hit 1231699
Core_3_L2C_load_miss 224789
Core_3_L2C_RFOs 70875
Core_3_L2C_RFO_hit 391
Core_3_L2C_RFO_miss 70484
Core_3_L2C_prefetches 1723144
Core_3_L2C_prefetch_hit 1294486
Core_3_L2C_prefetch_miss 428658
Core_3_L2C_writebacks 491597
Core_3_L2C_writeback_hit 491482
Core_3_L2C_writeback_miss 115

[Bingo] PHT Access: 396249
[Bingo] PHT Hit PC+Addr: 89529
[Bingo] PHT Hit PC+Offs: 259381
[Bingo] PHT Miss: 47339
[Bingo] Prefetch PC+Addr: 0
[Bingo] Prefetch PC+Offs: 0
[Bingo] Useful PC+Addr: 0
[Bingo] Useful PC+Offs: 0
[Bingo] Useless PC+Addr: 0
[Bingo] Useless PC+Offs: 0
[Bingo] L1 Prefetch per Region: 8.32575
[Bingo] L2 Prefetch per Region: 0.37673
[Bingo] L3 Prefetch per Region: 0.00000
[Bingo] No Prefetch per Region: 23.29752
[Bingo] Number of Voters Mean: 9.10784
[Bingo] Number of Voters SD: 5.55864
PHT read accesses: 5703914
PHT write accesses: 377865
AT read accesses: 19185565
AT write accesses: 19185593
FT read accesses: 4039799
FT write accesses: 396249
PS read accesses: 1890674
PS write accesses: 348910
PHT tag read accesses: 16855414
PHT tag write accesses: 467394
AT tag read accesses: 535958441
AT tag write accesses: 19563455
FT tag read accesses: 240849624
FT tag write accesses: 2614153
PS tag read accesses: 342032586
PS tag write accesses: 2232795
[Bingo2] PHT Access: 103770
[Bingo2] PHT Hit PC+Addr: 2579
[Bingo2] PHT Hit PC+Offs: 79255
[Bingo2] PHT Miss: 21936
[Bingo2] Prefetch PC+Addr: 0
[Bingo2] Prefetch PC+Offs: 0
[Bingo2] Useful PC+Addr: 0
[Bingo2] Useful PC+Offs: 0
[Bingo2] Useless PC+Addr: 0
[Bingo2] Useless PC+Offs: 0
[Bingo2] L1 Prefetch per Region: 0.00000
[Bingo2] L2 Prefetch per Region: 8.90998
[Bingo2] L3 Prefetch per Region: 0.00000
[Bingo2] No Prefetch per Region: 23.09002
[Bingo2] Number of Voters Mean: 12.03949
[Bingo2] Number of Voters SD: 5.25053
PHT read accesses: 1589820
PHT write accesses: 73759
AT read accesses: 1369208
AT write accesses: 1442088
FT read accesses: 223991
FT write accesses: 103770
PS read accesses: 209106
PS write accesses: 81834
PHT tag read accesses: 3967645
PHT tag write accesses: 76338
AT tag read accesses: 73399268
AT tag write accesses: 1443095
FT tag read accesses: 53008579
FT tag write accesses: 252994
PS tag read accesses: 26406911
PS tag write accesses: 288125
Core_3_LLC_total_access 1145917
Core_3_LLC_total_hit 434291
Core_3_LLC_total_miss 711626
Core_3_LLC_loads 142433
Core_3_LLC_load_hit 8066
Core_3_LLC_load_miss 134367
Core_3_LLC_RFOs 70484
Core_3_LLC_RFO_hit 67
Core_3_LLC_RFO_miss 70417
Core_3_LLC_prefetches 511004
Core_3_LLC_prefetch_hit 15614
Core_3_LLC_prefetch_miss 495390
Core_3_LLC_writebacks 421996
Core_3_LLC_writeback_hit 410544
Core_3_LLC_writeback_miss 11452


[ROI Statistics]
Core_0_instructions 78000001
Core_0_cycles 135863710
Core_0_IPC 0.57410

Core_0_branch_prediction_accuracy 99.16558
Core_0_branch_MPKI 0.25440
Core_0_average_ROB_occupancy_at_mispredict 436.88979

Core_0_L1D_total_access 23278253
Core_0_L1D_total_hit 20339732 L1D_total_Hit Ratio: 0.87377
Core_0_L1D_total_miss 2938521
Core_0_L1D_loads 19589865
Core_0_L1D_load_hit 17935302 L1D_load_Hit Ratio: 0.91554
Core_0_L1D_load_miss 1654563
Core_0_L1D_RFOs 2191721
Core_0_L1D_RFO_hit 2121023 L1D_RFO_Hit Ratio: 0.96774
Core_0_L1D_RFO_miss 70698
Core_0_L1D_prefetches 1496667
Core_0_L1D_prefetch_hit 283407 L1D_prefetch_Hit Ratio: 0.18936
Core_0_L1D_prefetch_miss 1213260
Core_0_L1D_writebacks 0
Core_0_L1D_writeback_hit 0 L1D_writeback_Hit Ratio: -nan
Core_0_L1D_writeback_miss 0
Core_0_L1D_prefetch_requested 2364671
Core_0_L1D_prefetch_issued 2364671
Core_0_L1D_prefetch_useful 1221091 L1D_Useful Ratio: 0.51639
Core_0_L1D_prefetch_useless 22871
Core_0_L1D_prefetch_late 205226
Core_0_L1D_average_miss_latency 6764451.11971

Core_0_L1I_total_access 11174754
Core_0_L1I_total_hit 11169845 L1I_total_Hit Ratio: 0.99956
Core_0_L1I_total_miss 4909
Core_0_L1I_loads 11174754
Core_0_L1I_load_hit 11169845 L1I_load_Hit Ratio: 0.99956
Core_0_L1I_load_miss 4909
Core_0_L1I_RFOs 0
Core_0_L1I_RFO_hit 0 L1I_RFO_Hit Ratio: -nan
Core_0_L1I_RFO_miss 0
Core_0_L1I_prefetches 0
Core_0_L1I_prefetch_hit 0 L1I_prefetch_Hit Ratio: -nan
Core_0_L1I_prefetch_miss 0
Core_0_L1I_writebacks 0
Core_0_L1I_writeback_hit 0 L1I_writeback_Hit Ratio: -nan
Core_0_L1I_writeback_miss 0
Core_0_L1I_prefetch_requested 0
Core_0_L1I_prefetch_issued 0
Core_0_L1I_prefetch_useful 0 L1I_Useful Ratio: -nan
Core_0_L1I_prefetch_useless 0
Core_0_L1I_prefetch_late 0
Core_0_L1I_average_miss_latency 727.36240

Core_0_L2C_total_access 3743817
Core_0_L2C_total_hit 3019127 L2C_total_Hit Ratio: 0.80643
Core_0_L2C_total_miss 724690
Core_0_L2C_loads 1456978
Core_0_L2C_load_hit 1234496 L2C_load_Hit Ratio: 0.84730
Core_0_L2C_load_miss 222482
Core_0_L2C_RFOs 70681
Core_0_L2C_RFO_hit 335 L2C_RFO_Hit Ratio: 0.00474
Core_0_L2C_RFO_miss 70346
Core_0_L2C_prefetches 1724560
Core_0_L2C_prefetch_hit 1292771 L2C_prefetch_Hit Ratio: 0.74962
Core_0_L2C_prefetch_miss 431789
Core_0_L2C_writebacks 491598
Core_0_L2C_writeback_hit 491525 L2C_writeback_Hit Ratio: 0.99985
Core_0_L2C_writeback_miss 73
Core_0_L2C_prefetch_requested 494444
Core_0_L2C_prefetch_issued 494444
Core_0_L2C_prefetch_useful 123594 L2C_Useful Ratio: 0.24997
Core_0_L2C_prefetch_useless 308013
Core_0_L2C_prefetch_late 82807
Core_0_L2C_average_miss_latency 1013.34657

Core_0_LLC_total_access 1147569
Core_0_LLC_total_hit 440415 LLC_total_Hit Ratio: 0.38378
Core_0_LLC_total_miss 707154
Core_0_LLC_loads 139752
Core_0_LLC_load_hit 7262 LLC_load_Hit Ratio: 0.05196
Core_0_LLC_load_miss 132490
Core_0_LLC_RFOs 70346
Core_0_LLC_RFO_hit 116 LLC_RFO_Hit Ratio: 0.00165
Core_0_LLC_RFO_miss 70230
Core_0_LLC_prefetches 514511
Core_0_LLC_prefetch_hit 17085 LLC_prefetch_Hit Ratio: 0.03321
Core_0_LLC_prefetch_miss 497426
Core_0_LLC_writebacks 422960
Core_0_LLC_writeback_hit 415952 LLC_writeback_Hit Ratio: 0.98343
Core_0_LLC_writeback_miss 7008
Core_0_LLC_prefetch_requested 0
Core_0_LLC_prefetch_issued 0
Core_0_LLC_prefetch_useful 17499 LLC_Useful Ratio: inf
Core_0_LLC_prefetch_useless 1835643
Core_0_LLC_prefetch_late 0
Core_0_LLC_average_miss_latency 3824.22568

Core_0_major_page_fault 0
Core_0_minor_page_fault 6069

Core_1_instructions 78000004
Core_1_cycles 135583928
Core_1_IPC 0.57529

Core_1_branch_prediction_accuracy 99.16595
Core_1_branch_MPKI 0.25330
Core_1_average_ROB_occupancy_at_mispredict 436.88523

Core_1_L1D_total_access 23280255
Core_1_L1D_total_hit 20342222 L1D_total_Hit Ratio: 0.87380
Core_1_L1D_total_miss 2938033
Core_1_L1D_loads 19592123
Core_1_L1D_load_hit 17938754 L1D_load_Hit Ratio: 0.91561
Core_1_L1D_load_miss 1653369
Core_1_L1D_RFOs 2190439
Core_1_L1D_RFO_hit 2119540 L1D_RFO_Hit Ratio: 0.96763
Core_1_L1D_RFO_miss 70899
Core_1_L1D_prefetches 1497693
Core_1_L1D_prefetch_hit 283928 L1D_prefetch_Hit Ratio: 0.18958
Core_1_L1D_prefetch_miss 1213765
Core_1_L1D_writebacks 0
Core_1_L1D_writeback_hit 0 L1D_writeback_Hit Ratio: -nan
Core_1_L1D_writeback_miss 0
Core_1_L1D_prefetch_requested 2386686
Core_1_L1D_prefetch_issued 2386686
Core_1_L1D_prefetch_useful 1230800 L1D_Useful Ratio: 0.51569
Core_1_L1D_prefetch_useless 22980
Core_1_L1D_prefetch_late 206990
Core_1_L1D_average_miss_latency 6825501.92831

Core_1_L1I_total_access 11176382
Core_1_L1I_total_hit 11171466 L1I_total_Hit Ratio: 0.99956
Core_1_L1I_total_miss 4916
Core_1_L1I_loads 11176382
Core_1_L1I_load_hit 11171466 L1I_load_Hit Ratio: 0.99956
Core_1_L1I_load_miss 4916
Core_1_L1I_RFOs 0
Core_1_L1I_RFO_hit 0 L1I_RFO_Hit Ratio: -nan
Core_1_L1I_RFO_miss 0
Core_1_L1I_prefetches 0
Core_1_L1I_prefetch_hit 0 L1I_prefetch_Hit Ratio: -nan
Core_1_L1I_prefetch_miss 0
Core_1_L1I_writebacks 0
Core_1_L1I_writeback_hit 0 L1I_writeback_Hit Ratio: -nan
Core_1_L1I_writeback_miss 0
Core_1_L1I_prefetch_requested 0
Core_1_L1I_prefetch_issued 0
Core_1_L1I_prefetch_useful 0 L1I_Useful Ratio: -nan
Core_1_L1I_prefetch_useless 0
Core_1_L1I_prefetch_late 0
Core_1_L1I_average_miss_latency 739.30635

Core_1_L2C_total_access 3743508
Core_1_L2C_total_hit 3018199 L2C_total_Hit Ratio: 0.80625
Core_1_L2C_total_miss 725309
Core_1_L2C_loads 1456006
Core_1_L2C_load_hit 1232055 L2C_load_Hit Ratio: 0.84619
Core_1_L2C_load_miss 223951
Core_1_L2C_RFOs 70887
Core_1_L2C_RFO_hit 390 L2C_RFO_Hit Ratio: 0.00550
Core_1_L2C_RFO_miss 70497
Core_1_L2C_prefetches 1725017
Core_1_L2C_prefetch_hit 1294214 L2C_prefetch_Hit Ratio: 0.75026
Core_1_L2C_prefetch_miss 430803
Core_1_L2C_writebacks 491598
Core_1_L2C_writeback_hit 491540 L2C_writeback_Hit Ratio: 0.99988
Core_1_L2C_writeback_miss 58
Core_1_L2C_prefetch_requested 498128
Core_1_L2C_prefetch_issued 498128
Core_1_L2C_prefetch_useful 124333 L2C_Useful Ratio: 0.24960
Core_1_L2C_prefetch_useless 308774
Core_1_L2C_prefetch_late 82562
Core_1_L2C_average_miss_latency 1004.75813

Core_1_LLC_total_access 1149305
Core_1_LLC_total_hit 442124 LLC_total_Hit Ratio: 0.38469
Core_1_LLC_total_miss 707181
Core_1_LLC_loads 141505
Core_1_LLC_load_hit 7636 LLC_load_Hit Ratio: 0.05396
Core_1_LLC_load_miss 133869
Core_1_LLC_RFOs 70497
Core_1_LLC_RFO_hit 72 LLC_RFO_Hit Ratio: 0.00102
Core_1_LLC_RFO_miss 70425
Core_1_LLC_prefetches 513244
Core_1_LLC_prefetch_hit 17411 LLC_prefetch_Hit Ratio: 0.03392
Core_1_LLC_prefetch_miss 495833
Core_1_LLC_writebacks 424059
Core_1_LLC_writeback_hit 417005 LLC_writeback_Hit Ratio: 0.98337
Core_1_LLC_writeback_miss 7054
Core_1_LLC_prefetch_requested 0
Core_1_LLC_prefetch_issued 0
Core_1_LLC_prefetch_useful 17499 LLC_Useful Ratio: inf
Core_1_LLC_prefetch_useless 1835643
Core_1_LLC_prefetch_late 0
Core_1_LLC_average_miss_latency 3824.07967

Core_1_major_page_fault 0
Core_1_minor_page_fault 6075

Core_2_instructions 78000000
Core_2_cycles 135377270
Core_2_IPC 0.57617

Core_2_branch_prediction_accuracy 99.16630
Core_2_branch_MPKI 0.25224
Core_2_average_ROB_occupancy_at_mispredict 436.87189

Core_2_L1D_total_access 23283565
Core_2_L1D_total_hit 20344951 L1D_total_Hit Ratio: 0.87379
Core_2_L1D_total_miss 2938614
Core_2_L1D_loads 19593628
Core_2_L1D_load_hit 17939621 L1D_load_Hit Ratio: 0.91558
Core_2_L1D_load_miss 1654007
Core_2_L1D_RFOs 2191462
Core_2_L1D_RFO_hit 2120810 L1D_RFO_Hit Ratio: 0.96776
Core_2_L1D_RFO_miss 70652
Core_2_L1D_prefetches 1498475
Core_2_L1D_prefetch_hit 284520 L1D_prefetch_Hit Ratio: 0.18987
Core_2_L1D_prefetch_miss 1213955
Core_2_L1D_writebacks 0
Core_2_L1D_writeback_hit 0 L1D_writeback_Hit Ratio: -nan
Core_2_L1D_writeback_miss 0
Core_2_L1D_prefetch_requested 2407810
Core_2_L1D_prefetch_issued 2407810
Core_2_L1D_prefetch_useful 1240285 L1D_Useful Ratio: 0.51511
Core_2_L1D_prefetch_useless 23269
Core_2_L1D_prefetch_late 208574
Core_2_L1D_average_miss_latency 6909588.05456

Core_2_L1I_total_access 11177247
Core_2_L1I_total_hit 11172336 L1I_total_Hit Ratio: 0.99956
Core_2_L1I_total_miss 4911
Core_2_L1I_loads 11177247
Core_2_L1I_load_hit 11172336 L1I_load_Hit Ratio: 0.99956
Core_2_L1I_load_miss 4911
Core_2_L1I_RFOs 0
Core_2_L1I_RFO_hit 0 L1I_RFO_Hit Ratio: -nan
Core_2_L1I_RFO_miss 0
Core_2_L1I_prefetches 0
Core_2_L1I_prefetch_hit 0 L1I_prefetch_Hit Ratio: -nan
Core_2_L1I_prefetch_miss 0
Core_2_L1I_writebacks 0
Core_2_L1I_writeback_hit 0 L1I_writeback_Hit Ratio: -nan
Core_2_L1I_writeback_miss 0
Core_2_L1I_prefetch_requested 0
Core_2_L1I_prefetch_issued 0
Core_2_L1I_prefetch_useful 0 L1I_Useful Ratio: -nan
Core_2_L1I_prefetch_useless 0
Core_2_L1I_prefetch_late 0
Core_2_L1I_average_miss_latency 752.27306

Core_2_L2C_total_access 3741881
Core_2_L2C_total_hit 3020188 L2C_total_Hit Ratio: 0.80713
Core_2_L2C_total_miss 721693
Core_2_L2C_loads 1456809
Core_2_L2C_load_hit 1232700 L2C_load_Hit Ratio: 0.84616
Core_2_L2C_load_miss 224109
Core_2_L2C_RFOs 70638
Core_2_L2C_RFO_hit 353 L2C_RFO_Hit Ratio: 0.00500
Core_2_L2C_RFO_miss 70285
Core_2_L2C_prefetches 1722838
Core_2_L2C_prefetch_hit 1295618 L2C_prefetch_Hit Ratio: 0.75203
Core_2_L2C_prefetch_miss 427220
Core_2_L2C_writebacks 491596
Core_2_L2C_writeback_hit 491517 L2C_writeback_Hit Ratio: 0.99984
Core_2_L2C_writeback_miss 79
Core_2_L2C_prefetch_requested 491695
Core_2_L2C_prefetch_issued 491695
Core_2_L2C_prefetch_useful 121478 L2C_Useful Ratio: 0.24706
Core_2_L2C_prefetch_useless 308532
Core_2_L2C_prefetch_late 82970
Core_2_L2C_average_miss_latency 1013.13617

Core_2_LLC_total_access 1143228
Core_2_LLC_total_hit 436906 LLC_total_Hit Ratio: 0.38217
Core_2_LLC_total_miss 706322
Core_2_LLC_loads 141306
Core_2_LLC_load_hit 7977 LLC_load_Hit Ratio: 0.05645
Core_2_LLC_load_miss 133329
Core_2_LLC_RFOs 70285
Core_2_LLC_RFO_hit 106 LLC_RFO_Hit Ratio: 0.00151
Core_2_LLC_RFO_miss 70179
Core_2_LLC_prefetches 510020
Core_2_LLC_prefetch_hit 13397 LLC_prefetch_Hit Ratio: 0.02627
Core_2_LLC_prefetch_miss 496623
Core_2_LLC_writebacks 421617
Core_2_LLC_writeback_hit 415426 LLC_writeback_Hit Ratio: 0.98532
Core_2_LLC_writeback_miss 6191
Core_2_LLC_prefetch_requested 0
Core_2_LLC_prefetch_issued 0
Core_2_LLC_prefetch_useful 17499 LLC_Useful Ratio: inf
Core_2_LLC_prefetch_useless 1835643
Core_2_LLC_prefetch_late 0
Core_2_LLC_average_miss_latency 3828.73036

Core_2_major_page_fault 0
Core_2_minor_page_fault 6080

Core_3_instructions 78000003
Core_3_cycles 135983757
Core_3_IPC 0.57360

Core_3_branch_prediction_accuracy 99.16542
Core_3_branch_MPKI 0.25491
Core_3_average_ROB_occupancy_at_mispredict 436.90932

Core_3_L1D_total_access 23281165
Core_3_L1D_total_hit 20342402 L1D_total_Hit Ratio: 0.87377
Core_3_L1D_total_miss 2938763
Core_3_L1D_loads 19591774
Core_3_L1D_load_hit 17937526 L1D_load_Hit Ratio: 0.91556
Core_3_L1D_load_miss 1654248
Core_3_L1D_RFOs 2191157
Core_3_L1D_RFO_hit 2120273 L1D_RFO_Hit Ratio: 0.96765
Core_3_L1D_RFO_miss 70884
Core_3_L1D_prefetches 1498234
Core_3_L1D_prefetch_hit 284603 L1D_prefetch_Hit Ratio: 0.18996
Core_3_L1D_prefetch_miss 1213631
Core_3_L1D_writebacks 0
Core_3_L1D_writeback_hit 0 L1D_writeback_Hit Ratio: -nan
Core_3_L1D_writeback_miss 0
Core_3_L1D_prefetch_requested 2357677
Core_3_L1D_prefetch_issued 2357677
Core_3_L1D_prefetch_useful 1216779 L1D_Useful Ratio: 0.51609
Core_3_L1D_prefetch_useless 22854
Core_3_L1D_prefetch_late 204650
Core_3_L1D_average_miss_latency 6753774.25885

Core_3_L1I_total_access 11175649
Core_3_L1I_total_hit 11170734 L1I_total_Hit Ratio: 0.99956
Core_3_L1I_total_miss 4915
Core_3_L1I_loads 11175649
Core_3_L1I_load_hit 11170734 L1I_load_Hit Ratio: 0.99956
Core_3_L1I_load_miss 4915
Core_3_L1I_RFOs 0
Core_3_L1I_RFO_hit 0 L1I_RFO_Hit Ratio: -nan
Core_3_L1I_RFO_miss 0
Core_3_L1I_prefetches 0
Core_3_L1I_prefetch_hit 0 L1I_prefetch_Hit Ratio: -nan
Core_3_L1I_prefetch_miss 0
Core_3_L1I_writebacks 0
Core_3_L1I_writeback_hit 0 L1I_writeback_Hit Ratio: -nan
Core_3_L1I_writeback_miss 0
Core_3_L1I_prefetch_requested 0
Core_3_L1I_prefetch_issued 0
Core_3_L1I_prefetch_useful 0 L1I_Useful Ratio: -nan
Core_3_L1I_prefetch_useless 0
Core_3_L1I_prefetch_late 0
Core_3_L1I_average_miss_latency 815.30905

Core_3_L2C_total_access 3742104
Core_3_L2C_total_hit 3018058 L2C_total_Hit Ratio: 0.80651
Core_3_L2C_total_miss 724046
Core_3_L2C_loads 1456488
Core_3_L2C_load_hit 1231699 L2C_load_Hit Ratio: 0.84566
Core_3_L2C_load_miss 224789
Core_3_L2C_RFOs 70875
Core_3_L2C_RFO_hit 391 L2C_RFO_Hit Ratio: 0.00552
Core_3_L2C_RFO_miss 70484
Core_3_L2C_prefetches 1723144
Core_3_L2C_prefetch_hit 1294486 L2C_prefetch_Hit Ratio: 0.75123
Core_3_L2C_prefetch_miss 428658
Core_3_L2C_writebacks 491597
Core_3_L2C_writeback_hit 491482 L2C_writeback_Hit Ratio: 0.99977
Core_3_L2C_writeback_miss 115
Core_3_L2C_prefetch_requested 491510
Core_3_L2C_prefetch_issued 491510
Core_3_L2C_prefetch_useful 119272 L2C_Useful Ratio: 0.24266
Core_3_L2C_prefetch_useless 308587
Core_3_L2C_prefetch_late 82397
Core_3_L2C_average_miss_latency 996.53269

Core_3_LLC_total_access 1145917
Core_3_LLC_total_hit 434291 LLC_total_Hit Ratio: 0.37899
Core_3_LLC_total_miss 711626
Core_3_LLC_loads 142433
Core_3_LLC_load_hit 8066 LLC_load_Hit Ratio: 0.05663
Core_3_LLC_load_miss 134367
Core_3_LLC_RFOs 70484
Core_3_LLC_RFO_hit 67 LLC_RFO_Hit Ratio: 0.00095
Core_3_LLC_RFO_miss 70417
Core_3_LLC_prefetches 511004
Core_3_LLC_prefetch_hit 15614 LLC_prefetch_Hit Ratio: 0.03056
Core_3_LLC_prefetch_miss 495390
Core_3_LLC_writebacks 421996
Core_3_LLC_writeback_hit 410544 LLC_writeback_Hit Ratio: 0.97286
Core_3_LLC_writeback_miss 11452
Core_3_LLC_prefetch_requested 0
Core_3_LLC_prefetch_issued 0
Core_3_LLC_prefetch_useful 17499 LLC_Useful Ratio: inf
Core_3_LLC_prefetch_useless 1835643
Core_3_LLC_prefetch_late 0
Core_3_LLC_average_miss_latency 3800.19348

Core_3_major_page_fault 0
Core_3_minor_page_fault 6067

[Bingo] PHT Access: 397740
[Bingo] PHT Hit PC+Addr: 91206
[Bingo] PHT Hit PC+Offs: 259159
[Bingo] PHT Miss: 47375
[Bingo] Prefetch PC+Addr: 0
[Bingo] Prefetch PC+Offs: 0
[Bingo] Useful PC+Addr: 0
[Bingo] Useful PC+Offs: 0
[Bingo] Useless PC+Addr: 0
[Bingo] Useless PC+Offs: 0
[Bingo] L1 Prefetch per Region: 8.32692
[Bingo] L2 Prefetch per Region: 0.37142
[Bingo] L3 Prefetch per Region: 0.00000
[Bingo] No Prefetch per Region: 23.30166
[Bingo] Number of Voters Mean: 9.06584
[Bingo] Number of Voters SD: 5.54809
PHT read accesses: 5711450
PHT write accesses: 379404
AT read accesses: 19235012
AT write accesses: 19235035
FT read accesses: 4044897
FT write accesses: 397740
PS read accesses: 1899955
PS write accesses: 350365
PHT tag read accesses: 16880823
PHT tag write accesses: 470610
AT tag read accesses: 536818820
AT tag write accesses: 19614439
FT tag read accesses: 240948435
FT tag write accesses: 2618938
PS tag read accesses: 342873959
PS tag write accesses: 2243437
[Bingo2] PHT Access: 104225
[Bingo2] PHT Hit PC+Addr: 2983
[Bingo2] PHT Hit PC+Offs: 78388
[Bingo2] PHT Miss: 22854
[Bingo2] Prefetch PC+Addr: 0
[Bingo2] Prefetch PC+Offs: 0
[Bingo2] Useful PC+Addr: 0
[Bingo2] Useful PC+Offs: 0
[Bingo2] Useless PC+Addr: 0
[Bingo2] Useless PC+Offs: 0
[Bingo2] L1 Prefetch per Region: 0.00000
[Bingo2] L2 Prefetch per Region: 8.94095
[Bingo2] L3 Prefetch per Region: 0.00000
[Bingo2] No Prefetch per Region: 23.05905
[Bingo2] Number of Voters Mean: 12.26990
[Bingo2] Number of Voters SD: 5.18691
PHT read accesses: 1589702
PHT write accesses: 74203
AT read accesses: 1375160
AT write accesses: 1449064
FT read accesses: 225042
FT write accesses: 104225
PS read accesses: 208820
PS write accesses: 81371
PHT tag read accesses: 3980258
PHT tag write accesses: 77186
AT tag read accesses: 73536202
AT tag write accesses: 1449491
FT tag read accesses: 53042014
FT tag write accesses: 254075
PS tag read accesses: 26520397
PS tag write accesses: 286954
[Bingo] PHT Access: 394526
[Bingo] PHT Hit PC+Addr: 91828
[Bingo] PHT Hit PC+Offs: 255909
[Bingo] PHT Miss: 46789
[Bingo] Prefetch PC+Addr: 0
[Bingo] Prefetch PC+Offs: 0
[Bingo] Useful PC+Addr: 0
[Bingo] Useful PC+Offs: 0
[Bingo] Useless PC+Addr: 0
[Bingo] Useless PC+Offs: 0
[Bingo] L1 Prefetch per Region: 8.35304
[Bingo] L2 Prefetch per Region: 0.38087
[Bingo] L3 Prefetch per Region: 0.00000
[Bingo] No Prefetch per Region: 23.26609
[Bingo] Number of Voters Mean: 8.93274
[Bingo] Number of Voters SD: 5.93223
PHT read accesses: 5674486
PHT write accesses: 376293
AT read accesses: 18653183
AT write accesses: 18653179
FT read accesses: 4026580
FT write accesses: 394526
PS read accesses: 1895940
PS write accesses: 347737
PHT tag read accesses: 16733226
PHT tag write accesses: 468121
AT tag read accesses: 524746735
AT tag write accesses: 19029472
FT tag read accesses: 238103187
FT tag write accesses: 2605012
PS tag read accesses: 333396791
PS tag write accesses: 2236692
[Bingo2] PHT Access: 97235
[Bingo2] PHT Hit PC+Addr: 2685
[Bingo2] PHT Hit PC+Offs: 76789
[Bingo2] PHT Miss: 17761
[Bingo2] Prefetch PC+Addr: 0
[Bingo2] Prefetch PC+Offs: 0
[Bingo2] Useful PC+Addr: 0
[Bingo2] Useful PC+Offs: 0
[Bingo2] Useless PC+Addr: 0
[Bingo2] Useless PC+Offs: 0
[Bingo2] L1 Prefetch per Region: 0.00000
[Bingo2] L2 Prefetch per Region: 9.05857
[Bingo2] L3 Prefetch per Region: 0.00000
[Bingo2] No Prefetch per Region: 22.94143
[Bingo2] Number of Voters Mean: 12.30806
[Bingo2] Number of Voters SD: 5.15769
PHT read accesses: 1527043
PHT write accesses: 71886
AT read accesses: 1379139
AT write accesses: 1450629
FT read accesses: 217777
FT write accesses: 97235
PS read accesses: 204743
PS write accesses: 79474
PHT tag read accesses: 3806579
PHT tag write accesses: 74571
AT tag read accesses: 73141654
AT tag write accesses: 1451028
FT tag read accesses: 52418341
FT tag write accesses: 242238
PS tag read accesses: 26400824
PS tag write accesses: 281451
[Bingo] PHT Access: 404697
[Bingo] PHT Hit PC+Addr: 92439
[Bingo] PHT Hit PC+Offs: 264212
[Bingo] PHT Miss: 48046
[Bingo] Prefetch PC+Addr: 0
[Bingo] Prefetch PC+Offs: 0
[Bingo] Useful PC+Addr: 0
[Bingo] Useful PC+Offs: 0
[Bingo] Useless PC+Addr: 0
[Bingo] Useless PC+Offs: 0
[Bingo] L1 Prefetch per Region: 8.31541
[Bingo] L2 Prefetch per Region: 0.38014
[Bingo] L3 Prefetch per Region: 0.00000
[Bingo] No Prefetch per Region: 23.30446
[Bingo] Number of Voters Mean: 9.03968
[Bingo] Number of Voters SD: 5.54571
PHT read accesses: 5820428
PHT write accesses: 386027
AT read accesses: 19452293
AT write accesses: 19452319
FT read accesses: 4069607
FT write accesses: 404697
PS read accesses: 1936515
PS write accesses: 356651
PHT tag read accesses: 17198702
PHT tag write accesses: 478466
AT tag read accesses: 540563081
AT tag write accesses: 19838346
FT tag read accesses: 241429928
FT tag write accesses: 2641731
PS tag read accesses: 346619234
PS tag write accesses: 2286100
[Bingo2] PHT Access: 104291
[Bingo2] PHT Hit PC+Addr: 2843
[Bingo2] PHT Hit PC+Offs: 79045
[Bingo2] PHT Miss: 22403
[Bingo2] Prefetch PC+Addr: 0
[Bingo2] Prefetch PC+Offs: 0
[Bingo2] Useful PC+Addr: 0
[Bingo2] Useful PC+Offs: 0
[Bingo2] Useless PC+Addr: 0
[Bingo2] Useless PC+Offs: 0
[Bingo2] L1 Prefetch per Region: 0.00000
[Bingo2] L2 Prefetch per Region: 8.82007
[Bingo2] L3 Prefetch per Region: 0.00000
[Bingo2] No Prefetch per Region: 23.17993
[Bingo2] Number of Voters Mean: 12.05799
[Bingo2] Number of Voters SD: 5.29921
PHT read accesses: 1595298
PHT write accesses: 74214
AT read accesses: 1403213
AT write accesses: 1476803
FT read accesses: 225260
FT write accesses: 104291
PS read accesses: 210630
PS write accesses: 81888
PHT tag read accesses: 3985972
PHT tag write accesses: 77057
AT tag read accesses: 73979731
AT tag write accesses: 1477555
FT tag read accesses: 53046530
FT tag write accesses: 254289
PS tag read accesses: 26966531
PS tag write accesses: 289523
[Bingo] PHT Access: 396249
[Bingo] PHT Hit PC+Addr: 89529
[Bingo] PHT Hit PC+Offs: 259381
[Bingo] PHT Miss: 47339
[Bingo] Prefetch PC+Addr: 0
[Bingo] Prefetch PC+Offs: 0
[Bingo] Useful PC+Addr: 0
[Bingo] Useful PC+Offs: 0
[Bingo] Useless PC+Addr: 0
[Bingo] Useless PC+Offs: 0
[Bingo] L1 Prefetch per Region: 8.32575
[Bingo] L2 Prefetch per Region: 0.37673
[Bingo] L3 Prefetch per Region: 0.00000
[Bingo] No Prefetch per Region: 23.29752
[Bingo] Number of Voters Mean: 9.10784
[Bingo] Number of Voters SD: 5.55864
PHT read accesses: 5703914
PHT write accesses: 377865
AT read accesses: 19185565
AT write accesses: 19185593
FT read accesses: 4039799
FT write accesses: 396249
PS read accesses: 1890674
PS write accesses: 348910
PHT tag read accesses: 16855414
PHT tag write accesses: 467394
AT tag read accesses: 535958441
AT tag write accesses: 19563455
FT tag read accesses: 240849624
FT tag write accesses: 2614153
PS tag read accesses: 342032586
PS tag write accesses: 2232795
[Bingo2] PHT Access: 103770
[Bingo2] PHT Hit PC+Addr: 2579
[Bingo2] PHT Hit PC+Offs: 79255
[Bingo2] PHT Miss: 21936
[Bingo2] Prefetch PC+Addr: 0
[Bingo2] Prefetch PC+Offs: 0
[Bingo2] Useful PC+Addr: 0
[Bingo2] Useful PC+Offs: 0
[Bingo2] Useless PC+Addr: 0
[Bingo2] Useless PC+Offs: 0
[Bingo2] L1 Prefetch per Region: 0.00000
[Bingo2] L2 Prefetch per Region: 8.90998
[Bingo2] L3 Prefetch per Region: 0.00000
[Bingo2] No Prefetch per Region: 23.09002
[Bingo2] Number of Voters Mean: 12.03949
[Bingo2] Number of Voters SD: 5.25053
PHT read accesses: 1589820
PHT write accesses: 73759
AT read accesses: 1369208
AT write accesses: 1442088
FT read accesses: 223991
FT write accesses: 103770
PS read accesses: 209106
PS write accesses: 81834
PHT tag read accesses: 3967645
PHT tag write accesses: 76338
AT tag read accesses: 73399268
AT tag write accesses: 1443095
FT tag read accesses: 53008579
FT tag write accesses: 252994
PS tag read accesses: 26406911
PS tag write accesses: 288125
Channel_0_RQ_row_buffer_hit 1285072
Channel_0_RQ_row_buffer_miss 1523363
Channel_0_WQ_row_buffer_hit 616232
Channel_0_WQ_row_buffer_miss 1019216
Channel_0_WQ_full 7033
Channel_0_dbus_congested 3417108

avg_congested_cycle 11

EzSearch AVG IPC :0.57410: L2-Pf-HR :0.74962 : L2-HR :0.80689 Uful:0.24997
EzSearch AVG IPC :0.57529: L2-Pf-HR :0.75026 : L2-HR :0.80761 Uful:0.24960
EzSearch AVG IPC :0.57617: L2-Pf-HR :0.75203 : L2-HR :0.80937 Uful:0.24706
EzSearch AVG IPC :0.57360: L2-Pf-HR :0.75123 : L2-HR :0.80651 Uful:0.24266
     > Finished combination: TraceType=770-tot Sim:78000000 Prefetcher=L2bingo_dpc3_PHT1k L1=bingo_dpc3_PHT1k
