TRACE: [662000000][OPT-350M]_[h16][s1024][d64] Warmup: 2000000 NumTraces: 662000000
L1:bingo_dpc3:L2:bingo_dpc3
*************************************************
   ChampSim Multicore Out-of-Order Simulator
   Last compiled: Oct 29 2024 18:26:52
*************************************************

trace_0 770-tot_memTraces_v3_rexz/memTraces[662000000][OPT-350M]_[h16][s1024][d64].champsim.9.xz
trace_1 770-tot_memTraces_v3_rexz/memTraces[662000000][OPT-350M]_[h16][s1024][d64].champsim.9.xz
trace_2 770-tot_memTraces_v3_rexz/memTraces[662000000][OPT-350M]_[h16][s1024][d64].champsim.9.xz
trace_3 770-tot_memTraces_v3_rexz/memTraces[662000000][OPT-350M]_[h16][s1024][d64].champsim.9.xz
Bingo PHT WAYS: 16 and PHT_SIZE: 16384
Bingo2 PHT WAYS: 16 and PHT_SIZE: 16384
Bingo PHT WAYS: 16 and PHT_SIZE: 16384
Bingo2 PHT WAYS: 16 and PHT_SIZE: 16384
Bingo PHT WAYS: 16 and PHT_SIZE: 16384
Bingo2 PHT WAYS: 16 and PHT_SIZE: 16384
Bingo PHT WAYS: 16 and PHT_SIZE: 16384
Bingo2 PHT WAYS: 16 and PHT_SIZE: 16384
MAIN.cc ln 751 stats print skipped
CPU  2 inst:    1000001 cyc:     500409 now IPC :1.99837: AVG IPC :1.99837: L2-Pf-HR :0.77711: L2-HR :0.68506: (Sim:0h0m47s) 
CPU  3 inst:    1000001 cyc:     500454 now IPC :1.99819: AVG IPC :1.99819: L2-Pf-HR :0.73513: L2-HR :0.65998: (Sim:0h0m47s) 
CPU  1 inst:    1000001 cyc:     500537 now IPC :1.99786: AVG IPC :1.99786: L2-Pf-HR :0.77492: L2-HR :0.68143: (Sim:0h0m47s) 
CPU  0 inst:    1000001 cyc:     500603 now IPC :1.99759: AVG IPC :1.99759: L2-Pf-HR :0.76259: L2-HR :0.67919: (Sim:0h0m47s) 
CPU  2 inst:    2000000 cyc:     983951 now IPC :2.06807: AVG IPC :2.03262: L2-Pf-HR :0.79692: L2-HR :0.73333: (Sim:0h1m38s) 
CPU  3 inst:    2000000 cyc:     983990 now IPC :2.06810: AVG IPC :2.03254: L2-Pf-HR :0.77110: L2-HR :0.71690: (Sim:0h1m38s) 
CPU  1 inst:    2000000 cyc:     984046 now IPC :2.06821: AVG IPC :2.03243: L2-Pf-HR :0.79212: L2-HR :0.72746: (Sim:0h1m38s) 
CPU  0 inst:    2000000 cyc:     984091 now IPC :2.06830: AVG IPC :2.03233: L2-Pf-HR :0.79010: L2-HR :0.73142: (Sim:0h1m38s) 

Warmup complete CPU  0 instructions:    2000001 cycles:     984092 (Simulation time: 0 hr 1 min 38 sec) 
Warmup complete CPU  1 instructions:    2000131 cycles:     984091 (Simulation time: 0 hr 1 min 38 sec) 
Warmup complete CPU  2 instructions:    2000280 cycles:     984091 (Simulation time: 0 hr 1 min 38 sec) 
Warmup complete CPU  3 instructions:    2000280 cycles:     984091 (Simulation time: 0 hr 1 min 38 sec) 

CPU  2 inst:    3000000 cyc:    1842744 now IPC :1.16442: AVG IPC :1.16429: L2-Pf-HR :0.90796: L2-HR :0.77259: (Sim:0h2m28s) 
CPU  1 inst:    3000000 cyc:    1843048 now IPC :1.16414: AVG IPC :1.16405: L2-Pf-HR :0.91418: L2-HR :0.77429: (Sim:0h2m28s) 
CPU  0 inst:    3000000 cyc:    1843756 now IPC :1.16324: AVG IPC :1.16324: L2-Pf-HR :0.91550: L2-HR :0.78299: (Sim:0h2m28s) 
CPU  3 inst:    3000000 cyc:    1856792 now IPC :1.14574: AVG IPC :1.14555: L2-Pf-HR :0.91861: L2-HR :0.77975: (Sim:0h2m29s) 
CPU  2 inst:    4000002 cyc:    2658079 now IPC :1.22649: AVG IPC :1.19459: L2-Pf-HR :0.88936: L2-HR :0.76757: (Sim:0h3m17s) 
CPU  1 inst:    4000002 cyc:    2663590 now IPC :1.21871: AVG IPC :1.19075: L2-Pf-HR :0.89244: L2-HR :0.76329: (Sim:0h3m18s) 
CPU  0 inst:    4000002 cyc:    2679765 now IPC :1.19616: AVG IPC :1.17947: L2-Pf-HR :0.89948: L2-HR :0.77609: (Sim:0h3m19s) 
CPU  3 inst:    4000002 cyc:    2685744 now IPC :1.20634: AVG IPC :1.17516: L2-Pf-HR :0.89314: L2-HR :0.76721: (Sim:0h3m19s) 
CPU  2 inst:    5000000 cyc:    3404167 now IPC :1.34032: AVG IPC :1.23951: L2-Pf-HR :0.88178: L2-HR :0.76830: (Sim:0h4m6s) 
CPU  1 inst:    5000000 cyc:    3419876 now IPC :1.32225: AVG IPC :1.23158: L2-Pf-HR :0.88423: L2-HR :0.76264: (Sim:0h4m6s) 
CPU  3 inst:    5000000 cyc:    3452603 now IPC :1.30402: AVG IPC :1.21519: L2-Pf-HR :0.88655: L2-HR :0.76658: (Sim:0h4m8s) 
CPU  0 inst:    5000000 cyc:    3452907 now IPC :1.29342: AVG IPC :1.21516: L2-Pf-HR :0.89076: L2-HR :0.77602: (Sim:0h4m8s) 
CPU  2 inst:    6000004 cyc:    4209443 now IPC :1.24182: AVG IPC :1.24009: L2-Pf-HR :0.88213: L2-HR :0.76505: (Sim:0h4m54s) 
CPU  1 inst:    6000004 cyc:    4244468 now IPC :1.21273: AVG IPC :1.22681: L2-Pf-HR :0.88221: L2-HR :0.75962: (Sim:0h4m56s) 
CPU  3 inst:    6000004 cyc:    4277766 now IPC :1.21189: AVG IPC :1.21437: L2-Pf-HR :0.88898: L2-HR :0.76484: (Sim:0h4m59s) 
CPU  0 inst:    6000004 cyc:    4277805 now IPC :1.21228: AVG IPC :1.21444: L2-Pf-HR :0.89010: L2-HR :0.77284: (Sim:0h4m59s) 
CPU  2 inst:    7000001 cyc:    5138841 now IPC :1.07596: AVG IPC :1.20337: L2-Pf-HR :0.87841: L2-HR :0.76478: (Sim:0h5m41s) 
CPU  1 inst:    7000001 cyc:    5390294 now IPC :0.87273: AVG IPC :1.13473: L2-Pf-HR :0.88395: L2-HR :0.76259: (Sim:0h5m54s) 
CPU  0 inst:    7000001 cyc:    5435245 now IPC :0.86397: AVG IPC :1.12330: L2-Pf-HR :0.88362: L2-HR :0.77200: (Sim:0h5m56s) 
CPU  3 inst:    7000001 cyc:    5440404 now IPC :0.86011: AVG IPC :1.12194: L2-Pf-HR :0.88855: L2-HR :0.76616: (Sim:0h5m56s) 
CPU  2 inst:    8000002 cyc:    5946439 now IPC :1.23824: AVG IPC :1.20905: L2-Pf-HR :0.88532: L2-HR :0.76725: (Sim:0h6m23s) 
CPU  1 inst:    8000002 cyc:    6395290 now IPC :0.99503: AVG IPC :1.10879: L2-Pf-HR :0.89290: L2-HR :0.76602: (Sim:0h6m47s) 
CPU  0 inst:    8000002 cyc:    6548020 now IPC :0.89866: AVG IPC :1.07837: L2-Pf-HR :0.89098: L2-HR :0.77336: (Sim:0h6m55s) 
CPU  3 inst:    8000002 cyc:    6548324 now IPC :0.90259: AVG IPC :1.07827: L2-Pf-HR :0.89562: L2-HR :0.76773: (Sim:0h6m55s) 
CPU  2 inst:    9000003 cyc:    6937527 now IPC :1.00899: AVG IPC :1.17575: L2-Pf-HR :0.89035: L2-HR :0.76790: (Sim:0h7m15s) 
CPU  1 inst:    9000003 cyc:    7214032 now IPC :1.22139: AVG IPC :1.12359: L2-Pf-HR :0.89837: L2-HR :0.76807: (Sim:0h7m30s) 
CPU  3 inst:    9000003 cyc:    7649187 now IPC :0.90838: AVG IPC :1.05021: L2-Pf-HR :0.90017: L2-HR :0.76843: (Sim:0h7m53s) 
CPU  0 inst:    9000003 cyc:    7654383 now IPC :0.90386: AVG IPC :1.04943: L2-Pf-HR :0.89559: L2-HR :0.77357: (Sim:0h7m53s) 
CPU  2 inst:   10000000 cyc:    8008404 now IPC :0.93381: AVG IPC :1.13886: L2-Pf-HR :0.89352: L2-HR :0.76805: (Sim:0h8m12s) 
CPU  1 inst:   10000003 cyc:    8061083 now IPC :1.18057: AVG IPC :1.13041: L2-Pf-HR :0.89740: L2-HR :0.76814: (Sim:0h8m14s) 
CPU  3 inst:   10000005 cyc:    8814035 now IPC :0.85848: AVG IPC :1.02168: L2-Pf-HR :0.90312: L2-HR :0.76918: (Sim:0h8m49s) 
CPU  0 inst:   10000000 cyc:    8824670 now IPC :0.85449: AVG IPC :1.02033: L2-Pf-HR :0.89745: L2-HR :0.77250: (Sim:0h8m50s) 
CPU  2 inst:   11000002 cyc:    9214145 now IPC :0.82937: AVG IPC :1.09352: L2-Pf-HR :0.89651: L2-HR :0.76895: (Sim:0h9m8s) 
CPU  1 inst:   11000002 cyc:    9223185 now IPC :0.86051: AVG IPC :1.09234: L2-Pf-HR :0.89948: L2-HR :0.76907: (Sim:0h9m9s) 
CPU  3 inst:   11000002 cyc:    9965484 now IPC :0.86847: AVG IPC :1.00204: L2-Pf-HR :0.90455: L2-HR :0.77049: (Sim:0h9m43s) 
CPU  0 inst:   11000002 cyc:   10047966 now IPC :0.81747: AVG IPC :0.99295: L2-Pf-HR :0.90118: L2-HR :0.77326: (Sim:0h9m48s) 
CPU  2 inst:   12000005 cyc:   10370917 now IPC :0.86448: AVG IPC :1.06529: L2-Pf-HR :0.89820: L2-HR :0.76921: (Sim:0h10m4s) 
CPU  1 inst:   12000005 cyc:   10374860 now IPC :0.86830: AVG IPC :1.06486: L2-Pf-HR :0.90119: L2-HR :0.76977: (Sim:0h10m5s) 
CPU  3 inst:   12000005 cyc:   10889131 now IPC :1.08267: AVG IPC :1.00956: L2-Pf-HR :0.90594: L2-HR :0.77083: (Sim:0h10m28s) 
CPU  0 inst:   12000005 cyc:   11184044 now IPC :0.88022: AVG IPC :0.98040: L2-Pf-HR :0.90339: L2-HR :0.77328: (Sim:0h10m41s) 
CPU  1 inst:   13000004 cyc:   11716823 now IPC :0.74518: AVG IPC :1.02489: L2-Pf-HR :0.90013: L2-HR :0.77183: (Sim:0h11m5s) 
CPU  2 inst:   13000004 cyc:   11731318 now IPC :0.73508: AVG IPC :1.02349: L2-Pf-HR :0.89717: L2-HR :0.77074: (Sim:0h11m5s) 
CPU  3 inst:   13000004 cyc:   11942404 now IPC :0.94942: AVG IPC :1.00378: L2-Pf-HR :0.90433: L2-HR :0.77351: (Sim:0h11m16s) 
CPU  0 inst:   13000004 cyc:   12447458 now IPC :0.79151: AVG IPC :0.95958: L2-Pf-HR :0.90237: L2-HR :0.77587: (Sim:0h11m38s) 
CPU  1 inst:   14000001 cyc:   12932555 now IPC :0.82255: AVG IPC :1.00430: L2-Pf-HR :0.90182: L2-HR :0.77377: (Sim:0h12m0s) 
CPU  2 inst:   14000000 cyc:   12982801 now IPC :0.79905: AVG IPC :1.00008: L2-Pf-HR :0.89852: L2-HR :0.77190: (Sim:0h12m2s) 
CPU  3 inst:   14000004 cyc:   13063551 now IPC :0.89194: AVG IPC :0.99340: L2-Pf-HR :0.90526: L2-HR :0.77597: (Sim:0h12m6s) 
CPU  0 inst:   14000003 cyc:   13646143 now IPC :0.83425: AVG IPC :0.94771: L2-Pf-HR :0.90379: L2-HR :0.77819: (Sim:0h12m35s) 
CPU  1 inst:   15000005 cyc:   13903385 now IPC :1.03005: AVG IPC :1.00624: L2-Pf-HR :0.89870: L2-HR :0.77627: (Sim:0h12m49s) 
CPU  2 inst:   15000005 cyc:   13997970 now IPC :0.98506: AVG IPC :0.99891: L2-Pf-HR :0.89711: L2-HR :0.77411: (Sim:0h12m54s) 
CPU  3 inst:   15000005 cyc:   14122539 now IPC :0.94430: AVG IPC :0.98944: L2-Pf-HR :0.90345: L2-HR :0.77906: (Sim:0h13m1s) 
CPU  0 inst:   15000005 cyc:   14667512 now IPC :0.97908: AVG IPC :0.95006: L2-Pf-HR :0.90182: L2-HR :0.78102: (Sim:0h13m29s) 
CPU  1 inst:   16000000 cyc:   14855676 now IPC :1.05009: AVG IPC :1.00925: L2-Pf-HR :0.89770: L2-HR :0.77888: (Sim:0h13m39s) 
CPU  2 inst:   16000000 cyc:   14951878 now IPC :1.04831: AVG IPC :1.00229: L2-Pf-HR :0.89652: L2-HR :0.77639: (Sim:0h13m44s) 
CPU  3 inst:   16000000 cyc:   15208633 now IPC :0.92073: AVG IPC :0.98419: L2-Pf-HR :0.90329: L2-HR :0.78201: (Sim:0h13m55s) 
CPU  0 inst:   16000000 cyc:   15924765 now IPC :0.79538: AVG IPC :0.93704: L2-Pf-HR :0.90110: L2-HR :0.78369: (Sim:0h14m24s) 
CPU  1 inst:   17000001 cyc:   16223103 now IPC :0.73130: AVG IPC :0.98431: L2-Pf-HR :0.89313: L2-HR :0.77707: (Sim:0h14m38s) 
CPU  2 inst:   17000001 cyc:   16418490 now IPC :0.68184: AVG IPC :0.97184: L2-Pf-HR :0.89145: L2-HR :0.77431: (Sim:0h14m45s) 
CPU  3 inst:   17000001 cyc:   16552072 now IPC :0.74436: AVG IPC :0.96350: L2-Pf-HR :0.89723: L2-HR :0.77934: (Sim:0h14m50s) 
CPU  1 inst:   18000000 cyc:   17491042 now IPC :0.78868: AVG IPC :0.96928: L2-Pf-HR :0.89291: L2-HR :0.77686: (Sim:0h15m26s) 
CPU  0 inst:   17000001 cyc:   17513808 now IPC :0.62931: AVG IPC :0.90746: L2-Pf-HR :0.89542: L2-HR :0.78130: (Sim:0h15m27s) 
CPU  2 inst:   18000000 cyc:   17762954 now IPC :0.74379: AVG IPC :0.95356: L2-Pf-HR :0.89111: L2-HR :0.77397: (Sim:0h15m38s) 
CPU  3 inst:   18000000 cyc:   17915039 now IPC :0.73369: AVG IPC :0.94500: L2-Pf-HR :0.89625: L2-HR :0.77831: (Sim:0h15m44s) 
CPU  1 inst:   19000005 cyc:   18597537 now IPC :0.90376: AVG IPC :0.96516: L2-Pf-HR :0.89274: L2-HR :0.77651: (Sim:0h16m15s) 
CPU  0 inst:   18000000 cyc:   18891978 now IPC :0.72560: AVG IPC :0.89346: L2-Pf-HR :0.89439: L2-HR :0.78009: (Sim:0h16m28s) 
CPU  2 inst:   19000005 cyc:   19094096 now IPC :0.75124: AVG IPC :0.93869: L2-Pf-HR :0.89058: L2-HR :0.77335: (Sim:0h16m37s) 
CPU  3 inst:   19000005 cyc:   19274708 now IPC :0.73548: AVG IPC :0.92942: L2-Pf-HR :0.89525: L2-HR :0.77718: (Sim:0h16m45s) 
CPU  1 inst:   20000001 cyc:   19752890 now IPC :0.86553: AVG IPC :0.95903: L2-Pf-HR :0.89109: L2-HR :0.77558: (Sim:0h17m7s) 
CPU  2 inst:   20000001 cyc:   20180648 now IPC :0.92034: AVG IPC :0.93765: L2-Pf-HR :0.88875: L2-HR :0.77260: (Sim:0h17m23s) 
CPU  0 inst:   19000005 cyc:   20262785 now IPC :0.72950: AVG IPC :0.88180: L2-Pf-HR :0.89311: L2-HR :0.77897: (Sim:0h17m26s) 
CPU  3 inst:   20000000 cyc:   20501172 now IPC :0.81535: AVG IPC :0.92225: L2-Pf-HR :0.89281: L2-HR :0.77555: (Sim:0h17m33s) 
CPU  1 inst:   21000003 cyc:   21012938 now IPC :0.79362: AVG IPC :0.94863: L2-Pf-HR :0.89018: L2-HR :0.77527: (Sim:0h17m47s) 
CPU  2 inst:   21000003 cyc:   21327848 now IPC :0.87169: AVG IPC :0.93393: L2-Pf-HR :0.88803: L2-HR :0.77220: (Sim:0h17m57s) 
CPU  0 inst:   20000001 cyc:   21468892 now IPC :0.82911: AVG IPC :0.87870: L2-Pf-HR :0.89107: L2-HR :0.77748: (Sim:0h18m3s) 
CPU  3 inst:   21000003 cyc:   21943353 now IPC :0.69340: AVG IPC :0.90651: L2-Pf-HR :0.89182: L2-HR :0.77506: (Sim:0h18m22s) 
CPU  1 inst:   22000002 cyc:   22444118 now IPC :0.69872: AVG IPC :0.93196: L2-Pf-HR :0.88919: L2-HR :0.77517: (Sim:0h18m43s) 
CPU  2 inst:   22000002 cyc:   22512759 now IPC :0.84394: AVG IPC :0.92898: L2-Pf-HR :0.88686: L2-HR :0.77171: (Sim:0h18m46s) 
CPU  0 inst:   21000003 cyc:   22775484 now IPC :0.76535: AVG IPC :0.87190: L2-Pf-HR :0.89023: L2-HR :0.77657: (Sim:0h18m58s) 
CPU  3 inst:   22000002 cyc:   23354716 now IPC :0.70853: AVG IPC :0.89402: L2-Pf-HR :0.89105: L2-HR :0.77416: (Sim:0h19m21s) 
CPU  0 inst:   22000002 cyc:   23981244 now IPC :0.82935: AVG IPC :0.86967: L2-Pf-HR :0.88919: L2-HR :0.77575: (Sim:0h19m47s) 
CPU  1 inst:   23000001 cyc:   24042883 now IPC :0.62548: AVG IPC :0.91071: L2-Pf-HR :0.88843: L2-HR :0.77485: (Sim:0h19m50s) 
CPU  2 inst:   23000001 cyc:   24075728 now IPC :0.63981: AVG IPC :0.90941: L2-Pf-HR :0.88618: L2-HR :0.77155: (Sim:0h19m51s) 
CPU  3 inst:   23000001 cyc:   24580704 now IPC :0.81567: AVG IPC :0.88995: L2-Pf-HR :0.89022: L2-HR :0.77376: (Sim:0h20m13s) 
CPU  0 inst:   23000001 cyc:   25259156 now IPC :0.78253: AVG IPC :0.86509: L2-Pf-HR :0.88847: L2-HR :0.77527: (Sim:0h20m38s) 
CPU  1 inst:   24000005 cyc:   25347919 now IPC :0.76627: AVG IPC :0.90297: L2-Pf-HR :0.89016: L2-HR :0.77442: (Sim:0h20m41s) 
CPU  2 inst:   24000005 cyc:   25403516 now IPC :0.75314: AVG IPC :0.90091: L2-Pf-HR :0.88811: L2-HR :0.77131: (Sim:0h20m43s) 
CPU  3 inst:   24000005 cyc:   25648103 now IPC :0.93686: AVG IPC :0.89198: L2-Pf-HR :0.89192: L2-HR :0.77327: (Sim:0h20m50s) 
CPU  0 inst:   24000005 cyc:   26444559 now IPC :0.84360: AVG IPC :0.86408: L2-Pf-HR :0.89016: L2-HR :0.77470: (Sim:0h21m14s) 
CPU  1 inst:   25000005 cyc:   26503516 now IPC :0.86535: AVG IPC :0.90127: L2-Pf-HR :0.89156: L2-HR :0.77398: (Sim:0h21m16s) 
CPU  2 inst:   25000005 cyc:   26620608 now IPC :0.82163: AVG IPC :0.89715: L2-Pf-HR :0.88964: L2-HR :0.77100: (Sim:0h21m20s) 
CPU  3 inst:   25000005 cyc:   26781752 now IPC :0.88211: AVG IPC :0.89154: L2-Pf-HR :0.89328: L2-HR :0.77276: (Sim:0h21m24s) 
CPU  1 inst:   26000004 cyc:   27451512 now IPC :1.05486: AVG IPC :0.90677: L2-Pf-HR :0.89107: L2-HR :0.77323: (Sim:0h21m47s) 
CPU  0 inst:   25000005 cyc:   27576736 now IPC :0.88325: AVG IPC :0.86490: L2-Pf-HR :0.89152: L2-HR :0.77410: (Sim:0h21m53s) 
CPU  2 inst:   26000004 cyc:   27601919 now IPC :1.01904: AVG IPC :0.90164: L2-Pf-HR :0.89015: L2-HR :0.77022: (Sim:0h21m54s) 
CPU  3 inst:   26000004 cyc:   27762456 now IPC :1.01967: AVG IPC :0.89624: L2-Pf-HR :0.89328: L2-HR :0.77183: (Sim:0h22m3s) 
CPU  1 inst:   27000003 cyc:   28416429 now IPC :1.03636: AVG IPC :0.91133: L2-Pf-HR :0.89210: L2-HR :0.77308: (Sim:0h22m37s) 
CPU  0 inst:   26000004 cyc:   28540853 now IPC :1.03722: AVG IPC :0.87093: L2-Pf-HR :0.89188: L2-HR :0.77305: (Sim:0h22m44s) 
CPU  2 inst:   27000003 cyc:   28562252 now IPC :1.04130: AVG IPC :0.90650: L2-Pf-HR :0.89165: L2-HR :0.77003: (Sim:0h22m45s) 
CPU  3 inst:   27000003 cyc:   28770188 now IPC :0.99233: AVG IPC :0.89972: L2-Pf-HR :0.89380: L2-HR :0.77159: (Sim:0h22m56s) 
CPU  1 inst:   28000003 cyc:   29339774 now IPC :1.08302: AVG IPC :0.91692: L2-Pf-HR :0.89235: L2-HR :0.77287: (Sim:0h23m26s) 
CPU  2 inst:   28000003 cyc:   29506719 now IPC :1.05880: AVG IPC :0.91155: L2-Pf-HR :0.89283: L2-HR :0.76977: (Sim:0h23m36s) 
CPU  0 inst:   27000003 cyc:   29570188 now IPC :0.97150: AVG IPC :0.87455: L2-Pf-HR :0.89317: L2-HR :0.77258: (Sim:0h23m39s) 
CPU  3 inst:   28000003 cyc:   29820268 now IPC :0.95231: AVG IPC :0.90164: L2-Pf-HR :0.89461: L2-HR :0.77121: (Sim:0h23m51s) 
CPU  1 inst:   29000003 cyc:   30514314 now IPC :0.85140: AVG IPC :0.91431: L2-Pf-HR :0.89208: L2-HR :0.77360: (Sim:0h24m22s) 
CPU  2 inst:   29000003 cyc:   30635504 now IPC :0.88591: AVG IPC :0.91057: L2-Pf-HR :0.89245: L2-HR :0.77041: (Sim:0h24m27s) 
CPU  0 inst:   28000003 cyc:   30851819 now IPC :0.78026: AVG IPC :0.87050: L2-Pf-HR :0.89422: L2-HR :0.77208: (Sim:0h24m36s) 
CPU  3 inst:   29000003 cyc:   31202993 now IPC :0.72321: AVG IPC :0.89347: L2-Pf-HR :0.89426: L2-HR :0.77189: (Sim:0h24m53s) 
CPU  1 inst:   30000005 cyc:   31620975 now IPC :0.90362: AVG IPC :0.91393: L2-Pf-HR :0.89299: L2-HR :0.77481: (Sim:0h25m13s) 
CPU  2 inst:   30000005 cyc:   31863083 now IPC :0.81461: AVG IPC :0.90676: L2-Pf-HR :0.89318: L2-HR :0.77151: (Sim:0h25m25s) 
CPU  0 inst:   29000003 cyc:   31965240 now IPC :0.89813: AVG IPC :0.87150: L2-Pf-HR :0.89383: L2-HR :0.77268: (Sim:0h25m30s) 
CPU  3 inst:   30000005 cyc:   32375548 now IPC :0.85284: AVG IPC :0.89195: L2-Pf-HR :0.89506: L2-HR :0.77313: (Sim:0h25m50s) 
CPU  1 inst:   31000002 cyc:   32590257 now IPC :1.03169: AVG IPC :0.91754: L2-Pf-HR :0.89276: L2-HR :0.77629: (Sim:0h26m1s) 
CPU  2 inst:   31000005 cyc:   33000795 now IPC :0.87896: AVG IPC :0.90577: L2-Pf-HR :0.89298: L2-HR :0.77296: (Sim:0h26m21s) 
CPU  0 inst:   30000005 cyc:   33143492 now IPC :0.84872: AVG IPC :0.87066: L2-Pf-HR :0.89464: L2-HR :0.77385: (Sim:0h26m27s) 
CPU  3 inst:   31000002 cyc:   33398604 now IPC :0.97746: AVG IPC :0.89465: L2-Pf-HR :0.89468: L2-HR :0.77463: (Sim:0h26m40s) 
CPU  1 inst:   32000004 cyc:   33704670 now IPC :0.89734: AVG IPC :0.91685: L2-Pf-HR :0.89226: L2-HR :0.77741: (Sim:0h26m56s) 
CPU  2 inst:   32000005 cyc:   34036355 now IPC :0.96566: AVG IPC :0.90765: L2-Pf-HR :0.89288: L2-HR :0.77426: (Sim:0h27m13s) 
CPU  0 inst:   31000000 cyc:   34234972 now IPC :0.91618: AVG IPC :0.87216: L2-Pf-HR :0.89444: L2-HR :0.77539: (Sim:0h27m21s) 
CPU  3 inst:   32000005 cyc:   34485094 now IPC :0.92040: AVG IPC :0.89549: L2-Pf-HR :0.89424: L2-HR :0.77573: (Sim:0h27m31s) 
CPU  1 inst:   33000000 cyc:   34959619 now IPC :0.79684: AVG IPC :0.91242: L2-Pf-HR :0.88962: L2-HR :0.77669: (Sim:0h27m53s) 
CPU  2 inst:   33000000 cyc:   35234328 now IPC :0.83474: AVG IPC :0.90510: L2-Pf-HR :0.89036: L2-HR :0.77384: (Sim:0h28m6s) 
CPU  0 inst:   32000003 cyc:   35411257 now IPC :0.85014: AVG IPC :0.87140: L2-Pf-HR :0.89384: L2-HR :0.77657: (Sim:0h28m14s) 
CPU  3 inst:   33000000 cyc:   35784191 now IPC :0.76976: AVG IPC :0.89079: L2-Pf-HR :0.89166: L2-HR :0.77509: (Sim:0h28m31s) 
CPU  1 inst:   34000004 cyc:   36343552 now IPC :0.72258: AVG IPC :0.90499: L2-Pf-HR :0.88926: L2-HR :0.77638: (Sim:0h28m53s) 
CPU  2 inst:   34000004 cyc:   36386628 now IPC :0.86783: AVG IPC :0.90388: L2-Pf-HR :0.88983: L2-HR :0.77361: (Sim:0h28m55s) 
CPU  0 inst:   33000000 cyc:   36923012 now IPC :0.66148: AVG IPC :0.86257: L2-Pf-HR :0.89129: L2-HR :0.77612: (Sim:0h29m19s) 
CPU  3 inst:   34000004 cyc:   37146056 now IPC :0.73429: AVG IPC :0.88490: L2-Pf-HR :0.89120: L2-HR :0.77482: (Sim:0h29m28s) 
CPU  2 inst:   35000002 cyc:   37714647 now IPC :0.75300: AVG IPC :0.89843: L2-Pf-HR :0.88930: L2-HR :0.77329: (Sim:0h29m53s) 
CPU  1 inst:   35000001 cyc:   37730662 now IPC :0.72092: AVG IPC :0.89804: L2-Pf-HR :0.88899: L2-HR :0.77602: (Sim:0h29m54s) 
CPU  0 inst:   34000004 cyc:   38332944 now IPC :0.70926: AVG IPC :0.85679: L2-Pf-HR :0.89070: L2-HR :0.77582: (Sim:0h30m19s) 
CPU  3 inst:   35000002 cyc:   38344947 now IPC :0.83410: AVG IPC :0.88327: L2-Pf-HR :0.89059: L2-HR :0.77446: (Sim:0h30m20s) 
CPU  2 inst:   36000005 cyc:   39004656 now IPC :0.77519: AVG IPC :0.89425: L2-Pf-HR :0.88802: L2-HR :0.77255: (Sim:0h30m51s) 
CPU  1 inst:   36000005 cyc:   39081051 now IPC :0.74053: AVG IPC :0.89246: L2-Pf-HR :0.88778: L2-HR :0.77517: (Sim:0h30m54s) 
CPU  3 inst:   36000005 cyc:   39349700 now IPC :0.99527: AVG IPC :0.88620: L2-Pf-HR :0.88937: L2-HR :0.77385: (Sim:0h31m3s) 
CPU  0 inst:   35000003 cyc:   39586606 now IPC :0.79766: AVG IPC :0.85487: L2-Pf-HR :0.89008: L2-HR :0.77544: (Sim:0h31m10s) 
CPU  2 inst:   37000002 cyc:   40331407 now IPC :0.75372: AVG IPC :0.88951: L2-Pf-HR :0.88783: L2-HR :0.77232: (Sim:0h31m34s) 
CPU  1 inst:   37000003 cyc:   40481280 now IPC :0.71417: AVG IPC :0.88614: L2-Pf-HR :0.88779: L2-HR :0.77480: (Sim:0h31m39s) 
CPU  3 inst:   37000003 cyc:   40547026 now IPC :0.83519: AVG IPC :0.88466: L2-Pf-HR :0.88922: L2-HR :0.77350: (Sim:0h31m40s) 
CPU  0 inst:   36000005 cyc:   40756076 now IPC :0.85509: AVG IPC :0.85487: L2-Pf-HR :0.88889: L2-HR :0.77477: (Sim:0h31m47s) 
CPU  2 inst:   38000003 cyc:   41516286 now IPC :0.84397: AVG IPC :0.88818: L2-Pf-HR :0.88756: L2-HR :0.77191: (Sim:0h32m14s) 
CPU  1 inst:   38000003 cyc:   41737293 now IPC :0.79617: AVG IPC :0.88336: L2-Pf-HR :0.88755: L2-HR :0.77436: (Sim:0h32m23s) 
CPU  3 inst:   38000003 cyc:   41818592 now IPC :0.78643: AVG IPC :0.88160: L2-Pf-HR :0.88936: L2-HR :0.77319: (Sim:0h32m26s) 
CPU  0 inst:   37000003 cyc:   41932402 now IPC :0.85010: AVG IPC :0.85474: L2-Pf-HR :0.88878: L2-HR :0.77435: (Sim:0h32m31s) 
CPU  2 inst:   39000003 cyc:   42855162 now IPC :0.74690: AVG IPC :0.88366: L2-Pf-HR :0.88675: L2-HR :0.77162: (Sim:0h33m7s) 
CPU  1 inst:   39000003 cyc:   43079834 now IPC :0.74486: AVG IPC :0.87895: L2-Pf-HR :0.88683: L2-HR :0.77420: (Sim:0h33m17s) 
CPU  0 inst:   38000003 cyc:   43117715 now IPC :0.84366: AVG IPC :0.85442: L2-Pf-HR :0.88876: L2-HR :0.77398: (Sim:0h33m19s) 
CPU  3 inst:   39000003 cyc:   43169026 now IPC :0.74050: AVG IPC :0.87708: L2-Pf-HR :0.88860: L2-HR :0.77288: (Sim:0h33m21s) 
CPU  2 inst:   40000003 cyc:   43926712 now IPC :0.93323: AVG IPC :0.88490: L2-Pf-HR :0.88774: L2-HR :0.77135: (Sim:0h33m53s) 
CPU  1 inst:   40000003 cyc:   44274538 now IPC :0.83703: AVG IPC :0.87779: L2-Pf-HR :0.88785: L2-HR :0.77408: (Sim:0h34m9s) 
CPU  0 inst:   39000003 cyc:   44302247 now IPC :0.84422: AVG IPC :0.85415: L2-Pf-HR :0.88803: L2-HR :0.77363: (Sim:0h34m10s) 
CPU  3 inst:   40000003 cyc:   44340471 now IPC :0.85365: AVG IPC :0.87645: L2-Pf-HR :0.88969: L2-HR :0.77282: (Sim:0h34m12s) 
CPU  2 inst:   41000003 cyc:   44969225 now IPC :0.95922: AVG IPC :0.88666: L2-Pf-HR :0.88861: L2-HR :0.77107: (Sim:0h34m37s) 
CPU  0 inst:   40000003 cyc:   45379371 now IPC :0.92840: AVG IPC :0.85595: L2-Pf-HR :0.88900: L2-HR :0.77332: (Sim:0h34m55s) 
CPU  1 inst:   41000003 cyc:   45389728 now IPC :0.89671: AVG IPC :0.87826: L2-Pf-HR :0.88883: L2-HR :0.77400: (Sim:0h34m56s) 
CPU  3 inst:   41000003 cyc:   45433281 now IPC :0.91507: AVG IPC :0.87740: L2-Pf-HR :0.89064: L2-HR :0.77272: (Sim:0h34m58s) 
CPU  2 inst:   42000001 cyc:   45988880 now IPC :0.98072: AVG IPC :0.88879: L2-Pf-HR :0.88880: L2-HR :0.77045: (Sim:0h35m27s) 
CPU  1 inst:   42000001 cyc:   46437502 now IPC :0.95440: AVG IPC :0.88002: L2-Pf-HR :0.88888: L2-HR :0.77348: (Sim:0h35m49s) 
CPU  3 inst:   42000001 cyc:   46470269 now IPC :0.96433: AVG IPC :0.87938: L2-Pf-HR :0.89097: L2-HR :0.77236: (Sim:0h35m51s) 
CPU  0 inst:   41000003 cyc:   46472518 now IPC :0.91479: AVG IPC :0.85736: L2-Pf-HR :0.88984: L2-HR :0.77299: (Sim:0h35m51s) 
CPU  2 inst:   43000001 cyc:   47054442 now IPC :0.93847: AVG IPC :0.88994: L2-Pf-HR :0.88965: L2-HR :0.77020: (Sim:0h36m20s) 
CPU  0 inst:   42000001 cyc:   47481122 now IPC :0.99147: AVG IPC :0.86027: L2-Pf-HR :0.89007: L2-HR :0.77238: (Sim:0h36m42s) 
CPU  1 inst:   43000002 cyc:   47484145 now IPC :0.95544: AVG IPC :0.88172: L2-Pf-HR :0.88969: L2-HR :0.77357: (Sim:0h36m42s) 
CPU  3 inst:   43000003 cyc:   47532571 now IPC :0.94135: AVG IPC :0.88080: L2-Pf-HR :0.89172: L2-HR :0.77229: (Sim:0h36m45s) 
CPU  2 inst:   44000001 cyc:   48091215 now IPC :0.96453: AVG IPC :0.89158: L2-Pf-HR :0.89049: L2-HR :0.76997: (Sim:0h37m13s) 
CPU  1 inst:   44000001 cyc:   48495999 now IPC :0.98828: AVG IPC :0.88399: L2-Pf-HR :0.89049: L2-HR :0.77355: (Sim:0h37m34s) 
CPU  0 inst:   43000003 cyc:   48507380 now IPC :0.97442: AVG IPC :0.86273: L2-Pf-HR :0.89081: L2-HR :0.77215: (Sim:0h37m35s) 
CPU  3 inst:   44000001 cyc:   48617811 now IPC :0.92145: AVG IPC :0.88172: L2-Pf-HR :0.89256: L2-HR :0.77224: (Sim:0h37m40s) 
CPU  2 inst:   45000005 cyc:   49293561 now IPC :0.83171: AVG IPC :0.89009: L2-Pf-HR :0.89013: L2-HR :0.77015: (Sim:0h38m10s) 
CPU  1 inst:   45000005 cyc:   49607025 now IPC :0.90007: AVG IPC :0.88435: L2-Pf-HR :0.89062: L2-HR :0.77391: (Sim:0h38m26s) 
CPU  0 inst:   44000001 cyc:   49654528 now IPC :0.87173: AVG IPC :0.86295: L2-Pf-HR :0.89164: L2-HR :0.77189: (Sim:0h38m29s) 
CPU  3 inst:   45000005 cyc:   49811826 now IPC :0.83751: AVG IPC :0.88064: L2-Pf-HR :0.89224: L2-HR :0.77246: (Sim:0h38m36s) 
CPU  2 inst:   46000002 cyc:   50441779 now IPC :0.87091: AVG IPC :0.88964: L2-Pf-HR :0.89055: L2-HR :0.77086: (Sim:0h39m7s) 
CPU  1 inst:   46000002 cyc:   50651396 now IPC :0.95751: AVG IPC :0.88589: L2-Pf-HR :0.89114: L2-HR :0.77446: (Sim:0h39m17s) 
CPU  0 inst:   45000005 cyc:   50767876 now IPC :0.89820: AVG IPC :0.86374: L2-Pf-HR :0.89134: L2-HR :0.77206: (Sim:0h39m23s) 
CPU  3 inst:   46000002 cyc:   50931330 now IPC :0.89325: AVG IPC :0.88092: L2-Pf-HR :0.89273: L2-HR :0.77327: (Sim:0h39m31s) 
CPU  2 inst:   47000003 cyc:   51504842 now IPC :0.94068: AVG IPC :0.89072: L2-Pf-HR :0.89000: L2-HR :0.77162: (Sim:0h40m1s) 
CPU  1 inst:   47000003 cyc:   51601982 now IPC :1.05198: AVG IPC :0.88901: L2-Pf-HR :0.89108: L2-HR :0.77511: (Sim:0h40m6s) 
CPU  0 inst:   46000002 cyc:   51807242 now IPC :0.96212: AVG IPC :0.86575: L2-Pf-HR :0.89185: L2-HR :0.77287: (Sim:0h40m16s) 
CPU  3 inst:   47000003 cyc:   52004313 now IPC :0.93198: AVG IPC :0.88200: L2-Pf-HR :0.89267: L2-HR :0.77410: (Sim:0h40m26s) 
CPU  2 inst:   48000000 cyc:   52698995 now IPC :0.83741: AVG IPC :0.88949: L2-Pf-HR :0.88970: L2-HR :0.77266: (Sim:0h40m59s) 
CPU  1 inst:   48000000 cyc:   52715808 now IPC :0.89780: AVG IPC :0.88920: L2-Pf-HR :0.89059: L2-HR :0.77607: (Sim:0h41m0s) 
CPU  0 inst:   47000003 cyc:   52795185 now IPC :1.01221: AVG IPC :0.86854: L2-Pf-HR :0.89160: L2-HR :0.77367: (Sim:0h41m4s) 
CPU  3 inst:   48000000 cyc:   53197367 now IPC :0.83818: AVG IPC :0.88100: L2-Pf-HR :0.89258: L2-HR :0.77498: (Sim:0h41m23s) 
CPU  0 inst:   48000000 cyc:   54030432 now IPC :0.80955: AVG IPC :0.86717: L2-Pf-HR :0.89101: L2-HR :0.77466: (Sim:0h41m53s) 
CPU  2 inst:   49000001 cyc:   54182263 now IPC :0.67419: AVG IPC :0.88348: L2-Pf-HR :0.88803: L2-HR :0.77264: (Sim:0h41m58s) 
CPU  1 inst:   49000001 cyc:   54219822 now IPC :0.66489: AVG IPC :0.88286: L2-Pf-HR :0.88921: L2-HR :0.77610: (Sim:0h42m0s) 
CPU  3 inst:   49000001 cyc:   54515209 now IPC :0.75882: AVG IPC :0.87799: L2-Pf-HR :0.89063: L2-HR :0.77478: (Sim:0h42m12s) 
CPU  2 inst:   50000005 cyc:   55333423 now IPC :0.86869: AVG IPC :0.88317: L2-Pf-HR :0.88794: L2-HR :0.77283: (Sim:0h42m45s) 
CPU  0 inst:   49000005 cyc:   55407213 now IPC :0.72634: AVG IPC :0.86360: L2-Pf-HR :0.88951: L2-HR :0.77451: (Sim:0h42m48s) 
CPU  1 inst:   50000005 cyc:   55520333 now IPC :0.76893: AVG IPC :0.88015: L2-Pf-HR :0.88924: L2-HR :0.77618: (Sim:0h42m53s) 
CPU  3 inst:   50000005 cyc:   55755298 now IPC :0.80640: AVG IPC :0.87637: L2-Pf-HR :0.89067: L2-HR :0.77458: (Sim:0h43m2s) 
CPU  2 inst:   51000004 cyc:   56415352 now IPC :0.92427: AVG IPC :0.88397: L2-Pf-HR :0.88814: L2-HR :0.77309: (Sim:0h43m30s) 
CPU  0 inst:   50000005 cyc:   56697590 now IPC :0.77497: AVG IPC :0.86155: L2-Pf-HR :0.88923: L2-HR :0.77429: (Sim:0h43m42s) 
CPU  1 inst:   51000004 cyc:   56716640 now IPC :0.83591: AVG IPC :0.87920: L2-Pf-HR :0.88948: L2-HR :0.77639: (Sim:0h43m43s) 
CPU  3 inst:   51000004 cyc:   57021184 now IPC :0.78996: AVG IPC :0.87442: L2-Pf-HR :0.89060: L2-HR :0.77437: (Sim:0h43m56s) 
CPU  2 inst:   52000004 cyc:   57535117 now IPC :0.89304: AVG IPC :0.88415: L2-Pf-HR :0.88811: L2-HR :0.77311: (Sim:0h44m17s) 
CPU  1 inst:   52000004 cyc:   57779358 now IPC :0.94098: AVG IPC :0.88035: L2-Pf-HR :0.88943: L2-HR :0.77643: (Sim:0h44m26s) 
CPU  0 inst:   51000004 cyc:   58096713 now IPC :0.71473: AVG IPC :0.85795: L2-Pf-HR :0.88903: L2-HR :0.77405: (Sim:0h44m40s) 
CPU  3 inst:   52000004 cyc:   58348103 now IPC :0.75363: AVG IPC :0.87162: L2-Pf-HR :0.89004: L2-HR :0.77380: (Sim:0h44m50s) 
CPU  2 inst:   53000003 cyc:   58877599 now IPC :0.74489: AVG IPC :0.88092: L2-Pf-HR :0.88799: L2-HR :0.77324: (Sim:0h45m11s) 
CPU  1 inst:   53000003 cyc:   58970063 now IPC :0.83984: AVG IPC :0.87952: L2-Pf-HR :0.88937: L2-HR :0.77655: (Sim:0h45m15s) 
CPU  0 inst:   52000004 cyc:   59375245 now IPC :0.78215: AVG IPC :0.85629: L2-Pf-HR :0.88851: L2-HR :0.77359: (Sim:0h45m30s) 
CPU  3 inst:   53000003 cyc:   59684537 now IPC :0.74826: AVG IPC :0.86881: L2-Pf-HR :0.88974: L2-HR :0.77359: (Sim:0h45m42s) 
CPU  2 inst:   54000000 cyc:   60218900 now IPC :0.74554: AVG IPC :0.87786: L2-Pf-HR :0.88796: L2-HR :0.77352: (Sim:0h46m3s) 
CPU  1 inst:   54000000 cyc:   60291527 now IPC :0.75673: AVG IPC :0.87678: L2-Pf-HR :0.88924: L2-HR :0.77655: (Sim:0h46m5s) 
CPU  0 inst:   53000003 cyc:   60852237 now IPC :0.67705: AVG IPC :0.85187: L2-Pf-HR :0.88822: L2-HR :0.77326: (Sim:0h46m27s) 
CPU  3 inst:   54000000 cyc:   61022937 now IPC :0.74716: AVG IPC :0.86610: L2-Pf-HR :0.88950: L2-HR :0.77338: (Sim:0h46m34s) 
CPU  1 inst:   55000005 cyc:   61755416 now IPC :0.68312: AVG IPC :0.87212: L2-Pf-HR :0.88862: L2-HR :0.77653: (Sim:0h47m1s) 
CPU  2 inst:   55000005 cyc:   61760218 now IPC :0.64880: AVG IPC :0.87205: L2-Pf-HR :0.88725: L2-HR :0.77345: (Sim:0h47m1s) 
CPU  0 inst:   54000000 cyc:   62167074 now IPC :0.76055: AVG IPC :0.84991: L2-Pf-HR :0.88803: L2-HR :0.77313: (Sim:0h47m15s) 
CPU  3 inst:   55000005 cyc:   62461884 now IPC :0.69496: AVG IPC :0.86210: L2-Pf-HR :0.88887: L2-HR :0.77312: (Sim:0h47m27s) 
CPU  1 inst:   56000001 cyc:   63132126 now IPC :0.72637: AVG IPC :0.86889: L2-Pf-HR :0.88930: L2-HR :0.77632: (Sim:0h47m53s) 
CPU  2 inst:   56000001 cyc:   63145874 now IPC :0.72168: AVG IPC :0.86870: L2-Pf-HR :0.88793: L2-HR :0.77333: (Sim:0h47m54s) 
CPU  0 inst:   55000005 cyc:   63465400 now IPC :0.77023: AVG IPC :0.84825: L2-Pf-HR :0.88727: L2-HR :0.77288: (Sim:0h48m7s) 
CPU  3 inst:   56000001 cyc:   63610185 now IPC :0.87085: AVG IPC :0.86226: L2-Pf-HR :0.88957: L2-HR :0.77293: (Sim:0h48m13s) 
CPU  1 inst:   57000001 cyc:   64343630 now IPC :0.82542: AVG IPC :0.86806: L2-Pf-HR :0.88990: L2-HR :0.77613: (Sim:0h48m45s) 
CPU  2 inst:   57000001 cyc:   64356322 now IPC :0.82614: AVG IPC :0.86788: L2-Pf-HR :0.88855: L2-HR :0.77321: (Sim:0h48m45s) 
CPU  0 inst:   56000001 cyc:   64541164 now IPC :0.92957: AVG IPC :0.84963: L2-Pf-HR :0.88795: L2-HR :0.77268: (Sim:0h48m54s) 
CPU  3 inst:   57000001 cyc:   64675825 now IPC :0.93840: AVG IPC :0.86353: L2-Pf-HR :0.89019: L2-HR :0.77271: (Sim:0h48m59s) 
CPU  1 inst:   58000001 cyc:   65503621 now IPC :0.86208: AVG IPC :0.86795: L2-Pf-HR :0.89015: L2-HR :0.77580: (Sim:0h49m37s) 
CPU  2 inst:   58000001 cyc:   65535129 now IPC :0.84832: AVG IPC :0.86753: L2-Pf-HR :0.88884: L2-HR :0.77292: (Sim:0h49m38s) 
CPU  0 inst:   57000001 cyc:   65615017 now IPC :0.93123: AVG IPC :0.85099: L2-Pf-HR :0.88856: L2-HR :0.77245: (Sim:0h49m41s) 
CPU  3 inst:   58000001 cyc:   65643719 now IPC :1.03317: AVG IPC :0.86607: L2-Pf-HR :0.89037: L2-HR :0.77228: (Sim:0h49m43s) 
CPU  0 inst:   58000001 cyc:   66664524 now IPC :0.95283: AVG IPC :0.85261: L2-Pf-HR :0.88868: L2-HR :0.77198: (Sim:0h50m30s) 
CPU  1 inst:   59000005 cyc:   66707236 now IPC :0.83083: AVG IPC :0.86727: L2-Pf-HR :0.89039: L2-HR :0.77561: (Sim:0h50m32s) 
CPU  2 inst:   59000005 cyc:   66891097 now IPC :0.73748: AVG IPC :0.86485: L2-Pf-HR :0.88943: L2-HR :0.77283: (Sim:0h50m40s) 
CPU  3 inst:   59000005 cyc:   66929095 now IPC :0.77799: AVG IPC :0.86435: L2-Pf-HR :0.89049: L2-HR :0.77210: (Sim:0h50m42s) 
CPU  1 inst:   60000001 cyc:   67650591 now IPC :1.06004: AVG IPC :0.87000: L2-Pf-HR :0.89080: L2-HR :0.77562: (Sim:0h51m18s) 
CPU  0 inst:   59000005 cyc:   67872051 now IPC :0.82814: AVG IPC :0.85217: L2-Pf-HR :0.88911: L2-HR :0.77190: (Sim:0h51m28s) 
CPU  2 inst:   60000001 cyc:   68097455 now IPC :0.82894: AVG IPC :0.86421: L2-Pf-HR :0.89007: L2-HR :0.77272: (Sim:0h51m39s) 
CPU  3 inst:   60000000 cyc:   68193729 now IPC :0.79074: AVG IPC :0.86297: L2-Pf-HR :0.89112: L2-HR :0.77208: (Sim:0h51m44s) 
CPU  1 inst:   61000005 cyc:   68737407 now IPC :0.92012: AVG IPC :0.87080: L2-Pf-HR :0.89058: L2-HR :0.77563: (Sim:0h52m9s) 
CPU  0 inst:   60000001 cyc:   69256421 now IPC :0.72235: AVG IPC :0.84954: L2-Pf-HR :0.88976: L2-HR :0.77180: (Sim:0h52m28s) 
CPU  2 inst:   61000005 cyc:   69454897 now IPC :0.73668: AVG IPC :0.86168: L2-Pf-HR :0.88982: L2-HR :0.77270: (Sim:0h52m37s) 
CPU  3 inst:   61000005 cyc:   69564183 now IPC :0.72969: AVG IPC :0.86030: L2-Pf-HR :0.89093: L2-HR :0.77215: (Sim:0h52m42s) 
CPU  1 inst:   62000000 cyc:   70177314 now IPC :0.69449: AVG IPC :0.86714: L2-Pf-HR :0.89103: L2-HR :0.77607: (Sim:0h53m10s) 
CPU  0 inst:   61000005 cyc:   70328137 now IPC :0.93309: AVG IPC :0.85083: L2-Pf-HR :0.88950: L2-HR :0.77187: (Sim:0h53m17s) 
CPU  2 inst:   62000000 cyc:   70666456 now IPC :0.82538: AVG IPC :0.86105: L2-Pf-HR :0.89022: L2-HR :0.77316: (Sim:0h53m33s) 
CPU  3 inst:   62000000 cyc:   70809843 now IPC :0.80278: AVG IPC :0.85928: L2-Pf-HR :0.89139: L2-HR :0.77272: (Sim:0h53m40s) 
CPU  1 inst:   63000001 cyc:   71304434 now IPC :0.88722: AVG IPC :0.86746: L2-Pf-HR :0.89108: L2-HR :0.77661: (Sim:0h54m5s) 
CPU  0 inst:   62000000 cyc:   71447248 now IPC :0.89356: AVG IPC :0.85151: L2-Pf-HR :0.88998: L2-HR :0.77242: (Sim:0h54m12s) 
CPU  2 inst:   63000001 cyc:   71629296 now IPC :1.03860: AVG IPC :0.86347: L2-Pf-HR :0.89007: L2-HR :0.77363: (Sim:0h54m22s) 
CPU  3 inst:   63000001 cyc:   71885816 now IPC :0.92939: AVG IPC :0.86034: L2-Pf-HR :0.89125: L2-HR :0.77326: (Sim:0h54m35s) 
CPU  1 inst:   64000003 cyc:   72406929 now IPC :0.90704: AVG IPC :0.86807: L2-Pf-HR :0.89095: L2-HR :0.77716: (Sim:0h55m1s) 
CPU  0 inst:   63000001 cyc:   72517733 now IPC :0.93416: AVG IPC :0.85275: L2-Pf-HR :0.88984: L2-HR :0.77297: (Sim:0h55m6s) 
CPU  2 inst:   64000003 cyc:   72580975 now IPC :1.05078: AVG IPC :0.86596: L2-Pf-HR :0.89023: L2-HR :0.77435: (Sim:0h55m9s) 
CPU  3 inst:   64000003 cyc:   73112891 now IPC :0.81495: AVG IPC :0.85957: L2-Pf-HR :0.89148: L2-HR :0.77399: (Sim:0h55m33s) 
CPU  1 inst:   65000000 cyc:   73770339 now IPC :0.73345: AVG IPC :0.86555: L2-Pf-HR :0.88980: L2-HR :0.77705: (Sim:0h55m57s) 
CPU  0 inst:   64000003 cyc:   73858114 now IPC :0.74606: AVG IPC :0.85078: L2-Pf-HR :0.88994: L2-HR :0.77370: (Sim:0h55m59s) 
CPU  2 inst:   65000000 cyc:   73902209 now IPC :0.75687: AVG IPC :0.86398: L2-Pf-HR :0.88893: L2-HR :0.77423: (Sim:0h56m1s) 
CPU  3 inst:   65000000 cyc:   74639687 now IPC :0.65496: AVG IPC :0.85533: L2-Pf-HR :0.89020: L2-HR :0.77393: (Sim:0h56m22s) 
CPU  1 inst:   66000002 cyc:   75059306 now IPC :0.77582: AVG IPC :0.86398: L2-Pf-HR :0.88973: L2-HR :0.77686: (Sim:0h56m33s) 
CPU  0 inst:   65000000 cyc:   75107007 now IPC :0.80071: AVG IPC :0.84994: L2-Pf-HR :0.88859: L2-HR :0.77363: (Sim:0h56m34s) 
CPU  2 inst:   66000002 cyc:   75168388 now IPC :0.78978: AVG IPC :0.86271: L2-Pf-HR :0.88868: L2-HR :0.77411: (Sim:0h56m36s) 
CPU  3 inst:   66000000 cyc:   76065398 now IPC :0.70140: AVG IPC :0.85241: L2-Pf-HR :0.89009: L2-HR :0.77380: (Sim:0h57m1s) 
CPU  0 inst:   66000002 cyc:   76254839 now IPC :0.87121: AVG IPC :0.85026: L2-Pf-HR :0.88845: L2-HR :0.77350: (Sim:0h57m6s) 
CPU  1 inst:   67000001 cyc:   76507236 now IPC :0.69064: AVG IPC :0.86066: L2-Pf-HR :0.88953: L2-HR :0.77666: (Sim:0h57m13s) 
CPU  2 inst:   67000001 cyc:   76607732 now IPC :0.69476: AVG IPC :0.85952: L2-Pf-HR :0.88845: L2-HR :0.77397: (Sim:0h57m15s) 
CPU  3 inst:   67000001 cyc:   77484957 now IPC :0.70444: AVG IPC :0.84966: L2-Pf-HR :0.88984: L2-HR :0.77365: (Sim:0h57m38s) 
CPU  0 inst:   67000001 cyc:   77679105 now IPC :0.70212: AVG IPC :0.84751: L2-Pf-HR :0.88816: L2-HR :0.77336: (Sim:0h57m45s) 
CPU  1 inst:   68000001 cyc:   77904794 now IPC :0.71553: AVG IPC :0.85802: L2-Pf-HR :0.88895: L2-HR :0.77620: (Sim:0h57m52s) 
CPU  2 inst:   68000001 cyc:   78011937 now IPC :0.71215: AVG IPC :0.85683: L2-Pf-HR :0.88789: L2-HR :0.77352: (Sim:0h57m56s) 
CPU  3 inst:   68000004 cyc:   78935681 now IPC :0.68931: AVG IPC :0.84668: L2-Pf-HR :0.88938: L2-HR :0.77320: (Sim:0h58m34s) 
CPU  0 inst:   68000001 cyc:   79076050 now IPC :0.71585: AVG IPC :0.84516: L2-Pf-HR :0.88764: L2-HR :0.77296: (Sim:0h58m39s) 
CPU  1 inst:   69000002 cyc:   79472064 now IPC :0.63805: AVG IPC :0.85363: L2-Pf-HR :0.88868: L2-HR :0.77601: (Sim:0h58m51s) 
CPU  2 inst:   69000002 cyc:   79558595 now IPC :0.64656: AVG IPC :0.85269: L2-Pf-HR :0.88767: L2-HR :0.77350: (Sim:0h58m55s) 
CPU  3 inst:   69000002 cyc:   80109313 now IPC :0.85205: AVG IPC :0.84676: L2-Pf-HR :0.88921: L2-HR :0.77310: (Sim:0h59m20s) 
CPU  0 inst:   69000002 cyc:   80536274 now IPC :0.68483: AVG IPC :0.84221: L2-Pf-HR :0.88751: L2-HR :0.77287: (Sim:0h59m39s) 
CPU  1 inst:   70000001 cyc:   80850374 now IPC :0.72553: AVG IPC :0.85142: L2-Pf-HR :0.88877: L2-HR :0.77580: (Sim:0h59m53s) 
CPU  2 inst:   70000001 cyc:   81000740 now IPC :0.69341: AVG IPC :0.84982: L2-Pf-HR :0.88758: L2-HR :0.77326: (Sim:1h0m0s) 
CPU  3 inst:   70000001 cyc:   81217749 now IPC :0.90217: AVG IPC :0.84752: L2-Pf-HR :0.88933: L2-HR :0.77284: (Sim:1h0m9s) 
CPU  0 inst:   70000001 cyc:   81986939 now IPC :0.68934: AVG IPC :0.83948: L2-Pf-HR :0.88749: L2-HR :0.77264: (Sim:1h0m44s) 
CPU  1 inst:   71000004 cyc:   82323182 now IPC :0.67898: AVG IPC :0.84830: L2-Pf-HR :0.88818: L2-HR :0.77561: (Sim:1h0m56s) 
CPU  2 inst:   71000003 cyc:   82518652 now IPC :0.65880: AVG IPC :0.84626: L2-Pf-HR :0.88709: L2-HR :0.77307: (Sim:1h1m4s) 
CPU  3 inst:   71000003 cyc:   82622472 now IPC :0.71189: AVG IPC :0.84519: L2-Pf-HR :0.88884: L2-HR :0.77267: (Sim:1h1m9s) 
CPU  1 inst:   72000003 cyc:   83445762 now IPC :0.89080: AVG IPC :0.84888: L2-Pf-HR :0.88874: L2-HR :0.77545: (Sim:1h1m46s) 
CPU  0 inst:   71000001 cyc:   83514525 now IPC :0.65463: AVG IPC :0.83606: L2-Pf-HR :0.88699: L2-HR :0.77245: (Sim:1h1m49s) 
CPU  2 inst:   72000003 cyc:   83892020 now IPC :0.72814: AVG IPC :0.84431: L2-Pf-HR :0.88759: L2-HR :0.77299: (Sim:1h2m6s) 
CPU  3 inst:   72000003 cyc:   83977663 now IPC :0.73790: AVG IPC :0.84344: L2-Pf-HR :0.88944: L2-HR :0.77257: (Sim:1h2m10s) 
CPU  1 inst:   73000003 cyc:   84456545 now IPC :0.98933: AVG IPC :0.85058: L2-Pf-HR :0.88922: L2-HR :0.77526: (Sim:1h2m31s) 
CPU  0 inst:   72000003 cyc:   84963882 now IPC :0.68996: AVG IPC :0.83353: L2-Pf-HR :0.88751: L2-HR :0.77230: (Sim:1h2m52s) 
CPU  2 inst:   73000003 cyc:   85173767 now IPC :0.78019: AVG IPC :0.84333: L2-Pf-HR :0.88803: L2-HR :0.77290: (Sim:1h3m2s) 
CPU  3 inst:   73000003 cyc:   85434370 now IPC :0.68648: AVG IPC :0.84073: L2-Pf-HR :0.88996: L2-HR :0.77243: (Sim:1h3m13s) 
CPU  1 inst:   74000004 cyc:   85738955 now IPC :0.77978: AVG IPC :0.84951: L2-Pf-HR :0.88941: L2-HR :0.77492: (Sim:1h3m27s) 
CPU  2 inst:   74000004 cyc:   86208575 now IPC :0.96636: AVG IPC :0.84482: L2-Pf-HR :0.88818: L2-HR :0.77263: (Sim:1h3m50s) 
CPU  0 inst:   73000003 cyc:   86333334 now IPC :0.73022: AVG IPC :0.83188: L2-Pf-HR :0.88795: L2-HR :0.77212: (Sim:1h3m55s) 
CPU  3 inst:   74000004 cyc:   86683360 now IPC :0.80065: AVG IPC :0.84014: L2-Pf-HR :0.89017: L2-HR :0.77212: (Sim:1h4m12s) 
CPU  1 inst:   75000003 cyc:   87037784 now IPC :0.76992: AVG IPC :0.84831: L2-Pf-HR :0.88969: L2-HR :0.77479: (Sim:1h4m28s) 
CPU  2 inst:   75000003 cyc:   87207890 now IPC :1.00068: AVG IPC :0.84663: L2-Pf-HR :0.88864: L2-HR :0.77251: (Sim:1h4m36s) 
CPU  0 inst:   74000004 cyc:   87624567 now IPC :0.77445: AVG IPC :0.83102: L2-Pf-HR :0.88811: L2-HR :0.77178: (Sim:1h4m54s) 
CPU  3 inst:   75000003 cyc:   88103905 now IPC :0.70395: AVG IPC :0.83792: L2-Pf-HR :0.89052: L2-HR :0.77202: (Sim:1h5m15s) 
CPU  1 inst:   76000000 cyc:   88376412 now IPC :0.74703: AVG IPC :0.84675: L2-Pf-HR :0.89000: L2-HR :0.77468: (Sim:1h5m28s) 
CPU  2 inst:   76000000 cyc:   88504166 now IPC :0.77144: AVG IPC :0.84552: L2-Pf-HR :0.88907: L2-HR :0.77240: (Sim:1h5m34s) 
CPU  0 inst:   75000003 cyc:   88682977 now IPC :0.94481: AVG IPC :0.83239: L2-Pf-HR :0.88858: L2-HR :0.77161: (Sim:1h5m43s) 
CPU  3 inst:   76000000 cyc:   89337194 now IPC :0.81084: AVG IPC :0.83755: L2-Pf-HR :0.89091: L2-HR :0.77196: (Sim:1h6m15s) 
CPU  1 inst:   77000002 cyc:   89590169 now IPC :0.82389: AVG IPC :0.84644: L2-Pf-HR :0.88990: L2-HR :0.77462: (Sim:1h6m26s) 
CPU  0 inst:   76000000 cyc:   89691673 now IPC :0.99138: AVG IPC :0.83420: L2-Pf-HR :0.88902: L2-HR :0.77145: (Sim:1h6m31s) 
CPU  2 inst:   77000002 cyc:   89702933 now IPC :0.83419: AVG IPC :0.84536: L2-Pf-HR :0.88892: L2-HR :0.77239: (Sim:1h6m32s) 
CPU  3 inst:   77000002 cyc:   90449910 now IPC :0.89870: AVG IPC :0.83831: L2-Pf-HR :0.89081: L2-HR :0.77195: (Sim:1h7m10s) 
CPU  1 inst:   78000004 cyc:   90743874 now IPC :0.86677: AVG IPC :0.84670: L2-Pf-HR :0.89022: L2-HR :0.77496: (Sim:1h7m23s) 
CPU  2 inst:   78000004 cyc:   90790933 now IPC :0.91912: AVG IPC :0.84626: L2-Pf-HR :0.88922: L2-HR :0.77271: (Sim:1h7m25s) 
CPU  0 inst:   77000002 cyc:   90827793 now IPC :0.88019: AVG IPC :0.83478: L2-Pf-HR :0.88890: L2-HR :0.77141: (Sim:1h7m27s) 
CPU  3 inst:   78000004 cyc:   91506928 now IPC :0.94606: AVG IPC :0.83956: L2-Pf-HR :0.89112: L2-HR :0.77233: (Sim:1h8m0s) 
CPU  1 inst:   79000000 cyc:   91681123 now IPC :1.06695: AVG IPC :0.84898: L2-Pf-HR :0.89029: L2-HR :0.77550: (Sim:1h8m9s) 
CPU  2 inst:   79000000 cyc:   91847870 now IPC :0.94613: AVG IPC :0.84742: L2-Pf-HR :0.88929: L2-HR :0.77320: (Sim:1h8m18s) 
CPU  0 inst:   78000004 cyc:   92028503 now IPC :0.83284: AVG IPC :0.83476: L2-Pf-HR :0.88924: L2-HR :0.77179: (Sim:1h8m27s) 
CPU  3 inst:   79000000 cyc:   92656476 now IPC :0.86990: AVG IPC :0.83994: L2-Pf-HR :0.89128: L2-HR :0.77289: (Sim:1h8m46s) 
CPU  1 inst:   80000000 cyc:   92707984 now IPC :0.97384: AVG IPC :0.85038: L2-Pf-HR :0.89011: L2-HR :0.77601: (Sim:1h8m48s) 
CPU  2 inst:   80000000 cyc:   92764536 now IPC :1.09091: AVG IPC :0.84985: L2-Pf-HR :0.88898: L2-HR :0.77375: (Sim:1h8m49s) 
CPU  0 inst:   79000000 cyc:   93130109 now IPC :0.90776: AVG IPC :0.83563: L2-Pf-HR :0.88941: L2-HR :0.77234: (Sim:1h9m3s) 
CPU  3 inst:   80000000 cyc:   93849878 now IPC :0.83794: AVG IPC :0.83992: L2-Pf-HR :0.89099: L2-HR :0.77339: (Sim:1h9m26s) 
CPU  1 inst:   81000005 cyc:   94029962 now IPC :0.75645: AVG IPC :0.84904: L2-Pf-HR :0.88922: L2-HR :0.77613: (Sim:1h9m34s) 
CPU  2 inst:   81000005 cyc:   94084400 now IPC :0.75766: AVG IPC :0.84854: L2-Pf-HR :0.88797: L2-HR :0.77381: (Sim:1h9m37s) 
CPU  0 inst:   80000000 cyc:   94295669 now IPC :0.85796: AVG IPC :0.83591: L2-Pf-HR :0.88910: L2-HR :0.77284: (Sim:1h9m46s) 
CPU  3 inst:   81000005 cyc:   95168268 now IPC :0.75850: AVG IPC :0.83878: L2-Pf-HR :0.88993: L2-HR :0.77350: (Sim:1h10m24s) 
CPU  1 inst:   82000005 cyc:   95348324 now IPC :0.75852: AVG IPC :0.84778: L2-Pf-HR :0.88907: L2-HR :0.77614: (Sim:1h10m31s) 
CPU  2 inst:   82000005 cyc:   95511486 now IPC :0.70073: AVG IPC :0.84631: L2-Pf-HR :0.88771: L2-HR :0.77369: (Sim:1h10m38s) 
CPU  0 inst:   81000005 cyc:   95544306 now IPC :0.80088: AVG IPC :0.83545: L2-Pf-HR :0.88813: L2-HR :0.77300: (Sim:1h10m40s) 
CPU  3 inst:   82000005 cyc:   96499644 now IPC :0.75110: AVG IPC :0.83756: L2-Pf-HR :0.88976: L2-HR :0.77338: (Sim:1h11m19s) 
CPU  1 inst:   83000001 cyc:   96552991 now IPC :0.83010: AVG IPC :0.84755: L2-Pf-HR :0.88909: L2-HR :0.77612: (Sim:1h11m21s) 
CPU  0 inst:   82000005 cyc:   96648010 now IPC :0.90604: AVG IPC :0.83626: L2-Pf-HR :0.88795: L2-HR :0.77292: (Sim:1h11m24s) 
CPU  2 inst:   83000001 cyc:   96829149 now IPC :0.75892: AVG IPC :0.84511: L2-Pf-HR :0.88744: L2-HR :0.77353: (Sim:1h11m29s) 
CPU  1 inst:   84000000 cyc:   97584003 now IPC :0.96992: AVG IPC :0.84886: L2-Pf-HR :0.88892: L2-HR :0.77604: (Sim:1h11m52s) 
CPU  3 inst:   83000001 cyc:   97890960 now IPC :0.71874: AVG IPC :0.83585: L2-Pf-HR :0.88969: L2-HR :0.77328: (Sim:1h12m1s) 
CPU  0 inst:   83000001 cyc:   97997332 now IPC :0.74111: AVG IPC :0.83494: L2-Pf-HR :0.88775: L2-HR :0.77274: (Sim:1h12m3s) 
CPU  2 inst:   84000000 cyc:   98221584 now IPC :0.71817: AVG IPC :0.84329: L2-Pf-HR :0.88707: L2-HR :0.77334: (Sim:1h12m10s) 
CPU  1 inst:   85000002 cyc:   98808880 now IPC :0.81641: AVG IPC :0.84845: L2-Pf-HR :0.88879: L2-HR :0.77600: (Sim:1h12m25s) 
CPU  3 inst:   84000000 cyc:   99266091 now IPC :0.72720: AVG IPC :0.83433: L2-Pf-HR :0.88942: L2-HR :0.77299: (Sim:1h12m43s) 
CPU  0 inst:   84000000 cyc:   99375332 now IPC :0.72569: AVG IPC :0.83341: L2-Pf-HR :0.88745: L2-HR :0.77256: (Sim:1h12m47s) 
CPU  2 inst:   85000001 cyc:   99876127 now IPC :0.60440: AVG IPC :0.83930: L2-Pf-HR :0.88680: L2-HR :0.77316: (Sim:1h13m5s) 
CPU  1 inst:   86000001 cyc:  100236516 now IPC :0.70046: AVG IPC :0.84633: L2-Pf-HR :0.88879: L2-HR :0.77598: (Sim:1h13m19s) 
CPU  3 inst:   85000002 cyc:  100491078 now IPC :0.81634: AVG IPC :0.83411: L2-Pf-HR :0.88941: L2-HR :0.77283: (Sim:1h13m29s) 
CPU  0 inst:   85000002 cyc:  100846896 now IPC :0.67955: AVG IPC :0.83114: L2-Pf-HR :0.88732: L2-HR :0.77239: (Sim:1h13m43s) 
CPU  2 inst:   86000001 cyc:  101336592 now IPC :0.68471: AVG IPC :0.83705: L2-Pf-HR :0.88658: L2-HR :0.77307: (Sim:1h14m3s) 
CPU  3 inst:   86000001 cyc:  101666474 now IPC :0.85078: AVG IPC :0.83430: L2-Pf-HR :0.88946: L2-HR :0.77267: (Sim:1h14m15s) 
CPU  1 inst:   87000003 cyc:  101720974 now IPC :0.67365: AVG IPC :0.84378: L2-Pf-HR :0.88841: L2-HR :0.77593: (Sim:1h14m17s) 
CPU  0 inst:   86000001 cyc:  102136581 now IPC :0.77538: AVG IPC :0.83043: L2-Pf-HR :0.88718: L2-HR :0.77232: (Sim:1h14m34s) 
CPU  2 inst:   87000003 cyc:  102883692 now IPC :0.64637: AVG IPC :0.83415: L2-Pf-HR :0.88585: L2-HR :0.77284: (Sim:1h15m3s) 
CPU  3 inst:   87000003 cyc:  103007657 now IPC :0.74561: AVG IPC :0.83314: L2-Pf-HR :0.88882: L2-HR :0.77253: (Sim:1h15m7s) 
CPU  1 inst:   88000002 cyc:  103102519 now IPC :0.72383: AVG IPC :0.84216: L2-Pf-HR :0.88882: L2-HR :0.77576: (Sim:1h15m12s) 
CPU  0 inst:   87000003 cyc:  103385215 now IPC :0.80088: AVG IPC :0.83007: L2-Pf-HR :0.88653: L2-HR :0.77218: (Sim:1h15m21s) 
CPU  2 inst:   88000005 cyc:  104194970 now IPC :0.76262: AVG IPC :0.83324: L2-Pf-HR :0.88631: L2-HR :0.77271: (Sim:1h15m57s) 
CPU  3 inst:   88000001 cyc:  104267700 now IPC :0.79362: AVG IPC :0.83266: L2-Pf-HR :0.88924: L2-HR :0.77240: (Sim:1h16m0s) 
CPU  1 inst:   89000004 cyc:  104335750 now IPC :0.81088: AVG IPC :0.84178: L2-Pf-HR :0.88922: L2-HR :0.77562: (Sim:1h16m3s) 
CPU  0 inst:   88000001 cyc:  104399334 now IPC :0.98608: AVG IPC :0.83160: L2-Pf-HR :0.88694: L2-HR :0.77204: (Sim:1h16m5s) 
CPU  2 inst:   89000004 cyc:  105314523 now IPC :0.89321: AVG IPC :0.83389: L2-Pf-HR :0.88674: L2-HR :0.77260: (Sim:1h16m46s) 
CPU  1 inst:   90000001 cyc:  105316848 now IPC :1.01926: AVG IPC :0.84345: L2-Pf-HR :0.88940: L2-HR :0.77536: (Sim:1h16m46s) 
CPU  3 inst:   89000005 cyc:  105482218 now IPC :0.82338: AVG IPC :0.83255: L2-Pf-HR :0.88964: L2-HR :0.77229: (Sim:1h16m54s) 
CPU  0 inst:   89000005 cyc:  105532001 now IPC :0.88288: AVG IPC :0.83215: L2-Pf-HR :0.88733: L2-HR :0.77191: (Sim:1h16m56s) 
CPU  2 inst:   90000001 cyc:  106231009 now IPC :1.09112: AVG IPC :0.83613: L2-Pf-HR :0.88691: L2-HR :0.77236: (Sim:1h17m28s) 
CPU  1 inst:   91000001 cyc:  106313882 now IPC :1.00297: AVG IPC :0.84496: L2-Pf-HR :0.88971: L2-HR :0.77527: (Sim:1h17m32s) 
CPU  3 inst:   90000001 cyc:  106532021 now IPC :0.95256: AVG IPC :0.83374: L2-Pf-HR :0.88971: L2-HR :0.77201: (Sim:1h17m42s) 
CPU  0 inst:   90000001 cyc:  106620071 now IPC :0.91905: AVG IPC :0.83305: L2-Pf-HR :0.88747: L2-HR :0.77166: (Sim:1h17m46s) 
CPU  2 inst:   91000001 cyc:  107255116 now IPC :0.97646: AVG IPC :0.83748: L2-Pf-HR :0.88733: L2-HR :0.77232: (Sim:1h18m16s) 
CPU  1 inst:   92000001 cyc:  107353625 now IPC :0.96178: AVG IPC :0.84611: L2-Pf-HR :0.89002: L2-HR :0.77519: (Sim:1h18m21s) 
CPU  3 inst:   91000001 cyc:  107529734 now IPC :1.00229: AVG IPC :0.83532: L2-Pf-HR :0.89000: L2-HR :0.77194: (Sim:1h18m30s) 
CPU  0 inst:   91000001 cyc:  107648190 now IPC :0.97265: AVG IPC :0.83440: L2-Pf-HR :0.88783: L2-HR :0.77154: (Sim:1h18m35s) 
CPU  2 inst:   92000001 cyc:  108230978 now IPC :1.02474: AVG IPC :0.83918: L2-Pf-HR :0.88769: L2-HR :0.77228: (Sim:1h19m4s) 
CPU  1 inst:   93000000 cyc:  108483469 now IPC :0.88508: AVG IPC :0.84652: L2-Pf-HR :0.88988: L2-HR :0.77508: (Sim:1h19m14s) 
CPU  3 inst:   92000001 cyc:  108517062 now IPC :1.01283: AVG IPC :0.83695: L2-Pf-HR :0.89023: L2-HR :0.77188: (Sim:1h19m16s) 
CPU  0 inst:   92000001 cyc:  108657549 now IPC :0.99073: AVG IPC :0.83586: L2-Pf-HR :0.88823: L2-HR :0.77142: (Sim:1h19m22s) 
CPU  2 inst:   93000005 cyc:  109391322 now IPC :0.86182: AVG IPC :0.83942: L2-Pf-HR :0.88762: L2-HR :0.77217: (Sim:1h19m56s) 
CPU  1 inst:   94000000 cyc:  109586177 now IPC :0.90686: AVG IPC :0.84713: L2-Pf-HR :0.89016: L2-HR :0.77542: (Sim:1h20m4s) 
CPU  3 inst:   93000002 cyc:  109593674 now IPC :0.92884: AVG IPC :0.83786: L2-Pf-HR :0.89005: L2-HR :0.77182: (Sim:1h20m4s) 
CPU  0 inst:   93000003 cyc:  109807090 now IPC :0.86991: AVG IPC :0.83622: L2-Pf-HR :0.88812: L2-HR :0.77132: (Sim:1h20m12s) 
CPU  2 inst:   94000000 cyc:  110405056 now IPC :0.98645: AVG IPC :0.84079: L2-Pf-HR :0.88789: L2-HR :0.77250: (Sim:1h20m40s) 
CPU  1 inst:   95000001 cyc:  110729542 now IPC :0.87461: AVG IPC :0.84741: L2-Pf-HR :0.89031: L2-HR :0.77582: (Sim:1h20m54s) 
CPU  3 inst:   94000000 cyc:  110786879 now IPC :0.83808: AVG IPC :0.83786: L2-Pf-HR :0.89034: L2-HR :0.77220: (Sim:1h20m56s) 
CPU  0 inst:   94000000 cyc:  110874638 now IPC :0.93672: AVG IPC :0.83720: L2-Pf-HR :0.88841: L2-HR :0.77166: (Sim:1h21m0s) 
CPU  2 inst:   95000001 cyc:  111422478 now IPC :0.98288: AVG IPC :0.84210: L2-Pf-HR :0.88797: L2-HR :0.77285: (Sim:1h21m26s) 
CPU  1 inst:   96000002 cyc:  111710950 now IPC :1.01895: AVG IPC :0.84893: L2-Pf-HR :0.89013: L2-HR :0.77617: (Sim:1h21m39s) 
CPU  3 inst:   95000001 cyc:  111774929 now IPC :1.01210: AVG IPC :0.83942: L2-Pf-HR :0.89045: L2-HR :0.77261: (Sim:1h21m43s) 
CPU  0 inst:   95000001 cyc:  111912499 now IPC :0.96352: AVG IPC :0.83838: L2-Pf-HR :0.88853: L2-HR :0.77202: (Sim:1h21m50s) 
CPU  2 inst:   96000002 cyc:  112449615 now IPC :0.97358: AVG IPC :0.84331: L2-Pf-HR :0.88780: L2-HR :0.77324: (Sim:1h22m14s) 
CPU  1 inst:   97000002 cyc:  112889770 now IPC :0.84831: AVG IPC :0.84893: L2-Pf-HR :0.88949: L2-HR :0.77631: (Sim:1h22m32s) 
CPU  3 inst:   96000002 cyc:  112943007 now IPC :0.85611: AVG IPC :0.83959: L2-Pf-HR :0.89043: L2-HR :0.77304: (Sim:1h22m34s) 
CPU  0 inst:   96000002 cyc:  113056799 now IPC :0.87390: AVG IPC :0.83874: L2-Pf-HR :0.88832: L2-HR :0.77238: (Sim:1h22m38s) 
CPU  2 inst:   97000002 cyc:  113789753 now IPC :0.74619: AVG IPC :0.84215: L2-Pf-HR :0.88723: L2-HR :0.77348: (Sim:1h23m10s) 
CPU  3 inst:   97000002 cyc:  114104159 now IPC :0.86121: AVG IPC :0.83981: L2-Pf-HR :0.88978: L2-HR :0.77314: (Sim:1h23m21s) 
CPU  1 inst:   98000000 cyc:  114238271 now IPC :0.74156: AVG IPC :0.84765: L2-Pf-HR :0.88943: L2-HR :0.77616: (Sim:1h23m26s) 
CPU  0 inst:   97000002 cyc:  114299055 now IPC :0.80499: AVG IPC :0.83837: L2-Pf-HR :0.88778: L2-HR :0.77257: (Sim:1h23m28s) 
CPU  2 inst:   98000000 cyc:  115173076 now IPC :0.72290: AVG IPC :0.84071: L2-Pf-HR :0.88713: L2-HR :0.77340: (Sim:1h24m5s) 
CPU  3 inst:   98000000 cyc:  115331807 now IPC :0.81456: AVG IPC :0.83954: L2-Pf-HR :0.88975: L2-HR :0.77304: (Sim:1h24m12s) 
CPU  1 inst:   99000003 cyc:  115424390 now IPC :0.84309: AVG IPC :0.84760: L2-Pf-HR :0.88927: L2-HR :0.77604: (Sim:1h24m16s) 
CPU  0 inst:   98000000 cyc:  115436211 now IPC :0.87939: AVG IPC :0.83878: L2-Pf-HR :0.88774: L2-HR :0.77249: (Sim:1h24m16s) 
CPU  2 inst:   99000003 cyc:  116440943 now IPC :0.78873: AVG IPC :0.84014: L2-Pf-HR :0.88689: L2-HR :0.77332: (Sim:1h24m58s) 
CPU  3 inst:   99000003 cyc:  116629439 now IPC :0.77064: AVG IPC :0.83877: L2-Pf-HR :0.88962: L2-HR :0.77296: (Sim:1h25m6s) 
CPU  1 inst:  100000002 cyc:  116635330 now IPC :0.82580: AVG IPC :0.84737: L2-Pf-HR :0.88887: L2-HR :0.77583: (Sim:1h25m6s) 
CPU  0 inst:   99000003 cyc:  116669898 now IPC :0.81058: AVG IPC :0.83848: L2-Pf-HR :0.88764: L2-HR :0.77242: (Sim:1h25m8s) 
CPU  2 inst:  100000002 cyc:  117656301 now IPC :0.82280: AVG IPC :0.83996: L2-Pf-HR :0.88648: L2-HR :0.77308: (Sim:1h25m48s) 
CPU  1 inst:  101000001 cyc:  117791306 now IPC :0.86507: AVG IPC :0.84755: L2-Pf-HR :0.88873: L2-HR :0.77576: (Sim:1h25m54s) 
CPU  3 inst:  100000002 cyc:  117889660 now IPC :0.79351: AVG IPC :0.83828: L2-Pf-HR :0.88922: L2-HR :0.77271: (Sim:1h25m58s) 
CPU  0 inst:  100000002 cyc:  117914330 now IPC :0.80358: AVG IPC :0.83811: L2-Pf-HR :0.88730: L2-HR :0.77222: (Sim:1h25m59s) 
CPU  2 inst:  101000001 cyc:  118903743 now IPC :0.80164: AVG IPC :0.83955: L2-Pf-HR :0.88631: L2-HR :0.77304: (Sim:1h26m41s) 
CPU  0 inst:  101000001 cyc:  119088301 now IPC :0.85181: AVG IPC :0.83824: L2-Pf-HR :0.88724: L2-HR :0.77220: (Sim:1h26m49s) 
CPU  1 inst:  102000000 cyc:  119090721 now IPC :0.76958: AVG IPC :0.84669: L2-Pf-HR :0.88848: L2-HR :0.77567: (Sim:1h26m49s) 
CPU  3 inst:  101000001 cyc:  119091080 now IPC :0.83235: AVG IPC :0.83822: L2-Pf-HR :0.88914: L2-HR :0.77267: (Sim:1h26m49s) 
CPU  2 inst:  102000000 cyc:  120170545 now IPC :0.78939: AVG IPC :0.83902: L2-Pf-HR :0.88614: L2-HR :0.77293: (Sim:1h27m33s) 
CPU  0 inst:  102000001 cyc:  120345385 now IPC :0.79549: AVG IPC :0.83779: L2-Pf-HR :0.88712: L2-HR :0.77211: (Sim:1h27m40s) 
CPU  1 inst:  103000000 cyc:  120366815 now IPC :0.78364: AVG IPC :0.84602: L2-Pf-HR :0.88849: L2-HR :0.77564: (Sim:1h27m41s) 
CPU  3 inst:  102000000 cyc:  120381531 now IPC :0.77492: AVG IPC :0.83754: L2-Pf-HR :0.88905: L2-HR :0.77257: (Sim:1h27m42s) 
CPU  2 inst:  103000000 cyc:  121510951 now IPC :0.74604: AVG IPC :0.83799: L2-Pf-HR :0.88612: L2-HR :0.77296: (Sim:1h28m26s) 
CPU  0 inst:  103000000 cyc:  121794548 now IPC :0.69005: AVG IPC :0.83602: L2-Pf-HR :0.88716: L2-HR :0.77216: (Sim:1h28m36s) 
CPU  3 inst:  103000000 cyc:  121812850 now IPC :0.69866: AVG IPC :0.83589: L2-Pf-HR :0.88906: L2-HR :0.77253: (Sim:1h28m37s) 
CPU  1 inst:  104000001 cyc:  121860914 now IPC :0.66930: AVG IPC :0.84383: L2-Pf-HR :0.88839: L2-HR :0.77540: (Sim:1h28m38s) 
CPU  2 inst:  104000001 cyc:  122821142 now IPC :0.76325: AVG IPC :0.83718: L2-Pf-HR :0.88599: L2-HR :0.77274: (Sim:1h29m22s) 
CPU  1 inst:  105000000 cyc:  122991049 now IPC :0.88485: AVG IPC :0.84421: L2-Pf-HR :0.88872: L2-HR :0.77528: (Sim:1h29m31s) 
CPU  0 inst:  104000001 cyc:  123165715 now IPC :0.72931: AVG IPC :0.83482: L2-Pf-HR :0.88706: L2-HR :0.77201: (Sim:1h29m39s) 
CPU  3 inst:  104000001 cyc:  123168176 now IPC :0.73783: AVG IPC :0.83480: L2-Pf-HR :0.88894: L2-HR :0.77236: (Sim:1h29m39s) 
CPU  2 inst:  105000003 cyc:  123864296 now IPC :0.95863: AVG IPC :0.83821: L2-Pf-HR :0.88635: L2-HR :0.77264: (Sim:1h30m14s) 
CPU  1 inst:  106000005 cyc:  124088854 now IPC :0.91091: AVG IPC :0.84481: L2-Pf-HR :0.88885: L2-HR :0.77506: (Sim:1h30m23s) 
CPU  3 inst:  105000000 cyc:  124359730 now IPC :0.83924: AVG IPC :0.83485: L2-Pf-HR :0.88930: L2-HR :0.77230: (Sim:1h30m36s) 
CPU  0 inst:  105000000 cyc:  124373168 now IPC :0.82819: AVG IPC :0.83476: L2-Pf-HR :0.88744: L2-HR :0.77198: (Sim:1h30m36s) 
CPU  2 inst:  106000005 cyc:  124900482 now IPC :0.96508: AVG IPC :0.83927: L2-Pf-HR :0.88649: L2-HR :0.77243: (Sim:1h30m57s) 
CPU  1 inst:  107000005 cyc:  125217443 now IPC :0.88606: AVG IPC :0.84518: L2-Pf-HR :0.88914: L2-HR :0.77493: (Sim:1h31m10s) 
CPU  3 inst:  106000005 cyc:  125977856 now IPC :0.61800: AVG IPC :0.83204: L2-Pf-HR :0.88945: L2-HR :0.77216: (Sim:1h31m35s) 
CPU  0 inst:  106000005 cyc:  125989229 now IPC :0.61879: AVG IPC :0.83197: L2-Pf-HR :0.88759: L2-HR :0.77182: (Sim:1h31m36s) 
CPU  2 inst:  107000005 cyc:  126317312 now IPC :0.70580: AVG IPC :0.83776: L2-Pf-HR :0.88687: L2-HR :0.77232: (Sim:1h31m48s) 
CPU  1 inst:  108000003 cyc:  126795004 now IPC :0.63389: AVG IPC :0.84253: L2-Pf-HR :0.88939: L2-HR :0.77489: (Sim:1h32m5s) 
CPU  3 inst:  107000005 cyc:  127505942 now IPC :0.65441: AVG IPC :0.82989: L2-Pf-HR :0.88973: L2-HR :0.77213: (Sim:1h32m30s) 
CPU  0 inst:  107000005 cyc:  127522427 now IPC :0.65223: AVG IPC :0.82979: L2-Pf-HR :0.88796: L2-HR :0.77178: (Sim:1h32m30s) 
CPU  2 inst:  108000003 cyc:  127886777 now IPC :0.63716: AVG IPC :0.83528: L2-Pf-HR :0.88725: L2-HR :0.77223: (Sim:1h32m43s) 
CPU  1 inst:  109000000 cyc:  128340480 now IPC :0.64705: AVG IPC :0.84016: L2-Pf-HR :0.88957: L2-HR :0.77488: (Sim:1h32m59s) 
CPU  0 inst:  108000003 cyc:  129106883 now IPC :0.63113: AVG IPC :0.82733: L2-Pf-HR :0.88833: L2-HR :0.77174: (Sim:1h33m27s) 
CPU  3 inst:  108000003 cyc:  129116564 now IPC :0.62088: AVG IPC :0.82727: L2-Pf-HR :0.89008: L2-HR :0.77211: (Sim:1h33m27s) 
CPU  2 inst:  109000000 cyc:  129193458 now IPC :0.76530: AVG IPC :0.83457: L2-Pf-HR :0.88753: L2-HR :0.77221: (Sim:1h33m30s) 
CPU  1 inst:  110000001 cyc:  129664032 now IPC :0.75554: AVG IPC :0.83929: L2-Pf-HR :0.88947: L2-HR :0.77505: (Sim:1h33m50s) 
CPU  2 inst:  110000000 cyc:  130325406 now IPC :0.88343: AVG IPC :0.83500: L2-Pf-HR :0.88743: L2-HR :0.77235: (Sim:1h34m18s) 
CPU  3 inst:  109000000 cyc:  130353450 now IPC :0.80848: AVG IPC :0.82709: L2-Pf-HR :0.89032: L2-HR :0.77214: (Sim:1h34m19s) 
CPU  0 inst:  109000005 cyc:  130393723 now IPC :0.77710: AVG IPC :0.82683: L2-Pf-HR :0.88864: L2-HR :0.77178: (Sim:1h34m20s) 
CPU  1 inst:  111000003 cyc:  130918047 now IPC :0.79744: AVG IPC :0.83889: L2-Pf-HR :0.88962: L2-HR :0.77525: (Sim:1h34m39s) 
CPU  2 inst:  111000003 cyc:  131542174 now IPC :0.82185: AVG IPC :0.83488: L2-Pf-HR :0.88755: L2-HR :0.77253: (Sim:1h35m7s) 
CPU  3 inst:  110000004 cyc:  131770690 now IPC :0.70560: AVG IPC :0.82577: L2-Pf-HR :0.89020: L2-HR :0.77223: (Sim:1h35m17s) 
CPU  0 inst:  110000002 cyc:  131792640 now IPC :0.71484: AVG IPC :0.82563: L2-Pf-HR :0.88849: L2-HR :0.77179: (Sim:1h35m18s) 
CPU  1 inst:  112000001 cyc:  131907424 now IPC :1.01074: AVG IPC :0.84019: L2-Pf-HR :0.88948: L2-HR :0.77569: (Sim:1h35m22s) 
CPU  2 inst:  112000001 cyc:  132592374 now IPC :0.95220: AVG IPC :0.83581: L2-Pf-HR :0.88763: L2-HR :0.77298: (Sim:1h35m49s) 
CPU  3 inst:  111000004 cyc:  133025536 now IPC :0.79691: AVG IPC :0.82550: L2-Pf-HR :0.89031: L2-HR :0.77232: (Sim:1h36m6s) 
CPU  0 inst:  111000001 cyc:  133234154 now IPC :0.69371: AVG IPC :0.82420: L2-Pf-HR :0.88855: L2-HR :0.77181: (Sim:1h36m15s) 
CPU  1 inst:  113000000 cyc:  133271753 now IPC :0.73296: AVG IPC :0.83908: L2-Pf-HR :0.88937: L2-HR :0.77614: (Sim:1h36m17s) 
CPU  2 inst:  113000000 cyc:  133785408 now IPC :0.83820: AVG IPC :0.83583: L2-Pf-HR :0.88752: L2-HR :0.77349: (Sim:1h36m38s) 
CPU  3 inst:  112000001 cyc:  134143322 now IPC :0.89462: AVG IPC :0.82608: L2-Pf-HR :0.89026: L2-HR :0.77263: (Sim:1h36m51s) 
CPU  0 inst:  112000001 cyc:  134339471 now IPC :0.90472: AVG IPC :0.82486: L2-Pf-HR :0.88837: L2-HR :0.77204: (Sim:1h37m0s) 
CPU  1 inst:  114000002 cyc:  134619161 now IPC :0.74217: AVG IPC :0.83810: L2-Pf-HR :0.88856: L2-HR :0.77569: (Sim:1h37m12s) 
CPU  2 inst:  114000005 cyc:  135105886 now IPC :0.75731: AVG IPC :0.83506: L2-Pf-HR :0.88672: L2-HR :0.77311: (Sim:1h37m33s) 
CPU  3 inst:  113000000 cyc:  135256825 now IPC :0.89807: AVG IPC :0.82667: L2-Pf-HR :0.89034: L2-HR :0.77299: (Sim:1h37m41s) 
CPU  0 inst:  113000000 cyc:  135390400 now IPC :0.95154: AVG IPC :0.82585: L2-Pf-HR :0.88821: L2-HR :0.77238: (Sim:1h37m46s) 
CPU  1 inst:  115000003 cyc:  135775261 now IPC :0.86498: AVG IPC :0.83833: L2-Pf-HR :0.88846: L2-HR :0.77564: (Sim:1h38m0s) 
CPU  2 inst:  115000003 cyc:  136271162 now IPC :0.85816: AVG IPC :0.83526: L2-Pf-HR :0.88663: L2-HR :0.77307: (Sim:1h38m21s) 
CPU  3 inst:  114000001 cyc:  136603635 now IPC :0.74250: AVG IPC :0.82584: L2-Pf-HR :0.88957: L2-HR :0.77265: (Sim:1h38m35s) 
CPU  0 inst:  114000003 cyc:  136774282 now IPC :0.72261: AVG IPC :0.82480: L2-Pf-HR :0.88754: L2-HR :0.77202: (Sim:1h38m43s) 
CPU  1 inst:  116000002 cyc:  136841738 now IPC :0.93767: AVG IPC :0.83911: L2-Pf-HR :0.88831: L2-HR :0.77550: (Sim:1h38m45s) 
CPU  2 inst:  116000002 cyc:  137526299 now IPC :0.79672: AVG IPC :0.83490: L2-Pf-HR :0.88650: L2-HR :0.77292: (Sim:1h39m15s) 
CPU  3 inst:  115000003 cyc:  137764766 now IPC :0.86123: AVG IPC :0.82614: L2-Pf-HR :0.88958: L2-HR :0.77261: (Sim:1h39m26s) 
CPU  1 inst:  117000000 cyc:  137912876 now IPC :0.93358: AVG IPC :0.83985: L2-Pf-HR :0.88809: L2-HR :0.77534: (Sim:1h39m31s) 
CPU  0 inst:  115000003 cyc:  138014197 now IPC :0.80651: AVG IPC :0.82464: L2-Pf-HR :0.88755: L2-HR :0.77198: (Sim:1h39m36s) 
CPU  2 inst:  117000000 cyc:  138641258 now IPC :0.89689: AVG IPC :0.83541: L2-Pf-HR :0.88622: L2-HR :0.77277: (Sim:1h40m2s) 
CPU  3 inst:  116000002 cyc:  138940137 now IPC :0.85079: AVG IPC :0.82635: L2-Pf-HR :0.88943: L2-HR :0.77252: (Sim:1h40m15s) 
CPU  1 inst:  118000000 cyc:  139098148 now IPC :0.84369: AVG IPC :0.83988: L2-Pf-HR :0.88810: L2-HR :0.77522: (Sim:1h40m22s) 
CPU  0 inst:  116000002 cyc:  139220306 now IPC :0.82911: AVG IPC :0.82468: L2-Pf-HR :0.88746: L2-HR :0.77186: (Sim:1h40m27s) 
CPU  2 inst:  118000000 cyc:  139956970 now IPC :0.76004: AVG IPC :0.83469: L2-Pf-HR :0.88634: L2-HR :0.77269: (Sim:1h40m58s) 
CPU  3 inst:  117000000 cyc:  140010483 now IPC :0.93428: AVG IPC :0.82718: L2-Pf-HR :0.88934: L2-HR :0.77240: (Sim:1h41m0s) 
CPU  0 inst:  117000000 cyc:  140296165 now IPC :0.92949: AVG IPC :0.82548: L2-Pf-HR :0.88731: L2-HR :0.77171: (Sim:1h41m13s) 
CPU  1 inst:  119000005 cyc:  140305598 now IPC :0.82820: AVG IPC :0.83978: L2-Pf-HR :0.88798: L2-HR :0.77517: (Sim:1h41m13s) 
CPU  2 inst:  119000005 cyc:  141113033 now IPC :0.86501: AVG IPC :0.83494: L2-Pf-HR :0.88629: L2-HR :0.77262: (Sim:1h41m46s) 
CPU  3 inst:  118000000 cyc:  141229053 now IPC :0.82063: AVG IPC :0.82712: L2-Pf-HR :0.88932: L2-HR :0.77235: (Sim:1h41m51s) 
CPU  0 inst:  118000000 cyc:  141476942 now IPC :0.84690: AVG IPC :0.82566: L2-Pf-HR :0.88728: L2-HR :0.77166: (Sim:1h42m0s) 
CPU  1 inst:  120000003 cyc:  141700679 now IPC :0.71680: AVG IPC :0.83856: L2-Pf-HR :0.88788: L2-HR :0.77501: (Sim:1h42m10s) 
CPU  2 inst:  120000003 cyc:  142386305 now IPC :0.78538: AVG IPC :0.83450: L2-Pf-HR :0.88619: L2-HR :0.77248: (Sim:1h42m39s) 
CPU  3 inst:  119000005 cyc:  142430953 now IPC :0.83202: AVG IPC :0.82716: L2-Pf-HR :0.88922: L2-HR :0.77236: (Sim:1h42m41s) 
CPU  0 inst:  119000005 cyc:  142504035 now IPC :0.97363: AVG IPC :0.82674: L2-Pf-HR :0.88711: L2-HR :0.77161: (Sim:1h42m44s) 
CPU  1 inst:  121000005 cyc:  143016339 now IPC :0.76008: AVG IPC :0.83784: L2-Pf-HR :0.88817: L2-HR :0.77490: (Sim:1h43m3s) 
CPU  2 inst:  121000005 cyc:  143492390 now IPC :0.90409: AVG IPC :0.83504: L2-Pf-HR :0.88649: L2-HR :0.77238: (Sim:1h43m24s) 
CPU  3 inst:  120000003 cyc:  143744818 now IPC :0.76111: AVG IPC :0.82656: L2-Pf-HR :0.88911: L2-HR :0.77229: (Sim:1h43m35s) 
CPU  0 inst:  120000003 cyc:  143840422 now IPC :0.74828: AVG IPC :0.82600: L2-Pf-HR :0.88705: L2-HR :0.77153: (Sim:1h43m39s) 
CPU  1 inst:  122000000 cyc:  144011127 now IPC :1.00523: AVG IPC :0.83900: L2-Pf-HR :0.88845: L2-HR :0.77479: (Sim:1h43m47s) 
CPU  2 inst:  122000001 cyc:  144569720 now IPC :0.92822: AVG IPC :0.83574: L2-Pf-HR :0.88677: L2-HR :0.77229: (Sim:1h44m13s) 
CPU  3 inst:  121000005 cyc:  144753990 now IPC :0.99091: AVG IPC :0.82771: L2-Pf-HR :0.88942: L2-HR :0.77226: (Sim:1h44m21s) 
CPU  0 inst:  121000005 cyc:  144914045 now IPC :0.93143: AVG IPC :0.82679: L2-Pf-HR :0.88740: L2-HR :0.77151: (Sim:1h44m29s) 
CPU  1 inst:  123000000 cyc:  144959112 now IPC :1.05487: AVG IPC :0.84042: L2-Pf-HR :0.88852: L2-HR :0.77462: (Sim:1h44m31s) 
CPU  2 inst:  123000000 cyc:  145594690 now IPC :0.97564: AVG IPC :0.83673: L2-Pf-HR :0.88692: L2-HR :0.77210: (Sim:1h45m1s) 
CPU  3 inst:  122000002 cyc:  145704512 now IPC :1.05205: AVG IPC :0.82918: L2-Pf-HR :0.88972: L2-HR :0.77226: (Sim:1h45m6s) 
CPU  0 inst:  122000002 cyc:  145899068 now IPC :1.01520: AVG IPC :0.82807: L2-Pf-HR :0.88775: L2-HR :0.77151: (Sim:1h45m15s) 
CPU  1 inst:  124000002 cyc:  146013375 now IPC :0.94853: AVG IPC :0.84121: L2-Pf-HR :0.88866: L2-HR :0.77454: (Sim:1h45m20s) 
CPU  3 inst:  123000000 cyc:  146644615 now IPC :1.06371: AVG IPC :0.83070: L2-Pf-HR :0.88983: L2-HR :0.77219: (Sim:1h45m50s) 
CPU  2 inst:  124000002 cyc:  146650975 now IPC :0.94672: AVG IPC :0.83753: L2-Pf-HR :0.88724: L2-HR :0.77202: (Sim:1h45m50s) 
CPU  0 inst:  123000000 cyc:  146806539 now IPC :1.10196: AVG IPC :0.82978: L2-Pf-HR :0.88798: L2-HR :0.77144: (Sim:1h45m57s) 
CPU  1 inst:  125000002 cyc:  147059127 now IPC :0.95625: AVG IPC :0.84203: L2-Pf-HR :0.88888: L2-HR :0.77451: (Sim:1h46m9s) 
CPU  2 inst:  125000002 cyc:  147651130 now IPC :0.99985: AVG IPC :0.83863: L2-Pf-HR :0.88748: L2-HR :0.77196: (Sim:1h46m35s) 
CPU  3 inst:  124000002 cyc:  147683632 now IPC :0.96245: AVG IPC :0.83163: L2-Pf-HR :0.89001: L2-HR :0.77220: (Sim:1h46m37s) 
CPU  0 inst:  124000002 cyc:  147795463 now IPC :1.01120: AVG IPC :0.83100: L2-Pf-HR :0.88835: L2-HR :0.77145: (Sim:1h46m42s) 
CPU  1 inst:  126000005 cyc:  148206350 now IPC :0.87167: AVG IPC :0.84226: L2-Pf-HR :0.88883: L2-HR :0.77463: (Sim:1h47m0s) 
CPU  3 inst:  125000002 cyc:  148616140 now IPC :1.07238: AVG IPC :0.83315: L2-Pf-HR :0.89026: L2-HR :0.77222: (Sim:1h47m20s) 
CPU  0 inst:  125000002 cyc:  148750956 now IPC :1.04658: AVG IPC :0.83239: L2-Pf-HR :0.88864: L2-HR :0.77148: (Sim:1h47m26s) 
CPU  2 inst:  126000005 cyc:  148782658 now IPC :0.88376: AVG IPC :0.83898: L2-Pf-HR :0.88741: L2-HR :0.77209: (Sim:1h47m28s) 
CPU  1 inst:  127000005 cyc:  149364066 now IPC :0.86377: AVG IPC :0.84243: L2-Pf-HR :0.88905: L2-HR :0.77485: (Sim:1h47m50s) 
CPU  3 inst:  126000005 cyc:  149748677 now IPC :0.88298: AVG IPC :0.83353: L2-Pf-HR :0.89028: L2-HR :0.77243: (Sim:1h48m8s) 
CPU  2 inst:  127000004 cyc:  150010697 now IPC :0.81431: AVG IPC :0.83877: L2-Pf-HR :0.88761: L2-HR :0.77232: (Sim:1h48m19s) 
CPU  0 inst:  126000005 cyc:  150024394 now IPC :0.78528: AVG IPC :0.83199: L2-Pf-HR :0.88864: L2-HR :0.77166: (Sim:1h48m20s) 
CPU  1 inst:  128000000 cyc:  150347395 now IPC :1.01695: AVG IPC :0.84358: L2-Pf-HR :0.88889: L2-HR :0.77512: (Sim:1h48m34s) 
CPU  3 inst:  127000005 cyc:  150855816 now IPC :0.90323: AVG IPC :0.83404: L2-Pf-HR :0.89054: L2-HR :0.77277: (Sim:1h48m57s) 
CPU  2 inst:  128000004 cyc:  151010581 now IPC :1.00012: AVG IPC :0.83985: L2-Pf-HR :0.88745: L2-HR :0.77269: (Sim:1h49m4s) 
CPU  0 inst:  127000005 cyc:  151071815 now IPC :0.95473: AVG IPC :0.83285: L2-Pf-HR :0.88888: L2-HR :0.77194: (Sim:1h49m7s) 
CPU  1 inst:  129000003 cyc:  151422542 now IPC :0.93011: AVG IPC :0.84420: L2-Pf-HR :0.88883: L2-HR :0.77541: (Sim:1h49m23s) 
CPU  3 inst:  128000005 cyc:  151861825 now IPC :0.99403: AVG IPC :0.83511: L2-Pf-HR :0.89041: L2-HR :0.77318: (Sim:1h49m40s) 
CPU  0 inst:  128000000 cyc:  152174771 now IPC :0.90665: AVG IPC :0.83338: L2-Pf-HR :0.88878: L2-HR :0.77227: (Sim:1h49m53s) 
CPU  2 inst:  129000003 cyc:  152234776 now IPC :0.81686: AVG IPC :0.83966: L2-Pf-HR :0.88741: L2-HR :0.77297: (Sim:1h49m56s) 
CPU  1 inst:  130000000 cyc:  152763297 now IPC :0.74585: AVG IPC :0.84333: L2-Pf-HR :0.88835: L2-HR :0.77524: (Sim:1h50m17s) 
CPU  3 inst:  129000003 cyc:  153003948 now IPC :0.87556: AVG IPC :0.83542: L2-Pf-HR :0.89036: L2-HR :0.77344: (Sim:1h50m27s) 
CPU  0 inst:  129000003 cyc:  153376257 now IPC :0.83231: AVG IPC :0.83338: L2-Pf-HR :0.88874: L2-HR :0.77259: (Sim:1h50m40s) 
CPU  2 inst:  130000000 cyc:  153758682 now IPC :0.65621: AVG IPC :0.83783: L2-Pf-HR :0.88687: L2-HR :0.77276: (Sim:1h50m54s) 
CPU  1 inst:  131000004 cyc:  154198053 now IPC :0.69699: AVG IPC :0.84196: L2-Pf-HR :0.88831: L2-HR :0.77517: (Sim:1h51m11s) 
CPU  3 inst:  130000000 cyc:  154254093 now IPC :0.79990: AVG IPC :0.83513: L2-Pf-HR :0.88979: L2-HR :0.77325: (Sim:1h51m13s) 
CPU  0 inst:  130000000 cyc:  154888219 now IPC :0.66139: AVG IPC :0.83169: L2-Pf-HR :0.88819: L2-HR :0.77244: (Sim:1h51m38s) 
CPU  2 inst:  131000001 cyc:  155237605 now IPC :0.67617: AVG IPC :0.83628: L2-Pf-HR :0.88687: L2-HR :0.77268: (Sim:1h51m51s) 
CPU  3 inst:  131000000 cyc:  155409812 now IPC :0.86526: AVG IPC :0.83535: L2-Pf-HR :0.88971: L2-HR :0.77319: (Sim:1h51m57s) 
CPU  1 inst:  132000005 cyc:  155691307 now IPC :0.66968: AVG IPC :0.84030: L2-Pf-HR :0.88817: L2-HR :0.77508: (Sim:1h52m7s) 
CPU  0 inst:  131000003 cyc:  156516279 now IPC :0.61423: AVG IPC :0.82941: L2-Pf-HR :0.88810: L2-HR :0.77236: (Sim:1h52m37s) 
CPU  2 inst:  132000005 cyc:  156754743 now IPC :0.65914: AVG IPC :0.83456: L2-Pf-HR :0.88680: L2-HR :0.77259: (Sim:1h52m46s) 
CPU  3 inst:  132000005 cyc:  156859671 now IPC :0.68973: AVG IPC :0.83400: L2-Pf-HR :0.88964: L2-HR :0.77313: (Sim:1h52m49s) 
CPU  1 inst:  133000001 cyc:  157151100 now IPC :0.68503: AVG IPC :0.83884: L2-Pf-HR :0.88787: L2-HR :0.77493: (Sim:1h53m0s) 
CPU  2 inst:  133000001 cyc:  157971633 now IPC :0.82176: AVG IPC :0.83446: L2-Pf-HR :0.88663: L2-HR :0.77243: (Sim:1h53m31s) 
CPU  0 inst:  132000005 cyc:  158022872 now IPC :0.66375: AVG IPC :0.82782: L2-Pf-HR :0.88804: L2-HR :0.77229: (Sim:1h53m33s) 
CPU  3 inst:  133000001 cyc:  158319237 now IPC :0.68513: AVG IPC :0.83262: L2-Pf-HR :0.88943: L2-HR :0.77296: (Sim:1h53m44s) 
CPU  1 inst:  134000000 cyc:  158688929 now IPC :0.65027: AVG IPC :0.83701: L2-Pf-HR :0.88770: L2-HR :0.77480: (Sim:1h53m59s) 
CPU  2 inst:  134000000 cyc:  159111968 now IPC :0.87693: AVG IPC :0.83477: L2-Pf-HR :0.88662: L2-HR :0.77231: (Sim:1h54m16s) 
CPU  0 inst:  133000001 cyc:  159369161 now IPC :0.74278: AVG IPC :0.82710: L2-Pf-HR :0.88772: L2-HR :0.77218: (Sim:1h54m25s) 
CPU  3 inst:  134000000 cyc:  159810370 now IPC :0.67063: AVG IPC :0.83109: L2-Pf-HR :0.88929: L2-HR :0.77284: (Sim:1h54m41s) 
CPU  1 inst:  135000002 cyc:  160138523 now IPC :0.68985: AVG IPC :0.83567: L2-Pf-HR :0.88749: L2-HR :0.77472: (Sim:1h54m53s) 
CPU  2 inst:  135000002 cyc:  160342597 now IPC :0.81259: AVG IPC :0.83459: L2-Pf-HR :0.88653: L2-HR :0.77220: (Sim:1h55m1s) 
CPU  0 inst:  134000000 cyc:  161033098 now IPC :0.60098: AVG IPC :0.82475: L2-Pf-HR :0.88758: L2-HR :0.77206: (Sim:1h55m23s) 
CPU  3 inst:  135000002 cyc:  161412033 now IPC :0.62435: AVG IPC :0.82903: L2-Pf-HR :0.88918: L2-HR :0.77275: (Sim:1h55m37s) 
CPU  1 inst:  136000003 cyc:  161794257 now IPC :0.60396: AVG IPC :0.83328: L2-Pf-HR :0.88741: L2-HR :0.77467: (Sim:1h55m52s) 
CPU  2 inst:  136000003 cyc:  161869596 now IPC :0.65488: AVG IPC :0.83289: L2-Pf-HR :0.88644: L2-HR :0.77218: (Sim:1h55m55s) 
CPU  0 inst:  135000002 cyc:  162189575 now IPC :0.86470: AVG IPC :0.82503: L2-Pf-HR :0.88738: L2-HR :0.77201: (Sim:1h56m6s) 
CPU  3 inst:  136000003 cyc:  163023008 now IPC :0.62074: AVG IPC :0.82696: L2-Pf-HR :0.88907: L2-HR :0.77269: (Sim:1h56m37s) 
CPU  1 inst:  137000005 cyc:  163253669 now IPC :0.68521: AVG IPC :0.83195: L2-Pf-HR :0.88770: L2-HR :0.77464: (Sim:1h56m47s) 
CPU  0 inst:  136000003 cyc:  163322652 now IPC :0.88255: AVG IPC :0.82544: L2-Pf-HR :0.88729: L2-HR :0.77195: (Sim:1h56m50s) 
CPU  2 inst:  137000005 cyc:  163368296 now IPC :0.66725: AVG IPC :0.83136: L2-Pf-HR :0.88671: L2-HR :0.77217: (Sim:1h56m52s) 
CPU  3 inst:  137000005 cyc:  164341841 now IPC :0.75825: AVG IPC :0.82641: L2-Pf-HR :0.88933: L2-HR :0.77261: (Sim:1h57m30s) 
CPU  0 inst:  137000005 cyc:  164423962 now IPC :0.90801: AVG IPC :0.82599: L2-Pf-HR :0.88755: L2-HR :0.77187: (Sim:1h57m34s) 
CPU  1 inst:  138000001 cyc:  164491387 now IPC :0.80794: AVG IPC :0.83177: L2-Pf-HR :0.88799: L2-HR :0.77460: (Sim:1h57m36s) 
CPU  2 inst:  138000001 cyc:  164728068 now IPC :0.73541: AVG IPC :0.83056: L2-Pf-HR :0.88697: L2-HR :0.77215: (Sim:1h57m45s) 
CPU  1 inst:  139000000 cyc:  165387518 now IPC :1.11591: AVG IPC :0.83332: L2-Pf-HR :0.88807: L2-HR :0.77452: (Sim:1h58m13s) 
CPU  3 inst:  138000001 cyc:  165756530 now IPC :0.70687: AVG IPC :0.82538: L2-Pf-HR :0.88959: L2-HR :0.77254: (Sim:1h58m28s) 
CPU  0 inst:  138000001 cyc:  165763615 now IPC :0.74646: AVG IPC :0.82535: L2-Pf-HR :0.88781: L2-HR :0.77180: (Sim:1h58m28s) 
CPU  2 inst:  139000000 cyc:  165913308 now IPC :0.84371: AVG IPC :0.83066: L2-Pf-HR :0.88709: L2-HR :0.77207: (Sim:1h58m35s) 
CPU  1 inst:  140000003 cyc:  166485902 now IPC :0.91043: AVG IPC :0.83383: L2-Pf-HR :0.88826: L2-HR :0.77450: (Sim:1h58m59s) 
CPU  0 inst:  139000000 cyc:  166981932 now IPC :0.82080: AVG IPC :0.82531: L2-Pf-HR :0.88789: L2-HR :0.77165: (Sim:1h59m19s) 
CPU  3 inst:  139000000 cyc:  167035742 now IPC :0.78173: AVG IPC :0.82504: L2-Pf-HR :0.88961: L2-HR :0.77240: (Sim:1h59m21s) 
CPU  2 inst:  140000003 cyc:  167128342 now IPC :0.82302: AVG IPC :0.83060: L2-Pf-HR :0.88739: L2-HR :0.77207: (Sim:1h59m24s) 
CPU  1 inst:  141000005 cyc:  167686743 now IPC :0.83275: AVG IPC :0.83382: L2-Pf-HR :0.88841: L2-HR :0.77448: (Sim:1h59m47s) 
CPU  2 inst:  141000005 cyc:  168120061 now IPC :1.00835: AVG IPC :0.83166: L2-Pf-HR :0.88760: L2-HR :0.77204: (Sim:2h0m5s) 
CPU  0 inst:  140000002 cyc:  168257616 now IPC :0.78389: AVG IPC :0.82500: L2-Pf-HR :0.88811: L2-HR :0.77156: (Sim:2h0m11s) 
CPU  3 inst:  140000000 cyc:  168359958 now IPC :0.75516: AVG IPC :0.82449: L2-Pf-HR :0.88982: L2-HR :0.77234: (Sim:2h0m15s) 
CPU  1 inst:  142000003 cyc:  169005738 now IPC :0.75815: AVG IPC :0.83323: L2-Pf-HR :0.88843: L2-HR :0.77464: (Sim:2h0m42s) 
CPU  2 inst:  142000003 cyc:  169232744 now IPC :0.89873: AVG IPC :0.83210: L2-Pf-HR :0.88758: L2-HR :0.77219: (Sim:2h0m52s) 
CPU  0 inst:  141000005 cyc:  169382054 now IPC :0.88934: AVG IPC :0.82543: L2-Pf-HR :0.88831: L2-HR :0.77148: (Sim:2h0m58s) 
CPU  3 inst:  141000005 cyc:  169510493 now IPC :0.86917: AVG IPC :0.82479: L2-Pf-HR :0.88998: L2-HR :0.77224: (Sim:2h1m4s) 
CPU  1 inst:  143000000 cyc:  170071000 now IPC :0.93873: AVG IPC :0.83389: L2-Pf-HR :0.88862: L2-HR :0.77488: (Sim:2h1m27s) 
CPU  2 inst:  143000000 cyc:  170363918 now IPC :0.88403: AVG IPC :0.83245: L2-Pf-HR :0.88775: L2-HR :0.77244: (Sim:2h1m40s) 
CPU  0 inst:  142000003 cyc:  170601585 now IPC :0.81999: AVG IPC :0.82539: L2-Pf-HR :0.88827: L2-HR :0.77159: (Sim:2h1m51s) 
CPU  3 inst:  142000003 cyc:  170678919 now IPC :0.85585: AVG IPC :0.82501: L2-Pf-HR :0.88996: L2-HR :0.77239: (Sim:2h1m54s) 
CPU  1 inst:  144000001 cyc:  171078542 now IPC :0.99252: AVG IPC :0.83483: L2-Pf-HR :0.88853: L2-HR :0.77515: (Sim:2h2m12s) 
CPU  2 inst:  144000003 cyc:  171324960 now IPC :1.04054: AVG IPC :0.83362: L2-Pf-HR :0.88765: L2-HR :0.77274: (Sim:2h2m23s) 
CPU  0 inst:  143000000 cyc:  171808258 now IPC :0.82872: AVG IPC :0.82541: L2-Pf-HR :0.88844: L2-HR :0.77179: (Sim:2h2m43s) 
CPU  3 inst:  143000000 cyc:  171935344 now IPC :0.79591: AVG IPC :0.82479: L2-Pf-HR :0.89016: L2-HR :0.77265: (Sim:2h2m49s) 
CPU  1 inst:  145000004 cyc:  172037440 now IPC :1.04287: AVG IPC :0.83600: L2-Pf-HR :0.88850: L2-HR :0.77547: (Sim:2h2m53s) 
CPU  2 inst:  145000004 cyc:  172610293 now IPC :0.77801: AVG IPC :0.83320: L2-Pf-HR :0.88772: L2-HR :0.77309: (Sim:2h3m17s) 
CPU  0 inst:  144000004 cyc:  172795187 now IPC :1.01325: AVG IPC :0.82649: L2-Pf-HR :0.88835: L2-HR :0.77200: (Sim:2h3m25s) 
CPU  3 inst:  144000001 cyc:  173090525 now IPC :0.86567: AVG IPC :0.82507: L2-Pf-HR :0.89012: L2-HR :0.77291: (Sim:2h3m37s) 
CPU  1 inst:  146000003 cyc:  173323424 now IPC :0.77761: AVG IPC :0.83556: L2-Pf-HR :0.88792: L2-HR :0.77533: (Sim:2h3m47s) 
CPU  2 inst:  146000003 cyc:  173783225 now IPC :0.85256: AVG IPC :0.83334: L2-Pf-HR :0.88722: L2-HR :0.77301: (Sim:2h4m8s) 
CPU  0 inst:  145000003 cyc:  173873821 now IPC :0.92710: AVG IPC :0.82712: L2-Pf-HR :0.88837: L2-HR :0.77225: (Sim:2h4m12s) 
CPU  3 inst:  145000004 cyc:  174182896 now IPC :0.91544: AVG IPC :0.82564: L2-Pf-HR :0.89024: L2-HR :0.77326: (Sim:2h4m26s) 
CPU  1 inst:  147000000 cyc:  174460171 now IPC :0.87970: AVG IPC :0.83585: L2-Pf-HR :0.88777: L2-HR :0.77526: (Sim:2h4m36s) 
CPU  2 inst:  147000000 cyc:  174992213 now IPC :0.82714: AVG IPC :0.83329: L2-Pf-HR :0.88714: L2-HR :0.77297: (Sim:2h4m56s) 
CPU  0 inst:  146000003 cyc:  175236188 now IPC :0.73402: AVG IPC :0.82639: L2-Pf-HR :0.88784: L2-HR :0.77214: (Sim:2h5m6s) 
CPU  3 inst:  146000003 cyc:  175548818 now IPC :0.73211: AVG IPC :0.82491: L2-Pf-HR :0.88975: L2-HR :0.77314: (Sim:2h5m19s) 
CPU  1 inst:  148000003 cyc:  175748934 now IPC :0.77594: AVG IPC :0.83541: L2-Pf-HR :0.88773: L2-HR :0.77519: (Sim:2h5m27s) 
CPU  2 inst:  148000003 cyc:  176224067 now IPC :0.81179: AVG IPC :0.83314: L2-Pf-HR :0.88710: L2-HR :0.77289: (Sim:2h5m47s) 
CPU  0 inst:  147000000 cyc:  176481182 now IPC :0.80321: AVG IPC :0.82622: L2-Pf-HR :0.88773: L2-HR :0.77209: (Sim:2h5m59s) 
CPU  3 inst:  147000000 cyc:  176781281 now IPC :0.81138: AVG IPC :0.82481: L2-Pf-HR :0.88961: L2-HR :0.77308: (Sim:2h6m11s) 
CPU  1 inst:  149000000 cyc:  176841745 now IPC :0.91507: AVG IPC :0.83590: L2-Pf-HR :0.88747: L2-HR :0.77503: (Sim:2h6m14s) 
CPU  2 inst:  149000000 cyc:  177381571 now IPC :0.86393: AVG IPC :0.83334: L2-Pf-HR :0.88684: L2-HR :0.77274: (Sim:2h6m37s) 
CPU  0 inst:  148000002 cyc:  177669558 now IPC :0.84149: AVG IPC :0.82633: L2-Pf-HR :0.88765: L2-HR :0.77203: (Sim:2h6m49s) 
CPU  1 inst:  150000001 cyc:  177936003 now IPC :0.91386: AVG IPC :0.83638: L2-Pf-HR :0.88739: L2-HR :0.77501: (Sim:2h7m0s) 
CPU  3 inst:  148000003 cyc:  177979444 now IPC :0.83461: AVG IPC :0.82488: L2-Pf-HR :0.88953: L2-HR :0.77300: (Sim:2h7m2s) 
CPU  2 inst:  150000002 cyc:  178661583 now IPC :0.78124: AVG IPC :0.83297: L2-Pf-HR :0.88681: L2-HR :0.77273: (Sim:2h7m31s) 
CPU  0 inst:  149000000 cyc:  178751106 now IPC :0.92460: AVG IPC :0.82693: L2-Pf-HR :0.88736: L2-HR :0.77190: (Sim:2h7m34s) 
CPU  3 inst:  149000000 cyc:  179105839 now IPC :0.88779: AVG IPC :0.82528: L2-Pf-HR :0.88925: L2-HR :0.77284: (Sim:2h7m50s) 
CPU  1 inst:  151000005 cyc:  179128442 now IPC :0.83862: AVG IPC :0.83640: L2-Pf-HR :0.88732: L2-HR :0.77492: (Sim:2h7m51s) 
CPU  2 inst:  151000005 cyc:  179919897 now IPC :0.79472: AVG IPC :0.83270: L2-Pf-HR :0.88681: L2-HR :0.77262: (Sim:2h8m23s) 
CPU  0 inst:  150000003 cyc:  179932255 now IPC :0.84664: AVG IPC :0.82706: L2-Pf-HR :0.88729: L2-HR :0.77187: (Sim:2h8m24s) 
CPU  3 inst:  150000003 cyc:  180250872 now IPC :0.87334: AVG IPC :0.82558: L2-Pf-HR :0.88917: L2-HR :0.77278: (Sim:2h8m37s) 
CPU  1 inst:  152000005 cyc:  180553962 now IPC :0.70150: AVG IPC :0.83533: L2-Pf-HR :0.88711: L2-HR :0.77481: (Sim:2h8m48s) 
CPU  2 inst:  152000005 cyc:  181156816 now IPC :0.80846: AVG IPC :0.83253: L2-Pf-HR :0.88662: L2-HR :0.77255: (Sim:2h9m12s) 
CPU  0 inst:  151000005 cyc:  181343196 now IPC :0.70875: AVG IPC :0.82613: L2-Pf-HR :0.88721: L2-HR :0.77177: (Sim:2h9m20s) 
CPU  3 inst:  151000005 cyc:  181417097 now IPC :0.85747: AVG IPC :0.82579: L2-Pf-HR :0.88913: L2-HR :0.77271: (Sim:2h9m23s) 
CPU  1 inst:  153000000 cyc:  181906444 now IPC :0.73938: AVG IPC :0.83461: L2-Pf-HR :0.88737: L2-HR :0.77473: (Sim:2h9m42s) 
CPU  2 inst:  153000000 cyc:  182358509 now IPC :0.83216: AVG IPC :0.83253: L2-Pf-HR :0.88687: L2-HR :0.77248: (Sim:2h9m57s) 
CPU  0 inst:  152000005 cyc:  182829616 now IPC :0.67276: AVG IPC :0.82488: L2-Pf-HR :0.88701: L2-HR :0.77176: (Sim:2h10m18s) 
CPU  3 inst:  152000005 cyc:  182873760 now IPC :0.68650: AVG IPC :0.82467: L2-Pf-HR :0.88892: L2-HR :0.77268: (Sim:2h10m19s) 
CPU  1 inst:  154000005 cyc:  183026038 now IPC :0.89319: AVG IPC :0.83497: L2-Pf-HR :0.88763: L2-HR :0.77466: (Sim:2h10m25s) 
CPU  2 inst:  154000005 cyc:  183642599 now IPC :0.77877: AVG IPC :0.83215: L2-Pf-HR :0.88711: L2-HR :0.77241: (Sim:2h10m50s) 
CPU  0 inst:  153000000 cyc:  184053081 now IPC :0.81735: AVG IPC :0.82483: L2-Pf-HR :0.88726: L2-HR :0.77177: (Sim:2h11m7s) 
CPU  1 inst:  155000003 cyc:  184090083 now IPC :0.93981: AVG IPC :0.83558: L2-Pf-HR :0.88773: L2-HR :0.77451: (Sim:2h11m8s) 
CPU  3 inst:  153000000 cyc:  184244344 now IPC :0.72961: AVG IPC :0.82396: L2-Pf-HR :0.88915: L2-HR :0.77270: (Sim:2h11m15s) 
CPU  2 inst:  155000003 cyc:  184857835 now IPC :0.82288: AVG IPC :0.83209: L2-Pf-HR :0.88720: L2-HR :0.77226: (Sim:2h11m41s) 
CPU  0 inst:  154000005 cyc:  185019653 now IPC :1.03459: AVG IPC :0.82593: L2-Pf-HR :0.88751: L2-HR :0.77182: (Sim:2h11m47s) 
CPU  1 inst:  156000004 cyc:  185395682 now IPC :0.76593: AVG IPC :0.83509: L2-Pf-HR :0.88788: L2-HR :0.77440: (Sim:2h12m2s) 
CPU  3 inst:  154000005 cyc:  185699659 now IPC :0.68714: AVG IPC :0.82289: L2-Pf-HR :0.88939: L2-HR :0.77276: (Sim:2h12m14s) 
CPU  2 inst:  156000004 cyc:  186072930 now IPC :0.82298: AVG IPC :0.83203: L2-Pf-HR :0.88745: L2-HR :0.77219: (Sim:2h12m29s) 
[...]
Core_0_L2C_average_miss_latency 960.51087

Core_0_LLC_total_access 9777647
Core_0_LLC_total_hit 4175345 LLC_total_Hit Ratio: 0.42703
Core_0_LLC_total_miss 5602302
Core_0_LLC_loads 1554774
Core_0_LLC_load_hit 319963 LLC_load_Hit Ratio: 0.20579
Core_0_LLC_load_miss 1234811
Core_0_LLC_RFOs 773800
Core_0_LLC_RFO_hit 71 LLC_RFO_Hit Ratio: 0.00009
Core_0_LLC_RFO_miss 773729
Core_0_LLC_prefetches 3818647
Core_0_LLC_prefetch_hit 289888 LLC_prefetch_Hit Ratio: 0.07591
Core_0_LLC_prefetch_miss 3528759
Core_0_LLC_writebacks 3630426
Core_0_LLC_writeback_hit 3565423 LLC_writeback_Hit Ratio: 0.98209
Core_0_LLC_writeback_miss 65003
Core_0_LLC_prefetch_requested 0
Core_0_LLC_prefetch_issued 0
Core_0_LLC_prefetch_useful 233599 LLC_Useful Ratio: inf
Core_0_LLC_prefetch_useless 13837436
Core_0_LLC_prefetch_late 0
Core_0_LLC_average_miss_latency 3920.21635

Core_0_major_page_fault 0
Core_0_minor_page_fault 37966

Core_1_instructions 657000004
Core_1_cycles 1172188241
Core_1_IPC 0.56049

Core_1_branch_prediction_accuracy 99.58940
Core_1_branch_MPKI 0.11894
Core_1_average_ROB_occupancy_at_mispredict 572.32028

Core_1_L1D_total_access 196500450
Core_1_L1D_total_hit 170553670 L1D_total_Hit Ratio: 0.86796
Core_1_L1D_total_miss 25946780
Core_1_L1D_loads 165783113
Core_1_L1D_load_hit 151512760 L1D_load_Hit Ratio: 0.91392
Core_1_L1D_load_miss 14270353
Core_1_L1D_RFOs 17115794
Core_1_L1D_RFO_hit 16247328 L1D_RFO_Hit Ratio: 0.94926
Core_1_L1D_RFO_miss 868466
Core_1_L1D_prefetches 13601543
Core_1_L1D_prefetch_hit 2793582 L1D_prefetch_Hit Ratio: 0.20539
Core_1_L1D_prefetch_miss 10807961
Core_1_L1D_writebacks 0
Core_1_L1D_writeback_hit 0 L1D_writeback_Hit Ratio: -nan
Core_1_L1D_writeback_miss 0
Core_1_L1D_prefetch_requested 21876691
Core_1_L1D_prefetch_issued 21876691
Core_1_L1D_prefetch_useful 10660138 L1D_Useful Ratio: 0.48728
Core_1_L1D_prefetch_useless 213275
Core_1_L1D_prefetch_late 1935869
Core_1_L1D_average_miss_latency 68370807.32126

Core_1_L1I_total_access 96482276
Core_1_L1I_total_hit 96477266 L1I_total_Hit Ratio: 0.99995
Core_1_L1I_total_miss 5010
Core_1_L1I_loads 96482276
Core_1_L1I_load_hit 96477266 L1I_load_Hit Ratio: 0.99995
Core_1_L1I_load_miss 5010
Core_1_L1I_RFOs 0
Core_1_L1I_RFO_hit 0 L1I_RFO_Hit Ratio: -nan
Core_1_L1I_RFO_miss 0
Core_1_L1I_prefetches 0
Core_1_L1I_prefetch_hit 0 L1I_prefetch_Hit Ratio: -nan
Core_1_L1I_prefetch_miss 0
Core_1_L1I_writebacks 0
Core_1_L1I_writeback_hit 0 L1I_writeback_Hit Ratio: -nan
Core_1_L1I_writeback_miss 0
Core_1_L1I_prefetch_requested 0
Core_1_L1I_prefetch_issued 0
Core_1_L1I_prefetch_useful 0 L1I_Useful Ratio: -nan
Core_1_L1I_prefetch_useless 0
Core_1_L1I_prefetch_late 0
Core_1_L1I_average_miss_latency 1051.41697

Core_1_L2C_total_access 32435821
Core_1_L2C_total_hit 26293413 L2C_total_Hit Ratio: 0.81063
Core_1_L2C_total_miss 6142408
Core_1_L2C_loads 12350657
Core_1_L2C_load_hit 10157999 L2C_load_Hit Ratio: 0.82247
Core_1_L2C_load_miss 2192658
Core_1_L2C_RFOs 868452
Core_1_L2C_RFO_hit 95388 L2C_RFO_Hit Ratio: 0.10984
Core_1_L2C_RFO_miss 773064
Core_1_L2C_prefetches 15323643
Core_1_L2C_prefetch_hit 12148438 L2C_prefetch_Hit Ratio: 0.79279
Core_1_L2C_prefetch_miss 3175205
Core_1_L2C_writebacks 3893069
Core_1_L2C_writeback_hit 3891588 L2C_writeback_Hit Ratio: 0.99962
Core_1_L2C_writeback_miss 1481
Core_1_L2C_prefetch_requested 3913351
Core_1_L2C_prefetch_issued 3913351
Core_1_L2C_prefetch_useful 965492 L2C_Useful Ratio: 0.24672
Core_1_L2C_prefetch_useless 2217044
Core_1_L2C_prefetch_late 649223
Core_1_L2C_average_miss_latency 966.65135

Core_1_LLC_total_access 9766999
Core_1_LLC_total_hit 4134121 LLC_total_Hit Ratio: 0.42327
Core_1_LLC_total_miss 5632878
Core_1_LLC_loads 1543665
Core_1_LLC_load_hit 287160 LLC_load_Hit Ratio: 0.18602
Core_1_LLC_load_miss 1256505
Core_1_LLC_RFOs 773064
Core_1_LLC_RFO_hit 109 LLC_RFO_Hit Ratio: 0.00014
Core_1_LLC_RFO_miss 772955
Core_1_LLC_prefetches 3824186
Core_1_LLC_prefetch_hit 269371 LLC_prefetch_Hit Ratio: 0.07044
Core_1_LLC_prefetch_miss 3554815
Core_1_LLC_writebacks 3626084
Core_1_LLC_writeback_hit 3577481 LLC_writeback_Hit Ratio: 0.98660
Core_1_LLC_writeback_miss 48603
Core_1_LLC_prefetch_requested 0
Core_1_LLC_prefetch_issued 0
Core_1_LLC_prefetch_useful 233599 LLC_Useful Ratio: inf
Core_1_LLC_prefetch_useless 13837436
Core_1_LLC_prefetch_late 0
Core_1_LLC_average_miss_latency 3898.93690

Core_1_major_page_fault 0
Core_1_minor_page_fault 37887

Core_2_instructions 657000005
Core_2_cycles 1172636107
Core_2_IPC 0.56028

Core_2_branch_prediction_accuracy 99.58943
Core_2_branch_MPKI 0.11904
Core_2_average_ROB_occupancy_at_mispredict 572.47017

Core_2_L1D_total_access 196496199
Core_2_L1D_total_hit 170550892 L1D_total_Hit Ratio: 0.86796
Core_2_L1D_total_miss 25945307
Core_2_L1D_loads 165786371
Core_2_L1D_load_hit 151514032 L1D_load_Hit Ratio: 0.91391
Core_2_L1D_load_miss 14272339
Core_2_L1D_RFOs 17115103
Core_2_L1D_RFO_hit 16244616 L1D_RFO_Hit Ratio: 0.94914
Core_2_L1D_RFO_miss 870487
Core_2_L1D_prefetches 13594725
Core_2_L1D_prefetch_hit 2792244 L1D_prefetch_Hit Ratio: 0.20539
Core_2_L1D_prefetch_miss 10802481
Core_2_L1D_writebacks 0
Core_2_L1D_writeback_hit 0 L1D_writeback_Hit Ratio: -nan
Core_2_L1D_writeback_miss 0
Core_2_L1D_prefetch_requested 21835845
Core_2_L1D_prefetch_issued 21835845
Core_2_L1D_prefetch_useful 10638946 L1D_Useful Ratio: 0.48722
Core_2_L1D_prefetch_useless 211388
Core_2_L1D_prefetch_late 1932280
Core_2_L1D_average_miss_latency 68286569.84570

Core_2_L1I_total_access 96481052
Core_2_L1I_total_hit 96476045 L1I_total_Hit Ratio: 0.99995
Core_2_L1I_total_miss 5007
Core_2_L1I_loads 96481052
Core_2_L1I_load_hit 96476045 L1I_load_Hit Ratio: 0.99995
Core_2_L1I_load_miss 5007
Core_2_L1I_RFOs 0
Core_2_L1I_RFO_hit 0 L1I_RFO_Hit Ratio: -nan
Core_2_L1I_RFO_miss 0
Core_2_L1I_prefetches 0
Core_2_L1I_prefetch_hit 0 L1I_prefetch_Hit Ratio: -nan
Core_2_L1I_prefetch_miss 0
Core_2_L1I_writebacks 0
Core_2_L1I_writeback_hit 0 L1I_writeback_Hit Ratio: -nan
Core_2_L1I_writeback_miss 0
Core_2_L1I_prefetch_requested 0
Core_2_L1I_prefetch_issued 0
Core_2_L1I_prefetch_useful 0 L1I_Useful Ratio: -nan
Core_2_L1I_prefetch_useless 0
Core_2_L1I_prefetch_late 0
Core_2_L1I_average_miss_latency 1129.07190

Core_2_L2C_total_access 32420656
Core_2_L2C_total_hit 26269433 L2C_total_Hit Ratio: 0.81027
Core_2_L2C_total_miss 6151223
Core_2_L2C_loads 12352411
Core_2_L2C_load_hit 10153733 L2C_load_Hit Ratio: 0.82200
Core_2_L2C_load_miss 2198678
Core_2_L2C_RFOs 870478
Core_2_L2C_RFO_hit 96780 L2C_RFO_Hit Ratio: 0.11118
Core_2_L2C_RFO_miss 773698
Core_2_L2C_prefetches 15304698
Core_2_L2C_prefetch_hit 12127353 L2C_prefetch_Hit Ratio: 0.79239
Core_2_L2C_prefetch_miss 3177345
Core_2_L2C_writebacks 3893069
Core_2_L2C_writeback_hit 3891567 L2C_writeback_Hit Ratio: 0.99961
Core_2_L2C_writeback_miss 1502
Core_2_L2C_prefetch_requested 3906136
Core_2_L2C_prefetch_issued 3906136
Core_2_L2C_prefetch_useful 957201 L2C_Useful Ratio: 0.24505
Core_2_L2C_prefetch_useless 2224873
Core_2_L2C_prefetch_late 648512
Core_2_L2C_average_miss_latency 964.39881

Core_2_LLC_total_access 9774042
Core_2_LLC_total_hit 4133597 LLC_total_Hit Ratio: 0.42292
Core_2_LLC_total_miss 5640445
Core_2_LLC_loads 1550308
Core_2_LLC_load_hit 287549 LLC_load_Hit Ratio: 0.18548
Core_2_LLC_load_miss 1262759
Core_2_LLC_RFOs 773698
Core_2_LLC_RFO_hit 124 LLC_RFO_Hit Ratio: 0.00016
Core_2_LLC_RFO_miss 773574
Core_2_LLC_prefetches 3825697
Core_2_LLC_prefetch_hit 279792 LLC_prefetch_Hit Ratio: 0.07313
Core_2_LLC_prefetch_miss 3545905
Core_2_LLC_writebacks 3624339
Core_2_LLC_writeback_hit 3566132 LLC_writeback_Hit Ratio: 0.98394
Core_2_LLC_writeback_miss 58207
Core_2_LLC_prefetch_requested 0
Core_2_LLC_prefetch_issued 0
Core_2_LLC_prefetch_useful 233599 LLC_Useful Ratio: inf
Core_2_LLC_prefetch_useless 13837436
Core_2_LLC_prefetch_late 0
Core_2_LLC_average_miss_latency 3893.70624

Core_2_major_page_fault 0
Core_2_minor_page_fault 37887

Core_3_instructions 657000005
Core_3_cycles 1173185778
Core_3_IPC 0.56001

Core_3_branch_prediction_accuracy 99.58944
Core_3_branch_MPKI 0.11916
Core_3_average_ROB_occupancy_at_mispredict 572.54823

Core_3_L1D_total_access 196492874
Core_3_L1D_total_hit 170550779 L1D_total_Hit Ratio: 0.86797
Core_3_L1D_total_miss 25942095
Core_3_L1D_loads 165790463
Core_3_L1D_load_hit 151515952 L1D_load_Hit Ratio: 0.91390
Core_3_L1D_load_miss 14274511
Core_3_L1D_RFOs 17116896
Core_3_L1D_RFO_hit 16250787 L1D_RFO_Hit Ratio: 0.94940
Core_3_L1D_RFO_miss 866109
Core_3_L1D_prefetches 13585515
Core_3_L1D_prefetch_hit 2784040 L1D_prefetch_Hit Ratio: 0.20493
Core_3_L1D_prefetch_miss 10801475
Core_3_L1D_writebacks 0
Core_3_L1D_writeback_hit 0 L1D_writeback_Hit Ratio: -nan
Core_3_L1D_writeback_miss 0
Core_3_L1D_prefetch_requested 21782805
Core_3_L1D_prefetch_issued 21782805
Core_3_L1D_prefetch_useful 10616964 L1D_Useful Ratio: 0.48740
Core_3_L1D_prefetch_useless 210456
Core_3_L1D_prefetch_late 1928566
Core_3_L1D_average_miss_latency 68209052.03487

Core_3_L1I_total_access 96487951
Core_3_L1I_total_hit 96482940 L1I_total_Hit Ratio: 0.99995
Core_3_L1I_total_miss 5011
Core_3_L1I_loads 96487951
Core_3_L1I_load_hit 96482940 L1I_load_Hit Ratio: 0.99995
Core_3_L1I_load_miss 5011
Core_3_L1I_RFOs 0
Core_3_L1I_RFO_hit 0 L1I_RFO_Hit Ratio: -nan
Core_3_L1I_RFO_miss 0
Core_3_L1I_prefetches 0
Core_3_L1I_prefetch_hit 0 L1I_prefetch_Hit Ratio: -nan
Core_3_L1I_prefetch_miss 0
Core_3_L1I_writebacks 0
Core_3_L1I_writeback_hit 0 L1I_writeback_Hit Ratio: -nan
Core_3_L1I_writeback_miss 0
Core_3_L1I_prefetch_requested 0
Core_3_L1I_prefetch_issued 0
Core_3_L1I_prefetch_useful 0 L1I_Useful Ratio: -nan
Core_3_L1I_prefetch_useless 0
Core_3_L1I_prefetch_late 0
Core_3_L1I_average_miss_latency 1339.14428

Core_3_L2C_total_access 32408669
Core_3_L2C_total_hit 26257966 L2C_total_Hit Ratio: 0.81021
Core_3_L2C_total_miss 6150703
Core_3_L2C_loads 12353133
Core_3_L2C_load_hit 10145661 L2C_load_Hit Ratio: 0.82130
Core_3_L2C_load_miss 2207472
Core_3_L2C_RFOs 866107
Core_3_L2C_RFO_hit 92709 L2C_RFO_Hit Ratio: 0.10704
Core_3_L2C_RFO_miss 773398
Core_3_L2C_prefetches 15296359
Core_3_L2C_prefetch_hit 12128144 L2C_prefetch_Hit Ratio: 0.79288
Core_3_L2C_prefetch_miss 3168215
Core_3_L2C_writebacks 3893070
Core_3_L2C_writeback_hit 3891452 L2C_writeback_Hit Ratio: 0.99958
Core_3_L2C_writeback_miss 1618
Core_3_L2C_prefetch_requested 3770825
Core_3_L2C_prefetch_issued 3770825
Core_3_L2C_prefetch_useful 951929 L2C_Useful Ratio: 0.25245
Core_3_L2C_prefetch_useless 2217685
Core_3_L2C_prefetch_late 648622
Core_3_L2C_average_miss_latency 959.67898

Core_3_LLC_total_access 9778810
Core_3_LLC_total_hit 4141894 LLC_total_Hit Ratio: 0.42356
Core_3_LLC_total_miss 5636916
Core_3_LLC_loads 1558944
Core_3_LLC_load_hit 299609 LLC_load_Hit Ratio: 0.19219
Core_3_LLC_load_miss 1259335
Core_3_LLC_RFOs 773398
Core_3_LLC_RFO_hit 148 LLC_RFO_Hit Ratio: 0.00019
Core_3_LLC_RFO_miss 773250
Core_3_LLC_prefetches 3816741
Core_3_LLC_prefetch_hit 279737 LLC_prefetch_Hit Ratio: 0.07329
Core_3_LLC_prefetch_miss 3537004
Core_3_LLC_writebacks 3629727
Core_3_LLC_writeback_hit 3562400 LLC_writeback_Hit Ratio: 0.98145
Core_3_LLC_writeback_miss 67327
Core_3_LLC_prefetch_requested 0
Core_3_LLC_prefetch_issued 0
Core_3_LLC_prefetch_useful 233599 LLC_Useful Ratio: inf
Core_3_LLC_prefetch_useless 13837436
Core_3_LLC_prefetch_late 0
Core_3_LLC_average_miss_latency 3896.14390

Core_3_major_page_fault 0
Core_3_minor_page_fault 37887

[Bingo] PHT Access: 3685583
[Bingo] PHT Hit PC+Addr: 1817980
[Bingo] PHT Hit PC+Offs: 1734095
[Bingo] PHT Miss: 133508
[Bingo] Prefetch PC+Addr: 0
[Bingo] Prefetch PC+Offs: 0
[Bingo] Useful PC+Addr: 0
[Bingo] Useful PC+Offs: 0
[Bingo] Useless PC+Addr: 0
[Bingo] Useless PC+Offs: 0
[Bingo] L1 Prefetch per Region: 7.70827
[Bingo] L2 Prefetch per Region: 0.33070
[Bingo] L3 Prefetch per Region: 0.00000
[Bingo] No Prefetch per Region: 23.96104
[Bingo] Number of Voters Mean: 13.73074
[Bingo] Number of Voters SD: 4.19357
PHT read accesses: 45886475
PHT write accesses: 3485568
AT read accesses: 158617205
AT write accesses: 158617232
FT read accesses: 34662296
FT write accesses: 3685583
PS read accesses: 17346385
PS write accesses: 3552075
PHT tag read accesses: 129528614
PHT tag write accesses: 5303548
AT tag read accesses: 4524446229
AT tag write accesses: 162102800
FT tag read accesses: 2096926941
FT tag write accesses: 22859318
PS tag read accesses: 2850839976
PS tag write accesses: 20829991
[Bingo2] PHT Access: 987336
[Bingo2] PHT Hit PC+Addr: 47933
[Bingo2] PHT Hit PC+Offs: 901162
[Bingo2] PHT Miss: 38241
[Bingo2] Prefetch PC+Addr: 0
[Bingo2] Prefetch PC+Offs: 0
[Bingo2] Useful PC+Addr: 0
[Bingo2] Useful PC+Offs: 0
[Bingo2] Useless PC+Addr: 0
[Bingo2] Useless PC+Offs: 0
[Bingo2] L1 Prefetch per Region: 0.00000
[Bingo2] L2 Prefetch per Region: 5.44778
[Bingo2] L3 Prefetch per Region: 0.00000
[Bingo2] No Prefetch per Region: 26.55222
[Bingo2] Number of Voters Mean: 15.52330
[Bingo2] Number of Voters SD: 2.38090
PHT read accesses: 14716797
PHT write accesses: 773376
AT read accesses: 11397279
AT write accesses: 12156047
FT read accesses: 2623687
FT write accesses: 987336
PS read accesses: 2277501
PS write accesses: 949095
PHT tag read accesses: 39854897
PHT tag write accesses: 821309
AT tag read accesses: 631294291
AT tag write accesses: 12170782
FT tag read accesses: 461796400
FT tag write accesses: 2702726
PS tag read accesses: 235225264
PS tag write accesses: 3219315
[Bingo] PHT Access: 3663814
[Bingo] PHT Hit PC+Addr: 1805655
[Bingo] PHT Hit PC+Offs: 1725856
[Bingo] PHT Miss: 132303
[Bingo] Prefetch PC+Addr: 0
[Bingo] Prefetch PC+Offs: 0
[Bingo] Useful PC+Addr: 0
[Bingo] Useful PC+Offs: 0
[Bingo] Useless PC+Addr: 0
[Bingo] Useless PC+Offs: 0
[Bingo] L1 Prefetch per Region: 7.71065
[Bingo] L2 Prefetch per Region: 0.32980
[Bingo] L3 Prefetch per Region: 0.00000
[Bingo] No Prefetch per Region: 23.95956
[Bingo] Number of Voters Mean: 13.72974
[Bingo] Number of Voters SD: 4.19365
PHT read accesses: 45626109
PHT write accesses: 3464559
AT read accesses: 157711943
AT write accesses: 157711968
FT read accesses: 34582650
FT write accesses: 3663814
PS read accesses: 17222355
PS write accesses: 3531511
PHT tag read accesses: 128826069
PHT tag write accesses: 5270214
AT tag read accesses: 4509096064
AT tag write accesses: 161176527
FT tag read accesses: 2095398262
FT tag write accesses: 22786918
PS tag read accesses: 2835533266
PS tag write accesses: 20685590
[Bingo2] PHT Access: 980343
[Bingo2] PHT Hit PC+Addr: 44970
[Bingo2] PHT Hit PC+Offs: 898570
[Bingo2] PHT Miss: 36803
[Bingo2] Prefetch PC+Addr: 0
[Bingo2] Prefetch PC+Offs: 0
[Bingo2] Useful PC+Addr: 0
[Bingo2] Useful PC+Offs: 0
[Bingo2] Useless PC+Addr: 0
[Bingo2] Useless PC+Offs: 0
[Bingo2] L1 Prefetch per Region: 0.00000
[Bingo2] L2 Prefetch per Region: 5.85428
[Bingo2] L3 Prefetch per Region: 0.00000
[Bingo2] No Prefetch per Region: 26.14572
[Bingo2] Number of Voters Mean: 15.52270
[Bingo2] Number of Voters SD: 2.38386
PHT read accesses: 14629844
PHT write accesses: 767912
AT read accesses: 11328560
AT write accesses: 12082357
FT read accesses: 2592726
FT write accesses: 980343
PS read accesses: 2252220
PS write accesses: 943540
PHT tag read accesses: 39521331
PHT tag write accesses: 812882
AT tag read accesses: 629776958
AT tag write accesses: 12096600
FT tag read accesses: 461135198
FT tag write accesses: 2673641
PS tag read accesses: 233931732
PS tag write accesses: 3188190
[Bingo] PHT Access: 3648527
[Bingo] PHT Hit PC+Addr: 1802435
[Bingo] PHT Hit PC+Offs: 1714629
[Bingo] PHT Miss: 131463
[Bingo] Prefetch PC+Addr: 0
[Bingo] Prefetch PC+Offs: 0
[Bingo] Useful PC+Addr: 0
[Bingo] Useful PC+Offs: 0
[Bingo] Useless PC+Addr: 0
[Bingo] Useless PC+Offs: 0
[Bingo] L1 Prefetch per Region: 7.71362
[Bingo] L2 Prefetch per Region: 0.33137
[Bingo] L3 Prefetch per Region: 0.00000
[Bingo] No Prefetch per Region: 23.95500
[Bingo] Number of Voters Mean: 13.72548
[Bingo] Number of Voters SD: 4.28467
PHT read accesses: 45387615
PHT write accesses: 3450468
AT read accesses: 156831043
AT write accesses: 156831055
FT read accesses: 34514092
FT write accesses: 3648527
PS read accesses: 17163570
PS write accesses: 3517064
PHT tag read accesses: 128161629
PHT tag write accesses: 5252903
AT tag read accesses: 4491396767
AT tag write accesses: 160281523
FT tag read accesses: 2091309475
FT tag write accesses: 22729772
PS tag read accesses: 2820445510
PS tag write accesses: 20612787
[Bingo2] PHT Access: 973098
[Bingo2] PHT Hit PC+Addr: 45924
[Bingo2] PHT Hit PC+Offs: 892798
[Bingo2] PHT Miss: 34376
[Bingo2] Prefetch PC+Addr: 0
[Bingo2] Prefetch PC+Offs: 0
[Bingo2] Useful PC+Addr: 0
[Bingo2] Useful PC+Offs: 0
[Bingo2] Useless PC+Addr: 0
[Bingo2] Useless PC+Offs: 0
[Bingo2] L1 Prefetch per Region: 0.00000
[Bingo2] L2 Prefetch per Region: 5.84170
[Bingo2] L3 Prefetch per Region: 0.00000
[Bingo2] No Prefetch per Region: 26.15830
[Bingo2] Number of Voters Mean: 15.54691
[Bingo2] Number of Voters SD: 2.35411
PHT read accesses: 14583668
PHT write accesses: 764871
AT read accesses: 11295779
AT write accesses: 12044983
FT read accesses: 2597872
FT write accesses: 973098
PS read accesses: 2239903
PS write accesses: 938722
PHT tag read accesses: 39327261
PHT tag write accesses: 810795
AT tag read accesses: 628539269
AT tag write accesses: 12060659
FT tag read accesses: 460462155
FT tag write accesses: 2673590
PS tag read accesses: 232963916
PS tag write accesses: 3171847
[Bingo] PHT Access: 3645310
[Bingo] PHT Hit PC+Addr: 1789502
[Bingo] PHT Hit PC+Offs: 1724217
[Bingo] PHT Miss: 131591
[Bingo] Prefetch PC+Addr: 0
[Bingo] Prefetch PC+Offs: 0
[Bingo] Useful PC+Addr: 0
[Bingo] Useful PC+Offs: 0
[Bingo] Useless PC+Addr: 0
[Bingo] Useless PC+Offs: 0
[Bingo] L1 Prefetch per Region: 7.71230
[Bingo] L2 Prefetch per Region: 0.33205
[Bingo] L3 Prefetch per Region: 0.00000
[Bingo] No Prefetch per Region: 23.95565
[Bingo] Number of Voters Mean: 13.73919
[Bingo] Number of Voters SD: 4.19049
PHT read accesses: 45379783
PHT write accesses: 3447369
AT read accesses: 157276004
AT write accesses: 157276032
FT read accesses: 34501853
FT write accesses: 3645310
PS read accesses: 17162220
PS write accesses: 3513719
PHT tag read accesses: 128298032
PHT tag write accesses: 5236871
AT tag read accesses: 4501256991
AT tag write accesses: 160723401
FT tag read accesses: 2094038391
FT tag write accesses: 22718772
PS tag read accesses: 2827833035
PS tag write accesses: 20608084
[Bingo2] PHT Access: 979978
[Bingo2] PHT Hit PC+Addr: 46369
[Bingo2] PHT Hit PC+Offs: 896067
[Bingo2] PHT Miss: 37542
[Bingo2] Prefetch PC+Addr: 0
[Bingo2] Prefetch PC+Offs: 0
[Bingo2] Useful PC+Addr: 0
[Bingo2] Useful PC+Offs: 0
[Bingo2] Useless PC+Addr: 0
[Bingo2] Useless PC+Offs: 0
[Bingo2] L1 Prefetch per Region: 0.00000
[Bingo2] L2 Prefetch per Region: 5.57095
[Bingo2] L3 Prefetch per Region: 0.00000
[Bingo2] No Prefetch per Region: 26.42905
[Bingo2] Number of Voters Mean: 15.53326
[Bingo2] Number of Voters SD: 2.36489
PHT read accesses: 14605122
PHT write accesses: 766568
AT read accesses: 11272917
AT write accesses: 12026006
FT read accesses: 2586020
FT write accesses: 979978
PS read accesses: 2257183
PS write accesses: 942436
PHT tag read accesses: 39519597
PHT tag write accesses: 812937
AT tag read accesses: 628811621
AT tag write accesses: 12039613
FT tag read accesses: 461162759
FT tag write accesses: 2669175
PS tag read accesses: 232953032
PS tag write accesses: 3193430
Channel_0_RQ_row_buffer_hit 9802234
Channel_0_RQ_row_buffer_miss 12513599
Channel_0_WQ_row_buffer_hit 5124644
Channel_0_WQ_row_buffer_miss 7936044
Channel_0_WQ_full 25808
Channel_0_dbus_congested 24735901

avg_congested_cycle 11

EzSearch AVG IPC :0.56201: L2-Pf-HR :0.79297 : L2-HR :0.81102 Uful:0.25708
EzSearch AVG IPC :0.56049: L2-Pf-HR :0.79279 : L2-HR :0.81109 Uful:0.24672
EzSearch AVG IPC :0.56028: L2-Pf-HR :0.79239 : L2-HR :0.81052 Uful:0.24505
EzSearch AVG IPC :0.56001: L2-Pf-HR :0.79288 : L2-HR :0.81021 Uful:0.25245
     > Finished combination: TraceType=770-tot Sim:657000000 Prefetcher=L2bingo_dpc3 L1=bingo_dpc3
