TRACE: [42000000]_FE_[OPT-350M]_[h16]_[s256]_[d64] Warmup: 2000000 NumTraces: 42000000
L1:bingo_dpc3:L2:bingo_dpc3
*************************************************
   ChampSim Multicore Out-of-Order Simulator
   Last compiled: Oct 29 2024 15:17:50
*************************************************

trace_0 770-tot_memTraces_v3_rexz/memTraces[42000000]_FE_[OPT-350M]_[h16]_[s256]_[d64].champsim.9.xz
trace_1 770-tot_memTraces_v3_rexz/memTraces[42000000]_FE_[OPT-350M]_[h16]_[s256]_[d64].champsim.9.xz
trace_2 770-tot_memTraces_v3_rexz/memTraces[42000000]_FE_[OPT-350M]_[h16]_[s256]_[d64].champsim.9.xz
trace_3 770-tot_memTraces_v3_rexz/memTraces[42000000]_FE_[OPT-350M]_[h16]_[s256]_[d64].champsim.9.xz
Bingo PHT WAYS: 16 and PHT_SIZE: 16384
Bingo2 PHT WAYS: 16 and PHT_SIZE: 16384
Bingo PHT WAYS: 16 and PHT_SIZE: 16384
Bingo2 PHT WAYS: 16 and PHT_SIZE: 16384
Bingo PHT WAYS: 16 and PHT_SIZE: 16384
Bingo2 PHT WAYS: 16 and PHT_SIZE: 16384
Bingo PHT WAYS: 16 and PHT_SIZE: 16384
Bingo2 PHT WAYS: 16 and PHT_SIZE: 16384
MAIN.cc ln 751 stats print skipped
CPU  0 inst:    1000002 cyc:     500803 now IPC :1.99680: AVG IPC :1.99680: L2-Pf-HR :0.81451: L2-HR :0.67561: (Sim:0h0m26s) 
CPU  2 inst:    1000002 cyc:     500994 now IPC :1.99604: AVG IPC :1.99604: L2-Pf-HR :0.81336: L2-HR :0.67407: (Sim:0h0m26s) 
CPU  1 inst:    1000002 cyc:     500995 now IPC :1.99603: AVG IPC :1.99603: L2-Pf-HR :0.81445: L2-HR :0.67485: (Sim:0h0m26s) 
CPU  3 inst:    1000002 cyc:     501080 now IPC :1.99569: AVG IPC :1.99569: L2-Pf-HR :0.79888: L2-HR :0.67360: (Sim:0h0m26s) 
CPU  0 inst:    2000000 cyc:     988006 now IPC :2.05253: AVG IPC :2.02428: L2-Pf-HR :0.80374: L2-HR :0.74849: (Sim:0h0m54s) 
CPU  2 inst:    2000000 cyc:     988493 now IPC :2.05128: AVG IPC :2.02328: L2-Pf-HR :0.79872: L2-HR :0.74779: (Sim:0h0m54s) 
CPU  3 inst:    2000000 cyc:     988518 now IPC :2.05154: AVG IPC :2.02323: L2-Pf-HR :0.80741: L2-HR :0.74311: (Sim:0h0m54s) 
CPU  1 inst:    2000000 cyc:     988544 now IPC :2.05107: AVG IPC :2.02318: L2-Pf-HR :0.79824: L2-HR :0.74436: (Sim:0h0m54s) 

Warmup complete CPU  0 instructions:    2001080 cycles:     988545 (Simulation time: 0 hr 0 min 54 sec) 
Warmup complete CPU  1 instructions:    2000002 cycles:     988545 (Simulation time: 0 hr 0 min 54 sec) 
Warmup complete CPU  2 instructions:    2000149 cycles:     988544 (Simulation time: 0 hr 0 min 54 sec) 
Warmup complete CPU  3 instructions:    2000076 cycles:     988544 (Simulation time: 0 hr 0 min 54 sec) 

CPU  2 inst:    3000003 cyc:    1693713 now IPC :1.41800: AVG IPC :1.41789: L2-Pf-HR :0.79864: L2-HR :0.81330: (Sim:0h1m20s) 
CPU  0 inst:    3000003 cyc:    1694514 now IPC :1.41542: AVG IPC :1.41497: L2-Pf-HR :0.79575: L2-HR :0.81299: (Sim:0h1m20s) 
CPU  1 inst:    3000003 cyc:    1695100 now IPC :1.41532: AVG IPC :1.41532: L2-Pf-HR :0.81726: L2-HR :0.82406: (Sim:0h1m20s) 
CPU  3 inst:    3000003 cyc:    1715325 now IPC :1.37589: AVG IPC :1.37583: L2-Pf-HR :0.83251: L2-HR :0.81867: (Sim:0h1m21s) 
CPU  0 inst:    4000003 cyc:    2395693 now IPC :1.42617: AVG IPC :1.42055: L2-Pf-HR :0.80623: L2-HR :0.82171: (Sim:0h1m46s) 
CPU  3 inst:    4000003 cyc:    2416461 now IPC :1.42626: AVG IPC :1.40059: L2-Pf-HR :0.81005: L2-HR :0.81228: (Sim:0h1m47s) 
CPU  2 inst:    4000003 cyc:    2418783 now IPC :1.37918: AVG IPC :1.39827: L2-Pf-HR :0.79889: L2-HR :0.81361: (Sim:0h1m47s) 
CPU  1 inst:    4000003 cyc:    2422894 now IPC :1.37402: AVG IPC :1.39436: L2-Pf-HR :0.80288: L2-HR :0.81647: (Sim:0h1m47s) 
CPU  1 inst:    5000002 cyc:    3109133 now IPC :1.45722: AVG IPC :1.41470: L2-Pf-HR :0.79739: L2-HR :0.81705: (Sim:0h2m12s) 
CPU  0 inst:    5000002 cyc:    3112945 now IPC :1.39421: AVG IPC :1.41166: L2-Pf-HR :0.80273: L2-HR :0.81851: (Sim:0h2m12s) 
CPU  2 inst:    5000002 cyc:    3136082 now IPC :1.39412: AVG IPC :1.39688: L2-Pf-HR :0.80168: L2-HR :0.81507: (Sim:0h2m13s) 
CPU  3 inst:    5000002 cyc:    3136335 now IPC :1.38913: AVG IPC :1.39675: L2-Pf-HR :0.80613: L2-HR :0.81407: (Sim:0h2m13s) 
CPU  0 inst:    6000000 cyc:    3775947 now IPC :1.50829: AVG IPC :1.43464: L2-Pf-HR :0.80429: L2-HR :0.82215: (Sim:0h2m38s) 
CPU  1 inst:    6000000 cyc:    3807719 now IPC :1.43146: AVG IPC :1.41885: L2-Pf-HR :0.80240: L2-HR :0.81977: (Sim:0h2m39s) 
CPU  3 inst:    6000000 cyc:    3830292 now IPC :1.44101: AVG IPC :1.40756: L2-Pf-HR :0.80574: L2-HR :0.81654: (Sim:0h2m40s) 
CPU  2 inst:    6000000 cyc:    3847413 now IPC :1.40581: AVG IPC :1.39910: L2-Pf-HR :0.80283: L2-HR :0.81531: (Sim:0h2m40s) 
CPU  0 inst:    7000002 cyc:    4479278 now IPC :1.42181: AVG IPC :1.43206: L2-Pf-HR :0.80197: L2-HR :0.82103: (Sim:0h3m3s) 
CPU  1 inst:    7000002 cyc:    4530683 now IPC :1.38320: AVG IPC :1.41158: L2-Pf-HR :0.79841: L2-HR :0.81685: (Sim:0h3m5s) 
CPU  2 inst:    7000002 cyc:    4568800 now IPC :1.38622: AVG IPC :1.39651: L2-Pf-HR :0.80243: L2-HR :0.81536: (Sim:0h3m7s) 
CPU  3 inst:    7000002 cyc:    4584442 now IPC :1.32600: AVG IPC :1.39045: L2-Pf-HR :0.80296: L2-HR :0.81538: (Sim:0h3m7s) 
CPU  0 inst:    8000003 cyc:    5225804 now IPC :1.33954: AVG IPC :1.41576: L2-Pf-HR :0.80261: L2-HR :0.82218: (Sim:0h3m29s) 
CPU  1 inst:    8000003 cyc:    5306644 now IPC :1.28873: AVG IPC :1.38950: L2-Pf-HR :0.79966: L2-HR :0.81832: (Sim:0h3m32s) 
CPU  2 inst:    8000003 cyc:    5353534 now IPC :1.27432: AVG IPC :1.37454: L2-Pf-HR :0.80230: L2-HR :0.81655: (Sim:0h3m34s) 
CPU  3 inst:    8000003 cyc:    5363042 now IPC :1.28436: AVG IPC :1.37157: L2-Pf-HR :0.80029: L2-HR :0.81535: (Sim:0h3m34s) 
CPU  0 inst:    9000005 cyc:    5999589 now IPC :1.29235: AVG IPC :1.39670: L2-Pf-HR :0.80325: L2-HR :0.82296: (Sim:0h3m54s) 
CPU  1 inst:    9000005 cyc:    6156067 now IPC :1.17727: AVG IPC :1.35462: L2-Pf-HR :0.79922: L2-HR :0.81833: (Sim:0h4m0s) 
CPU  3 inst:    9000005 cyc:    6244754 now IPC :1.13416: AVG IPC :1.33174: L2-Pf-HR :0.80251: L2-HR :0.81730: (Sim:0h4m3s) 
CPU  2 inst:    9000005 cyc:    6258435 now IPC :1.10510: AVG IPC :1.32827: L2-Pf-HR :0.80210: L2-HR :0.81618: (Sim:0h4m3s) 
CPU  0 inst:   10000000 cyc:    6874655 now IPC :1.14277: AVG IPC :1.35895: L2-Pf-HR :0.80138: L2-HR :0.82110: (Sim:0h4m22s) 
CPU  1 inst:   10000000 cyc:    7043655 now IPC :1.12664: AVG IPC :1.32120: L2-Pf-HR :0.79947: L2-HR :0.81881: (Sim:0h4m27s) 
CPU  3 inst:   10000005 cyc:    7156275 now IPC :1.09707: AVG IPC :1.29706: L2-Pf-HR :0.80326: L2-HR :0.81909: (Sim:0h4m31s) 
CPU  2 inst:   10000003 cyc:    7175554 now IPC :1.09037: AVG IPC :1.29301: L2-Pf-HR :0.80013: L2-HR :0.81557: (Sim:0h4m32s) 
CPU  0 inst:   11000002 cyc:    7860859 now IPC :1.01399: AVG IPC :1.30945: L2-Pf-HR :0.80168: L2-HR :0.82055: (Sim:0h4m52s) 
CPU  1 inst:   11000002 cyc:    8096813 now IPC :0.94953: AVG IPC :1.26613: L2-Pf-HR :0.79981: L2-HR :0.81866: (Sim:0h4m59s) 
CPU  3 inst:   11000002 cyc:    8124673 now IPC :1.03263: AVG IPC :1.26118: L2-Pf-HR :0.80007: L2-HR :0.81774: (Sim:0h4m59s) 
CPU  2 inst:   11000002 cyc:    8154607 now IPC :1.02139: AVG IPC :1.25590: L2-Pf-HR :0.79947: L2-HR :0.81609: (Sim:0h5m1s) 
CPU  0 inst:   12000004 cyc:    8741600 now IPC :1.13541: AVG IPC :1.28968: L2-Pf-HR :0.80215: L2-HR :0.82093: (Sim:0h5m19s) 
CPU  2 inst:   12000004 cyc:    9177651 now IPC :0.97748: AVG IPC :1.22112: L2-Pf-HR :0.80027: L2-HR :0.81793: (Sim:0h5m29s) 
CPU  1 inst:   12000004 cyc:    9188757 now IPC :0.91580: AVG IPC :1.21948: L2-Pf-HR :0.80047: L2-HR :0.81942: (Sim:0h5m29s) 
CPU  3 inst:   12000004 cyc:    9241009 now IPC :0.89579: AVG IPC :1.21175: L2-Pf-HR :0.80019: L2-HR :0.81780: (Sim:0h5m31s) 
CPU  0 inst:   13000005 cyc:    9859815 now IPC :0.89428: AVG IPC :1.23984: L2-Pf-HR :0.80216: L2-HR :0.81990: (Sim:0h5m50s) 
CPU  1 inst:   13000005 cyc:   10288623 now IPC :0.90920: AVG IPC :1.18279: L2-Pf-HR :0.80049: L2-HR :0.81967: (Sim:0h5m58s) 
CPU  3 inst:   13000005 cyc:   10414410 now IPC :0.85222: AVG IPC :1.16699: L2-Pf-HR :0.80114: L2-HR :0.81937: (Sim:0h6m2s) 
CPU  2 inst:   13000005 cyc:   10420824 now IPC :0.80439: AVG IPC :1.16619: L2-Pf-HR :0.79815: L2-HR :0.81683: (Sim:0h6m2s) 
CPU  0 inst:   14000001 cyc:   10969473 now IPC :0.90117: AVG IPC :1.20218: L2-Pf-HR :0.80293: L2-HR :0.81994: (Sim:0h6m20s) 
CPU  1 inst:   14000001 cyc:   11303207 now IPC :0.98562: AVG IPC :1.16339: L2-Pf-HR :0.80140: L2-HR :0.81978: (Sim:0h6m28s) 
CPU  2 inst:   14000001 cyc:   11475035 now IPC :0.94857: AVG IPC :1.14432: L2-Pf-HR :0.79947: L2-HR :0.81828: (Sim:0h6m32s) 
CPU  3 inst:   14000001 cyc:   11561113 now IPC :0.87206: AVG IPC :1.13501: L2-Pf-HR :0.80208: L2-HR :0.81992: (Sim:0h6m34s) 
CPU  0 inst:   15000000 cyc:   12193506 now IPC :0.81697: AVG IPC :1.16010: L2-Pf-HR :0.80286: L2-HR :0.81981: (Sim:0h6m52s) 
CPU  1 inst:   15000000 cyc:   12242031 now IPC :1.06516: AVG IPC :1.15520: L2-Pf-HR :0.80168: L2-HR :0.82039: (Sim:0h6m53s) 
CPU  2 inst:   15000000 cyc:   12617652 now IPC :0.87518: AVG IPC :1.11787: L2-Pf-HR :0.79903: L2-HR :0.81816: (Sim:0h7m4s) 
CPU  3 inst:   15000000 cyc:   12748293 now IPC :0.84233: AVG IPC :1.10546: L2-Pf-HR :0.80072: L2-HR :0.81853: (Sim:0h7m7s) 
CPU  0 inst:   16000002 cyc:   13112156 now IPC :1.08856: AVG IPC :1.15468: L2-Pf-HR :0.80294: L2-HR :0.82099: (Sim:0h7m18s) 
CPU  1 inst:   16000002 cyc:   13318557 now IPC :0.92892: AVG IPC :1.13544: L2-Pf-HR :0.80196: L2-HR :0.82043: (Sim:0h7m24s) 
CPU  2 inst:   16000002 cyc:   13654277 now IPC :0.96467: AVG IPC :1.10533: L2-Pf-HR :0.80012: L2-HR :0.81854: (Sim:0h7m33s) 
CPU  3 inst:   16000002 cyc:   13865780 now IPC :0.89487: AVG IPC :1.08718: L2-Pf-HR :0.80198: L2-HR :0.81943: (Sim:0h7m39s) 
CPU  0 inst:   17000003 cyc:   14286047 now IPC :0.85187: AVG IPC :1.12795: L2-Pf-HR :0.80463: L2-HR :0.82091: (Sim:0h7m50s) 
CPU  1 inst:   17000003 cyc:   14492005 now IPC :0.85219: AVG IPC :1.11083: L2-Pf-HR :0.80450: L2-HR :0.82014: (Sim:0h7m54s) 
CPU  2 inst:   17000003 cyc:   14877038 now IPC :0.81782: AVG IPC :1.08002: L2-Pf-HR :0.80238: L2-HR :0.81841: (Sim:0h7m58s) 
CPU  3 inst:   17000003 cyc:   15294461 now IPC :0.69995: AVG IPC :1.04851: L2-Pf-HR :0.80363: L2-HR :0.81940: (Sim:0h8m1s) 
CPU  0 inst:   18000001 cyc:   26218723 now IPC :0.08380: AVG IPC :0.63412: L2-Pf-HR :0.74406: L2-HR :0.75070: (Sim:0h10m35s) 
CPU  1 inst:   18000001 cyc:   26734428 now IPC :0.08168: AVG IPC :0.62146: L2-Pf-HR :0.74347: L2-HR :0.74972: (Sim:0h10m43s) 
CPU  2 inst:   18000001 cyc:   27124485 now IPC :0.08165: AVG IPC :0.61218: L2-Pf-HR :0.74056: L2-HR :0.74813: (Sim:0h10m49s) 
CPU  3 inst:   18000001 cyc:   27264478 now IPC :0.08354: AVG IPC :0.60892: L2-Pf-HR :0.74063: L2-HR :0.74935: (Sim:0h10m51s) 
CPU  0 inst:   19000000 cyc:   29613798 now IPC :0.29454: AVG IPC :0.59384: L2-Pf-HR :0.71194: L2-HR :0.73582: (Sim:0h11m24s) 
CPU  1 inst:   19000000 cyc:   30124504 now IPC :0.29498: AVG IPC :0.58347: L2-Pf-HR :0.71104: L2-HR :0.73479: (Sim:0h11m32s) 
CPU  2 inst:   19000000 cyc:   30514585 now IPC :0.29498: AVG IPC :0.57576: L2-Pf-HR :0.70803: L2-HR :0.73321: (Sim:0h11m37s) 
CPU  3 inst:   19000000 cyc:   30654486 now IPC :0.29498: AVG IPC :0.57305: L2-Pf-HR :0.70843: L2-HR :0.73449: (Sim:0h11m39s) 
CPU  0 inst:   20000000 cyc:   33005086 now IPC :0.29487: AVG IPC :0.56218: L2-Pf-HR :0.68249: L2-HR :0.72197: (Sim:0h12m15s) 
CPU  1 inst:   20000000 cyc:   33516675 now IPC :0.29480: AVG IPC :0.55337: L2-Pf-HR :0.68143: L2-HR :0.72094: (Sim:0h12m23s) 
CPU  2 inst:   20000000 cyc:   33906691 now IPC :0.29480: AVG IPC :0.54681: L2-Pf-HR :0.67825: L2-HR :0.71933: (Sim:0h12m29s) 
CPU  3 inst:   20000000 cyc:   34046798 now IPC :0.29478: AVG IPC :0.54449: L2-Pf-HR :0.67882: L2-HR :0.72061: (Sim:0h12m31s) 
CPU  0 inst:   21000000 cyc:   36394136 now IPC :0.29507: AVG IPC :0.53661: L2-Pf-HR :0.65538: L2-HR :0.70904: (Sim:0h13m5s) 
CPU  1 inst:   21000000 cyc:   36904481 now IPC :0.29518: AVG IPC :0.52901: L2-Pf-HR :0.65416: L2-HR :0.70800: (Sim:0h13m12s) 
CPU  2 inst:   21000000 cyc:   37295231 now IPC :0.29511: AVG IPC :0.52332: L2-Pf-HR :0.65083: L2-HR :0.70636: (Sim:0h13m17s) 
CPU  3 inst:   21000000 cyc:   37434694 now IPC :0.29517: AVG IPC :0.52131: L2-Pf-HR :0.65153: L2-HR :0.70764: (Sim:0h13m19s) 
CPU  0 inst:   22000000 cyc:   39781646 now IPC :0.29520: AVG IPC :0.51553: L2-Pf-HR :0.63034: L2-HR :0.69694: (Sim:0h13m59s) 
CPU  1 inst:   22000000 cyc:   40292540 now IPC :0.29515: AVG IPC :0.50885: L2-Pf-HR :0.62901: L2-HR :0.69591: (Sim:0h14m6s) 
CPU  2 inst:   22000000 cyc:   40682694 now IPC :0.29521: AVG IPC :0.50385: L2-Pf-HR :0.62556: L2-HR :0.69424: (Sim:0h14m12s) 
CPU  3 inst:   22000000 cyc:   40822534 now IPC :0.29517: AVG IPC :0.50208: L2-Pf-HR :0.62637: L2-HR :0.69551: (Sim:0h14m14s) 
CPU  0 inst:   23000000 cyc:   43169866 now IPC :0.29514: AVG IPC :0.49783: L2-Pf-HR :0.60713: L2-HR :0.68559: (Sim:0h14m48s) 
CPU  1 inst:   23000000 cyc:   43680350 now IPC :0.29518: AVG IPC :0.49190: L2-Pf-HR :0.60572: L2-HR :0.68456: (Sim:0h14m55s) 
CPU  2 inst:   23000000 cyc:   44071368 now IPC :0.29510: AVG IPC :0.48743: L2-Pf-HR :0.60225: L2-HR :0.68291: (Sim:0h15m1s) 
CPU  3 inst:   23000000 cyc:   44210856 now IPC :0.29513: AVG IPC :0.48586: L2-Pf-HR :0.60311: L2-HR :0.68416: (Sim:0h15m3s) 
CPU  0 inst:   24000000 cyc:   46560309 now IPC :0.29495: AVG IPC :0.48273: L2-Pf-HR :0.58566: L2-HR :0.67497: (Sim:0h15m36s) 
CPU  1 inst:   24000000 cyc:   47070335 now IPC :0.29499: AVG IPC :0.47741: L2-Pf-HR :0.58408: L2-HR :0.67390: (Sim:0h15m43s) 
CPU  2 inst:   24000000 cyc:   47460738 now IPC :0.29504: AVG IPC :0.47340: L2-Pf-HR :0.58067: L2-HR :0.67229: (Sim:0h15m49s) 
CPU  3 inst:   24000000 cyc:   47600701 now IPC :0.29500: AVG IPC :0.47198: L2-Pf-HR :0.58152: L2-HR :0.67349: (Sim:0h15m51s) 
CPU  0 inst:   25000000 cyc:   49954480 now IPC :0.29462: AVG IPC :0.46969: L2-Pf-HR :0.56560: L2-HR :0.66494: (Sim:0h16m25s) 
CPU  1 inst:   25000000 cyc:   50463307 now IPC :0.29473: AVG IPC :0.46488: L2-Pf-HR :0.56398: L2-HR :0.66389: (Sim:0h16m32s) 
CPU  2 inst:   25000000 cyc:   50853141 now IPC :0.29478: AVG IPC :0.46125: L2-Pf-HR :0.56046: L2-HR :0.66224: (Sim:0h16m38s) 
CPU  3 inst:   25000000 cyc:   50995585 now IPC :0.29456: AVG IPC :0.45993: L2-Pf-HR :0.56149: L2-HR :0.66349: (Sim:0h16m40s) 
CPU  0 inst:   26000001 cyc:   53195822 now IPC :0.30851: AVG IPC :0.45969: L2-Pf-HR :0.55054: L2-HR :0.65735: (Sim:0h17m12s) 
CPU  1 inst:   26000001 cyc:   53868500 now IPC :0.29367: AVG IPC :0.45386: L2-Pf-HR :0.54900: L2-HR :0.65635: (Sim:0h17m26s) 
CPU  0 inst:   27000000 cyc:   54135220 now IPC :1.06451: AVG IPC :0.47038: L2-Pf-HR :0.56891: L2-HR :0.67645: (Sim:0h17m31s) 
CPU  2 inst:   26000001 cyc:   54386815 now IPC :0.28299: AVG IPC :0.44945: L2-Pf-HR :0.54564: L2-HR :0.65476: (Sim:0h17m38s) 
CPU  3 inst:   26000001 cyc:   54528461 now IPC :0.28306: AVG IPC :0.44826: L2-Pf-HR :0.54672: L2-HR :0.65600: (Sim:0h17m43s) 
CPU  1 inst:   27000000 cyc:   54863111 now IPC :1.00542: AVG IPC :0.46404: L2-Pf-HR :0.56762: L2-HR :0.67569: (Sim:0h18m6s) 
CPU  0 inst:   28000002 cyc:   55026910 now IPC :1.12147: AVG IPC :0.48112: L2-Pf-HR :0.58583: L2-HR :0.69343: (Sim:0h18m15s) 
CPU  2 inst:   27000000 cyc:   55346430 now IPC :1.04208: AVG IPC :0.45991: L2-Pf-HR :0.56472: L2-HR :0.67423: (Sim:0h18m39s) 
CPU  3 inst:   27000000 cyc:   55555327 now IPC :0.97384: AVG IPC :0.45815: L2-Pf-HR :0.56552: L2-HR :0.67520: (Sim:0h18m53s) 
CPU  1 inst:   28000000 cyc:   55774142 now IPC :1.09766: AVG IPC :0.47458: L2-Pf-HR :0.58469: L2-HR :0.69281: (Sim:0h19m9s) 
CPU  0 inst:   29000005 cyc:   55786774 now IPC :1.31603: AVG IPC :0.49270: L2-Pf-HR :0.60235: L2-HR :0.70905: (Sim:0h19m9s) 
CPU  2 inst:   28000003 cyc:   56217447 now IPC :1.14809: AVG IPC :0.47077: L2-Pf-HR :0.58212: L2-HR :0.69153: (Sim:0h19m40s) 
CPU  3 inst:   28000002 cyc:   56467162 now IPC :1.09669: AVG IPC :0.46865: L2-Pf-HR :0.58276: L2-HR :0.69232: (Sim:0h19m59s) 
CPU  1 inst:   29000005 cyc:   56539691 now IPC :1.30626: AVG IPC :0.48604: L2-Pf-HR :0.60154: L2-HR :0.70856: (Sim:0h20m6s) 
CPU  0 inst:   30000002 cyc:   56571992 now IPC :1.27353: AVG IPC :0.50373: L2-Pf-HR :0.61657: L2-HR :0.72255: (Sim:0h20m8s) 
CPU  2 inst:   29000005 cyc:   57016384 now IPC :1.25167: AVG IPC :0.48190: L2-Pf-HR :0.59921: L2-HR :0.70739: (Sim:0h20m41s) 
CPU  3 inst:   29000005 cyc:   57315336 now IPC :1.17901: AVG IPC :0.47934: L2-Pf-HR :0.59973: L2-HR :0.70812: (Sim:0h20m59s) 
CPU  1 inst:   30000002 cyc:   57374838 now IPC :1.19739: AVG IPC :0.49657: L2-Pf-HR :0.61586: L2-HR :0.72211: (Sim:0h21m3s) 
CPU  0 inst:   31000003 cyc:   57448477 now IPC :1.14092: AVG IPC :0.51362: L2-Pf-HR :0.62870: L2-HR :0.73400: (Sim:0h21m9s) 
CPU  2 inst:   30000002 cyc:   57905704 now IPC :1.12445: AVG IPC :0.49194: L2-Pf-HR :0.61372: L2-HR :0.72106: (Sim:0h21m43s) 
CPU  3 inst:   30000002 cyc:   58154930 now IPC :1.19105: AVG IPC :0.48980: L2-Pf-HR :0.61408: L2-HR :0.72171: (Sim:0h21m57s) 
CPU  1 inst:   31000003 cyc:   58189343 now IPC :1.22774: AVG IPC :0.50699: L2-Pf-HR :0.62788: L2-HR :0.73355: (Sim:0h21m58s) 
CPU  0 inst:   32000003 cyc:   58362535 now IPC :1.09402: AVG IPC :0.52287: L2-Pf-HR :0.63967: L2-HR :0.74421: (Sim:0h22m3s) 
CPU  2 inst:   31000003 cyc:   58831210 now IPC :1.08049: AVG IPC :0.50136: L2-Pf-HR :0.62585: L2-HR :0.73261: (Sim:0h22m24s) 
CPU  3 inst:   31000003 cyc:   58996235 now IPC :1.18863: AVG IPC :0.49993: L2-Pf-HR :0.62621: L2-HR :0.73321: (Sim:0h22m31s) 
CPU  1 inst:   32000003 cyc:   59062902 now IPC :1.14474: AVG IPC :0.51658: L2-Pf-HR :0.63892: L2-HR :0.74378: (Sim:0h22m35s) 
CPU  0 inst:   33000003 cyc:   59253436 now IPC :1.12246: AVG IPC :0.53203: L2-Pf-HR :0.64954: L2-HR :0.75330: (Sim:0h22m41s) 
CPU  2 inst:   32000003 cyc:   59703185 now IPC :1.14682: AVG IPC :0.51094: L2-Pf-HR :0.63704: L2-HR :0.74291: (Sim:0h23m2s) 
CPU  3 inst:   32000003 cyc:   59828196 now IPC :1.20198: AVG IPC :0.50986: L2-Pf-HR :0.63733: L2-HR :0.74348: (Sim:0h23m7s) 
CPU  1 inst:   33000003 cyc:   59893874 now IPC :1.20341: AVG IPC :0.52627: L2-Pf-HR :0.64887: L2-HR :0.75291: (Sim:0h23m9s) 
CPU  0 inst:   34000000 cyc:   60050554 now IPC :1.25452: AVG IPC :0.54179: L2-Pf-HR :0.65881: L2-HR :0.76165: (Sim:0h23m16s) 
CPU  2 inst:   33000003 cyc:   60463320 now IPC :1.31556: AVG IPC :0.52123: L2-Pf-HR :0.64719: L2-HR :0.75213: (Sim:0h23m36s) 
CPU  3 inst:   33000003 cyc:   60567287 now IPC :1.35301: AVG IPC :0.52032: L2-Pf-HR :0.64743: L2-HR :0.75264: (Sim:0h23m41s) 
CPU  1 inst:   34000000 cyc:   60625087 now IPC :1.36759: AVG IPC :0.53658: L2-Pf-HR :0.65821: L2-HR :0.76129: (Sim:0h23m44s) 
CPU  0 inst:   35000001 cyc:   60778861 now IPC :1.37305: AVG IPC :0.55191: L2-Pf-HR :0.66789: L2-HR :0.76955: (Sim:0h23m52s) 
CPU  2 inst:   34000000 cyc:   61212316 now IPC :1.33512: AVG IPC :0.53135: L2-Pf-HR :0.65660: L2-HR :0.76056: (Sim:0h24m12s) 
CPU  3 inst:   34000000 cyc:   61271217 now IPC :1.42059: AVG IPC :0.53083: L2-Pf-HR :0.65683: L2-HR :0.76102: (Sim:0h24m15s) 
CPU  1 inst:   35000000 cyc:   61330386 now IPC :1.41784: AVG IPC :0.54688: L2-Pf-HR :0.66735: L2-HR :0.76921: (Sim:0h24m18s) 
CPU  0 inst:   36000004 cyc:   61536467 now IPC :1.31995: AVG IPC :0.56152: L2-Pf-HR :0.67565: L2-HR :0.77638: (Sim:0h24m28s) 
CPU  2 inst:   35000000 cyc:   61893921 now IPC :1.46713: AVG IPC :0.54182: L2-Pf-HR :0.66586: L2-HR :0.76852: (Sim:0h24m47s) 
CPU  3 inst:   35000000 cyc:   61944402 now IPC :1.48548: AVG IPC :0.54137: L2-Pf-HR :0.66606: L2-HR :0.76895: (Sim:0h24m50s) 
CPU  1 inst:   36000004 cyc:   62029409 now IPC :1.43057: AVG IPC :0.55700: L2-Pf-HR :0.67512: L2-HR :0.77605: (Sim:0h24m55s) 
CPU  0 inst:   37000001 cyc:   62197419 now IPC :1.51296: AVG IPC :0.57179: L2-Pf-HR :0.68250: L2-HR :0.78249: (Sim:0h25m2s) 
CPU  2 inst:   36000004 cyc:   62551587 now IPC :1.52053: AVG IPC :0.55228: L2-Pf-HR :0.67375: L2-HR :0.77543: (Sim:0h25m21s) 
CPU  3 inst:   36000004 cyc:   62611596 now IPC :1.49882: AVG IPC :0.55174: L2-Pf-HR :0.67392: L2-HR :0.77582: (Sim:0h25m24s) 
CPU  1 inst:   37000001 cyc:   62742896 now IPC :1.40156: AVG IPC :0.56676: L2-Pf-HR :0.68201: L2-HR :0.78217: (Sim:0h25m32s) 
CPU  0 inst:   38000002 cyc:   62871336 now IPC :1.48386: AVG IPC :0.58173: L2-Pf-HR :0.68881: L2-HR :0.78810: (Sim:0h25m39s) 
CPU  2 inst:   37000001 cyc:   63188702 now IPC :1.56957: AVG IPC :0.56270: L2-Pf-HR :0.68071: L2-HR :0.78159: (Sim:0h25m56s) 
CPU  3 inst:   37000001 cyc:   63233375 now IPC :1.60828: AVG IPC :0.56229: L2-Pf-HR :0.68086: L2-HR :0.78194: (Sim:0h25m59s) 
CPU  1 inst:   38000002 cyc:   63423125 now IPC :1.47009: AVG IPC :0.57660: L2-Pf-HR :0.68838: L2-HR :0.78780: (Sim:0h26m9s) 
CPU  0 inst:   39000005 cyc:   63570236 now IPC :1.43082: AVG IPC :0.59121: L2-Pf-HR :0.69476: L2-HR :0.79332: (Sim:0h26m16s) 
Finished CPU 0 instr: 37000001 cyc: 62582299 AVG IPC: 0.59122 (Sim time: 0h26m16s)
CPU  2 inst:   38000002 cyc:   63919055 now IPC :1.36920: AVG IPC :0.57206: L2-Pf-HR :0.68716: L2-HR :0.78726: (Sim:0h26m33s) 
CPU  3 inst:   38000002 cyc:   63931879 now IPC :1.43163: AVG IPC :0.57194: L2-Pf-HR :0.68730: L2-HR :0.78758: (Sim:0h26m34s) 
CPU  1 inst:   39000005 cyc:   64136391 now IPC :1.40201: AVG IPC :0.58593: L2-Pf-HR :0.69435: L2-HR :0.79302: (Sim:0h26m45s) 
Finished CPU 1 instr: 37000003 cyc: 63147846 AVG IPC: 0.58593 (Sim time: 0h26m45s)
CPU  0 inst:   40000000 cyc:   64255663 now IPC :1.45894: AVG IPC :0.60061: L2-Pf-HR :0.70075: L2-HR :0.79837: (Sim:0h26m51s) 
CPU  2 inst:   39000005 cyc:   64595793 now IPC :1.47768: AVG IPC :0.58169: L2-Pf-HR :0.69324: L2-HR :0.79252: (Sim:0h27m21s) 
Finished CPU 2 instr: 37000000 cyc: 63607461 AVG IPC: 0.58169 (Sim time: 0h27m21s)
CPU  3 inst:   39000005 cyc:   64607171 now IPC :1.48085: AVG IPC :0.58159: L2-Pf-HR :0.69338: L2-HR :0.79283: (Sim:0h27m22s) 
Finished CPU 3 instr: 37000001 cyc: 63618639 AVG IPC: 0.58159 (Sim time: 0h27m22s)

ChampSim completed all CPUs

Total Simulation Statistics (not including warmup)

CPU 0 cumulative IPC: 0.60506 instructions: 38493293 cycles: 63618638
Core_0_L1D_total_access 11624012
Core_0_L1D_total_hit 10173722
Core_0_L1D_total_miss 1450290
Core_0_L1D_loads 9658182
Core_0_L1D_load_hit 8854721
Core_0_L1D_load_miss 803461
Core_0_L1D_RFOs 1164781
Core_0_L1D_RFO_hit 1156966
Core_0_L1D_RFO_miss 7815
Core_0_L1D_prefetches 801049
Core_0_L1D_prefetch_hit 162035
Core_0_L1D_prefetch_miss 639014
Core_0_L1D_writebacks 0
Core_0_L1D_writeback_hit 0
Core_0_L1D_writeback_miss 0

Core_0_L1I_total_access 5169169
Core_0_L1I_total_hit 5164451
Core_0_L1I_total_miss 4718
Core_0_L1I_loads 5169169
Core_0_L1I_load_hit 5164451
Core_0_L1I_load_miss 4718
Core_0_L1I_RFOs 0
Core_0_L1I_RFO_hit 0
Core_0_L1I_RFO_miss 0
Core_0_L1I_prefetches 0
Core_0_L1I_prefetch_hit 0
Core_0_L1I_prefetch_miss 0
Core_0_L1I_writebacks 0
Core_0_L1I_writeback_hit 0
Core_0_L1I_writeback_miss 0

Core_0_L2C_total_access 1885530
Core_0_L2C_total_hit 1508917
Core_0_L2C_total_miss 376613
Core_0_L2C_loads 688514
Core_0_L2C_load_hit 598601
Core_0_L2C_load_miss 89913
Core_0_L2C_RFOs 7460
Core_0_L2C_RFO_hit 2615
Core_0_L2C_RFO_miss 4845
Core_0_L2C_prefetches 948358
Core_0_L2C_prefetch_hit 666508
Core_0_L2C_prefetch_miss 281850
Core_0_L2C_writebacks 241198
Core_0_L2C_writeback_hit 241193
Core_0_L2C_writeback_miss 5

[Bingo] PHT Access: 162105
[Bingo] PHT Hit PC+Addr: 84653
[Bingo] PHT Hit PC+Offs: 73724
[Bingo] PHT Miss: 3728
[Bingo] Prefetch PC+Addr: 0
[Bingo] Prefetch PC+Offs: 0
[Bingo] Useful PC+Addr: 0
[Bingo] Useful PC+Offs: 0
[Bingo] Useless PC+Addr: 0
[Bingo] Useless PC+Offs: 0
[Bingo] L1 Prefetch per Region: 9.77678
[Bingo] L2 Prefetch per Region: 0.60664
[Bingo] L3 Prefetch per Region: 0.00000
[Bingo] No Prefetch per Region: 21.61658
[Bingo] Number of Voters Mean: 13.66314
[Bingo] Number of Voters SD: 5.28903
PHT read accesses: 1885463
PHT write accesses: 154795
AT read accesses: 9143414
AT write accesses: 9143408
FT read accesses: 1841824
FT write accesses: 162105
PS read accesses: 940475
PS write accesses: 158377
PHT tag read accesses: 5560289
PHT tag write accesses: 239448
AT tag read accesses: 251704391
AT tag write accesses: 9298203
FT tag read accesses: 110304477
FT tag write accesses: 1163999
PS tag read accesses: 162554854
PS tag write accesses: 1092199
[Bingo2] PHT Access: 25232
[Bingo2] PHT Hit PC+Addr: 2418
[Bingo2] PHT Hit PC+Offs: 20896
[Bingo2] PHT Miss: 1918
[Bingo2] Prefetch PC+Addr: 0
[Bingo2] Prefetch PC+Offs: 0
[Bingo2] Useful PC+Addr: 0
[Bingo2] Useful PC+Offs: 0
[Bingo2] Useless PC+Addr: 0
[Bingo2] Useless PC+Offs: 0
[Bingo2] L1 Prefetch per Region: 0.00000
[Bingo2] L2 Prefetch per Region: 14.73861
[Bingo2] L3 Prefetch per Region: 0.00000
[Bingo2] No Prefetch per Region: 17.26139
[Bingo2] Number of Voters Mean: 15.30681
[Bingo2] Number of Voters SD: 3.65679
PHT read accesses: 336238
PHT write accesses: 21541
AT read accesses: 658231
AT write accesses: 679634
FT read accesses: 75136
FT write accesses: 25232
PS read accesses: 70717
PS write accesses: 23314
PHT tag read accesses: 1030673
PHT tag write accesses: 23959
AT tag read accesses: 35301390
AT tag write accesses: 679772
FT tag read accesses: 25028764
FT tag write accesses: 73633
PS tag read accesses: 11800656
PS tag write accesses: 92285
Core_0_LLC_total_access 581157
Core_0_LLC_total_hit 200252
Core_0_LLC_total_miss 380905
Core_0_LLC_loads 47671
Core_0_LLC_load_hit 259
Core_0_LLC_load_miss 47412
Core_0_LLC_RFOs 4845
Core_0_LLC_RFO_hit 2
Core_0_LLC_RFO_miss 4843
Core_0_LLC_prefetches 324092
Core_0_LLC_prefetch_hit 1261
Core_0_LLC_prefetch_miss 322831
Core_0_LLC_writebacks 204549
Core_0_LLC_writeback_hit 198730
Core_0_LLC_writeback_miss 5819


CPU 1 cumulative IPC: 0.59307 instructions: 37730101 cycles: 63618638
Core_1_L1D_total_access 11390055
Core_1_L1D_total_hit 9988789
Core_1_L1D_total_miss 1401266
Core_1_L1D_loads 9450313
Core_1_L1D_load_hit 8678900
Core_1_L1D_load_miss 771413
Core_1_L1D_RFOs 1162935
Core_1_L1D_RFO_hit 1155530
Core_1_L1D_RFO_miss 7405
Core_1_L1D_prefetches 776807
Core_1_L1D_prefetch_hit 154359
Core_1_L1D_prefetch_miss 622448
Core_1_L1D_writebacks 0
Core_1_L1D_writeback_hit 0
Core_1_L1D_writeback_miss 0

Core_1_L1I_total_access 5095108
Core_1_L1I_total_hit 5090391
Core_1_L1I_total_miss 4717
Core_1_L1I_loads 5095108
Core_1_L1I_load_hit 5090391
Core_1_L1I_load_miss 4717
Core_1_L1I_RFOs 0
Core_1_L1I_RFO_hit 0
Core_1_L1I_RFO_miss 0
Core_1_L1I_prefetches 0
Core_1_L1I_prefetch_hit 0
Core_1_L1I_prefetch_miss 0
Core_1_L1I_writebacks 0
Core_1_L1I_writeback_hit 0
Core_1_L1I_writeback_miss 0

Core_1_L2C_total_access 1826413
Core_1_L2C_total_hit 1454905
Core_1_L2C_total_miss 371508
Core_1_L2C_loads 659816
Core_1_L2C_load_hit 570070
Core_1_L2C_load_miss 89746
Core_1_L2C_RFOs 7208
Core_1_L2C_RFO_hit 2484
Core_1_L2C_RFO_miss 4724
Core_1_L2C_prefetches 918992
Core_1_L2C_prefetch_hit 641959
Core_1_L2C_prefetch_miss 277033
Core_1_L2C_writebacks 240397
Core_1_L2C_writeback_hit 240392
Core_1_L2C_writeback_miss 5

[Bingo] PHT Access: 159748
[Bingo] PHT Hit PC+Addr: 80666
[Bingo] PHT Hit PC+Offs: 74803
[Bingo] PHT Miss: 4279
[Bingo] Prefetch PC+Addr: 0
[Bingo] Prefetch PC+Offs: 0
[Bingo] Useful PC+Addr: 0
[Bingo] Useful PC+Offs: 0
[Bingo] Useless PC+Addr: 0
[Bingo] Useless PC+Offs: 0
[Bingo] L1 Prefetch per Region: 9.86554
[Bingo] L2 Prefetch per Region: 0.57742
[Bingo] L3 Prefetch per Region: 0.00000
[Bingo] No Prefetch per Region: 21.55704
[Bingo] Number of Voters Mean: 13.72869
[Bingo] Number of Voters SD: 4.24633
PHT read accesses: 1857512
PHT write accesses: 152433
AT read accesses: 9627533
AT write accesses: 9627553
FT read accesses: 1835120
FT write accesses: 159748
PS read accesses: 922672
PS write accesses: 155469
PHT tag read accesses: 5526238
PHT tag write accesses: 233099
AT tag read accesses: 261960042
AT tag write accesses: 9779984
FT tag read accesses: 112743366
FT tag write accesses: 1157057
PS tag read accesses: 170220946
PS tag write accesses: 1071836
[Bingo2] PHT Access: 28311
[Bingo2] PHT Hit PC+Addr: 2369
[Bingo2] PHT Hit PC+Offs: 21814
[Bingo2] PHT Miss: 4128
[Bingo2] Prefetch PC+Addr: 0
[Bingo2] Prefetch PC+Offs: 0
[Bingo2] Useful PC+Addr: 0
[Bingo2] Useful PC+Offs: 0
[Bingo2] Useless PC+Addr: 0
[Bingo2] Useless PC+Offs: 0
[Bingo2] L1 Prefetch per Region: 0.00000
[Bingo2] L2 Prefetch per Region: 14.11264
[Bingo2] L3 Prefetch per Region: 0.00000
[Bingo2] No Prefetch per Region: 17.88736
[Bingo2] Number of Voters Mean: 15.22770
[Bingo2] Number of Voters SD: 2.46551
PHT read accesses: 348081
PHT write accesses: 23767
AT read accesses: 642006
AT write accesses: 665757
FT read accesses: 83281
FT write accesses: 28311
PS read accesses: 72165
PS write accesses: 24183
PHT tag read accesses: 1139683
PHT tag write accesses: 26136
AT tag read accesses: 35404398
AT tag write accesses: 665901
FT tag read accesses: 25446403
FT tag write accesses: 81963
PS tag read accesses: 11634506
PS tag write accesses: 94552
Core_1_LLC_total_access 578578
Core_1_LLC_total_hit 203343
Core_1_LLC_total_miss 375235
Core_1_LLC_loads 47071
Core_1_LLC_load_hit 101
Core_1_LLC_load_miss 46970
Core_1_LLC_RFOs 4724
Core_1_LLC_RFO_hit 0
Core_1_LLC_RFO_miss 4724
Core_1_LLC_prefetches 319708
Core_1_LLC_prefetch_hit 558
Core_1_LLC_prefetch_miss 319150
Core_1_LLC_writebacks 207075
Core_1_LLC_writeback_hit 202684
Core_1_LLC_writeback_miss 4391


CPU 2 cumulative IPC: 0.58177 instructions: 37011397 cycles: 63618639
Core_2_L1D_total_access 11171467
Core_2_L1D_total_hit 9816137
Core_2_L1D_total_miss 1355330
Core_2_L1D_loads 9256899
Core_2_L1D_load_hit 8515447
Core_2_L1D_load_miss 741452
Core_2_L1D_RFOs 1161588
Core_2_L1D_RFO_hit 1154295
Core_2_L1D_RFO_miss 7293
Core_2_L1D_prefetches 752980
Core_2_L1D_prefetch_hit 146395
Core_2_L1D_prefetch_miss 606585
Core_2_L1D_writebacks 0
Core_2_L1D_writeback_hit 0
Core_2_L1D_writeback_miss 0

Core_2_L1I_total_access 5025295
Core_2_L1I_total_hit 5020578
Core_2_L1I_total_miss 4717
Core_2_L1I_loads 5025295
Core_2_L1I_load_hit 5020578
Core_2_L1I_load_miss 4717
Core_2_L1I_RFOs 0
Core_2_L1I_RFO_hit 0
Core_2_L1I_RFO_miss 0
Core_2_L1I_prefetches 0
Core_2_L1I_prefetch_hit 0
Core_2_L1I_prefetch_miss 0
Core_2_L1I_writebacks 0
Core_2_L1I_writeback_hit 0
Core_2_L1I_writeback_miss 0

Core_2_L2C_total_access 1771245
Core_2_L2C_total_hit 1403768
Core_2_L2C_total_miss 367477
Core_2_L2C_loads 633540
Core_2_L2C_load_hit 544148
Core_2_L2C_load_miss 89392
Core_2_L2C_RFOs 7071
Core_2_L2C_RFO_hit 2338
Core_2_L2C_RFO_miss 4733
Core_2_L2C_prefetches 891006
Core_2_L2C_prefetch_hit 617659
Core_2_L2C_prefetch_miss 273347
Core_2_L2C_writebacks 239628
Core_2_L2C_writeback_hit 239623
Core_2_L2C_writeback_miss 5

[Bingo] PHT Access: 153702
[Bingo] PHT Hit PC+Addr: 76705
[Bingo] PHT Hit PC+Offs: 72809
[Bingo] PHT Miss: 4188
[Bingo] Prefetch PC+Addr: 0
[Bingo] Prefetch PC+Offs: 0
[Bingo] Useful PC+Addr: 0
[Bingo] Useful PC+Offs: 0
[Bingo] Useless PC+Addr: 0
[Bingo] Useless PC+Offs: 0
[Bingo] L1 Prefetch per Region: 9.91545
[Bingo] L2 Prefetch per Region: 0.56712
[Bingo] L3 Prefetch per Region: 0.00000
[Bingo] No Prefetch per Region: 21.51742
[Bingo] Number of Voters Mean: 13.74458
[Bingo] Number of Voters SD: 4.24254
PHT read accesses: 1788516
PHT write accesses: 146722
AT read accesses: 9427012
AT write accesses: 9427032
FT read accesses: 1816297
FT write accesses: 153702
PS read accesses: 889450
PS write accesses: 149514
PHT tag read accesses: 5333609
PHT tag write accesses: 223427
AT tag read accesses: 258540615
AT tag write accesses: 9573754
FT tag read accesses: 112349965
FT tag write accesses: 1138581
PS tag read accesses: 166792381
PS tag write accesses: 1033052
[Bingo2] PHT Access: 28388
[Bingo2] PHT Hit PC+Addr: 2238
[Bingo2] PHT Hit PC+Offs: 22076
[Bingo2] PHT Miss: 4074
[Bingo2] Prefetch PC+Addr: 0
[Bingo2] Prefetch PC+Offs: 0
[Bingo2] Useful PC+Addr: 0
[Bingo2] Useful PC+Offs: 0
[Bingo2] Useless PC+Addr: 0
[Bingo2] Useless PC+Offs: 0
[Bingo2] L1 Prefetch per Region: 0.00000
[Bingo2] L2 Prefetch per Region: 13.98240
[Bingo2] L3 Prefetch per Region: 0.00000
[Bingo2] No Prefetch per Region: 18.01760
[Bingo2] Number of Voters Mean: 15.24298
[Bingo2] Number of Voters SD: 2.39086
PHT read accesses: 350891
PHT write accesses: 23834
AT read accesses: 615740
AT write accesses: 639560
FT read accesses: 83211
FT write accesses: 28388
PS read accesses: 72616
PS write accesses: 24314
PHT tag read accesses: 1142598
PHT tag write accesses: 26072
AT tag read accesses: 34986463
AT tag write accesses: 639702
FT tag read accesses: 25440304
FT tag write accesses: 82040
PS tag read accesses: 11212474
PS tag write accesses: 95223
Core_2_LLC_total_access 574049
Core_2_LLC_total_hit 203933
Core_2_LLC_total_miss 370116
Core_2_LLC_loads 46733
Core_2_LLC_load_hit 109
Core_2_LLC_load_miss 46624
Core_2_LLC_RFOs 4733
Core_2_LLC_RFO_hit 1
Core_2_LLC_RFO_miss 4732
Core_2_LLC_prefetches 316006
Core_2_LLC_prefetch_hit 745
Core_2_LLC_prefetch_miss 315261
Core_2_LLC_writebacks 206577
Core_2_LLC_writeback_hit 203078
Core_2_LLC_writeback_miss 3499


CPU 3 cumulative IPC: 0.58159 instructions: 37000001 cycles: 63618639
Core_3_L1D_total_access 11166613
Core_3_L1D_total_hit 9812347
Core_3_L1D_total_miss 1354266
Core_3_L1D_loads 9252065
Core_3_L1D_load_hit 8511130
Core_3_L1D_load_miss 740935
Core_3_L1D_RFOs 1161526
Core_3_L1D_RFO_hit 1154287
Core_3_L1D_RFO_miss 7239
Core_3_L1D_prefetches 753022
Core_3_L1D_prefetch_hit 146930
Core_3_L1D_prefetch_miss 606092
Core_3_L1D_writebacks 0
Core_3_L1D_writeback_hit 0
Core_3_L1D_writeback_miss 0

Core_3_L1I_total_access 5024943
Core_3_L1I_total_hit 5020228
Core_3_L1I_total_miss 4715
Core_3_L1I_loads 5024943
Core_3_L1I_load_hit 5020228
Core_3_L1I_load_miss 4715
Core_3_L1I_RFOs 0
Core_3_L1I_RFO_hit 0
Core_3_L1I_RFO_miss 0
Core_3_L1I_prefetches 0
Core_3_L1I_prefetch_hit 0
Core_3_L1I_prefetch_miss 0
Core_3_L1I_writebacks 0
Core_3_L1I_writeback_hit 0
Core_3_L1I_writeback_miss 0

Core_3_L2C_total_access 1772632
Core_3_L2C_total_hit 1405398
Core_3_L2C_total_miss 367234
Core_3_L2C_loads 633185
Core_3_L2C_load_hit 544431
Core_3_L2C_load_miss 88754
Core_3_L2C_RFOs 7040
Core_3_L2C_RFO_hit 2317
Core_3_L2C_RFO_miss 4723
Core_3_L2C_prefetches 892799
Core_3_L2C_prefetch_hit 619047
Core_3_L2C_prefetch_miss 273752
Core_3_L2C_writebacks 239608
Core_3_L2C_writeback_hit 239603
Core_3_L2C_writeback_miss 5

[Bingo] PHT Access: 153364
[Bingo] PHT Hit PC+Addr: 77043
[Bingo] PHT Hit PC+Offs: 72122
[Bingo] PHT Miss: 4199
[Bingo] Prefetch PC+Addr: 0
[Bingo] Prefetch PC+Offs: 0
[Bingo] Useful PC+Addr: 0
[Bingo] Useful PC+Offs: 0
[Bingo] Useless PC+Addr: 0
[Bingo] Useless PC+Offs: 0
[Bingo] L1 Prefetch per Region: 9.93589
[Bingo] L2 Prefetch per Region: 0.56519
[Bingo] L3 Prefetch per Region: 0.00000
[Bingo] No Prefetch per Region: 21.49892
[Bingo] Number of Voters Mean: 13.73600
[Bingo] Number of Voters SD: 4.25087
PHT read accesses: 1780937
PHT write accesses: 146380
AT read accesses: 9422871
AT write accesses: 9422889
FT read accesses: 1815158
FT write accesses: 153364
PS read accesses: 890468
PS write accesses: 149165
PHT tag read accesses: 5306163
PHT tag write accesses: 223423
AT tag read accesses: 258461169
AT tag write accesses: 9569269
FT tag read accesses: 112326748
FT tag write accesses: 1137501
PS tag read accesses: 166723129
PS tag write accesses: 1033679
[Bingo2] PHT Access: 28364
[Bingo2] PHT Hit PC+Addr: 2335
[Bingo2] PHT Hit PC+Offs: 21841
[Bingo2] PHT Miss: 4188
[Bingo2] Prefetch PC+Addr: 0
[Bingo2] Prefetch PC+Offs: 0
[Bingo2] Useful PC+Addr: 0
[Bingo2] Useful PC+Offs: 0
[Bingo2] Useless PC+Addr: 0
[Bingo2] Useless PC+Offs: 0
[Bingo2] L1 Prefetch per Region: 0.00000
[Bingo2] L2 Prefetch per Region: 14.01865
[Bingo2] L3 Prefetch per Region: 0.00000
[Bingo2] No Prefetch per Region: 17.98135
[Bingo2] Number of Voters Mean: 15.24358
[Bingo2] Number of Voters SD: 2.37382
PHT read accesses: 348894
PHT write accesses: 23840
AT read accesses: 615162
AT write accesses: 638982
FT read accesses: 83528
FT write accesses: 28364
PS read accesses: 71970
PS write accesses: 24176
PHT tag read accesses: 1142541
PHT tag write accesses: 26175
AT tag read accesses: 34979196
AT tag write accesses: 639130
FT tag read accesses: 25441472
FT tag write accesses: 82186
PS tag read accesses: 11208775
PS tag write accesses: 94630
Core_3_LLC_total_access 570782
Core_3_LLC_total_hit 199303
Core_3_LLC_total_miss 371479
Core_3_LLC_loads 47565
Core_3_LLC_load_hit 475
Core_3_LLC_load_miss 47090
Core_3_LLC_RFOs 4723
Core_3_LLC_RFO_hit 5
Core_3_LLC_RFO_miss 4718
Core_3_LLC_prefetches 314942
Core_3_LLC_prefetch_hit 3005
Core_3_LLC_prefetch_miss 311937
Core_3_LLC_writebacks 203552
Core_3_LLC_writeback_hit 195818
Core_3_LLC_writeback_miss 7734


[ROI Statistics]
Core_0_instructions 37000001
Core_0_cycles 62582299
Core_0_IPC 0.59122

Core_0_branch_prediction_accuracy 98.44691
Core_0_branch_MPKI 0.48711
Core_0_average_ROB_occupancy_at_mispredict 343.08997

Core_0_L1D_total_access 11165458
Core_0_L1D_total_hit 9811172 L1D_total_Hit Ratio: 0.87871
Core_0_L1D_total_miss 1354286
Core_0_L1D_loads 9252446
Core_0_L1D_load_hit 8510921 L1D_load_Hit Ratio: 0.91986
Core_0_L1D_load_miss 741525
Core_0_L1D_RFOs 1161312
Core_0_L1D_RFO_hit 1153764 L1D_RFO_Hit Ratio: 0.99350
Core_0_L1D_RFO_miss 7548
Core_0_L1D_prefetches 751700
Core_0_L1D_prefetch_hit 146487 L1D_prefetch_Hit Ratio: 0.19487
Core_0_L1D_prefetch_miss 605213
Core_0_L1D_writebacks 0
Core_0_L1D_writeback_hit 0 L1D_writeback_Hit Ratio: -nan
Core_0_L1D_writeback_miss 0
Core_0_L1D_prefetch_requested 1305005
Core_0_L1D_prefetch_issued 1305005
Core_0_L1D_prefetch_useful 653297 L1D_Useful Ratio: 0.50061
Core_0_L1D_prefetch_useless 12870
Core_0_L1D_prefetch_late 121142
Core_0_L1D_average_miss_latency 3556153.55752

Core_0_L1I_total_access 5021938
Core_0_L1I_total_hit 5017220 L1I_total_Hit Ratio: 0.99906
Core_0_L1I_total_miss 4718
Core_0_L1I_loads 5021938
Core_0_L1I_load_hit 5017220 L1I_load_Hit Ratio: 0.99906
Core_0_L1I_load_miss 4718
Core_0_L1I_RFOs 0
Core_0_L1I_RFO_hit 0 L1I_RFO_Hit Ratio: -nan
Core_0_L1I_RFO_miss 0
Core_0_L1I_prefetches 0
Core_0_L1I_prefetch_hit 0 L1I_prefetch_Hit Ratio: -nan
Core_0_L1I_prefetch_miss 0
Core_0_L1I_writebacks 0
Core_0_L1I_writeback_hit 0 L1I_writeback_Hit Ratio: -nan
Core_0_L1I_writeback_miss 0
Core_0_L1I_prefetch_requested 0
Core_0_L1I_prefetch_issued 0
Core_0_L1I_prefetch_useful 0 L1I_Useful Ratio: -nan
Core_0_L1I_prefetch_useless 0
Core_0_L1I_prefetch_late 0
Core_0_L1I_average_miss_latency 864.60153

Core_0_L2C_total_access 1777246
Core_0_L2C_total_hit 1409926 L2C_total_Hit Ratio: 0.79332
Core_0_L2C_total_miss 367320
Core_0_L2C_loads 633942
Core_0_L2C_load_hit 545123 L2C_load_Hit Ratio: 0.85989
Core_0_L2C_load_miss 88819
Core_0_L2C_RFOs 7193
Core_0_L2C_RFO_hit 2348 L2C_RFO_Hit Ratio: 0.32643
Core_0_L2C_RFO_miss 4845
Core_0_L2C_prefetches 896513
Core_0_L2C_prefetch_hit 622862 L2C_prefetch_Hit Ratio: 0.69476
Core_0_L2C_prefetch_miss 273651
Core_0_L2C_writebacks 239598
Core_0_L2C_writeback_hit 239593 L2C_writeback_Hit Ratio: 0.99998
Core_0_L2C_writeback_miss 5
Core_0_L2C_prefetch_requested 265386
Core_0_L2C_prefetch_issued 265386
Core_0_L2C_prefetch_useful 86319 L2C_Useful Ratio: 0.32526
Core_0_L2C_prefetch_useless 196728
Core_0_L2C_prefetch_late 42274
Core_0_L2C_average_miss_latency 909.09060

Core_0_LLC_total_access 570661
Core_0_LLC_total_hit 199075 LLC_total_Hit Ratio: 0.34885
Core_0_LLC_total_miss 371586
Core_0_LLC_loads 46779
Core_0_LLC_load_hit 259 LLC_load_Hit Ratio: 0.00554
Core_0_LLC_load_miss 46520
Core_0_LLC_RFOs 4845
Core_0_LLC_RFO_hit 2 LLC_RFO_Hit Ratio: 0.00041
Core_0_LLC_RFO_miss 4843
Core_0_LLC_prefetches 315691
Core_0_LLC_prefetch_hit 1261 LLC_prefetch_Hit Ratio: 0.00399
Core_0_LLC_prefetch_miss 314430
Core_0_LLC_writebacks 203346
Core_0_LLC_writeback_hit 197553 LLC_writeback_Hit Ratio: 0.97151
Core_0_LLC_writeback_miss 5793
Core_0_LLC_prefetch_requested 0
Core_0_LLC_prefetch_issued 0
Core_0_LLC_prefetch_useful 185 LLC_Useful Ratio: inf
Core_0_LLC_prefetch_useless 1119897
Core_0_LLC_prefetch_late 0
Core_0_LLC_average_miss_latency 3438.96898

Core_0_major_page_fault 0
Core_0_minor_page_fault 3968

Core_1_instructions 37000003
Core_1_cycles 63147846
Core_1_IPC 0.58593

Core_1_branch_prediction_accuracy 98.44266
Core_1_branch_MPKI 0.49626
Core_1_average_ROB_occupancy_at_mispredict 343.03253

Core_1_L1D_total_access 11165803
Core_1_L1D_total_hit 9811462 L1D_total_Hit Ratio: 0.87871
Core_1_L1D_total_miss 1354341
Core_1_L1D_loads 9251927
Core_1_L1D_load_hit 8510768 L1D_load_Hit Ratio: 0.91989
Core_1_L1D_load_miss 741159
Core_1_L1D_RFOs 1161250
Core_1_L1D_RFO_hit 1153969 L1D_RFO_Hit Ratio: 0.99373
Core_1_L1D_RFO_miss 7281
Core_1_L1D_prefetches 752626
Core_1_L1D_prefetch_hit 146725 L1D_prefetch_Hit Ratio: 0.19495
Core_1_L1D_prefetch_miss 605901
Core_1_L1D_writebacks 0
Core_1_L1D_writeback_hit 0 L1D_writeback_Hit Ratio: -nan
Core_1_L1D_writeback_miss 0
Core_1_L1D_prefetch_requested 1260034
Core_1_L1D_prefetch_issued 1260034
Core_1_L1D_prefetch_useful 636833 L1D_Useful Ratio: 0.50541
Core_1_L1D_prefetch_useless 12383
Core_1_L1D_prefetch_late 118051
Core_1_L1D_average_miss_latency 3431198.39693

Core_1_L1I_total_access 5023097
Core_1_L1I_total_hit 5018380 L1I_total_Hit Ratio: 0.99906
Core_1_L1I_total_miss 4717
Core_1_L1I_loads 5023097
Core_1_L1I_load_hit 5018380 L1I_load_Hit Ratio: 0.99906
Core_1_L1I_load_miss 4717
Core_1_L1I_RFOs 0
Core_1_L1I_RFO_hit 0 L1I_RFO_Hit Ratio: -nan
Core_1_L1I_RFO_miss 0
Core_1_L1I_prefetches 0
Core_1_L1I_prefetch_hit 0 L1I_prefetch_Hit Ratio: -nan
Core_1_L1I_prefetch_miss 0
Core_1_L1I_writebacks 0
Core_1_L1I_writeback_hit 0 L1I_writeback_Hit Ratio: -nan
Core_1_L1I_writeback_miss 0
Core_1_L1I_prefetch_requested 0
Core_1_L1I_prefetch_issued 0
Core_1_L1I_prefetch_useful 0 L1I_Useful Ratio: -nan
Core_1_L1I_prefetch_useless 0
Core_1_L1I_prefetch_late 0
Core_1_L1I_average_miss_latency 787.57409

Core_1_L2C_total_access 1773453
Core_1_L2C_total_hit 1406380 L2C_total_Hit Ratio: 0.79302
Core_1_L2C_total_miss 367073
Core_1_L2C_loads 633155
Core_1_L2C_load_hit 543945 L2C_load_Hit Ratio: 0.85910
Core_1_L2C_load_miss 89210
Core_1_L2C_RFOs 7084
Core_1_L2C_RFO_hit 2360 L2C_RFO_Hit Ratio: 0.33315
Core_1_L2C_RFO_miss 4724
Core_1_L2C_prefetches 893606
Core_1_L2C_prefetch_hit 620472 L2C_prefetch_Hit Ratio: 0.69435
Core_1_L2C_prefetch_miss 273134
Core_1_L2C_writebacks 239608
Core_1_L2C_writeback_hit 239603 L2C_writeback_Hit Ratio: 0.99998
Core_1_L2C_writeback_miss 5
Core_1_L2C_prefetch_requested 257306
Core_1_L2C_prefetch_issued 257306
Core_1_L2C_prefetch_useful 83574 L2C_Useful Ratio: 0.32480
Core_1_L2C_prefetch_useless 195246
Core_1_L2C_prefetch_late 42914
Core_1_L2C_average_miss_latency 919.11634

Core_1_LLC_total_access 573829
Core_1_LLC_total_hit 203033 LLC_total_Hit Ratio: 0.35382
Core_1_LLC_total_miss 370796
Core_1_LLC_loads 46640
Core_1_LLC_load_hit 101 LLC_load_Hit Ratio: 0.00217
Core_1_LLC_load_miss 46539
Core_1_LLC_RFOs 4724
Core_1_LLC_RFO_hit 0 LLC_RFO_Hit Ratio: 0.00000
Core_1_LLC_RFO_miss 4724
Core_1_LLC_prefetches 315705
Core_1_LLC_prefetch_hit 558 LLC_prefetch_Hit Ratio: 0.00177
Core_1_LLC_prefetch_miss 315147
Core_1_LLC_writebacks 206760
Core_1_LLC_writeback_hit 202374 LLC_writeback_Hit Ratio: 0.97879
Core_1_LLC_writeback_miss 4386
Core_1_LLC_prefetch_requested 0
Core_1_LLC_prefetch_issued 0
Core_1_LLC_prefetch_useful 185 LLC_Useful Ratio: inf
Core_1_LLC_prefetch_useless 1119897
Core_1_LLC_prefetch_late 0
Core_1_LLC_average_miss_latency 3446.29588

Core_1_major_page_fault 0
Core_1_minor_page_fault 3940

Core_2_instructions 37000000
Core_2_cycles 63607461
Core_2_IPC 0.58169

Core_2_branch_prediction_accuracy 98.43857
Core_2_branch_MPKI 0.50522
Core_2_average_ROB_occupancy_at_mispredict 343.47805

Core_2_L1D_total_access 11168034
Core_2_L1D_total_hit 9813462 L1D_total_Hit Ratio: 0.87871
Core_2_L1D_total_miss 1354572
Core_2_L1D_loads 9253879
Core_2_L1D_load_hit 8512931 L1D_load_Hit Ratio: 0.91993
Core_2_L1D_load_miss 740948
Core_2_L1D_RFOs 1161560
Core_2_L1D_RFO_hit 1154267 L1D_RFO_Hit Ratio: 0.99372
Core_2_L1D_RFO_miss 7293
Core_2_L1D_prefetches 752595
Core_2_L1D_prefetch_hit 146264 L1D_prefetch_Hit Ratio: 0.19435
Core_2_L1D_prefetch_miss 606331
Core_2_L1D_writebacks 0
Core_2_L1D_writeback_hit 0 L1D_writeback_Hit Ratio: -nan
Core_2_L1D_writeback_miss 0
Core_2_L1D_prefetch_requested 1217645
Core_2_L1D_prefetch_issued 1217645
Core_2_L1D_prefetch_useful 621509 L1D_Useful Ratio: 0.51042
Core_2_L1D_prefetch_useless 11967
Core_2_L1D_prefetch_late 114284
Core_2_L1D_average_miss_latency 3302353.68503

Core_2_L1I_total_access 5024165
Core_2_L1I_total_hit 5019448 L1I_total_Hit Ratio: 0.99906
Core_2_L1I_total_miss 4717
Core_2_L1I_loads 5024165
Core_2_L1I_load_hit 5019448 L1I_load_Hit Ratio: 0.99906
Core_2_L1I_load_miss 4717
Core_2_L1I_RFOs 0
Core_2_L1I_RFO_hit 0 L1I_RFO_Hit Ratio: -nan
Core_2_L1I_RFO_miss 0
Core_2_L1I_prefetches 0
Core_2_L1I_prefetch_hit 0 L1I_prefetch_Hit Ratio: -nan
Core_2_L1I_prefetch_miss 0
Core_2_L1I_writebacks 0
Core_2_L1I_writeback_hit 0 L1I_writeback_Hit Ratio: -nan
Core_2_L1I_writeback_miss 0
Core_2_L1I_prefetch_requested 0
Core_2_L1I_prefetch_issued 0
Core_2_L1I_prefetch_useful 0 L1I_Useful Ratio: -nan
Core_2_L1I_prefetch_useless 0
Core_2_L1I_prefetch_late 0
Core_2_L1I_average_miss_latency 876.82362

Core_2_L2C_total_access 1770319
Core_2_L2C_total_hit 1403015 L2C_total_Hit Ratio: 0.79252
Core_2_L2C_total_miss 367304
Core_2_L2C_loads 633084
Core_2_L2C_load_hit 543707 L2C_load_Hit Ratio: 0.85882
Core_2_L2C_load_miss 89377
Core_2_L2C_RFOs 7071
Core_2_L2C_RFO_hit 2338 L2C_RFO_Hit Ratio: 0.33065
Core_2_L2C_RFO_miss 4733
Core_2_L2C_prefetches 890556
Core_2_L2C_prefetch_hit 617367 L2C_prefetch_Hit Ratio: 0.69324
Core_2_L2C_prefetch_miss 273189
Core_2_L2C_writebacks 239608
Core_2_L2C_writeback_hit 239603 L2C_writeback_Hit Ratio: 0.99998
Core_2_L2C_writeback_miss 5
Core_2_L2C_prefetch_requested 254588
Core_2_L2C_prefetch_issued 254588
Core_2_L2C_prefetch_useful 81030 L2C_Useful Ratio: 0.31828
Core_2_L2C_prefetch_useless 193687
Core_2_L2C_prefetch_late 42794
Core_2_L2C_average_miss_latency 932.99901

Core_2_LLC_total_access 573868
Core_2_LLC_total_hit 203925 LLC_total_Hit Ratio: 0.35535
Core_2_LLC_total_miss 369943
Core_2_LLC_loads 46720
Core_2_LLC_load_hit 109 LLC_load_Hit Ratio: 0.00233
Core_2_LLC_load_miss 46611
Core_2_LLC_RFOs 4733
Core_2_LLC_RFO_hit 1 LLC_RFO_Hit Ratio: 0.00021
Core_2_LLC_RFO_miss 4732
Core_2_LLC_prefetches 315846
Core_2_LLC_prefetch_hit 745 LLC_prefetch_Hit Ratio: 0.00236
Core_2_LLC_prefetch_miss 315101
Core_2_LLC_writebacks 206569
Core_2_LLC_writeback_hit 203070 LLC_writeback_Hit Ratio: 0.98306
Core_2_LLC_writeback_miss 3499
Core_2_LLC_prefetch_requested 0
Core_2_LLC_prefetch_issued 0
Core_2_LLC_prefetch_useful 185 LLC_Useful Ratio: inf
Core_2_LLC_prefetch_useless 1119897
Core_2_LLC_prefetch_late 0
Core_2_LLC_average_miss_latency 3454.24221

Core_2_major_page_fault 0
Core_2_minor_page_fault 3914

Core_3_instructions 37000001
Core_3_cycles 63618639
Core_3_IPC 0.58159

Core_3_branch_prediction_accuracy 98.43855
Core_3_branch_MPKI 0.50535
Core_3_average_ROB_occupancy_at_mispredict 343.53273

Core_3_L1D_total_access 11166613
Core_3_L1D_total_hit 9812347 L1D_total_Hit Ratio: 0.87872
Core_3_L1D_total_miss 1354266
Core_3_L1D_loads 9252065
Core_3_L1D_load_hit 8511130 L1D_load_Hit Ratio: 0.91992
Core_3_L1D_load_miss 740935
Core_3_L1D_RFOs 1161526
Core_3_L1D_RFO_hit 1154287 L1D_RFO_Hit Ratio: 0.99377
Core_3_L1D_RFO_miss 7239
Core_3_L1D_prefetches 753022
Core_3_L1D_prefetch_hit 146930 L1D_prefetch_Hit Ratio: 0.19512
Core_3_L1D_prefetch_miss 606092
Core_3_L1D_writebacks 0
Core_3_L1D_writeback_hit 0 L1D_writeback_Hit Ratio: -nan
Core_3_L1D_writeback_miss 0
Core_3_L1D_prefetch_requested 1217037
Core_3_L1D_prefetch_issued 1217037
Core_3_L1D_prefetch_useful 621456 L1D_Useful Ratio: 0.51063
Core_3_L1D_prefetch_useless 11870
Core_3_L1D_prefetch_late 113921
Core_3_L1D_average_miss_latency 3315982.87710

Core_3_L1I_total_access 5024943
Core_3_L1I_total_hit 5020228 L1I_total_Hit Ratio: 0.99906
Core_3_L1I_total_miss 4715
Core_3_L1I_loads 5024943
Core_3_L1I_load_hit 5020228 L1I_load_Hit Ratio: 0.99906
Core_3_L1I_load_miss 4715
Core_3_L1I_RFOs 0
Core_3_L1I_RFO_hit 0 L1I_RFO_Hit Ratio: -nan
Core_3_L1I_RFO_miss 0
Core_3_L1I_prefetches 0
Core_3_L1I_prefetch_hit 0 L1I_prefetch_Hit Ratio: -nan
Core_3_L1I_prefetch_miss 0
Core_3_L1I_writebacks 0
Core_3_L1I_writeback_hit 0 L1I_writeback_Hit Ratio: -nan
Core_3_L1I_writeback_miss 0
Core_3_L1I_prefetch_requested 0
Core_3_L1I_prefetch_issued 0
Core_3_L1I_prefetch_useful 0 L1I_Useful Ratio: -nan
Core_3_L1I_prefetch_useless 0
Core_3_L1I_prefetch_late 0
Core_3_L1I_average_miss_latency 960.73340

Core_3_L2C_total_access 1772632
Core_3_L2C_total_hit 1405398 L2C_total_Hit Ratio: 0.79283
Core_3_L2C_total_miss 367234
Core_3_L2C_loads 633185
Core_3_L2C_load_hit 544431 L2C_load_Hit Ratio: 0.85983
Core_3_L2C_load_miss 88754
Core_3_L2C_RFOs 7040
Core_3_L2C_RFO_hit 2317 L2C_RFO_Hit Ratio: 0.32912
Core_3_L2C_RFO_miss 4723
Core_3_L2C_prefetches 892799
Core_3_L2C_prefetch_hit 619047 L2C_prefetch_Hit Ratio: 0.69338
Core_3_L2C_prefetch_miss 273752
Core_3_L2C_writebacks 239608
Core_3_L2C_writeback_hit 239603 L2C_writeback_Hit Ratio: 0.99998
Core_3_L2C_writeback_miss 5
Core_3_L2C_prefetch_requested 254600
Core_3_L2C_prefetch_issued 254600
Core_3_L2C_prefetch_useful 81199 L2C_Useful Ratio: 0.31893
Core_3_L2C_prefetch_useless 193436
Core_3_L2C_prefetch_late 41383
Core_3_L2C_average_miss_latency 909.92461

Core_3_LLC_total_access 570781
Core_3_LLC_total_hit 199303 LLC_total_Hit Ratio: 0.34918
Core_3_LLC_total_miss 371478
Core_3_LLC_loads 47565
Core_3_LLC_load_hit 475 LLC_load_Hit Ratio: 0.00999
Core_3_LLC_load_miss 47090
Core_3_LLC_RFOs 4723
Core_3_LLC_RFO_hit 5 LLC_RFO_Hit Ratio: 0.00106
Core_3_LLC_RFO_miss 4718
Core_3_LLC_prefetches 314941
Core_3_LLC_prefetch_hit 3005 LLC_prefetch_Hit Ratio: 0.00954
Core_3_LLC_prefetch_miss 311936
Core_3_LLC_writebacks 203552
Core_3_LLC_writeback_hit 195818 LLC_writeback_Hit Ratio: 0.96200
Core_3_LLC_writeback_miss 7734
Core_3_LLC_prefetch_requested 0
Core_3_LLC_prefetch_issued 0
Core_3_LLC_prefetch_useful 185 LLC_Useful Ratio: inf
Core_3_LLC_prefetch_useless 1119897
Core_3_LLC_prefetch_late 0
Core_3_LLC_average_miss_latency 3439.96879

Core_3_major_page_fault 0
Core_3_minor_page_fault 3913

[Bingo] PHT Access: 162105
[Bingo] PHT Hit PC+Addr: 84653
[Bingo] PHT Hit PC+Offs: 73724
[Bingo] PHT Miss: 3728
[Bingo] Prefetch PC+Addr: 0
[Bingo] Prefetch PC+Offs: 0
[Bingo] Useful PC+Addr: 0
[Bingo] Useful PC+Offs: 0
[Bingo] Useless PC+Addr: 0
[Bingo] Useless PC+Offs: 0
[Bingo] L1 Prefetch per Region: 9.77678
[Bingo] L2 Prefetch per Region: 0.60664
[Bingo] L3 Prefetch per Region: 0.00000
[Bingo] No Prefetch per Region: 21.61658
[Bingo] Number of Voters Mean: 13.66314
[Bingo] Number of Voters SD: 5.28903
PHT read accesses: 1885463
PHT write accesses: 154795
AT read accesses: 9143414
AT write accesses: 9143408
FT read accesses: 1841824
FT write accesses: 162105
PS read accesses: 940475
PS write accesses: 158377
PHT tag read accesses: 5560289
PHT tag write accesses: 239448
AT tag read accesses: 251704391
AT tag write accesses: 9298203
FT tag read accesses: 110304477
FT tag write accesses: 1163999
PS tag read accesses: 162554854
PS tag write accesses: 1092199
[Bingo2] PHT Access: 25232
[Bingo2] PHT Hit PC+Addr: 2418
[Bingo2] PHT Hit PC+Offs: 20896
[Bingo2] PHT Miss: 1918
[Bingo2] Prefetch PC+Addr: 0
[Bingo2] Prefetch PC+Offs: 0
[Bingo2] Useful PC+Addr: 0
[Bingo2] Useful PC+Offs: 0
[Bingo2] Useless PC+Addr: 0
[Bingo2] Useless PC+Offs: 0
[Bingo2] L1 Prefetch per Region: 0.00000
[Bingo2] L2 Prefetch per Region: 14.73861
[Bingo2] L3 Prefetch per Region: 0.00000
[Bingo2] No Prefetch per Region: 17.26139
[Bingo2] Number of Voters Mean: 15.30681
[Bingo2] Number of Voters SD: 3.65679
PHT read accesses: 336238
PHT write accesses: 21541
AT read accesses: 658231
AT write accesses: 679634
FT read accesses: 75136
FT write accesses: 25232
PS read accesses: 70717
PS write accesses: 23314
PHT tag read accesses: 1030673
PHT tag write accesses: 23959
AT tag read accesses: 35301390
AT tag write accesses: 679772
FT tag read accesses: 25028764
FT tag write accesses: 73633
PS tag read accesses: 11800656
PS tag write accesses: 92285
[Bingo] PHT Access: 159748
[Bingo] PHT Hit PC+Addr: 80666
[Bingo] PHT Hit PC+Offs: 74803
[Bingo] PHT Miss: 4279
[Bingo] Prefetch PC+Addr: 0
[Bingo] Prefetch PC+Offs: 0
[Bingo] Useful PC+Addr: 0
[Bingo] Useful PC+Offs: 0
[Bingo] Useless PC+Addr: 0
[Bingo] Useless PC+Offs: 0
[Bingo] L1 Prefetch per Region: 9.86554
[Bingo] L2 Prefetch per Region: 0.57742
[Bingo] L3 Prefetch per Region: 0.00000
[Bingo] No Prefetch per Region: 21.55704
[Bingo] Number of Voters Mean: 13.72869
[Bingo] Number of Voters SD: 4.24633
PHT read accesses: 1857512
PHT write accesses: 152433
AT read accesses: 9627533
AT write accesses: 9627553
FT read accesses: 1835120
FT write accesses: 159748
PS read accesses: 922672
PS write accesses: 155469
PHT tag read accesses: 5526238
PHT tag write accesses: 233099
AT tag read accesses: 261960042
AT tag write accesses: 9779984
FT tag read accesses: 112743366
FT tag write accesses: 1157057
PS tag read accesses: 170220946
PS tag write accesses: 1071836
[Bingo2] PHT Access: 28311
[Bingo2] PHT Hit PC+Addr: 2369
[Bingo2] PHT Hit PC+Offs: 21814
[Bingo2] PHT Miss: 4128
[Bingo2] Prefetch PC+Addr: 0
[Bingo2] Prefetch PC+Offs: 0
[Bingo2] Useful PC+Addr: 0
[Bingo2] Useful PC+Offs: 0
[Bingo2] Useless PC+Addr: 0
[Bingo2] Useless PC+Offs: 0
[Bingo2] L1 Prefetch per Region: 0.00000
[Bingo2] L2 Prefetch per Region: 14.11264
[Bingo2] L3 Prefetch per Region: 0.00000
[Bingo2] No Prefetch per Region: 17.88736
[Bingo2] Number of Voters Mean: 15.22770
[Bingo2] Number of Voters SD: 2.46551
PHT read accesses: 348081
PHT write accesses: 23767
AT read accesses: 642006
AT write accesses: 665757
FT read accesses: 83281
FT write accesses: 28311
PS read accesses: 72165
PS write accesses: 24183
PHT tag read accesses: 1139683
PHT tag write accesses: 26136
AT tag read accesses: 35404398
AT tag write accesses: 665901
FT tag read accesses: 25446403
FT tag write accesses: 81963
PS tag read accesses: 11634506
PS tag write accesses: 94552
[Bingo] PHT Access: 153702
[Bingo] PHT Hit PC+Addr: 76705
[Bingo] PHT Hit PC+Offs: 72809
[Bingo] PHT Miss: 4188
[Bingo] Prefetch PC+Addr: 0
[Bingo] Prefetch PC+Offs: 0
[Bingo] Useful PC+Addr: 0
[Bingo] Useful PC+Offs: 0
[Bingo] Useless PC+Addr: 0
[Bingo] Useless PC+Offs: 0
[Bingo] L1 Prefetch per Region: 9.91545
[Bingo] L2 Prefetch per Region: 0.56712
[Bingo] L3 Prefetch per Region: 0.00000
[Bingo] No Prefetch per Region: 21.51742
[Bingo] Number of Voters Mean: 13.74458
[Bingo] Number of Voters SD: 4.24254
PHT read accesses: 1788516
PHT write accesses: 146722
AT read accesses: 9427012
AT write accesses: 9427032
FT read accesses: 1816297
FT write accesses: 153702
PS read accesses: 889450
PS write accesses: 149514
PHT tag read accesses: 5333609
PHT tag write accesses: 223427
AT tag read accesses: 258540615
AT tag write accesses: 9573754
FT tag read accesses: 112349965
FT tag write accesses: 1138581
PS tag read accesses: 166792381
PS tag write accesses: 1033052
[Bingo2] PHT Access: 28388
[Bingo2] PHT Hit PC+Addr: 2238
[Bingo2] PHT Hit PC+Offs: 22076
[Bingo2] PHT Miss: 4074
[Bingo2] Prefetch PC+Addr: 0
[Bingo2] Prefetch PC+Offs: 0
[Bingo2] Useful PC+Addr: 0
[Bingo2] Useful PC+Offs: 0
[Bingo2] Useless PC+Addr: 0
[Bingo2] Useless PC+Offs: 0
[Bingo2] L1 Prefetch per Region: 0.00000
[Bingo2] L2 Prefetch per Region: 13.98240
[Bingo2] L3 Prefetch per Region: 0.00000
[Bingo2] No Prefetch per Region: 18.01760
[Bingo2] Number of Voters Mean: 15.24298
[Bingo2] Number of Voters SD: 2.39086
PHT read accesses: 350891
PHT write accesses: 23834
AT read accesses: 615740
AT write accesses: 639560
FT read accesses: 83211
FT write accesses: 28388
PS read accesses: 72616
PS write accesses: 24314
PHT tag read accesses: 1142598
PHT tag write accesses: 26072
AT tag read accesses: 34986463
AT tag write accesses: 639702
FT tag read accesses: 25440304
FT tag write accesses: 82040
PS tag read accesses: 11212474
PS tag write accesses: 95223
[Bingo] PHT Access: 153364
[Bingo] PHT Hit PC+Addr: 77043
[Bingo] PHT Hit PC+Offs: 72122
[Bingo] PHT Miss: 4199
[Bingo] Prefetch PC+Addr: 0
[Bingo] Prefetch PC+Offs: 0
[Bingo] Useful PC+Addr: 0
[Bingo] Useful PC+Offs: 0
[Bingo] Useless PC+Addr: 0
[Bingo] Useless PC+Offs: 0
[Bingo] L1 Prefetch per Region: 9.93589
[Bingo] L2 Prefetch per Region: 0.56519
[Bingo] L3 Prefetch per Region: 0.00000
[Bingo] No Prefetch per Region: 21.49892
[Bingo] Number of Voters Mean: 13.73600
[Bingo] Number of Voters SD: 4.25087
PHT read accesses: 1780937
PHT write accesses: 146380
AT read accesses: 9422871
AT write accesses: 9422889
FT read accesses: 1815158
FT write accesses: 153364
PS read accesses: 890468
PS write accesses: 149165
PHT tag read accesses: 5306163
PHT tag write accesses: 223423
AT tag read accesses: 258461169
AT tag write accesses: 9569269
FT tag read accesses: 112326748
FT tag write accesses: 1137501
PS tag read accesses: 166723129
PS tag write accesses: 1033679
[Bingo2] PHT Access: 28364
[Bingo2] PHT Hit PC+Addr: 2335
[Bingo2] PHT Hit PC+Offs: 21841
[Bingo2] PHT Miss: 4188
[Bingo2] Prefetch PC+Addr: 0
[Bingo2] Prefetch PC+Offs: 0
[Bingo2] Useful PC+Addr: 0
[Bingo2] Useful PC+Offs: 0
[Bingo2] Useless PC+Addr: 0
[Bingo2] Useless PC+Offs: 0
[Bingo2] L1 Prefetch per Region: 0.00000
[Bingo2] L2 Prefetch per Region: 14.01865
[Bingo2] L3 Prefetch per Region: 0.00000
[Bingo2] No Prefetch per Region: 17.98135
[Bingo2] Number of Voters Mean: 15.24358
[Bingo2] Number of Voters SD: 2.37382
PHT read accesses: 348894
PHT write accesses: 23840
AT read accesses: 615162
AT write accesses: 638982
FT read accesses: 83528
FT write accesses: 28364
PS read accesses: 71970
PS write accesses: 24176
PHT tag read accesses: 1142541
PHT tag write accesses: 26175
AT tag read accesses: 34979196
AT tag write accesses: 639130
FT tag read accesses: 25441472
FT tag write accesses: 82186
PS tag read accesses: 11208775
PS tag write accesses: 94630
Channel_0_RQ_row_buffer_hit 786064
Channel_0_RQ_row_buffer_miss 690231
Channel_0_WQ_row_buffer_hit 285660
Channel_0_WQ_row_buffer_miss 522352
Channel_0_WQ_full 1460
Channel_0_dbus_congested 1897601

avg_congested_cycle 11

EzSearch AVG IPC :0.59122: L2-Pf-HR :0.69476 : L2-HR :0.80026 Uful:0.32526
EzSearch AVG IPC :0.58593: L2-Pf-HR :0.69435 : L2-HR :0.79659 Uful:0.32480
EzSearch AVG IPC :0.58169: L2-Pf-HR :0.69324 : L2-HR :0.79253 Uful:0.31828
EzSearch AVG IPC :0.58159: L2-Pf-HR :0.69338 : L2-HR :0.79283 Uful:0.31893
     > Finished combination: TraceType=770-tot Sim:37000000 Prefetcher=L2bingo_dpc3 L1=bingo_dpc3
