TRACE: [83000000][Pythia-70M]_[h8][s512][d64] Warmup: 2000000 NumTraces: 83000000
L1:no:L2:no
*************************************************
   ChampSim Multicore Out-of-Order Simulator
   Last compiled: Oct 29 2024 15:46:26
*************************************************

trace_0 770-tot_memTraces_v3_rexz/memTraces[83000000][Pythia-70M]_[h8][s512][d64].champsim.9.xz
trace_1 770-tot_memTraces_v3_rexz/memTraces[83000000][Pythia-70M]_[h8][s512][d64].champsim.9.xz
trace_2 770-tot_memTraces_v3_rexz/memTraces[83000000][Pythia-70M]_[h8][s512][d64].champsim.9.xz
trace_3 770-tot_memTraces_v3_rexz/memTraces[83000000][Pythia-70M]_[h8][s512][d64].champsim.9.xz
MAIN.cc ln 751 stats print skipped
CPU  2 inst:    1000003 cyc:     499532 now IPC :2.00188: AVG IPC :2.00188: L2-Pf-HR :-nan: L2-HR :0.61982: (Sim:0h0m39s) 
CPU  1 inst:    1000003 cyc:     499669 now IPC :2.00133: AVG IPC :2.00133: L2-Pf-HR :-nan: L2-HR :0.62810: (Sim:0h0m40s) 
CPU  0 inst:    1000003 cyc:     499693 now IPC :2.00123: AVG IPC :2.00123: L2-Pf-HR :-nan: L2-HR :0.62585: (Sim:0h0m40s) 
CPU  3 inst:    1000003 cyc:     499701 now IPC :2.00120: AVG IPC :2.00120: L2-Pf-HR :-nan: L2-HR :0.62232: (Sim:0h0m40s) 
CPU  2 inst:    2000001 cyc:     982646 now IPC :2.06990: AVG IPC :2.03532: L2-Pf-HR :-nan: L2-HR :0.67920: (Sim:0h1m23s) 
CPU  1 inst:    2000001 cyc:     982747 now IPC :2.07006: AVG IPC :2.03511: L2-Pf-HR :-nan: L2-HR :0.68892: (Sim:0h1m23s) 
CPU  0 inst:    2000001 cyc:     982809 now IPC :2.06989: AVG IPC :2.03498: L2-Pf-HR :-nan: L2-HR :0.68599: (Sim:0h1m23s) 
CPU  3 inst:    2000001 cyc:     982835 now IPC :2.06981: AVG IPC :2.03493: L2-Pf-HR :-nan: L2-HR :0.68151: (Sim:0h1m23s) 

Warmup complete CPU  0 instructions:    2000082 cycles:     982835 (Simulation time: 0 hr 1 min 23 sec) 
Warmup complete CPU  1 instructions:    2000262 cycles:     982835 (Simulation time: 0 hr 1 min 23 sec) 
Warmup complete CPU  2 instructions:    2000329 cycles:     982835 (Simulation time: 0 hr 1 min 23 sec) 
Warmup complete CPU  3 instructions:    2000001 cycles:     982835 (Simulation time: 0 hr 1 min 23 sec) 

CPU  2 inst:    3000004 cyc:    1823105 now IPC :1.18983: AVG IPC :1.18971: L2-Pf-HR :-nan: L2-HR :0.75809: (Sim:0h2m5s) 
CPU  1 inst:    3000004 cyc:    1826122 now IPC :1.18572: AVG IPC :1.18553: L2-Pf-HR :-nan: L2-HR :0.76977: (Sim:0h2m5s) 
CPU  3 inst:    3000004 cyc:    1837059 now IPC :1.17066: AVG IPC :1.17066: L2-Pf-HR :-nan: L2-HR :0.76137: (Sim:0h2m6s) 
CPU  0 inst:    3000004 cyc:    1837110 now IPC :1.17055: AVG IPC :1.17049: L2-Pf-HR :-nan: L2-HR :0.76955: (Sim:0h2m6s) 
CPU  1 inst:    4000005 cyc:    2574497 now IPC :1.33623: AVG IPC :1.25639: L2-Pf-HR :-nan: L2-HR :0.75341: (Sim:0h2m47s) 
CPU  2 inst:    4000005 cyc:    2574869 now IPC :1.33021: AVG IPC :1.25605: L2-Pf-HR :-nan: L2-HR :0.73646: (Sim:0h2m47s) 
CPU  3 inst:    4000005 cyc:    2588988 now IPC :1.32991: AVG IPC :1.24521: L2-Pf-HR :-nan: L2-HR :0.74796: (Sim:0h2m48s) 
CPU  0 inst:    4000005 cyc:    2589800 now IPC :1.32857: AVG IPC :1.24453: L2-Pf-HR :-nan: L2-HR :0.75211: (Sim:0h2m48s) 
CPU  1 inst:    5000000 cyc:    3395762 now IPC :1.21763: AVG IPC :1.24319: L2-Pf-HR :-nan: L2-HR :0.75865: (Sim:0h3m30s) 
CPU  2 inst:    5000000 cyc:    3399225 now IPC :1.21306: AVG IPC :1.24139: L2-Pf-HR :-nan: L2-HR :0.74664: (Sim:0h3m30s) 
CPU  3 inst:    5000000 cyc:    3413534 now IPC :1.21278: AVG IPC :1.23421: L2-Pf-HR :-nan: L2-HR :0.75787: (Sim:0h3m31s) 
CPU  0 inst:    5000000 cyc:    3413805 now IPC :1.21358: AVG IPC :1.23404: L2-Pf-HR :-nan: L2-HR :0.76102: (Sim:0h3m31s) 
CPU  2 inst:    6000004 cyc:    4211712 now IPC :1.23079: AVG IPC :1.23872: L2-Pf-HR :-nan: L2-HR :0.75966: (Sim:0h4m12s) 
CPU  1 inst:    6000004 cyc:    4216993 now IPC :1.21769: AVG IPC :1.23672: L2-Pf-HR :-nan: L2-HR :0.76938: (Sim:0h4m12s) 
CPU  3 inst:    6000004 cyc:    4226450 now IPC :1.23014: AVG IPC :1.23319: L2-Pf-HR :-nan: L2-HR :0.77168: (Sim:0h4m13s) 
CPU  0 inst:    6000004 cyc:    4234860 now IPC :1.21795: AVG IPC :1.22998: L2-Pf-HR :-nan: L2-HR :0.77496: (Sim:0h4m13s) 
CPU  2 inst:    7000002 cyc:    5028821 now IPC :1.22382: AVG IPC :1.23571: L2-Pf-HR :-nan: L2-HR :0.76677: (Sim:0h4m54s) 
CPU  1 inst:    7000002 cyc:    5049901 now IPC :1.20061: AVG IPC :1.22932: L2-Pf-HR :-nan: L2-HR :0.77489: (Sim:0h4m55s) 
CPU  3 inst:    7000002 cyc:    5055269 now IPC :1.20653: AVG IPC :1.22777: L2-Pf-HR :-nan: L2-HR :0.77954: (Sim:0h4m55s) 
CPU  0 inst:    7000002 cyc:    5063473 now IPC :1.20683: AVG IPC :1.22528: L2-Pf-HR :-nan: L2-HR :0.78230: (Sim:0h4m56s) 
CPU  2 inst:    8000001 cyc:    5742748 now IPC :1.40070: AVG IPC :1.26046: L2-Pf-HR :-nan: L2-HR :0.76481: (Sim:0h5m33s) 
CPU  1 inst:    8000001 cyc:    5812314 now IPC :1.31162: AVG IPC :1.24232: L2-Pf-HR :-nan: L2-HR :0.77079: (Sim:0h5m37s) 
CPU  3 inst:    8000001 cyc:    5816129 now IPC :1.31430: AVG IPC :1.24139: L2-Pf-HR :-nan: L2-HR :0.77606: (Sim:0h5m38s) 
CPU  0 inst:    8000001 cyc:    5827471 now IPC :1.30890: AVG IPC :1.23847: L2-Pf-HR :-nan: L2-HR :0.78221: (Sim:0h5m38s) 
CPU  2 inst:    9000004 cyc:    6610056 now IPC :1.15300: AVG IPC :1.24390: L2-Pf-HR :-nan: L2-HR :0.76566: (Sim:0h6m13s) 
CPU  3 inst:    9000004 cyc:    6891855 now IPC :0.92961: AVG IPC :1.18463: L2-Pf-HR :-nan: L2-HR :0.77423: (Sim:0h6m26s) 
CPU  1 inst:    9000004 cyc:    6896719 now IPC :0.92217: AVG IPC :1.18361: L2-Pf-HR :-nan: L2-HR :0.77015: (Sim:0h6m26s) 
CPU  0 inst:    9000004 cyc:    6931304 now IPC :0.90594: AVG IPC :1.17676: L2-Pf-HR :-nan: L2-HR :0.78056: (Sim:0h6m27s) 
CPU  2 inst:   10000002 cyc:    7494255 now IPC :1.13096: AVG IPC :1.22856: L2-Pf-HR :-nan: L2-HR :0.77074: (Sim:0h6m51s) 
CPU  3 inst:   10000002 cyc:    8070364 now IPC :0.84853: AVG IPC :1.12874: L2-Pf-HR :-nan: L2-HR :0.77750: (Sim:0h7m15s) 
CPU  1 inst:   10000002 cyc:    8138650 now IPC :0.80520: AVG IPC :1.11794: L2-Pf-HR :-nan: L2-HR :0.77440: (Sim:0h7m18s) 
CPU  0 inst:   10000002 cyc:    8152163 now IPC :0.81909: AVG IPC :1.11585: L2-Pf-HR :-nan: L2-HR :0.78440: (Sim:0h7m18s) 
CPU  2 inst:   11000003 cyc:    8542409 now IPC :0.95406: AVG IPC :1.19050: L2-Pf-HR :-nan: L2-HR :0.77418: (Sim:0h7m34s) 
CPU  3 inst:   11000003 cyc:    9046225 now IPC :1.02474: AVG IPC :1.11616: L2-Pf-HR :-nan: L2-HR :0.77994: (Sim:0h7m56s) 
CPU  0 inst:   11000003 cyc:    9314188 now IPC :0.86057: AVG IPC :1.08025: L2-Pf-HR :-nan: L2-HR :0.78682: (Sim:0h8m8s) 
CPU  1 inst:   11000003 cyc:    9322746 now IPC :0.84453: AVG IPC :1.07912: L2-Pf-HR :-nan: L2-HR :0.77719: (Sim:0h8m9s) 
CPU  2 inst:   12000005 cyc:    9610047 now IPC :0.93665: AVG IPC :1.15909: L2-Pf-HR :-nan: L2-HR :0.77200: (Sim:0h8m21s) 
CPU  3 inst:   12000005 cyc:   10025421 now IPC :1.02125: AVG IPC :1.10588: L2-Pf-HR :-nan: L2-HR :0.77900: (Sim:0h8m39s) 
CPU  1 inst:   12000005 cyc:   10440744 now IPC :0.89446: AVG IPC :1.05729: L2-Pf-HR :-nan: L2-HR :0.77448: (Sim:0h8m57s) 
CPU  0 inst:   12000005 cyc:   10466772 now IPC :0.86762: AVG IPC :1.05441: L2-Pf-HR :-nan: L2-HR :0.78446: (Sim:0h8m58s) 
CPU  2 inst:   13000002 cyc:   10755119 now IPC :0.87330: AVG IPC :1.12560: L2-Pf-HR :-nan: L2-HR :0.77088: (Sim:0h9m9s) 
CPU  3 inst:   13000002 cyc:   11197212 now IPC :0.85339: AVG IPC :1.07691: L2-Pf-HR :-nan: L2-HR :0.77752: (Sim:0h9m27s) 
CPU  0 inst:   13000002 cyc:   11801567 now IPC :0.74918: AVG IPC :1.01675: L2-Pf-HR :-nan: L2-HR :0.78235: (Sim:0h9m51s) 
CPU  1 inst:   13000002 cyc:   11807996 now IPC :0.73139: AVG IPC :1.01613: L2-Pf-HR :-nan: L2-HR :0.77326: (Sim:0h9m51s) 
CPU  2 inst:   14000001 cyc:   12009000 now IPC :0.79752: AVG IPC :1.08829: L2-Pf-HR :-nan: L2-HR :0.77376: (Sim:0h9m58s) 
CPU  3 inst:   14000001 cyc:   12300073 now IPC :0.90673: AVG IPC :1.06033: L2-Pf-HR :-nan: L2-HR :0.77996: (Sim:0h10m10s) 
CPU  2 inst:   15000003 cyc:   13017132 now IPC :0.99194: AVG IPC :1.08022: L2-Pf-HR :-nan: L2-HR :0.77653: (Sim:0h10m38s) 
CPU  0 inst:   14000002 cyc:   13184672 now IPC :0.72301: AVG IPC :0.98345: L2-Pf-HR :-nan: L2-HR :0.78400: (Sim:0h10m45s) 
CPU  1 inst:   14000001 cyc:   13236128 now IPC :0.70021: AVG IPC :0.97931: L2-Pf-HR :-nan: L2-HR :0.77590: (Sim:0h10m47s) 
CPU  3 inst:   15000003 cyc:   13661288 now IPC :0.73464: AVG IPC :1.02536: L2-Pf-HR :-nan: L2-HR :0.78293: (Sim:0h11m3s) 
CPU  2 inst:   16000000 cyc:   14114800 now IPC :0.91102: AVG IPC :1.06608: L2-Pf-HR :-nan: L2-HR :0.77517: (Sim:0h11m23s) 
CPU  0 inst:   15000003 cyc:   14433500 now IPC :0.80075: AVG IPC :0.96649: L2-Pf-HR :-nan: L2-HR :0.78649: (Sim:0h11m35s) 
CPU  1 inst:   15000003 cyc:   14552595 now IPC :0.75961: AVG IPC :0.95799: L2-Pf-HR :-nan: L2-HR :0.77875: (Sim:0h11m38s) 
CPU  3 inst:   16000000 cyc:   14889319 now IPC :0.81431: AVG IPC :1.00672: L2-Pf-HR :-nan: L2-HR :0.78243: (Sim:0h11m50s) 
CPU  2 inst:   17000000 cyc:   15303503 now IPC :0.84125: AVG IPC :1.04741: L2-Pf-HR :-nan: L2-HR :0.77293: (Sim:0h12m11s) 
CPU  0 inst:   16000000 cyc:   15528784 now IPC :0.91300: AVG IPC :0.96246: L2-Pf-HR :-nan: L2-HR :0.78517: (Sim:0h12m22s) 
CPU  1 inst:   16000000 cyc:   15673426 now IPC :0.89219: AVG IPC :0.95297: L2-Pf-HR :-nan: L2-HR :0.77769: (Sim:0h12m29s) 
CPU  3 inst:   17000000 cyc:   16042069 now IPC :0.86749: AVG IPC :0.99607: L2-Pf-HR :-nan: L2-HR :0.78003: (Sim:0h12m48s) 
CPU  2 inst:   18000000 cyc:   16511458 now IPC :0.82785: AVG IPC :1.03033: L2-Pf-HR :-nan: L2-HR :0.77562: (Sim:0h13m9s) 
CPU  0 inst:   17000000 cyc:   16695290 now IPC :0.85726: AVG IPC :0.95465: L2-Pf-HR :-nan: L2-HR :0.78248: (Sim:0h13m17s) 
CPU  1 inst:   17000000 cyc:   16940769 now IPC :0.78905: AVG IPC :0.93995: L2-Pf-HR :-nan: L2-HR :0.77528: (Sim:0h13m29s) 
CPU  3 inst:   18000000 cyc:   17335586 now IPC :0.77309: AVG IPC :0.97843: L2-Pf-HR :-nan: L2-HR :0.78200: (Sim:0h13m48s) 
CPU  0 inst:   18000000 cyc:   17706280 now IPC :0.98913: AVG IPC :0.95674: L2-Pf-HR :-nan: L2-HR :0.78488: (Sim:0h14m6s) 
CPU  2 inst:   19000001 cyc:   17714862 now IPC :0.83098: AVG IPC :1.01600: L2-Pf-HR :-nan: L2-HR :0.77695: (Sim:0h14m6s) 
CPU  1 inst:   18000000 cyc:   18108008 now IPC :0.85672: AVG IPC :0.93428: L2-Pf-HR :-nan: L2-HR :0.77780: (Sim:0h14m25s) 
CPU  3 inst:   19000001 cyc:   18588129 now IPC :0.79838: AVG IPC :0.96562: L2-Pf-HR :-nan: L2-HR :0.78320: (Sim:0h14m48s) 
CPU  0 inst:   19000001 cyc:   18771039 now IPC :0.93918: AVG IPC :0.95568: L2-Pf-HR :-nan: L2-HR :0.78597: (Sim:0h14m57s) 
CPU  2 inst:   20000000 cyc:   18886781 now IPC :0.85330: AVG IPC :1.00535: L2-Pf-HR :-nan: L2-HR :0.77720: (Sim:0h15m3s) 
CPU  1 inst:   19000001 cyc:   19225559 now IPC :0.89481: AVG IPC :0.93186: L2-Pf-HR :-nan: L2-HR :0.77922: (Sim:0h15m20s) 
CPU  3 inst:   20000000 cyc:   19699211 now IPC :0.90002: AVG IPC :0.96172: L2-Pf-HR :-nan: L2-HR :0.78360: (Sim:0h15m43s) 
CPU  0 inst:   20000000 cyc:   19899728 now IPC :0.88598: AVG IPC :0.95153: L2-Pf-HR :-nan: L2-HR :0.78630: (Sim:0h15m52s) 
CPU  2 inst:   21000003 cyc:   20135194 now IPC :0.80102: AVG IPC :0.99203: L2-Pf-HR :-nan: L2-HR :0.77519: (Sim:0h16m3s) 
CPU  1 inst:   20000000 cyc:   20346778 now IPC :0.89189: AVG IPC :0.92955: L2-Pf-HR :-nan: L2-HR :0.77937: (Sim:0h16m14s) 
CPU  3 inst:   21000002 cyc:   20911087 now IPC :0.82517: AVG IPC :0.95342: L2-Pf-HR :-nan: L2-HR :0.78133: (Sim:0h16m39s) 
CPU  0 inst:   21000000 cyc:   21104429 now IPC :0.83008: AVG IPC :0.94426: L2-Pf-HR :-nan: L2-HR :0.78418: (Sim:0h16m49s) 
CPU  2 inst:   22000004 cyc:   21383068 now IPC :0.80136: AVG IPC :0.98037: L2-Pf-HR :-nan: L2-HR :0.77687: (Sim:0h17m1s) 
CPU  1 inst:   21000002 cyc:   21607800 now IPC :0.79301: AVG IPC :0.92120: L2-Pf-HR :-nan: L2-HR :0.77705: (Sim:0h17m12s) 
CPU  3 inst:   22000004 cyc:   22002838 now IPC :0.91596: AVG IPC :0.95147: L2-Pf-HR :-nan: L2-HR :0.78259: (Sim:0h17m29s) 
CPU  0 inst:   22000004 cyc:   22224654 now IPC :0.89268: AVG IPC :0.94154: L2-Pf-HR :-nan: L2-HR :0.78548: (Sim:0h17m40s) 
CPU  2 inst:   23000002 cyc:   22437365 now IPC :0.94850: AVG IPC :0.97880: L2-Pf-HR :-nan: L2-HR :0.77837: (Sim:0h17m50s) 
CPU  1 inst:   22000004 cyc:   22628356 now IPC :0.97986: AVG IPC :0.92397: L2-Pf-HR :-nan: L2-HR :0.77860: (Sim:0h18m0s) 
CPU  3 inst:   23000002 cyc:   23033621 now IPC :0.97013: AVG IPC :0.95235: L2-Pf-HR :-nan: L2-HR :0.78405: (Sim:0h18m20s) 
CPU  0 inst:   23000002 cyc:   23284321 now IPC :0.94369: AVG IPC :0.94164: L2-Pf-HR :-nan: L2-HR :0.78692: (Sim:0h18m33s) 
CPU  2 inst:   24000003 cyc:   23525477 now IPC :0.91902: AVG IPC :0.97591: L2-Pf-HR :-nan: L2-HR :0.77862: (Sim:0h18m45s) 
CPU  1 inst:   23000002 cyc:   23628724 now IPC :0.99963: AVG IPC :0.92731: L2-Pf-HR :-nan: L2-HR :0.78018: (Sim:0h18m50s) 
CPU  3 inst:   24000003 cyc:   24085437 now IPC :0.95074: AVG IPC :0.95227: L2-Pf-HR :-nan: L2-HR :0.78472: (Sim:0h19m13s) 
CPU  0 inst:   24000003 cyc:   24306752 now IPC :0.97806: AVG IPC :0.94323: L2-Pf-HR :-nan: L2-HR :0.78759: (Sim:0h19m23s) 
CPU  1 inst:   24000003 cyc:   24683136 now IPC :0.94840: AVG IPC :0.92825: L2-Pf-HR :-nan: L2-HR :0.78054: (Sim:0h19m41s) 
CPU  2 inst:   25000003 cyc:   24742293 now IPC :0.82182: AVG IPC :0.96802: L2-Pf-HR :-nan: L2-HR :0.77610: (Sim:0h19m44s) 
CPU  3 inst:   25000000 cyc:   25302541 now IPC :0.82162: AVG IPC :0.94574: L2-Pf-HR :-nan: L2-HR :0.78228: (Sim:0h20m9s) 
CPU  0 inst:   25000003 cyc:   25489749 now IPC :0.84531: AVG IPC :0.93851: L2-Pf-HR :-nan: L2-HR :0.78544: (Sim:0h20m18s) 
CPU  1 inst:   25000005 cyc:   25879055 now IPC :0.83618: AVG IPC :0.92382: L2-Pf-HR :-nan: L2-HR :0.77797: (Sim:0h20m36s) 
CPU  2 inst:   26000002 cyc:   25922761 now IPC :0.84712: AVG IPC :0.96230: L2-Pf-HR :-nan: L2-HR :0.77768: (Sim:0h20m38s) 
CPU  3 inst:   26000002 cyc:   26353230 now IPC :0.95176: AVG IPC :0.94598: L2-Pf-HR :-nan: L2-HR :0.78374: (Sim:0h21m0s) 
CPU  0 inst:   26000002 cyc:   26600431 now IPC :0.90035: AVG IPC :0.93685: L2-Pf-HR :-nan: L2-HR :0.78662: (Sim:0h21m13s) 
CPU  1 inst:   26000002 cyc:   26901816 now IPC :0.97774: AVG IPC :0.92595: L2-Pf-HR :-nan: L2-HR :0.77945: (Sim:0h21m29s) 
CPU  2 inst:   27000000 cyc:   27005517 now IPC :0.92357: AVG IPC :0.96069: L2-Pf-HR :-nan: L2-HR :0.77883: (Sim:0h21m34s) 
CPU  3 inst:   27000000 cyc:   27330229 now IPC :1.02354: AVG IPC :0.94886: L2-Pf-HR :-nan: L2-HR :0.78485: (Sim:0h21m51s) 
CPU  0 inst:   27000000 cyc:   27627500 now IPC :0.97364: AVG IPC :0.93827: L2-Pf-HR :-nan: L2-HR :0.78745: (Sim:0h22m5s) 
CPU  1 inst:   27000000 cyc:   27951152 now IPC :0.95298: AVG IPC :0.92700: L2-Pf-HR :-nan: L2-HR :0.78053: (Sim:0h22m20s) 
CPU  2 inst:   28000003 cyc:   28070498 now IPC :0.93899: AVG IPC :0.95983: L2-Pf-HR :-nan: L2-HR :0.77956: (Sim:0h22m25s) 
CPU  3 inst:   28000003 cyc:   28379487 now IPC :0.95306: AVG IPC :0.94902: L2-Pf-HR :-nan: L2-HR :0.78586: (Sim:0h22m39s) 
CPU  0 inst:   28000003 cyc:   28678672 now IPC :0.95132: AVG IPC :0.93877: L2-Pf-HR :-nan: L2-HR :0.78800: (Sim:0h22m53s) 
CPU  1 inst:   28000004 cyc:   29031999 now IPC :0.92520: AVG IPC :0.92693: L2-Pf-HR :-nan: L2-HR :0.78136: (Sim:0h23m9s) 
CPU  2 inst:   29000002 cyc:   29212971 now IPC :0.87529: AVG IPC :0.95641: L2-Pf-HR :-nan: L2-HR :0.77703: (Sim:0h23m17s) 
CPU  3 inst:   29000002 cyc:   29547708 now IPC :0.85600: AVG IPC :0.94522: L2-Pf-HR :-nan: L2-HR :0.78332: (Sim:0h23m31s) 
CPU  0 inst:   29000002 cyc:   29900916 now IPC :0.81817: AVG IPC :0.93367: L2-Pf-HR :-nan: L2-HR :0.78556: (Sim:0h23m46s) 
CPU  1 inst:   29000002 cyc:   30296458 now IPC :0.79085: AVG IPC :0.92106: L2-Pf-HR :-nan: L2-HR :0.77859: (Sim:0h24m2s) 
CPU  2 inst:   30000000 cyc:   30370873 now IPC :0.86363: AVG IPC :0.95276: L2-Pf-HR :-nan: L2-HR :0.77847: (Sim:0h24m6s) 
CPU  3 inst:   30000000 cyc:   30675598 now IPC :0.88661: AVG IPC :0.94299: L2-Pf-HR :-nan: L2-HR :0.78449: (Sim:0h24m20s) 
CPU  0 inst:   30000000 cyc:   30962889 now IPC :0.94164: AVG IPC :0.93395: L2-Pf-HR :-nan: L2-HR :0.78676: (Sim:0h24m33s) 
CPU  2 inst:   31000004 cyc:   31401174 now IPC :0.97059: AVG IPC :0.95336: L2-Pf-HR :-nan: L2-HR :0.77925: (Sim:0h24m54s) 
CPU  1 inst:   30000000 cyc:   31404410 now IPC :0.90256: AVG IPC :0.92039: L2-Pf-HR :-nan: L2-HR :0.77995: (Sim:0h24m54s) 
CPU  3 inst:   31000004 cyc:   31777379 now IPC :0.90763: AVG IPC :0.94173: L2-Pf-HR :-nan: L2-HR :0.78511: (Sim:0h25m11s) 
CPU  0 inst:   31000004 cyc:   31962102 now IPC :1.00079: AVG IPC :0.93611: L2-Pf-HR :-nan: L2-HR :0.78752: (Sim:0h25m20s) 
CPU  2 inst:   32000002 cyc:   32406196 now IPC :0.99500: AVG IPC :0.95469: L2-Pf-HR :-nan: L2-HR :0.78013: (Sim:0h25m41s) 
CPU  1 inst:   31000004 cyc:   32476034 now IPC :0.93317: AVG IPC :0.92083: L2-Pf-HR :-nan: L2-HR :0.78068: (Sim:0h25m44s) 
CPU  3 inst:   32000002 cyc:   32870484 now IPC :0.91482: AVG IPC :0.94080: L2-Pf-HR :-nan: L2-HR :0.78629: (Sim:0h26m2s) 
CPU  0 inst:   32000002 cyc:   33010733 now IPC :0.95362: AVG IPC :0.93668: L2-Pf-HR :-nan: L2-HR :0.78851: (Sim:0h26m9s) 
CPU  1 inst:   32000002 cyc:   33517644 now IPC :0.96005: AVG IPC :0.92208: L2-Pf-HR :-nan: L2-HR :0.78174: (Sim:0h26m32s) 
CPU  2 inst:   33000000 cyc:   33607467 now IPC :0.83245: AVG IPC :0.95019: L2-Pf-HR :-nan: L2-HR :0.77738: (Sim:0h26m35s) 
CPU  3 inst:   33000000 cyc:   34064712 now IPC :0.83736: AVG IPC :0.93707: L2-Pf-HR :-nan: L2-HR :0.78378: (Sim:0h26m48s) 
CPU  0 inst:   33000000 cyc:   34418841 now IPC :0.71017: AVG IPC :0.92714: L2-Pf-HR :-nan: L2-HR :0.78636: (Sim:0h26m55s) 
CPU  1 inst:   33000000 cyc:   35728418 now IPC :0.45233: AVG IPC :0.89219: L2-Pf-HR :-nan: L2-HR :0.77898: (Sim:0h27m24s) 
CPU  2 inst:   34000000 cyc:   52185697 now IPC :0.05383: AVG IPC :0.62496: L2-Pf-HR :-nan: L2-HR :0.71520: (Sim:0h35m27s) 
CPU  3 inst:   34000003 cyc:   54190195 now IPC :0.04969: AVG IPC :0.60142: L2-Pf-HR :-nan: L2-HR :0.72018: (Sim:0h36m30s) 
CPU  0 inst:   34000003 cyc:   55016812 now IPC :0.04855: AVG IPC :0.59222: L2-Pf-HR :-nan: L2-HR :0.72219: (Sim:0h36m54s) 
CPU  1 inst:   34000000 cyc:   57408770 now IPC :0.04612: AVG IPC :0.56711: L2-Pf-HR :-nan: L2-HR :0.71645: (Sim:0h38m3s) 
CPU  2 inst:   35000002 cyc:   63417116 now IPC :0.08904: AVG IPC :0.52855: L2-Pf-HR :-nan: L2-HR :0.69849: (Sim:0h40m54s) 
CPU  3 inst:   35000002 cyc:   63893042 now IPC :0.10306: AVG IPC :0.52456: L2-Pf-HR :-nan: L2-HR :0.70316: (Sim:0h41m9s) 
CPU  0 inst:   35000002 cyc:   64067491 now IPC :0.11049: AVG IPC :0.52311: L2-Pf-HR :-nan: L2-HR :0.70504: (Sim:0h41m14s) 
CPU  1 inst:   35000002 cyc:   64514647 now IPC :0.14073: AVG IPC :0.51942: L2-Pf-HR :-nan: L2-HR :0.69965: (Sim:0h41m29s) 
CPU  2 inst:   36000001 cyc:   69617623 now IPC :0.16128: AVG IPC :0.49537: L2-Pf-HR :-nan: L2-HR :0.69015: (Sim:0h44m5s) 
CPU  3 inst:   36000001 cyc:   70083341 now IPC :0.16154: AVG IPC :0.49204: L2-Pf-HR :-nan: L2-HR :0.69471: (Sim:0h44m20s) 
CPU  0 inst:   36000001 cyc:   70254246 now IPC :0.16164: AVG IPC :0.49082: L2-Pf-HR :-nan: L2-HR :0.69655: (Sim:0h44m25s) 
CPU  1 inst:   36000001 cyc:   70702269 now IPC :0.16161: AVG IPC :0.48767: L2-Pf-HR :-nan: L2-HR :0.69129: (Sim:0h44m42s) 
CPU  2 inst:   37000001 cyc:   75781467 now IPC :0.16224: AVG IPC :0.46792: L2-Pf-HR :-nan: L2-HR :0.68219: (Sim:0h47m16s) 
CPU  3 inst:   37000001 cyc:   76250416 now IPC :0.16215: AVG IPC :0.46501: L2-Pf-HR :-nan: L2-HR :0.68665: (Sim:0h47m30s) 
CPU  0 inst:   37000001 cyc:   76410702 now IPC :0.16243: AVG IPC :0.46402: L2-Pf-HR :-nan: L2-HR :0.68845: (Sim:0h47m35s) 
CPU  1 inst:   37000001 cyc:   76868726 now IPC :0.16217: AVG IPC :0.46122: L2-Pf-HR :-nan: L2-HR :0.68330: (Sim:0h47m48s) 
CPU  2 inst:   38000000 cyc:   81831349 now IPC :0.16529: AVG IPC :0.44527: L2-Pf-HR :-nan: L2-HR :0.67457: (Sim:0h50m20s) 
CPU  3 inst:   38000000 cyc:   82313017 now IPC :0.16495: AVG IPC :0.44264: L2-Pf-HR :-nan: L2-HR :0.67893: (Sim:0h50m37s) 
CPU  0 inst:   38000000 cyc:   82451576 now IPC :0.16554: AVG IPC :0.44189: L2-Pf-HR :-nan: L2-HR :0.68069: (Sim:0h50m42s) 
CPU  1 inst:   38000000 cyc:   82913431 now IPC :0.16543: AVG IPC :0.43939: L2-Pf-HR :-nan: L2-HR :0.67566: (Sim:0h50m55s) 
CPU  2 inst:   39000000 cyc:   87798912 now IPC :0.16757: AVG IPC :0.42618: L2-Pf-HR :-nan: L2-HR :0.66728: (Sim:0h53m30s) 
CPU  3 inst:   39000000 cyc:   88320926 now IPC :0.16645: AVG IPC :0.42364: L2-Pf-HR :-nan: L2-HR :0.67155: (Sim:0h53m47s) 
CPU  0 inst:   39000000 cyc:   88454339 now IPC :0.16659: AVG IPC :0.42299: L2-Pf-HR :-nan: L2-HR :0.67327: (Sim:0h53m51s) 
CPU  1 inst:   39000000 cyc:   88919680 now IPC :0.16649: AVG IPC :0.42075: L2-Pf-HR :-nan: L2-HR :0.66835: (Sim:0h54m6s) 
Caught signal: 2
     > Finished combination: TraceType=770-tot Sim:78000000 Prefetcher=L2no L1=no
