TRACE: [125000000][OPT-125M]_[h12][s512][d64] Warmup: 2000000 NumTraces: 125000000
L1:isb_ideal:L2:isb_ideal
*************************************************
   ChampSim Multicore Out-of-Order Simulator
   Last compiled: Oct 29 2024 15:36:13
*************************************************

trace_0 770-tot_memTraces_v3_rexz/memTraces[125000000][OPT-125M]_[h12][s512][d64].champsim.9.xz
trace_1 770-tot_memTraces_v3_rexz/memTraces[125000000][OPT-125M]_[h12][s512][d64].champsim.9.xz
trace_2 770-tot_memTraces_v3_rexz/memTraces[125000000][OPT-125M]_[h12][s512][d64].champsim.9.xz
trace_3 770-tot_memTraces_v3_rexz/memTraces[125000000][OPT-125M]_[h12][s512][d64].champsim.9.xz
L1D: Ideal ISB Prefetching
Ideal ISB Prefetching
L1D: Ideal ISB Prefetching
Ideal ISB Prefetching
L1D: Ideal ISB Prefetching
Ideal ISB Prefetching
L1D: Ideal ISB Prefetching
Ideal ISB Prefetching
MAIN.cc ln 751 stats print skipped
CPU  0 inst:    1000001 cyc:     499047 now IPC :2.00382: AVG IPC :2.00382: L2-Pf-HR :0.99971: L2-HR :0.76359: (Sim:0h0m47s) 
CPU  1 inst:    1000001 cyc:     499054 now IPC :2.00379: AVG IPC :2.00379: L2-Pf-HR :0.98252: L2-HR :0.76469: (Sim:0h0m47s) 
CPU  2 inst:    1000001 cyc:     499301 now IPC :2.00280: AVG IPC :2.00280: L2-Pf-HR :0.99989: L2-HR :0.76120: (Sim:0h0m47s) 
CPU  3 inst:    1000001 cyc:     499305 now IPC :2.00279: AVG IPC :2.00279: L2-Pf-HR :0.98573: L2-HR :0.74573: (Sim:0h0m47s) 
CPU  0 inst:    2000000 cyc:     982267 now IPC :2.06945: AVG IPC :2.03611: L2-Pf-HR :0.99943: L2-HR :0.79228: (Sim:0h1m39s) 
CPU  1 inst:    2000000 cyc:     982321 now IPC :2.06925: AVG IPC :2.03599: L2-Pf-HR :0.98154: L2-HR :0.79005: (Sim:0h1m39s) 
CPU  2 inst:    2000000 cyc:     982414 now IPC :2.06991: AVG IPC :2.03580: L2-Pf-HR :0.99981: L2-HR :0.78614: (Sim:0h1m39s) 
CPU  3 inst:    2000000 cyc:     982458 now IPC :2.06974: AVG IPC :2.03571: L2-Pf-HR :0.98505: L2-HR :0.77148: (Sim:0h1m39s) 

Warmup complete CPU  0 instructions:    2000336 cycles:     982459 (Simulation time: 0 hr 1 min 39 sec) 
Warmup complete CPU  1 instructions:    2000282 cycles:     982459 (Simulation time: 0 hr 1 min 39 sec) 
Warmup complete CPU  2 instructions:    2000127 cycles:     982459 (Simulation time: 0 hr 1 min 39 sec) 
Warmup complete CPU  3 instructions:    2000003 cycles:     982459 (Simulation time: 0 hr 1 min 39 sec) 

CPU  1 inst:    3000001 cyc:    1794541 now IPC :1.23119: AVG IPC :1.23106: L2-Pf-HR :0.99057: L2-HR :0.81837: (Sim:0h2m30s) 
CPU  0 inst:    3000001 cyc:    1794745 now IPC :1.23080: AVG IPC :1.23068: L2-Pf-HR :0.99945: L2-HR :0.82838: (Sim:0h2m30s) 
CPU  3 inst:    3000001 cyc:    1794949 now IPC :1.23078: AVG IPC :1.23078: L2-Pf-HR :0.99164: L2-HR :0.80659: (Sim:0h2m30s) 
CPU  2 inst:    3000001 cyc:    1813746 now IPC :1.20289: AVG IPC :1.20280: L2-Pf-HR :0.99930: L2-HR :0.81889: (Sim:0h2m31s) 
CPU  0 inst:    4000004 cyc:    2567333 now IPC :1.29435: AVG IPC :1.26172: L2-Pf-HR :0.95559: L2-HR :0.81050: (Sim:0h3m18s) 
CPU  3 inst:    4000004 cyc:    2581255 now IPC :1.27177: AVG IPC :1.25094: L2-Pf-HR :0.97561: L2-HR :0.80166: (Sim:0h3m19s) 
CPU  1 inst:    4000004 cyc:    2586727 now IPC :1.26233: AVG IPC :1.24650: L2-Pf-HR :0.94125: L2-HR :0.80124: (Sim:0h3m20s) 
CPU  2 inst:    4000004 cyc:    2587031 now IPC :1.29319: AVG IPC :1.24636: L2-Pf-HR :0.97259: L2-HR :0.80868: (Sim:0h3m20s) 
CPU  0 inst:    5000000 cyc:    3386873 now IPC :1.22019: AVG IPC :1.24757: L2-Pf-HR :0.97025: L2-HR :0.81259: (Sim:0h4m10s) 
CPU  1 inst:    5000000 cyc:    3424492 now IPC :1.19365: AVG IPC :1.22837: L2-Pf-HR :0.95832: L2-HR :0.80006: (Sim:0h4m13s) 
CPU  3 inst:    5000000 cyc:    3425874 now IPC :1.18396: AVG IPC :1.22779: L2-Pf-HR :0.98186: L2-HR :0.80371: (Sim:0h4m13s) 
CPU  2 inst:    5000000 cyc:    3427697 now IPC :1.18953: AVG IPC :1.22682: L2-Pf-HR :0.98091: L2-HR :0.81272: (Sim:0h4m13s) 
CPU  0 inst:    6000004 cyc:    4142501 now IPC :1.32341: AVG IPC :1.26570: L2-Pf-HR :0.97190: L2-HR :0.81807: (Sim:0h5m0s) 
CPU  1 inst:    6000004 cyc:    4217643 now IPC :1.26080: AVG IPC :1.23632: L2-Pf-HR :0.96455: L2-HR :0.80449: (Sim:0h5m5s) 
CPU  2 inst:    6000004 cyc:    4220264 now IPC :1.26173: AVG IPC :1.23537: L2-Pf-HR :0.98514: L2-HR :0.82098: (Sim:0h5m5s) 
CPU  3 inst:    6000004 cyc:    4220872 now IPC :1.25787: AVG IPC :1.23517: L2-Pf-HR :0.98538: L2-HR :0.81286: (Sim:0h5m5s) 
CPU  0 inst:    7000005 cyc:    4822663 now IPC :1.47024: AVG IPC :1.30193: L2-Pf-HR :0.97357: L2-HR :0.82022: (Sim:0h5m47s) 
CPU  1 inst:    7000005 cyc:    4957403 now IPC :1.35179: AVG IPC :1.25781: L2-Pf-HR :0.96824: L2-HR :0.80499: (Sim:0h5m56s) 
CPU  2 inst:    7000005 cyc:    4958236 now IPC :1.35507: AVG IPC :1.25759: L2-Pf-HR :0.98255: L2-HR :0.82148: (Sim:0h5m56s) 
CPU  3 inst:    7000002 cyc:    4960874 now IPC :1.35134: AVG IPC :1.25678: L2-Pf-HR :0.98422: L2-HR :0.81471: (Sim:0h5m57s) 
CPU  0 inst:    8000005 cyc:    5618162 now IPC :1.25707: AVG IPC :1.29423: L2-Pf-HR :0.96879: L2-HR :0.81564: (Sim:0h6m37s) 
CPU  1 inst:    8000005 cyc:    5800226 now IPC :1.18649: AVG IPC :1.24533: L2-Pf-HR :0.96782: L2-HR :0.80336: (Sim:0h6m48s) 
CPU  2 inst:    8000005 cyc:    5806711 now IPC :1.17859: AVG IPC :1.24369: L2-Pf-HR :0.97845: L2-HR :0.81812: (Sim:0h6m48s) 
CPU  3 inst:    8000005 cyc:    5822386 now IPC :1.16075: AVG IPC :1.23969: L2-Pf-HR :0.98071: L2-HR :0.81299: (Sim:0h6m49s) 
CPU  0 inst:    9000004 cyc:    6575128 now IPC :1.04497: AVG IPC :1.25158: L2-Pf-HR :0.97510: L2-HR :0.81794: (Sim:0h7m30s) 
CPU  2 inst:    9000004 cyc:    6954469 now IPC :0.87126: AVG IPC :1.17211: L2-Pf-HR :0.98078: L2-HR :0.81635: (Sim:0h7m50s) 
CPU  3 inst:    9000004 cyc:    6964855 now IPC :0.87530: AVG IPC :1.17010: L2-Pf-HR :0.98319: L2-HR :0.81262: (Sim:0h7m50s) 
CPU  1 inst:    9000004 cyc:    6967577 now IPC :0.85664: AVG IPC :1.16952: L2-Pf-HR :0.97109: L2-HR :0.80307: (Sim:0h7m50s) 
CPU  0 inst:   10000001 cyc:    7443088 now IPC :1.15212: AVG IPC :1.23822: L2-Pf-HR :0.97757: L2-HR :0.82199: (Sim:0h8m15s) 
CPU  2 inst:   10000001 cyc:    8106495 now IPC :0.86803: AVG IPC :1.12294: L2-Pf-HR :0.98223: L2-HR :0.82005: (Sim:0h8m45s) 
CPU  3 inst:   10000000 cyc:    8220719 now IPC :0.79626: AVG IPC :1.10524: L2-Pf-HR :0.98505: L2-HR :0.81739: (Sim:0h8m49s) 
CPU  1 inst:   10000001 cyc:    8243660 now IPC :0.78365: AVG IPC :1.10171: L2-Pf-HR :0.97336: L2-HR :0.80714: (Sim:0h8m49s) 
CPU  0 inst:   11000005 cyc:    8592640 now IPC :0.86991: AVG IPC :1.18258: L2-Pf-HR :0.97907: L2-HR :0.82427: (Sim:0h9m1s) 
CPU  2 inst:   11000005 cyc:    8987161 now IPC :1.13551: AVG IPC :1.12432: L2-Pf-HR :0.98351: L2-HR :0.82232: (Sim:0h9m15s) 
CPU  3 inst:   11000005 cyc:    9311861 now IPC :0.91648: AVG IPC :1.08051: L2-Pf-HR :0.98610: L2-HR :0.82043: (Sim:0h9m26s) 
CPU  1 inst:   11000005 cyc:    9367930 now IPC :0.88947: AVG IPC :1.07325: L2-Pf-HR :0.97521: L2-HR :0.80994: (Sim:0h9m28s) 
CPU  0 inst:   12000005 cyc:    9591747 now IPC :1.00089: AVG IPC :1.16150: L2-Pf-HR :0.97734: L2-HR :0.82263: (Sim:0h9m36s) 
CPU  2 inst:   12000005 cyc:    9938758 now IPC :1.05087: AVG IPC :1.11652: L2-Pf-HR :0.98200: L2-HR :0.82108: (Sim:0h9m48s) 
CPU  3 inst:   12000005 cyc:   10350507 now IPC :0.96279: AVG IPC :1.06746: L2-Pf-HR :0.98574: L2-HR :0.82038: (Sim:0h10m4s) 
CPU  1 inst:   12000005 cyc:   10433516 now IPC :0.93845: AVG IPC :1.05805: L2-Pf-HR :0.97455: L2-HR :0.80894: (Sim:0h10m6s) 
CPU  0 inst:   13000002 cyc:   10720057 now IPC :0.88628: AVG IPC :1.12961: L2-Pf-HR :0.97949: L2-HR :0.82191: (Sim:0h10m16s) 
CPU  2 inst:   13000002 cyc:   11105877 now IPC :0.85681: AVG IPC :1.08658: L2-Pf-HR :0.98359: L2-HR :0.82040: (Sim:0h10m27s) 
CPU  3 inst:   13000002 cyc:   11640886 now IPC :0.77496: AVG IPC :1.03205: L2-Pf-HR :0.98705: L2-HR :0.81960: (Sim:0h10m44s) 
CPU  1 inst:   13000002 cyc:   11718656 now IPC :0.77812: AVG IPC :1.02455: L2-Pf-HR :0.97639: L2-HR :0.80839: (Sim:0h10m46s) 
CPU  0 inst:   14000004 cyc:   12095595 now IPC :0.72699: AVG IPC :1.07977: L2-Pf-HR :0.98169: L2-HR :0.82540: (Sim:0h11m3s) 
CPU  2 inst:   14000004 cyc:   12183651 now IPC :0.92784: AVG IPC :1.07130: L2-Pf-HR :0.98504: L2-HR :0.82307: (Sim:0h11m7s) 
CPU  3 inst:   14000005 cyc:   12754346 now IPC :0.89810: AVG IPC :1.01938: L2-Pf-HR :0.98822: L2-HR :0.82250: (Sim:0h11m27s) 
CPU  1 inst:   14000005 cyc:   13119062 now IPC :0.71408: AVG IPC :0.98872: L2-Pf-HR :0.97808: L2-HR :0.81141: (Sim:0h11m37s) 
CPU  0 inst:   15000001 cyc:   13435028 now IPC :0.74658: AVG IPC :1.04393: L2-Pf-HR :0.98277: L2-HR :0.82765: (Sim:0h11m48s) 
CPU  2 inst:   15000001 cyc:   13509108 now IPC :0.75445: AVG IPC :1.03778: L2-Pf-HR :0.98566: L2-HR :0.82534: (Sim:0h11m51s) 
CPU  3 inst:   15000001 cyc:   13787190 now IPC :0.96820: AVG IPC :1.01525: L2-Pf-HR :0.98859: L2-HR :0.82442: (Sim:0h11m59s) 
CPU  1 inst:   15000001 cyc:   14409860 now IPC :0.77471: AVG IPC :0.96815: L2-Pf-HR :0.97941: L2-HR :0.81448: (Sim:0h12m26s) 
CPU  0 inst:   16000005 cyc:   14631716 now IPC :0.83564: AVG IPC :1.02567: L2-Pf-HR :0.98219: L2-HR :0.82683: (Sim:0h12m37s) 
CPU  2 inst:   16000005 cyc:   14654300 now IPC :0.87322: AVG IPC :1.02399: L2-Pf-HR :0.98463: L2-HR :0.82484: (Sim:0h12m38s) 
CPU  3 inst:   16000005 cyc:   14820022 now IPC :0.96822: AVG IPC :1.01174: L2-Pf-HR :0.98773: L2-HR :0.82349: (Sim:0h12m47s) 
CPU  1 inst:   16000005 cyc:   15509639 now IPC :0.90928: AVG IPC :0.96369: L2-Pf-HR :0.97945: L2-HR :0.81496: (Sim:0h13m21s) 
CPU  0 inst:   17000000 cyc:   15861203 now IPC :0.81334: AVG IPC :1.00813: L2-Pf-HR :0.98300: L2-HR :0.82486: (Sim:0h13m39s) 
CPU  2 inst:   17000000 cyc:   15890834 now IPC :0.80871: AVG IPC :1.00614: L2-Pf-HR :0.98517: L2-HR :0.82273: (Sim:0h13m40s) 
CPU  3 inst:   17000000 cyc:   15990770 now IPC :0.85415: AVG IPC :0.99945: L2-Pf-HR :0.98844: L2-HR :0.82182: (Sim:0h13m45s) 
CPU  1 inst:   17000000 cyc:   16926062 now IPC :0.70600: AVG IPC :0.94080: L2-Pf-HR :0.98043: L2-HR :0.81355: (Sim:0h14m25s) 
CPU  0 inst:   18000001 cyc:   17301050 now IPC :0.69452: AVG IPC :0.98046: L2-Pf-HR :0.98434: L2-HR :0.82753: (Sim:0h14m41s) 
CPU  2 inst:   18000001 cyc:   17419626 now IPC :0.65411: AVG IPC :0.97340: L2-Pf-HR :0.98638: L2-HR :0.82552: (Sim:0h14m46s) 
CPU  3 inst:   18000001 cyc:   17442509 now IPC :0.68883: AVG IPC :0.97205: L2-Pf-HR :0.98931: L2-HR :0.82449: (Sim:0h14m47s) 
CPU  0 inst:   19000004 cyc:   18357991 now IPC :0.94613: AVG IPC :0.97837: L2-Pf-HR :0.98502: L2-HR :0.82843: (Sim:0h15m14s) 
CPU  1 inst:   18000001 cyc:   18368030 now IPC :0.69350: AVG IPC :0.92029: L2-Pf-HR :0.98142: L2-HR :0.81615: (Sim:0h15m14s) 
CPU  2 inst:   19000004 cyc:   18814987 now IPC :0.71666: AVG IPC :0.95331: L2-Pf-HR :0.98708: L2-HR :0.82683: (Sim:0h15m27s) 
CPU  3 inst:   19000004 cyc:   18845952 now IPC :0.71254: AVG IPC :0.95166: L2-Pf-HR :0.98976: L2-HR :0.82590: (Sim:0h15m28s) 
CPU  0 inst:   20000002 cyc:   19468333 now IPC :0.90062: AVG IPC :0.97370: L2-Pf-HR :0.98518: L2-HR :0.82908: (Sim:0h15m46s) 
CPU  1 inst:   19000004 cyc:   19631729 now IPC :0.79133: AVG IPC :0.91155: L2-Pf-HR :0.98204: L2-HR :0.81724: (Sim:0h15m51s) 
CPU  2 inst:   20000002 cyc:   20102678 now IPC :0.77658: AVG IPC :0.94141: L2-Pf-HR :0.98717: L2-HR :0.82764: (Sim:0h16m6s) 
CPU  3 inst:   20000002 cyc:   20115972 now IPC :0.78739: AVG IPC :0.94076: L2-Pf-HR :0.98887: L2-HR :0.82626: (Sim:0h16m6s) 
CPU  0 inst:   21000005 cyc:   20684698 now IPC :0.82212: AVG IPC :0.96434: L2-Pf-HR :0.98565: L2-HR :0.82726: (Sim:0h16m22s) 
CPU  1 inst:   20000002 cyc:   20805750 now IPC :0.85177: AVG IPC :0.90801: L2-Pf-HR :0.98124: L2-HR :0.81781: (Sim:0h16m25s) 
CPU  2 inst:   21000003 cyc:   21455625 now IPC :0.73913: AVG IPC :0.92804: L2-Pf-HR :0.98745: L2-HR :0.82572: (Sim:0h16m44s) 
CPU  3 inst:   21000002 cyc:   21551269 now IPC :0.69672: AVG IPC :0.92373: L2-Pf-HR :0.98914: L2-HR :0.82424: (Sim:0h16m49s) 
CPU  0 inst:   22000004 cyc:   21963203 now IPC :0.78216: AVG IPC :0.95324: L2-Pf-HR :0.98673: L2-HR :0.82953: (Sim:0h17m9s) 
CPU  1 inst:   21000005 cyc:   22093945 now IPC :0.77628: AVG IPC :0.89997: L2-Pf-HR :0.98139: L2-HR :0.81562: (Sim:0h17m16s) 
CPU  2 inst:   22000004 cyc:   22539796 now IPC :0.92236: AVG IPC :0.92775: L2-Pf-HR :0.98815: L2-HR :0.82733: (Sim:0h17m40s) 
CPU  3 inst:   22000004 cyc:   22753831 now IPC :0.83156: AVG IPC :0.91864: L2-Pf-HR :0.98961: L2-HR :0.82521: (Sim:0h17m51s) 
CPU  0 inst:   23000002 cyc:   23103693 now IPC :0.87681: AVG IPC :0.94930: L2-Pf-HR :0.98709: L2-HR :0.83068: (Sim:0h18m10s) 
CPU  1 inst:   22000004 cyc:   23108781 now IPC :0.98538: AVG IPC :0.90389: L2-Pf-HR :0.98201: L2-HR :0.81669: (Sim:0h18m10s) 
CPU  2 inst:   23000002 cyc:   23555919 now IPC :0.98413: AVG IPC :0.93029: L2-Pf-HR :0.98846: L2-HR :0.82837: (Sim:0h18m34s) 
CPU  3 inst:   23000002 cyc:   23875777 now IPC :0.89131: AVG IPC :0.91730: L2-Pf-HR :0.98980: L2-HR :0.82594: (Sim:0h18m51s) 
CPU  1 inst:   23000002 cyc:   24124192 now IPC :0.98482: AVG IPC :0.90744: L2-Pf-HR :0.98231: L2-HR :0.81750: (Sim:0h19m5s) 
CPU  0 inst:   24000004 cyc:   24216252 now IPC :0.89883: AVG IPC :0.94688: L2-Pf-HR :0.98685: L2-HR :0.83086: (Sim:0h19m10s) 
CPU  2 inst:   24000004 cyc:   24572235 now IPC :0.98395: AVG IPC :0.93260: L2-Pf-HR :0.98787: L2-HR :0.82833: (Sim:0h19m29s) 
CPU  3 inst:   24000004 cyc:   24908339 now IPC :0.96847: AVG IPC :0.91951: L2-Pf-HR :0.98927: L2-HR :0.82571: (Sim:0h19m48s) 
CPU  1 inst:   24000004 cyc:   25243482 now IPC :0.89343: AVG IPC :0.90679: L2-Pf-HR :0.98224: L2-HR :0.81814: (Sim:0h20m4s) 
CPU  0 inst:   25000003 cyc:   25376436 now IPC :0.86193: AVG IPC :0.94284: L2-Pf-HR :0.98679: L2-HR :0.82851: (Sim:0h20m11s) 
CPU  2 inst:   25000003 cyc:   25700502 now IPC :0.88631: AVG IPC :0.93049: L2-Pf-HR :0.98797: L2-HR :0.82620: (Sim:0h20m28s) 
CPU  3 inst:   25000003 cyc:   26201809 now IPC :0.77311: AVG IPC :0.91200: L2-Pf-HR :0.98933: L2-HR :0.82371: (Sim:0h20m52s) 
CPU  1 inst:   25000001 cyc:   26509428 now IPC :0.78992: AVG IPC :0.90100: L2-Pf-HR :0.98196: L2-HR :0.81604: (Sim:0h21m8s) 
CPU  0 inst:   26000005 cyc:   26553421 now IPC :0.84963: AVG IPC :0.93855: L2-Pf-HR :0.98759: L2-HR :0.83031: (Sim:0h21m10s) 
CPU  2 inst:   26000005 cyc:   26846456 now IPC :0.87264: AVG IPC :0.92793: L2-Pf-HR :0.98867: L2-HR :0.82803: (Sim:0h21m26s) 
CPU  3 inst:   26000005 cyc:   27334491 now IPC :0.88286: AVG IPC :0.91075: L2-Pf-HR :0.98988: L2-HR :0.82540: (Sim:0h21m48s) 
CPU  1 inst:   26000005 cyc:   27657415 now IPC :0.87109: AVG IPC :0.89971: L2-Pf-HR :0.98262: L2-HR :0.81750: (Sim:0h22m0s) 
CPU  0 inst:   27000003 cyc:   27673241 now IPC :0.89300: AVG IPC :0.93664: L2-Pf-HR :0.98787: L2-HR :0.83100: (Sim:0h22m0s) 
CPU  2 inst:   27000003 cyc:   27964455 now IPC :0.89445: AVG IPC :0.92654: L2-Pf-HR :0.98890: L2-HR :0.82882: (Sim:0h22m14s) 
CPU  3 inst:   27000003 cyc:   28444931 now IPC :0.90054: AVG IPC :0.91033: L2-Pf-HR :0.99025: L2-HR :0.82649: (Sim:0h22m36s) 
CPU  1 inst:   27000003 cyc:   28772935 now IPC :0.89644: AVG IPC :0.89958: L2-Pf-HR :0.98283: L2-HR :0.81809: (Sim:0h22m52s) 
CPU  0 inst:   28000001 cyc:   28779617 now IPC :0.90385: AVG IPC :0.93534: L2-Pf-HR :0.98782: L2-HR :0.83156: (Sim:0h22m52s) 
CPU  2 inst:   28000005 cyc:   29078997 now IPC :0.89723: AVG IPC :0.92538: L2-Pf-HR :0.98862: L2-HR :0.82928: (Sim:0h23m8s) 
CPU  3 inst:   28000001 cyc:   29519873 now IPC :0.93028: AVG IPC :0.91108: L2-Pf-HR :0.99003: L2-HR :0.82716: (Sim:0h23m30s) 
CPU  1 inst:   28000004 cyc:   29905858 now IPC :0.88267: AVG IPC :0.89892: L2-Pf-HR :0.98286: L2-HR :0.81898: (Sim:0h23m46s) 
CPU  0 inst:   29000000 cyc:   29962467 now IPC :0.84541: AVG IPC :0.93167: L2-Pf-HR :0.98737: L2-HR :0.82901: (Sim:0h23m48s) 
CPU  2 inst:   29000000 cyc:   30291514 now IPC :0.82473: AVG IPC :0.92121: L2-Pf-HR :0.98880: L2-HR :0.82729: (Sim:0h23m59s) 
CPU  3 inst:   29000000 cyc:   30683889 now IPC :0.85909: AVG IPC :0.90905: L2-Pf-HR :0.98972: L2-HR :0.82489: (Sim:0h24m14s) 
CPU  0 inst:   30000000 cyc:   31126377 now IPC :0.85917: AVG IPC :0.92887: L2-Pf-HR :0.98802: L2-HR :0.83063: (Sim:0h24m36s) 
CPU  1 inst:   29000000 cyc:   31150300 now IPC :0.80357: AVG IPC :0.89498: L2-Pf-HR :0.98277: L2-HR :0.81677: (Sim:0h24m38s) 
CPU  2 inst:   30000000 cyc:   31446743 now IPC :0.86563: AVG IPC :0.91910: L2-Pf-HR :0.98929: L2-HR :0.82872: (Sim:0h24m54s) 
CPU  3 inst:   30000000 cyc:   31795162 now IPC :0.89987: AVG IPC :0.90872: L2-Pf-HR :0.99017: L2-HR :0.82641: (Sim:0h25m13s) 
CPU  0 inst:   31000001 cyc:   32199964 now IPC :0.93146: AVG IPC :0.92896: L2-Pf-HR :0.98822: L2-HR :0.83102: (Sim:0h25m35s) 
CPU  1 inst:   30000000 cyc:   32307796 now IPC :0.86393: AVG IPC :0.89384: L2-Pf-HR :0.98331: L2-HR :0.81798: (Sim:0h25m41s) 
CPU  2 inst:   31000001 cyc:   32582688 now IPC :0.88033: AVG IPC :0.91771: L2-Pf-HR :0.98938: L2-HR :0.82910: (Sim:0h25m53s) 
CPU  3 inst:   31000001 cyc:   32889160 now IPC :0.91408: AVG IPC :0.90890: L2-Pf-HR :0.99040: L2-HR :0.82703: (Sim:0h26m10s) 
CPU  0 inst:   32000002 cyc:   33276327 now IPC :0.92906: AVG IPC :0.92896: L2-Pf-HR :0.98804: L2-HR :0.83159: (Sim:0h26m32s) 
CPU  1 inst:   31000001 cyc:   33422019 now IPC :0.89749: AVG IPC :0.89396: L2-Pf-HR :0.98363: L2-HR :0.81847: (Sim:0h26m40s) 
CPU  2 inst:   32000002 cyc:   33713100 now IPC :0.88463: AVG IPC :0.91657: L2-Pf-HR :0.98940: L2-HR :0.82987: (Sim:0h26m56s) 
CPU  3 inst:   32000002 cyc:   33947055 now IPC :0.94527: AVG IPC :0.91007: L2-Pf-HR :0.99016: L2-HR :0.82776: (Sim:0h27m9s) 
CPU  0 inst:   33000003 cyc:   34348806 now IPC :0.93242: AVG IPC :0.92907: L2-Pf-HR :0.98762: L2-HR :0.82933: (Sim:0h27m31s) 
CPU  1 inst:   32000002 cyc:   34570143 now IPC :0.87099: AVG IPC :0.89318: L2-Pf-HR :0.98367: L2-HR :0.81948: (Sim:0h27m41s) 
CPU  2 inst:   33000003 cyc:   34837621 now IPC :0.88927: AVG IPC :0.91566: L2-Pf-HR :0.98896: L2-HR :0.82766: (Sim:0h27m56s) 
CPU  3 inst:   33000003 cyc:   35190623 now IPC :0.80414: AVG IPC :0.90622: L2-Pf-HR :0.98992: L2-HR :0.82582: (Sim:0h28m14s) 
CPU  0 inst:   34000004 cyc:   35592442 now IPC :0.80409: AVG IPC :0.92458: L2-Pf-HR :0.98824: L2-HR :0.83049: (Sim:0h28m34s) 
CPU  1 inst:   33000005 cyc:   35779592 now IPC :0.82683: AVG IPC :0.89087: L2-Pf-HR :0.98326: L2-HR :0.81742: (Sim:0h28m44s) 
CPU  2 inst:   34000004 cyc:   36005074 now IPC :0.85657: AVG IPC :0.91369: L2-Pf-HR :0.98950: L2-HR :0.82868: (Sim:0h28m55s) 
CPU  3 inst:   34000004 cyc:   36436589 now IPC :0.80259: AVG IPC :0.90257: L2-Pf-HR :0.99032: L2-HR :0.82668: (Sim:0h29m19s) 
CPU  0 inst:   35000005 cyc:   36768222 now IPC :0.85050: AVG IPC :0.92215: L2-Pf-HR :0.98860: L2-HR :0.83157: (Sim:0h29m37s) 
CPU  1 inst:   34000004 cyc:   36927017 now IPC :0.87152: AVG IPC :0.89025: L2-Pf-HR :0.98366: L2-HR :0.81799: (Sim:0h29m46s) 
CPU  2 inst:   35000005 cyc:   37034597 now IPC :0.97132: AVG IPC :0.91534: L2-Pf-HR :0.98969: L2-HR :0.82937: (Sim:0h29m52s) 
CPU  3 inst:   35000005 cyc:   37566817 now IPC :0.88478: AVG IPC :0.90202: L2-Pf-HR :0.99054: L2-HR :0.82757: (Sim:0h30m21s) 
CPU  0 inst:   36000004 cyc:   37904011 now IPC :0.88044: AVG IPC :0.92086: L2-Pf-HR :0.98848: L2-HR :0.83174: (Sim:0h30m40s) 
CPU  1 inst:   35000005 cyc:   37968099 now IPC :0.96054: AVG IPC :0.89223: L2-Pf-HR :0.98375: L2-HR :0.81846: (Sim:0h30m44s) 
CPU  2 inst:   36000004 cyc:   38079499 now IPC :0.95703: AVG IPC :0.91651: L2-Pf-HR :0.98965: L2-HR :0.82955: (Sim:0h30m50s) 
CPU  3 inst:   36000004 cyc:   38642131 now IPC :0.92996: AVG IPC :0.90282: L2-Pf-HR :0.99048: L2-HR :0.82789: (Sim:0h31m22s) 
CPU  0 inst:   37000000 cyc:   38892569 now IPC :1.01157: AVG IPC :0.92323: L2-Pf-HR :0.98804: L2-HR :0.83060: (Sim:0h31m37s) 
CPU  1 inst:   36000004 cyc:   39073345 now IPC :0.90478: AVG IPC :0.89259: L2-Pf-HR :0.98392: L2-HR :0.81902: (Sim:0h31m46s) 
CPU  2 inst:   37000000 cyc:   39102547 now IPC :0.97747: AVG IPC :0.91815: L2-Pf-HR :0.98926: L2-HR :0.82864: (Sim:0h31m48s) 
CPU  3 inst:   37000000 cyc:   39738463 now IPC :0.91213: AVG IPC :0.90309: L2-Pf-HR :0.99008: L2-HR :0.82697: (Sim:0h32m22s) 
CPU  0 inst:   38000004 cyc:   40153703 now IPC :0.79294: AVG IPC :0.91903: L2-Pf-HR :0.98847: L2-HR :0.83074: (Sim:0h32m43s) 
CPU  1 inst:   37000000 cyc:   40164564 now IPC :0.91640: AVG IPC :0.89326: L2-Pf-HR :0.98351: L2-HR :0.81805: (Sim:0h32m44s) 
CPU  2 inst:   38000004 cyc:   40324501 now IPC :0.81836: AVG IPC :0.91505: L2-Pf-HR :0.98971: L2-HR :0.82899: (Sim:0h32m52s) 
CPU  3 inst:   38000004 cyc:   41071818 now IPC :0.74999: AVG IPC :0.89799: L2-Pf-HR :0.99044: L2-HR :0.82725: (Sim:0h33m31s) 
CPU  1 inst:   38000004 cyc:   41348331 now IPC :0.84476: AVG IPC :0.89184: L2-Pf-HR :0.98391: L2-HR :0.81813: (Sim:0h33m46s) 
CPU  0 inst:   39000002 cyc:   41366766 now IPC :0.82436: AVG IPC :0.91619: L2-Pf-HR :0.98873: L2-HR :0.83120: (Sim:0h33m47s) 
CPU  2 inst:   39000002 cyc:   41506907 now IPC :0.84573: AVG IPC :0.91303: L2-Pf-HR :0.98988: L2-HR :0.82949: (Sim:0h33m54s) 
CPU  3 inst:   39000002 cyc:   42249567 now IPC :0.84908: AVG IPC :0.89660: L2-Pf-HR :0.99065: L2-HR :0.82779: (Sim:0h34m34s) 
CPU  1 inst:   39000002 cyc:   42451173 now IPC :0.90675: AVG IPC :0.89223: L2-Pf-HR :0.98404: L2-HR :0.81842: (Sim:0h34m45s) 
CPU  0 inst:   40000000 cyc:   42478255 now IPC :0.89969: AVG IPC :0.91575: L2-Pf-HR :0.98881: L2-HR :0.83165: (Sim:0h34m47s) 
CPU  2 inst:   40000000 cyc:   42629731 now IPC :0.89061: AVG IPC :0.91242: L2-Pf-HR :0.98987: L2-HR :0.82994: (Sim:0h34m56s) 
CPU  3 inst:   40000000 cyc:   43332272 now IPC :0.92361: AVG IPC :0.89729: L2-Pf-HR :0.99061: L2-HR :0.82834: (Sim:0h35m36s) 
CPU  0 inst:   41000003 cyc:   43472832 now IPC :1.00546: AVG IPC :0.91785: L2-Pf-HR :0.98840: L2-HR :0.83069: (Sim:0h35m45s) 
CPU  1 inst:   40000000 cyc:   43482309 now IPC :0.96980: AVG IPC :0.89411: L2-Pf-HR :0.98413: L2-HR :0.81899: (Sim:0h35m46s) 
CPU  2 inst:   41000003 cyc:   43634481 now IPC :0.99528: AVG IPC :0.91437: L2-Pf-HR :0.98964: L2-HR :0.82926: (Sim:0h35m54s) 
CPU  3 inst:   41000003 cyc:   44431862 now IPC :0.90943: AVG IPC :0.89760: L2-Pf-HR :0.99028: L2-HR :0.82766: (Sim:0h36m37s) 
CPU  1 inst:   41000003 cyc:   44584343 now IPC :0.90742: AVG IPC :0.89445: L2-Pf-HR :0.98336: L2-HR :0.81809: (Sim:0h36m48s) 
CPU  0 inst:   42000002 cyc:   44688426 now IPC :0.82264: AVG IPC :0.91520: L2-Pf-HR :0.98876: L2-HR :0.83066: (Sim:0h36m53s) 
CPU  2 inst:   42000002 cyc:   44921516 now IPC :0.77698: AVG IPC :0.91035: L2-Pf-HR :0.98997: L2-HR :0.82923: (Sim:0h37m6s) 
CPU  3 inst:   42000002 cyc:   45777480 now IPC :0.74315: AVG IPC :0.89296: L2-Pf-HR :0.99057: L2-HR :0.82768: (Sim:0h37m55s) 
CPU  0 inst:   43000000 cyc:   45818833 now IPC :0.88464: AVG IPC :0.91443: L2-Pf-HR :0.98905: L2-HR :0.83139: (Sim:0h37m58s) 
CPU  1 inst:   42000002 cyc:   45921170 now IPC :0.74804: AVG IPC :0.89009: L2-Pf-HR :0.98378: L2-HR :0.81817: (Sim:0h38m3s) 
CPU  2 inst:   43000000 cyc:   46201108 now IPC :0.78150: AVG IPC :0.90670: L2-Pf-HR :0.99022: L2-HR :0.82999: (Sim:0h38m20s) 
CPU  0 inst:   44000001 cyc:   46887890 now IPC :0.93540: AVG IPC :0.91492: L2-Pf-HR :0.98920: L2-HR :0.83173: (Sim:0h39m0s) 
CPU  3 inst:   43000000 cyc:   46925161 now IPC :0.87132: AVG IPC :0.89242: L2-Pf-HR :0.99074: L2-HR :0.82833: (Sim:0h39m2s) 
CPU  1 inst:   43000000 cyc:   47104102 now IPC :0.84536: AVG IPC :0.88895: L2-Pf-HR :0.98400: L2-HR :0.81881: (Sim:0h39m13s) 
CPU  2 inst:   44000001 cyc:   47462239 now IPC :0.79294: AVG IPC :0.90362: L2-Pf-HR :0.99022: L2-HR :0.83035: (Sim:0h39m34s) 
CPU  3 inst:   44000001 cyc:   48025550 now IPC :0.90877: AVG IPC :0.89280: L2-Pf-HR :0.99079: L2-HR :0.82868: (Sim:0h40m7s) 
CPU  0 inst:   45000000 cyc:   48042586 now IPC :0.86603: AVG IPC :0.91372: L2-Pf-HR :0.98900: L2-HR :0.83114: (Sim:0h40m8s) 
CPU  1 inst:   44000001 cyc:   48295898 now IPC :0.83907: AVG IPC :0.88769: L2-Pf-HR :0.98429: L2-HR :0.81951: (Sim:0h40m24s) 
CPU  2 inst:   45000000 cyc:   48626910 now IPC :0.85861: AVG IPC :0.90252: L2-Pf-HR :0.98980: L2-HR :0.82974: (Sim:0h40m43s) 
CPU  3 inst:   45000000 cyc:   49132433 now IPC :0.90344: AVG IPC :0.89304: L2-Pf-HR :0.99025: L2-HR :0.82810: (Sim:0h41m11s) 
CPU  0 inst:   46000000 cyc:   49291576 now IPC :0.80065: AVG IPC :0.91079: L2-Pf-HR :0.98927: L2-HR :0.83091: (Sim:0h41m21s) 
CPU  1 inst:   45000000 cyc:   49446234 now IPC :0.86931: AVG IPC :0.88725: L2-Pf-HR :0.98380: L2-HR :0.81894: (Sim:0h41m31s) 
CPU  2 inst:   46000002 cyc:   49821291 now IPC :0.83726: AVG IPC :0.90092: L2-Pf-HR :0.99003: L2-HR :0.82951: (Sim:0h41m53s) 
CPU  3 inst:   46000002 cyc:   50296608 now IPC :0.85898: AVG IPC :0.89224: L2-Pf-HR :0.99048: L2-HR :0.82794: (Sim:0h42m22s) 
CPU  0 inst:   47000004 cyc:   50397578 now IPC :0.90416: AVG IPC :0.91065: L2-Pf-HR :0.98952: L2-HR :0.83159: (Sim:0h42m28s) 
CPU  1 inst:   46000000 cyc:   50671889 now IPC :0.81589: AVG IPC :0.88549: L2-Pf-HR :0.98382: L2-HR :0.81833: (Sim:0h42m44s) 
CPU  2 inst:   47000004 cyc:   50925789 now IPC :0.90539: AVG IPC :0.90102: L2-Pf-HR :0.99021: L2-HR :0.83005: (Sim:0h43m0s) 
CPU  3 inst:   47000004 cyc:   51334450 now IPC :0.96354: AVG IPC :0.89371: L2-Pf-HR :0.99066: L2-HR :0.82852: (Sim:0h43m26s) 
CPU  0 inst:   48000005 cyc:   51443789 now IPC :0.95583: AVG IPC :0.91158: L2-Pf-HR :0.98968: L2-HR :0.83185: (Sim:0h43m33s) 
CPU  1 inst:   47000004 cyc:   51778041 now IPC :0.90404: AVG IPC :0.88590: L2-Pf-HR :0.98398: L2-HR :0.81881: (Sim:0h43m54s) 
CPU  2 inst:   48000005 cyc:   52073066 now IPC :0.87163: AVG IPC :0.90036: L2-Pf-HR :0.99027: L2-HR :0.83029: (Sim:0h44m11s) 
CPU  3 inst:   48000005 cyc:   52378045 now IPC :0.95823: AVG IPC :0.89502: L2-Pf-HR :0.99073: L2-HR :0.82885: (Sim:0h44m30s) 
CPU  0 inst:   49000000 cyc:   52551551 now IPC :0.90272: AVG IPC :0.91139: L2-Pf-HR :0.98934: L2-HR :0.83137: (Sim:0h44m40s) 
CPU  1 inst:   48000005 cyc:   52932277 now IPC :0.86637: AVG IPC :0.88546: L2-Pf-HR :0.98420: L2-HR :0.81931: (Sim:0h45m3s) 
CPU  2 inst:   49000000 cyc:   53191143 now IPC :0.89439: AVG IPC :0.90023: L2-Pf-HR :0.98978: L2-HR :0.82980: (Sim:0h45m15s) 
CPU  3 inst:   49000000 cyc:   53516258 now IPC :0.87857: AVG IPC :0.89466: L2-Pf-HR :0.99035: L2-HR :0.82858: (Sim:0h45m30s) 
CPU  1 inst:   49000000 cyc:   54505050 now IPC :0.63582: AVG IPC :0.87813: L2-Pf-HR :0.98384: L2-HR :0.81917: (Sim:0h46m5s) 
CPU  0 inst:   50000001 cyc:   61334508 now IPC :0.11386: AVG IPC :0.79533: L2-Pf-HR :0.98931: L2-HR :0.80530: (Sim:0h49m42s) 
CPU  2 inst:   50000001 cyc:   64209955 now IPC :0.09075: AVG IPC :0.75916: L2-Pf-HR :0.98978: L2-HR :0.80360: (Sim:0h51m27s) 
CPU  3 inst:   50000001 cyc:   66124812 now IPC :0.07931: AVG IPC :0.73685: L2-Pf-HR :0.99035: L2-HR :0.80247: (Sim:0h52m38s) 
CPU  1 inst:   50000000 cyc:   68255259 now IPC :0.07273: AVG IPC :0.71351: L2-Pf-HR :0.98384: L2-HR :0.79399: (Sim:0h53m58s) 
CPU  0 inst:   51000001 cyc:   83002175 now IPC :0.04615: AVG IPC :0.59741: L2-Pf-HR :0.98931: L2-HR :0.76814: (Sim:1h3m43s) 
CPU  2 inst:   51000001 cyc:   86002813 now IPC :0.04589: AVG IPC :0.57633: L2-Pf-HR :0.98978: L2-HR :0.76630: (Sim:1h5m49s) 
Caught signal: 2
     > Finished combination: TraceType=770-tot Sim:120000000 Prefetcher=L2isb_ideal L1=isb_ideal
