TRACE: [83000000][Pythia-70M]_[h8][s512][d64] Warmup: 2000000 NumTraces: 83000000
L1:no:L2:spp_berti_src
Initialize SIGNATURE TABLE
ST_SET: 1
ST_WAY: 256
ST_TAG_BIT: 16
ST_TAG_MASK: ffff

Initialize PATTERN TABLE
PT_SET: 512
PT_WAY: 4
SIG_DELTA_BIT: 7
C_SIG_BIT: 4
C_DELTA_BIT: 4

Initialize PREFETCH FILTER
FILTER_SET: 1024
*************************************************
   ChampSim Multicore Out-of-Order Simulator
   Last compiled: Oct 29 2024 16:52:19
*************************************************

trace_0 770-tot_memTraces_v3_rexz/memTraces[83000000][Pythia-70M]_[h8][s512][d64].champsim.9.xz
trace_1 770-tot_memTraces_v3_rexz/memTraces[83000000][Pythia-70M]_[h8][s512][d64].champsim.9.xz
trace_2 770-tot_memTraces_v3_rexz/memTraces[83000000][Pythia-70M]_[h8][s512][d64].champsim.9.xz
trace_3 770-tot_memTraces_v3_rexz/memTraces[83000000][Pythia-70M]_[h8][s512][d64].champsim.9.xz
ST_WAYS: 256
PT_SETS: 512
ST_WAYS: 256
PT_SETS: 512
ST_WAYS: 256
PT_SETS: 512
ST_WAYS: 256
PT_SETS: 512
MAIN.cc ln 751 stats print skipped
CPU  3 inst:    1000003 cyc:     499890 now IPC :2.00045: AVG IPC :2.00045: L2-Pf-HR :0.96522: L2-HR :0.86397: (Sim:0h0m46s) 
CPU  1 inst:    1000003 cyc:     500263 now IPC :1.99895: AVG IPC :1.99895: L2-Pf-HR :0.96594: L2-HR :0.87064: (Sim:0h0m46s) 
CPU  2 inst:    1000003 cyc:     500283 now IPC :1.99887: AVG IPC :1.99887: L2-Pf-HR :0.96910: L2-HR :0.86469: (Sim:0h0m46s) 
CPU  0 inst:    1000003 cyc:     500358 now IPC :1.99857: AVG IPC :1.99857: L2-Pf-HR :0.97213: L2-HR :0.87279: (Sim:0h0m46s) 
CPU  3 inst:    2000001 cyc:     982641 now IPC :2.07146: AVG IPC :2.03533: L2-Pf-HR :0.96411: L2-HR :0.89009: (Sim:0h1m36s) 
CPU  2 inst:    2000001 cyc:     983000 now IPC :2.07160: AVG IPC :2.03459: L2-Pf-HR :0.96712: L2-HR :0.89081: (Sim:0h1m36s) 
CPU  1 inst:    2000001 cyc:     983059 now IPC :2.07126: AVG IPC :2.03447: L2-Pf-HR :0.96580: L2-HR :0.89967: (Sim:0h1m36s) 
CPU  0 inst:    2000001 cyc:     983221 now IPC :2.07098: AVG IPC :2.03413: L2-Pf-HR :0.97321: L2-HR :0.90214: (Sim:0h1m36s) 

Warmup complete CPU  0 instructions:    2000001 cycles:     983221 (Simulation time: 0 hr 1 min 36 sec) 
Warmup complete CPU  1 instructions:    2000282 cycles:     983220 (Simulation time: 0 hr 1 min 36 sec) 
Warmup complete CPU  2 instructions:    2000408 cycles:     983220 (Simulation time: 0 hr 1 min 36 sec) 
Warmup complete CPU  3 instructions:    2001154 cycles:     983220 (Simulation time: 0 hr 1 min 36 sec) 

CPU  3 inst:    3000001 cyc:    1701805 now IPC :1.39050: AVG IPC :1.39002: L2-Pf-HR :0.97375: L2-HR :0.91386: (Sim:0h2m23s) 
CPU  1 inst:    3000004 cyc:    1702521 now IPC :1.38993: AVG IPC :1.38985: L2-Pf-HR :0.97483: L2-HR :0.92877: (Sim:0h2m24s) 
CPU  2 inst:    3000004 cyc:    1705227 now IPC :1.38461: AVG IPC :1.38447: L2-Pf-HR :0.97372: L2-HR :0.91427: (Sim:0h2m24s) 
CPU  0 inst:    3000004 cyc:    1705257 now IPC :1.38498: AVG IPC :1.38498: L2-Pf-HR :0.97589: L2-HR :0.93265: (Sim:0h2m24s) 
CPU  0 inst:    4000005 cyc:    2278371 now IPC :1.74486: AVG IPC :1.54423: L2-Pf-HR :0.98233: L2-HR :0.92101: (Sim:0h3m9s) 
CPU  2 inst:    4000005 cyc:    2278422 now IPC :1.74461: AVG IPC :1.54385: L2-Pf-HR :0.98093: L2-HR :0.90750: (Sim:0h3m9s) 
CPU  1 inst:    4000005 cyc:    2278771 now IPC :1.73536: AVG IPC :1.54353: L2-Pf-HR :0.98118: L2-HR :0.91620: (Sim:0h3m9s) 
CPU  3 inst:    4000005 cyc:    2278950 now IPC :1.73267: AVG IPC :1.54264: L2-Pf-HR :0.97891: L2-HR :0.90177: (Sim:0h3m9s) 
CPU  0 inst:    5000000 cyc:    2997453 now IPC :1.39066: AVG IPC :1.48940: L2-Pf-HR :0.98953: L2-HR :0.92744: (Sim:0h3m57s) 
CPU  2 inst:    5000000 cyc:    3002395 now IPC :1.38126: AVG IPC :1.48555: L2-Pf-HR :0.98901: L2-HR :0.91974: (Sim:0h3m57s) 
CPU  1 inst:    5000000 cyc:    3002936 now IPC :1.38089: AVG IPC :1.48522: L2-Pf-HR :0.98885: L2-HR :0.92296: (Sim:0h3m57s) 
CPU  3 inst:    5000000 cyc:    3003089 now IPC :1.38094: AVG IPC :1.48467: L2-Pf-HR :0.98754: L2-HR :0.91385: (Sim:0h3m57s) 
CPU  0 inst:    6000004 cyc:    3759647 now IPC :1.31201: AVG IPC :1.44070: L2-Pf-HR :0.99291: L2-HR :0.93661: (Sim:0h4m44s) 
CPU  3 inst:    6000004 cyc:    3765552 now IPC :1.31154: AVG IPC :1.43723: L2-Pf-HR :0.99167: L2-HR :0.92659: (Sim:0h4m45s) 
CPU  1 inst:    6000004 cyc:    3765856 now IPC :1.31076: AVG IPC :1.43739: L2-Pf-HR :0.99241: L2-HR :0.93272: (Sim:0h4m45s) 
CPU  2 inst:    6000004 cyc:    3766464 now IPC :1.30879: AVG IPC :1.43703: L2-Pf-HR :0.99274: L2-HR :0.93226: (Sim:0h4m45s) 
CPU  0 inst:    7000002 cyc:    4532670 now IPC :1.29362: AVG IPC :1.40867: L2-Pf-HR :0.99431: L2-HR :0.94043: (Sim:0h5m22s) 
CPU  3 inst:    7000002 cyc:    4533204 now IPC :1.30267: AVG IPC :1.40813: L2-Pf-HR :0.99348: L2-HR :0.93231: (Sim:0h5m22s) 
CPU  2 inst:    7000002 cyc:    4534146 now IPC :1.30262: AVG IPC :1.40797: L2-Pf-HR :0.99448: L2-HR :0.93811: (Sim:0h5m22s) 
CPU  1 inst:    7000005 cyc:    4537373 now IPC :1.29615: AVG IPC :1.40673: L2-Pf-HR :0.99409: L2-HR :0.93745: (Sim:0h5m22s) 
CPU  2 inst:    8000001 cyc:    5276012 now IPC :1.34795: AVG IPC :1.39760: L2-Pf-HR :0.99463: L2-HR :0.93598: (Sim:0h5m58s) 
CPU  0 inst:    8000001 cyc:    5279403 now IPC :1.33917: AVG IPC :1.39659: L2-Pf-HR :0.99440: L2-HR :0.93757: (Sim:0h5m58s) 
CPU  1 inst:    8000001 cyc:    5282008 now IPC :1.34293: AVG IPC :1.39568: L2-Pf-HR :0.99429: L2-HR :0.93508: (Sim:0h5m58s) 
CPU  3 inst:    8000001 cyc:    5284026 now IPC :1.33187: AVG IPC :1.39482: L2-Pf-HR :0.99356: L2-HR :0.92998: (Sim:0h5m58s) 
CPU  3 inst:    9000004 cyc:    6336899 now IPC :0.94978: AVG IPC :1.30730: L2-Pf-HR :0.99424: L2-HR :0.92962: (Sim:0h6m50s) 
CPU  0 inst:    9000004 cyc:    6341523 now IPC :0.94152: AVG IPC :1.30638: L2-Pf-HR :0.99499: L2-HR :0.93603: (Sim:0h6m50s) 
CPU  2 inst:    9000004 cyc:    6356595 now IPC :0.92543: AVG IPC :1.30264: L2-Pf-HR :0.99519: L2-HR :0.93514: (Sim:0h6m51s) 
CPU  1 inst:    9000004 cyc:    6359247 now IPC :0.92830: AVG IPC :1.30203: L2-Pf-HR :0.99492: L2-HR :0.93423: (Sim:0h6m51s) 
CPU  3 inst:   10000002 cyc:    7405750 now IPC :0.93558: AVG IPC :1.24544: L2-Pf-HR :0.99504: L2-HR :0.93391: (Sim:0h7m34s) 
CPU  1 inst:   10000002 cyc:    7420678 now IPC :0.94212: AVG IPC :1.24268: L2-Pf-HR :0.99563: L2-HR :0.93762: (Sim:0h7m35s) 
CPU  0 inst:   10000002 cyc:    7420988 now IPC :0.92638: AVG IPC :1.24267: L2-Pf-HR :0.99566: L2-HR :0.93882: (Sim:0h7m35s) 
CPU  2 inst:   10000002 cyc:    7431185 now IPC :0.93059: AVG IPC :1.24064: L2-Pf-HR :0.99587: L2-HR :0.93872: (Sim:0h7m36s) 
CPU  2 inst:   11000003 cyc:    8285218 now IPC :1.17092: AVG IPC :1.23248: L2-Pf-HR :0.99634: L2-HR :0.94109: (Sim:0h8m24s) 
CPU  0 inst:   11000003 cyc:    8292737 now IPC :1.14712: AVG IPC :1.23127: L2-Pf-HR :0.99610: L2-HR :0.94067: (Sim:0h8m25s) 
CPU  1 inst:   11000003 cyc:    8293436 now IPC :1.14579: AVG IPC :1.23112: L2-Pf-HR :0.99608: L2-HR :0.93989: (Sim:0h8m25s) 
CPU  3 inst:   11000003 cyc:    8293589 now IPC :1.12633: AVG IPC :1.23097: L2-Pf-HR :0.99555: L2-HR :0.93668: (Sim:0h8m25s) 
CPU  0 inst:   12000005 cyc:    9344089 now IPC :0.95116: AVG IPC :1.19605: L2-Pf-HR :0.99591: L2-HR :0.93947: (Sim:0h9m17s) 
CPU  1 inst:   12000005 cyc:    9377293 now IPC :0.92263: AVG IPC :1.19128: L2-Pf-HR :0.99582: L2-HR :0.93898: (Sim:0h9m18s) 
CPU  3 inst:   12000005 cyc:    9377927 now IPC :0.92222: AVG IPC :1.19109: L2-Pf-HR :0.99529: L2-HR :0.93577: (Sim:0h9m18s) 
CPU  2 inst:   12000005 cyc:    9378562 now IPC :0.91463: AVG IPC :1.19109: L2-Pf-HR :0.99611: L2-HR :0.94016: (Sim:0h9m18s) 
CPU  0 inst:   13000002 cyc:   10810353 now IPC :0.68200: AVG IPC :1.11935: L2-Pf-HR :0.99598: L2-HR :0.93788: (Sim:0h10m17s) 
CPU  1 inst:   13000002 cyc:   10821323 now IPC :0.69250: AVG IPC :1.11807: L2-Pf-HR :0.99589: L2-HR :0.93750: (Sim:0h10m17s) 
CPU  3 inst:   13000002 cyc:   10831801 now IPC :0.68782: AVG IPC :1.11680: L2-Pf-HR :0.99540: L2-HR :0.93435: (Sim:0h10m18s) 
CPU  2 inst:   13000002 cyc:   10844413 now IPC :0.68220: AVG IPC :1.11544: L2-Pf-HR :0.99622: L2-HR :0.93870: (Sim:0h10m18s) 
CPU  1 inst:   14000000 cyc:   12158753 now IPC :0.74770: AVG IPC :1.07375: L2-Pf-HR :0.99625: L2-HR :0.93950: (Sim:0h11m13s) 
CPU  0 inst:   14000005 cyc:   12218381 now IPC :0.71022: AVG IPC :1.06808: L2-Pf-HR :0.99629: L2-HR :0.93954: (Sim:0h11m16s) 
CPU  3 inst:   14000003 cyc:   12237347 now IPC :0.71147: AVG IPC :1.06617: L2-Pf-HR :0.99576: L2-HR :0.93638: (Sim:0h11m17s) 
CPU  2 inst:   14000001 cyc:   12261738 now IPC :0.70555: AVG IPC :1.06393: L2-Pf-HR :0.99655: L2-HR :0.94059: (Sim:0h11m18s) 
CPU  1 inst:   15000002 cyc:   13166216 now IPC :0.99259: AVG IPC :1.06704: L2-Pf-HR :0.99652: L2-HR :0.94133: (Sim:0h12m3s) 
CPU  0 inst:   15000002 cyc:   13314667 now IPC :0.91217: AVG IPC :1.05422: L2-Pf-HR :0.99651: L2-HR :0.94104: (Sim:0h12m11s) 
CPU  3 inst:   15000002 cyc:   13325634 now IPC :0.91887: AVG IPC :1.05319: L2-Pf-HR :0.99599: L2-HR :0.93815: (Sim:0h12m12s) 
CPU  2 inst:   15000003 cyc:   13325836 now IPC :0.93976: AVG IPC :1.05323: L2-Pf-HR :0.99679: L2-HR :0.94235: (Sim:0h12m12s) 
CPU  1 inst:   16000000 cyc:   14115779 now IPC :1.05311: AVG IPC :1.06603: L2-Pf-HR :0.99642: L2-HR :0.94082: (Sim:0h12m52s) 
CPU  0 inst:   16000000 cyc:   14354544 now IPC :0.96165: AVG IPC :1.04702: L2-Pf-HR :0.99641: L2-HR :0.94022: (Sim:0h13m1s) 
CPU  2 inst:   16000000 cyc:   14355625 now IPC :0.97107: AVG IPC :1.04690: L2-Pf-HR :0.99674: L2-HR :0.94186: (Sim:0h13m1s) 
CPU  3 inst:   16000000 cyc:   14365877 now IPC :0.96131: AVG IPC :1.04604: L2-Pf-HR :0.99578: L2-HR :0.93722: (Sim:0h13m2s) 
CPU  1 inst:   17000000 cyc:   15433155 now IPC :0.75908: AVG IPC :1.03805: L2-Pf-HR :0.99632: L2-HR :0.93915: (Sim:0h13m38s) 
CPU  3 inst:   17000000 cyc:   15734298 now IPC :0.73077: AVG IPC :1.01680: L2-Pf-HR :0.99568: L2-HR :0.93567: (Sim:0h13m52s) 
CPU  0 inst:   17000000 cyc:   15772133 now IPC :0.70542: AVG IPC :1.01427: L2-Pf-HR :0.99634: L2-HR :0.93876: (Sim:0h13m54s) 
CPU  2 inst:   17000000 cyc:   15778145 now IPC :0.70298: AVG IPC :1.01383: L2-Pf-HR :0.99663: L2-HR :0.94034: (Sim:0h13m54s) 
CPU  1 inst:   18000000 cyc:   16311104 now IPC :1.13902: AVG IPC :1.04383: L2-Pf-HR :0.99653: L2-HR :0.94048: (Sim:0h14m18s) 
CPU  3 inst:   18000000 cyc:   16974286 now IPC :0.80646: AVG IPC :1.00049: L2-Pf-HR :0.99593: L2-HR :0.93724: (Sim:0h14m39s) 
CPU  2 inst:   18000000 cyc:   17007582 now IPC :0.81338: AVG IPC :0.99845: L2-Pf-HR :0.99683: L2-HR :0.94168: (Sim:0h14m40s) 
CPU  0 inst:   18000000 cyc:   17045986 now IPC :0.78502: AVG IPC :0.99609: L2-Pf-HR :0.99655: L2-HR :0.94032: (Sim:0h14m41s) 
CPU  1 inst:   19000001 cyc:   17589972 now IPC :0.78194: AVG IPC :1.02366: L2-Pf-HR :0.99668: L2-HR :0.94147: (Sim:0h15m2s) 
CPU  3 inst:   19000001 cyc:   18265027 now IPC :0.77475: AVG IPC :0.98363: L2-Pf-HR :0.99608: L2-HR :0.93820: (Sim:0h15m27s) 
CPU  0 inst:   19000001 cyc:   18333369 now IPC :0.77677: AVG IPC :0.97982: L2-Pf-HR :0.99672: L2-HR :0.94139: (Sim:0h15m29s) 
CPU  2 inst:   19000001 cyc:   18340113 now IPC :0.75045: AVG IPC :0.97941: L2-Pf-HR :0.99697: L2-HR :0.94254: (Sim:0h15m30s) 
CPU  1 inst:   20000000 cyc:   18555452 now IPC :1.03575: AVG IPC :1.02433: L2-Pf-HR :0.99644: L2-HR :0.94140: (Sim:0h15m36s) 
CPU  0 inst:   20000000 cyc:   19451262 now IPC :0.89454: AVG IPC :0.97466: L2-Pf-HR :0.99654: L2-HR :0.94092: (Sim:0h16m16s) 
CPU  2 inst:   20000000 cyc:   19452040 now IPC :0.89934: AVG IPC :0.97459: L2-Pf-HR :0.99682: L2-HR :0.94215: (Sim:0h16m16s) 
CPU  3 inst:   20000000 cyc:   19456051 now IPC :0.83961: AVG IPC :0.97434: L2-Pf-HR :0.99592: L2-HR :0.93783: (Sim:0h16m16s) 
CPU  1 inst:   21000002 cyc:   20025682 now IPC :0.68017: AVG IPC :0.99776: L2-Pf-HR :0.99636: L2-HR :0.93976: (Sim:0h16m43s) 
CPU  2 inst:   21000002 cyc:   20730371 now IPC :0.78227: AVG IPC :0.96214: L2-Pf-HR :0.99651: L2-HR :0.94056: (Sim:0h17m14s) 
CPU  3 inst:   21000002 cyc:   20733006 now IPC :0.78311: AVG IPC :0.96198: L2-Pf-HR :0.99558: L2-HR :0.93612: (Sim:0h17m14s) 
CPU  0 inst:   21000002 cyc:   20733564 now IPC :0.77985: AVG IPC :0.96201: L2-Pf-HR :0.99620: L2-HR :0.93925: (Sim:0h17m14s) 
CPU  1 inst:   22000004 cyc:   21186575 now IPC :0.86141: AVG IPC :0.98992: L2-Pf-HR :0.99651: L2-HR :0.94035: (Sim:0h17m35s) 
CPU  2 inst:   22000004 cyc:   21986980 now IPC :0.79579: AVG IPC :0.95219: L2-Pf-HR :0.99665: L2-HR :0.94155: (Sim:0h18m11s) 
CPU  3 inst:   22000004 cyc:   21999599 now IPC :0.78952: AVG IPC :0.95158: L2-Pf-HR :0.99578: L2-HR :0.93741: (Sim:0h18m12s) 
CPU  0 inst:   22000004 cyc:   22021407 now IPC :0.77649: AVG IPC :0.95065: L2-Pf-HR :0.99637: L2-HR :0.94042: (Sim:0h18m13s) 
CPU  1 inst:   23000002 cyc:   22372193 now IPC :0.84344: AVG IPC :0.98180: L2-Pf-HR :0.99666: L2-HR :0.94136: (Sim:0h18m28s) 
CPU  2 inst:   23000002 cyc:   23322231 now IPC :0.74892: AVG IPC :0.94004: L2-Pf-HR :0.99680: L2-HR :0.94249: (Sim:0h19m1s) 
CPU  0 inst:   23000002 cyc:   23344281 now IPC :0.75593: AVG IPC :0.93913: L2-Pf-HR :0.99654: L2-HR :0.94148: (Sim:0h19m2s) 
CPU  3 inst:   23000002 cyc:   23344938 now IPC :0.74331: AVG IPC :0.93905: L2-Pf-HR :0.99596: L2-HR :0.93852: (Sim:0h19m2s) 
CPU  1 inst:   24000003 cyc:   23501961 now IPC :0.88514: AVG IPC :0.97695: L2-Pf-HR :0.99664: L2-HR :0.94162: (Sim:0h19m7s) 
CPU  0 inst:   24000003 cyc:   24411709 now IPC :0.93683: AVG IPC :0.93903: L2-Pf-HR :0.99640: L2-HR :0.94130: (Sim:0h19m40s) 
CPU  3 inst:   24000003 cyc:   24414378 now IPC :0.93507: AVG IPC :0.93887: L2-Pf-HR :0.99578: L2-HR :0.93834: (Sim:0h19m40s) 
CPU  2 inst:   24000003 cyc:   24420770 now IPC :0.91030: AVG IPC :0.93865: L2-Pf-HR :0.99660: L2-HR :0.94211: (Sim:0h19m41s) 
CPU  1 inst:   25000000 cyc:   24776985 now IPC :0.78430: AVG IPC :0.96663: L2-Pf-HR :0.99651: L2-HR :0.94001: (Sim:0h19m57s) 
CPU  0 inst:   25000004 cyc:   25720684 now IPC :0.76396: AVG IPC :0.92976: L2-Pf-HR :0.99623: L2-HR :0.94002: (Sim:0h20m40s) 
CPU  2 inst:   25000000 cyc:   25728130 now IPC :0.76490: AVG IPC :0.92947: L2-Pf-HR :0.99646: L2-HR :0.94078: (Sim:0h20m40s) 
CPU  3 inst:   25000000 cyc:   25750486 now IPC :0.74844: AVG IPC :0.92860: L2-Pf-HR :0.99563: L2-HR :0.93696: (Sim:0h20m41s) 
CPU  1 inst:   26000002 cyc:   25971806 now IPC :0.83695: AVG IPC :0.96043: L2-Pf-HR :0.99663: L2-HR :0.94051: (Sim:0h20m52s) 
CPU  0 inst:   26000002 cyc:   27015584 now IPC :0.77226: AVG IPC :0.92193: L2-Pf-HR :0.99640: L2-HR :0.94096: (Sim:0h21m39s) 
CPU  3 inst:   26000002 cyc:   27032510 now IPC :0.78002: AVG IPC :0.92129: L2-Pf-HR :0.99584: L2-HR :0.93804: (Sim:0h21m40s) 
CPU  2 inst:   26000002 cyc:   27032661 now IPC :0.76656: AVG IPC :0.92131: L2-Pf-HR :0.99662: L2-HR :0.94167: (Sim:0h21m40s) 
CPU  1 inst:   27000000 cyc:   27201493 now IPC :0.81321: AVG IPC :0.95352: L2-Pf-HR :0.99675: L2-HR :0.94135: (Sim:0h21m48s) 
CPU  3 inst:   27000000 cyc:   28202028 now IPC :0.85505: AVG IPC :0.91844: L2-Pf-HR :0.99601: L2-HR :0.93902: (Sim:0h22m38s) 
CPU  0 inst:   27000000 cyc:   28206688 now IPC :0.83956: AVG IPC :0.91833: L2-Pf-HR :0.99655: L2-HR :0.94180: (Sim:0h22m38s) 
CPU  2 inst:   27000000 cyc:   28209222 now IPC :0.84993: AVG IPC :0.91822: L2-Pf-HR :0.99675: L2-HR :0.94246: (Sim:0h22m38s) 
CPU  1 inst:   28000003 cyc:   28257657 now IPC :0.94683: AVG IPC :0.95326: L2-Pf-HR :0.99676: L2-HR :0.94177: (Sim:0h22m40s) 
CPU  1 inst:   29000002 cyc:   29385904 now IPC :0.88633: AVG IPC :0.95060: L2-Pf-HR :0.99648: L2-HR :0.94030: (Sim:0h23m38s) 
CPU  0 inst:   28000002 cyc:   29407978 now IPC :0.83244: AVG IPC :0.91470: L2-Pf-HR :0.99645: L2-HR :0.94188: (Sim:0h23m39s) 
CPU  2 inst:   28000004 cyc:   29410123 now IPC :0.83271: AVG IPC :0.91461: L2-Pf-HR :0.99662: L2-HR :0.94239: (Sim:0h23m39s) 
CPU  3 inst:   28000004 cyc:   29416592 now IPC :0.82334: AVG IPC :0.91438: L2-Pf-HR :0.99590: L2-HR :0.93911: (Sim:0h23m39s) 
CPU  1 inst:   30000000 cyc:   30342837 now IPC :1.04500: AVG IPC :0.95368: L2-Pf-HR :0.99659: L2-HR :0.94084: (Sim:0h24m29s) 
CPU  3 inst:   29000002 cyc:   30688167 now IPC :0.78642: AVG IPC :0.90890: L2-Pf-HR :0.99592: L2-HR :0.93798: (Sim:0h24m42s) 
CPU  0 inst:   29000002 cyc:   30703407 now IPC :0.77195: AVG IPC :0.90847: L2-Pf-HR :0.99643: L2-HR :0.94058: (Sim:0h24m42s) 
CPU  2 inst:   29000002 cyc:   30704023 now IPC :0.77286: AVG IPC :0.90844: L2-Pf-HR :0.99663: L2-HR :0.94115: (Sim:0h24m42s) 
CPU  1 inst:   31000004 cyc:   31513983 now IPC :0.85387: AVG IPC :0.94985: L2-Pf-HR :0.99670: L2-HR :0.94140: (Sim:0h25m20s) 
CPU  3 inst:   30000000 cyc:   31937631 now IPC :0.80034: AVG IPC :0.90452: L2-Pf-HR :0.99607: L2-HR :0.93871: (Sim:0h25m40s) 
CPU  2 inst:   30000000 cyc:   32023105 now IPC :0.75810: AVG IPC :0.90205: L2-Pf-HR :0.99674: L2-HR :0.94165: (Sim:0h25m45s) 
CPU  0 inst:   30000000 cyc:   32033040 now IPC :0.75209: AVG IPC :0.90178: L2-Pf-HR :0.99656: L2-HR :0.94127: (Sim:0h25m45s) 
CPU  1 inst:   32000002 cyc:   32630410 now IPC :0.89571: AVG IPC :0.94794: L2-Pf-HR :0.99673: L2-HR :0.94194: (Sim:0h26m13s) 
CPU  0 inst:   31000004 cyc:   33224352 now IPC :0.83941: AVG IPC :0.89947: L2-Pf-HR :0.99651: L2-HR :0.94156: (Sim:0h26m44s) 
CPU  2 inst:   31000004 cyc:   33229267 now IPC :0.82908: AVG IPC :0.89932: L2-Pf-HR :0.99670: L2-HR :0.94180: (Sim:0h26m45s) 
CPU  3 inst:   31000004 cyc:   33249525 now IPC :0.76226: AVG IPC :0.89873: L2-Pf-HR :0.99606: L2-HR :0.93906: (Sim:0h26m45s) 
CPU  1 inst:   33000000 cyc:   33907615 now IPC :0.78296: AVG IPC :0.94154: L2-Pf-HR :0.99650: L2-HR :0.94060: (Sim:0h27m16s) 
CPU  3 inst:   32000002 cyc:   34525484 now IPC :0.78372: AVG IPC :0.89436: L2-Pf-HR :0.99609: L2-HR :0.93951: (Sim:0h27m39s) 
CPU  0 inst:   32000002 cyc:   34546399 now IPC :0.75640: AVG IPC :0.89384: L2-Pf-HR :0.99655: L2-HR :0.94202: (Sim:0h27m39s) 
CPU  2 inst:   32000002 cyc:   34553142 now IPC :0.75536: AVG IPC :0.89365: L2-Pf-HR :0.99673: L2-HR :0.94207: (Sim:0h27m39s) 
CPU  0 inst:   33000000 cyc:   36312464 now IPC :0.56623: AVG IPC :0.87746: L2-Pf-HR :0.99608: L2-HR :0.94062: (Sim:0h28m41s) 
CPU  2 inst:   33000000 cyc:   36349168 now IPC :0.55678: AVG IPC :0.87654: L2-Pf-HR :0.99627: L2-HR :0.94078: (Sim:0h28m42s) 
CPU  3 inst:   33000000 cyc:   36381846 now IPC :0.53869: AVG IPC :0.87571: L2-Pf-HR :0.99563: L2-HR :0.93808: (Sim:0h28m42s) 
CPU  1 inst:   34000003 cyc:   51537611 now IPC :0.05672: AVG IPC :0.63298: L2-Pf-HR :0.99586: L2-HR :0.90926: (Sim:0h36m39s) 
CPU  0 inst:   34000003 cyc:   56775156 now IPC :0.04887: AVG IPC :0.57356: L2-Pf-HR :0.99550: L2-HR :0.90913: (Sim:0h39m23s) 
CPU  3 inst:   34000000 cyc:   57289583 now IPC :0.04783: AVG IPC :0.56830: L2-Pf-HR :0.99503: L2-HR :0.90662: (Sim:0h39m39s) 
CPU  2 inst:   34000003 cyc:   57383230 now IPC :0.04754: AVG IPC :0.56737: L2-Pf-HR :0.99567: L2-HR :0.90929: (Sim:0h39m41s) 
CPU  1 inst:   35000002 cyc:   61467277 now IPC :0.10071: AVG IPC :0.54559: L2-Pf-HR :0.99467: L2-HR :0.89973: (Sim:0h41m41s) 
CPU  0 inst:   35000002 cyc:   64204030 now IPC :0.13461: AVG IPC :0.52198: L2-Pf-HR :0.99427: L2-HR :0.89958: (Sim:0h42m59s) 
CPU  3 inst:   35000002 cyc:   64516473 now IPC :0.13837: AVG IPC :0.51939: L2-Pf-HR :0.99378: L2-HR :0.89708: (Sim:0h43m5s) 
CPU  2 inst:   35000002 cyc:   64534946 now IPC :0.13983: AVG IPC :0.51926: L2-Pf-HR :0.99444: L2-HR :0.89973: (Sim:0h43m6s) 
CPU  1 inst:   36000001 cyc:   65412566 now IPC :0.25347: AVG IPC :0.52771: L2-Pf-HR :0.99321: L2-HR :0.89547: (Sim:0h43m31s) 
CPU  0 inst:   36000001 cyc:   68121376 now IPC :0.25527: AVG IPC :0.50642: L2-Pf-HR :0.99282: L2-HR :0.89529: (Sim:0h44m48s) 
CPU  3 inst:   36000001 cyc:   68431434 now IPC :0.25543: AVG IPC :0.50407: L2-Pf-HR :0.99232: L2-HR :0.89279: (Sim:0h44m57s) 
CPU  2 inst:   36000001 cyc:   68450881 now IPC :0.25537: AVG IPC :0.50394: L2-Pf-HR :0.99299: L2-HR :0.89544: (Sim:0h44m57s) 
CPU  1 inst:   37000001 cyc:   69326382 now IPC :0.25551: AVG IPC :0.51212: L2-Pf-HR :0.99176: L2-HR :0.89127: (Sim:0h45m22s) 
CPU  0 inst:   37000001 cyc:   72000022 now IPC :0.25782: AVG IPC :0.49284: L2-Pf-HR :0.99138: L2-HR :0.89108: (Sim:0h46m38s) 
CPU  3 inst:   37000001 cyc:   72307968 now IPC :0.25796: AVG IPC :0.49070: L2-Pf-HR :0.99087: L2-HR :0.88858: (Sim:0h46m47s) 
CPU  2 inst:   37000001 cyc:   72327361 now IPC :0.25797: AVG IPC :0.49057: L2-Pf-HR :0.99155: L2-HR :0.89123: (Sim:0h46m47s) 
CPU  1 inst:   38000000 cyc:   73194256 now IPC :0.25854: AVG IPC :0.49853: L2-Pf-HR :0.99031: L2-HR :0.88715: (Sim:0h47m12s) 
CPU  0 inst:   38000000 cyc:   75851569 now IPC :0.25964: AVG IPC :0.48084: L2-Pf-HR :0.98993: L2-HR :0.88694: (Sim:0h48m27s) 
CPU  3 inst:   38000000 cyc:   76147501 now IPC :0.26045: AVG IPC :0.47894: L2-Pf-HR :0.98942: L2-HR :0.88444: (Sim:0h48m35s) 
CPU  2 inst:   38000000 cyc:   76168326 now IPC :0.26035: AVG IPC :0.47881: L2-Pf-HR :0.99009: L2-HR :0.88709: (Sim:0h48m36s) 
CPU  1 inst:   39000000 cyc:   77030111 now IPC :0.26070: AVG IPC :0.48654: L2-Pf-HR :0.98884: L2-HR :0.88309: (Sim:0h49m0s) 
CPU  0 inst:   39000000 cyc:   79679800 now IPC :0.26122: AVG IPC :0.47016: L2-Pf-HR :0.98847: L2-HR :0.88288: (Sim:0h50m15s) 
CPU  3 inst:   39000000 cyc:   79976290 now IPC :0.26118: AVG IPC :0.46838: L2-Pf-HR :0.98798: L2-HR :0.88037: (Sim:0h50m23s) 
CPU  2 inst:   39000000 cyc:   79999675 now IPC :0.26100: AVG IPC :0.46825: L2-Pf-HR :0.98864: L2-HR :0.88302: (Sim:0h50m24s) 
CPU  1 inst:   40000003 cyc:   80861051 now IPC :0.26103: AVG IPC :0.47572: L2-Pf-HR :0.98739: L2-HR :0.87911: (Sim:0h50m48s) 
CPU  0 inst:   40000003 cyc:   83514293 now IPC :0.26079: AVG IPC :0.46043: L2-Pf-HR :0.98703: L2-HR :0.87887: (Sim:0h52m4s) 
CPU  3 inst:   40000003 cyc:   83814482 now IPC :0.26054: AVG IPC :0.45875: L2-Pf-HR :0.98653: L2-HR :0.87638: (Sim:0h52m12s) 
CPU  2 inst:   40000003 cyc:   83834293 now IPC :0.26078: AVG IPC :0.45865: L2-Pf-HR :0.98719: L2-HR :0.87902: (Sim:0h52m13s) 
CPU  1 inst:   41000001 cyc:   84698217 now IPC :0.26061: AVG IPC :0.46586: L2-Pf-HR :0.98592: L2-HR :0.87519: (Sim:0h52m37s) 
CPU  0 inst:   41000001 cyc:   87346373 now IPC :0.26095: AVG IPC :0.45158: L2-Pf-HR :0.98559: L2-HR :0.87494: (Sim:0h53m53s) 
CPU  3 inst:   41000001 cyc:   87640549 now IPC :0.26136: AVG IPC :0.45004: L2-Pf-HR :0.98510: L2-HR :0.87244: (Sim:0h54m1s) 
CPU  2 inst:   41000001 cyc:   87664905 now IPC :0.26105: AVG IPC :0.44992: L2-Pf-HR :0.98575: L2-HR :0.87508: (Sim:0h54m2s) 
CPU  1 inst:   42000001 cyc:   88522362 now IPC :0.26150: AVG IPC :0.45694: L2-Pf-HR :0.98447: L2-HR :0.87134: (Sim:0h54m26s) 
CPU  0 inst:   42000001 cyc:   91171769 now IPC :0.26141: AVG IPC :0.44352: L2-Pf-HR :0.98416: L2-HR :0.87107: (Sim:0h55m41s) 
CPU  3 inst:   42000001 cyc:   91468535 now IPC :0.26123: AVG IPC :0.44205: L2-Pf-HR :0.98367: L2-HR :0.86857: (Sim:0h55m50s) 
CPU  2 inst:   42000001 cyc:   91491495 now IPC :0.26133: AVG IPC :0.44194: L2-Pf-HR :0.98430: L2-HR :0.87121: (Sim:0h55m51s) 
CPU  1 inst:   43000005 cyc:   92349594 now IPC :0.26129: AVG IPC :0.44874: L2-Pf-HR :0.98302: L2-HR :0.86755: (Sim:0h56m15s) 
CPU  0 inst:   43000005 cyc:   95002173 now IPC :0.26107: AVG IPC :0.43608: L2-Pf-HR :0.98271: L2-HR :0.86727: (Sim:0h57m30s) 
CPU  3 inst:   43000005 cyc:   95298692 now IPC :0.26109: AVG IPC :0.43470: L2-Pf-HR :0.98225: L2-HR :0.86477: (Sim:0h57m39s) 
CPU  2 inst:   43000005 cyc:   95321160 now IPC :0.26112: AVG IPC :0.43460: L2-Pf-HR :0.98285: L2-HR :0.86740: (Sim:0h57m39s) 
CPU  1 inst:   44000001 cyc:   96182320 now IPC :0.26091: AVG IPC :0.44118: L2-Pf-HR :0.98159: L2-HR :0.86382: (Sim:0h58m4s) 
CPU  0 inst:   44000001 cyc:   98833812 now IPC :0.26098: AVG IPC :0.42923: L2-Pf-HR :0.98127: L2-HR :0.86352: (Sim:0h59m19s) 
CPU  3 inst:   44000001 cyc:   99130570 now IPC :0.26097: AVG IPC :0.42792: L2-Pf-HR :0.98083: L2-HR :0.86103: (Sim:0h59m27s) 
CPU  2 inst:   44000001 cyc:   99154798 now IPC :0.26085: AVG IPC :0.42782: L2-Pf-HR :0.98142: L2-HR :0.86366: (Sim:0h59m28s) 
CPU  1 inst:   45000001 cyc:  100013719 now IPC :0.26100: AVG IPC :0.43421: L2-Pf-HR :0.98015: L2-HR :0.86015: (Sim:0h59m52s) 
CPU  0 inst:   45000001 cyc:  102658254 now IPC :0.26148: AVG IPC :0.42292: L2-Pf-HR :0.97983: L2-HR :0.85984: (Sim:1h1m7s) 
CPU  3 inst:   45000001 cyc:  102956573 now IPC :0.26137: AVG IPC :0.42167: L2-Pf-HR :0.97936: L2-HR :0.85735: (Sim:1h1m16s) 
CPU  2 inst:   45000001 cyc:  102977286 now IPC :0.26161: AVG IPC :0.42159: L2-Pf-HR :0.98000: L2-HR :0.85997: (Sim:1h1m17s) 
CPU  1 inst:   46000000 cyc:  103843726 now IPC :0.26110: AVG IPC :0.42776: L2-Pf-HR :0.97871: L2-HR :0.85654: (Sim:1h1m41s) 
CPU  0 inst:   46000000 cyc:  106502722 now IPC :0.26011: AVG IPC :0.41698: L2-Pf-HR :0.97841: L2-HR :0.85622: (Sim:1h2m57s) 
CPU  3 inst:   46000000 cyc:  106799786 now IPC :0.26020: AVG IPC :0.41580: L2-Pf-HR :0.97795: L2-HR :0.85373: (Sim:1h3m5s) 
CPU  2 inst:   46000000 cyc:  106820856 now IPC :0.26017: AVG IPC :0.41573: L2-Pf-HR :0.97859: L2-HR :0.85635: (Sim:1h3m6s) 
CPU  1 inst:   47000000 cyc:  107685710 now IPC :0.26028: AVG IPC :0.42173: L2-Pf-HR :0.97729: L2-HR :0.85299: (Sim:1h3m28s) 
CPU  0 inst:   47000000 cyc:  110335700 now IPC :0.26089: AVG IPC :0.41151: L2-Pf-HR :0.97699: L2-HR :0.85265: (Sim:1h4m15s) 
CPU  3 inst:   47000000 cyc:  110639510 now IPC :0.26044: AVG IPC :0.41036: L2-Pf-HR :0.97652: L2-HR :0.85017: (Sim:1h4m20s) 
CPU  2 inst:   47000000 cyc:  110656479 now IPC :0.26071: AVG IPC :0.41031: L2-Pf-HR :0.97719: L2-HR :0.85278: (Sim:1h4m21s) 
CPU  1 inst:   48000000 cyc:  111520568 now IPC :0.26077: AVG IPC :0.41615: L2-Pf-HR :0.97589: L2-HR :0.84949: (Sim:1h4m36s) 
CPU  0 inst:   48000000 cyc:  114179103 now IPC :0.26019: AVG IPC :0.40638: L2-Pf-HR :0.97559: L2-HR :0.84914: (Sim:1h5m24s) 
CPU  3 inst:   48000000 cyc:  114475594 now IPC :0.26068: AVG IPC :0.40530: L2-Pf-HR :0.97511: L2-HR :0.84666: (Sim:1h5m29s) 
CPU  2 inst:   48000000 cyc:  114499196 now IPC :0.26023: AVG IPC :0.40523: L2-Pf-HR :0.97582: L2-HR :0.84927: (Sim:1h5m29s) 
CPU  1 inst:   49000000 cyc:  115361894 now IPC :0.26033: AVG IPC :0.41091: L2-Pf-HR :0.97450: L2-HR :0.84604: (Sim:1h5m45s) 
CPU  0 inst:   49000000 cyc:  118025254 now IPC :0.26000: AVG IPC :0.40157: L2-Pf-HR :0.97422: L2-HR :0.84569: (Sim:1h6m46s) 
CPU  3 inst:   49000000 cyc:  118319849 now IPC :0.26013: AVG IPC :0.40055: L2-Pf-HR :0.97370: L2-HR :0.84321: (Sim:1h6m54s) 
CPU  2 inst:   49000000 cyc:  118347304 now IPC :0.25987: AVG IPC :0.40046: L2-Pf-HR :0.97441: L2-HR :0.84581: (Sim:1h6m55s) 
CPU  1 inst:   50000003 cyc:  119199747 now IPC :0.26056: AVG IPC :0.40603: L2-Pf-HR :0.97314: L2-HR :0.84265: (Sim:1h7m19s) 
CPU  1 inst:   51000001 cyc:  121209147 now IPC :0.49766: AVG IPC :0.40756: L2-Pf-HR :0.97289: L2-HR :0.84427: (Sim:1h8m20s) 
CPU  1 inst:   52000003 cyc:  121934091 now IPC :1.37942: AVG IPC :0.41339: L2-Pf-HR :0.97341: L2-HR :0.84916: (Sim:1h8m50s) 
CPU  0 inst:   50000003 cyc:  121993404 now IPC :0.25201: AVG IPC :0.39666: L2-Pf-HR :0.97284: L2-HR :0.84228: (Sim:1h8m52s) 
CPU  3 inst:   50000003 cyc:  122290154 now IPC :0.25187: AVG IPC :0.39568: L2-Pf-HR :0.97225: L2-HR :0.83982: (Sim:1h9m4s) 
CPU  2 inst:   50000003 cyc:  122326748 now IPC :0.25129: AVG IPC :0.39557: L2-Pf-HR :0.97297: L2-HR :0.84241: (Sim:1h9m5s) 
CPU  1 inst:   53000000 cyc:  122607932 now IPC :1.48403: AVG IPC :0.41932: L2-Pf-HR :0.97397: L2-HR :0.85362: (Sim:1h9m18s) 
CPU  1 inst:   54000001 cyc:  123233917 now IPC :1.59748: AVG IPC :0.42535: L2-Pf-HR :0.97466: L2-HR :0.85798: (Sim:1h9m44s) 
CPU  1 inst:   55000004 cyc:  124258512 now IPC :0.97600: AVG IPC :0.42993: L2-Pf-HR :0.97519: L2-HR :0.86182: (Sim:1h10m7s) 
CPU  0 inst:   51000001 cyc:  124310108 now IPC :0.43165: AVG IPC :0.39732: L2-Pf-HR :0.97283: L2-HR :0.84411: (Sim:1h10m9s) 
CPU  3 inst:   51000001 cyc:  124726819 now IPC :0.41040: AVG IPC :0.39597: L2-Pf-HR :0.97228: L2-HR :0.84182: (Sim:1h10m34s) 
CPU  2 inst:   51000001 cyc:  124859912 now IPC :0.39476: AVG IPC :0.39555: L2-Pf-HR :0.97301: L2-HR :0.84434: (Sim:1h10m42s) 
CPU  1 inst:   56000004 cyc:  125151993 now IPC :1.11922: AVG IPC :0.43489: L2-Pf-HR :0.97582: L2-HR :0.86570: (Sim:1h11m2s) 
CPU  0 inst:   52000003 cyc:  125259861 now IPC :1.05291: AVG IPC :0.40233: L2-Pf-HR :0.97363: L2-HR :0.84940: (Sim:1h11m9s) 
CPU  3 inst:   52000003 cyc:  125705471 now IPC :1.02182: AVG IPC :0.40088: L2-Pf-HR :0.97312: L2-HR :0.84724: (Sim:1h11m38s) 
CPU  2 inst:   52000003 cyc:  125739292 now IPC :1.13717: AVG IPC :0.40078: L2-Pf-HR :0.97383: L2-HR :0.84959: (Sim:1h11m40s) 
CPU  1 inst:   57000004 cyc:  126082099 now IPC :1.07515: AVG IPC :0.43965: L2-Pf-HR :0.97636: L2-HR :0.86911: (Sim:1h12m4s) 
CPU  0 inst:   53000002 cyc:  126104611 now IPC :1.18378: AVG IPC :0.40760: L2-Pf-HR :0.97435: L2-HR :0.85404: (Sim:1h12m5s) 
CPU  3 inst:   53000002 cyc:  126534849 now IPC :1.20572: AVG IPC :0.40620: L2-Pf-HR :0.97390: L2-HR :0.85203: (Sim:1h12m40s) 
CPU  2 inst:   53000002 cyc:  126556063 now IPC :1.22433: AVG IPC :0.40614: L2-Pf-HR :0.97462: L2-HR :0.85432: (Sim:1h12m42s) 
CPU  1 inst:   58000005 cyc:  126740263 now IPC :1.51938: AVG IPC :0.44530: L2-Pf-HR :0.97701: L2-HR :0.87267: (Sim:1h12m59s) 
CPU  0 inst:   54000001 cyc:  126743485 now IPC :1.56525: AVG IPC :0.41349: L2-Pf-HR :0.97516: L2-HR :0.85868: (Sim:1h12m59s) 
CPU  3 inst:   54000001 cyc:  127116440 now IPC :1.71942: AVG IPC :0.41225: L2-Pf-HR :0.97473: L2-HR :0.85683: (Sim:1h13m33s) 
CPU  2 inst:   54000001 cyc:  127146149 now IPC :1.69467: AVG IPC :0.41216: L2-Pf-HR :0.97541: L2-HR :0.85900: (Sim:1h13m35s) 
CPU  1 inst:   59000000 cyc:  127507064 now IPC :1.30411: AVG IPC :0.45051: L2-Pf-HR :0.97753: L2-HR :0.87577: (Sim:1h14m0s) 
CPU  0 inst:   55000004 cyc:  127542655 now IPC :1.25130: AVG IPC :0.41878: L2-Pf-HR :0.97584: L2-HR :0.86270: (Sim:1h14m3s) 
CPU  3 inst:   55000004 cyc:  128016917 now IPC :1.11053: AVG IPC :0.41720: L2-Pf-HR :0.97535: L2-HR :0.86089: (Sim:1h14m32s) 
CPU  2 inst:   55000004 cyc:  128068578 now IPC :1.08410: AVG IPC :0.41704: L2-Pf-HR :0.97601: L2-HR :0.86296: (Sim:1h14m36s) 
CPU  1 inst:   60000005 cyc:  128390827 now IPC :1.13153: AVG IPC :0.45523: L2-Pf-HR :0.97798: L2-HR :0.87874: (Sim:1h15m0s) 
CPU  0 inst:   56000004 cyc:  128424664 now IPC :1.13378: AVG IPC :0.42372: L2-Pf-HR :0.97644: L2-HR :0.86659: (Sim:1h15m3s) 
CPU  3 inst:   56000004 cyc:  128771608 now IPC :1.32505: AVG IPC :0.42256: L2-Pf-HR :0.97599: L2-HR :0.86484: (Sim:1h15m30s) 
CPU  2 inst:   56000004 cyc:  128902390 now IPC :1.19931: AVG IPC :0.42214: L2-Pf-HR :0.97660: L2-HR :0.86684: (Sim:1h15m38s) 
CPU  1 inst:   61000001 cyc:  129196948 now IPC :1.24050: AVG IPC :0.46017: L2-Pf-HR :0.97838: L2-HR :0.88122: (Sim:1h15m59s) 
CPU  0 inst:   57000005 cyc:  129268188 now IPC :1.18550: AVG IPC :0.42873: L2-Pf-HR :0.97694: L2-HR :0.87002: (Sim:1h16m6s) 
CPU  3 inst:   57000004 cyc:  129591293 now IPC :1.21998: AVG IPC :0.42765: L2-Pf-HR :0.97654: L2-HR :0.86829: (Sim:1h16m32s) 
CPU  2 inst:   57000003 cyc:  129674993 now IPC :1.29432: AVG IPC :0.42737: L2-Pf-HR :0.97713: L2-HR :0.87021: (Sim:1h16m40s) 
CPU  1 inst:   62000002 cyc:  129850468 now IPC :1.53018: AVG IPC :0.46559: L2-Pf-HR :0.97889: L2-HR :0.88401: (Sim:1h16m57s) 
CPU  0 inst:   58000005 cyc:  129868576 now IPC :1.66559: AVG IPC :0.43449: L2-Pf-HR :0.97754: L2-HR :0.87347: (Sim:1h16m58s) 
CPU  3 inst:   58000005 cyc:  130207655 now IPC :1.62242: AVG IPC :0.43335: L2-Pf-HR :0.97718: L2-HR :0.87189: (Sim:1h17m31s) 
CPU  2 inst:   58000005 cyc:  130235627 now IPC :1.78370: AVG IPC :0.43326: L2-Pf-HR :0.97772: L2-HR :0.87365: (Sim:1h17m33s) 
CPU  1 inst:   63000001 cyc:  130495290 now IPC :1.55081: AVG IPC :0.47100: L2-Pf-HR :0.97932: L2-HR :0.88646: (Sim:1h17m54s) 
CPU  0 inst:   59000000 cyc:  130567762 now IPC :1.43023: AVG IPC :0.43987: L2-Pf-HR :0.97809: L2-HR :0.87658: (Sim:1h18m0s) 
CPU  3 inst:   59000000 cyc:  130957863 now IPC :1.33296: AVG IPC :0.43854: L2-Pf-HR :0.97766: L2-HR :0.87508: (Sim:1h18m30s) 
CPU  2 inst:   59000000 cyc:  130976230 now IPC :1.35024: AVG IPC :0.43848: L2-Pf-HR :0.97820: L2-HR :0.87675: (Sim:1h18m32s) 
CPU  1 inst:   64000000 cyc:  131181735 now IPC :1.45678: AVG IPC :0.47619: L2-Pf-HR :0.97969: L2-HR :0.88879: (Sim:1h18m47s) 
CPU  0 inst:   60000005 cyc:  131270833 now IPC :1.42234: AVG IPC :0.44517: L2-Pf-HR :0.97854: L2-HR :0.87952: (Sim:1h18m55s) 
CPU  3 inst:   60000005 cyc:  131608975 now IPC :1.53584: AVG IPC :0.44401: L2-Pf-HR :0.97812: L2-HR :0.87808: (Sim:1h19m24s) 
CPU  2 inst:   60000005 cyc:  131660392 now IPC :1.46165: AVG IPC :0.44384: L2-Pf-HR :0.97864: L2-HR :0.87969: (Sim:1h19m29s) 
CPU  1 inst:   65000002 cyc:  131885491 now IPC :1.42095: AVG IPC :0.48127: L2-Pf-HR :0.97998: L2-HR :0.89080: (Sim:1h19m47s) 
CPU  0 inst:   61000000 cyc:  131986927 now IPC :1.39646: AVG IPC :0.45037: L2-Pf-HR :0.97890: L2-HR :0.88201: (Sim:1h19m56s) 
CPU  3 inst:   61000002 cyc:  132273001 now IPC :1.50596: AVG IPC :0.44938: L2-Pf-HR :0.97853: L2-HR :0.88062: (Sim:1h20m21s) 
CPU  2 inst:   61000002 cyc:  132353170 now IPC :1.44346: AVG IPC :0.44911: L2-Pf-HR :0.97900: L2-HR :0.88216: (Sim:1h20m29s) 
CPU  1 inst:   66000005 cyc:  132485703 now IPC :1.66608: AVG IPC :0.48668: L2-Pf-HR :0.98035: L2-HR :0.89298: (Sim:1h20m41s) 
CPU  0 inst:   62000002 cyc:  132557964 now IPC :1.75120: AVG IPC :0.45601: L2-Pf-HR :0.97934: L2-HR :0.88472: (Sim:1h20m46s) 
CPU  3 inst:   62000002 cyc:  132834809 now IPC :1.77997: AVG IPC :0.45505: L2-Pf-HR :0.97903: L2-HR :0.88339: (Sim:1h21m12s) 
CPU  2 inst:   62000002 cyc:  132930674 now IPC :1.73159: AVG IPC :0.45472: L2-Pf-HR :0.97945: L2-HR :0.88485: (Sim:1h21m21s) 
CPU  1 inst:   67000001 cyc:  133050132 now IPC :1.77169: AVG IPC :0.49217: L2-Pf-HR :0.98074: L2-HR :0.89519: (Sim:1h21m32s) 
CPU  0 inst:   63000001 cyc:  133156153 now IPC :1.67171: AVG IPC :0.46152: L2-Pf-HR :0.97978: L2-HR :0.88714: (Sim:1h21m41s) 
CPU  3 inst:   63000001 cyc:  133488572 now IPC :1.52960: AVG IPC :0.46035: L2-Pf-HR :0.97944: L2-HR :0.88588: (Sim:1h22m8s) 
CPU  2 inst:   63000001 cyc:  133580258 now IPC :1.53945: AVG IPC :0.46004: L2-Pf-HR :0.97982: L2-HR :0.88728: (Sim:1h22m16s) 
CPU  1 inst:   68000004 cyc:  133741438 now IPC :1.44654: AVG IPC :0.49714: L2-Pf-HR :0.98100: L2-HR :0.89688: (Sim:1h22m30s) 
CPU  0 inst:   64000000 cyc:  133802796 now IPC :1.54645: AVG IPC :0.46680: L2-Pf-HR :0.98012: L2-HR :0.88944: (Sim:1h22m34s) 
CPU  3 inst:   64000000 cyc:  134149108 now IPC :1.51392: AVG IPC :0.46558: L2-Pf-HR :0.97981: L2-HR :0.88823: (Sim:1h23m4s) 
CPU  2 inst:   64000000 cyc:  134227197 now IPC :1.54574: AVG IPC :0.46531: L2-Pf-HR :0.98015: L2-HR :0.88957: (Sim:1h23m10s) 
CPU  1 inst:   69000003 cyc:  134440654 now IPC :1.43017: AVG IPC :0.50203: L2-Pf-HR :0.98124: L2-HR :0.89857: (Sim:1h23m28s) 
CPU  0 inst:   65000005 cyc:  134484263 now IPC :1.46743: AVG IPC :0.47191: L2-Pf-HR :0.98041: L2-HR :0.89142: (Sim:1h23m31s) 
CPU  3 inst:   65000005 cyc:  134832710 now IPC :1.46285: AVG IPC :0.47067: L2-Pf-HR :0.98014: L2-HR :0.89025: (Sim:1h24m2s) 
CPU  2 inst:   65000002 cyc:  134883258 now IPC :1.52425: AVG IPC :0.47050: L2-Pf-HR :0.98047: L2-HR :0.89155: (Sim:1h24m6s) 
CPU  1 inst:   70000002 cyc:  135043078 now IPC :1.65996: AVG IPC :0.50723: L2-Pf-HR :0.98152: L2-HR :0.90024: (Sim:1h24m18s) 
CPU  0 inst:   66000005 cyc:  135069162 now IPC :1.70970: AVG IPC :0.47731: L2-Pf-HR :0.98075: L2-HR :0.89351: (Sim:1h24m19s) 
CPU  3 inst:   66000005 cyc:  135406750 now IPC :1.74204: AVG IPC :0.47610: L2-Pf-HR :0.98051: L2-HR :0.89236: (Sim:1h24m49s) 
CPU  2 inst:   66000005 cyc:  135449128 now IPC :1.76720: AVG IPC :0.47595: L2-Pf-HR :0.98084: L2-HR :0.89364: (Sim:1h24m53s) 
CPU  1 inst:   71000002 cyc:  135591967 now IPC :1.82186: AVG IPC :0.51259: L2-Pf-HR :0.98186: L2-HR :0.90206: (Sim:1h25m8s) 
CPU  0 inst:   67000001 cyc:  135624413 now IPC :1.80098: AVG IPC :0.48276: L2-Pf-HR :0.98116: L2-HR :0.89577: (Sim:1h25m11s) 
CPU  3 inst:   67000001 cyc:  135959951 now IPC :1.80765: AVG IPC :0.48156: L2-Pf-HR :0.98092: L2-HR :0.89467: (Sim:1h25m30s) 
CPU  2 inst:   67000001 cyc:  136021350 now IPC :1.74757: AVG IPC :0.48134: L2-Pf-HR :0.98122: L2-HR :0.89589: (Sim:1h25m33s) 
CPU  1 inst:   72000004 cyc:  136274278 now IPC :1.46561: AVG IPC :0.51740: L2-Pf-HR :0.98210: L2-HR :0.90347: (Sim:1h25m45s) 
CPU  0 inst:   68000004 cyc:  136323403 now IPC :1.43064: AVG IPC :0.48766: L2-Pf-HR :0.98143: L2-HR :0.89743: (Sim:1h25m48s) 
CPU  3 inst:   68000004 cyc:  136667471 now IPC :1.41339: AVG IPC :0.48641: L2-Pf-HR :0.98118: L2-HR :0.89636: (Sim:1h26m8s) 
CPU  2 inst:   68000004 cyc:  136735477 now IPC :1.40032: AVG IPC :0.48618: L2-Pf-HR :0.98146: L2-HR :0.89756: (Sim:1h26m12s) 
CPU  1 inst:   73000002 cyc:  136933275 now IPC :1.51745: AVG IPC :0.52225: L2-Pf-HR :0.98232: L2-HR :0.90487: (Sim:1h26m23s) 
CPU  0 inst:   69000003 cyc:  136994161 now IPC :1.49085: AVG IPC :0.49261: L2-Pf-HR :0.98168: L2-HR :0.89910: (Sim:1h26m26s) 
CPU  3 inst:   69000003 cyc:  137334614 now IPC :1.49893: AVG IPC :0.49137: L2-Pf-HR :0.98145: L2-HR :0.89806: (Sim:1h26m49s) 
CPU  2 inst:   69000003 cyc:  137408974 now IPC :1.48479: AVG IPC :0.49111: L2-Pf-HR :0.98172: L2-HR :0.89923: (Sim:1h26m56s) 
CPU  1 inst:   74000005 cyc:  137582049 now IPC :1.54137: AVG IPC :0.52709: L2-Pf-HR :0.98252: L2-HR :0.90621: (Sim:1h27m11s) 
CPU  0 inst:   70000002 cyc:  137618341 now IPC :1.60210: AVG IPC :0.49768: L2-Pf-HR :0.98195: L2-HR :0.90077: (Sim:1h27m14s) 
CPU  3 inst:   70000002 cyc:  137953287 now IPC :1.61636: AVG IPC :0.49645: L2-Pf-HR :0.98174: L2-HR :0.89975: (Sim:1h27m47s) 
CPU  2 inst:   70000002 cyc:  138015053 now IPC :1.64995: AVG IPC :0.49623: L2-Pf-HR :0.98202: L2-HR :0.90090: (Sim:1h27m53s) 
CPU  1 inst:   75000002 cyc:  138142260 now IPC :1.78504: AVG IPC :0.53223: L2-Pf-HR :0.98279: L2-HR :0.90768: (Sim:1h28m5s) 
CPU  0 inst:   71000002 cyc:  138185899 now IPC :1.76193: AVG IPC :0.50291: L2-Pf-HR :0.98229: L2-HR :0.90256: (Sim:1h28m9s) 
CPU  3 inst:   71000002 cyc:  138522069 now IPC :1.75814: AVG IPC :0.50167: L2-Pf-HR :0.98206: L2-HR :0.90154: (Sim:1h28m40s) 
CPU  2 inst:   71000002 cyc:  138582697 now IPC :1.76167: AVG IPC :0.50145: L2-Pf-HR :0.98235: L2-HR :0.90264: (Sim:1h28m45s) 
CPU  1 inst:   76000002 cyc:  138792574 now IPC :1.53772: AVG IPC :0.53697: L2-Pf-HR :0.98301: L2-HR :0.90887: (Sim:1h28m59s) 
CPU  0 inst:   72000000 cyc:  138848669 now IPC :1.50882: AVG IPC :0.50774: L2-Pf-HR :0.98252: L2-HR :0.90394: (Sim:1h29m3s) 
CPU  3 inst:   72000000 cyc:  139200092 now IPC :1.47487: AVG IPC :0.50644: L2-Pf-HR :0.98227: L2-HR :0.90295: (Sim:1h29m30s) 
CPU  2 inst:   72000004 cyc:  139267092 now IPC :1.46115: AVG IPC :0.50620: L2-Pf-HR :0.98254: L2-HR :0.90403: (Sim:1h29m34s) 
CPU  1 inst:   77000005 cyc:  139469182 now IPC :1.47797: AVG IPC :0.54157: L2-Pf-HR :0.98318: L2-HR :0.91006: (Sim:1h29m45s) 
CPU  0 inst:   73000002 cyc:  139516347 now IPC :1.49773: AVG IPC :0.51251: L2-Pf-HR :0.98272: L2-HR :0.90534: (Sim:1h29m48s) 
CPU  3 inst:   73000002 cyc:  139886369 now IPC :1.45714: AVG IPC :0.51114: L2-Pf-HR :0.98249: L2-HR :0.90438: (Sim:1h30m8s) 
CPU  2 inst:   73000004 cyc:  139931901 now IPC :1.50419: AVG IPC :0.51098: L2-Pf-HR :0.98275: L2-HR :0.90542: (Sim:1h30m11s) 
CPU  1 inst:   78000001 cyc:  140110680 now IPC :1.55885: AVG IPC :0.54626: L2-Pf-HR :0.98337: L2-HR :0.91121: (Sim:1h30m22s) 
CPU  0 inst:   74000005 cyc:  140163755 now IPC :1.54463: AVG IPC :0.51731: L2-Pf-HR :0.98292: L2-HR :0.90665: (Sim:1h30m24s) 
CPU  3 inst:   74000005 cyc:  140508891 now IPC :1.60637: AVG IPC :0.51603: L2-Pf-HR :0.98271: L2-HR :0.90569: (Sim:1h30m56s) 
CPU  2 inst:   74000005 cyc:  140545894 now IPC :1.62868: AVG IPC :0.51589: L2-Pf-HR :0.98298: L2-HR :0.90671: (Sim:1h31m0s) 
CPU  1 inst:   79000000 cyc:  140674602 now IPC :1.77329: AVG IPC :0.55121: L2-Pf-HR :0.98361: L2-HR :0.91246: (Sim:1h31m13s) 
CPU  0 inst:   75000002 cyc:  140728599 now IPC :1.77040: AVG IPC :0.52238: L2-Pf-HR :0.98318: L2-HR :0.90810: (Sim:1h31m18s) 
CPU  3 inst:   75000002 cyc:  141072521 now IPC :1.77421: AVG IPC :0.52109: L2-Pf-HR :0.98297: L2-HR :0.90716: (Sim:1h31m49s) 
CPU  2 inst:   75000002 cyc:  141118649 now IPC :1.74594: AVG IPC :0.52092: L2-Pf-HR :0.98325: L2-HR :0.90815: (Sim:1h31m54s) 
CPU  1 inst:   80000001 cyc:  141315621 now IPC :1.56002: AVG IPC :0.55582: L2-Pf-HR :0.98377: L2-HR :0.91342: (Sim:1h32m12s) 
Finished CPU 1 instr: 78000001 cyc: 140332448 AVG IPC: 0.55582 (Sim time: 1h32m12s)
CPU  0 inst:   76000002 cyc:  141373174 now IPC :1.55141: AVG IPC :0.52710: L2-Pf-HR :0.98338: L2-HR :0.90926: (Sim:1h32m16s) 
CPU  3 inst:   76000002 cyc:  141740626 now IPC :1.49677: AVG IPC :0.52572: L2-Pf-HR :0.98314: L2-HR :0.90835: (Sim:1h32m46s) 
CPU  2 inst:   76000002 cyc:  141801980 now IPC :1.46342: AVG IPC :0.52550: L2-Pf-HR :0.98341: L2-HR :0.90932: (Sim:1h32m51s) 
CPU  1 inst:   81000001 cyc:  141980133 now IPC :1.50486: AVG IPC :0.56029: L2-Pf-HR :0.98394: L2-HR :0.91447: (Sim:1h33m6s) 
CPU  0 inst:   77000005 cyc:  142055127 now IPC :1.46638: AVG IPC :0.53164: L2-Pf-HR :0.98354: L2-HR :0.91043: (Sim:1h33m13s) 
CPU  3 inst:   77000005 cyc:  142408987 now IPC :1.49620: AVG IPC :0.53031: L2-Pf-HR :0.98332: L2-HR :0.90955: (Sim:1h33m39s) 
CPU  2 inst:   77000005 cyc:  142488729 now IPC :1.45614: AVG IPC :0.53001: L2-Pf-HR :0.98359: L2-HR :0.91049: (Sim:1h33m43s) 
CPU  1 inst:   82000000 cyc:  142645602 now IPC :1.50270: AVG IPC :0.56472: L2-Pf-HR :0.98408: L2-HR :0.91543: (Sim:1h33m52s) 
CPU  0 inst:   78000001 cyc:  142697866 now IPC :1.55584: AVG IPC :0.53629: L2-Pf-HR :0.98371: L2-HR :0.91156: (Sim:1h33m55s) 
CPU  3 inst:   78000001 cyc:  143026340 now IPC :1.61981: AVG IPC :0.53504: L2-Pf-HR :0.98353: L2-HR :0.91071: (Sim:1h34m23s) 
CPU  2 inst:   78000001 cyc:  143098698 now IPC :1.63942: AVG IPC :0.53477: L2-Pf-HR :0.98378: L2-HR :0.91164: (Sim:1h34m30s) 
CPU  1 inst:   83000001 cyc:  143198256 now IPC :1.80945: AVG IPC :0.56956: L2-Pf-HR :0.98428: L2-HR :0.91651: (Sim:1h34m40s) 
CPU  0 inst:   79000000 cyc:  143250858 now IPC :1.80834: AVG IPC :0.54123: L2-Pf-HR :0.98394: L2-HR :0.91280: (Sim:1h34m46s) 
CPU  3 inst:   79000000 cyc:  143583490 now IPC :1.79485: AVG IPC :0.53996: L2-Pf-HR :0.98375: L2-HR :0.91198: (Sim:1h35m8s) 
CPU  2 inst:   79000000 cyc:  143641466 now IPC :1.84241: AVG IPC :0.53975: L2-Pf-HR :0.98401: L2-HR :0.91285: (Sim:1h35m11s) 
*** Reached end of trace for Core: 1 Repeating trace: 770-tot_memTraces_v3_rexz/memTraces[83000000][Pythia-70M]_[h8][s512][d64].champsim.9.xz
CPU  0 inst:   80000001 cyc:  143908804 now IPC :1.51988: AVG IPC :0.54574: L2-Pf-HR :0.98409: L2-HR :0.91375: (Sim:1h35m24s) 
Finished CPU 0 instr: 78000000 cyc: 142925583 AVG IPC: 0.54574 (Sim time: 1h35m24s)
CPU  1 inst:   84000004 cyc:  144271527 now IPC :0.93173: AVG IPC :0.57227: L2-Pf-HR :0.98438: L2-HR :0.91656: (Sim:1h35m41s) 
CPU  3 inst:   80000001 cyc:  144272061 now IPC :1.45228: AVG IPC :0.54435: L2-Pf-HR :0.98389: L2-HR :0.91294: (Sim:1h35m41s) 
Finished CPU 3 instr: 78000002 cyc: 143289836 AVG IPC: 0.54435 (Sim time: 1h35m41s)
CPU  2 inst:   80000001 cyc:  144345845 now IPC :1.41969: AVG IPC :0.54407: L2-Pf-HR :0.98414: L2-HR :0.91379: (Sim:1h35m46s) 
Finished CPU 2 instr: 78000002 cyc: 143362706 AVG IPC: 0.54407 (Sim time: 1h35m46s)

ChampSim completed all CPUs

Total Simulation Statistics (not including warmup)

CPU 0 cumulative IPC: 0.54837 instructions: 78615477 cycles: 143362705
Core_0_L1D_total_access 21745441
Core_0_L1D_total_hit 18771754
Core_0_L1D_total_miss 2973687
Core_0_L1D_loads 19614627
Core_0_L1D_load_hit 16773228
Core_0_L1D_load_miss 2841399
Core_0_L1D_RFOs 2130814
Core_0_L1D_RFO_hit 1998526
Core_0_L1D_RFO_miss 132288
Core_0_L1D_prefetches 0
Core_0_L1D_prefetch_hit 0
Core_0_L1D_prefetch_miss 0
Core_0_L1D_writebacks 0
Core_0_L1D_writeback_hit 0
Core_0_L1D_writeback_miss 0

Core_0_L1I_total_access 11182071
Core_0_L1I_total_hit 11177168
Core_0_L1I_total_miss 4903
Core_0_L1I_loads 11182071
Core_0_L1I_load_hit 11177168
Core_0_L1I_load_miss 4903
Core_0_L1I_RFOs 0
Core_0_L1I_RFO_hit 0
Core_0_L1I_RFO_miss 0
Core_0_L1I_prefetches 0
Core_0_L1I_prefetch_hit 0
Core_0_L1I_prefetch_miss 0
Core_0_L1I_writebacks 0
Core_0_L1I_writeback_hit 0
Core_0_L1I_writeback_miss 0

Core_0_L2C_total_access 8501361
Core_0_L2C_total_hit 7773513
Core_0_L2C_total_miss 727848
Core_0_L2C_loads 2846306
Core_0_L2C_load_hit 2329588
Core_0_L2C_load_miss 516718
Core_0_L2C_RFOs 132288
Core_0_L2C_RFO_hit 898
Core_0_L2C_RFO_miss 131390
Core_0_L2C_prefetches 5030541
Core_0_L2C_prefetch_hit 4950909
Core_0_L2C_prefetch_miss 79632
Core_0_L2C_writebacks 492226
Core_0_L2C_writeback_hit 492118
Core_0_L2C_writeback_miss 108

 All Calls: 11706210
 Critical Calls: 11706210
------------------
Depth Distribution
------------------
depth 0: 0
depth 1: 9270141
depth 2: 8632358
depth 3: 7781406
depth 4: 6673368
depth 5: 5024587
depth 6: 3252513
depth 7: 2108448
depth 8: 1574128
depth 9: 1241344
depth 10: 905697
depth 11: 582626
depth 12: 315926
depth 13: 122962
depth 14: 6228
depth 15: 6114
depth 16: 1
depth 17: 0
depth 18: 0
depth 19: 0
depth 20: 0
depth 21: 0
depth 22: 0
depth 23: 0
depth 24: 0
depth 25: 0
depth 26: 0
depth 27: 0
depth 28: 0
depth 29: 0
Total: 47497847
-----------------------------
-----------------------------
	Captured at Filter
-----------------------------
depth 0: 0
depth 1: 1489167
depth 2: 1314110
depth 3: 1168644
depth 4: 877886
depth 5: 604501
depth 6: 283858
depth 7: 79362
depth 8: 22264
depth 9: 10684
depth 10: 6858
depth 11: 4119
depth 12: 2136
depth 13: 713
depth 14: 35
depth 15: 35
depth 16: 0
depth 17: 0
depth 18: 0
depth 19: 0
depth 20: 0
depth 21: 0
depth 22: 0
depth 23: 0
depth 24: 0
depth 25: 0
depth 26: 0
depth 27: 0
depth 28: 0
depth 29: 0
-----------------------------
-----------------------------
		Lost at Page
-----------------------------
depth 0: 0
depth 1: 651623
depth 2: 1116589
depth 3: 1555598
depth 4: 1827879
depth 5: 1842421
depth 6: 1506670
depth 7: 812864
depth 8: 385971
depth 9: 224496
depth 10: 175612
depth 11: 126410
depth 12: 79379
depth 13: 33930
depth 14: 1766
depth 15: 1880
depth 16: 0
depth 17: 0
depth 18: 0
depth 19: 0
depth 20: 0
depth 21: 0
depth 22: 0
depth 23: 0
depth 24: 0
depth 25: 0
depth 26: 0
depth 27: 0
depth 28: 0
depth 29: 0
-----------------------------
-----------------------------
	Lost due to PQ Size
-----------------------------
3696699
-----------------------------
ST read accesses: 11297551
ST write accesses: 232846
PT read accesses: 400210247
PT write accesses: 16765070
FILTER read accesses: 70776907
FILTER write accesses: 11682466
GHR read accesses: 67919098
GHR write accesses: 10305957
GHR counter read accesses: 333929878
GHR counter write accesses: 20544344
ST tag read accesses: 4564918083
ST tag write accesses: 158321998
Core_0_LLC_total_access 2439707
Core_0_LLC_total_hit 1721203
Core_0_LLC_total_miss 718504
Core_0_LLC_loads 397147
Core_0_LLC_load_hit 219922
Core_0_LLC_load_miss 177225
Core_0_LLC_RFOs 131390
Core_0_LLC_RFO_hit 153
Core_0_LLC_RFO_miss 131237
Core_0_LLC_prefetches 1487730
Core_0_LLC_prefetch_hit 1086972
Core_0_LLC_prefetch_miss 400758
Core_0_LLC_writebacks 423440
Core_0_LLC_writeback_hit 414156
Core_0_LLC_writeback_miss 9284


CPU 1 cumulative IPC: 0.57242 instructions: 82064104 cycles: 143362706
Core_1_L1D_total_access 22634684
Core_1_L1D_total_hit 19447590
Core_1_L1D_total_miss 3187094
Core_1_L1D_loads 20484488
Core_1_L1D_load_hit 17429810
Core_1_L1D_load_miss 3054678
Core_1_L1D_RFOs 2150196
Core_1_L1D_RFO_hit 2017780
Core_1_L1D_RFO_miss 132416
Core_1_L1D_prefetches 0
Core_1_L1D_prefetch_hit 0
Core_1_L1D_prefetch_miss 0
Core_1_L1D_writebacks 0
Core_1_L1D_writeback_hit 0
Core_1_L1D_writeback_miss 0

Core_1_L1I_total_access 11517508
Core_1_L1I_total_hit 11507016
Core_1_L1I_total_miss 10492
Core_1_L1I_loads 11517508
Core_1_L1I_load_hit 11507016
Core_1_L1I_load_miss 10492
Core_1_L1I_RFOs 0
Core_1_L1I_RFO_hit 0
Core_1_L1I_RFO_miss 0
Core_1_L1I_prefetches 0
Core_1_L1I_prefetch_hit 0
Core_1_L1I_prefetch_miss 0
Core_1_L1I_writebacks 0
Core_1_L1I_writeback_hit 0
Core_1_L1I_writeback_miss 0

Core_1_L2C_total_access 9004228
Core_1_L2C_total_hit 8252835
Core_1_L2C_total_miss 751393
Core_1_L2C_loads 3065170
Core_1_L2C_load_hit 2528214
Core_1_L2C_load_miss 536956
Core_1_L2C_RFOs 132416
Core_1_L2C_RFO_hit 945
Core_1_L2C_RFO_miss 131471
Core_1_L2C_prefetches 5308966
Core_1_L2C_prefetch_hit 5226032
Core_1_L2C_prefetch_miss 82934
Core_1_L2C_writebacks 497676
Core_1_L2C_writeback_hit 497644
Core_1_L2C_writeback_miss 32

 All Calls: 11706210
 Critical Calls: 11706210
------------------
Depth Distribution
------------------
depth 0: 0
depth 1: 9270141
depth 2: 8632358
depth 3: 7781406
depth 4: 6673368
depth 5: 5024587
depth 6: 3252513
depth 7: 2108448
depth 8: 1574128
depth 9: 1241344
depth 10: 905697
depth 11: 582626
depth 12: 315926
depth 13: 122962
depth 14: 6228
depth 15: 6114
depth 16: 1
depth 17: 0
depth 18: 0
depth 19: 0
depth 20: 0
depth 21: 0
depth 22: 0
depth 23: 0
depth 24: 0
depth 25: 0
depth 26: 0
depth 27: 0
depth 28: 0
depth 29: 0
Total: 47497847
-----------------------------
-----------------------------
	Captured at Filter
-----------------------------
depth 0: 0
depth 1: 1489167
depth 2: 1314110
depth 3: 1168644
depth 4: 877886
depth 5: 604501
depth 6: 283858
depth 7: 79362
depth 8: 22264
depth 9: 10684
depth 10: 6858
depth 11: 4119
depth 12: 2136
depth 13: 713
depth 14: 35
depth 15: 35
depth 16: 0
depth 17: 0
depth 18: 0
depth 19: 0
depth 20: 0
depth 21: 0
depth 22: 0
depth 23: 0
depth 24: 0
depth 25: 0
depth 26: 0
depth 27: 0
depth 28: 0
depth 29: 0
-----------------------------
-----------------------------
		Lost at Page
-----------------------------
depth 0: 0
depth 1: 651623
depth 2: 1116589
depth 3: 1555598
depth 4: 1827879
depth 5: 1842421
depth 6: 1506670
depth 7: 812864
depth 8: 385971
depth 9: 224496
depth 10: 175612
depth 11: 126410
depth 12: 79379
depth 13: 33930
depth 14: 1766
depth 15: 1880
depth 16: 0
depth 17: 0
depth 18: 0
depth 19: 0
depth 20: 0
depth 21: 0
depth 22: 0
depth 23: 0
depth 24: 0
depth 25: 0
depth 26: 0
depth 27: 0
depth 28: 0
depth 29: 0
-----------------------------
-----------------------------
	Lost due to PQ Size
-----------------------------
3696699
-----------------------------
ST read accesses: 11297551
ST write accesses: 232846
PT read accesses: 400210247
PT write accesses: 16765070
FILTER read accesses: 70776907
FILTER write accesses: 11682466
GHR read accesses: 67919098
GHR write accesses: 10305957
GHR counter read accesses: 333929878
GHR counter write accesses: 20544344
ST tag read accesses: 4564918083
ST tag write accesses: 158321998
Core_1_LLC_total_access 2508163
Core_1_LLC_total_hit 1763233
Core_1_LLC_total_miss 744930
Core_1_LLC_loads 415707
Core_1_LLC_load_hit 227547
Core_1_LLC_load_miss 188160
Core_1_LLC_RFOs 131471
Core_1_LLC_RFO_hit 193
Core_1_LLC_RFO_miss 131278
Core_1_LLC_prefetches 1535497
Core_1_LLC_prefetch_hit 1120700
Core_1_LLC_prefetch_miss 414797
Core_1_LLC_writebacks 425488
Core_1_LLC_writeback_hit 414793
Core_1_LLC_writeback_miss 10695


CPU 2 cumulative IPC: 0.54407 instructions: 78000002 cycles: 143362706
Core_2_L1D_total_access 21579545
Core_2_L1D_total_hit 18646676
Core_2_L1D_total_miss 2932869
Core_2_L1D_loads 19449665
Core_2_L1D_load_hit 16649068
Core_2_L1D_load_miss 2800597
Core_2_L1D_RFOs 2129880
Core_2_L1D_RFO_hit 1997608
Core_2_L1D_RFO_miss 132272
Core_2_L1D_prefetches 0
Core_2_L1D_prefetch_hit 0
Core_2_L1D_prefetch_miss 0
Core_2_L1D_writebacks 0
Core_2_L1D_writeback_hit 0
Core_2_L1D_writeback_miss 0

Core_2_L1I_total_access 11122893
Core_2_L1I_total_hit 11117982
Core_2_L1I_total_miss 4911
Core_2_L1I_loads 11122893
Core_2_L1I_load_hit 11117982
Core_2_L1I_load_miss 4911
Core_2_L1I_RFOs 0
Core_2_L1I_RFO_hit 0
Core_2_L1I_RFO_miss 0
Core_2_L1I_prefetches 0
Core_2_L1I_prefetch_hit 0
Core_2_L1I_prefetch_miss 0
Core_2_L1I_writebacks 0
Core_2_L1I_writeback_hit 0
Core_2_L1I_writeback_miss 0

Core_2_L2C_total_access 8401431
Core_2_L2C_total_hit 7677179
Core_2_L2C_total_miss 724252
Core_2_L2C_loads 2805509
Core_2_L2C_load_hit 2291600
Core_2_L2C_load_miss 513909
Core_2_L2C_RFOs 132272
Core_2_L2C_RFO_hit 898
Core_2_L2C_RFO_miss 131374
Core_2_L2C_prefetches 4972053
Core_2_L2C_prefetch_hit 4893205
Core_2_L2C_prefetch_miss 78848
Core_2_L2C_writebacks 491597
Core_2_L2C_writeback_hit 491476
Core_2_L2C_writeback_miss 121

 All Calls: 11706210
 Critical Calls: 11706210
------------------
Depth Distribution
------------------
depth 0: 0
depth 1: 9270141
depth 2: 8632358
depth 3: 7781406
depth 4: 6673368
depth 5: 5024587
depth 6: 3252513
depth 7: 2108448
depth 8: 1574128
depth 9: 1241344
depth 10: 905697
depth 11: 582626
depth 12: 315926
depth 13: 122962
depth 14: 6228
depth 15: 6114
depth 16: 1
depth 17: 0
depth 18: 0
depth 19: 0
depth 20: 0
depth 21: 0
depth 22: 0
depth 23: 0
depth 24: 0
depth 25: 0
depth 26: 0
depth 27: 0
depth 28: 0
depth 29: 0
Total: 47497847
-----------------------------
-----------------------------
	Captured at Filter
-----------------------------
depth 0: 0
depth 1: 1489167
depth 2: 1314110
depth 3: 1168644
depth 4: 877886
depth 5: 604501
depth 6: 283858
depth 7: 79362
depth 8: 22264
depth 9: 10684
depth 10: 6858
depth 11: 4119
depth 12: 2136
depth 13: 713
depth 14: 35
depth 15: 35
depth 16: 0
depth 17: 0
depth 18: 0
depth 19: 0
depth 20: 0
depth 21: 0
depth 22: 0
depth 23: 0
depth 24: 0
depth 25: 0
depth 26: 0
depth 27: 0
depth 28: 0
depth 29: 0
-----------------------------
-----------------------------
		Lost at Page
-----------------------------
depth 0: 0
depth 1: 651623
depth 2: 1116589
depth 3: 1555598
depth 4: 1827879
depth 5: 1842421
depth 6: 1506670
depth 7: 812864
depth 8: 385971
depth 9: 224496
depth 10: 175612
depth 11: 126410
depth 12: 79379
depth 13: 33930
depth 14: 1766
depth 15: 1880
depth 16: 0
depth 17: 0
depth 18: 0
depth 19: 0
depth 20: 0
depth 21: 0
depth 22: 0
depth 23: 0
depth 24: 0
depth 25: 0
depth 26: 0
depth 27: 0
depth 28: 0
depth 29: 0
-----------------------------
-----------------------------
	Lost due to PQ Size
-----------------------------
3696699
-----------------------------
ST read accesses: 11297551
ST write accesses: 232846
PT read accesses: 400210247
PT write accesses: 16765070
FILTER read accesses: 70776907
FILTER write accesses: 11682466
GHR read accesses: 67919098
GHR write accesses: 10305957
GHR counter read accesses: 333929878
GHR counter write accesses: 20544344
ST tag read accesses: 4564918083
ST tag write accesses: 158321998
Core_2_LLC_total_access 2416495
Core_2_LLC_total_hit 1699879
Core_2_LLC_total_miss 716616
Core_2_LLC_loads 394001
Core_2_LLC_load_hit 217641
Core_2_LLC_load_miss 176360
Core_2_LLC_RFOs 131374
Core_2_LLC_RFO_hit 139
Core_2_LLC_RFO_miss 131235
Core_2_LLC_prefetches 1469898
Core_2_LLC_prefetch_hit 1072680
Core_2_LLC_prefetch_miss 397218
Core_2_LLC_writebacks 421222
Core_2_LLC_writeback_hit 409419
Core_2_LLC_writeback_miss 11803


CPU 3 cumulative IPC: 0.54489 instructions: 78117553 cycles: 143362706
Core_3_L1D_total_access 21609327
Core_3_L1D_total_hit 18668635
Core_3_L1D_total_miss 2940692
Core_3_L1D_loads 19479147
Core_3_L1D_load_hit 16670731
Core_3_L1D_load_miss 2808416
Core_3_L1D_RFOs 2130180
Core_3_L1D_RFO_hit 1997904
Core_3_L1D_RFO_miss 132276
Core_3_L1D_prefetches 0
Core_3_L1D_prefetch_hit 0
Core_3_L1D_prefetch_miss 0
Core_3_L1D_writebacks 0
Core_3_L1D_writeback_hit 0
Core_3_L1D_writeback_miss 0

Core_3_L1I_total_access 11132982
Core_3_L1I_total_hit 11128074
Core_3_L1I_total_miss 4908
Core_3_L1I_loads 11132982
Core_3_L1I_load_hit 11128074
Core_3_L1I_load_miss 4908
Core_3_L1I_RFOs 0
Core_3_L1I_RFO_hit 0
Core_3_L1I_RFO_miss 0
Core_3_L1I_prefetches 0
Core_3_L1I_prefetch_hit 0
Core_3_L1I_prefetch_miss 0
Core_3_L1I_writebacks 0
Core_3_L1I_writeback_hit 0
Core_3_L1I_writeback_miss 0

Core_3_L2C_total_access 8410325
Core_3_L2C_total_hit 7679591
Core_3_L2C_total_miss 730734
Core_3_L2C_loads 2813324
Core_3_L2C_load_hit 2294077
Core_3_L2C_load_miss 519247
Core_3_L2C_RFOs 132276
Core_3_L2C_RFO_hit 866
Core_3_L2C_RFO_miss 131410
Core_3_L2C_prefetches 4973025
Core_3_L2C_prefetch_hit 4893076
Core_3_L2C_prefetch_miss 79949
Core_3_L2C_writebacks 491700
Core_3_L2C_writeback_hit 491572
Core_3_L2C_writeback_miss 128

 All Calls: 11706210
 Critical Calls: 11706210
------------------
Depth Distribution
------------------
depth 0: 0
depth 1: 9270141
depth 2: 8632358
depth 3: 7781406
depth 4: 6673368
depth 5: 5024587
depth 6: 3252513
depth 7: 2108448
depth 8: 1574128
depth 9: 1241344
depth 10: 905697
depth 11: 582626
depth 12: 315926
depth 13: 122962
depth 14: 6228
depth 15: 6114
depth 16: 1
depth 17: 0
depth 18: 0
depth 19: 0
depth 20: 0
depth 21: 0
depth 22: 0
depth 23: 0
depth 24: 0
depth 25: 0
depth 26: 0
depth 27: 0
depth 28: 0
depth 29: 0
Total: 47497847
-----------------------------
-----------------------------
	Captured at Filter
-----------------------------
depth 0: 0
depth 1: 1489167
depth 2: 1314110
depth 3: 1168644
depth 4: 877886
depth 5: 604501
depth 6: 283858
depth 7: 79362
depth 8: 22264
depth 9: 10684
depth 10: 6858
depth 11: 4119
depth 12: 2136
depth 13: 713
depth 14: 35
depth 15: 35
depth 16: 0
depth 17: 0
depth 18: 0
depth 19: 0
depth 20: 0
depth 21: 0
depth 22: 0
depth 23: 0
depth 24: 0
depth 25: 0
depth 26: 0
depth 27: 0
depth 28: 0
depth 29: 0
-----------------------------
-----------------------------
		Lost at Page
-----------------------------
depth 0: 0
depth 1: 651623
depth 2: 1116589
depth 3: 1555598
depth 4: 1827879
depth 5: 1842421
depth 6: 1506670
depth 7: 812864
depth 8: 385971
depth 9: 224496
depth 10: 175612
depth 11: 126410
depth 12: 79379
depth 13: 33930
depth 14: 1766
depth 15: 1880
depth 16: 0
depth 17: 0
depth 18: 0
depth 19: 0
depth 20: 0
depth 21: 0
depth 22: 0
depth 23: 0
depth 24: 0
depth 25: 0
depth 26: 0
depth 27: 0
depth 28: 0
depth 29: 0
-----------------------------
-----------------------------
	Lost due to PQ Size
-----------------------------
3696699
-----------------------------
ST read accesses: 11297551
ST write accesses: 232846
PT read accesses: 400210247
PT write accesses: 16765070
FILTER read accesses: 70776907
FILTER write accesses: 11682466
GHR read accesses: 67919098
GHR write accesses: 10305957
GHR counter read accesses: 333929878
GHR counter write accesses: 20544344
ST tag read accesses: 4564918083
ST tag write accesses: 158321998
Core_3_LLC_total_access 2447160
Core_3_LLC_total_hit 1729764
Core_3_LLC_total_miss 717396
Core_3_LLC_loads 399530
Core_3_LLC_load_hit 222798
Core_3_LLC_load_miss 176732
Core_3_LLC_RFOs 131410
Core_3_LLC_RFO_hit 173
Core_3_LLC_RFO_miss 131237
Core_3_LLC_prefetches 1489970
Core_3_LLC_prefetch_hit 1092547
Core_3_LLC_prefetch_miss 397423
Core_3_LLC_writebacks 426250
Core_3_LLC_writeback_hit 414246
Core_3_LLC_writeback_miss 12004


[ROI Statistics]
Core_0_instructions 78000000
Core_0_cycles 142925583
Core_0_IPC 0.54574

Core_0_branch_prediction_accuracy 99.16602
Core_0_branch_MPKI 0.25316
Core_0_average_ROB_occupancy_at_mispredict 437.98181

Core_0_L1D_total_access 21578405
Core_0_L1D_total_hit 18645549 L1D_total_Hit Ratio: 0.86408
Core_0_L1D_total_miss 2932856
Core_0_L1D_loads 19449004
Core_0_L1D_load_hit 16648433 L1D_load_Hit Ratio: 0.85600
Core_0_L1D_load_miss 2800571
Core_0_L1D_RFOs 2129401
Core_0_L1D_RFO_hit 1997116 L1D_RFO_Hit Ratio: 0.93788
Core_0_L1D_RFO_miss 132285
Core_0_L1D_prefetches 0
Core_0_L1D_prefetch_hit 0 L1D_prefetch_Hit Ratio: -nan
Core_0_L1D_prefetch_miss 0
Core_0_L1D_writebacks 0
Core_0_L1D_writeback_hit 0 L1D_writeback_Hit Ratio: -nan
Core_0_L1D_writeback_miss 0
Core_0_L1D_prefetch_requested 0
Core_0_L1D_prefetch_issued 0
Core_0_L1D_prefetch_useful 0 L1D_Useful Ratio: -nan
Core_0_L1D_prefetch_useless 0
Core_0_L1D_prefetch_late 0
Core_0_L1D_average_miss_latency 167.22031

Core_0_L1I_total_access 11122039
Core_0_L1I_total_hit 11117136 L1I_total_Hit Ratio: 0.99956
Core_0_L1I_total_miss 4903
Core_0_L1I_loads 11122039
Core_0_L1I_load_hit 11117136 L1I_load_Hit Ratio: 0.99956
Core_0_L1I_load_miss 4903
Core_0_L1I_RFOs 0
Core_0_L1I_RFO_hit 0 L1I_RFO_Hit Ratio: -nan
Core_0_L1I_RFO_miss 0
Core_0_L1I_prefetches 0
Core_0_L1I_prefetch_hit 0 L1I_prefetch_Hit Ratio: -nan
Core_0_L1I_prefetch_miss 0
Core_0_L1I_writebacks 0
Core_0_L1I_writeback_hit 0 L1I_writeback_Hit Ratio: -nan
Core_0_L1I_writeback_miss 0
Core_0_L1I_prefetch_requested 0
Core_0_L1I_prefetch_issued 0
Core_0_L1I_prefetch_useful 0 L1I_Useful Ratio: -nan
Core_0_L1I_prefetch_useless 0
Core_0_L1I_prefetch_late 0
Core_0_L1I_average_miss_latency 1131.40669

Core_0_L2C_total_access 8401358
Core_0_L2C_total_hit 7676758 L2C_total_Hit Ratio: 0.91375
Core_0_L2C_total_miss 724600
Core_0_L2C_loads 2805477
Core_0_L2C_load_hit 2291474 L2C_load_Hit Ratio: 0.81679
Core_0_L2C_load_miss 514003
Core_0_L2C_RFOs 132285
Core_0_L2C_RFO_hit 895 L2C_RFO_Hit Ratio: 0.00677
Core_0_L2C_RFO_miss 131390
Core_0_L2C_prefetches 4972000
Core_0_L2C_prefetch_hit 4892901 L2C_prefetch_Hit Ratio: 0.98409
Core_0_L2C_prefetch_miss 79099
Core_0_L2C_writebacks 491596
Core_0_L2C_writeback_hit 491488 L2C_writeback_Hit Ratio: 0.99978
Core_0_L2C_writeback_miss 108
Core_0_L2C_prefetch_requested 12724299
Core_0_L2C_prefetch_issued 11802518
Core_0_L2C_prefetch_useful 80483 L2C_Useful Ratio: 0.00682
Core_0_L2C_prefetch_useless 2410
Core_0_L2C_prefetch_late 119908
Core_0_L2C_average_miss_latency 646.20648

Core_0_LLC_total_access 2429957
Core_0_LLC_total_hit 1715182 LLC_total_Hit Ratio: 0.70585
Core_0_LLC_total_miss 714775
Core_0_LLC_loads 394623
Core_0_LLC_load_hit 218323 LLC_load_Hit Ratio: 0.55324
Core_0_LLC_load_miss 176300
Core_0_LLC_RFOs 131390
Core_0_LLC_RFO_hit 153 LLC_RFO_Hit Ratio: 0.00116
Core_0_LLC_RFO_miss 131237
Core_0_LLC_prefetches 1480955
Core_0_LLC_prefetch_hit 1082968 LLC_prefetch_Hit Ratio: 0.73126
Core_0_LLC_prefetch_miss 397987
Core_0_LLC_writebacks 422989
Core_0_LLC_writeback_hit 413738 LLC_writeback_Hit Ratio: 0.97813
Core_0_LLC_writeback_miss 9251
Core_0_LLC_prefetch_requested 0
Core_0_LLC_prefetch_issued 0
Core_0_LLC_prefetch_useful 835549 LLC_Useful Ratio: inf
Core_0_LLC_prefetch_useless 780123
Core_0_LLC_prefetch_late 209657
Core_0_LLC_average_miss_latency 3928.99990

Core_0_major_page_fault 0
Core_0_minor_page_fault 6076

Core_1_instructions 78000001
Core_1_cycles 140332448
Core_1_IPC 0.55582

Core_1_branch_prediction_accuracy 99.13780
Core_1_branch_MPKI 0.25361
Core_1_average_ROB_occupancy_at_mispredict 424.42053

Core_1_L1D_total_access 21577456
Core_1_L1D_total_hit 18644583 L1D_total_Hit Ratio: 0.86408
Core_1_L1D_total_miss 2932873
Core_1_L1D_loads 19448178
Core_1_L1D_load_hit 16647585 L1D_load_Hit Ratio: 0.85600
Core_1_L1D_load_miss 2800593
Core_1_L1D_RFOs 2129278
Core_1_L1D_RFO_hit 1996998 L1D_RFO_Hit Ratio: 0.93788
Core_1_L1D_RFO_miss 132280
Core_1_L1D_prefetches 0
Core_1_L1D_prefetch_hit 0 L1D_prefetch_Hit Ratio: -nan
Core_1_L1D_prefetch_miss 0
Core_1_L1D_writebacks 0
Core_1_L1D_writeback_hit 0 L1D_writeback_Hit Ratio: -nan
Core_1_L1D_writeback_miss 0
Core_1_L1D_prefetch_requested 0
Core_1_L1D_prefetch_issued 0
Core_1_L1D_prefetch_useful 0 L1D_Useful Ratio: -nan
Core_1_L1D_prefetch_useless 0
Core_1_L1D_prefetch_late 0
Core_1_L1D_average_miss_latency 164.11506

Core_1_L1I_total_access 11118675
Core_1_L1I_total_hit 11113770 L1I_total_Hit Ratio: 0.99956
Core_1_L1I_total_miss 4905
Core_1_L1I_loads 11118675
Core_1_L1I_load_hit 11113770 L1I_load_Hit Ratio: 0.99956
Core_1_L1I_load_miss 4905
Core_1_L1I_RFOs 0
Core_1_L1I_RFO_hit 0 L1I_RFO_Hit Ratio: -nan
Core_1_L1I_RFO_miss 0
Core_1_L1I_prefetches 0
Core_1_L1I_prefetch_hit 0 L1I_prefetch_Hit Ratio: -nan
Core_1_L1I_prefetch_miss 0
Core_1_L1I_writebacks 0
Core_1_L1I_writeback_hit 0 L1I_writeback_Hit Ratio: -nan
Core_1_L1I_writeback_miss 0
Core_1_L1I_prefetch_requested 0
Core_1_L1I_prefetch_issued 0
Core_1_L1I_prefetch_useful 0 L1I_Useful Ratio: -nan
Core_1_L1I_prefetch_useless 0
Core_1_L1I_prefetch_late 0
Core_1_L1I_average_miss_latency 1302.04608

Core_1_L2C_total_access 8368736
Core_1_L2C_total_hit 7644141 L2C_total_Hit Ratio: 0.91342
Core_1_L2C_total_miss 724595
Core_1_L2C_loads 2805498
Core_1_L2C_load_hit 2292485 L2C_load_Hit Ratio: 0.81714
Core_1_L2C_load_miss 513013
Core_1_L2C_RFOs 132280
Core_1_L2C_RFO_hit 900 L2C_RFO_Hit Ratio: 0.00680
Core_1_L2C_RFO_miss 131380
Core_1_L2C_prefetches 4939363
Core_1_L2C_prefetch_hit 4859193 L2C_prefetch_Hit Ratio: 0.98377
Core_1_L2C_prefetch_miss 80170
Core_1_L2C_writebacks 491595
Core_1_L2C_writeback_hit 491563 L2C_writeback_Hit Ratio: 0.99993
Core_1_L2C_writeback_miss 32
Core_1_L2C_prefetch_requested 13286284
Core_1_L2C_prefetch_issued 12337220
Core_1_L2C_prefetch_useful 84109 L2C_Useful Ratio: 0.00682
Core_1_L2C_prefetch_useless 2930
Core_1_L2C_prefetch_late 121722
Core_1_L2C_average_miss_latency 627.21199

Core_1_LLC_total_access 2437608
Core_1_LLC_total_hit 1721833 LLC_total_Hit Ratio: 0.70636
Core_1_LLC_total_miss 715775
Core_1_LLC_loads 393390
Core_1_LLC_load_hit 214069 LLC_load_Hit Ratio: 0.54416
Core_1_LLC_load_miss 179321
Core_1_LLC_RFOs 131380
Core_1_LLC_RFO_hit 163 LLC_RFO_Hit Ratio: 0.00124
Core_1_LLC_RFO_miss 131217
Core_1_LLC_prefetches 1490795
Core_1_LLC_prefetch_hit 1095451 LLC_prefetch_Hit Ratio: 0.73481
Core_1_LLC_prefetch_miss 395344
Core_1_LLC_writebacks 422043
Core_1_LLC_writeback_hit 412150 LLC_writeback_Hit Ratio: 0.97656
Core_1_LLC_writeback_miss 9893
Core_1_LLC_prefetch_requested 0
Core_1_LLC_prefetch_issued 0
Core_1_LLC_prefetch_useful 835549 LLC_Useful Ratio: inf
Core_1_LLC_prefetch_useless 780123
Core_1_LLC_prefetch_late 209657
Core_1_LLC_average_miss_latency 3923.51074

Core_1_major_page_fault 0
Core_1_minor_page_fault 6178

Core_2_instructions 78000002
Core_2_cycles 143362706
Core_2_IPC 0.54407

Core_2_branch_prediction_accuracy 99.16542
Core_2_branch_MPKI 0.25491
Core_2_average_ROB_occupancy_at_mispredict 437.89680

Core_2_L1D_total_access 21579545
Core_2_L1D_total_hit 18646676 L1D_total_Hit Ratio: 0.86409
Core_2_L1D_total_miss 2932869
Core_2_L1D_loads 19449665
Core_2_L1D_load_hit 16649068 L1D_load_Hit Ratio: 0.85601
Core_2_L1D_load_miss 2800597
Core_2_L1D_RFOs 2129880
Core_2_L1D_RFO_hit 1997608 L1D_RFO_Hit Ratio: 0.93790
Core_2_L1D_RFO_miss 132272
Core_2_L1D_prefetches 0
Core_2_L1D_prefetch_hit 0 L1D_prefetch_Hit Ratio: -nan
Core_2_L1D_prefetch_miss 0
Core_2_L1D_writebacks 0
Core_2_L1D_writeback_hit 0 L1D_writeback_Hit Ratio: -nan
Core_2_L1D_writeback_miss 0
Core_2_L1D_prefetch_requested 0
Core_2_L1D_prefetch_issued 0
Core_2_L1D_prefetch_useful 0 L1D_Useful Ratio: -nan
Core_2_L1D_prefetch_useless 0
Core_2_L1D_prefetch_late 0
Core_2_L1D_average_miss_latency 168.92593

Core_2_L1I_total_access 11122893
Core_2_L1I_total_hit 11117982 L1I_total_Hit Ratio: 0.99956
Core_2_L1I_total_miss 4911
Core_2_L1I_loads 11122893
Core_2_L1I_load_hit 11117982 L1I_load_Hit Ratio: 0.99956
Core_2_L1I_load_miss 4911
Core_2_L1I_RFOs 0
Core_2_L1I_RFO_hit 0 L1I_RFO_Hit Ratio: -nan
Core_2_L1I_RFO_miss 0
Core_2_L1I_prefetches 0
Core_2_L1I_prefetch_hit 0 L1I_prefetch_Hit Ratio: -nan
Core_2_L1I_prefetch_miss 0
Core_2_L1I_writebacks 0
Core_2_L1I_writeback_hit 0 L1I_writeback_Hit Ratio: -nan
Core_2_L1I_writeback_miss 0
Core_2_L1I_prefetch_requested 0
Core_2_L1I_prefetch_issued 0
Core_2_L1I_prefetch_useful 0 L1I_Useful Ratio: -nan
Core_2_L1I_prefetch_useless 0
Core_2_L1I_prefetch_late 0
Core_2_L1I_average_miss_latency 1052.84382

Core_2_L2C_total_access 8401431
Core_2_L2C_total_hit 7677179 L2C_total_Hit Ratio: 0.91379
Core_2_L2C_total_miss 724252
Core_2_L2C_loads 2805509
Core_2_L2C_load_hit 2291600 L2C_load_Hit Ratio: 0.81682
Core_2_L2C_load_miss 513909
Core_2_L2C_RFOs 132272
Core_2_L2C_RFO_hit 898 L2C_RFO_Hit Ratio: 0.00679
Core_2_L2C_RFO_miss 131374
Core_2_L2C_prefetches 4972053
Core_2_L2C_prefetch_hit 4893205 L2C_prefetch_Hit Ratio: 0.98414
Core_2_L2C_prefetch_miss 78848
Core_2_L2C_writebacks 491597
Core_2_L2C_writeback_hit 491476 L2C_writeback_Hit Ratio: 0.99975
Core_2_L2C_writeback_miss 121
Core_2_L2C_prefetch_requested 12573033
Core_2_L2C_prefetch_issued 11664502
Core_2_L2C_prefetch_useful 79216 L2C_Useful Ratio: 0.00679
Core_2_L2C_prefetch_useless 3663
Core_2_L2C_prefetch_late 120474
Core_2_L2C_average_miss_latency 653.57588

Core_2_LLC_total_access 2416495
Core_2_LLC_total_hit 1699879 LLC_total_Hit Ratio: 0.70345
Core_2_LLC_total_miss 716616
Core_2_LLC_loads 394001
Core_2_LLC_load_hit 217641 LLC_load_Hit Ratio: 0.55239
Core_2_LLC_load_miss 176360
Core_2_LLC_RFOs 131374
Core_2_LLC_RFO_hit 139 LLC_RFO_Hit Ratio: 0.00106
Core_2_LLC_RFO_miss 131235
Core_2_LLC_prefetches 1469898
Core_2_LLC_prefetch_hit 1072680 LLC_prefetch_Hit Ratio: 0.72976
Core_2_LLC_prefetch_miss 397218
Core_2_LLC_writebacks 421222
Core_2_LLC_writeback_hit 409419 LLC_writeback_Hit Ratio: 0.97198
Core_2_LLC_writeback_miss 11803
Core_2_LLC_prefetch_requested 0
Core_2_LLC_prefetch_issued 0
Core_2_LLC_prefetch_useful 835549 LLC_Useful Ratio: inf
Core_2_LLC_prefetch_useless 780123
Core_2_LLC_prefetch_late 209657
Core_2_LLC_average_miss_latency 3918.90622

Core_2_major_page_fault 0
Core_2_minor_page_fault 6067

Core_3_instructions 78000002
Core_3_cycles 143289836
Core_3_IPC 0.54435

Core_3_branch_prediction_accuracy 99.16552
Core_3_branch_MPKI 0.25457
Core_3_average_ROB_occupancy_at_mispredict 437.80465

Core_3_L1D_total_access 21576984
Core_3_L1D_total_hit 18644063 L1D_total_Hit Ratio: 0.86407
Core_3_L1D_total_miss 2932921
Core_3_L1D_loads 19447073
Core_3_L1D_load_hit 16646428 L1D_load_Hit Ratio: 0.85599
Core_3_L1D_load_miss 2800645
Core_3_L1D_RFOs 2129911
Core_3_L1D_RFO_hit 1997635 L1D_RFO_Hit Ratio: 0.93790
Core_3_L1D_RFO_miss 132276
Core_3_L1D_prefetches 0
Core_3_L1D_prefetch_hit 0 L1D_prefetch_Hit Ratio: -nan
Core_3_L1D_prefetch_miss 0
Core_3_L1D_writebacks 0
Core_3_L1D_writeback_hit 0 L1D_writeback_Hit Ratio: -nan
Core_3_L1D_writeback_miss 0
Core_3_L1D_prefetch_requested 0
Core_3_L1D_prefetch_issued 0
Core_3_L1D_prefetch_useful 0 L1D_Useful Ratio: -nan
Core_3_L1D_prefetch_useless 0
Core_3_L1D_prefetch_late 0
Core_3_L1D_average_miss_latency 168.23632

Core_3_L1I_total_access 11121581
Core_3_L1I_total_hit 11116673 L1I_total_Hit Ratio: 0.99956
Core_3_L1I_total_miss 4908
Core_3_L1I_loads 11121581
Core_3_L1I_load_hit 11116673 L1I_load_Hit Ratio: 0.99956
Core_3_L1I_load_miss 4908
Core_3_L1I_RFOs 0
Core_3_L1I_RFO_hit 0 L1I_RFO_Hit Ratio: -nan
Core_3_L1I_RFO_miss 0
Core_3_L1I_prefetches 0
Core_3_L1I_prefetch_hit 0 L1I_prefetch_Hit Ratio: -nan
Core_3_L1I_prefetch_miss 0
Core_3_L1I_writebacks 0
Core_3_L1I_writeback_hit 0 L1I_writeback_Hit Ratio: -nan
Core_3_L1I_writeback_miss 0
Core_3_L1I_prefetch_requested 0
Core_3_L1I_prefetch_issued 0
Core_3_L1I_prefetch_useful 0 L1I_Useful Ratio: -nan
Core_3_L1I_prefetch_useless 0
Core_3_L1I_prefetch_late 0
Core_3_L1I_average_miss_latency 1074.27588

Core_3_L2C_total_access 8390587
Core_3_L2C_total_hit 7660090 L2C_total_Hit Ratio: 0.91294
Core_3_L2C_total_miss 730497
Core_3_L2C_loads 2805553
Core_3_L2C_load_hit 2286508 L2C_load_Hit Ratio: 0.81499
Core_3_L2C_load_miss 519045
Core_3_L2C_RFOs 132276
Core_3_L2C_RFO_hit 866 L2C_RFO_Hit Ratio: 0.00655
Core_3_L2C_RFO_miss 131410
Core_3_L2C_prefetches 4961168
Core_3_L2C_prefetch_hit 4881254 L2C_prefetch_Hit Ratio: 0.98389
Core_3_L2C_prefetch_miss 79914
Core_3_L2C_writebacks 491590
Core_3_L2C_writeback_hit 491462 L2C_writeback_Hit Ratio: 0.99974
Core_3_L2C_writeback_miss 128
Core_3_L2C_prefetch_requested 12610930
Core_3_L2C_prefetch_issued 11693607
Core_3_L2C_prefetch_useful 80671 L2C_Useful Ratio: 0.00690
Core_3_L2C_prefetch_useless 3672
Core_3_L2C_prefetch_late 120158
Core_3_L2C_average_miss_latency 644.24604

Core_3_LLC_total_access 2446123
Core_3_LLC_total_hit 1729020 LLC_total_Hit Ratio: 0.70684
Core_3_LLC_total_miss 717103
Core_3_LLC_loads 399337
Core_3_LLC_load_hit 222684 LLC_load_Hit Ratio: 0.55763
Core_3_LLC_load_miss 176653
Core_3_LLC_RFOs 131410
Core_3_LLC_RFO_hit 173 LLC_RFO_Hit Ratio: 0.00132
Core_3_LLC_RFO_miss 131237
Core_3_LLC_prefetches 1489167
Core_3_LLC_prefetch_hit 1091953 LLC_prefetch_Hit Ratio: 0.73326
Core_3_LLC_prefetch_miss 397214
Core_3_LLC_writebacks 426209
Core_3_LLC_writeback_hit 414210 LLC_writeback_Hit Ratio: 0.97185
Core_3_LLC_writeback_miss 11999
Core_3_LLC_prefetch_requested 0
Core_3_LLC_prefetch_issued 0
Core_3_LLC_prefetch_useful 835549 LLC_Useful Ratio: inf
Core_3_LLC_prefetch_useless 780123
Core_3_LLC_prefetch_late 209657
Core_3_LLC_average_miss_latency 3916.24481

Core_3_major_page_fault 0
Core_3_minor_page_fault 6067

 All Calls: 11706210
 Critical Calls: 11706210
------------------
Depth Distribution
------------------
depth 0: 0
depth 1: 9270141
depth 2: 8632358
depth 3: 7781406
depth 4: 6673368
depth 5: 5024587
depth 6: 3252513
depth 7: 2108448
depth 8: 1574128
depth 9: 1241344
depth 10: 905697
depth 11: 582626
depth 12: 315926
depth 13: 122962
depth 14: 6228
depth 15: 6114
depth 16: 1
depth 17: 0
depth 18: 0
depth 19: 0
depth 20: 0
depth 21: 0
depth 22: 0
depth 23: 0
depth 24: 0
depth 25: 0
depth 26: 0
depth 27: 0
depth 28: 0
depth 29: 0
Total: 47497847
-----------------------------
-----------------------------
	Captured at Filter
-----------------------------
depth 0: 0
depth 1: 1489167
depth 2: 1314110
depth 3: 1168644
depth 4: 877886
depth 5: 604501
depth 6: 283858
depth 7: 79362
depth 8: 22264
depth 9: 10684
depth 10: 6858
depth 11: 4119
depth 12: 2136
depth 13: 713
depth 14: 35
depth 15: 35
depth 16: 0
depth 17: 0
depth 18: 0
depth 19: 0
depth 20: 0
depth 21: 0
depth 22: 0
depth 23: 0
depth 24: 0
depth 25: 0
depth 26: 0
depth 27: 0
depth 28: 0
depth 29: 0
-----------------------------
-----------------------------
		Lost at Page
-----------------------------
depth 0: 0
depth 1: 651623
depth 2: 1116589
depth 3: 1555598
depth 4: 1827879
depth 5: 1842421
depth 6: 1506670
depth 7: 812864
depth 8: 385971
depth 9: 224496
depth 10: 175612
depth 11: 126410
depth 12: 79379
depth 13: 33930
depth 14: 1766
depth 15: 1880
depth 16: 0
depth 17: 0
depth 18: 0
depth 19: 0
depth 20: 0
depth 21: 0
depth 22: 0
depth 23: 0
depth 24: 0
depth 25: 0
depth 26: 0
depth 27: 0
depth 28: 0
depth 29: 0
-----------------------------
-----------------------------
	Lost due to PQ Size
-----------------------------
3696699
-----------------------------
ST read accesses: 11297551
ST write accesses: 232846
PT read accesses: 400210247
PT write accesses: 16765070
FILTER read accesses: 70776907
FILTER write accesses: 11682466
GHR read accesses: 67919098
GHR write accesses: 10305957
GHR counter read accesses: 333929878
GHR counter write accesses: 20544344
ST tag read accesses: 4564918083
ST tag write accesses: 158321998
 All Calls: 11706210
 Critical Calls: 11706210
------------------
Depth Distribution
------------------
depth 0: 0
depth 1: 9270141
depth 2: 8632358
depth 3: 7781406
depth 4: 6673368
depth 5: 5024587
depth 6: 3252513
depth 7: 2108448
depth 8: 1574128
depth 9: 1241344
depth 10: 905697
depth 11: 582626
depth 12: 315926
depth 13: 122962
depth 14: 6228
depth 15: 6114
depth 16: 1
depth 17: 0
depth 18: 0
depth 19: 0
depth 20: 0
depth 21: 0
depth 22: 0
depth 23: 0
depth 24: 0
depth 25: 0
depth 26: 0
depth 27: 0
depth 28: 0
depth 29: 0
Total: 47497847
-----------------------------
-----------------------------
	Captured at Filter
-----------------------------
depth 0: 0
depth 1: 1489167
depth 2: 1314110
depth 3: 1168644
depth 4: 877886
depth 5: 604501
depth 6: 283858
depth 7: 79362
depth 8: 22264
depth 9: 10684
depth 10: 6858
depth 11: 4119
depth 12: 2136
depth 13: 713
depth 14: 35
depth 15: 35
depth 16: 0
depth 17: 0
depth 18: 0
depth 19: 0
depth 20: 0
depth 21: 0
depth 22: 0
depth 23: 0
depth 24: 0
depth 25: 0
depth 26: 0
depth 27: 0
depth 28: 0
depth 29: 0
-----------------------------
-----------------------------
		Lost at Page
-----------------------------
depth 0: 0
depth 1: 651623
depth 2: 1116589
depth 3: 1555598
depth 4: 1827879
depth 5: 1842421
depth 6: 1506670
depth 7: 812864
depth 8: 385971
depth 9: 224496
depth 10: 175612
depth 11: 126410
depth 12: 79379
depth 13: 33930
depth 14: 1766
depth 15: 1880
depth 16: 0
depth 17: 0
depth 18: 0
depth 19: 0
depth 20: 0
depth 21: 0
depth 22: 0
depth 23: 0
depth 24: 0
depth 25: 0
depth 26: 0
depth 27: 0
depth 28: 0
depth 29: 0
-----------------------------
-----------------------------
	Lost due to PQ Size
-----------------------------
3696699
-----------------------------
ST read accesses: 11297551
ST write accesses: 232846
PT read accesses: 400210247
PT write accesses: 16765070
FILTER read accesses: 70776907
FILTER write accesses: 11682466
GHR read accesses: 67919098
GHR write accesses: 10305957
GHR counter read accesses: 333929878
GHR counter write accesses: 20544344
ST tag read accesses: 4564918083
ST tag write accesses: 158321998
 All Calls: 11706210
 Critical Calls: 11706210
------------------
Depth Distribution
------------------
depth 0: 0
depth 1: 9270141
depth 2: 8632358
depth 3: 7781406
depth 4: 6673368
depth 5: 5024587
depth 6: 3252513
depth 7: 2108448
depth 8: 1574128
depth 9: 1241344
depth 10: 905697
depth 11: 582626
depth 12: 315926
depth 13: 122962
depth 14: 6228
depth 15: 6114
depth 16: 1
depth 17: 0
depth 18: 0
depth 19: 0
depth 20: 0
depth 21: 0
depth 22: 0
depth 23: 0
depth 24: 0
depth 25: 0
depth 26: 0
depth 27: 0
depth 28: 0
depth 29: 0
Total: 47497847
-----------------------------
-----------------------------
	Captured at Filter
-----------------------------
depth 0: 0
depth 1: 1489167
depth 2: 1314110
depth 3: 1168644
depth 4: 877886
depth 5: 604501
depth 6: 283858
depth 7: 79362
depth 8: 22264
depth 9: 10684
depth 10: 6858
depth 11: 4119
depth 12: 2136
depth 13: 713
depth 14: 35
depth 15: 35
depth 16: 0
depth 17: 0
depth 18: 0
depth 19: 0
depth 20: 0
depth 21: 0
depth 22: 0
depth 23: 0
depth 24: 0
depth 25: 0
depth 26: 0
depth 27: 0
depth 28: 0
depth 29: 0
-----------------------------
-----------------------------
		Lost at Page
-----------------------------
depth 0: 0
depth 1: 651623
depth 2: 1116589
depth 3: 1555598
depth 4: 1827879
depth 5: 1842421
depth 6: 1506670
depth 7: 812864
depth 8: 385971
depth 9: 224496
depth 10: 175612
depth 11: 126410
depth 12: 79379
depth 13: 33930
depth 14: 1766
depth 15: 1880
depth 16: 0
depth 17: 0
depth 18: 0
depth 19: 0
depth 20: 0
depth 21: 0
depth 22: 0
depth 23: 0
depth 24: 0
depth 25: 0
depth 26: 0
depth 27: 0
depth 28: 0
depth 29: 0
-----------------------------
-----------------------------
	Lost due to PQ Size
-----------------------------
3696699
-----------------------------
ST read accesses: 11297551
ST write accesses: 232846
PT read accesses: 400210247
PT write accesses: 16765070
FILTER read accesses: 70776907
FILTER write accesses: 11682466
GHR read accesses: 67919098
GHR write accesses: 10305957
GHR counter read accesses: 333929878
GHR counter write accesses: 20544344
ST tag read accesses: 4564918083
ST tag write accesses: 158321998
 All Calls: 11706210
 Critical Calls: 11706210
------------------
Depth Distribution
------------------
depth 0: 0
depth 1: 9270141
depth 2: 8632358
depth 3: 7781406
depth 4: 6673368
depth 5: 5024587
depth 6: 3252513
depth 7: 2108448
depth 8: 1574128
depth 9: 1241344
depth 10: 905697
depth 11: 582626
depth 12: 315926
depth 13: 122962
depth 14: 6228
depth 15: 6114
depth 16: 1
depth 17: 0
depth 18: 0
depth 19: 0
depth 20: 0
depth 21: 0
depth 22: 0
depth 23: 0
depth 24: 0
depth 25: 0
depth 26: 0
depth 27: 0
depth 28: 0
depth 29: 0
Total: 47497847
-----------------------------
-----------------------------
	Captured at Filter
-----------------------------
depth 0: 0
depth 1: 1489167
depth 2: 1314110
depth 3: 1168644
depth 4: 877886
depth 5: 604501
depth 6: 283858
depth 7: 79362
depth 8: 22264
depth 9: 10684
depth 10: 6858
depth 11: 4119
depth 12: 2136
depth 13: 713
depth 14: 35
depth 15: 35
depth 16: 0
depth 17: 0
depth 18: 0
depth 19: 0
depth 20: 0
depth 21: 0
depth 22: 0
depth 23: 0
depth 24: 0
depth 25: 0
depth 26: 0
depth 27: 0
depth 28: 0
depth 29: 0
-----------------------------
-----------------------------
		Lost at Page
-----------------------------
depth 0: 0
depth 1: 651623
depth 2: 1116589
depth 3: 1555598
depth 4: 1827879
depth 5: 1842421
depth 6: 1506670
depth 7: 812864
depth 8: 385971
depth 9: 224496
depth 10: 175612
depth 11: 126410
depth 12: 79379
depth 13: 33930
depth 14: 1766
depth 15: 1880
depth 16: 0
depth 17: 0
depth 18: 0
depth 19: 0
depth 20: 0
depth 21: 0
depth 22: 0
depth 23: 0
depth 24: 0
depth 25: 0
depth 26: 0
depth 27: 0
depth 28: 0
depth 29: 0
-----------------------------
-----------------------------
	Lost due to PQ Size
-----------------------------
3696699
-----------------------------
ST read accesses: 11297551
ST write accesses: 232846
PT read accesses: 400210247
PT write accesses: 16765070
FILTER read accesses: 70776907
FILTER write accesses: 11682466
GHR read accesses: 67919098
GHR write accesses: 10305957
GHR counter read accesses: 333929878
GHR counter write accesses: 20544344
ST tag read accesses: 4564918083
ST tag write accesses: 158321998
Channel_0_RQ_row_buffer_hit 1159916
Channel_0_RQ_row_buffer_miss 1693736
Channel_0_WQ_row_buffer_hit 531220
Channel_0_WQ_row_buffer_miss 1106098
Channel_0_WQ_full 2250
Channel_0_dbus_congested 2982862

avg_congested_cycle 11

EzSearch AVG IPC :0.54574: L2-Pf-HR :0.98409 : L2-HR :0.91438 Uful:0.00682
EzSearch AVG IPC :0.55582: L2-Pf-HR :0.98377 : L2-HR :0.91655 Uful:0.00682
EzSearch AVG IPC :0.54407: L2-Pf-HR :0.98414 : L2-HR :0.91379 Uful:0.00679
EzSearch AVG IPC :0.54435: L2-Pf-HR :0.98389 : L2-HR :0.91311 Uful:0.00690
     > Finished combination: TraceType=770-tot Sim:78000000 Prefetcher=L2spp_berti_src L1=no
