TRACE: [331000000][Pythia-70M]_[h8][s1024][d64] Warmup: 2000000 NumTraces: 331000000
L1:next_line:L2:029-SecTOP-L2-MultiMarkovDelta_ip_stride_v4-IPStrS256
*************************************************
   ChampSim Multicore Out-of-Order Simulator
   Last compiled: Oct 29 2024 17:00:20
*************************************************

trace_0 770-tot_memTraces_v3_rexz/memTraces[331000000][Pythia-70M]_[h8][s1024][d64].champsim.9.xz
trace_1 770-tot_memTraces_v3_rexz/memTraces[331000000][Pythia-70M]_[h8][s1024][d64].champsim.9.xz
trace_2 770-tot_memTraces_v3_rexz/memTraces[331000000][Pythia-70M]_[h8][s1024][d64].champsim.9.xz
trace_3 770-tot_memTraces_v3_rexz/memTraces[331000000][Pythia-70M]_[h8][s1024][d64].champsim.9.xz
CPU 0 L1D next line prefetcher
MK1: Size: 128 TMAX: 64 TMIN: 32 MKPTHRESH: 40
MK2: Size: 256 TMAX: 32 TMIN: 16 MK2PTHRESH: 30
MK3: Size: 384 TMAX: 16 TMIN: 8 MK3PTHRESH: 25
MK4: Size: 512 TMAX: 8 TMIN: 0 MK4PTHRESH: 20
Stride Size: 256 Prefetch Degree: 15

CPU 0 L2C prefetcher
CPU 1 L1D next line prefetcher
MK1: Size: 128 TMAX: 64 TMIN: 32 MKPTHRESH: 40
MK2: Size: 256 TMAX: 32 TMIN: 16 MK2PTHRESH: 30
MK3: Size: 384 TMAX: 16 TMIN: 8 MK3PTHRESH: 25
MK4: Size: 512 TMAX: 8 TMIN: 0 MK4PTHRESH: 20
Stride Size: 256 Prefetch Degree: 15

CPU 1 L2C prefetcher
CPU 2 L1D next line prefetcher
MK1: Size: 128 TMAX: 64 TMIN: 32 MKPTHRESH: 40
MK2: Size: 256 TMAX: 32 TMIN: 16 MK2PTHRESH: 30
MK3: Size: 384 TMAX: 16 TMIN: 8 MK3PTHRESH: 25
MK4: Size: 512 TMAX: 8 TMIN: 0 MK4PTHRESH: 20
Stride Size: 256 Prefetch Degree: 15

CPU 2 L2C prefetcher
CPU 3 L1D next line prefetcher
MK1: Size: 128 TMAX: 64 TMIN: 32 MKPTHRESH: 40
MK2: Size: 256 TMAX: 32 TMIN: 16 MK2PTHRESH: 30
MK3: Size: 384 TMAX: 16 TMIN: 8 MK3PTHRESH: 25
MK4: Size: 512 TMAX: 8 TMIN: 0 MK4PTHRESH: 20
Stride Size: 256 Prefetch Degree: 15

CPU 3 L2C prefetcher
MAIN.cc ln 751 stats print skipped
CPU 0 L2C prefetcher initialized


Cache Size: 1280
number of cache lines: 20480
CPU  3 inst:    1000000 cyc:     502613 now IPC :1.98960: AVG IPC :1.98960: L2-Pf-HR :0.70995: L2-HR :0.70567: (Sim:0h0m49s) 
CPU  1 inst:    1000000 cyc:     502734 now IPC :1.98912: AVG IPC :1.98912: L2-Pf-HR :0.71721: L2-HR :0.70813: (Sim:0h0m49s) 
CPU  0 inst:    1000000 cyc:     502849 now IPC :1.98867: AVG IPC :1.98867: L2-Pf-HR :0.71590: L2-HR :0.70873: (Sim:0h0m49s) 
CPU  2 inst:    1000000 cyc:     503007 now IPC :1.98804: AVG IPC :1.98804: L2-Pf-HR :0.71944: L2-HR :0.71083: (Sim:0h0m49s) 
CPU  3 inst:    2000003 cyc:     986605 now IPC :2.06616: AVG IPC :2.02716: L2-Pf-HR :0.76683: L2-HR :0.75963: (Sim:0h1m42s) 
CPU  1 inst:    2000003 cyc:     986688 now IPC :2.06632: AVG IPC :2.02699: L2-Pf-HR :0.76962: L2-HR :0.75840: (Sim:0h1m42s) 
CPU  0 inst:    2000003 cyc:     986832 now IPC :2.06619: AVG IPC :2.02669: L2-Pf-HR :0.76747: L2-HR :0.75937: (Sim:0h1m42s) 
CPU  2 inst:    2000003 cyc:     987007 now IPC :2.06612: AVG IPC :2.02633: L2-Pf-HR :0.76809: L2-HR :0.75949: (Sim:0h1m42s) 

Warmup complete CPU  0 instructions:    2000383 cycles:     987007 (Simulation time: 0 hr 1 min 42 sec) 
Warmup complete CPU  1 instructions:    2000765 cycles:     987007 (Simulation time: 0 hr 1 min 42 sec) 
Warmup complete CPU  2 instructions:    2000003 cycles:     987007 (Simulation time: 0 hr 1 min 42 sec) 
Warmup complete CPU  3 instructions:    2000913 cycles:     987006 (Simulation time: 0 hr 1 min 42 sec) 

CPU  3 inst:    3000004 cyc:    1501228 now IPC :1.94317: AVG IPC :1.94292: L2-Pf-HR :0.76475: L2-HR :0.76085: (Sim:0h2m23s) 
CPU  0 inst:    3000004 cyc:    1503041 now IPC :1.93720: AVG IPC :1.93712: L2-Pf-HR :0.75383: L2-HR :0.75099: (Sim:0h2m24s) 
CPU  2 inst:    3000004 cyc:    1503375 now IPC :1.93661: AVG IPC :1.93661: L2-Pf-HR :0.75313: L2-HR :0.75470: (Sim:0h2m24s) 
CPU  1 inst:    3000004 cyc:    1504351 now IPC :1.93176: AVG IPC :1.93148: L2-Pf-HR :0.76206: L2-HR :0.75390: (Sim:0h2m24s) 
CPU  3 inst:    4000002 cyc:    2006728 now IPC :1.97824: AVG IPC :1.96043: L2-Pf-HR :0.76375: L2-HR :0.76030: (Sim:0h3m4s) 
CPU  2 inst:    4000002 cyc:    2009780 now IPC :1.97470: AVG IPC :1.95547: L2-Pf-HR :0.74670: L2-HR :0.75034: (Sim:0h3m4s) 
CPU  1 inst:    4000002 cyc:    2011811 now IPC :1.97059: AVG IPC :1.95085: L2-Pf-HR :0.75636: L2-HR :0.75102: (Sim:0h3m5s) 
CPU  0 inst:    4000002 cyc:    2012337 now IPC :1.96349: AVG IPC :1.95022: L2-Pf-HR :0.74578: L2-HR :0.74553: (Sim:0h3m5s) 
CPU  3 inst:    5000000 cyc:    2517199 now IPC :1.95897: AVG IPC :1.95994: L2-Pf-HR :0.77058: L2-HR :0.76497: (Sim:0h3m45s) 
CPU  2 inst:    5000000 cyc:    2518944 now IPC :1.96400: AVG IPC :1.95830: L2-Pf-HR :0.75623: L2-HR :0.75644: (Sim:0h3m45s) 
CPU  0 inst:    5000000 cyc:    2520200 now IPC :1.96903: AVG IPC :1.95645: L2-Pf-HR :0.75292: L2-HR :0.75032: (Sim:0h3m45s) 
CPU  1 inst:    5000000 cyc:    2526198 now IPC :1.94406: AVG IPC :1.94858: L2-Pf-HR :0.76364: L2-HR :0.75567: (Sim:0h3m46s) 
CPU  3 inst:    6000005 cyc:    3018493 now IPC :1.99485: AVG IPC :1.96855: L2-Pf-HR :0.78367: L2-HR :0.77384: (Sim:0h4m26s) 
CPU  0 inst:    6000005 cyc:    3020464 now IPC :1.99895: AVG IPC :1.96691: L2-Pf-HR :0.76686: L2-HR :0.75989: (Sim:0h4m26s) 
CPU  2 inst:    6000005 cyc:    3021035 now IPC :1.99168: AVG IPC :1.96654: L2-Pf-HR :0.76966: L2-HR :0.76513: (Sim:0h4m26s) 
CPU  1 inst:    6000005 cyc:    3024944 now IPC :2.00504: AVG IPC :1.96240: L2-Pf-HR :0.77694: L2-HR :0.76471: (Sim:0h4m26s) 
CPU  3 inst:    7000004 cyc:    4086216 now IPC :0.93657: AVG IPC :1.61302: L2-Pf-HR :0.78620: L2-HR :0.77624: (Sim:0h5m15s) 
CPU  2 inst:    7000004 cyc:    4088979 now IPC :0.93638: AVG IPC :1.61188: L2-Pf-HR :0.77622: L2-HR :0.77033: (Sim:0h5m16s) 
CPU  0 inst:    7000004 cyc:    4089289 now IPC :0.93561: AVG IPC :1.61159: L2-Pf-HR :0.77153: L2-HR :0.76404: (Sim:0h5m16s) 
CPU  1 inst:    7000004 cyc:    4104998 now IPC :0.92588: AVG IPC :1.60335: L2-Pf-HR :0.78143: L2-HR :0.76953: (Sim:0h5m17s) 
CPU  2 inst:    8000000 cyc:    4690579 now IPC :1.66223: AVG IPC :1.62006: L2-Pf-HR :0.78244: L2-HR :0.77571: (Sim:0h6m0s) 
CPU  0 inst:    8000001 cyc:    4696795 now IPC :1.64607: AVG IPC :1.61724: L2-Pf-HR :0.77753: L2-HR :0.76959: (Sim:0h6m1s) 
CPU  1 inst:    8000000 cyc:    4702158 now IPC :1.67459: AVG IPC :1.61480: L2-Pf-HR :0.78747: L2-HR :0.77595: (Sim:0h6m1s) 
CPU  3 inst:    8000000 cyc:    4709499 now IPC :1.60440: AVG IPC :1.61158: L2-Pf-HR :0.78836: L2-HR :0.77873: (Sim:0h6m2s) 
CPU  1 inst:    9000001 cyc:    5321543 now IPC :1.61451: AVG IPC :1.61476: L2-Pf-HR :0.79008: L2-HR :0.77933: (Sim:0h6m45s) 
CPU  3 inst:    9000001 cyc:    5324135 now IPC :1.62698: AVG IPC :1.61376: L2-Pf-HR :0.78870: L2-HR :0.77957: (Sim:0h6m45s) 
CPU  2 inst:    9000001 cyc:    5330443 now IPC :1.56283: AVG IPC :1.61163: L2-Pf-HR :0.78531: L2-HR :0.77859: (Sim:0h6m45s) 
CPU  0 inst:    9000001 cyc:    5331393 now IPC :1.57580: AVG IPC :1.61119: L2-Pf-HR :0.77964: L2-HR :0.77199: (Sim:0h6m45s) 
CPU  3 inst:   10000001 cyc:    5945322 now IPC :1.60982: AVG IPC :1.61327: L2-Pf-HR :0.79223: L2-HR :0.78279: (Sim:0h7m29s) 
CPU  1 inst:   10000001 cyc:    5957820 now IPC :1.57164: AVG IPC :1.60924: L2-Pf-HR :0.79544: L2-HR :0.78475: (Sim:0h7m30s) 
CPU  2 inst:   10000001 cyc:    5958937 now IPC :1.59111: AVG IPC :1.60903: L2-Pf-HR :0.79054: L2-HR :0.78312: (Sim:0h7m30s) 
CPU  0 inst:   10000001 cyc:    5961417 now IPC :1.58724: AVG IPC :1.60815: L2-Pf-HR :0.78416: L2-HR :0.77616: (Sim:0h7m30s) 
CPU  0 inst:   11000002 cyc:    6546161 now IPC :1.71015: AVG IPC :1.61888: L2-Pf-HR :0.78978: L2-HR :0.78062: (Sim:0h8m12s) 
CPU  2 inst:   11000002 cyc:    6550191 now IPC :1.69132: AVG IPC :1.61778: L2-Pf-HR :0.79624: L2-HR :0.78786: (Sim:0h8m12s) 
CPU  3 inst:   11000002 cyc:    6555651 now IPC :1.63846: AVG IPC :1.61603: L2-Pf-HR :0.79654: L2-HR :0.78647: (Sim:0h8m13s) 
CPU  1 inst:   11000002 cyc:    6556715 now IPC :1.66974: AVG IPC :1.61575: L2-Pf-HR :0.80110: L2-HR :0.78991: (Sim:0h8m13s) 
CPU  1 inst:   12000005 cyc:    7049330 now IPC :2.02999: AVG IPC :1.64941: L2-Pf-HR :0.80668: L2-HR :0.79451: (Sim:0h8m53s) 
CPU  0 inst:   12000005 cyc:    7050908 now IPC :1.98120: AVG IPC :1.64904: L2-Pf-HR :0.79549: L2-HR :0.78523: (Sim:0h8m53s) 
CPU  2 inst:   12000005 cyc:    7053912 now IPC :1.98523: AVG IPC :1.64829: L2-Pf-HR :0.80161: L2-HR :0.79226: (Sim:0h8m54s) 
CPU  3 inst:   12000005 cyc:    7063066 now IPC :1.97078: AVG IPC :1.64565: L2-Pf-HR :0.80131: L2-HR :0.79033: (Sim:0h8m55s) 
CPU  0 inst:   13000001 cyc:    8376159 now IPC :0.75457: AVG IPC :1.48862: L2-Pf-HR :0.80107: L2-HR :0.79172: (Sim:0h9m54s) 
CPU  3 inst:   13000001 cyc:    8380248 now IPC :0.75919: AVG IPC :1.48772: L2-Pf-HR :0.80680: L2-HR :0.79693: (Sim:0h9m55s) 
CPU  1 inst:   13000004 cyc:    8389974 now IPC :0.74591: AVG IPC :1.48579: L2-Pf-HR :0.81172: L2-HR :0.80117: (Sim:0h9m55s) 
CPU  2 inst:   13000001 cyc:    8408907 now IPC :0.73801: AVG IPC :1.48210: L2-Pf-HR :0.80672: L2-HR :0.79838: (Sim:0h9m56s) 
CPU  1 inst:   14000004 cyc:    9182895 now IPC :1.26116: AVG IPC :1.46406: L2-Pf-HR :0.81796: L2-HR :0.80998: (Sim:0h10m46s) 
CPU  3 inst:   14000004 cyc:    9182952 now IPC :1.24579: AVG IPC :1.46403: L2-Pf-HR :0.81295: L2-HR :0.80528: (Sim:0h10m46s) 
CPU  0 inst:   14000002 cyc:    9189813 now IPC :1.22902: AVG IPC :1.46287: L2-Pf-HR :0.80760: L2-HR :0.79998: (Sim:0h10m46s) 
CPU  2 inst:   14000003 cyc:    9196850 now IPC :1.26913: AVG IPC :1.46166: L2-Pf-HR :0.81272: L2-HR :0.80650: (Sim:0h10m46s) 
CPU  1 inst:   15000005 cyc:   10013653 now IPC :1.20372: AVG IPC :1.44010: L2-Pf-HR :0.82408: L2-HR :0.81828: (Sim:0h11m24s) 
CPU  3 inst:   15000005 cyc:   10030547 now IPC :1.17981: AVG IPC :1.43739: L2-Pf-HR :0.81848: L2-HR :0.81262: (Sim:0h11m25s) 
CPU  2 inst:   15000005 cyc:   10034239 now IPC :1.19419: AVG IPC :1.43690: L2-Pf-HR :0.81810: L2-HR :0.81359: (Sim:0h11m26s) 
CPU  0 inst:   15000005 cyc:   10051345 now IPC :1.16073: AVG IPC :1.43415: L2-Pf-HR :0.81368: L2-HR :0.80757: (Sim:0h11m27s) 
CPU  0 inst:   16000000 cyc:   10717981 now IPC :1.50006: AVG IPC :1.43867: L2-Pf-HR :0.81981: L2-HR :0.81466: (Sim:0h12m13s) 
CPU  1 inst:   16000000 cyc:   10725175 now IPC :1.40543: AVG IPC :1.43756: L2-Pf-HR :0.83070: L2-HR :0.82611: (Sim:0h12m14s) 
CPU  2 inst:   16000000 cyc:   10726777 now IPC :1.44396: AVG IPC :1.43741: L2-Pf-HR :0.82415: L2-HR :0.82070: (Sim:0h12m14s) 
CPU  3 inst:   16000000 cyc:   10736983 now IPC :1.41555: AVG IPC :1.43581: L2-Pf-HR :0.82489: L2-HR :0.82019: (Sim:0h12m15s) 
CPU  0 inst:   17000002 cyc:   12680307 now IPC :0.50960: AVG IPC :1.28275: L2-Pf-HR :0.82058: L2-HR :0.81464: (Sim:0h13m25s) 
CPU  1 inst:   17000001 cyc:   12689957 now IPC :0.50896: AVG IPC :1.28166: L2-Pf-HR :0.83063: L2-HR :0.82555: (Sim:0h13m26s) 
CPU  3 inst:   17000001 cyc:   12696072 now IPC :0.51044: AVG IPC :1.28098: L2-Pf-HR :0.82509: L2-HR :0.81992: (Sim:0h13m26s) 
CPU  2 inst:   17000001 cyc:   12729384 now IPC :0.49935: AVG IPC :1.27742: L2-Pf-HR :0.82494: L2-HR :0.82054: (Sim:0h13m28s) 
CPU  2 inst:   18000000 cyc:   13630361 now IPC :1.10991: AVG IPC :1.26549: L2-Pf-HR :0.82512: L2-HR :0.81949: (Sim:0h14m21s) 
CPU  0 inst:   18000000 cyc:   13637127 now IPC :1.04513: AVG IPC :1.26478: L2-Pf-HR :0.82045: L2-HR :0.81351: (Sim:0h14m21s) 
CPU  1 inst:   18000000 cyc:   13639157 now IPC :1.05352: AVG IPC :1.26455: L2-Pf-HR :0.82982: L2-HR :0.82430: (Sim:0h14m21s) 
CPU  3 inst:   18000000 cyc:   13647187 now IPC :1.05140: AVG IPC :1.26373: L2-Pf-HR :0.82481: L2-HR :0.81917: (Sim:0h14m22s) 
CPU  3 inst:   19000001 cyc:   14700227 now IPC :0.94963: AVG IPC :1.23961: L2-Pf-HR :0.82429: L2-HR :0.81833: (Sim:0h15m19s) 
CPU  2 inst:   19000001 cyc:   14707167 now IPC :0.92867: AVG IPC :1.23905: L2-Pf-HR :0.82538: L2-HR :0.81876: (Sim:0h15m19s) 
CPU  1 inst:   19000001 cyc:   14720682 now IPC :0.92462: AVG IPC :1.23778: L2-Pf-HR :0.82938: L2-HR :0.82344: (Sim:0h15m20s) 
CPU  0 inst:   19000001 cyc:   14769860 now IPC :0.88282: AVG IPC :1.23339: L2-Pf-HR :0.82054: L2-HR :0.81273: (Sim:0h15m23s) 
CPU  3 inst:   20000004 cyc:   15764098 now IPC :0.93997: AVG IPC :1.21804: L2-Pf-HR :0.82438: L2-HR :0.81810: (Sim:0h16m15s) 
CPU  2 inst:   20000004 cyc:   15773862 now IPC :0.93748: AVG IPC :1.21730: L2-Pf-HR :0.82564: L2-HR :0.81813: (Sim:0h16m16s) 
CPU  0 inst:   20000004 cyc:   15813181 now IPC :0.95848: AVG IPC :1.21404: L2-Pf-HR :0.82078: L2-HR :0.81218: (Sim:0h16m18s) 
CPU  1 inst:   20000004 cyc:   15821113 now IPC :0.90874: AVG IPC :1.21337: L2-Pf-HR :0.82890: L2-HR :0.82265: (Sim:0h16m18s) 
CPU  3 inst:   21000003 cyc:   16836543 now IPC :0.93245: AVG IPC :1.19872: L2-Pf-HR :0.82422: L2-HR :0.81762: (Sim:0h17m14s) 
CPU  2 inst:   21000003 cyc:   16837061 now IPC :0.94056: AVG IPC :1.19873: L2-Pf-HR :0.82576: L2-HR :0.81741: (Sim:0h17m14s) 
CPU  1 inst:   21000000 cyc:   16839259 now IPC :0.98217: AVG IPC :1.19852: L2-Pf-HR :0.82840: L2-HR :0.82184: (Sim:0h17m14s) 
CPU  0 inst:   21000003 cyc:   16853078 now IPC :0.96163: AVG IPC :1.19750: L2-Pf-HR :0.82049: L2-HR :0.81123: (Sim:0h17m15s) 
CPU  1 inst:   22000000 cyc:   17653618 now IPC :1.22796: AVG IPC :1.19996: L2-Pf-HR :0.82855: L2-HR :0.82152: (Sim:0h18m6s) 
CPU  0 inst:   22000000 cyc:   17654595 now IPC :1.24763: AVG IPC :1.19991: L2-Pf-HR :0.82095: L2-HR :0.81098: (Sim:0h18m6s) 
CPU  2 inst:   22000000 cyc:   17655215 now IPC :1.22226: AVG IPC :1.19989: L2-Pf-HR :0.82620: L2-HR :0.81692: (Sim:0h18m7s) 
CPU  3 inst:   22000000 cyc:   17655746 now IPC :1.22070: AVG IPC :1.19980: L2-Pf-HR :0.82456: L2-HR :0.81764: (Sim:0h18m7s) 
CPU  1 inst:   23000005 cyc:   19339806 now IPC :0.59306: AVG IPC :1.14420: L2-Pf-HR :0.82840: L2-HR :0.82083: (Sim:0h19m15s) 
CPU  2 inst:   23000005 cyc:   19358062 now IPC :0.58725: AVG IPC :1.14310: L2-Pf-HR :0.82601: L2-HR :0.81610: (Sim:0h19m16s) 
CPU  0 inst:   23000005 cyc:   19361273 now IPC :0.58594: AVG IPC :1.14288: L2-Pf-HR :0.82126: L2-HR :0.81075: (Sim:0h19m16s) 
CPU  3 inst:   23000005 cyc:   19361346 now IPC :0.58631: AVG IPC :1.14285: L2-Pf-HR :0.82473: L2-HR :0.81718: (Sim:0h19m16s) 
CPU  1 inst:   24000002 cyc:   20188316 now IPC :1.17853: AVG IPC :1.14572: L2-Pf-HR :0.82920: L2-HR :0.82124: (Sim:0h20m6s) 
CPU  0 inst:   24000005 cyc:   20196041 now IPC :1.19794: AVG IPC :1.14527: L2-Pf-HR :0.82195: L2-HR :0.81130: (Sim:0h20m6s) 
CPU  2 inst:   24000005 cyc:   20204116 now IPC :1.18196: AVG IPC :1.14481: L2-Pf-HR :0.82641: L2-HR :0.81599: (Sim:0h20m7s) 
CPU  3 inst:   24000002 cyc:   20276190 now IPC :1.09308: AVG IPC :1.14049: L2-Pf-HR :0.82523: L2-HR :0.81731: (Sim:0h20m11s) 
CPU  0 inst:   25000002 cyc:   21074259 now IPC :1.13867: AVG IPC :1.14499: L2-Pf-HR :0.82274: L2-HR :0.81197: (Sim:0h20m58s) 
CPU  1 inst:   25000005 cyc:   21084875 now IPC :1.11538: AVG IPC :1.14436: L2-Pf-HR :0.82963: L2-HR :0.82136: (Sim:0h20m58s) 
CPU  3 inst:   25000002 cyc:   21097127 now IPC :1.21812: AVG IPC :1.14366: L2-Pf-HR :0.82563: L2-HR :0.81745: (Sim:0h20m59s) 
CPU  2 inst:   25000002 cyc:   21097269 now IPC :1.11963: AVG IPC :1.14369: L2-Pf-HR :0.82668: L2-HR :0.81590: (Sim:0h20m59s) 
CPU  2 inst:   26000005 cyc:   21919817 now IPC :1.21574: AVG IPC :1.14653: L2-Pf-HR :0.82703: L2-HR :0.81583: (Sim:0h21m49s) 
CPU  3 inst:   26000004 cyc:   21930660 now IPC :1.19971: AVG IPC :1.14589: L2-Pf-HR :0.82567: L2-HR :0.81735: (Sim:0h21m50s) 
CPU  1 inst:   26000005 cyc:   21936104 now IPC :1.17477: AVG IPC :1.14560: L2-Pf-HR :0.83029: L2-HR :0.82153: (Sim:0h21m50s) 
CPU  0 inst:   26000004 cyc:   21955203 now IPC :1.13515: AVG IPC :1.14457: L2-Pf-HR :0.82290: L2-HR :0.81206: (Sim:0h21m51s) 
CPU  2 inst:   27000005 cyc:   22820271 now IPC :1.11055: AVG IPC :1.14504: L2-Pf-HR :0.82666: L2-HR :0.81532: (Sim:0h22m42s) 
CPU  0 inst:   27000005 cyc:   22823974 now IPC :1.15105: AVG IPC :1.14483: L2-Pf-HR :0.82285: L2-HR :0.81205: (Sim:0h22m42s) 
CPU  3 inst:   27000005 cyc:   22841055 now IPC :1.09843: AVG IPC :1.14391: L2-Pf-HR :0.82533: L2-HR :0.81697: (Sim:0h22m43s) 
CPU  1 inst:   27000005 cyc:   22843304 now IPC :1.10229: AVG IPC :1.14380: L2-Pf-HR :0.83016: L2-HR :0.82131: (Sim:0h22m43s) 
CPU  0 inst:   28000003 cyc:   23453244 now IPC :1.58914: AVG IPC :1.15728: L2-Pf-HR :0.82315: L2-HR :0.81232: (Sim:0h23m28s) 
CPU  1 inst:   28000003 cyc:   23453332 now IPC :1.63927: AVG IPC :1.15725: L2-Pf-HR :0.83066: L2-HR :0.82151: (Sim:0h23m28s) 
CPU  2 inst:   28000003 cyc:   23454914 now IPC :1.57569: AVG IPC :1.15721: L2-Pf-HR :0.82683: L2-HR :0.81511: (Sim:0h23m28s) 
CPU  3 inst:   28000003 cyc:   23468990 now IPC :1.59252: AVG IPC :1.15644: L2-Pf-HR :0.82563: L2-HR :0.81699: (Sim:0h23m30s) 
CPU  3 inst:   29000002 cyc:   24753225 now IPC :0.77867: AVG IPC :1.13603: L2-Pf-HR :0.82756: L2-HR :0.81889: (Sim:0h24m29s) 
CPU  2 inst:   29000002 cyc:   24753974 now IPC :0.76979: AVG IPC :1.13603: L2-Pf-HR :0.82808: L2-HR :0.81645: (Sim:0h24m29s) 
CPU  0 inst:   29000002 cyc:   24754124 now IPC :0.76871: AVG IPC :1.13601: L2-Pf-HR :0.82447: L2-HR :0.81367: (Sim:0h24m29s) 
CPU  1 inst:   29000002 cyc:   24754886 now IPC :0.76831: AVG IPC :1.13595: L2-Pf-HR :0.83202: L2-HR :0.82290: (Sim:0h24m29s) 
CPU  3 inst:   30000003 cyc:   25560605 now IPC :1.23858: AVG IPC :1.13940: L2-Pf-HR :0.82982: L2-HR :0.82181: (Sim:0h25m21s) 
CPU  1 inst:   30000005 cyc:   25569259 now IPC :1.22794: AVG IPC :1.13900: L2-Pf-HR :0.83411: L2-HR :0.82562: (Sim:0h25m21s) 
CPU  2 inst:   30000003 cyc:   25572932 now IPC :1.22107: AVG IPC :1.13886: L2-Pf-HR :0.82990: L2-HR :0.81900: (Sim:0h25m21s) 
CPU  0 inst:   30000002 cyc:   25574938 now IPC :1.21830: AVG IPC :1.13875: L2-Pf-HR :0.82599: L2-HR :0.81578: (Sim:0h25m21s) 
CPU  2 inst:   31000005 cyc:   26446643 now IPC :1.14455: AVG IPC :1.13906: L2-Pf-HR :0.83153: L2-HR :0.82135: (Sim:0h26m15s) 
CPU  1 inst:   31000005 cyc:   26449292 now IPC :1.13632: AVG IPC :1.13891: L2-Pf-HR :0.83599: L2-HR :0.82823: (Sim:0h26m15s) 
CPU  0 inst:   31000005 cyc:   26451719 now IPC :1.14054: AVG IPC :1.13882: L2-Pf-HR :0.82756: L2-HR :0.81788: (Sim:0h26m15s) 
CPU  3 inst:   31000000 cyc:   26455495 now IPC :1.11745: AVG IPC :1.13863: L2-Pf-HR :0.83187: L2-HR :0.82452: (Sim:0h26m15s) 
CPU  3 inst:   32000002 cyc:   27216923 now IPC :1.31332: AVG IPC :1.14370: L2-Pf-HR :0.83411: L2-HR :0.82729: (Sim:0h26m56s) 
CPU  0 inst:   32000001 cyc:   27219784 now IPC :1.30197: AVG IPC :1.14359: L2-Pf-HR :0.82932: L2-HR :0.82006: (Sim:0h26m56s) 
CPU  2 inst:   32000000 cyc:   27224234 now IPC :1.28602: AVG IPC :1.14341: L2-Pf-HR :0.83347: L2-HR :0.82390: (Sim:0h26m57s) 
CPU  1 inst:   32000002 cyc:   27225152 now IPC :1.28889: AVG IPC :1.14334: L2-Pf-HR :0.83820: L2-HR :0.83092: (Sim:0h26m57s) 
CPU  0 inst:   33000005 cyc:   29034489 now IPC :0.55106: AVG IPC :1.10526: L2-Pf-HR :0.82982: L2-HR :0.82035: (Sim:0h28m7s) 
CPU  3 inst:   33000005 cyc:   29041921 now IPC :0.54795: AVG IPC :1.10494: L2-Pf-HR :0.83439: L2-HR :0.82728: (Sim:0h28m7s) 
CPU  1 inst:   33000005 cyc:   29044529 now IPC :0.54964: AVG IPC :1.10485: L2-Pf-HR :0.83863: L2-HR :0.83107: (Sim:0h28m7s) 
CPU  2 inst:   33000005 cyc:   29058555 now IPC :0.54516: AVG IPC :1.10432: L2-Pf-HR :0.83382: L2-HR :0.82410: (Sim:0h28m8s) 
CPU  2 inst:   34000002 cyc:   30034132 now IPC :1.02503: AVG IPC :1.10166: L2-Pf-HR :0.83349: L2-HR :0.82371: (Sim:0h29m1s) 
CPU  0 inst:   34000002 cyc:   30034971 now IPC :0.99952: AVG IPC :1.10161: L2-Pf-HR :0.82956: L2-HR :0.82000: (Sim:0h29m1s) 
CPU  3 inst:   34000002 cyc:   30036156 now IPC :1.00580: AVG IPC :1.10155: L2-Pf-HR :0.83394: L2-HR :0.82654: (Sim:0h29m1s) 
CPU  1 inst:   34000002 cyc:   30036493 now IPC :1.00810: AVG IPC :1.10154: L2-Pf-HR :0.83804: L2-HR :0.83029: (Sim:0h29m1s) 
CPU  1 inst:   35000003 cyc:   31077526 now IPC :0.96059: AVG IPC :1.09667: L2-Pf-HR :0.83752: L2-HR :0.82958: (Sim:0h29m56s) 
CPU  0 inst:   35000005 cyc:   31086100 now IPC :0.95136: AVG IPC :1.09637: L2-Pf-HR :0.82940: L2-HR :0.81973: (Sim:0h29m57s) 
CPU  2 inst:   35000004 cyc:   31087510 now IPC :0.94933: AVG IPC :1.09633: L2-Pf-HR :0.83303: L2-HR :0.82321: (Sim:0h29m57s) 
CPU  3 inst:   35000005 cyc:   31120426 now IPC :0.92228: AVG IPC :1.09510: L2-Pf-HR :0.83348: L2-HR :0.82588: (Sim:0h29m58s) 
CPU  0 inst:   36000004 cyc:   32106737 now IPC :0.97978: AVG IPC :1.09254: L2-Pf-HR :0.82918: L2-HR :0.81936: (Sim:0h30m51s) 
CPU  3 inst:   36000004 cyc:   32117716 now IPC :1.00272: AVG IPC :1.09214: L2-Pf-HR :0.83304: L2-HR :0.82524: (Sim:0h30m51s) 
CPU  1 inst:   36000004 cyc:   32124312 now IPC :0.95531: AVG IPC :1.09191: L2-Pf-HR :0.83696: L2-HR :0.82884: (Sim:0h30m52s) 
CPU  2 inst:   36000004 cyc:   32128817 now IPC :0.96033: AVG IPC :1.09178: L2-Pf-HR :0.83266: L2-HR :0.82274: (Sim:0h30m52s) 
CPU  2 inst:   37000000 cyc:   33205165 now IPC :0.92906: AVG IPC :1.08634: L2-Pf-HR :0.83223: L2-HR :0.82222: (Sim:0h31m46s) 
CPU  1 inst:   37000000 cyc:   33212904 now IPC :0.91861: AVG IPC :1.08606: L2-Pf-HR :0.83640: L2-HR :0.82809: (Sim:0h31m47s) 
CPU  0 inst:   37000000 cyc:   33221430 now IPC :0.89710: AVG IPC :1.08578: L2-Pf-HR :0.82886: L2-HR :0.81895: (Sim:0h31m47s) 
CPU  3 inst:   37000000 cyc:   33235993 now IPC :0.89423: AVG IPC :1.08528: L2-Pf-HR :0.83270: L2-HR :0.82463: (Sim:0h31m48s) 
CPU  0 inst:   38000001 cyc:   34086919 now IPC :1.15542: AVG IPC :1.08760: L2-Pf-HR :0.82856: L2-HR :0.81862: (Sim:0h32m36s) 
CPU  1 inst:   38000001 cyc:   34088244 now IPC :1.14241: AVG IPC :1.08755: L2-Pf-HR :0.83602: L2-HR :0.82752: (Sim:0h32m36s) 
CPU  2 inst:   38000001 cyc:   34088931 now IPC :1.13152: AVG IPC :1.08755: L2-Pf-HR :0.83195: L2-HR :0.82181: (Sim:0h32m36s) 
CPU  3 inst:   38000001 cyc:   34089847 now IPC :1.17116: AVG IPC :1.08749: L2-Pf-HR :0.83243: L2-HR :0.82414: (Sim:0h32m36s) 
CPU  0 inst:   39000003 cyc:   35671003 now IPC :0.63128: AVG IPC :1.06676: L2-Pf-HR :0.82865: L2-HR :0.81849: (Sim:0h33m36s) 
CPU  1 inst:   39000003 cyc:   35683277 now IPC :0.62695: AVG IPC :1.06638: L2-Pf-HR :0.83564: L2-HR :0.82683: (Sim:0h33m37s) 
CPU  3 inst:   39000003 cyc:   35686001 now IPC :0.62651: AVG IPC :1.06629: L2-Pf-HR :0.83222: L2-HR :0.82362: (Sim:0h33m37s) 
CPU  2 inst:   39000003 cyc:   35687373 now IPC :0.62561: AVG IPC :1.06627: L2-Pf-HR :0.83179: L2-HR :0.82144: (Sim:0h33m38s) 
CPU  2 inst:   40000002 cyc:   36567704 now IPC :1.13594: AVG IPC :1.06799: L2-Pf-HR :0.83165: L2-HR :0.82119: (Sim:0h34m24s) 
CPU  0 inst:   40000002 cyc:   36588319 now IPC :1.09014: AVG IPC :1.06737: L2-Pf-HR :0.82850: L2-HR :0.81831: (Sim:0h34m25s) 
CPU  1 inst:   40000002 cyc:   36602050 now IPC :1.08841: AVG IPC :1.06694: L2-Pf-HR :0.83531: L2-HR :0.82631: (Sim:0h34m26s) 
CPU  3 inst:   40000002 cyc:   36606546 now IPC :1.08631: AVG IPC :1.06680: L2-Pf-HR :0.83201: L2-HR :0.82325: (Sim:0h34m26s) 
CPU  0 inst:   41000002 cyc:   37463966 now IPC :1.14201: AVG IPC :1.06916: L2-Pf-HR :0.82815: L2-HR :0.81792: (Sim:0h35m13s) 
CPU  3 inst:   41000003 cyc:   37471212 now IPC :1.15652: AVG IPC :1.06893: L2-Pf-HR :0.83183: L2-HR :0.82284: (Sim:0h35m13s) 
CPU  1 inst:   41000000 cyc:   37471365 now IPC :1.15033: AVG IPC :1.06893: L2-Pf-HR :0.83493: L2-HR :0.82569: (Sim:0h35m13s) 
CPU  2 inst:   41000000 cyc:   37475357 now IPC :1.10174: AVG IPC :1.06883: L2-Pf-HR :0.83158: L2-HR :0.82094: (Sim:0h35m13s) 
CPU  3 inst:   42000005 cyc:   38340165 now IPC :1.15081: AVG IPC :1.07084: L2-Pf-HR :0.83169: L2-HR :0.82255: (Sim:0h36m0s) 
CPU  0 inst:   42000000 cyc:   38346128 now IPC :1.13358: AVG IPC :1.07068: L2-Pf-HR :0.82787: L2-HR :0.81763: (Sim:0h36m0s) 
CPU  1 inst:   42000004 cyc:   38350365 now IPC :1.13766: AVG IPC :1.07055: L2-Pf-HR :0.83462: L2-HR :0.82520: (Sim:0h36m0s) 
CPU  2 inst:   42000000 cyc:   38363885 now IPC :1.12546: AVG IPC :1.07018: L2-Pf-HR :0.83146: L2-HR :0.82074: (Sim:0h36m1s) 
CPU  3 inst:   43000005 cyc:   39205982 now IPC :1.15498: AVG IPC :1.07274: L2-Pf-HR :0.83137: L2-HR :0.82215: (Sim:0h36m47s) 
CPU  0 inst:   43000005 cyc:   39207933 now IPC :1.16036: AVG IPC :1.07270: L2-Pf-HR :0.82758: L2-HR :0.81732: (Sim:0h36m47s) 
CPU  2 inst:   43000005 cyc:   39209467 now IPC :1.18262: AVG IPC :1.07267: L2-Pf-HR :0.83128: L2-HR :0.82041: (Sim:0h36m47s) 
CPU  1 inst:   43000005 cyc:   39237651 now IPC :1.12703: AVG IPC :1.07186: L2-Pf-HR :0.83420: L2-HR :0.82463: (Sim:0h36m49s) 
CPU  0 inst:   44000001 cyc:   39912633 now IPC :1.41904: AVG IPC :1.07897: L2-Pf-HR :0.82754: L2-HR :0.81720: (Sim:0h37m33s) 
CPU  1 inst:   44000001 cyc:   39915786 now IPC :1.47463: AVG IPC :1.07887: L2-Pf-HR :0.83379: L2-HR :0.82405: (Sim:0h37m33s) 
CPU  2 inst:   44000001 cyc:   39924379 now IPC :1.39877: AVG IPC :1.07866: L2-Pf-HR :0.83131: L2-HR :0.82024: (Sim:0h37m34s) 
CPU  3 inst:   44000001 cyc:   39929354 now IPC :1.38241: AVG IPC :1.07849: L2-Pf-HR :0.83129: L2-HR :0.82197: (Sim:0h37m34s) 
CPU  0 inst:   45000004 cyc:   41148226 now IPC :0.80933: AVG IPC :1.07068: L2-Pf-HR :0.82821: L2-HR :0.81789: (Sim:0h38m32s) 
CPU  1 inst:   45000005 cyc:   41152209 now IPC :0.80879: AVG IPC :1.07056: L2-Pf-HR :0.83418: L2-HR :0.82438: (Sim:0h38m32s) 
CPU  2 inst:   45000005 cyc:   41161042 now IPC :0.80863: AVG IPC :1.07034: L2-Pf-HR :0.83180: L2-HR :0.82066: (Sim:0h38m33s) 
CPU  3 inst:   45000005 cyc:   41178044 now IPC :0.80084: AVG IPC :1.06987: L2-Pf-HR :0.83174: L2-HR :0.82232: (Sim:0h38m34s) 
CPU  2 inst:   46000005 cyc:   41970757 now IPC :1.23500: AVG IPC :1.07360: L2-Pf-HR :0.83270: L2-HR :0.82194: (Sim:0h39m22s) 
CPU  1 inst:   46000005 cyc:   41989397 now IPC :1.19447: AVG IPC :1.07309: L2-Pf-HR :0.83526: L2-HR :0.82590: (Sim:0h39m23s) 
CPU  0 inst:   46000005 cyc:   42002106 now IPC :1.17113: AVG IPC :1.07277: L2-Pf-HR :0.82959: L2-HR :0.81983: (Sim:0h39m24s) 
CPU  3 inst:   46000002 cyc:   42007945 now IPC :1.20496: AVG IPC :1.07260: L2-Pf-HR :0.83243: L2-HR :0.82349: (Sim:0h39m25s) 
CPU  1 inst:   47000003 cyc:   42877278 now IPC :1.12627: AVG IPC :1.07422: L2-Pf-HR :0.83647: L2-HR :0.82759: (Sim:0h40m15s) 
CPU  3 inst:   47000002 cyc:   42886265 now IPC :1.13854: AVG IPC :1.07398: L2-Pf-HR :0.83329: L2-HR :0.82480: (Sim:0h40m16s) 
CPU  0 inst:   47000003 cyc:   42886726 now IPC :1.13043: AVG IPC :1.07398: L2-Pf-HR :0.83104: L2-HR :0.82185: (Sim:0h40m16s) 
CPU  2 inst:   47000002 cyc:   42889879 now IPC :1.08799: AVG IPC :1.07391: L2-Pf-HR :0.83377: L2-HR :0.82347: (Sim:0h40m16s) 
CPU  0 inst:   48000002 cyc:   43707980 now IPC :1.21765: AVG IPC :1.07675: L2-Pf-HR :0.83263: L2-HR :0.82390: (Sim:0h41m6s) 
CPU  2 inst:   48000002 cyc:   43710732 now IPC :1.21824: AVG IPC :1.07669: L2-Pf-HR :0.83495: L2-HR :0.82502: (Sim:0h41m6s) 
CPU  1 inst:   48000002 cyc:   43711517 now IPC :1.19870: AVG IPC :1.07665: L2-Pf-HR :0.83758: L2-HR :0.82907: (Sim:0h41m7s) 
CPU  3 inst:   48000002 cyc:   43728681 now IPC :1.18706: AVG IPC :1.07621: L2-Pf-HR :0.83416: L2-HR :0.82602: (Sim:0h41m8s) 
CPU  1 inst:   49000002 cyc:   45417393 now IPC :0.58621: AVG IPC :1.05782: L2-Pf-HR :0.83814: L2-HR :0.82947: (Sim:0h42m16s) 
CPU  0 inst:   49000002 cyc:   45421535 now IPC :0.58358: AVG IPC :1.05773: L2-Pf-HR :0.83331: L2-HR :0.82446: (Sim:0h42m16s) 
CPU  3 inst:   49000002 cyc:   45450514 now IPC :0.58078: AVG IPC :1.05703: L2-Pf-HR :0.83457: L2-HR :0.82627: (Sim:0h42m17s) 
CPU  2 inst:   49000002 cyc:   45473298 now IPC :0.56735: AVG IPC :1.05651: L2-Pf-HR :0.83531: L2-HR :0.82528: (Sim:0h42m19s) 
CPU  3 inst:   50000003 cyc:   46399106 now IPC :1.05420: AVG IPC :1.05697: L2-Pf-HR :0.83433: L2-HR :0.82576: (Sim:0h43m11s) 
CPU  2 inst:   50000000 cyc:   46417003 now IPC :1.05965: AVG IPC :1.05657: L2-Pf-HR :0.83493: L2-HR :0.82481: (Sim:0h43m12s) 
CPU  1 inst:   50000003 cyc:   46426021 now IPC :0.99145: AVG IPC :1.05634: L2-Pf-HR :0.83780: L2-HR :0.82886: (Sim:0h43m13s) 
CPU  0 inst:   50000003 cyc:   46427154 now IPC :0.99441: AVG IPC :1.05633: L2-Pf-HR :0.83313: L2-HR :0.82405: (Sim:0h43m13s) 
CPU  0 inst:   51000004 cyc:   47466714 now IPC :0.96195: AVG IPC :1.05422: L2-Pf-HR :0.83296: L2-HR :0.82366: (Sim:0h44m9s) 
CPU  2 inst:   51000004 cyc:   47470559 now IPC :0.94917: AVG IPC :1.05414: L2-Pf-HR :0.83461: L2-HR :0.82441: (Sim:0h44m9s) 
CPU  3 inst:   51000004 cyc:   47485670 now IPC :0.92033: AVG IPC :1.05377: L2-Pf-HR :0.83404: L2-HR :0.82524: (Sim:0h44m10s) 
CPU  1 inst:   51000004 cyc:   47514831 now IPC :0.91843: AVG IPC :1.05312: L2-Pf-HR :0.83748: L2-HR :0.82826: (Sim:0h44m12s) 
CPU  3 inst:   52000000 cyc:   48492964 now IPC :0.99275: AVG IPC :1.05248: L2-Pf-HR :0.83389: L2-HR :0.82482: (Sim:0h45m5s) 
CPU  0 inst:   52000000 cyc:   48515906 now IPC :0.95311: AVG IPC :1.05198: L2-Pf-HR :0.83293: L2-HR :0.82337: (Sim:0h45m7s) 
CPU  2 inst:   52000000 cyc:   48520358 now IPC :0.95256: AVG IPC :1.05189: L2-Pf-HR :0.83444: L2-HR :0.82416: (Sim:0h45m7s) 
CPU  1 inst:   52000000 cyc:   48526768 now IPC :0.98820: AVG IPC :1.05174: L2-Pf-HR :0.83741: L2-HR :0.82787: (Sim:0h45m7s) 
CPU  2 inst:   53000003 cyc:   49546050 now IPC :0.97495: AVG IPC :1.05027: L2-Pf-HR :0.83409: L2-HR :0.82373: (Sim:0h46m1s) 
CPU  1 inst:   53000003 cyc:   49570505 now IPC :0.95810: AVG IPC :1.04972: L2-Pf-HR :0.83723: L2-HR :0.82741: (Sim:0h46m2s) 
CPU  3 inst:   53000003 cyc:   49605653 now IPC :0.89873: AVG IPC :1.04896: L2-Pf-HR :0.83373: L2-HR :0.82441: (Sim:0h46m5s) 
CPU  0 inst:   53000003 cyc:   49618299 now IPC :0.90712: AVG IPC :1.04870: L2-Pf-HR :0.83290: L2-HR :0.82309: (Sim:0h46m5s) 
CPU  2 inst:   54000001 cyc:   50497661 now IPC :1.05085: AVG IPC :1.05028: L2-Pf-HR :0.83404: L2-HR :0.82354: (Sim:0h46m57s) 
CPU  0 inst:   54000001 cyc:   50520883 now IPC :1.10793: AVG IPC :1.04978: L2-Pf-HR :0.83285: L2-HR :0.82280: (Sim:0h46m59s) 
CPU  3 inst:   54000001 cyc:   50521621 now IPC :1.09174: AVG IPC :1.04975: L2-Pf-HR :0.83359: L2-HR :0.82401: (Sim:0h46m59s) 
CPU  1 inst:   54000001 cyc:   50525914 now IPC :1.04667: AVG IPC :1.04966: L2-Pf-HR :0.83709: L2-HR :0.82699: (Sim:0h47m0s) 
CPU  0 inst:   55000002 cyc:   51952935 now IPC :0.69830: AVG IPC :1.03990: L2-Pf-HR :0.83280: L2-HR :0.82250: (Sim:0h48m3s) 
CPU  2 inst:   55000002 cyc:   51961147 now IPC :0.68330: AVG IPC :1.03974: L2-Pf-HR :0.83402: L2-HR :0.82336: (Sim:0h48m3s) 
CPU  3 inst:   55000004 cyc:   51975302 now IPC :0.68791: AVG IPC :1.03944: L2-Pf-HR :0.83354: L2-HR :0.82370: (Sim:0h48m4s) 
CPU  1 inst:   55000002 cyc:   52002129 now IPC :0.67741: AVG IPC :1.03889: L2-Pf-HR :0.83687: L2-HR :0.82650: (Sim:0h48m5s) 
CPU  2 inst:   56000001 cyc:   52913252 now IPC :1.05030: AVG IPC :1.03994: L2-Pf-HR :0.83381: L2-HR :0.82318: (Sim:0h48m48s) 
CPU  0 inst:   56000001 cyc:   52930644 now IPC :1.02280: AVG IPC :1.03958: L2-Pf-HR :0.83263: L2-HR :0.82227: (Sim:0h48m49s) 
CPU  3 inst:   56000001 cyc:   52947010 now IPC :1.02911: AVG IPC :1.03924: L2-Pf-HR :0.83329: L2-HR :0.82346: (Sim:0h48m50s) 
CPU  1 inst:   56000001 cyc:   52948950 now IPC :1.05616: AVG IPC :1.03921: L2-Pf-HR :0.83650: L2-HR :0.82608: (Sim:0h48m50s) 
CPU  2 inst:   57000001 cyc:   53808636 now IPC :1.11684: AVG IPC :1.04124: L2-Pf-HR :0.83365: L2-HR :0.82300: (Sim:0h49m21s) 
CPU  0 inst:   57000001 cyc:   53812548 now IPC :1.13391: AVG IPC :1.04116: L2-Pf-HR :0.83251: L2-HR :0.82209: (Sim:0h49m21s) 
CPU  3 inst:   57000001 cyc:   53817768 now IPC :1.14842: AVG IPC :1.04104: L2-Pf-HR :0.83302: L2-HR :0.82321: (Sim:0h49m22s) 
CPU  1 inst:   57000001 cyc:   53919409 now IPC :1.03044: AVG IPC :1.03905: L2-Pf-HR :0.83619: L2-HR :0.82570: (Sim:0h49m25s) 
CPU  0 inst:   58000000 cyc:   54685517 now IPC :1.14551: AVG IPC :1.04285: L2-Pf-HR :0.83223: L2-HR :0.82178: (Sim:0h50m9s) 
CPU  2 inst:   58000000 cyc:   54689691 now IPC :1.13500: AVG IPC :1.04278: L2-Pf-HR :0.83336: L2-HR :0.82277: (Sim:0h50m9s) 
CPU  3 inst:   58000000 cyc:   54692130 now IPC :1.14369: AVG IPC :1.04271: L2-Pf-HR :0.83293: L2-HR :0.82307: (Sim:0h50m9s) 
CPU  1 inst:   58000000 cyc:   54718593 now IPC :1.25128: AVG IPC :1.04220: L2-Pf-HR :0.83584: L2-HR :0.82526: (Sim:0h50m11s) 
CPU  1 inst:   59000000 cyc:   55543079 now IPC :1.21288: AVG IPC :1.04478: L2-Pf-HR :0.83552: L2-HR :0.82489: (Sim:0h51m3s) 
CPU  0 inst:   59000005 cyc:   55543212 now IPC :1.16592: AVG IPC :1.04479: L2-Pf-HR :0.83212: L2-HR :0.82163: (Sim:0h51m3s) 
CPU  2 inst:   59000000 cyc:   55544594 now IPC :1.16972: AVG IPC :1.04477: L2-Pf-HR :0.83322: L2-HR :0.82268: (Sim:0h51m3s) 
CPU  3 inst:   59000005 cyc:   55546224 now IPC :1.17084: AVG IPC :1.04472: L2-Pf-HR :0.83265: L2-HR :0.82276: (Sim:0h51m3s) 
CPU  0 inst:   60000003 cyc:   56265313 now IPC :1.38485: AVG IPC :1.04923: L2-Pf-HR :0.83211: L2-HR :0.82154: (Sim:0h51m53s) 
CPU  2 inst:   60000005 cyc:   56267039 now IPC :1.38420: AVG IPC :1.04920: L2-Pf-HR :0.83315: L2-HR :0.82260: (Sim:0h51m53s) 
CPU  1 inst:   60000005 cyc:   56267649 now IPC :1.38014: AVG IPC :1.04918: L2-Pf-HR :0.83534: L2-HR :0.82460: (Sim:0h51m53s) 
CPU  3 inst:   60000005 cyc:   56278765 now IPC :1.36511: AVG IPC :1.04896: L2-Pf-HR :0.83254: L2-HR :0.82258: (Sim:0h51m54s) 
CPU  1 inst:   61000005 cyc:   57441449 now IPC :0.85193: AVG IPC :1.04508: L2-Pf-HR :0.83554: L2-HR :0.82469: (Sim:0h52m55s) 
CPU  0 inst:   61000005 cyc:   57443292 now IPC :0.84891: AVG IPC :1.04505: L2-Pf-HR :0.83234: L2-HR :0.82172: (Sim:0h52m55s) 
CPU  3 inst:   61000005 cyc:   57448746 now IPC :0.85471: AVG IPC :1.04494: L2-Pf-HR :0.83274: L2-HR :0.82268: (Sim:0h52m55s) 
CPU  2 inst:   61000005 cyc:   57468964 now IPC :0.83200: AVG IPC :1.04458: L2-Pf-HR :0.83340: L2-HR :0.82280: (Sim:0h52m56s) 
CPU  0 inst:   62000003 cyc:   58286855 now IPC :1.18545: AVG IPC :1.04712: L2-Pf-HR :0.83337: L2-HR :0.82310: (Sim:0h53m47s) 
CPU  2 inst:   62000003 cyc:   58297418 now IPC :1.20707: AVG IPC :1.04693: L2-Pf-HR :0.83415: L2-HR :0.82392: (Sim:0h53m48s) 
CPU  1 inst:   62000003 cyc:   58298627 now IPC :1.16662: AVG IPC :1.04689: L2-Pf-HR :0.83624: L2-HR :0.82573: (Sim:0h53m48s) 
CPU  3 inst:   62000003 cyc:   58305547 now IPC :1.16713: AVG IPC :1.04677: L2-Pf-HR :0.83330: L2-HR :0.82357: (Sim:0h53m48s) 
CPU  0 inst:   63000001 cyc:   59161994 now IPC :1.14267: AVG IPC :1.04855: L2-Pf-HR :0.83431: L2-HR :0.82444: (Sim:0h54m35s) 
CPU  2 inst:   63000001 cyc:   59170635 now IPC :1.14519: AVG IPC :1.04840: L2-Pf-HR :0.83498: L2-HR :0.82507: (Sim:0h54m35s) 
CPU  3 inst:   63000001 cyc:   59176379 now IPC :1.14832: AVG IPC :1.04829: L2-Pf-HR :0.83394: L2-HR :0.82450: (Sim:0h54m36s) 
CPU  1 inst:   63000001 cyc:   59185512 now IPC :1.12754: AVG IPC :1.04812: L2-Pf-HR :0.83706: L2-HR :0.82687: (Sim:0h54m36s) 
CPU  0 inst:   64000001 cyc:   60035337 now IPC :1.14503: AVG IPC :1.04998: L2-Pf-HR :0.83529: L2-HR :0.82574: (Sim:0h55m13s) 
CPU  2 inst:   64000001 cyc:   60037368 now IPC :1.15376: AVG IPC :1.04995: L2-Pf-HR :0.83578: L2-HR :0.82617: (Sim:0h55m13s) 
CPU  3 inst:   64000001 cyc:   60045283 now IPC :1.15088: AVG IPC :1.04980: L2-Pf-HR :0.83452: L2-HR :0.82536: (Sim:0h55m13s) 
CPU  1 inst:   64000001 cyc:   60057975 now IPC :1.14618: AVG IPC :1.04957: L2-Pf-HR :0.83791: L2-HR :0.82802: (Sim:0h55m14s) 
CPU  2 inst:   65000002 cyc:   61563448 now IPC :0.65527: AVG IPC :1.04001: L2-Pf-HR :0.83630: L2-HR :0.82664: (Sim:0h56m20s) 
CPU  3 inst:   65000002 cyc:   61570395 now IPC :0.65569: AVG IPC :1.03987: L2-Pf-HR :0.83492: L2-HR :0.82570: (Sim:0h56m21s) 
CPU  0 inst:   65000002 cyc:   61582101 now IPC :0.64651: AVG IPC :1.03968: L2-Pf-HR :0.83595: L2-HR :0.82642: (Sim:0h56m21s) 
CPU  1 inst:   65000002 cyc:   61589769 now IPC :0.65283: AVG IPC :1.03954: L2-Pf-HR :0.83860: L2-HR :0.82864: (Sim:0h56m21s) 
CPU  2 inst:   66000002 cyc:   62688976 now IPC :0.88847: AVG IPC :1.03724: L2-Pf-HR :0.83611: L2-HR :0.82637: (Sim:0h57m19s) 
CPU  3 inst:   66000002 cyc:   62693319 now IPC :0.89053: AVG IPC :1.03716: L2-Pf-HR :0.83450: L2-HR :0.82518: (Sim:0h57m19s) 
CPU  0 inst:   66000002 cyc:   62706415 now IPC :0.88943: AVG IPC :1.03694: L2-Pf-HR :0.83574: L2-HR :0.82615: (Sim:0h57m20s) 
CPU  1 inst:   66000002 cyc:   62751724 now IPC :0.86062: AVG IPC :1.03618: L2-Pf-HR :0.83834: L2-HR :0.82823: (Sim:0h57m23s) 
CPU  2 inst:   67000004 cyc:   63710989 now IPC :0.97846: AVG IPC :1.03629: L2-Pf-HR :0.83596: L2-HR :0.82613: (Sim:0h58m18s) 
CPU  1 inst:   67000004 cyc:   63711042 now IPC :1.04241: AVG IPC :1.03627: L2-Pf-HR :0.83821: L2-HR :0.82788: (Sim:0h58m18s) 
CPU  3 inst:   67000001 cyc:   63725317 now IPC :0.96899: AVG IPC :1.03604: L2-Pf-HR :0.83433: L2-HR :0.82483: (Sim:0h58m19s) 
CPU  0 inst:   67000001 cyc:   63756621 now IPC :0.95219: AVG IPC :1.03553: L2-Pf-HR :0.83554: L2-HR :0.82587: (Sim:0h58m21s) 
CPU  2 inst:   68000002 cyc:   64812713 now IPC :0.90767: AVG IPC :1.03407: L2-Pf-HR :0.83578: L2-HR :0.82586: (Sim:0h59m19s) 
CPU  1 inst:   68000005 cyc:   64813159 now IPC :0.90735: AVG IPC :1.03405: L2-Pf-HR :0.83800: L2-HR :0.82751: (Sim:0h59m19s) 
CPU  3 inst:   68000005 cyc:   64813212 now IPC :0.91921: AVG IPC :1.03404: L2-Pf-HR :0.83406: L2-HR :0.82443: (Sim:0h59m19s) 
CPU  0 inst:   68000002 cyc:   64818060 now IPC :0.94212: AVG IPC :1.03397: L2-Pf-HR :0.83544: L2-HR :0.82569: (Sim:0h59m19s) 
CPU  3 inst:   69000000 cyc:   65850866 now IPC :0.96371: AVG IPC :1.03292: L2-Pf-HR :0.83383: L2-HR :0.82407: (Sim:1h0m16s) 
CPU  1 inst:   69000000 cyc:   65860626 now IPC :0.95468: AVG IPC :1.03277: L2-Pf-HR :0.83779: L2-HR :0.82715: (Sim:1h0m16s) 
CPU  0 inst:   69000000 cyc:   65890051 now IPC :0.93284: AVG IPC :1.03230: L2-Pf-HR :0.83538: L2-HR :0.82552: (Sim:1h0m18s) 
CPU  2 inst:   69000000 cyc:   65903118 now IPC :0.91709: AVG IPC :1.03210: L2-Pf-HR :0.83561: L2-HR :0.82561: (Sim:1h0m19s) 
CPU  3 inst:   70000004 cyc:   66796966 now IPC :1.05698: AVG IPC :1.03326: L2-Pf-HR :0.83361: L2-HR :0.82371: (Sim:1h1m11s) 
CPU  1 inst:   70000004 cyc:   66803319 now IPC :1.06079: AVG IPC :1.03317: L2-Pf-HR :0.83754: L2-HR :0.82672: (Sim:1h1m11s) 
CPU  2 inst:   70000004 cyc:   66824161 now IPC :1.08573: AVG IPC :1.03285: L2-Pf-HR :0.83550: L2-HR :0.82540: (Sim:1h1m13s) 
CPU  0 inst:   70000004 cyc:   66825855 now IPC :1.06860: AVG IPC :1.03282: L2-Pf-HR :0.83526: L2-HR :0.82532: (Sim:1h1m13s) 
CPU  1 inst:   71000005 cyc:   68174660 now IPC :0.72921: AVG IPC :1.02696: L2-Pf-HR :0.83731: L2-HR :0.82629: (Sim:1h2m17s) 
CPU  2 inst:   71000005 cyc:   68179790 now IPC :0.73767: AVG IPC :1.02690: L2-Pf-HR :0.83538: L2-HR :0.82512: (Sim:1h2m17s) 
CPU  3 inst:   71000005 cyc:   68188011 now IPC :0.71888: AVG IPC :1.02676: L2-Pf-HR :0.83345: L2-HR :0.82334: (Sim:1h2m17s) 
CPU  0 inst:   71000005 cyc:   68199835 now IPC :0.72781: AVG IPC :1.02658: L2-Pf-HR :0.83524: L2-HR :0.82511: (Sim:1h2m18s) 
CPU  3 inst:   72000000 cyc:   69207243 now IPC :0.98113: AVG IPC :1.02608: L2-Pf-HR :0.83334: L2-HR :0.82319: (Sim:1h3m13s) 
CPU  0 inst:   72000000 cyc:   69228534 now IPC :0.97210: AVG IPC :1.02576: L2-Pf-HR :0.83508: L2-HR :0.82491: (Sim:1h3m15s) 
CPU  2 inst:   72000000 cyc:   69229948 now IPC :0.95223: AVG IPC :1.02575: L2-Pf-HR :0.83527: L2-HR :0.82496: (Sim:1h3m15s) 
CPU  1 inst:   72000000 cyc:   69233404 now IPC :0.94451: AVG IPC :1.02568: L2-Pf-HR :0.83701: L2-HR :0.82601: (Sim:1h3m15s) 
CPU  2 inst:   73000000 cyc:   70115837 now IPC :1.12881: AVG IPC :1.02707: L2-Pf-HR :0.83517: L2-HR :0.82477: (Sim:1h4m8s) 
CPU  3 inst:   73000000 cyc:   70123657 now IPC :1.09121: AVG IPC :1.02694: L2-Pf-HR :0.83328: L2-HR :0.82302: (Sim:1h4m8s) 
CPU  0 inst:   73000000 cyc:   70123736 now IPC :1.11707: AVG IPC :1.02694: L2-Pf-HR :0.83490: L2-HR :0.82463: (Sim:1h4m8s) 
CPU  1 inst:   73000000 cyc:   70127037 now IPC :1.11903: AVG IPC :1.02689: L2-Pf-HR :0.83681: L2-HR :0.82576: (Sim:1h4m9s) 
CPU  2 inst:   74000005 cyc:   70985769 now IPC :1.14952: AVG IPC :1.02859: L2-Pf-HR :0.83510: L2-HR :0.82464: (Sim:1h5m1s) 
CPU  3 inst:   74000005 cyc:   70987128 now IPC :1.15812: AVG IPC :1.02856: L2-Pf-HR :0.83315: L2-HR :0.82283: (Sim:1h5m1s) 
CPU  1 inst:   74000005 cyc:   70997270 now IPC :1.14912: AVG IPC :1.02841: L2-Pf-HR :0.83663: L2-HR :0.82555: (Sim:1h5m2s) 
CPU  0 inst:   74000005 cyc:   71008281 now IPC :1.13053: AVG IPC :1.02825: L2-Pf-HR :0.83485: L2-HR :0.82449: (Sim:1h5m3s) 
CPU  3 inst:   75000000 cyc:   71857411 now IPC :1.14905: AVG IPC :1.03004: L2-Pf-HR :0.83308: L2-HR :0.82267: (Sim:1h5m55s) 
CPU  1 inst:   75000000 cyc:   71859281 now IPC :1.16007: AVG IPC :1.03001: L2-Pf-HR :0.83643: L2-HR :0.82529: (Sim:1h5m55s) 
CPU  2 inst:   75000000 cyc:   71862856 now IPC :1.14013: AVG IPC :1.02997: L2-Pf-HR :0.83495: L2-HR :0.82442: (Sim:1h5m55s) 
CPU  0 inst:   75000000 cyc:   71865823 now IPC :1.16612: AVG IPC :1.02992: L2-Pf-HR :0.83477: L2-HR :0.82432: (Sim:1h5m56s) 
CPU  0 inst:   76000003 cyc:   72678218 now IPC :1.23093: AVG IPC :1.03220: L2-Pf-HR :0.83464: L2-HR :0.82411: (Sim:1h6m47s) 
CPU  1 inst:   76000003 cyc:   72679065 now IPC :1.21984: AVG IPC :1.03218: L2-Pf-HR :0.83624: L2-HR :0.82507: (Sim:1h6m47s) 
CPU  2 inst:   76000003 cyc:   72679278 now IPC :1.22486: AVG IPC :1.03219: L2-Pf-HR :0.83476: L2-HR :0.82420: (Sim:1h6m47s) 
CPU  3 inst:   76000003 cyc:   72679390 now IPC :1.21658: AVG IPC :1.03218: L2-Pf-HR :0.83294: L2-HR :0.82249: (Sim:1h6m47s) 
CPU  3 inst:   77000004 cyc:   73737806 now IPC :0.94481: AVG IPC :1.03090: L2-Pf-HR :0.83303: L2-HR :0.82243: (Sim:1h7m44s) 
CPU  0 inst:   77000004 cyc:   73737910 now IPC :0.94367: AVG IPC :1.03091: L2-Pf-HR :0.83475: L2-HR :0.82409: (Sim:1h7m44s) 
CPU  1 inst:   77000004 cyc:   73750143 now IPC :0.93364: AVG IPC :1.03073: L2-Pf-HR :0.83636: L2-HR :0.82507: (Sim:1h7m45s) 
CPU  2 inst:   77000004 cyc:   73757238 now IPC :0.92768: AVG IPC :1.03064: L2-Pf-HR :0.83480: L2-HR :0.82413: (Sim:1h7m45s) 
CPU  2 inst:   78000001 cyc:   74648357 now IPC :1.12218: AVG IPC :1.03175: L2-Pf-HR :0.83537: L2-HR :0.82492: (Sim:1h8m38s) 
CPU  0 inst:   78000002 cyc:   74651161 now IPC :1.09499: AVG IPC :1.03170: L2-Pf-HR :0.83548: L2-HR :0.82511: (Sim:1h8m38s) 
CPU  3 inst:   78000002 cyc:   74652012 now IPC :1.09384: AVG IPC :1.03169: L2-Pf-HR :0.83371: L2-HR :0.82340: (Sim:1h8m38s) 
CPU  1 inst:   78000002 cyc:   74652065 now IPC :1.10874: AVG IPC :1.03169: L2-Pf-HR :0.83678: L2-HR :0.82580: (Sim:1h8m38s) 
CPU  2 inst:   79000000 cyc:   75514749 now IPC :1.15421: AVG IPC :1.03317: L2-Pf-HR :0.83602: L2-HR :0.82576: (Sim:1h9m31s) 
CPU  0 inst:   79000000 cyc:   75524357 now IPC :1.14522: AVG IPC :1.03303: L2-Pf-HR :0.83629: L2-HR :0.82621: (Sim:1h9m31s) 
CPU  3 inst:   79000000 cyc:   75529128 now IPC :1.14010: AVG IPC :1.03296: L2-Pf-HR :0.83450: L2-HR :0.82445: (Sim:1h9m32s) 
CPU  1 inst:   79000000 cyc:   75529252 now IPC :1.14001: AVG IPC :1.03296: L2-Pf-HR :0.83728: L2-HR :0.82657: (Sim:1h9m32s) 
CPU  0 inst:   80000005 cyc:   76385745 now IPC :1.16092: AVG IPC :1.03450: L2-Pf-HR :0.83710: L2-HR :0.82730: (Sim:1h10m24s) 
CPU  2 inst:   80000002 cyc:   76387745 now IPC :1.14548: AVG IPC :1.03447: L2-Pf-HR :0.83660: L2-HR :0.82653: (Sim:1h10m24s) 
CPU  1 inst:   80000005 cyc:   76395110 now IPC :1.15493: AVG IPC :1.03436: L2-Pf-HR :0.83782: L2-HR :0.82738: (Sim:1h10m25s) 
CPU  3 inst:   80000005 cyc:   76404152 now IPC :1.14283: AVG IPC :1.03424: L2-Pf-HR :0.83536: L2-HR :0.82557: (Sim:1h10m25s) 
CPU  2 inst:   81000001 cyc:   77764415 now IPC :0.72639: AVG IPC :1.02895: L2-Pf-HR :0.83705: L2-HR :0.82700: (Sim:1h11m29s) 
CPU  3 inst:   81000000 cyc:   77827167 now IPC :0.70273: AVG IPC :1.02810: L2-Pf-HR :0.83602: L2-HR :0.82628: (Sim:1h11m31s) 
CPU  1 inst:   81000001 cyc:   77837152 now IPC :0.69346: AVG IPC :1.02796: L2-Pf-HR :0.83833: L2-HR :0.82794: (Sim:1h11m32s) 
CPU  0 inst:   81000000 cyc:   77891835 now IPC :0.66397: AVG IPC :1.02724: L2-Pf-HR :0.83774: L2-HR :0.82799: (Sim:1h11m34s) 
CPU  3 inst:   82000000 cyc:   79020926 now IPC :0.83769: AVG IPC :1.02518: L2-Pf-HR :0.83584: L2-HR :0.82600: (Sim:1h12m31s) 
CPU  2 inst:   82000000 cyc:   79030014 now IPC :0.79014: AVG IPC :1.02508: L2-Pf-HR :0.83700: L2-HR :0.82680: (Sim:1h12m32s) 
CPU  0 inst:   82000000 cyc:   79048237 now IPC :0.86475: AVG IPC :1.02483: L2-Pf-HR :0.83765: L2-HR :0.82776: (Sim:1h12m33s) 
CPU  1 inst:   82000000 cyc:   79057470 now IPC :0.81946: AVG IPC :1.02471: L2-Pf-HR :0.83817: L2-HR :0.82771: (Sim:1h12m33s) 
CPU  2 inst:   83000004 cyc:   80002935 now IPC :1.02784: AVG IPC :1.02511: L2-Pf-HR :0.83697: L2-HR :0.82658: (Sim:1h13m29s) 
CPU  0 inst:   83000004 cyc:   80019103 now IPC :1.03001: AVG IPC :1.02490: L2-Pf-HR :0.83760: L2-HR :0.82752: (Sim:1h13m30s) 
CPU  3 inst:   83000004 cyc:   80020895 now IPC :1.00004: AVG IPC :1.02487: L2-Pf-HR :0.83569: L2-HR :0.82570: (Sim:1h13m30s) 
CPU  1 inst:   83000004 cyc:   80064756 now IPC :0.99277: AVG IPC :1.02430: L2-Pf-HR :0.83811: L2-HR :0.82755: (Sim:1h13m32s) 
CPU  2 inst:   84000005 cyc:   81076577 now IPC :0.93141: AVG IPC :1.02385: L2-Pf-HR :0.83694: L2-HR :0.82639: (Sim:1h14m29s) 
CPU  3 inst:   84000002 cyc:   81079875 now IPC :0.94430: AVG IPC :1.02380: L2-Pf-HR :0.83557: L2-HR :0.82546: (Sim:1h14m29s) 
CPU  1 inst:   84000003 cyc:   81088756 now IPC :0.97656: AVG IPC :1.02369: L2-Pf-HR :0.83807: L2-HR :0.82738: (Sim:1h14m30s) 
CPU  0 inst:   84000003 cyc:   81125244 now IPC :0.90404: AVG IPC :1.02323: L2-Pf-HR :0.83752: L2-HR :0.82730: (Sim:1h14m32s) 
CPU  3 inst:   85000002 cyc:   82135192 now IPC :0.94758: AVG IPC :1.02281: L2-Pf-HR :0.83541: L2-HR :0.82518: (Sim:1h15m27s) 
CPU  2 inst:   85000002 cyc:   82138523 now IPC :0.94166: AVG IPC :1.02278: L2-Pf-HR :0.83691: L2-HR :0.82620: (Sim:1h15m27s) 
CPU  1 inst:   85000002 cyc:   82165550 now IPC :0.92868: AVG IPC :1.02243: L2-Pf-HR :0.83799: L2-HR :0.82717: (Sim:1h15m29s) 
CPU  0 inst:   85000002 cyc:   82207167 now IPC :0.92428: AVG IPC :1.02191: L2-Pf-HR :0.83748: L2-HR :0.82708: (Sim:1h15m31s) 
CPU  2 inst:   86000001 cyc:   83167176 now IPC :0.97214: AVG IPC :1.02214: L2-Pf-HR :0.83689: L2-HR :0.82601: (Sim:1h16m27s) 
CPU  1 inst:   86000001 cyc:   83172680 now IPC :0.99292: AVG IPC :1.02207: L2-Pf-HR :0.83789: L2-HR :0.82696: (Sim:1h16m27s) 
CPU  0 inst:   86000001 cyc:   83176832 now IPC :1.03128: AVG IPC :1.02202: L2-Pf-HR :0.83739: L2-HR :0.82684: (Sim:1h16m27s) 
CPU  3 inst:   86000001 cyc:   83177353 now IPC :0.95954: AVG IPC :1.02201: L2-Pf-HR :0.83530: L2-HR :0.82496: (Sim:1h16m27s) 
CPU  0 inst:   87000000 cyc:   84198548 now IPC :0.97874: AVG IPC :1.02149: L2-Pf-HR :0.83752: L2-HR :0.82671: (Sim:1h17m25s) 
CPU  3 inst:   87000000 cyc:   84340375 now IPC :0.85983: AVG IPC :1.01974: L2-Pf-HR :0.83533: L2-HR :0.82480: (Sim:1h17m28s) 
CPU  1 inst:   87000002 cyc:   84340470 now IPC :0.85632: AVG IPC :1.01974: L2-Pf-HR :0.83803: L2-HR :0.82689: (Sim:1h17m28s) 
CPU  2 inst:   87000001 cyc:   84371163 now IPC :0.83057: AVG IPC :1.01938: L2-Pf-HR :0.83700: L2-HR :0.82587: (Sim:1h17m29s) 
CPU  0 inst:   88000003 cyc:   85564716 now IPC :0.73198: AVG IPC :1.01681: L2-Pf-HR :0.83730: L2-HR :0.82639: (Sim:1h18m27s) 
CPU  3 inst:   88000003 cyc:   85610489 now IPC :0.78733: AVG IPC :1.01626: L2-Pf-HR :0.83511: L2-HR :0.82460: (Sim:1h18m29s) 
CPU  2 inst:   88000003 cyc:   85629741 now IPC :0.79455: AVG IPC :1.01604: L2-Pf-HR :0.83682: L2-HR :0.82563: (Sim:1h18m31s) 
CPU  1 inst:   88000003 cyc:   85650046 now IPC :0.76361: AVG IPC :1.01578: L2-Pf-HR :0.83786: L2-HR :0.82668: (Sim:1h18m32s) 
CPU  0 inst:   89000003 cyc:   86456179 now IPC :1.12175: AVG IPC :1.01791: L2-Pf-HR :0.83725: L2-HR :0.82622: (Sim:1h19m22s) 
CPU  3 inst:   89000003 cyc:   86475047 now IPC :1.15666: AVG IPC :1.01768: L2-Pf-HR :0.83497: L2-HR :0.82445: (Sim:1h19m23s) 
CPU  2 inst:   89000003 cyc:   86477616 now IPC :1.17942: AVG IPC :1.01766: L2-Pf-HR :0.83679: L2-HR :0.82551: (Sim:1h19m23s) 
CPU  1 inst:   89000003 cyc:   86478129 now IPC :1.20761: AVG IPC :1.01764: L2-Pf-HR :0.83781: L2-HR :0.82656: (Sim:1h19m23s) 
CPU  1 inst:   90000000 cyc:   87380809 now IPC :1.10781: AVG IPC :1.01858: L2-Pf-HR :0.83777: L2-HR :0.82645: (Sim:1h20m17s) 
CPU  3 inst:   90000000 cyc:   87382281 now IPC :1.10225: AVG IPC :1.01856: L2-Pf-HR :0.83482: L2-HR :0.82430: (Sim:1h20m17s) 
CPU  2 inst:   90000000 cyc:   87389644 now IPC :1.09645: AVG IPC :1.01849: L2-Pf-HR :0.83678: L2-HR :0.82538: (Sim:1h20m17s) 
CPU  0 inst:   90000000 cyc:   87390080 now IPC :1.07077: AVG IPC :1.01848: L2-Pf-HR :0.83726: L2-HR :0.82608: (Sim:1h20m17s) 
CPU  2 inst:   91000001 cyc:   88258484 now IPC :1.15096: AVG IPC :1.01981: L2-Pf-HR :0.83670: L2-HR :0.82526: (Sim:1h21m10s) 
CPU  1 inst:   91000000 cyc:   88270055 now IPC :1.12455: AVG IPC :1.01966: L2-Pf-HR :0.83769: L2-HR :0.82633: (Sim:1h21m11s) 
CPU  0 inst:   91000001 cyc:   88280571 now IPC :1.12298: AVG IPC :1.01954: L2-Pf-HR :0.83724: L2-HR :0.82595: (Sim:1h21m12s) 
CPU  3 inst:   91000001 cyc:   88286079 now IPC :1.10644: AVG IPC :1.01947: L2-Pf-HR :0.83472: L2-HR :0.82421: (Sim:1h21m12s) 
CPU  3 inst:   92000001 cyc:   89121177 now IPC :1.19746: AVG IPC :1.02116: L2-Pf-HR :0.83463: L2-HR :0.82409: (Sim:1h22m4s) 
CPU  0 inst:   92000001 cyc:   89127260 now IPC :1.18107: AVG IPC :1.02110: L2-Pf-HR :0.83717: L2-HR :0.82576: (Sim:1h22m5s) 
CPU  2 inst:   92000000 cyc:   89128797 now IPC :1.14901: AVG IPC :1.02108: L2-Pf-HR :0.83662: L2-HR :0.82510: (Sim:1h22m5s) 
CPU  1 inst:   92000001 cyc:   89133396 now IPC :1.15829: AVG IPC :1.02102: L2-Pf-HR :0.83760: L2-HR :0.82619: (Sim:1h22m5s) 
CPU  3 inst:   93000002 cyc:   90016845 now IPC :1.11649: AVG IPC :1.02212: L2-Pf-HR :0.83472: L2-HR :0.82406: (Sim:1h22m59s) 
CPU  1 inst:   93000001 cyc:   90069174 now IPC :1.06863: AVG IPC :1.02152: L2-Pf-HR :0.83771: L2-HR :0.82615: (Sim:1h23m1s) 
CPU  2 inst:   93000000 cyc:   90069267 now IPC :1.06330: AVG IPC :1.02153: L2-Pf-HR :0.83669: L2-HR :0.82499: (Sim:1h23m1s) 
CPU  0 inst:   93000003 cyc:   90098080 now IPC :1.03006: AVG IPC :1.02119: L2-Pf-HR :0.83725: L2-HR :0.82564: (Sim:1h23m1s) 
CPU  0 inst:   94000004 cyc:   91041120 now IPC :1.06040: AVG IPC :1.02160: L2-Pf-HR :0.83780: L2-HR :0.82647: (Sim:1h23m55s) 
CPU  2 inst:   94000004 cyc:   91046440 now IPC :1.02336: AVG IPC :1.02155: L2-Pf-HR :0.83716: L2-HR :0.82571: (Sim:1h23m55s) 
CPU  3 inst:   94000004 cyc:   91051834 now IPC :0.96620: AVG IPC :1.02148: L2-Pf-HR :0.83526: L2-HR :0.82491: (Sim:1h23m55s) 
CPU  1 inst:   94000004 cyc:   91068308 now IPC :1.00087: AVG IPC :1.02129: L2-Pf-HR :0.83811: L2-HR :0.82677: (Sim:1h23m57s) 
CPU  2 inst:   95000005 cyc:   91882233 now IPC :1.19647: AVG IPC :1.02316: L2-Pf-HR :0.83770: L2-HR :0.82648: (Sim:1h24m48s) 
CPU  3 inst:   95000005 cyc:   91885597 now IPC :1.19938: AVG IPC :1.02311: L2-Pf-HR :0.83588: L2-HR :0.82585: (Sim:1h24m48s) 
CPU  0 inst:   95000005 cyc:   91888948 now IPC :1.17949: AVG IPC :1.02308: L2-Pf-HR :0.83850: L2-HR :0.82744: (Sim:1h24m48s) 
CPU  1 inst:   95000005 cyc:   91890239 now IPC :1.21665: AVG IPC :1.02306: L2-Pf-HR :0.83861: L2-HR :0.82747: (Sim:1h24m48s) 
CPU  2 inst:   96000003 cyc:   92733788 now IPC :1.17432: AVG IPC :1.02456: L2-Pf-HR :0.83827: L2-HR :0.82727: (Sim:1h25m40s) 
CPU  1 inst:   96000003 cyc:   92746891 now IPC :1.16733: AVG IPC :1.02440: L2-Pf-HR :0.83916: L2-HR :0.82818: (Sim:1h25m41s) 
CPU  0 inst:   96000003 cyc:   92746946 now IPC :1.16550: AVG IPC :1.02441: L2-Pf-HR :0.83915: L2-HR :0.82835: (Sim:1h25m41s) 
CPU  3 inst:   96000003 cyc:   92750336 now IPC :1.15642: AVG IPC :1.02436: L2-Pf-HR :0.83647: L2-HR :0.82674: (Sim:1h25m41s) 
CPU  2 inst:   97000000 cyc:   93816306 now IPC :0.92377: AVG IPC :1.02338: L2-Pf-HR :0.83895: L2-HR :0.82802: (Sim:1h26m39s) 
CPU  3 inst:   97000000 cyc:   93844175 now IPC :0.91421: AVG IPC :1.02307: L2-Pf-HR :0.83726: L2-HR :0.82764: (Sim:1h26m40s) 
CPU  1 inst:   97000000 cyc:   93852821 now IPC :0.90421: AVG IPC :1.02297: L2-Pf-HR :0.83983: L2-HR :0.82888: (Sim:1h26m40s) 
CPU  0 inst:   97000000 cyc:   93857358 now IPC :0.90056: AVG IPC :1.02293: L2-Pf-HR :0.83993: L2-HR :0.82920: (Sim:1h26m40s) 
CPU  1 inst:   98000002 cyc:   95352429 now IPC :0.66684: AVG IPC :1.01731: L2-Pf-HR :0.83960: L2-HR :0.82861: (Sim:1h27m47s) 
CPU  0 inst:   98000005 cyc:   95352977 now IPC :0.66862: AVG IPC :1.01731: L2-Pf-HR :0.83972: L2-HR :0.82895: (Sim:1h27m47s) 
CPU  3 inst:   98000002 cyc:   95358711 now IPC :0.66027: AVG IPC :1.01724: L2-Pf-HR :0.83702: L2-HR :0.82731: (Sim:1h27m47s) 
CPU  2 inst:   98000002 cyc:   95366623 now IPC :0.64503: AVG IPC :1.01717: L2-Pf-HR :0.83872: L2-HR :0.82773: (Sim:1h27m48s) 
CPU  3 inst:   99000001 cyc:   96341773 now IPC :1.01723: AVG IPC :1.01724: L2-Pf-HR :0.83693: L2-HR :0.82710: (Sim:1h28m45s) 
CPU  0 inst:   99000001 cyc:   96345125 now IPC :1.00791: AVG IPC :1.01721: L2-Pf-HR :0.83963: L2-HR :0.82879: (Sim:1h28m45s) 
CPU  2 inst:   99000001 cyc:   96349828 now IPC :1.01708: AVG IPC :1.01717: L2-Pf-HR :0.83866: L2-HR :0.82756: (Sim:1h28m46s) 
CPU  1 inst:   99000001 cyc:   96351161 now IPC :1.00127: AVG IPC :1.01715: L2-Pf-HR :0.83949: L2-HR :0.82840: (Sim:1h28m46s) 
CPU  3 inst:  100000002 cyc:   97409109 now IPC :0.93691: AVG IPC :1.01636: L2-Pf-HR :0.83685: L2-HR :0.82688: (Sim:1h29m44s) 
CPU  0 inst:  100000005 cyc:   97421446 now IPC :0.92909: AVG IPC :1.01623: L2-Pf-HR :0.83956: L2-HR :0.82864: (Sim:1h29m45s) 
CPU  2 inst:  100000001 cyc:   97451618 now IPC :0.90761: AVG IPC :1.01592: L2-Pf-HR :0.83855: L2-HR :0.82735: (Sim:1h29m47s) 
CPU  1 inst:  100000005 cyc:   97455045 now IPC :0.90590: AVG IPC :1.01587: L2-Pf-HR :0.83933: L2-HR :0.82814: (Sim:1h29m47s) 
CPU  3 inst:  101000000 cyc:   98467276 now IPC :0.94503: AVG IPC :1.01558: L2-Pf-HR :0.83689: L2-HR :0.82678: (Sim:1h30m43s) 
CPU  0 inst:  101000000 cyc:   98480015 now IPC :0.94467: AVG IPC :1.01545: L2-Pf-HR :0.83959: L2-HR :0.82857: (Sim:1h30m44s) 
CPU  2 inst:  101000000 cyc:   98481530 now IPC :0.97096: AVG IPC :1.01544: L2-Pf-HR :0.83853: L2-HR :0.82721: (Sim:1h30m44s) 
CPU  1 inst:  101000000 cyc:   98528270 now IPC :0.93177: AVG IPC :1.01495: L2-Pf-HR :0.83929: L2-HR :0.82800: (Sim:1h30m47s) 
CPU  2 inst:  102000004 cyc:   99509520 now IPC :0.97278: AVG IPC :1.01500: L2-Pf-HR :0.83859: L2-HR :0.82714: (Sim:1h31m41s) 
CPU  3 inst:  102000004 cyc:   99520428 now IPC :0.94953: AVG IPC :1.01487: L2-Pf-HR :0.83694: L2-HR :0.82666: (Sim:1h31m41s) 
CPU  0 inst:  102000004 cyc:   99532194 now IPC :0.95041: AVG IPC :1.01476: L2-Pf-HR :0.83967: L2-HR :0.82854: (Sim:1h31m42s) 
CPU  1 inst:  102000004 cyc:   99537696 now IPC :0.99067: AVG IPC :1.01470: L2-Pf-HR :0.83926: L2-HR :0.82788: (Sim:1h31m42s) 
CPU  3 inst:  103000001 cyc:  100142092 now IPC :1.60858: AVG IPC :1.01860: L2-Pf-HR :0.83710: L2-HR :0.82663: (Sim:1h32m28s) 
CPU  1 inst:  103000001 cyc:  100154093 now IPC :1.62233: AVG IPC :1.01848: L2-Pf-HR :0.83935: L2-HR :0.82782: (Sim:1h32m29s) 
CPU  0 inst:  103000001 cyc:  100160734 now IPC :1.59098: AVG IPC :1.01841: L2-Pf-HR :0.83976: L2-HR :0.82849: (Sim:1h32m30s) 
CPU  2 inst:  103000001 cyc:  100165542 now IPC :1.52433: AVG IPC :1.01837: L2-Pf-HR :0.83875: L2-HR :0.82715: (Sim:1h32m30s) 
CPU  3 inst:  104000005 cyc:  101938324 now IPC :0.55672: AVG IPC :1.01038: L2-Pf-HR :0.83706: L2-HR :0.82649: (Sim:1h33m41s) 
CPU  0 inst:  104000001 cyc:  101942289 now IPC :0.56131: AVG IPC :1.01034: L2-Pf-HR :0.83970: L2-HR :0.82834: (Sim:1h33m41s) 
CPU  2 inst:  104000004 cyc:  101958182 now IPC :0.55784: AVG IPC :1.01019: L2-Pf-HR :0.83863: L2-HR :0.82697: (Sim:1h33m42s) 
CPU  1 inst:  104000001 cyc:  101962652 now IPC :0.55293: AVG IPC :1.01014: L2-Pf-HR :0.83928: L2-HR :0.82768: (Sim:1h33m42s) 
CPU  1 inst:  105000001 cyc:  102812293 now IPC :1.17697: AVG IPC :1.01153: L2-Pf-HR :0.83940: L2-HR :0.82769: (Sim:1h34m33s) 
CPU  2 inst:  105000001 cyc:  102812327 now IPC :1.17076: AVG IPC :1.01154: L2-Pf-HR :0.83867: L2-HR :0.82691: (Sim:1h34m33s) 
CPU  3 inst:  105000001 cyc:  102813161 now IPC :1.14307: AVG IPC :1.01152: L2-Pf-HR :0.83718: L2-HR :0.82649: (Sim:1h34m33s) 
CPU  0 inst:  105000001 cyc:  102819564 now IPC :1.13989: AVG IPC :1.01146: L2-Pf-HR :0.83978: L2-HR :0.82831: (Sim:1h34m33s) 
CPU  3 inst:  106000005 cyc:  103678116 now IPC :1.15613: AVG IPC :1.01274: L2-Pf-HR :0.83728: L2-HR :0.82649: (Sim:1h35m23s) 
CPU  0 inst:  106000005 cyc:  103693700 now IPC :1.14399: AVG IPC :1.01259: L2-Pf-HR :0.83988: L2-HR :0.82830: (Sim:1h35m24s) 
CPU  2 inst:  106000005 cyc:  103731423 now IPC :1.08803: AVG IPC :1.01222: L2-Pf-HR :0.83873: L2-HR :0.82689: (Sim:1h35m26s) 
CPU  1 inst:  106000005 cyc:  103732034 now IPC :1.08727: AVG IPC :1.01221: L2-Pf-HR :0.83951: L2-HR :0.82768: (Sim:1h35m26s) 
CPU  0 inst:  107000005 cyc:  104580510 now IPC :1.12764: AVG IPC :1.01357: L2-Pf-HR :0.83999: L2-HR :0.82830: (Sim:1h36m16s) 
CPU  2 inst:  107000005 cyc:  104580573 now IPC :1.17765: AVG IPC :1.01358: L2-Pf-HR :0.83872: L2-HR :0.82682: (Sim:1h36m16s) 
CPU  3 inst:  107000005 cyc:  104582711 now IPC :1.10547: AVG IPC :1.01355: L2-Pf-HR :0.83737: L2-HR :0.82648: (Sim:1h36m16s) 
CPU  1 inst:  107000005 cyc:  104592251 now IPC :1.16250: AVG IPC :1.01345: L2-Pf-HR :0.83964: L2-HR :0.82769: (Sim:1h36m17s) 
CPU  3 inst:  108000005 cyc:  105419395 now IPC :1.19519: AVG IPC :1.01500: L2-Pf-HR :0.83743: L2-HR :0.82644: (Sim:1h37m7s) 
CPU  2 inst:  108000005 cyc:  105419912 now IPC :1.19141: AVG IPC :1.01501: L2-Pf-HR :0.83867: L2-HR :0.82672: (Sim:1h37m7s) 
CPU  1 inst:  108000005 cyc:  105425172 now IPC :1.20059: AVG IPC :1.01495: L2-Pf-HR :0.83972: L2-HR :0.82768: (Sim:1h37m7s) 
CPU  0 inst:  108000005 cyc:  105428139 now IPC :1.17976: AVG IPC :1.01492: L2-Pf-HR :0.84005: L2-HR :0.82825: (Sim:1h37m8s) 
CPU  0 inst:  109000001 cyc:  105950204 now IPC :1.91546: AVG IPC :1.01940: L2-Pf-HR :0.84024: L2-HR :0.82830: (Sim:1h37m51s) 
CPU  1 inst:  109000001 cyc:  105952286 now IPC :1.89712: AVG IPC :1.01938: L2-Pf-HR :0.83991: L2-HR :0.82773: (Sim:1h37m51s) 
CPU  2 inst:  109000001 cyc:  105957181 now IPC :1.86126: AVG IPC :1.01934: L2-Pf-HR :0.83882: L2-HR :0.82676: (Sim:1h37m52s) 
CPU  3 inst:  109000001 cyc:  105959191 now IPC :1.85254: AVG IPC :1.01931: L2-Pf-HR :0.83762: L2-HR :0.82648: (Sim:1h37m52s) 
CPU  2 inst:  110000005 cyc:  107324879 now IPC :0.73116: AVG IPC :1.01563: L2-Pf-HR :0.83914: L2-HR :0.82714: (Sim:1h38m42s) 
CPU  0 inst:  110000005 cyc:  107333938 now IPC :0.72269: AVG IPC :1.01554: L2-Pf-HR :0.84057: L2-HR :0.82872: (Sim:1h38m43s) 
CPU  1 inst:  110000003 cyc:  107344379 now IPC :0.71834: AVG IPC :1.01544: L2-Pf-HR :0.84018: L2-HR :0.82808: (Sim:1h38m43s) 
CPU  3 inst:  110000005 cyc:  107350180 now IPC :0.71892: AVG IPC :1.01538: L2-Pf-HR :0.83798: L2-HR :0.82690: (Sim:1h38m43s) 
CPU  1 inst:  111000002 cyc:  108211490 now IPC :1.15325: AVG IPC :1.01655: L2-Pf-HR :0.84058: L2-HR :0.82861: (Sim:1h39m35s) 
CPU  2 inst:  111000005 cyc:  108220572 now IPC :1.11645: AVG IPC :1.01647: L2-Pf-HR :0.83956: L2-HR :0.82768: (Sim:1h39m35s) 
CPU  0 inst:  111000001 cyc:  108221651 now IPC :1.12649: AVG IPC :1.01646: L2-Pf-HR :0.84103: L2-HR :0.82934: (Sim:1h39m35s) 
CPU  3 inst:  111000001 cyc:  108223030 now IPC :1.14567: AVG IPC :1.01644: L2-Pf-HR :0.83842: L2-HR :0.82748: (Sim:1h39m35s) 
CPU  0 inst:  112000005 cyc:  109084848 now IPC :1.15849: AVG IPC :1.01759: L2-Pf-HR :0.84142: L2-HR :0.82991: (Sim:1h40m27s) 
CPU  2 inst:  112000005 cyc:  109088775 now IPC :1.15180: AVG IPC :1.01756: L2-Pf-HR :0.83995: L2-HR :0.82821: (Sim:1h40m28s) 
CPU  3 inst:  112000005 cyc:  109089428 now IPC :1.15421: AVG IPC :1.01755: L2-Pf-HR :0.83885: L2-HR :0.82803: (Sim:1h40m28s) 
CPU  1 inst:  112000005 cyc:  109113999 now IPC :1.10803: AVG IPC :1.01732: L2-Pf-HR :0.84093: L2-HR :0.82910: (Sim:1h40m29s) 
CPU  2 inst:  113000002 cyc:  109753043 now IPC :1.50541: AVG IPC :1.02054: L2-Pf-HR :0.84050: L2-HR :0.82884: (Sim:1h41m16s) 
CPU  1 inst:  113000000 cyc:  109755525 now IPC :1.55878: AVG IPC :1.02051: L2-Pf-HR :0.84148: L2-HR :0.82972: (Sim:1h41m16s) 
CPU  0 inst:  113000000 cyc:  109760237 now IPC :1.48062: AVG IPC :1.02047: L2-Pf-HR :0.84202: L2-HR :0.83062: (Sim:1h41m17s) 
CPU  3 inst:  113000000 cyc:  109763210 now IPC :1.48415: AVG IPC :1.02044: L2-Pf-HR :0.83945: L2-HR :0.82869: (Sim:1h41m17s) 
CPU  2 inst:  114000000 cyc:  111656891 now IPC :0.52525: AVG IPC :1.01202: L2-Pf-HR :0.84024: L2-HR :0.82853: (Sim:1h42m30s) 
CPU  3 inst:  114000003 cyc:  111677534 now IPC :0.52238: AVG IPC :1.01182: L2-Pf-HR :0.83916: L2-HR :0.82835: (Sim:1h42m31s) 
CPU  1 inst:  114000000 cyc:  111686705 now IPC :0.51782: AVG IPC :1.01174: L2-Pf-HR :0.84122: L2-HR :0.82938: (Sim:1h42m31s) 
CPU  0 inst:  114000000 cyc:  111746514 now IPC :0.50345: AVG IPC :1.01120: L2-Pf-HR :0.84172: L2-HR :0.83023: (Sim:1h42m35s) 
CPU  2 inst:  115000000 cyc:  112650050 now IPC :1.00689: AVG IPC :1.01197: L2-Pf-HR :0.84018: L2-HR :0.82844: (Sim:1h43m27s) 
CPU  3 inst:  115000000 cyc:  112651016 now IPC :1.02724: AVG IPC :1.01196: L2-Pf-HR :0.83907: L2-HR :0.82821: (Sim:1h43m27s) 
CPU  0 inst:  115000000 cyc:  112666510 now IPC :1.08696: AVG IPC :1.01182: L2-Pf-HR :0.84163: L2-HR :0.83002: (Sim:1h43m28s) 
CPU  1 inst:  115000000 cyc:  112668555 now IPC :1.01849: AVG IPC :1.01180: L2-Pf-HR :0.84113: L2-HR :0.82919: (Sim:1h43m28s) 
CPU  2 inst:  116000002 cyc:  113704387 now IPC :0.94847: AVG IPC :1.01138: L2-Pf-HR :0.84015: L2-HR :0.82841: (Sim:1h44m26s) 
CPU  0 inst:  116000004 cyc:  113707618 now IPC :0.96052: AVG IPC :1.01135: L2-Pf-HR :0.84154: L2-HR :0.82985: (Sim:1h44m26s) 
CPU  3 inst:  116000002 cyc:  113712336 now IPC :0.94222: AVG IPC :1.01130: L2-Pf-HR :0.83901: L2-HR :0.82811: (Sim:1h44m26s) 
CPU  1 inst:  116000002 cyc:  113720567 now IPC :0.95056: AVG IPC :1.01123: L2-Pf-HR :0.84106: L2-HR :0.82905: (Sim:1h44m27s) 
CPU  0 inst:  117000000 cyc:  114790411 now IPC :0.92353: AVG IPC :1.01051: L2-Pf-HR :0.84146: L2-HR :0.82968: (Sim:1h45m24s) 
CPU  3 inst:  117000002 cyc:  114792538 now IPC :0.92575: AVG IPC :1.01049: L2-Pf-HR :0.83896: L2-HR :0.82802: (Sim:1h45m24s) 
CPU  1 inst:  117000002 cyc:  114794398 now IPC :0.93125: AVG IPC :1.01047: L2-Pf-HR :0.84103: L2-HR :0.82893: (Sim:1h45m24s) 
CPU  2 inst:  117000002 cyc:  114795198 now IPC :0.91675: AVG IPC :1.01047: L2-Pf-HR :0.84013: L2-HR :0.82839: (Sim:1h45m24s) 
CPU  1 inst:  118000001 cyc:  115842025 now IPC :0.95454: AVG IPC :1.00996: L2-Pf-HR :0.84098: L2-HR :0.82879: (Sim:1h46m19s) 
CPU  2 inst:  118000001 cyc:  115844741 now IPC :0.95279: AVG IPC :1.00995: L2-Pf-HR :0.84009: L2-HR :0.82835: (Sim:1h46m20s) 
CPU  0 inst:  118000001 cyc:  115887713 now IPC :0.91133: AVG IPC :1.00956: L2-Pf-HR :0.84141: L2-HR :0.82954: (Sim:1h46m22s) 
CPU  3 inst:  118000001 cyc:  115924137 now IPC :0.88370: AVG IPC :1.00924: L2-Pf-HR :0.83889: L2-HR :0.82793: (Sim:1h46m23s) 
CPU  2 inst:  119000005 cyc:  116548620 now IPC :1.42070: AVG IPC :1.01245: L2-Pf-HR :0.84024: L2-HR :0.82842: (Sim:1h47m10s) 
CPU  1 inst:  119000005 cyc:  116552963 now IPC :1.40660: AVG IPC :1.01240: L2-Pf-HR :0.84102: L2-HR :0.82870: (Sim:1h47m10s) 
CPU  0 inst:  119000005 cyc:  116553283 now IPC :1.50248: AVG IPC :1.01240: L2-Pf-HR :0.84144: L2-HR :0.82943: (Sim:1h47m10s) 
CPU  3 inst:  119000005 cyc:  116557730 now IPC :1.57831: AVG IPC :1.01236: L2-Pf-HR :0.83904: L2-HR :0.82798: (Sim:1h47m11s) 
CPU  2 inst:  120000005 cyc:  118221610 now IPC :0.59773: AVG IPC :1.00653: L2-Pf-HR :0.84005: L2-HR :0.82821: (Sim:1h48m19s) 
CPU  0 inst:  120000005 cyc:  118225925 now IPC :0.59786: AVG IPC :1.00649: L2-Pf-HR :0.84128: L2-HR :0.82923: (Sim:1h48m19s) 
CPU  3 inst:  120000001 cyc:  118251740 now IPC :0.59031: AVG IPC :1.00626: L2-Pf-HR :0.83886: L2-HR :0.82774: (Sim:1h48m21s) 
CPU  1 inst:  120000005 cyc:  118252904 now IPC :0.58826: AVG IPC :1.00625: L2-Pf-HR :0.84085: L2-HR :0.82848: (Sim:1h48m21s) 
CPU  2 inst:  121000005 cyc:  119129240 now IPC :1.10177: AVG IPC :1.00726: L2-Pf-HR :0.83986: L2-HR :0.82803: (Sim:1h49m13s) 
CPU  0 inst:  121000005 cyc:  119135661 now IPC :1.09922: AVG IPC :1.00720: L2-Pf-HR :0.84117: L2-HR :0.82911: (Sim:1h49m13s) 
CPU  1 inst:  121000005 cyc:  119136602 now IPC :1.13161: AVG IPC :1.00719: L2-Pf-HR :0.84072: L2-HR :0.82833: (Sim:1h49m13s) 
CPU  3 inst:  121000005 cyc:  119137185 now IPC :1.12938: AVG IPC :1.00718: L2-Pf-HR :0.83875: L2-HR :0.82755: (Sim:1h49m13s) 
CPU  2 inst:  122000003 cyc:  120015219 now IPC :1.12869: AVG IPC :1.00816: L2-Pf-HR :0.83974: L2-HR :0.82788: (Sim:1h49m47s) 
CPU  3 inst:  122000003 cyc:  120017772 now IPC :1.13560: AVG IPC :1.00814: L2-Pf-HR :0.83869: L2-HR :0.82742: (Sim:1h49m47s) 
CPU  1 inst:  122000005 cyc:  120019921 now IPC :1.13209: AVG IPC :1.00812: L2-Pf-HR :0.84064: L2-HR :0.82819: (Sim:1h49m47s) 
CPU  0 inst:  122000003 cyc:  120020222 now IPC :1.13050: AVG IPC :1.00812: L2-Pf-HR :0.84110: L2-HR :0.82900: (Sim:1h49m47s) 
CPU  1 inst:  123000003 cyc:  120873330 now IPC :1.17177: AVG IPC :1.00928: L2-Pf-HR :0.84053: L2-HR :0.82806: (Sim:1h50m37s) 
CPU  0 inst:  123000003 cyc:  120874774 now IPC :1.17020: AVG IPC :1.00927: L2-Pf-HR :0.84100: L2-HR :0.82891: (Sim:1h50m37s) 
CPU  2 inst:  123000002 cyc:  120891115 now IPC :1.14169: AVG IPC :1.00914: L2-Pf-HR :0.83956: L2-HR :0.82771: (Sim:1h50m38s) 
CPU  3 inst:  123000003 cyc:  120897066 now IPC :1.13728: AVG IPC :1.00908: L2-Pf-HR :0.83854: L2-HR :0.82722: (Sim:1h50m38s) 
CPU  0 inst:  124000003 cyc:  121713009 now IPC :1.19298: AVG IPC :1.01055: L2-Pf-HR :0.84091: L2-HR :0.82879: (Sim:1h51m28s) 
CPU  2 inst:  124000003 cyc:  121714102 now IPC :1.21509: AVG IPC :1.01054: L2-Pf-HR :0.83936: L2-HR :0.82750: (Sim:1h51m28s) 
CPU  3 inst:  124000003 cyc:  121717914 now IPC :1.21825: AVG IPC :1.01050: L2-Pf-HR :0.83841: L2-HR :0.82702: (Sim:1h51m29s) 
CPU  1 inst:  124000003 cyc:  121721467 now IPC :1.17905: AVG IPC :1.01048: L2-Pf-HR :0.84043: L2-HR :0.82791: (Sim:1h51m29s) 
CPU  3 inst:  125000003 cyc:  122273211 now IPC :1.80084: AVG IPC :1.01412: L2-Pf-HR :0.83842: L2-HR :0.82691: (Sim:1h52m13s) 
CPU  1 inst:  125000003 cyc:  122274008 now IPC :1.80982: AVG IPC :1.01412: L2-Pf-HR :0.84050: L2-HR :0.82789: (Sim:1h52m13s) 
CPU  0 inst:  125000003 cyc:  122284253 now IPC :1.75057: AVG IPC :1.01403: L2-Pf-HR :0.84097: L2-HR :0.82877: (Sim:1h52m14s) 
CPU  2 inst:  125000003 cyc:  122284469 now IPC :1.75326: AVG IPC :1.01404: L2-Pf-HR :0.83935: L2-HR :0.82744: (Sim:1h52m14s) 
CPU  1 inst:  126000005 cyc:  123623379 now IPC :0.74109: AVG IPC :1.01111: L2-Pf-HR :0.84057: L2-HR :0.82804: (Sim:1h53m7s) 
CPU  0 inst:  126000005 cyc:  123635868 now IPC :0.73986: AVG IPC :1.01101: L2-Pf-HR :0.84111: L2-HR :0.82901: (Sim:1h53m7s) 
CPU  3 inst:  126000005 cyc:  123637249 now IPC :0.73312: AVG IPC :1.01100: L2-Pf-HR :0.83858: L2-HR :0.82717: (Sim:1h53m8s) 
CPU  2 inst:  126000005 cyc:  123649410 now IPC :0.73263: AVG IPC :1.01090: L2-Pf-HR :0.83951: L2-HR :0.82769: (Sim:1h53m8s) 
CPU  3 inst:  127000002 cyc:  124472952 now IPC :1.19659: AVG IPC :1.01225: L2-Pf-HR :0.83893: L2-HR :0.82770: (Sim:1h53m46s) 
CPU  1 inst:  127000002 cyc:  124493450 now IPC :1.14933: AVG IPC :1.01209: L2-Pf-HR :0.84080: L2-HR :0.82839: (Sim:1h53m47s) 
CPU  0 inst:  127000002 cyc:  124510425 now IPC :1.14343: AVG IPC :1.01195: L2-Pf-HR :0.84139: L2-HR :0.82945: (Sim:1h53m48s) 
CPU  2 inst:  127000002 cyc:  124520899 now IPC :1.14746: AVG IPC :1.01187: L2-Pf-HR :0.83984: L2-HR :0.82818: (Sim:1h53m48s) 
CPU  1 inst:  128000000 cyc:  125383484 now IPC :1.12355: AVG IPC :1.01288: L2-Pf-HR :0.84111: L2-HR :0.82882: (Sim:1h54m31s) 
CPU  2 inst:  128000000 cyc:  125389127 now IPC :1.15177: AVG IPC :1.01284: L2-Pf-HR :0.84019: L2-HR :0.82871: (Sim:1h54m32s) 
CPU  0 inst:  128000000 cyc:  125390106 now IPC :1.13677: AVG IPC :1.01283: L2-Pf-HR :0.84172: L2-HR :0.82992: (Sim:1h54m32s) 
CPU  3 inst:  128000000 cyc:  125391760 now IPC :1.08836: AVG IPC :1.01282: L2-Pf-HR :0.83932: L2-HR :0.82828: (Sim:1h54m32s) 
CPU  1 inst:  129000001 cyc:  126101094 now IPC :1.39352: AVG IPC :1.01507: L2-Pf-HR :0.84151: L2-HR :0.82930: (Sim:1h55m20s) 
CPU  3 inst:  129000001 cyc:  126103732 now IPC :1.40455: AVG IPC :1.01504: L2-Pf-HR :0.83986: L2-HR :0.82895: (Sim:1h55m20s) 
CPU  2 inst:  129000001 cyc:  126104139 now IPC :1.39858: AVG IPC :1.01505: L2-Pf-HR :0.84068: L2-HR :0.82933: (Sim:1h55m21s) 
CPU  0 inst:  129000001 cyc:  126106253 now IPC :1.39636: AVG IPC :1.01503: L2-Pf-HR :0.84216: L2-HR :0.83047: (Sim:1h55m21s) 
CPU  1 inst:  130000005 cyc:  143144581 now IPC :0.05867: AVG IPC :0.90040: L2-Pf-HR :0.83769: L2-HR :0.82323: (Sim:2h3m4s) 
CPU  3 inst:  130000002 cyc:  143248185 now IPC :0.05833: AVG IPC :0.89975: L2-Pf-HR :0.83605: L2-HR :0.82293: (Sim:2h3m7s) 
CPU  0 inst:  130000005 cyc:  143436122 now IPC :0.05770: AVG IPC :0.89856: L2-Pf-HR :0.83835: L2-HR :0.82441: (Sim:2h3m13s) 
CPU  2 inst:  130000005 cyc:  143516116 now IPC :0.05743: AVG IPC :0.89806: L2-Pf-HR :0.83685: L2-HR :0.82329: (Sim:2h3m16s) 
CPU  3 inst:  131000004 cyc:  164753897 now IPC :0.04650: AVG IPC :0.78770: L2-Pf-HR :0.83138: L2-HR :0.81578: (Sim:2h13m57s) 
CPU  1 inst:  131000001 cyc:  165131801 now IPC :0.04548: AVG IPC :0.78589: L2-Pf-HR :0.83300: L2-HR :0.81610: (Sim:2h14m10s) 
CPU  0 inst:  131000001 cyc:  165217221 now IPC :0.04591: AVG IPC :0.78548: L2-Pf-HR :0.83366: L2-HR :0.81726: (Sim:2h14m12s) 
CPU  2 inst:  131000004 cyc:  165464751 now IPC :0.04556: AVG IPC :0.78430: L2-Pf-HR :0.83215: L2-HR :0.81615: (Sim:2h14m21s) 
CPU  3 inst:  132000000 cyc:  186305077 now IPC :0.04640: AVG IPC :0.70149: L2-Pf-HR :0.82679: L2-HR :0.80901: (Sim:2h25m44s) 
CPU  1 inst:  132000003 cyc:  186847225 now IPC :0.04605: AVG IPC :0.69945: L2-Pf-HR :0.82841: L2-HR :0.80934: (Sim:2h26m1s) 
CPU  0 inst:  132000003 cyc:  187173624 now IPC :0.04554: AVG IPC :0.69822: L2-Pf-HR :0.82906: L2-HR :0.81047: (Sim:2h26m12s) 
CPU  2 inst:  132000000 cyc:  187471926 now IPC :0.04544: AVG IPC :0.69711: L2-Pf-HR :0.82756: L2-HR :0.80939: (Sim:2h26m21s) 
CPU  3 inst:  133000002 cyc:  207961511 now IPC :0.04618: AVG IPC :0.63292: L2-Pf-HR :0.82228: L2-HR :0.80258: (Sim:2h36m47s) 
CPU  1 inst:  133000002 cyc:  208678918 now IPC :0.04580: AVG IPC :0.63074: L2-Pf-HR :0.82390: L2-HR :0.80292: (Sim:2h37m9s) 
CPU  0 inst:  133000002 cyc:  209049976 now IPC :0.04571: AVG IPC :0.62962: L2-Pf-HR :0.82454: L2-HR :0.80403: (Sim:2h37m20s) 
CPU  2 inst:  133000002 cyc:  209381148 now IPC :0.04564: AVG IPC :0.62862: L2-Pf-HR :0.82304: L2-HR :0.80297: (Sim:2h37m30s) 
CPU  3 inst:  134000000 cyc:  229494270 now IPC :0.04644: AVG IPC :0.57766: L2-Pf-HR :0.81797: L2-HR :0.79661: (Sim:2h45m25s) 
CPU  1 inst:  134000000 cyc:  230010201 now IPC :0.04688: AVG IPC :0.57636: L2-Pf-HR :0.81957: L2-HR :0.79696: (Sim:2h45m31s) 
CPU  0 inst:  134000000 cyc:  230098012 now IPC :0.04751: AVG IPC :0.57614: L2-Pf-HR :0.82022: L2-HR :0.79806: (Sim:2h45m32s) 
CPU  2 inst:  134000000 cyc:  230121630 now IPC :0.04821: AVG IPC :0.57608: L2-Pf-HR :0.81873: L2-HR :0.79700: (Sim:2h45m33s) 
CPU  3 inst:  135000000 cyc:  233642952 now IPC :0.24104: AVG IPC :0.57166: L2-Pf-HR :0.81748: L2-HR :0.79589: (Sim:2h47m0s) 
CPU  1 inst:  135000000 cyc:  234027872 now IPC :0.24890: AVG IPC :0.57071: L2-Pf-HR :0.81909: L2-HR :0.79624: (Sim:2h47m11s) 
CPU  0 inst:  135000000 cyc:  234115542 now IPC :0.24891: AVG IPC :0.57050: L2-Pf-HR :0.81976: L2-HR :0.79735: (Sim:2h47m14s) 
CPU  2 inst:  135000000 cyc:  234130172 now IPC :0.24947: AVG IPC :0.57046: L2-Pf-HR :0.81825: L2-HR :0.79629: (Sim:2h47m14s) 
CPU  3 inst:  136000002 cyc:  237637031 now IPC :0.25037: AVG IPC :0.56623: L2-Pf-HR :0.81704: L2-HR :0.79521: (Sim:2h48m57s) 
CPU  1 inst:  136000002 cyc:  238018124 now IPC :0.25061: AVG IPC :0.56532: L2-Pf-HR :0.81863: L2-HR :0.79555: (Sim:2h49m8s) 
CPU  0 inst:  136000002 cyc:  238104039 now IPC :0.25072: AVG IPC :0.56512: L2-Pf-HR :0.81930: L2-HR :0.79666: (Sim:2h49m10s) 
CPU  2 inst:  136000002 cyc:  238117658 now IPC :0.25079: AVG IPC :0.56509: L2-Pf-HR :0.81780: L2-HR :0.79559: (Sim:2h49m10s) 
CPU  3 inst:  137000000 cyc:  241530652 now IPC :0.25683: AVG IPC :0.56122: L2-Pf-HR :0.81671: L2-HR :0.79460: (Sim:2h50m50s) 
CPU  1 inst:  137000000 cyc:  241908511 now IPC :0.25704: AVG IPC :0.56035: L2-Pf-HR :0.81827: L2-HR :0.79493: (Sim:2h51m1s) 
CPU  0 inst:  137000000 cyc:  241991970 now IPC :0.25721: AVG IPC :0.56015: L2-Pf-HR :0.81898: L2-HR :0.79607: (Sim:2h51m3s) 
CPU  2 inst:  137000000 cyc:  242000696 now IPC :0.25753: AVG IPC :0.56013: L2-Pf-HR :0.81748: L2-HR :0.79500: (Sim:2h51m4s) 
CPU  3 inst:  138000000 cyc:  245344947 now IPC :0.26217: AVG IPC :0.55656: L2-Pf-HR :0.81646: L2-HR :0.79407: (Sim:2h52m42s) 
CPU  1 inst:  138000000 cyc:  245724305 now IPC :0.26207: AVG IPC :0.55569: L2-Pf-HR :0.81805: L2-HR :0.79442: (Sim:2h52m53s) 
CPU  0 inst:  138000000 cyc:  245801701 now IPC :0.26249: AVG IPC :0.55552: L2-Pf-HR :0.81875: L2-HR :0.79555: (Sim:2h52m55s) 
CPU  2 inst:  138000000 cyc:  245817372 now IPC :0.26201: AVG IPC :0.55549: L2-Pf-HR :0.81724: L2-HR :0.79447: (Sim:2h52m56s) 
CPU  3 inst:  139000000 cyc:  249167444 now IPC :0.26161: AVG IPC :0.55201: L2-Pf-HR :0.81622: L2-HR :0.79354: (Sim:2h54m21s) 
CPU  1 inst:  139000000 cyc:  249537800 now IPC :0.26223: AVG IPC :0.55119: L2-Pf-HR :0.81785: L2-HR :0.79393: (Sim:2h54m32s) 
CPU  0 inst:  139000000 cyc:  249617139 now IPC :0.26209: AVG IPC :0.55102: L2-Pf-HR :0.81855: L2-HR :0.79505: (Sim:2h54m34s) 
CPU  2 inst:  139000000 cyc:  249635216 now IPC :0.26193: AVG IPC :0.55098: L2-Pf-HR :0.81703: L2-HR :0.79397: (Sim:2h54m34s) 
CPU  3 inst:  140000002 cyc:  252965482 now IPC :0.26329: AVG IPC :0.54766: L2-Pf-HR :0.81600: L2-HR :0.79305: (Sim:2h55m36s) 
CPU  1 inst:  140000002 cyc:  253329462 now IPC :0.26374: AVG IPC :0.54687: L2-Pf-HR :0.81765: L2-HR :0.79346: (Sim:2h55m43s) 
CPU  0 inst:  140000002 cyc:  253410320 now IPC :0.26363: AVG IPC :0.54670: L2-Pf-HR :0.81832: L2-HR :0.79456: (Sim:2h55m46s) 
CPU  2 inst:  140000002 cyc:  253426191 now IPC :0.26378: AVG IPC :0.54667: L2-Pf-HR :0.81684: L2-HR :0.79351: (Sim:2h55m46s) 
CPU  3 inst:  141000004 cyc:  256760181 now IPC :0.26353: AVG IPC :0.54345: L2-Pf-HR :0.81581: L2-HR :0.79260: (Sim:2h57m26s) 
CPU  1 inst:  141000004 cyc:  257125437 now IPC :0.26344: AVG IPC :0.54267: L2-Pf-HR :0.81742: L2-HR :0.79299: (Sim:2h57m37s) 
CPU  0 inst:  141000004 cyc:  257210644 now IPC :0.26314: AVG IPC :0.54249: L2-Pf-HR :0.81808: L2-HR :0.79408: (Sim:2h57m39s) 
CPU  2 inst:  141000004 cyc:  257225466 now IPC :0.26321: AVG IPC :0.54246: L2-Pf-HR :0.81663: L2-HR :0.79304: (Sim:2h57m39s) 
CPU  3 inst:  142000004 cyc:  260577687 now IPC :0.26195: AVG IPC :0.53931: L2-Pf-HR :0.81558: L2-HR :0.79212: (Sim:2h58m53s) 
CPU  1 inst:  142000004 cyc:  260944973 now IPC :0.26181: AVG IPC :0.53855: L2-Pf-HR :0.81716: L2-HR :0.79249: (Sim:2h59m0s) 
CPU  0 inst:  142000004 cyc:  261025988 now IPC :0.26210: AVG IPC :0.53838: L2-Pf-HR :0.81785: L2-HR :0.79360: (Sim:2h59m1s) 
CPU  2 inst:  142000004 cyc:  261045336 now IPC :0.26179: AVG IPC :0.53834: L2-Pf-HR :0.81640: L2-HR :0.79257: (Sim:2h59m2s) 
CPU  3 inst:  143000000 cyc:  264379055 now IPC :0.26306: AVG IPC :0.53532: L2-Pf-HR :0.81535: L2-HR :0.79165: (Sim:3h0m3s) 
CPU  1 inst:  143000000 cyc:  264751105 now IPC :0.26273: AVG IPC :0.53457: L2-Pf-HR :0.81692: L2-HR :0.79201: (Sim:3h0m10s) 
CPU  0 inst:  143000000 cyc:  264827574 now IPC :0.26305: AVG IPC :0.53441: L2-Pf-HR :0.81766: L2-HR :0.79315: (Sim:3h0m11s) 
CPU  2 inst:  143000000 cyc:  264846476 now IPC :0.26308: AVG IPC :0.53438: L2-Pf-HR :0.81621: L2-HR :0.79212: (Sim:3h0m11s) 
CPU  3 inst:  144000003 cyc:  268186416 now IPC :0.26265: AVG IPC :0.53143: L2-Pf-HR :0.81513: L2-HR :0.79117: (Sim:3h1m14s) 
CPU  1 inst:  144000003 cyc:  268565373 now IPC :0.26217: AVG IPC :0.53068: L2-Pf-HR :0.81667: L2-HR :0.79152: (Sim:3h1m26s) 
CPU  0 inst:  144000003 cyc:  268642202 now IPC :0.26215: AVG IPC :0.53053: L2-Pf-HR :0.81740: L2-HR :0.79266: (Sim:3h1m28s) 
CPU  2 inst:  144000003 cyc:  268668445 now IPC :0.26165: AVG IPC :0.53048: L2-Pf-HR :0.81599: L2-HR :0.79165: (Sim:3h1m29s) 
CPU  3 inst:  145000002 cyc:  271978084 now IPC :0.26374: AVG IPC :0.52769: L2-Pf-HR :0.81494: L2-HR :0.79073: (Sim:3h3m12s) 
CPU  1 inst:  145000002 cyc:  272347645 now IPC :0.26439: AVG IPC :0.52697: L2-Pf-HR :0.81649: L2-HR :0.79109: (Sim:3h3m24s) 
CPU  0 inst:  145000002 cyc:  272431313 now IPC :0.26391: AVG IPC :0.52681: L2-Pf-HR :0.81723: L2-HR :0.79224: (Sim:3h3m26s) 
CPU  2 inst:  145000002 cyc:  272455586 now IPC :0.26405: AVG IPC :0.52676: L2-Pf-HR :0.81582: L2-HR :0.79123: (Sim:3h3m27s) 
CPU  3 inst:  146000000 cyc:  275801512 now IPC :0.26154: AVG IPC :0.52399: L2-Pf-HR :0.81478: L2-HR :0.79031: (Sim:3h5m11s) 
CPU  1 inst:  146000000 cyc:  276189265 now IPC :0.26031: AVG IPC :0.52325: L2-Pf-HR :0.81625: L2-HR :0.79063: (Sim:3h5m23s) 
CPU  0 inst:  146000000 cyc:  276261017 now IPC :0.26112: AVG IPC :0.52311: L2-Pf-HR :0.81704: L2-HR :0.79180: (Sim:3h5m25s) 
CPU  2 inst:  146000000 cyc:  276284072 now IPC :0.26120: AVG IPC :0.52307: L2-Pf-HR :0.81560: L2-HR :0.79077: (Sim:3h5m26s) 
CPU  3 inst:  147000000 cyc:  279613489 now IPC :0.26233: AVG IPC :0.52041: L2-Pf-HR :0.81474: L2-HR :0.78999: (Sim:3h7m8s) 
CPU  1 inst:  147000000 cyc:  279988346 now IPC :0.26322: AVG IPC :0.51971: L2-Pf-HR :0.81620: L2-HR :0.79030: (Sim:3h7m20s) 
CPU  0 inst:  147000000 cyc:  280066671 now IPC :0.26277: AVG IPC :0.51956: L2-Pf-HR :0.81698: L2-HR :0.79146: (Sim:3h7m22s) 
CPU  2 inst:  147000000 cyc:  280090784 now IPC :0.26269: AVG IPC :0.51952: L2-Pf-HR :0.81552: L2-HR :0.79042: (Sim:3h7m23s) 
CPU  3 inst:  148000003 cyc:  283394939 now IPC :0.26445: AVG IPC :0.51698: L2-Pf-HR :0.81472: L2-HR :0.78969: (Sim:3h9m4s) 
CPU  1 inst:  148000003 cyc:  283774435 now IPC :0.26413: AVG IPC :0.51629: L2-Pf-HR :0.81618: L2-HR :0.79000: (Sim:3h9m15s) 
CPU  0 inst:  148000003 cyc:  283852742 now IPC :0.26413: AVG IPC :0.51614: L2-Pf-HR :0.81693: L2-HR :0.79114: (Sim:3h9m18s) 
CPU  2 inst:  148000003 cyc:  283877655 now IPC :0.26407: AVG IPC :0.51610: L2-Pf-HR :0.81554: L2-HR :0.79015: (Sim:3h9m18s) 
CPU  3 inst:  149000002 cyc:  287218310 now IPC :0.26155: AVG IPC :0.51357: L2-Pf-HR :0.81462: L2-HR :0.78933: (Sim:3h11m0s) 
CPU  1 inst:  149000002 cyc:  287596762 now IPC :0.26162: AVG IPC :0.51289: L2-Pf-HR :0.81608: L2-HR :0.78964: (Sim:3h11m11s) 
CPU  0 inst:  149000002 cyc:  287678694 now IPC :0.26137: AVG IPC :0.51274: L2-Pf-HR :0.81682: L2-HR :0.79078: (Sim:3h11m13s) 
CPU  2 inst:  149000002 cyc:  287705278 now IPC :0.26126: AVG IPC :0.51270: L2-Pf-HR :0.81546: L2-HR :0.78980: (Sim:3h11m14s) 
CPU  3 inst:  150000000 cyc:  291016273 now IPC :0.26330: AVG IPC :0.51029: L2-Pf-HR :0.81456: L2-HR :0.78900: (Sim:3h12m52s) 
CPU  1 inst:  150000000 cyc:  291392646 now IPC :0.26344: AVG IPC :0.50963: L2-Pf-HR :0.81603: L2-HR :0.78933: (Sim:3h13m3s) 
CPU  0 inst:  150000000 cyc:  291473636 now IPC :0.26351: AVG IPC :0.50949: L2-Pf-HR :0.81677: L2-HR :0.79046: (Sim:3h13m6s) 
CPU  2 inst:  150000000 cyc:  291502081 now IPC :0.26338: AVG IPC :0.50944: L2-Pf-HR :0.81539: L2-HR :0.78947: (Sim:3h13m7s) 
CPU  3 inst:  151000000 cyc:  294823768 now IPC :0.26264: AVG IPC :0.50708: L2-Pf-HR :0.81449: L2-HR :0.78867: (Sim:3h14m45s) 
CPU  1 inst:  151000000 cyc:  295197085 now IPC :0.26285: AVG IPC :0.50644: L2-Pf-HR :0.81596: L2-HR :0.78900: (Sim:3h14m56s) 
CPU  0 inst:  151000000 cyc:  295284722 now IPC :0.26239: AVG IPC :0.50629: L2-Pf-HR :0.81671: L2-HR :0.79013: (Sim:3h14m58s) 
CPU  2 inst:  151000000 cyc:  295296150 now IPC :0.26357: AVG IPC :0.50627: L2-Pf-HR :0.81528: L2-HR :0.78911: (Sim:3h14m59s) 
CPU  3 inst:  152000002 cyc:  298625630 now IPC :0.26303: AVG IPC :0.50396: L2-Pf-HR :0.81446: L2-HR :0.78837: (Sim:3h16m37s) 
CPU  1 inst:  152000002 cyc:  299017632 now IPC :0.26174: AVG IPC :0.50330: L2-Pf-HR :0.81590: L2-HR :0.78868: (Sim:3h16m49s) 
CPU  0 inst:  152000002 cyc:  299091645 now IPC :0.26268: AVG IPC :0.50318: L2-Pf-HR :0.81665: L2-HR :0.78982: (Sim:3h16m51s) 
CPU  2 inst:  152000002 cyc:  299126818 now IPC :0.26105: AVG IPC :0.50312: L2-Pf-HR :0.81522: L2-HR :0.78879: (Sim:3h16m52s) 
CPU  3 inst:  153000002 cyc:  302422708 now IPC :0.26336: AVG IPC :0.50093: L2-Pf-HR :0.81444: L2-HR :0.78807: (Sim:3h18m29s) 
CPU  1 inst:  153000002 cyc:  302811278 now IPC :0.26360: AVG IPC :0.50029: L2-Pf-HR :0.81586: L2-HR :0.78838: (Sim:3h18m41s) 
CPU  0 inst:  153000002 cyc:  302874033 now IPC :0.26438: AVG IPC :0.50019: L2-Pf-HR :0.81662: L2-HR :0.78952: (Sim:3h18m43s) 
CPU  2 inst:  153000002 cyc:  302917369 now IPC :0.26381: AVG IPC :0.50012: L2-Pf-HR :0.81518: L2-HR :0.78848: (Sim:3h18m44s) 
[...]
Core_3_L1I_writeback_miss 0

Core_3_L2C_total_access 40157297
Core_3_L2C_total_hit 36061933
Core_3_L2C_total_miss 4095364
Core_3_L2C_loads 8132862
Core_3_L2C_load_hit 7160633
Core_3_L2C_load_miss 972229
Core_3_L2C_RFOs 647298
Core_3_L2C_RFO_hit 162466
Core_3_L2C_RFO_miss 484832
Core_3_L2C_prefetches 29439151
Core_3_L2C_prefetch_hit 26802259
Core_3_L2C_prefetch_miss 2636892
Core_3_L2C_writebacks 1937986
Core_3_L2C_writeback_hit 1936575
Core_3_L2C_writeback_miss 1411

CPU 3 L1D next line prefetcher final stats
CPU 3 L2C PC-based stride prefetcher final stats
Stride Degree: 15
MK1  MARKOV_LRU_SIZE: 128
MK1  MARKOV_PREDICTION_PERCENTTHRESHOLD: 40.00000
MK1  OUTLIERS_THRESHOLD_Max: 64
MK1  OUTLIERS_THRESHOLD_Min: 32
MK2  MARKOV_LRU_SIZE: 256
MK2  MARKOV_PREDICTION_PERCENTTHRESHOLD: 30.00000
MK2  OUTLIERS_THRESHOLD_Max: 32
MK2  OUTLIERS_THRESHOLD_Min: 16
MK3  MARKOV_LRU_SIZE: 384
MK3  MARKOV_PREDICTION_PERCENTTHRESHOLD: 25.00000
MK3  OUTLIERS_THRESHOLD_Max: 16
MK3  OUTLIERS_THRESHOLD_Min: 8
MK4  MARKOV_LRU_SIZE: 512
MK4  MARKOV_PREDICTION_PERCENTTHRESHOLD: 20.00000
MK4  OUTLIERS_THRESHOLD_Max: 8
MK4  OUTLIERS_THRESHOLD_Min: 0
IPStride Degree/Access Ratio: 1.43314
MK1 IPDEltaMarkov  Degree/Access Ratio: 0.43644
MK2 IPDEltaMarkov  Degree/Access Ratio: 0.61917
MK3 IPDEltaMarkov  Degree/Access Ratio: 0.74403
MK4 IPDEltaMarkov  Degree/Access Ratio: 1.37088
Core_3_LLC_total_access 6038640
Core_3_LLC_total_hit 2951121
Core_3_LLC_total_miss 3087519
Core_3_LLC_loads 673998
Core_3_LLC_load_hit 427240
Core_3_LLC_load_miss 246758
Core_3_LLC_RFOs 484830
Core_3_LLC_RFO_hit 4
Core_3_LLC_RFO_miss 484826
Core_3_LLC_prefetches 3045865
Core_3_LLC_prefetch_hit 723905
Core_3_LLC_prefetch_miss 2321960
Core_3_LLC_writebacks 1833947
Core_3_LLC_writeback_hit 1799972
Core_3_LLC_writeback_miss 33975


[ROI Statistics]
Core_0_instructions 326000001
Core_0_cycles 561662872
Core_0_IPC 0.58042

Core_0_branch_prediction_accuracy 99.57883
Core_0_branch_MPKI 0.12289
Core_0_average_ROB_occupancy_at_mispredict 562.38188

Core_0_L1D_total_access 200480193
Core_0_L1D_total_hit 183837948 L1D_total_Hit Ratio: 0.91699
Core_0_L1D_total_miss 16642245
Core_0_L1D_loads 81255442
Core_0_L1D_load_hit 72722650 L1D_load_Hit Ratio: 0.89499
Core_0_L1D_load_miss 8532792
Core_0_L1D_RFOs 8363053
Core_0_L1D_RFO_hit 7716380 L1D_RFO_Hit Ratio: 0.92268
Core_0_L1D_RFO_miss 646673
Core_0_L1D_prefetches 110861698
Core_0_L1D_prefetch_hit 103398918 L1D_prefetch_Hit Ratio: 0.93268
Core_0_L1D_prefetch_miss 7462780
Core_0_L1D_writebacks 0
Core_0_L1D_writeback_hit 0 L1D_writeback_Hit Ratio: -nan
Core_0_L1D_writeback_miss 0
Core_0_L1D_prefetch_requested 251256600
Core_0_L1D_prefetch_issued 128686567
Core_0_L1D_prefetch_useful 3720017 L1D_Useful Ratio: 0.02891
Core_0_L1D_prefetch_useless 3764653
Core_0_L1D_prefetch_late 420771
Core_0_L1D_average_miss_latency 5967880.44367

Core_0_L1I_total_access 47773605
Core_0_L1I_total_hit 47768685 L1I_total_Hit Ratio: 0.99990
Core_0_L1I_total_miss 4920
Core_0_L1I_loads 47773605
Core_0_L1I_load_hit 47768685 L1I_load_Hit Ratio: 0.99990
Core_0_L1I_load_miss 4920
Core_0_L1I_RFOs 0
Core_0_L1I_RFO_hit 0 L1I_RFO_Hit Ratio: -nan
Core_0_L1I_RFO_miss 0
Core_0_L1I_prefetches 0
Core_0_L1I_prefetch_hit 0 L1I_prefetch_Hit Ratio: -nan
Core_0_L1I_prefetch_miss 0
Core_0_L1I_writebacks 0
Core_0_L1I_writeback_hit 0 L1I_writeback_Hit Ratio: -nan
Core_0_L1I_writeback_miss 0
Core_0_L1I_prefetch_requested 0
Core_0_L1I_prefetch_issued 0
Core_0_L1I_prefetch_useful 0 L1I_Useful Ratio: -nan
Core_0_L1I_prefetch_useless 0
Core_0_L1I_prefetch_late 0
Core_0_L1I_average_miss_latency 1070.33720

Core_0_L2C_total_access 40139174
Core_0_L2C_total_hit 36056535 L2C_total_Hit Ratio: 0.89829
Core_0_L2C_total_miss 4082639
Core_0_L2C_loads 8118149
Core_0_L2C_load_hit 7144748 L2C_load_Hit Ratio: 0.88010
Core_0_L2C_load_miss 973401
Core_0_L2C_RFOs 646653
Core_0_L2C_RFO_hit 161843 L2C_RFO_Hit Ratio: 0.25028
Core_0_L2C_RFO_miss 484810
Core_0_L2C_prefetches 29436791
Core_0_L2C_prefetch_hit 26813764 L2C_prefetch_Hit Ratio: 0.91089
Core_0_L2C_prefetch_miss 2623027
Core_0_L2C_writebacks 1937581
Core_0_L2C_writeback_hit 1936180 L2C_writeback_Hit Ratio: 0.99928
Core_0_L2C_writeback_miss 1401
Core_0_L2C_prefetch_requested 71769765
Core_0_L2C_prefetch_issued 33914872
Core_0_L2C_prefetch_useful 434978 L2C_Useful Ratio: 0.01283
Core_0_L2C_prefetch_useless 2203587
Core_0_L2C_prefetch_late 296727
Core_0_L2C_average_miss_latency 990.02386

Core_0_LLC_total_access 6027199
Core_0_LLC_total_hit 2931704 LLC_total_Hit Ratio: 0.48641
Core_0_LLC_total_miss 3095495
Core_0_LLC_loads 676763
Core_0_LLC_load_hit 431243 LLC_load_Hit Ratio: 0.63721
Core_0_LLC_load_miss 245520
Core_0_LLC_RFOs 484809
Core_0_LLC_RFO_hit 15 LLC_RFO_Hit Ratio: 0.00003
Core_0_LLC_RFO_miss 484794
Core_0_LLC_prefetches 3030459
Core_0_LLC_prefetch_hit 696497 LLC_prefetch_Hit Ratio: 0.22983
Core_0_LLC_prefetch_miss 2333962
Core_0_LLC_writebacks 1835168
Core_0_LLC_writeback_hit 1803949 LLC_writeback_Hit Ratio: 0.98299
Core_0_LLC_writeback_miss 31219
Core_0_LLC_prefetch_requested 0
Core_0_LLC_prefetch_issued 0
Core_0_LLC_prefetch_useful 1291082 LLC_Useful Ratio: inf
Core_0_LLC_prefetch_useless 7934308
Core_0_LLC_prefetch_late 51090
Core_0_LLC_average_miss_latency 4893.66011

Core_0_major_page_fault 0
Core_0_minor_page_fault 19454

Core_1_instructions 326000003
Core_1_cycles 561632921
Core_1_IPC 0.58045

Core_1_branch_prediction_accuracy 99.57882
Core_1_branch_MPKI 0.12288
Core_1_average_ROB_occupancy_at_mispredict 562.33407

Core_1_L1D_total_access 200496412
Core_1_L1D_total_hit 183853080 L1D_total_Hit Ratio: 0.91699
Core_1_L1D_total_miss 16643332
Core_1_L1D_loads 81260751
Core_1_L1D_load_hit 72728534 L1D_load_Hit Ratio: 0.89500
Core_1_L1D_load_miss 8532217
Core_1_L1D_RFOs 8363358
Core_1_L1D_RFO_hit 7717423 L1D_RFO_Hit Ratio: 0.92277
Core_1_L1D_RFO_miss 645935
Core_1_L1D_prefetches 110872303
Core_1_L1D_prefetch_hit 103407123 L1D_prefetch_Hit Ratio: 0.93267
Core_1_L1D_prefetch_miss 7465180
Core_1_L1D_writebacks 0
Core_1_L1D_writeback_hit 0 L1D_writeback_Hit Ratio: -nan
Core_1_L1D_writeback_miss 0
Core_1_L1D_prefetch_requested 251311146
Core_1_L1D_prefetch_issued 128708861
Core_1_L1D_prefetch_useful 3721659 L1D_Useful Ratio: 0.02892
Core_1_L1D_prefetch_useless 3767386
Core_1_L1D_prefetch_late 420268
Core_1_L1D_average_miss_latency 5960532.40006

Core_1_L1I_total_access 47774210
Core_1_L1I_total_hit 47769289 L1I_total_Hit Ratio: 0.99990
Core_1_L1I_total_miss 4921
Core_1_L1I_loads 47774210
Core_1_L1I_load_hit 47769289 L1I_load_Hit Ratio: 0.99990
Core_1_L1I_load_miss 4921
Core_1_L1I_RFOs 0
Core_1_L1I_RFO_hit 0 L1I_RFO_Hit Ratio: -nan
Core_1_L1I_RFO_miss 0
Core_1_L1I_prefetches 0
Core_1_L1I_prefetch_hit 0 L1I_prefetch_Hit Ratio: -nan
Core_1_L1I_prefetch_miss 0
Core_1_L1I_writebacks 0
Core_1_L1I_writeback_hit 0 L1I_writeback_Hit Ratio: -nan
Core_1_L1I_writeback_miss 0
Core_1_L1I_prefetch_requested 0
Core_1_L1I_prefetch_issued 0
Core_1_L1I_prefetch_useful 0 L1I_Useful Ratio: -nan
Core_1_L1I_prefetch_useless 0
Core_1_L1I_prefetch_late 0
Core_1_L1I_average_miss_latency 1138.50599

Core_1_L2C_total_access 40084589
Core_1_L2C_total_hit 35996837 L2C_total_Hit Ratio: 0.89802
Core_1_L2C_total_miss 4087752
Core_1_L2C_loads 8118104
Core_1_L2C_load_hit 7138929 L2C_load_Hit Ratio: 0.87938
Core_1_L2C_load_miss 979175
Core_1_L2C_RFOs 645915
Core_1_L2C_RFO_hit 161107 L2C_RFO_Hit Ratio: 0.24942
Core_1_L2C_RFO_miss 484808
Core_1_L2C_prefetches 29382988
Core_1_L2C_prefetch_hit 26760730 L2C_prefetch_Hit Ratio: 0.91076
Core_1_L2C_prefetch_miss 2622258
Core_1_L2C_writebacks 1937582
Core_1_L2C_writeback_hit 1936071 L2C_writeback_Hit Ratio: 0.99922
Core_1_L2C_writeback_miss 1511
Core_1_L2C_prefetch_requested 70801893
Core_1_L2C_prefetch_issued 33854042
Core_1_L2C_prefetch_useful 429415 L2C_Useful Ratio: 0.01268
Core_1_L2C_prefetch_useless 2207302
Core_1_L2C_prefetch_late 297226
Core_1_L2C_average_miss_latency 990.14794

Core_1_LLC_total_access 6035077
Core_1_LLC_total_hit 2940483 LLC_total_Hit Ratio: 0.48723
Core_1_LLC_total_miss 3094594
Core_1_LLC_loads 681983
Core_1_LLC_load_hit 436099 LLC_load_Hit Ratio: 0.63946
Core_1_LLC_load_miss 245884
Core_1_LLC_RFOs 484804
Core_1_LLC_RFO_hit 5 LLC_RFO_Hit Ratio: 0.00001
Core_1_LLC_RFO_miss 484799
Core_1_LLC_prefetches 3031052
Core_1_LLC_prefetch_hit 698998 LLC_prefetch_Hit Ratio: 0.23061
Core_1_LLC_prefetch_miss 2332054
Core_1_LLC_writebacks 1837238
Core_1_LLC_writeback_hit 1805381 LLC_writeback_Hit Ratio: 0.98266
Core_1_LLC_writeback_miss 31857
Core_1_LLC_prefetch_requested 0
Core_1_LLC_prefetch_issued 0
Core_1_LLC_prefetch_useful 1291082 LLC_Useful Ratio: inf
Core_1_LLC_prefetch_useless 7934308
Core_1_LLC_prefetch_late 51090
Core_1_LLC_average_miss_latency 4895.08492

Core_1_major_page_fault 0
Core_1_minor_page_fault 19454

Core_2_instructions 326000003
Core_2_cycles 561610801
Core_2_IPC 0.58047

Core_2_branch_prediction_accuracy 99.57883
Core_2_branch_MPKI 0.12287
Core_2_average_ROB_occupancy_at_mispredict 562.32780

Core_2_L1D_total_access 200463861
Core_2_L1D_total_hit 183821514 L1D_total_Hit Ratio: 0.91698
Core_2_L1D_total_miss 16642347
Core_2_L1D_loads 81246377
Core_2_L1D_load_hit 72713859 L1D_load_Hit Ratio: 0.89498
Core_2_L1D_load_miss 8532518
Core_2_L1D_RFOs 8362292
Core_2_L1D_RFO_hit 7715769 L1D_RFO_Hit Ratio: 0.92269
Core_2_L1D_RFO_miss 646523
Core_2_L1D_prefetches 110855192
Core_2_L1D_prefetch_hit 103391886 L1D_prefetch_Hit Ratio: 0.93268
Core_2_L1D_prefetch_miss 7463306
Core_2_L1D_writebacks 0
Core_2_L1D_writeback_hit 0 L1D_writeback_Hit Ratio: -nan
Core_2_L1D_writeback_miss 0
Core_2_L1D_prefetch_requested 251295012
Core_2_L1D_prefetch_issued 128692814
Core_2_L1D_prefetch_useful 3721725 L1D_Useful Ratio: 0.02892
Core_2_L1D_prefetch_useless 3766330
Core_2_L1D_prefetch_late 420825
Core_2_L1D_average_miss_latency 5968198.82930

Core_2_L1I_total_access 47771251
Core_2_L1I_total_hit 47766325 L1I_total_Hit Ratio: 0.99990
Core_2_L1I_total_miss 4926
Core_2_L1I_loads 47771251
Core_2_L1I_load_hit 47766325 L1I_load_Hit Ratio: 0.99990
Core_2_L1I_load_miss 4926
Core_2_L1I_RFOs 0
Core_2_L1I_RFO_hit 0 L1I_RFO_Hit Ratio: -nan
Core_2_L1I_RFO_miss 0
Core_2_L1I_prefetches 0
Core_2_L1I_prefetch_hit 0 L1I_prefetch_Hit Ratio: -nan
Core_2_L1I_prefetch_miss 0
Core_2_L1I_writebacks 0
Core_2_L1I_writeback_hit 0 L1I_writeback_Hit Ratio: -nan
Core_2_L1I_writeback_miss 0
Core_2_L1I_prefetch_requested 0
Core_2_L1I_prefetch_issued 0
Core_2_L1I_prefetch_useful 0 L1I_Useful Ratio: -nan
Core_2_L1I_prefetch_useless 0
Core_2_L1I_prefetch_late 0
Core_2_L1I_average_miss_latency 1077.12322

Core_2_L2C_total_access 40073154
Core_2_L2C_total_hit 35987106 L2C_total_Hit Ratio: 0.89804
Core_2_L2C_total_miss 4086048
Core_2_L2C_loads 8117919
Core_2_L2C_load_hit 7144791 L2C_load_Hit Ratio: 0.88013
Core_2_L2C_load_miss 973128
Core_2_L2C_RFOs 646501
Core_2_L2C_RFO_hit 161680 L2C_RFO_Hit Ratio: 0.25008
Core_2_L2C_RFO_miss 484821
Core_2_L2C_prefetches 29371149
Core_2_L2C_prefetch_hit 26744372 L2C_prefetch_Hit Ratio: 0.91057
Core_2_L2C_prefetch_miss 2626777
Core_2_L2C_writebacks 1937585
Core_2_L2C_writeback_hit 1936263 L2C_writeback_Hit Ratio: 0.99932
Core_2_L2C_writeback_miss 1322
Core_2_L2C_prefetch_requested 70794197
Core_2_L2C_prefetch_issued 33859588
Core_2_L2C_prefetch_useful 436933 L2C_Useful Ratio: 0.01290
Core_2_L2C_prefetch_useless 2205254
Core_2_L2C_prefetch_late 296775
Core_2_L2C_average_miss_latency 989.37584

Core_2_LLC_total_access 6032131
Core_2_LLC_total_hit 2938105 LLC_total_Hit Ratio: 0.48708
Core_2_LLC_total_miss 3094026
Core_2_LLC_loads 676451
Core_2_LLC_load_hit 430864 LLC_load_Hit Ratio: 0.63695
Core_2_LLC_load_miss 245587
Core_2_LLC_RFOs 484819
Core_2_LLC_RFO_hit 20 LLC_RFO_Hit Ratio: 0.00004
Core_2_LLC_RFO_miss 484799
Core_2_LLC_prefetches 3034957
Core_2_LLC_prefetch_hit 705407 LLC_prefetch_Hit Ratio: 0.23243
Core_2_LLC_prefetch_miss 2329550
Core_2_LLC_writebacks 1835904
Core_2_LLC_writeback_hit 1801814 LLC_writeback_Hit Ratio: 0.98143
Core_2_LLC_writeback_miss 34090
Core_2_LLC_prefetch_requested 0
Core_2_LLC_prefetch_issued 0
Core_2_LLC_prefetch_useful 1291082 LLC_Useful Ratio: inf
Core_2_LLC_prefetch_useless 7934308
Core_2_LLC_prefetch_late 51090
Core_2_LLC_average_miss_latency 4895.98356

Core_2_major_page_fault 0
Core_2_minor_page_fault 19454

Core_3_instructions 326000005
Core_3_cycles 561406980
Core_3_IPC 0.58068

Core_3_branch_prediction_accuracy 99.57881
Core_3_branch_MPKI 0.12278
Core_3_average_ROB_occupancy_at_mispredict 562.35472

Core_3_L1D_total_access 200601169
Core_3_L1D_total_hit 183950379 L1D_total_Hit Ratio: 0.91700
Core_3_L1D_total_miss 16650790
Core_3_L1D_loads 81286243
Core_3_L1D_load_hit 72757064 L1D_load_Hit Ratio: 0.89507
Core_3_L1D_load_miss 8529179
Core_3_L1D_RFOs 8362479
Core_3_L1D_RFO_hit 7715160 L1D_RFO_Hit Ratio: 0.92259
Core_3_L1D_RFO_miss 647319
Core_3_L1D_prefetches 110952447
Core_3_L1D_prefetch_hit 103478155 L1D_prefetch_Hit Ratio: 0.93264
Core_3_L1D_prefetch_miss 7474292
Core_3_L1D_writebacks 0
Core_3_L1D_writeback_hit 0 L1D_writeback_Hit Ratio: -nan
Core_3_L1D_writeback_miss 0
Core_3_L1D_prefetch_requested 251726172
Core_3_L1D_prefetch_issued 128860984
Core_3_L1D_prefetch_useful 3731343 L1D_Useful Ratio: 0.02896
Core_3_L1D_prefetch_useless 3781454
Core_3_L1D_prefetch_late 420907
Core_3_L1D_average_miss_latency 5928097.31461

Core_3_L1I_total_access 47770960
Core_3_L1I_total_hit 47766039 L1I_total_Hit Ratio: 0.99990
Core_3_L1I_total_miss 4921
Core_3_L1I_loads 47770960
Core_3_L1I_load_hit 47766039 L1I_load_Hit Ratio: 0.99990
Core_3_L1I_load_miss 4921
Core_3_L1I_RFOs 0
Core_3_L1I_RFO_hit 0 L1I_RFO_Hit Ratio: -nan
Core_3_L1I_RFO_miss 0
Core_3_L1I_prefetches 0
Core_3_L1I_prefetch_hit 0 L1I_prefetch_Hit Ratio: -nan
Core_3_L1I_prefetch_miss 0
Core_3_L1I_writebacks 0
Core_3_L1I_writeback_hit 0 L1I_writeback_Hit Ratio: -nan
Core_3_L1I_writeback_miss 0
Core_3_L1I_prefetch_requested 0
Core_3_L1I_prefetch_issued 0
Core_3_L1I_prefetch_useful 0 L1I_Useful Ratio: -nan
Core_3_L1I_prefetch_useless 0
Core_3_L1I_prefetch_late 0
Core_3_L1I_average_miss_latency 1244.00610

Core_3_L2C_total_access 40080075
Core_3_L2C_total_hit 35987399 L2C_total_Hit Ratio: 0.89789
Core_3_L2C_total_miss 4092676
Core_3_L2C_loads 8114729
Core_3_L2C_load_hit 7142900 L2C_load_Hit Ratio: 0.88024
Core_3_L2C_load_miss 971829
Core_3_L2C_RFOs 647298
Core_3_L2C_RFO_hit 162466 L2C_RFO_Hit Ratio: 0.25099
Core_3_L2C_RFO_miss 484832
Core_3_L2C_prefetches 29380466
Core_3_L2C_prefetch_hit 26745862 L2C_prefetch_Hit Ratio: 0.91033
Core_3_L2C_prefetch_miss 2634604
Core_3_L2C_writebacks 1937582
Core_3_L2C_writeback_hit 1936171 L2C_writeback_Hit Ratio: 0.99927
Core_3_L2C_writeback_miss 1411
Core_3_L2C_prefetch_requested 73167678
Core_3_L2C_prefetch_issued 33754047
Core_3_L2C_prefetch_useful 442756 L2C_Useful Ratio: 0.01312
Core_3_L2C_prefetch_useless 2208733
Core_3_L2C_prefetch_late 298288
Core_3_L2C_average_miss_latency 989.60192

Core_3_LLC_total_access 6035284
Core_3_LLC_total_hit 2950123 LLC_total_Hit Ratio: 0.48881
Core_3_LLC_total_miss 3085161
Core_3_LLC_loads 673600
Core_3_LLC_load_hit 427174 LLC_load_Hit Ratio: 0.63417
Core_3_LLC_load_miss 246426
Core_3_LLC_RFOs 484830
Core_3_LLC_RFO_hit 4 LLC_RFO_Hit Ratio: 0.00001
Core_3_LLC_RFO_miss 484826
Core_3_LLC_prefetches 3043545
Core_3_LLC_prefetch_hit 723536 LLC_prefetch_Hit Ratio: 0.23773
Core_3_LLC_prefetch_miss 2320009
Core_3_LLC_writebacks 1833309
Core_3_LLC_writeback_hit 1799409 LLC_writeback_Hit Ratio: 0.98151
Core_3_LLC_writeback_miss 33900
Core_3_LLC_prefetch_requested 0
Core_3_LLC_prefetch_issued 0
Core_3_LLC_prefetch_useful 1291082 LLC_Useful Ratio: inf
Core_3_LLC_prefetch_useless 7934308
Core_3_LLC_prefetch_late 51090
Core_3_LLC_average_miss_latency 4910.05183

Core_3_major_page_fault 0
Core_3_minor_page_fault 19454

CPU 0 L1D next line prefetcher final stats
CPU 0 L2C PC-based stride prefetcher final stats
Stride Degree: 15
MK1  MARKOV_LRU_SIZE: 128
MK1  MARKOV_PREDICTION_PERCENTTHRESHOLD: 40.00000
MK1  OUTLIERS_THRESHOLD_Max: 64
MK1  OUTLIERS_THRESHOLD_Min: 32
MK2  MARKOV_LRU_SIZE: 256
MK2  MARKOV_PREDICTION_PERCENTTHRESHOLD: 30.00000
MK2  OUTLIERS_THRESHOLD_Max: 32
MK2  OUTLIERS_THRESHOLD_Min: 16
MK3  MARKOV_LRU_SIZE: 384
MK3  MARKOV_PREDICTION_PERCENTTHRESHOLD: 25.00000
MK3  OUTLIERS_THRESHOLD_Max: 16
MK3  OUTLIERS_THRESHOLD_Min: 8
MK4  MARKOV_LRU_SIZE: 512
MK4  MARKOV_PREDICTION_PERCENTTHRESHOLD: 20.00000
MK4  OUTLIERS_THRESHOLD_Max: 8
MK4  OUTLIERS_THRESHOLD_Min: 0
IPStride Degree/Access Ratio: 1.43314
MK1 IPDEltaMarkov  Degree/Access Ratio: 0.43644
MK2 IPDEltaMarkov  Degree/Access Ratio: 0.61917
MK3 IPDEltaMarkov  Degree/Access Ratio: 0.74403
MK4 IPDEltaMarkov  Degree/Access Ratio: 1.37088
CPU 1 L1D next line prefetcher final stats
CPU 1 L2C PC-based stride prefetcher final stats
Stride Degree: 15
MK1  MARKOV_LRU_SIZE: 128
MK1  MARKOV_PREDICTION_PERCENTTHRESHOLD: 40.00000
MK1  OUTLIERS_THRESHOLD_Max: 64
MK1  OUTLIERS_THRESHOLD_Min: 32
MK2  MARKOV_LRU_SIZE: 256
MK2  MARKOV_PREDICTION_PERCENTTHRESHOLD: 30.00000
MK2  OUTLIERS_THRESHOLD_Max: 32
MK2  OUTLIERS_THRESHOLD_Min: 16
MK3  MARKOV_LRU_SIZE: 384
MK3  MARKOV_PREDICTION_PERCENTTHRESHOLD: 25.00000
MK3  OUTLIERS_THRESHOLD_Max: 16
MK3  OUTLIERS_THRESHOLD_Min: 8
MK4  MARKOV_LRU_SIZE: 512
MK4  MARKOV_PREDICTION_PERCENTTHRESHOLD: 20.00000
MK4  OUTLIERS_THRESHOLD_Max: 8
MK4  OUTLIERS_THRESHOLD_Min: 0
IPStride Degree/Access Ratio: 1.43314
MK1 IPDEltaMarkov  Degree/Access Ratio: 0.43644
MK2 IPDEltaMarkov  Degree/Access Ratio: 0.61917
MK3 IPDEltaMarkov  Degree/Access Ratio: 0.74403
MK4 IPDEltaMarkov  Degree/Access Ratio: 1.37088
CPU 2 L1D next line prefetcher final stats
CPU 2 L2C PC-based stride prefetcher final stats
Stride Degree: 15
MK1  MARKOV_LRU_SIZE: 128
MK1  MARKOV_PREDICTION_PERCENTTHRESHOLD: 40.00000
MK1  OUTLIERS_THRESHOLD_Max: 64
MK1  OUTLIERS_THRESHOLD_Min: 32
MK2  MARKOV_LRU_SIZE: 256
MK2  MARKOV_PREDICTION_PERCENTTHRESHOLD: 30.00000
MK2  OUTLIERS_THRESHOLD_Max: 32
MK2  OUTLIERS_THRESHOLD_Min: 16
MK3  MARKOV_LRU_SIZE: 384
MK3  MARKOV_PREDICTION_PERCENTTHRESHOLD: 25.00000
MK3  OUTLIERS_THRESHOLD_Max: 16
MK3  OUTLIERS_THRESHOLD_Min: 8
MK4  MARKOV_LRU_SIZE: 512
MK4  MARKOV_PREDICTION_PERCENTTHRESHOLD: 20.00000
MK4  OUTLIERS_THRESHOLD_Max: 8
MK4  OUTLIERS_THRESHOLD_Min: 0
IPStride Degree/Access Ratio: 1.43314
MK1 IPDEltaMarkov  Degree/Access Ratio: 0.43644
MK2 IPDEltaMarkov  Degree/Access Ratio: 0.61917
MK3 IPDEltaMarkov  Degree/Access Ratio: 0.74403
MK4 IPDEltaMarkov  Degree/Access Ratio: 1.37088
CPU 3 L1D next line prefetcher final stats
CPU 3 L2C PC-based stride prefetcher final stats
Stride Degree: 15
MK1  MARKOV_LRU_SIZE: 128
MK1  MARKOV_PREDICTION_PERCENTTHRESHOLD: 40.00000
MK1  OUTLIERS_THRESHOLD_Max: 64
MK1  OUTLIERS_THRESHOLD_Min: 32
MK2  MARKOV_LRU_SIZE: 256
MK2  MARKOV_PREDICTION_PERCENTTHRESHOLD: 30.00000
MK2  OUTLIERS_THRESHOLD_Max: 32
MK2  OUTLIERS_THRESHOLD_Min: 16
MK3  MARKOV_LRU_SIZE: 384
MK3  MARKOV_PREDICTION_PERCENTTHRESHOLD: 25.00000
MK3  OUTLIERS_THRESHOLD_Max: 16
MK3  OUTLIERS_THRESHOLD_Min: 8
MK4  MARKOV_LRU_SIZE: 512
MK4  MARKOV_PREDICTION_PERCENTTHRESHOLD: 20.00000
MK4  OUTLIERS_THRESHOLD_Max: 8
MK4  OUTLIERS_THRESHOLD_Min: 0
IPStride Degree/Access Ratio: 1.43314
MK1 IPDEltaMarkov  Degree/Access Ratio: 0.43644
MK2 IPDEltaMarkov  Degree/Access Ratio: 0.61917
MK3 IPDEltaMarkov  Degree/Access Ratio: 0.74403
MK4 IPDEltaMarkov  Degree/Access Ratio: 1.37088
Channel_0_RQ_row_buffer_hit 4296362
Channel_0_RQ_row_buffer_miss 7944630
Channel_0_WQ_row_buffer_hit 1947800
Channel_0_WQ_row_buffer_miss 4647483
Channel_0_WQ_full 8837
Channel_0_dbus_congested 13478376

avg_congested_cycle 11

EzSearch AVG IPC :0.58042: L2-Pf-HR :0.91089 : L2-HR :0.89829 Uful:0.01283
EzSearch AVG IPC :0.58045: L2-Pf-HR :0.91076 : L2-HR :0.89803 Uful:0.01268
EzSearch AVG IPC :0.58047: L2-Pf-HR :0.91057 : L2-HR :0.89805 Uful:0.01290
EzSearch AVG IPC :0.58068: L2-Pf-HR :0.91033 : L2-HR :0.89802 Uful:0.01312
     > Finished combination: TraceType=770-tot Sim:326000000 Prefetcher=L2029-SecTOP-L2-MultiMarkovDelta_ip_stride_v4-IPStrS256 L1=next_line
