TRACE: [125000000][OPT-125M]_[h12][s512][d64] Warmup: 2000000 NumTraces: 125000000
L1:no:L2:spp_berti_src
Initialize SIGNATURE TABLE
ST_SET: 1
ST_WAY: 256
ST_TAG_BIT: 16
ST_TAG_MASK: ffff

Initialize PATTERN TABLE
PT_SET: 512
PT_WAY: 4
SIG_DELTA_BIT: 7
C_SIG_BIT: 4
C_DELTA_BIT: 4

Initialize PREFETCH FILTER
FILTER_SET: 1024
*************************************************
   ChampSim Multicore Out-of-Order Simulator
   Last compiled: Oct 29 2024 15:36:50
*************************************************

trace_0 770-tot_memTraces_v3_rexz/memTraces[125000000][OPT-125M]_[h12][s512][d64].champsim.9.xz
trace_1 770-tot_memTraces_v3_rexz/memTraces[125000000][OPT-125M]_[h12][s512][d64].champsim.9.xz
trace_2 770-tot_memTraces_v3_rexz/memTraces[125000000][OPT-125M]_[h12][s512][d64].champsim.9.xz
trace_3 770-tot_memTraces_v3_rexz/memTraces[125000000][OPT-125M]_[h12][s512][d64].champsim.9.xz
ST_WAYS: 256
PT_SETS: 512
ST_WAYS: 256
PT_SETS: 512
ST_WAYS: 256
PT_SETS: 512
ST_WAYS: 256
PT_SETS: 512
MAIN.cc ln 751 stats print skipped
CPU  3 inst:    1000001 cyc:     499283 now IPC :2.00287: AVG IPC :2.00287: L2-Pf-HR :0.96659: L2-HR :0.86475: (Sim:0h0m47s) 
CPU  0 inst:    1000001 cyc:     499550 now IPC :2.00180: AVG IPC :2.00180: L2-Pf-HR :0.96374: L2-HR :0.85855: (Sim:0h0m47s) 
CPU  1 inst:    1000001 cyc:     499619 now IPC :2.00153: AVG IPC :2.00153: L2-Pf-HR :0.96879: L2-HR :0.86847: (Sim:0h0m47s) 
CPU  2 inst:    1000001 cyc:     499823 now IPC :2.00071: AVG IPC :2.00071: L2-Pf-HR :0.96396: L2-HR :0.86403: (Sim:0h0m47s) 
CPU  3 inst:    2000000 cyc:     982076 now IPC :2.07128: AVG IPC :2.03650: L2-Pf-HR :0.96517: L2-HR :0.89229: (Sim:0h1m35s) 
CPU  0 inst:    2000000 cyc:     982560 now IPC :2.07035: AVG IPC :2.03550: L2-Pf-HR :0.96307: L2-HR :0.88567: (Sim:0h1m35s) 
CPU  1 inst:    2000000 cyc:     982561 now IPC :2.07064: AVG IPC :2.03550: L2-Pf-HR :0.96854: L2-HR :0.89502: (Sim:0h1m35s) 
CPU  2 inst:    2000000 cyc:     982607 now IPC :2.07132: AVG IPC :2.03540: L2-Pf-HR :0.96388: L2-HR :0.89090: (Sim:0h1m35s) 

Warmup complete CPU  0 instructions:    2000140 cycles:     982608 (Simulation time: 0 hr 1 min 35 sec) 
Warmup complete CPU  1 instructions:    2000137 cycles:     982608 (Simulation time: 0 hr 1 min 35 sec) 
Warmup complete CPU  2 instructions:    2000003 cycles:     982608 (Simulation time: 0 hr 1 min 35 sec) 
Warmup complete CPU  3 instructions:    2000999 cycles:     982607 (Simulation time: 0 hr 1 min 35 sec) 

CPU  3 inst:    3000001 cyc:    1711121 now IPC :1.37166: AVG IPC :1.37129: L2-Pf-HR :0.97308: L2-HR :0.91838: (Sim:0h2m2s) 
CPU  2 inst:    3000001 cyc:    1711325 now IPC :1.37227: AVG IPC :1.37227: L2-Pf-HR :0.97225: L2-HR :0.91705: (Sim:0h2m2s) 
CPU  1 inst:    3000001 cyc:    1711539 now IPC :1.37178: AVG IPC :1.37169: L2-Pf-HR :0.97402: L2-HR :0.92186: (Sim:0h2m2s) 
CPU  0 inst:    3000001 cyc:    1718201 now IPC :1.35936: AVG IPC :1.35926: L2-Pf-HR :0.97005: L2-HR :0.91009: (Sim:0h2m2s) 
CPU  1 inst:    4000004 cyc:    2314225 now IPC :1.65924: AVG IPC :1.50183: L2-Pf-HR :0.97465: L2-HR :0.90761: (Sim:0h2m28s) 
CPU  2 inst:    4000004 cyc:    2314474 now IPC :1.65797: AVG IPC :1.50165: L2-Pf-HR :0.97383: L2-HR :0.90543: (Sim:0h2m28s) 
CPU  3 inst:    4000004 cyc:    2315134 now IPC :1.65560: AVG IPC :1.50016: L2-Pf-HR :0.97403: L2-HR :0.90467: (Sim:0h2m28s) 
CPU  0 inst:    4000004 cyc:    2315922 now IPC :1.67303: AVG IPC :1.49992: L2-Pf-HR :0.97407: L2-HR :0.90451: (Sim:0h2m28s) 
CPU  1 inst:    5000000 cyc:    2990772 now IPC :1.47809: AVG IPC :1.49383: L2-Pf-HR :0.98477: L2-HR :0.91478: (Sim:0h3m7s) 
CPU  3 inst:    5000000 cyc:    2992522 now IPC :1.47625: AVG IPC :1.49210: L2-Pf-HR :0.98433: L2-HR :0.91365: (Sim:0h3m8s) 
CPU  2 inst:    5000000 cyc:    2993730 now IPC :1.47219: AVG IPC :1.49170: L2-Pf-HR :0.98408: L2-HR :0.91200: (Sim:0h3m8s) 
CPU  0 inst:    5000000 cyc:    2999790 now IPC :1.46226: AVG IPC :1.48715: L2-Pf-HR :0.98420: L2-HR :0.91250: (Sim:0h3m8s) 
CPU  1 inst:    6000004 cyc:    3707219 now IPC :1.39578: AVG IPC :1.46805: L2-Pf-HR :0.99010: L2-HR :0.92704: (Sim:0h3m54s) 
CPU  3 inst:    6000004 cyc:    3709462 now IPC :1.39482: AVG IPC :1.46653: L2-Pf-HR :0.98960: L2-HR :0.92665: (Sim:0h3m54s) 
CPU  2 inst:    6000004 cyc:    3710063 now IPC :1.39600: AVG IPC :1.46657: L2-Pf-HR :0.98916: L2-HR :0.92247: (Sim:0h3m54s) 
CPU  0 inst:    6000004 cyc:    3712767 now IPC :1.40258: AVG IPC :1.46507: L2-Pf-HR :0.99009: L2-HR :0.92780: (Sim:0h3m54s) 
CPU  1 inst:    7000005 cyc:    4462699 now IPC :1.32366: AVG IPC :1.43671: L2-Pf-HR :0.99246: L2-HR :0.93288: (Sim:0h4m41s) 
CPU  3 inst:    7000002 cyc:    4470192 now IPC :1.31452: AVG IPC :1.43337: L2-Pf-HR :0.99196: L2-HR :0.93278: (Sim:0h4m41s) 
CPU  0 inst:    7000005 cyc:    4471615 now IPC :1.31779: AVG IPC :1.43303: L2-Pf-HR :0.99275: L2-HR :0.93512: (Sim:0h4m41s) 
CPU  2 inst:    7000002 cyc:    4475314 now IPC :1.30676: AVG IPC :1.43155: L2-Pf-HR :0.99137: L2-HR :0.92741: (Sim:0h4m42s) 
CPU  0 inst:    8000005 cyc:    5152963 now IPC :1.46768: AVG IPC :1.43869: L2-Pf-HR :0.99300: L2-HR :0.93346: (Sim:0h5m27s) 
CPU  2 inst:    8000005 cyc:    5153386 now IPC :1.47477: AVG IPC :1.43858: L2-Pf-HR :0.99146: L2-HR :0.92497: (Sim:0h5m27s) 
CPU  3 inst:    8000005 cyc:    5153550 now IPC :1.46337: AVG IPC :1.43829: L2-Pf-HR :0.99215: L2-HR :0.93091: (Sim:0h5m27s) 
CPU  1 inst:    8000005 cyc:    5153757 now IPC :1.44706: AVG IPC :1.43842: L2-Pf-HR :0.99274: L2-HR :0.93118: (Sim:0h5m27s) 
CPU  0 inst:    9000004 cyc:    6163677 now IPC :0.98940: AVG IPC :1.35105: L2-Pf-HR :0.99375: L2-HR :0.93248: (Sim:0h6m20s) 
CPU  2 inst:    9000004 cyc:    6165324 now IPC :0.98820: AVG IPC :1.35064: L2-Pf-HR :0.99244: L2-HR :0.92522: (Sim:0h6m20s) 
CPU  1 inst:    9000004 cyc:    6171372 now IPC :0.98269: AVG IPC :1.34904: L2-Pf-HR :0.99350: L2-HR :0.93054: (Sim:0h6m21s) 
CPU  3 inst:    9000004 cyc:    6171983 now IPC :0.98190: AVG IPC :1.34872: L2-Pf-HR :0.99299: L2-HR :0.93018: (Sim:0h6m21s) 
CPU  2 inst:   10000001 cyc:    7162873 now IPC :1.00245: AVG IPC :1.29444: L2-Pf-HR :0.99359: L2-HR :0.92994: (Sim:0h7m13s) 
CPU  3 inst:   10000001 cyc:    7166078 now IPC :1.00594: AVG IPC :1.29361: L2-Pf-HR :0.99399: L2-HR :0.93382: (Sim:0h7m13s) 
CPU  1 inst:   10000001 cyc:    7170445 now IPC :1.00092: AVG IPC :1.29284: L2-Pf-HR :0.99444: L2-HR :0.93395: (Sim:0h7m14s) 
CPU  0 inst:   10000001 cyc:    7184951 now IPC :0.97917: AVG IPC :1.28981: L2-Pf-HR :0.99465: L2-HR :0.93558: (Sim:0h7m15s) 
CPU  2 inst:   11000005 cyc:    8207350 now IPC :0.95742: AVG IPC :1.24572: L2-Pf-HR :0.99445: L2-HR :0.93345: (Sim:0h8m8s) 
CPU  3 inst:   11000005 cyc:    8212932 now IPC :0.95525: AVG IPC :1.24462: L2-Pf-HR :0.99478: L2-HR :0.93674: (Sim:0h8m8s) 
CPU  1 inst:   11000005 cyc:    8219024 now IPC :0.95368: AVG IPC :1.24369: L2-Pf-HR :0.99520: L2-HR :0.93694: (Sim:0h8m9s) 
CPU  0 inst:   11000005 cyc:    8225091 now IPC :0.96141: AVG IPC :1.24265: L2-Pf-HR :0.99533: L2-HR :0.93813: (Sim:0h8m9s) 
CPU  0 inst:   12000005 cyc:    9238839 now IPC :0.98644: AVG IPC :1.21119: L2-Pf-HR :0.99520: L2-HR :0.93716: (Sim:0h8m50s) 
CPU  3 inst:   12000005 cyc:    9240224 now IPC :0.97343: AVG IPC :1.21088: L2-Pf-HR :0.99470: L2-HR :0.93581: (Sim:0h8m50s) 
CPU  2 inst:   12000005 cyc:    9241420 now IPC :0.96705: AVG IPC :1.21083: L2-Pf-HR :0.99443: L2-HR :0.93269: (Sim:0h8m50s) 
CPU  1 inst:   12000005 cyc:    9245079 now IPC :0.97461: AVG IPC :1.21028: L2-Pf-HR :0.99505: L2-HR :0.93592: (Sim:0h8m50s) 
CPU  3 inst:   13000002 cyc:   10711482 now IPC :0.67969: AVG IPC :1.13055: L2-Pf-HR :0.99473: L2-HR :0.93405: (Sim:0h9m30s) 
CPU  2 inst:   13000002 cyc:   10711986 now IPC :0.68001: AVG IPC :1.13060: L2-Pf-HR :0.99456: L2-HR :0.93164: (Sim:0h9m30s) 
CPU  1 inst:   13000002 cyc:   10720562 now IPC :0.67774: AVG IPC :1.12959: L2-Pf-HR :0.99511: L2-HR :0.93442: (Sim:0h9m30s) 
CPU  0 inst:   13000002 cyc:   10726926 now IPC :0.67200: AVG IPC :1.12885: L2-Pf-HR :0.99531: L2-HR :0.93568: (Sim:0h9m30s) 
CPU  2 inst:   14000003 cyc:   12150496 now IPC :0.69516: AVG IPC :1.07451: L2-Pf-HR :0.99508: L2-HR :0.93430: (Sim:0h10m29s) 
CPU  1 inst:   14000005 cyc:   12185998 now IPC :0.68239: AVG IPC :1.07109: L2-Pf-HR :0.99550: L2-HR :0.93638: (Sim:0h10m30s) 
CPU  3 inst:   14000000 cyc:   12209698 now IPC :0.66746: AVG IPC :1.06875: L2-Pf-HR :0.99517: L2-HR :0.93615: (Sim:0h10m31s) 
CPU  0 inst:   14000004 cyc:   12214117 now IPC :0.67241: AVG IPC :1.06841: L2-Pf-HR :0.99575: L2-HR :0.93784: (Sim:0h10m31s) 
CPU  2 inst:   15000001 cyc:   13411916 now IPC :0.79276: AVG IPC :1.04591: L2-Pf-HR :0.99544: L2-HR :0.93647: (Sim:0h11m25s) 
CPU  3 inst:   15000001 cyc:   13455253 now IPC :0.80286: AVG IPC :1.04220: L2-Pf-HR :0.99545: L2-HR :0.93791: (Sim:0h11m27s) 
CPU  1 inst:   15000001 cyc:   13459783 now IPC :0.78506: AVG IPC :1.04189: L2-Pf-HR :0.99584: L2-HR :0.93832: (Sim:0h11m27s) 
CPU  0 inst:   15000001 cyc:   13462814 now IPC :0.80083: AVG IPC :1.04164: L2-Pf-HR :0.99607: L2-HR :0.93972: (Sim:0h11m27s) 
CPU  2 inst:   16000002 cyc:   14415772 now IPC :0.99616: AVG IPC :1.04220: L2-Pf-HR :0.99532: L2-HR :0.93615: (Sim:0h12m16s) 
CPU  0 inst:   16000005 cyc:   14504235 now IPC :0.96023: AVG IPC :1.03537: L2-Pf-HR :0.99606: L2-HR :0.93944: (Sim:0h12m21s) 
CPU  1 inst:   16000005 cyc:   14508199 now IPC :0.95382: AVG IPC :1.03507: L2-Pf-HR :0.99569: L2-HR :0.93768: (Sim:0h12m21s) 
CPU  3 inst:   16000002 cyc:   14508507 now IPC :0.94944: AVG IPC :1.03498: L2-Pf-HR :0.99530: L2-HR :0.93718: (Sim:0h12m21s) 
CPU  1 inst:   17000000 cyc:   15897009 now IPC :0.72004: AVG IPC :1.00573: L2-Pf-HR :0.99561: L2-HR :0.93613: (Sim:0h13m21s) 
CPU  2 inst:   17000000 cyc:   15910589 now IPC :0.66898: AVG IPC :1.00482: L2-Pf-HR :0.99528: L2-HR :0.93458: (Sim:0h13m22s) 
CPU  3 inst:   17000000 cyc:   15918756 now IPC :0.70909: AVG IPC :1.00421: L2-Pf-HR :0.99520: L2-HR :0.93521: (Sim:0h13m22s) 
CPU  0 inst:   17000000 cyc:   15924366 now IPC :0.70416: AVG IPC :1.00389: L2-Pf-HR :0.99602: L2-HR :0.93790: (Sim:0h13m22s) 
CPU  1 inst:   18000001 cyc:   17229112 now IPC :0.75069: AVG IPC :0.98482: L2-Pf-HR :0.99569: L2-HR :0.93732: (Sim:0h14m19s) 
CPU  2 inst:   18000001 cyc:   17278566 now IPC :0.73101: AVG IPC :0.98184: L2-Pf-HR :0.99537: L2-HR :0.93583: (Sim:0h14m21s) 
CPU  3 inst:   18000001 cyc:   17308657 now IPC :0.71948: AVG IPC :0.97997: L2-Pf-HR :0.99526: L2-HR :0.93636: (Sim:0h14m22s) 
CPU  0 inst:   18000001 cyc:   17316491 now IPC :0.71833: AVG IPC :0.97955: L2-Pf-HR :0.99608: L2-HR :0.93921: (Sim:0h14m23s) 
CPU  1 inst:   19000004 cyc:   18640445 now IPC :0.70855: AVG IPC :0.96274: L2-Pf-HR :0.99591: L2-HR :0.93853: (Sim:0h15m19s) 
CPU  2 inst:   19000004 cyc:   18666526 now IPC :0.72048: AVG IPC :0.96133: L2-Pf-HR :0.99560: L2-HR :0.93702: (Sim:0h15m20s) 
CPU  3 inst:   19000004 cyc:   18666930 now IPC :0.73623: AVG IPC :0.96125: L2-Pf-HR :0.99545: L2-HR :0.93740: (Sim:0h15m20s) 
CPU  0 inst:   19000004 cyc:   18672206 now IPC :0.73762: AVG IPC :0.96101: L2-Pf-HR :0.99631: L2-HR :0.94048: (Sim:0h15m21s) 
CPU  2 inst:   20000002 cyc:   19904672 now IPC :0.80766: AVG IPC :0.95127: L2-Pf-HR :0.99540: L2-HR :0.93737: (Sim:0h16m0s) 
CPU  3 inst:   20000002 cyc:   19909282 now IPC :0.80492: AVG IPC :0.95099: L2-Pf-HR :0.99520: L2-HR :0.93738: (Sim:0h16m0s) 
CPU  0 inst:   20000002 cyc:   19920295 now IPC :0.80122: AVG IPC :0.95048: L2-Pf-HR :0.99607: L2-HR :0.94058: (Sim:0h16m0s) 
CPU  1 inst:   20000002 cyc:   19925235 now IPC :0.77834: AVG IPC :0.95023: L2-Pf-HR :0.99568: L2-HR :0.93852: (Sim:0h16m0s) 
CPU  2 inst:   21000000 cyc:   21373319 now IPC :0.68090: AVG IPC :0.93180: L2-Pf-HR :0.99522: L2-HR :0.93586: (Sim:0h16m38s) 
CPU  1 inst:   21000005 cyc:   21445989 now IPC :0.65757: AVG IPC :0.92848: L2-Pf-HR :0.99549: L2-HR :0.93697: (Sim:0h16m40s) 
CPU  3 inst:   21000005 cyc:   21454597 now IPC :0.64712: AVG IPC :0.92805: L2-Pf-HR :0.99496: L2-HR :0.93552: (Sim:0h16m40s) 
CPU  0 inst:   21000005 cyc:   21460381 now IPC :0.64932: AVG IPC :0.92783: L2-Pf-HR :0.99595: L2-HR :0.93900: (Sim:0h16m40s) 
CPU  2 inst:   22000004 cyc:   22684632 now IPC :0.76260: AVG IPC :0.92157: L2-Pf-HR :0.99548: L2-HR :0.93714: (Sim:0h17m16s) 
CPU  0 inst:   22000004 cyc:   22707257 now IPC :0.80200: AVG IPC :0.92061: L2-Pf-HR :0.99617: L2-HR :0.94008: (Sim:0h17m17s) 
CPU  1 inst:   22000004 cyc:   22707307 now IPC :0.79282: AVG IPC :0.92061: L2-Pf-HR :0.99572: L2-HR :0.93795: (Sim:0h17m17s) 
CPU  3 inst:   22000004 cyc:   22721334 now IPC :0.78943: AVG IPC :0.91997: L2-Pf-HR :0.99517: L2-HR :0.93639: (Sim:0h17m17s) 
CPU  2 inst:   23000002 cyc:   23889463 now IPC :0.82999: AVG IPC :0.91676: L2-Pf-HR :0.99572: L2-HR :0.93827: (Sim:0h17m53s) 
CPU  0 inst:   23000002 cyc:   23900847 now IPC :0.83781: AVG IPC :0.91629: L2-Pf-HR :0.99637: L2-HR :0.94091: (Sim:0h17m53s) 
CPU  1 inst:   23000002 cyc:   23906919 now IPC :0.83360: AVG IPC :0.91605: L2-Pf-HR :0.99593: L2-HR :0.93885: (Sim:0h17m53s) 
CPU  3 inst:   23000002 cyc:   23910193 now IPC :0.84114: AVG IPC :0.91588: L2-Pf-HR :0.99538: L2-HR :0.93720: (Sim:0h17m53s) 
CPU  0 inst:   24000004 cyc:   25137687 now IPC :0.80851: AVG IPC :0.91078: L2-Pf-HR :0.99643: L2-HR :0.94103: (Sim:0h18m40s) 
CPU  2 inst:   24000004 cyc:   25148812 now IPC :0.79406: AVG IPC :0.91036: L2-Pf-HR :0.99584: L2-HR :0.93866: (Sim:0h18m40s) 
CPU  1 inst:   24000004 cyc:   25151646 now IPC :0.80339: AVG IPC :0.91025: L2-Pf-HR :0.99600: L2-HR :0.93895: (Sim:0h18m40s) 
CPU  3 inst:   24000004 cyc:   25153270 now IPC :0.80446: AVG IPC :0.91015: L2-Pf-HR :0.99544: L2-HR :0.93720: (Sim:0h18m40s) 
CPU  0 inst:   25000003 cyc:   26649371 now IPC :0.66151: AVG IPC :0.89610: L2-Pf-HR :0.99642: L2-HR :0.93958: (Sim:0h19m43s) 
CPU  3 inst:   25000003 cyc:   26654882 now IPC :0.66595: AVG IPC :0.89587: L2-Pf-HR :0.99544: L2-HR :0.93570: (Sim:0h19m43s) 
CPU  2 inst:   25000003 cyc:   26655033 now IPC :0.66391: AVG IPC :0.89590: L2-Pf-HR :0.99579: L2-HR :0.93704: (Sim:0h19m43s) 
CPU  1 inst:   25000003 cyc:   26658122 now IPC :0.66380: AVG IPC :0.89579: L2-Pf-HR :0.99600: L2-HR :0.93756: (Sim:0h19m43s) 
CPU  0 inst:   26000005 cyc:   27970707 now IPC :0.75681: AVG IPC :0.88928: L2-Pf-HR :0.99654: L2-HR :0.94025: (Sim:0h20m41s) 
CPU  2 inst:   26000005 cyc:   27979502 now IPC :0.75502: AVG IPC :0.88899: L2-Pf-HR :0.99595: L2-HR :0.93788: (Sim:0h20m41s) 
CPU  1 inst:   26000005 cyc:   27985655 now IPC :0.75328: AVG IPC :0.88878: L2-Pf-HR :0.99615: L2-HR :0.93823: (Sim:0h20m41s) 
CPU  3 inst:   26000005 cyc:   27991724 now IPC :0.74803: AVG IPC :0.88855: L2-Pf-HR :0.99560: L2-HR :0.93638: (Sim:0h20m42s) 
CPU  2 inst:   27000003 cyc:   29164586 now IPC :0.84382: AVG IPC :0.88709: L2-Pf-HR :0.99609: L2-HR :0.93868: (Sim:0h21m38s) 
CPU  0 inst:   27000003 cyc:   29172912 now IPC :0.83180: AVG IPC :0.88682: L2-Pf-HR :0.99667: L2-HR :0.94091: (Sim:0h21m39s) 
CPU  3 inst:   27000003 cyc:   29175747 now IPC :0.84458: AVG IPC :0.88671: L2-Pf-HR :0.99576: L2-HR :0.93699: (Sim:0h21m39s) 
CPU  1 inst:   27000003 cyc:   29178607 now IPC :0.83825: AVG IPC :0.88665: L2-Pf-HR :0.99631: L2-HR :0.93893: (Sim:0h21m39s) 
CPU  1 inst:   28000001 cyc:   30252196 now IPC :0.93145: AVG IPC :0.88829: L2-Pf-HR :0.99631: L2-HR :0.93926: (Sim:0h22m34s) 
CPU  3 inst:   28000001 cyc:   30257076 now IPC :0.92479: AVG IPC :0.88811: L2-Pf-HR :0.99575: L2-HR :0.93719: (Sim:0h22m35s) 
CPU  0 inst:   28000001 cyc:   30260985 now IPC :0.91905: AVG IPC :0.88802: L2-Pf-HR :0.99664: L2-HR :0.94117: (Sim:0h22m35s) 
CPU  2 inst:   28000001 cyc:   30265282 now IPC :0.90851: AVG IPC :0.88790: L2-Pf-HR :0.99612: L2-HR :0.93918: (Sim:0h22m35s) 
CPU  1 inst:   29000000 cyc:   31608191 now IPC :0.73747: AVG IPC :0.88161: L2-Pf-HR :0.99615: L2-HR :0.93794: (Sim:0h23m38s) 
CPU  0 inst:   29000000 cyc:   31614515 now IPC :0.73881: AVG IPC :0.88143: L2-Pf-HR :0.99650: L2-HR :0.93977: (Sim:0h23m38s) 
CPU  2 inst:   29000000 cyc:   31652960 now IPC :0.72063: AVG IPC :0.88033: L2-Pf-HR :0.99593: L2-HR :0.93760: (Sim:0h23m39s) 
CPU  3 inst:   29000000 cyc:   31652976 now IPC :0.71638: AVG IPC :0.88030: L2-Pf-HR :0.99553: L2-HR :0.93542: (Sim:0h23m39s) 
CPU  1 inst:   30000000 cyc:   32915744 now IPC :0.76479: AVG IPC :0.87683: L2-Pf-HR :0.99629: L2-HR :0.93870: (Sim:0h24m36s) 
CPU  2 inst:   30000000 cyc:   32923703 now IPC :0.78694: AVG IPC :0.87661: L2-Pf-HR :0.99607: L2-HR :0.93823: (Sim:0h24m36s) 
CPU  3 inst:   30000003 cyc:   32950113 now IPC :0.77093: AVG IPC :0.87586: L2-Pf-HR :0.99567: L2-HR :0.93616: (Sim:0h24m38s) 
CPU  0 inst:   30000000 cyc:   32963687 now IPC :0.74120: AVG IPC :0.87551: L2-Pf-HR :0.99661: L2-HR :0.94037: (Sim:0h24m38s) 
CPU  1 inst:   31000001 cyc:   34237564 now IPC :0.75653: AVG IPC :0.87205: L2-Pf-HR :0.99640: L2-HR :0.93944: (Sim:0h25m34s) 
CPU  2 inst:   31000001 cyc:   34265566 now IPC :0.74523: AVG IPC :0.87132: L2-Pf-HR :0.99617: L2-HR :0.93884: (Sim:0h25m34s) 
CPU  0 inst:   31000001 cyc:   34285275 now IPC :0.75667: AVG IPC :0.87080: L2-Pf-HR :0.99670: L2-HR :0.94095: (Sim:0h25m35s) 
CPU  3 inst:   31000001 cyc:   34291109 now IPC :0.74571: AVG IPC :0.87062: L2-Pf-HR :0.99580: L2-HR :0.93693: (Sim:0h25m35s) 
CPU  1 inst:   32000002 cyc:   35458370 now IPC :0.81913: AVG IPC :0.87017: L2-Pf-HR :0.99649: L2-HR :0.94012: (Sim:0h26m25s) 
CPU  2 inst:   32000002 cyc:   35507525 now IPC :0.80518: AVG IPC :0.86894: L2-Pf-HR :0.99623: L2-HR :0.93933: (Sim:0h26m27s) 
CPU  3 inst:   32000002 cyc:   35517236 now IPC :0.81558: AVG IPC :0.86866: L2-Pf-HR :0.99589: L2-HR :0.93753: (Sim:0h26m27s) 
CPU  0 inst:   32000002 cyc:   35520018 now IPC :0.80989: AVG IPC :0.86862: L2-Pf-HR :0.99674: L2-HR :0.94138: (Sim:0h26m27s) 
CPU  0 inst:   33000003 cyc:   36727059 now IPC :0.82847: AVG IPC :0.86726: L2-Pf-HR :0.99656: L2-HR :0.94011: (Sim:0h27m25s) 
CPU  3 inst:   33000003 cyc:   36729947 now IPC :0.82460: AVG IPC :0.86717: L2-Pf-HR :0.99562: L2-HR :0.93576: (Sim:0h27m25s) 
CPU  2 inst:   33000002 cyc:   36758222 now IPC :0.79955: AVG IPC :0.86651: L2-Pf-HR :0.99604: L2-HR :0.93797: (Sim:0h27m26s) 
CPU  1 inst:   33000003 cyc:   36759300 now IPC :0.76868: AVG IPC :0.86648: L2-Pf-HR :0.99630: L2-HR :0.93876: (Sim:0h27m26s) 
CPU  0 inst:   34000004 cyc:   38252283 now IPC :0.65564: AVG IPC :0.85860: L2-Pf-HR :0.99658: L2-HR :0.94042: (Sim:0h28m27s) 
CPU  2 inst:   34000004 cyc:   38253160 now IPC :0.66893: AVG IPC :0.85859: L2-Pf-HR :0.99606: L2-HR :0.93830: (Sim:0h28m27s) 
CPU  1 inst:   34000004 cyc:   38261378 now IPC :0.66575: AVG IPC :0.85839: L2-Pf-HR :0.99634: L2-HR :0.93908: (Sim:0h28m27s) 
CPU  3 inst:   34000004 cyc:   38280887 now IPC :0.64477: AVG IPC :0.85792: L2-Pf-HR :0.99565: L2-HR :0.93615: (Sim:0h28m28s) 
CPU  0 inst:   35000005 cyc:   39658134 now IPC :0.71131: AVG IPC :0.85325: L2-Pf-HR :0.99668: L2-HR :0.94106: (Sim:0h29m25s) 
CPU  2 inst:   35000005 cyc:   39678072 now IPC :0.70180: AVG IPC :0.85281: L2-Pf-HR :0.99615: L2-HR :0.93891: (Sim:0h29m26s) 
CPU  1 inst:   35000005 cyc:   39679170 now IPC :0.70532: AVG IPC :0.85279: L2-Pf-HR :0.99645: L2-HR :0.93973: (Sim:0h29m26s) 
CPU  3 inst:   35000005 cyc:   39692322 now IPC :0.70850: AVG IPC :0.85247: L2-Pf-HR :0.99576: L2-HR :0.93688: (Sim:0h29m27s) 
CPU  0 inst:   36000004 cyc:   40888012 now IPC :0.81309: AVG IPC :0.85201: L2-Pf-HR :0.99669: L2-HR :0.94136: (Sim:0h30m21s) 
CPU  2 inst:   36000004 cyc:   40896213 now IPC :0.82092: AVG IPC :0.85184: L2-Pf-HR :0.99622: L2-HR :0.93937: (Sim:0h30m22s) 
CPU  1 inst:   36000004 cyc:   40906176 now IPC :0.81499: AVG IPC :0.85162: L2-Pf-HR :0.99652: L2-HR :0.94013: (Sim:0h30m22s) 
CPU  3 inst:   36000004 cyc:   40909010 now IPC :0.82190: AVG IPC :0.85154: L2-Pf-HR :0.99582: L2-HR :0.93736: (Sim:0h30m23s) 
CPU  1 inst:   37000000 cyc:   41964752 now IPC :0.94466: AVG IPC :0.85403: L2-Pf-HR :0.99647: L2-HR :0.93951: (Sim:0h31m15s) 
CPU  3 inst:   37000000 cyc:   41966511 now IPC :0.94562: AVG IPC :0.85397: L2-Pf-HR :0.99571: L2-HR :0.93643: (Sim:0h31m15s) 
CPU  0 inst:   37000000 cyc:   41969763 now IPC :0.92442: AVG IPC :0.85392: L2-Pf-HR :0.99665: L2-HR :0.94075: (Sim:0h31m16s) 
CPU  2 inst:   37000000 cyc:   41979242 now IPC :0.92333: AVG IPC :0.85373: L2-Pf-HR :0.99613: L2-HR :0.93852: (Sim:0h31m17s) 
CPU  3 inst:   38000004 cyc:   43577821 now IPC :0.62062: AVG IPC :0.84514: L2-Pf-HR :0.99578: L2-HR :0.93642: (Sim:0h32m17s) 
CPU  1 inst:   38000004 cyc:   43593469 now IPC :0.61398: AVG IPC :0.84485: L2-Pf-HR :0.99653: L2-HR :0.93950: (Sim:0h32m17s) 
CPU  2 inst:   38000004 cyc:   43600563 now IPC :0.61678: AVG IPC :0.84471: L2-Pf-HR :0.99622: L2-HR :0.93860: (Sim:0h32m17s) 
CPU  0 inst:   38000004 cyc:   43613211 now IPC :0.60848: AVG IPC :0.84446: L2-Pf-HR :0.99671: L2-HR :0.94071: (Sim:0h32m18s) 
CPU  3 inst:   39000002 cyc:   44930768 now IPC :0.73913: AVG IPC :0.84188: L2-Pf-HR :0.99587: L2-HR :0.93702: (Sim:0h33m10s) 
CPU  1 inst:   39000002 cyc:   44963430 now IPC :0.72995: AVG IPC :0.84127: L2-Pf-HR :0.99661: L2-HR :0.94003: (Sim:0h33m11s) 
CPU  2 inst:   39000002 cyc:   44975576 now IPC :0.72726: AVG IPC :0.84104: L2-Pf-HR :0.99631: L2-HR :0.93920: (Sim:0h33m12s) 
CPU  0 inst:   39000002 cyc:   44976738 now IPC :0.73339: AVG IPC :0.84102: L2-Pf-HR :0.99679: L2-HR :0.94121: (Sim:0h33m12s) 
CPU  3 inst:   40000000 cyc:   46109842 now IPC :0.84812: AVG IPC :0.84204: L2-Pf-HR :0.99594: L2-HR :0.93759: (Sim:0h34m6s) 
CPU  0 inst:   40000000 cyc:   46116697 now IPC :0.87722: AVG IPC :0.84193: L2-Pf-HR :0.99686: L2-HR :0.94172: (Sim:0h34m7s) 
CPU  2 inst:   40000000 cyc:   46125570 now IPC :0.86957: AVG IPC :0.84177: L2-Pf-HR :0.99640: L2-HR :0.93987: (Sim:0h34m7s) 
CPU  1 inst:   40000000 cyc:   46129992 now IPC :0.85722: AVG IPC :0.84168: L2-Pf-HR :0.99666: L2-HR :0.94054: (Sim:0h34m7s) 
CPU  0 inst:   41000003 cyc:   47232102 now IPC :0.89654: AVG IPC :0.84325: L2-Pf-HR :0.99679: L2-HR :0.94118: (Sim:0h34m59s) 
CPU  2 inst:   41000003 cyc:   47236289 now IPC :0.90032: AVG IPC :0.84318: L2-Pf-HR :0.99634: L2-HR :0.93932: (Sim:0h34m59s) 
CPU  3 inst:   41000003 cyc:   47238189 now IPC :0.88625: AVG IPC :0.84312: L2-Pf-HR :0.99586: L2-HR :0.93690: (Sim:0h35m0s) 
CPU  1 inst:   41000003 cyc:   47244381 now IPC :0.89736: AVG IPC :0.84303: L2-Pf-HR :0.99661: L2-HR :0.93996: (Sim:0h35m0s) 
CPU  2 inst:   42000002 cyc:   48843471 now IPC :0.62221: AVG IPC :0.83576: L2-Pf-HR :0.99640: L2-HR :0.93925: (Sim:0h36m4s) 
CPU  3 inst:   42000002 cyc:   48851297 now IPC :0.61992: AVG IPC :0.83560: L2-Pf-HR :0.99592: L2-HR :0.93681: (Sim:0h36m5s) 
CPU  0 inst:   42000002 cyc:   48853628 now IPC :0.61670: AVG IPC :0.83558: L2-Pf-HR :0.99683: L2-HR :0.94102: (Sim:0h36m5s) 
CPU  1 inst:   42000002 cyc:   48874547 now IPC :0.61343: AVG IPC :0.83521: L2-Pf-HR :0.99665: L2-HR :0.93979: (Sim:0h36m6s) 
CPU  2 inst:   43000000 cyc:   50206260 now IPC :0.73379: AVG IPC :0.83293: L2-Pf-HR :0.99648: L2-HR :0.93980: (Sim:0h37m12s) 
CPU  1 inst:   43000000 cyc:   50253356 now IPC :0.72526: AVG IPC :0.83213: L2-Pf-HR :0.99672: L2-HR :0.94023: (Sim:0h37m14s) 
CPU  0 inst:   43000000 cyc:   50257364 now IPC :0.71238: AVG IPC :0.83207: L2-Pf-HR :0.99691: L2-HR :0.94151: (Sim:0h37m14s) 
CPU  3 inst:   43000000 cyc:   50260052 now IPC :0.70985: AVG IPC :0.83200: L2-Pf-HR :0.99600: L2-HR :0.93730: (Sim:0h37m15s) 
CPU  2 inst:   44000001 cyc:   51414100 now IPC :0.82793: AVG IPC :0.83281: L2-Pf-HR :0.99654: L2-HR :0.94023: (Sim:0h38m12s) 
CPU  3 inst:   44000001 cyc:   51442023 now IPC :0.84605: AVG IPC :0.83233: L2-Pf-HR :0.99605: L2-HR :0.93769: (Sim:0h38m13s) 
CPU  0 inst:   44000001 cyc:   51445372 now IPC :0.84175: AVG IPC :0.83229: L2-Pf-HR :0.99698: L2-HR :0.94199: (Sim:0h38m13s) 
CPU  1 inst:   44000001 cyc:   51450013 now IPC :0.83566: AVG IPC :0.83222: L2-Pf-HR :0.99678: L2-HR :0.94063: (Sim:0h38m13s) 
CPU  0 inst:   45000000 cyc:   52493863 now IPC :0.95375: AVG IPC :0.83477: L2-Pf-HR :0.99694: L2-HR :0.94156: (Sim:0h39m14s) 
CPU  1 inst:   45000000 cyc:   52497723 now IPC :0.95446: AVG IPC :0.83470: L2-Pf-HR :0.99675: L2-HR :0.94016: (Sim:0h39m14s) 
CPU  2 inst:   45000000 cyc:   52501273 now IPC :0.91982: AVG IPC :0.83465: L2-Pf-HR :0.99651: L2-HR :0.93977: (Sim:0h39m14s) 
CPU  3 inst:   45000000 cyc:   52506043 now IPC :0.93983: AVG IPC :0.83455: L2-Pf-HR :0.99600: L2-HR :0.93718: (Sim:0h39m15s) 
CPU  1 inst:   46000002 cyc:   53999997 now IPC :0.66566: AVG IPC :0.82991: L2-Pf-HR :0.99677: L2-HR :0.93980: (Sim:0h40m27s) 
CPU  3 inst:   46000002 cyc:   54000906 now IPC :0.66896: AVG IPC :0.82988: L2-Pf-HR :0.99601: L2-HR :0.93672: (Sim:0h40m27s) 
CPU  0 inst:   46000000 cyc:   54004249 now IPC :0.66208: AVG IPC :0.82985: L2-Pf-HR :0.99696: L2-HR :0.94120: (Sim:0h40m27s) 
CPU  2 inst:   46000002 cyc:   54011966 now IPC :0.66195: AVG IPC :0.82973: L2-Pf-HR :0.99653: L2-HR :0.93940: (Sim:0h40m28s) 
CPU  1 inst:   47000004 cyc:   55225249 now IPC :0.81616: AVG IPC :0.82960: L2-Pf-HR :0.99684: L2-HR :0.94015: (Sim:0h41m34s) 
CPU  2 inst:   47000004 cyc:   55239703 now IPC :0.81451: AVG IPC :0.82938: L2-Pf-HR :0.99660: L2-HR :0.93982: (Sim:0h41m35s) 
CPU  0 inst:   47000004 cyc:   55248496 now IPC :0.80370: AVG IPC :0.82925: L2-Pf-HR :0.99703: L2-HR :0.94161: (Sim:0h41m36s) 
CPU  3 inst:   47000004 cyc:   55265431 now IPC :0.79081: AVG IPC :0.82897: L2-Pf-HR :0.99608: L2-HR :0.93705: (Sim:0h41m37s) 
CPU  2 inst:   48000005 cyc:   56597955 now IPC :0.73624: AVG IPC :0.82711: L2-Pf-HR :0.99667: L2-HR :0.94015: (Sim:0h42m46s) 
CPU  1 inst:   48000005 cyc:   56598057 now IPC :0.72843: AVG IPC :0.82711: L2-Pf-HR :0.99691: L2-HR :0.94050: (Sim:0h42m46s) 
CPU  0 inst:   48000005 cyc:   56625542 now IPC :0.72619: AVG IPC :0.82670: L2-Pf-HR :0.99709: L2-HR :0.94194: (Sim:0h42m48s) 
CPU  3 inst:   48000005 cyc:   56657853 now IPC :0.71817: AVG IPC :0.82620: L2-Pf-HR :0.99614: L2-HR :0.93732: (Sim:0h42m49s) 
CPU  0 inst:   49000000 cyc:   57759624 now IPC :0.88177: AVG IPC :0.82780: L2-Pf-HR :0.99706: L2-HR :0.94168: (Sim:0h43m50s) 
CPU  2 inst:   49000000 cyc:   57771108 now IPC :0.85240: AVG IPC :0.82763: L2-Pf-HR :0.99664: L2-HR :0.93987: (Sim:0h43m51s) 
CPU  3 inst:   49000000 cyc:   57778233 now IPC :0.89255: AVG IPC :0.82751: L2-Pf-HR :0.99609: L2-HR :0.93689: (Sim:0h43m51s) 
CPU  1 inst:   49000000 cyc:   57778415 now IPC :0.84720: AVG IPC :0.82752: L2-Pf-HR :0.99687: L2-HR :0.94017: (Sim:0h43m51s) 
CPU  0 inst:   50000001 cyc:   69284580 now IPC :0.08677: AVG IPC :0.70276: L2-Pf-HR :0.99676: L2-HR :0.92937: (Sim:0h50m48s) 
CPU  1 inst:   50000004 cyc:   69353405 now IPC :0.08639: AVG IPC :0.70205: L2-Pf-HR :0.99657: L2-HR :0.92789: (Sim:0h50m51s) 
CPU  2 inst:   50000001 cyc:   69505519 now IPC :0.08522: AVG IPC :0.70050: L2-Pf-HR :0.99635: L2-HR :0.92756: (Sim:0h50m58s) 
CPU  3 inst:   50000001 cyc:   69534987 now IPC :0.08506: AVG IPC :0.70018: L2-Pf-HR :0.99581: L2-HR :0.92453: (Sim:0h50m59s) 
Caught signal: 2
     > Finished combination: TraceType=770-tot Sim:120000000 Prefetcher=L2spp_berti_src L1=no
