TRACE: [32000000]_FE_[OPT-125M]_[h12]_[s256]_[d64] Warmup: 2000000 NumTraces: 32000000
L1:berti:L2:berti
*************************************************
   ChampSim Multicore Out-of-Order Simulator
   Last compiled: Oct 29 2024 19:13:09
*************************************************

trace_0 770-tot_memTraces_v3_rexz/memTraces[32000000]_FE_[OPT-125M]_[h12]_[s256]_[d64].champsim.9.xz
trace_1 770-tot_memTraces_v3_rexz/memTraces[32000000]_FE_[OPT-125M]_[h12]_[s256]_[d64].champsim.9.xz
trace_2 770-tot_memTraces_v3_rexz/memTraces[32000000]_FE_[OPT-125M]_[h12]_[s256]_[d64].champsim.9.xz
trace_3 770-tot_memTraces_v3_rexz/memTraces[32000000]_FE_[OPT-125M]_[h12]_[s256]_[d64].champsim.9.xz
CPU 0 L1D Berti prefetcher
CPU 0 L2C Berti prefetcher
CPU 1 L1D Berti prefetcher
CPU 1 L2C Berti prefetcher
CPU 2 L1D Berti prefetcher
CPU 2 L2C Berti prefetcher
CPU 3 L1D Berti prefetcher
CPU 3 L2C Berti prefetcher
MAIN.cc ln 751 stats print skipped
CPU  0 inst:    1000000 cyc:     501072 now IPC :1.99572: AVG IPC :1.99572: L2-Pf-HR :0.78512: L2-HR :0.75984: (Sim:0h0m52s) 
CPU  2 inst:    1000000 cyc:     501190 now IPC :1.99525: AVG IPC :1.99525: L2-Pf-HR :0.78661: L2-HR :0.75845: (Sim:0h0m52s) 
CPU  1 inst:    1000000 cyc:     501239 now IPC :1.99506: AVG IPC :1.99506: L2-Pf-HR :0.78753: L2-HR :0.75972: (Sim:0h0m52s) 
CPU  3 inst:    1000000 cyc:     501243 now IPC :1.99504: AVG IPC :1.99504: L2-Pf-HR :0.78400: L2-HR :0.75914: (Sim:0h0m52s) 
CPU  0 inst:    2000004 cyc:     988727 now IPC :2.05064: AVG IPC :2.02281: L2-Pf-HR :0.83053: L2-HR :0.81335: (Sim:0h1m35s) 
CPU  2 inst:    2000004 cyc:     988798 now IPC :2.05084: AVG IPC :2.02266: L2-Pf-HR :0.83198: L2-HR :0.81399: (Sim:0h1m35s) 
CPU  1 inst:    2000004 cyc:     988811 now IPC :2.05099: AVG IPC :2.02264: L2-Pf-HR :0.83200: L2-HR :0.81415: (Sim:0h1m35s) 
CPU  3 inst:    2000004 cyc:     988923 now IPC :2.05053: AVG IPC :2.02241: L2-Pf-HR :0.83054: L2-HR :0.81360: (Sim:0h1m35s) 

Warmup complete CPU  0 instructions:    2000340 cycles:     988923 (Simulation time: 0 hr 1 min 35 sec) 
Warmup complete CPU  1 instructions:    2000281 cycles:     988923 (Simulation time: 0 hr 1 min 35 sec) 
Warmup complete CPU  2 instructions:    2000281 cycles:     988923 (Simulation time: 0 hr 1 min 35 sec) 
Warmup complete CPU  3 instructions:    2000004 cycles:     988923 (Simulation time: 0 hr 1 min 35 sec) 

CPU  1 inst:    3000001 cyc:    1746276 now IPC :1.32019: AVG IPC :1.32002: L2-Pf-HR :0.90059: L2-HR :0.86732: (Sim:0h2m12s) 
CPU  2 inst:    3000001 cyc:    1747160 now IPC :1.31863: AVG IPC :1.31848: L2-Pf-HR :0.89472: L2-HR :0.86540: (Sim:0h2m13s) 
CPU  0 inst:    3000001 cyc:    1756864 now IPC :1.30185: AVG IPC :1.30174: L2-Pf-HR :0.90583: L2-HR :0.86327: (Sim:0h2m13s) 
CPU  3 inst:    3000001 cyc:    1765366 now IPC :1.28792: AVG IPC :1.28792: L2-Pf-HR :0.90772: L2-HR :0.86476: (Sim:0h2m14s) 
CPU  1 inst:    4000000 cyc:    2467261 now IPC :1.38699: AVG IPC :1.35268: L2-Pf-HR :0.89939: L2-HR :0.86659: (Sim:0h2m50s) 
CPU  2 inst:    4000000 cyc:    2477717 now IPC :1.36882: AVG IPC :1.34318: L2-Pf-HR :0.89942: L2-HR :0.86637: (Sim:0h2m51s) 
CPU  0 inst:    4000000 cyc:    2492613 now IPC :1.35916: AVG IPC :1.32984: L2-Pf-HR :0.90698: L2-HR :0.86562: (Sim:0h2m52s) 
CPU  3 inst:    4000000 cyc:    2495920 now IPC :1.36882: AVG IPC :1.32714: L2-Pf-HR :0.90598: L2-HR :0.86546: (Sim:0h2m52s) 
CPU  1 inst:    5000002 cyc:    3182470 now IPC :1.39820: AVG IPC :1.36752: L2-Pf-HR :0.90094: L2-HR :0.86642: (Sim:0h3m36s) 
CPU  2 inst:    5000002 cyc:    3205210 now IPC :1.37459: AVG IPC :1.35349: L2-Pf-HR :0.89953: L2-HR :0.86603: (Sim:0h3m38s) 
CPU  0 inst:    5000001 cyc:    3211242 now IPC :1.39154: AVG IPC :1.34979: L2-Pf-HR :0.90430: L2-HR :0.86582: (Sim:0h3m39s) 
CPU  3 inst:    5000000 cyc:    3224856 now IPC :1.37186: AVG IPC :1.34172: L2-Pf-HR :0.90442: L2-HR :0.86571: (Sim:0h3m40s) 
CPU  1 inst:    6000001 cyc:    3861900 now IPC :1.47182: AVG IPC :1.39219: L2-Pf-HR :0.90028: L2-HR :0.86632: (Sim:0h4m31s) 
CPU  2 inst:    6000001 cyc:    3912671 now IPC :1.41350: AVG IPC :1.36801: L2-Pf-HR :0.90016: L2-HR :0.86593: (Sim:0h4m36s) 
CPU  0 inst:    6000001 cyc:    3915843 now IPC :1.41924: AVG IPC :1.36651: L2-Pf-HR :0.90261: L2-HR :0.86525: (Sim:0h4m36s) 
CPU  3 inst:    6000001 cyc:    3924930 now IPC :1.42842: AVG IPC :1.36239: L2-Pf-HR :0.90393: L2-HR :0.86536: (Sim:0h4m37s) 
CPU  1 inst:    7000004 cyc:    4508967 now IPC :1.54544: AVG IPC :1.42036: L2-Pf-HR :0.90006: L2-HR :0.86687: (Sim:0h5m23s) 
CPU  2 inst:    7000004 cyc:    4641432 now IPC :1.37220: AVG IPC :1.36885: L2-Pf-HR :0.90118: L2-HR :0.86597: (Sim:0h5m30s) 
CPU  0 inst:    7000004 cyc:    4650649 now IPC :1.36091: AVG IPC :1.36538: L2-Pf-HR :0.90394: L2-HR :0.86594: (Sim:0h5m31s) 
CPU  3 inst:    7000004 cyc:    4658388 now IPC :1.36341: AVG IPC :1.36260: L2-Pf-HR :0.90218: L2-HR :0.86523: (Sim:0h5m31s) 
CPU  1 inst:    8000002 cyc:    5235511 now IPC :1.37638: AVG IPC :1.41283: L2-Pf-HR :0.89990: L2-HR :0.86657: (Sim:0h6m8s) 
CPU  2 inst:    8000002 cyc:    5567947 now IPC :1.07931: AVG IPC :1.31026: L2-Pf-HR :0.90208: L2-HR :0.86620: (Sim:0h6m26s) 
CPU  0 inst:    8000002 cyc:    5569197 now IPC :1.08867: AVG IPC :1.30989: L2-Pf-HR :0.90470: L2-HR :0.86601: (Sim:0h6m26s) 
CPU  3 inst:    8000002 cyc:    5574170 now IPC :1.09196: AVG IPC :1.30854: L2-Pf-HR :0.90288: L2-HR :0.86570: (Sim:0h6m26s) 
CPU  1 inst:    9000005 cyc:    6042340 now IPC :1.23942: AVG IPC :1.38515: L2-Pf-HR :0.90036: L2-HR :0.86702: (Sim:0h6m48s) 
CPU  2 inst:    9000004 cyc:    6641084 now IPC :0.93185: AVG IPC :1.23842: L2-Pf-HR :0.90271: L2-HR :0.86632: (Sim:0h7m14s) 
CPU  3 inst:    9000004 cyc:    6656087 now IPC :0.92429: AVG IPC :1.23519: L2-Pf-HR :0.90290: L2-HR :0.86542: (Sim:0h7m15s) 
CPU  0 inst:    9000004 cyc:    6657003 now IPC :0.91928: AVG IPC :1.23493: L2-Pf-HR :0.90575: L2-HR :0.86612: (Sim:0h7m15s) 
CPU  1 inst:   10000000 cyc:    6929251 now IPC :1.12750: AVG IPC :1.34668: L2-Pf-HR :0.90005: L2-HR :0.86738: (Sim:0h7m37s) 
CPU  2 inst:   10000000 cyc:    7706185 now IPC :0.93887: AVG IPC :1.19092: L2-Pf-HR :0.90381: L2-HR :0.86700: (Sim:0h8m22s) 
CPU  0 inst:   10000000 cyc:    7719775 now IPC :0.94093: AVG IPC :1.18851: L2-Pf-HR :0.90574: L2-HR :0.86623: (Sim:0h8m23s) 
CPU  3 inst:   10000000 cyc:    7719979 now IPC :0.93994: AVG IPC :1.18852: L2-Pf-HR :0.90345: L2-HR :0.86591: (Sim:0h8m23s) 
CPU  1 inst:   11000002 cyc:    7835808 now IPC :1.10308: AVG IPC :1.31443: L2-Pf-HR :0.90012: L2-HR :0.86774: (Sim:0h8m28s) 
CPU  2 inst:   11000002 cyc:    8843060 now IPC :0.87961: AVG IPC :1.14586: L2-Pf-HR :0.90470: L2-HR :0.86729: (Sim:0h9m8s) 
CPU  1 inst:   12000004 cyc:    8864535 now IPC :0.97208: AVG IPC :1.26971: L2-Pf-HR :0.90073: L2-HR :0.86818: (Sim:0h9m8s) 
CPU  0 inst:   11000002 cyc:    8868933 now IPC :0.87020: AVG IPC :1.14209: L2-Pf-HR :0.90600: L2-HR :0.86727: (Sim:0h9m9s) 
CPU  3 inst:   11000002 cyc:    8926863 now IPC :0.82858: AVG IPC :1.13380: L2-Pf-HR :0.90383: L2-HR :0.86674: (Sim:0h9m10s) 
CPU  2 inst:   12000003 cyc:    9854158 now IPC :0.98902: AVG IPC :1.12797: L2-Pf-HR :0.90547: L2-HR :0.86757: (Sim:0h10m0s) 
CPU  0 inst:   12000003 cyc:   10009582 now IPC :0.87669: AVG IPC :1.10853: L2-Pf-HR :0.90637: L2-HR :0.86726: (Sim:0h10m6s) 
CPU  3 inst:   12000003 cyc:   10064128 now IPC :0.87930: AVG IPC :1.10190: L2-Pf-HR :0.90399: L2-HR :0.86679: (Sim:0h10m8s) 
CPU  1 inst:   13000002 cyc:   11543736 now IPC :0.37324: AVG IPC :1.04215: L2-Pf-HR :0.87660: L2-HR :0.83735: (Sim:0h10m55s) 
CPU  2 inst:   13000005 cyc:   13728030 now IPC :0.25814: AVG IPC :0.86346: L2-Pf-HR :0.88277: L2-HR :0.83611: (Sim:0h11m58s) 
CPU  0 inst:   13000005 cyc:   14363216 now IPC :0.22969: AVG IPC :0.82245: L2-Pf-HR :0.88233: L2-HR :0.83531: (Sim:0h12m18s) 
CPU  3 inst:   13000005 cyc:   14396654 now IPC :0.23081: AVG IPC :0.82042: L2-Pf-HR :0.88052: L2-HR :0.83506: (Sim:0h12m19s) 
CPU  1 inst:   14000000 cyc:   15716316 now IPC :0.23966: AVG IPC :0.81479: L2-Pf-HR :0.82495: L2-HR :0.79547: (Sim:0h12m59s) 
CPU  2 inst:   14000000 cyc:   19663305 now IPC :0.16848: AVG IPC :0.64258: L2-Pf-HR :0.83431: L2-HR :0.79269: (Sim:0h14m42s) 
CPU  1 inst:   15000000 cyc:   19700382 now IPC :0.25100: AVG IPC :0.69475: L2-Pf-HR :0.80146: L2-HR :0.78002: (Sim:0h14m42s) 
CPU  3 inst:   14000000 cyc:   19907633 now IPC :0.18146: AVG IPC :0.63429: L2-Pf-HR :0.83135: L2-HR :0.79174: (Sim:0h14m46s) 
CPU  0 inst:   14000000 cyc:   19967653 now IPC :0.17843: AVG IPC :0.63227: L2-Pf-HR :0.83386: L2-HR :0.79239: (Sim:0h14m47s) 
CPU  2 inst:   15000000 cyc:   23200025 now IPC :0.28275: AVG IPC :0.58528: L2-Pf-HR :0.81162: L2-HR :0.77781: (Sim:0h16m2s) 
CPU  1 inst:   16000003 cyc:   23268942 now IPC :0.28023: AVG IPC :0.62835: L2-Pf-HR :0.78093: L2-HR :0.76643: (Sim:0h16m3s) 
CPU  3 inst:   15000000 cyc:   23471001 now IPC :0.28063: AVG IPC :0.57824: L2-Pf-HR :0.80879: L2-HR :0.77686: (Sim:0h16m7s) 
CPU  0 inst:   15000000 cyc:   23530699 now IPC :0.28066: AVG IPC :0.57669: L2-Pf-HR :0.81091: L2-HR :0.77752: (Sim:0h16m8s) 
CPU  2 inst:   16000000 cyc:   26816447 now IPC :0.27652: AVG IPC :0.54205: L2-Pf-HR :0.79084: L2-HR :0.76416: (Sim:0h17m16s) 
CPU  1 inst:   17000003 cyc:   26872162 now IPC :0.27753: AVG IPC :0.57951: L2-Pf-HR :0.76200: L2-HR :0.75384: (Sim:0h17m18s) 
CPU  3 inst:   16000003 cyc:   27059230 now IPC :0.27869: AVG IPC :0.53701: L2-Pf-HR :0.78806: L2-HR :0.76315: (Sim:0h17m23s) 
CPU  0 inst:   16000003 cyc:   27141772 now IPC :0.27693: AVG IPC :0.53530: L2-Pf-HR :0.78976: L2-HR :0.76382: (Sim:0h17m26s) 
CPU  2 inst:   17000000 cyc:   30330025 now IPC :0.28461: AVG IPC :0.51122: L2-Pf-HR :0.77178: L2-HR :0.75165: (Sim:0h19m4s) 
CPU  1 inst:   18000000 cyc:   30403868 now IPC :0.28315: AVG IPC :0.54393: L2-Pf-HR :0.74472: L2-HR :0.74232: (Sim:0h19m6s) 
CPU  3 inst:   17000000 cyc:   30574238 now IPC :0.28449: AVG IPC :0.50701: L2-Pf-HR :0.76902: L2-HR :0.75061: (Sim:0h19m11s) 
CPU  0 inst:   17000003 cyc:   30662106 now IPC :0.28406: AVG IPC :0.50550: L2-Pf-HR :0.77038: L2-HR :0.75132: (Sim:0h19m14s) 
CPU  2 inst:   18000000 cyc:   33793943 now IPC :0.28869: AVG IPC :0.48772: L2-Pf-HR :0.75428: L2-HR :0.74018: (Sim:0h20m51s) 
CPU  1 inst:   19000000 cyc:   33885975 now IPC :0.28718: AVG IPC :0.51676: L2-Pf-HR :0.72881: L2-HR :0.73177: (Sim:0h20m54s) 
CPU  3 inst:   18000000 cyc:   34041431 now IPC :0.28842: AVG IPC :0.48408: L2-Pf-HR :0.75156: L2-HR :0.73911: (Sim:0h20m58s) 
CPU  0 inst:   18000000 cyc:   34127894 now IPC :0.28853: AVG IPC :0.48280: L2-Pf-HR :0.75260: L2-HR :0.73983: (Sim:0h21m1s) 
CPU  1 inst:   20000005 cyc:   36101779 now IPC :0.45131: AVG IPC :0.51262: L2-Pf-HR :0.72346: L2-HR :0.73421: (Sim:0h22m9s) 
CPU  1 inst:   21000000 cyc:   36871576 now IPC :1.29904: AVG IPC :0.52950: L2-Pf-HR :0.72815: L2-HR :0.74988: (Sim:0h22m48s) 
CPU  2 inst:   19000003 cyc:   37285093 now IPC :0.28644: AVG IPC :0.46836: L2-Pf-HR :0.73812: L2-HR :0.72960: (Sim:0h23m9s) 
CPU  3 inst:   19000000 cyc:   37540318 now IPC :0.28581: AVG IPC :0.46510: L2-Pf-HR :0.73550: L2-HR :0.72854: (Sim:0h23m22s) 
CPU  1 inst:   22000004 cyc:   37621519 now IPC :1.33344: AVG IPC :0.54595: L2-Pf-HR :0.73238: L2-HR :0.76362: (Sim:0h23m26s) 
CPU  0 inst:   19000003 cyc:   37697954 now IPC :0.28011: AVG IPC :0.46309: L2-Pf-HR :0.73578: L2-HR :0.72920: (Sim:0h23m31s) 
CPU  1 inst:   23000004 cyc:   38375232 now IPC :1.32676: AVG IPC :0.56170: L2-Pf-HR :0.73731: L2-HR :0.77547: (Sim:0h24m5s) 
CPU  1 inst:   24000005 cyc:   39147802 now IPC :1.29438: AVG IPC :0.57653: L2-Pf-HR :0.74237: L2-HR :0.78585: (Sim:0h24m41s) 
CPU  2 inst:   20000004 cyc:   39714239 now IPC :0.41167: AVG IPC :0.46481: L2-Pf-HR :0.73265: L2-HR :0.73214: (Sim:0h25m15s) 
CPU  3 inst:   20000005 cyc:   40008153 now IPC :0.40522: AVG IPC :0.46131: L2-Pf-HR :0.72965: L2-HR :0.73146: (Sim:0h25m39s) 
CPU  1 inst:   25000003 cyc:   40076506 now IPC :1.07677: AVG IPC :0.58842: L2-Pf-HR :0.74594: L2-HR :0.79431: (Sim:0h25m46s) 
CPU  0 inst:   20000002 cyc:   40332557 now IPC :0.37956: AVG IPC :0.45750: L2-Pf-HR :0.72786: L2-HR :0.73188: (Sim:0h26m12s) 
CPU  2 inst:   21000000 cyc:   40601392 now IPC :1.12720: AVG IPC :0.47964: L2-Pf-HR :0.73942: L2-HR :0.74815: (Sim:0h26m36s) 
CPU  3 inst:   21000000 cyc:   40949335 now IPC :1.06249: AVG IPC :0.47547: L2-Pf-HR :0.73544: L2-HR :0.74792: (Sim:0h27m7s) 
CPU  1 inst:   26000002 cyc:   40972968 now IPC :1.11550: AVG IPC :0.60023: L2-Pf-HR :0.74920: L2-HR :0.80195: (Sim:0h27m10s) 
CPU  0 inst:   21000004 cyc:   41353098 now IPC :0.97987: AVG IPC :0.47071: L2-Pf-HR :0.73038: L2-HR :0.74809: (Sim:0h27m49s) 
CPU  2 inst:   22000004 cyc:   41529841 now IPC :1.07707: AVG IPC :0.49332: L2-Pf-HR :0.74624: L2-HR :0.76172: (Sim:0h28m2s) 
CPU  3 inst:   22000004 cyc:   41836226 now IPC :1.12754: AVG IPC :0.48963: L2-Pf-HR :0.74265: L2-HR :0.76237: (Sim:0h28m26s) 
CPU  1 inst:   27000003 cyc:   41903644 now IPC :1.07449: AVG IPC :0.61102: L2-Pf-HR :0.75237: L2-HR :0.80870: (Sim:0h28m31s) 
CPU  2 inst:   23000001 cyc:   42412780 now IPC :1.13258: AVG IPC :0.50695: L2-Pf-HR :0.75239: L2-HR :0.77368: (Sim:0h29m6s) 
CPU  0 inst:   22000004 cyc:   42464410 now IPC :0.89984: AVG IPC :0.48220: L2-Pf-HR :0.73347: L2-HR :0.76227: (Sim:0h29m11s) 
CPU  3 inst:   23000001 cyc:   42784297 now IPC :1.05477: AVG IPC :0.50245: L2-Pf-HR :0.75040: L2-HR :0.77473: (Sim:0h29m40s) 
CPU  1 inst:   28000005 cyc:   42792016 now IPC :1.12566: AVG IPC :0.62196: L2-Pf-HR :0.75556: L2-HR :0.81508: (Sim:0h29m40s) 
CPU  2 inst:   24000005 cyc:   43292115 now IPC :1.13723: AVG IPC :0.52005: L2-Pf-HR :0.75813: L2-HR :0.78473: (Sim:0h30m28s) 
CPU  0 inst:   23000004 cyc:   43468673 now IPC :0.99576: AVG IPC :0.49435: L2-Pf-HR :0.73623: L2-HR :0.77438: (Sim:0h30m44s) 
CPU  3 inst:   24000004 cyc:   43599948 now IPC :1.22602: AVG IPC :0.51630: L2-Pf-HR :0.75718: L2-HR :0.78519: (Sim:0h30m52s) 
CPU  1 inst:   29000004 cyc:   43674219 now IPC :1.13352: AVG IPC :0.63253: L2-Pf-HR :0.75865: L2-HR :0.82093: (Sim:0h30m57s) 
Finished CPU 1 instr: 27000001 cyc: 42685444 AVG IPC: 0.63253 (Sim time: 0h30m57s)
CPU  2 inst:   25000003 cyc:   44154074 now IPC :1.16015: AVG IPC :0.53283: L2-Pf-HR :0.76228: L2-HR :0.79351: (Sim:0h31m33s) 
CPU  0 inst:   24000005 cyc:   44399583 now IPC :1.07422: AVG IPC :0.50678: L2-Pf-HR :0.73899: L2-HR :0.78489: (Sim:0h31m50s) 
CPU  3 inst:   25000003 cyc:   44407509 now IPC :1.23830: AVG IPC :0.52973: L2-Pf-HR :0.76188: L2-HR :0.79417: (Sim:0h31m51s) 
CPU  1 inst:   30000002 cyc:   44482228 now IPC :1.23761: AVG IPC :0.64377: L2-Pf-HR :0.76130: L2-HR :0.82579: (Sim:0h31m57s) 
CPU  2 inst:   26000003 cyc:   44920676 now IPC :1.30446: AVG IPC :0.54630: L2-Pf-HR :0.76659: L2-HR :0.80102: (Sim:0h32m38s) 
CPU  3 inst:   26000003 cyc:   45205464 now IPC :1.25320: AVG IPC :0.54278: L2-Pf-HR :0.76577: L2-HR :0.80185: (Sim:0h33m5s) 
CPU  0 inst:   25000002 cyc:   45303692 now IPC :1.10606: AVG IPC :0.51901: L2-Pf-HR :0.74110: L2-HR :0.79371: (Sim:0h33m15s) 
CPU  1 inst:   31000002 cyc:   45357621 now IPC :1.14234: AVG IPC :0.65361: L2-Pf-HR :0.76392: L2-HR :0.83013: (Sim:0h33m19s) 
CPU  2 inst:   27000003 cyc:   45775253 now IPC :1.17017: AVG IPC :0.55820: L2-Pf-HR :0.77091: L2-HR :0.80823: (Sim:0h34m3s) 
CPU  3 inst:   27000003 cyc:   45992038 now IPC :1.27134: AVG IPC :0.55552: L2-Pf-HR :0.76948: L2-HR :0.80894: (Sim:0h34m25s) 
CPU  0 inst:   26000001 cyc:   46192141 now IPC :1.12556: AVG IPC :0.53093: L2-Pf-HR :0.74311: L2-HR :0.80142: (Sim:0h34m46s) 
CPU  1 inst:   32000000 cyc:   46266624 now IPC :1.10010: AVG IPC :0.66257: L2-Pf-HR :0.76690: L2-HR :0.83385: (Sim:0h34m52s) 
*** Reached end of trace for Core: 1 Repeating trace: 770-tot_memTraces_v3_rexz/memTraces[32000000]_FE_[OPT-125M]_[h12]_[s256]_[d64].champsim.9.xz
CPU  2 inst:   28000004 cyc:   46510204 now IPC :1.36064: AVG IPC :0.57116: L2-Pf-HR :0.77529: L2-HR :0.81515: (Sim:0h35m13s) 
CPU  3 inst:   28000004 cyc:   46722079 now IPC :1.36979: AVG IPC :0.56852: L2-Pf-HR :0.77363: L2-HR :0.81603: (Sim:0h35m30s) 
CPU  0 inst:   27000004 cyc:   47076172 now IPC :1.13119: AVG IPC :0.54244: L2-Pf-HR :0.74495: L2-HR :0.80842: (Sim:0h36m4s) 
CPU  2 inst:   29000004 cyc:   47211155 now IPC :1.42663: AVG IPC :0.58413: L2-Pf-HR :0.77886: L2-HR :0.82095: (Sim:0h36m17s) 
Finished CPU 2 instr: 27000001 cyc: 46222383 AVG IPC: 0.58413 (Sim time: 0h36m17s)
CPU  3 inst:   29000004 cyc:   47437784 now IPC :1.39722: AVG IPC :0.58128: L2-Pf-HR :0.77767: L2-HR :0.82247: (Sim:0h36m43s) 
Finished CPU 3 instr: 27000000 cyc: 46448861 AVG IPC: 0.58128 (Sim time: 0h36m43s)
CPU  1 inst:   33000003 cyc:   47535291 now IPC :0.78823: AVG IPC :0.66600: L2-Pf-HR :0.76811: L2-HR :0.83183: (Sim:0h36m52s) 
CPU  0 inst:   28000003 cyc:   47846332 now IPC :1.29843: AVG IPC :0.55487: L2-Pf-HR :0.74736: L2-HR :0.81487: (Sim:0h37m25s) 
CPU  2 inst:   30000002 cyc:   47919362 now IPC :1.41201: AVG IPC :0.59662: L2-Pf-HR :0.78191: L2-HR :0.82610: (Sim:0h37m31s) 
CPU  3 inst:   30000002 cyc:   48152561 now IPC :1.39903: AVG IPC :0.59368: L2-Pf-HR :0.78020: L2-HR :0.82762: (Sim:0h37m57s) 
CPU  1 inst:   34000005 cyc:   48294809 now IPC :1.31663: AVG IPC :0.67644: L2-Pf-HR :0.77242: L2-HR :0.83266: (Sim:0h38m10s) 
CPU  2 inst:   31000002 cyc:   48581929 now IPC :1.50928: AVG IPC :0.60933: L2-Pf-HR :0.78404: L2-HR :0.83082: (Sim:0h38m30s) 
CPU  0 inst:   29000004 cyc:   48589762 now IPC :1.34512: AVG IPC :0.56721: L2-Pf-HR :0.74933: L2-HR :0.82048: (Sim:0h38m31s) 
Finished CPU 0 instr: 27000002 cyc: 47600995 AVG IPC: 0.56722 (Sim time: 0h38m31s)

ChampSim completed all CPUs

Total Simulation Statistics (not including warmup)

CPU 0 cumulative IPC: 0.56722 instructions: 27000002 cycles: 47600995
Core_0_L1D_total_access 11275814
Core_0_L1D_total_hit 10174904
Core_0_L1D_total_miss 1100910
Core_0_L1D_loads 6310804
Core_0_L1D_load_hit 5673575
Core_0_L1D_load_miss 637229
Core_0_L1D_RFOs 845982
Core_0_L1D_RFO_hit 820223
Core_0_L1D_RFO_miss 25759
Core_0_L1D_prefetches 4119028
Core_0_L1D_prefetch_hit 3681106
Core_0_L1D_prefetch_miss 437922
Core_0_L1D_writebacks 0
Core_0_L1D_writeback_hit 0
Core_0_L1D_writeback_miss 0

Core_0_L1I_total_access 3696432
Core_0_L1I_total_hit 3691708
Core_0_L1I_total_miss 4724
Core_0_L1I_loads 3696432
Core_0_L1I_load_hit 3691708
Core_0_L1I_load_miss 4724
Core_0_L1I_RFOs 0
Core_0_L1I_RFO_hit 0
Core_0_L1I_RFO_miss 0
Core_0_L1I_prefetches 0
Core_0_L1I_prefetch_hit 0
Core_0_L1I_prefetch_miss 0
Core_0_L1I_writebacks 0
Core_0_L1I_writeback_hit 0
Core_0_L1I_writeback_miss 0

Core_0_L2C_total_access 1526609
Core_0_L2C_total_hit 1252551
Core_0_L2C_total_miss 274058
Core_0_L2C_loads 618364
Core_0_L2C_load_hit 544347
Core_0_L2C_load_miss 74017
Core_0_L2C_RFOs 25627
Core_0_L2C_RFO_hit 2645
Core_0_L2C_RFO_miss 22982
Core_0_L2C_prefetches 706319
Core_0_L2C_prefetch_hit 529268
Core_0_L2C_prefetch_miss 177051
Core_0_L2C_writebacks 176299
Core_0_L2C_writeback_hit 176291
Core_0_L2C_writeback_miss 8

CPU 0 L1D berti prefetcher final stats
0-> Hits: 17, Late: 5, Early: 0, Misses: 0
1-> Hits: 2, Late: 1, Early: 0, Misses: 0
3-> Hits: 5, Late: 0, Early: 0, Misses: 0
4-> Hits: 2, Late: 0, Early: 0, Misses: 0
5-> Hits: 3, Late: 1, Early: 0, Misses: 0
6-> Hits: 1, Late: 0, Early: 0, Misses: 0
7-> Hits: 2, Late: 0, Early: 0, Misses: 0
8-> Hits: 106, Late: 53, Early: 0, Misses: 0
9-> Hits: 2, Late: 0, Early: 0, Misses: 0
a-> Hits: 0, Late: 2, Early: 0, Misses: 0
b-> Hits: 5, Late: 0, Early: 0, Misses: 0
d-> Hits: 130, Late: 25, Early: 0, Misses: 0
e-> Hits: 18, Late: 0, Early: 0, Misses: 0
10-> Hits: 2, Late: 0, Early: 0, Misses: 0
11-> Hits: 0, Late: 1, Early: 0, Misses: 0
12-> Hits: 97, Late: 61, Early: 0, Misses: 0
13-> Hits: 1, Late: 0, Early: 0, Misses: 0
14-> Hits: 2, Late: 0, Early: 0, Misses: 0
16-> Hits: 12, Late: 0, Early: 0, Misses: 0
17-> Hits: 3, Late: 0, Early: 0, Misses: 0
18-> Hits: 128, Late: 27, Early: 0, Misses: 0
1a-> Hits: 128, Late: 2, Early: 0, Misses: 0
1b-> Hits: 1, Late: 0, Early: 0, Misses: 0
1c-> Hits: 19, Late: 0, Early: 0, Misses: 0
1d-> Hits: 3, Late: 1, Early: 0, Misses: 0
1e-> Hits: 3, Late: 0, Early: 0, Misses: 0
1f-> Hits: 1, Late: 0, Early: 0, Misses: 0
20-> Hits: 3, Late: 1, Early: 0, Misses: 0
21-> Hits: 135, Late: 0, Early: 0, Misses: 0
22-> Hits: 2, Late: 2, Early: 0, Misses: 0
24-> Hits: 20, Late: 0, Early: 0, Misses: 0
25-> Hits: 3, Late: 0, Early: 0, Misses: 0
27-> Hits: 126, Late: 55, Early: 0, Misses: 0
28-> Hits: 10, Late: 0, Early: 0, Misses: 0
2a-> Hits: 143, Late: 1, Early: 0, Misses: 0
2b-> Hits: 6, Late: 0, Early: 0, Misses: 0
2c-> Hits: 133, Late: 22, Early: 0, Misses: 0
2d-> Hits: 1, Late: 0, Early: 0, Misses: 0
2f-> Hits: 18, Late: 0, Early: 0, Misses: 0
30-> Hits: 7, Late: 2, Early: 0, Misses: 0
31-> Hits: 102, Late: 53, Early: 0, Misses: 0
33-> Hits: 11, Late: 0, Early: 0, Misses: 0
34-> Hits: 11, Late: 1, Early: 0, Misses: 0
35-> Hits: 5, Late: 129, Early: 0, Misses: 0
36-> Hits: 2, Late: 0, Early: 0, Misses: 0
37-> Hits: 130, Late: 18, Early: 0, Misses: 0
38-> Hits: 4, Late: 0, Early: 0, Misses: 0
39-> Hits: 2, Late: 0, Early: 0, Misses: 0
3a-> Hits: 2, Late: 0, Early: 0, Misses: 0
3c-> Hits: 2, Late: 0, Early: 0, Misses: 0
3d-> Hits: 0, Late: 22, Early: 0, Misses: 0
3e-> Hits: 2, Late: 0, Early: 0, Misses: 0
3f-> Hits: 1, Late: 0, Early: 0, Misses: 0
40-> Hits: 2, Late: 2, Early: 0, Misses: 0
43-> Hits: 2, Late: 0, Early: 0, Misses: 0
44-> Hits: 3, Late: 0, Early: 0, Misses: 0
45-> Hits: 2, Late: 0, Early: 0, Misses: 0
46-> Hits: 97, Late: 48, Early: 0, Misses: 0
47-> Hits: 2, Late: 0, Early: 0, Misses: 0
48-> Hits: 27, Late: 0, Early: 0, Misses: 0
49-> Hits: 29, Late: 0, Early: 0, Misses: 0
4a-> Hits: 24, Late: 0, Early: 0, Misses: 0
4b-> Hits: 139, Late: 24, Early: 0, Misses: 0
4d-> Hits: 24, Late: 0, Early: 0, Misses: 0
4e-> Hits: 1, Late: 0, Early: 0, Misses: 0
4f-> Hits: 22, Late: 0, Early: 0, Misses: 0
50-> Hits: 85, Late: 68, Early: 0, Misses: 0
51-> Hits: 22, Late: 0, Early: 0, Misses: 0
52-> Hits: 2, Late: 0, Early: 0, Misses: 0
53-> Hits: 25, Late: 0, Early: 0, Misses: 0
54-> Hits: 3, Late: 0, Early: 0, Misses: 0
55-> Hits: 2, Late: 0, Early: 0, Misses: 0
56-> Hits: 278, Late: 23, Early: 0, Misses: 17
58-> Hits: 13, Late: 0, Early: 0, Misses: 0
5a-> Hits: 2, Late: 0, Early: 0, Misses: 0
5c-> Hits: 4, Late: 1, Early: 0, Misses: 0
5d-> Hits: 4, Late: 0, Early: 0, Misses: 0
61-> Hits: 3, Late: 0, Early: 0, Misses: 0
62-> Hits: 2, Late: 0, Early: 0, Misses: 0
63-> Hits: 0, Late: 2, Early: 0, Misses: 0
64-> Hits: 133, Late: 2, Early: 0, Misses: 0
69-> Hits: 2, Late: 0, Early: 0, Misses: 0
6a-> Hits: 2, Late: 0, Early: 0, Misses: 0
6b-> Hits: 0, Late: 10, Early: 0, Misses: 0
70-> Hits: 127, Late: 1, Early: 0, Misses: 0
76-> Hits: 3, Late: 1, Early: 0, Misses: 0
77-> Hits: 2, Late: 0, Early: 0, Misses: 0
78-> Hits: 134, Late: 0, Early: 0, Misses: 0
79-> Hits: 1, Late: 0, Early: 0, Misses: 0
7a-> Hits: 3, Late: 0, Early: 0, Misses: 0
7b-> Hits: 3, Late: 2, Early: 0, Misses: 0
7c-> Hits: 1, Late: 0, Early: 0, Misses: 0
7d-> Hits: 1, Late: 0, Early: 0, Misses: 0
7e-> Hits: 3, Late: 0, Early: 0, Misses: 0
7f-> Hits: 5, Late: 0, Early: 0, Misses: 0
80-> Hits: 7691, Late: 1, Early: 0, Misses: 0
81-> Hits: 1, Late: 0, Early: 0, Misses: 0
82-> Hits: 2, Late: 0, Early: 0, Misses: 0
84-> Hits: 4, Late: 1, Early: 0, Misses: 0
86-> Hits: 1, Late: 0, Early: 0, Misses: 0
88-> Hits: 1331, Late: 108, Early: 0, Misses: 12
89-> Hits: 204, Late: 1, Early: 0, Misses: 0
8a-> Hits: 2, Late: 0, Early: 0, Misses: 0
8f-> Hits: 2, Late: 0, Early: 0, Misses: 0
90-> Hits: 0, Late: 1, Early: 0, Misses: 0
91-> Hits: 2, Late: 0, Early: 0, Misses: 0
92-> Hits: 7681, Late: 0, Early: 0, Misses: 0
94-> Hits: 134, Late: 0, Early: 0, Misses: 0
95-> Hits: 1, Late: 0, Early: 0, Misses: 0
96-> Hits: 3, Late: 0, Early: 0, Misses: 0
98-> Hits: 3, Late: 0, Early: 0, Misses: 0
99-> Hits: 1, Late: 0, Early: 0, Misses: 0
9a-> Hits: 5, Late: 0, Early: 0, Misses: 0
9b-> Hits: 3, Late: 0, Early: 0, Misses: 0
9c-> Hits: 1341, Late: 0, Early: 0, Misses: 0
9d-> Hits: 194, Late: 0, Early: 0, Misses: 0
9e-> Hits: 2, Late: 0, Early: 0, Misses: 0
9f-> Hits: 4, Late: 0, Early: 0, Misses: 0
a0-> Hits: 1, Late: 0, Early: 0, Misses: 0
a1-> Hits: 5, Late: 0, Early: 0, Misses: 0
a2-> Hits: 1, Late: 0, Early: 0, Misses: 0
a3-> Hits: 3, Late: 0, Early: 0, Misses: 0
a4-> Hits: 17, Late: 0, Early: 0, Misses: 0
a5-> Hits: 4, Late: 0, Early: 0, Misses: 0
a6-> Hits: 7682, Late: 0, Early: 0, Misses: 0
a7-> Hits: 4, Late: 0, Early: 0, Misses: 0
a8-> Hits: 3, Late: 0, Early: 0, Misses: 0
a9-> Hits: 4, Late: 0, Early: 0, Misses: 0
aa-> Hits: 3, Late: 0, Early: 0, Misses: 0
ab-> Hits: 5, Late: 0, Early: 0, Misses: 0
ac-> Hits: 3, Late: 1, Early: 0, Misses: 0
ad-> Hits: 4, Late: 0, Early: 0, Misses: 0
ae-> Hits: 7, Late: 0, Early: 0, Misses: 0
af-> Hits: 11, Late: 3, Early: 0, Misses: 0
b0-> Hits: 15, Late: 6, Early: 0, Misses: 0
b1-> Hits: 1, Late: 1, Early: 0, Misses: 0
b3-> Hits: 6, Late: 0, Early: 0, Misses: 0
b4-> Hits: 4, Late: 0, Early: 0, Misses: 0
b6-> Hits: 6223, Late: 1464, Early: 0, Misses: 0
b7-> Hits: 5, Late: 0, Early: 0, Misses: 0
b8-> Hits: 2, Late: 1, Early: 0, Misses: 0
ba-> Hits: 1, Late: 1, Early: 0, Misses: 0
bb-> Hits: 34, Late: 7648, Early: 0, Misses: 0
bc-> Hits: 2, Late: 0, Early: 0, Misses: 0
bf-> Hits: 1, Late: 0, Early: 0, Misses: 0
c0-> Hits: 11, Late: 24, Early: 0, Misses: 0
c1-> Hits: 1, Late: 0, Early: 0, Misses: 0
c2-> Hits: 6, Late: 1, Early: 0, Misses: 0
c3-> Hits: 6, Late: 0, Early: 0, Misses: 0
c4-> Hits: 136, Late: 0, Early: 0, Misses: 0
c5-> Hits: 1, Late: 0, Early: 0, Misses: 0
c6-> Hits: 4, Late: 0, Early: 0, Misses: 0
c7-> Hits: 5, Late: 0, Early: 0, Misses: 0
c8-> Hits: 10, Late: 0, Early: 0, Misses: 0
c9-> Hits: 1, Late: 0, Early: 0, Misses: 0
ca-> Hits: 1, Late: 0, Early: 0, Misses: 0
cb-> Hits: 150, Late: 7662, Early: 0, Misses: 1
cc-> Hits: 1, Late: 0, Early: 0, Misses: 0
cf-> Hits: 1, Late: 0, Early: 0, Misses: 0
d0-> Hits: 461, Late: 7219, Early: 0, Misses: 0
d1-> Hits: 4, Late: 0, Early: 0, Misses: 0
d2-> Hits: 6, Late: 0, Early: 0, Misses: 0
d3-> Hits: 10, Late: 110, Early: 0, Misses: 12
d4-> Hits: 1, Late: 0, Early: 0, Misses: 0
d5-> Hits: 2, Late: 0, Early: 0, Misses: 0
d6-> Hits: 2, Late: 0, Early: 0, Misses: 0
d7-> Hits: 1, Late: 0, Early: 0, Misses: 0
d8-> Hits: 1, Late: 0, Early: 0, Misses: 0
d9-> Hits: 6, Late: 2, Early: 0, Misses: 0
db-> Hits: 2, Late: 0, Early: 0, Misses: 0
dd-> Hits: 2, Late: 0, Early: 0, Misses: 0
df-> Hits: 1, Late: 0, Early: 0, Misses: 0
e0-> Hits: 12, Late: 6, Early: 0, Misses: 0
e1-> Hits: 1, Late: 0, Early: 0, Misses: 0
ea-> Hits: 2, Late: 0, Early: 0, Misses: 0
f3-> Hits: 133, Late: 1, Early: 0, Misses: 0
f4-> Hits: 1, Late: 0, Early: 0, Misses: 0
f6-> Hits: 2, Late: 0, Early: 0, Misses: 0
f7-> Hits: 4, Late: 0, Early: 0, Misses: 0
f8-> Hits: 3, Late: 0, Early: 0, Misses: 0
fa-> Hits: 2, Late: 0, Early: 0, Misses: 0
fb-> Hits: 133, Late: 0, Early: 0, Misses: 0
fc-> Hits: 1, Late: 0, Early: 0, Misses: 0
fd-> Hits: 2, Late: 0, Early: 0, Misses: 0
fe-> Hits: 1, Late: 0, Early: 0, Misses: 0
ff-> Hits: 4, Late: 0, Early: 0, Misses: 0
100-> Hits: 11, Late: 2, Early: 0, Misses: 0
101-> Hits: 1, Late: 0, Early: 0, Misses: 0
103-> Hits: 1, Late: 0, Early: 0, Misses: 0
104-> Hits: 0, Late: 1, Early: 0, Misses: 0
107-> Hits: 1, Late: 0, Early: 0, Misses: 0
10a-> Hits: 1, Late: 0, Early: 0, Misses: 0
10b-> Hits: 3, Late: 0, Early: 0, Misses: 0
10e-> Hits: 1, Late: 0, Early: 0, Misses: 0
10f-> Hits: 1, Late: 0, Early: 0, Misses: 0
110-> Hits: 1, Late: 1, Early: 0, Misses: 0
112-> Hits: 12, Late: 1, Early: 0, Misses: 0
114-> Hits: 1, Late: 0, Early: 0, Misses: 0
115-> Hits: 1, Late: 0, Early: 0, Misses: 0
116-> Hits: 1, Late: 0, Early: 0, Misses: 0
117-> Hits: 3, Late: 0, Early: 0, Misses: 0
118-> Hits: 1, Late: 0, Early: 0, Misses: 0
11a-> Hits: 3, Late: 0, Early: 0, Misses: 0
11b-> Hits: 3, Late: 0, Early: 0, Misses: 0
11c-> Hits: 3, Late: 0, Early: 0, Misses: 0
11d-> Hits: 1, Late: 0, Early: 0, Misses: 0
11e-> Hits: 2, Late: 0, Early: 0, Misses: 0
11f-> Hits: 1, Late: 0, Early: 0, Misses: 0
120-> Hits: 2, Late: 2, Early: 0, Misses: 0
121-> Hits: 1, Late: 0, Early: 0, Misses: 0
122-> Hits: 2, Late: 0, Early: 0, Misses: 0
123-> Hits: 1, Late: 0, Early: 0, Misses: 0
124-> Hits: 3, Late: 0, Early: 0, Misses: 0
125-> Hits: 1, Late: 0, Early: 0, Misses: 0
126-> Hits: 1, Late: 0, Early: 0, Misses: 0
127-> Hits: 1, Late: 0, Early: 0, Misses: 0
128-> Hits: 132, Late: 2, Early: 0, Misses: 0
129-> Hits: 1, Late: 0, Early: 0, Misses: 0
12b-> Hits: 6, Late: 0, Early: 0, Misses: 0
12c-> Hits: 4, Late: 0, Early: 0, Misses: 0
12d-> Hits: 2, Late: 0, Early: 0, Misses: 0
12f-> Hits: 1, Late: 0, Early: 0, Misses: 0
130-> Hits: 2, Late: 1, Early: 0, Misses: 0
132-> Hits: 1, Late: 0, Early: 0, Misses: 0
133-> Hits: 1, Late: 0, Early: 0, Misses: 0
134-> Hits: 0, Late: 1, Early: 0, Misses: 0
13a-> Hits: 2, Late: 0, Early: 0, Misses: 0
13b-> Hits: 1, Late: 0, Early: 0, Misses: 0
13f-> Hits: 1, Late: 0, Early: 0, Misses: 0
140-> Hits: 1, Late: 3, Early: 0, Misses: 0
142-> Hits: 4, Late: 0, Early: 0, Misses: 0
143-> Hits: 1, Late: 0, Early: 0, Misses: 0
144-> Hits: 0, Late: 2, Early: 0, Misses: 0
145-> Hits: 1, Late: 0, Early: 0, Misses: 0
147-> Hits: 14, Late: 0, Early: 0, Misses: 0
148-> Hits: 2, Late: 0, Early: 0, Misses: 0
149-> Hits: 4, Late: 0, Early: 0, Misses: 0
14a-> Hits: 5, Late: 0, Early: 0, Misses: 0
14d-> Hits: 0, Late: 1, Early: 0, Misses: 0
14f-> Hits: 13, Late: 0, Early: 0, Misses: 0
154-> Hits: 12, Late: 0, Early: 0, Misses: 0
155-> Hits: 2, Late: 2, Early: 0, Misses: 0
156-> Hits: 0, Late: 1, Early: 0, Misses: 0
159-> Hits: 16, Late: 0, Early: 0, Misses: 0
15b-> Hits: 2, Late: 0, Early: 0, Misses: 0
15d-> Hits: 3, Late: 0, Early: 0, Misses: 0
15f-> Hits: 1, Late: 0, Early: 0, Misses: 0
160-> Hits: 1, Late: 0, Early: 0, Misses: 0
163-> Hits: 1, Late: 0, Early: 0, Misses: 0
164-> Hits: 133, Late: 0, Early: 0, Misses: 0
165-> Hits: 2, Late: 0, Early: 0, Misses: 0
168-> Hits: 1, Late: 0, Early: 0, Misses: 0
169-> Hits: 12, Late: 0, Early: 0, Misses: 0
16a-> Hits: 12, Late: 1, Early: 0, Misses: 0
16b-> Hits: 14, Late: 0, Early: 0, Misses: 0
16d-> Hits: 24, Late: 0, Early: 0, Misses: 0
16e-> Hits: 3, Late: 132, Early: 0, Misses: 0
16f-> Hits: 14, Late: 0, Early: 0, Misses: 0
171-> Hits: 12, Late: 0, Early: 0, Misses: 0
172-> Hits: 2, Late: 0, Early: 0, Misses: 0
176-> Hits: 14, Late: 0, Early: 0, Misses: 0
177-> Hits: 13, Late: 0, Early: 0, Misses: 0
178-> Hits: 1, Late: 0, Early: 0, Misses: 0
17a-> Hits: 0, Late: 1, Early: 0, Misses: 0
17c-> Hits: 11, Late: 14, Early: 0, Misses: 0
17d-> Hits: 2, Late: 0, Early: 0, Misses: 0
17e-> Hits: 1, Late: 0, Early: 0, Misses: 0
17f-> Hits: 1, Late: 0, Early: 0, Misses: 0
180-> Hits: 13, Late: 6, Early: 0, Misses: 0
181-> Hits: 9, Late: 0, Early: 0, Misses: 0
184-> Hits: 16, Late: 0, Early: 0, Misses: 0
185-> Hits: 5, Late: 0, Early: 0, Misses: 0
188-> Hits: 2, Late: 0, Early: 0, Misses: 0
189-> Hits: 3, Late: 0, Early: 0, Misses: 0
18b-> Hits: 2, Late: 0, Early: 0, Misses: 0
18c-> Hits: 3, Late: 0, Early: 0, Misses: 0
18e-> Hits: 1, Late: 0, Early: 0, Misses: 0
18f-> Hits: 1, Late: 0, Early: 0, Misses: 0
190-> Hits: 10, Late: 1, Early: 0, Misses: 0
192-> Hits: 2, Late: 0, Early: 0, Misses: 0
194-> Hits: 1, Late: 12, Early: 0, Misses: 0
195-> Hits: 2, Late: 0, Early: 0, Misses: 0
197-> Hits: 9, Late: 0, Early: 0, Misses: 0
198-> Hits: 5, Late: 0, Early: 0, Misses: 0
199-> Hits: 6, Late: 12, Early: 0, Misses: 0
19a-> Hits: 3, Late: 0, Early: 0, Misses: 0
19b-> Hits: 8, Late: 0, Early: 0, Misses: 0
19c-> Hits: 3, Late: 0, Early: 0, Misses: 0
19d-> Hits: 12, Late: 1, Early: 0, Misses: 0
19e-> Hits: 2, Late: 0, Early: 0, Misses: 0
19f-> Hits: 4, Late: 0, Early: 0, Misses: 0
1a0-> Hits: 4, Late: 0, Early: 0, Misses: 0
1a1-> Hits: 5, Late: 0, Early: 0, Misses: 0
1a2-> Hits: 8, Late: 0, Early: 0, Misses: 0
1a4-> Hits: 7, Late: 1, Early: 0, Misses: 0
1a5-> Hits: 1, Late: 0, Early: 0, Misses: 0
1a6-> Hits: 2, Late: 0, Early: 0, Misses: 0
1a7-> Hits: 4, Late: 0, Early: 0, Misses: 0
1a8-> Hits: 2, Late: 0, Early: 0, Misses: 0
1a9-> Hits: 9, Late: 0, Early: 0, Misses: 0
1ad-> Hits: 0, Late: 12, Early: 0, Misses: 0
1ae-> Hits: 6, Late: 0, Early: 0, Misses: 0
1af-> Hits: 7, Late: 0, Early: 0, Misses: 0
1b0-> Hits: 5, Late: 2, Early: 0, Misses: 0
1b1-> Hits: 5, Late: 0, Early: 0, Misses: 0
1b3-> Hits: 3, Late: 0, Early: 0, Misses: 0
1b5-> Hits: 2, Late: 2, Early: 0, Misses: 0
1b6-> Hits: 2, Late: 1, Early: 0, Misses: 0
1b7-> Hits: 9, Late: 3, Early: 0, Misses: 0
1b8-> Hits: 3, Late: 2, Early: 0, Misses: 0
1b9-> Hits: 1, Late: 0, Early: 0, Misses: 0
1ba-> Hits: 4, Late: 0, Early: 0, Misses: 0
1bd-> Hits: 4, Late: 0, Early: 0, Misses: 0
1be-> Hits: 5, Late: 0, Early: 0, Misses: 0
1bf-> Hits: 7, Late: 0, Early: 0, Misses: 0
1c0-> Hits: 3, Late: 3, Early: 0, Misses: 0
1c2-> Hits: 0, Late: 14, Early: 0, Misses: 0
1c3-> Hits: 6, Late: 0, Early: 0, Misses: 0
1c4-> Hits: 3, Late: 0, Early: 0, Misses: 0
1c5-> Hits: 2, Late: 0, Early: 0, Misses: 0
1c6-> Hits: 4, Late: 0, Early: 0, Misses: 0
1c7-> Hits: 2, Late: 14, Early: 0, Misses: 0
1c8-> Hits: 3, Late: 0, Early: 0, Misses: 0
1c9-> Hits: 1, Late: 0, Early: 0, Misses: 0
1ca-> Hits: 2, Late: 0, Early: 0, Misses: 0
1cc-> Hits: 1, Late: 2, Early: 0, Misses: 0
1cd-> Hits: 7, Late: 0, Early: 0, Misses: 0
1ce-> Hits: 3, Late: 0, Early: 0, Misses: 0
1d0-> Hits: 11, Late: 1, Early: 0, Misses: 0
1d4-> Hits: 1, Late: 0, Early: 0, Misses: 0
1d6-> Hits: 6, Late: 0, Early: 0, Misses: 0
1d7-> Hits: 1, Late: 0, Early: 0, Misses: 0
1d8-> Hits: 7, Late: 0, Early: 0, Misses: 0
1da-> Hits: 2, Late: 0, Early: 0, Misses: 0
1db-> Hits: 7, Late: 1, Early: 0, Misses: 0
1de-> Hits: 12, Late: 1, Early: 0, Misses: 0
1df-> Hits: 13, Late: 0, Early: 0, Misses: 0
1e0-> Hits: 7, Late: 1, Early: 0, Misses: 0
1e1-> Hits: 8, Late: 1, Early: 0, Misses: 0
1e2-> Hits: 1, Late: 1, Early: 0, Misses: 0
1e4-> Hits: 0, Late: 1, Early: 0, Misses: 0
1e5-> Hits: 1, Late: 1, Early: 0, Misses: 0
1e8-> Hits: 0, Late: 1, Early: 0, Misses: 0
1ea-> Hits: 0, Late: 1, Early: 0, Misses: 0
1eb-> Hits: 5, Late: 0, Early: 0, Misses: 0
1ec-> Hits: 2, Late: 0, Early: 0, Misses: 0
1ef-> Hits: 4, Late: 11, Early: 0, Misses: 0
1f0-> Hits: 12, Late: 134, Early: 0, Misses: 0
1f1-> Hits: 1, Late: 1, Early: 0, Misses: 0
1f2-> Hits: 1, Late: 0, Early: 0, Misses: 0
1f4-> Hits: 21, Late: 0, Early: 0, Misses: 0
1f6-> Hits: 1, Late: 0, Early: 0, Misses: 0
1f7-> Hits: 1, Late: 11, Early: 0, Misses: 0
1f8-> Hits: 4, Late: 1, Early: 0, Misses: 0
1f9-> Hits: 1, Late: 0, Early: 0, Misses: 0
1fa-> Hits: 1, Late: 0, Early: 0, Misses: 0
1fb-> Hits: 0, Late: 1, Early: 0, Misses: 0
1fc-> Hits: 2, Late: 11, Early: 0, Misses: 0
1fd-> Hits: 0, Late: 1, Early: 0, Misses: 0
1fe-> Hits: 19, Late: 0, Early: 0, Misses: 0
200-> Hits: 1, Late: 0, Early: 0, Misses: 0
201-> Hits: 5, Late: 0, Early: 0, Misses: 0
202-> Hits: 0, Late: 1, Early: 0, Misses: 0
203-> Hits: 12, Late: 1, Early: 0, Misses: 0
205-> Hits: 5, Late: 0, Early: 0, Misses: 0
206-> Hits: 4, Late: 1, Early: 0, Misses: 0
207-> Hits: 12, Late: 0, Early: 0, Misses: 0
208-> Hits: 10, Late: 125, Early: 0, Misses: 0
20a-> Hits: 5, Late: 0, Early: 0, Misses: 0
20c-> Hits: 5, Late: 0, Early: 0, Misses: 0
20e-> Hits: 6, Late: 0, Early: 0, Misses: 0
20f-> Hits: 13, Late: 3, Early: 0, Misses: 0
210-> Hits: 3, Late: 3, Early: 0, Misses: 0
212-> Hits: 5, Late: 0, Early: 0, Misses: 0
214-> Hits: 2, Late: 5, Early: 0, Misses: 0
216-> Hits: 3, Late: 0, Early: 0, Misses: 0
217-> Hits: 12, Late: 1, Early: 0, Misses: 0
218-> Hits: 3, Late: 0, Early: 0, Misses: 0
219-> Hits: 0, Late: 1, Early: 0, Misses: 0
21a-> Hits: 8, Late: 1, Early: 0, Misses: 0
21d-> Hits: 2, Late: 0, Early: 0, Misses: 0
21f-> Hits: 10, Late: 0, Early: 0, Misses: 0
220-> Hits: 5, Late: 4, Early: 0, Misses: 0
221-> Hits: 4, Late: 1, Early: 0, Misses: 0
224-> Hits: 2, Late: 1, Early: 0, Misses: 0
225-> Hits: 8, Late: 0, Early: 0, Misses: 0
226-> Hits: 1, Late: 0, Early: 0, Misses: 0
227-> Hits: 0, Late: 1, Early: 0, Misses: 0
228-> Hits: 1, Late: 0, Early: 0, Misses: 0
22a-> Hits: 4, Late: 0, Early: 0, Misses: 0
22b-> Hits: 7, Late: 1, Early: 0, Misses: 0
22c-> Hits: 5, Late: 0, Early: 0, Misses: 0
22d-> Hits: 3, Late: 0, Early: 0, Misses: 0
22e-> Hits: 1, Late: 0, Early: 0, Misses: 0
22f-> Hits: 3, Late: 0, Early: 0, Misses: 0
230-> Hits: 4, Late: 1, Early: 0, Misses: 0
231-> Hits: 7, Late: 0, Early: 0, Misses: 0
232-> Hits: 4, Late: 0, Early: 0, Misses: 0
233-> Hits: 4, Late: 0, Early: 0, Misses: 0
234-> Hits: 1, Late: 0, Early: 0, Misses: 0
235-> Hits: 2, Late: 0, Early: 0, Misses: 0
236-> Hits: 1, Late: 0, Early: 0, Misses: 0
23a-> Hits: 5, Late: 7, Early: 0, Misses: 0
23b-> Hits: 6, Late: 0, Early: 0, Misses: 0
23c-> Hits: 6, Late: 0, Early: 0, Misses: 0
23d-> Hits: 18, Late: 0, Early: 0, Misses: 0
23e-> Hits: 6, Late: 0, Early: 0, Misses: 0
23f-> Hits: 8, Late: 0, Early: 0, Misses: 0
240-> Hits: 11, Late: 5, Early: 0, Misses: 0
241-> Hits: 1, Late: 0, Early: 0, Misses: 0
245-> Hits: 6, Late: 0, Early: 0, Misses: 0
246-> Hits: 4, Late: 0, Early: 0, Misses: 0
247-> Hits: 0, Late: 0, Early: 0, Misses: 1
248-> Hits: 4, Late: 0, Early: 0, Misses: 0
249-> Hits: 2, Late: 0, Early: 0, Misses: 0
24a-> Hits: 1, Late: 1, Early: 0, Misses: 0
24b-> Hits: 1, Late: 0, Early: 0, Misses: 0
24d-> Hits: 2, Late: 0, Early: 0, Misses: 0
24e-> Hits: 1, Late: 0, Early: 0, Misses: 0
24f-> Hits: 6, Late: 0, Early: 0, Misses: 0
250-> Hits: 4, Late: 1, Early: 0, Misses: 0
251-> Hits: 4, Late: 0, Early: 0, Misses: 0
252-> Hits: 4, Late: 1, Early: 0, Misses: 0
253-> Hits: 1, Late: 0, Early: 0, Misses: 0
254-> Hits: 4, Late: 0, Early: 0, Misses: 0
255-> Hits: 3, Late: 1, Early: 0, Misses: 0
256-> Hits: 3, Late: 0, Early: 0, Misses: 0
258-> Hits: 4, Late: 0, Early: 0, Misses: 0
25a-> Hits: 3, Late: 0, Early: 0, Misses: 0
25c-> Hits: 2, Late: 0, Early: 0, Misses: 0
25d-> Hits: 1, Late: 0, Early: 0, Misses: 0
25e-> Hits: 1, Late: 0, Early: 0, Misses: 0
25f-> Hits: 1, Late: 2, Early: 0, Misses: 0
260-> Hits: 9, Late: 3, Early: 0, Misses: 0
261-> Hits: 1, Late: 0, Early: 0, Misses: 0
263-> Hits: 10, Late: 0, Early: 0, Misses: 0
264-> Hits: 2, Late: 0, Early: 0, Misses: 0
265-> Hits: 3, Late: 0, Early: 0, Misses: 0
266-> Hits: 4, Late: 0, Early: 0, Misses: 0
267-> Hits: 5, Late: 1, Early: 0, Misses: 0
268-> Hits: 5, Late: 0, Early: 0, Misses: 0
269-> Hits: 1, Late: 0, Early: 0, Misses: 0
26a-> Hits: 2, Late: 0, Early: 0, Misses: 0
26b-> Hits: 1, Late: 0, Early: 0, Misses: 0
26d-> Hits: 12, Late: 0, Early: 0, Misses: 0
26e-> Hits: 12, Late: 0, Early: 0, Misses: 0
270-> Hits: 16, Late: 1, Early: 0, Misses: 0
271-> Hits: 1, Late: 0, Early: 0, Misses: 0
273-> Hits: 1, Late: 0, Early: 0, Misses: 0
274-> Hits: 1, Late: 0, Early: 0, Misses: 0
275-> Hits: 12, Late: 0, Early: 0, Misses: 0
276-> Hits: 1, Late: 0, Early: 0, Misses: 0
277-> Hits: 1, Late: 0, Early: 0, Misses: 0
278-> Hits: 1, Late: 0, Early: 0, Misses: 0
27a-> Hits: 12, Late: 0, Early: 0, Misses: 0
27b-> Hits: 4, Late: 0, Early: 0, Misses: 0
27c-> Hits: 2, Late: 0, Early: 0, Misses: 0
27d-> Hits: 130, Late: 1, Early: 0, Misses: 0
27e-> Hits: 6, Late: 0, Early: 0, Misses: 0
27f-> Hits: 12, Late: 0, Early: 0, Misses: 0
280-> Hits: 0, Late: 2, Early: 0, Misses: 0
281-> Hits: 1, Late: 0, Early: 0, Misses: 0
282-> Hits: 7, Late: 0, Early: 0, Misses: 0
284-> Hits: 4, Late: 0, Early: 0, Misses: 0
285-> Hits: 20, Late: 1, Early: 0, Misses: 0
289-> Hits: 0, Late: 1, Early: 0, Misses: 0
28a-> Hits: 3, Late: 0, Early: 0, Misses: 0
28f-> Hits: 10, Late: 0, Early: 0, Misses: 0
290-> Hits: 1, Late: 0, Early: 0, Misses: 0
291-> Hits: 1, Late: 0, Early: 0, Misses: 0
293-> Hits: 1, Late: 0, Early: 0, Misses: 0
294-> Hits: 1, Late: 0, Early: 0, Misses: 0
297-> Hits: 1, Late: 0, Early: 0, Misses: 0
298-> Hits: 1, Late: 0, Early: 0, Misses: 0
299-> Hits: 1, Late: 0, Early: 0, Misses: 0
29a-> Hits: 1, Late: 0, Early: 0, Misses: 0
29d-> Hits: 11, Late: 2, Early: 0, Misses: 0
29e-> Hits: 2, Late: 0, Early: 0, Misses: 0
29f-> Hits: 3, Late: 0, Early: 0, Misses: 0
2a0-> Hits: 2, Late: 1, Early: 0, Misses: 0
2a1-> Hits: 2, Late: 0, Early: 0, Misses: 0
2a2-> Hits: 5, Late: 0, Early: 0, Misses: 0
2a4-> Hits: 4, Late: 0, Early: 0, Misses: 0
2a5-> Hits: 1, Late: 0, Early: 0, Misses: 0
2a6-> Hits: 3, Late: 0, Early: 0, Misses: 0
2a7-> Hits: 5, Late: 0, Early: 0, Misses: 0
2a8-> Hits: 1, Late: 0, Early: 0, Misses: 0
2a9-> Hits: 7, Late: 0, Early: 0, Misses: 0
2aa-> Hits: 5, Late: 0, Early: 0, Misses: 0
2ad-> Hits: 1, Late: 1, Early: 0, Misses: 0
2ae-> Hits: 132, Late: 0, Early: 0, Misses: 0
2af-> Hits: 1, Late: 1, Early: 0, Misses: 0
2b1-> Hits: 1, Late: 1, Early: 0, Misses: 0
2b3-> Hits: 1, Late: 1, Early: 0, Misses: 0
2b6-> Hits: 1, Late: 1, Early: 0, Misses: 0
2bd-> Hits: 14, Late: 0, Early: 0, Misses: 0
2c0-> Hits: 3, Late: 1, Early: 0, Misses: 0
2c1-> Hits: 2, Late: 1, Early: 0, Misses: 0
2c3-> Hits: 1, Late: 0, Early: 0, Misses: 0
2c5-> Hits: 10, Late: 1, Early: 0, Misses: 0
2c6-> Hits: 3, Late: 0, Early: 0, Misses: 0
2c7-> Hits: 1, Late: 0, Early: 0, Misses: 0
2c8-> Hits: 2, Late: 0, Early: 0, Misses: 0
2c9-> Hits: 7, Late: 2, Early: 0, Misses: 0
2ca-> Hits: 2, Late: 0, Early: 0, Misses: 0
2cc-> Hits: 2, Late: 1, Early: 0, Misses: 0
2cd-> Hits: 1, Late: 2, Early: 0, Misses: 0
2d1-> Hits: 1, Late: 1, Early: 0, Misses: 0
2d3-> Hits: 1, Late: 0, Early: 0, Misses: 0
2d6-> Hits: 2, Late: 1, Early: 0, Misses: 0
2d8-> Hits: 1, Late: 0, Early: 0, Misses: 0
2da-> Hits: 2, Late: 0, Early: 0, Misses: 0
2db-> Hits: 3, Late: 0, Early: 0, Misses: 0
2dc-> Hits: 4, Late: 0, Early: 0, Misses: 0
2de-> Hits: 2, Late: 0, Early: 0, Misses: 0
2df-> Hits: 3, Late: 1, Early: 0, Misses: 0
2e0-> Hits: 3, Late: 1, Early: 0, Misses: 0
2e2-> Hits: 3, Late: 0, Early: 0, Misses: 0
2e4-> Hits: 2, Late: 0, Early: 0, Misses: 0
2e5-> Hits: 2, Late: 0, Early: 0, Misses: 0
2e6-> Hits: 5, Late: 1, Early: 0, Misses: 0
2e9-> Hits: 2, Late: 0, Early: 0, Misses: 0
2ea-> Hits: 1, Late: 0, Early: 0, Misses: 0
2ed-> Hits: 1, Late: 0, Early: 0, Misses: 0
2ee-> Hits: 1, Late: 0, Early: 0, Misses: 0
2ef-> Hits: 1, Late: 0, Early: 0, Misses: 0
2f0-> Hits: 1, Late: 1, Early: 0, Misses: 0
2f1-> Hits: 2, Late: 0, Early: 0, Misses: 0
2f2-> Hits: 2, Late: 0, Early: 0, Misses: 0
2f3-> Hits: 43, Late: 3, Early: 0, Misses: 0
2f4-> Hits: 10, Late: 0, Early: 0, Misses: 0
2f5-> Hits: 13, Late: 0, Early: 0, Misses: 0
2f6-> Hits: 10, Late: 0, Early: 0, Misses: 0
2f7-> Hits: 46, Late: 0, Early: 0, Misses: 0
2f8-> Hits: 10, Late: 0, Early: 0, Misses: 0
2fa-> Hits: 10, Late: 0, Early: 0, Misses: 0
2fb-> Hits: 47, Late: 1, Early: 0, Misses: 0
300-> Hits: 7677, Late: 1, Early: 0, Misses: 0
301-> Hits: 2, Late: 0, Early: 0, Misses: 0
302-> Hits: 2, Late: 0, Early: 0, Misses: 0
304-> Hits: 2445, Late: 242, Early: 0, Misses: 0
305-> Hits: 10, Late: 0, Early: 0, Misses: 0
306-> Hits: 2, Late: 0, Early: 0, Misses: 0
308-> Hits: 1, Late: 1, Early: 0, Misses: 0
309-> Hits: 1276, Late: 1179, Early: 0, Misses: 0
30a-> Hits: 1, Late: 1, Early: 0, Misses: 0
30b-> Hits: 2, Late: 0, Early: 0, Misses: 0
30c-> Hits: 1, Late: 0, Early: 0, Misses: 0
30f-> Hits: 1225, Late: 1220, Early: 0, Misses: 0
310-> Hits: 1, Late: 1, Early: 0, Misses: 0
312-> Hits: 3, Late: 0, Early: 0, Misses: 0
313-> Hits: 1, Late: 0, Early: 0, Misses: 0
314-> Hits: 1345, Late: 1426, Early: 0, Misses: 0
315-> Hits: 264, Late: 0, Early: 0, Misses: 0
316-> Hits: 3, Late: 0, Early: 0, Misses: 0
317-> Hits: 7, Late: 3, Early: 0, Misses: 0
318-> Hits: 13, Late: 1, Early: 0, Misses: 0
319-> Hits: 7, Late: 0, Early: 0, Misses: 0
31a-> Hits: 509, Late: 7435, Early: 0, Misses: 0
31b-> Hits: 5, Late: 0, Early: 0, Misses: 0
31d-> Hits: 5, Late: 0, Early: 0, Misses: 0
31f-> Hits: 331, Late: 7359, Early: 0, Misses: 0
320-> Hits: 198, Late: 0, Early: 0, Misses: 0
324-> Hits: 1, Late: 0, Early: 0, Misses: 0
325-> Hits: 223, Late: 7458, Early: 0, Misses: 0
326-> Hits: 2, Late: 0, Early: 0, Misses: 0
32a-> Hits: 263, Late: 7417, Early: 0, Misses: 0
32c-> Hits: 1, Late: 0, Early: 0, Misses: 0
32d-> Hits: 1, Late: 0, Early: 0, Misses: 0
32f-> Hits: 1, Late: 0, Early: 0, Misses: 0
330-> Hits: 4, Late: 1, Early: 0, Misses: 0
332-> Hits: 5, Late: 0, Early: 0, Misses: 0
333-> Hits: 2, Late: 0, Early: 0, Misses: 0
334-> Hits: 7683, Late: 0, Early: 0, Misses: 0
335-> Hits: 4, Late: 0, Early: 0, Misses: 0
336-> Hits: 1, Late: 0, Early: 0, Misses: 0
338-> Hits: 4, Late: 0, Early: 0, Misses: 0
339-> Hits: 1, Late: 0, Early: 0, Misses: 0
33a-> Hits: 7, Late: 0, Early: 0, Misses: 0
33c-> Hits: 1, Late: 0, Early: 0, Misses: 0
33d-> Hits: 2, Late: 0, Early: 0, Misses: 0
33f-> Hits: 1, Late: 0, Early: 0, Misses: 0
340-> Hits: 2, Late: 2, Early: 0, Misses: 0
341-> Hits: 3, Late: 0, Early: 0, Misses: 0
344-> Hits: 2, Late: 2, Early: 0, Misses: 0
347-> Hits: 4, Late: 2, Early: 0, Misses: 0
34a-> Hits: 4, Late: 0, Early: 0, Misses: 0
34b-> Hits: 1, Late: 0, Early: 0, Misses: 0
34c-> Hits: 3, Late: 1, Early: 0, Misses: 0
34d-> Hits: 3, Late: 2, Early: 0, Misses: 0
34e-> Hits: 1, Late: 0, Early: 0, Misses: 0
34f-> Hits: 118943, Late: 3954, Early: 0, Misses: 120
350-> Hits: 152, Late: 3, Early: 0, Misses: 0
351-> Hits: 1, Late: 0, Early: 0, Misses: 0
352-> Hits: 0, Late: 1, Early: 0, Misses: 0
353-> Hits: 3, Late: 0, Early: 0, Misses: 0
355-> Hits: 0, Late: 1, Early: 0, Misses: 0
356-> Hits: 22179, Late: 3, Early: 0, Misses: 4
357-> Hits: 131, Late: 0, Early: 0, Misses: 0
358-> Hits: 3, Late: 0, Early: 0, Misses: 0
359-> Hits: 5, Late: 1, Early: 0, Misses: 0
35a-> Hits: 131, Late: 0, Early: 0, Misses: 0
35c-> Hits: 122875, Late: 1, Early: 0, Misses: 0
35d-> Hits: 1, Late: 130, Early: 0, Misses: 1
360-> Hits: 15, Late: 0, Early: 0, Misses: 0
361-> Hits: 4, Late: 0, Early: 0, Misses: 0
362-> Hits: 4, Late: 0, Early: 0, Misses: 0
363-> Hits: 9, Late: 0, Early: 0, Misses: 0
364-> Hits: 4, Late: 0, Early: 0, Misses: 0
366-> Hits: 4, Late: 1, Early: 0, Misses: 0
367-> Hits: 1, Late: 0, Early: 0, Misses: 0
368-> Hits: 6, Late: 0, Early: 0, Misses: 0
36a-> Hits: 4, Late: 0, Early: 0, Misses: 0
36c-> Hits: 9, Late: 0, Early: 0, Misses: 0
36d-> Hits: 1, Late: 0, Early: 0, Misses: 0
36e-> Hits: 0, Late: 1, Early: 0, Misses: 0
36f-> Hits: 1, Late: 0, Early: 0, Misses: 0
370-> Hits: 3, Late: 0, Early: 0, Misses: 0
372-> Hits: 26229, Late: 1, Early: 0, Misses: 0
374-> Hits: 2, Late: 0, Early: 0, Misses: 0
375-> Hits: 1, Late: 0, Early: 0, Misses: 1
376-> Hits: 3, Late: 0, Early: 0, Misses: 0
377-> Hits: 2, Late: 0, Early: 0, Misses: 0
379-> Hits: 2, Late: 1, Early: 0, Misses: 0
37a-> Hits: 8, Late: 1, Early: 0, Misses: 0
37b-> Hits: 3, Late: 0, Early: 0, Misses: 0
37d-> Hits: 3, Late: 1, Early: 0, Misses: 0
37f-> Hits: 2, Late: 2, Early: 0, Misses: 0
380-> Hits: 2, Late: 0, Early: 0, Misses: 0
382-> Hits: 1, Late: 0, Early: 0, Misses: 0
383-> Hits: 0, Late: 2, Early: 0, Misses: 0
385-> Hits: 4, Late: 1, Early: 0, Misses: 0
386-> Hits: 3, Late: 0, Early: 0, Misses: 0
387-> Hits: 16969, Late: 1, Early: 0, Misses: 0
388-> Hits: 1, Late: 0, Early: 0, Misses: 0
389-> Hits: 6, Late: 1, Early: 0, Misses: 0
38a-> Hits: 0, Late: 1, Early: 0, Misses: 0
38b-> Hits: 4, Late: 0, Early: 0, Misses: 0
38d-> Hits: 122871, Late: 12, Early: 0, Misses: 0
38e-> Hits: 1, Late: 0, Early: 0, Misses: 0
38f-> Hits: 3, Late: 0, Early: 0, Misses: 0
390-> Hits: 1, Late: 2, Early: 0, Misses: 0
391-> Hits: 5, Late: 0, Early: 0, Misses: 0
392-> Hits: 1, Late: 0, Early: 0, Misses: 0
393-> Hits: 2, Late: 0, Early: 0, Misses: 0
394-> Hits: 4, Late: 0, Early: 0, Misses: 0
395-> Hits: 1, Late: 0, Early: 0, Misses: 0
396-> Hits: 5, Late: 1, Early: 0, Misses: 0
398-> Hits: 1, Late: 0, Early: 0, Misses: 0
399-> Hits: 64292, Late: 0, Early: 0, Misses: 0
39a-> Hits: 1, Late: 1, Early: 0, Misses: 0
39b-> Hits: 1, Late: 0, Early: 0, Misses: 0
39c-> Hits: 1, Late: 0, Early: 0, Misses: 0
39d-> Hits: 1, Late: 0, Early: 0, Misses: 0
3a0-> Hits: 1, Late: 2, Early: 0, Misses: 0
3a2-> Hits: 1, Late: 0, Early: 0, Misses: 0
3a3-> Hits: 113423, Late: 0, Early: 0, Misses: 0
3a7-> Hits: 2, Late: 0, Early: 0, Misses: 0
3aa-> Hits: 3, Late: 0, Early: 0, Misses: 0
3ab-> Hits: 1, Late: 0, Early: 0, Misses: 0
3ac-> Hits: 24290, Late: 0, Early: 0, Misses: 0
3af-> Hits: 1, Late: 0, Early: 0, Misses: 0
3b0-> Hits: 3, Late: 0, Early: 0, Misses: 0
3b1-> Hits: 33971, Late: 3, Early: 0, Misses: 1
3b2-> Hits: 2, Late: 0, Early: 0, Misses: 0
3b3-> Hits: 1, Late: 0, Early: 0, Misses: 0
3b5-> Hits: 1, Late: 0, Early: 0, Misses: 0
3b7-> Hits: 1, Late: 0, Early: 0, Misses: 0
3b9-> Hits: 2, Late: 0, Early: 0, Misses: 0
3c0-> Hits: 11, Late: 1, Early: 0, Misses: 0
3c6-> Hits: 47529, Late: 7, Early: 0, Misses: 9
3c8-> Hits: 1, Late: 0, Early: 0, Misses: 0
3ca-> Hits: 5, Late: 0, Early: 0, Misses: 0
3cb-> Hits: 1, Late: 0, Early: 0, Misses: 0
3cd-> Hits: 6, Late: 0, Early: 0, Misses: 0
3ce-> Hits: 2, Late: 0, Early: 0, Misses: 0
3cf-> Hits: 1, Late: 0, Early: 0, Misses: 0
3d0-> Hits: 4, Late: 0, Early: 0, Misses: 0
3d6-> Hits: 2, Late: 0, Early: 0, Misses: 0
3db-> Hits: 47448, Late: 10, Early: 0, Misses: 8
3dc-> Hits: 1, Late: 0, Early: 0, Misses: 0
3dd-> Hits: 4, Late: 0, Early: 0, Misses: 0
3e0-> Hits: 98312, Late: 1, Early: 0, Misses: 0
3e1-> Hits: 122869, Late: 12, Early: 0, Misses: 0
3e4-> Hits: 1, Late: 0, Early: 0, Misses: 0
3e5-> Hits: 1, Late: 0, Early: 0, Misses: 0
3e6-> Hits: 1, Late: 0, Early: 0, Misses: 0
3e8-> Hits: 2, Late: 0, Early: 0, Misses: 0
3ea-> Hits: 1, Late: 0, Early: 0, Misses: 0
3eb-> Hits: 1, Late: 0, Early: 0, Misses: 0
3ec-> Hits: 1, Late: 0, Early: 0, Misses: 0
3ee-> Hits: 1, Late: 0, Early: 0, Misses: 0
3ef-> Hits: 8, Late: 0, Early: 0, Misses: 0
3f0-> Hits: 8, Late: 4, Early: 0, Misses: 0
3f5-> Hits: 1, Late: 0, Early: 0, Misses: 0
3f7-> Hits: 34902, Late: 4, Early: 0, Misses: 0
3fe-> Hits: 2, Late: 0, Early: 0, Misses: 0
3ff-> Hits: 1, Late: 0, Early: 0, Misses: 0
400-> Hits: 4, Late: 0, Early: 0, Misses: 0
401-> Hits: 4, Late: 0, Early: 0, Misses: 0
402-> Hits: 122724, Late: 0, Early: 0, Misses: 0
403-> Hits: 5, Late: 0, Early: 0, Misses: 0
404-> Hits: 9, Late: 0, Early: 0, Misses: 4
405-> Hits: 1, Late: 1, Early: 0, Misses: 0
406-> Hits: 13, Late: 0, Early: 0, Misses: 0
408-> Hits: 14, Late: 0, Early: 0, Misses: 0
40a-> Hits: 13, Late: 0, Early: 0, Misses: 0
40b-> Hits: 3, Late: 1, Early: 0, Misses: 0
40c-> Hits: 18003, Late: 0, Early: 0, Misses: 0
40d-> Hits: 1, Late: 0, Early: 0, Misses: 0
40e-> Hits: 1, Late: 0, Early: 0, Misses: 0
40f-> Hits: 0, Late: 0, Early: 0, Misses: 9
410-> Hits: 11, Late: 0, Early: 0, Misses: 0
413-> Hits: 1, Late: 0, Early: 0, Misses: 0
416-> Hits: 122877, Late: 0, Early: 0, Misses: 0
419-> Hits: 3, Late: 0, Early: 0, Misses: 0
41a-> Hits: 2, Late: 0, Early: 0, Misses: 0
41c-> Hits: 2, Late: 0, Early: 0, Misses: 0
41e-> Hits: 32593, Late: 8, Early: 0, Misses: 1
420-> Hits: 6, Late: 0, Early: 0, Misses: 0
422-> Hits: 2, Late: 0, Early: 0, Misses: 0
424-> Hits: 9, Late: 0, Early: 0, Misses: 0
426-> Hits: 1, Late: 0, Early: 0, Misses: 0
427-> Hits: 1, Late: 0, Early: 0, Misses: 0
428-> Hits: 4, Late: 2, Early: 0, Misses: 0
42a-> Hits: 1, Late: 0, Early: 0, Misses: 0
42b-> Hits: 3, Late: 0, Early: 0, Misses: 0
42c-> Hits: 1, Late: 0, Early: 0, Misses: 0
42d-> Hits: 1, Late: 0, Early: 0, Misses: 0
42e-> Hits: 122870, Late: 12, Early: 0, Misses: 0
430-> Hits: 1521, Late: 1501, Early: 0, Misses: 24684
434-> Hits: 15026, Late: 7, Early: 0, Misses: 1510
437-> Hits: 1, Late: 0, Early: 0, Misses: 0
438-> Hits: 7, Late: 0, Early: 0, Misses: 0
439-> Hits: 960, Late: 0, Early: 0, Misses: 40
43a-> Hits: 26893, Late: 31, Early: 0, Misses: 7
43b-> Hits: 3, Late: 1, Early: 0, Misses: 0
43f-> Hits: 1, Late: 0, Early: 0, Misses: 0
440-> Hits: 9, Late: 4, Early: 0, Misses: 0
441-> Hits: 22427, Late: 40, Early: 0, Misses: 128
443-> Hits: 7, Late: 1, Early: 0, Misses: 0
444-> Hits: 1, Late: 0, Early: 0, Misses: 0
447-> Hits: 4, Late: 0, Early: 0, Misses: 0
448-> Hits: 7, Late: 0, Early: 0, Misses: 0
44a-> Hits: 3, Late: 0, Early: 0, Misses: 0
44b-> Hits: 3, Late: 0, Early: 0, Misses: 0
44c-> Hits: 3, Late: 1, Early: 0, Misses: 0
44f-> Hits: 26842, Late: 95, Early: 0, Misses: 14
450-> Hits: 9, Late: 0, Early: 0, Misses: 0
451-> Hits: 18768, Late: 1366, Early: 0, Misses: 6756
453-> Hits: 3, Late: 0, Early: 0, Misses: 0
454-> Hits: 23, Late: 21, Early: 0, Misses: 0
455-> Hits: 21994, Late: 143, Early: 0, Misses: 812
457-> Hits: 3, Late: 0, Early: 0, Misses: 0
458-> Hits: 2, Late: 0, Early: 0, Misses: 0
459-> Hits: 10, Late: 1, Early: 0, Misses: 0
45a-> Hits: 10, Late: 0, Early: 0, Misses: 0
45b-> Hits: 22, Late: 0, Early: 0, Misses: 0
45d-> Hits: 19, Late: 0, Early: 0, Misses: 0
45e-> Hits: 1, Late: 0, Early: 0, Misses: 0
45f-> Hits: 3, Late: 0, Early: 0, Misses: 0
460-> Hits: 4, Late: 0, Early: 0, Misses: 0
461-> Hits: 1, Late: 0, Early: 0, Misses: 0
463-> Hits: 3, Late: 0, Early: 0, Misses: 0
464-> Hits: 22792, Late: 62, Early: 0, Misses: 9
465-> Hits: 1, Late: 0, Early: 0, Misses: 0
466-> Hits: 21806, Late: 344, Early: 0, Misses: 738
468-> Hits: 8, Late: 0, Early: 0, Misses: 0
46a-> Hits: 122871, Late: 12, Early: 0, Misses: 0
46d-> Hits: 4, Late: 0, Early: 0, Misses: 0
470-> Hits: 98436, Late: 2, Early: 0, Misses: 0
471-> Hits: 22, Late: 0, Early: 0, Misses: 0
472-> Hits: 1, Late: 0, Early: 0, Misses: 0
473-> Hits: 3, Late: 0, Early: 0, Misses: 0
475-> Hits: 1, Late: 0, Early: 0, Misses: 0
476-> Hits: 36675, Late: 0, Early: 0, Misses: 0
477-> Hits: 21274, Late: 321, Early: 0, Misses: 470
478-> Hits: 148, Late: 0, Early: 0, Misses: 0
47a-> Hits: 1, Late: 0, Early: 0, Misses: 0
47b-> Hits: 1, Late: 0, Early: 0, Misses: 0
47c-> Hits: 3, Late: 0, Early: 0, Misses: 0
47d-> Hits: 150, Late: 0, Early: 0, Misses: 0
47e-> Hits: 4, Late: 1, Early: 0, Misses: 0
47f-> Hits: 10, Late: 0, Early: 0, Misses: 0
480-> Hits: 7, Late: 3, Early: 0, Misses: 0
481-> Hits: 1, Late: 0, Early: 0, Misses: 0
482-> Hits: 5, Late: 0, Early: 0, Misses: 0
483-> Hits: 120476, Late: 0, Early: 0, Misses: 0
484-> Hits: 2, Late: 0, Early: 0, Misses: 0
486-> Hits: 47, Late: 0, Early: 0, Misses: 0
487-> Hits: 21368, Late: 424, Early: 0, Misses: 276
488-> Hits: 20, Late: 0, Early: 0, Misses: 0
489-> Hits: 9, Late: 0, Early: 0, Misses: 0
48a-> Hits: 1, Late: 0, Early: 0, Misses: 0
48b-> Hits: 5, Late: 0, Early: 0, Misses: 0
48d-> Hits: 9, Late: 2, Early: 0, Misses: 0
48e-> Hits: 4, Late: 0, Early: 0, Misses: 0
48f-> Hits: 5, Late: 0, Early: 0, Misses: 0
490-> Hits: 18247, Late: 9, Early: 0, Misses: 0
491-> Hits: 5, Late: 0, Early: 0, Misses: 0
493-> Hits: 39, Late: 1, Early: 0, Misses: 0
494-> Hits: 42, Late: 0, Early: 0, Misses: 0
495-> Hits: 40, Late: 0, Early: 0, Misses: 0
496-> Hits: 4, Late: 0, Early: 0, Misses: 0
497-> Hits: 43, Late: 0, Early: 0, Misses: 0
498-> Hits: 105533, Late: 388, Early: 0, Misses: 553
499-> Hits: 40, Late: 0, Early: 0, Misses: 0
49b-> Hits: 43, Late: 0, Early: 0, Misses: 0
49d-> Hits: 174, Late: 0, Early: 0, Misses: 0
4a0-> Hits: 1, Late: 1, Early: 0, Misses: 0
4a2-> Hits: 3, Late: 0, Early: 0, Misses: 0
4a3-> Hits: 105, Late: 0, Early: 0, Misses: 0
4a5-> Hits: 12, Late: 0, Early: 0, Misses: 0
4a6-> Hits: 1, Late: 0, Early: 0, Misses: 0
4a9-> Hits: 1729, Late: 1737, Early: 0, Misses: 24240
4ab-> Hits: 5, Late: 0, Early: 0, Misses: 0
4ac-> Hits: 2, Late: 2, Early: 0, Misses: 0
4ad-> Hits: 32830, Late: 210, Early: 0, Misses: 1226
4ae-> Hits: 3, Late: 0, Early: 0, Misses: 0
4b0-> Hits: 18, Late: 0, Early: 0, Misses: 0
4b1-> Hits: 3, Late: 0, Early: 0, Misses: 0
4b2-> Hits: 1202, Late: 6, Early: 0, Misses: 44
4b3-> Hits: 122869, Late: 14, Early: 0, Misses: 0
4b4-> Hits: 4, Late: 1, Early: 0, Misses: 0
4b7-> Hits: 15, Late: 0, Early: 0, Misses: 0
4b8-> Hits: 22, Late: 0, Early: 0, Misses: 0
4b9-> Hits: 4, Late: 0, Early: 0, Misses: 0
4ba-> Hits: 7474, Late: 2, Early: 0, Misses: 0
4bb-> Hits: 18, Late: 0, Early: 0, Misses: 0
4bc-> Hits: 3, Late: 0, Early: 0, Misses: 0
4be-> Hits: 1, Late: 1, Early: 0, Misses: 0
4c0-> Hits: 2, Late: 1, Early: 0, Misses: 0
4c1-> Hits: 1, Late: 0, Early: 0, Misses: 0
4c2-> Hits: 2, Late: 0, Early: 0, Misses: 0
4c4-> Hits: 2, Late: 0, Early: 0, Misses: 0
4c5-> Hits: 18, Late: 0, Early: 0, Misses: 0
4c6-> Hits: 7, Late: 0, Early: 0, Misses: 0
4c7-> Hits: 0, Late: 1, Early: 0, Misses: 0
4c8-> Hits: 2, Late: 0, Early: 0, Misses: 0
4c9-> Hits: 27043, Late: 0, Early: 0, Misses: 0
4ca-> Hits: 17744, Late: 1648, Early: 0, Misses: 7489
4cb-> Hits: 3, Late: 0, Early: 0, Misses: 0
4cc-> Hits: 1, Late: 0, Early: 0, Misses: 0
4cd-> Hits: 4, Late: 0, Early: 0, Misses: 0
4ce-> Hits: 4, Late: 2, Early: 0, Misses: 0
4cf-> Hits: 7634, Late: 3, Early: 0, Misses: 0
4d0-> Hits: 4, Late: 0, Early: 0, Misses: 0
4d1-> Hits: 27, Late: 0, Early: 0, Misses: 0
4d2-> Hits: 4, Late: 0, Early: 0, Misses: 0
4d3-> Hits: 1, Late: 0, Early: 0, Misses: 0
4d4-> Hits: 5, Late: 0, Early: 0, Misses: 0
4d5-> Hits: 1, Late: 1, Early: 0, Misses: 0
4d6-> Hits: 17, Late: 12, Early: 0, Misses: 0
4d7-> Hits: 4, Late: 0, Early: 0, Misses: 0
4da-> Hits: 1, Late: 0, Early: 0, Misses: 0
4dc-> Hits: 3, Late: 2, Early: 0, Misses: 0
4dd-> Hits: 5, Late: 0, Early: 0, Misses: 0
4de-> Hits: 24393, Late: 11, Early: 0, Misses: 9
4df-> Hits: 13, Late: 0, Early: 0, Misses: 0
4e0-> Hits: 7124, Late: 27, Early: 0, Misses: 621
4e1-> Hits: 1, Late: 0, Early: 0, Misses: 0
4e2-> Hits: 7, Late: 0, Early: 0, Misses: 0
4e4-> Hits: 234, Late: 0, Early: 0, Misses: 36
4e5-> Hits: 7, Late: 0, Early: 0, Misses: 0
4e6-> Hits: 1, Late: 0, Early: 0, Misses: 0
4e7-> Hits: 3, Late: 0, Early: 0, Misses: 0
4e8-> Hits: 6, Late: 0, Early: 0, Misses: 0
4e9-> Hits: 19, Late: 0, Early: 0, Misses: 0
4ea-> Hits: 2, Late: 0, Early: 0, Misses: 0
4eb-> Hits: 27, Late: 0, Early: 0, Misses: 0
4ec-> Hits: 1, Late: 0, Early: 0, Misses: 0
4ed-> Hits: 122877, Late: 0, Early: 0, Misses: 0
4ef-> Hits: 2, Late: 0, Early: 0, Misses: 0
4f1-> Hits: 7913, Late: 12, Early: 0, Misses: 0
4f2-> Hits: 14, Late: 0, Early: 0, Misses: 0
4f3-> Hits: 5, Late: 1, Early: 0, Misses: 0
4f6-> Hits: 1, Late: 0, Early: 0, Misses: 0
4f7-> Hits: 1, Late: 0, Early: 0, Misses: 0
4f8-> Hits: 21, Late: 0, Early: 0, Misses: 0
4f9-> Hits: 13, Late: 2, Early: 0, Misses: 0
4fa-> Hits: 14764, Late: 0, Early: 0, Misses: 0
4fb-> Hits: 12, Late: 0, Early: 0, Misses: 0
4fc-> Hits: 1, Late: 0, Early: 0, Misses: 0
4fd-> Hits: 49, Late: 0, Early: 0, Misses: 0
4fe-> Hits: 2, Late: 0, Early: 0, Misses: 0
4ff-> Hits: 25, Late: 0, Early: 0, Misses: 0
500-> Hits: 3, Late: 1, Early: 0, Misses: 0
501-> Hits: 8083, Late: 91, Early: 0, Misses: 104
502-> Hits: 1, Late: 0, Early: 0, Misses: 0
503-> Hits: 2, Late: 0, Early: 0, Misses: 0
504-> Hits: 3, Late: 12, Early: 0, Misses: 0
505-> Hits: 424, Late: 7, Early: 0, Misses: 18
506-> Hits: 4, Late: 0, Early: 0, Misses: 0
507-> Hits: 122872, Late: 0, Early: 0, Misses: 0
508-> Hits: 1, Late: 0, Early: 0, Misses: 0
509-> Hits: 1, Late: 0, Early: 0, Misses: 0
50b-> Hits: 0, Late: 1, Early: 0, Misses: 0
50c-> Hits: 2, Late: 1, Early: 0, Misses: 0
50d-> Hits: 2, Late: 0, Early: 0, Misses: 0
510-> Hits: 2, Late: 0, Early: 0, Misses: 0
511-> Hits: 1, Late: 0, Early: 0, Misses: 0
512-> Hits: 7301, Late: 28, Early: 0, Misses: 0
514-> Hits: 3, Late: 1, Early: 0, Misses: 0
515-> Hits: 1, Late: 0, Early: 0, Misses: 0
516-> Hits: 123016, Late: 230, Early: 0, Misses: 59
518-> Hits: 1, Late: 0, Early: 0, Misses: 0
519-> Hits: 2, Late: 0, Early: 0, Misses: 0
51a-> Hits: 1, Late: 0, Early: 0, Misses: 0
51b-> Hits: 4, Late: 0, Early: 0, Misses: 0
51c-> Hits: 18, Late: 0, Early: 0, Misses: 0
51d-> Hits: 20, Late: 0, Early: 0, Misses: 0
51f-> Hits: 1, Late: 1, Early: 0, Misses: 0
520-> Hits: 98305, Late: 134, Early: 0, Misses: 0
521-> Hits: 20, Late: 0, Early: 0, Misses: 0
522-> Hits: 1, Late: 0, Early: 0, Misses: 0
523-> Hits: 1699, Late: 1748, Early: 0, Misses: 24260
524-> Hits: 9, Late: 0, Early: 0, Misses: 0
527-> Hits: 14856, Late: 117, Early: 0, Misses: 1344
528-> Hits: 98304, Late: 1, Early: 0, Misses: 0
529-> Hits: 20, Late: 0, Early: 0, Misses: 0
52a-> Hits: 1, Late: 0, Early: 0, Misses: 0
52b-> Hits: 2, Late: 0, Early: 0, Misses: 0
52c-> Hits: 1291, Late: 2, Early: 0, Misses: 55
52e-> Hits: 2, Late: 0, Early: 0, Misses: 0
530-> Hits: 7, Late: 1, Early: 0, Misses: 0
532-> Hits: 1, Late: 0, Early: 0, Misses: 0
534-> Hits: 12568, Late: 0, Early: 0, Misses: 1
535-> Hits: 1, Late: 0, Early: 0, Misses: 0
536-> Hits: 3, Late: 0, Early: 0, Misses: 0
537-> Hits: 18, Late: 20, Early: 0, Misses: 610
538-> Hits: 25, Late: 0, Early: 0, Misses: 12
539-> Hits: 1, Late: 0, Early: 0, Misses: 0
53a-> Hits: 9, Late: 0, Early: 0, Misses: 0
53b-> Hits: 240, Late: 4, Early: 0, Misses: 28
53c-> Hits: 98325, Late: 1, Early: 0, Misses: 0
53d-> Hits: 1, Late: 0, Early: 0, Misses: 0
53e-> Hits: 1, Late: 0, Early: 0, Misses: 0
53f-> Hits: 4, Late: 0, Early: 0, Misses: 0
540-> Hits: 16, Late: 1, Early: 0, Misses: 0
541-> Hits: 2, Late: 0, Early: 0, Misses: 0
544-> Hits: 11156, Late: 4, Early: 0, Misses: 4
545-> Hits: 98317, Late: 0, Early: 0, Misses: 0
547-> Hits: 0, Late: 1, Early: 0, Misses: 0
548-> Hits: 145, Late: 0, Early: 0, Misses: 0
549-> Hits: 1, Late: 0, Early: 0, Misses: 0
54a-> Hits: 1, Late: 0, Early: 0, Misses: 0
54b-> Hits: 1, Late: 0, Early: 0, Misses: 0
54c-> Hits: 0, Late: 1, Early: 0, Misses: 0
54d-> Hits: 22, Late: 0, Early: 0, Misses: 0
54e-> Hits: 98329, Late: 0, Early: 0, Misses: 12
550-> Hits: 0, Late: 2, Early: 0, Misses: 0
553-> Hits: 8, Late: 1, Early: 0, Misses: 0
554-> Hits: 2, Late: 0, Early: 0, Misses: 0
555-> Hits: 17474, Late: 2692, Early: 0, Misses: 6725
556-> Hits: 9, Late: 0, Early: 0, Misses: 0
557-> Hits: 98306, Late: 1, Early: 0, Misses: 0
558-> Hits: 338, Late: 63, Early: 0, Misses: 181
559-> Hits: 2, Late: 0, Early: 0, Misses: 0
55a-> Hits: 11798, Late: 14, Early: 0, Misses: 8
55b-> Hits: 2, Late: 0, Early: 0, Misses: 0
55c-> Hits: 4, Late: 2, Early: 0, Misses: 0
55d-> Hits: 118, Late: 1, Early: 0, Misses: 36
55e-> Hits: 6, Late: 0, Early: 0, Misses: 0
55f-> Hits: 3, Late: 0, Early: 0, Misses: 0
560-> Hits: 98314, Late: 2, Early: 0, Misses: 0
561-> Hits: 21, Late: 0, Early: 0, Misses: 0
562-> Hits: 5, Late: 0, Early: 0, Misses: 0
563-> Hits: 4, Late: 3, Early: 0, Misses: 0
564-> Hits: 47, Late: 1, Early: 0, Misses: 0
565-> Hits: 7, Late: 0, Early: 0, Misses: 36
566-> Hits: 2, Late: 0, Early: 0, Misses: 0
567-> Hits: 2, Late: 0, Early: 0, Misses: 0
568-> Hits: 10, Late: 0, Early: 0, Misses: 0
569-> Hits: 98303, Late: 1, Early: 0, Misses: 0
56a-> Hits: 4, Late: 0, Early: 0, Misses: 0
56b-> Hits: 11803, Late: 18, Early: 0, Misses: 8
56d-> Hits: 37, Late: 0, Early: 0, Misses: 0
56e-> Hits: 114, Late: 0, Early: 0, Misses: 0
570-> Hits: 138, Late: 0, Early: 0, Misses: 0
572-> Hits: 98305, Late: 1, Early: 0, Misses: 0
574-> Hits: 20, Late: 1, Early: 0, Misses: 0
576-> Hits: 5, Late: 0, Early: 0, Misses: 0
577-> Hits: 22, Late: 12, Early: 0, Misses: 0
578-> Hits: 14, Late: 0, Early: 0, Misses: 0
579-> Hits: 4, Late: 0, Early: 0, Misses: 0
57a-> Hits: 11, Late: 0, Early: 0, Misses: 0
57b-> Hits: 11777, Late: 13, Early: 0, Misses: 10
57c-> Hits: 1, Late: 3, Early: 0, Misses: 0
57d-> Hits: 4, Late: 0, Early: 0, Misses: 0
57f-> Hits: 132, Late: 0, Early: 0, Misses: 0
580-> Hits: 6, Late: 2, Early: 0, Misses: 0
581-> Hits: 3, Late: 3, Early: 0, Misses: 0
582-> Hits: 2, Late: 0, Early: 0, Misses: 0
583-> Hits: 30, Late: 1, Early: 0, Misses: 0
584-> Hits: 98308, Late: 2, Early: 0, Misses: 0
586-> Hits: 1, Late: 2, Early: 0, Misses: 0
587-> Hits: 3, Late: 0, Early: 0, Misses: 0
588-> Hits: 6, Late: 1, Early: 0, Misses: 0
58b-> Hits: 3, Late: 0, Early: 0, Misses: 0
58c-> Hits: 12510, Late: 25, Early: 0, Misses: 29
58e-> Hits: 9, Late: 0, Early: 0, Misses: 0
58f-> Hits: 15, Late: 26, Early: 0, Misses: 607
590-> Hits: 17, Late: 5, Early: 0, Misses: 0
591-> Hits: 98303, Late: 2, Early: 0, Misses: 0
593-> Hits: 238, Late: 5, Early: 0, Misses: 31
594-> Hits: 1, Late: 0, Early: 0, Misses: 0
595-> Hits: 3, Late: 0, Early: 0, Misses: 0
598-> Hits: 28, Late: 0, Early: 0, Misses: 0
599-> Hits: 8, Late: 2, Early: 0, Misses: 0
59a-> Hits: 2, Late: 0, Early: 0, Misses: 0
59b-> Hits: 11, Late: 0, Early: 0, Misses: 0
59d-> Hits: 1774, Late: 2065, Early: 0, Misses: 23878
59e-> Hits: 4, Late: 0, Early: 0, Misses: 0
59f-> Hits: 3, Late: 0, Early: 0, Misses: 0
5a0-> Hits: 160, Late: 4, Early: 0, Misses: 44
5a1-> Hits: 14907, Late: 224, Early: 0, Misses: 902
5a2-> Hits: 7, Late: 0, Early: 0, Misses: 0
5a3-> Hits: 1, Late: 1, Early: 0, Misses: 0
5a5-> Hits: 98304, Late: 1, Early: 0, Misses: 0
5a6-> Hits: 1051, Late: 38, Early: 0, Misses: 159
5a7-> Hits: 1, Late: 0, Early: 0, Misses: 0
5a9-> Hits: 3, Late: 0, Early: 0, Misses: 0
5aa-> Hits: 13, Late: 5, Early: 0, Misses: 0
5ab-> Hits: 0, Late: 1, Early: 0, Misses: 44
5ac-> Hits: 1, Late: 0, Early: 0, Misses: 0
5ae-> Hits: 12415, Late: 3, Early: 0, Misses: 0
5af-> Hits: 8, Late: 0, Early: 0, Misses: 0
5b0-> Hits: 131, Late: 5, Early: 0, Misses: 0
5b1-> Hits: 2, Late: 0, Early: 0, Misses: 0
5b2-> Hits: 3, Late: 0, Early: 0, Misses: 0
5b4-> Hits: 0, Late: 2, Early: 0, Misses: 0
5b5-> Hits: 1, Late: 0, Early: 0, Misses: 0
5b6-> Hits: 5, Late: 0, Early: 0, Misses: 0
5b8-> Hits: 3, Late: 0, Early: 0, Misses: 0
5bb-> Hits: 1, Late: 0, Early: 0, Misses: 0
5bc-> Hits: 2, Late: 0, Early: 0, Misses: 0
5bd-> Hits: 1, Late: 1, Early: 0, Misses: 0
5be-> Hits: 14090, Late: 32, Early: 0, Misses: 0
5bf-> Hits: 8, Late: 0, Early: 0, Misses: 0
5c0-> Hits: 778, Late: 0, Early: 0, Misses: 0
5c1-> Hits: 7876, Late: 104, Early: 0, Misses: 292
5c2-> Hits: 8, Late: 0, Early: 0, Misses: 0
5c3-> Hits: 9, Late: 0, Early: 0, Misses: 0
5c4-> Hits: 8, Late: 0, Early: 0, Misses: 0
5c5-> Hits: 1, Late: 0, Early: 0, Misses: 0
5c6-> Hits: 191, Late: 1, Early: 0, Misses: 2
5c7-> Hits: 5, Late: 0, Early: 0, Misses: 0
5c8-> Hits: 7, Late: 0, Early: 0, Misses: 0
5c9-> Hits: 2, Late: 0, Early: 0, Misses: 0
5ca-> Hits: 27, Late: 0, Early: 0, Misses: 0
5cb-> Hits: 2, Late: 0, Early: 0, Misses: 0
5cc-> Hits: 52, Late: 0, Early: 0, Misses: 0
5ce-> Hits: 0, Late: 1, Early: 0, Misses: 0
5cf-> Hits: 11741, Late: 20, Early: 0, Misses: 45
5d0-> Hits: 18, Late: 16, Early: 0, Misses: 0
5d1-> Hits: 98316, Late: 1, Early: 0, Misses: 0
5d2-> Hits: 2, Late: 0, Early: 0, Misses: 0
5d5-> Hits: 3, Late: 0, Early: 0, Misses: 0
5d6-> Hits: 3, Late: 2, Early: 0, Misses: 0
5d7-> Hits: 220, Late: 0, Early: 0, Misses: 1
5d8-> Hits: 3, Late: 4, Early: 0, Misses: 0
5db-> Hits: 87194, Late: 2, Early: 0, Misses: 0
5dc-> Hits: 49, Late: 2, Early: 0, Misses: 0
5dd-> Hits: 7382, Late: 116, Early: 0, Misses: 170
5de-> Hits: 4, Late: 0, Early: 0, Misses: 0
5df-> Hits: 9, Late: 4, Early: 0, Misses: 0
5e0-> Hits: 19939, Late: 3486, Early: 0, Misses: 3437
5e1-> Hits: 5, Late: 0, Early: 0, Misses: 0
5e2-> Hits: 2, Late: 0, Early: 0, Misses: 0
5e3-> Hits: 6, Late: 0, Early: 0, Misses: 0
5e4-> Hits: 13455, Late: 20, Early: 0, Misses: 2
5e5-> Hits: 3, Late: 0, Early: 0, Misses: 0
5e6-> Hits: 3, Late: 3, Early: 0, Misses: 0
5e7-> Hits: 22, Late: 35, Early: 0, Misses: 595
5e9-> Hits: 1, Late: 1, Early: 0, Misses: 0
5ea-> Hits: 1, Late: 0, Early: 0, Misses: 0
5eb-> Hits: 234, Late: 13, Early: 0, Misses: 23
5ed-> Hits: 2, Late: 0, Early: 0, Misses: 0
5ee-> Hits: 3, Late: 0, Early: 0, Misses: 0
5f0-> Hits: 16, Late: 1, Early: 0, Misses: 0
5f1-> Hits: 2, Late: 0, Early: 0, Misses: 0
5f2-> Hits: 5, Late: 0, Early: 0, Misses: 0
5f3-> Hits: 7, Late: 0, Early: 0, Misses: 0
5f4-> Hits: 13491, Late: 25, Early: 0, Misses: 8
5f5-> Hits: 7358, Late: 146, Early: 0, Misses: 179
5f6-> Hits: 1, Late: 0, Early: 0, Misses: 0
5f7-> Hits: 6, Late: 0, Early: 0, Misses: 0
5f8-> Hits: 193, Late: 0, Early: 0, Misses: 0
5f9-> Hits: 7, Late: 0, Early: 0, Misses: 0
5fa-> Hits: 19, Late: 0, Early: 0, Misses: 0
5fb-> Hits: 6, Late: 0, Early: 0, Misses: 0
5fc-> Hits: 0, Late: 1, Early: 0, Misses: 0
5fd-> Hits: 1, Late: 0, Early: 0, Misses: 0
5fe-> Hits: 2, Late: 0, Early: 0, Misses: 45
5ff-> Hits: 4, Late: 0, Early: 0, Misses: 0
600-> Hits: 1, Late: 2, Early: 0, Misses: 0
602-> Hits: 10, Late: 0, Early: 0, Misses: 0
604-> Hits: 5, Late: 0, Early: 0, Misses: 0
605-> Hits: 13275, Late: 31, Early: 0, Misses: 21
606-> Hits: 23, Late: 0, Early: 0, Misses: 0
607-> Hits: 16, Late: 0, Early: 0, Misses: 0
608-> Hits: 198, Late: 3, Early: 0, Misses: 0
609-> Hits: 16, Late: 0, Early: 0, Misses: 0
60a-> Hits: 3, Late: 0, Early: 0, Misses: 0
60b-> Hits: 20, Late: 0, Early: 0, Misses: 0
60c-> Hits: 3, Late: 0, Early: 0, Misses: 0
60d-> Hits: 2, Late: 0, Early: 0, Misses: 0
60e-> Hits: 5, Late: 0, Early: 0, Misses: 0
60f-> Hits: 0, Late: 0, Early: 0, Misses: 9
610-> Hits: 2, Late: 1, Early: 0, Misses: 0
611-> Hits: 1, Late: 0, Early: 0, Misses: 0
614-> Hits: 2, Late: 0, Early: 0, Misses: 9
616-> Hits: 1809, Late: 2150, Early: 0, Misses: 23750
619-> Hits: 158, Late: 0, Early: 0, Misses: 0
61a-> Hits: 14435, Late: 219, Early: 0, Misses: 1044
61c-> Hits: 3, Late: 0, Early: 0, Misses: 0
61d-> Hits: 12, Late: 0, Early: 0, Misses: 0
61e-> Hits: 1, Late: 0, Early: 0, Misses: 0
61f-> Hits: 1578, Late: 36, Early: 0, Misses: 204
620-> Hits: 8, Late: 1, Early: 0, Misses: 0
621-> Hits: 4, Late: 1, Early: 0, Misses: 0
622-> Hits: 1, Late: 0, Early: 0, Misses: 0
623-> Hits: 3, Late: 0, Early: 0, Misses: 0
625-> Hits: 18, Late: 3, Early: 0, Misses: 0
626-> Hits: 1, Late: 0, Early: 0, Misses: 0
627-> Hits: 12228, Late: 1, Early: 0, Misses: 0
628-> Hits: 4, Late: 1, Early: 0, Misses: 0
62a-> Hits: 411, Late: 73, Early: 0, Misses: 113
62b-> Hits: 8, Late: 0, Early: 0, Misses: 0
62c-> Hits: 1, Late: 0, Early: 0, Misses: 0
62e-> Hits: 149, Late: 0, Early: 0, Misses: 0
62f-> Hits: 4, Late: 1, Early: 0, Misses: 0
630-> Hits: 3, Late: 0, Early: 0, Misses: 0
631-> Hits: 3, Late: 0, Early: 0, Misses: 0
634-> Hits: 2, Late: 0, Early: 0, Misses: 0
635-> Hits: 2, Late: 0, Early: 0, Misses: 0
636-> Hits: 5, Late: 1, Early: 0, Misses: 0
637-> Hits: 12902, Late: 9, Early: 0, Misses: 6
638-> Hits: 3, Late: 0, Early: 0, Misses: 0
639-> Hits: 3, Late: 0, Early: 0, Misses: 0
63b-> Hits: 7, Late: 0, Early: 0, Misses: 0
63c-> Hits: 7, Late: 0, Early: 0, Misses: 0
63d-> Hits: 11, Late: 0, Early: 0, Misses: 0
63e-> Hits: 18, Late: 34, Early: 0, Misses: 598
63f-> Hits: 3, Late: 0, Early: 0, Misses: 0
640-> Hits: 6, Late: 0, Early: 0, Misses: 0
641-> Hits: 6, Late: 0, Early: 0, Misses: 0
642-> Hits: 231, Late: 0, Early: 0, Misses: 36
643-> Hits: 3, Late: 0, Early: 0, Misses: 0
644-> Hits: 2, Late: 0, Early: 0, Misses: 0
646-> Hits: 5, Late: 0, Early: 0, Misses: 0
647-> Hits: 12, Late: 0, Early: 0, Misses: 0
648-> Hits: 12511, Late: 23, Early: 0, Misses: 4
64b-> Hits: 1, Late: 0, Early: 0, Misses: 0
64c-> Hits: 2, Late: 0, Early: 0, Misses: 0
64f-> Hits: 182, Late: 0, Early: 0, Misses: 0
653-> Hits: 3, Late: 0, Early: 0, Misses: 0
654-> Hits: 6, Late: 0, Early: 0, Misses: 0
655-> Hits: 1, Late: 0, Early: 0, Misses: 0
656-> Hits: 7, Late: 1, Early: 0, Misses: 0
657-> Hits: 1, Late: 0, Early: 0, Misses: 0
658-> Hits: 34, Late: 0, Early: 0, Misses: 0
659-> Hits: 11125, Late: 16, Early: 0, Misses: 2
65a-> Hits: 2, Late: 0, Early: 0, Misses: 0
65b-> Hits: 2, Late: 0, Early: 0, Misses: 0
65c-> Hits: 3, Late: 0, Early: 0, Misses: 0
65d-> Hits: 53, Late: 0, Early: 0, Misses: 0
65e-> Hits: 6, Late: 0, Early: 0, Misses: 0
65f-> Hits: 198, Late: 0, Early: 0, Misses: 0
660-> Hits: 2, Late: 2, Early: 0, Misses: 0
662-> Hits: 9, Late: 0, Early: 0, Misses: 0
666-> Hits: 15, Late: 0, Early: 0, Misses: 0
667-> Hits: 18, Late: 0, Early: 0, Misses: 0
668-> Hits: 23, Late: 3, Early: 0, Misses: 0
669-> Hits: 21333, Late: 2682, Early: 0, Misses: 2867
66a-> Hits: 16, Late: 0, Early: 0, Misses: 0
66c-> Hits: 24, Late: 0, Early: 0, Misses: 0
66d-> Hits: 1, Late: 0, Early: 0, Misses: 0
66e-> Hits: 11640, Late: 47, Early: 0, Misses: 3
66f-> Hits: 1, Late: 0, Early: 0, Misses: 0
670-> Hits: 267, Late: 0, Early: 0, Misses: 0
671-> Hits: 51, Late: 0, Early: 0, Misses: 0
672-> Hits: 45, Late: 0, Early: 0, Misses: 0
674-> Hits: 45, Late: 0, Early: 0, Misses: 0
678-> Hits: 1, Late: 0, Early: 0, Misses: 0
679-> Hits: 6, Late: 0, Early: 0, Misses: 0
67a-> Hits: 4, Late: 0, Early: 0, Misses: 0
67b-> Hits: 11, Late: 0, Early: 0, Misses: 0
67c-> Hits: 1, Late: 0, Early: 0, Misses: 0
67d-> Hits: 3, Late: 0, Early: 0, Misses: 0
67f-> Hits: 11163, Late: 47, Early: 0, Misses: 33
680-> Hits: 13, Late: 13, Early: 0, Misses: 0
681-> Hits: 204, Late: 0, Early: 0, Misses: 0
683-> Hits: 136, Late: 1, Early: 0, Misses: 0
685-> Hits: 4, Late: 0, Early: 0, Misses: 0
686-> Hits: 10, Late: 0, Early: 0, Misses: 0
688-> Hits: 1, Late: 0, Early: 0, Misses: 0
689-> Hits: 9, Late: 0, Early: 0, Misses: 0
68a-> Hits: 13, Late: 0, Early: 0, Misses: 0
68c-> Hits: 2, Late: 0, Early: 0, Misses: 0
68d-> Hits: 6, Late: 0, Early: 0, Misses: 0
68e-> Hits: 1, Late: 0, Early: 0, Misses: 0
690-> Hits: 1875, Late: 1989, Early: 0, Misses: 23844
691-> Hits: 17, Late: 23, Early: 0, Misses: 608
693-> Hits: 1, Late: 0, Early: 0, Misses: 0
694-> Hits: 14482, Late: 158, Early: 0, Misses: 1171
695-> Hits: 216, Late: 0, Early: 0, Misses: 36
698-> Hits: 2, Late: 1, Early: 0, Misses: 0
699-> Hits: 1290, Late: 22, Early: 0, Misses: 129
69a-> Hits: 22, Late: 1, Early: 0, Misses: 0
69c-> Hits: 4, Late: 0, Early: 0, Misses: 0
69f-> Hits: 1, Late: 0, Early: 0, Misses: 0
6a0-> Hits: 3, Late: 0, Early: 0, Misses: 0
6a1-> Hits: 12823, Late: 1, Early: 0, Misses: 0
6a2-> Hits: 193, Late: 0, Early: 0, Misses: 0
6a3-> Hits: 6, Late: 0, Early: 0, Misses: 0
6a4-> Hits: 8, Late: 1, Early: 0, Misses: 0
6a5-> Hits: 2, Late: 0, Early: 0, Misses: 0
6a6-> Hits: 1, Late: 0, Early: 0, Misses: 0
6a7-> Hits: 8, Late: 0, Early: 0, Misses: 0
6ac-> Hits: 2, Late: 0, Early: 0, Misses: 0
6ad-> Hits: 5, Late: 0, Early: 0, Misses: 0
6ae-> Hits: 1, Late: 0, Early: 0, Misses: 0
6af-> Hits: 2, Late: 0, Early: 0, Misses: 0
6b0-> Hits: 1, Late: 0, Early: 0, Misses: 0
6b1-> Hits: 11879, Late: 4, Early: 0, Misses: 11
6b2-> Hits: 174, Late: 1, Early: 0, Misses: 0
6b3-> Hits: 5, Late: 0, Early: 0, Misses: 0
6b4-> Hits: 10, Late: 1, Early: 0, Misses: 0
6b5-> Hits: 1, Late: 12, Early: 0, Misses: 0
6b6-> Hits: 3, Late: 0, Early: 0, Misses: 0
6b7-> Hits: 9, Late: 1, Early: 0, Misses: 0
6b9-> Hits: 2, Late: 0, Early: 0, Misses: 0
6ba-> Hits: 6, Late: 0, Early: 0, Misses: 0
6bb-> Hits: 2, Late: 0, Early: 0, Misses: 0
6bc-> Hits: 2, Late: 0, Early: 0, Misses: 0
6bd-> Hits: 1, Late: 0, Early: 0, Misses: 0
6be-> Hits: 1, Late: 0, Early: 0, Misses: 0
6bf-> Hits: 1, Late: 0, Early: 0, Misses: 0
6c0-> Hits: 3, Late: 2, Early: 0, Misses: 0
6c2-> Hits: 12557, Late: 18, Early: 0, Misses: 31
6c3-> Hits: 165, Late: 0, Early: 0, Misses: 0
6c4-> Hits: 9, Late: 0, Early: 0, Misses: 0
6c5-> Hits: 1, Late: 0, Early: 0, Misses: 0
6c7-> Hits: 1, Late: 0, Early: 0, Misses: 0
6c9-> Hits: 1, Late: 0, Early: 0, Misses: 0
6ca-> Hits: 2, Late: 0, Early: 0, Misses: 0
6cc-> Hits: 2, Late: 0, Early: 0, Misses: 0
6cd-> Hits: 1, Late: 0, Early: 0, Misses: 0
6ce-> Hits: 8, Late: 0, Early: 0, Misses: 0
6d0-> Hits: 2, Late: 3, Early: 0, Misses: 0
6d1-> Hits: 2, Late: 0, Early: 0, Misses: 0
6d2-> Hits: 1, Late: 0, Early: 0, Misses: 0
6d3-> Hits: 14043, Late: 15, Early: 0, Misses: 8
6d4-> Hits: 170, Late: 0, Early: 0, Misses: 0
6d5-> Hits: 11, Late: 0, Early: 0, Misses: 0
6d6-> Hits: 3, Late: 0, Early: 0, Misses: 0
6d7-> Hits: 16, Late: 0, Early: 0, Misses: 0
6d9-> Hits: 12, Late: 0, Early: 0, Misses: 0
6da-> Hits: 2, Late: 0, Early: 0, Misses: 0
6db-> Hits: 11, Late: 0, Early: 0, Misses: 0
6dc-> Hits: 1, Late: 0, Early: 0, Misses: 0
6dd-> Hits: 10, Late: 0, Early: 0, Misses: 0
6de-> Hits: 2, Late: 0, Early: 0, Misses: 0
6df-> Hits: 2, Late: 0, Early: 0, Misses: 0
6e0-> Hits: 0, Late: 1, Early: 0, Misses: 0
6e1-> Hits: 1, Late: 0, Early: 0, Misses: 0
6e2-> Hits: 4, Late: 0, Early: 0, Misses: 0
6e3-> Hits: 12349, Late: 43, Early: 0, Misses: 1
6e4-> Hits: 20, Late: 18, Early: 0, Misses: 611
6e5-> Hits: 1, Late: 0, Early: 0, Misses: 0
6e6-> Hits: 1, Late: 0, Early: 0, Misses: 0
6e7-> Hits: 2, Late: 2, Early: 0, Misses: 0
6e8-> Hits: 227, Late: 1, Early: 0, Misses: 35
6eb-> Hits: 1, Late: 3, Early: 0, Misses: 0
6ed-> Hits: 20, Late: 10, Early: 0, Misses: 0
6ee-> Hits: 1, Late: 1, Early: 0, Misses: 0
6ef-> Hits: 1, Late: 0, Early: 0, Misses: 0
6f0-> Hits: 8, Late: 4, Early: 0, Misses: 0
6f1-> Hits: 0, Late: 1, Early: 0, Misses: 0
6f2-> Hits: 1, Late: 0, Early: 0, Misses: 0
6f3-> Hits: 2, Late: 0, Early: 0, Misses: 0
6f4-> Hits: 20736, Late: 2632, Early: 0, Misses: 3515
6f5-> Hits: 169, Late: 0, Early: 0, Misses: 0
6f6-> Hits: 4, Late: 0, Early: 0, Misses: 0
6f8-> Hits: 2, Late: 1, Early: 0, Misses: 0
6f9-> Hits: 13915, Late: 35, Early: 0, Misses: 18
6fa-> Hits: 3, Late: 0, Early: 0, Misses: 0
6fb-> Hits: 1, Late: 11, Early: 0, Misses: 0
6fc-> Hits: 3, Late: 0, Early: 0, Misses: 0
6fe-> Hits: 5, Late: 0, Early: 0, Misses: 0
700-> Hits: 6, Late: 0, Early: 0, Misses: 0
701-> Hits: 0, Late: 1, Early: 0, Misses: 0
702-> Hits: 4, Late: 0, Early: 0, Misses: 0
703-> Hits: 4, Late: 0, Early: 0, Misses: 0
705-> Hits: 203, Late: 0, Early: 0, Misses: 0
706-> Hits: 4, Late: 0, Early: 0, Misses: 0
708-> Hits: 1, Late: 1, Early: 0, Misses: 0
709-> Hits: 0, Late: 2, Early: 0, Misses: 0
70a-> Hits: 1656, Late: 1789, Early: 0, Misses: 24261
70b-> Hits: 4, Late: 1, Early: 0, Misses: 0
70d-> Hits: 8, Late: 2, Early: 0, Misses: 0
70e-> Hits: 14117, Late: 182, Early: 0, Misses: 1234
70f-> Hits: 1, Late: 0, Early: 0, Misses: 0
710-> Hits: 0, Late: 1, Early: 0, Misses: 0
711-> Hits: 2, Late: 0, Early: 0, Misses: 0
713-> Hits: 1909, Late: 14, Early: 0, Misses: 85
716-> Hits: 204, Late: 0, Early: 0, Misses: 0
718-> Hits: 3, Late: 0, Early: 0, Misses: 0
719-> Hits: 3, Late: 1, Early: 0, Misses: 0
71b-> Hits: 13730, Late: 0, Early: 0, Misses: 0
71d-> Hits: 1, Late: 0, Early: 0, Misses: 0
71e-> Hits: 4, Late: 0, Early: 0, Misses: 0
720-> Hits: 5, Late: 1, Early: 0, Misses: 0
721-> Hits: 1, Late: 0, Early: 0, Misses: 0
722-> Hits: 3, Late: 0, Early: 0, Misses: 0
723-> Hits: 6, Late: 2, Early: 0, Misses: 0
724-> Hits: 2, Late: 0, Early: 0, Misses: 0
725-> Hits: 1, Late: 0, Early: 0, Misses: 0
726-> Hits: 1, Late: 0, Early: 0, Misses: 0
727-> Hits: 187, Late: 0, Early: 0, Misses: 0
729-> Hits: 5, Late: 12, Early: 0, Misses: 0
72b-> Hits: 14503, Late: 3, Early: 0, Misses: 9
72c-> Hits: 2, Late: 0, Early: 0, Misses: 0
72d-> Hits: 3, Late: 0, Early: 0, Misses: 0
72e-> Hits: 1, Late: 0, Early: 0, Misses: 0
72f-> Hits: 1, Late: 0, Early: 0, Misses: 0
730-> Hits: 4, Late: 0, Early: 0, Misses: 0
733-> Hits: 5, Late: 1, Early: 0, Misses: 0
734-> Hits: 2, Late: 0, Early: 0, Misses: 0
736-> Hits: 1, Late: 0, Early: 0, Misses: 0
737-> Hits: 16, Late: 25, Early: 0, Misses: 619
738-> Hits: 1, Late: 0, Early: 0, Misses: 0
73a-> Hits: 1, Late: 0, Early: 0, Misses: 0
73b-> Hits: 222, Late: 2, Early: 0, Misses: 34
73c-> Hits: 13303, Late: 18, Early: 0, Misses: 10
73e-> Hits: 3, Late: 1, Early: 0, Misses: 0
740-> Hits: 16, Late: 1, Early: 0, Misses: 0
741-> Hits: 4, Late: 0, Early: 0, Misses: 0
742-> Hits: 3, Late: 0, Early: 0, Misses: 0
744-> Hits: 6, Late: 0, Early: 0, Misses: 0
745-> Hits: 2, Late: 0, Early: 0, Misses: 0
747-> Hits: 2, Late: 0, Early: 0, Misses: 0
748-> Hits: 170, Late: 0, Early: 0, Misses: 0
74b-> Hits: 1, Late: 2, Early: 0, Misses: 0
74c-> Hits: 1, Late: 0, Early: 0, Misses: 0
74d-> Hits: 14351, Late: 20, Early: 0, Misses: 11
74e-> Hits: 3, Late: 0, Early: 0, Misses: 0
74f-> Hits: 2, Late: 0, Early: 0, Misses: 0
750-> Hits: 4, Late: 0, Early: 0, Misses: 0
751-> Hits: 4, Late: 0, Early: 0, Misses: 0
752-> Hits: 5, Late: 0, Early: 0, Misses: 0
753-> Hits: 1, Late: 1, Early: 0, Misses: 0
754-> Hits: 5, Late: 0, Early: 0, Misses: 0
755-> Hits: 3, Late: 0, Early: 0, Misses: 0
756-> Hits: 4, Late: 0, Early: 0, Misses: 0
758-> Hits: 143, Late: 0, Early: 0, Misses: 0
75a-> Hits: 5, Late: 1, Early: 0, Misses: 0
75b-> Hits: 4, Late: 0, Early: 0, Misses: 0
75c-> Hits: 5, Late: 2, Early: 0, Misses: 0
75d-> Hits: 15843, Late: 32, Early: 0, Misses: 2
75f-> Hits: 1, Late: 0, Early: 0, Misses: 0
760-> Hits: 4, Late: 0, Early: 0, Misses: 0
761-> Hits: 5, Late: 0, Early: 0, Misses: 0
[...]
dae-> Hits: 1, Late: 0, Early: 0, Misses: 0
daf-> Hits: 4, Late: 0, Early: 0, Misses: 0
db0-> Hits: 6, Late: 4, Early: 0, Misses: 0
db1-> Hits: 12, Late: 0, Early: 0, Misses: 0
db2-> Hits: 0, Late: 1, Early: 0, Misses: 0
db3-> Hits: 2, Late: 0, Early: 0, Misses: 0
db4-> Hits: 1, Late: 0, Early: 0, Misses: 0
db5-> Hits: 3, Late: 0, Early: 0, Misses: 0
db6-> Hits: 2, Late: 21, Early: 0, Misses: 0
db7-> Hits: 3, Late: 0, Early: 0, Misses: 0
db8-> Hits: 3, Late: 0, Early: 0, Misses: 0
db9-> Hits: 2, Late: 0, Early: 0, Misses: 0
dba-> Hits: 3, Late: 0, Early: 0, Misses: 0
dbb-> Hits: 2, Late: 0, Early: 0, Misses: 0
dbc-> Hits: 1, Late: 0, Early: 0, Misses: 0
dbd-> Hits: 1, Late: 0, Early: 0, Misses: 0
dbe-> Hits: 5, Late: 0, Early: 0, Misses: 0
dbf-> Hits: 9, Late: 1, Early: 0, Misses: 0
dc0-> Hits: 26, Late: 6, Early: 0, Misses: 0
dc2-> Hits: 3, Late: 2, Early: 0, Misses: 0
dc3-> Hits: 2, Late: 0, Early: 0, Misses: 0
dc7-> Hits: 21, Late: 1, Early: 0, Misses: 0
dc8-> Hits: 3, Late: 1, Early: 0, Misses: 0
dca-> Hits: 5, Late: 0, Early: 0, Misses: 0
dcb-> Hits: 6, Late: 0, Early: 0, Misses: 0
dcc-> Hits: 18, Late: 2, Early: 0, Misses: 0
dcd-> Hits: 19, Late: 0, Early: 0, Misses: 0
dcf-> Hits: 12, Late: 0, Early: 0, Misses: 0
dd1-> Hits: 13, Late: 0, Early: 0, Misses: 0
dd2-> Hits: 5, Late: 10, Early: 0, Misses: 8
dd3-> Hits: 16, Late: 0, Early: 0, Misses: 0
dd5-> Hits: 4, Late: 0, Early: 0, Misses: 0
dd6-> Hits: 4, Late: 0, Early: 0, Misses: 0
dd8-> Hits: 19, Late: 0, Early: 0, Misses: 0
dd9-> Hits: 12, Late: 0, Early: 0, Misses: 0
dda-> Hits: 4, Late: 0, Early: 0, Misses: 0
ddc-> Hits: 6, Late: 0, Early: 0, Misses: 0
dde-> Hits: 4, Late: 0, Early: 0, Misses: 0
ddf-> Hits: 4, Late: 0, Early: 0, Misses: 0
de0-> Hits: 5, Late: 0, Early: 0, Misses: 2
de2-> Hits: 2, Late: 0, Early: 0, Misses: 0
de3-> Hits: 4, Late: 2, Early: 0, Misses: 0
de4-> Hits: 2, Late: 0, Early: 0, Misses: 0
de7-> Hits: 1, Late: 0, Early: 0, Misses: 0
de8-> Hits: 1, Late: 0, Early: 0, Misses: 0
deb-> Hits: 1, Late: 0, Early: 0, Misses: 0
dec-> Hits: 4, Late: 0, Early: 0, Misses: 0
ded-> Hits: 5, Late: 0, Early: 0, Misses: 0
dee-> Hits: 7, Late: 0, Early: 0, Misses: 0
def-> Hits: 5, Late: 0, Early: 0, Misses: 0
df0-> Hits: 1, Late: 0, Early: 0, Misses: 0
df1-> Hits: 17, Late: 0, Early: 0, Misses: 0
df2-> Hits: 3, Late: 0, Early: 0, Misses: 0
df3-> Hits: 6, Late: 0, Early: 0, Misses: 0
df4-> Hits: 1, Late: 0, Early: 0, Misses: 0
df5-> Hits: 6, Late: 0, Early: 0, Misses: 0
df7-> Hits: 7, Late: 0, Early: 0, Misses: 0
df8-> Hits: 1, Late: 0, Early: 0, Misses: 0
df9-> Hits: 2, Late: 0, Early: 0, Misses: 0
dfb-> Hits: 1, Late: 0, Early: 0, Misses: 0
dfd-> Hits: 6, Late: 0, Early: 0, Misses: 0
e00-> Hits: 5, Late: 0, Early: 0, Misses: 0
e01-> Hits: 2, Late: 0, Early: 0, Misses: 0
e02-> Hits: 5, Late: 0, Early: 0, Misses: 0
e03-> Hits: 1, Late: 0, Early: 0, Misses: 0
e04-> Hits: 0, Late: 1, Early: 0, Misses: 53
e05-> Hits: 2, Late: 1, Early: 0, Misses: 0
e06-> Hits: 2, Late: 0, Early: 0, Misses: 0
e07-> Hits: 0, Late: 22, Early: 0, Misses: 0
e0e-> Hits: 61, Late: 0, Early: 0, Misses: 0
e0f-> Hits: 2, Late: 12, Early: 0, Misses: 10
e10-> Hits: 5, Late: 0, Early: 0, Misses: 0
e12-> Hits: 6, Late: 0, Early: 0, Misses: 0
e13-> Hits: 7, Late: 0, Early: 0, Misses: 0
e14-> Hits: 3, Late: 0, Early: 0, Misses: 0
e15-> Hits: 2, Late: 0, Early: 0, Misses: 0
e16-> Hits: 2, Late: 0, Early: 0, Misses: 0
e17-> Hits: 1, Late: 0, Early: 0, Misses: 0
e18-> Hits: 4, Late: 0, Early: 0, Misses: 0
e19-> Hits: 17, Late: 0, Early: 0, Misses: 0
e1a-> Hits: 2, Late: 0, Early: 0, Misses: 0
e1b-> Hits: 12, Late: 0, Early: 0, Misses: 0
e1c-> Hits: 5, Late: 0, Early: 0, Misses: 0
e1d-> Hits: 0, Late: 1, Early: 0, Misses: 0
e1e-> Hits: 0, Late: 12, Early: 0, Misses: 0
e20-> Hits: 14, Late: 2, Early: 0, Misses: 0
e22-> Hits: 7, Late: 0, Early: 0, Misses: 1
e23-> Hits: 16, Late: 12, Early: 0, Misses: 0
e25-> Hits: 1, Late: 0, Early: 0, Misses: 0
e26-> Hits: 2, Late: 0, Early: 0, Misses: 0
e27-> Hits: 2, Late: 0, Early: 0, Misses: 0
e28-> Hits: 9, Late: 11, Early: 0, Misses: 0
e29-> Hits: 2, Late: 0, Early: 0, Misses: 0
e2a-> Hits: 2, Late: 1, Early: 0, Misses: 0
e2c-> Hits: 1, Late: 12, Early: 0, Misses: 0
e2d-> Hits: 2, Late: 0, Early: 0, Misses: 0
e2f-> Hits: 1, Late: 0, Early: 0, Misses: 0
e30-> Hits: 16, Late: 0, Early: 0, Misses: 0
e31-> Hits: 0, Late: 12, Early: 0, Misses: 0
e33-> Hits: 3, Late: 0, Early: 0, Misses: 0
e34-> Hits: 1, Late: 0, Early: 0, Misses: 0
e35-> Hits: 16, Late: 0, Early: 0, Misses: 0
e36-> Hits: 2, Late: 0, Early: 0, Misses: 0
e38-> Hits: 1, Late: 0, Early: 0, Misses: 0
e39-> Hits: 8, Late: 12, Early: 0, Misses: 0
e3a-> Hits: 1, Late: 0, Early: 0, Misses: 0
e3b-> Hits: 0, Late: 1, Early: 0, Misses: 0
e3c-> Hits: 6, Late: 1, Early: 0, Misses: 0
e3d-> Hits: 15, Late: 3, Early: 0, Misses: 0
e3e-> Hits: 2, Late: 0, Early: 0, Misses: 0
e3f-> Hits: 1, Late: 0, Early: 0, Misses: 0
e40-> Hits: 6, Late: 1, Early: 0, Misses: 0
e41-> Hits: 3, Late: 12, Early: 0, Misses: 0
e42-> Hits: 2, Late: 0, Early: 0, Misses: 0
e44-> Hits: 3, Late: 0, Early: 0, Misses: 0
e45-> Hits: 1, Late: 1, Early: 0, Misses: 0
e47-> Hits: 2, Late: 0, Early: 0, Misses: 0
e48-> Hits: 3, Late: 0, Early: 0, Misses: 0
e49-> Hits: 0, Late: 12, Early: 0, Misses: 0
e4a-> Hits: 1, Late: 0, Early: 0, Misses: 0
e4c-> Hits: 0, Late: 1, Early: 0, Misses: 0
e4d-> Hits: 3, Late: 0, Early: 0, Misses: 0
e4f-> Hits: 2, Late: 0, Early: 0, Misses: 0
e50-> Hits: 0, Late: 3, Early: 0, Misses: 0
e51-> Hits: 2, Late: 0, Early: 0, Misses: 0
e54-> Hits: 1, Late: 0, Early: 0, Misses: 0
e55-> Hits: 3, Late: 0, Early: 0, Misses: 0
e57-> Hits: 8, Late: 0, Early: 0, Misses: 0
e58-> Hits: 2, Late: 0, Early: 0, Misses: 0
e59-> Hits: 20, Late: 0, Early: 0, Misses: 0
e5a-> Hits: 22, Late: 0, Early: 0, Misses: 0
e5b-> Hits: 22, Late: 0, Early: 0, Misses: 0
e5c-> Hits: 2, Late: 0, Early: 0, Misses: 0
e5d-> Hits: 20, Late: 0, Early: 0, Misses: 0
e5e-> Hits: 7, Late: 0, Early: 0, Misses: 0
e5f-> Hits: 20, Late: 0, Early: 0, Misses: 0
e60-> Hits: 6, Late: 2, Early: 0, Misses: 0
e61-> Hits: 22, Late: 0, Early: 0, Misses: 0
e62-> Hits: 2, Late: 0, Early: 0, Misses: 0
e63-> Hits: 26, Late: 0, Early: 0, Misses: 0
e64-> Hits: 0, Late: 1, Early: 0, Misses: 0
e65-> Hits: 6, Late: 0, Early: 0, Misses: 0
e68-> Hits: 2, Late: 0, Early: 0, Misses: 0
e6b-> Hits: 1, Late: 0, Early: 0, Misses: 0
e6c-> Hits: 1, Late: 0, Early: 0, Misses: 0
e6f-> Hits: 2, Late: 0, Early: 0, Misses: 0
e70-> Hits: 5, Late: 1, Early: 0, Misses: 0
e71-> Hits: 6, Late: 0, Early: 0, Misses: 0
e72-> Hits: 28, Late: 0, Early: 0, Misses: 0
e73-> Hits: 2, Late: 0, Early: 0, Misses: 0
e74-> Hits: 5, Late: 0, Early: 0, Misses: 0
e75-> Hits: 6, Late: 0, Early: 0, Misses: 0
e76-> Hits: 6, Late: 0, Early: 0, Misses: 0
e77-> Hits: 1, Late: 0, Early: 0, Misses: 0
e79-> Hits: 2, Late: 0, Early: 0, Misses: 0
e7a-> Hits: 1, Late: 0, Early: 0, Misses: 0
e7b-> Hits: 1, Late: 0, Early: 0, Misses: 0
e7d-> Hits: 12, Late: 0, Early: 0, Misses: 10
e7e-> Hits: 22, Late: 0, Early: 0, Misses: 0
e7f-> Hits: 24, Late: 0, Early: 0, Misses: 0
e80-> Hits: 1, Late: 0, Early: 0, Misses: 0
e81-> Hits: 28, Late: 0, Early: 0, Misses: 0
e82-> Hits: 4, Late: 0, Early: 0, Misses: 0
e83-> Hits: 25, Late: 0, Early: 0, Misses: 0
e84-> Hits: 14, Late: 0, Early: 0, Misses: 0
e85-> Hits: 0, Late: 12, Early: 0, Misses: 10
e86-> Hits: 3, Late: 0, Early: 0, Misses: 0
e87-> Hits: 22, Late: 0, Early: 0, Misses: 0
e88-> Hits: 14, Late: 0, Early: 0, Misses: 0
e8a-> Hits: 3, Late: 0, Early: 0, Misses: 0
e8b-> Hits: 2, Late: 0, Early: 0, Misses: 0
e8d-> Hits: 1, Late: 0, Early: 0, Misses: 0
e90-> Hits: 2, Late: 0, Early: 0, Misses: 0
e91-> Hits: 2, Late: 0, Early: 0, Misses: 0
e92-> Hits: 4, Late: 0, Early: 0, Misses: 0
e94-> Hits: 4, Late: 0, Early: 0, Misses: 0
e95-> Hits: 1, Late: 0, Early: 0, Misses: 0
e96-> Hits: 1, Late: 0, Early: 0, Misses: 0
e97-> Hits: 2, Late: 0, Early: 0, Misses: 0
e98-> Hits: 2, Late: 0, Early: 0, Misses: 0
e99-> Hits: 3, Late: 0, Early: 0, Misses: 0
e9a-> Hits: 2, Late: 0, Early: 0, Misses: 0
e9b-> Hits: 1, Late: 0, Early: 0, Misses: 0
e9d-> Hits: 1, Late: 0, Early: 0, Misses: 0
e9f-> Hits: 1, Late: 0, Early: 0, Misses: 0
ea0-> Hits: 0, Late: 1, Early: 0, Misses: 0
ea1-> Hits: 16, Late: 0, Early: 0, Misses: 0
ea2-> Hits: 2, Late: 0, Early: 0, Misses: 0
ea5-> Hits: 1, Late: 0, Early: 0, Misses: 0
ea6-> Hits: 0, Late: 1, Early: 0, Misses: 0
ea7-> Hits: 1, Late: 0, Early: 0, Misses: 0
ea8-> Hits: 0, Late: 1, Early: 0, Misses: 0
ea9-> Hits: 3, Late: 0, Early: 0, Misses: 0
eaa-> Hits: 1, Late: 0, Early: 0, Misses: 0
eab-> Hits: 5, Late: 0, Early: 0, Misses: 0
eac-> Hits: 1, Late: 0, Early: 0, Misses: 0
eae-> Hits: 1, Late: 0, Early: 0, Misses: 0
eaf-> Hits: 0, Late: 1, Early: 0, Misses: 0
eb0-> Hits: 6018, Late: 2934, Early: 0, Misses: 0
eb3-> Hits: 1, Late: 0, Early: 0, Misses: 0
eb4-> Hits: 1, Late: 0, Early: 0, Misses: 0
eb5-> Hits: 6007, Late: 1945, Early: 0, Misses: 0
eb6-> Hits: 4, Late: 1, Early: 0, Misses: 0
eb8-> Hits: 1, Late: 0, Early: 0, Misses: 0
eba-> Hits: 5409, Late: 3457, Early: 0, Misses: 0
ebc-> Hits: 4, Late: 0, Early: 0, Misses: 0
ebd-> Hits: 1, Late: 0, Early: 0, Misses: 0
ebe-> Hits: 2, Late: 0, Early: 0, Misses: 0
ebf-> Hits: 2, Late: 1, Early: 0, Misses: 0
ec0-> Hits: 5763, Late: 2507, Early: 0, Misses: 0
ec1-> Hits: 13, Late: 0, Early: 0, Misses: 0
ec2-> Hits: 1, Late: 1, Early: 0, Misses: 0
ec3-> Hits: 2, Late: 0, Early: 0, Misses: 0
ec4-> Hits: 1, Late: 1, Early: 0, Misses: 0
ec5-> Hits: 6, Late: 0, Early: 0, Misses: 0
ec6-> Hits: 4830, Late: 3977, Early: 0, Misses: 0
ec7-> Hits: 1, Late: 1, Early: 0, Misses: 0
ec8-> Hits: 1, Late: 0, Early: 0, Misses: 0
eca-> Hits: 1, Late: 0, Early: 0, Misses: 0
ecb-> Hits: 0, Late: 1, Early: 0, Misses: 0
ecc-> Hits: 5173, Late: 3020, Early: 0, Misses: 0
ecd-> Hits: 1, Late: 0, Early: 0, Misses: 0
ece-> Hits: 0, Late: 1, Early: 0, Misses: 0
ecf-> Hits: 3, Late: 0, Early: 0, Misses: 0
ed0-> Hits: 2, Late: 0, Early: 0, Misses: 0
ed1-> Hits: 15, Late: 0, Early: 0, Misses: 0
ed2-> Hits: 3715, Late: 4917, Early: 0, Misses: 0
ed3-> Hits: 2, Late: 0, Early: 0, Misses: 0
ed5-> Hits: 5, Late: 1, Early: 0, Misses: 0
ed6-> Hits: 2, Late: 0, Early: 0, Misses: 0
ed7-> Hits: 2, Late: 1, Early: 0, Misses: 0
ed8-> Hits: 4770, Late: 3330, Early: 0, Misses: 12
ed9-> Hits: 5, Late: 0, Early: 0, Misses: 0
edb-> Hits: 2, Late: 0, Early: 0, Misses: 0
edc-> Hits: 3, Late: 0, Early: 0, Misses: 0
edf-> Hits: 0, Late: 1, Early: 0, Misses: 0
ee0-> Hits: 6, Late: 1, Early: 0, Misses: 12
ee1-> Hits: 6, Late: 12, Early: 0, Misses: 0
ee2-> Hits: 3, Late: 0, Early: 0, Misses: 0
ee3-> Hits: 5, Late: 0, Early: 0, Misses: 0
ee4-> Hits: 8, Late: 0, Early: 0, Misses: 0
ee5-> Hits: 5, Late: 0, Early: 0, Misses: 0
ee7-> Hits: 5, Late: 0, Early: 0, Misses: 0
ee8-> Hits: 1, Late: 0, Early: 0, Misses: 0
ee9-> Hits: 6, Late: 0, Early: 0, Misses: 0
eea-> Hits: 5, Late: 0, Early: 0, Misses: 0
eeb-> Hits: 2, Late: 0, Early: 0, Misses: 0
eec-> Hits: 2, Late: 0, Early: 0, Misses: 0
eed-> Hits: 2, Late: 0, Early: 0, Misses: 0
eee-> Hits: 2, Late: 0, Early: 0, Misses: 0
eef-> Hits: 16, Late: 0, Early: 0, Misses: 0
ef0-> Hits: 5, Late: 0, Early: 0, Misses: 0
ef1-> Hits: 2, Late: 0, Early: 0, Misses: 0
ef2-> Hits: 3, Late: 0, Early: 0, Misses: 0
ef3-> Hits: 1, Late: 0, Early: 0, Misses: 0
ef4-> Hits: 9, Late: 0, Early: 0, Misses: 0
ef5-> Hits: 1, Late: 0, Early: 0, Misses: 0
ef6-> Hits: 2, Late: 0, Early: 0, Misses: 0
ef7-> Hits: 2, Late: 0, Early: 0, Misses: 0
ef8-> Hits: 3, Late: 2, Early: 0, Misses: 0
ef9-> Hits: 1, Late: 0, Early: 0, Misses: 0
efa-> Hits: 6, Late: 0, Early: 0, Misses: 0
efb-> Hits: 5, Late: 0, Early: 0, Misses: 0
efc-> Hits: 4, Late: 0, Early: 0, Misses: 0
efd-> Hits: 2, Late: 0, Early: 0, Misses: 0
efe-> Hits: 3663, Late: 8594, Early: 0, Misses: 0
eff-> Hits: 6, Late: 0, Early: 0, Misses: 0
f00-> Hits: 4, Late: 0, Early: 0, Misses: 0
f01-> Hits: 4, Late: 0, Early: 0, Misses: 0
f02-> Hits: 4, Late: 0, Early: 0, Misses: 0
f03-> Hits: 1, Late: 1, Early: 0, Misses: 0
f04-> Hits: 6, Late: 0, Early: 0, Misses: 0
f05-> Hits: 3, Late: 0, Early: 0, Misses: 0
f06-> Hits: 7, Late: 0, Early: 0, Misses: 0
f07-> Hits: 2, Late: 0, Early: 0, Misses: 0
f08-> Hits: 4, Late: 0, Early: 0, Misses: 0
f09-> Hits: 9, Late: 0, Early: 0, Misses: 0
f0b-> Hits: 2, Late: 0, Early: 0, Misses: 0
f0c-> Hits: 4, Late: 4, Early: 0, Misses: 0
f0d-> Hits: 2, Late: 0, Early: 0, Misses: 0
f10-> Hits: 39, Late: 4, Early: 0, Misses: 0
f13-> Hits: 34, Late: 0, Early: 0, Misses: 0
f15-> Hits: 1, Late: 0, Early: 0, Misses: 0
f16-> Hits: 1, Late: 0, Early: 0, Misses: 0
f17-> Hits: 7, Late: 0, Early: 0, Misses: 12
f18-> Hits: 1, Late: 0, Early: 0, Misses: 0
f19-> Hits: 4, Late: 4, Early: 0, Misses: 0
f1c-> Hits: 1, Late: 0, Early: 0, Misses: 0
f1e-> Hits: 3, Late: 0, Early: 0, Misses: 0
f20-> Hits: 125, Late: 46, Early: 0, Misses: 0
f21-> Hits: 18, Late: 0, Early: 0, Misses: 0
f22-> Hits: 7, Late: 0, Early: 0, Misses: 0
f23-> Hits: 2, Late: 0, Early: 0, Misses: 0
f24-> Hits: 38, Late: 0, Early: 0, Misses: 0
f25-> Hits: 153, Late: 13, Early: 0, Misses: 0
f26-> Hits: 1, Late: 0, Early: 0, Misses: 0
f27-> Hits: 10, Late: 0, Early: 0, Misses: 0
f28-> Hits: 3, Late: 0, Early: 0, Misses: 0
f29-> Hits: 12, Late: 120, Early: 0, Misses: 0
f2a-> Hits: 135, Late: 41, Early: 0, Misses: 0
f2b-> Hits: 12, Late: 1, Early: 0, Misses: 0
f2f-> Hits: 5, Late: 0, Early: 0, Misses: 0
f30-> Hits: 158, Late: 20, Early: 0, Misses: 0
f31-> Hits: 123, Late: 1, Early: 0, Misses: 0
f32-> Hits: 36, Late: 0, Early: 0, Misses: 0
f33-> Hits: 9, Late: 0, Early: 0, Misses: 0
f34-> Hits: 1, Late: 2, Early: 0, Misses: 0
f37-> Hits: 10, Late: 0, Early: 0, Misses: 0
f39-> Hits: 3, Late: 0, Early: 0, Misses: 0
f3b-> Hits: 8, Late: 0, Early: 0, Misses: 0
f3c-> Hits: 8, Late: 0, Early: 0, Misses: 0
f3d-> Hits: 36, Late: 0, Early: 0, Misses: 2
f3e-> Hits: 5, Late: 0, Early: 0, Misses: 0
f3f-> Hits: 10, Late: 0, Early: 0, Misses: 0
f40-> Hits: 123, Late: 42, Early: 0, Misses: 0
f41-> Hits: 8, Late: 0, Early: 0, Misses: 0
f43-> Hits: 10, Late: 0, Early: 0, Misses: 0
f44-> Hits: 4, Late: 0, Early: 0, Misses: 0
f45-> Hits: 154, Late: 13, Early: 0, Misses: 0
f49-> Hits: 2, Late: 0, Early: 0, Misses: 0
f4a-> Hits: 98, Late: 67, Early: 0, Misses: 0
f4c-> Hits: 0, Late: 1, Early: 0, Misses: 0
f50-> Hits: 142, Late: 19, Early: 0, Misses: 0
f53-> Hits: 7, Late: 0, Early: 0, Misses: 0
f54-> Hits: 2, Late: 0, Early: 0, Misses: 0
f59-> Hits: 0, Late: 132, Early: 0, Misses: 1
f5a-> Hits: 16, Late: 0, Early: 0, Misses: 0
f5b-> Hits: 1, Late: 0, Early: 0, Misses: 0
f5d-> Hits: 1, Late: 0, Early: 0, Misses: 0
f5f-> Hits: 126, Late: 39, Early: 0, Misses: 0
f60-> Hits: 13, Late: 2, Early: 0, Misses: 0
f61-> Hits: 1, Late: 0, Early: 0, Misses: 0
f63-> Hits: 2, Late: 0, Early: 0, Misses: 0
f64-> Hits: 142, Late: 135, Early: 0, Misses: 12
f65-> Hits: 4, Late: 1, Early: 0, Misses: 0
f66-> Hits: 3, Late: 0, Early: 0, Misses: 0
f68-> Hits: 2, Late: 0, Early: 0, Misses: 0
f69-> Hits: 98, Late: 65, Early: 0, Misses: 0
f6c-> Hits: 25, Late: 1, Early: 0, Misses: 0
f6d-> Hits: 18, Late: 0, Early: 0, Misses: 0
f6f-> Hits: 146, Late: 24, Early: 0, Misses: 0
f70-> Hits: 0, Late: 14, Early: 0, Misses: 0
f73-> Hits: 1, Late: 1, Early: 0, Misses: 0
f74-> Hits: 8, Late: 114, Early: 0, Misses: 12
f78-> Hits: 2, Late: 0, Early: 0, Misses: 1
f7a-> Hits: 4, Late: 0, Early: 0, Misses: 0
f7d-> Hits: 99, Late: 32, Early: 0, Misses: 1
f7e-> Hits: 124, Late: 35, Early: 0, Misses: 0
f7f-> Hits: 3, Late: 1, Early: 0, Misses: 0
f80-> Hits: 4, Late: 1, Early: 0, Misses: 0
f83-> Hits: 134, Late: 16, Early: 0, Misses: 0
f85-> Hits: 3, Late: 0, Early: 0, Misses: 0
f86-> Hits: 4, Late: 0, Early: 0, Misses: 0
f87-> Hits: 14, Late: 0, Early: 0, Misses: 0
f88-> Hits: 99, Late: 59, Early: 0, Misses: 0
f89-> Hits: 1, Late: 0, Early: 0, Misses: 0
f8b-> Hits: 4, Late: 0, Early: 0, Misses: 10
f8c-> Hits: 6, Late: 0, Early: 0, Misses: 0
f8d-> Hits: 4, Late: 0, Early: 0, Misses: 0
f8e-> Hits: 134, Late: 19, Early: 0, Misses: 0
f8f-> Hits: 1, Late: 0, Early: 0, Misses: 0
f90-> Hits: 6, Late: 0, Early: 0, Misses: 0
f91-> Hits: 1, Late: 0, Early: 0, Misses: 0
f92-> Hits: 2, Late: 0, Early: 0, Misses: 0
f93-> Hits: 6, Late: 0, Early: 0, Misses: 0
f94-> Hits: 1, Late: 0, Early: 0, Misses: 0
f95-> Hits: 0, Late: 2, Early: 0, Misses: 0
f96-> Hits: 1, Late: 0, Early: 0, Misses: 0
f98-> Hits: 1, Late: 0, Early: 0, Misses: 0
f9a-> Hits: 16, Late: 0, Early: 0, Misses: 0
f9c-> Hits: 3, Late: 0, Early: 0, Misses: 0
f9d-> Hits: 17, Late: 3, Early: 0, Misses: 0
f9e-> Hits: 1, Late: 0, Early: 0, Misses: 0
f9f-> Hits: 4, Late: 0, Early: 0, Misses: 0
fa0-> Hits: 5, Late: 1, Early: 0, Misses: 0
fa1-> Hits: 1, Late: 0, Early: 0, Misses: 0
fa4-> Hits: 1, Late: 0, Early: 0, Misses: 0
faa-> Hits: 3, Late: 0, Early: 0, Misses: 0
fb0-> Hits: 1230, Late: 123, Early: 0, Misses: 618
fb1-> Hits: 3, Late: 3, Early: 0, Misses: 0
fb3-> Hits: 10, Late: 0, Early: 0, Misses: 0
fb8-> Hits: 4, Late: 1, Early: 0, Misses: 0
fba-> Hits: 24, Late: 2, Early: 0, Misses: 0
fbb-> Hits: 11, Late: 1, Early: 0, Misses: 0
fbd-> Hits: 1, Late: 0, Early: 0, Misses: 0
fbe-> Hits: 1, Late: 0, Early: 0, Misses: 0
fbf-> Hits: 2, Late: 0, Early: 0, Misses: 0
fc0-> Hits: 4, Late: 0, Early: 0, Misses: 0
fc1-> Hits: 192, Late: 0, Early: 0, Misses: 0
fc4-> Hits: 10, Late: 0, Early: 0, Misses: 0
fc5-> Hits: 3, Late: 0, Early: 0, Misses: 0
fc6-> Hits: 2, Late: 0, Early: 0, Misses: 0
fc7-> Hits: 2, Late: 0, Early: 0, Misses: 0
fc8-> Hits: 9, Late: 0, Early: 0, Misses: 0
fca-> Hits: 2, Late: 0, Early: 0, Misses: 0
fcb-> Hits: 1, Late: 0, Early: 0, Misses: 0
fcd-> Hits: 1, Late: 1, Early: 0, Misses: 0
fce-> Hits: 1, Late: 0, Early: 0, Misses: 0
fd0-> Hits: 4, Late: 0, Early: 0, Misses: 0
fd2-> Hits: 1, Late: 0, Early: 0, Misses: 0
fd5-> Hits: 192, Late: 0, Early: 0, Misses: 0
fd6-> Hits: 6, Late: 0, Early: 0, Misses: 0
fd7-> Hits: 6, Late: 0, Early: 0, Misses: 0
fd8-> Hits: 10, Late: 0, Early: 0, Misses: 0
fda-> Hits: 6, Late: 0, Early: 0, Misses: 0
fdc-> Hits: 7, Late: 1, Early: 0, Misses: 0
fde-> Hits: 8, Late: 0, Early: 0, Misses: 0
fdf-> Hits: 12, Late: 1, Early: 0, Misses: 0
fe0-> Hits: 7, Late: 0, Early: 0, Misses: 0
fe1-> Hits: 4, Late: 0, Early: 0, Misses: 0
fe2-> Hits: 2, Late: 0, Early: 0, Misses: 0
fe3-> Hits: 4, Late: 0, Early: 0, Misses: 0
fe4-> Hits: 11, Late: 1, Early: 0, Misses: 0
fe5-> Hits: 6, Late: 7, Early: 0, Misses: 0
fe6-> Hits: 2, Late: 0, Early: 0, Misses: 0
fe7-> Hits: 1, Late: 1, Early: 0, Misses: 0
fe8-> Hits: 94, Late: 52, Early: 0, Misses: 0
feb-> Hits: 1, Late: 2, Early: 0, Misses: 0
fec-> Hits: 5, Late: 0, Early: 0, Misses: 0
fed-> Hits: 126, Late: 22, Early: 0, Misses: 0
fee-> Hits: 1, Late: 0, Early: 0, Misses: 0
fef-> Hits: 0, Late: 1, Early: 0, Misses: 0
ff0-> Hits: 7, Late: 0, Early: 0, Misses: 0
ff2-> Hits: 120, Late: 56, Early: 0, Misses: 0
ff3-> Hits: 14, Late: 0, Early: 0, Misses: 0
ff5-> Hits: 1, Late: 0, Early: 0, Misses: 0
ff7-> Hits: 4, Late: 0, Early: 0, Misses: 0
ff8-> Hits: 117, Late: 24, Early: 0, Misses: 0
ff9-> Hits: 5, Late: 0, Early: 0, Misses: 0
ffd-> Hits: 2, Late: 0, Early: 0, Misses: 0
ffe-> Hits: 132, Late: 0, Early: 0, Misses: 0
fff-> Hits: 12, Late: 0, Early: 0, Misses: 0
Total misses (from ip) 848919
Total accesses (misses) 32036762 3280197
Pref: Addr 0 IP 0 Current 0
CPU 3 L2C berti prefetcher final stats
Channel_0_RQ_row_buffer_hit 523617
Channel_0_RQ_row_buffer_miss 563226
Channel_0_WQ_row_buffer_hit 177504
Channel_0_WQ_row_buffer_miss 396060
Channel_0_WQ_full 3583
Channel_0_dbus_congested 1201779

avg_congested_cycle 11

EzSearch AVG IPC :0.56722: L2-Pf-HR :0.74933 : L2-HR :0.82048 Uful:0.21539
EzSearch AVG IPC :0.63253: L2-Pf-HR :0.75865 : L2-HR :0.83310 Uful:0.23918
EzSearch AVG IPC :0.58413: L2-Pf-HR :0.77886 : L2-HR :0.83093 Uful:0.22026
EzSearch AVG IPC :0.58128: L2-Pf-HR :0.77767 : L2-HR :0.83140 Uful:0.22043
     > Finished combination: TraceType=770-tot Sim:27000000 Prefetcher=L2berti L1=berti
