TRACE: [83000000][Pythia-70M]_[h8][s512][d64] Warmup: 2000000 NumTraces: 83000000
L1:ipcp:L2:ipcp
*************************************************
   ChampSim Multicore Out-of-Order Simulator
   Last compiled: Oct 29 2024 15:40:58
*************************************************

trace_0 770-tot_memTraces_v3_rexz/memTraces[83000000][Pythia-70M]_[h8][s512][d64].champsim.9.xz
trace_1 770-tot_memTraces_v3_rexz/memTraces[83000000][Pythia-70M]_[h8][s512][d64].champsim.9.xz
trace_2 770-tot_memTraces_v3_rexz/memTraces[83000000][Pythia-70M]_[h8][s512][d64].champsim.9.xz
trace_3 770-tot_memTraces_v3_rexz/memTraces[83000000][Pythia-70M]_[h8][s512][d64].champsim.9.xz
MAIN.cc ln 751 stats print skipped
CPU  0 inst:    1000003 cyc:     500690 now IPC :1.99725: AVG IPC :1.99725: L2-Pf-HR :0.80413: L2-HR :0.75799: (Sim:0h0m42s) 
CPU  1 inst:    1000003 cyc:     500856 now IPC :1.99659: AVG IPC :1.99659: L2-Pf-HR :0.81874: L2-HR :0.75877: (Sim:0h0m42s) 
CPU  2 inst:    1000003 cyc:     500968 now IPC :1.99614: AVG IPC :1.99614: L2-Pf-HR :0.81434: L2-HR :0.74428: (Sim:0h0m42s) 
CPU  3 inst:    1000003 cyc:     500970 now IPC :1.99613: AVG IPC :1.99613: L2-Pf-HR :0.83439: L2-HR :0.75833: (Sim:0h0m42s) 
CPU  0 inst:    2000001 cyc:     983780 now IPC :2.07000: AVG IPC :2.03298: L2-Pf-HR :0.85690: L2-HR :0.80383: (Sim:0h1m27s) 
CPU  1 inst:    2000001 cyc:     983967 now IPC :2.06991: AVG IPC :2.03259: L2-Pf-HR :0.87696: L2-HR :0.80618: (Sim:0h1m27s) 
CPU  2 inst:    2000001 cyc:     984031 now IPC :2.07012: AVG IPC :2.03246: L2-Pf-HR :0.86999: L2-HR :0.78908: (Sim:0h1m27s) 
CPU  3 inst:    2000001 cyc:     984131 now IPC :2.06970: AVG IPC :2.03225: L2-Pf-HR :0.89470: L2-HR :0.80600: (Sim:0h1m27s) 

Warmup complete CPU  0 instructions:    2000764 cycles:     984131 (Simulation time: 0 hr 1 min 27 sec) 
Warmup complete CPU  1 instructions:    2000282 cycles:     984131 (Simulation time: 0 hr 1 min 27 sec) 
Warmup complete CPU  2 instructions:    2000282 cycles:     984131 (Simulation time: 0 hr 1 min 27 sec) 
Warmup complete CPU  3 instructions:    2000001 cycles:     984131 (Simulation time: 0 hr 1 min 27 sec) 

CPU  0 inst:    3000004 cyc:    1782861 now IPC :1.25144: AVG IPC :1.25104: L2-Pf-HR :0.93382: L2-HR :0.84388: (Sim:0h2m10s) 
CPU  1 inst:    3000004 cyc:    1783890 now IPC :1.25012: AVG IPC :1.25003: L2-Pf-HR :0.95580: L2-HR :0.85000: (Sim:0h2m10s) 
CPU  2 inst:    3000004 cyc:    1787534 now IPC :1.24455: AVG IPC :1.24436: L2-Pf-HR :0.92237: L2-HR :0.83038: (Sim:0h2m10s) 
CPU  3 inst:    3000004 cyc:    1796737 now IPC :1.23061: AVG IPC :1.23061: L2-Pf-HR :0.95824: L2-HR :0.85080: (Sim:0h2m11s) 
CPU  0 inst:    4000005 cyc:    2538705 now IPC :1.32303: AVG IPC :1.28604: L2-Pf-HR :0.92298: L2-HR :0.82984: (Sim:0h2m52s) 
CPU  2 inst:    4000005 cyc:    2551851 now IPC :1.30836: AVG IPC :1.27556: L2-Pf-HR :0.91515: L2-HR :0.82575: (Sim:0h2m53s) 
CPU  1 inst:    4000005 cyc:    2552480 now IPC :1.30109: AVG IPC :1.27505: L2-Pf-HR :0.94167: L2-HR :0.84030: (Sim:0h2m53s) 
CPU  3 inst:    4000005 cyc:    2553290 now IPC :1.32179: AVG IPC :1.27457: L2-Pf-HR :0.93855: L2-HR :0.83588: (Sim:0h2m53s) 
CPU  0 inst:    5000000 cyc:    3340274 now IPC :1.24755: AVG IPC :1.27294: L2-Pf-HR :0.92791: L2-HR :0.83718: (Sim:0h3m36s) 
CPU  3 inst:    5000000 cyc:    3361418 now IPC :1.23742: AVG IPC :1.26194: L2-Pf-HR :0.93807: L2-HR :0.83874: (Sim:0h3m37s) 
CPU  2 inst:    5000003 cyc:    3362638 now IPC :1.23337: AVG IPC :1.26118: L2-Pf-HR :0.91898: L2-HR :0.83408: (Sim:0h3m37s) 
CPU  1 inst:    5000003 cyc:    3366852 now IPC :1.22794: AVG IPC :1.25895: L2-Pf-HR :0.93443: L2-HR :0.83516: (Sim:0h3m38s) 
CPU  0 inst:    6000001 cyc:    4109801 now IPC :1.29950: AVG IPC :1.27948: L2-Pf-HR :0.93783: L2-HR :0.84839: (Sim:0h4m20s) 
CPU  2 inst:    6000001 cyc:    4140571 now IPC :1.28546: AVG IPC :1.26716: L2-Pf-HR :0.92713: L2-HR :0.84565: (Sim:0h4m21s) 
CPU  3 inst:    6000001 cyc:    4140775 now IPC :1.28311: AVG IPC :1.26717: L2-Pf-HR :0.94608: L2-HR :0.84604: (Sim:0h4m21s) 
CPU  1 inst:    6000001 cyc:    4145238 now IPC :1.28471: AVG IPC :1.26529: L2-Pf-HR :0.94433: L2-HR :0.84545: (Sim:0h4m21s) 
CPU  0 inst:    7000002 cyc:    4862714 now IPC :1.32818: AVG IPC :1.28893: L2-Pf-HR :0.93941: L2-HR :0.85214: (Sim:0h5m2s) 
CPU  2 inst:    7000002 cyc:    4909812 now IPC :1.29998: AVG IPC :1.27359: L2-Pf-HR :0.93043: L2-HR :0.85000: (Sim:0h5m5s) 
CPU  1 inst:    7000002 cyc:    4913274 now IPC :1.30202: AVG IPC :1.27247: L2-Pf-HR :0.94899: L2-HR :0.84888: (Sim:0h5m5s) 
CPU  3 inst:    7000002 cyc:    4914646 now IPC :1.29221: AVG IPC :1.27210: L2-Pf-HR :0.94876: L2-HR :0.84745: (Sim:0h5m5s) 
CPU  0 inst:    8000001 cyc:    5557424 now IPC :1.43945: AVG IPC :1.31180: L2-Pf-HR :0.93800: L2-HR :0.84971: (Sim:0h5m46s) 
CPU  2 inst:    8000001 cyc:    5640328 now IPC :1.36889: AVG IPC :1.28854: L2-Pf-HR :0.92690: L2-HR :0.84772: (Sim:0h5m52s) 
CPU  1 inst:    8000001 cyc:    5650636 now IPC :1.35618: AVG IPC :1.28570: L2-Pf-HR :0.94508: L2-HR :0.84551: (Sim:0h5m52s) 
CPU  3 inst:    8000001 cyc:    5653525 now IPC :1.35340: AVG IPC :1.28496: L2-Pf-HR :0.94488: L2-HR :0.84411: (Sim:0h5m53s) 
CPU  0 inst:    9000003 cyc:    6437535 now IPC :1.13622: AVG IPC :1.28346: L2-Pf-HR :0.93565: L2-HR :0.84883: (Sim:0h6m33s) 
CPU  2 inst:    9000001 cyc:    6682757 now IPC :0.95930: AVG IPC :1.22832: L2-Pf-HR :0.92658: L2-HR :0.84672: (Sim:0h6m47s) 
CPU  3 inst:    9000003 cyc:    6737872 now IPC :0.92222: AVG IPC :1.21660: L2-Pf-HR :0.94452: L2-HR :0.84430: (Sim:0h6m49s) 
CPU  1 inst:    9000003 cyc:    6744209 now IPC :0.91444: AVG IPC :1.21521: L2-Pf-HR :0.94504: L2-HR :0.84538: (Sim:0h6m49s) 
CPU  0 inst:   10000002 cyc:    7269006 now IPC :1.20269: AVG IPC :1.27278: L2-Pf-HR :0.93819: L2-HR :0.85303: (Sim:0h7m17s) 
CPU  2 inst:   10000002 cyc:    7658086 now IPC :1.02530: AVG IPC :1.19865: L2-Pf-HR :0.92974: L2-HR :0.85019: (Sim:0h7m38s) 
CPU  1 inst:   10000002 cyc:    7811645 now IPC :0.93682: AVG IPC :1.17169: L2-Pf-HR :0.94928: L2-HR :0.84954: (Sim:0h7m47s) 
CPU  3 inst:   10000002 cyc:    7813352 now IPC :0.92982: AVG IPC :1.17144: L2-Pf-HR :0.94892: L2-HR :0.84862: (Sim:0h7m47s) 
CPU  0 inst:   11000003 cyc:    8200334 now IPC :1.07374: AVG IPC :1.24709: L2-Pf-HR :0.93904: L2-HR :0.85413: (Sim:0h8m7s) 
CPU  2 inst:   11000003 cyc:    8510210 now IPC :1.17354: AVG IPC :1.19580: L2-Pf-HR :0.93143: L2-HR :0.85161: (Sim:0h8m23s) 
CPU  1 inst:   11000003 cyc:    8918394 now IPC :0.90355: AVG IPC :1.13429: L2-Pf-HR :0.95114: L2-HR :0.85117: (Sim:0h8m44s) 
CPU  3 inst:   11000003 cyc:    8918417 now IPC :0.90493: AVG IPC :1.13432: L2-Pf-HR :0.95109: L2-HR :0.85040: (Sim:0h8m44s) 
CPU  0 inst:   12000005 cyc:    9231988 now IPC :0.96932: AVG IPC :1.21234: L2-Pf-HR :0.93690: L2-HR :0.85252: (Sim:0h8m59s) 
CPU  2 inst:   12000005 cyc:    9512889 now IPC :0.99733: AVG IPC :1.17247: L2-Pf-HR :0.93022: L2-HR :0.85057: (Sim:0h9m13s) 
CPU  1 inst:   12000005 cyc:   10181365 now IPC :0.79179: AVG IPC :1.08725: L2-Pf-HR :0.94882: L2-HR :0.84985: (Sim:0h9m42s) 
CPU  3 inst:   12000005 cyc:   10214100 now IPC :0.77180: AVG IPC :1.08343: L2-Pf-HR :0.94972: L2-HR :0.84966: (Sim:0h9m43s) 
CPU  0 inst:   13000001 cyc:   10440236 now IPC :0.82764: AVG IPC :1.16319: L2-Pf-HR :0.93565: L2-HR :0.85109: (Sim:0h9m55s) 
CPU  2 inst:   13000001 cyc:   10783397 now IPC :0.78708: AVG IPC :1.12250: L2-Pf-HR :0.92943: L2-HR :0.84934: (Sim:0h10m8s) 
CPU  1 inst:   13000001 cyc:   11549774 now IPC :0.73077: AVG IPC :1.04108: L2-Pf-HR :0.94770: L2-HR :0.84823: (Sim:0h10m38s) 
CPU  0 inst:   14000002 cyc:   11554245 now IPC :0.89766: AVG IPC :1.13520: L2-Pf-HR :0.93642: L2-HR :0.85241: (Sim:0h10m38s) 
CPU  3 inst:   13000001 cyc:   11609162 now IPC :0.71681: AVG IPC :1.03529: L2-Pf-HR :0.94858: L2-HR :0.84842: (Sim:0h10m39s) 
CPU  2 inst:   14000005 cyc:   11991700 now IPC :0.82761: AVG IPC :1.09013: L2-Pf-HR :0.93111: L2-HR :0.85095: (Sim:0h10m58s) 
CPU  0 inst:   15000003 cyc:   12527131 now IPC :1.02787: AVG IPC :1.12616: L2-Pf-HR :0.93753: L2-HR :0.85361: (Sim:0h11m23s) 
CPU  1 inst:   14000002 cyc:   12868138 now IPC :0.75852: AVG IPC :1.00974: L2-Pf-HR :0.94920: L2-HR :0.84929: (Sim:0h11m39s) 
CPU  3 inst:   14000003 cyc:   12968491 now IPC :0.73566: AVG IPC :1.00131: L2-Pf-HR :0.94995: L2-HR :0.85014: (Sim:0h11m43s) 
CPU  2 inst:   15000003 cyc:   13352165 now IPC :0.73504: AVG IPC :1.05107: L2-Pf-HR :0.93229: L2-HR :0.85266: (Sim:0h12m1s) 
CPU  0 inst:   16000000 cyc:   13673797 now IPC :0.87209: AVG IPC :1.10320: L2-Pf-HR :0.93616: L2-HR :0.85276: (Sim:0h12m17s) 
CPU  1 inst:   15000003 cyc:   13978773 now IPC :0.90039: AVG IPC :1.00039: L2-Pf-HR :0.94927: L2-HR :0.85002: (Sim:0h12m32s) 
CPU  3 inst:   15000003 cyc:   14158670 now IPC :0.84021: AVG IPC :0.98675: L2-Pf-HR :0.95050: L2-HR :0.85115: (Sim:0h12m39s) 
CPU  2 inst:   16000000 cyc:   14478081 now IPC :0.88816: AVG IPC :1.03748: L2-Pf-HR :0.93181: L2-HR :0.85227: (Sim:0h12m48s) 
CPU  0 inst:   17000000 cyc:   14808498 now IPC :0.88129: AVG IPC :1.08499: L2-Pf-HR :0.93447: L2-HR :0.85100: (Sim:0h12m59s) 
CPU  1 inst:   16000000 cyc:   15036318 now IPC :0.94558: AVG IPC :0.99627: L2-Pf-HR :0.94793: L2-HR :0.84890: (Sim:0h13m9s) 
CPU  3 inst:   16000000 cyc:   15217902 now IPC :0.94408: AVG IPC :0.98358: L2-Pf-HR :0.94933: L2-HR :0.85054: (Sim:0h13m14s) 
CPU  2 inst:   17000000 cyc:   15608681 now IPC :0.88449: AVG IPC :1.02565: L2-Pf-HR :0.93041: L2-HR :0.85054: (Sim:0h13m27s) 
CPU  0 inst:   18000000 cyc:   16006045 now IPC :0.83504: AVG IPC :1.06506: L2-Pf-HR :0.93529: L2-HR :0.85217: (Sim:0h13m44s) 
CPU  1 inst:   17000000 cyc:   16215090 now IPC :0.84834: AVG IPC :0.98482: L2-Pf-HR :0.94666: L2-HR :0.84716: (Sim:0h13m54s) 
CPU  3 inst:   17000000 cyc:   16541890 now IPC :0.75529: AVG IPC :0.96415: L2-Pf-HR :0.94792: L2-HR :0.84864: (Sim:0h14m9s) 
CPU  2 inst:   18000000 cyc:   16909066 now IPC :0.76900: AVG IPC :1.00470: L2-Pf-HR :0.93163: L2-HR :0.85220: (Sim:0h14m27s) 
CPU  0 inst:   19000000 cyc:   17184177 now IPC :0.84880: AVG IPC :1.04933: L2-Pf-HR :0.93550: L2-HR :0.85294: (Sim:0h14m40s) 
CPU  1 inst:   18000000 cyc:   17212498 now IPC :1.00260: AVG IPC :0.98591: L2-Pf-HR :0.94802: L2-HR :0.84875: (Sim:0h14m42s) 
CPU  3 inst:   18000000 cyc:   17826247 now IPC :0.77860: AVG IPC :0.95000: L2-Pf-HR :0.94944: L2-HR :0.85017: (Sim:0h15m11s) 
CPU  2 inst:   19000000 cyc:   18188837 now IPC :0.78139: AVG IPC :0.98809: L2-Pf-HR :0.93267: L2-HR :0.85292: (Sim:0h15m25s) 
CPU  1 inst:   19000000 cyc:   18323711 now IPC :0.89992: AVG IPC :0.98040: L2-Pf-HR :0.94881: L2-HR :0.84923: (Sim:0h15m31s) 
CPU  0 inst:   20000000 cyc:   18393060 now IPC :0.82721: AVG IPC :1.03391: L2-Pf-HR :0.93470: L2-HR :0.85306: (Sim:0h15m34s) 
CPU  3 inst:   19000000 cyc:   19224089 now IPC :0.71539: AVG IPC :0.93202: L2-Pf-HR :0.94901: L2-HR :0.85075: (Sim:0h16m12s) 
CPU  2 inst:   20000000 cyc:   19424566 now IPC :0.80924: AVG IPC :0.97610: L2-Pf-HR :0.93242: L2-HR :0.85329: (Sim:0h16m22s) 
CPU  1 inst:   20000000 cyc:   19525175 now IPC :0.83232: AVG IPC :0.97080: L2-Pf-HR :0.94782: L2-HR :0.84940: (Sim:0h16m28s) 
CPU  0 inst:   21000000 cyc:   19581182 now IPC :0.84166: AVG IPC :1.02163: L2-Pf-HR :0.93320: L2-HR :0.85111: (Sim:0h16m30s) 
CPU  3 inst:   20000000 cyc:   20342434 now IPC :0.89418: AVG IPC :0.92983: L2-Pf-HR :0.94858: L2-HR :0.85111: (Sim:0h17m8s) 
CPU  2 inst:   21000000 cyc:   20569381 now IPC :0.87350: AVG IPC :0.97010: L2-Pf-HR :0.93095: L2-HR :0.85156: (Sim:0h17m20s) 
CPU  0 inst:   22000004 cyc:   20660230 now IPC :0.92675: AVG IPC :1.01642: L2-Pf-HR :0.93420: L2-HR :0.85215: (Sim:0h17m25s) 
CPU  1 inst:   21000001 cyc:   20699628 now IPC :0.85146: AVG IPC :0.96369: L2-Pf-HR :0.94617: L2-HR :0.84767: (Sim:0h17m26s) 
CPU  3 inst:   21000002 cyc:   21515917 now IPC :0.85217: AVG IPC :0.92539: L2-Pf-HR :0.94755: L2-HR :0.84950: (Sim:0h18m7s) 
CPU  2 inst:   22000001 cyc:   21646751 now IPC :0.92819: AVG IPC :0.96792: L2-Pf-HR :0.93193: L2-HR :0.85243: (Sim:0h18m13s) 
CPU  0 inst:   23000004 cyc:   21704281 now IPC :0.95781: AVG IPC :1.01347: L2-Pf-HR :0.93491: L2-HR :0.85286: (Sim:0h18m16s) 
CPU  1 inst:   22000001 cyc:   21823402 now IPC :0.88986: AVG IPC :0.95971: L2-Pf-HR :0.94746: L2-HR :0.84870: (Sim:0h18m22s) 
CPU  3 inst:   22000001 cyc:   22647138 now IPC :0.88400: AVG IPC :0.92323: L2-Pf-HR :0.94891: L2-HR :0.85040: (Sim:0h19m4s) 
CPU  2 inst:   23000004 cyc:   22663789 now IPC :0.98325: AVG IPC :0.96864: L2-Pf-HR :0.93254: L2-HR :0.85323: (Sim:0h19m5s) 
CPU  0 inst:   24000003 cyc:   22724267 now IPC :0.98040: AVG IPC :1.01192: L2-Pf-HR :0.93489: L2-HR :0.85304: (Sim:0h19m8s) 
CPU  1 inst:   23000004 cyc:   22960827 now IPC :0.87918: AVG IPC :0.95555: L2-Pf-HR :0.94825: L2-HR :0.84948: (Sim:0h19m19s) 
CPU  2 inst:   24000004 cyc:   23709813 now IPC :0.95600: AVG IPC :0.96806: L2-Pf-HR :0.93227: L2-HR :0.85324: (Sim:0h19m43s) 
CPU  0 inst:   25000003 cyc:   23826570 now IPC :0.90719: AVG IPC :1.00686: L2-Pf-HR :0.93305: L2-HR :0.85120: (Sim:0h19m47s) 
CPU  3 inst:   23000004 cyc:   23828796 now IPC :0.84627: AVG IPC :0.91925: L2-Pf-HR :0.94929: L2-HR :0.85109: (Sim:0h19m47s) 
CPU  1 inst:   24000003 cyc:   24104251 now IPC :0.87457: AVG IPC :0.95154: L2-Pf-HR :0.94779: L2-HR :0.84953: (Sim:0h19m57s) 
CPU  2 inst:   25000005 cyc:   24807731 now IPC :0.91082: AVG IPC :0.96542: L2-Pf-HR :0.93076: L2-HR :0.85151: (Sim:0h20m25s) 
CPU  0 inst:   26000002 cyc:   24891557 now IPC :0.93898: AVG IPC :1.00384: L2-Pf-HR :0.93438: L2-HR :0.85243: (Sim:0h20m29s) 
CPU  3 inst:   24000004 cyc:   24939675 now IPC :0.90019: AVG IPC :0.91837: L2-Pf-HR :0.94926: L2-HR :0.85137: (Sim:0h20m32s) 
CPU  1 inst:   25000005 cyc:   25343864 now IPC :0.80670: AVG IPC :0.94417: L2-Pf-HR :0.94632: L2-HR :0.84773: (Sim:0h20m50s) 
CPU  2 inst:   26000002 cyc:   25912539 now IPC :0.90513: AVG IPC :0.96275: L2-Pf-HR :0.93208: L2-HR :0.85287: (Sim:0h21m18s) 
CPU  0 inst:   27000005 cyc:   26095681 now IPC :0.83048: AVG IPC :0.99553: L2-Pf-HR :0.93521: L2-HR :0.85344: (Sim:0h21m27s) 
CPU  3 inst:   25000005 cyc:   26222973 now IPC :0.77924: AVG IPC :0.91129: L2-Pf-HR :0.94789: L2-HR :0.84968: (Sim:0h21m33s) 
CPU  1 inst:   26000002 cyc:   26596448 now IPC :0.79835: AVG IPC :0.93704: L2-Pf-HR :0.94762: L2-HR :0.84906: (Sim:0h21m51s) 
CPU  2 inst:   27000000 cyc:   27037637 now IPC :0.88881: AVG IPC :0.95955: L2-Pf-HR :0.93310: L2-HR :0.85404: (Sim:0h22m13s) 
CPU  0 inst:   28000001 cyc:   27283880 now IPC :0.84161: AVG IPC :0.98857: L2-Pf-HR :0.93579: L2-HR :0.85419: (Sim:0h22m24s) 
CPU  3 inst:   26000002 cyc:   27440200 now IPC :0.82154: AVG IPC :0.90716: L2-Pf-HR :0.94927: L2-HR :0.85092: (Sim:0h22m32s) 
CPU  1 inst:   27000005 cyc:   27898033 now IPC :0.76830: AVG IPC :0.92888: L2-Pf-HR :0.94839: L2-HR :0.85009: (Sim:0h22m54s) 
CPU  2 inst:   28000001 cyc:   28250536 now IPC :0.82447: AVG IPC :0.95354: L2-Pf-HR :0.93342: L2-HR :0.85466: (Sim:0h23m11s) 
CPU  0 inst:   29000002 cyc:   28434018 now IPC :0.86946: AVG IPC :0.98358: L2-Pf-HR :0.93401: L2-HR :0.85222: (Sim:0h23m20s) 
CPU  3 inst:   27000005 cyc:   28652176 now IPC :0.82510: AVG IPC :0.90357: L2-Pf-HR :0.94984: L2-HR :0.85185: (Sim:0h23m31s) 
CPU  1 inst:   28000001 cyc:   29050990 now IPC :0.86733: AVG IPC :0.92635: L2-Pf-HR :0.94870: L2-HR :0.85086: (Sim:0h23m52s) 
CPU  2 inst:   29000002 cyc:   29392528 now IPC :0.87566: AVG IPC :0.95041: L2-Pf-HR :0.93236: L2-HR :0.85317: (Sim:0h24m9s) 
CPU  0 inst:   30000002 cyc:   29403214 now IPC :1.03178: AVG IPC :0.98523: L2-Pf-HR :0.93471: L2-HR :0.85347: (Sim:0h24m9s) 
CPU  3 inst:   28000005 cyc:   29744424 now IPC :0.91554: AVG IPC :0.90402: L2-Pf-HR :0.94983: L2-HR :0.85237: (Sim:0h24m27s) 
CPU  1 inst:   29000004 cyc:   30256471 now IPC :0.82955: AVG IPC :0.92236: L2-Pf-HR :0.94705: L2-HR :0.84889: (Sim:0h24m52s) 
CPU  0 inst:   31000004 cyc:   30459215 now IPC :0.94697: AVG IPC :0.98386: L2-Pf-HR :0.93556: L2-HR :0.85413: (Sim:0h25m3s) 
CPU  2 inst:   30000002 cyc:   30480401 now IPC :0.91922: AVG IPC :0.94926: L2-Pf-HR :0.93325: L2-HR :0.85422: (Sim:0h25m4s) 
CPU  3 inst:   29000002 cyc:   30920785 now IPC :0.85008: AVG IPC :0.90190: L2-Pf-HR :0.94887: L2-HR :0.85074: (Sim:0h25m25s) 
CPU  1 inst:   30000002 cyc:   31393496 now IPC :0.87949: AVG IPC :0.92076: L2-Pf-HR :0.94809: L2-HR :0.85003: (Sim:0h25m49s) 
CPU  0 inst:   32000002 cyc:   31481708 now IPC :0.97800: AVG IPC :0.98366: L2-Pf-HR :0.93545: L2-HR :0.85468: (Sim:0h25m53s) 
CPU  2 inst:   31000004 cyc:   31648715 now IPC :0.85594: AVG IPC :0.94571: L2-Pf-HR :0.93393: L2-HR :0.85494: (Sim:0h26m1s) 
CPU  3 inst:   30000002 cyc:   32066498 now IPC :0.87282: AVG IPC :0.90083: L2-Pf-HR :0.94973: L2-HR :0.85174: (Sim:0h26m22s) 
CPU  1 inst:   31000004 cyc:   32562691 now IPC :0.85529: AVG IPC :0.91834: L2-Pf-HR :0.94852: L2-HR :0.85081: (Sim:0h26m44s) 
CPU  0 inst:   33000000 cyc:   32707316 now IPC :0.81592: AVG IPC :0.97718: L2-Pf-HR :0.93358: L2-HR :0.85232: (Sim:0h26m47s) 
CPU  2 inst:   32000002 cyc:   32865241 now IPC :0.82201: AVG IPC :0.94099: L2-Pf-HR :0.93407: L2-HR :0.85543: (Sim:0h26m53s) 
CPU  3 inst:   31000004 cyc:   33376781 now IPC :0.76320: AVG IPC :0.89526: L2-Pf-HR :0.94997: L2-HR :0.85240: (Sim:0h27m12s) 
CPU  1 inst:   32000002 cyc:   34093001 now IPC :0.65346: AVG IPC :0.90609: L2-Pf-HR :0.94858: L2-HR :0.85132: (Sim:0h27m39s) 
CPU  2 inst:   33000000 cyc:   34960162 now IPC :0.47734: AVG IPC :0.91240: L2-Pf-HR :0.93302: L2-HR :0.85331: (Sim:0h28m7s) 
CPU  3 inst:   32000005 cyc:   35268815 now IPC :0.52853: AVG IPC :0.87503: L2-Pf-HR :0.94971: L2-HR :0.85304: (Sim:0h28m15s) 
CPU  1 inst:   33000000 cyc:   36512746 now IPC :0.41327: AVG IPC :0.87253: L2-Pf-HR :0.94646: L2-HR :0.84901: (Sim:0h28m50s) 
CPU  3 inst:   33000000 cyc:   38039358 now IPC :0.36094: AVG IPC :0.83659: L2-Pf-HR :0.94733: L2-HR :0.85090: (Sim:0h29m27s) 
CPU  0 inst:   34000000 cyc:   47669179 now IPC :0.06684: AVG IPC :0.68543: L2-Pf-HR :0.89261: L2-HR :0.79600: (Sim:0h34m0s) 
CPU  2 inst:   34000000 cyc:   54029464 now IPC :0.05244: AVG IPC :0.60325: L2-Pf-HR :0.89251: L2-HR :0.79643: (Sim:0h37m3s) 
CPU  1 inst:   34000000 cyc:   56593015 now IPC :0.04980: AVG IPC :0.57544: L2-Pf-HR :0.90438: L2-HR :0.79225: (Sim:0h38m20s) 
CPU  0 inst:   35000002 cyc:   58409158 now IPC :0.09311: AVG IPC :0.57465: L2-Pf-HR :0.87500: L2-HR :0.78011: (Sim:0h39m13s) 
CPU  3 inst:   34000000 cyc:   58566366 now IPC :0.04872: AVG IPC :0.55573: L2-Pf-HR :0.90544: L2-HR :0.79399: (Sim:0h39m19s) 
CPU  2 inst:   35000002 cyc:   62479800 now IPC :0.11834: AVG IPC :0.53662: L2-Pf-HR :0.87558: L2-HR :0.78039: (Sim:0h41m14s) 
CPU  0 inst:   36000001 cyc:   63587043 now IPC :0.19313: AVG IPC :0.54309: L2-Pf-HR :0.86420: L2-HR :0.77285: (Sim:0h41m50s) 
CPU  1 inst:   35000002 cyc:   63692422 now IPC :0.14086: AVG IPC :0.52624: L2-Pf-HR :0.88649: L2-HR :0.77624: (Sim:0h41m54s) 
CPU  3 inst:   35000002 cyc:   64463326 now IPC :0.16958: AVG IPC :0.51986: L2-Pf-HR :0.88770: L2-HR :0.77798: (Sim:0h42m19s) 
CPU  2 inst:   36000001 cyc:   66683864 now IPC :0.23786: AVG IPC :0.51750: L2-Pf-HR :0.86509: L2-HR :0.77306: (Sim:0h43m33s) 
CPU  0 inst:   37000001 cyc:   67797346 now IPC :0.23751: AVG IPC :0.52384: L2-Pf-HR :0.85370: L2-HR :0.76583: (Sim:0h44m8s) 
CPU  1 inst:   36000001 cyc:   67902111 now IPC :0.23755: AVG IPC :0.50808: L2-Pf-HR :0.87532: L2-HR :0.76892: (Sim:0h44m12s) 
CPU  3 inst:   36000001 cyc:   68653561 now IPC :0.23865: AVG IPC :0.50244: L2-Pf-HR :0.87655: L2-HR :0.77064: (Sim:0h44m38s) 
CPU  2 inst:   37000001 cyc:   70830769 now IPC :0.24114: AVG IPC :0.50109: L2-Pf-HR :0.85487: L2-HR :0.76597: (Sim:0h45m54s) 
CPU  0 inst:   38000000 cyc:   71914215 now IPC :0.24290: AVG IPC :0.50753: L2-Pf-HR :0.84346: L2-HR :0.75903: (Sim:0h46m36s) 
CPU  1 inst:   37000001 cyc:   72036519 now IPC :0.24187: AVG IPC :0.49259: L2-Pf-HR :0.86447: L2-HR :0.76186: (Sim:0h46m40s) 
CPU  3 inst:   37000001 cyc:   72754236 now IPC :0.24386: AVG IPC :0.48767: L2-Pf-HR :0.86570: L2-HR :0.76356: (Sim:0h47m4s) 
CPU  2 inst:   38000000 cyc:   74852518 now IPC :0.24865: AVG IPC :0.48735: L2-Pf-HR :0.84491: L2-HR :0.75912: (Sim:0h48m21s) 
CPU  0 inst:   39000000 cyc:   75883874 now IPC :0.25191: AVG IPC :0.49398: L2-Pf-HR :0.83350: L2-HR :0.75246: (Sim:0h49m0s) 
CPU  1 inst:   38000000 cyc:   76029435 now IPC :0.25044: AVG IPC :0.47971: L2-Pf-HR :0.85389: L2-HR :0.75501: (Sim:0h49m7s) 
CPU  3 inst:   38000000 cyc:   76716930 now IPC :0.25235: AVG IPC :0.47536: L2-Pf-HR :0.85513: L2-HR :0.75670: (Sim:0h49m34s) 
CPU  2 inst:   39000000 cyc:   78757140 now IPC :0.25611: AVG IPC :0.47574: L2-Pf-HR :0.83519: L2-HR :0.75248: (Sim:0h50m53s) 
CPU  0 inst:   40000003 cyc:   79808037 now IPC :0.25483: AVG IPC :0.48208: L2-Pf-HR :0.82379: L2-HR :0.74610: (Sim:0h51m32s) 
CPU  1 inst:   39000000 cyc:   79956595 now IPC :0.25464: AVG IPC :0.46851: L2-Pf-HR :0.84359: L2-HR :0.74840: (Sim:0h51m38s) 
CPU  3 inst:   39000000 cyc:   80640378 now IPC :0.25488: AVG IPC :0.46450: L2-Pf-HR :0.84484: L2-HR :0.75008: (Sim:0h52m6s) 
CPU  2 inst:   40000003 cyc:   82678117 now IPC :0.25504: AVG IPC :0.46515: L2-Pf-HR :0.82571: L2-HR :0.74605: (Sim:0h53m23s) 
CPU  0 inst:   41000001 cyc:   83706944 now IPC :0.25648: AVG IPC :0.47144: L2-Pf-HR :0.81434: L2-HR :0.73994: (Sim:0h54m6s) 
CPU  1 inst:   40000003 cyc:   83871570 now IPC :0.25543: AVG IPC :0.45845: L2-Pf-HR :0.83355: L2-HR :0.74200: (Sim:0h54m14s) 
CPU  3 inst:   40000003 cyc:   84556294 now IPC :0.25537: AVG IPC :0.45470: L2-Pf-HR :0.83482: L2-HR :0.74367: (Sim:0h54m41s) 
CPU  2 inst:   41000001 cyc:   86591798 now IPC :0.25551: AVG IPC :0.45556: L2-Pf-HR :0.81649: L2-HR :0.73982: (Sim:0h56m2s) 
CPU  0 inst:   42000001 cyc:   87633272 now IPC :0.25469: AVG IPC :0.46162: L2-Pf-HR :0.80511: L2-HR :0.73397: (Sim:0h56m45s) 
CPU  1 inst:   41000001 cyc:   87805032 now IPC :0.25423: AVG IPC :0.44920: L2-Pf-HR :0.82379: L2-HR :0.73581: (Sim:0h56m50s) 
CPU  3 inst:   41000001 cyc:   88502659 now IPC :0.25340: AVG IPC :0.44562: L2-Pf-HR :0.82505: L2-HR :0.73746: (Sim:0h57m19s) 
CPU  2 inst:   42000001 cyc:   90500886 now IPC :0.25581: AVG IPC :0.44684: L2-Pf-HR :0.80748: L2-HR :0.73378: (Sim:0h58m36s) 
CPU  0 inst:   43000002 cyc:   91563903 now IPC :0.25441: AVG IPC :0.45263: L2-Pf-HR :0.79612: L2-HR :0.72818: (Sim:0h59m18s) 
CPU  1 inst:   42000001 cyc:   91738028 now IPC :0.25426: AVG IPC :0.44075: L2-Pf-HR :0.81425: L2-HR :0.72981: (Sim:0h59m25s) 
CPU  3 inst:   42000001 cyc:   92429449 now IPC :0.25466: AVG IPC :0.43742: L2-Pf-HR :0.81551: L2-HR :0.73145: (Sim:0h59m54s) 
CPU  2 inst:   43000005 cyc:   94426083 now IPC :0.25477: AVG IPC :0.43877: L2-Pf-HR :0.79871: L2-HR :0.72794: (Sim:1h1m19s) 
CPU  0 inst:   44000001 cyc:   95498840 now IPC :0.25413: AVG IPC :0.44437: L2-Pf-HR :0.78736: L2-HR :0.72257: (Sim:1h2m2s) 
Caught signal: 2
     > Finished combination: TraceType=770-tot Sim:78000000 Prefetcher=L2ipcp L1=ipcp
