TRACE: [21000000]_FE_[Pythia-70M]_[h8]_[s256]_[d64] Warmup: 2000000 NumTraces: 21000000
L1:berti_concurso:L2:berti_concurso
*************************************************
   ChampSim Multicore Out-of-Order Simulator
   Last compiled: Oct 29 2024 19:36:33
*************************************************

trace_0 770-tot_memTraces_v3_rexz/memTraces[21000000]_FE_[Pythia-70M]_[h8]_[s256]_[d64].champsim.9.xz
trace_1 770-tot_memTraces_v3_rexz/memTraces[21000000]_FE_[Pythia-70M]_[h8]_[s256]_[d64].champsim.9.xz
trace_2 770-tot_memTraces_v3_rexz/memTraces[21000000]_FE_[Pythia-70M]_[h8]_[s256]_[d64].champsim.9.xz
trace_3 770-tot_memTraces_v3_rexz/memTraces[21000000]_FE_[Pythia-70M]_[h8]_[s256]_[d64].champsim.9.xz
CPU 0 L1D Berti prefetcher
CPU 0 L2C Berti prefetcher
CPU 1 L1D Berti prefetcher
CPU 1 L2C Berti prefetcher
CPU 2 L1D Berti prefetcher
CPU 2 L2C Berti prefetcher
CPU 3 L1D Berti prefetcher
CPU 3 L2C Berti prefetcher
MAIN.cc ln 751 stats print skipped
CPU  1 inst:    1000001 cyc:     500575 now IPC :1.99770: AVG IPC :1.99770: L2-Pf-HR :0.79728: L2-HR :0.75739: (Sim:0h0m48s) 
CPU  0 inst:    1000001 cyc:     500594 now IPC :1.99763: AVG IPC :1.99763: L2-Pf-HR :0.79707: L2-HR :0.75673: (Sim:0h0m48s) 
CPU  2 inst:    1000001 cyc:     500760 now IPC :1.99697: AVG IPC :1.99697: L2-Pf-HR :0.79697: L2-HR :0.75826: (Sim:0h0m48s) 
CPU  3 inst:    1000001 cyc:     500797 now IPC :1.99682: AVG IPC :1.99682: L2-Pf-HR :0.79691: L2-HR :0.75690: (Sim:0h0m48s) 
CPU  1 inst:    2000003 cyc:     987835 now IPC :2.05230: AVG IPC :2.02463: L2-Pf-HR :0.83758: L2-HR :0.80821: (Sim:0h1m41s) 
CPU  0 inst:    2000003 cyc:     987898 now IPC :2.05211: AVG IPC :2.02450: L2-Pf-HR :0.83840: L2-HR :0.80757: (Sim:0h1m41s) 
CPU  3 inst:    2000003 cyc:     988026 now IPC :2.05243: AVG IPC :2.02424: L2-Pf-HR :0.83746: L2-HR :0.80712: (Sim:0h1m41s) 
CPU  2 inst:    2000003 cyc:     988041 now IPC :2.05221: AVG IPC :2.02421: L2-Pf-HR :0.83794: L2-HR :0.80753: (Sim:0h1m41s) 

Warmup complete CPU  0 instructions:    2000284 cycles:     988041 (Simulation time: 0 hr 1 min 41 sec) 
Warmup complete CPU  1 instructions:    2000382 cycles:     988041 (Simulation time: 0 hr 1 min 41 sec) 
Warmup complete CPU  2 instructions:    2000003 cycles:     988041 (Simulation time: 0 hr 1 min 41 sec) 
Warmup complete CPU  3 instructions:    2000048 cycles:     988040 (Simulation time: 0 hr 1 min 41 sec) 

CPU  3 inst:    3000004 cyc:    1753504 now IPC :1.30637: AVG IPC :1.30634: L2-Pf-HR :0.91348: L2-HR :0.85569: (Sim:0h2m32s) 
CPU  2 inst:    3000004 cyc:    1753714 now IPC :1.30604: AVG IPC :1.30604: L2-Pf-HR :0.91155: L2-HR :0.85537: (Sim:0h2m32s) 
CPU  1 inst:    3000005 cyc:    1756861 now IPC :1.30035: AVG IPC :1.30020: L2-Pf-HR :0.91499: L2-HR :0.85639: (Sim:0h2m32s) 
CPU  0 inst:    3000005 cyc:    1759309 now IPC :1.29633: AVG IPC :1.29620: L2-Pf-HR :0.91364: L2-HR :0.85596: (Sim:0h2m32s) 
CPU  2 inst:    4000001 cyc:    2554744 now IPC :1.24839: AVG IPC :1.27656: L2-Pf-HR :0.91330: L2-HR :0.85415: (Sim:0h3m23s) 
CPU  3 inst:    4000001 cyc:    2558188 now IPC :1.24272: AVG IPC :1.27374: L2-Pf-HR :0.91549: L2-HR :0.85384: (Sim:0h3m24s) 
CPU  1 inst:    4000001 cyc:    2561620 now IPC :1.24260: AVG IPC :1.27075: L2-Pf-HR :0.91519: L2-HR :0.85448: (Sim:0h3m24s) 
CPU  0 inst:    4000001 cyc:    2561824 now IPC :1.24608: AVG IPC :1.27064: L2-Pf-HR :0.91472: L2-HR :0.85396: (Sim:0h3m24s) 
CPU  2 inst:    5000000 cyc:    3336745 now IPC :1.27877: AVG IPC :1.27730: L2-Pf-HR :0.91349: L2-HR :0.85314: (Sim:0h4m15s) 
CPU  1 inst:    5000000 cyc:    3338473 now IPC :1.28724: AVG IPC :1.27620: L2-Pf-HR :0.91318: L2-HR :0.85360: (Sim:0h4m15s) 
CPU  0 inst:    5000000 cyc:    3342851 now IPC :1.28036: AVG IPC :1.27387: L2-Pf-HR :0.91514: L2-HR :0.85323: (Sim:0h4m15s) 
CPU  3 inst:    5000000 cyc:    3347738 now IPC :1.26654: AVG IPC :1.27133: L2-Pf-HR :0.91638: L2-HR :0.85322: (Sim:0h4m15s) 
CPU  1 inst:    6000003 cyc:    4101855 now IPC :1.30996: AVG IPC :1.28448: L2-Pf-HR :0.91125: L2-HR :0.85371: (Sim:0h5m5s) 
CPU  0 inst:    6000003 cyc:    4109002 now IPC :1.30523: AVG IPC :1.28157: L2-Pf-HR :0.91336: L2-HR :0.85339: (Sim:0h5m6s) 
CPU  2 inst:    6000003 cyc:    4120209 now IPC :1.27639: AVG IPC :1.27707: L2-Pf-HR :0.91410: L2-HR :0.85344: (Sim:0h5m6s) 
CPU  3 inst:    6000003 cyc:    4124754 now IPC :1.28698: AVG IPC :1.27521: L2-Pf-HR :0.91647: L2-HR :0.85423: (Sim:0h5m7s) 
CPU  1 inst:    7000003 cyc:    4933493 now IPC :1.20245: AVG IPC :1.26719: L2-Pf-HR :0.91205: L2-HR :0.85380: (Sim:0h5m57s) 
CPU  0 inst:    7000003 cyc:    4946472 now IPC :1.19407: AVG IPC :1.26306: L2-Pf-HR :0.91459: L2-HR :0.85394: (Sim:0h5m58s) 
CPU  2 inst:    7000003 cyc:    4956359 now IPC :1.19596: AVG IPC :1.25998: L2-Pf-HR :0.91459: L2-HR :0.85341: (Sim:0h5m59s) 
CPU  3 inst:    7000003 cyc:    4957010 now IPC :1.20155: AVG IPC :1.25976: L2-Pf-HR :0.91664: L2-HR :0.85451: (Sim:0h5m59s) 
CPU  1 inst:    8000002 cyc:    5877059 now IPC :1.05981: AVG IPC :1.22716: L2-Pf-HR :0.91291: L2-HR :0.85376: (Sim:0h6m51s) 
CPU  0 inst:    8000002 cyc:    5922936 now IPC :1.02410: AVG IPC :1.21577: L2-Pf-HR :0.91485: L2-HR :0.85327: (Sim:0h6m53s) 
CPU  3 inst:    8000002 cyc:    5937824 now IPC :1.01956: AVG IPC :1.21216: L2-Pf-HR :0.91619: L2-HR :0.85399: (Sim:0h6m54s) 
CPU  2 inst:    8000002 cyc:    5938432 now IPC :1.01825: AVG IPC :1.21203: L2-Pf-HR :0.91471: L2-HR :0.85326: (Sim:0h6m54s) 
CPU  1 inst:    9000000 cyc:    7815238 now IPC :0.51595: AVG IPC :1.02525: L2-Pf-HR :0.83959: L2-HR :0.77674: (Sim:0h7m59s) 
CPU  0 inst:    9000000 cyc:    8296422 now IPC :0.42132: AVG IPC :0.95777: L2-Pf-HR :0.84253: L2-HR :0.77713: (Sim:0h8m17s) 
CPU  2 inst:    9000000 cyc:    8348183 now IPC :0.41498: AVG IPC :0.95107: L2-Pf-HR :0.84186: L2-HR :0.77629: (Sim:0h8m18s) 
CPU  3 inst:    9000000 cyc:    8358786 now IPC :0.41306: AVG IPC :0.94969: L2-Pf-HR :0.84607: L2-HR :0.78199: (Sim:0h8m19s) 
CPU  1 inst:   10000000 cyc:   11203711 now IPC :0.29512: AVG IPC :0.78307: L2-Pf-HR :0.80202: L2-HR :0.75281: (Sim:0h9m38s) 
CPU  0 inst:   10000000 cyc:   11669060 now IPC :0.29650: AVG IPC :0.74897: L2-Pf-HR :0.80947: L2-HR :0.75574: (Sim:0h9m51s) 
CPU  2 inst:   10000000 cyc:   11721337 now IPC :0.29646: AVG IPC :0.74534: L2-Pf-HR :0.80484: L2-HR :0.75275: (Sim:0h9m53s) 
CPU  3 inst:   10000000 cyc:   11732164 now IPC :0.29644: AVG IPC :0.74459: L2-Pf-HR :0.80993: L2-HR :0.75878: (Sim:0h9m53s) 
CPU  1 inst:   11000000 cyc:   14580500 now IPC :0.29614: AVG IPC :0.66210: L2-Pf-HR :0.77269: L2-HR :0.73305: (Sim:0h11m13s) 
CPU  0 inst:   11000000 cyc:   15046834 now IPC :0.29605: AVG IPC :0.64015: L2-Pf-HR :0.78251: L2-HR :0.73718: (Sim:0h11m26s) 
CPU  2 inst:   11000000 cyc:   15099323 now IPC :0.29603: AVG IPC :0.63779: L2-Pf-HR :0.77380: L2-HR :0.73248: (Sim:0h11m28s) 
CPU  3 inst:   11000000 cyc:   15110746 now IPC :0.29598: AVG IPC :0.63727: L2-Pf-HR :0.79006: L2-HR :0.74484: (Sim:0h11m28s) 
CPU  1 inst:   12000000 cyc:   18018635 now IPC :0.29086: AVG IPC :0.58716: L2-Pf-HR :0.74578: L2-HR :0.71440: (Sim:0h12m51s) 
CPU  0 inst:   12000000 cyc:   18479519 now IPC :0.29132: AVG IPC :0.57169: L2-Pf-HR :0.75793: L2-HR :0.71799: (Sim:0h13m4s) 
CPU  2 inst:   12000000 cyc:   18541395 now IPC :0.29052: AVG IPC :0.56969: L2-Pf-HR :0.74682: L2-HR :0.71423: (Sim:0h13m6s) 
CPU  3 inst:   12000000 cyc:   18554471 now IPC :0.29038: AVG IPC :0.56926: L2-Pf-HR :0.76693: L2-HR :0.72827: (Sim:0h13m6s) 
CPU  1 inst:   13000000 cyc:   21551326 now IPC :0.28307: AVG IPC :0.53492: L2-Pf-HR :0.72145: L2-HR :0.69798: (Sim:0h14m32s) 
CPU  0 inst:   13000000 cyc:   22057136 now IPC :0.27952: AVG IPC :0.52208: L2-Pf-HR :0.73385: L2-HR :0.70065: (Sim:0h14m44s) 
CPU  2 inst:   13000000 cyc:   22135857 now IPC :0.27821: AVG IPC :0.52015: L2-Pf-HR :0.72257: L2-HR :0.69719: (Sim:0h14m46s) 
CPU  3 inst:   13000000 cyc:   22147756 now IPC :0.27830: AVG IPC :0.51985: L2-Pf-HR :0.74125: L2-HR :0.71133: (Sim:0h14m47s) 
CPU  1 inst:   14000001 cyc:   23314087 now IPC :0.56729: AVG IPC :0.53747: L2-Pf-HR :0.73481: L2-HR :0.72185: (Sim:0h15m31s) 
CPU  0 inst:   14000001 cyc:   23872339 now IPC :0.55090: AVG IPC :0.52436: L2-Pf-HR :0.74637: L2-HR :0.72437: (Sim:0h16m6s) 
CPU  2 inst:   14000001 cyc:   23901289 now IPC :0.56643: AVG IPC :0.52371: L2-Pf-HR :0.73562: L2-HR :0.72124: (Sim:0h16m9s) 
CPU  3 inst:   14000001 cyc:   23949893 now IPC :0.55490: AVG IPC :0.52260: L2-Pf-HR :0.75196: L2-HR :0.73337: (Sim:0h16m13s) 
CPU  1 inst:   15000000 cyc:   24461685 now IPC :0.87138: AVG IPC :0.55380: L2-Pf-HR :0.74865: L2-HR :0.74455: (Sim:0h16m43s) 
CPU  0 inst:   15000005 cyc:   24981643 now IPC :0.90147: AVG IPC :0.54180: L2-Pf-HR :0.75863: L2-HR :0.74674: (Sim:0h17m15s) 
CPU  2 inst:   15000005 cyc:   25053629 now IPC :0.86780: AVG IPC :0.54019: L2-Pf-HR :0.74911: L2-HR :0.74398: (Sim:0h17m22s) 
CPU  3 inst:   15000000 cyc:   25088430 now IPC :0.87832: AVG IPC :0.53941: L2-Pf-HR :0.76352: L2-HR :0.75445: (Sim:0h17m23s) 
CPU  1 inst:   16000002 cyc:   25647411 now IPC :0.84337: AVG IPC :0.56772: L2-Pf-HR :0.75924: L2-HR :0.76242: (Sim:0h17m58s) 
CPU  0 inst:   16000002 cyc:   26026432 now IPC :0.95713: AVG IPC :0.55913: L2-Pf-HR :0.76887: L2-HR :0.76456: (Sim:0h18m23s) 
CPU  2 inst:   16000002 cyc:   26170589 now IPC :0.89528: AVG IPC :0.55594: L2-Pf-HR :0.76067: L2-HR :0.76200: (Sim:0h18m31s) 
CPU  3 inst:   16000002 cyc:   26219260 now IPC :0.88431: AVG IPC :0.55487: L2-Pf-HR :0.77294: L2-HR :0.77124: (Sim:0h18m35s) 
CPU  1 inst:   17000002 cyc:   26745948 now IPC :0.91030: AVG IPC :0.58233: L2-Pf-HR :0.76797: L2-HR :0.77706: (Sim:0h19m5s) 
CPU  0 inst:   17000004 cyc:   27078118 now IPC :0.95086: AVG IPC :0.57492: L2-Pf-HR :0.77752: L2-HR :0.77904: (Sim:0h19m28s) 
CPU  3 inst:   17000004 cyc:   27192856 now IPC :1.02712: AVG IPC :0.57241: L2-Pf-HR :0.78082: L2-HR :0.78508: (Sim:0h19m34s) 
CPU  2 inst:   17000004 cyc:   27222061 now IPC :0.95105: AVG IPC :0.57178: L2-Pf-HR :0.76983: L2-HR :0.77669: (Sim:0h19m35s) 
CPU  1 inst:   18000000 cyc:   27686850 now IPC :1.06281: AVG IPC :0.59926: L2-Pf-HR :0.77682: L2-HR :0.78994: (Sim:0h20m4s) 
Finished CPU 1 instr: 16000005 cyc: 26698985 AVG IPC: 0.59927 (Sim time: 0h20m4s)
CPU  0 inst:   18000000 cyc:   28019043 now IPC :1.06278: AVG IPC :0.59190: L2-Pf-HR :0.78563: L2-HR :0.79173: (Sim:0h20m23s) 
Finished CPU 0 instr: 16000004 cyc: 27032564 AVG IPC: 0.59188 (Sim time: 0h20m24s)
CPU  3 inst:   18000000 cyc:   28138686 now IPC :1.05727: AVG IPC :0.58930: L2-Pf-HR :0.78864: L2-HR :0.79710: (Sim:0h20m31s) 
Finished CPU 3 instr: 16000004 cyc: 27150746 AVG IPC: 0.58930 (Sim time: 0h20m31s)
CPU  2 inst:   18000003 cyc:   28185012 now IPC :1.03847: AVG IPC :0.58830: L2-Pf-HR :0.77833: L2-HR :0.78951: (Sim:0h20m34s) 
Finished CPU 2 instr: 16000000 cyc: 27196971 AVG IPC: 0.58830 (Sim time: 0h20m34s)

ChampSim completed all CPUs

Total Simulation Statistics (not including warmup)

CPU 0 cumulative IPC: 0.59503 instructions: 16182994 cycles: 27196971
Core_0_L1D_total_access 4933595
Core_0_L1D_total_hit 4356218
Core_0_L1D_total_miss 577377
Core_0_L1D_loads 4050063
Core_0_L1D_load_hit 3748715
Core_0_L1D_load_miss 301348
Core_0_L1D_RFOs 549486
Core_0_L1D_RFO_hit 524615
Core_0_L1D_RFO_miss 24871
Core_0_L1D_prefetches 334046
Core_0_L1D_prefetch_hit 82888
Core_0_L1D_prefetch_miss 251158
Core_0_L1D_writebacks 0
Core_0_L1D_writeback_hit 0
Core_0_L1D_writeback_miss 0

Core_0_L1I_total_access 2283408
Core_0_L1I_total_hit 2278697
Core_0_L1I_total_miss 4711
Core_0_L1I_loads 2283408
Core_0_L1I_load_hit 2278697
Core_0_L1I_load_miss 4711
Core_0_L1I_RFOs 0
Core_0_L1I_RFO_hit 0
Core_0_L1I_RFO_miss 0
Core_0_L1I_prefetches 0
Core_0_L1I_prefetch_hit 0
Core_0_L1I_prefetch_miss 0
Core_0_L1I_writebacks 0
Core_0_L1I_writeback_hit 0
Core_0_L1I_writeback_miss 0

Core_0_L2C_total_access 831187
Core_0_L2C_total_hit 659512
Core_0_L2C_total_miss 171675
Core_0_L2C_loads 246029
Core_0_L2C_load_hit 193880
Core_0_L2C_load_miss 52149
Core_0_L2C_RFOs 24798
Core_0_L2C_RFO_hit 987
Core_0_L2C_RFO_miss 23811
Core_0_L2C_prefetches 448024
Core_0_L2C_prefetch_hit 352312
Core_0_L2C_prefetch_miss 95712
Core_0_L2C_writebacks 112336
Core_0_L2C_writeback_hit 112333
Core_0_L2C_writeback_miss 3

CPU 0 L1D berti prefetcher final stats
CPU 0 L2C berti prefetcher final stats
Core_0_LLC_total_access 268881
Core_0_LLC_total_hit 138905
Core_0_LLC_total_miss 129976
Core_0_LLC_loads 40956
Core_0_LLC_load_hit 8615
Core_0_LLC_load_miss 32341
Core_0_LLC_RFOs 23802
Core_0_LLC_RFO_hit 12
Core_0_LLC_RFO_miss 23790
Core_0_LLC_prefetches 106914
Core_0_LLC_prefetch_hit 37834
Core_0_LLC_prefetch_miss 69080
Core_0_LLC_writebacks 97209
Core_0_LLC_writeback_hit 92444
Core_0_LLC_writeback_miss 4765


CPU 1 cumulative IPC: 0.60521 instructions: 16459887 cycles: 27196971
Core_1_L1D_total_access 5019647
Core_1_L1D_total_hit 4423729
Core_1_L1D_total_miss 595918
Core_1_L1D_loads 4125162
Core_1_L1D_load_hit 3811273
Core_1_L1D_load_miss 313889
Core_1_L1D_RFOs 552946
Core_1_L1D_RFO_hit 530731
Core_1_L1D_RFO_miss 22215
Core_1_L1D_prefetches 341539
Core_1_L1D_prefetch_hit 81725
Core_1_L1D_prefetch_miss 259814
Core_1_L1D_writebacks 0
Core_1_L1D_writeback_hit 0
Core_1_L1D_writeback_miss 0

Core_1_L1I_total_access 2309434
Core_1_L1I_total_hit 2304724
Core_1_L1I_total_miss 4710
Core_1_L1I_loads 2309434
Core_1_L1I_load_hit 2304724
Core_1_L1I_load_miss 4710
Core_1_L1I_RFOs 0
Core_1_L1I_RFO_hit 0
Core_1_L1I_RFO_miss 0
Core_1_L1I_prefetches 0
Core_1_L1I_prefetch_hit 0
Core_1_L1I_prefetch_miss 0
Core_1_L1I_writebacks 0
Core_1_L1I_writeback_hit 0
Core_1_L1I_writeback_miss 0

Core_1_L2C_total_access 851469
Core_1_L2C_total_hit 676250
Core_1_L2C_total_miss 175219
Core_1_L2C_loads 257222
Core_1_L2C_load_hit 204770
Core_1_L2C_load_miss 52452
Core_1_L2C_RFOs 22106
Core_1_L2C_RFO_hit 858
Core_1_L2C_RFO_miss 21248
Core_1_L2C_prefetches 459503
Core_1_L2C_prefetch_hit 357989
Core_1_L2C_prefetch_miss 101514
Core_1_L2C_writebacks 112638
Core_1_L2C_writeback_hit 112633
Core_1_L2C_writeback_miss 5

CPU 1 L1D berti prefetcher final stats
CPU 1 L2C berti prefetcher final stats
Core_1_LLC_total_access 272376
Core_1_LLC_total_hit 141197
Core_1_LLC_total_miss 131179
Core_1_LLC_loads 41789
Core_1_LLC_load_hit 9812
Core_1_LLC_load_miss 31977
Core_1_LLC_RFOs 21246
Core_1_LLC_RFO_hit 10
Core_1_LLC_RFO_miss 21236
Core_1_LLC_prefetches 112179
Core_1_LLC_prefetch_hit 39116
Core_1_LLC_prefetch_miss 73063
Core_1_LLC_writebacks 97162
Core_1_LLC_writeback_hit 92259
Core_1_LLC_writeback_miss 4903


CPU 2 cumulative IPC: 0.58830 instructions: 16000000 cycles: 27196971
Core_2_L1D_total_access 4877560
Core_2_L1D_total_hit 4312138
Core_2_L1D_total_miss 565422
Core_2_L1D_loads 3999552
Core_2_L1D_load_hit 3705991
Core_2_L1D_load_miss 293561
Core_2_L1D_RFOs 550670
Core_2_L1D_RFO_hit 527957
Core_2_L1D_RFO_miss 22713
Core_2_L1D_prefetches 327338
Core_2_L1D_prefetch_hit 78190
Core_2_L1D_prefetch_miss 249148
Core_2_L1D_writebacks 0
Core_2_L1D_writeback_hit 0
Core_2_L1D_writeback_miss 0

Core_2_L1I_total_access 2262992
Core_2_L1I_total_hit 2258284
Core_2_L1I_total_miss 4708
Core_2_L1I_loads 2262992
Core_2_L1I_load_hit 2258284
Core_2_L1I_load_miss 4708
Core_2_L1I_RFOs 0
Core_2_L1I_RFO_hit 0
Core_2_L1I_RFO_miss 0
Core_2_L1I_prefetches 0
Core_2_L1I_prefetch_hit 0
Core_2_L1I_prefetch_miss 0
Core_2_L1I_writebacks 0
Core_2_L1I_writeback_hit 0
Core_2_L1I_writeback_miss 0

Core_2_L2C_total_access 819413
Core_2_L2C_total_hit 646937
Core_2_L2C_total_miss 172476
Core_2_L2C_loads 240206
Core_2_L2C_load_hit 188012
Core_2_L2C_load_miss 52194
Core_2_L2C_RFOs 22632
Core_2_L2C_RFO_hit 868
Core_2_L2C_RFO_miss 21764
Core_2_L2C_prefetches 444432
Core_2_L2C_prefetch_hit 345916
Core_2_L2C_prefetch_miss 98516
Core_2_L2C_writebacks 112143
Core_2_L2C_writeback_hit 112141
Core_2_L2C_writeback_miss 2

CPU 2 L1D berti prefetcher final stats
CPU 2 L2C berti prefetcher final stats
Core_2_LLC_total_access 270459
Core_2_LLC_total_hit 143112
Core_2_LLC_total_miss 127347
Core_2_LLC_loads 40809
Core_2_LLC_load_hit 8142
Core_2_LLC_load_miss 32667
Core_2_LLC_RFOs 21760
Core_2_LLC_RFO_hit 7
Core_2_LLC_RFO_miss 21753
Core_2_LLC_prefetches 109905
Core_2_LLC_prefetch_hit 38876
Core_2_LLC_prefetch_miss 71029
Core_2_LLC_writebacks 97985
Core_2_LLC_writeback_hit 96087
Core_2_LLC_writeback_miss 1898


CPU 3 cumulative IPC: 0.58939 instructions: 16029649 cycles: 27196972
Core_3_L1D_total_access 4888126
Core_3_L1D_total_hit 4321117
Core_3_L1D_total_miss 567009
Core_3_L1D_loads 4007834
Core_3_L1D_load_hit 3713488
Core_3_L1D_load_miss 294346
Core_3_L1D_RFOs 551702
Core_3_L1D_RFO_hit 529649
Core_3_L1D_RFO_miss 22053
Core_3_L1D_prefetches 328590
Core_3_L1D_prefetch_hit 77980
Core_3_L1D_prefetch_miss 250610
Core_3_L1D_writebacks 0
Core_3_L1D_writeback_hit 0
Core_3_L1D_writeback_miss 0

Core_3_L1I_total_access 2268403
Core_3_L1I_total_hit 2263694
Core_3_L1I_total_miss 4709
Core_3_L1I_loads 2268403
Core_3_L1I_load_hit 2263694
Core_3_L1I_load_miss 4709
Core_3_L1I_RFOs 0
Core_3_L1I_RFO_hit 0
Core_3_L1I_RFO_miss 0
Core_3_L1I_prefetches 0
Core_3_L1I_prefetch_hit 0
Core_3_L1I_prefetch_miss 0
Core_3_L1I_writebacks 0
Core_3_L1I_writeback_hit 0
Core_3_L1I_writeback_miss 0

Core_3_L2C_total_access 824896
Core_3_L2C_total_hit 657450
Core_3_L2C_total_miss 167446
Core_3_L2C_loads 239839
Core_3_L2C_load_hit 188977
Core_3_L2C_load_miss 50862
Core_3_L2C_RFOs 21947
Core_3_L2C_RFO_hit 878
Core_3_L2C_RFO_miss 21069
Core_3_L2C_prefetches 450934
Core_3_L2C_prefetch_hit 355423
Core_3_L2C_prefetch_miss 95511
Core_3_L2C_writebacks 112176
Core_3_L2C_writeback_hit 112172
Core_3_L2C_writeback_miss 4

CPU 3 L1D berti prefetcher final stats
CPU 3 L2C berti prefetcher final stats
Core_3_LLC_total_access 263163
Core_3_LLC_total_hit 130629
Core_3_LLC_total_miss 132534
Core_3_LLC_loads 39874
Core_3_LLC_load_hit 7367
Core_3_LLC_load_miss 32507
Core_3_LLC_RFOs 21067
Core_3_LLC_RFO_hit 28
Core_3_LLC_RFO_miss 21039
Core_3_LLC_prefetches 106501
Core_3_LLC_prefetch_hit 36209
Core_3_LLC_prefetch_miss 70292
Core_3_LLC_writebacks 95721
Core_3_LLC_writeback_hit 87025
Core_3_LLC_writeback_miss 8696


[ROI Statistics]
Core_0_instructions 16000004
Core_0_cycles 27032564
Core_0_IPC 0.59188

Core_0_branch_prediction_accuracy 98.24780
Core_0_branch_MPKI 0.62466
Core_0_average_ROB_occupancy_at_mispredict 322.12583

Core_0_L1D_total_access 4877562
Core_0_L1D_total_hit 4312459 L1D_total_Hit Ratio: 0.88414
Core_0_L1D_total_miss 565103
Core_0_L1D_loads 4000592
Core_0_L1D_load_hit 3706759 L1D_load_Hit Ratio: 0.92655
Core_0_L1D_load_miss 293833
Core_0_L1D_RFOs 549100
Core_0_L1D_RFO_hit 524229 L1D_RFO_Hit Ratio: 0.95471
Core_0_L1D_RFO_miss 24871
Core_0_L1D_prefetches 327870
Core_0_L1D_prefetch_hit 81471 L1D_prefetch_Hit Ratio: 0.24849
Core_0_L1D_prefetch_miss 246399
Core_0_L1D_writebacks 0
Core_0_L1D_writeback_hit 0 L1D_writeback_Hit Ratio: -nan
Core_0_L1D_writeback_miss 0
Core_0_L1D_prefetch_requested 636291
Core_0_L1D_prefetch_issued 564064
Core_0_L1D_prefetch_useful 274051 L1D_Useful Ratio: 0.48585
Core_0_L1D_prefetch_useless 4761
Core_0_L1D_prefetch_late 61647
Core_0_L1D_average_miss_latency 1933105.61328

Core_0_L1I_total_access 2265500
Core_0_L1I_total_hit 2260789 L1I_total_Hit Ratio: 0.99792
Core_0_L1I_total_miss 4711
Core_0_L1I_loads 2265500
Core_0_L1I_load_hit 2260789 L1I_load_Hit Ratio: 0.99792
Core_0_L1I_load_miss 4711
Core_0_L1I_RFOs 0
Core_0_L1I_RFO_hit 0 L1I_RFO_Hit Ratio: -nan
Core_0_L1I_RFO_miss 0
Core_0_L1I_prefetches 0
Core_0_L1I_prefetch_hit 0 L1I_prefetch_Hit Ratio: -nan
Core_0_L1I_prefetch_miss 0
Core_0_L1I_writebacks 0
Core_0_L1I_writeback_hit 0 L1I_writeback_Hit Ratio: -nan
Core_0_L1I_writeback_miss 0
Core_0_L1I_prefetch_requested 0
Core_0_L1I_prefetch_issued 0
Core_0_L1I_prefetch_useful 0 L1I_Useful Ratio: -nan
Core_0_L1I_prefetch_useless 0
Core_0_L1I_prefetch_late 0
Core_0_L1I_average_miss_latency 572.95373

Core_0_L2C_total_access 817682
Core_0_L2C_total_hit 647379 L2C_total_Hit Ratio: 0.79172
Core_0_L2C_total_miss 170303
Core_0_L2C_loads 239810
Core_0_L2C_load_hit 187850 L2C_load_Hit Ratio: 0.78333
Core_0_L2C_load_miss 51960
Core_0_L2C_RFOs 24798
Core_0_L2C_RFO_hit 987 L2C_RFO_Hit Ratio: 0.03980
Core_0_L2C_RFO_miss 23811
Core_0_L2C_prefetches 440934
Core_0_L2C_prefetch_hit 346405 L2C_prefetch_Hit Ratio: 0.78562
Core_0_L2C_prefetch_miss 94529
Core_0_L2C_writebacks 112140
Core_0_L2C_writeback_hit 112137 L2C_writeback_Hit Ratio: 0.99997
Core_0_L2C_writeback_miss 3
Core_0_L2C_prefetch_requested 281808
Core_0_L2C_prefetch_issued 218205
Core_0_L2C_prefetch_useful 28816 L2C_Useful Ratio: 0.13206
Core_0_L2C_prefetch_useless 69836
Core_0_L2C_prefetch_late 11364
Core_0_L2C_average_miss_latency 525.49614

Core_0_LLC_total_access 267323
Core_0_LLC_total_hit 138516 LLC_total_Hit Ratio: 0.51816
Core_0_LLC_total_miss 128807
Core_0_LLC_loads 40805
Core_0_LLC_load_hit 8586 LLC_load_Hit Ratio: 0.21042
Core_0_LLC_load_miss 32219
Core_0_LLC_RFOs 23802
Core_0_LLC_RFO_hit 12 LLC_RFO_Hit Ratio: 0.00050
Core_0_LLC_RFO_miss 23790
Core_0_LLC_prefetches 105694
Core_0_LLC_prefetch_hit 37642 LLC_prefetch_Hit Ratio: 0.35614
Core_0_LLC_prefetch_miss 68052
Core_0_LLC_writebacks 97022
Core_0_LLC_writeback_hit 92276 LLC_writeback_Hit Ratio: 0.95108
Core_0_LLC_writeback_miss 4746
Core_0_LLC_prefetch_requested 0
Core_0_LLC_prefetch_issued 0
Core_0_LLC_prefetch_useful 12360 LLC_Useful Ratio: inf
Core_0_LLC_prefetch_useless 179002
Core_0_LLC_prefetch_late 0
Core_0_LLC_average_miss_latency 2575.61461

Core_0_major_page_fault 0
Core_0_minor_page_fault 2391

Core_1_instructions 16000005
Core_1_cycles 26698985
Core_1_IPC 0.59927

Core_1_branch_prediction_accuracy 98.25159
Core_1_branch_MPKI 0.61481
Core_1_average_ROB_occupancy_at_mispredict 322.40751

Core_1_L1D_total_access 4878580
Core_1_L1D_total_hit 4313314 L1D_total_Hit Ratio: 0.88413
Core_1_L1D_total_miss 565266
Core_1_L1D_loads 4000291
Core_1_L1D_load_hit 3705528 L1D_load_Hit Ratio: 0.92631
Core_1_L1D_load_miss 294763
Core_1_L1D_RFOs 551793
Core_1_L1D_RFO_hit 529595 L1D_RFO_Hit Ratio: 0.95977
Core_1_L1D_RFO_miss 22198
Core_1_L1D_prefetches 326496
Core_1_L1D_prefetch_hit 78191 L1D_prefetch_Hit Ratio: 0.23949
Core_1_L1D_prefetch_miss 248305
Core_1_L1D_writebacks 0
Core_1_L1D_writeback_hit 0 L1D_writeback_Hit Ratio: -nan
Core_1_L1D_writeback_miss 0
Core_1_L1D_prefetch_requested 654756
Core_1_L1D_prefetch_issued 577929
Core_1_L1D_prefetch_useful 282364 L1D_Useful Ratio: 0.48858
Core_1_L1D_prefetch_useless 5198
Core_1_L1D_prefetch_late 63007
Core_1_L1D_average_miss_latency 1959327.83755

Core_1_L1I_total_access 2264282
Core_1_L1I_total_hit 2259572 L1I_total_Hit Ratio: 0.99792
Core_1_L1I_total_miss 4710
Core_1_L1I_loads 2264282
Core_1_L1I_load_hit 2259572 L1I_load_Hit Ratio: 0.99792
Core_1_L1I_load_miss 4710
Core_1_L1I_RFOs 0
Core_1_L1I_RFO_hit 0 L1I_RFO_Hit Ratio: -nan
Core_1_L1I_RFO_miss 0
Core_1_L1I_prefetches 0
Core_1_L1I_prefetch_hit 0 L1I_prefetch_Hit Ratio: -nan
Core_1_L1I_prefetch_miss 0
Core_1_L1I_writebacks 0
Core_1_L1I_writeback_hit 0 L1I_writeback_Hit Ratio: -nan
Core_1_L1I_writeback_miss 0
Core_1_L1I_prefetch_requested 0
Core_1_L1I_prefetch_issued 0
Core_1_L1I_prefetch_useful 0 L1I_Useful Ratio: -nan
Core_1_L1I_prefetch_useless 0
Core_1_L1I_prefetch_late 0
Core_1_L1I_average_miss_latency 569.82378

Core_1_L2C_total_access 818275
Core_1_L2C_total_hit 646392 L2C_total_Hit Ratio: 0.78994
Core_1_L2C_total_miss 171883
Core_1_L2C_loads 241382
Core_1_L2C_load_hit 189543 L2C_load_Hit Ratio: 0.78524
Core_1_L2C_load_miss 51839
Core_1_L2C_RFOs 22089
Core_1_L2C_RFO_hit 841 L2C_RFO_Hit Ratio: 0.03807
Core_1_L2C_RFO_miss 21248
Core_1_L2C_prefetches 442667
Core_1_L2C_prefetch_hit 343876 L2C_prefetch_Hit Ratio: 0.77683
Core_1_L2C_prefetch_miss 98791
Core_1_L2C_writebacks 112137
Core_1_L2C_writeback_hit 112132 L2C_writeback_Hit Ratio: 0.99996
Core_1_L2C_writeback_miss 5
Core_1_L2C_prefetch_requested 284392
Core_1_L2C_prefetch_issued 221570
Core_1_L2C_prefetch_useful 30017 L2C_Useful Ratio: 0.13547
Core_1_L2C_prefetch_useless 74765
Core_1_L2C_prefetch_late 10820
Core_1_L2C_average_miss_latency 525.24154

Core_1_LLC_total_access 268214
Core_1_LLC_total_hit 140357 LLC_total_Hit Ratio: 0.52330
Core_1_LLC_total_miss 127857
Core_1_LLC_loads 41223
Core_1_LLC_load_hit 9800 LLC_load_Hit Ratio: 0.23773
Core_1_LLC_load_miss 31423
Core_1_LLC_RFOs 21246
Core_1_LLC_RFO_hit 10 LLC_RFO_Hit Ratio: 0.00047
Core_1_LLC_RFO_miss 21236
Core_1_LLC_prefetches 109409
Core_1_LLC_prefetch_hit 39049 LLC_prefetch_Hit Ratio: 0.35691
Core_1_LLC_prefetch_miss 70360
Core_1_LLC_writebacks 96336
Core_1_LLC_writeback_hit 91498 LLC_writeback_Hit Ratio: 0.94978
Core_1_LLC_writeback_miss 4838
Core_1_LLC_prefetch_requested 0
Core_1_LLC_prefetch_issued 0
Core_1_LLC_prefetch_useful 12360 LLC_Useful Ratio: inf
Core_1_LLC_prefetch_useless 179002
Core_1_LLC_prefetch_late 0
Core_1_LLC_average_miss_latency 2594.75188

Core_1_major_page_fault 0
Core_1_minor_page_fault 2405

Core_2_instructions 16000000
Core_2_cycles 27196971
Core_2_IPC 0.58830

Core_2_branch_prediction_accuracy 98.24556
Core_2_branch_MPKI 0.63131
Core_2_average_ROB_occupancy_at_mispredict 322.24364

Core_2_L1D_total_access 4877560
Core_2_L1D_total_hit 4312138 L1D_total_Hit Ratio: 0.88408
Core_2_L1D_total_miss 565422
Core_2_L1D_loads 3999552
Core_2_L1D_load_hit 3705991 L1D_load_Hit Ratio: 0.92660
Core_2_L1D_load_miss 293561
Core_2_L1D_RFOs 550670
Core_2_L1D_RFO_hit 527957 L1D_RFO_Hit Ratio: 0.95875
Core_2_L1D_RFO_miss 22713
Core_2_L1D_prefetches 327338
Core_2_L1D_prefetch_hit 78190 L1D_prefetch_Hit Ratio: 0.23887
Core_2_L1D_prefetch_miss 249148
Core_2_L1D_writebacks 0
Core_2_L1D_writeback_hit 0 L1D_writeback_Hit Ratio: -nan
Core_2_L1D_writeback_miss 0
Core_2_L1D_prefetch_requested 625379
Core_2_L1D_prefetch_issued 551920
Core_2_L1D_prefetch_useful 271919 L1D_Useful Ratio: 0.49268
Core_2_L1D_prefetch_useless 4973
Core_2_L1D_prefetch_late 59638
Core_2_L1D_average_miss_latency 1851264.21886

Core_2_L1I_total_access 2262992
Core_2_L1I_total_hit 2258284 L1I_total_Hit Ratio: 0.99792
Core_2_L1I_total_miss 4708
Core_2_L1I_loads 2262992
Core_2_L1I_load_hit 2258284 L1I_load_Hit Ratio: 0.99792
Core_2_L1I_load_miss 4708
Core_2_L1I_RFOs 0
Core_2_L1I_RFO_hit 0 L1I_RFO_Hit Ratio: -nan
Core_2_L1I_RFO_miss 0
Core_2_L1I_prefetches 0
Core_2_L1I_prefetch_hit 0 L1I_prefetch_Hit Ratio: -nan
Core_2_L1I_prefetch_miss 0
Core_2_L1I_writebacks 0
Core_2_L1I_writeback_hit 0 L1I_writeback_Hit Ratio: -nan
Core_2_L1I_writeback_miss 0
Core_2_L1I_prefetch_requested 0
Core_2_L1I_prefetch_issued 0
Core_2_L1I_prefetch_useful 0 L1I_Useful Ratio: -nan
Core_2_L1I_prefetch_useless 0
Core_2_L1I_prefetch_late 0
Core_2_L1I_average_miss_latency 581.48301

Core_2_L2C_total_access 819413
Core_2_L2C_total_hit 646937 L2C_total_Hit Ratio: 0.78951
Core_2_L2C_total_miss 172476
Core_2_L2C_loads 240206
Core_2_L2C_load_hit 188012 L2C_load_Hit Ratio: 0.78271
Core_2_L2C_load_miss 52194
Core_2_L2C_RFOs 22632
Core_2_L2C_RFO_hit 868 L2C_RFO_Hit Ratio: 0.03835
Core_2_L2C_RFO_miss 21764
Core_2_L2C_prefetches 444432
Core_2_L2C_prefetch_hit 345916 L2C_prefetch_Hit Ratio: 0.77833
Core_2_L2C_prefetch_miss 98516
Core_2_L2C_writebacks 112143
Core_2_L2C_writeback_hit 112141 L2C_writeback_Hit Ratio: 0.99998
Core_2_L2C_writeback_miss 2
Core_2_L2C_prefetch_requested 281567
Core_2_L2C_prefetch_issued 219062
Core_2_L2C_prefetch_useful 28312 L2C_Useful Ratio: 0.12924
Core_2_L2C_prefetch_useless 72258
Core_2_L2C_prefetch_late 11551
Core_2_L2C_average_miss_latency 528.45825

Core_2_LLC_total_access 270459
Core_2_LLC_total_hit 143112 LLC_total_Hit Ratio: 0.52914
Core_2_LLC_total_miss 127347
Core_2_LLC_loads 40809
Core_2_LLC_load_hit 8142 LLC_load_Hit Ratio: 0.19951
Core_2_LLC_load_miss 32667
Core_2_LLC_RFOs 21760
Core_2_LLC_RFO_hit 7 LLC_RFO_Hit Ratio: 0.00032
Core_2_LLC_RFO_miss 21753
Core_2_LLC_prefetches 109905
Core_2_LLC_prefetch_hit 38876 LLC_prefetch_Hit Ratio: 0.35372
Core_2_LLC_prefetch_miss 71029
Core_2_LLC_writebacks 97985
Core_2_LLC_writeback_hit 96087 LLC_writeback_Hit Ratio: 0.98063
Core_2_LLC_writeback_miss 1898
Core_2_LLC_prefetch_requested 0
Core_2_LLC_prefetch_issued 0
Core_2_LLC_prefetch_useful 12360 LLC_Useful Ratio: inf
Core_2_LLC_prefetch_useless 179002
Core_2_LLC_prefetch_late 0
Core_2_LLC_average_miss_latency 2605.14336

Core_2_major_page_fault 0
Core_2_minor_page_fault 2382

Core_3_instructions 16000004
Core_3_cycles 27150746
Core_3_IPC 0.58930

Core_3_branch_prediction_accuracy 98.24613
Core_3_branch_MPKI 0.63014
Core_3_average_ROB_occupancy_at_mispredict 322.11821

Core_3_L1D_total_access 4879304
Core_3_L1D_total_hit 4314224 L1D_total_Hit Ratio: 0.88419
Core_3_L1D_total_miss 565080
Core_3_L1D_loads 3999992
Core_3_L1D_load_hit 3706885 L1D_load_Hit Ratio: 0.92672
Core_3_L1D_load_miss 293107
Core_3_L1D_RFOs 551650
Core_3_L1D_RFO_hit 529597 L1D_RFO_Hit Ratio: 0.96002
Core_3_L1D_RFO_miss 22053
Core_3_L1D_prefetches 327662
Core_3_L1D_prefetch_hit 77742 L1D_prefetch_Hit Ratio: 0.23726
Core_3_L1D_prefetch_miss 249920
Core_3_L1D_writebacks 0
Core_3_L1D_writeback_hit 0 L1D_writeback_Hit Ratio: -nan
Core_3_L1D_writeback_miss 0
Core_3_L1D_prefetch_requested 626411
Core_3_L1D_prefetch_issued 555289
Core_3_L1D_prefetch_useful 273688 L1D_Useful Ratio: 0.49287
Core_3_L1D_prefetch_useless 4622
Core_3_L1D_prefetch_late 60832
Core_3_L1D_average_miss_latency 1896586.65960

Core_3_L1I_total_access 2265478
Core_3_L1I_total_hit 2260769 L1I_total_Hit Ratio: 0.99792
Core_3_L1I_total_miss 4709
Core_3_L1I_loads 2265478
Core_3_L1I_load_hit 2260769 L1I_load_Hit Ratio: 0.99792
Core_3_L1I_load_miss 4709
Core_3_L1I_RFOs 0
Core_3_L1I_RFO_hit 0 L1I_RFO_Hit Ratio: -nan
Core_3_L1I_RFO_miss 0
Core_3_L1I_prefetches 0
Core_3_L1I_prefetch_hit 0 L1I_prefetch_Hit Ratio: -nan
Core_3_L1I_prefetch_miss 0
Core_3_L1I_writebacks 0
Core_3_L1I_writeback_hit 0 L1I_writeback_Hit Ratio: -nan
Core_3_L1I_writeback_miss 0
Core_3_L1I_prefetch_requested 0
Core_3_L1I_prefetch_issued 0
Core_3_L1I_prefetch_useful 0 L1I_Useful Ratio: -nan
Core_3_L1I_prefetch_useless 0
Core_3_L1I_prefetch_late 0
Core_3_L1I_average_miss_latency 593.48333

Core_3_L2C_total_access 822605
Core_3_L2C_total_hit 655705 L2C_total_Hit Ratio: 0.79711
Core_3_L2C_total_miss 166900
Core_3_L2C_loads 238872
Core_3_L2C_load_hit 188078 L2C_load_Hit Ratio: 0.78736
Core_3_L2C_load_miss 50794
Core_3_L2C_RFOs 21947
Core_3_L2C_RFO_hit 878 L2C_RFO_Hit Ratio: 0.04001
Core_3_L2C_RFO_miss 21069
Core_3_L2C_prefetches 449642
Core_3_L2C_prefetch_hit 354609 L2C_prefetch_Hit Ratio: 0.78865
Core_3_L2C_prefetch_miss 95033
Core_3_L2C_writebacks 112144
Core_3_L2C_writeback_hit 112140 L2C_writeback_Hit Ratio: 0.99996
Core_3_L2C_writeback_miss 4
Core_3_L2C_prefetch_requested 284717
Core_3_L2C_prefetch_issued 221034
Core_3_L2C_prefetch_useful 28402 L2C_Useful Ratio: 0.12850
Core_3_L2C_prefetch_useless 69621
Core_3_L2C_prefetch_late 11167
Core_3_L2C_average_miss_latency 537.90197

Core_3_LLC_total_access 262525
Core_3_LLC_total_hit 130465 LLC_total_Hit Ratio: 0.49696
Core_3_LLC_total_miss 132060
Core_3_LLC_loads 39815
Core_3_LLC_load_hit 7356 LLC_load_Hit Ratio: 0.18475
Core_3_LLC_load_miss 32459
Core_3_LLC_RFOs 21067
Core_3_LLC_RFO_hit 28 LLC_RFO_Hit Ratio: 0.00133
Core_3_LLC_RFO_miss 21039
Core_3_LLC_prefetches 106014
Core_3_LLC_prefetch_hit 36148 LLC_prefetch_Hit Ratio: 0.34097
Core_3_LLC_prefetch_miss 69866
Core_3_LLC_writebacks 95629
Core_3_LLC_writeback_hit 86933 LLC_writeback_Hit Ratio: 0.90907
Core_3_LLC_writeback_miss 8696
Core_3_LLC_prefetch_requested 0
Core_3_LLC_prefetch_issued 0
Core_3_LLC_prefetch_useful 12360 LLC_Useful Ratio: inf
Core_3_LLC_prefetch_useless 179002
Core_3_LLC_prefetch_late 0
Core_3_LLC_average_miss_latency 2512.17016

Core_3_major_page_fault 0
Core_3_minor_page_fault 2384

CPU 0 L1D berti prefetcher final stats
CPU 0 L2C berti prefetcher final stats
CPU 1 L1D berti prefetcher final stats
CPU 1 L2C berti prefetcher final stats
CPU 2 L1D berti prefetcher final stats
CPU 2 L2C berti prefetcher final stats
CPU 3 L1D berti prefetcher final stats
CPU 3 L2C berti prefetcher final stats
Channel_0_RQ_row_buffer_hit 268355
Channel_0_RQ_row_buffer_miss 232288
Channel_0_WQ_row_buffer_hit 90829
Channel_0_WQ_row_buffer_miss 168062
Channel_0_WQ_full 5175
Channel_0_dbus_congested 478893

avg_congested_cycle 11

EzSearch AVG IPC :0.59188: L2-Pf-HR :0.78562 : L2-HR :0.79346 Uful:0.13206
EzSearch AVG IPC :0.59927: L2-Pf-HR :0.77683 : L2-HR :0.79422 Uful:0.13547
EzSearch AVG IPC :0.58830: L2-Pf-HR :0.77833 : L2-HR :0.78951 Uful:0.12924
EzSearch AVG IPC :0.58930: L2-Pf-HR :0.78865 : L2-HR :0.79701 Uful:0.12850
     > Finished combination: TraceType=770-tot Sim:16000000 Prefetcher=L2berti_concurso L1=berti_concurso
