TRACE: [662000000][OPT-350M]_[h16][s1024][d64] Warmup: 2000000 NumTraces: 662000000
L1:bingo_dpc3_PHT1k:L2:bingo_dpc3_PHT1k
*************************************************
   ChampSim Multicore Out-of-Order Simulator
   Last compiled: Oct 29 2024 18:29:36
*************************************************

trace_0 770-tot_memTraces_v3_rexz/memTraces[662000000][OPT-350M]_[h16][s1024][d64].champsim.9.xz
trace_1 770-tot_memTraces_v3_rexz/memTraces[662000000][OPT-350M]_[h16][s1024][d64].champsim.9.xz
trace_2 770-tot_memTraces_v3_rexz/memTraces[662000000][OPT-350M]_[h16][s1024][d64].champsim.9.xz
trace_3 770-tot_memTraces_v3_rexz/memTraces[662000000][OPT-350M]_[h16][s1024][d64].champsim.9.xz
Bingo PHT WAYS: 16 and PHT_SIZE: 1024
Bingo2 PHT WAYS: 16 and PHT_SIZE: 1024
Bingo PHT WAYS: 16 and PHT_SIZE: 1024
Bingo2 PHT WAYS: 16 and PHT_SIZE: 1024
Bingo PHT WAYS: 16 and PHT_SIZE: 1024
Bingo2 PHT WAYS: 16 and PHT_SIZE: 1024
Bingo PHT WAYS: 16 and PHT_SIZE: 1024
Bingo2 PHT WAYS: 16 and PHT_SIZE: 1024
MAIN.cc ln 751 stats print skipped
CPU  2 inst:    1000001 cyc:     500418 now IPC :1.99833: AVG IPC :1.99833: L2-Pf-HR :0.73817: L2-HR :0.66130: (Sim:0h0m48s) 
CPU  3 inst:    1000001 cyc:     500479 now IPC :1.99809: AVG IPC :1.99809: L2-Pf-HR :0.73499: L2-HR :0.66054: (Sim:0h0m48s) 
CPU  1 inst:    1000001 cyc:     500557 now IPC :1.99778: AVG IPC :1.99778: L2-Pf-HR :0.76867: L2-HR :0.67776: (Sim:0h0m48s) 
CPU  0 inst:    1000001 cyc:     500630 now IPC :1.99749: AVG IPC :1.99749: L2-Pf-HR :0.74509: L2-HR :0.67156: (Sim:0h0m48s) 
CPU  2 inst:    2000000 cyc:     983921 now IPC :2.06824: AVG IPC :2.03268: L2-Pf-HR :0.76686: L2-HR :0.71528: (Sim:0h1m40s) 
CPU  3 inst:    2000000 cyc:     983952 now IPC :2.06837: AVG IPC :2.03262: L2-Pf-HR :0.77011: L2-HR :0.71824: (Sim:0h1m40s) 
CPU  1 inst:    2000000 cyc:     984025 now IPC :2.06839: AVG IPC :2.03247: L2-Pf-HR :0.78342: L2-HR :0.72295: (Sim:0h1m40s) 
CPU  0 inst:    2000000 cyc:     984148 now IPC :2.06817: AVG IPC :2.03221: L2-Pf-HR :0.77195: L2-HR :0.72356: (Sim:0h1m40s) 

Warmup complete CPU  0 instructions:    2000001 cycles:     984149 (Simulation time: 0 hr 1 min 40 sec) 
Warmup complete CPU  1 instructions:    2000280 cycles:     984148 (Simulation time: 0 hr 1 min 40 sec) 
Warmup complete CPU  2 instructions:    2000420 cycles:     984148 (Simulation time: 0 hr 1 min 40 sec) 
Warmup complete CPU  3 instructions:    2000320 cycles:     984148 (Simulation time: 0 hr 1 min 40 sec) 

CPU  2 inst:    3000000 cyc:    1852714 now IPC :1.15102: AVG IPC :1.15084: L2-Pf-HR :0.90683: L2-HR :0.76978: (Sim:0h2m30s) 
CPU  3 inst:    3000000 cyc:    1854946 now IPC :1.14811: AVG IPC :1.14800: L2-Pf-HR :0.91979: L2-HR :0.77835: (Sim:0h2m30s) 
CPU  0 inst:    3000000 cyc:    1855958 now IPC :1.14704: AVG IPC :1.14704: L2-Pf-HR :0.91750: L2-HR :0.78180: (Sim:0h2m30s) 
CPU  1 inst:    3000000 cyc:    1862650 now IPC :1.13814: AVG IPC :1.13798: L2-Pf-HR :0.91402: L2-HR :0.77064: (Sim:0h2m31s) 
CPU  2 inst:    4000002 cyc:    2704573 now IPC :1.17391: AVG IPC :1.16226: L2-Pf-HR :0.90753: L2-HR :0.76773: (Sim:0h3m9s) 
CPU  3 inst:    4000002 cyc:    2705385 now IPC :1.17587: AVG IPC :1.16177: L2-Pf-HR :0.91513: L2-HR :0.77289: (Sim:0h3m9s) 
CPU  0 inst:    4000002 cyc:    2706397 now IPC :1.17587: AVG IPC :1.16127: L2-Pf-HR :0.91306: L2-HR :0.77668: (Sim:0h3m9s) 
CPU  1 inst:    4000002 cyc:    2728897 now IPC :1.15441: AVG IPC :1.14614: L2-Pf-HR :0.91147: L2-HR :0.76833: (Sim:0h3m10s) 
CPU  0 inst:    5000000 cyc:    3492805 now IPC :1.27160: AVG IPC :1.19586: L2-Pf-HR :0.89623: L2-HR :0.77112: (Sim:0h3m56s) 
CPU  2 inst:    5000000 cyc:    3504525 now IPC :1.25007: AVG IPC :1.19013: L2-Pf-HR :0.89456: L2-HR :0.76223: (Sim:0h3m57s) 
CPU  3 inst:    5000000 cyc:    3505449 now IPC :1.24990: AVG IPC :1.18973: L2-Pf-HR :0.90456: L2-HR :0.76910: (Sim:0h3m57s) 
CPU  1 inst:    5000000 cyc:    3563029 now IPC :1.19885: AVG IPC :1.16319: L2-Pf-HR :0.90031: L2-HR :0.76251: (Sim:0h4m0s) 
CPU  0 inst:    6000004 cyc:    4292782 now IPC :1.25004: AVG IPC :1.20896: L2-Pf-HR :0.89656: L2-HR :0.76924: (Sim:0h4m41s) 
CPU  2 inst:    6000004 cyc:    4327707 now IPC :1.21480: AVG IPC :1.19621: L2-Pf-HR :0.89376: L2-HR :0.75942: (Sim:0h4m42s) 
CPU  3 inst:    6000004 cyc:    4327911 now IPC :1.21587: AVG IPC :1.19616: L2-Pf-HR :0.90480: L2-HR :0.76700: (Sim:0h4m42s) 
CPU  1 inst:    6000004 cyc:    4378075 now IPC :1.22693: AVG IPC :1.17849: L2-Pf-HR :0.89830: L2-HR :0.75976: (Sim:0h4m44s) 
CPU  0 inst:    7000001 cyc:    5254271 now IPC :1.04005: AVG IPC :1.17093: L2-Pf-HR :0.89884: L2-HR :0.76813: (Sim:0h5m20s) 
CPU  2 inst:    7000001 cyc:    5535981 now IPC :0.82762: AVG IPC :1.09837: L2-Pf-HR :0.89716: L2-HR :0.76008: (Sim:0h5m34s) 
CPU  3 inst:    7000001 cyc:    5537197 now IPC :0.82693: AVG IPC :1.09810: L2-Pf-HR :0.90634: L2-HR :0.76709: (Sim:0h5m34s) 
CPU  1 inst:    7000001 cyc:    5556955 now IPC :0.84826: AVG IPC :1.09336: L2-Pf-HR :0.90057: L2-HR :0.76015: (Sim:0h5m35s) 
CPU  0 inst:    8000002 cyc:    6090995 now IPC :1.19514: AVG IPC :1.17489: L2-Pf-HR :0.90231: L2-HR :0.76920: (Sim:0h6m0s) 
CPU  2 inst:    8000002 cyc:    6734941 now IPC :0.83406: AVG IPC :1.04326: L2-Pf-HR :0.90073: L2-HR :0.76065: (Sim:0h6m29s) 
CPU  3 inst:    8000002 cyc:    6826334 now IPC :0.77571: AVG IPC :1.02696: L2-Pf-HR :0.90987: L2-HR :0.76892: (Sim:0h6m33s) 
CPU  1 inst:    8000002 cyc:    6826942 now IPC :0.78741: AVG IPC :1.02686: L2-Pf-HR :0.90434: L2-HR :0.76164: (Sim:0h6m33s) 
CPU  0 inst:    9000003 cyc:    7222906 now IPC :0.88346: AVG IPC :1.12202: L2-Pf-HR :0.90500: L2-HR :0.76942: (Sim:0h6m52s) 
CPU  2 inst:    9000003 cyc:    7620540 now IPC :1.12918: AVG IPC :1.05473: L2-Pf-HR :0.90359: L2-HR :0.76071: (Sim:0h7m11s) 
CPU  1 inst:    9000003 cyc:    8002255 now IPC :0.85084: AVG IPC :0.99738: L2-Pf-HR :0.90736: L2-HR :0.76210: (Sim:0h7m30s) 
CPU  3 inst:    9000003 cyc:    8017496 now IPC :0.83952: AVG IPC :0.99521: L2-Pf-HR :0.91276: L2-HR :0.77012: (Sim:0h7m30s) 
CPU  0 inst:   10000000 cyc:    8370073 now IPC :0.87171: AVG IPC :1.08314: L2-Pf-HR :0.90737: L2-HR :0.76959: (Sim:0h7m48s) 
CPU  2 inst:   10000005 cyc:    8477479 now IPC :1.16695: AVG IPC :1.06756: L2-Pf-HR :0.90581: L2-HR :0.76075: (Sim:0h7m53s) 
CPU  1 inst:   10000000 cyc:    9114171 now IPC :0.89935: AVG IPC :0.98397: L2-Pf-HR :0.90943: L2-HR :0.76283: (Sim:0h8m22s) 
CPU  3 inst:   10000000 cyc:    9221055 now IPC :0.83087: AVG IPC :0.97120: L2-Pf-HR :0.91525: L2-HR :0.77073: (Sim:0h8m28s) 
CPU  0 inst:   11000002 cyc:    9517933 now IPC :0.87119: AVG IPC :1.05463: L2-Pf-HR :0.91044: L2-HR :0.77046: (Sim:0h8m43s) 
CPU  2 inst:   11000002 cyc:    9547540 now IPC :0.93452: AVG IPC :1.05094: L2-Pf-HR :0.90795: L2-HR :0.76104: (Sim:0h8m44s) 
CPU  1 inst:   11000002 cyc:    9934990 now IPC :1.21830: AVG IPC :1.00546: L2-Pf-HR :0.91221: L2-HR :0.76353: (Sim:0h9m5s) 
CPU  3 inst:   11000002 cyc:   10241035 now IPC :0.98041: AVG IPC :0.97221: L2-Pf-HR :0.91752: L2-HR :0.77158: (Sim:0h9m22s) 
CPU  0 inst:   12000005 cyc:   10435784 now IPC :1.08950: AVG IPC :1.05802: L2-Pf-HR :0.91203: L2-HR :0.77027: (Sim:0h9m34s) 
CPU  2 inst:   12000005 cyc:   10513034 now IPC :1.03574: AVG IPC :1.04940: L2-Pf-HR :0.90962: L2-HR :0.76087: (Sim:0h9m38s) 
CPU  1 inst:   12000005 cyc:   10753812 now IPC :1.22127: AVG IPC :1.02355: L2-Pf-HR :0.91423: L2-HR :0.76390: (Sim:0h9m50s) 
CPU  3 inst:   12000005 cyc:   11388045 now IPC :0.87183: AVG IPC :0.96115: L2-Pf-HR :0.91841: L2-HR :0.77179: (Sim:0h10m19s) 
CPU  0 inst:   13000004 cyc:   11599842 now IPC :0.85906: AVG IPC :1.03620: L2-Pf-HR :0.91090: L2-HR :0.77118: (Sim:0h10m31s) 
CPU  2 inst:   13000004 cyc:   11719978 now IPC :0.82854: AVG IPC :1.02457: L2-Pf-HR :0.90861: L2-HR :0.76255: (Sim:0h10m36s) 
CPU  1 inst:   13000004 cyc:   11880472 now IPC :0.88758: AVG IPC :1.00949: L2-Pf-HR :0.91370: L2-HR :0.76661: (Sim:0h10m45s) 
CPU  3 inst:   13000004 cyc:   12483028 now IPC :0.91326: AVG IPC :0.95659: L2-Pf-HR :0.91697: L2-HR :0.77355: (Sim:0h11m18s) 
CPU  0 inst:   14000003 cyc:   12593376 now IPC :1.00651: AVG IPC :1.03366: L2-Pf-HR :0.91200: L2-HR :0.77339: (Sim:0h11m24s) 
CPU  2 inst:   14000000 cyc:   12666119 now IPC :1.05692: AVG IPC :1.02719: L2-Pf-HR :0.90930: L2-HR :0.76499: (Sim:0h11m28s) 
CPU  1 inst:   14000005 cyc:   12814030 now IPC :1.07117: AVG IPC :1.01436: L2-Pf-HR :0.91424: L2-HR :0.76955: (Sim:0h11m36s) 
CPU  3 inst:   14000004 cyc:   13468680 now IPC :1.01456: AVG IPC :0.96116: L2-Pf-HR :0.91733: L2-HR :0.77604: (Sim:0h12m11s) 
CPU  0 inst:   15000005 cyc:   13628875 now IPC :0.96572: AVG IPC :1.02810: L2-Pf-HR :0.91231: L2-HR :0.77578: (Sim:0h12m19s) 
CPU  2 inst:   15000005 cyc:   13683297 now IPC :0.98312: AVG IPC :1.02366: L2-Pf-HR :0.90925: L2-HR :0.76788: (Sim:0h12m22s) 
CPU  1 inst:   15000005 cyc:   13777579 now IPC :1.03783: AVG IPC :1.01612: L2-Pf-HR :0.91466: L2-HR :0.77289: (Sim:0h12m27s) 
CPU  3 inst:   15000005 cyc:   14513201 now IPC :0.95738: AVG IPC :0.96087: L2-Pf-HR :0.91710: L2-HR :0.77886: (Sim:0h13m4s) 
CPU  0 inst:   16000000 cyc:   14661636 now IPC :0.96827: AVG IPC :1.02358: L2-Pf-HR :0.91218: L2-HR :0.77844: (Sim:0h13m11s) 
CPU  2 inst:   16000000 cyc:   14735238 now IPC :0.95062: AVG IPC :1.01807: L2-Pf-HR :0.90965: L2-HR :0.77128: (Sim:0h13m15s) 
CPU  1 inst:   16000000 cyc:   14796517 now IPC :0.98141: AVG IPC :1.01356: L2-Pf-HR :0.91455: L2-HR :0.77627: (Sim:0h13m18s) 
CPU  3 inst:   16000000 cyc:   15760410 now IPC :0.80179: AVG IPC :0.94744: L2-Pf-HR :0.91687: L2-HR :0.78131: (Sim:0h13m47s) 
CPU  0 inst:   17000001 cyc:   16076215 now IPC :0.70692: AVG IPC :0.99390: L2-Pf-HR :0.91087: L2-HR :0.77573: (Sim:0h14m0s) 
CPU  2 inst:   17000001 cyc:   16324905 now IPC :0.62906: AVG IPC :0.97776: L2-Pf-HR :0.90805: L2-HR :0.76923: (Sim:0h14m9s) 
CPU  1 inst:   17000001 cyc:   16378902 now IPC :0.63196: AVG IPC :0.97434: L2-Pf-HR :0.91305: L2-HR :0.77397: (Sim:0h14m11s) 
CPU  0 inst:   18000000 cyc:   17229582 now IPC :0.86703: AVG IPC :0.98489: L2-Pf-HR :0.91052: L2-HR :0.77466: (Sim:0h14m46s) 
CPU  3 inst:   17000001 cyc:   17531389 now IPC :0.56466: AVG IPC :0.90648: L2-Pf-HR :0.91454: L2-HR :0.77814: (Sim:0h14m58s) 
CPU  2 inst:   18000000 cyc:   17826352 now IPC :0.66602: AVG IPC :0.94997: L2-Pf-HR :0.90777: L2-HR :0.76860: (Sim:0h15m11s) 
CPU  1 inst:   18000000 cyc:   17949823 now IPC :0.63657: AVG IPC :0.94306: L2-Pf-HR :0.91287: L2-HR :0.77315: (Sim:0h15m15s) 
CPU  0 inst:   19000005 cyc:   18476137 now IPC :0.80221: AVG IPC :0.97187: L2-Pf-HR :0.90968: L2-HR :0.77350: (Sim:0h15m29s) 
CPU  3 inst:   18000000 cyc:   19028613 now IPC :0.66790: AVG IPC :0.88668: L2-Pf-HR :0.91412: L2-HR :0.77671: (Sim:0h15m45s) 
CPU  2 inst:   19000005 cyc:   19078564 now IPC :0.79859: AVG IPC :0.93949: L2-Pf-HR :0.90709: L2-HR :0.76779: (Sim:0h15m47s) 
CPU  1 inst:   19000005 cyc:   19396067 now IPC :0.69145: AVG IPC :0.92330: L2-Pf-HR :0.91233: L2-HR :0.77225: (Sim:0h15m56s) 
CPU  0 inst:   20000001 cyc:   19891796 now IPC :0.70638: AVG IPC :0.95200: L2-Pf-HR :0.90979: L2-HR :0.77247: (Sim:0h16m9s) 
CPU  2 inst:   20000001 cyc:   20210138 now IPC :0.88372: AVG IPC :0.93621: L2-Pf-HR :0.90710: L2-HR :0.76720: (Sim:0h16m18s) 
CPU  3 inst:   19000005 cyc:   20513409 now IPC :0.67350: AVG IPC :0.87047: L2-Pf-HR :0.91357: L2-HR :0.77531: (Sim:0h16m26s) 
CPU  1 inst:   20000001 cyc:   20928746 now IPC :0.65245: AVG IPC :0.90249: L2-Pf-HR :0.91216: L2-HR :0.77146: (Sim:0h16m42s) 
CPU  0 inst:   21000003 cyc:   21493427 now IPC :0.62436: AVG IPC :0.92641: L2-Pf-HR :0.90980: L2-HR :0.77167: (Sim:0h17m4s) 
CPU  2 inst:   21000003 cyc:   21555274 now IPC :0.74342: AVG IPC :0.92360: L2-Pf-HR :0.90709: L2-HR :0.76659: (Sim:0h17m7s) 
CPU  3 inst:   20000000 cyc:   22067899 now IPC :0.64329: AVG IPC :0.85372: L2-Pf-HR :0.91354: L2-HR :0.77411: (Sim:0h17m27s) 
CPU  1 inst:   21000003 cyc:   22418742 now IPC :0.67114: AVG IPC :0.88640: L2-Pf-HR :0.91188: L2-HR :0.77084: (Sim:0h17m41s) 
CPU  0 inst:   22000002 cyc:   23072197 now IPC :0.63340: AVG IPC :0.90547: L2-Pf-HR :0.90956: L2-HR :0.77075: (Sim:0h18m9s) 
CPU  2 inst:   22000002 cyc:   23089981 now IPC :0.65159: AVG IPC :0.90472: L2-Pf-HR :0.90684: L2-HR :0.76591: (Sim:0h18m10s) 
CPU  3 inst:   21000003 cyc:   23403710 now IPC :0.74861: AVG IPC :0.84746: L2-Pf-HR :0.91313: L2-HR :0.77309: (Sim:0h18m20s) 
CPU  1 inst:   22000002 cyc:   23686880 now IPC :0.78856: AVG IPC :0.88094: L2-Pf-HR :0.91100: L2-HR :0.77015: (Sim:0h18m28s) 
CPU  2 inst:   23000001 cyc:   24647679 now IPC :0.64197: AVG IPC :0.88742: L2-Pf-HR :0.90702: L2-HR :0.76588: (Sim:0h18m53s) 
CPU  0 inst:   23000001 cyc:   24659966 now IPC :0.62981: AVG IPC :0.88698: L2-Pf-HR :0.90954: L2-HR :0.77027: (Sim:0h18m53s) 
CPU  3 inst:   22000002 cyc:   24684456 now IPC :0.78079: AVG IPC :0.84386: L2-Pf-HR :0.91271: L2-HR :0.77198: (Sim:0h18m54s) 
CPU  1 inst:   23000001 cyc:   25070719 now IPC :0.72263: AVG IPC :0.87184: L2-Pf-HR :0.91025: L2-HR :0.76880: (Sim:0h19m6s) 
CPU  2 inst:   24000005 cyc:   25882313 now IPC :0.80996: AVG IPC :0.88358: L2-Pf-HR :0.90861: L2-HR :0.76651: (Sim:0h19m35s) 
CPU  0 inst:   24000005 cyc:   25919391 now IPC :0.79402: AVG IPC :0.88229: L2-Pf-HR :0.91101: L2-HR :0.77066: (Sim:0h19m36s) 
CPU  3 inst:   23000001 cyc:   25966567 now IPC :0.77996: AVG IPC :0.84058: L2-Pf-HR :0.91227: L2-HR :0.77099: (Sim:0h19m39s) 
CPU  1 inst:   24000005 cyc:   26244796 now IPC :0.85174: AVG IPC :0.87091: L2-Pf-HR :0.91116: L2-HR :0.76852: (Sim:0h19m52s) 
CPU  2 inst:   25000005 cyc:   26995297 now IPC :0.89849: AVG IPC :0.88422: L2-Pf-HR :0.91004: L2-HR :0.76707: (Sim:0h20m29s) 
CPU  3 inst:   24000005 cyc:   27076140 now IPC :0.90125: AVG IPC :0.84316: L2-Pf-HR :0.91319: L2-HR :0.77072: (Sim:0h20m33s) 
CPU  0 inst:   25000005 cyc:   27079879 now IPC :0.86171: AVG IPC :0.88137: L2-Pf-HR :0.91232: L2-HR :0.77105: (Sim:0h20m33s) 
CPU  1 inst:   25000005 cyc:   27383039 now IPC :0.87855: AVG IPC :0.87124: L2-Pf-HR :0.91182: L2-HR :0.76812: (Sim:0h20m48s) 
CPU  2 inst:   26000004 cyc:   28035887 now IPC :0.96099: AVG IPC :0.88717: L2-Pf-HR :0.91162: L2-HR :0.76787: (Sim:0h21m20s) 
CPU  0 inst:   26000004 cyc:   28139381 now IPC :0.94384: AVG IPC :0.88381: L2-Pf-HR :0.91335: L2-HR :0.77140: (Sim:0h21m25s) 
CPU  3 inst:   25000005 cyc:   28159612 now IPC :0.92296: AVG IPC :0.84634: L2-Pf-HR :0.91378: L2-HR :0.77024: (Sim:0h21m26s) 
CPU  1 inst:   26000004 cyc:   28499325 now IPC :0.89583: AVG IPC :0.87224: L2-Pf-HR :0.91229: L2-HR :0.76774: (Sim:0h21m42s) 
CPU  2 inst:   27000003 cyc:   29013854 now IPC :1.02253: AVG IPC :0.89190: L2-Pf-HR :0.91351: L2-HR :0.76876: (Sim:0h22m7s) 
CPU  0 inst:   27000003 cyc:   29137969 now IPC :1.00141: AVG IPC :0.88798: L2-Pf-HR :0.91455: L2-HR :0.77170: (Sim:0h22m13s) 
CPU  3 inst:   26000004 cyc:   29185825 now IPC :0.97446: AVG IPC :0.85100: L2-Pf-HR :0.91437: L2-HR :0.76982: (Sim:0h22m16s) 
CPU  1 inst:   27000003 cyc:   29548057 now IPC :0.95353: AVG IPC :0.87522: L2-Pf-HR :0.91284: L2-HR :0.76761: (Sim:0h22m33s) 
CPU  2 inst:   28000003 cyc:   29953504 now IPC :1.06423: AVG IPC :0.89749: L2-Pf-HR :0.91472: L2-HR :0.76913: (Sim:0h22m54s) 
CPU  0 inst:   28000003 cyc:   30095778 now IPC :1.04405: AVG IPC :0.89311: L2-Pf-HR :0.91619: L2-HR :0.77229: (Sim:0h23m1s) 
CPU  3 inst:   27000003 cyc:   30152236 now IPC :1.03476: AVG IPC :0.85709: L2-Pf-HR :0.91497: L2-HR :0.76955: (Sim:0h23m3s) 
CPU  1 inst:   28000003 cyc:   30600043 now IPC :0.95058: AVG IPC :0.87790: L2-Pf-HR :0.91339: L2-HR :0.76730: (Sim:0h23m24s) 
CPU  2 inst:   29000003 cyc:   31093933 now IPC :0.87686: AVG IPC :0.89670: L2-Pf-HR :0.91480: L2-HR :0.76967: (Sim:0h23m47s) 
CPU  3 inst:   28000003 cyc:   31144711 now IPC :1.00758: AVG IPC :0.86204: L2-Pf-HR :0.91544: L2-HR :0.76916: (Sim:0h23m49s) 
CPU  0 inst:   29000003 cyc:   31240057 now IPC :0.87391: AVG IPC :0.89239: L2-Pf-HR :0.91643: L2-HR :0.77292: (Sim:0h23m53s) 
CPU  1 inst:   29000003 cyc:   31878595 now IPC :0.78213: AVG IPC :0.87393: L2-Pf-HR :0.91298: L2-HR :0.76754: (Sim:0h24m21s) 
CPU  2 inst:   30000005 cyc:   32142808 now IPC :0.95340: AVG IPC :0.89861: L2-Pf-HR :0.91525: L2-HR :0.77097: (Sim:0h24m32s) 
CPU  3 inst:   29000003 cyc:   32465050 now IPC :0.75738: AVG IPC :0.85765: L2-Pf-HR :0.91498: L2-HR :0.76936: (Sim:0h24m46s) 
CPU  0 inst:   30000005 cyc:   32516586 now IPC :0.78338: AVG IPC :0.88797: L2-Pf-HR :0.91677: L2-HR :0.77416: (Sim:0h24m48s) 
CPU  1 inst:   30000005 cyc:   33225659 now IPC :0.74236: AVG IPC :0.86844: L2-Pf-HR :0.91325: L2-HR :0.76898: (Sim:0h25m17s) 
CPU  2 inst:   31000003 cyc:   33260655 now IPC :0.89457: AVG IPC :0.89847: L2-Pf-HR :0.91569: L2-HR :0.77246: (Sim:0h25m19s) 
CPU  3 inst:   30000005 cyc:   33580818 now IPC :0.89625: AVG IPC :0.85897: L2-Pf-HR :0.91526: L2-HR :0.77073: (Sim:0h25m33s) 
CPU  0 inst:   31000002 cyc:   33876753 now IPC :0.73520: AVG IPC :0.88166: L2-Pf-HR :0.91711: L2-HR :0.77552: (Sim:0h25m45s) 
CPU  1 inst:   31000001 cyc:   34519088 now IPC :0.77314: AVG IPC :0.86476: L2-Pf-HR :0.91348: L2-HR :0.77053: (Sim:0h26m11s) 
CPU  2 inst:   32000005 cyc:   34655185 now IPC :0.71709: AVG IPC :0.89096: L2-Pf-HR :0.91586: L2-HR :0.77384: (Sim:0h26m16s) 
CPU  3 inst:   31000001 cyc:   34674886 now IPC :0.91402: AVG IPC :0.86076: L2-Pf-HR :0.91542: L2-HR :0.77214: (Sim:0h26m17s) 
CPU  0 inst:   32000005 cyc:   35355331 now IPC :0.67633: AVG IPC :0.87282: L2-Pf-HR :0.91707: L2-HR :0.77658: (Sim:0h26m44s) 
CPU  1 inst:   32000004 cyc:   35646720 now IPC :0.88682: AVG IPC :0.86548: L2-Pf-HR :0.91342: L2-HR :0.77192: (Sim:0h26m57s) 
CPU  3 inst:   32000005 cyc:   35955726 now IPC :0.78074: AVG IPC :0.85783: L2-Pf-HR :0.91517: L2-HR :0.77324: (Sim:0h27m9s) 
CPU  2 inst:   33000000 cyc:   36085596 now IPC :0.69910: AVG IPC :0.88314: L2-Pf-HR :0.91507: L2-HR :0.77307: (Sim:0h27m16s) 
CPU  0 inst:   33000000 cyc:   36675353 now IPC :0.75756: AVG IPC :0.86856: L2-Pf-HR :0.91597: L2-HR :0.77564: (Sim:0h27m38s) 
CPU  1 inst:   33000000 cyc:   37039411 now IPC :0.71803: AVG IPC :0.85978: L2-Pf-HR :0.91294: L2-HR :0.77135: (Sim:0h27m54s) 
CPU  3 inst:   33000000 cyc:   37262118 now IPC :0.76546: AVG IPC :0.85450: L2-Pf-HR :0.91385: L2-HR :0.77238: (Sim:0h28m4s) 
CPU  2 inst:   34000004 cyc:   37403661 now IPC :0.75869: AVG IPC :0.87864: L2-Pf-HR :0.91473: L2-HR :0.77263: (Sim:0h28m10s) 
CPU  0 inst:   34000004 cyc:   37773623 now IPC :0.91053: AVG IPC :0.86981: L2-Pf-HR :0.91540: L2-HR :0.77509: (Sim:0h28m25s) 
CPU  1 inst:   34000004 cyc:   38335937 now IPC :0.77130: AVG IPC :0.85671: L2-Pf-HR :0.91271: L2-HR :0.77094: (Sim:0h28m49s) 
CPU  3 inst:   34000004 cyc:   38512280 now IPC :0.79990: AVG IPC :0.85269: L2-Pf-HR :0.91386: L2-HR :0.77204: (Sim:0h28m57s) 
CPU  2 inst:   35000002 cyc:   38734904 now IPC :0.75118: AVG IPC :0.87414: L2-Pf-HR :0.91430: L2-HR :0.77198: (Sim:0h29m7s) 
CPU  0 inst:   35000003 cyc:   38938577 now IPC :0.85840: AVG IPC :0.86946: L2-Pf-HR :0.91479: L2-HR :0.77439: (Sim:0h29m16s) 
CPU  1 inst:   35000003 cyc:   39568840 now IPC :0.81109: AVG IPC :0.85525: L2-Pf-HR :0.91223: L2-HR :0.77044: (Sim:0h29m46s) 
CPU  3 inst:   35000000 cyc:   39795171 now IPC :0.77949: AVG IPC :0.85027: L2-Pf-HR :0.91353: L2-HR :0.77148: (Sim:0h29m56s) 
CPU  2 inst:   36000005 cyc:   40046383 now IPC :0.76250: AVG IPC :0.87040: L2-Pf-HR :0.91402: L2-HR :0.77142: (Sim:0h30m7s) 
CPU  0 inst:   36000005 cyc:   40200259 now IPC :0.79259: AVG IPC :0.86699: L2-Pf-HR :0.91440: L2-HR :0.77372: (Sim:0h30m15s) 
CPU  1 inst:   36000005 cyc:   40803758 now IPC :0.80977: AVG IPC :0.85384: L2-Pf-HR :0.91196: L2-HR :0.76995: (Sim:0h30m42s) 
CPU  3 inst:   36000005 cyc:   41167022 now IPC :0.72895: AVG IPC :0.84612: L2-Pf-HR :0.91333: L2-HR :0.77097: (Sim:0h30m59s) 
CPU  2 inst:   37000003 cyc:   41279604 now IPC :0.81088: AVG IPC :0.86857: L2-Pf-HR :0.91375: L2-HR :0.77094: (Sim:0h31m4s) 
CPU  0 inst:   37000003 cyc:   41521993 now IPC :0.75658: AVG IPC :0.86339: L2-Pf-HR :0.91415: L2-HR :0.77318: (Sim:0h31m16s) 
CPU  1 inst:   37000003 cyc:   41960153 now IPC :0.86475: AVG IPC :0.85415: L2-Pf-HR :0.91185: L2-HR :0.76957: (Sim:0h31m36s) 
CPU  2 inst:   38000003 cyc:   42461103 now IPC :0.84638: AVG IPC :0.86794: L2-Pf-HR :0.91347: L2-HR :0.77037: (Sim:0h32m0s) 
CPU  3 inst:   37000003 cyc:   42530783 now IPC :0.73326: AVG IPC :0.84242: L2-Pf-HR :0.91300: L2-HR :0.77044: (Sim:0h32m3s) 
CPU  0 inst:   38000003 cyc:   42832900 now IPC :0.76283: AVG IPC :0.86024: L2-Pf-HR :0.91384: L2-HR :0.77254: (Sim:0h32m18s) 
CPU  1 inst:   38000003 cyc:   43136442 now IPC :0.85013: AVG IPC :0.85404: L2-Pf-HR :0.91169: L2-HR :0.76907: (Sim:0h32m31s) 
CPU  2 inst:   39000003 cyc:   43800027 now IPC :0.74687: AVG IPC :0.86416: L2-Pf-HR :0.91309: L2-HR :0.76986: (Sim:0h33m0s) 
CPU  3 inst:   38000003 cyc:   43917738 now IPC :0.72100: AVG IPC :0.83850: L2-Pf-HR :0.91264: L2-HR :0.76997: (Sim:0h33m5s) 
CPU  0 inst:   39000003 cyc:   44245601 now IPC :0.70786: AVG IPC :0.85526: L2-Pf-HR :0.91321: L2-HR :0.77175: (Sim:0h33m22s) 
CPU  1 inst:   39000003 cyc:   44392490 now IPC :0.79615: AVG IPC :0.85236: L2-Pf-HR :0.91114: L2-HR :0.76829: (Sim:0h33m30s) 
CPU  2 inst:   40000003 cyc:   44886633 now IPC :0.92030: AVG IPC :0.86555: L2-Pf-HR :0.91358: L2-HR :0.76980: (Sim:0h33m52s) 
CPU  3 inst:   39000003 cyc:   45262730 now IPC :0.74350: AVG IPC :0.83561: L2-Pf-HR :0.91205: L2-HR :0.76916: (Sim:0h34m10s) 
CPU  0 inst:   40000003 cyc:   45332357 now IPC :0.92017: AVG IPC :0.85686: L2-Pf-HR :0.91360: L2-HR :0.77165: (Sim:0h34m13s) 
CPU  1 inst:   40000003 cyc:   45694460 now IPC :0.76807: AVG IPC :0.84991: L2-Pf-HR :0.91159: L2-HR :0.76814: (Sim:0h34m31s) 
CPU  2 inst:   41000003 cyc:   46073260 now IPC :0.84272: AVG IPC :0.86494: L2-Pf-HR :0.91388: L2-HR :0.76950: (Sim:0h34m49s) 
CPU  0 inst:   41000003 cyc:   46282730 now IPC :1.05222: AVG IPC :0.86095: L2-Pf-HR :0.91386: L2-HR :0.77145: (Sim:0h35m0s) 
CPU  3 inst:   40000003 cyc:   46433875 now IPC :0.85387: AVG IPC :0.83608: L2-Pf-HR :0.91254: L2-HR :0.76902: (Sim:0h35m7s) 
CPU  1 inst:   41000003 cyc:   46968218 now IPC :0.78508: AVG IPC :0.84811: L2-Pf-HR :0.91192: L2-HR :0.76787: (Sim:0h35m33s) 
CPU  2 inst:   42000001 cyc:   47326375 now IPC :0.79801: AVG IPC :0.86313: L2-Pf-HR :0.91411: L2-HR :0.76918: (Sim:0h35m50s) 
CPU  3 inst:   41000003 cyc:   47395132 now IPC :1.04030: AVG IPC :0.84031: L2-Pf-HR :0.91293: L2-HR :0.76879: (Sim:0h35m54s) 
CPU  0 inst:   42000001 cyc:   47407695 now IPC :0.88891: AVG IPC :0.86163: L2-Pf-HR :0.91412: L2-HR :0.77123: (Sim:0h35m54s) 
CPU  1 inst:   42000001 cyc:   48223557 now IPC :0.79660: AVG IPC :0.84674: L2-Pf-HR :0.91217: L2-HR :0.76759: (Sim:0h36m34s) 
CPU  3 inst:   42000001 cyc:   48409676 now IPC :0.98566: AVG IPC :0.84342: L2-Pf-HR :0.91330: L2-HR :0.76856: (Sim:0h36m43s) 
CPU  2 inst:   43000002 cyc:   48438982 now IPC :0.89879: AVG IPC :0.86397: L2-Pf-HR :0.91450: L2-HR :0.76907: (Sim:0h36m45s) 
CPU  0 inst:   43000001 cyc:   48597970 now IPC :0.84014: AVG IPC :0.86109: L2-Pf-HR :0.91445: L2-HR :0.77120: (Sim:0h36m53s) 
CPU  1 inst:   43000003 cyc:   49324039 now IPC :0.90869: AVG IPC :0.84816: L2-Pf-HR :0.91257: L2-HR :0.76752: (Sim:0h37m30s) 
CPU  2 inst:   44000001 cyc:   49431288 now IPC :1.00775: AVG IPC :0.86692: L2-Pf-HR :0.91490: L2-HR :0.76881: (Sim:0h37m36s) 
CPU  3 inst:   43000001 cyc:   49453115 now IPC :0.95837: AVG IPC :0.84590: L2-Pf-HR :0.91374: L2-HR :0.76845: (Sim:0h37m37s) 
CPU  0 inst:   44000001 cyc:   49717107 now IPC :0.89355: AVG IPC :0.86184: L2-Pf-HR :0.91481: L2-HR :0.77103: (Sim:0h37m50s) 
CPU  1 inst:   44000001 cyc:   50404635 now IPC :0.92541: AVG IPC :0.84984: L2-Pf-HR :0.91287: L2-HR :0.76726: (Sim:0h38m24s) 
CPU  2 inst:   45000005 cyc:   50520957 now IPC :0.91771: AVG IPC :0.86803: L2-Pf-HR :0.91453: L2-HR :0.76869: (Sim:0h38m30s) 
CPU  3 inst:   44000001 cyc:   50570606 now IPC :0.89486: AVG IPC :0.84700: L2-Pf-HR :0.91407: L2-HR :0.76825: (Sim:0h38m33s) 
CPU  0 inst:   45000005 cyc:   50936639 now IPC :0.81999: AVG IPC :0.86082: L2-Pf-HR :0.91443: L2-HR :0.77089: (Sim:0h38m51s) 
CPU  1 inst:   45000005 cyc:   51577145 now IPC :0.85287: AVG IPC :0.84991: L2-Pf-HR :0.91259: L2-HR :0.76729: (Sim:0h39m22s) 
CPU  2 inst:   46000002 cyc:   51634696 now IPC :0.89787: AVG IPC :0.86869: L2-Pf-HR :0.91449: L2-HR :0.76944: (Sim:0h39m25s) 
CPU  3 inst:   45000005 cyc:   51749879 now IPC :0.84798: AVG IPC :0.84702: L2-Pf-HR :0.91379: L2-HR :0.76822: (Sim:0h39m30s) 
CPU  0 inst:   46000002 cyc:   52014094 now IPC :0.92811: AVG IPC :0.86224: L2-Pf-HR :0.91446: L2-HR :0.77156: (Sim:0h39m44s) 
CPU  1 inst:   46000002 cyc:   52634252 now IPC :0.94598: AVG IPC :0.85188: L2-Pf-HR :0.91271: L2-HR :0.76818: (Sim:0h40m16s) 
CPU  2 inst:   47000003 cyc:   52758492 now IPC :0.88984: AVG IPC :0.86915: L2-Pf-HR :0.91459: L2-HR :0.77014: (Sim:0h40m21s) 
CPU  3 inst:   46000002 cyc:   52816202 now IPC :0.93780: AVG IPC :0.84889: L2-Pf-HR :0.91390: L2-HR :0.76913: (Sim:0h40m25s) 
CPU  0 inst:   47000003 cyc:   53086973 now IPC :0.93207: AVG IPC :0.86368: L2-Pf-HR :0.91471: L2-HR :0.77223: (Sim:0h40m38s) 
CPU  1 inst:   47000003 cyc:   53738082 now IPC :0.90594: AVG IPC :0.85301: L2-Pf-HR :0.91284: L2-HR :0.76905: (Sim:0h41m11s) 
CPU  2 inst:   48000005 cyc:   53845933 now IPC :0.91959: AVG IPC :0.87019: L2-Pf-HR :0.91441: L2-HR :0.77096: (Sim:0h41m17s) 
CPU  3 inst:   47000003 cyc:   53911470 now IPC :0.91302: AVG IPC :0.85022: L2-Pf-HR :0.91409: L2-HR :0.76995: (Sim:0h41m20s) 
CPU  0 inst:   48000000 cyc:   54078898 now IPC :1.00814: AVG IPC :0.86638: L2-Pf-HR :0.91481: L2-HR :0.77298: (Sim:0h41m29s) 
CPU  1 inst:   48000000 cyc:   54829994 now IPC :0.91582: AVG IPC :0.85429: L2-Pf-HR :0.91294: L2-HR :0.77007: (Sim:0h42m3s) 
CPU  3 inst:   48000000 cyc:   55030515 now IPC :0.89362: AVG IPC :0.85112: L2-Pf-HR :0.91404: L2-HR :0.77087: (Sim:0h42m13s) 
CPU  2 inst:   49000004 cyc:   55162238 now IPC :0.75970: AVG IPC :0.86750: L2-Pf-HR :0.91406: L2-HR :0.77060: (Sim:0h42m20s) 
CPU  0 inst:   49000001 cyc:   55379592 now IPC :0.76882: AVG IPC :0.86404: L2-Pf-HR :0.91412: L2-HR :0.77246: (Sim:0h42m30s) 
CPU  1 inst:   49000001 cyc:   56303972 now IPC :0.67844: AVG IPC :0.84960: L2-Pf-HR :0.91278: L2-HR :0.76976: (Sim:0h43m9s) 
CPU  2 inst:   50000005 cyc:   56408491 now IPC :0.80241: AVG IPC :0.86604: L2-Pf-HR :0.91371: L2-HR :0.77037: (Sim:0h43m14s) 
CPU  3 inst:   49000001 cyc:   56473818 now IPC :0.69286: AVG IPC :0.84700: L2-Pf-HR :0.91334: L2-HR :0.77032: (Sim:0h43m17s) 
CPU  0 inst:   50000005 cyc:   56761736 now IPC :0.72352: AVG IPC :0.86056: L2-Pf-HR :0.91380: L2-HR :0.77218: (Sim:0h43m30s) 
CPU  2 inst:   51000004 cyc:   57513178 now IPC :0.90523: AVG IPC :0.86680: L2-Pf-HR :0.91358: L2-HR :0.77003: (Sim:0h44m5s) 
CPU  1 inst:   50000005 cyc:   57549671 now IPC :0.80277: AVG IPC :0.84857: L2-Pf-HR :0.91255: L2-HR :0.76954: (Sim:0h44m7s) 
CPU  3 inst:   50000005 cyc:   57744651 now IPC :0.78689: AVG IPC :0.84565: L2-Pf-HR :0.91304: L2-HR :0.77011: (Sim:0h44m17s) 
CPU  0 inst:   51000004 cyc:   58082550 now IPC :0.75711: AVG IPC :0.85817: L2-Pf-HR :0.91369: L2-HR :0.77181: (Sim:0h44m33s) 
CPU  2 inst:   52000004 cyc:   58645157 now IPC :0.88341: AVG IPC :0.86713: L2-Pf-HR :0.91344: L2-HR :0.76969: (Sim:0h44m59s) 
CPU  1 inst:   51000004 cyc:   58669573 now IPC :0.89293: AVG IPC :0.84943: L2-Pf-HR :0.91240: L2-HR :0.76926: (Sim:0h45m1s) 
CPU  3 inst:   51000004 cyc:   59072495 now IPC :0.75310: AVG IPC :0.84354: L2-Pf-HR :0.91287: L2-HR :0.76980: (Sim:0h45m19s) 
CPU  0 inst:   52000004 cyc:   59520037 now IPC :0.69566: AVG IPC :0.85418: L2-Pf-HR :0.91355: L2-HR :0.77144: (Sim:0h45m39s) 
CPU  1 inst:   52000004 cyc:   59809930 now IPC :0.87692: AVG IPC :0.84996: L2-Pf-HR :0.91233: L2-HR :0.76892: (Sim:0h45m52s) 
CPU  2 inst:   53000003 cyc:   59956986 now IPC :0.76229: AVG IPC :0.86480: L2-Pf-HR :0.91327: L2-HR :0.76938: (Sim:0h45m59s) 
CPU  3 inst:   52000004 cyc:   60333901 now IPC :0.79277: AVG IPC :0.84246: L2-Pf-HR :0.91254: L2-HR :0.76940: (Sim:0h46m16s) 
CPU  0 inst:   53000003 cyc:   60922793 now IPC :0.71288: AVG IPC :0.85087: L2-Pf-HR :0.91337: L2-HR :0.77110: (Sim:0h46m43s) 
CPU  1 inst:   53000003 cyc:   61075796 now IPC :0.78997: AVG IPC :0.84870: L2-Pf-HR :0.91214: L2-HR :0.76863: (Sim:0h46m50s) 
CPU  2 inst:   54000000 cyc:   61331073 now IPC :0.72775: AVG IPC :0.86168: L2-Pf-HR :0.91315: L2-HR :0.76905: (Sim:0h47m2s) 
CPU  3 inst:   53000003 cyc:   61436929 now IPC :0.90659: AVG IPC :0.84363: L2-Pf-HR :0.91240: L2-HR :0.76920: (Sim:0h47m7s) 
CPU  0 inst:   54000000 cyc:   62343709 now IPC :0.70377: AVG IPC :0.84746: L2-Pf-HR :0.91320: L2-HR :0.77071: (Sim:0h47m47s) 
CPU  1 inst:   54000000 cyc:   62520159 now IPC :0.69234: AVG IPC :0.84503: L2-Pf-HR :0.91208: L2-HR :0.76835: (Sim:0h47m54s) 
CPU  3 inst:   54000000 cyc:   62675430 now IPC :0.80743: AVG IPC :0.84290: L2-Pf-HR :0.91215: L2-HR :0.76890: (Sim:0h48m0s) 
CPU  2 inst:   55000005 cyc:   62929315 now IPC :0.62569: AVG IPC :0.85559: L2-Pf-HR :0.91280: L2-HR :0.76864: (Sim:0h48m13s) 
CPU  0 inst:   55000005 cyc:   63714700 now IPC :0.72940: AVG IPC :0.84488: L2-Pf-HR :0.91279: L2-HR :0.77020: (Sim:0h48m45s) 
CPU  1 inst:   55000005 cyc:   64000045 now IPC :0.67573: AVG IPC :0.84105: L2-Pf-HR :0.91171: L2-HR :0.76788: (Sim:0h48m59s) 
CPU  3 inst:   55000005 cyc:   64154755 now IPC :0.67599: AVG IPC :0.83899: L2-Pf-HR :0.91166: L2-HR :0.76835: (Sim:0h49m6s) 
CPU  2 inst:   56000001 cyc:   64238199 now IPC :0.76401: AVG IPC :0.85369: L2-Pf-HR :0.91319: L2-HR :0.76865: (Sim:0h49m11s) 
CPU  0 inst:   56000001 cyc:   64701547 now IPC :1.01332: AVG IPC :0.84749: L2-Pf-HR :0.91314: L2-HR :0.77016: (Sim:0h49m34s) 
CPU  1 inst:   56000001 cyc:   65230933 now IPC :0.81242: AVG IPC :0.84050: L2-Pf-HR :0.91209: L2-HR :0.76787: (Sim:0h50m0s) 
CPU  3 inst:   56000001 cyc:   65291263 now IPC :0.87988: AVG IPC :0.83972: L2-Pf-HR :0.91195: L2-HR :0.76832: (Sim:0h50m3s) 
CPU  2 inst:   57000001 cyc:   65383896 now IPC :0.87283: AVG IPC :0.85403: L2-Pf-HR :0.91347: L2-HR :0.76851: (Sim:0h50m7s) 
CPU  0 inst:   57000001 cyc:   65733769 now IPC :0.96878: AVG IPC :0.84943: L2-Pf-HR :0.91336: L2-HR :0.76995: (Sim:0h50m24s) 
CPU  1 inst:   57000001 cyc:   66390778 now IPC :0.86218: AVG IPC :0.84089: L2-Pf-HR :0.91236: L2-HR :0.76773: (Sim:0h50m56s) 
CPU  2 inst:   58000001 cyc:   66402800 now IPC :0.98145: AVG IPC :0.85602: L2-Pf-HR :0.91374: L2-HR :0.76835: (Sim:0h50m57s) 
CPU  3 inst:   57000001 cyc:   66542064 now IPC :0.79949: AVG IPC :0.83895: L2-Pf-HR :0.91219: L2-HR :0.76819: (Sim:0h51m4s) 
CPU  0 inst:   58000001 cyc:   66883759 now IPC :0.86957: AVG IPC :0.84978: L2-Pf-HR :0.91360: L2-HR :0.76974: (Sim:0h51m21s) 
CPU  1 inst:   58000001 cyc:   67372978 now IPC :1.01812: AVG IPC :0.84351: L2-Pf-HR :0.91263: L2-HR :0.76756: (Sim:0h51m46s) 
CPU  2 inst:   59000005 cyc:   67398727 now IPC :1.00409: AVG IPC :0.85824: L2-Pf-HR :0.91404: L2-HR :0.76829: (Sim:0h51m48s) 
CPU  3 inst:   58000001 cyc:   67676551 now IPC :0.88146: AVG IPC :0.83967: L2-Pf-HR :0.91244: L2-HR :0.76803: (Sim:0h52m2s) 
CPU  0 inst:   59000005 cyc:   68007799 now IPC :0.88965: AVG IPC :0.85045: L2-Pf-HR :0.91371: L2-HR :0.76966: (Sim:0h52m19s) 
CPU  1 inst:   59000005 cyc:   68345675 now IPC :1.02807: AVG IPC :0.84618: L2-Pf-HR :0.91277: L2-HR :0.76753: (Sim:0h52m36s) 
CPU  2 inst:   60000000 cyc:   68461942 now IPC :0.94054: AVG IPC :0.85954: L2-Pf-HR :0.91427: L2-HR :0.76817: (Sim:0h52m42s) 
CPU  3 inst:   59000005 cyc:   68860392 now IPC :0.84471: AVG IPC :0.83976: L2-Pf-HR :0.91267: L2-HR :0.76801: (Sim:0h53m1s) 
CPU  0 inst:   60000001 cyc:   69182995 now IPC :0.85092: AVG IPC :0.85045: L2-Pf-HR :0.91399: L2-HR :0.76946: (Sim:0h53m17s) 
CPU  1 inst:   60000001 cyc:   69357788 now IPC :0.98803: AVG IPC :0.84828: L2-Pf-HR :0.91294: L2-HR :0.76738: (Sim:0h53m25s) 
CPU  2 inst:   61000005 cyc:   69724840 now IPC :0.79183: AVG IPC :0.85829: L2-Pf-HR :0.91410: L2-HR :0.76806: (Sim:0h53m43s) 
CPU  3 inst:   60000001 cyc:   69981823 now IPC :0.89171: AVG IPC :0.84060: L2-Pf-HR :0.91290: L2-HR :0.76796: (Sim:0h53m55s) 
CPU  0 inst:   61000005 cyc:   70556081 now IPC :0.72829: AVG IPC :0.84804: L2-Pf-HR :0.91377: L2-HR :0.76930: (Sim:0h54m20s) 
CPU  1 inst:   61000005 cyc:   70594584 now IPC :0.80854: AVG IPC :0.84757: L2-Pf-HR :0.91273: L2-HR :0.76730: (Sim:0h54m22s) 
CPU  2 inst:   62000000 cyc:   70911095 now IPC :0.84298: AVG IPC :0.85803: L2-Pf-HR :0.91421: L2-HR :0.76863: (Sim:0h54m36s) 
CPU  3 inst:   61000005 cyc:   71336474 now IPC :0.73820: AVG IPC :0.83863: L2-Pf-HR :0.91271: L2-HR :0.76789: (Sim:0h54m57s) 
CPU  0 inst:   62000000 cyc:   71768909 now IPC :0.82452: AVG IPC :0.84764: L2-Pf-HR :0.91390: L2-HR :0.76987: (Sim:0h55m17s) 
CPU  1 inst:   62000000 cyc:   71827400 now IPC :0.81115: AVG IPC :0.84694: L2-Pf-HR :0.91287: L2-HR :0.76786: (Sim:0h55m20s) 
CPU  2 inst:   63000001 cyc:   71992698 now IPC :0.92455: AVG IPC :0.85905: L2-Pf-HR :0.91418: L2-HR :0.76915: (Sim:0h55m28s) 
CPU  3 inst:   62000000 cyc:   72538634 now IPC :0.83183: AVG IPC :0.83852: L2-Pf-HR :0.91287: L2-HR :0.76853: (Sim:0h55m55s) 
CPU  0 inst:   63000001 cyc:   72860865 now IPC :0.91579: AVG IPC :0.84868: L2-Pf-HR :0.91408: L2-HR :0.77051: (Sim:0h56m11s) 
CPU  1 inst:   63000001 cyc:   72927337 now IPC :0.90914: AVG IPC :0.84789: L2-Pf-HR :0.91300: L2-HR :0.76840: (Sim:0h56m15s) 
CPU  2 inst:   64000003 cyc:   73119852 now IPC :0.88719: AVG IPC :0.85949: L2-Pf-HR :0.91393: L2-HR :0.76976: (Sim:0h56m24s) 
CPU  3 inst:   63000001 cyc:   73694042 now IPC :0.86550: AVG IPC :0.83895: L2-Pf-HR :0.91295: L2-HR :0.76914: (Sim:0h56m53s) 
CPU  0 inst:   64000003 cyc:   73877719 now IPC :0.98343: AVG IPC :0.85056: L2-Pf-HR :0.91376: L2-HR :0.77119: (Sim:0h57m2s) 
CPU  1 inst:   64000003 cyc:   73936387 now IPC :0.99103: AVG IPC :0.84987: L2-Pf-HR :0.91283: L2-HR :0.76901: (Sim:0h57m4s) 
CPU  2 inst:   65000000 cyc:   74547340 now IPC :0.70053: AVG IPC :0.85640: L2-Pf-HR :0.91365: L2-HR :0.76963: (Sim:0h57m32s) 
CPU  3 inst:   64000003 cyc:   74865414 now IPC :0.85370: AVG IPC :0.83918: L2-Pf-HR :0.91274: L2-HR :0.76982: (Sim:0h57m46s) 
CPU  0 inst:   65000000 cyc:   75319001 now IPC :0.69382: AVG IPC :0.84752: L2-Pf-HR :0.91329: L2-HR :0.77109: (Sim:0h58m5s) 
CPU  1 inst:   65000000 cyc:   75487092 now IPC :0.64487: AVG IPC :0.84560: L2-Pf-HR :0.91231: L2-HR :0.76869: (Sim:0h58m12s) 
CPU  2 inst:   66000000 cyc:   75881083 now IPC :0.74977: AVG IPC :0.85450: L2-Pf-HR :0.91352: L2-HR :0.76952: (Sim:0h58m30s) 
CPU  3 inst:   65000000 cyc:   76435922 now IPC :0.63673: AVG IPC :0.83497: L2-Pf-HR :0.91232: L2-HR :0.76957: (Sim:0h58m54s) 
CPU  0 inst:   66000000 cyc:   76540538 now IPC :0.81864: AVG IPC :0.84705: L2-Pf-HR :0.91312: L2-HR :0.77093: (Sim:0h58m59s) 
CPU  1 inst:   66000001 cyc:   76941169 now IPC :0.68772: AVG IPC :0.84258: L2-Pf-HR :0.91219: L2-HR :0.76860: (Sim:0h59m17s) 
CPU  2 inst:   67000001 cyc:   77242166 now IPC :0.73471: AVG IPC :0.85236: L2-Pf-HR :0.91337: L2-HR :0.76927: (Sim:0h59m31s) 
CPU  0 inst:   67000001 cyc:   77611117 now IPC :0.93407: AVG IPC :0.84827: L2-Pf-HR :0.91297: L2-HR :0.77067: (Sim:0h59m48s) 
CPU  3 inst:   66000001 cyc:   77812355 now IPC :0.72652: AVG IPC :0.83302: L2-Pf-HR :0.91225: L2-HR :0.76946: (Sim:0h59m57s) 
CPU  1 inst:   67000001 cyc:   78310119 now IPC :0.73049: AVG IPC :0.84059: L2-Pf-HR :0.91207: L2-HR :0.76839: (Sim:1h0m20s) 
CPU  2 inst:   68000001 cyc:   78607931 now IPC :0.73219: AVG IPC :0.85025: L2-Pf-HR :0.91325: L2-HR :0.76901: (Sim:1h0m33s) 
CPU  0 inst:   68000004 cyc:   78777857 now IPC :0.85709: AVG IPC :0.84840: L2-Pf-HR :0.91286: L2-HR :0.77040: (Sim:1h0m41s) 
CPU  3 inst:   67000001 cyc:   79086995 now IPC :0.78454: AVG IPC :0.83223: L2-Pf-HR :0.91212: L2-HR :0.76924: (Sim:1h0m55s) 
CPU  1 inst:   68000001 cyc:   79743587 now IPC :0.69761: AVG IPC :0.83799: L2-Pf-HR :0.91201: L2-HR :0.76822: (Sim:1h1m26s) 
CPU  2 inst:   69000000 cyc:   79840943 now IPC :0.81102: AVG IPC :0.84964: L2-Pf-HR :0.91304: L2-HR :0.76874: (Sim:1h1m30s) 
CPU  0 inst:   69000000 cyc:   80100921 now IPC :0.75582: AVG IPC :0.84685: L2-Pf-HR :0.91272: L2-HR :0.77014: (Sim:1h1m42s) 
CPU  3 inst:   68000001 cyc:   80309182 now IPC :0.81821: AVG IPC :0.83202: L2-Pf-HR :0.91204: L2-HR :0.76899: (Sim:1h1m52s) 
CPU  2 inst:   70000001 cyc:   81044907 now IPC :0.83059: AVG IPC :0.84935: L2-Pf-HR :0.91294: L2-HR :0.76854: (Sim:1h2m26s) 
CPU  1 inst:   69000000 cyc:   81072689 now IPC :0.75239: AVG IPC :0.83657: L2-Pf-HR :0.91184: L2-HR :0.76801: (Sim:1h2m27s) 
CPU  0 inst:   70000001 cyc:   81421628 now IPC :0.75717: AVG IPC :0.84538: L2-Pf-HR :0.91259: L2-HR :0.76987: (Sim:1h2m43s) 
CPU  3 inst:   69000000 cyc:   81506061 now IPC :0.83551: AVG IPC :0.83207: L2-Pf-HR :0.91178: L2-HR :0.76874: (Sim:1h2m47s) 
CPU  2 inst:   71000004 cyc:   82385243 now IPC :0.74608: AVG IPC :0.84765: L2-Pf-HR :0.91257: L2-HR :0.76815: (Sim:1h3m27s) 
CPU  1 inst:   70000001 cyc:   82450206 now IPC :0.72594: AVG IPC :0.83470: L2-Pf-HR :0.91179: L2-HR :0.76779: (Sim:1h3m30s) 
CPU  3 inst:   70000001 cyc:   82741785 now IPC :0.80924: AVG IPC :0.83172: L2-Pf-HR :0.91172: L2-HR :0.76855: (Sim:1h3m42s) 
CPU  0 inst:   71000001 cyc:   82966221 now IPC :0.64742: AVG IPC :0.84165: L2-Pf-HR :0.91224: L2-HR :0.76946: (Sim:1h3m53s) 
CPU  2 inst:   72000003 cyc:   83523102 now IPC :0.87884: AVG IPC :0.84808: L2-Pf-HR :0.91287: L2-HR :0.76819: (Sim:1h4m19s) 
CPU  1 inst:   71000003 cyc:   83770798 now IPC :0.75724: AVG IPC :0.83346: L2-Pf-HR :0.91145: L2-HR :0.76741: (Sim:1h4m30s) 
CPU  3 inst:   71000004 cyc:   84153109 now IPC :0.70856: AVG IPC :0.82963: L2-Pf-HR :0.91137: L2-HR :0.76812: (Sim:1h4m48s) 
CPU  0 inst:   72000003 cyc:   84263127 now IPC :0.77107: AVG IPC :0.84055: L2-Pf-HR :0.91252: L2-HR :0.76946: (Sim:1h4m53s) 
CPU  2 inst:   73000003 cyc:   84729139 now IPC :0.82916: AVG IPC :0.84781: L2-Pf-HR :0.91303: L2-HR :0.76806: (Sim:1h5m17s) 
CPU  1 inst:   72000003 cyc:   84804130 now IPC :0.96774: AVG IPC :0.83512: L2-Pf-HR :0.91179: L2-HR :0.76745: (Sim:1h5m20s) 
CPU  0 inst:   73000003 cyc:   85276860 now IPC :0.98645: AVG IPC :0.84230: L2-Pf-HR :0.91267: L2-HR :0.76931: (Sim:1h5m45s) 
CPU  3 inst:   72000003 cyc:   85343075 now IPC :0.84036: AVG IPC :0.82978: L2-Pf-HR :0.91162: L2-HR :0.76804: (Sim:1h5m48s) 
CPU  1 inst:   73000003 cyc:   85813378 now IPC :0.99084: AVG IPC :0.83697: L2-Pf-HR :0.91199: L2-HR :0.76735: (Sim:1h6m12s) 
CPU  2 inst:   74000004 cyc:   85905518 now IPC :0.85007: AVG IPC :0.84784: L2-Pf-HR :0.91324: L2-HR :0.76793: (Sim:1h6m16s) 
CPU  0 inst:   74000004 cyc:   86273049 now IPC :1.00383: AVG IPC :0.84419: L2-Pf-HR :0.91289: L2-HR :0.76917: (Sim:1h6m34s) 
CPU  3 inst:   73000003 cyc:   86590383 now IPC :0.80173: AVG IPC :0.82938: L2-Pf-HR :0.91182: L2-HR :0.76793: (Sim:1h6m49s) 
CPU  1 inst:   74000004 cyc:   87015482 now IPC :0.83188: AVG IPC :0.83690: L2-Pf-HR :0.91224: L2-HR :0.76726: (Sim:1h7m10s) 
CPU  2 inst:   75000003 cyc:   87024970 now IPC :0.89329: AVG IPC :0.84843: L2-Pf-HR :0.91346: L2-HR :0.76787: (Sim:1h7m10s) 
CPU  0 inst:   75000003 cyc:   87397620 now IPC :0.88923: AVG IPC :0.84478: L2-Pf-HR :0.91306: L2-HR :0.76910: (Sim:1h7m29s) 
CPU  3 inst:   74000004 cyc:   87721233 now IPC :0.88429: AVG IPC :0.83009: L2-Pf-HR :0.91208: L2-HR :0.76783: (Sim:1h7m45s) 
CPU  2 inst:   76000000 cyc:   87985128 now IPC :1.04149: AVG IPC :0.85056: L2-Pf-HR :0.91368: L2-HR :0.76779: (Sim:1h7m53s) 
CPU  1 inst:   75000003 cyc:   88178526 now IPC :0.85981: AVG IPC :0.83721: L2-Pf-HR :0.91236: L2-HR :0.76722: (Sim:1h8m0s) 
CPU  0 inst:   76000000 cyc:   88495197 now IPC :0.91110: AVG IPC :0.84561: L2-Pf-HR :0.91321: L2-HR :0.76898: (Sim:1h8m10s) 
CPU  3 inst:   75000003 cyc:   88644684 now IPC :1.08289: AVG IPC :0.83275: L2-Pf-HR :0.91220: L2-HR :0.76779: (Sim:1h8m15s) 
CPU  2 inst:   77000002 cyc:   89056315 now IPC :0.93355: AVG IPC :0.85157: L2-Pf-HR :0.91357: L2-HR :0.76762: (Sim:1h8m28s) 
CPU  1 inst:   76000000 cyc:   89290551 now IPC :0.89926: AVG IPC :0.83799: L2-Pf-HR :0.91255: L2-HR :0.76715: (Sim:1h8m40s) 
CPU  3 inst:   76000000 cyc:   89636838 now IPC :1.00791: AVG IPC :0.83471: L2-Pf-HR :0.91239: L2-HR :0.76771: (Sim:1h8m55s) 
CPU  0 inst:   77000002 cyc:   89715778 now IPC :0.81928: AVG IPC :0.84525: L2-Pf-HR :0.91311: L2-HR :0.76880: (Sim:1h8m59s) 
CPU  2 inst:   78000001 cyc:   90234454 now IPC :0.84880: AVG IPC :0.85153: L2-Pf-HR :0.91357: L2-HR :0.76800: (Sim:1h9m24s) 
CPU  1 inst:   77000002 cyc:   90538814 now IPC :0.80111: AVG IPC :0.83747: L2-Pf-HR :0.91247: L2-HR :0.76700: (Sim:1h9m38s) 
CPU  3 inst:   77000002 cyc:   90706441 now IPC :0.93493: AVG IPC :0.83591: L2-Pf-HR :0.91232: L2-HR :0.76755: (Sim:1h9m46s) 
CPU  0 inst:   78000001 cyc:   90830450 now IPC :0.89712: AVG IPC :0.84589: L2-Pf-HR :0.91317: L2-HR :0.76923: (Sim:1h9m53s) 
CPU  2 inst:   79000000 cyc:   91356788 now IPC :0.89100: AVG IPC :0.85202: L2-Pf-HR :0.91362: L2-HR :0.76850: (Sim:1h10m19s) 
CPU  1 inst:   78000001 cyc:   91479484 now IPC :1.06307: AVG IPC :0.83982: L2-Pf-HR :0.91253: L2-HR :0.76745: (Sim:1h10m22s) 
CPU  3 inst:   78000001 cyc:   91638675 now IPC :1.07269: AVG IPC :0.83834: L2-Pf-HR :0.91239: L2-HR :0.76801: (Sim:1h10m28s) 
CPU  0 inst:   79000000 cyc:   91918257 now IPC :0.91928: AVG IPC :0.84677: L2-Pf-HR :0.91338: L2-HR :0.76985: (Sim:1h10m37s) 
CPU  2 inst:   80000000 cyc:   92507107 now IPC :0.86932: AVG IPC :0.85224: L2-Pf-HR :0.91349: L2-HR :0.76896: (Sim:1h10m54s) 
CPU  1 inst:   79000000 cyc:   92597306 now IPC :0.89460: AVG IPC :0.84049: L2-Pf-HR :0.91263: L2-HR :0.76799: (Sim:1h10m57s) 
CPU  3 inst:   79000000 cyc:   92622359 now IPC :1.01659: AVG IPC :0.84026: L2-Pf-HR :0.91251: L2-HR :0.76859: (Sim:1h10m58s) 
CPU  0 inst:   80000000 cyc:   93035424 now IPC :0.89512: AVG IPC :0.84735: L2-Pf-HR :0.91323: L2-HR :0.77030: (Sim:1h11m14s) 
CPU  2 inst:   81000005 cyc:   93786402 now IPC :0.78168: AVG IPC :0.85127: L2-Pf-HR :0.91312: L2-HR :0.76897: (Sim:1h11m44s) 
CPU  1 inst:   80000000 cyc:   93789155 now IPC :0.83903: AVG IPC :0.84047: L2-Pf-HR :0.91253: L2-HR :0.76850: (Sim:1h11m44s) 
CPU  3 inst:   80000000 cyc:   93802743 now IPC :0.84718: AVG IPC :0.84035: L2-Pf-HR :0.91241: L2-HR :0.76907: (Sim:1h11m45s) 
CPU  0 inst:   81000005 cyc:   94384458 now IPC :0.74127: AVG IPC :0.84582: L2-Pf-HR :0.91284: L2-HR :0.77026: (Sim:1h12m7s) 
CPU  2 inst:   82000005 cyc:   94831850 now IPC :0.95653: AVG IPC :0.85244: L2-Pf-HR :0.91305: L2-HR :0.76893: (Sim:1h12m26s) 
CPU  3 inst:   81000005 cyc:   95401488 now IPC :0.62549: AVG IPC :0.83671: L2-Pf-HR :0.91188: L2-HR :0.76902: (Sim:1h12m44s) 
CPU  1 inst:   81000005 cyc:   95444441 now IPC :0.60413: AVG IPC :0.83633: L2-Pf-HR :0.91241: L2-HR :0.76852: (Sim:1h12m45s) 
CPU  0 inst:   82000005 cyc:   95891897 now IPC :0.66338: AVG IPC :0.84292: L2-Pf-HR :0.91270: L2-HR :0.77018: (Sim:1h13m0s) 
CPU  2 inst:   83000001 cyc:   96412826 now IPC :0.63252: AVG IPC :0.84880: L2-Pf-HR :0.91296: L2-HR :0.76875: (Sim:1h13m17s) 
CPU  3 inst:   82000005 cyc:   97198949 now IPC :0.55634: AVG IPC :0.83147: L2-Pf-HR :0.91184: L2-HR :0.76899: (Sim:1h13m42s) 
CPU  1 inst:   82000005 cyc:   97291488 now IPC :0.54140: AVG IPC :0.83067: L2-Pf-HR :0.91233: L2-HR :0.76852: (Sim:1h13m45s) 
CPU  0 inst:   83000001 cyc:   97732544 now IPC :0.54329: AVG IPC :0.83722: L2-Pf-HR :0.91259: L2-HR :0.76998: (Sim:1h13m59s) 
CPU  2 inst:   84000000 cyc:   98196208 now IPC :0.56073: AVG IPC :0.84351: L2-Pf-HR :0.91288: L2-HR :0.76859: (Sim:1h14m14s) 
CPU  3 inst:   83000001 cyc:   99030613 now IPC :0.54595: AVG IPC :0.82614: L2-Pf-HR :0.91184: L2-HR :0.76883: (Sim:1h14m40s) 
CPU  1 inst:   83000001 cyc:   99155827 now IPC :0.53638: AVG IPC :0.82508: L2-Pf-HR :0.91219: L2-HR :0.76841: (Sim:1h14m44s) 
CPU  0 inst:   84000000 cyc:   99630562 now IPC :0.52686: AVG IPC :0.83125: L2-Pf-HR :0.91249: L2-HR :0.76981: (Sim:1h15m0s) 
CPU  2 inst:   85000001 cyc:   99937664 now IPC :0.57423: AVG IPC :0.83877: L2-Pf-HR :0.91283: L2-HR :0.76840: (Sim:1h15m11s) 
CPU  3 inst:   84000000 cyc:  100394332 now IPC :0.73329: AVG IPC :0.82486: L2-Pf-HR :0.91176: L2-HR :0.76866: (Sim:1h15m28s) 
CPU  1 inst:   84000000 cyc:  100819339 now IPC :0.60114: AVG IPC :0.82135: L2-Pf-HR :0.91214: L2-HR :0.76831: (Sim:1h15m44s) 
CPU  0 inst:   85000000 cyc:  101208233 now IPC :0.63385: AVG IPC :0.82814: L2-Pf-HR :0.91244: L2-HR :0.76960: (Sim:1h15m58s) 
CPU  2 inst:   86000001 cyc:  101516249 now IPC :0.63348: AVG IPC :0.83555: L2-Pf-HR :0.91272: L2-HR :0.76822: (Sim:1h16m10s) 
CPU  3 inst:   85000001 cyc:  101536400 now IPC :0.87561: AVG IPC :0.82544: L2-Pf-HR :0.91166: L2-HR :0.76854: (Sim:1h16m10s) 
CPU  1 inst:   85000002 cyc:  102527467 now IPC :0.58544: AVG IPC :0.81738: L2-Pf-HR :0.91201: L2-HR :0.76818: (Sim:1h16m46s) 
CPU  0 inst:   86000001 cyc:  102708981 now IPC :0.66634: AVG IPC :0.82576: L2-Pf-HR :0.91239: L2-HR :0.76939: (Sim:1h16m53s) 
CPU  3 inst:   86000001 cyc:  102897882 now IPC :0.73449: AVG IPC :0.82422: L2-Pf-HR :0.91158: L2-HR :0.76841: (Sim:1h16m59s) 
CPU  2 inst:   87000003 cyc:  103285999 now IPC :0.56505: AVG IPC :0.83087: L2-Pf-HR :0.91239: L2-HR :0.76787: (Sim:1h17m12s) 
CPU  0 inst:   87000003 cyc:  104077642 now IPC :0.73064: AVG IPC :0.82449: L2-Pf-HR :0.91206: L2-HR :0.76900: (Sim:1h17m40s) 
CPU  1 inst:   86000001 cyc:  104158366 now IPC :0.61316: AVG IPC :0.81415: L2-Pf-HR :0.91189: L2-HR :0.76805: (Sim:1h17m43s) 
CPU  3 inst:   87000003 cyc:  104657755 now IPC :0.56822: AVG IPC :0.81988: L2-Pf-HR :0.91124: L2-HR :0.76811: (Sim:1h18m1s) 
CPU  2 inst:   88000002 cyc:  104849174 now IPC :0.63972: AVG IPC :0.82799: L2-Pf-HR :0.91264: L2-HR :0.76791: (Sim:1h18m10s) 
CPU  0 inst:   88000002 cyc:  105160151 now IPC :0.92378: AVG IPC :0.82553: L2-Pf-HR :0.91231: L2-HR :0.76901: (Sim:1h18m22s) 
CPU  1 inst:   87000003 cyc:  105780584 now IPC :0.61644: AVG IPC :0.81109: L2-Pf-HR :0.91155: L2-HR :0.76773: (Sim:1h18m45s) 
CPU  3 inst:   88000002 cyc:  105996113 now IPC :0.74718: AVG IPC :0.81895: L2-Pf-HR :0.91152: L2-HR :0.76815: (Sim:1h18m54s) 
CPU  2 inst:   89000003 cyc:  106124915 now IPC :0.78386: AVG IPC :0.82746: L2-Pf-HR :0.91279: L2-HR :0.76781: (Sim:1h18m59s) 
CPU  0 inst:   89000003 cyc:  106431869 now IPC :0.78634: AVG IPC :0.82505: L2-Pf-HR :0.91246: L2-HR :0.76892: (Sim:1h19m12s) 
CPU  1 inst:   88000000 cyc:  107030717 now IPC :0.79991: AVG IPC :0.81096: L2-Pf-HR :0.91181: L2-HR :0.76776: (Sim:1h19m37s) 
CPU  2 inst:   90000001 cyc:  107075575 now IPC :1.05190: AVG IPC :0.82947: L2-Pf-HR :0.91294: L2-HR :0.76771: (Sim:1h19m39s) 
CPU  3 inst:   89000004 cyc:  107253484 now IPC :0.79531: AVG IPC :0.81867: L2-Pf-HR :0.91167: L2-HR :0.76806: (Sim:1h19m46s) 
CPU  0 inst:   90000001 cyc:  107701697 now IPC :0.78751: AVG IPC :0.82461: L2-Pf-HR :0.91262: L2-HR :0.76881: (Sim:1h20m5s) 
CPU  2 inst:   91000001 cyc:  108102361 now IPC :0.97391: AVG IPC :0.83085: L2-Pf-HR :0.91312: L2-HR :0.76764: (Sim:1h20m22s) 
CPU  1 inst:   89000002 cyc:  108223980 now IPC :0.83804: AVG IPC :0.81126: L2-Pf-HR :0.91198: L2-HR :0.76767: (Sim:1h20m27s) 
CPU  3 inst:   90000001 cyc:  108350748 now IPC :0.91135: AVG IPC :0.81962: L2-Pf-HR :0.91186: L2-HR :0.76796: (Sim:1h20m33s) 
CPU  0 inst:   91000001 cyc:  108889099 now IPC :0.84217: AVG IPC :0.82480: L2-Pf-HR :0.91275: L2-HR :0.76873: (Sim:1h20m57s) 
CPU  2 inst:   92000001 cyc:  109216121 now IPC :0.89786: AVG IPC :0.83154: L2-Pf-HR :0.91332: L2-HR :0.76756: (Sim:1h21m11s) 
CPU  1 inst:   90000001 cyc:  109263048 now IPC :0.96240: AVG IPC :0.81271: L2-Pf-HR :0.91216: L2-HR :0.76757: (Sim:1h21m14s) 
CPU  3 inst:   91000001 cyc:  109368941 now IPC :0.98213: AVG IPC :0.82115: L2-Pf-HR :0.91202: L2-HR :0.76792: (Sim:1h21m18s) 
CPU  0 inst:   92000001 cyc:  110012546 now IPC :0.89012: AVG IPC :0.82547: L2-Pf-HR :0.91296: L2-HR :0.76863: (Sim:1h21m47s) 
CPU  1 inst:   91000001 cyc:  110305199 now IPC :0.95955: AVG IPC :0.81411: L2-Pf-HR :0.91233: L2-HR :0.76750: (Sim:1h22m0s) 
CPU  3 inst:   92000001 cyc:  110355277 now IPC :1.01385: AVG IPC :0.82288: L2-Pf-HR :0.91223: L2-HR :0.76786: (Sim:1h22m2s) 
CPU  2 inst:   93000005 cyc:  110420471 now IPC :0.83033: AVG IPC :0.83153: L2-Pf-HR :0.91320: L2-HR :0.76733: (Sim:1h22m5s) 
CPU  0 inst:   93000004 cyc:  111165831 now IPC :0.86709: AVG IPC :0.82591: L2-Pf-HR :0.91283: L2-HR :0.76839: (Sim:1h22m38s) 
CPU  1 inst:   92000001 cyc:  111350759 now IPC :0.95643: AVG IPC :0.81546: L2-Pf-HR :0.91252: L2-HR :0.76746: (Sim:1h22m46s) 
CPU  3 inst:   93000004 cyc:  111459811 now IPC :0.90536: AVG IPC :0.82371: L2-Pf-HR :0.91212: L2-HR :0.76763: (Sim:1h22m50s) 
CPU  2 inst:   94000000 cyc:  111523646 now IPC :0.90647: AVG IPC :0.83228: L2-Pf-HR :0.91322: L2-HR :0.76771: (Sim:1h22m54s) 
CPU  0 inst:   94000000 cyc:  112180869 now IPC :0.98518: AVG IPC :0.82736: L2-Pf-HR :0.91289: L2-HR :0.76879: (Sim:1h23m26s) 
CPU  1 inst:   93000003 cyc:  112494134 now IPC :0.87461: AVG IPC :0.81607: L2-Pf-HR :0.91236: L2-HR :0.76725: (Sim:1h23m41s) 
CPU  3 inst:   94000000 cyc:  112522486 now IPC :0.94102: AVG IPC :0.82483: L2-Pf-HR :0.91219: L2-HR :0.76807: (Sim:1h23m42s) 
CPU  2 inst:   95000001 cyc:  112603065 now IPC :0.92643: AVG IPC :0.83319: L2-Pf-HR :0.91328: L2-HR :0.76810: (Sim:1h23m47s) 
CPU  0 inst:   95000001 cyc:  113204895 now IPC :0.97654: AVG IPC :0.82872: L2-Pf-HR :0.91305: L2-HR :0.76925: (Sim:1h24m17s) 
CPU  1 inst:   94000000 cyc:  113605689 now IPC :0.89964: AVG IPC :0.81689: L2-Pf-HR :0.91244: L2-HR :0.76769: (Sim:1h24m36s) 
CPU  3 inst:   95000001 cyc:  113712143 now IPC :0.84058: AVG IPC :0.82499: L2-Pf-HR :0.91230: L2-HR :0.76851: (Sim:1h24m41s) 
CPU  2 inst:   96000002 cyc:  113777426 now IPC :0.85153: AVG IPC :0.83338: L2-Pf-HR :0.91317: L2-HR :0.76848: (Sim:1h24m44s) 
CPU  0 inst:   96000002 cyc:  114409376 now IPC :0.83023: AVG IPC :0.82874: L2-Pf-HR :0.91297: L2-HR :0.76959: (Sim:1h25m14s) 
CPU  1 inst:   95000001 cyc:  114559466 now IPC :1.04846: AVG IPC :0.81884: L2-Pf-HR :0.91254: L2-HR :0.76811: (Sim:1h25m22s) 
CPU  3 inst:   96000002 cyc:  114914456 now IPC :0.83173: AVG IPC :0.82506: L2-Pf-HR :0.91235: L2-HR :0.76890: (Sim:1h25m39s) 
CPU  2 inst:   97000002 cyc:  115142367 now IPC :0.73263: AVG IPC :0.83217: L2-Pf-HR :0.91303: L2-HR :0.76860: (Sim:1h25m48s) 
CPU  1 inst:   96000002 cyc:  115734033 now IPC :0.85138: AVG IPC :0.81917: L2-Pf-HR :0.91243: L2-HR :0.76843: (Sim:1h26m15s) 
CPU  0 inst:   97000002 cyc:  115789743 now IPC :0.72445: AVG IPC :0.82749: L2-Pf-HR :0.91270: L2-HR :0.76964: (Sim:1h26m17s) 
CPU  3 inst:   97000002 cyc:  116188850 now IPC :0.78469: AVG IPC :0.82462: L2-Pf-HR :0.91216: L2-HR :0.76887: (Sim:1h26m33s) 
CPU  2 inst:   98000000 cyc:  116329466 now IPC :0.84239: AVG IPC :0.83228: L2-Pf-HR :0.91297: L2-HR :0.76857: (Sim:1h26m39s) 
CPU  0 inst:   98000000 cyc:  116935773 now IPC :0.87258: AVG IPC :0.82793: L2-Pf-HR :0.91261: L2-HR :0.76960: (Sim:1h27m4s) 
CPU  1 inst:   97000002 cyc:  117098514 now IPC :0.73288: AVG IPC :0.81816: L2-Pf-HR :0.91250: L2-HR :0.76857: (Sim:1h27m10s) 
CPU  3 inst:   98000000 cyc:  117524214 now IPC :0.74886: AVG IPC :0.82375: L2-Pf-HR :0.91207: L2-HR :0.76882: (Sim:1h27m27s) 
CPU  2 inst:   99000003 cyc:  117668230 now IPC :0.74696: AVG IPC :0.83130: L2-Pf-HR :0.91289: L2-HR :0.76842: (Sim:1h27m33s) 
CPU  0 inst:   99000003 cyc:  118092213 now IPC :0.86473: AVG IPC :0.82829: L2-Pf-HR :0.91250: L2-HR :0.76943: (Sim:1h27m49s) 
CPU  1 inst:   98000000 cyc:  118587328 now IPC :0.67167: AVG IPC :0.81630: L2-Pf-HR :0.91243: L2-HR :0.76853: (Sim:1h28m9s) 
CPU  2 inst:  100000002 cyc:  118867067 now IPC :0.83414: AVG IPC :0.83133: L2-Pf-HR :0.91274: L2-HR :0.76827: (Sim:1h28m19s) 
CPU  3 inst:   99000003 cyc:  119028148 now IPC :0.66492: AVG IPC :0.82172: L2-Pf-HR :0.91204: L2-HR :0.76867: (Sim:1h28m25s) 
CPU  0 inst:  100000002 cyc:  119486683 now IPC :0.71712: AVG IPC :0.82699: L2-Pf-HR :0.91234: L2-HR :0.76925: (Sim:1h28m43s) 
CPU  1 inst:   99000003 cyc:  120026942 now IPC :0.69463: AVG IPC :0.81483: L2-Pf-HR :0.91235: L2-HR :0.76838: (Sim:1h29m4s) 
CPU  2 inst:  101000001 cyc:  120027866 now IPC :0.86147: AVG IPC :0.83162: L2-Pf-HR :0.91268: L2-HR :0.76813: (Sim:1h29m4s) 
CPU  3 inst:  100000002 cyc:  120620625 now IPC :0.62795: AVG IPC :0.81915: L2-Pf-HR :0.91191: L2-HR :0.76850: (Sim:1h29m27s) 
CPU  0 inst:  101000001 cyc:  121061817 now IPC :0.63487: AVG IPC :0.82447: L2-Pf-HR :0.91227: L2-HR :0.76910: (Sim:1h29m44s) 
CPU  1 inst:  100000002 cyc:  121169631 now IPC :0.87513: AVG IPC :0.81540: L2-Pf-HR :0.91217: L2-HR :0.76825: (Sim:1h29m48s) 
CPU  2 inst:  102000003 cyc:  121463647 now IPC :0.69649: AVG IPC :0.83001: L2-Pf-HR :0.91264: L2-HR :0.76798: (Sim:1h29m59s) 
CPU  3 inst:  101000001 cyc:  122172186 now IPC :0.64451: AVG IPC :0.81691: L2-Pf-HR :0.91185: L2-HR :0.76836: (Sim:1h30m25s) 
CPU  1 inst:  101000001 cyc:  122393566 now IPC :0.81704: AVG IPC :0.81542: L2-Pf-HR :0.91205: L2-HR :0.76812: (Sim:1h30m33s) 
CPU  0 inst:  102000003 cyc:  122703714 now IPC :0.60905: AVG IPC :0.82156: L2-Pf-HR :0.91218: L2-HR :0.76895: (Sim:1h30m44s) 
CPU  2 inst:  103000000 cyc:  123091547 now IPC :0.61429: AVG IPC :0.82714: L2-Pf-HR :0.91257: L2-HR :0.76788: (Sim:1h30m59s) 
CPU  3 inst:  102000003 cyc:  123399310 now IPC :0.81492: AVG IPC :0.81689: L2-Pf-HR :0.91178: L2-HR :0.76822: (Sim:1h31m10s) 
CPU  1 inst:  102000003 cyc:  123862023 now IPC :0.68099: AVG IPC :0.81381: L2-Pf-HR :0.91192: L2-HR :0.76799: (Sim:1h31m28s) 
CPU  0 inst:  103000000 cyc:  124186918 now IPC :0.67421: AVG IPC :0.81979: L2-Pf-HR :0.91211: L2-HR :0.76884: (Sim:1h31m44s) 
CPU  3 inst:  103000000 cyc:  124557767 now IPC :0.86321: AVG IPC :0.81732: L2-Pf-HR :0.91173: L2-HR :0.76812: (Sim:1h31m59s) 
CPU  2 inst:  104000001 cyc:  124617913 now IPC :0.65515: AVG IPC :0.82501: L2-Pf-HR :0.91256: L2-HR :0.76772: (Sim:1h32m2s) 
CPU  1 inst:  103000000 cyc:  125143091 now IPC :0.78060: AVG IPC :0.81347: L2-Pf-HR :0.91187: L2-HR :0.76790: (Sim:1h32m27s) 
CPU  0 inst:  104000001 cyc:  125651018 now IPC :0.68301: AVG IPC :0.81818: L2-Pf-HR :0.91209: L2-HR :0.76865: (Sim:1h32m49s) 
CPU  3 inst:  104000001 cyc:  125809309 now IPC :0.79902: AVG IPC :0.81714: L2-Pf-HR :0.91172: L2-HR :0.76795: (Sim:1h32m55s) 
CPU  2 inst:  105000000 cyc:  125948473 now IPC :0.75156: AVG IPC :0.82423: L2-Pf-HR :0.91270: L2-HR :0.76767: (Sim:1h33m1s) 
CPU  1 inst:  104000001 cyc:  126809926 now IPC :0.59994: AVG IPC :0.81064: L2-Pf-HR :0.91187: L2-HR :0.76774: (Sim:1h33m37s) 
CPU  0 inst:  105000000 cyc:  126998378 now IPC :0.74219: AVG IPC :0.81737: L2-Pf-HR :0.91223: L2-HR :0.76858: (Sim:1h33m45s) 
CPU  3 inst:  105000004 cyc:  127099030 now IPC :0.77536: AVG IPC :0.81671: L2-Pf-HR :0.91188: L2-HR :0.76789: (Sim:1h33m50s) 
CPU  2 inst:  106000005 cyc:  127403843 now IPC :0.68711: AVG IPC :0.82265: L2-Pf-HR :0.91284: L2-HR :0.76760: (Sim:1h34m3s) 
CPU  1 inst:  105000000 cyc:  128190726 now IPC :0.72422: AVG IPC :0.80970: L2-Pf-HR :0.91203: L2-HR :0.76768: (Sim:1h34m37s) 
CPU  0 inst:  106000005 cyc:  128203176 now IPC :0.83002: AVG IPC :0.81749: L2-Pf-HR :0.91236: L2-HR :0.76849: (Sim:1h34m38s) 
CPU  3 inst:  106000005 cyc:  128452548 now IPC :0.73882: AVG IPC :0.81589: L2-Pf-HR :0.91203: L2-HR :0.76782: (Sim:1h34m49s) 
CPU  2 inst:  107000005 cyc:  128758136 now IPC :0.73839: AVG IPC :0.82176: L2-Pf-HR :0.91301: L2-HR :0.76754: (Sim:1h35m4s) 
CPU  0 inst:  107000005 cyc:  129138131 now IPC :1.06957: AVG IPC :0.81933: L2-Pf-HR :0.91252: L2-HR :0.76842: (Sim:1h35m22s) 
CPU  1 inst:  106000005 cyc:  129485974 now IPC :0.77206: AVG IPC :0.80932: L2-Pf-HR :0.91218: L2-HR :0.76762: (Sim:1h35m38s) 
CPU  3 inst:  107000005 cyc:  129676554 now IPC :0.81699: AVG IPC :0.81590: L2-Pf-HR :0.91223: L2-HR :0.76777: (Sim:1h35m48s) 
CPU  2 inst:  108000003 cyc:  130014889 now IPC :0.79570: AVG IPC :0.82151: L2-Pf-HR :0.91319: L2-HR :0.76748: (Sim:1h36m3s) 
CPU  0 inst:  108000003 cyc:  130201794 now IPC :0.94015: AVG IPC :0.82032: L2-Pf-HR :0.91270: L2-HR :0.76835: (Sim:1h36m11s) 
CPU  1 inst:  107000005 cyc:  130800557 now IPC :0.76070: AVG IPC :0.80883: L2-Pf-HR :0.91236: L2-HR :0.76756: (Sim:1h36m38s) 
CPU  3 inst:  108000003 cyc:  131002098 now IPC :0.75441: AVG IPC :0.81527: L2-Pf-HR :0.91234: L2-HR :0.76773: (Sim:1h36m48s) 
CPU  2 inst:  109000000 cyc:  131162519 now IPC :0.87136: AVG IPC :0.82195: L2-Pf-HR :0.91332: L2-HR :0.76743: (Sim:1h36m56s) 
CPU  0 inst:  109000004 cyc:  131455865 now IPC :0.79740: AVG IPC :0.82010: L2-Pf-HR :0.91282: L2-HR :0.76828: (Sim:1h37m8s) 
CPU  1 inst:  108000003 cyc:  132077744 now IPC :0.78297: AVG IPC :0.80858: L2-Pf-HR :0.91250: L2-HR :0.76749: (Sim:1h37m37s) 
CPU  3 inst:  109000005 cyc:  132235362 now IPC :0.81086: AVG IPC :0.81523: L2-Pf-HR :0.91250: L2-HR :0.76769: (Sim:1h37m45s) 
CPU  2 inst:  110000001 cyc:  132311766 now IPC :0.87014: AVG IPC :0.82237: L2-Pf-HR :0.91315: L2-HR :0.76758: (Sim:1h37m48s) 
CPU  0 inst:  110000000 cyc:  132650189 now IPC :0.83729: AVG IPC :0.82026: L2-Pf-HR :0.91268: L2-HR :0.76846: (Sim:1h38m3s) 
CPU  1 inst:  109000005 cyc:  133247829 now IPC :0.85464: AVG IPC :0.80899: L2-Pf-HR :0.91264: L2-HR :0.76748: (Sim:1h38m33s) 
CPU  3 inst:  110000005 cyc:  133484155 now IPC :0.80077: AVG IPC :0.81509: L2-Pf-HR :0.91237: L2-HR :0.76788: (Sim:1h38m43s) 
CPU  2 inst:  111000004 cyc:  133532350 now IPC :0.81928: AVG IPC :0.82234: L2-Pf-HR :0.91317: L2-HR :0.76784: (Sim:1h38m46s) 
CPU  0 inst:  111000003 cyc:  133685152 now IPC :0.96622: AVG IPC :0.82140: L2-Pf-HR :0.91281: L2-HR :0.76882: (Sim:1h38m54s) 
CPU  1 inst:  110000000 cyc:  134350488 now IPC :0.90689: AVG IPC :0.80980: L2-Pf-HR :0.91250: L2-HR :0.76767: (Sim:1h39m28s) 
CPU  3 inst:  111000004 cyc:  134553586 now IPC :0.93508: AVG IPC :0.81605: L2-Pf-HR :0.91246: L2-HR :0.76824: (Sim:1h39m38s) 
CPU  2 inst:  112000001 cyc:  134600584 now IPC :0.93612: AVG IPC :0.82325: L2-Pf-HR :0.91312: L2-HR :0.76821: (Sim:1h39m40s) 
CPU  0 inst:  112000001 cyc:  134668857 now IPC :1.01656: AVG IPC :0.82283: L2-Pf-HR :0.91281: L2-HR :0.76920: (Sim:1h39m44s) 
CPU  1 inst:  111000004 cyc:  135329332 now IPC :1.02162: AVG IPC :0.81134: L2-Pf-HR :0.91261: L2-HR :0.76803: (Sim:1h40m16s) 
CPU  3 inst:  112000001 cyc:  135731333 now IPC :0.84908: AVG IPC :0.81634: L2-Pf-HR :0.91256: L2-HR :0.76864: (Sim:1h40m34s) 
CPU  2 inst:  113000000 cyc:  135836134 now IPC :0.80936: AVG IPC :0.82312: L2-Pf-HR :0.91315: L2-HR :0.76864: (Sim:1h40m39s) 
CPU  0 inst:  113000000 cyc:  135875740 now IPC :0.82858: AVG IPC :0.82288: L2-Pf-HR :0.91279: L2-HR :0.76963: (Sim:1h40m41s) 
CPU  1 inst:  112000001 cyc:  136506483 now IPC :0.84951: AVG IPC :0.81167: L2-Pf-HR :0.91266: L2-HR :0.76846: (Sim:1h41m8s) 
CPU  3 inst:  113000000 cyc:  136968494 now IPC :0.80830: AVG IPC :0.81627: L2-Pf-HR :0.91258: L2-HR :0.76905: (Sim:1h41m27s) 
CPU  2 inst:  114000005 cyc:  137483544 now IPC :0.60702: AVG IPC :0.82051: L2-Pf-HR :0.91282: L2-HR :0.76828: (Sim:1h41m47s) 
CPU  0 inst:  114000005 cyc:  137552733 now IPC :0.59631: AVG IPC :0.82010: L2-Pf-HR :0.91239: L2-HR :0.76929: (Sim:1h41m49s) 
CPU  1 inst:  113000000 cyc:  137729863 now IPC :0.81741: AVG IPC :0.81172: L2-Pf-HR :0.91282: L2-HR :0.76897: (Sim:1h41m58s) 
CPU  3 inst:  114000002 cyc:  138659410 now IPC :0.59140: AVG IPC :0.81351: L2-Pf-HR :0.91226: L2-HR :0.76862: (Sim:1h42m36s) 
CPU  2 inst:  115000003 cyc:  138871605 now IPC :0.72043: AVG IPC :0.81951: L2-Pf-HR :0.91276: L2-HR :0.76822: (Sim:1h42m46s) 
CPU  0 inst:  115000003 cyc:  139011283 now IPC :0.68561: AVG IPC :0.81868: L2-Pf-HR :0.91224: L2-HR :0.76926: (Sim:1h42m52s) 
CPU  1 inst:  114000002 cyc:  139057256 now IPC :0.75336: AVG IPC :0.81116: L2-Pf-HR :0.91259: L2-HR :0.76858: (Sim:1h42m54s) 
CPU  3 inst:  115000003 cyc:  140033883 now IPC :0.72755: AVG IPC :0.81266: L2-Pf-HR :0.91217: L2-HR :0.76851: (Sim:1h43m27s) 
CPU  2 inst:  116000002 cyc:  140086702 now IPC :0.82298: AVG IPC :0.81954: L2-Pf-HR :0.91261: L2-HR :0.76815: (Sim:1h43m29s) 
CPU  1 inst:  115000003 cyc:  140202489 now IPC :0.87319: AVG IPC :0.81167: L2-Pf-HR :0.91247: L2-HR :0.76846: (Sim:1h43m32s) 
CPU  0 inst:  116000002 cyc:  140340714 now IPC :0.75220: AVG IPC :0.81805: L2-Pf-HR :0.91209: L2-HR :0.76921: (Sim:1h43m36s) 
CPU  2 inst:  117000000 cyc:  141223273 now IPC :0.87984: AVG IPC :0.82002: L2-Pf-HR :0.91258: L2-HR :0.76808: (Sim:1h43m57s) 
CPU  3 inst:  116000002 cyc:  141408878 now IPC :0.72727: AVG IPC :0.81182: L2-Pf-HR :0.91204: L2-HR :0.76837: (Sim:1h44m2s) 
CPU  1 inst:  116000002 cyc:  141539182 now IPC :0.74811: AVG IPC :0.81107: L2-Pf-HR :0.91233: L2-HR :0.76833: (Sim:1h44m5s) 
CPU  0 inst:  117000000 cyc:  141716529 now IPC :0.72684: AVG IPC :0.81715: L2-Pf-HR :0.91203: L2-HR :0.76915: (Sim:1h44m10s) 
CPU  2 inst:  118000000 cyc:  142396274 now IPC :0.85251: AVG IPC :0.82029: L2-Pf-HR :0.91255: L2-HR :0.76800: (Sim:1h44m26s) 
CPU  3 inst:  117000000 cyc:  142861965 now IPC :0.68819: AVG IPC :0.81055: L2-Pf-HR :0.91200: L2-HR :0.76825: (Sim:1h44m38s) 
CPU  1 inst:  117000000 cyc:  142941100 now IPC :0.71331: AVG IPC :0.81010: L2-Pf-HR :0.91228: L2-HR :0.76820: (Sim:1h44m40s) 
CPU  0 inst:  118000000 cyc:  143112387 now IPC :0.71641: AVG IPC :0.81616: L2-Pf-HR :0.91197: L2-HR :0.76907: (Sim:1h44m44s) 
CPU  2 inst:  119000005 cyc:  143722603 now IPC :0.75396: AVG IPC :0.81968: L2-Pf-HR :0.91251: L2-HR :0.76794: (Sim:1h44m58s) 
CPU  3 inst:  118000000 cyc:  144321446 now IPC :0.68518: AVG IPC :0.80928: L2-Pf-HR :0.91199: L2-HR :0.76812: (Sim:1h45m12s) 
CPU  0 inst:  119000005 cyc:  144364925 now IPC :0.79838: AVG IPC :0.81601: L2-Pf-HR :0.91188: L2-HR :0.76901: (Sim:1h45m14s) 
CPU  1 inst:  118000000 cyc:  144392870 now IPC :0.68881: AVG IPC :0.80887: L2-Pf-HR :0.91227: L2-HR :0.76807: (Sim:1h45m14s) 
CPU  2 inst:  120000003 cyc:  145096929 now IPC :0.72763: AVG IPC :0.81880: L2-Pf-HR :0.91249: L2-HR :0.76784: (Sim:1h45m31s) 
CPU  0 inst:  120000003 cyc:  145700382 now IPC :0.74881: AVG IPC :0.81539: L2-Pf-HR :0.91183: L2-HR :0.76889: (Sim:1h45m46s) 
CPU  3 inst:  119000005 cyc:  145783507 now IPC :0.68397: AVG IPC :0.80801: L2-Pf-HR :0.91193: L2-HR :0.76799: (Sim:1h45m48s) 
CPU  1 inst:  119000005 cyc:  145866323 now IPC :0.67868: AVG IPC :0.80755: L2-Pf-HR :0.91222: L2-HR :0.76795: (Sim:1h45m50s) 
CPU  2 inst:  121000005 cyc:  146554455 now IPC :0.68610: AVG IPC :0.81747: L2-Pf-HR :0.91262: L2-HR :0.76779: (Sim:1h46m6s) 
CPU  0 inst:  121000005 cyc:  146860874 now IPC :0.86171: AVG IPC :0.81576: L2-Pf-HR :0.91195: L2-HR :0.76882: (Sim:1h46m13s) 
CPU  3 inst:  120000003 cyc:  147285498 now IPC :0.66578: AVG IPC :0.80655: L2-Pf-HR :0.91183: L2-HR :0.76780: (Sim:1h46m25s) 
CPU  1 inst:  120000003 cyc:  147353026 now IPC :0.67263: AVG IPC :0.80618: L2-Pf-HR :0.91219: L2-HR :0.76784: (Sim:1h46m27s) 
CPU  2 inst:  122000002 cyc:  147610235 now IPC :0.94716: AVG IPC :0.81841: L2-Pf-HR :0.91272: L2-HR :0.76774: (Sim:1h46m34s) 
CPU  0 inst:  122000005 cyc:  148027795 now IPC :0.85696: AVG IPC :0.81608: L2-Pf-HR :0.91206: L2-HR :0.76876: (Sim:1h46m45s) 
CPU  3 inst:  121000005 cyc:  148470925 now IPC :0.84358: AVG IPC :0.80685: L2-Pf-HR :0.91195: L2-HR :0.76776: (Sim:1h46m57s) 
CPU  1 inst:  121000005 cyc:  148580702 now IPC :0.81455: AVG IPC :0.80625: L2-Pf-HR :0.91232: L2-HR :0.76780: (Sim:1h47m0s) 
CPU  2 inst:  123000000 cyc:  148598707 now IPC :1.01166: AVG IPC :0.81970: L2-Pf-HR :0.91285: L2-HR :0.76768: (Sim:1h47m0s) 
CPU  0 inst:  123000000 cyc:  149202676 now IPC :0.85115: AVG IPC :0.81636: L2-Pf-HR :0.91219: L2-HR :0.76870: (Sim:1h47m18s) 
CPU  3 inst:  122000001 cyc:  149486926 now IPC :0.98425: AVG IPC :0.80806: L2-Pf-HR :0.91207: L2-HR :0.76776: (Sim:1h47m26s) 
CPU  2 inst:  124000002 cyc:  149618174 now IPC :0.98091: AVG IPC :0.82081: L2-Pf-HR :0.91300: L2-HR :0.76762: (Sim:1h47m30s) 
CPU  1 inst:  122000001 cyc:  149644297 now IPC :0.94020: AVG IPC :0.80721: L2-Pf-HR :0.91244: L2-HR :0.76778: (Sim:1h47m30s) 
CPU  0 inst:  124000002 cyc:  150295042 now IPC :0.91545: AVG IPC :0.81709: L2-Pf-HR :0.91231: L2-HR :0.76864: (Sim:1h47m50s) 
CPU  3 inst:  123000000 cyc:  150433345 now IPC :1.05661: AVG IPC :0.80964: L2-Pf-HR :0.91225: L2-HR :0.76774: (Sim:1h47m54s) 
CPU  1 inst:  123000000 cyc:  150666013 now IPC :0.97874: AVG IPC :0.80838: L2-Pf-HR :0.91258: L2-HR :0.76775: (Sim:1h48m1s) 
CPU  2 inst:  125000002 cyc:  150684607 now IPC :0.93771: AVG IPC :0.82164: L2-Pf-HR :0.91312: L2-HR :0.76755: (Sim:1h48m1s) 
CPU  0 inst:  125000002 cyc:  151354746 now IPC :0.94366: AVG IPC :0.81798: L2-Pf-HR :0.91243: L2-HR :0.76856: (Sim:1h48m21s) 
CPU  3 inst:  124000002 cyc:  151384016 now IPC :1.05189: AVG IPC :0.81117: L2-Pf-HR :0.91232: L2-HR :0.76772: (Sim:1h48m22s) 
CPU  1 inst:  124000002 cyc:  151634475 now IPC :1.03257: AVG IPC :0.80982: L2-Pf-HR :0.91264: L2-HR :0.76774: (Sim:1h48m29s) 
CPU  2 inst:  126000005 cyc:  151833134 now IPC :0.87068: AVG IPC :0.82201: L2-Pf-HR :0.91302: L2-HR :0.76767: (Sim:1h48m35s) 
CPU  3 inst:  125000002 cyc:  152339323 now IPC :1.04678: AVG IPC :0.81266: L2-Pf-HR :0.91246: L2-HR :0.76770: (Sim:1h48m49s) 
CPU  0 inst:  126000005 cyc:  152526670 now IPC :0.85330: AVG IPC :0.81825: L2-Pf-HR :0.91233: L2-HR :0.76867: (Sim:1h48m55s) 
CPU  1 inst:  125000002 cyc:  152730710 now IPC :0.91221: AVG IPC :0.81056: L2-Pf-HR :0.91278: L2-HR :0.76768: (Sim:1h49m0s) 
CPU  2 inst:  127000004 cyc:  152983429 now IPC :0.86934: AVG IPC :0.82237: L2-Pf-HR :0.91306: L2-HR :0.76794: (Sim:1h49m6s) 
CPU  3 inst:  126000005 cyc:  153599012 now IPC :0.79385: AVG IPC :0.81250: L2-Pf-HR :0.91236: L2-HR :0.76782: (Sim:1h49m23s) 
CPU  0 inst:  127000005 cyc:  153675121 now IPC :0.87074: AVG IPC :0.81865: L2-Pf-HR :0.91242: L2-HR :0.76899: (Sim:1h49m26s) 
CPU  1 inst:  126000005 cyc:  153804602 now IPC :0.93120: AVG IPC :0.81141: L2-Pf-HR :0.91268: L2-HR :0.76779: (Sim:1h49m30s) 
CPU  2 inst:  128000003 cyc:  154013700 now IPC :0.97062: AVG IPC :0.82337: L2-Pf-HR :0.91311: L2-HR :0.76831: (Sim:1h49m36s) 
CPU  3 inst:  127000005 cyc:  154662767 now IPC :0.94007: AVG IPC :0.81338: L2-Pf-HR :0.91244: L2-HR :0.76816: (Sim:1h49m56s) 
CPU  0 inst:  128000000 cyc:  154760548 now IPC :0.92129: AVG IPC :0.81937: L2-Pf-HR :0.91243: L2-HR :0.76934: (Sim:1h49m59s) 
CPU  1 inst:  127000002 cyc:  154827602 now IPC :0.97751: AVG IPC :0.81251: L2-Pf-HR :0.91274: L2-HR :0.76811: (Sim:1h50m0s) 
CPU  2 inst:  129000003 cyc:  154970107 now IPC :1.04558: AVG IPC :0.82475: L2-Pf-HR :0.91325: L2-HR :0.76867: (Sim:1h50m5s) 
CPU  3 inst:  128000005 cyc:  155772058 now IPC :0.90148: AVG IPC :0.81402: L2-Pf-HR :0.91248: L2-HR :0.76853: (Sim:1h50m26s) 
CPU  0 inst:  129000000 cyc:  155984363 now IPC :0.81712: AVG IPC :0.81935: L2-Pf-HR :0.91252: L2-HR :0.76968: (Sim:1h50m31s) 
CPU  1 inst:  128000005 cyc:  156001034 now IPC :0.85220: AVG IPC :0.81281: L2-Pf-HR :0.91275: L2-HR :0.76846: (Sim:1h50m32s) 
CPU  2 inst:  130000000 cyc:  156373416 now IPC :0.71260: AVG IPC :0.82373: L2-Pf-HR :0.91294: L2-HR :0.76844: (Sim:1h50m41s) 
CPU  3 inst:  129000003 cyc:  156957625 now IPC :0.84348: AVG IPC :0.81424: L2-Pf-HR :0.91255: L2-HR :0.76884: (Sim:1h50m55s) 
CPU  1 inst:  129000003 cyc:  157163420 now IPC :0.86030: AVG IPC :0.81317: L2-Pf-HR :0.91287: L2-HR :0.76883: (Sim:1h51m1s) 
CPU  0 inst:  130000000 cyc:  157547111 now IPC :0.63990: AVG IPC :0.81756: L2-Pf-HR :0.91228: L2-HR :0.76943: (Sim:1h51m9s) 
CPU  2 inst:  131000001 cyc:  157782208 now IPC :0.70983: AVG IPC :0.82271: L2-Pf-HR :0.91283: L2-HR :0.76833: (Sim:1h51m14s) 
CPU  3 inst:  130000000 cyc:  158701575 now IPC :0.57341: AVG IPC :0.81158: L2-Pf-HR :0.91234: L2-HR :0.76858: (Sim:1h51m34s) 
CPU  1 inst:  130000000 cyc:  158791442 now IPC :0.61424: AVG IPC :0.81111: L2-Pf-HR :0.91269: L2-HR :0.76859: (Sim:1h51m36s) 
CPU  0 inst:  131000003 cyc:  159145221 now IPC :0.62574: AVG IPC :0.81562: L2-Pf-HR :0.91219: L2-HR :0.76932: (Sim:1h51m44s) 
CPU  2 inst:  132000005 cyc:  159550669 now IPC :0.56547: AVG IPC :0.81984: L2-Pf-HR :0.91270: L2-HR :0.76822: (Sim:1h51m52s) 
CPU  3 inst:  131000003 cyc:  160488412 now IPC :0.55965: AVG IPC :0.80875: L2-Pf-HR :0.91226: L2-HR :0.76846: (Sim:1h52m11s) 
CPU  1 inst:  131000003 cyc:  160534914 now IPC :0.57357: AVG IPC :0.80852: L2-Pf-HR :0.91261: L2-HR :0.76849: (Sim:1h52m12s) 
CPU  0 inst:  132000005 cyc:  160860156 now IPC :0.58311: AVG IPC :0.81313: L2-Pf-HR :0.91209: L2-HR :0.76922: (Sim:1h52m18s) 
CPU  2 inst:  133000001 cyc:  161378313 now IPC :0.54715: AVG IPC :0.81674: L2-Pf-HR :0.91270: L2-HR :0.76812: (Sim:1h52m29s) 
CPU  3 inst:  132000005 cyc:  162311937 now IPC :0.54839: AVG IPC :0.80581: L2-Pf-HR :0.91220: L2-HR :0.76834: (Sim:1h52m48s) 
CPU  1 inst:  132000005 cyc:  162328623 now IPC :0.55751: AVG IPC :0.80573: L2-Pf-HR :0.91250: L2-HR :0.76838: (Sim:1h52m48s) 
CPU  0 inst:  133000001 cyc:  162471885 now IPC :0.62045: AVG IPC :0.81121: L2-Pf-HR :0.91205: L2-HR :0.76911: (Sim:1h52m51s) 
CPU  2 inst:  134000000 cyc:  163143120 now IPC :0.56663: AVG IPC :0.81401: L2-Pf-HR :0.91266: L2-HR :0.76799: (Sim:1h53m6s) 
CPU  0 inst:  134000000 cyc:  163585740 now IPC :0.89778: AVG IPC :0.81180: L2-Pf-HR :0.91201: L2-HR :0.76898: (Sim:1h53m16s) 
CPU  1 inst:  133000001 cyc:  164030458 now IPC :0.58760: AVG IPC :0.80345: L2-Pf-HR :0.91250: L2-HR :0.76828: (Sim:1h53m27s) 
CPU  3 inst:  133000001 cyc:  164101674 now IPC :0.55874: AVG IPC :0.80310: L2-Pf-HR :0.91219: L2-HR :0.76822: (Sim:1h53m28s) 
CPU  2 inst:  135000002 cyc:  164841608 now IPC :0.58876: AVG IPC :0.81168: L2-Pf-HR :0.91258: L2-HR :0.76788: (Sim:1h53m45s) 
CPU  0 inst:  135000002 cyc:  164937379 now IPC :0.73984: AVG IPC :0.81121: L2-Pf-HR :0.91192: L2-HR :0.76885: (Sim:1h53m47s) 
CPU  1 inst:  134000000 cyc:  165394427 now IPC :0.73315: AVG IPC :0.80287: L2-Pf-HR :0.91245: L2-HR :0.76816: (Sim:1h53m57s) 
CPU  3 inst:  134000000 cyc:  165776498 now IPC :0.59708: AVG IPC :0.80101: L2-Pf-HR :0.91213: L2-HR :0.76811: (Sim:1h54m5s) 
CPU  2 inst:  136000003 cyc:  166451354 now IPC :0.62122: AVG IPC :0.80983: L2-Pf-HR :0.91253: L2-HR :0.76780: (Sim:1h54m23s) 
CPU  0 inst:  136000003 cyc:  166506351 now IPC :0.63736: AVG IPC :0.80956: L2-Pf-HR :0.91184: L2-HR :0.76874: (Sim:1h54m25s) 
CPU  1 inst:  135000002 cyc:  166550135 now IPC :0.86527: AVG IPC :0.80330: L2-Pf-HR :0.91230: L2-HR :0.76807: (Sim:1h54m26s) 
CPU  3 inst:  135000002 cyc:  166862893 now IPC :0.92048: AVG IPC :0.80179: L2-Pf-HR :0.91202: L2-HR :0.76799: (Sim:1h54m34s) 
CPU  2 inst:  137000005 cyc:  167808829 now IPC :0.73666: AVG IPC :0.80923: L2-Pf-HR :0.91264: L2-HR :0.76778: (Sim:1h54m57s) 
CPU  1 inst:  136000003 cyc:  167813968 now IPC :0.79124: AVG IPC :0.80321: L2-Pf-HR :0.91224: L2-HR :0.76795: (Sim:1h54m57s) 
CPU  0 inst:  137000005 cyc:  167833472 now IPC :0.75351: AVG IPC :0.80911: L2-Pf-HR :0.91194: L2-HR :0.76871: (Sim:1h54m58s) 
CPU  3 inst:  136000003 cyc:  168186322 now IPC :0.75561: AVG IPC :0.80142: L2-Pf-HR :0.91195: L2-HR :0.76786: (Sim:1h55m7s) 
CPU  1 inst:  137000005 cyc:  168922546 now IPC :0.90206: AVG IPC :0.80386: L2-Pf-HR :0.91235: L2-HR :0.76790: (Sim:1h55m27s) 
CPU  3 inst:  137000005 cyc:  169144443 now IPC :1.04371: AVG IPC :0.80280: L2-Pf-HR :0.91208: L2-HR :0.76781: (Sim:1h55m32s) 
CPU  2 inst:  138000005 cyc:  169162548 now IPC :0.73871: AVG IPC :0.80866: L2-Pf-HR :0.91273: L2-HR :0.76774: (Sim:1h55m33s) 
CPU  0 inst:  138000001 cyc:  169183849 now IPC :0.74053: AVG IPC :0.80856: L2-Pf-HR :0.91202: L2-HR :0.76868: (Sim:1h55m33s) 
CPU  1 inst:  138000001 cyc:  170384146 now IPC :0.68418: AVG IPC :0.80283: L2-Pf-HR :0.91246: L2-HR :0.76785: (Sim:1h56m1s) 
CPU  3 inst:  138000001 cyc:  170411662 now IPC :0.78913: AVG IPC :0.80270: L2-Pf-HR :0.91218: L2-HR :0.76777: (Sim:1h56m2s) 
CPU  2 inst:  139000005 cyc:  170527630 now IPC :0.73256: AVG IPC :0.80805: L2-Pf-HR :0.91282: L2-HR :0.76772: (Sim:1h56m5s) 
CPU  0 inst:  139000005 cyc:  170633552 now IPC :0.68980: AVG IPC :0.80755: L2-Pf-HR :0.91213: L2-HR :0.76865: (Sim:1h56m7s) 
CPU  2 inst:  140000003 cyc:  171621692 now IPC :0.91402: AVG IPC :0.80873: L2-Pf-HR :0.91289: L2-HR :0.76771: (Sim:1h56m33s) 
CPU  3 inst:  139000003 cyc:  171729230 now IPC :0.75898: AVG IPC :0.80236: L2-Pf-HR :0.91232: L2-HR :0.76773: (Sim:1h56m35s) 
CPU  1 inst:  139000005 cyc:  171739329 now IPC :0.73791: AVG IPC :0.80232: L2-Pf-HR :0.91259: L2-HR :0.76780: (Sim:1h56m36s) 
CPU  0 inst:  140000003 cyc:  171868861 now IPC :0.80951: AVG IPC :0.80756: L2-Pf-HR :0.91224: L2-HR :0.76862: (Sim:1h56m39s) 
CPU  2 inst:  141000005 cyc:  172581895 now IPC :1.04145: AVG IPC :0.81003: L2-Pf-HR :0.91300: L2-HR :0.76766: (Sim:1h57m0s) 
CPU  3 inst:  140000002 cyc:  172846122 now IPC :0.89534: AVG IPC :0.80297: L2-Pf-HR :0.91244: L2-HR :0.76769: (Sim:1h57m7s) 
CPU  0 inst:  141000005 cyc:  172847131 now IPC :1.02221: AVG IPC :0.80878: L2-Pf-HR :0.91235: L2-HR :0.76858: (Sim:1h57m7s) 
CPU  1 inst:  140000000 cyc:  172865099 now IPC :0.88828: AVG IPC :0.80288: L2-Pf-HR :0.91269: L2-HR :0.76776: (Sim:1h57m8s) 
CPU  2 inst:  142000003 cyc:  173777408 now IPC :0.83646: AVG IPC :0.81021: L2-Pf-HR :0.91289: L2-HR :0.76770: (Sim:1h57m32s) 
CPU  0 inst:  142000003 cyc:  173963955 now IPC :0.89539: AVG IPC :0.80934: L2-Pf-HR :0.91228: L2-HR :0.76866: (Sim:1h57m37s) 
CPU  3 inst:  141000005 cyc:  174060832 now IPC :0.82324: AVG IPC :0.80311: L2-Pf-HR :0.91250: L2-HR :0.76763: (Sim:1h57m40s) 
CPU  1 inst:  141000005 cyc:  174112427 now IPC :0.80172: AVG IPC :0.80287: L2-Pf-HR :0.91281: L2-HR :0.76771: (Sim:1h57m41s) 
CPU  2 inst:  143000000 cyc:  174858075 now IPC :0.92535: AVG IPC :0.81093: L2-Pf-HR :0.91290: L2-HR :0.76795: (Sim:1h57m59s) 
CPU  0 inst:  143000000 cyc:  175137050 now IPC :0.85244: AVG IPC :0.80963: L2-Pf-HR :0.91235: L2-HR :0.76896: (Sim:1h58m7s) 
CPU  3 inst:  142000003 cyc:  175523742 now IPC :0.68357: AVG IPC :0.80211: L2-Pf-HR :0.91241: L2-HR :0.76762: (Sim:1h58m18s) 
CPU  1 inst:  142000003 cyc:  175557872 now IPC :0.69183: AVG IPC :0.80195: L2-Pf-HR :0.91272: L2-HR :0.76769: (Sim:1h58m18s) 
CPU  2 inst:  144000003 cyc:  175970523 now IPC :0.89892: AVG IPC :0.81149: L2-Pf-HR :0.91289: L2-HR :0.76820: (Sim:1h58m30s) 
CPU  0 inst:  144000001 cyc:  176238666 now IPC :0.90776: AVG IPC :0.81025: L2-Pf-HR :0.91243: L2-HR :0.76924: (Sim:1h58m37s) 
CPU  3 inst:  143000000 cyc:  176696077 now IPC :0.85300: AVG IPC :0.80245: L2-Pf-HR :0.91244: L2-HR :0.76781: (Sim:1h58m50s) 
CPU  1 inst:  143000000 cyc:  176779478 now IPC :0.81859: AVG IPC :0.80207: L2-Pf-HR :0.91277: L2-HR :0.76785: (Sim:1h58m52s) 
CPU  2 inst:  145000004 cyc:  176921082 now IPC :1.05201: AVG IPC :0.81279: L2-Pf-HR :0.91300: L2-HR :0.76855: (Sim:1h58m56s) 
CPU  0 inst:  145000002 cyc:  177484959 now IPC :0.80238: AVG IPC :0.81019: L2-Pf-HR :0.91251: L2-HR :0.76955: (Sim:1h59m11s) 
CPU  3 inst:  144000002 cyc:  177743311 now IPC :0.95490: AVG IPC :0.80335: L2-Pf-HR :0.91248: L2-HR :0.76799: (Sim:1h59m18s) 
CPU  1 inst:  144000002 cyc:  178026483 now IPC :0.80192: AVG IPC :0.80207: L2-Pf-HR :0.91282: L2-HR :0.76799: (Sim:1h59m24s) 
CPU  2 inst:  146000003 cyc:  178250772 now IPC :0.75205: AVG IPC :0.81233: L2-Pf-HR :0.91276: L2-HR :0.76841: (Sim:1h59m31s) 
CPU  0 inst:  146000003 cyc:  178771383 now IPC :0.77735: AVG IPC :0.80996: L2-Pf-HR :0.91230: L2-HR :0.76940: (Sim:1h59m46s) 
CPU  3 inst:  145000004 cyc:  178847817 now IPC :0.90538: AVG IPC :0.80398: L2-Pf-HR :0.91255: L2-HR :0.76824: (Sim:1h59m48s) 
CPU  1 inst:  145000004 cyc:  179131545 now IPC :0.90493: AVG IPC :0.80270: L2-Pf-HR :0.91289: L2-HR :0.76822: (Sim:1h59m55s) 
CPU  2 inst:  147000000 cyc:  179423097 now IPC :0.85300: AVG IPC :0.81260: L2-Pf-HR :0.91266: L2-HR :0.76830: (Sim:2h0m3s) 
CPU  0 inst:  147000000 cyc:  180009853 now IPC :0.80745: AVG IPC :0.80994: L2-Pf-HR :0.91222: L2-HR :0.76930: (Sim:2h0m17s) 
CPU  3 inst:  146000003 cyc:  180247169 now IPC :0.71462: AVG IPC :0.80329: L2-Pf-HR :0.91231: L2-HR :0.76801: (Sim:2h0m23s) 
CPU  1 inst:  146000003 cyc:  180472123 now IPC :0.74595: AVG IPC :0.80228: L2-Pf-HR :0.91285: L2-HR :0.76809: (Sim:2h0m30s) 
CPU  2 inst:  148000004 cyc:  180632875 now IPC :0.82660: AVG IPC :0.81269: L2-Pf-HR :0.91259: L2-HR :0.76820: (Sim:2h0m34s) 
CPU  0 inst:  148000002 cyc:  181223572 now IPC :0.82392: AVG IPC :0.81003: L2-Pf-HR :0.91215: L2-HR :0.76921: (Sim:2h0m50s) 
CPU  3 inst:  147000000 cyc:  181410309 now IPC :0.85974: AVG IPC :0.80365: L2-Pf-HR :0.91231: L2-HR :0.76791: (Sim:2h0m55s) 
CPU  1 inst:  147000000 cyc:  181673107 now IPC :0.83265: AVG IPC :0.80248: L2-Pf-HR :0.91280: L2-HR :0.76800: (Sim:2h1m2s) 
CPU  2 inst:  149000000 cyc:  181778490 now IPC :0.87289: AVG IPC :0.81308: L2-Pf-HR :0.91255: L2-HR :0.76810: (Sim:2h1m5s) 
CPU  0 inst:  149000000 cyc:  182416016 now IPC :0.83861: AVG IPC :0.81022: L2-Pf-HR :0.91211: L2-HR :0.76911: (Sim:2h1m22s) 
CPU  3 inst:  148000002 cyc:  182564248 now IPC :0.86660: AVG IPC :0.80405: L2-Pf-HR :0.91226: L2-HR :0.76780: (Sim:2h1m26s) 
CPU  1 inst:  148000002 cyc:  182831169 now IPC :0.86351: AVG IPC :0.80287: L2-Pf-HR :0.91273: L2-HR :0.76789: (Sim:2h1m33s) 
CPU  2 inst:  150000002 cyc:  182942656 now IPC :0.85899: AVG IPC :0.81337: L2-Pf-HR :0.91253: L2-HR :0.76801: (Sim:2h1m36s) 
CPU  0 inst:  150000003 cyc:  183620950 now IPC :0.82992: AVG IPC :0.81035: L2-Pf-HR :0.91209: L2-HR :0.76900: (Sim:2h1m54s) 
CPU  3 inst:  149000000 cyc:  183720556 now IPC :0.86482: AVG IPC :0.80444: L2-Pf-HR :0.91225: L2-HR :0.76770: (Sim:2h1m57s) 
CPU  1 inst:  149000000 cyc:  184019584 now IPC :0.84146: AVG IPC :0.80312: L2-Pf-HR :0.91268: L2-HR :0.76778: (Sim:2h2m5s) 
CPU  2 inst:  151000005 cyc:  184096484 now IPC :0.86668: AVG IPC :0.81371: L2-Pf-HR :0.91250: L2-HR :0.76797: (Sim:2h2m7s) 
CPU  0 inst:  151000005 cyc:  184848098 now IPC :0.81490: AVG IPC :0.81038: L2-Pf-HR :0.91207: L2-HR :0.76894: (Sim:2h2m27s) 
CPU  3 inst:  150000002 cyc:  184950102 now IPC :0.81331: AVG IPC :0.80449: L2-Pf-HR :0.91220: L2-HR :0.76760: (Sim:2h2m29s) 
CPU  1 inst:  150000003 cyc:  185176847 now IPC :0.86411: AVG IPC :0.80350: L2-Pf-HR :0.91261: L2-HR :0.76769: (Sim:2h2m35s) 
CPU  2 inst:  152000005 cyc:  185538308 now IPC :0.69357: AVG IPC :0.81277: L2-Pf-HR :0.91241: L2-HR :0.76787: (Sim:2h2m44s) 
CPU  0 inst:  152000005 cyc:  186127701 now IPC :0.78149: AVG IPC :0.81018: L2-Pf-HR :0.91196: L2-HR :0.76882: (Sim:2h2m59s) 
CPU  3 inst:  151000005 cyc:  186340644 now IPC :0.71915: AVG IPC :0.80385: L2-Pf-HR :0.91214: L2-HR :0.76751: (Sim:2h3m4s) 
CPU  1 inst:  151000005 cyc:  186409219 now IPC :0.81144: AVG IPC :0.80356: L2-Pf-HR :0.91256: L2-HR :0.76759: (Sim:2h3m6s) 
CPU  2 inst:  153000000 cyc:  186788028 now IPC :0.80018: AVG IPC :0.81268: L2-Pf-HR :0.91253: L2-HR :0.76785: (Sim:2h3m16s) 
CPU  0 inst:  153000000 cyc:  187317330 now IPC :0.84059: AVG IPC :0.81038: L2-Pf-HR :0.91208: L2-HR :0.76880: (Sim:2h3m28s) 
CPU  3 inst:  152000005 cyc:  187852698 now IPC :0.66135: AVG IPC :0.80270: L2-Pf-HR :0.91204: L2-HR :0.76744: (Sim:2h3m42s) 
CPU  2 inst:  154000005 cyc:  187861061 now IPC :0.93194: AVG IPC :0.81337: L2-Pf-HR :0.91264: L2-HR :0.76782: (Sim:2h3m42s) 
CPU  1 inst:  152000005 cyc:  187913961 now IPC :0.66457: AVG IPC :0.80244: L2-Pf-HR :0.91247: L2-HR :0.76751: (Sim:2h3m44s) 
CPU  0 inst:  154000005 cyc:  188662339 now IPC :0.74349: AVG IPC :0.80990: L2-Pf-HR :0.91220: L2-HR :0.76876: (Sim:2h4m2s) 
CPU  2 inst:  155000003 cyc:  189087365 now IPC :0.81546: AVG IPC :0.81338: L2-Pf-HR :0.91268: L2-HR :0.76775: (Sim:2h4m12s) 
CPU  3 inst:  153000000 cyc:  189092955 now IPC :0.80628: AVG IPC :0.80273: L2-Pf-HR :0.91215: L2-HR :0.76749: (Sim:2h4m12s) 
CPU  1 inst:  153000000 cyc:  189314822 now IPC :0.71384: AVG IPC :0.80178: L2-Pf-HR :0.91261: L2-HR :0.76758: (Sim:2h4m18s) 
CPU  0 inst:  155000003 cyc:  189997881 now IPC :0.74876: AVG IPC :0.80946: L2-Pf-HR :0.91225: L2-HR :0.76869: (Sim:2h4m36s) 
CPU  3 inst:  154000005 cyc:  190044588 now IPC :1.05083: AVG IPC :0.80397: L2-Pf-HR :0.91225: L2-HR :0.76754: (Sim:2h4m37s) 
CPU  2 inst:  156000002 cyc:  190366488 now IPC :0.78178: AVG IPC :0.81317: L2-Pf-HR :0.91279: L2-HR :0.76773: (Sim:2h4m46s) 
CPU  1 inst:  154000005 cyc:  190469106 now IPC :0.86634: AVG IPC :0.80217: L2-Pf-HR :0.91277: L2-HR :0.76766: (Sim:2h4m49s) 
CPU  3 inst:  155000003 cyc:  191063193 now IPC :0.98173: AVG IPC :0.80493: L2-Pf-HR :0.91232: L2-HR :0.76755: (Sim:2h5m5s) 
[...]
Core_0_L2C_average_miss_latency 964.05149

Core_0_LLC_total_access 9775649
Core_0_LLC_total_hit 4149635 LLC_total_Hit Ratio: 0.42449
Core_0_LLC_total_miss 5626014
Core_0_LLC_loads 1681753
Core_0_LLC_load_hit 297586 LLC_load_Hit Ratio: 0.17695
Core_0_LLC_load_miss 1384167
Core_0_LLC_RFOs 775131
Core_0_LLC_RFO_hit 146 LLC_RFO_Hit Ratio: 0.00019
Core_0_LLC_RFO_miss 774985
Core_0_LLC_prefetches 3681625
Core_0_LLC_prefetch_hit 259124 LLC_prefetch_Hit Ratio: 0.07038
Core_0_LLC_prefetch_miss 3422501
Core_0_LLC_writebacks 3637140
Core_0_LLC_writeback_hit 3592779 LLC_writeback_Hit Ratio: 0.98780
Core_0_LLC_writeback_miss 44361
Core_0_LLC_prefetch_requested 0
Core_0_LLC_prefetch_issued 0
Core_0_LLC_prefetch_useful 163779 LLC_Useful Ratio: inf
Core_0_LLC_prefetch_useless 13420678
Core_0_LLC_prefetch_late 0
Core_0_LLC_average_miss_latency 3889.16904

Core_0_major_page_fault 0
Core_0_minor_page_fault 37887

Core_1_instructions 657000005
Core_1_cycles 1178738738
Core_1_IPC 0.55738

Core_1_branch_prediction_accuracy 99.58940
Core_1_branch_MPKI 0.11888
Core_1_average_ROB_occupancy_at_mispredict 572.45075

Core_1_L1D_total_access 195360190
Core_1_L1D_total_hit 169506002 L1D_total_Hit Ratio: 0.86766
Core_1_L1D_total_miss 25854188
Core_1_L1D_loads 165602501
Core_1_L1D_load_hit 150802592 L1D_load_Hit Ratio: 0.91063
Core_1_L1D_load_miss 14799909
Core_1_L1D_RFOs 17130502
Core_1_L1D_RFO_hit 16278348 L1D_RFO_Hit Ratio: 0.95026
Core_1_L1D_RFO_miss 852154
Core_1_L1D_prefetches 12627187
Core_1_L1D_prefetch_hit 2425062 L1D_prefetch_Hit Ratio: 0.19205
Core_1_L1D_prefetch_miss 10202125
Core_1_L1D_writebacks 0
Core_1_L1D_writeback_hit 0 L1D_writeback_Hit Ratio: -nan
Core_1_L1D_writeback_miss 0
Core_1_L1D_prefetch_requested 20590034
Core_1_L1D_prefetch_issued 20590034
Core_1_L1D_prefetch_useful 10062266 L1D_Useful Ratio: 0.48870
Core_1_L1D_prefetch_useless 211391
Core_1_L1D_prefetch_late 1837415
Core_1_L1D_average_miss_latency 65342344.23612

Core_1_L1I_total_access 96495142
Core_1_L1I_total_hit 96490135 L1I_total_Hit Ratio: 0.99995
Core_1_L1I_total_miss 5007
Core_1_L1I_loads 96495142
Core_1_L1I_load_hit 96490135 L1I_load_Hit Ratio: 0.99995
Core_1_L1I_load_miss 5007
Core_1_L1I_RFOs 0
Core_1_L1I_RFO_hit 0 L1I_RFO_Hit Ratio: -nan
Core_1_L1I_RFO_miss 0
Core_1_L1I_prefetches 0
Core_1_L1I_prefetch_hit 0 L1I_prefetch_Hit Ratio: -nan
Core_1_L1I_prefetch_miss 0
Core_1_L1I_writebacks 0
Core_1_L1I_writeback_hit 0 L1I_writeback_Hit Ratio: -nan
Core_1_L1I_writeback_miss 0
Core_1_L1I_prefetch_requested 0
Core_1_L1I_prefetch_issued 0
Core_1_L1I_prefetch_useful 0 L1I_Useful Ratio: -nan
Core_1_L1I_prefetch_useless 0
Core_1_L1I_prefetch_late 0
Core_1_L1I_average_miss_latency 1130.26024

Core_1_L2C_total_access 32246412
Core_1_L2C_total_hit 26107783 L2C_total_Hit Ratio: 0.80963
Core_1_L2C_total_miss 6138629
Core_1_L2C_loads 12980464
Core_1_L2C_load_hit 10654296 L2C_load_Hit Ratio: 0.82079
Core_1_L2C_load_miss 2326168
Core_1_L2C_RFOs 852153
Core_1_L2C_RFO_hit 79423 L2C_RFO_Hit Ratio: 0.09320
Core_1_L2C_RFO_miss 772730
Core_1_L2C_prefetches 14520726
Core_1_L2C_prefetch_hit 11482758 L2C_prefetch_Hit Ratio: 0.79078
Core_1_L2C_prefetch_miss 3037968
Core_1_L2C_writebacks 3893069
Core_1_L2C_writeback_hit 3891306 L2C_writeback_Hit Ratio: 0.99955
Core_1_L2C_writeback_miss 1763
Core_1_L2C_prefetch_requested 3188133
Core_1_L2C_prefetch_issued 3188133
Core_1_L2C_prefetch_useful 933173 L2C_Useful Ratio: 0.29270
Core_1_L2C_prefetch_useless 2114466
Core_1_L2C_prefetch_late 640461
Core_1_L2C_average_miss_latency 959.41557

Core_1_LLC_total_access 9775629
Core_1_LLC_total_hit 4156174 LLC_total_Hit Ratio: 0.42516
Core_1_LLC_total_miss 5619455
Core_1_LLC_loads 1685967
Core_1_LLC_load_hit 304671 LLC_load_Hit Ratio: 0.18071
Core_1_LLC_load_miss 1381296
Core_1_LLC_RFOs 772730
Core_1_LLC_RFO_hit 158 LLC_RFO_Hit Ratio: 0.00020
Core_1_LLC_RFO_miss 772572
Core_1_LLC_prefetches 3678156
Core_1_LLC_prefetch_hit 250781 LLC_prefetch_Hit Ratio: 0.06818
Core_1_LLC_prefetch_miss 3427375
Core_1_LLC_writebacks 3638776
Core_1_LLC_writeback_hit 3600564 LLC_writeback_Hit Ratio: 0.98950
Core_1_LLC_writeback_miss 38212
Core_1_LLC_prefetch_requested 0
Core_1_LLC_prefetch_issued 0
Core_1_LLC_prefetch_useful 163779 LLC_Useful Ratio: inf
Core_1_LLC_prefetch_useless 13420678
Core_1_LLC_prefetch_late 0
Core_1_LLC_average_miss_latency 3893.70846

Core_1_major_page_fault 0
Core_1_minor_page_fault 37887

Core_2_instructions 657000003
Core_2_cycles 1175676423
Core_2_IPC 0.55883

Core_2_branch_prediction_accuracy 99.58586
Core_2_branch_MPKI 0.11955
Core_2_average_ROB_occupancy_at_mispredict 567.41721

Core_2_L1D_total_access 195374462
Core_2_L1D_total_hit 169519054 L1D_total_Hit Ratio: 0.86766
Core_2_L1D_total_miss 25855408
Core_2_L1D_loads 165620440
Core_2_L1D_load_hit 150820178 L1D_load_Hit Ratio: 0.91064
Core_2_L1D_load_miss 14800262
Core_2_L1D_RFOs 17129723
Core_2_L1D_RFO_hit 16276051 L1D_RFO_Hit Ratio: 0.95016
Core_2_L1D_RFO_miss 853672
Core_2_L1D_prefetches 12624299
Core_2_L1D_prefetch_hit 2422825 L1D_prefetch_Hit Ratio: 0.19192
Core_2_L1D_prefetch_miss 10201474
Core_2_L1D_writebacks 0
Core_2_L1D_writeback_hit 0 L1D_writeback_Hit Ratio: -nan
Core_2_L1D_writeback_miss 0
Core_2_L1D_prefetch_requested 20684294
Core_2_L1D_prefetch_issued 20684294
Core_2_L1D_prefetch_useful 10111968 L1D_Useful Ratio: 0.48887
Core_2_L1D_prefetch_useless 211788
Core_2_L1D_prefetch_late 1842237
Core_2_L1D_average_miss_latency 65428040.44766

Core_2_L1I_total_access 96472865
Core_2_L1I_total_hit 96467856 L1I_total_Hit Ratio: 0.99995
Core_2_L1I_total_miss 5009
Core_2_L1I_loads 96472865
Core_2_L1I_load_hit 96467856 L1I_load_Hit Ratio: 0.99995
Core_2_L1I_load_miss 5009
Core_2_L1I_RFOs 0
Core_2_L1I_RFO_hit 0 L1I_RFO_Hit Ratio: -nan
Core_2_L1I_RFO_miss 0
Core_2_L1I_prefetches 0
Core_2_L1I_prefetch_hit 0 L1I_prefetch_Hit Ratio: -nan
Core_2_L1I_prefetch_miss 0
Core_2_L1I_writebacks 0
Core_2_L1I_writeback_hit 0 L1I_writeback_Hit Ratio: -nan
Core_2_L1I_writeback_miss 0
Core_2_L1I_prefetch_requested 0
Core_2_L1I_prefetch_issued 0
Core_2_L1I_prefetch_useful 0 L1I_Useful Ratio: -nan
Core_2_L1I_prefetch_useless 0
Core_2_L1I_prefetch_late 0
Core_2_L1I_average_miss_latency 1268.99042

Core_2_L2C_total_access 32253193
Core_2_L2C_total_hit 26114542 L2C_total_Hit Ratio: 0.80967
Core_2_L2C_total_miss 6138651
Core_2_L2C_loads 12983559
Core_2_L2C_load_hit 10660792 L2C_load_Hit Ratio: 0.82110
Core_2_L2C_load_miss 2322767
Core_2_L2C_RFOs 853672
Core_2_L2C_RFO_hit 80431 L2C_RFO_Hit Ratio: 0.09422
Core_2_L2C_RFO_miss 773241
Core_2_L2C_prefetches 14522898
Core_2_L2C_prefetch_hit 11481995 L2C_prefetch_Hit Ratio: 0.79061
Core_2_L2C_prefetch_miss 3040903
Core_2_L2C_writebacks 3893064
Core_2_L2C_writeback_hit 3891324 L2C_writeback_Hit Ratio: 0.99955
Core_2_L2C_writeback_miss 1740
Core_2_L2C_prefetch_requested 3556430
Core_2_L2C_prefetch_issued 3556430
Core_2_L2C_prefetch_useful 939852 L2C_Useful Ratio: 0.26427
Core_2_L2C_prefetch_useless 2121497
Core_2_L2C_prefetch_late 641034
Core_2_L2C_average_miss_latency 957.35026

Core_2_LLC_total_access 9772280
Core_2_LLC_total_hit 4174064 LLC_total_Hit Ratio: 0.42713
Core_2_LLC_total_miss 5598216
Core_2_LLC_loads 1682478
Core_2_LLC_load_hit 326602 LLC_load_Hit Ratio: 0.19412
Core_2_LLC_load_miss 1355876
Core_2_LLC_RFOs 773241
Core_2_LLC_RFO_hit 231 LLC_RFO_Hit Ratio: 0.00030
Core_2_LLC_RFO_miss 773010
Core_2_LLC_prefetches 3681185
Core_2_LLC_prefetch_hit 270708 LLC_prefetch_Hit Ratio: 0.07354
Core_2_LLC_prefetch_miss 3410477
Core_2_LLC_writebacks 3635376
Core_2_LLC_writeback_hit 3576523 LLC_writeback_Hit Ratio: 0.98381
Core_2_LLC_writeback_miss 58853
Core_2_LLC_prefetch_requested 0
Core_2_LLC_prefetch_issued 0
Core_2_LLC_prefetch_useful 163779 LLC_Useful Ratio: inf
Core_2_LLC_prefetch_useless 13420678
Core_2_LLC_prefetch_late 0
Core_2_LLC_average_miss_latency 3908.48075

Core_2_major_page_fault 0
Core_2_minor_page_fault 37966

Core_3_instructions 657000001
Core_3_cycles 1180005005
Core_3_IPC 0.55678

Core_3_branch_prediction_accuracy 99.58944
Core_3_branch_MPKI 0.11916
Core_3_average_ROB_occupancy_at_mispredict 572.57526

Core_3_L1D_total_access 195368207
Core_3_L1D_total_hit 169512358 L1D_total_Hit Ratio: 0.86766
Core_3_L1D_total_miss 25855849
Core_3_L1D_loads 165612678
Core_3_L1D_load_hit 150813614 L1D_load_Hit Ratio: 0.91064
Core_3_L1D_load_miss 14799064
Core_3_L1D_RFOs 17127662
Core_3_L1D_RFO_hit 16273176 L1D_RFO_Hit Ratio: 0.95011
Core_3_L1D_RFO_miss 854486
Core_3_L1D_prefetches 12627867
Core_3_L1D_prefetch_hit 2425568 L1D_prefetch_Hit Ratio: 0.19208
Core_3_L1D_prefetch_miss 10202299
Core_3_L1D_writebacks 0
Core_3_L1D_writeback_hit 0 L1D_writeback_Hit Ratio: -nan
Core_3_L1D_writeback_miss 0
Core_3_L1D_prefetch_requested 20482412
Core_3_L1D_prefetch_issued 20482412
Core_3_L1D_prefetch_useful 10018154 L1D_Useful Ratio: 0.48911
Core_3_L1D_prefetch_useless 209753
Core_3_L1D_prefetch_late 1821892
Core_3_L1D_average_miss_latency 64921536.20940

Core_3_L1I_total_access 96466322
Core_3_L1I_total_hit 96461315 L1I_total_Hit Ratio: 0.99995
Core_3_L1I_total_miss 5007
Core_3_L1I_loads 96466322
Core_3_L1I_load_hit 96461315 L1I_load_Hit Ratio: 0.99995
Core_3_L1I_load_miss 5007
Core_3_L1I_RFOs 0
Core_3_L1I_RFO_hit 0 L1I_RFO_Hit Ratio: -nan
Core_3_L1I_RFO_miss 0
Core_3_L1I_prefetches 0
Core_3_L1I_prefetch_hit 0 L1I_prefetch_Hit Ratio: -nan
Core_3_L1I_prefetch_miss 0
Core_3_L1I_writebacks 0
Core_3_L1I_writeback_hit 0 L1I_writeback_Hit Ratio: -nan
Core_3_L1I_writeback_miss 0
Core_3_L1I_prefetch_requested 0
Core_3_L1I_prefetch_issued 0
Core_3_L1I_prefetch_useful 0 L1I_Useful Ratio: -nan
Core_3_L1I_prefetch_useless 0
Core_3_L1I_prefetch_late 0
Core_3_L1I_average_miss_latency 1540.53365

Core_3_L2C_total_access 32201244
Core_3_L2C_total_hit 26063283 L2C_total_Hit Ratio: 0.80939
Core_3_L2C_total_miss 6137961
Core_3_L2C_loads 12984352
Core_3_L2C_load_hit 10662047 L2C_load_Hit Ratio: 0.82115
Core_3_L2C_load_miss 2322305
Core_3_L2C_RFOs 854486
Core_3_L2C_RFO_hit 80382 L2C_RFO_Hit Ratio: 0.09407
Core_3_L2C_RFO_miss 774104
Core_3_L2C_prefetches 14469342
Core_3_L2C_prefetch_hit 11429545 L2C_prefetch_Hit Ratio: 0.78991
Core_3_L2C_prefetch_miss 3039797
Core_3_L2C_writebacks 3893064
Core_3_L2C_writeback_hit 3891309 L2C_writeback_Hit Ratio: 0.99955
Core_3_L2C_writeback_miss 1755
Core_3_L2C_prefetch_requested 3550662
Core_3_L2C_prefetch_issued 3550662
Core_3_L2C_prefetch_useful 932792 L2C_Useful Ratio: 0.26271
Core_3_L2C_prefetch_useless 2109206
Core_3_L2C_prefetch_late 640162
Core_3_L2C_average_miss_latency 956.08768

Core_3_LLC_total_access 9769329
Core_3_LLC_total_hit 4124175 LLC_total_Hit Ratio: 0.42216
Core_3_LLC_total_miss 5645154
Core_3_LLC_loads 1682221
Core_3_LLC_load_hit 318734 LLC_load_Hit Ratio: 0.18947
Core_3_LLC_load_miss 1363487
Core_3_LLC_RFOs 774104
Core_3_LLC_RFO_hit 437 LLC_RFO_Hit Ratio: 0.00056
Core_3_LLC_RFO_miss 773667
Core_3_LLC_prefetches 3679877
Core_3_LLC_prefetch_hit 264553 LLC_prefetch_Hit Ratio: 0.07189
Core_3_LLC_prefetch_miss 3415324
Core_3_LLC_writebacks 3633127
Core_3_LLC_writeback_hit 3540451 LLC_writeback_Hit Ratio: 0.97449
Core_3_LLC_writeback_miss 92676
Core_3_LLC_prefetch_requested 0
Core_3_LLC_prefetch_issued 0
Core_3_LLC_prefetch_useful 163779 LLC_Useful Ratio: inf
Core_3_LLC_prefetch_useless 13420678
Core_3_LLC_prefetch_late 0
Core_3_LLC_average_miss_latency 3875.98274

Core_3_major_page_fault 0
Core_3_minor_page_fault 37887

[Bingo] PHT Access: 3646996
[Bingo] PHT Hit PC+Addr: 1137859
[Bingo] PHT Hit PC+Offs: 2072090
[Bingo] PHT Miss: 437047
[Bingo] Prefetch PC+Addr: 0
[Bingo] Prefetch PC+Offs: 0
[Bingo] Useful PC+Addr: 0
[Bingo] Useful PC+Offs: 0
[Bingo] Useless PC+Addr: 0
[Bingo] Useless PC+Offs: 0
[Bingo] L1 Prefetch per Region: 7.84815
[Bingo] L2 Prefetch per Region: 0.44256
[Bingo] L3 Prefetch per Region: 0.00000
[Bingo] No Prefetch per Region: 23.70929
[Bingo] Number of Voters Mean: 9.22317
[Bingo] Number of Voters SD: 5.78795
PHT read accesses: 50724798
PHT write accesses: 3452193
AT read accesses: 157789252
AT write accesses: 157789275
FT read accesses: 34499238
FT write accesses: 3646996
PS read accesses: 16158703
PS write accesses: 3209949
PHT tag read accesses: 146001286
PHT tag write accesses: 4590052
AT tag read accesses: 4505327557
AT tag write accesses: 161241468
FT tag read accesses: 2089983194
FT tag write accesses: 22719983
PS tag read accesses: 2825908017
PS tag write accesses: 19315429
[Bingo2] PHT Access: 980633
[Bingo2] PHT Hit PC+Addr: 25304
[Bingo2] PHT Hit PC+Offs: 688516
[Bingo2] PHT Miss: 266813
[Bingo2] Prefetch PC+Addr: 0
[Bingo2] Prefetch PC+Offs: 0
[Bingo2] Useful PC+Addr: 0
[Bingo2] Useful PC+Offs: 0
[Bingo2] Useless PC+Addr: 0
[Bingo2] Useless PC+Offs: 0
[Bingo2] L1 Prefetch per Region: 0.00000
[Bingo2] L2 Prefetch per Region: 6.93463
[Bingo2] L3 Prefetch per Region: 0.00000
[Bingo2] No Prefetch per Region: 25.06537
[Bingo2] Number of Voters Mean: 12.86057
[Bingo2] Number of Voters SD: 5.08651
PHT read accesses: 15478092
PHT write accesses: 769366
AT read accesses: 11973453
AT write accesses: 12729073
FT read accesses: 2607744
FT write accesses: 980633
PS read accesses: 1765286
PS write accesses: 713820
PHT tag read accesses: 39866653
PHT tag write accesses: 794670
AT tag read accesses: 639700567
AT tag write accesses: 12742947
FT tag read accesses: 460839772
FT tag write accesses: 2685691
PS tag read accesses: 235961663
PS tag write accesses: 2472553
[Bingo] PHT Access: 3647648
[Bingo] PHT Hit PC+Addr: 1133112
[Bingo] PHT Hit PC+Offs: 2077252
[Bingo] PHT Miss: 437284
[Bingo] Prefetch PC+Addr: 0
[Bingo] Prefetch PC+Offs: 0
[Bingo] Useful PC+Addr: 0
[Bingo] Useful PC+Offs: 0
[Bingo] Useless PC+Addr: 0
[Bingo] Useless PC+Offs: 0
[Bingo] L1 Prefetch per Region: 7.84824
[Bingo] L2 Prefetch per Region: 0.44315
[Bingo] L3 Prefetch per Region: 0.00000
[Bingo] No Prefetch per Region: 23.70862
[Bingo] Number of Voters Mean: 9.23588
[Bingo] Number of Voters SD: 5.79006
PHT read accesses: 50737405
PHT write accesses: 3452976
AT read accesses: 157805051
AT write accesses: 157805076
FT read accesses: 34501555
FT write accesses: 3647648
PS read accesses: 16213357
PS write accesses: 3210364
PHT tag read accesses: 146161346
PHT tag write accesses: 4586088
AT tag read accesses: 4505582117
AT tag write accesses: 161258052
FT tag read accesses: 2089991641
FT tag write accesses: 22722124
PS tag read accesses: 2826194073
PS tag write accesses: 19370417
[Bingo2] PHT Access: 981422
[Bingo2] PHT Hit PC+Addr: 23387
[Bingo2] PHT Hit PC+Offs: 691565
[Bingo2] PHT Miss: 266470
[Bingo2] Prefetch PC+Addr: 0
[Bingo2] Prefetch PC+Offs: 0
[Bingo2] Useful PC+Addr: 0
[Bingo2] Useful PC+Offs: 0
[Bingo2] Useless PC+Addr: 0
[Bingo2] Useless PC+Offs: 0
[Bingo2] L1 Prefetch per Region: 0.00000
[Bingo2] L2 Prefetch per Region: 5.77061
[Bingo2] L3 Prefetch per Region: 0.00000
[Bingo2] No Prefetch per Region: 26.22939
[Bingo2] Number of Voters Mean: 12.82552
[Bingo2] Number of Voters SD: 5.10207
PHT read accesses: 15498924
PHT write accesses: 769738
AT read accesses: 11975662
AT write accesses: 12732111
FT read accesses: 2597565
FT write accesses: 981422
PS read accesses: 1794003
PS write accesses: 714952
PHT tag read accesses: 39909295
PHT tag write accesses: 793125
AT tag read accesses: 639753645
AT tag write accesses: 12745528
FT tag read accesses: 460735055
FT tag write accesses: 2677352
PS tag read accesses: 236444543
PS tag write accesses: 2502555
[Bingo] PHT Access: 3658917
[Bingo] PHT Hit PC+Addr: 1140751
[Bingo] PHT Hit PC+Offs: 2078919
[Bingo] PHT Miss: 439247
[Bingo] Prefetch PC+Addr: 0
[Bingo] Prefetch PC+Offs: 0
[Bingo] Useful PC+Addr: 0
[Bingo] Useful PC+Offs: 0
[Bingo] Useless PC+Addr: 0
[Bingo] Useless PC+Offs: 0
[Bingo] L1 Prefetch per Region: 7.84681
[Bingo] L2 Prefetch per Region: 0.44331
[Bingo] L3 Prefetch per Region: 0.00000
[Bingo] No Prefetch per Region: 23.70988
[Bingo] Number of Voters Mean: 9.21910
[Bingo] Number of Voters SD: 5.83916
PHT read accesses: 50874683
PHT write accesses: 3463667
AT read accesses: 157878751
AT write accesses: 157878754
FT read accesses: 34536435
FT write accesses: 3658917
PS read accesses: 16196442
PS write accesses: 3219670
PHT tag read accesses: 146496520
PHT tag write accesses: 4604418
AT tag read accesses: 4504237976
AT tag write accesses: 161342421
FT tag read accesses: 2087797276
FT tag write accesses: 22756461
PS tag read accesses: 2827397191
PS tag write accesses: 19362706
[Bingo2] PHT Access: 984408
[Bingo2] PHT Hit PC+Addr: 25858
[Bingo2] PHT Hit PC+Offs: 693798
[Bingo2] PHT Miss: 264752
[Bingo2] Prefetch PC+Addr: 0
[Bingo2] Prefetch PC+Offs: 0
[Bingo2] Useful PC+Addr: 0
[Bingo2] Useful PC+Offs: 0
[Bingo2] Useless PC+Addr: 0
[Bingo2] Useless PC+Offs: 0
[Bingo2] L1 Prefetch per Region: 0.00000
[Bingo2] L2 Prefetch per Region: 6.71548
[Bingo2] L3 Prefetch per Region: 0.00000
[Bingo2] No Prefetch per Region: 25.28452
[Bingo2] Number of Voters Mean: 12.82763
[Bingo2] Number of Voters SD: 5.13778
PHT read accesses: 15564320
PHT write accesses: 773951
AT read accesses: 12029943
AT write accesses: 12788193
FT read accesses: 2624102
FT write accesses: 984408
PS read accesses: 1783593
PS write accesses: 719656
PHT tag read accesses: 40087849
PHT tag write accesses: 799809
AT tag read accesses: 640408727
AT tag write accesses: 12803906
FT tag read accesses: 460743855
FT tag write accesses: 2701234
PS tag read accesses: 237060551
PS tag write accesses: 2496521
[Bingo] PHT Access: 3625963
[Bingo] PHT Hit PC+Addr: 1123552
[Bingo] PHT Hit PC+Offs: 2066829
[Bingo] PHT Miss: 435582
[Bingo] Prefetch PC+Addr: 0
[Bingo] Prefetch PC+Offs: 0
[Bingo] Useful PC+Addr: 0
[Bingo] Useful PC+Offs: 0
[Bingo] Useless PC+Addr: 0
[Bingo] Useless PC+Offs: 0
[Bingo] L1 Prefetch per Region: 7.85382
[Bingo] L2 Prefetch per Region: 0.44237
[Bingo] L3 Prefetch per Region: 0.00000
[Bingo] No Prefetch per Region: 23.70380
[Bingo] Number of Voters Mean: 9.26128
[Bingo] Number of Voters SD: 5.79425
PHT read accesses: 50403535
PHT write accesses: 3432264
AT read accesses: 157248165
AT write accesses: 157248194
FT read accesses: 34409193
FT write accesses: 3625963
PS read accesses: 16041677
PS write accesses: 3190381
PHT tag read accesses: 145300172
PHT tag write accesses: 4555816
AT tag read accesses: 4495710949
AT tag write accesses: 160680458
FT tag read accesses: 2088414639
FT tag write accesses: 22643421
PS tag read accesses: 2816314444
PS tag write accesses: 19179133
[Bingo2] PHT Access: 979979
[Bingo2] PHT Hit PC+Addr: 21887
[Bingo2] PHT Hit PC+Offs: 689942
[Bingo2] PHT Miss: 268150
[Bingo2] Prefetch PC+Addr: 0
[Bingo2] Prefetch PC+Offs: 0
[Bingo2] Useful PC+Addr: 0
[Bingo2] Useful PC+Offs: 0
[Bingo2] Useless PC+Addr: 0
[Bingo2] Useless PC+Offs: 0
[Bingo2] L1 Prefetch per Region: 0.00000
[Bingo2] L2 Prefetch per Region: 6.89389
[Bingo2] L3 Prefetch per Region: 0.00000
[Bingo2] No Prefetch per Region: 25.10611
[Bingo2] Number of Voters Mean: 12.84679
[Bingo2] Number of Voters SD: 5.08559
PHT read accesses: 15489138
PHT write accesses: 767807
AT read accesses: 11905335
AT write accesses: 12659301
FT read accesses: 2589067
FT write accesses: 979979
PS read accesses: 1757781
PS write accesses: 711829
PHT tag read accesses: 39878461
PHT tag write accesses: 789694
AT tag read accesses: 638468102
AT tag write accesses: 12673270
FT tag read accesses: 460708735
FT tag write accesses: 2671416
PS tag read accesses: 234935839
PS tag write accesses: 2463936
Channel_0_RQ_row_buffer_hit 9864399
Channel_0_RQ_row_buffer_miss 12438791
Channel_0_WQ_row_buffer_hit 5213423
Channel_0_WQ_row_buffer_miss 7848598
Channel_0_WQ_full 27147
Channel_0_dbus_congested 24495421

avg_congested_cycle 11

EzSearch AVG IPC :0.55736: L2-Pf-HR :0.79010 : L2-HR :0.81002 Uful:0.26191
EzSearch AVG IPC :0.55738: L2-Pf-HR :0.79078 : L2-HR :0.81021 Uful:0.29270
EzSearch AVG IPC :0.55883: L2-Pf-HR :0.79061 : L2-HR :0.81034 Uful:0.26427
EzSearch AVG IPC :0.55678: L2-Pf-HR :0.78991 : L2-HR :0.80939 Uful:0.26271
     > Finished combination: TraceType=770-tot Sim:657000000 Prefetcher=L2bingo_dpc3_PHT1k L1=bingo_dpc3_PHT1k
