TRACE: [496000000][OPT-125M]_[h12][s1024][d64] Warmup: 2000000 NumTraces: 496000000
L1:isb_ideal:L2:isb_ideal
*************************************************
   ChampSim Multicore Out-of-Order Simulator
   Last compiled: Oct 29 2024 17:24:46
*************************************************

trace_0 770-tot_memTraces_v3_rexz/memTraces[496000000][OPT-125M]_[h12][s1024][d64].champsim.9.xz
trace_1 770-tot_memTraces_v3_rexz/memTraces[496000000][OPT-125M]_[h12][s1024][d64].champsim.9.xz
trace_2 770-tot_memTraces_v3_rexz/memTraces[496000000][OPT-125M]_[h12][s1024][d64].champsim.9.xz
trace_3 770-tot_memTraces_v3_rexz/memTraces[496000000][OPT-125M]_[h12][s1024][d64].champsim.9.xz
L1D: Ideal ISB Prefetching
Ideal ISB Prefetching
L1D: Ideal ISB Prefetching
Ideal ISB Prefetching
L1D: Ideal ISB Prefetching
Ideal ISB Prefetching
L1D: Ideal ISB Prefetching
Ideal ISB Prefetching
MAIN.cc ln 751 stats print skipped
CPU  1 inst:    1000002 cyc:     500124 now IPC :1.99951: AVG IPC :1.99951: L2-Pf-HR :0.98907: L2-HR :0.74399: (Sim:0h0m48s) 
CPU  2 inst:    1000002 cyc:     500150 now IPC :1.99940: AVG IPC :1.99940: L2-Pf-HR :0.99335: L2-HR :0.75145: (Sim:0h0m48s) 
CPU  3 inst:    1000002 cyc:     500348 now IPC :1.99861: AVG IPC :1.99861: L2-Pf-HR :0.99044: L2-HR :0.75397: (Sim:0h0m48s) 
CPU  0 inst:    1000002 cyc:     500349 now IPC :1.99861: AVG IPC :1.99861: L2-Pf-HR :0.99120: L2-HR :0.78358: (Sim:0h0m48s) 
CPU  1 inst:    2000000 cyc:     984519 now IPC :2.06443: AVG IPC :2.03145: L2-Pf-HR :0.98795: L2-HR :0.77512: (Sim:0h1m40s) 
CPU  2 inst:    2000000 cyc:     984569 now IPC :2.06432: AVG IPC :2.03135: L2-Pf-HR :0.99166: L2-HR :0.77960: (Sim:0h1m40s) 
CPU  3 inst:    2000000 cyc:     984905 now IPC :2.06374: AVG IPC :2.03065: L2-Pf-HR :0.98984: L2-HR :0.78451: (Sim:0h1m40s) 
CPU  0 inst:    2000000 cyc:     984906 now IPC :2.06374: AVG IPC :2.03065: L2-Pf-HR :0.99107: L2-HR :0.80970: (Sim:0h1m40s) 

Warmup complete CPU  0 instructions:    2000002 cycles:     984907 (Simulation time: 0 hr 1 min 40 sec) 
Warmup complete CPU  1 instructions:    2000871 cycles:     984906 (Simulation time: 0 hr 1 min 40 sec) 
Warmup complete CPU  2 instructions:    2000673 cycles:     984906 (Simulation time: 0 hr 1 min 40 sec) 
Warmup complete CPU  3 instructions:    2000002 cycles:     984906 (Simulation time: 0 hr 1 min 40 sec) 

CPU  1 inst:    3000001 cyc:    1845472 now IPC :1.16150: AVG IPC :1.16101: L2-Pf-HR :0.99184: L2-HR :0.80407: (Sim:0h2m33s) 
CPU  2 inst:    3000001 cyc:    1848208 now IPC :1.15789: AVG IPC :1.15756: L2-Pf-HR :0.99197: L2-HR :0.80672: (Sim:0h2m33s) 
CPU  0 inst:    3000001 cyc:    1850032 now IPC :1.15590: AVG IPC :1.15590: L2-Pf-HR :0.99525: L2-HR :0.80831: (Sim:0h2m33s) 
CPU  3 inst:    3000001 cyc:    1859556 now IPC :1.14331: AVG IPC :1.14331: L2-Pf-HR :0.99299: L2-HR :0.80836: (Sim:0h2m33s) 
CPU  1 inst:    4000000 cyc:    2749215 now IPC :1.10651: AVG IPC :1.13309: L2-Pf-HR :0.99232: L2-HR :0.79912: (Sim:0h3m26s) 
CPU  0 inst:    4000000 cyc:    2749373 now IPC :1.11192: AVG IPC :1.13349: L2-Pf-HR :0.99543: L2-HR :0.80447: (Sim:0h3m26s) 
CPU  2 inst:    4000000 cyc:    2749623 now IPC :1.10937: AVG IPC :1.13294: L2-Pf-HR :0.99402: L2-HR :0.80434: (Sim:0h3m26s) 
CPU  3 inst:    4000000 cyc:    2771709 now IPC :1.09631: AVG IPC :1.11932: L2-Pf-HR :0.99359: L2-HR :0.80542: (Sim:0h3m28s) 
CPU  1 inst:    5000000 cyc:    3622864 now IPC :1.14462: AVG IPC :1.13691: L2-Pf-HR :0.99311: L2-HR :0.79631: (Sim:0h4m20s) 
CPU  2 inst:    5000005 cyc:    3625851 now IPC :1.14126: AVG IPC :1.13570: L2-Pf-HR :0.99408: L2-HR :0.80053: (Sim:0h4m20s) 
CPU  0 inst:    5000001 cyc:    3627477 now IPC :1.13882: AVG IPC :1.13526: L2-Pf-HR :0.99502: L2-HR :0.79984: (Sim:0h4m20s) 
CPU  3 inst:    5000000 cyc:    3660456 now IPC :1.12518: AVG IPC :1.12126: L2-Pf-HR :0.99384: L2-HR :0.80189: (Sim:0h4m22s) 
CPU  1 inst:    6000005 cyc:    4533246 now IPC :1.09845: AVG IPC :1.12704: L2-Pf-HR :0.99276: L2-HR :0.79288: (Sim:0h5m14s) 
CPU  2 inst:    6000005 cyc:    4550559 now IPC :1.08142: AVG IPC :1.12163: L2-Pf-HR :0.99444: L2-HR :0.79751: (Sim:0h5m15s) 
CPU  0 inst:    6000005 cyc:    4555519 now IPC :1.07754: AVG IPC :1.12026: L2-Pf-HR :0.99468: L2-HR :0.79683: (Sim:0h5m15s) 
CPU  3 inst:    6000005 cyc:    4589060 now IPC :1.07689: AVG IPC :1.10983: L2-Pf-HR :0.99430: L2-HR :0.79852: (Sim:0h5m17s) 
CPU  1 inst:    7000005 cyc:    5611276 now IPC :0.92762: AVG IPC :1.08057: L2-Pf-HR :0.97691: L2-HR :0.79510: (Sim:0h6m9s) 
CPU  2 inst:    7000002 cyc:    5808630 now IPC :0.79487: AVG IPC :1.03640: L2-Pf-HR :0.98023: L2-HR :0.79841: (Sim:0h6m19s) 
CPU  0 inst:    7000005 cyc:    5840344 now IPC :0.77832: AVG IPC :1.02977: L2-Pf-HR :0.98094: L2-HR :0.79957: (Sim:0h6m21s) 
CPU  3 inst:    7000002 cyc:    5842958 now IPC :0.79751: AVG IPC :1.02922: L2-Pf-HR :0.97942: L2-HR :0.80061: (Sim:0h6m21s) 
CPU  1 inst:    8000005 cyc:    6458679 now IPC :1.18008: AVG IPC :1.09598: L2-Pf-HR :0.96942: L2-HR :0.79695: (Sim:0h6m53s) 
CPU  2 inst:    8000005 cyc:    6925905 now IPC :0.89504: AVG IPC :1.00982: L2-Pf-HR :0.97025: L2-HR :0.80026: (Sim:0h7m18s) 
CPU  3 inst:    8000005 cyc:    7038479 now IPC :0.83646: AVG IPC :0.99115: L2-Pf-HR :0.97223: L2-HR :0.80216: (Sim:0h7m24s) 
CPU  0 inst:    8000005 cyc:    7039187 now IPC :0.83414: AVG IPC :0.99103: L2-Pf-HR :0.97223: L2-HR :0.80133: (Sim:0h7m24s) 
CPU  1 inst:    9000005 cyc:    7437416 now IPC :1.02172: AVG IPC :1.08471: L2-Pf-HR :0.96714: L2-HR :0.79760: (Sim:0h7m46s) 
CPU  2 inst:    9000005 cyc:    7815440 now IPC :1.12418: AVG IPC :1.02471: L2-Pf-HR :0.96618: L2-HR :0.80013: (Sim:0h8m7s) 
CPU  3 inst:    9000005 cyc:    8174952 now IPC :0.87992: AVG IPC :0.97357: L2-Pf-HR :0.96875: L2-HR :0.80310: (Sim:0h8m26s) 
CPU  0 inst:    9000005 cyc:    8177207 now IPC :0.87872: AVG IPC :0.97326: L2-Pf-HR :0.96938: L2-HR :0.80215: (Sim:0h8m26s) 
CPU  1 inst:   10000000 cyc:    8542423 now IPC :0.90497: AVG IPC :1.05843: L2-Pf-HR :0.96544: L2-HR :0.79808: (Sim:0h8m46s) 
CPU  2 inst:   10000000 cyc:    8703018 now IPC :1.12666: AVG IPC :1.03644: L2-Pf-HR :0.96383: L2-HR :0.79956: (Sim:0h8m54s) 
CPU  3 inst:   10000001 cyc:    9400775 now IPC :0.81578: AVG IPC :0.95059: L2-Pf-HR :0.96632: L2-HR :0.80362: (Sim:0h9m29s) 
CPU  0 inst:   10000000 cyc:    9401382 now IPC :0.81687: AVG IPC :0.95052: L2-Pf-HR :0.96798: L2-HR :0.80225: (Sim:0h9m29s) 
CPU  1 inst:   11000003 cyc:    9800975 now IPC :0.79457: AVG IPC :1.02076: L2-Pf-HR :0.96660: L2-HR :0.79882: (Sim:0h9m48s) 
CPU  2 inst:   11000003 cyc:    9828439 now IPC :0.88856: AVG IPC :1.01762: L2-Pf-HR :0.96494: L2-HR :0.79894: (Sim:0h9m49s) 
CPU  3 inst:   11000003 cyc:   10720950 now IPC :0.75748: AVG IPC :0.92440: L2-Pf-HR :0.96535: L2-HR :0.80455: (Sim:0h10m31s) 
CPU  0 inst:   11000003 cyc:   10736025 now IPC :0.74927: AVG IPC :0.92297: L2-Pf-HR :0.96834: L2-HR :0.80257: (Sim:0h10m32s) 
CPU  1 inst:   12000002 cyc:   11061188 now IPC :0.79352: AVG IPC :0.99234: L2-Pf-HR :0.96732: L2-HR :0.79945: (Sim:0h10m43s) 
CPU  2 inst:   12000002 cyc:   11113596 now IPC :0.77811: AVG IPC :0.98723: L2-Pf-HR :0.96637: L2-HR :0.79882: (Sim:0h10m44s) 
CPU  3 inst:   12000002 cyc:   12089693 now IPC :0.73060: AVG IPC :0.90051: L2-Pf-HR :0.96534: L2-HR :0.80511: (Sim:0h11m14s) 
CPU  0 inst:   12000002 cyc:   12145462 now IPC :0.70950: AVG IPC :0.89601: L2-Pf-HR :0.96916: L2-HR :0.80292: (Sim:0h11m17s) 
CPU  1 inst:   13000005 cyc:   12564692 now IPC :0.66511: AVG IPC :0.94986: L2-Pf-HR :0.96585: L2-HR :0.80268: (Sim:0h11m36s) 
CPU  2 inst:   13000005 cyc:   12597026 now IPC :0.67412: AVG IPC :0.94723: L2-Pf-HR :0.96557: L2-HR :0.80158: (Sim:0h11m38s) 
CPU  3 inst:   13000005 cyc:   13347820 now IPC :0.79483: AVG IPC :0.88976: L2-Pf-HR :0.96301: L2-HR :0.80531: (Sim:0h12m18s) 
CPU  0 inst:   13000005 cyc:   13370477 now IPC :0.81632: AVG IPC :0.88813: L2-Pf-HR :0.96666: L2-HR :0.80297: (Sim:0h12m20s) 
CPU  1 inst:   14000002 cyc:   13601593 now IPC :0.96441: AVG IPC :0.95105: L2-Pf-HR :0.96506: L2-HR :0.80577: (Sim:0h12m32s) 
CPU  2 inst:   14000002 cyc:   13644549 now IPC :0.95463: AVG IPC :0.94784: L2-Pf-HR :0.96526: L2-HR :0.80378: (Sim:0h12m34s) 
CPU  0 inst:   14000002 cyc:   14510301 now IPC :0.87733: AVG IPC :0.88722: L2-Pf-HR :0.96634: L2-HR :0.80313: (Sim:0h13m19s) 
CPU  3 inst:   14000002 cyc:   14527022 now IPC :0.84803: AVG IPC :0.88612: L2-Pf-HR :0.96293: L2-HR :0.80550: (Sim:0h13m20s) 
CPU  1 inst:   15000003 cyc:   14710511 now IPC :0.90178: AVG IPC :0.94707: L2-Pf-HR :0.96477: L2-HR :0.80797: (Sim:0h13m29s) 
CPU  2 inst:   15000003 cyc:   14757604 now IPC :0.89843: AVG IPC :0.94385: L2-Pf-HR :0.96514: L2-HR :0.80586: (Sim:0h13m32s) 
CPU  0 inst:   15000003 cyc:   15599168 now IPC :0.91839: AVG IPC :0.88954: L2-Pf-HR :0.96687: L2-HR :0.80371: (Sim:0h14m16s) 
CPU  3 inst:   15000003 cyc:   15666957 now IPC :0.87724: AVG IPC :0.88543: L2-Pf-HR :0.96322: L2-HR :0.80597: (Sim:0h14m20s) 
CPU  1 inst:   16000003 cyc:   15828191 now IPC :0.89471: AVG IPC :0.94313: L2-Pf-HR :0.96548: L2-HR :0.81002: (Sim:0h14m28s) 
CPU  2 inst:   16000000 cyc:   15863511 now IPC :0.90423: AVG IPC :0.94090: L2-Pf-HR :0.96518: L2-HR :0.80769: (Sim:0h14m30s) 
CPU  0 inst:   16000002 cyc:   16807671 now IPC :0.82747: AVG IPC :0.88480: L2-Pf-HR :0.96733: L2-HR :0.80479: (Sim:0h15m13s) 
CPU  3 inst:   16000001 cyc:   16978479 now IPC :0.76247: AVG IPC :0.87535: L2-Pf-HR :0.96433: L2-HR :0.80701: (Sim:0h15m21s) 
CPU  1 inst:   17000004 cyc:   17561633 now IPC :0.57689: AVG IPC :0.90483: L2-Pf-HR :0.96546: L2-HR :0.80842: (Sim:0h15m45s) 
CPU  2 inst:   17000005 cyc:   17594200 now IPC :0.57781: AVG IPC :0.90307: L2-Pf-HR :0.96586: L2-HR :0.80634: (Sim:0h15m47s) 
CPU  0 inst:   17000005 cyc:   18132884 now IPC :0.75460: AVG IPC :0.87474: L2-Pf-HR :0.96797: L2-HR :0.80351: (Sim:0h16m10s) 
CPU  3 inst:   17000005 cyc:   18818892 now IPC :0.54336: AVG IPC :0.84109: L2-Pf-HR :0.96539: L2-HR :0.80526: (Sim:0h16m40s) 
CPU  1 inst:   18000000 cyc:   19282494 now IPC :0.58110: AVG IPC :0.87438: L2-Pf-HR :0.96590: L2-HR :0.80845: (Sim:0h16m59s) 
CPU  2 inst:   18000000 cyc:   19407597 now IPC :0.55145: AVG IPC :0.86846: L2-Pf-HR :0.96678: L2-HR :0.80647: (Sim:0h17m4s) 
CPU  0 inst:   18000000 cyc:   19460743 now IPC :0.75309: AVG IPC :0.86600: L2-Pf-HR :0.96820: L2-HR :0.80300: (Sim:0h17m6s) 
CPU  3 inst:   18000000 cyc:   20538601 now IPC :0.58149: AVG IPC :0.81826: L2-Pf-HR :0.96635: L2-HR :0.80520: (Sim:0h17m53s) 
CPU  1 inst:   19000005 cyc:   20572941 now IPC :0.77493: AVG IPC :0.86783: L2-Pf-HR :0.96620: L2-HR :0.80800: (Sim:0h17m54s) 
CPU  0 inst:   19000005 cyc:   21091286 now IPC :0.61330: AVG IPC :0.84550: L2-Pf-HR :0.96865: L2-HR :0.80259: (Sim:0h18m19s) 
CPU  2 inst:   19000005 cyc:   21113636 now IPC :0.58616: AVG IPC :0.84453: L2-Pf-HR :0.96736: L2-HR :0.80651: (Sim:0h18m20s) 
CPU  1 inst:   20000003 cyc:   21751002 now IPC :0.84885: AVG IPC :0.86676: L2-Pf-HR :0.96610: L2-HR :0.80737: (Sim:0h18m51s) 
CPU  3 inst:   19000005 cyc:   21755940 now IPC :0.82147: AVG IPC :0.81845: L2-Pf-HR :0.96699: L2-HR :0.80463: (Sim:0h18m51s) 
CPU  0 inst:   20000003 cyc:   22428585 now IPC :0.74777: AVG IPC :0.83941: L2-Pf-HR :0.96886: L2-HR :0.80207: (Sim:0h19m25s) 
CPU  2 inst:   20000003 cyc:   22538343 now IPC :0.70190: AVG IPC :0.83510: L2-Pf-HR :0.96756: L2-HR :0.80620: (Sim:0h19m30s) 
CPU  3 inst:   20000003 cyc:   22950893 now IPC :0.83685: AVG IPC :0.81945: L2-Pf-HR :0.96721: L2-HR :0.80377: (Sim:0h19m50s) 
CPU  1 inst:   21000001 cyc:   23025173 now IPC :0.78482: AVG IPC :0.86202: L2-Pf-HR :0.96634: L2-HR :0.80654: (Sim:0h19m54s) 
CPU  0 inst:   21000001 cyc:   23654564 now IPC :0.81567: AVG IPC :0.83812: L2-Pf-HR :0.96917: L2-HR :0.80153: (Sim:0h20m21s) 
CPU  2 inst:   21000001 cyc:   23993709 now IPC :0.68711: AVG IPC :0.82574: L2-Pf-HR :0.96760: L2-HR :0.80577: (Sim:0h20m37s) 
CPU  3 inst:   21000001 cyc:   24229121 now IPC :0.78233: AVG IPC :0.81741: L2-Pf-HR :0.96724: L2-HR :0.80285: (Sim:0h20m49s) 
CPU  1 inst:   22000005 cyc:   24457023 now IPC :0.69840: AVG IPC :0.85204: L2-Pf-HR :0.96655: L2-HR :0.80595: (Sim:0h21m0s) 
CPU  0 inst:   22000001 cyc:   24845214 now IPC :0.83988: AVG IPC :0.83821: L2-Pf-HR :0.96914: L2-HR :0.80105: (Sim:0h21m15s) 
CPU  2 inst:   22000001 cyc:   25464897 now IPC :0.67972: AVG IPC :0.81697: L2-Pf-HR :0.96790: L2-HR :0.80530: (Sim:0h21m33s) 
CPU  3 inst:   22000002 cyc:   25617774 now IPC :0.72012: AVG IPC :0.81192: L2-Pf-HR :0.96732: L2-HR :0.80218: (Sim:0h21m37s) 
CPU  1 inst:   23000003 cyc:   25985388 now IPC :0.65429: AVG IPC :0.83995: L2-Pf-HR :0.96668: L2-HR :0.80565: (Sim:0h21m49s) 
CPU  0 inst:   23000003 cyc:   26208124 now IPC :0.73373: AVG IPC :0.83257: L2-Pf-HR :0.96917: L2-HR :0.80081: (Sim:0h21m55s) 
CPU  2 inst:   23000003 cyc:   26847102 now IPC :0.72348: AVG IPC :0.81197: L2-Pf-HR :0.96825: L2-HR :0.80501: (Sim:0h22m14s) 
CPU  3 inst:   23000003 cyc:   27117263 now IPC :0.66689: AVG IPC :0.80360: L2-Pf-HR :0.96701: L2-HR :0.80182: (Sim:0h22m23s) 
CPU  1 inst:   24000003 cyc:   27312229 now IPC :0.75367: AVG IPC :0.83560: L2-Pf-HR :0.96714: L2-HR :0.80573: (Sim:0h22m29s) 
CPU  0 inst:   24000003 cyc:   27474291 now IPC :0.78979: AVG IPC :0.83052: L2-Pf-HR :0.96946: L2-HR :0.80099: (Sim:0h22m34s) 
CPU  2 inst:   24000003 cyc:   27870191 now IPC :0.97743: AVG IPC :0.81827: L2-Pf-HR :0.96853: L2-HR :0.80475: (Sim:0h22m48s) 
CPU  3 inst:   24000003 cyc:   28306367 now IPC :0.84097: AVG IPC :0.80523: L2-Pf-HR :0.96755: L2-HR :0.80183: (Sim:0h23m7s) 
CPU  1 inst:   25000003 cyc:   28385894 now IPC :0.93139: AVG IPC :0.83935: L2-Pf-HR :0.96710: L2-HR :0.80513: (Sim:0h23m11s) 
CPU  0 inst:   25000003 cyc:   28654922 now IPC :0.84700: AVG IPC :0.83122: L2-Pf-HR :0.96965: L2-HR :0.80067: (Sim:0h23m26s) 
CPU  2 inst:   25000003 cyc:   28871254 now IPC :0.99894: AVG IPC :0.82475: L2-Pf-HR :0.96858: L2-HR :0.80429: (Sim:0h23m37s) 
CPU  1 inst:   26000004 cyc:   29381358 now IPC :1.00456: AVG IPC :0.84515: L2-Pf-HR :0.96712: L2-HR :0.80464: (Sim:0h24m5s) 
CPU  3 inst:   25000003 cyc:   29456392 now IPC :0.86955: AVG IPC :0.80783: L2-Pf-HR :0.96759: L2-HR :0.80154: (Sim:0h24m9s) 
CPU  0 inst:   26000004 cyc:   29852988 now IPC :0.83468: AVG IPC :0.83137: L2-Pf-HR :0.96963: L2-HR :0.80040: (Sim:0h24m30s) 
CPU  2 inst:   26000004 cyc:   29925655 now IPC :0.94841: AVG IPC :0.82926: L2-Pf-HR :0.96862: L2-HR :0.80386: (Sim:0h24m34s) 
CPU  1 inst:   27000004 cyc:   30391622 now IPC :0.98984: AVG IPC :0.85012: L2-Pf-HR :0.96737: L2-HR :0.80423: (Sim:0h24m59s) 
CPU  3 inst:   26000004 cyc:   30616014 now IPC :0.86235: AVG IPC :0.80996: L2-Pf-HR :0.96762: L2-HR :0.80130: (Sim:0h25m11s) 
CPU  0 inst:   27000004 cyc:   31053707 now IPC :0.83283: AVG IPC :0.83143: L2-Pf-HR :0.96962: L2-HR :0.80021: (Sim:0h25m34s) 
CPU  2 inst:   27000004 cyc:   31167662 now IPC :0.80515: AVG IPC :0.82827: L2-Pf-HR :0.96871: L2-HR :0.80350: (Sim:0h25m41s) 
CPU  1 inst:   28000003 cyc:   31519066 now IPC :0.88696: AVG IPC :0.85148: L2-Pf-HR :0.96739: L2-HR :0.80385: (Sim:0h26m1s) 
CPU  3 inst:   27000004 cyc:   31588207 now IPC :1.02860: AVG IPC :0.81691: L2-Pf-HR :0.96771: L2-HR :0.80084: (Sim:0h26m5s) 
CPU  0 inst:   28000001 cyc:   32021622 now IPC :1.03315: AVG IPC :0.83772: L2-Pf-HR :0.96960: L2-HR :0.79992: (Sim:0h26m28s) 
CPU  2 inst:   28000000 cyc:   32222230 now IPC :0.94825: AVG IPC :0.83232: L2-Pf-HR :0.96880: L2-HR :0.80317: (Sim:0h26m36s) 
CPU  3 inst:   28000000 cyc:   32563944 now IPC :1.02486: AVG IPC :0.82333: L2-Pf-HR :0.96771: L2-HR :0.80059: (Sim:0h26m47s) 
CPU  1 inst:   29000005 cyc:   32709552 now IPC :0.83999: AVG IPC :0.85105: L2-Pf-HR :0.96732: L2-HR :0.80455: (Sim:0h26m52s) 
CPU  0 inst:   29000005 cyc:   33235327 now IPC :0.82393: AVG IPC :0.83720: L2-Pf-HR :0.96950: L2-HR :0.80082: (Sim:0h27m10s) 
CPU  2 inst:   29000005 cyc:   33432340 now IPC :0.82638: AVG IPC :0.83209: L2-Pf-HR :0.96857: L2-HR :0.80370: (Sim:0h27m16s) 
CPU  3 inst:   29000005 cyc:   33847283 now IPC :0.77922: AVG IPC :0.82161: L2-Pf-HR :0.96753: L2-HR :0.80139: (Sim:0h27m30s) 
CPU  1 inst:   30000000 cyc:   33964194 now IPC :0.79704: AVG IPC :0.84899: L2-Pf-HR :0.96735: L2-HR :0.80600: (Sim:0h27m33s) 
CPU  0 inst:   30000000 cyc:   34668094 now IPC :0.69795: AVG IPC :0.83128: L2-Pf-HR :0.96961: L2-HR :0.80248: (Sim:0h27m56s) 
CPU  2 inst:   30000000 cyc:   34712963 now IPC :0.78087: AVG IPC :0.83015: L2-Pf-HR :0.96843: L2-HR :0.80506: (Sim:0h27m58s) 
CPU  3 inst:   30000000 cyc:   34989758 now IPC :0.87529: AVG IPC :0.82341: L2-Pf-HR :0.96772: L2-HR :0.80283: (Sim:0h28m10s) 
CPU  1 inst:   31000001 cyc:   35427222 now IPC :0.68351: AVG IPC :0.84196: L2-Pf-HR :0.96735: L2-HR :0.80735: (Sim:0h28m29s) 
CPU  0 inst:   31000001 cyc:   36095875 now IPC :0.70039: AVG IPC :0.82595: L2-Pf-HR :0.96981: L2-HR :0.80414: (Sim:0h28m55s) 
CPU  2 inst:   31000001 cyc:   36227204 now IPC :0.66040: AVG IPC :0.82286: L2-Pf-HR :0.96844: L2-HR :0.80651: (Sim:0h29m1s) 
CPU  3 inst:   31000001 cyc:   36229005 now IPC :0.80694: AVG IPC :0.82283: L2-Pf-HR :0.96772: L2-HR :0.80424: (Sim:0h29m1s) 
CPU  1 inst:   32000004 cyc:   36838040 now IPC :0.70881: AVG IPC :0.83672: L2-Pf-HR :0.96747: L2-HR :0.80852: (Sim:0h29m28s) 
CPU  0 inst:   32000004 cyc:   37114857 now IPC :0.98137: AVG IPC :0.83034: L2-Pf-HR :0.96968: L2-HR :0.80514: (Sim:0h29m41s) 
CPU  3 inst:   32000004 cyc:   37736935 now IPC :0.66316: AVG IPC :0.81628: L2-Pf-HR :0.96784: L2-HR :0.80543: (Sim:0h30m5s) 
CPU  2 inst:   32000004 cyc:   37753584 now IPC :0.65515: AVG IPC :0.81589: L2-Pf-HR :0.96843: L2-HR :0.80754: (Sim:0h30m5s) 
CPU  1 inst:   33000003 cyc:   38281666 now IPC :0.69270: AVG IPC :0.83115: L2-Pf-HR :0.96756: L2-HR :0.80802: (Sim:0h30m28s) 
CPU  0 inst:   33000003 cyc:   38502006 now IPC :0.72090: AVG IPC :0.82629: L2-Pf-HR :0.96951: L2-HR :0.80447: (Sim:0h30m37s) 
CPU  3 inst:   33000003 cyc:   39324657 now IPC :0.62983: AVG IPC :0.80856: L2-Pf-HR :0.96783: L2-HR :0.80495: (Sim:0h31m9s) 
CPU  2 inst:   33000003 cyc:   39503732 now IPC :0.57138: AVG IPC :0.80478: L2-Pf-HR :0.96849: L2-HR :0.80697: (Sim:0h31m16s) 
CPU  1 inst:   34000005 cyc:   40003486 now IPC :0.58078: AVG IPC :0.82010: L2-Pf-HR :0.96784: L2-HR :0.80782: (Sim:0h31m36s) 
CPU  0 inst:   34000004 cyc:   40017010 now IPC :0.66006: AVG IPC :0.81984: L2-Pf-HR :0.96966: L2-HR :0.80419: (Sim:0h31m36s) 
CPU  3 inst:   34000000 cyc:   40478069 now IPC :0.86699: AVG IPC :0.81027: L2-Pf-HR :0.96797: L2-HR :0.80466: (Sim:0h31m55s) 
CPU  2 inst:   34000000 cyc:   41231799 now IPC :0.57868: AVG IPC :0.79508: L2-Pf-HR :0.96868: L2-HR :0.80673: (Sim:0h32m25s) 
CPU  1 inst:   35000005 cyc:   41672838 now IPC :0.59903: AVG IPC :0.81103: L2-Pf-HR :0.96801: L2-HR :0.80751: (Sim:0h32m40s) 
CPU  0 inst:   35000005 cyc:   41808241 now IPC :0.55828: AVG IPC :0.80836: L2-Pf-HR :0.96983: L2-HR :0.80398: (Sim:0h32m45s) 
CPU  3 inst:   35000005 cyc:   41867664 now IPC :0.71964: AVG IPC :0.80719: L2-Pf-HR :0.96797: L2-HR :0.80437: (Sim:0h32m46s) 
CPU  1 inst:   36000005 cyc:   42906714 now IPC :0.81045: AVG IPC :0.81101: L2-Pf-HR :0.96815: L2-HR :0.80706: (Sim:0h33m21s) 
CPU  2 inst:   35000005 cyc:   43016147 now IPC :0.56043: AVG IPC :0.78511: L2-Pf-HR :0.96896: L2-HR :0.80658: (Sim:0h33m26s) 
CPU  0 inst:   36000005 cyc:   43564420 now IPC :0.56942: AVG IPC :0.79851: L2-Pf-HR :0.97005: L2-HR :0.80387: (Sim:0h33m48s) 
CPU  3 inst:   36000005 cyc:   43574596 now IPC :0.58585: AVG IPC :0.79832: L2-Pf-HR :0.96805: L2-HR :0.80419: (Sim:0h33m48s) 
CPU  1 inst:   37000004 cyc:   44149542 now IPC :0.80462: AVG IPC :0.81083: L2-Pf-HR :0.96821: L2-HR :0.80650: (Sim:0h34m12s) 
CPU  2 inst:   36000005 cyc:   44385488 now IPC :0.73028: AVG IPC :0.78338: L2-Pf-HR :0.96896: L2-HR :0.80627: (Sim:0h34m21s) 
CPU  0 inst:   37000004 cyc:   45171612 now IPC :0.62220: AVG IPC :0.79209: L2-Pf-HR :0.97012: L2-HR :0.80359: (Sim:0h34m53s) 
CPU  3 inst:   37000004 cyc:   45292304 now IPC :0.58217: AVG IPC :0.78994: L2-Pf-HR :0.96830: L2-HR :0.80396: (Sim:0h34m58s) 
CPU  2 inst:   37000004 cyc:   45555104 now IPC :0.85498: AVG IPC :0.78526: L2-Pf-HR :0.96912: L2-HR :0.80585: (Sim:0h35m9s) 
CPU  1 inst:   38000005 cyc:   45749697 now IPC :0.62494: AVG IPC :0.80418: L2-Pf-HR :0.96828: L2-HR :0.80603: (Sim:0h35m17s) 
CPU  0 inst:   38000005 cyc:   46461915 now IPC :0.77501: AVG IPC :0.79161: L2-Pf-HR :0.97001: L2-HR :0.80328: (Sim:0h35m49s) 
CPU  3 inst:   38000005 cyc:   46707975 now IPC :0.70638: AVG IPC :0.78735: L2-Pf-HR :0.96821: L2-HR :0.80363: (Sim:0h35m59s) 
CPU  2 inst:   38000005 cyc:   46878570 now IPC :0.75559: AVG IPC :0.78441: L2-Pf-HR :0.96906: L2-HR :0.80541: (Sim:0h36m7s) 
CPU  1 inst:   39000001 cyc:   47259244 now IPC :0.66245: AVG IPC :0.79956: L2-Pf-HR :0.96811: L2-HR :0.80566: (Sim:0h36m24s) 
CPU  0 inst:   39000003 cyc:   47809785 now IPC :0.74191: AVG IPC :0.79018: L2-Pf-HR :0.96988: L2-HR :0.80301: (Sim:0h36m48s) 
CPU  3 inst:   39000003 cyc:   48025637 now IPC :0.75892: AVG IPC :0.78655: L2-Pf-HR :0.96811: L2-HR :0.80326: (Sim:0h36m59s) 
CPU  2 inst:   39000003 cyc:   48281049 now IPC :0.71302: AVG IPC :0.78229: L2-Pf-HR :0.96897: L2-HR :0.80509: (Sim:0h37m12s) 
CPU  1 inst:   40000001 cyc:   48456762 now IPC :0.83506: AVG IPC :0.80046: L2-Pf-HR :0.96835: L2-HR :0.80571: (Sim:0h37m22s) 
CPU  0 inst:   40000001 cyc:   48791584 now IPC :1.01854: AVG IPC :0.79487: L2-Pf-HR :0.96996: L2-HR :0.80294: (Sim:0h37m39s) 
CPU  3 inst:   40000001 cyc:   49044106 now IPC :0.98186: AVG IPC :0.79069: L2-Pf-HR :0.96814: L2-HR :0.80310: (Sim:0h37m52s) 
CPU  2 inst:   40000001 cyc:   49359346 now IPC :0.92739: AVG IPC :0.78552: L2-Pf-HR :0.96900: L2-HR :0.80471: (Sim:0h38m9s) 
CPU  1 inst:   41000001 cyc:   49510495 now IPC :0.94901: AVG IPC :0.80368: L2-Pf-HR :0.96826: L2-HR :0.80539: (Sim:0h38m17s) 
CPU  0 inst:   41000001 cyc:   49769469 now IPC :1.02262: AVG IPC :0.79943: L2-Pf-HR :0.96981: L2-HR :0.80263: (Sim:0h38m30s) 
CPU  3 inst:   41000001 cyc:   50032129 now IPC :1.01212: AVG IPC :0.79515: L2-Pf-HR :0.96807: L2-HR :0.80280: (Sim:0h38m44s) 
CPU  2 inst:   41000001 cyc:   50442538 now IPC :0.92320: AVG IPC :0.78854: L2-Pf-HR :0.96903: L2-HR :0.80437: (Sim:0h39m5s) 
CPU  1 inst:   42000001 cyc:   50553565 now IPC :0.95871: AVG IPC :0.80694: L2-Pf-HR :0.96822: L2-HR :0.80513: (Sim:0h39m12s) 
CPU  0 inst:   42000001 cyc:   50815838 now IPC :0.95569: AVG IPC :0.80271: L2-Pf-HR :0.96974: L2-HR :0.80240: (Sim:0h39m27s) 
CPU  3 inst:   42000001 cyc:   51016501 now IPC :1.01588: AVG IPC :0.79949: L2-Pf-HR :0.96797: L2-HR :0.80252: (Sim:0h39m38s) 
CPU  1 inst:   43000005 cyc:   51516902 now IPC :1.03806: AVG IPC :0.81135: L2-Pf-HR :0.96831: L2-HR :0.80483: (Sim:0h40m7s) 
CPU  2 inst:   42000001 cyc:   51534262 now IPC :0.91598: AVG IPC :0.79129: L2-Pf-HR :0.96891: L2-HR :0.80417: (Sim:0h40m8s) 
CPU  0 inst:   43000005 cyc:   51885246 now IPC :0.93510: AVG IPC :0.80550: L2-Pf-HR :0.96985: L2-HR :0.80214: (Sim:0h40m28s) 
CPU  3 inst:   43000005 cyc:   51992333 now IPC :1.02477: AVG IPC :0.80380: L2-Pf-HR :0.96794: L2-HR :0.80222: (Sim:0h40m34s) 
CPU  1 inst:   44000000 cyc:   52474472 now IPC :1.04430: AVG IPC :0.81568: L2-Pf-HR :0.96830: L2-HR :0.80449: (Sim:0h41m1s) 
CPU  2 inst:   43000005 cyc:   52594406 now IPC :0.94327: AVG IPC :0.79441: L2-Pf-HR :0.96891: L2-HR :0.80392: (Sim:0h41m8s) 
CPU  0 inst:   44000000 cyc:   53028152 now IPC :0.87496: AVG IPC :0.80702: L2-Pf-HR :0.96978: L2-HR :0.80196: (Sim:0h41m32s) 
CPU  3 inst:   44000000 cyc:   53087715 now IPC :0.91292: AVG IPC :0.80610: L2-Pf-HR :0.96801: L2-HR :0.80204: (Sim:0h41m35s) 
CPU  1 inst:   45000003 cyc:   53587182 now IPC :0.89871: AVG IPC :0.81744: L2-Pf-HR :0.96795: L2-HR :0.80452: (Sim:0h42m3s) 
CPU  2 inst:   44000000 cyc:   53597078 now IPC :0.99733: AVG IPC :0.79828: L2-Pf-HR :0.96897: L2-HR :0.80368: (Sim:0h42m4s) 
CPU  0 inst:   45000003 cyc:   54332736 now IPC :0.76653: AVG IPC :0.80603: L2-Pf-HR :0.96955: L2-HR :0.80223: (Sim:0h42m41s) 
CPU  3 inst:   45000003 cyc:   54362899 now IPC :0.78420: AVG IPC :0.80558: L2-Pf-HR :0.96782: L2-HR :0.80215: (Sim:0h42m42s) 
CPU  1 inst:   46000000 cyc:   54717502 now IPC :0.88470: AVG IPC :0.81885: L2-Pf-HR :0.96792: L2-HR :0.80541: (Sim:0h43m1s) 
CPU  2 inst:   45000003 cyc:   54898583 now IPC :0.76834: AVG IPC :0.79756: L2-Pf-HR :0.96895: L2-HR :0.80398: (Sim:0h43m10s) 
CPU  0 inst:   46000000 cyc:   55629705 now IPC :0.77103: AVG IPC :0.80520: L2-Pf-HR :0.96946: L2-HR :0.80310: (Sim:0h43m48s) 
CPU  3 inst:   46000000 cyc:   55633546 now IPC :0.78700: AVG IPC :0.80514: L2-Pf-HR :0.96776: L2-HR :0.80291: (Sim:0h43m48s) 
CPU  1 inst:   47000000 cyc:   55775168 now IPC :0.94548: AVG IPC :0.82130: L2-Pf-HR :0.96775: L2-HR :0.80604: (Sim:0h43m55s) 
CPU  2 inst:   46000000 cyc:   55916674 now IPC :0.98223: AVG IPC :0.80098: L2-Pf-HR :0.96883: L2-HR :0.80473: (Sim:0h44m3s) 
CPU  0 inst:   47000000 cyc:   56895430 now IPC :0.79006: AVG IPC :0.80486: L2-Pf-HR :0.96946: L2-HR :0.80382: (Sim:0h44m51s) 
CPU  3 inst:   47000000 cyc:   57004626 now IPC :0.72935: AVG IPC :0.80329: L2-Pf-HR :0.96772: L2-HR :0.80368: (Sim:0h44m57s) 
CPU  1 inst:   48000001 cyc:   57074328 now IPC :0.76973: AVG IPC :0.82010: L2-Pf-HR :0.96778: L2-HR :0.80680: (Sim:0h45m0s) 
CPU  2 inst:   47000000 cyc:   57091332 now IPC :0.85131: AVG IPC :0.80204: L2-Pf-HR :0.96879: L2-HR :0.80547: (Sim:0h45m1s) 
CPU  0 inst:   48000001 cyc:   57957677 now IPC :0.94140: AVG IPC :0.80740: L2-Pf-HR :0.96939: L2-HR :0.80445: (Sim:0h45m31s) 
CPU  3 inst:   48000001 cyc:   58148044 now IPC :0.87457: AVG IPC :0.80471: L2-Pf-HR :0.96759: L2-HR :0.80431: (Sim:0h45m38s) 
CPU  2 inst:   48000001 cyc:   58258591 now IPC :0.85671: AVG IPC :0.80315: L2-Pf-HR :0.96877: L2-HR :0.80623: (Sim:0h45m42s) 
CPU  1 inst:   49000003 cyc:   58455853 now IPC :0.72384: AVG IPC :0.81779: L2-Pf-HR :0.96764: L2-HR :0.80636: (Sim:0h45m49s) 
CPU  0 inst:   49000003 cyc:   59322002 now IPC :0.73296: AVG IPC :0.80566: L2-Pf-HR :0.96925: L2-HR :0.80417: (Sim:0h46m13s) 
CPU  3 inst:   49000003 cyc:   59674925 now IPC :0.65493: AVG IPC :0.80082: L2-Pf-HR :0.96763: L2-HR :0.80397: (Sim:0h46m29s) 
CPU  2 inst:   49000003 cyc:   59774338 now IPC :0.65974: AVG IPC :0.79945: L2-Pf-HR :0.96867: L2-HR :0.80596: (Sim:0h46m34s) 
CPU  1 inst:   50000004 cyc:   59904621 now IPC :0.69024: AVG IPC :0.81465: L2-Pf-HR :0.96782: L2-HR :0.80619: (Sim:0h46m41s) 
CPU  0 inst:   50000004 cyc:   60455634 now IPC :0.88212: AVG IPC :0.80712: L2-Pf-HR :0.96938: L2-HR :0.80397: (Sim:0h47m8s) 
CPU  3 inst:   50000004 cyc:   61017542 now IPC :0.74481: AVG IPC :0.79957: L2-Pf-HR :0.96779: L2-HR :0.80381: (Sim:0h47m33s) 
CPU  2 inst:   50000004 cyc:   61150993 now IPC :0.72640: AVG IPC :0.79778: L2-Pf-HR :0.96873: L2-HR :0.80565: (Sim:0h47m36s) 
CPU  1 inst:   51000001 cyc:   61210941 now IPC :0.76551: AVG IPC :0.81359: L2-Pf-HR :0.96787: L2-HR :0.80580: (Sim:0h47m38s) 
CPU  0 inst:   51000005 cyc:   61610580 now IPC :0.86584: AVG IPC :0.80824: L2-Pf-HR :0.96943: L2-HR :0.80363: (Sim:0h47m54s) 
CPU  3 inst:   51000004 cyc:   62291163 now IPC :0.78516: AVG IPC :0.79927: L2-Pf-HR :0.96785: L2-HR :0.80348: (Sim:0h48m30s) 
CPU  1 inst:   52000003 cyc:   62414068 now IPC :0.83117: AVG IPC :0.81393: L2-Pf-HR :0.96788: L2-HR :0.80542: (Sim:0h48m36s) 
CPU  2 inst:   51000004 cyc:   62477241 now IPC :0.75401: AVG IPC :0.79684: L2-Pf-HR :0.96882: L2-HR :0.80537: (Sim:0h48m39s) 
CPU  0 inst:   52000003 cyc:   62884814 now IPC :0.78478: AVG IPC :0.80776: L2-Pf-HR :0.96940: L2-HR :0.80332: (Sim:0h49m1s) 
CPU  3 inst:   52000003 cyc:   63505328 now IPC :0.82361: AVG IPC :0.79974: L2-Pf-HR :0.96776: L2-HR :0.80312: (Sim:0h49m32s) 
CPU  1 inst:   53000000 cyc:   63628194 now IPC :0.82364: AVG IPC :0.81412: L2-Pf-HR :0.96787: L2-HR :0.80503: (Sim:0h49m38s) 
CPU  2 inst:   52000003 cyc:   63832366 now IPC :0.73794: AVG IPC :0.79557: L2-Pf-HR :0.96878: L2-HR :0.80504: (Sim:0h49m48s) 
CPU  0 inst:   53000004 cyc:   64201307 now IPC :0.75959: AVG IPC :0.80675: L2-Pf-HR :0.96936: L2-HR :0.80297: (Sim:0h50m7s) 
CPU  3 inst:   53000000 cyc:   64714604 now IPC :0.82694: AVG IPC :0.80025: L2-Pf-HR :0.96776: L2-HR :0.80276: (Sim:0h50m33s) 
CPU  1 inst:   54000002 cyc:   64801854 now IPC :0.85204: AVG IPC :0.81482: L2-Pf-HR :0.96790: L2-HR :0.80466: (Sim:0h50m37s) 
CPU  2 inst:   53000003 cyc:   65168154 now IPC :0.74862: AVG IPC :0.79459: L2-Pf-HR :0.96882: L2-HR :0.80469: (Sim:0h50m56s) 
CPU  0 inst:   54000002 cyc:   65535210 now IPC :0.74968: AVG IPC :0.80557: L2-Pf-HR :0.96934: L2-HR :0.80267: (Sim:0h51m14s) 
CPU  3 inst:   54000002 cyc:   65972932 now IPC :0.79471: AVG IPC :0.80015: L2-Pf-HR :0.96778: L2-HR :0.80249: (Sim:0h51m34s) 
CPU  1 inst:   55000005 cyc:   66189249 now IPC :0.72078: AVG IPC :0.81282: L2-Pf-HR :0.96783: L2-HR :0.80432: (Sim:0h51m44s) 
CPU  2 inst:   54000002 cyc:   66546917 now IPC :0.72529: AVG IPC :0.79313: L2-Pf-HR :0.96892: L2-HR :0.80446: (Sim:0h52m2s) 
CPU  0 inst:   55000005 cyc:   67013824 now IPC :0.67631: AVG IPC :0.80268: L2-Pf-HR :0.96921: L2-HR :0.80245: (Sim:0h52m25s) 
CPU  3 inst:   55000005 cyc:   67396845 now IPC :0.70229: AVG IPC :0.79805: L2-Pf-HR :0.96776: L2-HR :0.80224: (Sim:0h52m46s) 
CPU  1 inst:   56000000 cyc:   67502367 now IPC :0.76154: AVG IPC :0.81180: L2-Pf-HR :0.96800: L2-HR :0.80447: (Sim:0h52m51s) 
CPU  2 inst:   55000005 cyc:   67926787 now IPC :0.72471: AVG IPC :0.79172: L2-Pf-HR :0.96882: L2-HR :0.80422: (Sim:0h53m12s) 
CPU  0 inst:   56000004 cyc:   68246360 now IPC :0.81133: AVG IPC :0.80284: L2-Pf-HR :0.96937: L2-HR :0.80253: (Sim:0h53m29s) 
CPU  3 inst:   56000001 cyc:   68478068 now IPC :0.92487: AVG IPC :0.80008: L2-Pf-HR :0.96786: L2-HR :0.80225: (Sim:0h53m40s) 
CPU  1 inst:   57000004 cyc:   68756527 now IPC :0.79735: AVG IPC :0.81154: L2-Pf-HR :0.96804: L2-HR :0.80437: (Sim:0h53m54s) 
CPU  2 inst:   56000004 cyc:   69142721 now IPC :0.82241: AVG IPC :0.79227: L2-Pf-HR :0.96898: L2-HR :0.80423: (Sim:0h54m14s) 
CPU  0 inst:   57000003 cyc:   69461516 now IPC :0.82294: AVG IPC :0.80319: L2-Pf-HR :0.96937: L2-HR :0.80243: (Sim:0h54m30s) 
CPU  3 inst:   57000005 cyc:   69627979 now IPC :0.86964: AVG IPC :0.80125: L2-Pf-HR :0.96788: L2-HR :0.80209: (Sim:0h54m39s) 
CPU  1 inst:   58000005 cyc:   69988242 now IPC :0.81188: AVG IPC :0.81154: L2-Pf-HR :0.96803: L2-HR :0.80419: (Sim:0h54m57s) 
CPU  2 inst:   57000004 cyc:   70313455 now IPC :0.85417: AVG IPC :0.79331: L2-Pf-HR :0.96901: L2-HR :0.80407: (Sim:0h55m14s) 
CPU  0 inst:   58000005 cyc:   70546436 now IPC :0.92173: AVG IPC :0.80504: L2-Pf-HR :0.96935: L2-HR :0.80225: (Sim:0h55m25s) 
CPU  3 inst:   58000005 cyc:   70782172 now IPC :0.86641: AVG IPC :0.80232: L2-Pf-HR :0.96788: L2-HR :0.80196: (Sim:0h55m33s) 
CPU  1 inst:   59000003 cyc:   71140181 now IPC :0.86810: AVG IPC :0.81247: L2-Pf-HR :0.96804: L2-HR :0.80404: (Sim:0h55m48s) 
CPU  2 inst:   58000005 cyc:   71385838 now IPC :0.93250: AVG IPC :0.79543: L2-Pf-HR :0.96904: L2-HR :0.80386: (Sim:0h55m58s) 
CPU  0 inst:   59000003 cyc:   71616929 now IPC :0.93415: AVG IPC :0.80700: L2-Pf-HR :0.96937: L2-HR :0.80209: (Sim:0h56m10s) 
CPU  3 inst:   59000003 cyc:   71877724 now IPC :0.91278: AVG IPC :0.80403: L2-Pf-HR :0.96794: L2-HR :0.80183: (Sim:0h56m25s) 
CPU  1 inst:   60000003 cyc:   72235111 now IPC :0.91330: AVG IPC :0.81402: L2-Pf-HR :0.96805: L2-HR :0.80390: (Sim:0h56m45s) 
CPU  2 inst:   59000003 cyc:   72444064 now IPC :0.94498: AVG IPC :0.79765: L2-Pf-HR :0.96902: L2-HR :0.80364: (Sim:0h56m56s) 
CPU  0 inst:   60000003 cyc:   72671364 now IPC :0.94838: AVG IPC :0.80908: L2-Pf-HR :0.96936: L2-HR :0.80192: (Sim:0h57m9s) 
CPU  3 inst:   60000003 cyc:   72898529 now IPC :0.97962: AVG IPC :0.80652: L2-Pf-HR :0.96798: L2-HR :0.80170: (Sim:0h57m23s) 
CPU  1 inst:   61000000 cyc:   73378107 now IPC :0.87489: AVG IPC :0.81498: L2-Pf-HR :0.96789: L2-HR :0.80394: (Sim:0h57m48s) 
CPU  2 inst:   60000003 cyc:   73522770 now IPC :0.92704: AVG IPC :0.79957: L2-Pf-HR :0.96897: L2-HR :0.80345: (Sim:0h57m55s) 
CPU  0 inst:   61000002 cyc:   73941428 now IPC :0.78736: AVG IPC :0.80870: L2-Pf-HR :0.96921: L2-HR :0.80209: (Sim:0h58m16s) 
CPU  3 inst:   61000002 cyc:   74106675 now IPC :0.82771: AVG IPC :0.80687: L2-Pf-HR :0.96781: L2-HR :0.80175: (Sim:0h58m21s) 
CPU  1 inst:   62000000 cyc:   74641136 now IPC :0.79175: AVG IPC :0.81458: L2-Pf-HR :0.96792: L2-HR :0.80462: (Sim:0h58m39s) 
CPU  2 inst:   61000001 cyc:   74815167 now IPC :0.77375: AVG IPC :0.79912: L2-Pf-HR :0.96886: L2-HR :0.80352: (Sim:0h58m46s) 
CPU  0 inst:   62000000 cyc:   74988590 now IPC :0.95496: AVG IPC :0.81077: L2-Pf-HR :0.96919: L2-HR :0.80274: (Sim:0h58m53s) 
CPU  3 inst:   62000000 cyc:   75219282 now IPC :0.89879: AVG IPC :0.80825: L2-Pf-HR :0.96783: L2-HR :0.80236: (Sim:0h59m1s) 
CPU  1 inst:   63000005 cyc:   75718672 now IPC :0.92805: AVG IPC :0.81622: L2-Pf-HR :0.96786: L2-HR :0.80513: (Sim:0h59m27s) 
CPU  2 inst:   62000000 cyc:   75848488 now IPC :0.96775: AVG IPC :0.80145: L2-Pf-HR :0.96872: L2-HR :0.80399: (Sim:0h59m35s) 
CPU  0 inst:   63000005 cyc:   75980230 now IPC :1.00844: AVG IPC :0.81338: L2-Pf-HR :0.96910: L2-HR :0.80326: (Sim:0h59m42s) 
CPU  3 inst:   63000005 cyc:   76335346 now IPC :0.89601: AVG IPC :0.80955: L2-Pf-HR :0.96779: L2-HR :0.80294: (Sim:1h0m1s) 
CPU  1 inst:   64000005 cyc:   76807668 now IPC :0.91828: AVG IPC :0.81769: L2-Pf-HR :0.96777: L2-HR :0.80559: (Sim:1h0m27s) 
CPU  2 inst:   63000005 cyc:   76956994 now IPC :0.90212: AVG IPC :0.80292: L2-Pf-HR :0.96868: L2-HR :0.80453: (Sim:1h0m35s) 
CPU  0 inst:   64000005 cyc:   77026902 now IPC :0.95541: AVG IPC :0.81534: L2-Pf-HR :0.96899: L2-HR :0.80383: (Sim:1h0m39s) 
CPU  3 inst:   64000005 cyc:   77410752 now IPC :0.92988: AVG IPC :0.81124: L2-Pf-HR :0.96774: L2-HR :0.80349: (Sim:1h1m0s) 
CPU  1 inst:   65000000 cyc:   78120425 now IPC :0.76175: AVG IPC :0.81673: L2-Pf-HR :0.96762: L2-HR :0.80533: (Sim:1h1m33s) 
CPU  2 inst:   64000005 cyc:   78138317 now IPC :0.84651: AVG IPC :0.80359: L2-Pf-HR :0.96859: L2-HR :0.80507: (Sim:1h1m34s) 
CPU  0 inst:   65000000 cyc:   78329721 now IPC :0.76756: AVG IPC :0.81453: L2-Pf-HR :0.96882: L2-HR :0.80357: (Sim:1h1m44s) 
CPU  3 inst:   65000000 cyc:   78809521 now IPC :0.71491: AVG IPC :0.80951: L2-Pf-HR :0.96768: L2-HR :0.80340: (Sim:1h2m9s) 
CPU  1 inst:   66000001 cyc:   79286985 now IPC :0.85722: AVG IPC :0.81734: L2-Pf-HR :0.96774: L2-HR :0.80518: (Sim:1h2m33s) 
CPU  2 inst:   65000000 cyc:   79438347 now IPC :0.76921: AVG IPC :0.80302: L2-Pf-HR :0.96858: L2-HR :0.80499: (Sim:1h2m41s) 
CPU  0 inst:   66000001 cyc:   79503910 now IPC :0.85165: AVG IPC :0.81509: L2-Pf-HR :0.96891: L2-HR :0.80344: (Sim:1h2m44s) 
CPU  3 inst:   66000001 cyc:   79949790 now IPC :0.87699: AVG IPC :0.81049: L2-Pf-HR :0.96783: L2-HR :0.80326: (Sim:1h3m9s) 
CPU  1 inst:   67000005 cyc:   80398074 now IPC :0.90002: AVG IPC :0.81849: L2-Pf-HR :0.96776: L2-HR :0.80489: (Sim:1h3m33s) 
CPU  2 inst:   66000001 cyc:   80567603 now IPC :0.88554: AVG IPC :0.80419: L2-Pf-HR :0.96863: L2-HR :0.80477: (Sim:1h3m43s) 
CPU  0 inst:   67000005 cyc:   80618830 now IPC :0.89693: AVG IPC :0.81624: L2-Pf-HR :0.96888: L2-HR :0.80315: (Sim:1h3m46s) 
CPU  3 inst:   67000005 cyc:   81054398 now IPC :0.90530: AVG IPC :0.81179: L2-Pf-HR :0.96781: L2-HR :0.80294: (Sim:1h4m9s) 
CPU  1 inst:   68000000 cyc:   81509663 now IPC :0.89961: AVG IPC :0.81961: L2-Pf-HR :0.96779: L2-HR :0.80462: (Sim:1h4m34s) 
CPU  2 inst:   67000005 cyc:   81724492 now IPC :0.86439: AVG IPC :0.80505: L2-Pf-HR :0.96859: L2-HR :0.80444: (Sim:1h4m45s) 
CPU  0 inst:   68000000 cyc:   81767157 now IPC :0.87083: AVG IPC :0.81701: L2-Pf-HR :0.96887: L2-HR :0.80289: (Sim:1h4m47s) 
CPU  3 inst:   68000000 cyc:   82203075 now IPC :0.87056: AVG IPC :0.81263: L2-Pf-HR :0.96781: L2-HR :0.80270: (Sim:1h5m11s) 
CPU  1 inst:   69000000 cyc:   82659314 now IPC :0.86983: AVG IPC :0.82032: L2-Pf-HR :0.96791: L2-HR :0.80438: (Sim:1h5m36s) 
CPU  2 inst:   68000000 cyc:   82874092 now IPC :0.86986: AVG IPC :0.80596: L2-Pf-HR :0.96862: L2-HR :0.80420: (Sim:1h5m47s) 
CPU  0 inst:   69000000 cyc:   82892219 now IPC :0.88884: AVG IPC :0.81800: L2-Pf-HR :0.96884: L2-HR :0.80266: (Sim:1h5m48s) 
CPU  3 inst:   69000000 cyc:   83369263 now IPC :0.85749: AVG IPC :0.81326: L2-Pf-HR :0.96786: L2-HR :0.80243: (Sim:1h6m14s) 
CPU  1 inst:   70000001 cyc:   83820610 now IPC :0.86111: AVG IPC :0.82089: L2-Pf-HR :0.96799: L2-HR :0.80413: (Sim:1h6m39s) 
CPU  2 inst:   69000000 cyc:   84008655 now IPC :0.88140: AVG IPC :0.80699: L2-Pf-HR :0.96866: L2-HR :0.80393: (Sim:1h6m49s) 
CPU  0 inst:   70000005 cyc:   84042510 now IPC :0.86935: AVG IPC :0.81871: L2-Pf-HR :0.96882: L2-HR :0.80237: (Sim:1h6m51s) 
CPU  3 inst:   70000004 cyc:   84524365 now IPC :0.86573: AVG IPC :0.81399: L2-Pf-HR :0.96784: L2-HR :0.80211: (Sim:1h7m17s) 
CPU  1 inst:   71000003 cyc:   85169825 now IPC :0.74117: AVG IPC :0.81961: L2-Pf-HR :0.96787: L2-HR :0.80381: (Sim:1h7m48s) 
CPU  2 inst:   70000001 cyc:   85238170 now IPC :0.81333: AVG IPC :0.80708: L2-Pf-HR :0.96867: L2-HR :0.80369: (Sim:1h7m52s) 
CPU  0 inst:   71000003 cyc:   85386118 now IPC :0.74426: AVG IPC :0.81752: L2-Pf-HR :0.96863: L2-HR :0.80203: (Sim:1h8m0s) 
CPU  3 inst:   71000003 cyc:   85881797 now IPC :0.73668: AVG IPC :0.81275: L2-Pf-HR :0.96771: L2-HR :0.80181: (Sim:1h8m24s) 
CPU  1 inst:   72000003 cyc:   86357085 now IPC :0.84228: AVG IPC :0.81993: L2-Pf-HR :0.96807: L2-HR :0.80395: (Sim:1h8m48s) 
CPU  0 inst:   72000003 cyc:   86547177 now IPC :0.86128: AVG IPC :0.81812: L2-Pf-HR :0.96875: L2-HR :0.80211: (Sim:1h8m59s) 
CPU  2 inst:   71000003 cyc:   86600362 now IPC :0.73411: AVG IPC :0.80592: L2-Pf-HR :0.96855: L2-HR :0.80339: (Sim:1h9m2s) 
CPU  3 inst:   72000003 cyc:   87028547 now IPC :0.87203: AVG IPC :0.81354: L2-Pf-HR :0.96787: L2-HR :0.80192: (Sim:1h9m26s) 
CPU  1 inst:   73000005 cyc:   87437534 now IPC :0.92554: AVG IPC :0.82125: L2-Pf-HR :0.96815: L2-HR :0.80390: (Sim:1h9m43s) 
CPU  0 inst:   73000005 cyc:   87532978 now IPC :1.01441: AVG IPC :0.82035: L2-Pf-HR :0.96872: L2-HR :0.80197: (Sim:1h9m47s) 
CPU  2 inst:   72000003 cyc:   87613048 now IPC :0.98747: AVG IPC :0.80804: L2-Pf-HR :0.96869: L2-HR :0.80335: (Sim:1h9m50s) 
CPU  3 inst:   73000003 cyc:   88034374 now IPC :0.99421: AVG IPC :0.81563: L2-Pf-HR :0.96785: L2-HR :0.80180: (Sim:1h10m14s) 
CPU  1 inst:   74000000 cyc:   88525861 now IPC :0.91884: AVG IPC :0.82246: L2-Pf-HR :0.96812: L2-HR :0.80376: (Sim:1h10m43s) 
CPU  2 inst:   73000004 cyc:   88574917 now IPC :1.03964: AVG IPC :0.81059: L2-Pf-HR :0.96866: L2-HR :0.80317: (Sim:1h10m47s) 
CPU  0 inst:   74000005 cyc:   88577943 now IPC :0.95697: AVG IPC :0.82198: L2-Pf-HR :0.96872: L2-HR :0.80182: (Sim:1h10m47s) 
CPU  3 inst:   74000005 cyc:   89006481 now IPC :1.02870: AVG IPC :0.81798: L2-Pf-HR :0.96781: L2-HR :0.80166: (Sim:1h11m13s) 
CPU  2 inst:   74000005 cyc:   89575485 now IPC :0.99943: AVG IPC :0.81272: L2-Pf-HR :0.96864: L2-HR :0.80305: (Sim:1h11m47s) 
CPU  1 inst:   75000001 cyc:   89576167 now IPC :0.95210: AVG IPC :0.82400: L2-Pf-HR :0.96810: L2-HR :0.80367: (Sim:1h11m47s) 
CPU  0 inst:   75000001 cyc:   89627645 now IPC :0.95265: AVG IPC :0.82353: L2-Pf-HR :0.96870: L2-HR :0.80171: (Sim:1h11m50s) 
CPU  3 inst:   75000001 cyc:   89991419 now IPC :1.01529: AVG IPC :0.82016: L2-Pf-HR :0.96783: L2-HR :0.80152: (Sim:1h12m12s) 
CPU  1 inst:   76000001 cyc:   90598223 now IPC :0.97842: AVG IPC :0.82576: L2-Pf-HR :0.96815: L2-HR :0.80356: (Sim:1h12m48s) 
CPU  2 inst:   75000001 cyc:   90604734 now IPC :0.97158: AVG IPC :0.81454: L2-Pf-HR :0.96862: L2-HR :0.80287: (Sim:1h12m49s) 
CPU  0 inst:   76000001 cyc:   90684119 now IPC :0.94654: AVG IPC :0.82498: L2-Pf-HR :0.96875: L2-HR :0.80163: (Sim:1h12m53s) 
CPU  3 inst:   76000001 cyc:   90999746 now IPC :0.99174: AVG IPC :0.82209: L2-Pf-HR :0.96782: L2-HR :0.80137: (Sim:1h13m12s) 
CPU  2 inst:   76000001 cyc:   91703099 now IPC :0.91044: AVG IPC :0.81571: L2-Pf-HR :0.96861: L2-HR :0.80274: (Sim:1h13m51s) 
CPU  1 inst:   77000001 cyc:   91727756 now IPC :0.88532: AVG IPC :0.82650: L2-Pf-HR :0.96801: L2-HR :0.80350: (Sim:1h13m52s) 
CPU  0 inst:   77000003 cyc:   91831266 now IPC :0.87173: AVG IPC :0.82557: L2-Pf-HR :0.96862: L2-HR :0.80159: (Sim:1h13m59s) 
CPU  3 inst:   77000001 cyc:   92157692 now IPC :0.86360: AVG IPC :0.82261: L2-Pf-HR :0.96767: L2-HR :0.80134: (Sim:1h14m17s) 
CPU  1 inst:   78000004 cyc:   92883944 now IPC :0.86491: AVG IPC :0.82699: L2-Pf-HR :0.96806: L2-HR :0.80400: (Sim:1h14m55s) 
CPU  2 inst:   77000002 cyc:   92917613 now IPC :0.82338: AVG IPC :0.81581: L2-Pf-HR :0.96848: L2-HR :0.80269: (Sim:1h14m57s) 
CPU  0 inst:   78000001 cyc:   92926694 now IPC :0.91288: AVG IPC :0.82661: L2-Pf-HR :0.96856: L2-HR :0.80201: (Sim:1h14m57s) 
CPU  3 inst:   78000004 cyc:   93182460 now IPC :0.97583: AVG IPC :0.82432: L2-Pf-HR :0.96768: L2-HR :0.80184: (Sim:1h15m10s) 
CPU  2 inst:   78000004 cyc:   94186595 now IPC :0.78803: AVG IPC :0.81543: L2-Pf-HR :0.96854: L2-HR :0.80322: (Sim:1h15m52s) 
CPU  1 inst:   79000000 cyc:   94350314 now IPC :0.68195: AVG IPC :0.82471: L2-Pf-HR :0.96808: L2-HR :0.80455: (Sim:1h16m0s) 
CPU  0 inst:   79000000 cyc:   94361425 now IPC :0.69699: AVG IPC :0.82462: L2-Pf-HR :0.96860: L2-HR :0.80256: (Sim:1h16m0s) 
CPU  3 inst:   79000000 cyc:   94381570 now IPC :0.83395: AVG IPC :0.82444: L2-Pf-HR :0.96768: L2-HR :0.80233: (Sim:1h16m1s) 
CPU  2 inst:   79000000 cyc:   95182407 now IPC :1.00420: AVG IPC :0.81742: L2-Pf-HR :0.96856: L2-HR :0.80371: (Sim:1h16m33s) 
CPU  0 inst:   80000003 cyc:   95772845 now IPC :0.70851: AVG IPC :0.82289: L2-Pf-HR :0.96867: L2-HR :0.80308: (Sim:1h16m50s) 
CPU  1 inst:   80000003 cyc:   95912533 now IPC :0.64012: AVG IPC :0.82167: L2-Pf-HR :0.96822: L2-HR :0.80508: (Sim:1h16m55s) 
CPU  3 inst:   80000003 cyc:   95916683 now IPC :0.65142: AVG IPC :0.82164: L2-Pf-HR :0.96773: L2-HR :0.80279: (Sim:1h16m55s) 
CPU  2 inst:   80000003 cyc:   96632251 now IPC :0.68973: AVG IPC :0.81549: L2-Pf-HR :0.96858: L2-HR :0.80417: (Sim:1h17m19s) 
CPU  0 inst:   81000003 cyc:   96948514 now IPC :0.85058: AVG IPC :0.82323: L2-Pf-HR :0.96850: L2-HR :0.80292: (Sim:1h17m31s) 
CPU  3 inst:   81000003 cyc:   97467851 now IPC :0.64468: AVG IPC :0.81880: L2-Pf-HR :0.96768: L2-HR :0.80282: (Sim:1h17m56s) 
CPU  1 inst:   81000003 cyc:   97528774 now IPC :0.61872: AVG IPC :0.81827: L2-Pf-HR :0.96821: L2-HR :0.80514: (Sim:1h17m59s) 
CPU  2 inst:   81000003 cyc:   98071526 now IPC :0.69479: AVG IPC :0.81370: L2-Pf-HR :0.96852: L2-HR :0.80423: (Sim:1h18m25s) 
CPU  0 inst:   82000005 cyc:   98170233 now IPC :0.81852: AVG IPC :0.82317: L2-Pf-HR :0.96869: L2-HR :0.80295: (Sim:1h18m30s) 
CPU  3 inst:   82000003 cyc:   98739202 now IPC :0.78656: AVG IPC :0.81838: L2-Pf-HR :0.96786: L2-HR :0.80293: (Sim:1h18m59s) 
CPU  1 inst:   82000000 cyc:   98832071 now IPC :0.76728: AVG IPC :0.81759: L2-Pf-HR :0.96835: L2-HR :0.80521: (Sim:1h19m4s) 
CPU  2 inst:   82000005 cyc:   99278303 now IPC :0.82866: AVG IPC :0.81388: L2-Pf-HR :0.96864: L2-HR :0.80410: (Sim:1h19m24s) 
CPU  0 inst:   83000002 cyc:   99342672 now IPC :0.85292: AVG IPC :0.82352: L2-Pf-HR :0.96864: L2-HR :0.80273: (Sim:1h19m26s) 
CPU  3 inst:   83000002 cyc:  100006628 now IPC :0.78900: AVG IPC :0.81800: L2-Pf-HR :0.96794: L2-HR :0.80284: (Sim:1h19m49s) 
CPU  1 inst:   83000002 cyc:  100118917 now IPC :0.77710: AVG IPC :0.81707: L2-Pf-HR :0.96845: L2-HR :0.80516: (Sim:1h19m53s) 
CPU  2 inst:   83000002 cyc:  100463135 now IPC :0.84400: AVG IPC :0.81424: L2-Pf-HR :0.96862: L2-HR :0.80389: (Sim:1h20m6s) 
CPU  0 inst:   84000000 cyc:  100600495 now IPC :0.79502: AVG IPC :0.82316: L2-Pf-HR :0.96865: L2-HR :0.80253: (Sim:1h20m13s) 
CPU  3 inst:   84000000 cyc:  101168132 now IPC :0.86095: AVG IPC :0.81850: L2-Pf-HR :0.96792: L2-HR :0.80274: (Sim:1h20m41s) 
CPU  1 inst:   84000000 cyc:  101339489 now IPC :0.81929: AVG IPC :0.81709: L2-Pf-HR :0.96848: L2-HR :0.80513: (Sim:1h20m50s) 
CPU  2 inst:   84000000 cyc:  101702103 now IPC :0.80712: AVG IPC :0.81415: L2-Pf-HR :0.96858: L2-HR :0.80369: (Sim:1h21m8s) 
CPU  0 inst:   85000001 cyc:  101854295 now IPC :0.79758: AVG IPC :0.82285: L2-Pf-HR :0.96867: L2-HR :0.80233: (Sim:1h21m16s) 
CPU  3 inst:   85000001 cyc:  102292653 now IPC :0.88927: AVG IPC :0.81929: L2-Pf-HR :0.96797: L2-HR :0.80261: (Sim:1h21m39s) 
CPU  1 inst:   85000001 cyc:  102495447 now IPC :0.86508: AVG IPC :0.81764: L2-Pf-HR :0.96848: L2-HR :0.80501: (Sim:1h21m49s) 
CPU  2 inst:   85000001 cyc:  102913170 now IPC :0.82572: AVG IPC :0.81429: L2-Pf-HR :0.96863: L2-HR :0.80351: (Sim:1h22m11s) 
CPU  0 inst:   86000003 cyc:  103083103 now IPC :0.81380: AVG IPC :0.82274: L2-Pf-HR :0.96860: L2-HR :0.80212: (Sim:1h22m19s) 
CPU  3 inst:   86000002 cyc:  103449219 now IPC :0.86463: AVG IPC :0.81980: L2-Pf-HR :0.96802: L2-HR :0.80247: (Sim:1h22m38s) 
CPU  1 inst:   86000004 cyc:  103646748 now IPC :0.86859: AVG IPC :0.81821: L2-Pf-HR :0.96854: L2-HR :0.80494: (Sim:1h22m48s) 
CPU  2 inst:   86000004 cyc:  104184245 now IPC :0.78674: AVG IPC :0.81395: L2-Pf-HR :0.96862: L2-HR :0.80328: (Sim:1h23m15s) 
CPU  0 inst:   87000002 cyc:  104482315 now IPC :0.71469: AVG IPC :0.82128: L2-Pf-HR :0.96840: L2-HR :0.80180: (Sim:1h23m29s) 
CPU  3 inst:   87000002 cyc:  104828224 now IPC :0.72516: AVG IPC :0.81854: L2-Pf-HR :0.96796: L2-HR :0.80230: (Sim:1h23m44s) 
CPU  1 inst:   87000002 cyc:  105038937 now IPC :0.71829: AVG IPC :0.81687: L2-Pf-HR :0.96846: L2-HR :0.80475: (Sim:1h23m53s) 
CPU  2 inst:   87000002 cyc:  105732154 now IPC :0.64603: AVG IPC :0.81147: L2-Pf-HR :0.96847: L2-HR :0.80306: (Sim:1h24m28s) 
CPU  0 inst:   88000001 cyc:  105793761 now IPC :0.76252: AVG IPC :0.82054: L2-Pf-HR :0.96853: L2-HR :0.80191: (Sim:1h24m31s) 
CPU  3 inst:   88000001 cyc:  106025001 now IPC :0.83558: AVG IPC :0.81873: L2-Pf-HR :0.96810: L2-HR :0.80247: (Sim:1h24m43s) 
CPU  1 inst:   88000001 cyc:  106185612 now IPC :0.87209: AVG IPC :0.81748: L2-Pf-HR :0.96858: L2-HR :0.80479: (Sim:1h24m51s) 
CPU  0 inst:   89000001 cyc:  106815304 now IPC :0.97891: AVG IPC :0.82207: L2-Pf-HR :0.96853: L2-HR :0.80183: (Sim:1h25m23s) 
CPU  2 inst:   88000001 cyc:  106997399 now IPC :0.79036: AVG IPC :0.81122: L2-Pf-HR :0.96860: L2-HR :0.80313: (Sim:1h25m33s) 
CPU  3 inst:   89000001 cyc:  107179808 now IPC :0.86595: AVG IPC :0.81925: L2-Pf-HR :0.96812: L2-HR :0.80241: (Sim:1h25m43s) 
CPU  1 inst:   89000001 cyc:  107363782 now IPC :0.84877: AVG IPC :0.81782: L2-Pf-HR :0.96860: L2-HR :0.80469: (Sim:1h25m53s) 
CPU  0 inst:   90000002 cyc:  107836671 now IPC :0.97908: AVG IPC :0.82357: L2-Pf-HR :0.96852: L2-HR :0.80175: (Sim:1h26m18s) 
CPU  3 inst:   90000002 cyc:  108211384 now IPC :0.96939: AVG IPC :0.82069: L2-Pf-HR :0.96810: L2-HR :0.80234: (Sim:1h26m37s) 
CPU  2 inst:   89000001 cyc:  108219046 now IPC :0.81857: AVG IPC :0.81130: L2-Pf-HR :0.96864: L2-HR :0.80304: (Sim:1h26m37s) 
CPU  1 inst:   90000002 cyc:  108628426 now IPC :0.79074: AVG IPC :0.81751: L2-Pf-HR :0.96865: L2-HR :0.80462: (Sim:1h26m57s) 
CPU  0 inst:   91000002 cyc:  109048028 now IPC :0.82552: AVG IPC :0.82359: L2-Pf-HR :0.96854: L2-HR :0.80170: (Sim:1h27m19s) 
CPU  3 inst:   91000002 cyc:  109231759 now IPC :0.98003: AVG IPC :0.82219: L2-Pf-HR :0.96812: L2-HR :0.80228: (Sim:1h27m28s) 
CPU  2 inst:   90000002 cyc:  109430888 now IPC :0.82519: AVG IPC :0.81146: L2-Pf-HR :0.96867: L2-HR :0.80294: (Sim:1h27m38s) 
CPU  1 inst:   91000002 cyc:  109989327 now IPC :0.73481: AVG IPC :0.81647: L2-Pf-HR :0.96871: L2-HR :0.80460: (Sim:1h28m5s) 
CPU  0 inst:   92000005 cyc:  110396889 now IPC :0.74137: AVG IPC :0.82258: L2-Pf-HR :0.96859: L2-HR :0.80167: (Sim:1h28m25s) 
CPU  2 inst:   91000002 cyc:  110431107 now IPC :0.99978: AVG IPC :0.81318: L2-Pf-HR :0.96869: L2-HR :0.80287: (Sim:1h28m27s) 
CPU  3 inst:   92000005 cyc:  110483444 now IPC :0.79893: AVG IPC :0.82193: L2-Pf-HR :0.96813: L2-HR :0.80225: (Sim:1h28m29s) 
CPU  1 inst:   92000005 cyc:  111402141 now IPC :0.70781: AVG IPC :0.81508: L2-Pf-HR :0.96877: L2-HR :0.80457: (Sim:1h29m11s) 
CPU  2 inst:   92000005 cyc:  111582194 now IPC :0.86875: AVG IPC :0.81376: L2-Pf-HR :0.96870: L2-HR :0.80277: (Sim:1h29m19s) 
CPU  0 inst:   93000001 cyc:  111990176 now IPC :0.62763: AVG IPC :0.81978: L2-Pf-HR :0.96851: L2-HR :0.80157: (Sim:1h29m39s) 
CPU  3 inst:   93000001 cyc:  112041017 now IPC :0.64202: AVG IPC :0.81941: L2-Pf-HR :0.96794: L2-HR :0.80217: (Sim:1h29m41s) 
CPU  1 inst:   93000001 cyc:  112623447 now IPC :0.81879: AVG IPC :0.81512: L2-Pf-HR :0.96867: L2-HR :0.80443: (Sim:1h30m9s) 
CPU  2 inst:   93000001 cyc:  112928407 now IPC :0.74282: AVG IPC :0.81290: L2-Pf-HR :0.96861: L2-HR :0.80265: (Sim:1h30m22s) 
CPU  0 inst:   94000005 cyc:  113396559 now IPC :0.71105: AVG IPC :0.81842: L2-Pf-HR :0.96854: L2-HR :0.80208: (Sim:1h30m44s) 
CPU  3 inst:   94000002 cyc:  113448944 now IPC :0.71026: AVG IPC :0.81804: L2-Pf-HR :0.96796: L2-HR :0.80250: (Sim:1h30m47s) 
CPU  1 inst:   94000005 cyc:  113885659 now IPC :0.79226: AVG IPC :0.81487: L2-Pf-HR :0.96871: L2-HR :0.80493: (Sim:1h31m9s) 
CPU  2 inst:   94000005 cyc:  114091514 now IPC :0.85977: AVG IPC :0.81339: L2-Pf-HR :0.96865: L2-HR :0.80310: (Sim:1h31m19s) 
CPU  0 inst:   95000000 cyc:  114558941 now IPC :0.86030: AVG IPC :0.81885: L2-Pf-HR :0.96855: L2-HR :0.80246: (Sim:1h31m44s) 
CPU  3 inst:   95000002 cyc:  114677262 now IPC :0.81412: AVG IPC :0.81800: L2-Pf-HR :0.96794: L2-HR :0.80273: (Sim:1h31m51s) 
CPU  1 inst:   95000000 cyc:  114857120 now IPC :1.02937: AVG IPC :0.81670: L2-Pf-HR :0.96864: L2-HR :0.80525: (Sim:1h32m0s) 
CPU  2 inst:   95000000 cyc:  115217196 now IPC :0.88835: AVG IPC :0.81412: L2-Pf-HR :0.96862: L2-HR :0.80351: (Sim:1h32m20s) 
CPU  0 inst:   96000000 cyc:  115540171 now IPC :1.01913: AVG IPC :0.82056: L2-Pf-HR :0.96844: L2-HR :0.80268: (Sim:1h32m37s) 
CPU  3 inst:   96000002 cyc:  115901093 now IPC :0.81711: AVG IPC :0.81799: L2-Pf-HR :0.96788: L2-HR :0.80290: (Sim:1h32m56s) 
CPU  1 inst:   96000003 cyc:  115929706 now IPC :0.93233: AVG IPC :0.81778: L2-Pf-HR :0.96855: L2-HR :0.80553: (Sim:1h32m58s) 
CPU  2 inst:   96000000 cyc:  116288720 now IPC :0.93325: AVG IPC :0.81523: L2-Pf-HR :0.96852: L2-HR :0.80384: (Sim:1h33m17s) 
CPU  0 inst:   97000001 cyc:  116758185 now IPC :0.82101: AVG IPC :0.82057: L2-Pf-HR :0.96830: L2-HR :0.80260: (Sim:1h33m40s) 
CPU  3 inst:   97000001 cyc:  117277884 now IPC :0.72633: AVG IPC :0.81690: L2-Pf-HR :0.96779: L2-HR :0.80272: (Sim:1h34m7s) 
CPU  1 inst:   97000001 cyc:  117332720 now IPC :0.71275: AVG IPC :0.81651: L2-Pf-HR :0.96841: L2-HR :0.80553: (Sim:1h34m10s) 
CPU  2 inst:   97000001 cyc:  117626359 now IPC :0.74759: AVG IPC :0.81446: L2-Pf-HR :0.96838: L2-HR :0.80387: (Sim:1h34m19s) 
CPU  0 inst:   98000000 cyc:  118042841 now IPC :0.77842: AVG IPC :0.82011: L2-Pf-HR :0.96851: L2-HR :0.80269: (Sim:1h34m38s) 
CPU  3 inst:   98000000 cyc:  118624444 now IPC :0.74263: AVG IPC :0.81605: L2-Pf-HR :0.96791: L2-HR :0.80277: (Sim:1h35m3s) 
CPU  1 inst:   98000000 cyc:  118664492 now IPC :0.75088: AVG IPC :0.81577: L2-Pf-HR :0.96855: L2-HR :0.80559: (Sim:1h35m4s) 
CPU  2 inst:   98000000 cyc:  118944808 now IPC :0.75847: AVG IPC :0.81383: L2-Pf-HR :0.96851: L2-HR :0.80387: (Sim:1h35m18s) 
CPU  0 inst:   99000001 cyc:  119331978 now IPC :0.77571: AVG IPC :0.81962: L2-Pf-HR :0.96854: L2-HR :0.80258: (Sim:1h35m37s) 
CPU  3 inst:   99000001 cyc:  119954116 now IPC :0.75207: AVG IPC :0.81534: L2-Pf-HR :0.96789: L2-HR :0.80266: (Sim:1h36m8s) 
CPU  1 inst:   99000000 cyc:  120013912 now IPC :0.74106: AVG IPC :0.81492: L2-Pf-HR :0.96858: L2-HR :0.80553: (Sim:1h36m10s) 
CPU  2 inst:   99000000 cyc:  120277883 now IPC :0.75015: AVG IPC :0.81312: L2-Pf-HR :0.96854: L2-HR :0.80371: (Sim:1h36m23s) 
CPU  0 inst:  100000003 cyc:  120669532 now IPC :0.74763: AVG IPC :0.81882: L2-Pf-HR :0.96862: L2-HR :0.80247: (Sim:1h36m42s) 
CPU  3 inst:  100000003 cyc:  121325911 now IPC :0.72897: AVG IPC :0.81435: L2-Pf-HR :0.96791: L2-HR :0.80257: (Sim:1h37m14s) 
CPU  1 inst:  100000003 cyc:  121373441 now IPC :0.73555: AVG IPC :0.81402: L2-Pf-HR :0.96856: L2-HR :0.80549: (Sim:1h37m16s) 
CPU  2 inst:  100000003 cyc:  121636252 now IPC :0.73618: AVG IPC :0.81225: L2-Pf-HR :0.96858: L2-HR :0.80360: (Sim:1h37m29s) 
CPU  0 inst:  101000000 cyc:  122027448 now IPC :0.73642: AVG IPC :0.81789: L2-Pf-HR :0.96861: L2-HR :0.80234: (Sim:1h37m47s) 
CPU  3 inst:  101000000 cyc:  122683537 now IPC :0.73658: AVG IPC :0.81348: L2-Pf-HR :0.96799: L2-HR :0.80251: (Sim:1h38m19s) 
CPU  1 inst:  101000000 cyc:  122750131 now IPC :0.72638: AVG IPC :0.81303: L2-Pf-HR :0.96858: L2-HR :0.80543: (Sim:1h38m22s) 
CPU  2 inst:  101000000 cyc:  122980869 now IPC :0.74370: AVG IPC :0.81150: L2-Pf-HR :0.96862: L2-HR :0.80347: (Sim:1h38m34s) 
CPU  0 inst:  102000002 cyc:  123344251 now IPC :0.75942: AVG IPC :0.81726: L2-Pf-HR :0.96862: L2-HR :0.80220: (Sim:1h38m51s) 
CPU  3 inst:  102000002 cyc:  123980474 now IPC :0.77105: AVG IPC :0.81304: L2-Pf-HR :0.96799: L2-HR :0.80240: (Sim:1h39m23s) 
CPU  1 inst:  102000002 cyc:  124072082 now IPC :0.75646: AVG IPC :0.81243: L2-Pf-HR :0.96860: L2-HR :0.80539: (Sim:1h39m27s) 
CPU  2 inst:  102000002 cyc:  124333255 now IPC :0.73944: AVG IPC :0.81071: L2-Pf-HR :0.96864: L2-HR :0.80337: (Sim:1h39m40s) 
CPU  0 inst:  103000001 cyc:  124685295 now IPC :0.74569: AVG IPC :0.81649: L2-Pf-HR :0.96858: L2-HR :0.80213: (Sim:1h39m58s) 
CPU  3 inst:  103000001 cyc:  125319540 now IPC :0.74679: AVG IPC :0.81232: L2-Pf-HR :0.96800: L2-HR :0.80238: (Sim:1h40m28s) 
CPU  1 inst:  103000001 cyc:  125431413 now IPC :0.73566: AVG IPC :0.81159: L2-Pf-HR :0.96858: L2-HR :0.80543: (Sim:1h40m34s) 
CPU  2 inst:  103000001 cyc:  125692350 now IPC :0.73578: AVG IPC :0.80989: L2-Pf-HR :0.96861: L2-HR :0.80330: (Sim:1h40m45s) 
CPU  0 inst:  104000002 cyc:  126109148 now IPC :0.70232: AVG IPC :0.81519: L2-Pf-HR :0.96868: L2-HR :0.80208: (Sim:1h41m5s) 
CPU  3 inst:  104000005 cyc:  126616788 now IPC :0.77087: AVG IPC :0.81190: L2-Pf-HR :0.96804: L2-HR :0.80227: (Sim:1h41m33s) 
CPU  1 inst:  104000002 cyc:  126764208 now IPC :0.75030: AVG IPC :0.81094: L2-Pf-HR :0.96860: L2-HR :0.80525: (Sim:1h41m41s) 
CPU  2 inst:  104000005 cyc:  126994447 now IPC :0.76799: AVG IPC :0.80946: L2-Pf-HR :0.96861: L2-HR :0.80316: (Sim:1h41m50s) 
CPU  0 inst:  105000002 cyc:  127202496 now IPC :0.91462: AVG IPC :0.81605: L2-Pf-HR :0.96870: L2-HR :0.80202: (Sim:1h41m57s) 
CPU  3 inst:  105000002 cyc:  127601522 now IPC :1.01550: AVG IPC :0.81348: L2-Pf-HR :0.96803: L2-HR :0.80217: (Sim:1h42m12s) 
CPU  1 inst:  105000002 cyc:  127780519 now IPC :0.98395: AVG IPC :0.81232: L2-Pf-HR :0.96856: L2-HR :0.80508: (Sim:1h42m19s) 
CPU  2 inst:  105000002 cyc:  128085293 now IPC :0.91672: AVG IPC :0.81038: L2-Pf-HR :0.96862: L2-HR :0.80305: (Sim:1h42m35s) 
CPU  0 inst:  106000002 cyc:  128281110 now IPC :0.92712: AVG IPC :0.81699: L2-Pf-HR :0.96871: L2-HR :0.80192: (Sim:1h42m45s) 
CPU  3 inst:  106000002 cyc:  128596417 now IPC :1.00513: AVG IPC :0.81497: L2-Pf-HR :0.96801: L2-HR :0.80210: (Sim:1h43m3s) 
CPU  1 inst:  106000002 cyc:  128773602 now IPC :1.00697: AVG IPC :0.81384: L2-Pf-HR :0.96856: L2-HR :0.80497: (Sim:1h43m14s) 
CPU  2 inst:  106000002 cyc:  129169231 now IPC :0.92256: AVG IPC :0.81133: L2-Pf-HR :0.96865: L2-HR :0.80297: (Sim:1h43m34s) 
CPU  0 inst:  107000002 cyc:  129289620 now IPC :0.99156: AVG IPC :0.81836: L2-Pf-HR :0.96873: L2-HR :0.80183: (Sim:1h43m38s) 
CPU  3 inst:  107000002 cyc:  129580212 now IPC :1.01647: AVG IPC :0.81652: L2-Pf-HR :0.96799: L2-HR :0.80200: (Sim:1h43m49s) 
CPU  1 inst:  107000005 cyc:  129734798 now IPC :1.04037: AVG IPC :0.81553: L2-Pf-HR :0.96854: L2-HR :0.80484: (Sim:1h43m55s) 
CPU  2 inst:  107000005 cyc:  130246769 now IPC :0.92804: AVG IPC :0.81230: L2-Pf-HR :0.96867: L2-HR :0.80288: (Sim:1h44m15s) 
CPU  0 inst:  108000000 cyc:  130281892 now IPC :1.00779: AVG IPC :0.81982: L2-Pf-HR :0.96870: L2-HR :0.80174: (Sim:1h44m16s) 
CPU  3 inst:  108000000 cyc:  130631010 now IPC :0.95166: AVG IPC :0.81761: L2-Pf-HR :0.96800: L2-HR :0.80192: (Sim:1h44m30s) 
CPU  1 inst:  108000000 cyc:  130724997 now IPC :1.00989: AVG IPC :0.81701: L2-Pf-HR :0.96853: L2-HR :0.80470: (Sim:1h44m35s) 
CPU  0 inst:  109000001 cyc:  131246042 now IPC :1.03718: AVG IPC :0.82143: L2-Pf-HR :0.96868: L2-HR :0.80168: (Sim:1h45m2s) 
CPU  2 inst:  108000000 cyc:  131335250 now IPC :0.91871: AVG IPC :0.81319: L2-Pf-HR :0.96870: L2-HR :0.80279: (Sim:1h45m6s) 
CPU  3 inst:  109000001 cyc:  131769827 now IPC :0.87811: AVG IPC :0.81814: L2-Pf-HR :0.96803: L2-HR :0.80192: (Sim:1h45m30s) 
CPU  1 inst:  109000005 cyc:  131863852 now IPC :0.87808: AVG IPC :0.81754: L2-Pf-HR :0.96853: L2-HR :0.80465: (Sim:1h45m34s) 
CPU  2 inst:  109000001 cyc:  132391399 now IPC :0.94684: AVG IPC :0.81426: L2-Pf-HR :0.96868: L2-HR :0.80281: (Sim:1h46m0s) 
CPU  0 inst:  110000003 cyc:  132560583 now IPC :0.76072: AVG IPC :0.82082: L2-Pf-HR :0.96859: L2-HR :0.80196: (Sim:1h46m8s) 
CPU  3 inst:  110000003 cyc:  133252831 now IPC :0.67431: AVG IPC :0.81652: L2-Pf-HR :0.96796: L2-HR :0.80210: (Sim:1h46m41s) 
CPU  1 inst:  110000003 cyc:  133265388 now IPC :0.71350: AVG IPC :0.81644: L2-Pf-HR :0.96846: L2-HR :0.80489: (Sim:1h46m42s) 
CPU  2 inst:  110000003 cyc:  133539757 now IPC :0.87081: AVG IPC :0.81475: L2-Pf-HR :0.96861: L2-HR :0.80305: (Sim:1h46m56s) 
CPU  0 inst:  111000000 cyc:  133911974 now IPC :0.73998: AVG IPC :0.82000: L2-Pf-HR :0.96862: L2-HR :0.80232: (Sim:1h47m13s) 
CPU  1 inst:  111000000 cyc:  134717831 now IPC :0.68849: AVG IPC :0.81505: L2-Pf-HR :0.96845: L2-HR :0.80524: (Sim:1h47m51s) 
CPU  3 inst:  111000000 cyc:  134751740 now IPC :0.66715: AVG IPC :0.81485: L2-Pf-HR :0.96798: L2-HR :0.80237: (Sim:1h47m53s) 
CPU  2 inst:  111000000 cyc:  134774792 now IPC :0.80969: AVG IPC :0.81471: L2-Pf-HR :0.96859: L2-HR :0.80336: (Sim:1h47m54s) 
CPU  0 inst:  112000000 cyc:  135011291 now IPC :0.90966: AVG IPC :0.82073: L2-Pf-HR :0.96863: L2-HR :0.80268: (Sim:1h48m6s) 
CPU  1 inst:  112000000 cyc:  135858593 now IPC :0.87661: AVG IPC :0.81557: L2-Pf-HR :0.96843: L2-HR :0.80558: (Sim:1h48m49s) 
CPU  2 inst:  112000003 cyc:  136129332 now IPC :0.73826: AVG IPC :0.81394: L2-Pf-HR :0.96860: L2-HR :0.80375: (Sim:1h49m2s) 
CPU  3 inst:  112000005 cyc:  136154519 now IPC :0.71287: AVG IPC :0.81379: L2-Pf-HR :0.96796: L2-HR :0.80264: (Sim:1h49m4s) 
CPU  0 inst:  113000000 cyc:  136216772 now IPC :0.82954: AVG IPC :0.82081: L2-Pf-HR :0.96859: L2-HR :0.80302: (Sim:1h49m7s) 
CPU  1 inst:  113000000 cyc:  136942037 now IPC :0.92298: AVG IPC :0.81643: L2-Pf-HR :0.96840: L2-HR :0.80590: (Sim:1h49m42s) 
CPU  2 inst:  113000000 cyc:  137422888 now IPC :0.77306: AVG IPC :0.81355: L2-Pf-HR :0.96854: L2-HR :0.80414: (Sim:1h50m6s) 
CPU  3 inst:  113000000 cyc:  137460195 now IPC :0.76588: AVG IPC :0.81333: L2-Pf-HR :0.96794: L2-HR :0.80292: (Sim:1h50m8s) 
CPU  0 inst:  114000001 cyc:  137545142 now IPC :0.75280: AVG IPC :0.82015: L2-Pf-HR :0.96859: L2-HR :0.80269: (Sim:1h50m12s) 
CPU  1 inst:  114000001 cyc:  138320977 now IPC :0.72520: AVG IPC :0.81551: L2-Pf-HR :0.96841: L2-HR :0.80554: (Sim:1h50m49s) 
CPU  0 inst:  115000004 cyc:  138801688 now IPC :0.79583: AVG IPC :0.81993: L2-Pf-HR :0.96861: L2-HR :0.80262: (Sim:1h51m12s) 
CPU  2 inst:  114000001 cyc:  138945304 now IPC :0.65685: AVG IPC :0.81182: L2-Pf-HR :0.96853: L2-HR :0.80383: (Sim:1h51m19s) 
CPU  3 inst:  114000001 cyc:  138959406 now IPC :0.66702: AVG IPC :0.81174: L2-Pf-HR :0.96793: L2-HR :0.80258: (Sim:1h51m20s) 
CPU  1 inst:  115000004 cyc:  139532652 now IPC :0.82531: AVG IPC :0.81560: L2-Pf-HR :0.96843: L2-HR :0.80538: (Sim:1h51m48s) 
CPU  0 inst:  116000001 cyc:  140002446 now IPC :0.83280: AVG IPC :0.82004: L2-Pf-HR :0.96862: L2-HR :0.80245: (Sim:1h52m10s) 
CPU  2 inst:  115000004 cyc:  140397775 now IPC :0.68848: AVG IPC :0.81054: L2-Pf-HR :0.96852: L2-HR :0.80374: (Sim:1h52m28s) 
CPU  3 inst:  115000004 cyc:  140419957 now IPC :0.68468: AVG IPC :0.81041: L2-Pf-HR :0.96800: L2-HR :0.80252: (Sim:1h52m29s) 
CPU  1 inst:  116000001 cyc:  141010727 now IPC :0.67655: AVG IPC :0.81413: L2-Pf-HR :0.96844: L2-HR :0.80524: (Sim:1h52m57s) 
CPU  0 inst:  117000001 cyc:  141390392 now IPC :0.72049: AVG IPC :0.81906: L2-Pf-HR :0.96860: L2-HR :0.80230: (Sim:1h53m14s) 
CPU  2 inst:  116000001 cyc:  141726948 now IPC :0.75235: AVG IPC :0.80999: L2-Pf-HR :0.96850: L2-HR :0.80366: (Sim:1h53m30s) 
CPU  3 inst:  116000001 cyc:  141833158 now IPC :0.70761: AVG IPC :0.80938: L2-Pf-HR :0.96804: L2-HR :0.80246: (Sim:1h53m35s) 
CPU  1 inst:  117000001 cyc:  142387977 now IPC :0.72608: AVG IPC :0.81327: L2-Pf-HR :0.96843: L2-HR :0.80510: (Sim:1h54m3s) 
CPU  0 inst:  118000001 cyc:  142745096 now IPC :0.73817: AVG IPC :0.81828: L2-Pf-HR :0.96859: L2-HR :0.80217: (Sim:1h54m21s) 
CPU  2 inst:  117000001 cyc:  142926695 now IPC :0.83351: AVG IPC :0.81019: L2-Pf-HR :0.96851: L2-HR :0.80358: (Sim:1h54m29s) 
CPU  3 inst:  117000001 cyc:  143051956 now IPC :0.82048: AVG IPC :0.80948: L2-Pf-HR :0.96807: L2-HR :0.80238: (Sim:1h54m35s) 
CPU  1 inst:  118000001 cyc:  143732118 now IPC :0.74397: AVG IPC :0.81262: L2-Pf-HR :0.96843: L2-HR :0.80495: (Sim:1h55m10s) 
CPU  0 inst:  119000003 cyc:  144077608 now IPC :0.75046: AVG IPC :0.81765: L2-Pf-HR :0.96861: L2-HR :0.80207: (Sim:1h55m27s) 
CPU  2 inst:  118000001 cyc:  144170513 now IPC :0.80398: AVG IPC :0.81013: L2-Pf-HR :0.96854: L2-HR :0.80349: (Sim:1h55m33s) 
CPU  3 inst:  118000000 cyc:  144279119 now IPC :0.81489: AVG IPC :0.80952: L2-Pf-HR :0.96807: L2-HR :0.80228: (Sim:1h55m38s) 
CPU  1 inst:  119000003 cyc:  145027531 now IPC :0.77196: AVG IPC :0.81225: L2-Pf-HR :0.96841: L2-HR :0.80482: (Sim:1h56m17s) 
CPU  0 inst:  120000000 cyc:  145423715 now IPC :0.74288: AVG IPC :0.81695: L2-Pf-HR :0.96857: L2-HR :0.80200: (Sim:1h56m37s) 
CPU  2 inst:  119000003 cyc:  145477693 now IPC :0.76501: AVG IPC :0.80972: L2-Pf-HR :0.96856: L2-HR :0.80343: (Sim:1h56m39s) 
CPU  3 inst:  119000003 cyc:  145580264 now IPC :0.76856: AVG IPC :0.80915: L2-Pf-HR :0.96809: L2-HR :0.80222: (Sim:1h56m45s) 
CPU  1 inst:  120000000 cyc:  146426886 now IPC :0.71461: AVG IPC :0.81131: L2-Pf-HR :0.96840: L2-HR :0.80479: (Sim:1h57m26s) 
CPU  0 inst:  121000000 cyc:  146616098 now IPC :0.83866: AVG IPC :0.81713: L2-Pf-HR :0.96858: L2-HR :0.80200: (Sim:1h57m33s) 
CPU  2 inst:  120000000 cyc:  146740551 now IPC :0.79185: AVG IPC :0.80957: L2-Pf-HR :0.96859: L2-HR :0.80335: (Sim:1h57m38s) 
CPU  3 inst:  120000000 cyc:  146843216 now IPC :0.79179: AVG IPC :0.80900: L2-Pf-HR :0.96806: L2-HR :0.80214: (Sim:1h57m41s) 
CPU  1 inst:  121000000 cyc:  147502585 now IPC :0.92963: AVG IPC :0.81218: L2-Pf-HR :0.96839: L2-HR :0.80471: (Sim:1h58m9s) 
CPU  0 inst:  122000001 cyc:  147657173 now IPC :0.96055: AVG IPC :0.81815: L2-Pf-HR :0.96859: L2-HR :0.80193: (Sim:1h58m18s) 
CPU  2 inst:  121000000 cyc:  147838892 now IPC :0.91046: AVG IPC :0.81032: L2-Pf-HR :0.96856: L2-HR :0.80326: (Sim:1h58m26s) 
CPU  3 inst:  121000000 cyc:  147901888 now IPC :0.94458: AVG IPC :0.80998: L2-Pf-HR :0.96804: L2-HR :0.80210: (Sim:1h58m29s) 
CPU  1 inst:  122000004 cyc:  148529324 now IPC :0.97396: AVG IPC :0.81331: L2-Pf-HR :0.96840: L2-HR :0.80462: (Sim:1h58m53s) 
CPU  0 inst:  123000003 cyc:  148752338 now IPC :0.91311: AVG IPC :0.81885: L2-Pf-HR :0.96860: L2-HR :0.80187: (Sim:1h59m5s) 
CPU  2 inst:  122000001 cyc:  148890287 now IPC :0.95112: AVG IPC :0.81132: L2-Pf-HR :0.96857: L2-HR :0.80320: (Sim:1h59m13s) 
CPU  3 inst:  122000001 cyc:  148960692 now IPC :0.94446: AVG IPC :0.81094: L2-Pf-HR :0.96806: L2-HR :0.80208: (Sim:1h59m17s) 
CPU  1 inst:  123000003 cyc:  149611670 now IPC :0.92392: AVG IPC :0.81411: L2-Pf-HR :0.96839: L2-HR :0.80454: (Sim:1h59m54s) 
CPU  0 inst:  124000002 cyc:  149781728 now IPC :0.97145: AVG IPC :0.81991: L2-Pf-HR :0.96862: L2-HR :0.80181: (Sim:2h0m4s) 
CPU  2 inst:  123000003 cyc:  149963300 now IPC :0.93196: AVG IPC :0.81219: L2-Pf-HR :0.96855: L2-HR :0.80312: (Sim:2h0m14s) 
CPU  3 inst:  123000003 cyc:  150016735 now IPC :0.94693: AVG IPC :0.81191: L2-Pf-HR :0.96808: L2-HR :0.80204: (Sim:2h0m17s) 
CPU  1 inst:  124000003 cyc:  150653060 now IPC :0.96026: AVG IPC :0.81513: L2-Pf-HR :0.96839: L2-HR :0.80445: (Sim:2h0m53s) 
CPU  0 inst:  125000004 cyc:  150812071 now IPC :0.97055: AVG IPC :0.82095: L2-Pf-HR :0.96859: L2-HR :0.80174: (Sim:2h1m2s) 
CPU  2 inst:  124000002 cyc:  151043982 now IPC :0.92534: AVG IPC :0.81301: L2-Pf-HR :0.96855: L2-HR :0.80306: (Sim:2h1m15s) 
CPU  3 inst:  124000000 cyc:  151114283 now IPC :0.91112: AVG IPC :0.81263: L2-Pf-HR :0.96808: L2-HR :0.80199: (Sim:2h1m18s) 
CPU  1 inst:  125000005 cyc:  151708464 now IPC :0.94751: AVG IPC :0.81606: L2-Pf-HR :0.96841: L2-HR :0.80437: (Sim:2h1m52s) 
CPU  0 inst:  126000003 cyc:  152091535 now IPC :0.78158: AVG IPC :0.82061: L2-Pf-HR :0.96850: L2-HR :0.80192: (Sim:2h2m10s) 
CPU  2 inst:  125000000 cyc:  152225159 now IPC :0.84661: AVG IPC :0.81327: L2-Pf-HR :0.96855: L2-HR :0.80302: (Sim:2h2m17s) 
CPU  3 inst:  125000000 cyc:  152302759 now IPC :0.84141: AVG IPC :0.81286: L2-Pf-HR :0.96814: L2-HR :0.80195: (Sim:2h2m21s) 
CPU  1 inst:  126000003 cyc:  152992186 now IPC :0.77898: AVG IPC :0.81574: L2-Pf-HR :0.96835: L2-HR :0.80454: (Sim:2h2m56s) 
CPU  0 inst:  127000004 cyc:  153172786 now IPC :0.92486: AVG IPC :0.82135: L2-Pf-HR :0.96850: L2-HR :0.80226: (Sim:2h3m6s) 
CPU  2 inst:  126000003 cyc:  153594526 now IPC :0.73027: AVG IPC :0.81253: L2-Pf-HR :0.96846: L2-HR :0.80313: (Sim:2h3m28s) 
CPU  3 inst:  126000003 cyc:  153705046 now IPC :0.71312: AVG IPC :0.81194: L2-Pf-HR :0.96809: L2-HR :0.80205: (Sim:2h3m34s) 
CPU  1 inst:  127000004 cyc:  154198620 now IPC :0.82889: AVG IPC :0.81585: L2-Pf-HR :0.96835: L2-HR :0.80486: (Sim:2h3m59s) 
CPU  0 inst:  128000005 cyc:  154336768 now IPC :0.85912: AVG IPC :0.82164: L2-Pf-HR :0.96846: L2-HR :0.80257: (Sim:2h4m7s) 
CPU  2 inst:  127000004 cyc:  154723392 now IPC :0.88585: AVG IPC :0.81306: L2-Pf-HR :0.96841: L2-HR :0.80331: (Sim:2h4m27s) 
CPU  3 inst:  127000004 cyc:  154919382 now IPC :0.82350: AVG IPC :0.81203: L2-Pf-HR :0.96808: L2-HR :0.80230: (Sim:2h4m37s) 
CPU  1 inst:  128000005 cyc:  155394979 now IPC :0.83587: AVG IPC :0.81600: L2-Pf-HR :0.96830: L2-HR :0.80516: (Sim:2h5m2s) 
CPU  0 inst:  129000003 cyc:  155577295 now IPC :0.80611: AVG IPC :0.82152: L2-Pf-HR :0.96842: L2-HR :0.80281: (Sim:2h5m12s) 
CPU  2 inst:  128000005 cyc:  155733176 now IPC :0.99031: AVG IPC :0.81422: L2-Pf-HR :0.96836: L2-HR :0.80350: (Sim:2h5m21s) 
CPU  3 inst:  128000005 cyc:  156118847 now IPC :0.83371: AVG IPC :0.81220: L2-Pf-HR :0.96806: L2-HR :0.80255: (Sim:2h5m41s) 
CPU  1 inst:  129000001 cyc:  156498097 now IPC :0.90652: AVG IPC :0.81665: L2-Pf-HR :0.96829: L2-HR :0.80541: (Sim:2h5m59s) 
CPU  2 inst:  129000003 cyc:  156807696 now IPC :0.93065: AVG IPC :0.81502: L2-Pf-HR :0.96835: L2-HR :0.80370: (Sim:2h6m9s) 
CPU  0 inst:  130000004 cyc:  156958737 now IPC :0.72388: AVG IPC :0.82065: L2-Pf-HR :0.96845: L2-HR :0.80262: (Sim:2h6m14s) 
CPU  3 inst:  129000003 cyc:  157365771 now IPC :0.80197: AVG IPC :0.81212: L2-Pf-HR :0.96805: L2-HR :0.80277: (Sim:2h6m31s) 
CPU  1 inst:  130000004 cyc:  158009252 now IPC :0.66175: AVG IPC :0.81515: L2-Pf-HR :0.96833: L2-HR :0.80527: (Sim:2h7m2s) 
CPU  2 inst:  130000004 cyc:  158180686 now IPC :0.72834: AVG IPC :0.81427: L2-Pf-HR :0.96837: L2-HR :0.80346: (Sim:2h7m11s) 
CPU  0 inst:  131000005 cyc:  158335746 now IPC :0.72621: AVG IPC :0.81982: L2-Pf-HR :0.96846: L2-HR :0.80260: (Sim:2h7m19s) 
CPU  3 inst:  130000004 cyc:  158706686 now IPC :0.74576: AVG IPC :0.81156: L2-Pf-HR :0.96809: L2-HR :0.80255: (Sim:2h7m38s) 
CPU  1 inst:  131000005 cyc:  159318991 now IPC :0.76351: AVG IPC :0.81473: L2-Pf-HR :0.96840: L2-HR :0.80521: (Sim:2h7m58s) 
CPU  2 inst:  131000005 cyc:  159454668 now IPC :0.78494: AVG IPC :0.81403: L2-Pf-HR :0.96836: L2-HR :0.80331: (Sim:2h8m3s) 
CPU  0 inst:  132000003 cyc:  159608752 now IPC :0.78554: AVG IPC :0.81955: L2-Pf-HR :0.96850: L2-HR :0.80254: (Sim:2h8m8s) 
CPU  3 inst:  131000005 cyc:  159816476 now IPC :0.90107: AVG IPC :0.81218: L2-Pf-HR :0.96807: L2-HR :0.80241: (Sim:2h8m14s) 
CPU  1 inst:  132000003 cyc:  160733827 now IPC :0.70679: AVG IPC :0.81377: L2-Pf-HR :0.96842: L2-HR :0.80511: (Sim:2h8m48s) 
CPU  2 inst:  132000003 cyc:  160833757 now IPC :0.72511: AVG IPC :0.81326: L2-Pf-HR :0.96836: L2-HR :0.80319: (Sim:2h8m51s) 
CPU  0 inst:  133000002 cyc:  160943675 now IPC :0.74911: AVG IPC :0.81896: L2-Pf-HR :0.96849: L2-HR :0.80246: (Sim:2h8m55s) 
CPU  3 inst:  132000003 cyc:  160953507 now IPC :0.87948: AVG IPC :0.81266: L2-Pf-HR :0.96808: L2-HR :0.80228: (Sim:2h8m55s) 
CPU  1 inst:  133000002 cyc:  162027869 now IPC :0.77277: AVG IPC :0.81344: L2-Pf-HR :0.96843: L2-HR :0.80499: (Sim:2h9m33s) 
CPU  2 inst:  133000002 cyc:  162212094 now IPC :0.72551: AVG IPC :0.81251: L2-Pf-HR :0.96840: L2-HR :0.80310: (Sim:2h9m39s) 
CPU  0 inst:  134000002 cyc:  162221442 now IPC :0.78262: AVG IPC :0.81867: L2-Pf-HR :0.96849: L2-HR :0.80235: (Sim:2h9m39s) 
CPU  3 inst:  133000002 cyc:  162242701 now IPC :0.77568: AVG IPC :0.81236: L2-Pf-HR :0.96807: L2-HR :0.80218: (Sim:2h9m40s) 
CPU  1 inst:  134000002 cyc:  163258465 now IPC :0.81261: AVG IPC :0.81344: L2-Pf-HR :0.96841: L2-HR :0.80485: (Sim:2h10m22s) 
CPU  0 inst:  135000001 cyc:  163409412 now IPC :0.84177: AVG IPC :0.81884: L2-Pf-HR :0.96848: L2-HR :0.80222: (Sim:2h10m30s) 
CPU  2 inst:  134000002 cyc:  163495100 now IPC :0.77942: AVG IPC :0.81225: L2-Pf-HR :0.96840: L2-HR :0.80300: (Sim:2h10m33s) 
CPU  3 inst:  134000002 cyc:  163533593 now IPC :0.77466: AVG IPC :0.81206: L2-Pf-HR :0.96810: L2-HR :0.80209: (Sim:2h10m34s) 
CPU  1 inst:  135000001 cyc:  164543414 now IPC :0.77824: AVG IPC :0.81316: L2-Pf-HR :0.96841: L2-HR :0.80472: (Sim:2h11m6s) 
CPU  0 inst:  136000000 cyc:  164790839 now IPC :0.72389: AVG IPC :0.81804: L2-Pf-HR :0.96845: L2-HR :0.80213: (Sim:2h11m19s) 
CPU  2 inst:  135000002 cyc:  164836621 now IPC :0.74542: AVG IPC :0.81171: L2-Pf-HR :0.96838: L2-HR :0.80292: (Sim:2h11m21s) 
CPU  3 inst:  135000002 cyc:  164881456 now IPC :0.74192: AVG IPC :0.81149: L2-Pf-HR :0.96810: L2-HR :0.80199: (Sim:2h11m24s) 
CPU  1 inst:  136000003 cyc:  165940519 now IPC :0.71577: AVG IPC :0.81233: L2-Pf-HR :0.96844: L2-HR :0.80465: (Sim:2h12m11s) 
CPU  0 inst:  137000004 cyc:  165993057 now IPC :0.83180: AVG IPC :0.81814: L2-Pf-HR :0.96850: L2-HR :0.80217: (Sim:2h12m13s) 
CPU  2 inst:  136000003 cyc:  166267014 now IPC :0.69911: AVG IPC :0.81073: L2-Pf-HR :0.96837: L2-HR :0.80286: (Sim:2h12m27s) 
CPU  3 inst:  136000000 cyc:  166312192 now IPC :0.69894: AVG IPC :0.81051: L2-Pf-HR :0.96806: L2-HR :0.80193: (Sim:2h12m30s) 
CPU  1 inst:  137000004 cyc:  166985177 now IPC :0.95725: AVG IPC :0.81325: L2-Pf-HR :0.96844: L2-HR :0.80457: (Sim:2h13m6s) 
CPU  0 inst:  138000005 cyc:  167113258 now IPC :0.89270: AVG IPC :0.81864: L2-Pf-HR :0.96852: L2-HR :0.80214: (Sim:2h13m11s) 
CPU  2 inst:  137000004 cyc:  167413574 now IPC :0.87218: AVG IPC :0.81115: L2-Pf-HR :0.96841: L2-HR :0.80289: (Sim:2h13m22s) 
CPU  3 inst:  137000004 cyc:  167483712 now IPC :0.85360: AVG IPC :0.81082: L2-Pf-HR :0.96808: L2-HR :0.80194: (Sim:2h13m25s) 
CPU  1 inst:  138000005 cyc:  168067931 now IPC :0.92357: AVG IPC :0.81396: L2-Pf-HR :0.96846: L2-HR :0.80450: (Sim:2h13m46s) 
CPU  0 inst:  139000005 cyc:  168199919 now IPC :0.92025: AVG IPC :0.81930: L2-Pf-HR :0.96853: L2-HR :0.80209: (Sim:2h13m51s) 
CPU  2 inst:  138000005 cyc:  168448698 now IPC :0.96607: AVG IPC :0.81211: L2-Pf-HR :0.96842: L2-HR :0.80289: (Sim:2h14m1s) 
CPU  3 inst:  138000005 cyc:  168600330 now IPC :0.89556: AVG IPC :0.81138: L2-Pf-HR :0.96809: L2-HR :0.80193: (Sim:2h14m6s) 
CPU  1 inst:  139000005 cyc:  169113405 now IPC :0.95650: AVG IPC :0.81485: L2-Pf-HR :0.96847: L2-HR :0.80442: (Sim:2h14m26s) 
CPU  0 inst:  140000005 cyc:  169254811 now IPC :0.94796: AVG IPC :0.82011: L2-Pf-HR :0.96856: L2-HR :0.80203: (Sim:2h14m32s) 
CPU  2 inst:  139000005 cyc:  169403327 now IPC :1.04753: AVG IPC :0.81345: L2-Pf-HR :0.96843: L2-HR :0.80289: (Sim:2h14m37s) 
CPU  3 inst:  139000005 cyc:  169608190 now IPC :0.99220: AVG IPC :0.81246: L2-Pf-HR :0.96807: L2-HR :0.80191: (Sim:2h14m45s) 
CPU  1 inst:  140000005 cyc:  170155159 now IPC :0.95992: AVG IPC :0.81574: L2-Pf-HR :0.96845: L2-HR :0.80431: (Sim:2h15m6s) 
CPU  0 inst:  141000002 cyc:  170307437 now IPC :0.95000: AVG IPC :0.82092: L2-Pf-HR :0.96857: L2-HR :0.80197: (Sim:2h15m12s) 
CPU  2 inst:  140000005 cyc:  170356950 now IPC :1.04863: AVG IPC :0.81477: L2-Pf-HR :0.96841: L2-HR :0.80288: (Sim:2h15m14s) 
CPU  3 inst:  140000005 cyc:  170612716 now IPC :0.99549: AVG IPC :0.81355: L2-Pf-HR :0.96806: L2-HR :0.80188: (Sim:2h15m24s) 
CPU  1 inst:  141000002 cyc:  171228828 now IPC :0.93138: AVG IPC :0.81647: L2-Pf-HR :0.96845: L2-HR :0.80423: (Sim:2h15m48s) 
CPU  2 inst:  141000002 cyc:  171340370 now IPC :1.01686: AVG IPC :0.81594: L2-Pf-HR :0.96840: L2-HR :0.80287: (Sim:2h15m53s) 
CPU  0 inst:  142000001 cyc:  171433218 now IPC :0.88827: AVG IPC :0.82136: L2-Pf-HR :0.96848: L2-HR :0.80208: (Sim:2h15m57s) 
CPU  3 inst:  141000002 cyc:  171669529 now IPC :0.94624: AVG IPC :0.81437: L2-Pf-HR :0.96807: L2-HR :0.80187: (Sim:2h16m7s) 
CPU  1 inst:  142000001 cyc:  172381670 now IPC :0.86742: AVG IPC :0.81681: L2-Pf-HR :0.96839: L2-HR :0.80434: (Sim:2h16m42s) 
CPU  2 inst:  142000001 cyc:  172555355 now IPC :0.82305: AVG IPC :0.81599: L2-Pf-HR :0.96838: L2-HR :0.80299: (Sim:2h16m51s) 
CPU  0 inst:  143000004 cyc:  172570863 now IPC :0.87901: AVG IPC :0.82175: L2-Pf-HR :0.96845: L2-HR :0.80240: (Sim:2h16m52s) 
CPU  3 inst:  142000001 cyc:  172836387 now IPC :0.85700: AVG IPC :0.81466: L2-Pf-HR :0.96807: L2-HR :0.80205: (Sim:2h17m7s) 
CPU  1 inst:  143000004 cyc:  173462470 now IPC :0.92524: AVG IPC :0.81749: L2-Pf-HR :0.96835: L2-HR :0.80458: (Sim:2h17m42s) 
CPU  0 inst:  144000005 cyc:  173646850 now IPC :0.92938: AVG IPC :0.82242: L2-Pf-HR :0.96843: L2-HR :0.80266: (Sim:2h17m52s) 
CPU  2 inst:  143000004 cyc:  173657546 now IPC :0.90729: AVG IPC :0.81657: L2-Pf-HR :0.96835: L2-HR :0.80326: (Sim:2h17m53s) 
CPU  3 inst:  143000004 cyc:  173908108 now IPC :0.93308: AVG IPC :0.81539: L2-Pf-HR :0.96805: L2-HR :0.80231: (Sim:2h18m6s) 
CPU  1 inst:  144000005 cyc:  174548613 now IPC :0.92069: AVG IPC :0.81814: L2-Pf-HR :0.96832: L2-HR :0.80477: (Sim:2h18m42s) 
CPU  0 inst:  145000000 cyc:  174761117 now IPC :0.89745: AVG IPC :0.82290: L2-Pf-HR :0.96845: L2-HR :0.80293: (Sim:2h18m53s) 
CPU  2 inst:  144000005 cyc:  174820140 now IPC :0.86015: AVG IPC :0.81686: L2-Pf-HR :0.96833: L2-HR :0.80351: (Sim:2h18m55s) 
CPU  3 inst:  144000005 cyc:  174983134 now IPC :0.93021: AVG IPC :0.81610: L2-Pf-HR :0.96802: L2-HR :0.80254: (Sim:2h19m1s) 
CPU  1 inst:  145000000 cyc:  175716137 now IPC :0.85651: AVG IPC :0.81839: L2-Pf-HR :0.96830: L2-HR :0.80498: (Sim:2h19m38s) 
CPU  2 inst:  145000000 cyc:  175907044 now IPC :0.92004: AVG IPC :0.81750: L2-Pf-HR :0.96831: L2-HR :0.80377: (Sim:2h19m49s) 
CPU  3 inst:  145000000 cyc:  176111683 now IPC :0.88609: AVG IPC :0.81655: L2-Pf-HR :0.96801: L2-HR :0.80281: (Sim:2h20m0s) 
CPU  0 inst:  146000001 cyc:  176112215 now IPC :0.74014: AVG IPC :0.82226: L2-Pf-HR :0.96842: L2-HR :0.80278: (Sim:2h20m0s) 
CPU  1 inst:  146000001 cyc:  177205434 now IPC :0.67146: AVG IPC :0.81715: L2-Pf-HR :0.96837: L2-HR :0.80489: (Sim:2h20m52s) 
CPU  2 inst:  146000004 cyc:  177352002 now IPC :0.69206: AVG IPC :0.81648: L2-Pf-HR :0.96834: L2-HR :0.80362: (Sim:2h20m59s) 
CPU  3 inst:  146000001 cyc:  177487282 now IPC :0.72696: AVG IPC :0.81585: L2-Pf-HR :0.96805: L2-HR :0.80266: (Sim:2h21m5s) 
CPU  0 inst:  147000000 cyc:  177554160 now IPC :0.69351: AVG IPC :0.82121: L2-Pf-HR :0.96848: L2-HR :0.80274: (Sim:2h21m9s) 
CPU  1 inst:  147000001 cyc:  178521107 now IPC :0.76007: AVG IPC :0.81673: L2-Pf-HR :0.96841: L2-HR :0.80483: (Sim:2h21m55s) 
CPU  2 inst:  147000004 cyc:  178763531 now IPC :0.70845: AVG IPC :0.81562: L2-Pf-HR :0.96835: L2-HR :0.80355: (Sim:2h22m6s) 
CPU  3 inst:  147000001 cyc:  178817628 now IPC :0.75168: AVG IPC :0.81537: L2-Pf-HR :0.96807: L2-HR :0.80258: (Sim:2h22m9s) 
CPU  0 inst:  148000000 cyc:  178984011 now IPC :0.69937: AVG IPC :0.82023: L2-Pf-HR :0.96849: L2-HR :0.80265: (Sim:2h22m17s) 
CPU  1 inst:  148000000 cyc:  179696559 now IPC :0.85074: AVG IPC :0.81695: L2-Pf-HR :0.96842: L2-HR :0.80470: (Sim:2h22m52s) 
CPU  2 inst:  148000000 cyc:  180172818 now IPC :0.70958: AVG IPC :0.81478: L2-Pf-HR :0.96839: L2-HR :0.80347: (Sim:2h23m16s) 
CPU  3 inst:  148000000 cyc:  180210319 now IPC :0.71803: AVG IPC :0.81462: L2-Pf-HR :0.96807: L2-HR :0.80250: (Sim:2h23m18s) 
CPU  0 inst:  149000004 cyc:  180272841 now IPC :0.77590: AVG IPC :0.81991: L2-Pf-HR :0.96851: L2-HR :0.80255: (Sim:2h23m21s) 
CPU  1 inst:  149000004 cyc:  180832276 now IPC :0.88050: AVG IPC :0.81735: L2-Pf-HR :0.96844: L2-HR :0.80460: (Sim:2h23m50s) 
CPU  0 inst:  150000005 cyc:  181434880 now IPC :0.86056: AVG IPC :0.82017: L2-Pf-HR :0.96854: L2-HR :0.80243: (Sim:2h24m20s) 
CPU  2 inst:  149000004 cyc:  181533936 now IPC :0.73469: AVG IPC :0.81418: L2-Pf-HR :0.96843: L2-HR :0.80339: (Sim:2h24m26s) 
CPU  3 inst:  149000004 cyc:  181550631 now IPC :0.74610: AVG IPC :0.81411: L2-Pf-HR :0.96808: L2-HR :0.80242: (Sim:2h24m27s) 
CPU  1 inst:  150000005 cyc:  182096957 now IPC :0.79071: AVG IPC :0.81717: L2-Pf-HR :0.96842: L2-HR :0.80448: (Sim:2h24m53s) 
CPU  0 inst:  151000003 cyc:  182608646 now IPC :0.85196: AVG IPC :0.82038: L2-Pf-HR :0.96856: L2-HR :0.80232: (Sim:2h25m16s) 
CPU  2 inst:  150000005 cyc:  183056586 now IPC :0.65675: AVG IPC :0.81286: L2-Pf-HR :0.96842: L2-HR :0.80331: (Sim:2h25m36s) 
CPU  3 inst:  150000005 cyc:  183113913 now IPC :0.63968: AVG IPC :0.81261: L2-Pf-HR :0.96813: L2-HR :0.80234: (Sim:2h25m38s) 
CPU  1 inst:  151000003 cyc:  183659815 now IPC :0.63985: AVG IPC :0.81565: L2-Pf-HR :0.96844: L2-HR :0.80439: (Sim:2h25m55s) 
CPU  0 inst:  152000002 cyc:  184030931 now IPC :0.70309: AVG IPC :0.81947: L2-Pf-HR :0.96850: L2-HR :0.80225: (Sim:2h26m9s) 
CPU  2 inst:  151000003 cyc:  184408434 now IPC :0.73973: AVG IPC :0.81232: L2-Pf-HR :0.96846: L2-HR :0.80325: (Sim:2h26m29s) 
CPU  3 inst:  151000003 cyc:  184539923 now IPC :0.70126: AVG IPC :0.81175: L2-Pf-HR :0.96815: L2-HR :0.80229: (Sim:2h26m36s) 
CPU  1 inst:  152000004 cyc:  185122567 now IPC :0.68364: AVG IPC :0.81460: L2-Pf-HR :0.96840: L2-HR :0.80430: (Sim:2h27m7s) 
CPU  0 inst:  153000004 cyc:  185333098 now IPC :0.76795: AVG IPC :0.81910: L2-Pf-HR :0.96853: L2-HR :0.80223: (Sim:2h27m15s) 
CPU  2 inst:  152000004 cyc:  185688463 now IPC :0.78123: AVG IPC :0.81211: L2-Pf-HR :0.96846: L2-HR :0.80320: (Sim:2h27m31s) 
CPU  3 inst:  152000003 cyc:  185904514 now IPC :0.73282: AVG IPC :0.81116: L2-Pf-HR :0.96813: L2-HR :0.80225: (Sim:2h27m39s) 
CPU  1 inst:  153000001 cyc:  186377547 now IPC :0.79682: AVG IPC :0.81448: L2-Pf-HR :0.96843: L2-HR :0.80427: (Sim:2h27m58s) 
CPU  0 inst:  154000003 cyc:  186519868 now IPC :0.84262: AVG IPC :0.81925: L2-Pf-HR :0.96856: L2-HR :0.80223: (Sim:2h28m7s) 
CPU  2 inst:  153000001 cyc:  186697978 now IPC :0.99057: AVG IPC :0.81308: L2-Pf-HR :0.96848: L2-HR :0.80317: (Sim:2h28m15s) 
CPU  3 inst:  153000004 cyc:  187121518 now IPC :0.82169: AVG IPC :0.81123: L2-Pf-HR :0.96817: L2-HR :0.80228: (Sim:2h28m39s) 
CPU  1 inst:  154000003 cyc:  187565749 now IPC :0.84161: AVG IPC :0.81466: L2-Pf-HR :0.96842: L2-HR :0.80420: (Sim:2h29m4s) 
CPU  2 inst:  154000003 cyc:  187684625 now IPC :1.01354: AVG IPC :0.81414: L2-Pf-HR :0.96849: L2-HR :0.80315: (Sim:2h29m10s) 
CPU  0 inst:  155000003 cyc:  187767411 now IPC :0.80158: AVG IPC :0.81913: L2-Pf-HR :0.96855: L2-HR :0.80219: (Sim:2h29m14s) 
CPU  3 inst:  154000003 cyc:  188254180 now IPC :0.88288: AVG IPC :0.81167: L2-Pf-HR :0.96819: L2-HR :0.80229: (Sim:2h29m42s) 
CPU  1 inst:  155000003 cyc:  188780939 now IPC :0.82292: AVG IPC :0.81471: L2-Pf-HR :0.96841: L2-HR :0.80413: (Sim:2h30m10s) 
CPU  2 inst:  155000003 cyc:  188811735 now IPC :0.88722: AVG IPC :0.81458: L2-Pf-HR :0.96853: L2-HR :0.80314: (Sim:2h30m12s) 
CPU  0 inst:  156000003 cyc:  188877341 now IPC :0.90096: AVG IPC :0.81962: L2-Pf-HR :0.96858: L2-HR :0.80215: (Sim:2h30m16s) 
CPU  3 inst:  155000003 cyc:  189284436 now IPC :0.97063: AVG IPC :0.81254: L2-Pf-HR :0.96821: L2-HR :0.80226: (Sim:2h30m37s) 
[...]
Core_1_LLC_writeback_hit 2681214
Core_1_LLC_writeback_miss 36366


CPU 2 cumulative IPC: 0.42602 instructions: 491809999 cycles: 1154430437
Core_2_L1D_total_access 134578392
Core_2_L1D_total_hit 115261112
Core_2_L1D_total_miss 19317280
Core_2_L1D_loads 121811759
Core_2_L1D_load_hit 103343454
Core_2_L1D_load_miss 18468305
Core_2_L1D_RFOs 12579527
Core_2_L1D_RFO_hit 11730552
Core_2_L1D_RFO_miss 848975
Core_2_L1D_prefetches 187106
Core_2_L1D_prefetch_hit 187106
Core_2_L1D_prefetch_miss 0
Core_2_L1D_writebacks 0
Core_2_L1D_writeback_hit 0
Core_2_L1D_writeback_miss 0

Core_2_L1I_total_access 72116352
Core_2_L1I_total_hit 72111381
Core_2_L1I_total_miss 4971
Core_2_L1I_loads 72116352
Core_2_L1I_load_hit 72111381
Core_2_L1I_load_miss 4971
Core_2_L1I_RFOs 0
Core_2_L1I_RFO_hit 0
Core_2_L1I_RFO_miss 0
Core_2_L1I_prefetches 0
Core_2_L1I_prefetch_hit 0
Core_2_L1I_prefetch_miss 0
Core_2_L1I_writebacks 0
Core_2_L1I_writeback_hit 0
Core_2_L1I_writeback_miss 0

Core_2_L2C_total_access 26357453
Core_2_L2C_total_hit 21759047
Core_2_L2C_total_miss 4598406
Core_2_L2C_loads 18473261
Core_2_L2C_load_hit 14739384
Core_2_L2C_load_miss 3733877
Core_2_L2C_RFOs 848975
Core_2_L2C_RFO_hit 61765
Core_2_L2C_RFO_miss 787210
Core_2_L2C_prefetches 4120550
Core_2_L2C_prefetch_hit 4044549
Core_2_L2C_prefetch_miss 76001
Core_2_L2C_writebacks 2914667
Core_2_L2C_writeback_hit 2913349
Core_2_L2C_writeback_miss 1318

CPU 2 L1D next line prefetcher final stats
Prefetcher final stats
Training Unit Size: 4860
Addr table size: 6619659 6619665


Triggers: 15023737
No Prediction: 7128581 47.44879
Stream end: 1868668
No translation: 1857777117 12365.61261
Predictions: 583151 3.88153


Stream divergence: 1919730 12.77798
Stream divergence -- new stream: 0
Core_2_LLC_total_access 7378997
Core_2_LLC_total_hit 3151650
Core_2_LLC_total_miss 4227347
Core_2_LLC_loads 3725464
Core_2_LLC_load_hit 335087
Core_2_LLC_load_miss 3390377
Core_2_LLC_RFOs 787210
Core_2_LLC_RFO_hit 241
Core_2_LLC_RFO_miss 786969
Core_2_LLC_prefetches 146474
Core_2_LLC_prefetch_hit 130399
Core_2_LLC_prefetch_miss 16075
Core_2_LLC_writebacks 2719849
Core_2_LLC_writeback_hit 2685923
Core_2_LLC_writeback_miss 33926


CPU 3 cumulative IPC: 0.42532 instructions: 491000002 cycles: 1154430437
Core_3_L1D_total_access 134370925
Core_3_L1D_total_hit 115108343
Core_3_L1D_total_miss 19262582
Core_3_L1D_loads 121603089
Core_3_L1D_load_hit 103188366
Core_3_L1D_load_miss 18414723
Core_3_L1D_RFOs 12584259
Core_3_L1D_RFO_hit 11736400
Core_3_L1D_RFO_miss 847859
Core_3_L1D_prefetches 183577
Core_3_L1D_prefetch_hit 183577
Core_3_L1D_prefetch_miss 0
Core_3_L1D_writebacks 0
Core_3_L1D_writeback_hit 0
Core_3_L1D_writeback_miss 0

Core_3_L1I_total_access 72029285
Core_3_L1I_total_hit 72024312
Core_3_L1I_total_miss 4973
Core_3_L1I_loads 72029285
Core_3_L1I_load_hit 72024312
Core_3_L1I_load_miss 4973
Core_3_L1I_RFOs 0
Core_3_L1I_RFO_hit 0
Core_3_L1I_RFO_miss 0
Core_3_L1I_prefetches 0
Core_3_L1I_prefetch_hit 0
Core_3_L1I_prefetch_miss 0
Core_3_L1I_writebacks 0
Core_3_L1I_writeback_hit 0
Core_3_L1I_writeback_miss 0

Core_3_L2C_total_access 26215542
Core_3_L2C_total_hit 21613137
Core_3_L2C_total_miss 4602405
Core_3_L2C_loads 18419682
Core_3_L2C_load_hit 14681478
Core_3_L2C_load_miss 3738204
Core_3_L2C_RFOs 847859
Core_3_L2C_RFO_hit 60655
Core_3_L2C_RFO_miss 787204
Core_3_L2C_prefetches 4034177
Core_3_L2C_prefetch_hit 3958445
Core_3_L2C_prefetch_miss 75732
Core_3_L2C_writebacks 2913824
Core_3_L2C_writeback_hit 2912559
Core_3_L2C_writeback_miss 1265

CPU 3 L1D next line prefetcher final stats
Prefetcher final stats
Training Unit Size: 4860
Addr table size: 6619659 6619665


Triggers: 15023737
No Prediction: 7128581 47.44879
Stream end: 1868668
No translation: 1857777117 12365.61261
Predictions: 583151 3.88153


Stream divergence: 1919730 12.77798
Stream divergence -- new stream: 0
Core_3_LLC_total_access 7397257
Core_3_LLC_total_hit 3161820
Core_3_LLC_total_miss 4235437
Core_3_LLC_loads 3728932
Core_3_LLC_load_hit 345530
Core_3_LLC_load_miss 3383402
Core_3_LLC_RFOs 787204
Core_3_LLC_RFO_hit 304
Core_3_LLC_RFO_miss 786900
Core_3_LLC_prefetches 155109
Core_3_LLC_prefetch_hit 137628
Core_3_LLC_prefetch_miss 17481
Core_3_LLC_writebacks 2726012
Core_3_LLC_writeback_hit 2678358
Core_3_LLC_writeback_miss 47654


[ROI Statistics]
Core_0_instructions 491000002
Core_0_cycles 1154416484
Core_0_IPC 0.42532

Core_0_branch_prediction_accuracy 99.58586
Core_0_branch_MPKI 0.12050
Core_0_average_ROB_occupancy_at_mispredict 570.53508

Core_0_L1D_total_access 134361565
Core_0_L1D_total_hit 115100110 L1D_total_Hit Ratio: 0.85664
Core_0_L1D_total_miss 19261455
Core_0_L1D_loads 121603228
Core_0_L1D_load_hit 103188890 L1D_load_Hit Ratio: 0.84857
Core_0_L1D_load_miss 18414338
Core_0_L1D_RFOs 12577696
Core_0_L1D_RFO_hit 11730579 L1D_RFO_Hit Ratio: 0.93265
Core_0_L1D_RFO_miss 847117
Core_0_L1D_prefetches 180641
Core_0_L1D_prefetch_hit 180641 L1D_prefetch_Hit Ratio: 1.00000
Core_0_L1D_prefetch_miss 0
Core_0_L1D_writebacks 0
Core_0_L1D_writeback_hit 0 L1D_writeback_Hit Ratio: -nan
Core_0_L1D_writeback_miss 0
Core_0_L1D_prefetch_requested 40210645
Core_0_L1D_prefetch_issued 5552385
Core_0_L1D_prefetch_useful 0 L1D_Useful Ratio: 0.00000
Core_0_L1D_prefetch_useless 0
Core_0_L1D_prefetch_late 0
Core_0_L1D_average_miss_latency 201.95988

Core_0_L1I_total_access 72033130
Core_0_L1I_total_hit 72028159 L1I_total_Hit Ratio: 0.99993
Core_0_L1I_total_miss 4971
Core_0_L1I_loads 72033130
Core_0_L1I_load_hit 72028159 L1I_load_Hit Ratio: 0.99993
Core_0_L1I_load_miss 4971
Core_0_L1I_RFOs 0
Core_0_L1I_RFO_hit 0 L1I_RFO_Hit Ratio: -nan
Core_0_L1I_RFO_miss 0
Core_0_L1I_prefetches 0
Core_0_L1I_prefetch_hit 0 L1I_prefetch_Hit Ratio: -nan
Core_0_L1I_prefetch_miss 0
Core_0_L1I_writebacks 0
Core_0_L1I_writeback_hit 0 L1I_writeback_Hit Ratio: -nan
Core_0_L1I_writeback_miss 0
Core_0_L1I_prefetch_requested 0
Core_0_L1I_prefetch_issued 0
Core_0_L1I_prefetch_useful 0 L1I_Useful Ratio: -nan
Core_0_L1I_prefetch_useless 0
Core_0_L1I_prefetch_late 0
Core_0_L1I_average_miss_latency 1002.30195

Core_0_L2C_total_access 26263967
Core_0_L2C_total_hit 21656260 L2C_total_Hit Ratio: 0.82456
Core_0_L2C_total_miss 4607707
Core_0_L2C_loads 18419295
Core_0_L2C_load_hit 14676801 L2C_load_Hit Ratio: 0.79682
Core_0_L2C_load_miss 3742494
Core_0_L2C_RFOs 847117
Core_0_L2C_RFO_hit 59991 L2C_RFO_Hit Ratio: 0.07082
Core_0_L2C_RFO_miss 787126
Core_0_L2C_prefetches 4083731
Core_0_L2C_prefetch_hit 4006975 L2C_prefetch_Hit Ratio: 0.98120
Core_0_L2C_prefetch_miss 76756
Core_0_L2C_writebacks 2913824
Core_0_L2C_writeback_hit 2912493 L2C_writeback_Hit Ratio: 0.99954
Core_0_L2C_writeback_miss 1331
Core_0_L2C_prefetch_requested 12632116
Core_0_L2C_prefetch_issued 140303
Core_0_L2C_prefetch_useful 76312 L2C_Useful Ratio: 0.54391
Core_0_L2C_prefetch_useless 749
Core_0_L2C_prefetch_late 9596
Core_0_L2C_average_miss_latency 783.64275

Core_0_LLC_total_access 7396033
Core_0_LLC_total_hit 3158815 LLC_total_Hit Ratio: 0.42710
Core_0_LLC_total_miss 4237218
Core_0_LLC_loads 3732892
Core_0_LLC_load_hit 349575 LLC_load_Hit Ratio: 0.09365
Core_0_LLC_load_miss 3383317
Core_0_LLC_RFOs 787126
Core_0_LLC_RFO_hit 185 LLC_RFO_Hit Ratio: 0.00024
Core_0_LLC_RFO_miss 786941
Core_0_LLC_prefetches 145849
Core_0_LLC_prefetch_hit 127854 LLC_prefetch_Hit Ratio: 0.87662
Core_0_LLC_prefetch_miss 17995
Core_0_LLC_writebacks 2730166
Core_0_LLC_writeback_hit 2681201 LLC_writeback_Hit Ratio: 0.98207
Core_0_LLC_writeback_miss 48965
Core_0_LLC_prefetch_requested 0
Core_0_LLC_prefetch_issued 0
Core_0_LLC_prefetch_useful 13784 LLC_Useful Ratio: inf
Core_0_LLC_prefetch_useless 49267
Core_0_LLC_prefetch_late 882
Core_0_LLC_average_miss_latency 3188.91750

Core_0_major_page_fault 0
Core_0_minor_page_fault 28665

Core_1_instructions 491000004
Core_1_cycles 1152936156
Core_1_IPC 0.42587

Core_1_branch_prediction_accuracy 99.58581
Core_1_branch_MPKI 0.12015
Core_1_average_ROB_occupancy_at_mispredict 570.39419

Core_1_L1D_total_access 134385512
Core_1_L1D_total_hit 115121709 L1D_total_Hit Ratio: 0.85665
Core_1_L1D_total_miss 19263803
Core_1_L1D_loads 121602126
Core_1_L1D_load_hit 103187510 L1D_load_Hit Ratio: 0.84857
Core_1_L1D_load_miss 18414616
Core_1_L1D_RFOs 12582504
Core_1_L1D_RFO_hit 11733317 L1D_RFO_Hit Ratio: 0.93251
Core_1_L1D_RFO_miss 849187
Core_1_L1D_prefetches 200882
Core_1_L1D_prefetch_hit 200882 L1D_prefetch_Hit Ratio: 1.00000
Core_1_L1D_prefetch_miss 0
Core_1_L1D_writebacks 0
Core_1_L1D_writeback_hit 0 L1D_writeback_Hit Ratio: -nan
Core_1_L1D_writeback_miss 0
Core_1_L1D_prefetch_requested 43433564
Core_1_L1D_prefetch_issued 6154140
Core_1_L1D_prefetch_useful 0 L1D_Useful Ratio: 0.00000
Core_1_L1D_prefetch_useless 0
Core_1_L1D_prefetch_late 0
Core_1_L1D_average_miss_latency 201.18701

Core_1_L1I_total_access 72045742
Core_1_L1I_total_hit 72040770 L1I_total_Hit Ratio: 0.99993
Core_1_L1I_total_miss 4972
Core_1_L1I_loads 72045742
Core_1_L1I_load_hit 72040770 L1I_load_Hit Ratio: 0.99993
Core_1_L1I_load_miss 4972
Core_1_L1I_RFOs 0
Core_1_L1I_RFO_hit 0 L1I_RFO_Hit Ratio: -nan
Core_1_L1I_RFO_miss 0
Core_1_L1I_prefetches 0
Core_1_L1I_prefetch_hit 0 L1I_prefetch_Hit Ratio: -nan
Core_1_L1I_prefetch_miss 0
Core_1_L1I_writebacks 0
Core_1_L1I_writeback_hit 0 L1I_writeback_Hit Ratio: -nan
Core_1_L1I_writeback_miss 0
Core_1_L1I_prefetch_requested 0
Core_1_L1I_prefetch_issued 0
Core_1_L1I_prefetch_useful 0 L1I_Useful Ratio: -nan
Core_1_L1I_prefetch_useless 0
Core_1_L1I_prefetch_late 0
Core_1_L1I_average_miss_latency 861.96963

Core_1_L2C_total_access 26749224
Core_1_L2C_total_hit 22156797 L2C_total_Hit Ratio: 0.82832
Core_1_L2C_total_miss 4592427
Core_1_L2C_loads 18419565
Core_1_L2C_load_hit 14693445 L2C_load_Hit Ratio: 0.79771
Core_1_L2C_load_miss 3726120
Core_1_L2C_RFOs 849187
Core_1_L2C_RFO_hit 61986 L2C_RFO_Hit Ratio: 0.07299
Core_1_L2C_RFO_miss 787201
Core_1_L2C_prefetches 4566651
Core_1_L2C_prefetch_hit 4488801 L2C_prefetch_Hit Ratio: 0.98295
Core_1_L2C_prefetch_miss 77850
Core_1_L2C_writebacks 2913821
Core_1_L2C_writeback_hit 2912565 L2C_writeback_Hit Ratio: 0.99957
Core_1_L2C_writeback_miss 1256
Core_1_L2C_prefetch_requested 12491897
Core_1_L2C_prefetch_issued 140868
Core_1_L2C_prefetch_useful 77708 L2C_Useful Ratio: 0.55164
Core_1_L2C_prefetch_useless 878
Core_1_L2C_prefetch_late 8471
Core_1_L2C_average_miss_latency 782.42844

Core_1_LLC_total_access 7369956
Core_1_LLC_total_hit 3146669 LLC_total_Hit Ratio: 0.42696
Core_1_LLC_total_miss 4223287
Core_1_LLC_loads 3717644
Core_1_LLC_load_hit 333046 LLC_load_Hit Ratio: 0.08959
Core_1_LLC_load_miss 3384598
Core_1_LLC_RFOs 787201
Core_1_LLC_RFO_hit 208 LLC_RFO_Hit Ratio: 0.00026
Core_1_LLC_RFO_miss 786993
Core_1_LLC_prefetches 148397
Core_1_LLC_prefetch_hit 133014 LLC_prefetch_Hit Ratio: 0.89634
Core_1_LLC_prefetch_miss 15383
Core_1_LLC_writebacks 2716714
Core_1_LLC_writeback_hit 2680401 LLC_writeback_Hit Ratio: 0.98663
Core_1_LLC_writeback_miss 36313
Core_1_LLC_prefetch_requested 0
Core_1_LLC_prefetch_issued 0
Core_1_LLC_prefetch_useful 13784 LLC_Useful Ratio: inf
Core_1_LLC_prefetch_useless 49267
Core_1_LLC_prefetch_late 882
Core_1_LLC_average_miss_latency 3199.43651

Core_1_major_page_fault 0
Core_1_minor_page_fault 28665

Core_2_instructions 491000004
Core_2_cycles 1153812520
Core_2_IPC 0.42555

Core_2_branch_prediction_accuracy 99.58584
Core_2_branch_MPKI 0.12036
Core_2_average_ROB_occupancy_at_mispredict 570.45347

Core_2_L1D_total_access 134362424
Core_2_L1D_total_hit 115098749 L1D_total_Hit Ratio: 0.85663
Core_2_L1D_total_miss 19263675
Core_2_L1D_loads 121598156
Core_2_L1D_load_hit 103183452 L1D_load_Hit Ratio: 0.84856
Core_2_L1D_load_miss 18414704
Core_2_L1D_RFOs 12577691
Core_2_L1D_RFO_hit 11728720 L1D_RFO_Hit Ratio: 0.93250
Core_2_L1D_RFO_miss 848971
Core_2_L1D_prefetches 186577
Core_2_L1D_prefetch_hit 186577 L1D_prefetch_Hit Ratio: 1.00000
Core_2_L1D_prefetch_miss 0
Core_2_L1D_writebacks 0
Core_2_L1D_writeback_hit 0 L1D_writeback_Hit Ratio: -nan
Core_2_L1D_writeback_miss 0
Core_2_L1D_prefetch_requested 40675350
Core_2_L1D_prefetch_issued 5589632
Core_2_L1D_prefetch_useful 0 L1D_Useful Ratio: 0.00000
Core_2_L1D_prefetch_useless 0
Core_2_L1D_prefetch_late 0
Core_2_L1D_average_miss_latency 201.92636

Core_2_L1I_total_access 72037358
Core_2_L1I_total_hit 72032387 L1I_total_Hit Ratio: 0.99993
Core_2_L1I_total_miss 4971
Core_2_L1I_loads 72037358
Core_2_L1I_load_hit 72032387 L1I_load_Hit Ratio: 0.99993
Core_2_L1I_load_miss 4971
Core_2_L1I_RFOs 0
Core_2_L1I_RFO_hit 0 L1I_RFO_Hit Ratio: -nan
Core_2_L1I_RFO_miss 0
Core_2_L1I_prefetches 0
Core_2_L1I_prefetch_hit 0 L1I_prefetch_Hit Ratio: -nan
Core_2_L1I_prefetch_miss 0
Core_2_L1I_writebacks 0
Core_2_L1I_writeback_hit 0 L1I_writeback_Hit Ratio: -nan
Core_2_L1I_writeback_miss 0
Core_2_L1I_prefetch_requested 0
Core_2_L1I_prefetch_issued 0
Core_2_L1I_prefetch_useful 0 L1I_Useful Ratio: -nan
Core_2_L1I_prefetch_useless 0
Core_2_L1I_prefetch_late 0
Core_2_L1I_average_miss_latency 946.10722

Core_2_L2C_total_access 26292070
Core_2_L2C_total_hit 21697300 L2C_total_Hit Ratio: 0.82524
Core_2_L2C_total_miss 4594770
Core_2_L2C_loads 18419662
Core_2_L2C_load_hit 14689181 L2C_load_Hit Ratio: 0.79747
Core_2_L2C_load_miss 3730481
Core_2_L2C_RFOs 848971
Core_2_L2C_RFO_hit 61761 L2C_RFO_Hit Ratio: 0.07275
Core_2_L2C_RFO_miss 787210
Core_2_L2C_prefetches 4109614
Core_2_L2C_prefetch_hit 4033853 L2C_prefetch_Hit Ratio: 0.98156
Core_2_L2C_prefetch_miss 75761
Core_2_L2C_writebacks 2913823
Core_2_L2C_writeback_hit 2912505 L2C_writeback_Hit Ratio: 0.99955
Core_2_L2C_writeback_miss 1318
Core_2_L2C_prefetch_requested 12552021
Core_2_L2C_prefetch_issued 146137
Core_2_L2C_prefetch_useful 75219 L2C_Useful Ratio: 0.51472
Core_2_L2C_prefetch_useless 915
Core_2_L2C_prefetch_late 8401
Core_2_L2C_average_miss_latency 785.46821

Core_2_LLC_total_access 7374686
Core_2_LLC_total_hit 3150790 LLC_total_Hit Ratio: 0.42724
Core_2_LLC_total_miss 4223896
Core_2_LLC_loads 3722068
Core_2_LLC_load_hit 335030 LLC_load_Hit Ratio: 0.09001
Core_2_LLC_load_miss 3387038
Core_2_LLC_RFOs 787210
Core_2_LLC_RFO_hit 241 LLC_RFO_Hit Ratio: 0.00031
Core_2_LLC_RFO_miss 786969
Core_2_LLC_prefetches 146215
Core_2_LLC_prefetch_hit 130252 LLC_prefetch_Hit Ratio: 0.89083
Core_2_LLC_prefetch_miss 15963
Core_2_LLC_writebacks 2719193
Core_2_LLC_writeback_hit 2685267 LLC_writeback_Hit Ratio: 0.98752
Core_2_LLC_writeback_miss 33926
Core_2_LLC_prefetch_requested 0
Core_2_LLC_prefetch_issued 0
Core_2_LLC_prefetch_useful 13784 LLC_Useful Ratio: inf
Core_2_LLC_prefetch_useless 49267
Core_2_LLC_prefetch_late 882
Core_2_LLC_average_miss_latency 3198.97522

Core_2_major_page_fault 0
Core_2_minor_page_fault 28665

Core_3_instructions 491000002
Core_3_cycles 1154430437
Core_3_IPC 0.42532

Core_3_branch_prediction_accuracy 99.58586
Core_3_branch_MPKI 0.12051
Core_3_average_ROB_occupancy_at_mispredict 570.52641

Core_3_L1D_total_access 134370925
Core_3_L1D_total_hit 115108343 L1D_total_Hit Ratio: 0.85665
Core_3_L1D_total_miss 19262582
Core_3_L1D_loads 121603089
Core_3_L1D_load_hit 103188366 L1D_load_Hit Ratio: 0.84857
Core_3_L1D_load_miss 18414723
Core_3_L1D_RFOs 12584259
Core_3_L1D_RFO_hit 11736400 L1D_RFO_Hit Ratio: 0.93263
Core_3_L1D_RFO_miss 847859
Core_3_L1D_prefetches 183577
Core_3_L1D_prefetch_hit 183577 L1D_prefetch_Hit Ratio: 1.00000
Core_3_L1D_prefetch_miss 0
Core_3_L1D_writebacks 0
Core_3_L1D_writeback_hit 0 L1D_writeback_Hit Ratio: -nan
Core_3_L1D_writeback_miss 0
Core_3_L1D_prefetch_requested 40204904
Core_3_L1D_prefetch_issued 5489119
Core_3_L1D_prefetch_useful 0 L1D_Useful Ratio: 0.00000
Core_3_L1D_prefetch_useless 0
Core_3_L1D_prefetch_late 0
Core_3_L1D_average_miss_latency 202.24250

Core_3_L1I_total_access 72029285
Core_3_L1I_total_hit 72024312 L1I_total_Hit Ratio: 0.99993
Core_3_L1I_total_miss 4973
Core_3_L1I_loads 72029285
Core_3_L1I_load_hit 72024312 L1I_load_Hit Ratio: 0.99993
Core_3_L1I_load_miss 4973
Core_3_L1I_RFOs 0
Core_3_L1I_RFO_hit 0 L1I_RFO_Hit Ratio: -nan
Core_3_L1I_RFO_miss 0
Core_3_L1I_prefetches 0
Core_3_L1I_prefetch_hit 0 L1I_prefetch_Hit Ratio: -nan
Core_3_L1I_prefetch_miss 0
Core_3_L1I_writebacks 0
Core_3_L1I_writeback_hit 0 L1I_writeback_Hit Ratio: -nan
Core_3_L1I_writeback_miss 0
Core_3_L1I_prefetch_requested 0
Core_3_L1I_prefetch_issued 0
Core_3_L1I_prefetch_useful 0 L1I_Useful Ratio: -nan
Core_3_L1I_prefetch_useless 0
Core_3_L1I_prefetch_late 0
Core_3_L1I_average_miss_latency 1005.15846

Core_3_L2C_total_access 26215542
Core_3_L2C_total_hit 21613137 L2C_total_Hit Ratio: 0.82444
Core_3_L2C_total_miss 4602405
Core_3_L2C_loads 18419682
Core_3_L2C_load_hit 14681478 L2C_load_Hit Ratio: 0.79705
Core_3_L2C_load_miss 3738204
Core_3_L2C_RFOs 847859
Core_3_L2C_RFO_hit 60655 L2C_RFO_Hit Ratio: 0.07154
Core_3_L2C_RFO_miss 787204
Core_3_L2C_prefetches 4034177
Core_3_L2C_prefetch_hit 3958445 L2C_prefetch_Hit Ratio: 0.98123
Core_3_L2C_prefetch_miss 75732
Core_3_L2C_writebacks 2913824
Core_3_L2C_writeback_hit 2912559 L2C_writeback_Hit Ratio: 0.99957
Core_3_L2C_writeback_miss 1265
Core_3_L2C_prefetch_requested 12594407
Core_3_L2C_prefetch_issued 155843
Core_3_L2C_prefetch_useful 75235 L2C_Useful Ratio: 0.48276
Core_3_L2C_prefetch_useless 723
Core_3_L2C_prefetch_late 9266
Core_3_L2C_average_miss_latency 785.73261

Core_3_LLC_total_access 7397257
Core_3_LLC_total_hit 3161820 LLC_total_Hit Ratio: 0.42743
Core_3_LLC_total_miss 4235437
Core_3_LLC_loads 3728932
Core_3_LLC_load_hit 345530 LLC_load_Hit Ratio: 0.09266
Core_3_LLC_load_miss 3383402
Core_3_LLC_RFOs 787204
Core_3_LLC_RFO_hit 304 LLC_RFO_Hit Ratio: 0.00039
Core_3_LLC_RFO_miss 786900
Core_3_LLC_prefetches 155109
Core_3_LLC_prefetch_hit 137628 LLC_prefetch_Hit Ratio: 0.88730
Core_3_LLC_prefetch_miss 17481
Core_3_LLC_writebacks 2726012
Core_3_LLC_writeback_hit 2678358 LLC_writeback_Hit Ratio: 0.98252
Core_3_LLC_writeback_miss 47654
Core_3_LLC_prefetch_requested 0
Core_3_LLC_prefetch_issued 0
Core_3_LLC_prefetch_useful 13784 LLC_Useful Ratio: inf
Core_3_LLC_prefetch_useless 49267
Core_3_LLC_prefetch_late 882
Core_3_LLC_average_miss_latency 3190.25844

Core_3_major_page_fault 0
Core_3_minor_page_fault 28665

CPU 0 L1D next line prefetcher final stats
Prefetcher final stats
Training Unit Size: 4860
Addr table size: 6619659 6619665


Triggers: 15023737
No Prediction: 7128581 47.44879
Stream end: 1868668
No translation: 1857777117 12365.61261
Predictions: 583151 3.88153


Stream divergence: 1919730 12.77798
Stream divergence -- new stream: 0
CPU 1 L1D next line prefetcher final stats
Prefetcher final stats
Training Unit Size: 4860
Addr table size: 6619659 6619665


Triggers: 15023737
No Prediction: 7128581 47.44879
Stream end: 1868668
No translation: 1857777117 12365.61261
Predictions: 583151 3.88153


Stream divergence: 1919730 12.77798
Stream divergence -- new stream: 0
CPU 2 L1D next line prefetcher final stats
Prefetcher final stats
Training Unit Size: 4860
Addr table size: 6619659 6619665


Triggers: 15023737
No Prediction: 7128581 47.44879
Stream end: 1868668
No translation: 1857777117 12365.61261
Predictions: 583151 3.88153


Stream divergence: 1919730 12.77798
Stream divergence -- new stream: 0
CPU 3 L1D next line prefetcher final stats
Prefetcher final stats
Training Unit Size: 4860
Addr table size: 6619659 6619665


Triggers: 15023737
No Prediction: 7128581 47.44879
Stream end: 1868668
No translation: 1857777117 12365.61261
Predictions: 583151 3.88153


Stream divergence: 1919730 12.77798
Stream divergence -- new stream: 0
Channel_0_RQ_row_buffer_hit 5667112
Channel_0_RQ_row_buffer_miss 11097232
Channel_0_WQ_row_buffer_hit 4029261
Channel_0_WQ_row_buffer_miss 5779547
Channel_0_WQ_full 861
Channel_0_dbus_congested 13411140

avg_congested_cycle 10

EzSearch AVG IPC :0.42532: L2-Pf-HR :0.98120 : L2-HR :0.82458 Uful:0.54391
EzSearch AVG IPC :0.42587: L2-Pf-HR :0.98295 : L2-HR :0.82898 Uful:0.55164
EzSearch AVG IPC :0.42555: L2-Pf-HR :0.98156 : L2-HR :0.82554 Uful:0.51472
EzSearch AVG IPC :0.42532: L2-Pf-HR :0.98123 : L2-HR :0.82444 Uful:0.48276
     > Finished combination: TraceType=770-tot Sim:491000000 Prefetcher=L2isb_ideal L1=isb_ideal
