TRACE: [167000000][OPT-350M]_[h16][s512][d64] Warmup: 2000000 NumTraces: 167000000
L1:bingo_dpc3_PHT1k:L2:bingo_dpc3_PHT1k
*************************************************
   ChampSim Multicore Out-of-Order Simulator
   Last compiled: Oct 29 2024 15:25:20
*************************************************

trace_0 770-tot_memTraces_v3_rexz/memTraces[167000000][OPT-350M]_[h16][s512][d64].champsim.9.xz
trace_1 770-tot_memTraces_v3_rexz/memTraces[167000000][OPT-350M]_[h16][s512][d64].champsim.9.xz
trace_2 770-tot_memTraces_v3_rexz/memTraces[167000000][OPT-350M]_[h16][s512][d64].champsim.9.xz
trace_3 770-tot_memTraces_v3_rexz/memTraces[167000000][OPT-350M]_[h16][s512][d64].champsim.9.xz
Bingo PHT WAYS: 16 and PHT_SIZE: 1024
Bingo2 PHT WAYS: 16 and PHT_SIZE: 1024
Bingo PHT WAYS: 16 and PHT_SIZE: 1024
Bingo2 PHT WAYS: 16 and PHT_SIZE: 1024
Bingo PHT WAYS: 16 and PHT_SIZE: 1024
Bingo2 PHT WAYS: 16 and PHT_SIZE: 1024
Bingo PHT WAYS: 16 and PHT_SIZE: 1024
Bingo2 PHT WAYS: 16 and PHT_SIZE: 1024
MAIN.cc ln 751 stats print skipped
CPU  0 inst:    1000000 cyc:     499807 now IPC :2.00077: AVG IPC :2.00077: L2-Pf-HR :0.77711: L2-HR :0.66948: (Sim:0h0m27s) 
CPU  2 inst:    1000000 cyc:     499883 now IPC :2.00047: AVG IPC :2.00047: L2-Pf-HR :0.76772: L2-HR :0.66120: (Sim:0h0m27s) 
CPU  1 inst:    1000000 cyc:     500145 now IPC :1.99942: AVG IPC :1.99942: L2-Pf-HR :0.73419: L2-HR :0.64261: (Sim:0h0m27s) 
CPU  3 inst:    1000000 cyc:     500164 now IPC :1.99934: AVG IPC :1.99934: L2-Pf-HR :0.78295: L2-HR :0.67741: (Sim:0h0m27s) 
CPU  0 inst:    2000002 cyc:     982276 now IPC :2.07268: AVG IPC :2.03609: L2-Pf-HR :0.79244: L2-HR :0.71858: (Sim:0h0m56s) 
CPU  2 inst:    2000002 cyc:     982337 now IPC :2.07274: AVG IPC :2.03596: L2-Pf-HR :0.78338: L2-HR :0.70995: (Sim:0h0m56s) 
CPU  1 inst:    2000002 cyc:     982603 now IPC :2.07272: AVG IPC :2.03541: L2-Pf-HR :0.77094: L2-HR :0.70503: (Sim:0h0m56s) 
CPU  3 inst:    2000002 cyc:     982669 now IPC :2.07252: AVG IPC :2.03528: L2-Pf-HR :0.79443: L2-HR :0.72192: (Sim:0h0m56s) 

Warmup complete CPU  0 instructions:    2000880 cycles:     982669 (Simulation time: 0 hr 0 min 56 sec) 
Warmup complete CPU  1 instructions:    2000202 cycles:     982669 (Simulation time: 0 hr 0 min 56 sec) 
Warmup complete CPU  2 instructions:    2000714 cycles:     982669 (Simulation time: 0 hr 0 min 56 sec) 
Warmup complete CPU  3 instructions:    2000002 cycles:     982669 (Simulation time: 0 hr 0 min 56 sec) 

CPU  2 inst:    3000000 cyc:    1777442 now IPC :1.25769: AVG IPC :1.25732: L2-Pf-HR :0.88349: L2-HR :0.77639: (Sim:0h1m24s) 
CPU  0 inst:    3000000 cyc:    1777493 now IPC :1.25752: AVG IPC :1.25703: L2-Pf-HR :0.89369: L2-HR :0.78816: (Sim:0h1m24s) 
CPU  1 inst:    3000000 cyc:    1777544 now IPC :1.25795: AVG IPC :1.25781: L2-Pf-HR :0.89232: L2-HR :0.78505: (Sim:0h1m24s) 
CPU  3 inst:    3000000 cyc:    1787523 now IPC :1.24246: AVG IPC :1.24246: L2-Pf-HR :0.89599: L2-HR :0.78659: (Sim:0h1m24s) 
CPU  1 inst:    4000001 cyc:    2527610 now IPC :1.33322: AVG IPC :1.29442: L2-Pf-HR :0.84721: L2-HR :0.76793: (Sim:0h1m53s) 
CPU  2 inst:    4000001 cyc:    2527814 now IPC :1.33267: AVG IPC :1.29392: L2-Pf-HR :0.86864: L2-HR :0.77617: (Sim:0h1m53s) 
CPU  0 inst:    4000001 cyc:    2528118 now IPC :1.33222: AVG IPC :1.29355: L2-Pf-HR :0.85281: L2-HR :0.77233: (Sim:0h1m53s) 
CPU  3 inst:    4000001 cyc:    2531570 now IPC :1.34400: AVG IPC :1.29124: L2-Pf-HR :0.84509: L2-HR :0.76833: (Sim:0h1m53s) 
CPU  1 inst:    5000002 cyc:    3307928 now IPC :1.28153: AVG IPC :1.29009: L2-Pf-HR :0.81537: L2-HR :0.76550: (Sim:0h2m40s) 
CPU  2 inst:    5000002 cyc:    3318855 now IPC :1.26416: AVG IPC :1.28384: L2-Pf-HR :0.83556: L2-HR :0.77735: (Sim:0h2m41s) 
CPU  0 inst:    5000002 cyc:    3331953 now IPC :1.24404: AVG IPC :1.27661: L2-Pf-HR :0.83583: L2-HR :0.77935: (Sim:0h2m42s) 
CPU  3 inst:    5000002 cyc:    3356287 now IPC :1.21254: AVG IPC :1.26389: L2-Pf-HR :0.83305: L2-HR :0.77639: (Sim:0h2m44s) 
CPU  1 inst:    6000000 cyc:    3945049 now IPC :1.56956: AVG IPC :1.35020: L2-Pf-HR :0.81881: L2-HR :0.77242: (Sim:0h3m24s) 
CPU  2 inst:    6000000 cyc:    4016016 now IPC :1.43439: AVG IPC :1.31844: L2-Pf-HR :0.85420: L2-HR :0.79461: (Sim:0h3m29s) 
CPU  3 inst:    6000000 cyc:    4023156 now IPC :1.49954: AVG IPC :1.31558: L2-Pf-HR :0.83996: L2-HR :0.78968: (Sim:0h3m30s) 
CPU  0 inst:    6000000 cyc:    4037769 now IPC :1.41680: AVG IPC :1.30900: L2-Pf-HR :0.85183: L2-HR :0.79687: (Sim:0h3m31s) 
CPU  1 inst:    7000004 cyc:    4561532 now IPC :1.62211: AVG IPC :1.39704: L2-Pf-HR :0.83188: L2-HR :0.77871: (Sim:0h4m7s) 
CPU  2 inst:    7000004 cyc:    4717910 now IPC :1.42472: AVG IPC :1.33841: L2-Pf-HR :0.86555: L2-HR :0.79742: (Sim:0h4m18s) 
CPU  3 inst:    7000004 cyc:    4718163 now IPC :1.43884: AVG IPC :1.33851: L2-Pf-HR :0.85298: L2-HR :0.79688: (Sim:0h4m18s) 
CPU  0 inst:    7000004 cyc:    4747050 now IPC :1.40988: AVG IPC :1.32801: L2-Pf-HR :0.85889: L2-HR :0.79932: (Sim:0h4m20s) 
CPU  1 inst:    8000003 cyc:    5305768 now IPC :1.34366: AVG IPC :1.38785: L2-Pf-HR :0.82937: L2-HR :0.77688: (Sim:0h4m55s) 
CPU  3 inst:    8000003 cyc:    5430316 now IPC :1.40419: AVG IPC :1.34903: L2-Pf-HR :0.85317: L2-HR :0.79664: (Sim:0h5m3s) 
CPU  2 inst:    8000003 cyc:    5485670 now IPC :1.30249: AVG IPC :1.33229: L2-Pf-HR :0.86134: L2-HR :0.79417: (Sim:0h5m7s) 
CPU  0 inst:    8000003 cyc:    5494076 now IPC :1.33864: AVG IPC :1.32977: L2-Pf-HR :0.85900: L2-HR :0.79942: (Sim:0h5m8s) 
CPU  1 inst:    9000000 cyc:    6245492 now IPC :1.06414: AVG IPC :1.33005: L2-Pf-HR :0.82111: L2-HR :0.77752: (Sim:0h5m46s) 
CPU  3 inst:    9000000 cyc:    6348155 now IPC :1.08951: AVG IPC :1.30463: L2-Pf-HR :0.84398: L2-HR :0.79592: (Sim:0h5m52s) 
CPU  0 inst:    9000000 cyc:    6516376 now IPC :0.97818: AVG IPC :1.26482: L2-Pf-HR :0.85049: L2-HR :0.79854: (Sim:0h6m2s) 
CPU  2 inst:    9000000 cyc:    6556830 now IPC :0.93356: AVG IPC :1.25567: L2-Pf-HR :0.85322: L2-HR :0.79385: (Sim:0h6m4s) 
CPU  1 inst:   10000004 cyc:    7091700 now IPC :1.18175: AVG IPC :1.30950: L2-Pf-HR :0.82956: L2-HR :0.78684: (Sim:0h6m23s) 
CPU  3 inst:   10000004 cyc:    7199846 now IPC :1.17414: AVG IPC :1.28676: L2-Pf-HR :0.85010: L2-HR :0.80305: (Sim:0h6m27s) 
CPU  0 inst:   10000004 cyc:    7379847 now IPC :1.15812: AVG IPC :1.25041: L2-Pf-HR :0.85526: L2-HR :0.80393: (Sim:0h6m34s) 
CPU  2 inst:   10000004 cyc:    7447177 now IPC :1.12316: AVG IPC :1.23742: L2-Pf-HR :0.86285: L2-HR :0.80328: (Sim:0h6m36s) 
CPU  1 inst:   11000003 cyc:    7836723 now IPC :1.34224: AVG IPC :1.31306: L2-Pf-HR :0.84045: L2-HR :0.79566: (Sim:0h6m50s) 
CPU  3 inst:   11000003 cyc:    7951013 now IPC :1.33126: AVG IPC :1.29156: L2-Pf-HR :0.85497: L2-HR :0.80725: (Sim:0h6m54s) 
CPU  0 inst:   11000003 cyc:    8184724 now IPC :1.24242: AVG IPC :1.24952: L2-Pf-HR :0.85895: L2-HR :0.80621: (Sim:0h7m2s) 
CPU  2 inst:   11000003 cyc:    8303400 now IPC :1.16792: AVG IPC :1.22929: L2-Pf-HR :0.86940: L2-HR :0.80790: (Sim:0h7m6s) 
CPU  1 inst:   12000001 cyc:    8757357 now IPC :1.08621: AVG IPC :1.28620: L2-Pf-HR :0.83936: L2-HR :0.79511: (Sim:0h7m20s) 
CPU  3 inst:   12000001 cyc:    8846568 now IPC :1.11662: AVG IPC :1.27163: L2-Pf-HR :0.85285: L2-HR :0.80556: (Sim:0h7m22s) 
CPU  0 inst:   12000001 cyc:    9131335 now IPC :1.05640: AVG IPC :1.22709: L2-Pf-HR :0.85640: L2-HR :0.80408: (Sim:0h7m32s) 
CPU  2 inst:   12000001 cyc:    9293361 now IPC :1.01014: AVG IPC :1.20318: L2-Pf-HR :0.86944: L2-HR :0.80742: (Sim:0h7m35s) 
CPU  1 inst:   13000004 cyc:    9975577 now IPC :0.82087: AVG IPC :1.22316: L2-Pf-HR :0.83330: L2-HR :0.79253: (Sim:0h7m51s) 
CPU  3 inst:   13000004 cyc:   10138170 now IPC :0.77423: AVG IPC :1.20146: L2-Pf-HR :0.84617: L2-HR :0.80266: (Sim:0h7m55s) 
CPU  0 inst:   13000004 cyc:   10450908 now IPC :0.75782: AVG IPC :1.16169: L2-Pf-HR :0.84964: L2-HR :0.80155: (Sim:0h8m4s) 
CPU  2 inst:   13000004 cyc:   10691920 now IPC :0.71502: AVG IPC :1.13287: L2-Pf-HR :0.86227: L2-HR :0.80456: (Sim:0h8m11s) 
CPU  1 inst:   14000002 cyc:   11093137 now IPC :0.89480: AVG IPC :1.18687: L2-Pf-HR :0.83798: L2-HR :0.79785: (Sim:0h8m22s) 
CPU  3 inst:   14000002 cyc:   11185008 now IPC :0.95526: AVG IPC :1.17620: L2-Pf-HR :0.84947: L2-HR :0.80689: (Sim:0h8m25s) 
CPU  0 inst:   14000002 cyc:   11397605 now IPC :1.05630: AVG IPC :1.15211: L2-Pf-HR :0.85293: L2-HR :0.80636: (Sim:0h8m32s) 
CPU  2 inst:   14000002 cyc:   11653823 now IPC :1.03960: AVG IPC :1.12446: L2-Pf-HR :0.86441: L2-HR :0.80859: (Sim:0h8m40s) 
CPU  1 inst:   15000000 cyc:   12006451 now IPC :1.09491: AVG IPC :1.17925: L2-Pf-HR :0.84369: L2-HR :0.80327: (Sim:0h8m51s) 
CPU  3 inst:   15000000 cyc:   12162944 now IPC :1.02256: AVG IPC :1.16276: L2-Pf-HR :0.85330: L2-HR :0.80987: (Sim:0h8m56s) 
CPU  0 inst:   15000000 cyc:   12337265 now IPC :1.06421: AVG IPC :1.14483: L2-Pf-HR :0.85616: L2-HR :0.80931: (Sim:0h9m2s) 
CPU  2 inst:   15000000 cyc:   12538468 now IPC :1.13039: AVG IPC :1.12491: L2-Pf-HR :0.86733: L2-HR :0.81250: (Sim:0h9m9s) 
CPU  1 inst:   16000004 cyc:   12982942 now IPC :1.02408: AVG IPC :1.16662: L2-Pf-HR :0.84439: L2-HR :0.80366: (Sim:0h9m23s) 
CPU  3 inst:   16000004 cyc:   13080621 now IPC :1.08971: AVG IPC :1.15722: L2-Pf-HR :0.85444: L2-HR :0.81067: (Sim:0h9m25s) 
CPU  0 inst:   16000004 cyc:   13325228 now IPC :1.01219: AVG IPC :1.13422: L2-Pf-HR :0.85626: L2-HR :0.80938: (Sim:0h9m32s) 
CPU  2 inst:   16000004 cyc:   13634332 now IPC :0.91253: AVG IPC :1.10652: L2-Pf-HR :0.86791: L2-HR :0.81294: (Sim:0h9m40s) 
CPU  1 inst:   17000002 cyc:   14229842 now IPC :0.80199: AVG IPC :1.13230: L2-Pf-HR :0.83997: L2-HR :0.80091: (Sim:0h9m54s) 
CPU  3 inst:   17000002 cyc:   14405563 now IPC :0.75475: AVG IPC :1.11749: L2-Pf-HR :0.84959: L2-HR :0.80742: (Sim:0h9m58s) 
CPU  0 inst:   17000002 cyc:   14763960 now IPC :0.69506: AVG IPC :1.08837: L2-Pf-HR :0.85158: L2-HR :0.80635: (Sim:0h10m8s) 
CPU  2 inst:   17000002 cyc:   15162016 now IPC :0.65458: AVG IPC :1.05783: L2-Pf-HR :0.86203: L2-HR :0.80965: (Sim:0h10m19s) 
CPU  1 inst:   18000004 cyc:   15256670 now IPC :0.97387: AVG IPC :1.12091: L2-Pf-HR :0.84281: L2-HR :0.80477: (Sim:0h10m22s) 
CPU  3 inst:   18000004 cyc:   15528976 now IPC :0.89015: AVG IPC :1.09994: L2-Pf-HR :0.85096: L2-HR :0.80982: (Sim:0h10m31s) 
CPU  0 inst:   18000004 cyc:   15710205 now IPC :1.05681: AVG IPC :1.08634: L2-Pf-HR :0.85368: L2-HR :0.80946: (Sim:0h10m36s) 
CPU  2 inst:   18000004 cyc:   16115973 now IPC :1.04827: AVG IPC :1.05722: L2-Pf-HR :0.86174: L2-HR :0.81192: (Sim:0h10m49s) 
CPU  1 inst:   19000003 cyc:   16248967 now IPC :1.00776: AVG IPC :1.11355: L2-Pf-HR :0.84620: L2-HR :0.80722: (Sim:0h10m53s) 
CPU  3 inst:   19000003 cyc:   16517300 now IPC :1.01181: AVG IPC :1.09433: L2-Pf-HR :0.85498: L2-HR :0.81200: (Sim:0h11m2s) 
CPU  0 inst:   19000003 cyc:   16620134 now IPC :1.09899: AVG IPC :1.08708: L2-Pf-HR :0.85698: L2-HR :0.81180: (Sim:0h11m6s) 
CPU  2 inst:   19000003 cyc:   17060470 now IPC :1.05876: AVG IPC :1.05731: L2-Pf-HR :0.86561: L2-HR :0.81488: (Sim:0h11m22s) 
CPU  1 inst:   20000001 cyc:   17290012 now IPC :0.96057: AVG IPC :1.10378: L2-Pf-HR :0.84820: L2-HR :0.80794: (Sim:0h11m33s) 
CPU  3 inst:   20000001 cyc:   17548424 now IPC :0.96981: AVG IPC :1.08658: L2-Pf-HR :0.85565: L2-HR :0.81187: (Sim:0h11m45s) 
CPU  0 inst:   20000001 cyc:   17616590 now IPC :1.00355: AVG IPC :1.08207: L2-Pf-HR :0.85867: L2-HR :0.81256: (Sim:0h11m49s) 
CPU  2 inst:   20000001 cyc:   18163043 now IPC :0.90697: AVG IPC :1.04767: L2-Pf-HR :0.86717: L2-HR :0.81542: (Sim:0h12m13s) 
CPU  1 inst:   21000005 cyc:   18630761 now IPC :0.74585: AVG IPC :1.07659: L2-Pf-HR :0.84373: L2-HR :0.80528: (Sim:0h12m30s) 
CPU  3 inst:   21000005 cyc:   18976687 now IPC :0.70015: AVG IPC :1.05591: L2-Pf-HR :0.85017: L2-HR :0.80862: (Sim:0h12m45s) 
CPU  0 inst:   21000005 cyc:   19063489 now IPC :0.69114: AVG IPC :1.05079: L2-Pf-HR :0.85329: L2-HR :0.80937: (Sim:0h12m50s) 
CPU  1 inst:   22000003 cyc:   19640263 now IPC :0.99059: AVG IPC :1.07194: L2-Pf-HR :0.84573: L2-HR :0.80762: (Sim:0h13m11s) 
CPU  2 inst:   21000005 cyc:   19677501 now IPC :0.66030: AVG IPC :1.01629: L2-Pf-HR :0.86196: L2-HR :0.81249: (Sim:0h13m12s) 
CPU  3 inst:   22000003 cyc:   20068739 now IPC :0.91571: AVG IPC :1.04788: L2-Pf-HR :0.85256: L2-HR :0.81123: (Sim:0h13m24s) 
CPU  0 inst:   22000003 cyc:   20138281 now IPC :0.93041: AVG IPC :1.04403: L2-Pf-HR :0.85511: L2-HR :0.81156: (Sim:0h13m26s) 
CPU  2 inst:   22000003 cyc:   20568369 now IPC :1.12250: AVG IPC :1.02112: L2-Pf-HR :0.86298: L2-HR :0.81459: (Sim:0h13m40s) 
CPU  1 inst:   23000000 cyc:   20618736 now IPC :1.02200: AVG IPC :1.06945: L2-Pf-HR :0.84908: L2-HR :0.81011: (Sim:0h13m42s) 
CPU  3 inst:   23000000 cyc:   21011214 now IPC :1.06103: AVG IPC :1.04850: L2-Pf-HR :0.85414: L2-HR :0.81298: (Sim:0h14m2s) 
CPU  0 inst:   23000000 cyc:   21087760 now IPC :1.05321: AVG IPC :1.04447: L2-Pf-HR :0.85671: L2-HR :0.81344: (Sim:0h14m7s) 
CPU  2 inst:   23000000 cyc:   21447063 now IPC :1.13805: AVG IPC :1.02614: L2-Pf-HR :0.86347: L2-HR :0.81631: (Sim:0h14m27s) 
CPU  1 inst:   24000000 cyc:   21637423 now IPC :0.98166: AVG IPC :1.06512: L2-Pf-HR :0.85054: L2-HR :0.81037: (Sim:0h14m38s) 
CPU  3 inst:   24000000 cyc:   21958994 now IPC :1.05510: AVG IPC :1.04880: L2-Pf-HR :0.85617: L2-HR :0.81367: (Sim:0h14m55s) 
CPU  0 inst:   24000000 cyc:   22055785 now IPC :1.03303: AVG IPC :1.04394: L2-Pf-HR :0.85916: L2-HR :0.81417: (Sim:0h15m1s) 
CPU  2 inst:   24000000 cyc:   22373756 now IPC :1.07911: AVG IPC :1.02843: L2-Pf-HR :0.86508: L2-HR :0.81743: (Sim:0h15m16s) 
CPU  1 inst:   25000003 cyc:   22791317 now IPC :0.86663: AVG IPC :1.05462: L2-Pf-HR :0.84547: L2-HR :0.80708: (Sim:0h15m34s) 
CPU  3 inst:   25000005 cyc:   23234995 now IPC :0.78370: AVG IPC :1.03360: L2-Pf-HR :0.85244: L2-HR :0.81109: (Sim:0h15m52s) 
CPU  0 inst:   25000005 cyc:   23374987 now IPC :0.75804: AVG IPC :1.02710: L2-Pf-HR :0.85516: L2-HR :0.81153: (Sim:0h15m59s) 
CPU  1 inst:   26000005 cyc:   23858548 now IPC :0.93701: AVG IPC :1.04913: L2-Pf-HR :0.84704: L2-HR :0.80920: (Sim:0h16m21s) 
CPU  2 inst:   25000005 cyc:   23895439 now IPC :0.65717: AVG IPC :1.00378: L2-Pf-HR :0.86046: L2-HR :0.81439: (Sim:0h16m23s) 
CPU  3 inst:   26000005 cyc:   24340406 now IPC :0.90464: AVG IPC :1.02750: L2-Pf-HR :0.85359: L2-HR :0.81257: (Sim:0h16m46s) 
CPU  0 inst:   26000005 cyc:   24432166 now IPC :0.94591: AVG IPC :1.02344: L2-Pf-HR :0.85553: L2-HR :0.81285: (Sim:0h16m51s) 
CPU  1 inst:   27000002 cyc:   24816893 now IPC :1.04346: AVG IPC :1.04890: L2-Pf-HR :0.84902: L2-HR :0.81110: (Sim:0h17m13s) 
CPU  2 inst:   26000005 cyc:   24858060 now IPC :1.03883: AVG IPC :1.00519: L2-Pf-HR :0.86156: L2-HR :0.81614: (Sim:0h17m15s) 
CPU  3 inst:   27000002 cyc:   25242442 now IPC :1.10860: AVG IPC :1.03051: L2-Pf-HR :0.85604: L2-HR :0.81453: (Sim:0h17m37s) 
CPU  0 inst:   27000002 cyc:   25353558 now IPC :1.08531: AVG IPC :1.02578: L2-Pf-HR :0.85791: L2-HR :0.81478: (Sim:0h17m44s) 
CPU  2 inst:   27000002 cyc:   25699578 now IPC :1.18833: AVG IPC :1.01142: L2-Pf-HR :0.86231: L2-HR :0.81746: (Sim:0h18m4s) 
CPU  1 inst:   28000000 cyc:   25719537 now IPC :1.10785: AVG IPC :1.05105: L2-Pf-HR :0.85091: L2-HR :0.81263: (Sim:0h18m5s) 
CPU  3 inst:   28000000 cyc:   26141643 now IPC :1.11210: AVG IPC :1.03343: L2-Pf-HR :0.85768: L2-HR :0.81573: (Sim:0h18m28s) 
CPU  0 inst:   28000000 cyc:   26287743 now IPC :1.07045: AVG IPC :1.02743: L2-Pf-HR :0.86052: L2-HR :0.81630: (Sim:0h18m35s) 
CPU  2 inst:   28000000 cyc:   26698427 now IPC :1.00115: AVG IPC :1.01103: L2-Pf-HR :0.86429: L2-HR :0.81858: (Sim:0h18m55s) 
CPU  1 inst:   29000005 cyc:   26871920 now IPC :0.86777: AVG IPC :1.04290: L2-Pf-HR :0.84665: L2-HR :0.80980: (Sim:0h19m3s) 
CPU  3 inst:   29000005 cyc:   27469186 now IPC :0.75328: AVG IPC :1.01939: L2-Pf-HR :0.85365: L2-HR :0.81300: (Sim:0h19m28s) 
CPU  0 inst:   29000005 cyc:   27574743 now IPC :0.77700: AVG IPC :1.01531: L2-Pf-HR :0.85630: L2-HR :0.81351: (Sim:0h19m33s) 
CPU  1 inst:   30000004 cyc:   27995854 now IPC :0.88973: AVG IPC :1.03652: L2-Pf-HR :0.84755: L2-HR :0.81100: (Sim:0h19m47s) 
CPU  2 inst:   29000005 cyc:   28255557 now IPC :0.64221: AVG IPC :0.98997: L2-Pf-HR :0.85994: L2-HR :0.81571: (Sim:0h19m54s) 
CPU  3 inst:   30000004 cyc:   28623047 now IPC :0.86665: AVG IPC :1.01301: L2-Pf-HR :0.85442: L2-HR :0.81390: (Sim:0h20m6s) 
CPU  0 inst:   30000004 cyc:   28715936 now IPC :0.87628: AVG IPC :1.00959: L2-Pf-HR :0.85753: L2-HR :0.81472: (Sim:0h20m9s) 
CPU  1 inst:   31000000 cyc:   29167885 now IPC :0.85322: AVG IPC :1.02890: L2-Pf-HR :0.85006: L2-HR :0.81274: (Sim:0h20m30s) 
CPU  2 inst:   30000004 cyc:   29230902 now IPC :1.02528: AVG IPC :0.99119: L2-Pf-HR :0.86002: L2-HR :0.81671: (Sim:0h20m32s) 
CPU  3 inst:   31000000 cyc:   29569837 now IPC :1.05620: AVG IPC :1.01444: L2-Pf-HR :0.85528: L2-HR :0.81507: (Sim:0h20m50s) 
CPU  0 inst:   31000000 cyc:   29662971 now IPC :1.05592: AVG IPC :1.01112: L2-Pf-HR :0.85767: L2-HR :0.81547: (Sim:0h20m56s) 
CPU  2 inst:   31000000 cyc:   30046377 now IPC :1.22627: AVG IPC :0.99778: L2-Pf-HR :0.86099: L2-HR :0.81796: (Sim:0h21m17s) 
CPU  1 inst:   32000001 cyc:   30102860 now IPC :1.06955: AVG IPC :1.03021: L2-Pf-HR :0.85215: L2-HR :0.81386: (Sim:0h21m19s) 
CPU  3 inst:   32000001 cyc:   30430734 now IPC :1.16158: AVG IPC :1.01874: L2-Pf-HR :0.85738: L2-HR :0.81649: (Sim:0h21m36s) 
CPU  0 inst:   32000001 cyc:   30556669 now IPC :1.11895: AVG IPC :1.01437: L2-Pf-HR :0.85952: L2-HR :0.81645: (Sim:0h21m42s) 
CPU  2 inst:   32000001 cyc:   30967994 now IPC :1.08505: AVG IPC :1.00047: L2-Pf-HR :0.86328: L2-HR :0.81943: (Sim:0h22m2s) 
CPU  1 inst:   33000002 cyc:   31148276 now IPC :0.95656: AVG IPC :1.02765: L2-Pf-HR :0.84928: L2-HR :0.81187: (Sim:0h22m10s) 
CPU  3 inst:   33000001 cyc:   31482640 now IPC :0.95066: AVG IPC :1.01639: L2-Pf-HR :0.85497: L2-HR :0.81478: (Sim:0h22m22s) 
CPU  0 inst:   33000000 cyc:   31748658 now IPC :0.83893: AVG IPC :1.00758: L2-Pf-HR :0.85679: L2-HR :0.81452: (Sim:0h22m32s) 
CPU  1 inst:   34000005 cyc:   32305775 now IPC :0.86393: AVG IPC :1.02160: L2-Pf-HR :0.84914: L2-HR :0.81211: (Sim:0h22m56s) 
CPU  2 inst:   33000001 cyc:   32419700 now IPC :0.68884: AVG IPC :0.98608: L2-Pf-HR :0.86081: L2-HR :0.81767: (Sim:0h22m59s) 
CPU  3 inst:   34000005 cyc:   32689735 now IPC :0.82844: AVG IPC :1.00924: L2-Pf-HR :0.85422: L2-HR :0.81474: (Sim:0h23m8s) 
CPU  0 inst:   34000005 cyc:   32946115 now IPC :0.83511: AVG IPC :1.00112: L2-Pf-HR :0.85570: L2-HR :0.81438: (Sim:0h23m16s) 
CPU  1 inst:   35000004 cyc:   33307449 now IPC :0.99833: AVG IPC :1.02088: L2-Pf-HR :0.85030: L2-HR :0.81351: (Sim:0h23m29s) 
CPU  2 inst:   34000005 cyc:   33541787 now IPC :0.89120: AVG IPC :0.98281: L2-Pf-HR :0.85980: L2-HR :0.81749: (Sim:0h23m40s) 
CPU  3 inst:   35000004 cyc:   33648490 now IPC :1.04302: AVG IPC :1.01023: L2-Pf-HR :0.85584: L2-HR :0.81592: (Sim:0h23m46s) 
CPU  0 inst:   35000004 cyc:   33876605 now IPC :1.07470: AVG IPC :1.00320: L2-Pf-HR :0.85709: L2-HR :0.81599: (Sim:0h23m54s) 
CPU  1 inst:   36000004 cyc:   34249409 now IPC :1.06162: AVG IPC :1.02204: L2-Pf-HR :0.85205: L2-HR :0.81440: (Sim:0h24m8s) 
CPU  2 inst:   35000004 cyc:   34394910 now IPC :1.17216: AVG IPC :0.98764: L2-Pf-HR :0.86064: L2-HR :0.81858: (Sim:0h24m13s) 
CPU  3 inst:   36000004 cyc:   34586166 now IPC :1.06647: AVG IPC :1.01180: L2-Pf-HR :0.85680: L2-HR :0.81629: (Sim:0h24m19s) 
CPU  0 inst:   36000004 cyc:   34759648 now IPC :1.13245: AVG IPC :1.00658: L2-Pf-HR :0.85887: L2-HR :0.81712: (Sim:0h24m25s) 
CPU  1 inst:   37000005 cyc:   35263062 now IPC :0.98653: AVG IPC :1.02099: L2-Pf-HR :0.85068: L2-HR :0.81324: (Sim:0h24m40s) 
CPU  2 inst:   36000004 cyc:   35430904 now IPC :0.96526: AVG IPC :0.98697: L2-Pf-HR :0.86228: L2-HR :0.81954: (Sim:0h24m44s) 
CPU  3 inst:   37000005 cyc:   35765088 now IPC :0.84823: AVG IPC :1.00626: L2-Pf-HR :0.85582: L2-HR :0.81530: (Sim:0h24m52s) 
CPU  0 inst:   37000005 cyc:   36094400 now IPC :0.74920: AVG IPC :0.99679: L2-Pf-HR :0.85803: L2-HR :0.81629: (Sim:0h25m0s) 
CPU  1 inst:   38000005 cyc:   36535788 now IPC :0.78572: AVG IPC :1.01256: L2-Pf-HR :0.84910: L2-HR :0.81279: (Sim:0h25m11s) 
CPU  2 inst:   37000005 cyc:   36803707 now IPC :0.72844: AVG IPC :0.97706: L2-Pf-HR :0.86106: L2-HR :0.81843: (Sim:0h25m19s) 
CPU  3 inst:   38000005 cyc:   37021507 now IPC :0.79591: AVG IPC :0.99892: L2-Pf-HR :0.85452: L2-HR :0.81490: (Sim:0h25m24s) 
CPU  0 inst:   38000005 cyc:   37427873 now IPC :0.74992: AVG IPC :0.98776: L2-Pf-HR :0.85679: L2-HR :0.81597: (Sim:0h25m35s) 
CPU  1 inst:   39000004 cyc:   37690670 now IPC :0.86589: AVG IPC :1.00795: L2-Pf-HR :0.84979: L2-HR :0.81364: (Sim:0h25m43s) 
CPU  2 inst:   38000005 cyc:   37997066 now IPC :0.83797: AVG IPC :0.97258: L2-Pf-HR :0.85981: L2-HR :0.81820: (Sim:0h25m52s) 
CPU  3 inst:   39000004 cyc:   38023750 now IPC :0.99776: AVG IPC :0.99889: L2-Pf-HR :0.85511: L2-HR :0.81584: (Sim:0h25m53s) 
CPU  0 inst:   39000004 cyc:   38445037 now IPC :0.98312: AVG IPC :0.98763: L2-Pf-HR :0.85723: L2-HR :0.81682: (Sim:0h26m8s) 
CPU  1 inst:   40000002 cyc:   38620738 now IPC :1.07519: AVG IPC :1.00961: L2-Pf-HR :0.85177: L2-HR :0.81526: (Sim:0h26m14s) 
CPU  2 inst:   39000004 cyc:   38828919 now IPC :1.20213: AVG IPC :0.97762: L2-Pf-HR :0.86064: L2-HR :0.81929: (Sim:0h26m22s) 
CPU  3 inst:   40000002 cyc:   38883817 now IPC :1.16270: AVG IPC :1.00261: L2-Pf-HR :0.85672: L2-HR :0.81719: (Sim:0h26m25s) 
CPU  0 inst:   40000002 cyc:   39349586 now IPC :1.10552: AVG IPC :0.99041: L2-Pf-HR :0.85867: L2-HR :0.81786: (Sim:0h26m44s) 
CPU  1 inst:   41000005 cyc:   39636787 now IPC :0.98421: AVG IPC :1.00894: L2-Pf-HR :0.85089: L2-HR :0.81432: (Sim:0h26m53s) 
CPU  2 inst:   40000002 cyc:   39750655 now IPC :1.08491: AVG IPC :0.98017: L2-Pf-HR :0.86149: L2-HR :0.81988: (Sim:0h26m56s) 
CPU  3 inst:   41000005 cyc:   39970133 now IPC :0.92055: AVG IPC :1.00032: L2-Pf-HR :0.85617: L2-HR :0.81645: (Sim:0h27m2s) 
CPU  0 inst:   41000005 cyc:   40501490 now IPC :0.86813: AVG IPC :0.98685: L2-Pf-HR :0.85792: L2-HR :0.81702: (Sim:0h27m16s) 
CPU  1 inst:   42000001 cyc:   40876515 now IPC :0.80663: AVG IPC :1.00266: L2-Pf-HR :0.84924: L2-HR :0.81352: (Sim:0h27m26s) 
CPU  2 inst:   41000005 cyc:   41127283 now IPC :0.72641: AVG IPC :0.97147: L2-Pf-HR :0.86107: L2-HR :0.81921: (Sim:0h27m33s) 
CPU  3 inst:   42000001 cyc:   41172034 now IPC :0.83201: AVG IPC :0.99529: L2-Pf-HR :0.85509: L2-HR :0.81604: (Sim:0h27m34s) 
CPU  0 inst:   42000001 cyc:   41885362 now IPC :0.72261: AVG IPC :0.97791: L2-Pf-HR :0.85671: L2-HR :0.81644: (Sim:0h27m54s) 
CPU  1 inst:   43000005 cyc:   42021988 now IPC :0.87301: AVG IPC :0.99904: L2-Pf-HR :0.85059: L2-HR :0.81475: (Sim:0h27m58s) 
CPU  3 inst:   43000005 cyc:   42288369 now IPC :0.89579: AVG IPC :0.99260: L2-Pf-HR :0.85523: L2-HR :0.81656: (Sim:0h28m7s) 
CPU  2 inst:   42000001 cyc:   42363275 now IPC :0.80906: AVG IPC :0.96662: L2-Pf-HR :0.85934: L2-HR :0.81842: (Sim:0h28m9s) 
CPU  0 inst:   43000005 cyc:   42851873 now IPC :1.03465: AVG IPC :0.97922: L2-Pf-HR :0.85753: L2-HR :0.81740: (Sim:0h28m26s) 
CPU  1 inst:   44000002 cyc:   43036127 now IPC :0.98606: AVG IPC :0.99872: L2-Pf-HR :0.85207: L2-HR :0.81545: (Sim:0h28m33s) 
CPU  2 inst:   43000005 cyc:   43187472 now IPC :1.21331: AVG IPC :0.97144: L2-Pf-HR :0.86058: L2-HR :0.81966: (Sim:0h28m38s) 
CPU  3 inst:   44000002 cyc:   43223251 now IPC :1.06965: AVG IPC :0.99430: L2-Pf-HR :0.85667: L2-HR :0.81742: (Sim:0h28m39s) 
CPU  0 inst:   44000002 cyc:   43857817 now IPC :0.99409: AVG IPC :0.97957: L2-Pf-HR :0.85912: L2-HR :0.81822: (Sim:0h28m59s) 
CPU  1 inst:   45000000 cyc:   44071885 now IPC :0.96547: AVG IPC :0.99792: L2-Pf-HR :0.85126: L2-HR :0.81460: (Sim:0h29m6s) 
CPU  2 inst:   44000002 cyc:   44148329 now IPC :1.04073: AVG IPC :0.97298: L2-Pf-HR :0.86143: L2-HR :0.81995: (Sim:0h29m9s) 
CPU  3 inst:   45000000 cyc:   44222948 now IPC :1.00030: AVG IPC :0.99444: L2-Pf-HR :0.85640: L2-HR :0.81691: (Sim:0h29m11s) 
CPU  0 inst:   45000000 cyc:   45065307 now IPC :0.82816: AVG IPC :0.97542: L2-Pf-HR :0.85867: L2-HR :0.81761: (Sim:0h29m37s) 
CPU  1 inst:   46000004 cyc:   45244967 now IPC :0.85246: AVG IPC :0.99407: L2-Pf-HR :0.85003: L2-HR :0.81404: (Sim:0h29m43s) 
CPU  3 inst:   46000004 cyc:   45400958 now IPC :0.84889: AVG IPC :0.99058: L2-Pf-HR :0.85473: L2-HR :0.81613: (Sim:0h29m48s) 
CPU  2 inst:   45000000 cyc:   45413964 now IPC :0.79012: AVG IPC :0.96777: L2-Pf-HR :0.86093: L2-HR :0.81940: (Sim:0h29m49s) 
CPU  1 inst:   47000000 cyc:   46302773 now IPC :0.94535: AVG IPC :0.99293: L2-Pf-HR :0.85095: L2-HR :0.81505: (Sim:0h30m21s) 
CPU  0 inst:   46000004 cyc:   46433845 now IPC :0.73071: AVG IPC :0.96805: L2-Pf-HR :0.85700: L2-HR :0.81681: (Sim:0h30m28s) 
CPU  3 inst:   47000000 cyc:   46497912 now IPC :0.91161: AVG IPC :0.98868: L2-Pf-HR :0.85534: L2-HR :0.81695: (Sim:0h30m31s) 
CPU  2 inst:   46000004 cyc:   46665170 now IPC :0.79923: AVG IPC :0.96315: L2-Pf-HR :0.85967: L2-HR :0.81886: (Sim:0h30m39s) 
CPU  1 inst:   48000004 cyc:   47278874 now IPC :1.02449: AVG IPC :0.99360: L2-Pf-HR :0.85269: L2-HR :0.81609: (Sim:0h31m0s) 
CPU  0 inst:   47000000 cyc:   47363161 now IPC :1.07606: AVG IPC :0.97022: L2-Pf-HR :0.85753: L2-HR :0.81756: (Sim:0h31m3s) 
CPU  3 inst:   48000004 cyc:   47453042 now IPC :1.04698: AVG IPC :0.98988: L2-Pf-HR :0.85685: L2-HR :0.81785: (Sim:0h31m7s) 
CPU  2 inst:   47000000 cyc:   47515915 now IPC :1.17544: AVG IPC :0.96704: L2-Pf-HR :0.85998: L2-HR :0.81951: (Sim:0h31m10s) 
CPU  0 inst:   48000004 cyc:   48259562 now IPC :1.11558: AVG IPC :0.97297: L2-Pf-HR :0.85896: L2-HR :0.81859: (Sim:0h31m37s) 
CPU  1 inst:   49000002 cyc:   48277345 now IPC :1.00153: AVG IPC :0.99377: L2-Pf-HR :0.85275: L2-HR :0.81576: (Sim:0h31m38s) 
CPU  2 inst:   48000004 cyc:   48411044 now IPC :1.11716: AVG IPC :0.96987: L2-Pf-HR :0.86109: L2-HR :0.82027: (Sim:0h31m43s) 
CPU  3 inst:   49000002 cyc:   48425013 now IPC :1.02884: AVG IPC :0.99068: L2-Pf-HR :0.85669: L2-HR :0.81744: (Sim:0h31m44s) 
CPU  0 inst:   49000002 cyc:   49416477 now IPC :0.86437: AVG IPC :0.97038: L2-Pf-HR :0.85864: L2-HR :0.81812: (Sim:0h32m27s) 
CPU  1 inst:   50000003 cyc:   49451862 now IPC :0.85141: AVG IPC :0.99032: L2-Pf-HR :0.85167: L2-HR :0.81507: (Sim:0h32m29s) 
CPU  2 inst:   49000002 cyc:   49543723 now IPC :0.88286: AVG IPC :0.96784: L2-Pf-HR :0.86070: L2-HR :0.81977: (Sim:0h32m34s) 
CPU  3 inst:   50000003 cyc:   49585459 now IPC :0.86174: AVG IPC :0.98760: L2-Pf-HR :0.85485: L2-HR :0.81637: (Sim:0h32m36s) 
CPU  1 inst:   51000005 cyc:   50580727 now IPC :0.88585: AVG IPC :0.98794: L2-Pf-HR :0.85233: L2-HR :0.81567: (Sim:0h33m17s) 
CPU  3 inst:   51000000 cyc:   50667341 now IPC :0.92431: AVG IPC :0.98622: L2-Pf-HR :0.85569: L2-HR :0.81735: (Sim:0h33m21s) 
CPU  0 inst:   50000003 cyc:   50689909 now IPC :0.78528: AVG IPC :0.96564: L2-Pf-HR :0.85716: L2-HR :0.81726: (Sim:0h33m22s) 
CPU  2 inst:   50000003 cyc:   50823220 now IPC :0.78156: AVG IPC :0.96306: L2-Pf-HR :0.85984: L2-HR :0.81903: (Sim:0h33m29s) 
CPU  1 inst:   52000002 cyc:   51538729 now IPC :1.04384: AVG IPC :0.98900: L2-Pf-HR :0.85362: L2-HR :0.81660: (Sim:0h34m5s) 
CPU  0 inst:   51000004 cyc:   51568625 now IPC :1.13803: AVG IPC :0.96863: L2-Pf-HR :0.85777: L2-HR :0.81812: (Sim:0h34m7s) 
CPU  3 inst:   52000002 cyc:   51644166 now IPC :1.02373: AVG IPC :0.98694: L2-Pf-HR :0.85607: L2-HR :0.81786: (Sim:0h34m11s) 
CPU  2 inst:   51000005 cyc:   51692874 now IPC :1.14988: AVG IPC :0.96626: L2-Pf-HR :0.86053: L2-HR :0.81981: (Sim:0h34m14s) 
CPU  0 inst:   52000002 cyc:   52518352 now IPC :1.05293: AVG IPC :0.97018: L2-Pf-HR :0.85822: L2-HR :0.81860: (Sim:0h34m53s) 
CPU  1 inst:   53000004 cyc:   52543562 now IPC :0.99519: AVG IPC :0.98912: L2-Pf-HR :0.85371: L2-HR :0.81644: (Sim:0h34m54s) 
CPU  3 inst:   53000004 cyc:   52608524 now IPC :1.03696: AVG IPC :0.98788: L2-Pf-HR :0.85606: L2-HR :0.81768: (Sim:0h34m58s) 
CPU  2 inst:   52000002 cyc:   52641300 now IPC :1.05438: AVG IPC :0.96788: L2-Pf-HR :0.86125: L2-HR :0.82019: (Sim:0h34m59s) 
CPU  0 inst:   53000004 cyc:   53684917 now IPC :0.85722: AVG IPC :0.96768: L2-Pf-HR :0.85832: L2-HR :0.81840: (Sim:0h35m42s) 
CPU  2 inst:   53000004 cyc:   53831817 now IPC :0.83997: AVG IPC :0.96500: L2-Pf-HR :0.86132: L2-HR :0.81990: (Sim:0h35m48s) 
CPU  1 inst:   54000005 cyc:   53846349 now IPC :0.76759: AVG IPC :0.98366: L2-Pf-HR :0.85223: L2-HR :0.81539: (Sim:0h35m49s) 
CPU  3 inst:   54000005 cyc:   53917348 now IPC :0.76405: AVG IPC :0.98234: L2-Pf-HR :0.85457: L2-HR :0.81665: (Sim:0h35m52s) 
CPU  1 inst:   55000001 cyc:   54909339 now IPC :0.94074: AVG IPC :0.98281: L2-Pf-HR :0.85268: L2-HR :0.81611: (Sim:0h36m33s) 
CPU  0 inst:   54000005 cyc:   55011946 now IPC :0.75356: AVG IPC :0.96242: L2-Pf-HR :0.85677: L2-HR :0.81735: (Sim:0h36m39s) 
CPU  3 inst:   55000001 cyc:   55054894 now IPC :0.87908: AVG IPC :0.98017: L2-Pf-HR :0.85514: L2-HR :0.81741: (Sim:0h36m41s) 
CPU  2 inst:   54000005 cyc:   55127860 now IPC :0.77158: AVG IPC :0.96037: L2-Pf-HR :0.85981: L2-HR :0.81888: (Sim:0h36m45s) 
CPU  1 inst:   56000001 cyc:   55816598 now IPC :1.10222: AVG IPC :0.98479: L2-Pf-HR :0.85396: L2-HR :0.81706: (Sim:0h37m22s) 
CPU  0 inst:   55000001 cyc:   55824666 now IPC :1.23043: AVG IPC :0.96640: L2-Pf-HR :0.85701: L2-HR :0.81803: (Sim:0h37m22s) 
CPU  3 inst:   56000001 cyc:   55946921 now IPC :1.12104: AVG IPC :0.98246: L2-Pf-HR :0.85619: L2-HR :0.81815: (Sim:0h37m28s) 
CPU  2 inst:   55000001 cyc:   55975127 now IPC :1.18026: AVG IPC :0.96376: L2-Pf-HR :0.86104: L2-HR :0.81982: (Sim:0h37m30s) 
CPU  0 inst:   56000001 cyc:   56697648 now IPC :1.14550: AVG IPC :0.96920: L2-Pf-HR :0.85765: L2-HR :0.81840: (Sim:0h38m8s) 
CPU  1 inst:   57000004 cyc:   56719198 now IPC :1.10791: AVG IPC :0.98678: L2-Pf-HR :0.85437: L2-HR :0.81714: (Sim:0h38m9s) 
CPU  3 inst:   57000004 cyc:   56852330 now IPC :1.10448: AVG IPC :0.98443: L2-Pf-HR :0.85648: L2-HR :0.81821: (Sim:0h38m16s) 
CPU  2 inst:   56000001 cyc:   56897598 now IPC :1.08404: AVG IPC :0.96574: L2-Pf-HR :0.86193: L2-HR :0.81981: (Sim:0h38m18s) 
CPU  0 inst:   57000004 cyc:   57786969 now IPC :0.91801: AVG IPC :0.96822: L2-Pf-HR :0.85778: L2-HR :0.81852: (Sim:0h38m55s) 
CPU  1 inst:   58000004 cyc:   57927041 now IPC :0.82792: AVG IPC :0.98341: L2-Pf-HR :0.85316: L2-HR :0.81626: (Sim:0h39m1s) 
CPU  3 inst:   58000004 cyc:   58153822 now IPC :0.76835: AVG IPC :0.97952: L2-Pf-HR :0.85481: L2-HR :0.81706: (Sim:0h39m10s) 
CPU  2 inst:   57000004 cyc:   58165636 now IPC :0.78862: AVG IPC :0.96181: L2-Pf-HR :0.86215: L2-HR :0.81970: (Sim:0h39m11s) 
CPU  1 inst:   59000004 cyc:   59028183 now IPC :0.90815: AVG IPC :0.98198: L2-Pf-HR :0.85386: L2-HR :0.81690: (Sim:0h39m49s) 
CPU  0 inst:   58000004 cyc:   59218133 now IPC :0.69873: AVG IPC :0.96160: L2-Pf-HR :0.85618: L2-HR :0.81742: (Sim:0h39m57s) 
CPU  3 inst:   59000004 cyc:   59249846 now IPC :0.91239: AVG IPC :0.97825: L2-Pf-HR :0.85491: L2-HR :0.81745: (Sim:0h39m59s) 
CPU  2 inst:   58000004 cyc:   59668931 now IPC :0.66521: AVG IPC :0.95421: L2-Pf-HR :0.86042: L2-HR :0.81859: (Sim:0h40m20s) 
CPU  1 inst:   60000005 cyc:   60129637 now IPC :0.90789: AVG IPC :0.98060: L2-Pf-HR :0.85483: L2-HR :0.81772: (Sim:0h40m36s) 
CPU  0 inst:   59000004 cyc:   60183163 now IPC :1.03624: AVG IPC :0.96281: L2-Pf-HR :0.85692: L2-HR :0.81804: (Sim:0h40m38s) 
CPU  3 inst:   60000005 cyc:   60201064 now IPC :1.05128: AVG IPC :0.97943: L2-Pf-HR :0.85583: L2-HR :0.81832: (Sim:0h40m40s) 
CPU  2 inst:   59000004 cyc:   60654123 now IPC :1.01503: AVG IPC :0.95522: L2-Pf-HR :0.86151: L2-HR :0.81943: (Sim:0h41m3s) 
CPU  0 inst:   60000003 cyc:   61079892 now IPC :1.11516: AVG IPC :0.96509: L2-Pf-HR :0.85769: L2-HR :0.81872: (Sim:0h41m25s) 
CPU  1 inst:   61000002 cyc:   61193240 now IPC :0.94020: AVG IPC :0.97989: L2-Pf-HR :0.85533: L2-HR :0.81773: (Sim:0h41m31s) 
CPU  3 inst:   61000002 cyc:   61230752 now IPC :0.97117: AVG IPC :0.97928: L2-Pf-HR :0.85616: L2-HR :0.81830: (Sim:0h41m33s) 
CPU  2 inst:   60000005 cyc:   61609074 now IPC :1.04718: AVG IPC :0.95667: L2-Pf-HR :0.86246: L2-HR :0.81990: (Sim:0h41m52s) 
CPU  0 inst:   61000002 cyc:   62100148 now IPC :0.98015: AVG IPC :0.96534: L2-Pf-HR :0.85833: L2-HR :0.81891: (Sim:0h42m13s) 
CPU  1 inst:   62000001 cyc:   62370074 now IPC :0.84974: AVG IPC :0.97740: L2-Pf-HR :0.85381: L2-HR :0.81652: (Sim:0h42m23s) 
CPU  3 inst:   62000001 cyc:   62424748 now IPC :0.83752: AVG IPC :0.97653: L2-Pf-HR :0.85454: L2-HR :0.81716: (Sim:0h42m26s) 
CPU  2 inst:   61000002 cyc:   62792828 now IPC :0.84477: AVG IPC :0.95452: L2-Pf-HR :0.86310: L2-HR :0.81990: (Sim:0h42m40s) 
CPU  1 inst:   63000003 cyc:   63299251 now IPC :1.07622: AVG IPC :0.97887: L2-Pf-HR :0.85473: L2-HR :0.81737: (Sim:0h43m1s) 
CPU  0 inst:   62000001 cyc:   63428464 now IPC :0.75283: AVG IPC :0.96082: L2-Pf-HR :0.85659: L2-HR :0.81771: (Sim:0h43m6s) 
CPU  3 inst:   63000003 cyc:   63449088 now IPC :0.97624: AVG IPC :0.97652: L2-Pf-HR :0.85541: L2-HR :0.81792: (Sim:0h43m7s) 
CPU  2 inst:   62000001 cyc:   64195593 now IPC :0.71288: AVG IPC :0.94916: L2-Pf-HR :0.86146: L2-HR :0.81874: (Sim:0h43m43s) 
CPU  1 inst:   64000000 cyc:   64393027 now IPC :0.91426: AVG IPC :0.97776: L2-Pf-HR :0.85555: L2-HR :0.81771: (Sim:0h43m54s) 
CPU  0 inst:   63000003 cyc:   64495216 now IPC :0.93743: AVG IPC :0.96043: L2-Pf-HR :0.85693: L2-HR :0.81828: (Sim:0h43m59s) 
CPU  3 inst:   64000001 cyc:   64529872 now IPC :0.92525: AVG IPC :0.97565: L2-Pf-HR :0.85592: L2-HR :0.81826: (Sim:0h44m0s) 
CPU  2 inst:   63000003 cyc:   65207583 now IPC :0.98815: AVG IPC :0.94978: L2-Pf-HR :0.86154: L2-HR :0.81916: (Sim:0h44m38s) 
CPU  1 inst:   65000000 cyc:   65432490 now IPC :0.96204: AVG IPC :0.97750: L2-Pf-HR :0.85601: L2-HR :0.81786: (Sim:0h44m49s) 
CPU  0 inst:   64000002 cyc:   65485469 now IPC :1.00984: AVG IPC :0.96118: L2-Pf-HR :0.85759: L2-HR :0.81889: (Sim:0h44m52s) 
CPU  3 inst:   65000000 cyc:   65566944 now IPC :0.96425: AVG IPC :0.97547: L2-Pf-HR :0.85643: L2-HR :0.81835: (Sim:0h44m56s) 
CPU  2 inst:   64000002 cyc:   66222903 now IPC :0.98491: AVG IPC :0.95032: L2-Pf-HR :0.86206: L2-HR :0.81978: (Sim:0h45m32s) 
CPU  0 inst:   65000000 cyc:   66515372 now IPC :0.97096: AVG IPC :0.96134: L2-Pf-HR :0.85847: L2-HR :0.81942: (Sim:0h45m44s) 
CPU  2 inst:   65000000 cyc:   67449004 now IPC :0.81559: AVG IPC :0.94784: L2-Pf-HR :0.86310: L2-HR :0.82043: (Sim:0h46m13s) 
CPU  1 inst:   66000004 cyc:   67906034 now IPC :0.40428: AVG IPC :0.95631: L2-Pf-HR :0.85309: L2-HR :0.81313: (Sim:0h46m27s) 
CPU  3 inst:   66000004 cyc:   68241313 now IPC :0.37392: AVG IPC :0.95155: L2-Pf-HR :0.85318: L2-HR :0.81341: (Sim:0h46m36s) 
CPU  0 inst:   66000004 cyc:   71476941 now IPC :0.20155: AVG IPC :0.90786: L2-Pf-HR :0.85567: L2-HR :0.81468: (Sim:0h47m56s) 
CPU  2 inst:   66000002 cyc:   74707519 now IPC :0.13777: AVG IPC :0.86808: L2-Pf-HR :0.86000: L2-HR :0.81550: (Sim:0h49m30s) 
CPU  1 inst:   67000003 cyc:   86073476 now IPC :0.05504: AVG IPC :0.76389: L2-Pf-HR :0.82481: L2-HR :0.78327: (Sim:0h56m2s) 
CPU  3 inst:   67000003 cyc:   86483701 now IPC :0.05482: AVG IPC :0.76022: L2-Pf-HR :0.82485: L2-HR :0.78352: (Sim:0h56m16s) 
CPU  0 inst:   67000001 cyc:   92287670 now IPC :0.04805: AVG IPC :0.71189: L2-Pf-HR :0.82772: L2-HR :0.78464: (Sim:0h59m44s) 
CPU  2 inst:   67000003 cyc:   96580525 now IPC :0.04572: AVG IPC :0.67992: L2-Pf-HR :0.83132: L2-HR :0.78516: (Sim:1h2m37s) 
CPU  1 inst:   68000002 cyc:  107937827 now IPC :0.04574: AVG IPC :0.61708: L2-Pf-HR :0.79985: L2-HR :0.75943: (Sim:1h9m52s) 
CPU  3 inst:   68000002 cyc:  108246951 now IPC :0.04595: AVG IPC :0.61530: L2-Pf-HR :0.79978: L2-HR :0.75965: (Sim:1h10m4s) 
CPU  0 inst:   68000005 cyc:  114094815 now IPC :0.04586: AVG IPC :0.58348: L2-Pf-HR :0.80250: L2-HR :0.76069: (Sim:1h13m57s) 
CPU  2 inst:   68000002 cyc:  116546037 now IPC :0.05009: AVG IPC :0.57111: L2-Pf-HR :0.80541: L2-HR :0.76102: (Sim:1h15m20s) 
CPU  1 inst:   69000000 cyc:  119093133 now IPC :0.08964: AVG IPC :0.56726: L2-Pf-HR :0.78833: L2-HR :0.75075: (Sim:1h16m57s) 
CPU  3 inst:   69000000 cyc:  119167911 now IPC :0.09157: AVG IPC :0.56691: L2-Pf-HR :0.78826: L2-HR :0.75097: (Sim:1h17m0s) 
Caught signal: 2
     > Finished combination: TraceType=770-tot Sim:162000000 Prefetcher=L2bingo_dpc3_PHT1k L1=bingo_dpc3_PHT1k
