TRACE: [331000000][Pythia-70M]_[h8][s1024][d64] Warmup: 2000000 NumTraces: 331000000
L1:no:L2:spp_berti_src
Initialize SIGNATURE TABLE
ST_SET: 1
ST_WAY: 256
ST_TAG_BIT: 16
ST_TAG_MASK: ffff

Initialize PATTERN TABLE
PT_SET: 512
PT_WAY: 4
SIG_DELTA_BIT: 7
C_SIG_BIT: 4
C_DELTA_BIT: 4

Initialize PREFETCH FILTER
FILTER_SET: 1024
*************************************************
   ChampSim Multicore Out-of-Order Simulator
   Last compiled: Oct 29 2024 17:02:08
*************************************************

trace_0 770-tot_memTraces_v3_rexz/memTraces[331000000][Pythia-70M]_[h8][s1024][d64].champsim.9.xz
trace_1 770-tot_memTraces_v3_rexz/memTraces[331000000][Pythia-70M]_[h8][s1024][d64].champsim.9.xz
trace_2 770-tot_memTraces_v3_rexz/memTraces[331000000][Pythia-70M]_[h8][s1024][d64].champsim.9.xz
trace_3 770-tot_memTraces_v3_rexz/memTraces[331000000][Pythia-70M]_[h8][s1024][d64].champsim.9.xz
ST_WAYS: 256
PT_SETS: 512
ST_WAYS: 256
PT_SETS: 512
ST_WAYS: 256
PT_SETS: 512
ST_WAYS: 256
PT_SETS: 512
MAIN.cc ln 751 stats print skipped
CPU  3 inst:    1000000 cyc:     499518 now IPC :2.00193: AVG IPC :2.00193: L2-Pf-HR :0.97985: L2-HR :0.87372: (Sim:0h0m46s) 
CPU  2 inst:    1000000 cyc:     500358 now IPC :1.99857: AVG IPC :1.99857: L2-Pf-HR :0.97839: L2-HR :0.87353: (Sim:0h0m47s) 
CPU  0 inst:    1000000 cyc:     500404 now IPC :1.99839: AVG IPC :1.99839: L2-Pf-HR :0.97893: L2-HR :0.87489: (Sim:0h0m47s) 
CPU  1 inst:    1000000 cyc:     500440 now IPC :1.99824: AVG IPC :1.99824: L2-Pf-HR :0.97861: L2-HR :0.87361: (Sim:0h0m47s) 
CPU  3 inst:    2000003 cyc:     983547 now IPC :2.06600: AVG IPC :2.03346: L2-Pf-HR :0.98902: L2-HR :0.90976: (Sim:0h1m31s) 
CPU  2 inst:    2000003 cyc:     984383 now IPC :2.06602: AVG IPC :2.03173: L2-Pf-HR :0.98839: L2-HR :0.90968: (Sim:0h1m31s) 
CPU  0 inst:    2000003 cyc:     984430 now IPC :2.06601: AVG IPC :2.03164: L2-Pf-HR :0.98833: L2-HR :0.91082: (Sim:0h1m31s) 
CPU  1 inst:    2000003 cyc:     984482 now IPC :2.06594: AVG IPC :2.03153: L2-Pf-HR :0.98777: L2-HR :0.90921: (Sim:0h1m31s) 

Warmup complete CPU  0 instructions:    2000263 cycles:     984482 (Simulation time: 0 hr 1 min 31 sec) 
Warmup complete CPU  1 instructions:    2000003 cycles:     984482 (Simulation time: 0 hr 1 min 31 sec) 
Warmup complete CPU  2 instructions:    2000283 cycles:     984481 (Simulation time: 0 hr 1 min 31 sec) 
Warmup complete CPU  3 instructions:    2002058 cycles:     984481 (Simulation time: 0 hr 1 min 31 sec) 

CPU  2 inst:    3000004 cyc:    1689785 now IPC :1.41763: AVG IPC :1.41743: L2-Pf-HR :0.99773: L2-HR :0.93711: (Sim:0h2m13s) 
CPU  1 inst:    3000004 cyc:    1690461 now IPC :1.41647: AVG IPC :1.41647: L2-Pf-HR :0.99756: L2-HR :0.93612: (Sim:0h2m13s) 
CPU  0 inst:    3000004 cyc:    1691707 now IPC :1.41387: AVG IPC :1.41361: L2-Pf-HR :0.99784: L2-HR :0.93862: (Sim:0h2m14s) 
CPU  3 inst:    3000004 cyc:    1692858 now IPC :1.40982: AVG IPC :1.40878: L2-Pf-HR :0.99776: L2-HR :0.93678: (Sim:0h2m14s) 
CPU  2 inst:    4000002 cyc:    2413286 now IPC :1.38217: AVG IPC :1.39957: L2-Pf-HR :0.99773: L2-HR :0.93802: (Sim:0h2m56s) 
CPU  3 inst:    4000001 cyc:    2416769 now IPC :1.38138: AVG IPC :1.39493: L2-Pf-HR :0.99775: L2-HR :0.93770: (Sim:0h2m56s) 
CPU  0 inst:    4000002 cyc:    2416800 now IPC :1.37913: AVG IPC :1.39616: L2-Pf-HR :0.99780: L2-HR :0.93902: (Sim:0h2m56s) 
CPU  1 inst:    4000002 cyc:    2417216 now IPC :1.37598: AVG IPC :1.39593: L2-Pf-HR :0.99761: L2-HR :0.93715: (Sim:0h2m56s) 
CPU  1 inst:    5000000 cyc:    3084825 now IPC :1.49788: AVG IPC :1.42834: L2-Pf-HR :0.99751: L2-HR :0.93439: (Sim:0h3m39s) 
CPU  0 inst:    5000000 cyc:    3086883 now IPC :1.49235: AVG IPC :1.42681: L2-Pf-HR :0.99773: L2-HR :0.93629: (Sim:0h3m39s) 
CPU  2 inst:    5000000 cyc:    3088127 now IPC :1.48183: AVG IPC :1.42596: L2-Pf-HR :0.99760: L2-HR :0.93520: (Sim:0h3m39s) 
CPU  3 inst:    5000000 cyc:    3088914 now IPC :1.48777: AVG IPC :1.42458: L2-Pf-HR :0.99760: L2-HR :0.93472: (Sim:0h3m39s) 
CPU  3 inst:    6000005 cyc:    3636504 now IPC :1.82619: AVG IPC :1.50751: L2-Pf-HR :0.99754: L2-HR :0.93451: (Sim:0h4m19s) 
CPU  2 inst:    6000005 cyc:    3637718 now IPC :1.81954: AVG IPC :1.50749: L2-Pf-HR :0.99752: L2-HR :0.93483: (Sim:0h4m19s) 
CPU  1 inst:    6000005 cyc:    3638370 now IPC :1.80655: AVG IPC :1.50722: L2-Pf-HR :0.99744: L2-HR :0.93409: (Sim:0h4m19s) 
CPU  0 inst:    6000005 cyc:    3638897 now IPC :1.81156: AVG IPC :1.50683: L2-Pf-HR :0.99760: L2-HR :0.93583: (Sim:0h4m19s) 
CPU  1 inst:    7000001 cyc:    4683928 now IPC :0.95642: AVG IPC :1.35155: L2-Pf-HR :0.99508: L2-HR :0.92850: (Sim:0h5m10s) 
CPU  3 inst:    7000001 cyc:    4683929 now IPC :0.95472: AVG IPC :1.35100: L2-Pf-HR :0.99540: L2-HR :0.92874: (Sim:0h5m10s) 
CPU  0 inst:    7000001 cyc:    4687484 now IPC :0.95366: AVG IPC :1.35019: L2-Pf-HR :0.99542: L2-HR :0.93000: (Sim:0h5m11s) 
CPU  2 inst:    7000001 cyc:    4715898 now IPC :0.92749: AVG IPC :1.33990: L2-Pf-HR :0.99523: L2-HR :0.92868: (Sim:0h5m13s) 
CPU  3 inst:    8000001 cyc:    5514481 now IPC :1.20402: AVG IPC :1.32405: L2-Pf-HR :0.99277: L2-HR :0.92317: (Sim:0h5m58s) 
CPU  1 inst:    8000001 cyc:    5556341 now IPC :1.14625: AVG IPC :1.31238: L2-Pf-HR :0.99280: L2-HR :0.92343: (Sim:0h6m0s) 
CPU  0 inst:    8000001 cyc:    5572441 now IPC :1.13000: AVG IPC :1.30771: L2-Pf-HR :0.99336: L2-HR :0.92488: (Sim:0h6m2s) 
CPU  2 inst:    8000001 cyc:    5656106 now IPC :1.06359: AVG IPC :1.28429: L2-Pf-HR :0.99273: L2-HR :0.92337: (Sim:0h6m7s) 
CPU  1 inst:    9000001 cyc:    6301591 now IPC :1.34183: AVG IPC :1.31650: L2-Pf-HR :0.99078: L2-HR :0.92000: (Sim:0h6m49s) 
CPU  0 inst:    9000001 cyc:    6330923 now IPC :1.31842: AVG IPC :1.30923: L2-Pf-HR :0.99113: L2-HR :0.92085: (Sim:0h6m51s) 
CPU  3 inst:    9000001 cyc:    6330985 now IPC :1.22473: AVG IPC :1.30888: L2-Pf-HR :0.99052: L2-HR :0.91970: (Sim:0h6m51s) 
CPU  2 inst:    9000001 cyc:    6514890 now IPC :1.16444: AVG IPC :1.26568: L2-Pf-HR :0.99009: L2-HR :0.91910: (Sim:0h7m3s) 
CPU  3 inst:   10000001 cyc:    7067834 now IPC :1.35713: AVG IPC :1.31473: L2-Pf-HR :0.98901: L2-HR :0.91909: (Sim:0h7m39s) 
CPU  1 inst:   10000001 cyc:    7079465 now IPC :1.28556: AVG IPC :1.31255: L2-Pf-HR :0.98900: L2-HR :0.91943: (Sim:0h7m39s) 
CPU  0 inst:   10000001 cyc:    7080116 now IPC :1.33477: AVG IPC :1.31237: L2-Pf-HR :0.98941: L2-HR :0.91980: (Sim:0h7m39s) 
CPU  2 inst:   10000001 cyc:    7316619 now IPC :1.24730: AVG IPC :1.26335: L2-Pf-HR :0.98916: L2-HR :0.91876: (Sim:0h7m54s) 
CPU  3 inst:   11000002 cyc:    7943215 now IPC :1.14236: AVG IPC :1.29304: L2-Pf-HR :0.98648: L2-HR :0.91713: (Sim:0h8m29s) 
CPU  0 inst:   11000002 cyc:    7943380 now IPC :1.15840: AVG IPC :1.29327: L2-Pf-HR :0.98648: L2-HR :0.91726: (Sim:0h8m29s) 
CPU  1 inst:   11000002 cyc:    7950545 now IPC :1.14800: AVG IPC :1.29198: L2-Pf-HR :0.98655: L2-HR :0.91797: (Sim:0h8m30s) 
CPU  2 inst:   11000002 cyc:    8032446 now IPC :1.39699: AVG IPC :1.27692: L2-Pf-HR :0.98573: L2-HR :0.91559: (Sim:0h8m34s) 
CPU  1 inst:   12000005 cyc:    8908613 now IPC :1.04377: AVG IPC :1.26197: L2-Pf-HR :0.98409: L2-HR :0.91641: (Sim:0h9m21s) 
CPU  3 inst:   12000005 cyc:    8947591 now IPC :0.99565: AVG IPC :1.25553: L2-Pf-HR :0.98385: L2-HR :0.91545: (Sim:0h9m24s) 
CPU  2 inst:   12000005 cyc:    8964213 now IPC :1.07323: AVG IPC :1.25314: L2-Pf-HR :0.98334: L2-HR :0.91405: (Sim:0h9m26s) 
CPU  0 inst:   12000005 cyc:    8974159 now IPC :0.97014: AVG IPC :1.25158: L2-Pf-HR :0.98404: L2-HR :0.91539: (Sim:0h9m27s) 
CPU  1 inst:   13000005 cyc:   10073475 now IPC :0.85847: AVG IPC :1.21026: L2-Pf-HR :0.98441: L2-HR :0.91735: (Sim:0h10m15s) 
CPU  3 inst:   13000005 cyc:   10286031 now IPC :0.74714: AVG IPC :1.18238: L2-Pf-HR :0.98345: L2-HR :0.91523: (Sim:0h10m27s) 
CPU  2 inst:   13000005 cyc:   10292868 now IPC :0.75264: AVG IPC :1.18170: L2-Pf-HR :0.98286: L2-HR :0.91437: (Sim:0h10m28s) 
CPU  0 inst:   13000005 cyc:   10298649 now IPC :0.75501: AVG IPC :1.18097: L2-Pf-HR :0.98348: L2-HR :0.91555: (Sim:0h10m28s) 
CPU  1 inst:   14000003 cyc:   11215796 now IPC :0.87541: AVG IPC :1.17287: L2-Pf-HR :0.98438: L2-HR :0.91796: (Sim:0h11m16s) 
CPU  0 inst:   14000003 cyc:   11233816 now IPC :1.06933: AVG IPC :1.17078: L2-Pf-HR :0.98373: L2-HR :0.91614: (Sim:0h11m17s) 
CPU  2 inst:   14000002 cyc:   11322888 now IPC :0.97085: AVG IPC :1.16069: L2-Pf-HR :0.98327: L2-HR :0.91544: (Sim:0h11m24s) 
CPU  3 inst:   14000005 cyc:   11355687 now IPC :0.93488: AVG IPC :1.15685: L2-Pf-HR :0.98388: L2-HR :0.91562: (Sim:0h11m26s) 
CPU  0 inst:   15000005 cyc:   12043553 now IPC :1.23497: AVG IPC :1.17548: L2-Pf-HR :0.98496: L2-HR :0.91802: (Sim:0h12m5s) 
CPU  1 inst:   15000005 cyc:   12109386 now IPC :1.11908: AVG IPC :1.16855: L2-Pf-HR :0.98556: L2-HR :0.92003: (Sim:0h12m7s) 
CPU  2 inst:   15000005 cyc:   12367751 now IPC :0.95707: AVG IPC :1.14200: L2-Pf-HR :0.98447: L2-HR :0.91734: (Sim:0h12m20s) 
CPU  3 inst:   15000005 cyc:   12401071 now IPC :0.95659: AVG IPC :1.13851: L2-Pf-HR :0.98499: L2-HR :0.91700: (Sim:0h12m22s) 
CPU  0 inst:   16000000 cyc:   12877298 now IPC :1.19940: AVG IPC :1.17716: L2-Pf-HR :0.98461: L2-HR :0.91858: (Sim:0h12m51s) 
CPU  1 inst:   16000000 cyc:   13013555 now IPC :1.10598: AVG IPC :1.16385: L2-Pf-HR :0.98564: L2-HR :0.92147: (Sim:0h13m0s) 
CPU  2 inst:   16000000 cyc:   13120579 now IPC :1.32832: AVG IPC :1.15356: L2-Pf-HR :0.98466: L2-HR :0.91879: (Sim:0h13m7s) 
CPU  3 inst:   16000000 cyc:   13124015 now IPC :1.38323: AVG IPC :1.15309: L2-Pf-HR :0.98499: L2-HR :0.91791: (Sim:0h13m7s) 
CPU  0 inst:   17000002 cyc:   14355950 now IPC :0.67629: AVG IPC :1.12177: L2-Pf-HR :0.98451: L2-HR :0.91738: (Sim:0h13m52s) 
CPU  1 inst:   17000002 cyc:   14673316 now IPC :0.60250: AVG IPC :1.09578: L2-Pf-HR :0.98548: L2-HR :0.92001: (Sim:0h14m8s) 
CPU  2 inst:   17000002 cyc:   14891704 now IPC :0.56461: AVG IPC :1.07856: L2-Pf-HR :0.98459: L2-HR :0.91754: (Sim:0h14m17s) 
CPU  3 inst:   17000002 cyc:   14937548 now IPC :0.55141: AVG IPC :1.07489: L2-Pf-HR :0.98487: L2-HR :0.91684: (Sim:0h14m20s) 
CPU  0 inst:   18000000 cyc:   16037139 now IPC :0.59482: AVG IPC :1.06292: L2-Pf-HR :0.98544: L2-HR :0.91762: (Sim:0h15m4s) 
CPU  2 inst:   18000000 cyc:   16495467 now IPC :0.62353: AVG IPC :1.03151: L2-Pf-HR :0.98541: L2-HR :0.91744: (Sim:0h15m23s) 
CPU  1 inst:   18000000 cyc:   16540189 now IPC :0.53565: AVG IPC :1.02856: L2-Pf-HR :0.98625: L2-HR :0.91989: (Sim:0h15m26s) 
CPU  3 inst:   18000000 cyc:   16564840 now IPC :0.61452: AVG IPC :1.02680: L2-Pf-HR :0.98562: L2-HR :0.91684: (Sim:0h15m27s) 
CPU  0 inst:   19000001 cyc:   17641981 now IPC :0.62311: AVG IPC :1.02055: L2-Pf-HR :0.98600: L2-HR :0.91673: (Sim:0h16m15s) 
CPU  2 inst:   19000001 cyc:   17909134 now IPC :0.70738: AVG IPC :1.00444: L2-Pf-HR :0.98622: L2-HR :0.91765: (Sim:0h16m26s) 
CPU  1 inst:   19000001 cyc:   17915487 now IPC :0.72712: AVG IPC :1.00407: L2-Pf-HR :0.98691: L2-HR :0.91972: (Sim:0h16m27s) 
CPU  3 inst:   19000001 cyc:   18134378 now IPC :0.63713: AVG IPC :0.99114: L2-Pf-HR :0.98632: L2-HR :0.91684: (Sim:0h16m36s) 
CPU  0 inst:   20000005 cyc:   18999152 now IPC :0.73683: AVG IPC :0.99917: L2-Pf-HR :0.98690: L2-HR :0.91784: (Sim:0h17m13s) 
CPU  2 inst:   20000005 cyc:   19548640 now IPC :0.60994: AVG IPC :0.96960: L2-Pf-HR :0.98710: L2-HR :0.91868: (Sim:0h17m36s) 
CPU  3 inst:   20000005 cyc:   19612512 now IPC :0.67653: AVG IPC :0.96618: L2-Pf-HR :0.98718: L2-HR :0.91782: (Sim:0h17m39s) 
CPU  1 inst:   20000005 cyc:   19923069 now IPC :0.49811: AVG IPC :0.95044: L2-Pf-HR :0.98775: L2-HR :0.92081: (Sim:0h17m54s) 
CPU  0 inst:   21000003 cyc:   20443683 now IPC :0.69226: AVG IPC :0.97639: L2-Pf-HR :0.98769: L2-HR :0.91871: (Sim:0h18m18s) 
CPU  2 inst:   21000003 cyc:   20653536 now IPC :0.90506: AVG IPC :0.96597: L2-Pf-HR :0.98783: L2-HR :0.91946: (Sim:0h18m30s) 
CPU  3 inst:   21000003 cyc:   20734009 now IPC :0.89166: AVG IPC :0.96194: L2-Pf-HR :0.98790: L2-HR :0.91874: (Sim:0h18m35s) 
CPU  1 inst:   21000003 cyc:   20949622 now IPC :0.97413: AVG IPC :0.95166: L2-Pf-HR :0.98846: L2-HR :0.92182: (Sim:0h18m47s) 
CPU  0 inst:   22000000 cyc:   21419603 now IPC :1.02467: AVG IPC :0.97869: L2-Pf-HR :0.98843: L2-HR :0.92011: (Sim:0h19m15s) 
CPU  2 inst:   22000000 cyc:   21491982 now IPC :1.19268: AVG IPC :0.97524: L2-Pf-HR :0.98853: L2-HR :0.92080: (Sim:0h19m21s) 
CPU  3 inst:   22000000 cyc:   21504385 now IPC :1.29806: AVG IPC :0.97456: L2-Pf-HR :0.98862: L2-HR :0.92017: (Sim:0h19m22s) 
CPU  1 inst:   22000000 cyc:   21725790 now IPC :1.28838: AVG IPC :0.96426: L2-Pf-HR :0.98907: L2-HR :0.92286: (Sim:0h19m35s) 
CPU  0 inst:   23000005 cyc:   22788065 now IPC :0.73075: AVG IPC :0.96313: L2-Pf-HR :0.98830: L2-HR :0.91994: (Sim:0h20m16s) 
CPU  3 inst:   23000005 cyc:   22967992 now IPC :0.68325: AVG IPC :0.95517: L2-Pf-HR :0.98858: L2-HR :0.92008: (Sim:0h20m28s) 
CPU  2 inst:   23000005 cyc:   22969255 now IPC :0.67693: AVG IPC :0.95519: L2-Pf-HR :0.98847: L2-HR :0.92073: (Sim:0h20m28s) 
CPU  1 inst:   23000005 cyc:   23114244 now IPC :0.72023: AVG IPC :0.94895: L2-Pf-HR :0.98902: L2-HR :0.92261: (Sim:0h20m35s) 
CPU  0 inst:   24000005 cyc:   23990295 now IPC :0.83179: AVG IPC :0.95627: L2-Pf-HR :0.98809: L2-HR :0.91975: (Sim:0h21m21s) 
CPU  2 inst:   24000005 cyc:   24057005 now IPC :0.91933: AVG IPC :0.95350: L2-Pf-HR :0.98816: L2-HR :0.92035: (Sim:0h21m25s) 
CPU  1 inst:   24000005 cyc:   24057367 now IPC :1.06031: AVG IPC :0.95350: L2-Pf-HR :0.98848: L2-HR :0.92175: (Sim:0h21m25s) 
CPU  3 inst:   24000005 cyc:   24069319 now IPC :0.90800: AVG IPC :0.95292: L2-Pf-HR :0.98826: L2-HR :0.91966: (Sim:0h21m26s) 
CPU  2 inst:   25000004 cyc:   25287972 now IPC :0.81237: AVG IPC :0.94635: L2-Pf-HR :0.98864: L2-HR :0.92116: (Sim:0h22m23s) 
CPU  0 inst:   25000001 cyc:   25300697 now IPC :0.76312: AVG IPC :0.94586: L2-Pf-HR :0.98860: L2-HR :0.92064: (Sim:0h22m23s) 
CPU  3 inst:   25000001 cyc:   25305919 now IPC :0.80867: AVG IPC :0.94558: L2-Pf-HR :0.98867: L2-HR :0.92042: (Sim:0h22m23s) 
CPU  1 inst:   25000001 cyc:   25313792 now IPC :0.79591: AVG IPC :0.94536: L2-Pf-HR :0.98891: L2-HR :0.92237: (Sim:0h22m24s) 
CPU  2 inst:   26000005 cyc:   26710568 now IPC :0.70294: AVG IPC :0.93289: L2-Pf-HR :0.98911: L2-HR :0.92207: (Sim:0h23m22s) 
CPU  1 inst:   26000005 cyc:   26748179 now IPC :0.69716: AVG IPC :0.93154: L2-Pf-HR :0.98935: L2-HR :0.92311: (Sim:0h23m24s) 
CPU  3 inst:   26000005 cyc:   26751350 now IPC :0.69184: AVG IPC :0.93135: L2-Pf-HR :0.98909: L2-HR :0.92126: (Sim:0h23m24s) 
CPU  0 inst:   26000005 cyc:   26774777 now IPC :0.67839: AVG IPC :0.93057: L2-Pf-HR :0.98906: L2-HR :0.92152: (Sim:0h23m26s) 
CPU  2 inst:   27000003 cyc:   27952402 now IPC :0.80526: AVG IPC :0.92702: L2-Pf-HR :0.98959: L2-HR :0.92319: (Sim:0h24m20s) 
CPU  1 inst:   27000003 cyc:   27989419 now IPC :0.80564: AVG IPC :0.92576: L2-Pf-HR :0.98981: L2-HR :0.92413: (Sim:0h24m22s) 
CPU  0 inst:   27000003 cyc:   28014254 now IPC :0.80679: AVG IPC :0.92490: L2-Pf-HR :0.98956: L2-HR :0.92262: (Sim:0h24m23s) 
CPU  3 inst:   27000003 cyc:   28014988 now IPC :0.79136: AVG IPC :0.92480: L2-Pf-HR :0.98957: L2-HR :0.92235: (Sim:0h24m23s) 
CPU  2 inst:   28000003 cyc:   29057586 now IPC :0.90483: AVG IPC :0.92614: L2-Pf-HR :0.98996: L2-HR :0.92388: (Sim:0h25m16s) 
CPU  1 inst:   28000003 cyc:   29062105 now IPC :0.93224: AVG IPC :0.92600: L2-Pf-HR :0.99013: L2-HR :0.92464: (Sim:0h25m16s) 
CPU  0 inst:   28000003 cyc:   29066481 now IPC :0.95037: AVG IPC :0.92585: L2-Pf-HR :0.98992: L2-HR :0.92323: (Sim:0h25m16s) 
CPU  3 inst:   28000003 cyc:   29077360 now IPC :0.94129: AVG IPC :0.92543: L2-Pf-HR :0.98992: L2-HR :0.92290: (Sim:0h25m17s) 
CPU  2 inst:   29000005 cyc:   30489308 now IPC :0.69846: AVG IPC :0.91510: L2-Pf-HR :0.98985: L2-HR :0.92372: (Sim:0h26m19s) 
CPU  1 inst:   29000005 cyc:   30491131 now IPC :0.69978: AVG IPC :0.91505: L2-Pf-HR :0.99002: L2-HR :0.92441: (Sim:0h26m19s) 
CPU  0 inst:   29000002 cyc:   30495185 now IPC :0.69993: AVG IPC :0.91491: L2-Pf-HR :0.98980: L2-HR :0.92319: (Sim:0h26m19s) 
CPU  3 inst:   29000004 cyc:   30524125 now IPC :0.69120: AVG IPC :0.91396: L2-Pf-HR :0.98975: L2-HR :0.92258: (Sim:0h26m21s) 
CPU  0 inst:   30000004 cyc:   31598471 now IPC :0.90639: AVG IPC :0.91461: L2-Pf-HR :0.98965: L2-HR :0.92327: (Sim:0h27m11s) 
CPU  1 inst:   30000004 cyc:   31608130 now IPC :0.89526: AVG IPC :0.91433: L2-Pf-HR :0.98982: L2-HR :0.92419: (Sim:0h27m11s) 
CPU  3 inst:   30000004 cyc:   31637240 now IPC :0.89838: AVG IPC :0.91339: L2-Pf-HR :0.98952: L2-HR :0.92229: (Sim:0h27m12s) 
CPU  2 inst:   30000003 cyc:   31673189 now IPC :0.84468: AVG IPC :0.91238: L2-Pf-HR :0.98967: L2-HR :0.92353: (Sim:0h27m13s) 
CPU  0 inst:   31000005 cyc:   33059117 now IPC :0.68463: AVG IPC :0.90413: L2-Pf-HR :0.98989: L2-HR :0.92352: (Sim:0h27m50s) 
CPU  3 inst:   31000005 cyc:   33075736 now IPC :0.69517: AVG IPC :0.90361: L2-Pf-HR :0.98973: L2-HR :0.92219: (Sim:0h27m50s) 
CPU  1 inst:   31000005 cyc:   33087623 now IPC :0.67591: AVG IPC :0.90334: L2-Pf-HR :0.99004: L2-HR :0.92421: (Sim:0h27m51s) 
CPU  2 inst:   31000004 cyc:   33091035 now IPC :0.70530: AVG IPC :0.90323: L2-Pf-HR :0.98988: L2-HR :0.92353: (Sim:0h27m51s) 
CPU  3 inst:   32000001 cyc:   34285411 now IPC :0.82666: AVG IPC :0.90081: L2-Pf-HR :0.98957: L2-HR :0.92135: (Sim:0h28m45s) 
CPU  0 inst:   32000004 cyc:   34296591 now IPC :0.80810: AVG IPC :0.90057: L2-Pf-HR :0.98977: L2-HR :0.92310: (Sim:0h28m45s) 
CPU  2 inst:   32000001 cyc:   34312213 now IPC :0.81888: AVG IPC :0.90014: L2-Pf-HR :0.98973: L2-HR :0.92281: (Sim:0h28m46s) 
CPU  1 inst:   32000001 cyc:   34312614 now IPC :0.81633: AVG IPC :0.90014: L2-Pf-HR :0.98991: L2-HR :0.92356: (Sim:0h28m46s) 
CPU  1 inst:   33000001 cyc:   36079917 now IPC :0.56583: AVG IPC :0.88331: L2-Pf-HR :0.98974: L2-HR :0.92273: (Sim:0h29m57s) 
CPU  0 inst:   33000001 cyc:   36081233 now IPC :0.56033: AVG IPC :0.88327: L2-Pf-HR :0.98964: L2-HR :0.92237: (Sim:0h29m57s) 
CPU  2 inst:   33000001 cyc:   36081358 now IPC :0.56524: AVG IPC :0.88326: L2-Pf-HR :0.98957: L2-HR :0.92201: (Sim:0h29m57s) 
CPU  3 inst:   33000001 cyc:   36082446 now IPC :0.55647: AVG IPC :0.88318: L2-Pf-HR :0.98941: L2-HR :0.92048: (Sim:0h29m57s) 
CPU  1 inst:   34000003 cyc:   37519715 now IPC :0.69454: AVG IPC :0.87587: L2-Pf-HR :0.98998: L2-HR :0.92258: (Sim:0h31m0s) 
CPU  2 inst:   34000003 cyc:   37531970 now IPC :0.68937: AVG IPC :0.87557: L2-Pf-HR :0.98982: L2-HR :0.92194: (Sim:0h31m1s) 
CPU  3 inst:   34000003 cyc:   37533132 now IPC :0.68933: AVG IPC :0.87549: L2-Pf-HR :0.98963: L2-HR :0.92032: (Sim:0h31m1s) 
CPU  0 inst:   34000003 cyc:   37562776 now IPC :0.67497: AVG IPC :0.87483: L2-Pf-HR :0.98989: L2-HR :0.92228: (Sim:0h31m3s) 
CPU  2 inst:   35000000 cyc:   38725413 now IPC :0.83791: AVG IPC :0.87437: L2-Pf-HR :0.99017: L2-HR :0.92272: (Sim:0h31m56s) 
CPU  1 inst:   35000000 cyc:   38739010 now IPC :0.82014: AVG IPC :0.87407: L2-Pf-HR :0.99031: L2-HR :0.92326: (Sim:0h31m57s) 
CPU  3 inst:   35000005 cyc:   38932066 now IPC :0.71483: AVG IPC :0.86957: L2-Pf-HR :0.98998: L2-HR :0.92114: (Sim:0h32m4s) 
CPU  0 inst:   35000000 cyc:   38943845 now IPC :0.72407: AVG IPC :0.86934: L2-Pf-HR :0.99023: L2-HR :0.92310: (Sim:0h32m5s) 
CPU  2 inst:   36000004 cyc:   40438022 now IPC :0.58391: AVG IPC :0.86177: L2-Pf-HR :0.99037: L2-HR :0.92279: (Sim:0h33m9s) 
CPU  0 inst:   36000004 cyc:   40452441 now IPC :0.66287: AVG IPC :0.86145: L2-Pf-HR :0.99042: L2-HR :0.92308: (Sim:0h33m10s) 
CPU  3 inst:   36000004 cyc:   40458387 now IPC :0.65517: AVG IPC :0.86128: L2-Pf-HR :0.99016: L2-HR :0.92103: (Sim:0h33m10s) 
CPU  1 inst:   36000004 cyc:   40473783 now IPC :0.57645: AVG IPC :0.86099: L2-Pf-HR :0.99050: L2-HR :0.92325: (Sim:0h33m11s) 
CPU  0 inst:   37000000 cyc:   41901157 now IPC :0.69026: AVG IPC :0.85539: L2-Pf-HR :0.99054: L2-HR :0.92296: (Sim:0h34m14s) 
CPU  2 inst:   37000000 cyc:   41929315 now IPC :0.67056: AVG IPC :0.85480: L2-Pf-HR :0.99050: L2-HR :0.92271: (Sim:0h34m15s) 
CPU  1 inst:   37000000 cyc:   41958823 now IPC :0.67338: AVG IPC :0.85419: L2-Pf-HR :0.99061: L2-HR :0.92309: (Sim:0h34m17s) 
CPU  3 inst:   37000000 cyc:   42080645 now IPC :0.61642: AVG IPC :0.85161: L2-Pf-HR :0.99028: L2-HR :0.92093: (Sim:0h34m21s) 
CPU  2 inst:   38000001 cyc:   43018585 now IPC :0.91805: AVG IPC :0.85644: L2-Pf-HR :0.99077: L2-HR :0.92319: (Sim:0h35m11s) 
CPU  1 inst:   38000001 cyc:   43089296 now IPC :0.88459: AVG IPC :0.85501: L2-Pf-HR :0.99086: L2-HR :0.92346: (Sim:0h35m15s) 
CPU  0 inst:   38000001 cyc:   43094018 now IPC :0.83832: AVG IPC :0.85491: L2-Pf-HR :0.99080: L2-HR :0.92345: (Sim:0h35m16s) 
CPU  3 inst:   38000001 cyc:   43180608 now IPC :0.90912: AVG IPC :0.85311: L2-Pf-HR :0.99055: L2-HR :0.92142: (Sim:0h35m20s) 
CPU  2 inst:   39000003 cyc:   44773444 now IPC :0.56985: AVG IPC :0.84496: L2-Pf-HR :0.99068: L2-HR :0.92284: (Sim:0h36m25s) 
CPU  3 inst:   39000003 cyc:   44815644 now IPC :0.61161: AVG IPC :0.84410: L2-Pf-HR :0.99036: L2-HR :0.92094: (Sim:0h36m28s) 
CPU  1 inst:   39000003 cyc:   44835095 now IPC :0.57280: AVG IPC :0.84377: L2-Pf-HR :0.99070: L2-HR :0.92301: (Sim:0h36m29s) 
CPU  0 inst:   39000003 cyc:   44842842 now IPC :0.57181: AVG IPC :0.84362: L2-Pf-HR :0.99061: L2-HR :0.92301: (Sim:0h36m29s) 
CPU  2 inst:   40000002 cyc:   46171619 now IPC :0.71522: AVG IPC :0.84094: L2-Pf-HR :0.99027: L2-HR :0.92239: (Sim:0h37m7s) 
CPU  3 inst:   40000002 cyc:   46217985 now IPC :0.71309: AVG IPC :0.84004: L2-Pf-HR :0.98988: L2-HR :0.92049: (Sim:0h37m9s) 
CPU  0 inst:   40000002 cyc:   46218668 now IPC :0.72684: AVG IPC :0.84007: L2-Pf-HR :0.99017: L2-HR :0.92253: (Sim:0h37m9s) 
CPU  1 inst:   40000002 cyc:   46322308 now IPC :0.67240: AVG IPC :0.83815: L2-Pf-HR :0.99015: L2-HR :0.92240: (Sim:0h37m12s) 
CPU  2 inst:   41000003 cyc:   47590666 now IPC :0.70470: AVG IPC :0.83679: L2-Pf-HR :0.99028: L2-HR :0.92237: (Sim:0h37m47s) 
CPU  1 inst:   41000003 cyc:   47616957 now IPC :0.77241: AVG IPC :0.83633: L2-Pf-HR :0.99025: L2-HR :0.92249: (Sim:0h37m47s) 
CPU  3 inst:   41000003 cyc:   47622455 now IPC :0.71201: AVG IPC :0.83618: L2-Pf-HR :0.98986: L2-HR :0.92057: (Sim:0h37m48s) 
CPU  0 inst:   41000003 cyc:   47628032 now IPC :0.70954: AVG IPC :0.83612: L2-Pf-HR :0.99017: L2-HR :0.92253: (Sim:0h37m48s) 
CPU  2 inst:   42000004 cyc:   49157372 now IPC :0.63828: AVG IPC :0.83034: L2-Pf-HR :0.99049: L2-HR :0.92262: (Sim:0h38m27s) 
CPU  3 inst:   42000003 cyc:   49198245 now IPC :0.63460: AVG IPC :0.82960: L2-Pf-HR :0.99006: L2-HR :0.92080: (Sim:0h38m28s) 
CPU  1 inst:   42000003 cyc:   49199219 now IPC :0.63201: AVG IPC :0.82962: L2-Pf-HR :0.99047: L2-HR :0.92277: (Sim:0h38m28s) 
CPU  0 inst:   42000003 cyc:   49207682 now IPC :0.63305: AVG IPC :0.82947: L2-Pf-HR :0.99037: L2-HR :0.92280: (Sim:0h38m28s) 
CPU  2 inst:   43000004 cyc:   50726797 now IPC :0.63718: AVG IPC :0.82424: L2-Pf-HR :0.99040: L2-HR :0.92275: (Sim:0h39m7s) 
CPU  3 inst:   43000000 cyc:   50738993 now IPC :0.64903: AVG IPC :0.82400: L2-Pf-HR :0.99000: L2-HR :0.92095: (Sim:0h39m7s) 
CPU  1 inst:   43000000 cyc:   50743004 now IPC :0.64776: AVG IPC :0.82398: L2-Pf-HR :0.99038: L2-HR :0.92279: (Sim:0h39m7s) 
CPU  0 inst:   43000000 cyc:   50763539 now IPC :0.64273: AVG IPC :0.82363: L2-Pf-HR :0.99028: L2-HR :0.92284: (Sim:0h39m7s) 
CPU  2 inst:   44000001 cyc:   52396714 now IPC :0.59883: AVG IPC :0.81692: L2-Pf-HR :0.98995: L2-HR :0.92238: (Sim:0h39m48s) 
CPU  3 inst:   44000001 cyc:   52399074 now IPC :0.60238: AVG IPC :0.81685: L2-Pf-HR :0.98950: L2-HR :0.92062: (Sim:0h39m48s) 
CPU  1 inst:   44000001 cyc:   52406424 now IPC :0.60117: AVG IPC :0.81677: L2-Pf-HR :0.98987: L2-HR :0.92234: (Sim:0h39m49s) 
CPU  0 inst:   44000001 cyc:   52426392 now IPC :0.60138: AVG IPC :0.81645: L2-Pf-HR :0.98976: L2-HR :0.92237: (Sim:0h39m49s) 
CPU  1 inst:   45000005 cyc:   53856436 now IPC :0.68965: AVG IPC :0.81329: L2-Pf-HR :0.98958: L2-HR :0.92203: (Sim:0h40m28s) 
CPU  3 inst:   45000005 cyc:   53866941 now IPC :0.68126: AVG IPC :0.81309: L2-Pf-HR :0.98926: L2-HR :0.92043: (Sim:0h40m29s) 
CPU  0 inst:   45000005 cyc:   53871502 now IPC :0.69199: AVG IPC :0.81305: L2-Pf-HR :0.98942: L2-HR :0.92198: (Sim:0h40m29s) 
CPU  2 inst:   45000005 cyc:   53923855 now IPC :0.65482: AVG IPC :0.81224: L2-Pf-HR :0.98970: L2-HR :0.92214: (Sim:0h40m31s) 
CPU  3 inst:   46000005 cyc:   55111206 now IPC :0.80369: AVG IPC :0.81287: L2-Pf-HR :0.98903: L2-HR :0.92011: (Sim:0h41m25s) 
CPU  0 inst:   46000005 cyc:   55144614 now IPC :0.78548: AVG IPC :0.81240: L2-Pf-HR :0.98915: L2-HR :0.92153: (Sim:0h41m26s) 
CPU  1 inst:   46000005 cyc:   55150188 now IPC :0.77295: AVG IPC :0.81232: L2-Pf-HR :0.98934: L2-HR :0.92158: (Sim:0h41m26s) 
CPU  2 inst:   46000005 cyc:   55323480 now IPC :0.71448: AVG IPC :0.80973: L2-Pf-HR :0.98950: L2-HR :0.92176: (Sim:0h41m33s) 
CPU  0 inst:   47000002 cyc:   56335597 now IPC :0.83964: AVG IPC :0.81299: L2-Pf-HR :0.98936: L2-HR :0.92188: (Sim:0h42m23s) 
CPU  1 inst:   47000002 cyc:   56368203 now IPC :0.82101: AVG IPC :0.81251: L2-Pf-HR :0.98954: L2-HR :0.92186: (Sim:0h42m25s) 
CPU  2 inst:   47000002 cyc:   56371100 now IPC :0.95454: AVG IPC :0.81247: L2-Pf-HR :0.98969: L2-HR :0.92206: (Sim:0h42m25s) 
CPU  3 inst:   47000002 cyc:   56380763 now IPC :0.78767: AVG IPC :0.81229: L2-Pf-HR :0.98923: L2-HR :0.92048: (Sim:0h42m25s) 
CPU  0 inst:   48000002 cyc:   57478371 now IPC :0.87506: AVG IPC :0.81424: L2-Pf-HR :0.98918: L2-HR :0.92159: (Sim:0h43m21s) 
CPU  1 inst:   48000002 cyc:   57497164 now IPC :0.88577: AVG IPC :0.81398: L2-Pf-HR :0.98939: L2-HR :0.92158: (Sim:0h43m22s) 
CPU  3 inst:   48000002 cyc:   57518661 now IPC :0.87881: AVG IPC :0.81363: L2-Pf-HR :0.98907: L2-HR :0.92020: (Sim:0h43m23s) 
CPU  2 inst:   48000002 cyc:   57553852 now IPC :0.84549: AVG IPC :0.81316: L2-Pf-HR :0.98954: L2-HR :0.92182: (Sim:0h43m24s) 
CPU  0 inst:   49000002 cyc:   59242072 now IPC :0.56699: AVG IPC :0.80676: L2-Pf-HR :0.98907: L2-HR :0.92124: (Sim:0h44m32s) 
CPU  2 inst:   49000002 cyc:   59261488 now IPC :0.58560: AVG IPC :0.80649: L2-Pf-HR :0.98939: L2-HR :0.92139: (Sim:0h44m33s) 
CPU  1 inst:   49000002 cyc:   59516627 now IPC :0.49518: AVG IPC :0.80298: L2-Pf-HR :0.98921: L2-HR :0.92113: (Sim:0h44m45s) 
CPU  3 inst:   49000002 cyc:   59542238 now IPC :0.49417: AVG IPC :0.80259: L2-Pf-HR :0.98895: L2-HR :0.91980: (Sim:0h44m46s) 
CPU  2 inst:   50000003 cyc:   60885399 now IPC :0.61580: AVG IPC :0.80132: L2-Pf-HR :0.98958: L2-HR :0.92146: (Sim:0h45m44s) 
CPU  0 inst:   50000003 cyc:   60913220 now IPC :0.59839: AVG IPC :0.80095: L2-Pf-HR :0.98926: L2-HR :0.92131: (Sim:0h45m45s) 
CPU  1 inst:   50000003 cyc:   60922312 now IPC :0.71140: AVG IPC :0.80083: L2-Pf-HR :0.98937: L2-HR :0.92129: (Sim:0h45m46s) 
CPU  3 inst:   50000003 cyc:   60940243 now IPC :0.71531: AVG IPC :0.80056: L2-Pf-HR :0.98911: L2-HR :0.91995: (Sim:0h45m47s) 
CPU  0 inst:   51000004 cyc:   62402150 now IPC :0.67162: AVG IPC :0.79781: L2-Pf-HR :0.98945: L2-HR :0.92131: (Sim:0h46m39s) 
CPU  2 inst:   51000004 cyc:   62487315 now IPC :0.62425: AVG IPC :0.79671: L2-Pf-HR :0.98975: L2-HR :0.92143: (Sim:0h46m42s) 
CPU  3 inst:   51000004 cyc:   62819196 now IPC :0.53221: AVG IPC :0.79240: L2-Pf-HR :0.98928: L2-HR :0.91993: (Sim:0h46m55s) 
CPU  1 inst:   51000004 cyc:   62867756 now IPC :0.51402: AVG IPC :0.79181: L2-Pf-HR :0.98954: L2-HR :0.92126: (Sim:0h46m57s) 
CPU  0 inst:   52000000 cyc:   63725378 now IPC :0.75572: AVG IPC :0.79692: L2-Pf-HR :0.98967: L2-HR :0.92160: (Sim:0h47m31s) 
CPU  2 inst:   52000000 cyc:   63972126 now IPC :0.67348: AVG IPC :0.79380: L2-Pf-HR :0.98996: L2-HR :0.92176: (Sim:0h47m41s) 
CPU  3 inst:   52000000 cyc:   64359092 now IPC :0.64939: AVG IPC :0.78893: L2-Pf-HR :0.98951: L2-HR :0.92027: (Sim:0h47m56s) 
CPU  1 inst:   52000000 cyc:   64381065 now IPC :0.66080: AVG IPC :0.78869: L2-Pf-HR :0.98978: L2-HR :0.92162: (Sim:0h47m57s) 
CPU  0 inst:   53000003 cyc:   65190493 now IPC :0.68254: AVG IPC :0.79431: L2-Pf-HR :0.98985: L2-HR :0.92163: (Sim:0h48m29s) 
CPU  2 inst:   53000003 cyc:   65449843 now IPC :0.67672: AVG IPC :0.79112: L2-Pf-HR :0.99011: L2-HR :0.92174: (Sim:0h48m37s) 
CPU  3 inst:   53000003 cyc:   65703457 now IPC :0.74385: AVG IPC :0.78799: L2-Pf-HR :0.98966: L2-HR :0.92016: (Sim:0h48m45s) 
CPU  1 inst:   53000003 cyc:   65735651 now IPC :0.73824: AVG IPC :0.78763: L2-Pf-HR :0.98993: L2-HR :0.92153: (Sim:0h48m46s) 
CPU  0 inst:   54000004 cyc:   66544977 now IPC :0.73829: AVG IPC :0.79316: L2-Pf-HR :0.99000: L2-HR :0.92162: (Sim:0h49m24s) 
CPU  2 inst:   54000004 cyc:   66549449 now IPC :0.90942: AVG IPC :0.79310: L2-Pf-HR :0.99027: L2-HR :0.92179: (Sim:0h49m24s) 
CPU  1 inst:   54000004 cyc:   66652066 now IPC :1.09121: AVG IPC :0.79187: L2-Pf-HR :0.99009: L2-HR :0.92164: (Sim:0h49m31s) 
CPU  3 inst:   54000004 cyc:   66659831 now IPC :1.04562: AVG IPC :0.79174: L2-Pf-HR :0.98983: L2-HR :0.92027: (Sim:0h49m32s) 
CPU  2 inst:   55000002 cyc:   68095881 now IPC :0.64665: AVG IPC :0.78973: L2-Pf-HR :0.99019: L2-HR :0.92165: (Sim:0h50m20s) 
CPU  0 inst:   55000002 cyc:   68163686 now IPC :0.61778: AVG IPC :0.78893: L2-Pf-HR :0.98991: L2-HR :0.92142: (Sim:0h50m23s) 
CPU  1 inst:   55000002 cyc:   68166408 now IPC :0.66035: AVG IPC :0.78890: L2-Pf-HR :0.99000: L2-HR :0.92146: (Sim:0h50m23s) 
CPU  3 inst:   55000002 cyc:   68203781 now IPC :0.64769: AVG IPC :0.78843: L2-Pf-HR :0.98972: L2-HR :0.92007: (Sim:0h50m24s) 
CPU  0 inst:   56000001 cyc:   69406478 now IPC :0.80464: AVG IPC :0.78922: L2-Pf-HR :0.98987: L2-HR :0.92120: (Sim:0h51m0s) 
CPU  1 inst:   56000001 cyc:   69433943 now IPC :0.78893: AVG IPC :0.78890: L2-Pf-HR :0.98994: L2-HR :0.92121: (Sim:0h51m1s) 
CPU  2 inst:   56000001 cyc:   69449735 now IPC :0.73863: AVG IPC :0.78872: L2-Pf-HR :0.99017: L2-HR :0.92139: (Sim:0h51m1s) 
CPU  3 inst:   56000001 cyc:   69504489 now IPC :0.76881: AVG IPC :0.78806: L2-Pf-HR :0.98966: L2-HR :0.91981: (Sim:0h51m2s) 
CPU  0 inst:   57000001 cyc:   70875041 now IPC :0.68094: AVG IPC :0.78694: L2-Pf-HR :0.98986: L2-HR :0.92114: (Sim:0h51m41s) 
CPU  1 inst:   57000001 cyc:   70888478 now IPC :0.68750: AVG IPC :0.78679: L2-Pf-HR :0.98994: L2-HR :0.92114: (Sim:0h51m41s) 
CPU  3 inst:   57000001 cyc:   70955964 now IPC :0.68895: AVG IPC :0.78601: L2-Pf-HR :0.98963: L2-HR :0.91975: (Sim:0h51m43s) 
CPU  2 inst:   57000001 cyc:   70975964 now IPC :0.65521: AVG IPC :0.78581: L2-Pf-HR :0.99013: L2-HR :0.92128: (Sim:0h51m43s) 
CPU  0 inst:   58000001 cyc:   72423330 now IPC :0.64587: AVG IPC :0.78388: L2-Pf-HR :0.99008: L2-HR :0.92164: (Sim:0h52m28s) 
CPU  1 inst:   58000001 cyc:   72446811 now IPC :0.64171: AVG IPC :0.78363: L2-Pf-HR :0.99015: L2-HR :0.92161: (Sim:0h52m29s) 
CPU  3 inst:   58000001 cyc:   72452442 now IPC :0.66824: AVG IPC :0.78354: L2-Pf-HR :0.98984: L2-HR :0.92022: (Sim:0h52m29s) 
CPU  2 inst:   58000001 cyc:   72478961 now IPC :0.66534: AVG IPC :0.78327: L2-Pf-HR :0.99034: L2-HR :0.92179: (Sim:0h52m30s) 
CPU  0 inst:   59000000 cyc:   74179051 now IPC :0.56957: AVG IPC :0.77874: L2-Pf-HR :0.99023: L2-HR :0.92206: (Sim:0h53m29s) 
CPU  1 inst:   59000000 cyc:   74209809 now IPC :0.56722: AVG IPC :0.77842: L2-Pf-HR :0.99028: L2-HR :0.92198: (Sim:0h53m30s) 
CPU  3 inst:   59000000 cyc:   74234902 now IPC :0.56102: AVG IPC :0.77812: L2-Pf-HR :0.98999: L2-HR :0.92062: (Sim:0h53m31s) 
CPU  2 inst:   59000000 cyc:   74237722 now IPC :0.56858: AVG IPC :0.77812: L2-Pf-HR :0.99047: L2-HR :0.92215: (Sim:0h53m31s) 
CPU  1 inst:   60000005 cyc:   75652163 now IPC :0.69331: AVG IPC :0.77678: L2-Pf-HR :0.98984: L2-HR :0.92142: (Sim:0h54m27s) 
CPU  0 inst:   60000005 cyc:   75664887 now IPC :0.67303: AVG IPC :0.77664: L2-Pf-HR :0.98980: L2-HR :0.92151: (Sim:0h54m27s) 
CPU  2 inst:   60000003 cyc:   75671763 now IPC :0.69733: AVG IPC :0.77657: L2-Pf-HR :0.99002: L2-HR :0.92160: (Sim:0h54m28s) 
CPU  3 inst:   60000005 cyc:   75694593 now IPC :0.68508: AVG IPC :0.77631: L2-Pf-HR :0.98954: L2-HR :0.92002: (Sim:0h54m29s) 
CPU  0 inst:   61000005 cyc:   76933937 now IPC :0.78799: AVG IPC :0.77683: L2-Pf-HR :0.98980: L2-HR :0.92150: (Sim:0h55m17s) 
CPU  1 inst:   61000005 cyc:   77013197 now IPC :0.73474: AVG IPC :0.77602: L2-Pf-HR :0.98981: L2-HR :0.92137: (Sim:0h55m22s) 
CPU  2 inst:   61000005 cyc:   77078271 now IPC :0.71098: AVG IPC :0.77536: L2-Pf-HR :0.98999: L2-HR :0.92159: (Sim:0h55m25s) 
CPU  3 inst:   61000005 cyc:   77079094 now IPC :0.72228: AVG IPC :0.77532: L2-Pf-HR :0.98952: L2-HR :0.92000: (Sim:0h55m25s) 
CPU  0 inst:   62000000 cyc:   77679137 now IPC :1.34191: AVG IPC :0.78232: L2-Pf-HR :0.98994: L2-HR :0.92195: (Sim:0h55m51s) 
CPU  1 inst:   62000000 cyc:   78094774 now IPC :0.92457: AVG IPC :0.77811: L2-Pf-HR :0.98995: L2-HR :0.92191: (Sim:0h56m7s) 
CPU  2 inst:   62000000 cyc:   78372445 now IPC :0.77269: AVG IPC :0.77531: L2-Pf-HR :0.99013: L2-HR :0.92221: (Sim:0h56m19s) 
CPU  3 inst:   62000000 cyc:   78377842 now IPC :0.76997: AVG IPC :0.77523: L2-Pf-HR :0.98966: L2-HR :0.92060: (Sim:0h56m19s) 
CPU  0 inst:   63000001 cyc:   79340800 now IPC :0.60181: AVG IPC :0.77849: L2-Pf-HR :0.99013: L2-HR :0.92267: (Sim:0h56m51s) 
CPU  1 inst:   63000001 cyc:   79398536 now IPC :0.76701: AVG IPC :0.77792: L2-Pf-HR :0.99012: L2-HR :0.92251: (Sim:0h56m53s) 
CPU  3 inst:   63000001 cyc:   80208892 now IPC :0.54614: AVG IPC :0.76994: L2-Pf-HR :0.98985: L2-HR :0.92127: (Sim:0h57m20s) 
CPU  2 inst:   63000001 cyc:   80268712 now IPC :0.52735: AVG IPC :0.76938: L2-Pf-HR :0.99032: L2-HR :0.92293: (Sim:0h57m22s) 
CPU  0 inst:   64000000 cyc:   80609752 now IPC :0.78805: AVG IPC :0.77864: L2-Pf-HR :0.99025: L2-HR :0.92329: (Sim:0h57m36s) 
CPU  1 inst:   64000003 cyc:   81074763 now IPC :0.59658: AVG IPC :0.77413: L2-Pf-HR :0.99028: L2-HR :0.92311: (Sim:0h57m55s) 
CPU  3 inst:   64000005 cyc:   81475017 now IPC :0.78981: AVG IPC :0.77025: L2-Pf-HR :0.99003: L2-HR :0.92189: (Sim:0h58m12s) 
CPU  2 inst:   64000000 cyc:   81796047 now IPC :0.65473: AVG IPC :0.76721: L2-Pf-HR :0.99047: L2-HR :0.92349: (Sim:0h58m23s) 
CPU  0 inst:   65000002 cyc:   81896607 now IPC :0.77709: AVG IPC :0.77862: L2-Pf-HR :0.99026: L2-HR :0.92337: (Sim:0h58m27s) 
CPU  1 inst:   65000002 cyc:   82680270 now IPC :0.62286: AVG IPC :0.77115: L2-Pf-HR :0.99027: L2-HR :0.92304: (Sim:0h59m1s) 
CPU  3 inst:   65000002 cyc:   82936389 now IPC :0.68429: AVG IPC :0.76872: L2-Pf-HR :0.99001: L2-HR :0.92185: (Sim:0h59m13s) 
CPU  0 inst:   66000003 cyc:   82966199 now IPC :0.93494: AVG IPC :0.78066: L2-Pf-HR :0.99031: L2-HR :0.92336: (Sim:0h59m14s) 
CPU  1 inst:   66000003 cyc:   83791492 now IPC :0.89991: AVG IPC :0.77288: L2-Pf-HR :0.99026: L2-HR :0.92295: (Sim:0h59m39s) 
CPU  2 inst:   65000002 cyc:   83892206 now IPC :0.47706: AVG IPC :0.75988: L2-Pf-HR :0.99051: L2-HR :0.92344: (Sim:0h59m44s) 
CPU  0 inst:   67000001 cyc:   84040094 now IPC :0.93119: AVG IPC :0.78260: L2-Pf-HR :0.99042: L2-HR :0.92332: (Sim:0h59m52s) 
CPU  3 inst:   66000003 cyc:   84126371 now IPC :0.84035: AVG IPC :0.76974: L2-Pf-HR :0.99008: L2-HR :0.92187: (Sim:0h59m55s) 
CPU  2 inst:   66000003 cyc:   85479850 now IPC :0.62986: AVG IPC :0.75743: L2-Pf-HR :0.99054: L2-HR :0.92354: (Sim:1h0m37s) 
CPU  3 inst:   67000001 cyc:   85557542 now IPC :0.69873: AVG IPC :0.76854: L2-Pf-HR :0.99010: L2-HR :0.92196: (Sim:1h0m40s) 
CPU  0 inst:   68000002 cyc:   85558490 now IPC :0.65859: AVG IPC :0.78038: L2-Pf-HR :0.99047: L2-HR :0.92343: (Sim:1h0m40s) 
CPU  1 inst:   67000001 cyc:   85697546 now IPC :0.52464: AVG IPC :0.76730: L2-Pf-HR :0.99035: L2-HR :0.92311: (Sim:1h0m45s) 
CPU  3 inst:   68000002 cyc:   86374537 now IPC :1.22400: AVG IPC :0.77290: L2-Pf-HR :0.99023: L2-HR :0.92225: (Sim:1h1m11s) 
CPU  2 inst:   67000001 cyc:   86390541 now IPC :1.09807: AVG IPC :0.76107: L2-Pf-HR :0.99062: L2-HR :0.92374: (Sim:1h1m11s) 
CPU  0 inst:   69000000 cyc:   86393833 now IPC :1.19711: AVG IPC :0.78445: L2-Pf-HR :0.99061: L2-HR :0.92369: (Sim:1h1m11s) 
CPU  1 inst:   68000002 cyc:   86706111 now IPC :0.99151: AVG IPC :0.76993: L2-Pf-HR :0.99042: L2-HR :0.92333: (Sim:1h1m20s) 
CPU  3 inst:   69000000 cyc:   87470073 now IPC :0.91279: AVG IPC :0.77467: L2-Pf-HR :0.99036: L2-HR :0.92249: (Sim:1h1m43s) 
CPU  2 inst:   68000002 cyc:   87564350 now IPC :0.85193: AVG IPC :0.76230: L2-Pf-HR :0.99071: L2-HR :0.92395: (Sim:1h1m48s) 
CPU  0 inst:   70000004 cyc:   87599399 now IPC :0.82949: AVG IPC :0.78508: L2-Pf-HR :0.99075: L2-HR :0.92397: (Sim:1h1m50s) 
CPU  1 inst:   69000000 cyc:   87861222 now IPC :0.86572: AVG IPC :0.77121: L2-Pf-HR :0.99054: L2-HR :0.92360: (Sim:1h2m2s) 
CPU  3 inst:   70000004 cyc:   88526721 now IPC :0.94639: AVG IPC :0.77674: L2-Pf-HR :0.99047: L2-HR :0.92271: (Sim:1h2m36s) 
CPU  2 inst:   69000000 cyc:   88650239 now IPC :0.92090: AVG IPC :0.76426: L2-Pf-HR :0.99082: L2-HR :0.92415: (Sim:1h2m42s) 
CPU  0 inst:   71000005 cyc:   88916066 now IPC :0.75949: AVG IPC :0.78470: L2-Pf-HR :0.99078: L2-HR :0.92398: (Sim:1h2m53s) 
CPU  1 inst:   70000004 cyc:   89042885 now IPC :0.84627: AVG IPC :0.77221: L2-Pf-HR :0.99067: L2-HR :0.92375: (Sim:1h2m59s) 
CPU  2 inst:   70000004 cyc:   89724535 now IPC :0.93085: AVG IPC :0.76628: L2-Pf-HR :0.99093: L2-HR :0.92432: (Sim:1h3m35s) 
CPU  0 inst:   72000000 cyc:   89755965 now IPC :1.19061: AVG IPC :0.78854: L2-Pf-HR :0.99086: L2-HR :0.92425: (Sim:1h3m36s) 
CPU  3 inst:   71000005 cyc:   90248187 now IPC :0.58090: AVG IPC :0.77297: L2-Pf-HR :0.99049: L2-HR :0.92272: (Sim:1h3m59s) 
CPU  0 inst:   73000000 cyc:   90430371 now IPC :1.48279: AVG IPC :0.79377: L2-Pf-HR :0.99096: L2-HR :0.92435: (Sim:1h4m9s) 
CPU  1 inst:   71000000 cyc:   90753751 now IPC :0.58450: AVG IPC :0.76864: L2-Pf-HR :0.99069: L2-HR :0.92376: (Sim:1h4m26s) 
CPU  3 inst:   72000000 cyc:   91005259 now IPC :1.32087: AVG IPC :0.77758: L2-Pf-HR :0.99051: L2-HR :0.92283: (Sim:1h4m40s) 
CPU  0 inst:   74000005 cyc:   91153515 now IPC :1.38286: AVG IPC :0.79850: L2-Pf-HR :0.99106: L2-HR :0.92446: (Sim:1h4m49s) 
CPU  1 inst:   72000000 cyc:   91634883 now IPC :1.13490: AVG IPC :0.77220: L2-Pf-HR :0.99075: L2-HR :0.92397: (Sim:1h5m13s) 
CPU  2 inst:   71000001 cyc:   91651155 now IPC :0.51904: AVG IPC :0.76103: L2-Pf-HR :0.99084: L2-HR :0.92414: (Sim:1h5m14s) 
CPU  0 inst:   75000000 cyc:   91939233 now IPC :1.27271: AVG IPC :0.80259: L2-Pf-HR :0.99117: L2-HR :0.92462: (Sim:1h5m29s) 
CPU  3 inst:   73000000 cyc:   92127353 now IPC :0.89119: AVG IPC :0.77897: L2-Pf-HR :0.99064: L2-HR :0.92303: (Sim:1h5m40s) 
CPU  1 inst:   73000000 cyc:   92416364 now IPC :1.27962: AVG IPC :0.77653: L2-Pf-HR :0.99072: L2-HR :0.92396: (Sim:1h5m56s) 
CPU  2 inst:   72000000 cyc:   92687487 now IPC :0.96494: AVG IPC :0.76333: L2-Pf-HR :0.99078: L2-HR :0.92427: (Sim:1h6m10s) 
CPU  0 inst:   76000003 cyc:   93157802 now IPC :0.82064: AVG IPC :0.80283: L2-Pf-HR :0.99125: L2-HR :0.92487: (Sim:1h6m32s) 
CPU  1 inst:   74000005 cyc:   93497917 now IPC :0.92460: AVG IPC :0.77827: L2-Pf-HR :0.99087: L2-HR :0.92435: (Sim:1h6m45s) 
CPU  3 inst:   74000005 cyc:   93510695 now IPC :0.72289: AVG IPC :0.77814: L2-Pf-HR :0.99072: L2-HR :0.92331: (Sim:1h6m45s) 
CPU  2 inst:   73000000 cyc:   94170160 now IPC :0.67446: AVG IPC :0.76192: L2-Pf-HR :0.99093: L2-HR :0.92461: (Sim:1h7m13s) 
CPU  1 inst:   75000000 cyc:   94724274 now IPC :0.81542: AVG IPC :0.77875: L2-Pf-HR :0.99100: L2-HR :0.92461: (Sim:1h7m40s) 
CPU  3 inst:   75000000 cyc:   94763706 now IPC :0.79807: AVG IPC :0.77840: L2-Pf-HR :0.99086: L2-HR :0.92359: (Sim:1h7m42s) 
CPU  0 inst:   77000003 cyc:   94969604 now IPC :0.55194: AVG IPC :0.79800: L2-Pf-HR :0.99128: L2-HR :0.92508: (Sim:1h7m50s) 
CPU  2 inst:   74000005 cyc:   95452942 now IPC :0.77956: AVG IPC :0.76216: L2-Pf-HR :0.99104: L2-HR :0.92475: (Sim:1h8m14s) 
CPU  1 inst:   76000003 cyc:   96010878 now IPC :0.77724: AVG IPC :0.77873: L2-Pf-HR :0.99106: L2-HR :0.92454: (Sim:1h8m41s) 
CPU  3 inst:   76000003 cyc:   96016128 now IPC :0.79846: AVG IPC :0.77867: L2-Pf-HR :0.99092: L2-HR :0.92350: (Sim:1h8m41s) 
CPU  0 inst:   78000002 cyc:   96102554 now IPC :0.88265: AVG IPC :0.79900: L2-Pf-HR :0.99134: L2-HR :0.92524: (Sim:1h8m45s) 
CPU  2 inst:   75000000 cyc:   96626615 now IPC :0.85202: AVG IPC :0.76326: L2-Pf-HR :0.99111: L2-HR :0.92468: (Sim:1h9m14s) 
CPU  0 inst:   79000000 cyc:   96821962 now IPC :1.39003: AVG IPC :0.80344: L2-Pf-HR :0.99144: L2-HR :0.92559: (Sim:1h9m26s) 
CPU  2 inst:   76000003 cyc:   97403735 now IPC :1.28681: AVG IPC :0.76748: L2-Pf-HR :0.99122: L2-HR :0.92487: (Sim:1h9m54s) 
CPU  0 inst:   80000002 cyc:   97519434 now IPC :1.43375: AVG IPC :0.80799: L2-Pf-HR :0.99153: L2-HR :0.92587: (Sim:1h9m59s) 
CPU  1 inst:   77000003 cyc:   97636568 now IPC :0.61512: AVG IPC :0.77598: L2-Pf-HR :0.99108: L2-HR :0.92457: (Sim:1h10m6s) 
CPU  3 inst:   77000003 cyc:   97666277 now IPC :0.60601: AVG IPC :0.77572: L2-Pf-HR :0.99093: L2-HR :0.92351: (Sim:1h10m7s) 
CPU  1 inst:   78000002 cyc:   98313097 now IPC :1.47813: AVG IPC :0.78086: L2-Pf-HR :0.99109: L2-HR :0.92482: (Sim:1h10m45s) 
CPU  3 inst:   78000002 cyc:   98386781 now IPC :1.38792: AVG IPC :0.78025: L2-Pf-HR :0.99092: L2-HR :0.92374: (Sim:1h10m49s) 
CPU  2 inst:   77000003 cyc:   98848267 now IPC :0.69227: AVG IPC :0.76637: L2-Pf-HR :0.99124: L2-HR :0.92493: (Sim:1h11m9s) 
CPU  0 inst:   81000001 cyc:   99071611 now IPC :0.64426: AVG IPC :0.80540: L2-Pf-HR :0.99154: L2-HR :0.92585: (Sim:1h11m23s) 
CPU  1 inst:   79000000 cyc:   99084289 now IPC :1.29669: AVG IPC :0.78491: L2-Pf-HR :0.99111: L2-HR :0.92507: (Sim:1h11m23s) 
CPU  3 inst:   79000000 cyc:   99220709 now IPC :1.19914: AVG IPC :0.78380: L2-Pf-HR :0.99094: L2-HR :0.92392: (Sim:1h11m30s) 
CPU  2 inst:   78000002 cyc:   99734647 now IPC :1.12818: AVG IPC :0.76962: L2-Pf-HR :0.99128: L2-HR :0.92513: (Sim:1h11m56s) 
CPU  1 inst:   80000002 cyc:  100080851 now IPC :1.00345: AVG IPC :0.78711: L2-Pf-HR :0.99121: L2-HR :0.92533: (Sim:1h12m13s) 
CPU  3 inst:   80000002 cyc:  100216251 now IPC :1.00448: AVG IPC :0.78602: L2-Pf-HR :0.99105: L2-HR :0.92422: (Sim:1h12m18s) 
CPU  0 inst:   82000000 cyc:  100216777 now IPC :0.87323: AVG IPC :0.80619: L2-Pf-HR :0.99155: L2-HR :0.92588: (Sim:1h12m18s) 
CPU  2 inst:   79000000 cyc:  100572476 now IPC :1.19356: AVG IPC :0.77318: L2-Pf-HR :0.99140: L2-HR :0.92560: (Sim:1h12m34s) 
CPU  0 inst:   83000004 cyc:  100938589 now IPC :1.38541: AVG IPC :0.81037: L2-Pf-HR :0.99165: L2-HR :0.92599: (Sim:1h12m46s) 
CPU  2 inst:   80000002 cyc:  101484995 now IPC :1.09587: AVG IPC :0.77611: L2-Pf-HR :0.99148: L2-HR :0.92592: (Sim:1h13m0s) 
CPU  1 inst:   81000001 cyc:  101744713 now IPC :0.60101: AVG IPC :0.78404: L2-Pf-HR :0.99124: L2-HR :0.92541: (Sim:1h13m8s) 
CPU  3 inst:   81000000 cyc:  101879350 now IPC :0.60129: AVG IPC :0.78297: L2-Pf-HR :0.99109: L2-HR :0.92432: (Sim:1h13m12s) 
CPU  0 inst:   84000002 cyc:  101911058 now IPC :1.02831: AVG IPC :0.81247: L2-Pf-HR :0.99171: L2-HR :0.92601: (Sim:1h13m13s) 
CPU  1 inst:   82000000 cyc:  102971977 now IPC :0.81482: AVG IPC :0.78441: L2-Pf-HR :0.99128: L2-HR :0.92543: (Sim:1h13m49s) 
CPU  3 inst:   82000000 cyc:  103001397 now IPC :0.89123: AVG IPC :0.78416: L2-Pf-HR :0.99113: L2-HR :0.92435: (Sim:1h13m50s) 
CPU  2 inst:   81000000 cyc:  103248146 now IPC :0.56717: AVG IPC :0.77251: L2-Pf-HR :0.99145: L2-HR :0.92592: (Sim:1h14m1s) 
CPU  0 inst:   85000003 cyc:  103473635 now IPC :0.63997: AVG IPC :0.80984: L2-Pf-HR :0.99178: L2-HR :0.92599: (Sim:1h14m12s) 
CPU  3 inst:   83000004 cyc:  104541251 now IPC :0.64941: AVG IPC :0.78216: L2-Pf-HR :0.99123: L2-HR :0.92445: (Sim:1h14m57s) 
CPU  1 inst:   83000004 cyc:  104685397 now IPC :0.58363: AVG IPC :0.78109: L2-Pf-HR :0.99139: L2-HR :0.92552: (Sim:1h15m4s) 
CPU  2 inst:   82000000 cyc:  104716943 now IPC :0.68083: AVG IPC :0.77121: L2-Pf-HR :0.99152: L2-HR :0.92606: (Sim:1h15m6s) 
CPU  0 inst:   86000001 cyc:  104978951 now IPC :0.66431: AVG IPC :0.80773: L2-Pf-HR :0.99187: L2-HR :0.92612: (Sim:1h15m19s) 
CPU  3 inst:   84000002 cyc:  105459305 now IPC :1.08926: AVG IPC :0.78486: L2-Pf-HR :0.99135: L2-HR :0.92465: (Sim:1h15m42s) 
CPU  1 inst:   84000002 cyc:  105847693 now IPC :0.86036: AVG IPC :0.78197: L2-Pf-HR :0.99149: L2-HR :0.92565: (Sim:1h16m1s) 
CPU  2 inst:   83000004 cyc:  106015813 now IPC :0.76990: AVG IPC :0.77120: L2-Pf-HR :0.99162: L2-HR :0.92620: (Sim:1h16m10s) 
CPU  3 inst:   85000003 cyc:  106516396 now IPC :0.94599: AVG IPC :0.78647: L2-Pf-HR :0.99144: L2-HR :0.92472: (Sim:1h16m35s) 
CPU  1 inst:   85000003 cyc:  106781481 now IPC :1.07091: AVG IPC :0.78452: L2-Pf-HR :0.99157: L2-HR :0.92567: (Sim:1h16m49s) 
CPU  2 inst:   84000002 cyc:  106897541 now IPC :1.13413: AVG IPC :0.77422: L2-Pf-HR :0.99171: L2-HR :0.92625: (Sim:1h16m54s) 
CPU  0 inst:   87000002 cyc:  107195982 now IPC :0.45105: AVG IPC :0.80029: L2-Pf-HR :0.99191: L2-HR :0.92611: (Sim:1h17m8s) 
CPU  3 inst:   86000001 cyc:  107708808 now IPC :0.83863: AVG IPC :0.78706: L2-Pf-HR :0.99151: L2-HR :0.92469: (Sim:1h17m34s) 
CPU  1 inst:   86000001 cyc:  107843373 now IPC :0.94171: AVG IPC :0.78608: L2-Pf-HR :0.99164: L2-HR :0.92564: (Sim:1h17m41s) 
CPU  2 inst:   85000003 cyc:  107850962 now IPC :1.04886: AVG IPC :0.77667: L2-Pf-HR :0.99179: L2-HR :0.92619: (Sim:1h17m41s) 
CPU  0 inst:   88000003 cyc:  108200383 now IPC :0.99562: AVG IPC :0.80212: L2-Pf-HR :0.99192: L2-HR :0.92617: (Sim:1h18m1s) 
CPU  2 inst:   86000001 cyc:  108738122 now IPC :1.12719: AVG IPC :0.77955: L2-Pf-HR :0.99187: L2-HR :0.92630: (Sim:1h18m31s) 
CPU  0 inst:   89000003 cyc:  109088234 now IPC :1.12632: AVG IPC :0.80478: L2-Pf-HR :0.99200: L2-HR :0.92631: (Sim:1h18m47s) 
CPU  3 inst:   87000002 cyc:  109259324 now IPC :0.64495: AVG IPC :0.78502: L2-Pf-HR :0.99155: L2-HR :0.92466: (Sim:1h18m56s) 
CPU  1 inst:   87000005 cyc:  109319366 now IPC :0.67751: AVG IPC :0.78460: L2-Pf-HR :0.99168: L2-HR :0.92565: (Sim:1h18m59s) 
CPU  0 inst:   90000000 cyc:  109691811 now IPC :1.65678: AVG IPC :0.80951: L2-Pf-HR :0.99205: L2-HR :0.92630: (Sim:1h19m18s) 
CPU  2 inst:   87000001 cyc:  110109104 now IPC :0.72940: AVG IPC :0.77892: L2-Pf-HR :0.99188: L2-HR :0.92621: (Sim:1h19m41s) 
CPU  1 inst:   88000003 cyc:  110240917 now IPC :1.08512: AVG IPC :0.78714: L2-Pf-HR :0.99165: L2-HR :0.92566: (Sim:1h19m47s) 
CPU  3 inst:   88000003 cyc:  110296668 now IPC :0.96400: AVG IPC :0.78672: L2-Pf-HR :0.99148: L2-HR :0.92464: (Sim:1h19m50s) 
CPU  0 inst:   91000000 cyc:  110553208 now IPC :1.16090: AVG IPC :0.81227: L2-Pf-HR :0.99198: L2-HR :0.92623: (Sim:1h20m3s) 
CPU  2 inst:   88000003 cyc:  111155707 now IPC :0.95547: AVG IPC :0.78060: L2-Pf-HR :0.99163: L2-HR :0.92593: (Sim:1h20m33s) 
CPU  1 inst:   89000003 cyc:  111373013 now IPC :0.88332: AVG IPC :0.78813: L2-Pf-HR :0.99147: L2-HR :0.92540: (Sim:1h20m42s) 
CPU  3 inst:   89000003 cyc:  111454785 now IPC :0.86347: AVG IPC :0.78752: L2-Pf-HR :0.99129: L2-HR :0.92442: (Sim:1h20m44s) 
CPU  0 inst:   92000001 cyc:  111607169 now IPC :0.94880: AVG IPC :0.81357: L2-Pf-HR :0.99175: L2-HR :0.92593: (Sim:1h20m49s) 
CPU  2 inst:   89000003 cyc:  112344363 now IPC :0.84129: AVG IPC :0.78125: L2-Pf-HR :0.99149: L2-HR :0.92568: (Sim:1h21m11s) 
CPU  1 inst:   90000000 cyc:  112695614 now IPC :0.75608: AVG IPC :0.78775: L2-Pf-HR :0.99142: L2-HR :0.92533: (Sim:1h21m22s) 
CPU  3 inst:   90000000 cyc:  112711803 now IPC :0.79553: AVG IPC :0.78761: L2-Pf-HR :0.99122: L2-HR :0.92438: (Sim:1h21m23s) 
CPU  0 inst:   93000000 cyc:  113207601 now IPC :0.62483: AVG IPC :0.81088: L2-Pf-HR :0.99169: L2-HR :0.92580: (Sim:1h21m36s) 
CPU  2 inst:   90000000 cyc:  113679155 now IPC :0.74918: AVG IPC :0.78087: L2-Pf-HR :0.99159: L2-HR :0.92584: (Sim:1h21m49s) 
CPU  1 inst:   91000001 cyc:  114009620 now IPC :0.76103: AVG IPC :0.78744: L2-Pf-HR :0.99151: L2-HR :0.92543: (Sim:1h22m2s) 
CPU  3 inst:   91000000 cyc:  114047595 now IPC :0.74862: AVG IPC :0.78715: L2-Pf-HR :0.99128: L2-HR :0.92448: (Sim:1h22m5s) 
CPU  0 inst:   94000001 cyc:  114564288 now IPC :0.73709: AVG IPC :0.81000: L2-Pf-HR :0.99161: L2-HR :0.92595: (Sim:1h22m27s) 
CPU  2 inst:   91000001 cyc:  114937070 now IPC :0.79497: AVG IPC :0.78102: L2-Pf-HR :0.99146: L2-HR :0.92558: (Sim:1h22m44s) 
CPU  1 inst:   92000001 cyc:  115322558 now IPC :0.76165: AVG IPC :0.78714: L2-Pf-HR :0.99127: L2-HR :0.92512: (Sim:1h23m0s) 
CPU  3 inst:   92000001 cyc:  115331355 now IPC :0.77896: AVG IPC :0.78706: L2-Pf-HR :0.99105: L2-HR :0.92418: (Sim:1h23m1s) 
CPU  0 inst:   95000002 cyc:  116016570 now IPC :0.68857: AVG IPC :0.80847: L2-Pf-HR :0.99148: L2-HR :0.92602: (Sim:1h23m37s) 
CPU  2 inst:   92000001 cyc:  116037104 now IPC :0.90906: AVG IPC :0.78225: L2-Pf-HR :0.99138: L2-HR :0.92546: (Sim:1h23m39s) 
CPU  0 inst:   96000003 cyc:  116598926 now IPC :1.71716: AVG IPC :0.81304: L2-Pf-HR :0.99154: L2-HR :0.92631: (Sim:1h24m9s) 
CPU  1 inst:   93000003 cyc:  116770010 now IPC :0.69087: AVG IPC :0.78594: L2-Pf-HR :0.99126: L2-HR :0.92508: (Sim:1h24m16s) 
CPU  3 inst:   93000005 cyc:  116812591 now IPC :0.67511: AVG IPC :0.78563: L2-Pf-HR :0.99104: L2-HR :0.92413: (Sim:1h24m18s) 
CPU  2 inst:   93000001 cyc:  117269157 now IPC :0.81165: AVG IPC :0.78256: L2-Pf-HR :0.99141: L2-HR :0.92553: (Sim:1h24m42s) 
CPU  1 inst:   94000001 cyc:  117510745 now IPC :1.35001: AVG IPC :0.78952: L2-Pf-HR :0.99125: L2-HR :0.92528: (Sim:1h24m54s) 
CPU  3 inst:   94000001 cyc:  117546648 now IPC :1.36229: AVG IPC :0.78926: L2-Pf-HR :0.99104: L2-HR :0.92431: (Sim:1h24m56s) 
CPU  0 inst:   97000000 cyc:  117968840 now IPC :0.72997: AVG IPC :0.81207: L2-Pf-HR :0.99156: L2-HR :0.92628: (Sim:1h25m20s) 
CPU  2 inst:   94000001 cyc:  118252780 now IPC :1.01665: AVG IPC :0.78452: L2-Pf-HR :0.99141: L2-HR :0.92573: (Sim:1h25m35s) 
CPU  1 inst:   95000002 cyc:  118321779 now IPC :1.23300: AVG IPC :0.79259: L2-Pf-HR :0.99132: L2-HR :0.92544: (Sim:1h25m38s) 
CPU  3 inst:   95000002 cyc:  118490976 now IPC :1.05896: AVG IPC :0.79143: L2-Pf-HR :0.99110: L2-HR :0.92446: (Sim:1h25m44s) 
CPU  0 inst:   98000001 cyc:  118915784 now IPC :1.05603: AVG IPC :0.81403: L2-Pf-HR :0.99151: L2-HR :0.92625: (Sim:1h25m59s) 
CPU  2 inst:   95000002 cyc:  119528883 now IPC :0.78364: AVG IPC :0.78451: L2-Pf-HR :0.99149: L2-HR :0.92607: (Sim:1h26m28s) 
CPU  1 inst:   96000003 cyc:  119655128 now IPC :0.74999: AVG IPC :0.79211: L2-Pf-HR :0.99139: L2-HR :0.92578: (Sim:1h26m34s) 
CPU  3 inst:   96000003 cyc:  119737656 now IPC :0.80213: AVG IPC :0.79154: L2-Pf-HR :0.99119: L2-HR :0.92483: (Sim:1h26m38s) 
CPU  0 inst:   99000001 cyc:  119829564 now IPC :1.09436: AVG IPC :0.81619: L2-Pf-HR :0.99154: L2-HR :0.92632: (Sim:1h26m43s) 
CPU  2 inst:   96000003 cyc:  120890478 now IPC :0.73443: AVG IPC :0.78395: L2-Pf-HR :0.99156: L2-HR :0.92638: (Sim:1h27m29s) 
CPU  0 inst:  100000001 cyc:  121140035 now IPC :0.76308: AVG IPC :0.81561: L2-Pf-HR :0.99158: L2-HR :0.92638: (Sim:1h27m39s) 
CPU  3 inst:   97000000 cyc:  121270091 now IPC :0.65255: AVG IPC :0.78977: L2-Pf-HR :0.99125: L2-HR :0.92499: (Sim:1h27m45s) 
CPU  1 inst:   97000000 cyc:  121286225 now IPC :0.61308: AVG IPC :0.78968: L2-Pf-HR :0.99145: L2-HR :0.92593: (Sim:1h27m46s) 
CPU  0 inst:  101000000 cyc:  122333438 now IPC :0.83794: AVG IPC :0.81583: L2-Pf-HR :0.99157: L2-HR :0.92631: (Sim:1h28m29s) 
CPU  3 inst:   98000001 cyc:  122337168 now IPC :0.93714: AVG IPC :0.79107: L2-Pf-HR :0.99122: L2-HR :0.92491: (Sim:1h28m29s) 
CPU  1 inst:   98000002 cyc:  122337664 now IPC :0.95108: AVG IPC :0.79108: L2-Pf-HR :0.99143: L2-HR :0.92585: (Sim:1h28m30s) 
CPU  2 inst:   97000000 cyc:  122664902 now IPC :0.56356: AVG IPC :0.78073: L2-Pf-HR :0.99159: L2-HR :0.92639: (Sim:1h28m38s) 
CPU  0 inst:  102000004 cyc:  123840451 now IPC :0.66357: AVG IPC :0.81396: L2-Pf-HR :0.99162: L2-HR :0.92624: (Sim:1h29m10s) 
CPU  3 inst:   99000001 cyc:  123846747 now IPC :0.66244: AVG IPC :0.78949: L2-Pf-HR :0.99128: L2-HR :0.92480: (Sim:1h29m11s) 
CPU  1 inst:   99000001 cyc:  123855992 now IPC :0.65862: AVG IPC :0.78944: L2-Pf-HR :0.99149: L2-HR :0.92574: (Sim:1h29m11s) 
CPU  2 inst:   98000001 cyc:  124025078 now IPC :0.73520: AVG IPC :0.78023: L2-Pf-HR :0.99159: L2-HR :0.92633: (Sim:1h29m19s) 
CPU  0 inst:  103000003 cyc:  124976808 now IPC :0.88000: AVG IPC :0.81456: L2-Pf-HR :0.99169: L2-HR :0.92639: (Sim:1h29m50s) 
CPU  1 inst:  100000001 cyc:  125268770 now IPC :0.70783: AVG IPC :0.78851: L2-Pf-HR :0.99158: L2-HR :0.92589: (Sim:1h30m0s) 
CPU  2 inst:   99000001 cyc:  125277422 now IPC :0.79850: AVG IPC :0.78041: L2-Pf-HR :0.99167: L2-HR :0.92644: (Sim:1h30m1s) 
CPU  3 inst:  100000000 cyc:  125292271 now IPC :0.69179: AVG IPC :0.78835: L2-Pf-HR :0.99137: L2-HR :0.92495: (Sim:1h30m1s) 
CPU  2 inst:  100000001 cyc:  126300522 now IPC :0.97742: AVG IPC :0.78202: L2-Pf-HR :0.99174: L2-HR :0.92649: (Sim:1h30m38s) 
CPU  0 inst:  104000002 cyc:  126689551 now IPC :0.58386: AVG IPC :0.81142: L2-Pf-HR :0.99169: L2-HR :0.92638: (Sim:1h30m54s) 
CPU  1 inst:  101000000 cyc:  126733909 now IPC :0.68253: AVG IPC :0.78728: L2-Pf-HR :0.99165: L2-HR :0.92595: (Sim:1h30m56s) 
CPU  3 inst:  101000000 cyc:  126789434 now IPC :0.66793: AVG IPC :0.78692: L2-Pf-HR :0.99145: L2-HR :0.92502: (Sim:1h30m59s) 
CPU  2 inst:  101000000 cyc:  127293232 now IPC :1.00734: AVG IPC :0.78379: L2-Pf-HR :0.99179: L2-HR :0.92641: (Sim:1h31m24s) 
CPU  0 inst:  105000004 cyc:  127711146 now IPC :0.97886: AVG IPC :0.81277: L2-Pf-HR :0.99174: L2-HR :0.92633: (Sim:1h31m40s) 
CPU  1 inst:  102000004 cyc:  127881818 now IPC :0.87115: AVG IPC :0.78804: L2-Pf-HR :0.99165: L2-HR :0.92579: (Sim:1h31m46s) 
CPU  3 inst:  102000004 cyc:  127899352 now IPC :0.90097: AVG IPC :0.78791: L2-Pf-HR :0.99145: L2-HR :0.92483: (Sim:1h31m47s) 
CPU  2 inst:  102000004 cyc:  128289376 now IPC :1.00387: AVG IPC :0.78551: L2-Pf-HR :0.99180: L2-HR :0.92632: (Sim:1h32m2s) 
CPU  0 inst:  106000005 cyc:  128480424 now IPC :1.29992: AVG IPC :0.81571: L2-Pf-HR :0.99180: L2-HR :0.92643: (Sim:1h32m12s) 
CPU  3 inst:  103000003 cyc:  128773613 now IPC :1.14382: AVG IPC :0.79035: L2-Pf-HR :0.99149: L2-HR :0.92493: (Sim:1h32m29s) 
CPU  1 inst:  103000003 cyc:  128774626 now IPC :1.12006: AVG IPC :0.79036: L2-Pf-HR :0.99170: L2-HR :0.92588: (Sim:1h32m29s) 
CPU  0 inst:  107000005 cyc:  129196235 now IPC :1.39702: AVG IPC :0.81896: L2-Pf-HR :0.99187: L2-HR :0.92654: (Sim:1h32m47s) 
CPU  2 inst:  103000003 cyc:  129272290 now IPC :1.01738: AVG IPC :0.78729: L2-Pf-HR :0.99185: L2-HR :0.92641: (Sim:1h32m50s) 
CPU  0 inst:  108000005 cyc:  129833801 now IPC :1.56847: AVG IPC :0.82266: L2-Pf-HR :0.99187: L2-HR :0.92650: (Sim:1h33m15s) 
CPU  3 inst:  104000001 cyc:  130386430 now IPC :0.62003: AVG IPC :0.78823: L2-Pf-HR :0.99138: L2-HR :0.92476: (Sim:1h33m45s) 
CPU  1 inst:  104000001 cyc:  130435893 now IPC :0.60195: AVG IPC :0.78794: L2-Pf-HR :0.99157: L2-HR :0.92568: (Sim:1h33m47s) 
CPU  0 inst:  109000003 cyc:  131108544 now IPC :0.78447: AVG IPC :0.82229: L2-Pf-HR :0.99186: L2-HR :0.92652: (Sim:1h34m20s) 
CPU  2 inst:  104000005 cyc:  131248604 now IPC :0.50599: AVG IPC :0.78302: L2-Pf-HR :0.99179: L2-HR :0.92626: (Sim:1h34m29s) 
CPU  1 inst:  105000004 cyc:  131502663 now IPC :0.93741: AVG IPC :0.78916: L2-Pf-HR :0.99160: L2-HR :0.92576: (Sim:1h34m41s) 
CPU  3 inst:  105000004 cyc:  131511451 now IPC :0.88887: AVG IPC :0.78909: L2-Pf-HR :0.99141: L2-HR :0.92485: (Sim:1h34m42s) 
CPU  2 inst:  105000004 cyc:  132356107 now IPC :0.90293: AVG IPC :0.78403: L2-Pf-HR :0.99186: L2-HR :0.92638: (Sim:1h35m24s) 
CPU  0 inst:  110000005 cyc:  132568768 now IPC :0.68483: AVG IPC :0.82076: L2-Pf-HR :0.99183: L2-HR :0.92664: (Sim:1h35m29s) 
CPU  3 inst:  106000005 cyc:  132781125 now IPC :0.78760: AVG IPC :0.78908: L2-Pf-HR :0.99149: L2-HR :0.92498: (Sim:1h35m36s) 
CPU  1 inst:  106000005 cyc:  132783374 now IPC :0.78082: AVG IPC :0.78908: L2-Pf-HR :0.99168: L2-HR :0.92591: (Sim:1h35m36s) 
CPU  0 inst:  111000002 cyc:  133706506 now IPC :0.87893: AVG IPC :0.82126: L2-Pf-HR :0.99190: L2-HR :0.92695: (Sim:1h35m59s) 
CPU  2 inst:  106000005 cyc:  133908667 now IPC :0.64410: AVG IPC :0.78240: L2-Pf-HR :0.99194: L2-HR :0.92657: (Sim:1h36m6s) 
CPU  1 inst:  107000005 cyc:  134230651 now IPC :0.69095: AVG IPC :0.78802: L2-Pf-HR :0.99175: L2-HR :0.92608: (Sim:1h36m28s) 
CPU  3 inst:  107000005 cyc:  134259397 now IPC :0.67647: AVG IPC :0.78783: L2-Pf-HR :0.99156: L2-HR :0.92513: (Sim:1h36m31s) 
CPU  0 inst:  112000003 cyc:  134551351 now IPC :1.18365: AVG IPC :0.82356: L2-Pf-HR :0.99194: L2-HR :0.92722: (Sim:1h36m46s) 
CPU  2 inst:  107000005 cyc:  134862092 now IPC :1.04885: AVG IPC :0.78430: L2-Pf-HR :0.99191: L2-HR :0.92652: (Sim:1h36m58s) 
CPU  1 inst:  108000005 cyc:  135231685 now IPC :0.99897: AVG IPC :0.78959: L2-Pf-HR :0.99158: L2-HR :0.92588: (Sim:1h37m17s) 
CPU  3 inst:  108000005 cyc:  135243837 now IPC :1.01581: AVG IPC :0.78950: L2-Pf-HR :0.99141: L2-HR :0.92494: (Sim:1h37m18s) 
CPU  0 inst:  113000002 cyc:  135378193 now IPC :1.20942: AVG IPC :0.82593: L2-Pf-HR :0.99176: L2-HR :0.92729: (Sim:1h37m26s) 
CPU  2 inst:  108000005 cyc:  135979265 now IPC :0.89512: AVG IPC :0.78521: L2-Pf-HR :0.99193: L2-HR :0.92652: (Sim:1h37m54s) 
CPU  3 inst:  109000003 cyc:  136311917 now IPC :0.93626: AVG IPC :0.79066: L2-Pf-HR :0.99146: L2-HR :0.92510: (Sim:1h38m9s) 
CPU  1 inst:  109000003 cyc:  136328256 now IPC :0.91193: AVG IPC :0.79058: L2-Pf-HR :0.99163: L2-HR :0.92604: (Sim:1h38m10s) 
CPU  2 inst:  109000003 cyc:  136844519 now IPC :1.15573: AVG IPC :0.78757: L2-Pf-HR :0.99197: L2-HR :0.92658: (Sim:1h38m34s) 
CPU  0 inst:  114000003 cyc:  136975348 now IPC :0.62611: AVG IPC :0.82358: L2-Pf-HR :0.99172: L2-HR :0.92707: (Sim:1h38m40s) 
CPU  1 inst:  110000005 cyc:  137760260 now IPC :0.69832: AVG IPC :0.78961: L2-Pf-HR :0.99162: L2-HR :0.92609: (Sim:1h39m20s) 
CPU  3 inst:  110000003 cyc:  137783772 now IPC :0.67941: AVG IPC :0.78946: L2-Pf-HR :0.99145: L2-HR :0.92512: (Sim:1h39m22s) 
CPU  0 inst:  115000003 cyc:  137927158 now IPC :1.05063: AVG IPC :0.82516: L2-Pf-HR :0.99176: L2-HR :0.92700: (Sim:1h39m30s) 
CPU  1 inst:  111000002 cyc:  138503002 now IPC :1.34636: AVG IPC :0.79262: L2-Pf-HR :0.99167: L2-HR :0.92624: (Sim:1h40m1s) 
CPU  2 inst:  110000005 cyc:  138508104 now IPC :0.60111: AVG IPC :0.78532: L2-Pf-HR :0.99193: L2-HR :0.92664: (Sim:1h40m1s) 
CPU  3 inst:  111000002 cyc:  138541638 now IPC :1.31949: AVG IPC :0.79238: L2-Pf-HR :0.99151: L2-HR :0.92526: (Sim:1h40m4s) 
CPU  0 inst:  116000002 cyc:  138956699 now IPC :0.97131: AVG IPC :0.82625: L2-Pf-HR :0.99182: L2-HR :0.92700: (Sim:1h40m20s) 
CPU  1 inst:  112000003 cyc:  139698670 now IPC :0.83635: AVG IPC :0.79300: L2-Pf-HR :0.99173: L2-HR :0.92632: (Sim:1h40m42s) 
CPU  2 inst:  111000002 cyc:  139754349 now IPC :0.80241: AVG IPC :0.78547: L2-Pf-HR :0.99198: L2-HR :0.92674: (Sim:1h40m43s) 
CPU  3 inst:  112000003 cyc:  139765496 now IPC :0.81709: AVG IPC :0.79260: L2-Pf-HR :0.99156: L2-HR :0.92532: (Sim:1h40m44s) 
CPU  0 inst:  117000003 cyc:  140214752 now IPC :0.79488: AVG IPC :0.82597: L2-Pf-HR :0.99186: L2-HR :0.92686: (Sim:1h40m58s) 
CPU  2 inst:  112000003 cyc:  140850772 now IPC :0.91206: AVG IPC :0.78646: L2-Pf-HR :0.99203: L2-HR :0.92680: (Sim:1h41m21s) 
CPU  3 inst:  113000002 cyc:  140864618 now IPC :0.90982: AVG IPC :0.79352: L2-Pf-HR :0.99160: L2-HR :0.92537: (Sim:1h41m21s) 
CPU  1 inst:  113000002 cyc:  140873838 now IPC :0.85094: AVG IPC :0.79348: L2-Pf-HR :0.99177: L2-HR :0.92639: (Sim:1h41m21s) 
CPU  0 inst:  118000001 cyc:  141378084 now IPC :0.85960: AVG IPC :0.82625: L2-Pf-HR :0.99191: L2-HR :0.92685: (Sim:1h41m41s) 
CPU  2 inst:  113000002 cyc:  141510836 now IPC :1.51500: AVG IPC :0.78989: L2-Pf-HR :0.99208: L2-HR :0.92704: (Sim:1h41m46s) 
CPU  0 inst:  119000005 cyc:  142187941 now IPC :1.23479: AVG IPC :0.82859: L2-Pf-HR :0.99195: L2-HR :0.92682: (Sim:1h42m4s) 
CPU  3 inst:  114000003 cyc:  142681707 now IPC :0.55033: AVG IPC :0.79040: L2-Pf-HR :0.99157: L2-HR :0.92520: (Sim:1h42m17s) 
CPU  1 inst:  114000003 cyc:  142724890 now IPC :0.54023: AVG IPC :0.79018: L2-Pf-HR :0.99173: L2-HR :0.92621: (Sim:1h42m18s) 
CPU  2 inst:  114000003 cyc:  143773722 now IPC :0.44191: AVG IPC :0.78437: L2-Pf-HR :0.99206: L2-HR :0.92684: (Sim:1h42m50s) 
CPU  3 inst:  115000003 cyc:  144073612 now IPC :0.71844: AVG IPC :0.78970: L2-Pf-HR :0.99163: L2-HR :0.92517: (Sim:1h43m2s) 
CPU  1 inst:  115000003 cyc:  144134151 now IPC :0.70959: AVG IPC :0.78938: L2-Pf-HR :0.99179: L2-HR :0.92617: (Sim:1h43m4s) 
CPU  0 inst:  120000005 cyc:  144714135 now IPC :0.39585: AVG IPC :0.82098: L2-Pf-HR :0.99192: L2-HR :0.92673: (Sim:1h43m26s) 
CPU  2 inst:  115000003 cyc:  145062192 now IPC :0.77611: AVG IPC :0.78430: L2-Pf-HR :0.99211: L2-HR :0.92683: (Sim:1h43m42s) 
CPU  3 inst:  116000002 cyc:  145246387 now IPC :0.85268: AVG IPC :0.79022: L2-Pf-HR :0.99170: L2-HR :0.92524: (Sim:1h43m51s) 
CPU  1 inst:  116000002 cyc:  145291565 now IPC :0.86399: AVG IPC :0.78998: L2-Pf-HR :0.99186: L2-HR :0.92625: (Sim:1h43m53s) 
CPU  0 inst:  121000005 cyc:  146151279 now IPC :0.69582: AVG IPC :0.81974: L2-Pf-HR :0.99198: L2-HR :0.92686: (Sim:1h44m30s) 
CPU  2 inst:  116000002 cyc:  146297889 now IPC :0.80926: AVG IPC :0.78451: L2-Pf-HR :0.99217: L2-HR :0.92688: (Sim:1h44m36s) 
CPU  3 inst:  117000003 cyc:  146635394 now IPC :0.71994: AVG IPC :0.78954: L2-Pf-HR :0.99176: L2-HR :0.92532: (Sim:1h44m50s) 
CPU  1 inst:  117000003 cyc:  146637822 now IPC :0.74280: AVG IPC :0.78955: L2-Pf-HR :0.99192: L2-HR :0.92634: (Sim:1h44m50s) 
CPU  0 inst:  122000005 cyc:  147131205 now IPC :1.02049: AVG IPC :0.82109: L2-Pf-HR :0.99205: L2-HR :0.92698: (Sim:1h45m12s) 
CPU  2 inst:  117000001 cyc:  147462033 now IPC :0.85900: AVG IPC :0.78510: L2-Pf-HR :0.99223: L2-HR :0.92690: (Sim:1h45m28s) 
CPU  3 inst:  118000001 cyc:  147837941 now IPC :0.83157: AVG IPC :0.78989: L2-Pf-HR :0.99181: L2-HR :0.92531: (Sim:1h45m45s) 
CPU  1 inst:  118000001 cyc:  147844669 now IPC :0.82860: AVG IPC :0.78987: L2-Pf-HR :0.99197: L2-HR :0.92633: (Sim:1h45m45s) 
CPU  0 inst:  123000003 cyc:  148360804 now IPC :0.81327: AVG IPC :0.82103: L2-Pf-HR :0.99210: L2-HR :0.92706: (Sim:1h46m10s) 
CPU  2 inst:  118000001 cyc:  148710824 now IPC :0.80077: AVG IPC :0.78523: L2-Pf-HR :0.99229: L2-HR :0.92692: (Sim:1h46m26s) 
CPU  1 inst:  119000005 cyc:  149030594 now IPC :0.84323: AVG IPC :0.79029: L2-Pf-HR :0.99204: L2-HR :0.92643: (Sim:1h46m41s) 
CPU  3 inst:  119000005 cyc:  149036239 now IPC :0.83452: AVG IPC :0.79025: L2-Pf-HR :0.99188: L2-HR :0.92539: (Sim:1h46m42s) 
CPU  0 inst:  124000003 cyc:  149381717 now IPC :0.97952: AVG IPC :0.82212: L2-Pf-HR :0.99216: L2-HR :0.92714: (Sim:1h46m59s) 
CPU  2 inst:  119000005 cyc:  149603022 now IPC :1.12083: AVG IPC :0.78725: L2-Pf-HR :0.99234: L2-HR :0.92699: (Sim:1h47m10s) 
CPU  0 inst:  125000003 cyc:  150049975 now IPC :1.49643: AVG IPC :0.82514: L2-Pf-HR :0.99220: L2-HR :0.92720: (Sim:1h47m31s) 
CPU  1 inst:  120000005 cyc:  150336535 now IPC :0.76573: AVG IPC :0.79008: L2-Pf-HR :0.99198: L2-HR :0.92635: (Sim:1h47m46s) 
CPU  3 inst:  120000005 cyc:  150350395 now IPC :0.76094: AVG IPC :0.78999: L2-Pf-HR :0.99182: L2-HR :0.92531: (Sim:1h47m46s) 
CPU  2 inst:  120000005 cyc:  151158533 now IPC :0.64288: AVG IPC :0.78575: L2-Pf-HR :0.99213: L2-HR :0.92669: (Sim:1h48m13s) 
CPU  1 inst:  121000003 cyc:  151508360 now IPC :0.85337: AVG IPC :0.79057: L2-Pf-HR :0.99183: L2-HR :0.92615: (Sim:1h48m23s) 
CPU  3 inst:  121000005 cyc:  151514036 now IPC :0.85937: AVG IPC :0.79053: L2-Pf-HR :0.99166: L2-HR :0.92509: (Sim:1h48m23s) 
CPU  0 inst:  126000005 cyc:  152276565 now IPC :0.44912: AVG IPC :0.81960: L2-Pf-HR :0.99218: L2-HR :0.92717: (Sim:1h48m52s) 
CPU  2 inst:  121000005 cyc:  152292716 now IPC :0.88169: AVG IPC :0.78647: L2-Pf-HR :0.99214: L2-HR :0.92661: (Sim:1h48m53s) 
CPU  3 inst:  122000005 cyc:  152615222 now IPC :0.90811: AVG IPC :0.79138: L2-Pf-HR :0.99171: L2-HR :0.92507: (Sim:1h49m3s) 
CPU  1 inst:  122000005 cyc:  152615725 now IPC :0.90305: AVG IPC :0.79139: L2-Pf-HR :0.99188: L2-HR :0.92615: (Sim:1h49m3s) 
CPU  0 inst:  127000000 cyc:  153411395 now IPC :0.88118: AVG IPC :0.82006: L2-Pf-HR :0.99222: L2-HR :0.92736: (Sim:1h49m28s) 
CPU  2 inst:  122000003 cyc:  153497073 now IPC :0.83032: AVG IPC :0.78682: L2-Pf-HR :0.99219: L2-HR :0.92666: (Sim:1h49m31s) 
CPU  3 inst:  123000003 cyc:  153827782 now IPC :0.82470: AVG IPC :0.79165: L2-Pf-HR :0.99176: L2-HR :0.92511: (Sim:1h49m40s) 
CPU  1 inst:  123000003 cyc:  153838128 now IPC :0.81806: AVG IPC :0.79161: L2-Pf-HR :0.99193: L2-HR :0.92620: (Sim:1h49m40s) 
CPU  2 inst:  123000003 cyc:  154669918 now IPC :0.85263: AVG IPC :0.78732: L2-Pf-HR :0.99224: L2-HR :0.92667: (Sim:1h50m5s) 
CPU  1 inst:  124000003 cyc:  154954929 now IPC :0.89541: AVG IPC :0.79236: L2-Pf-HR :0.99198: L2-HR :0.92620: (Sim:1h50m16s) 
CPU  3 inst:  124000003 cyc:  154971740 now IPC :0.87416: AVG IPC :0.79226: L2-Pf-HR :0.99180: L2-HR :0.92508: (Sim:1h50m16s) 
CPU  0 inst:  128000001 cyc:  155072162 now IPC :0.60213: AVG IPC :0.81771: L2-Pf-HR :0.99227: L2-HR :0.92747: (Sim:1h50m19s) 
CPU  2 inst:  124000003 cyc:  155691020 now IPC :0.97933: AVG IPC :0.78859: L2-Pf-HR :0.99223: L2-HR :0.92655: (Sim:1h50m44s) 
CPU  1 inst:  125000003 cyc:  155958879 now IPC :0.99607: AVG IPC :0.79368: L2-Pf-HR :0.99198: L2-HR :0.92617: (Sim:1h50m58s) 
CPU  3 inst:  125000003 cyc:  155966014 now IPC :1.00576: AVG IPC :0.79363: L2-Pf-HR :0.99181: L2-HR :0.92506: (Sim:1h50m59s) 
CPU  0 inst:  129000004 cyc:  156191910 now IPC :0.89306: AVG IPC :0.81826: L2-Pf-HR :0.99228: L2-HR :0.92759: (Sim:1h51m12s) 
CPU  2 inst:  125000003 cyc:  156371117 now IPC :1.47038: AVG IPC :0.79157: L2-Pf-HR :0.99228: L2-HR :0.92663: (Sim:1h51m21s) 
CPU  1 inst:  126000005 cyc:  157081934 now IPC :0.89043: AVG IPC :0.79438: L2-Pf-HR :0.99196: L2-HR :0.92617: (Sim:1h51m48s) 
CPU  3 inst:  126000005 cyc:  157082211 now IPC :0.89590: AVG IPC :0.79436: L2-Pf-HR :0.99178: L2-HR :0.92507: (Sim:1h51m48s) 
CPU  2 inst:  126000005 cyc:  157951100 now IPC :0.63292: AVG IPC :0.78998: L2-Pf-HR :0.99227: L2-HR :0.92668: (Sim:1h52m26s) 
CPU  1 inst:  127000000 cyc:  157960925 now IPC :1.13766: AVG IPC :0.79630: L2-Pf-HR :0.99200: L2-HR :0.92627: (Sim:1h52m27s) 
CPU  3 inst:  127000000 cyc:  157974668 now IPC :1.12050: AVG IPC :0.79621: L2-Pf-HR :0.99183: L2-HR :0.92517: (Sim:1h52m28s) 
CPU  2 inst:  127000000 cyc:  158856034 now IPC :1.10505: AVG IPC :0.79178: L2-Pf-HR :0.99232: L2-HR :0.92689: (Sim:1h53m8s) 
CPU  3 inst:  128000001 cyc:  159112386 now IPC :0.87895: AVG IPC :0.79681: L2-Pf-HR :0.99188: L2-HR :0.92535: (Sim:1h53m20s) 
CPU  1 inst:  128000001 cyc:  159112537 now IPC :0.86835: AVG IPC :0.79682: L2-Pf-HR :0.99206: L2-HR :0.92643: (Sim:1h53m20s) 
CPU  3 inst:  129000004 cyc:  160084113 now IPC :1.02910: AVG IPC :0.79823: L2-Pf-HR :0.99185: L2-HR :0.92545: (Sim:1h54m7s) 
CPU  1 inst:  129000004 cyc:  160094829 now IPC :1.01803: AVG IPC :0.79819: L2-Pf-HR :0.99202: L2-HR :0.92652: (Sim:1h54m7s) 
CPU  2 inst:  128000001 cyc:  160123718 now IPC :0.78884: AVG IPC :0.79176: L2-Pf-HR :0.99229: L2-HR :0.92705: (Sim:1h54m9s) 
CPU  2 inst:  129000004 cyc:  161143418 now IPC :0.98068: AVG IPC :0.79296: L2-Pf-HR :0.99234: L2-HR :0.92725: (Sim:1h54m39s) 
CPU  0 inst:  130000002 cyc:  172444083 now IPC :0.06153: AVG IPC :0.74653: L2-Pf-HR :0.99214: L2-HR :0.92138: (Sim:1h59m54s) 
CPU  3 inst:  130000005 cyc:  177761352 now IPC :0.05657: AVG IPC :0.72407: L2-Pf-HR :0.99173: L2-HR :0.91914: (Sim:2h2m29s) 
CPU  1 inst:  130000002 cyc:  177827403 now IPC :0.05639: AVG IPC :0.72381: L2-Pf-HR :0.99190: L2-HR :0.92025: (Sim:2h2m31s) 
CPU  2 inst:  130000002 cyc:  179418622 now IPC :0.05472: AVG IPC :0.71735: L2-Pf-HR :0.99222: L2-HR :0.92099: (Sim:2h3m19s) 
CPU  0 inst:  131000001 cyc:  194308142 now IPC :0.04574: AVG IPC :0.66727: L2-Pf-HR :0.99199: L2-HR :0.91372: (Sim:2h10m7s) 
CPU  3 inst:  131000003 cyc:  199637472 now IPC :0.04571: AVG IPC :0.64936: L2-Pf-HR :0.99159: L2-HR :0.91136: (Sim:2h12m22s) 
CPU  1 inst:  131000001 cyc:  199679830 now IPC :0.04576: AVG IPC :0.64924: L2-Pf-HR :0.99175: L2-HR :0.91254: (Sim:2h12m24s) 
CPU  2 inst:  131000004 cyc:  201169973 now IPC :0.04597: AVG IPC :0.64440: L2-Pf-HR :0.99208: L2-HR :0.91328: (Sim:2h13m8s) 
CPU  0 inst:  132000003 cyc:  216135779 now IPC :0.04581: AVG IPC :0.60422: L2-Pf-HR :0.99185: L2-HR :0.90633: (Sim:2h21m11s) 
CPU  3 inst:  132000003 cyc:  221333567 now IPC :0.04609: AVG IPC :0.58996: L2-Pf-HR :0.99144: L2-HR :0.90386: (Sim:2h24m1s) 
CPU  1 inst:  132000003 cyc:  221599796 now IPC :0.04562: AVG IPC :0.58926: L2-Pf-HR :0.99161: L2-HR :0.90511: (Sim:2h24m10s) 
CPU  2 inst:  132000002 cyc:  223019516 now IPC :0.04577: AVG IPC :0.58549: L2-Pf-HR :0.99194: L2-HR :0.90585: (Sim:2h24m56s) 
CPU  0 inst:  133000002 cyc:  237933296 now IPC :0.04588: AVG IPC :0.55286: L2-Pf-HR :0.99172: L2-HR :0.89921: (Sim:2h32m26s) 
CPU  3 inst:  133000002 cyc:  243261379 now IPC :0.04560: AVG IPC :0.54070: L2-Pf-HR :0.99130: L2-HR :0.89663: (Sim:2h35m8s) 
CPU  1 inst:  133000002 cyc:  243449951 now IPC :0.04577: AVG IPC :0.54028: L2-Pf-HR :0.99147: L2-HR :0.89794: (Sim:2h35m13s) 
CPU  2 inst:  133000005 cyc:  244780568 now IPC :0.04595: AVG IPC :0.53733: L2-Pf-HR :0.99180: L2-HR :0.89868: (Sim:2h35m54s) 
CPU  0 inst:  134000000 cyc:  259459774 now IPC :0.04645: AVG IPC :0.51069: L2-Pf-HR :0.99157: L2-HR :0.89258: (Sim:2h43m33s) 
CPU  3 inst:  134000000 cyc:  263935088 now IPC :0.04837: AVG IPC :0.50199: L2-Pf-HR :0.99115: L2-HR :0.88992: (Sim:2h45m44s) 
CPU  1 inst:  134000000 cyc:  264054233 now IPC :0.04853: AVG IPC :0.50177: L2-Pf-HR :0.99132: L2-HR :0.89128: (Sim:2h45m47s) 
CPU  2 inst:  134000000 cyc:  264543985 now IPC :0.05060: AVG IPC :0.50083: L2-Pf-HR :0.99165: L2-HR :0.89201: (Sim:2h46m0s) 
CPU  0 inst:  135000000 cyc:  265303123 now IPC :0.17113: AVG IPC :0.50318: L2-Pf-HR :0.99123: L2-HR :0.89153: (Sim:2h46m23s) 
CPU  3 inst:  135000000 cyc:  268145576 now IPC :0.23750: AVG IPC :0.49782: L2-Pf-HR :0.99078: L2-HR :0.88886: (Sim:2h47m48s) 
CPU  1 inst:  135000000 cyc:  268246605 now IPC :0.23853: AVG IPC :0.49764: L2-Pf-HR :0.99096: L2-HR :0.89023: (Sim:2h47m51s) 
CPU  2 inst:  135000000 cyc:  268646794 now IPC :0.24374: AVG IPC :0.49689: L2-Pf-HR :0.99128: L2-HR :0.89096: (Sim:2h48m3s) 
CPU  0 inst:  136000002 cyc:  269394620 now IPC :0.24441: AVG IPC :0.49924: L2-Pf-HR :0.99087: L2-HR :0.89049: (Sim:2h48m23s) 
CPU  3 inst:  136000002 cyc:  272235066 now IPC :0.24453: AVG IPC :0.49400: L2-Pf-HR :0.99041: L2-HR :0.88780: (Sim:2h49m26s) 
CPU  1 inst:  136000002 cyc:  272337178 now IPC :0.24447: AVG IPC :0.49382: L2-Pf-HR :0.99060: L2-HR :0.88918: (Sim:2h49m29s) 
CPU  2 inst:  136000002 cyc:  272729065 now IPC :0.24496: AVG IPC :0.49311: L2-Pf-HR :0.99092: L2-HR :0.88991: (Sim:2h49m40s) 
CPU  0 inst:  137000000 cyc:  273481500 now IPC :0.24468: AVG IPC :0.49542: L2-Pf-HR :0.99051: L2-HR :0.88945: (Sim:2h50m2s) 
CPU  3 inst:  137000000 cyc:  276275518 now IPC :0.24750: AVG IPC :0.49038: L2-Pf-HR :0.99004: L2-HR :0.88674: (Sim:2h51m22s) 
CPU  1 inst:  137000000 cyc:  276376703 now IPC :0.24755: AVG IPC :0.49021: L2-Pf-HR :0.99024: L2-HR :0.88813: (Sim:2h51m24s) 
CPU  2 inst:  137000000 cyc:  276766024 now IPC :0.24771: AVG IPC :0.48952: L2-Pf-HR :0.99055: L2-HR :0.88887: (Sim:2h51m36s) 
CPU  0 inst:  138000000 cyc:  277503597 now IPC :0.24863: AVG IPC :0.49183: L2-Pf-HR :0.99016: L2-HR :0.88842: (Sim:2h51m57s) 
CPU  3 inst:  138000000 cyc:  280277861 now IPC :0.24985: AVG IPC :0.48694: L2-Pf-HR :0.98967: L2-HR :0.88570: (Sim:2h52m58s) 
CPU  1 inst:  138000000 cyc:  280380437 now IPC :0.24977: AVG IPC :0.48676: L2-Pf-HR :0.98988: L2-HR :0.88710: (Sim:2h53m0s) 
CPU  2 inst:  138000000 cyc:  280762516 now IPC :0.25022: AVG IPC :0.48610: L2-Pf-HR :0.99018: L2-HR :0.88783: (Sim:2h53m7s) 
CPU  0 inst:  139000000 cyc:  281495492 now IPC :0.25051: AVG IPC :0.48839: L2-Pf-HR :0.98980: L2-HR :0.88739: (Sim:2h53m20s) 
CPU  3 inst:  139000000 cyc:  284257494 now IPC :0.25128: AVG IPC :0.48363: L2-Pf-HR :0.98930: L2-HR :0.88465: (Sim:2h54m32s) 
CPU  1 inst:  139000000 cyc:  284362151 now IPC :0.25115: AVG IPC :0.48345: L2-Pf-HR :0.98952: L2-HR :0.88606: (Sim:2h54m34s) 
CPU  2 inst:  139000000 cyc:  284741484 now IPC :0.25132: AVG IPC :0.48281: L2-Pf-HR :0.98981: L2-HR :0.88679: (Sim:2h54m41s) 
CPU  0 inst:  140000002 cyc:  285470535 now IPC :0.25157: AVG IPC :0.48508: L2-Pf-HR :0.98944: L2-HR :0.88636: (Sim:2h54m54s) 
CPU  3 inst:  140000002 cyc:  288246143 now IPC :0.25071: AVG IPC :0.48039: L2-Pf-HR :0.98893: L2-HR :0.88361: (Sim:2h56m13s) 
CPU  1 inst:  140000002 cyc:  288348684 now IPC :0.25085: AVG IPC :0.48023: L2-Pf-HR :0.98916: L2-HR :0.88503: (Sim:2h56m16s) 
CPU  2 inst:  140000002 cyc:  288732467 now IPC :0.25057: AVG IPC :0.47959: L2-Pf-HR :0.98944: L2-HR :0.88576: (Sim:2h56m27s) 
CPU  0 inst:  141000004 cyc:  289464875 now IPC :0.25035: AVG IPC :0.48183: L2-Pf-HR :0.98908: L2-HR :0.88534: (Sim:2h56m49s) 
CPU  3 inst:  141000004 cyc:  292229388 now IPC :0.25105: AVG IPC :0.47725: L2-Pf-HR :0.98856: L2-HR :0.88257: (Sim:2h57m56s) 
CPU  1 inst:  141000004 cyc:  292331871 now IPC :0.25106: AVG IPC :0.47709: L2-Pf-HR :0.98880: L2-HR :0.88400: (Sim:2h57m58s) 
CPU  2 inst:  141000004 cyc:  292718410 now IPC :0.25088: AVG IPC :0.47646: L2-Pf-HR :0.98907: L2-HR :0.88473: (Sim:2h58m9s) 
CPU  0 inst:  142000004 cyc:  293456995 now IPC :0.25049: AVG IPC :0.47868: L2-Pf-HR :0.98872: L2-HR :0.88433: (Sim:2h58m29s) 
CPU  3 inst:  142000004 cyc:  296235927 now IPC :0.24959: AVG IPC :0.47417: L2-Pf-HR :0.98818: L2-HR :0.88154: (Sim:2h59m16s) 
CPU  1 inst:  142000004 cyc:  296337966 now IPC :0.24962: AVG IPC :0.47401: L2-Pf-HR :0.98844: L2-HR :0.88298: (Sim:2h59m17s) 
CPU  2 inst:  142000004 cyc:  296723998 now IPC :0.24965: AVG IPC :0.47339: L2-Pf-HR :0.98870: L2-HR :0.88371: (Sim:2h59m28s) 
CPU  0 inst:  143000000 cyc:  297453580 now IPC :0.25021: AVG IPC :0.47560: L2-Pf-HR :0.98836: L2-HR :0.88331: (Sim:2h59m49s) 
CPU  3 inst:  143000000 cyc:  300221418 now IPC :0.25091: AVG IPC :0.47119: L2-Pf-HR :0.98781: L2-HR :0.88052: (Sim:3h0m57s) 
CPU  1 inst:  143000000 cyc:  300320486 now IPC :0.25110: AVG IPC :0.47104: L2-Pf-HR :0.98808: L2-HR :0.88196: (Sim:3h0m59s) 
CPU  2 inst:  143000000 cyc:  300710202 now IPC :0.25086: AVG IPC :0.47043: L2-Pf-HR :0.98833: L2-HR :0.88269: (Sim:3h1m5s) 
CPU  0 inst:  144000003 cyc:  301441235 now IPC :0.25077: AVG IPC :0.47261: L2-Pf-HR :0.98801: L2-HR :0.88230: (Sim:3h1m16s) 
CPU  3 inst:  144000003 cyc:  304200917 now IPC :0.25129: AVG IPC :0.46831: L2-Pf-HR :0.98745: L2-HR :0.87949: (Sim:3h2m1s) 
CPU  1 inst:  144000003 cyc:  304303928 now IPC :0.25104: AVG IPC :0.46815: L2-Pf-HR :0.98772: L2-HR :0.88094: (Sim:3h2m3s) 
CPU  2 inst:  144000003 cyc:  304697061 now IPC :0.25082: AVG IPC :0.46755: L2-Pf-HR :0.98796: L2-HR :0.88168: (Sim:3h2m9s) 
CPU  0 inst:  145000002 cyc:  305422682 now IPC :0.25116: AVG IPC :0.46972: L2-Pf-HR :0.98765: L2-HR :0.88130: (Sim:3h2m21s) 
CPU  3 inst:  145000002 cyc:  308197707 now IPC :0.25020: AVG IPC :0.46547: L2-Pf-HR :0.98707: L2-HR :0.87848: (Sim:3h3m11s) 
CPU  1 inst:  145000002 cyc:  308301084 now IPC :0.25018: AVG IPC :0.46532: L2-Pf-HR :0.98736: L2-HR :0.87993: (Sim:3h3m14s) 
CPU  2 inst:  145000002 cyc:  308684389 now IPC :0.25079: AVG IPC :0.46474: L2-Pf-HR :0.98760: L2-HR :0.88067: (Sim:3h3m25s) 
CPU  0 inst:  146000000 cyc:  309418795 now IPC :0.25024: AVG IPC :0.46687: L2-Pf-HR :0.98730: L2-HR :0.88030: (Sim:3h3m46s) 
CPU  3 inst:  146000000 cyc:  312184889 now IPC :0.25080: AVG IPC :0.46272: L2-Pf-HR :0.98670: L2-HR :0.87747: (Sim:3h5m6s) 
CPU  1 inst:  146000000 cyc:  312287963 now IPC :0.25082: AVG IPC :0.46257: L2-Pf-HR :0.98700: L2-HR :0.87893: (Sim:3h5m9s) 
CPU  2 inst:  146000000 cyc:  312677228 now IPC :0.25045: AVG IPC :0.46199: L2-Pf-HR :0.98723: L2-HR :0.87967: (Sim:3h5m20s) 
CPU  0 inst:  147000000 cyc:  313411609 now IPC :0.25045: AVG IPC :0.46411: L2-Pf-HR :0.98694: L2-HR :0.87931: (Sim:3h5m41s) 
CPU  3 inst:  147000000 cyc:  316183101 now IPC :0.25011: AVG IPC :0.46002: L2-Pf-HR :0.98634: L2-HR :0.87646: (Sim:3h7m1s) 
CPU  1 inst:  147000000 cyc:  316281933 now IPC :0.25038: AVG IPC :0.45988: L2-Pf-HR :0.98664: L2-HR :0.87793: (Sim:3h7m4s) 
CPU  2 inst:  147000000 cyc:  316667322 now IPC :0.25062: AVG IPC :0.45932: L2-Pf-HR :0.98687: L2-HR :0.87867: (Sim:3h7m15s) 
CPU  0 inst:  148000003 cyc:  317395365 now IPC :0.25102: AVG IPC :0.46142: L2-Pf-HR :0.98658: L2-HR :0.87832: (Sim:3h7m37s) 
CPU  3 inst:  148000003 cyc:  320163205 now IPC :0.25125: AVG IPC :0.45742: L2-Pf-HR :0.98597: L2-HR :0.87545: (Sim:3h8m58s) 
CPU  1 inst:  148000003 cyc:  320262762 now IPC :0.25120: AVG IPC :0.45728: L2-Pf-HR :0.98628: L2-HR :0.87693: (Sim:3h9m1s) 
CPU  2 inst:  148000003 cyc:  320656134 now IPC :0.25070: AVG IPC :0.45672: L2-Pf-HR :0.98650: L2-HR :0.87767: (Sim:3h9m12s) 
CPU  0 inst:  149000002 cyc:  321385415 now IPC :0.25062: AVG IPC :0.45880: L2-Pf-HR :0.98622: L2-HR :0.87733: (Sim:3h9m34s) 
CPU  3 inst:  149000002 cyc:  324161151 now IPC :0.25013: AVG IPC :0.45485: L2-Pf-HR :0.98560: L2-HR :0.87445: (Sim:3h10m52s) 
CPU  1 inst:  149000002 cyc:  324259769 now IPC :0.25019: AVG IPC :0.45472: L2-Pf-HR :0.98592: L2-HR :0.87594: (Sim:3h10m54s) 
CPU  2 inst:  149000002 cyc:  324647891 now IPC :0.25052: AVG IPC :0.45417: L2-Pf-HR :0.98613: L2-HR :0.87668: (Sim:3h11m0s) 
CPU  0 inst:  150000000 cyc:  325376080 now IPC :0.25058: AVG IPC :0.45624: L2-Pf-HR :0.98587: L2-HR :0.87635: (Sim:3h11m11s) 
CPU  3 inst:  150000000 cyc:  328143938 now IPC :0.25108: AVG IPC :0.45237: L2-Pf-HR :0.98524: L2-HR :0.87346: (Sim:3h11m54s) 
CPU  1 inst:  150000000 cyc:  328246361 now IPC :0.25084: AVG IPC :0.45224: L2-Pf-HR :0.98557: L2-HR :0.87495: (Sim:3h11m56s) 
CPU  2 inst:  150000000 cyc:  328638020 now IPC :0.25062: AVG IPC :0.45170: L2-Pf-HR :0.98576: L2-HR :0.87569: (Sim:3h12m2s) 
CPU  0 inst:  151000000 cyc:  329369957 now IPC :0.25038: AVG IPC :0.45373: L2-Pf-HR :0.98551: L2-HR :0.87537: (Sim:3h12m13s) 
CPU  3 inst:  151000000 cyc:  332132470 now IPC :0.25072: AVG IPC :0.44994: L2-Pf-HR :0.98486: L2-HR :0.87246: (Sim:3h12m58s) 
CPU  1 inst:  151000000 cyc:  332242338 now IPC :0.25025: AVG IPC :0.44980: L2-Pf-HR :0.98521: L2-HR :0.87396: (Sim:3h12m59s) 
CPU  2 inst:  151000000 cyc:  332637372 now IPC :0.25004: AVG IPC :0.44926: L2-Pf-HR :0.98540: L2-HR :0.87471: (Sim:3h13m6s) 
CPU  0 inst:  152000002 cyc:  333359917 now IPC :0.25063: AVG IPC :0.45130: L2-Pf-HR :0.98515: L2-HR :0.87439: (Sim:3h13m17s) 
CPU  3 inst:  152000002 cyc:  336121076 now IPC :0.25071: AVG IPC :0.44757: L2-Pf-HR :0.98449: L2-HR :0.87148: (Sim:3h14m0s) 
CPU  1 inst:  152000002 cyc:  336230928 now IPC :0.25072: AVG IPC :0.44743: L2-Pf-HR :0.98485: L2-HR :0.87298: (Sim:3h14m2s) 
CPU  2 inst:  152000002 cyc:  336623582 now IPC :0.25087: AVG IPC :0.44691: L2-Pf-HR :0.98504: L2-HR :0.87373: (Sim:3h14m8s) 
CPU  0 inst:  153000002 cyc:  337346960 now IPC :0.25081: AVG IPC :0.44892: L2-Pf-HR :0.98480: L2-HR :0.87342: (Sim:3h14m19s) 
CPU  3 inst:  153000002 cyc:  340106447 now IPC :0.25092: AVG IPC :0.44526: L2-Pf-HR :0.98412: L2-HR :0.87050: (Sim:3h15m2s) 
CPU  1 inst:  153000002 cyc:  340212134 now IPC :0.25118: AVG IPC :0.44513: L2-Pf-HR :0.98449: L2-HR :0.87201: (Sim:3h15m4s) 
CPU  2 inst:  153000002 cyc:  340609097 now IPC :0.25091: AVG IPC :0.44461: L2-Pf-HR :0.98468: L2-HR :0.87275: (Sim:3h15m10s) 
CPU  0 inst:  154000000 cyc:  341335236 now IPC :0.25073: AVG IPC :0.44660: L2-Pf-HR :0.98444: L2-HR :0.87246: (Sim:3h15m21s) 
CPU  3 inst:  154000000 cyc:  344096733 now IPC :0.25061: AVG IPC :0.44300: L2-Pf-HR :0.98374: L2-HR :0.86952: (Sim:3h16m3s) 
CPU  1 inst:  154000000 cyc:  344207003 now IPC :0.25032: AVG IPC :0.44286: L2-Pf-HR :0.98414: L2-HR :0.87104: (Sim:3h16m5s) 
CPU  2 inst:  154000000 cyc:  344600852 now IPC :0.25052: AVG IPC :0.44235: L2-Pf-HR :0.98432: L2-HR :0.87178: (Sim:3h16m11s) 
CPU  0 inst:  155000000 cyc:  345322632 now IPC :0.25079: AVG IPC :0.44433: L2-Pf-HR :0.98408: L2-HR :0.87149: (Sim:3h16m22s) 
CPU  3 inst:  155000000 cyc:  348091781 now IPC :0.25031: AVG IPC :0.44078: L2-Pf-HR :0.98337: L2-HR :0.86854: (Sim:3h17m6s) 
CPU  1 inst:  155000000 cyc:  348197589 now IPC :0.25059: AVG IPC :0.44065: L2-Pf-HR :0.98378: L2-HR :0.87007: (Sim:3h17m8s) 
CPU  2 inst:  155000000 cyc:  348593098 now IPC :0.25049: AVG IPC :0.44015: L2-Pf-HR :0.98396: L2-HR :0.87081: (Sim:3h17m14s) 
[...]
Core_0_LLC_prefetches 7611114
Core_0_LLC_prefetch_hit 5795095 LLC_prefetch_Hit Ratio: 0.76140
Core_0_LLC_prefetch_miss 1816019
Core_0_LLC_writebacks 1813844
Core_0_LLC_writeback_hit 1734219 LLC_writeback_Hit Ratio: 0.95610
Core_0_LLC_writeback_miss 79625
Core_0_LLC_prefetch_requested 0
Core_0_LLC_prefetch_issued 0
Core_0_LLC_prefetch_useful 3319439 LLC_Useful Ratio: inf
Core_0_LLC_prefetch_useless 4163715
Core_0_LLC_prefetch_late 525104
Core_0_LLC_average_miss_latency 5763.98056

Core_0_major_page_fault 0
Core_0_minor_page_fault 19528

Core_1_instructions 326000003
Core_1_cycles 601807362
Core_1_IPC 0.54170

Core_1_branch_prediction_accuracy 99.57876
Core_1_branch_MPKI 0.12238
Core_1_average_ROB_occupancy_at_mispredict 562.63069

Core_1_L1D_total_access 90126323
Core_1_L1D_total_hit 77281002 L1D_total_Hit Ratio: 0.85747
Core_1_L1D_total_miss 12845321
Core_1_L1D_loads 81785465
Core_1_L1D_load_hit 69562109 L1D_load_Hit Ratio: 0.85054
Core_1_L1D_load_miss 12223356
Core_1_L1D_RFOs 8340858
Core_1_L1D_RFO_hit 7718893 L1D_RFO_Hit Ratio: 0.92543
Core_1_L1D_RFO_miss 621965
Core_1_L1D_prefetches 0
Core_1_L1D_prefetch_hit 0 L1D_prefetch_Hit Ratio: -nan
Core_1_L1D_prefetch_miss 0
Core_1_L1D_writebacks 0
Core_1_L1D_writeback_hit 0 L1D_writeback_Hit Ratio: -nan
Core_1_L1D_writeback_miss 0
Core_1_L1D_prefetch_requested 0
Core_1_L1D_prefetch_issued 0
Core_1_L1D_prefetch_useful 0 L1D_Useful Ratio: -nan
Core_1_L1D_prefetch_useless 0
Core_1_L1D_prefetch_late 0
Core_1_L1D_average_miss_latency 158.19286

Core_1_L1I_total_access 47631673
Core_1_L1I_total_hit 47626746 L1I_total_Hit Ratio: 0.99990
Core_1_L1I_total_miss 4927
Core_1_L1I_loads 47631673
Core_1_L1I_load_hit 47626746 L1I_load_Hit Ratio: 0.99990
Core_1_L1I_load_miss 4927
Core_1_L1I_RFOs 0
Core_1_L1I_RFO_hit 0 L1I_RFO_Hit Ratio: -nan
Core_1_L1I_RFO_miss 0
Core_1_L1I_prefetches 0
Core_1_L1I_prefetch_hit 0 L1I_prefetch_Hit Ratio: -nan
Core_1_L1I_prefetch_miss 0
Core_1_L1I_writebacks 0
Core_1_L1I_writeback_hit 0 L1I_writeback_Hit Ratio: -nan
Core_1_L1I_writeback_miss 0
Core_1_L1I_prefetch_requested 0
Core_1_L1I_prefetch_issued 0
Core_1_L1I_prefetch_useful 0 L1I_Useful Ratio: -nan
Core_1_L1I_prefetch_useless 0
Core_1_L1I_prefetch_late 0
Core_1_L1I_average_miss_latency 1260.74102

Core_1_L2C_total_access 37193249
Core_1_L2C_total_hit 34081611 L2C_total_Hit Ratio: 0.91634
Core_1_L2C_total_miss 3111638
Core_1_L2C_loads 12228221
Core_1_L2C_load_hit 10209693 L2C_load_Hit Ratio: 0.83493
Core_1_L2C_load_miss 2018528
Core_1_L2C_RFOs 621965
Core_1_L2C_RFO_hit 97193 L2C_RFO_Hit Ratio: 0.15627
Core_1_L2C_RFO_miss 524772
Core_1_L2C_prefetches 22405480
Core_1_L2C_prefetch_hit 21837836 L2C_prefetch_Hit Ratio: 0.97466
Core_1_L2C_prefetch_miss 567644
Core_1_L2C_writebacks 1937583
Core_1_L2C_writeback_hit 1936889 L2C_writeback_Hit Ratio: 0.99964
Core_1_L2C_writeback_miss 694
Core_1_L2C_prefetch_requested 52481173
Core_1_L2C_prefetch_issued 46708327
Core_1_L2C_prefetch_useful 520236 L2C_Useful Ratio: 0.01114
Core_1_L2C_prefetch_useless 52714
Core_1_L2C_prefetch_late 484905
Core_1_L2C_average_miss_latency 664.29168

Core_1_LLC_total_access 11471615
Core_1_LLC_total_hit 8497331 LLC_total_Hit Ratio: 0.74073
Core_1_LLC_total_miss 2974284
Core_1_LLC_loads 1534298
Core_1_LLC_load_hit 1033247 LLC_load_Hit Ratio: 0.67343
Core_1_LLC_load_miss 501051
Core_1_LLC_RFOs 524772
Core_1_LLC_RFO_hit 251 LLC_RFO_Hit Ratio: 0.00048
Core_1_LLC_RFO_miss 524521
Core_1_LLC_prefetches 7597444
Core_1_LLC_prefetch_hit 5718929 LLC_prefetch_Hit Ratio: 0.75274
Core_1_LLC_prefetch_miss 1878515
Core_1_LLC_writebacks 1815101
Core_1_LLC_writeback_hit 1744904 LLC_writeback_Hit Ratio: 0.96133
Core_1_LLC_writeback_miss 70197
Core_1_LLC_prefetch_requested 0
Core_1_LLC_prefetch_issued 0
Core_1_LLC_prefetch_useful 3319439 LLC_Useful Ratio: inf
Core_1_LLC_prefetch_useless 4163715
Core_1_LLC_prefetch_late 525104
Core_1_LLC_average_miss_latency 5568.24098

Core_1_major_page_fault 0
Core_1_minor_page_fault 19454

Core_2_instructions 326000005
Core_2_cycles 603034079
Core_2_IPC 0.54060

Core_2_branch_prediction_accuracy 99.57883
Core_2_branch_MPKI 0.12289
Core_2_average_ROB_occupancy_at_mispredict 562.85760

Core_2_L1D_total_access 90119573
Core_2_L1D_total_hit 77274867 L1D_total_Hit Ratio: 0.85747
Core_2_L1D_total_miss 12844706
Core_2_L1D_loads 81779220
Core_2_L1D_load_hit 69555933 L1D_load_Hit Ratio: 0.85053
Core_2_L1D_load_miss 12223287
Core_2_L1D_RFOs 8340353
Core_2_L1D_RFO_hit 7718934 L1D_RFO_Hit Ratio: 0.92549
Core_2_L1D_RFO_miss 621419
Core_2_L1D_prefetches 0
Core_2_L1D_prefetch_hit 0 L1D_prefetch_Hit Ratio: -nan
Core_2_L1D_prefetch_miss 0
Core_2_L1D_writebacks 0
Core_2_L1D_writeback_hit 0 L1D_writeback_Hit Ratio: -nan
Core_2_L1D_writeback_miss 0
Core_2_L1D_prefetch_requested 0
Core_2_L1D_prefetch_issued 0
Core_2_L1D_prefetch_useful 0 L1D_Useful Ratio: -nan
Core_2_L1D_prefetch_useless 0
Core_2_L1D_prefetch_late 0
Core_2_L1D_average_miss_latency 158.42990

Core_2_L1I_total_access 47628338
Core_2_L1I_total_hit 47623412 L1I_total_Hit Ratio: 0.99990
Core_2_L1I_total_miss 4926
Core_2_L1I_loads 47628338
Core_2_L1I_load_hit 47623412 L1I_load_Hit Ratio: 0.99990
Core_2_L1I_load_miss 4926
Core_2_L1I_RFOs 0
Core_2_L1I_RFO_hit 0 L1I_RFO_Hit Ratio: -nan
Core_2_L1I_RFO_miss 0
Core_2_L1I_prefetches 0
Core_2_L1I_prefetch_hit 0 L1I_prefetch_Hit Ratio: -nan
Core_2_L1I_prefetch_miss 0
Core_2_L1I_writebacks 0
Core_2_L1I_writeback_hit 0 L1I_writeback_Hit Ratio: -nan
Core_2_L1I_writeback_miss 0
Core_2_L1I_prefetch_requested 0
Core_2_L1I_prefetch_issued 0
Core_2_L1I_prefetch_useful 0 L1I_Useful Ratio: -nan
Core_2_L1I_prefetch_useless 0
Core_2_L1I_prefetch_late 0
Core_2_L1I_average_miss_latency 1261.73914

Core_2_L2C_total_access 37211950
Core_2_L2C_total_hit 34106023 L2C_total_Hit Ratio: 0.91653
Core_2_L2C_total_miss 3105927
Core_2_L2C_loads 12228144
Core_2_L2C_load_hit 10212466 L2C_load_Hit Ratio: 0.83516
Core_2_L2C_load_miss 2015678
Core_2_L2C_RFOs 621419
Core_2_L2C_RFO_hit 96640 L2C_RFO_Hit Ratio: 0.15552
Core_2_L2C_RFO_miss 524779
Core_2_L2C_prefetches 22424809
Core_2_L2C_prefetch_hit 21860036 L2C_prefetch_Hit Ratio: 0.97481
Core_2_L2C_prefetch_miss 564773
Core_2_L2C_writebacks 1937578
Core_2_L2C_writeback_hit 1936881 L2C_writeback_Hit Ratio: 0.99964
Core_2_L2C_writeback_miss 697
Core_2_L2C_prefetch_requested 52174284
Core_2_L2C_prefetch_issued 46372306
Core_2_L2C_prefetch_useful 515590 L2C_Useful Ratio: 0.01112
Core_2_L2C_prefetch_useless 50854
Core_2_L2C_prefetch_late 483302
Core_2_L2C_average_miss_latency 669.50643

Core_2_LLC_total_access 11448418
Core_2_LLC_total_hit 8467888 LLC_total_Hit Ratio: 0.73966
Core_2_LLC_total_miss 2980530
Core_2_LLC_loads 1532546
Core_2_LLC_load_hit 1026076 LLC_load_Hit Ratio: 0.66952
Core_2_LLC_load_miss 506470
Core_2_LLC_RFOs 524777
Core_2_LLC_RFO_hit 262 LLC_RFO_Hit Ratio: 0.00050
Core_2_LLC_RFO_miss 524515
Core_2_LLC_prefetches 7579304
Core_2_LLC_prefetch_hit 5703359 LLC_prefetch_Hit Ratio: 0.75249
Core_2_LLC_prefetch_miss 1875945
Core_2_LLC_writebacks 1811791
Core_2_LLC_writeback_hit 1738191 LLC_writeback_Hit Ratio: 0.95938
Core_2_LLC_writeback_miss 73600
Core_2_LLC_prefetch_requested 0
Core_2_LLC_prefetch_issued 0
Core_2_LLC_prefetch_useful 3319439 LLC_Useful Ratio: inf
Core_2_LLC_prefetch_useless 4163715
Core_2_LLC_prefetch_late 525104
Core_2_LLC_average_miss_latency 5556.57217

Core_2_major_page_fault 0
Core_2_minor_page_fault 19454

Core_3_instructions 326000005
Core_3_cycles 601704165
Core_3_IPC 0.54179

Core_3_branch_prediction_accuracy 99.57875
Core_3_branch_MPKI 0.12234
Core_3_average_ROB_occupancy_at_mispredict 562.60147

Core_3_L1D_total_access 90126247
Core_3_L1D_total_hit 77282653 L1D_total_Hit Ratio: 0.85749
Core_3_L1D_total_miss 12843594
Core_3_L1D_loads 81784069
Core_3_L1D_load_hit 69560598 L1D_load_Hit Ratio: 0.85054
Core_3_L1D_load_miss 12223471
Core_3_L1D_RFOs 8342178
Core_3_L1D_RFO_hit 7722055 L1D_RFO_Hit Ratio: 0.92566
Core_3_L1D_RFO_miss 620123
Core_3_L1D_prefetches 0
Core_3_L1D_prefetch_hit 0 L1D_prefetch_Hit Ratio: -nan
Core_3_L1D_prefetch_miss 0
Core_3_L1D_writebacks 0
Core_3_L1D_writeback_hit 0 L1D_writeback_Hit Ratio: -nan
Core_3_L1D_writeback_miss 0
Core_3_L1D_prefetch_requested 0
Core_3_L1D_prefetch_issued 0
Core_3_L1D_prefetch_useful 0 L1D_Useful Ratio: -nan
Core_3_L1D_prefetch_useless 0
Core_3_L1D_prefetch_late 0
Core_3_L1D_average_miss_latency 158.45764

Core_3_L1I_total_access 47631398
Core_3_L1I_total_hit 47626475 L1I_total_Hit Ratio: 0.99990
Core_3_L1I_total_miss 4923
Core_3_L1I_loads 47631398
Core_3_L1I_load_hit 47626475 L1I_load_Hit Ratio: 0.99990
Core_3_L1I_load_miss 4923
Core_3_L1I_RFOs 0
Core_3_L1I_RFO_hit 0 L1I_RFO_Hit Ratio: -nan
Core_3_L1I_RFO_miss 0
Core_3_L1I_prefetches 0
Core_3_L1I_prefetch_hit 0 L1I_prefetch_Hit Ratio: -nan
Core_3_L1I_prefetch_miss 0
Core_3_L1I_writebacks 0
Core_3_L1I_writeback_hit 0 L1I_writeback_Hit Ratio: -nan
Core_3_L1I_writeback_miss 0
Core_3_L1I_prefetch_requested 0
Core_3_L1I_prefetch_issued 0
Core_3_L1I_prefetch_useful 0 L1I_Useful Ratio: -nan
Core_3_L1I_prefetch_useless 0
Core_3_L1I_prefetch_late 0
Core_3_L1I_average_miss_latency 1218.70709

Core_3_L2C_total_access 37051473
Core_3_L2C_total_hit 33936563 L2C_total_Hit Ratio: 0.91593
Core_3_L2C_total_miss 3114910
Core_3_L2C_loads 12228332
Core_3_L2C_load_hit 10207865 L2C_load_Hit Ratio: 0.83477
Core_3_L2C_load_miss 2020467
Core_3_L2C_RFOs 620123
Core_3_L2C_RFO_hit 95343 L2C_RFO_Hit Ratio: 0.15375
Core_3_L2C_RFO_miss 524780
Core_3_L2C_prefetches 22265446
Core_3_L2C_prefetch_hit 21696461 L2C_prefetch_Hit Ratio: 0.97445
Core_3_L2C_prefetch_miss 568985
Core_3_L2C_writebacks 1937572
Core_3_L2C_writeback_hit 1936894 L2C_writeback_Hit Ratio: 0.99965
Core_3_L2C_writeback_miss 678
Core_3_L2C_prefetch_requested 52481878
Core_3_L2C_prefetch_issued 46562020
Core_3_L2C_prefetch_useful 524063 L2C_Useful Ratio: 0.01126
Core_3_L2C_prefetch_useless 50064
Core_3_L2C_prefetch_late 486501
Core_3_L2C_average_miss_latency 661.99946

Core_3_LLC_total_access 11450113
Core_3_LLC_total_hit 8475430 LLC_total_Hit Ratio: 0.74020
Core_3_LLC_total_miss 2974683
Core_3_LLC_loads 1534662
Core_3_LLC_load_hit 1024316 LLC_load_Hit Ratio: 0.66745
Core_3_LLC_load_miss 510346
Core_3_LLC_RFOs 524780
Core_3_LLC_RFO_hit 265 LLC_RFO_Hit Ratio: 0.00050
Core_3_LLC_RFO_miss 524515
Core_3_LLC_prefetches 7571161
Core_3_LLC_prefetch_hit 5699808 LLC_prefetch_Hit Ratio: 0.75283
Core_3_LLC_prefetch_miss 1871353
Core_3_LLC_writebacks 1819510
Core_3_LLC_writeback_hit 1751041 LLC_writeback_Hit Ratio: 0.96237
Core_3_LLC_writeback_miss 68469
Core_3_LLC_prefetch_requested 0
Core_3_LLC_prefetch_issued 0
Core_3_LLC_prefetch_useful 3319439 LLC_Useful Ratio: inf
Core_3_LLC_prefetch_useless 4163715
Core_3_LLC_prefetch_late 525104
Core_3_LLC_average_miss_latency 5567.49410

Core_3_major_page_fault 0
Core_3_minor_page_fault 19454

 All Calls: 49716720
 Critical Calls: 49716720
------------------
Depth Distribution
------------------
depth 0: 0
depth 1: 39478218
depth 2: 35624223
depth 3: 31664555
depth 4: 26104393
depth 5: 18946760
depth 6: 10598463
depth 7: 7078463
depth 8: 5767596
depth 9: 4507976
depth 10: 3330573
depth 11: 2212706
depth 12: 1218742
depth 13: 520182
depth 14: 17438
depth 15: 17011
depth 16: 2
depth 17: 0
depth 18: 0
depth 19: 0
depth 20: 0
depth 21: 0
depth 22: 0
depth 23: 0
depth 24: 0
depth 25: 0
depth 26: 0
depth 27: 0
depth 28: 0
depth 29: 0
Total: 187087301
-----------------------------
-----------------------------
	Captured at Filter
-----------------------------
depth 0: 0
depth 1: 5575411
depth 2: 4999498
depth 3: 4425166
depth 4: 3449539
depth 5: 2043307
depth 6: 548957
depth 7: 101447
depth 8: 55192
depth 9: 39007
depth 10: 25103
depth 11: 15387
depth 12: 8180
depth 13: 2939
depth 14: 70
depth 15: 81
depth 16: 0
depth 17: 0
depth 18: 0
depth 19: 0
depth 20: 0
depth 21: 0
depth 22: 0
depth 23: 0
depth 24: 0
depth 25: 0
depth 26: 0
depth 27: 0
depth 28: 0
depth 29: 0
-----------------------------
-----------------------------
		Lost at Page
-----------------------------
depth 0: 0
depth 1: 2485798
depth 2: 3996743
depth 3: 5677623
depth 4: 6825460
depth 5: 7037383
depth 6: 3832549
depth 7: 1308514
depth 8: 916309
depth 9: 776414
depth 10: 644924
depth 11: 482843
depth 12: 307468
depth 13: 142807
depth 14: 4752
depth 15: 5135
depth 16: 0
depth 17: 0
depth 18: 0
depth 19: 0
depth 20: 0
depth 21: 0
depth 22: 0
depth 23: 0
depth 24: 0
depth 25: 0
depth 26: 0
depth 27: 0
depth 28: 0
depth 29: 0
-----------------------------
-----------------------------
	Lost due to PQ Size
-----------------------------
23127461
-----------------------------
ST read accesses: 47510551
ST write accesses: 2029884
PT read accesses: 1628528479
PT write accesses: 68947045
FILTER read accesses: 292639869
FILTER write accesses: 52603797
GHR read accesses: 224230838
GHR write accesses: 34379812
GHR counter read accesses: 1350320394
GHR counter write accesses: 91210118
ST tag read accesses: 20073619670
ST tag write accesses: 1114120473
 All Calls: 49716720
 Critical Calls: 49716720
------------------
Depth Distribution
------------------
depth 0: 0
depth 1: 39478218
depth 2: 35624223
depth 3: 31664555
depth 4: 26104393
depth 5: 18946760
depth 6: 10598463
depth 7: 7078463
depth 8: 5767596
depth 9: 4507976
depth 10: 3330573
depth 11: 2212706
depth 12: 1218742
depth 13: 520182
depth 14: 17438
depth 15: 17011
depth 16: 2
depth 17: 0
depth 18: 0
depth 19: 0
depth 20: 0
depth 21: 0
depth 22: 0
depth 23: 0
depth 24: 0
depth 25: 0
depth 26: 0
depth 27: 0
depth 28: 0
depth 29: 0
Total: 187087301
-----------------------------
-----------------------------
	Captured at Filter
-----------------------------
depth 0: 0
depth 1: 5575411
depth 2: 4999498
depth 3: 4425166
depth 4: 3449539
depth 5: 2043307
depth 6: 548957
depth 7: 101447
depth 8: 55192
depth 9: 39007
depth 10: 25103
depth 11: 15387
depth 12: 8180
depth 13: 2939
depth 14: 70
depth 15: 81
depth 16: 0
depth 17: 0
depth 18: 0
depth 19: 0
depth 20: 0
depth 21: 0
depth 22: 0
depth 23: 0
depth 24: 0
depth 25: 0
depth 26: 0
depth 27: 0
depth 28: 0
depth 29: 0
-----------------------------
-----------------------------
		Lost at Page
-----------------------------
depth 0: 0
depth 1: 2485798
depth 2: 3996743
depth 3: 5677623
depth 4: 6825460
depth 5: 7037383
depth 6: 3832549
depth 7: 1308514
depth 8: 916309
depth 9: 776414
depth 10: 644924
depth 11: 482843
depth 12: 307468
depth 13: 142807
depth 14: 4752
depth 15: 5135
depth 16: 0
depth 17: 0
depth 18: 0
depth 19: 0
depth 20: 0
depth 21: 0
depth 22: 0
depth 23: 0
depth 24: 0
depth 25: 0
depth 26: 0
depth 27: 0
depth 28: 0
depth 29: 0
-----------------------------
-----------------------------
	Lost due to PQ Size
-----------------------------
23127461
-----------------------------
ST read accesses: 47510551
ST write accesses: 2029884
PT read accesses: 1628528479
PT write accesses: 68947045
FILTER read accesses: 292639869
FILTER write accesses: 52603797
GHR read accesses: 224230838
GHR write accesses: 34379812
GHR counter read accesses: 1350320394
GHR counter write accesses: 91210118
ST tag read accesses: 20073619670
ST tag write accesses: 1114120473
 All Calls: 49716720
 Critical Calls: 49716720
------------------
Depth Distribution
------------------
depth 0: 0
depth 1: 39478218
depth 2: 35624223
depth 3: 31664555
depth 4: 26104393
depth 5: 18946760
depth 6: 10598463
depth 7: 7078463
depth 8: 5767596
depth 9: 4507976
depth 10: 3330573
depth 11: 2212706
depth 12: 1218742
depth 13: 520182
depth 14: 17438
depth 15: 17011
depth 16: 2
depth 17: 0
depth 18: 0
depth 19: 0
depth 20: 0
depth 21: 0
depth 22: 0
depth 23: 0
depth 24: 0
depth 25: 0
depth 26: 0
depth 27: 0
depth 28: 0
depth 29: 0
Total: 187087301
-----------------------------
-----------------------------
	Captured at Filter
-----------------------------
depth 0: 0
depth 1: 5575411
depth 2: 4999498
depth 3: 4425166
depth 4: 3449539
depth 5: 2043307
depth 6: 548957
depth 7: 101447
depth 8: 55192
depth 9: 39007
depth 10: 25103
depth 11: 15387
depth 12: 8180
depth 13: 2939
depth 14: 70
depth 15: 81
depth 16: 0
depth 17: 0
depth 18: 0
depth 19: 0
depth 20: 0
depth 21: 0
depth 22: 0
depth 23: 0
depth 24: 0
depth 25: 0
depth 26: 0
depth 27: 0
depth 28: 0
depth 29: 0
-----------------------------
-----------------------------
		Lost at Page
-----------------------------
depth 0: 0
depth 1: 2485798
depth 2: 3996743
depth 3: 5677623
depth 4: 6825460
depth 5: 7037383
depth 6: 3832549
depth 7: 1308514
depth 8: 916309
depth 9: 776414
depth 10: 644924
depth 11: 482843
depth 12: 307468
depth 13: 142807
depth 14: 4752
depth 15: 5135
depth 16: 0
depth 17: 0
depth 18: 0
depth 19: 0
depth 20: 0
depth 21: 0
depth 22: 0
depth 23: 0
depth 24: 0
depth 25: 0
depth 26: 0
depth 27: 0
depth 28: 0
depth 29: 0
-----------------------------
-----------------------------
	Lost due to PQ Size
-----------------------------
23127461
-----------------------------
ST read accesses: 47510551
ST write accesses: 2029884
PT read accesses: 1628528479
PT write accesses: 68947045
FILTER read accesses: 292639869
FILTER write accesses: 52603797
GHR read accesses: 224230838
GHR write accesses: 34379812
GHR counter read accesses: 1350320394
GHR counter write accesses: 91210118
ST tag read accesses: 20073619670
ST tag write accesses: 1114120473
 All Calls: 49716720
 Critical Calls: 49716720
------------------
Depth Distribution
------------------
depth 0: 0
depth 1: 39478218
depth 2: 35624223
depth 3: 31664555
depth 4: 26104393
depth 5: 18946760
depth 6: 10598463
depth 7: 7078463
depth 8: 5767596
depth 9: 4507976
depth 10: 3330573
depth 11: 2212706
depth 12: 1218742
depth 13: 520182
depth 14: 17438
depth 15: 17011
depth 16: 2
depth 17: 0
depth 18: 0
depth 19: 0
depth 20: 0
depth 21: 0
depth 22: 0
depth 23: 0
depth 24: 0
depth 25: 0
depth 26: 0
depth 27: 0
depth 28: 0
depth 29: 0
Total: 187087301
-----------------------------
-----------------------------
	Captured at Filter
-----------------------------
depth 0: 0
depth 1: 5575411
depth 2: 4999498
depth 3: 4425166
depth 4: 3449539
depth 5: 2043307
depth 6: 548957
depth 7: 101447
depth 8: 55192
depth 9: 39007
depth 10: 25103
depth 11: 15387
depth 12: 8180
depth 13: 2939
depth 14: 70
depth 15: 81
depth 16: 0
depth 17: 0
depth 18: 0
depth 19: 0
depth 20: 0
depth 21: 0
depth 22: 0
depth 23: 0
depth 24: 0
depth 25: 0
depth 26: 0
depth 27: 0
depth 28: 0
depth 29: 0
-----------------------------
-----------------------------
		Lost at Page
-----------------------------
depth 0: 0
depth 1: 2485798
depth 2: 3996743
depth 3: 5677623
depth 4: 6825460
depth 5: 7037383
depth 6: 3832549
depth 7: 1308514
depth 8: 916309
depth 9: 776414
depth 10: 644924
depth 11: 482843
depth 12: 307468
depth 13: 142807
depth 14: 4752
depth 15: 5135
depth 16: 0
depth 17: 0
depth 18: 0
depth 19: 0
depth 20: 0
depth 21: 0
depth 22: 0
depth 23: 0
depth 24: 0
depth 25: 0
depth 26: 0
depth 27: 0
depth 28: 0
depth 29: 0
-----------------------------
-----------------------------
	Lost due to PQ Size
-----------------------------
23127461
-----------------------------
ST read accesses: 47510551
ST write accesses: 2029884
PT read accesses: 1628528479
PT write accesses: 68947045
FILTER read accesses: 292639869
FILTER write accesses: 52603797
GHR read accesses: 224230838
GHR write accesses: 34379812
GHR counter read accesses: 1350320394
GHR counter write accesses: 91210118
ST tag read accesses: 20073619670
ST tag write accesses: 1114120473
Channel_0_RQ_row_buffer_hit 4364752
Channel_0_RQ_row_buffer_miss 7233261
Channel_0_WQ_row_buffer_hit 2118330
Channel_0_WQ_row_buffer_miss 4476299
Channel_0_WQ_full 4438
Channel_0_dbus_congested 11713287

avg_congested_cycle 11

EzSearch AVG IPC :0.54749: L2-Pf-HR :0.97451 : L2-HR :0.91670 Uful:0.01125
EzSearch AVG IPC :0.54170: L2-Pf-HR :0.97466 : L2-HR :0.91679 Uful:0.01114
EzSearch AVG IPC :0.54060: L2-Pf-HR :0.97481 : L2-HR :0.91653 Uful:0.01112
EzSearch AVG IPC :0.54179: L2-Pf-HR :0.97445 : L2-HR :0.91644 Uful:0.01126
     > Finished combination: TraceType=770-tot Sim:326000000 Prefetcher=L2spp_berti_src L1=no
