TRACE: [662000000][OPT-350M]_[h16][s1024][d64] Warmup: 2000000 NumTraces: 662000000
L1:ipcp:L2:ipcp
*************************************************
   ChampSim Multicore Out-of-Order Simulator
   Last compiled: Oct 30 2024 22:11:48
*************************************************

trace_0 770-tot_memTraces_v5/130-subBillion_s1024_LLM_Arch/memTraces[662000000][OPT-350M]_[h16][s1024][d64].champsim.9.xz
MAIN.cc ln 751 stats print skipped
CPU  0 inst:    1000001 cyc:     498555 now IPC :2.00580: AVG IPC :2.00580: L2-Pf-HR :0.88011: L2-HR :0.80689: (Sim:0h0m20s) 
CPU  0 inst:    2000000 cyc:     981603 now IPC :2.07019: AVG IPC :2.03748: L2-Pf-HR :0.92510: L2-HR :0.85265: (Sim:0h0m41s) 

Warmup complete CPU  0 instructions:    2000001 cycles:     981604 (Simulation time: 0 hr 0 min 41 sec) 

CPU  0 inst:    3000000 cyc:    1597442 now IPC :1.62380: AVG IPC :1.62380: L2-Pf-HR :0.95307: L2-HR :0.87259: (Sim:0h0m59s) 
CPU  0 inst:    4000002 cyc:    2211951 now IPC :1.62732: AVG IPC :1.62556: L2-Pf-HR :0.95177: L2-HR :0.87001: (Sim:0h1m17s) 
CPU  0 inst:    5000003 cyc:    2828298 now IPC :1.62246: AVG IPC :1.62453: L2-Pf-HR :0.95175: L2-HR :0.87051: (Sim:0h1m35s) 
CPU  0 inst:    6000004 cyc:    3445892 now IPC :1.61919: AVG IPC :1.62319: L2-Pf-HR :0.95257: L2-HR :0.87045: (Sim:0h1m53s) 
CPU  0 inst:    7000001 cyc:    4104009 now IPC :1.51948: AVG IPC :1.60133: L2-Pf-HR :0.95563: L2-HR :0.87326: (Sim:0h2m11s) 
CPU  0 inst:    8000001 cyc:    4705302 now IPC :1.66308: AVG IPC :1.61130: L2-Pf-HR :0.96188: L2-HR :0.87743: (Sim:0h2m29s) 
CPU  0 inst:    9000003 cyc:    5305274 now IPC :1.66675: AVG IPC :1.61900: L2-Pf-HR :0.96649: L2-HR :0.88063: (Sim:0h2m46s) 
CPU  0 inst:   10000000 cyc:    5907283 now IPC :1.66110: AVG IPC :1.62414: L2-Pf-HR :0.97014: L2-HR :0.88295: (Sim:0h3m4s) 
CPU  0 inst:   11000005 cyc:    6507416 now IPC :1.66631: AVG IPC :1.62872: L2-Pf-HR :0.97299: L2-HR :0.88562: (Sim:0h3m22s) 
CPU  0 inst:   12000005 cyc:    7108942 now IPC :1.66244: AVG IPC :1.63203: L2-Pf-HR :0.97526: L2-HR :0.88696: (Sim:0h3m40s) 
CPU  0 inst:   13000004 cyc:    7733975 now IPC :1.59991: AVG IPC :1.62906: L2-Pf-HR :0.97391: L2-HR :0.88621: (Sim:0h3m58s) 
CPU  0 inst:   14000000 cyc:    8329189 now IPC :1.68006: AVG IPC :1.63319: L2-Pf-HR :0.97524: L2-HR :0.88608: (Sim:0h4m16s) 
CPU  0 inst:   15000005 cyc:    8925883 now IPC :1.67591: AVG IPC :1.63640: L2-Pf-HR :0.97668: L2-HR :0.88688: (Sim:0h4m34s) 
CPU  0 inst:   16000000 cyc:    9522362 now IPC :1.67650: AVG IPC :1.63920: L2-Pf-HR :0.97795: L2-HR :0.88775: (Sim:0h4m51s) 
CPU  0 inst:   17000002 cyc:   10186940 now IPC :1.50472: AVG IPC :1.62949: L2-Pf-HR :0.97678: L2-HR :0.88649: (Sim:0h5m10s) 
CPU  0 inst:   18000000 cyc:   10794476 now IPC :1.64599: AVG IPC :1.63051: L2-Pf-HR :0.97722: L2-HR :0.88673: (Sim:0h5m28s) 
CPU  0 inst:   19000002 cyc:   11399829 now IPC :1.65193: AVG IPC :1.63176: L2-Pf-HR :0.97751: L2-HR :0.88666: (Sim:0h5m46s) 
CPU  0 inst:   20000001 cyc:   12001590 now IPC :1.66179: AVG IPC :1.63340: L2-Pf-HR :0.97775: L2-HR :0.88681: (Sim:0h6m3s) 
CPU  0 inst:   21000000 cyc:   12604363 now IPC :1.65900: AVG IPC :1.63472: L2-Pf-HR :0.97780: L2-HR :0.88668: (Sim:0h6m21s) 
CPU  0 inst:   22000001 cyc:   13206057 now IPC :1.66198: AVG IPC :1.63607: L2-Pf-HR :0.97794: L2-HR :0.88674: (Sim:0h6m39s) 
CPU  0 inst:   23000002 cyc:   13871684 now IPC :1.50234: AVG IPC :1.62916: L2-Pf-HR :0.97748: L2-HR :0.88665: (Sim:0h6m58s) 
CPU  0 inst:   24000005 cyc:   14490865 now IPC :1.61504: AVG IPC :1.62851: L2-Pf-HR :0.97823: L2-HR :0.88719: (Sim:0h7m16s) 
CPU  0 inst:   25000005 cyc:   15110127 now IPC :1.61483: AVG IPC :1.62791: L2-Pf-HR :0.97895: L2-HR :0.88767: (Sim:0h7m34s) 
CPU  0 inst:   26000002 cyc:   15728665 now IPC :1.61671: AVG IPC :1.62744: L2-Pf-HR :0.97969: L2-HR :0.88844: (Sim:0h7m52s) 
CPU  0 inst:   27000003 cyc:   16346374 now IPC :1.61889: AVG IPC :1.62710: L2-Pf-HR :0.98032: L2-HR :0.88885: (Sim:0h8m10s) 
CPU  0 inst:   28000003 cyc:   16960691 now IPC :1.62782: AVG IPC :1.62713: L2-Pf-HR :0.98091: L2-HR :0.88950: (Sim:0h8m26s) 
CPU  0 inst:   29000001 cyc:   17629384 now IPC :1.49545: AVG IPC :1.62184: L2-Pf-HR :0.98050: L2-HR :0.88898: (Sim:0h8m43s) 
CPU  0 inst:   30000005 cyc:   18268476 now IPC :1.56473: AVG IPC :1.61973: L2-Pf-HR :0.98085: L2-HR :0.88899: (Sim:0h9m1s) 
CPU  0 inst:   31000002 cyc:   18910294 now IPC :1.55807: AVG IPC :1.61752: L2-Pf-HR :0.98125: L2-HR :0.88919: (Sim:0h9m19s) 
CPU  0 inst:   32000005 cyc:   19553798 now IPC :1.55400: AVG IPC :1.61532: L2-Pf-HR :0.98171: L2-HR :0.88945: (Sim:0h9m37s) 
CPU  0 inst:   33000000 cyc:   20288930 now IPC :1.36029: AVG IPC :1.60561: L2-Pf-HR :0.98101: L2-HR :0.88901: (Sim:0h9m56s) 
CPU  0 inst:   34000003 cyc:   20947302 now IPC :1.51890: AVG IPC :1.60275: L2-Pf-HR :0.98090: L2-HR :0.88889: (Sim:0h10m15s) 
CPU  0 inst:   35000003 cyc:   21606173 now IPC :1.51775: AVG IPC :1.60003: L2-Pf-HR :0.98090: L2-HR :0.88895: (Sim:0h10m27s) 
CPU  0 inst:   36000005 cyc:   22257406 now IPC :1.53555: AVG IPC :1.59806: L2-Pf-HR :0.98055: L2-HR :0.88877: (Sim:0h10m46s) 
CPU  0 inst:   37000002 cyc:   22907399 now IPC :1.53847: AVG IPC :1.59629: L2-Pf-HR :0.98035: L2-HR :0.88879: (Sim:0h11m4s) 
CPU  0 inst:   38000002 cyc:   23569217 now IPC :1.51099: AVG IPC :1.59379: L2-Pf-HR :0.98016: L2-HR :0.88869: (Sim:0h11m23s) 
CPU  0 inst:   39000000 cyc:   24306062 now IPC :1.35713: AVG IPC :1.58632: L2-Pf-HR :0.97975: L2-HR :0.88860: (Sim:0h11m43s) 
CPU  0 inst:   40000002 cyc:   24972093 now IPC :1.50143: AVG IPC :1.58396: L2-Pf-HR :0.98009: L2-HR :0.88885: (Sim:0h12m2s) 
CPU  0 inst:   41000003 cyc:   25634469 now IPC :1.50972: AVG IPC :1.58197: L2-Pf-HR :0.98044: L2-HR :0.88916: (Sim:0h12m21s) 
CPU  0 inst:   42000001 cyc:   26299071 now IPC :1.50466: AVG IPC :1.57994: L2-Pf-HR :0.98081: L2-HR :0.88940: (Sim:0h12m40s) 
CPU  0 inst:   43000003 cyc:   26963624 now IPC :1.50477: AVG IPC :1.57801: L2-Pf-HR :0.98118: L2-HR :0.88984: (Sim:0h12m51s) 
CPU  0 inst:   44000000 cyc:   27623429 now IPC :1.51559: AVG IPC :1.57647: L2-Pf-HR :0.98146: L2-HR :0.89008: (Sim:0h13m9s) 
CPU  0 inst:   45000005 cyc:   28338317 now IPC :1.39883: AVG IPC :1.57183: L2-Pf-HR :0.98099: L2-HR :0.88986: (Sim:0h13m24s) 
CPU  0 inst:   46000002 cyc:   28993672 now IPC :1.52589: AVG IPC :1.57075: L2-Pf-HR :0.98113: L2-HR :0.88990: (Sim:0h13m43s) 
CPU  0 inst:   47000005 cyc:   29658950 now IPC :1.50314: AVG IPC :1.56918: L2-Pf-HR :0.98134: L2-HR :0.88986: (Sim:0h14m1s) 
CPU  0 inst:   48000000 cyc:   30322554 now IPC :1.50692: AVG IPC :1.56777: L2-Pf-HR :0.98162: L2-HR :0.89010: (Sim:0h14m18s) 
CPU  0 inst:   49000001 cyc:   31070321 now IPC :1.33732: AVG IPC :1.56205: L2-Pf-HR :0.98115: L2-HR :0.88976: (Sim:0h14m38s) 
CPU  0 inst:   50000003 cyc:   31738040 now IPC :1.49764: AVG IPC :1.56065: L2-Pf-HR :0.98108: L2-HR :0.88975: (Sim:0h14m56s) 
CPU  0 inst:   51000002 cyc:   32403660 now IPC :1.50236: AVG IPC :1.55941: L2-Pf-HR :0.98094: L2-HR :0.88967: (Sim:0h15m15s) 
CPU  0 inst:   52000005 cyc:   33064426 now IPC :1.51340: AVG IPC :1.55847: L2-Pf-HR :0.98080: L2-HR :0.88971: (Sim:0h15m34s) 
CPU  0 inst:   53000003 cyc:   33729616 now IPC :1.50333: AVG IPC :1.55735: L2-Pf-HR :0.98059: L2-HR :0.88962: (Sim:0h15m52s) 
CPU  0 inst:   54000000 cyc:   34391049 now IPC :1.51186: AVG IPC :1.55645: L2-Pf-HR :0.98041: L2-HR :0.88958: (Sim:0h16m11s) 
CPU  0 inst:   55000001 cyc:   35132841 now IPC :1.34809: AVG IPC :1.55192: L2-Pf-HR :0.97997: L2-HR :0.88942: (Sim:0h16m30s) 
CPU  0 inst:   56000004 cyc:   35794082 now IPC :1.51231: AVG IPC :1.55117: L2-Pf-HR :0.98024: L2-HR :0.88961: (Sim:0h16m49s) 
CPU  0 inst:   57000001 cyc:   36456273 now IPC :1.51013: AVG IPC :1.55040: L2-Pf-HR :0.98049: L2-HR :0.88974: (Sim:0h17m7s) 
CPU  0 inst:   58000005 cyc:   37116710 now IPC :1.51416: AVG IPC :1.54974: L2-Pf-HR :0.98076: L2-HR :0.89002: (Sim:0h17m26s) 
CPU  0 inst:   59000005 cyc:   37779424 now IPC :1.50895: AVG IPC :1.54900: L2-Pf-HR :0.98104: L2-HR :0.89018: (Sim:0h17m44s) 
CPU  0 inst:   60000001 cyc:   38440273 now IPC :1.51320: AVG IPC :1.54837: L2-Pf-HR :0.98129: L2-HR :0.89044: (Sim:0h18m2s) 
CPU  0 inst:   61000005 cyc:   39151805 now IPC :1.40542: AVG IPC :1.54571: L2-Pf-HR :0.98103: L2-HR :0.89036: (Sim:0h18m21s) 
CPU  0 inst:   62000000 cyc:   39810240 now IPC :1.51875: AVG IPC :1.54525: L2-Pf-HR :0.98115: L2-HR :0.89026: (Sim:0h18m39s) 
CPU  0 inst:   63000001 cyc:   40472040 now IPC :1.51103: AVG IPC :1.54468: L2-Pf-HR :0.98132: L2-HR :0.89026: (Sim:0h18m57s) 
CPU  0 inst:   64000001 cyc:   41135325 now IPC :1.50765: AVG IPC :1.54407: L2-Pf-HR :0.98154: L2-HR :0.89044: (Sim:0h19m12s) 
CPU  0 inst:   65000002 cyc:   41862551 now IPC :1.37509: AVG IPC :1.54106: L2-Pf-HR :0.98123: L2-HR :0.89019: (Sim:0h19m30s) 
CPU  0 inst:   66000002 cyc:   42526121 now IPC :1.50700: AVG IPC :1.54052: L2-Pf-HR :0.98117: L2-HR :0.89011: (Sim:0h19m48s) 
CPU  0 inst:   67000001 cyc:   43185606 now IPC :1.51633: AVG IPC :1.54014: L2-Pf-HR :0.98111: L2-HR :0.89012: (Sim:0h20m7s) 
CPU  0 inst:   68000001 cyc:   43845391 now IPC :1.51565: AVG IPC :1.53976: L2-Pf-HR :0.98104: L2-HR :0.89008: (Sim:0h20m26s) 
CPU  0 inst:   69000000 cyc:   44513346 now IPC :1.49711: AVG IPC :1.53911: L2-Pf-HR :0.98096: L2-HR :0.89002: (Sim:0h20m45s) 
CPU  0 inst:   70000004 cyc:   45181461 now IPC :1.49675: AVG IPC :1.53847: L2-Pf-HR :0.98085: L2-HR :0.88999: (Sim:0h21m4s) 
CPU  0 inst:   71000003 cyc:   45925842 now IPC :1.34340: AVG IPC :1.53524: L2-Pf-HR :0.98052: L2-HR :0.88983: (Sim:0h21m23s) 
CPU  0 inst:   72000002 cyc:   46579183 now IPC :1.53059: AVG IPC :1.53517: L2-Pf-HR :0.98072: L2-HR :0.88996: (Sim:0h21m42s) 
CPU  0 inst:   73000002 cyc:   47233883 now IPC :1.52742: AVG IPC :1.53506: L2-Pf-HR :0.98091: L2-HR :0.89011: (Sim:0h22m0s) 
CPU  0 inst:   74000002 cyc:   47888497 now IPC :1.52762: AVG IPC :1.53496: L2-Pf-HR :0.98110: L2-HR :0.89022: (Sim:0h22m19s) 
CPU  0 inst:   75000003 cyc:   48541107 now IPC :1.53231: AVG IPC :1.53492: L2-Pf-HR :0.98130: L2-HR :0.89045: (Sim:0h22m37s) 
CPU  0 inst:   76000000 cyc:   49195950 now IPC :1.52708: AVG IPC :1.53481: L2-Pf-HR :0.98149: L2-HR :0.89057: (Sim:0h22m56s) 
CPU  0 inst:   77000002 cyc:   49907703 now IPC :1.40498: AVG IPC :1.53292: L2-Pf-HR :0.98141: L2-HR :0.89059: (Sim:0h23m15s) 
CPU  0 inst:   78000004 cyc:   50549723 now IPC :1.55759: AVG IPC :1.53324: L2-Pf-HR :0.98151: L2-HR :0.89047: (Sim:0h23m34s) 
CPU  0 inst:   79000000 cyc:   51191465 now IPC :1.55825: AVG IPC :1.53356: L2-Pf-HR :0.98162: L2-HR :0.89048: (Sim:0h23m52s) 
CPU  0 inst:   80000005 cyc:   51834419 now IPC :1.55533: AVG IPC :1.53384: L2-Pf-HR :0.98176: L2-HR :0.89057: (Sim:0h24m11s) 
CPU  0 inst:   81000005 cyc:   52572383 now IPC :1.35508: AVG IPC :1.53128: L2-Pf-HR :0.98154: L2-HR :0.89037: (Sim:0h24m30s) 
CPU  0 inst:   82000000 cyc:   53239414 now IPC :1.49917: AVG IPC :1.53087: L2-Pf-HR :0.98151: L2-HR :0.89038: (Sim:0h24m49s) 
CPU  0 inst:   83000004 cyc:   53908665 now IPC :1.49421: AVG IPC :1.53041: L2-Pf-HR :0.98143: L2-HR :0.89033: (Sim:0h25m7s) 
CPU  0 inst:   84000005 cyc:   54578035 now IPC :1.49394: AVG IPC :1.52995: L2-Pf-HR :0.98136: L2-HR :0.89031: (Sim:0h25m26s) 
CPU  0 inst:   85000002 cyc:   55239018 now IPC :1.51289: AVG IPC :1.52974: L2-Pf-HR :0.98123: L2-HR :0.89027: (Sim:0h25m44s) 
CPU  0 inst:   86000001 cyc:   55907136 now IPC :1.49674: AVG IPC :1.52934: L2-Pf-HR :0.98109: L2-HR :0.89023: (Sim:0h26m3s) 
CPU  0 inst:   87000000 cyc:   56647573 now IPC :1.35055: AVG IPC :1.52697: L2-Pf-HR :0.98085: L2-HR :0.89008: (Sim:0h26m22s) 
CPU  0 inst:   88000001 cyc:   57327671 now IPC :1.47038: AVG IPC :1.52628: L2-Pf-HR :0.98100: L2-HR :0.89022: (Sim:0h26m41s) 
CPU  0 inst:   89000005 cyc:   57995798 now IPC :1.49673: AVG IPC :1.52594: L2-Pf-HR :0.98117: L2-HR :0.89029: (Sim:0h26m59s) 
CPU  0 inst:   90000001 cyc:   58659588 now IPC :1.50649: AVG IPC :1.52571: L2-Pf-HR :0.98132: L2-HR :0.89046: (Sim:0h27m18s) 
CPU  0 inst:   91000000 cyc:   59326621 now IPC :1.49917: AVG IPC :1.52541: L2-Pf-HR :0.98148: L2-HR :0.89056: (Sim:0h27m36s) 
CPU  0 inst:   92000004 cyc:   59990850 now IPC :1.50551: AVG IPC :1.52518: L2-Pf-HR :0.98164: L2-HR :0.89072: (Sim:0h27m55s) 
CPU  0 inst:   93000005 cyc:   60710648 now IPC :1.38928: AVG IPC :1.52355: L2-Pf-HR :0.98164: L2-HR :0.89075: (Sim:0h28m14s) 
CPU  0 inst:   94000002 cyc:   61354625 now IPC :1.55285: AVG IPC :1.52386: L2-Pf-HR :0.98165: L2-HR :0.89063: (Sim:0h28m32s) 
CPU  0 inst:   95000003 cyc:   61994059 now IPC :1.56388: AVG IPC :1.52428: L2-Pf-HR :0.98175: L2-HR :0.89060: (Sim:0h28m51s) 
CPU  0 inst:   96000004 cyc:   62636060 now IPC :1.55763: AVG IPC :1.52463: L2-Pf-HR :0.98188: L2-HR :0.89068: (Sim:0h29m4s) 
CPU  0 inst:   97000002 cyc:   63342874 now IPC :1.41480: AVG IPC :1.52338: L2-Pf-HR :0.98173: L2-HR :0.89057: (Sim:0h29m23s) 
CPU  0 inst:   98000000 cyc:   64033761 now IPC :1.44741: AVG IPC :1.52255: L2-Pf-HR :0.98164: L2-HR :0.89053: (Sim:0h29m42s) 
CPU  0 inst:   99000001 cyc:   64701668 now IPC :1.49722: AVG IPC :1.52228: L2-Pf-HR :0.98159: L2-HR :0.89052: (Sim:0h30m1s) 
CPU  0 inst:  100000002 cyc:   65374225 now IPC :1.48686: AVG IPC :1.52191: L2-Pf-HR :0.98148: L2-HR :0.89048: (Sim:0h30m20s) 
CPU  0 inst:  101000001 cyc:   66034217 now IPC :1.51517: AVG IPC :1.52185: L2-Pf-HR :0.98138: L2-HR :0.89047: (Sim:0h30m39s) 
CPU  0 inst:  102000003 cyc:   66703988 now IPC :1.49305: AVG IPC :1.52155: L2-Pf-HR :0.98131: L2-HR :0.89044: (Sim:0h30m59s) 
CPU  0 inst:  103000003 cyc:   67374438 now IPC :1.49154: AVG IPC :1.52125: L2-Pf-HR :0.98121: L2-HR :0.89047: (Sim:0h31m18s) 
CPU  0 inst:  104000001 cyc:   68111456 now IPC :1.35682: AVG IPC :1.51944: L2-Pf-HR :0.98102: L2-HR :0.89038: (Sim:0h31m37s) 
CPU  0 inst:  105000000 cyc:   68774236 now IPC :1.50879: AVG IPC :1.51934: L2-Pf-HR :0.98114: L2-HR :0.89048: (Sim:0h31m56s) 
CPU  0 inst:  106000005 cyc:   69438718 now IPC :1.50494: AVG IPC :1.51920: L2-Pf-HR :0.98127: L2-HR :0.89054: (Sim:0h32m15s) 
CPU  0 inst:  107000005 cyc:   70099740 now IPC :1.51281: AVG IPC :1.51914: L2-Pf-HR :0.98139: L2-HR :0.89069: (Sim:0h32m34s) 
CPU  0 inst:  108000002 cyc:   70763492 now IPC :1.50658: AVG IPC :1.51902: L2-Pf-HR :0.98153: L2-HR :0.89078: (Sim:0h32m53s) 
CPU  0 inst:  109000000 cyc:   71428796 now IPC :1.50307: AVG IPC :1.51887: L2-Pf-HR :0.98168: L2-HR :0.89094: (Sim:0h33m12s) 
CPU  0 inst:  110000001 cyc:   72139717 now IPC :1.40663: AVG IPC :1.51775: L2-Pf-HR :0.98152: L2-HR :0.89074: (Sim:0h33m31s) 
CPU  0 inst:  111000004 cyc:   72799498 now IPC :1.51566: AVG IPC :1.51773: L2-Pf-HR :0.98158: L2-HR :0.89070: (Sim:0h33m50s) 
CPU  0 inst:  112000003 cyc:   73459739 now IPC :1.51460: AVG IPC :1.51770: L2-Pf-HR :0.98169: L2-HR :0.89078: (Sim:0h34m9s) 
CPU  0 inst:  113000002 cyc:   74122595 now IPC :1.50862: AVG IPC :1.51762: L2-Pf-HR :0.98181: L2-HR :0.89087: (Sim:0h34m29s) 
CPU  0 inst:  114000002 cyc:   74878688 now IPC :1.32259: AVG IPC :1.51562: L2-Pf-HR :0.98152: L2-HR :0.89066: (Sim:0h34m48s) 
CPU  0 inst:  115000000 cyc:   75554433 now IPC :1.47985: AVG IPC :1.51530: L2-Pf-HR :0.98147: L2-HR :0.89064: (Sim:0h35m5s) 
CPU  0 inst:  116000002 cyc:   76228072 now IPC :1.48448: AVG IPC :1.51502: L2-Pf-HR :0.98141: L2-HR :0.89064: (Sim:0h35m24s) 
CPU  0 inst:  117000003 cyc:   76900631 now IPC :1.48686: AVG IPC :1.51477: L2-Pf-HR :0.98136: L2-HR :0.89067: (Sim:0h35m43s) 
CPU  0 inst:  118000001 cyc:   77575403 now IPC :1.48198: AVG IPC :1.51448: L2-Pf-HR :0.98130: L2-HR :0.89067: (Sim:0h36m0s) 
CPU  0 inst:  119000001 cyc:   78247205 now IPC :1.48853: AVG IPC :1.51426: L2-Pf-HR :0.98127: L2-HR :0.89072: (Sim:0h36m19s) 
CPU  0 inst:  120000003 cyc:   78986446 now IPC :1.35274: AVG IPC :1.51273: L2-Pf-HR :0.98115: L2-HR :0.89068: (Sim:0h36m33s) 
CPU  0 inst:  121000005 cyc:   79640862 now IPC :1.52808: AVG IPC :1.51285: L2-Pf-HR :0.98127: L2-HR :0.89073: (Sim:0h36m51s) 
CPU  0 inst:  122000002 cyc:   80293204 now IPC :1.53293: AVG IPC :1.51302: L2-Pf-HR :0.98138: L2-HR :0.89084: (Sim:0h37m10s) 
CPU  0 inst:  123000000 cyc:   80948164 now IPC :1.52681: AVG IPC :1.51313: L2-Pf-HR :0.98149: L2-HR :0.89091: (Sim:0h37m28s) 
CPU  0 inst:  124000000 cyc:   81603190 now IPC :1.52666: AVG IPC :1.51324: L2-Pf-HR :0.98161: L2-HR :0.89102: (Sim:0h37m47s) 
CPU  0 inst:  125000003 cyc:   82255910 now IPC :1.53206: AVG IPC :1.51339: L2-Pf-HR :0.98172: L2-HR :0.89112: (Sim:0h38m6s) 
CPU  0 inst:  126000001 cyc:   82958114 now IPC :1.42408: AVG IPC :1.51263: L2-Pf-HR :0.98162: L2-HR :0.89097: (Sim:0h38m25s) 
CPU  0 inst:  127000005 cyc:   83603136 now IPC :1.55034: AVG IPC :1.51292: L2-Pf-HR :0.98170: L2-HR :0.89094: (Sim:0h38m43s) 
CPU  0 inst:  128000000 cyc:   84247085 now IPC :1.55291: AVG IPC :1.51323: L2-Pf-HR :0.98179: L2-HR :0.89100: (Sim:0h39m2s) 
CPU  0 inst:  129000003 cyc:   84892766 now IPC :1.54876: AVG IPC :1.51351: L2-Pf-HR :0.98189: L2-HR :0.89105: (Sim:0h39m14s) 
CPU  0 inst:  130000000 cyc:   85637410 now IPC :1.34292: AVG IPC :1.51200: L2-Pf-HR :0.98169: L2-HR :0.89090: (Sim:0h39m28s) 
CPU  0 inst:  131000003 cyc:   86296643 now IPC :1.51692: AVG IPC :1.51204: L2-Pf-HR :0.98163: L2-HR :0.89087: (Sim:0h39m41s) 
CPU  0 inst:  132000002 cyc:   86955887 now IPC :1.51689: AVG IPC :1.51208: L2-Pf-HR :0.98161: L2-HR :0.89086: (Sim:0h39m54s) 
CPU  0 inst:  133000000 cyc:   87613225 now IPC :1.52128: AVG IPC :1.51215: L2-Pf-HR :0.98156: L2-HR :0.89083: (Sim:0h40m10s) 
CPU  0 inst:  134000000 cyc:   88265859 now IPC :1.53225: AVG IPC :1.51230: L2-Pf-HR :0.98146: L2-HR :0.89080: (Sim:0h40m25s) 
CPU  0 inst:  135000002 cyc:   88922759 now IPC :1.52230: AVG IPC :1.51237: L2-Pf-HR :0.98141: L2-HR :0.89077: (Sim:0h40m40s) 
CPU  0 inst:  136000001 cyc:   89663632 now IPC :1.34976: AVG IPC :1.51102: L2-Pf-HR :0.98127: L2-HR :0.89072: (Sim:0h40m59s) 
CPU  0 inst:  137000001 cyc:   90323825 now IPC :1.51471: AVG IPC :1.51104: L2-Pf-HR :0.98136: L2-HR :0.89080: (Sim:0h41m17s) 
CPU  0 inst:  138000004 cyc:   90983348 now IPC :1.51625: AVG IPC :1.51108: L2-Pf-HR :0.98146: L2-HR :0.89084: (Sim:0h41m36s) 
CPU  0 inst:  139000000 cyc:   91642292 now IPC :1.51757: AVG IPC :1.51113: L2-Pf-HR :0.98156: L2-HR :0.89095: (Sim:0h41m51s) 
CPU  0 inst:  140000003 cyc:   92303343 now IPC :1.51275: AVG IPC :1.51114: L2-Pf-HR :0.98166: L2-HR :0.89103: (Sim:0h42m1s) 
CPU  0 inst:  141000005 cyc:   92963216 now IPC :1.51545: AVG IPC :1.51117: L2-Pf-HR :0.98177: L2-HR :0.89111: (Sim:0h42m20s) 
CPU  0 inst:  142000003 cyc:   93677092 now IPC :1.40080: AVG IPC :1.51032: L2-Pf-HR :0.98166: L2-HR :0.89101: (Sim:0h42m39s) 
CPU  0 inst:  143000000 cyc:   94334916 now IPC :1.52016: AVG IPC :1.51039: L2-Pf-HR :0.98171: L2-HR :0.89102: (Sim:0h42m56s) 
CPU  0 inst:  144000002 cyc:   94998380 now IPC :1.50724: AVG IPC :1.51037: L2-Pf-HR :0.98179: L2-HR :0.89103: (Sim:0h43m11s) 
CPU  0 inst:  145000004 cyc:   95659255 now IPC :1.51315: AVG IPC :1.51039: L2-Pf-HR :0.98188: L2-HR :0.89109: (Sim:0h43m30s) 
CPU  0 inst:  146000003 cyc:   96396986 now IPC :1.35551: AVG IPC :1.50919: L2-Pf-HR :0.98170: L2-HR :0.89097: (Sim:0h43m49s) 
CPU  0 inst:  147000004 cyc:   97062884 now IPC :1.50173: AVG IPC :1.50914: L2-Pf-HR :0.98163: L2-HR :0.89095: (Sim:0h44m8s) 
CPU  0 inst:  148000003 cyc:   97736898 now IPC :1.48365: AVG IPC :1.50896: L2-Pf-HR :0.98160: L2-HR :0.89095: (Sim:0h44m27s) 
CPU  0 inst:  149000000 cyc:   98404454 now IPC :1.49800: AVG IPC :1.50889: L2-Pf-HR :0.98157: L2-HR :0.89098: (Sim:0h44m45s) 
CPU  0 inst:  150000003 cyc:   99077742 now IPC :1.48525: AVG IPC :1.50872: L2-Pf-HR :0.98153: L2-HR :0.89096: (Sim:0h45m4s) 
CPU  0 inst:  151000000 cyc:   99745612 now IPC :1.49729: AVG IPC :1.50865: L2-Pf-HR :0.98152: L2-HR :0.89101: (Sim:0h45m24s) 
CPU  0 inst:  152000000 cyc:  100497691 now IPC :1.32965: AVG IPC :1.50729: L2-Pf-HR :0.98139: L2-HR :0.89095: (Sim:0h45m43s) 
CPU  0 inst:  153000005 cyc:  101161167 now IPC :1.50722: AVG IPC :1.50729: L2-Pf-HR :0.98148: L2-HR :0.89098: (Sim:0h46m2s) 
CPU  0 inst:  154000002 cyc:  101820464 now IPC :1.51676: AVG IPC :1.50736: L2-Pf-HR :0.98156: L2-HR :0.89106: (Sim:0h46m22s) 
CPU  0 inst:  155000001 cyc:  102480984 now IPC :1.51396: AVG IPC :1.50740: L2-Pf-HR :0.98165: L2-HR :0.89112: (Sim:0h46m36s) 
CPU  0 inst:  156000004 cyc:  103143919 now IPC :1.50845: AVG IPC :1.50741: L2-Pf-HR :0.98174: L2-HR :0.89120: (Sim:0h46m50s) 
CPU  0 inst:  157000001 cyc:  103806900 now IPC :1.50833: AVG IPC :1.50741: L2-Pf-HR :0.98182: L2-HR :0.89128: (Sim:0h47m0s) 
CPU  0 inst:  158000000 cyc:  104508574 now IPC :1.42516: AVG IPC :1.50685: L2-Pf-HR :0.98174: L2-HR :0.89120: (Sim:0h47m19s) 
CPU  0 inst:  159000003 cyc:  105153796 now IPC :1.54986: AVG IPC :1.50712: L2-Pf-HR :0.98179: L2-HR :0.89118: (Sim:0h47m34s) 
CPU  0 inst:  160000005 cyc:  105800293 now IPC :1.54680: AVG IPC :1.50736: L2-Pf-HR :0.98185: L2-HR :0.89119: (Sim:0h47m50s) 
CPU  0 inst:  161000002 cyc:  106447910 now IPC :1.54412: AVG IPC :1.50759: L2-Pf-HR :0.98193: L2-HR :0.89125: (Sim:0h48m6s) 
CPU  0 inst:  162000000 cyc:  107189385 now IPC :1.34866: AVG IPC :1.50648: L2-Pf-HR :0.98178: L2-HR :0.89114: (Sim:0h48m22s) 
CPU  0 inst:  163000004 cyc:  107859118 now IPC :1.49314: AVG IPC :1.50640: L2-Pf-HR :0.98174: L2-HR :0.89110: (Sim:0h48m39s) 
CPU  0 inst:  164000002 cyc:  108532073 now IPC :1.48598: AVG IPC :1.50627: L2-Pf-HR :0.98174: L2-HR :0.89110: (Sim:0h48m58s) 
CPU  0 inst:  165000003 cyc:  109206463 now IPC :1.48282: AVG IPC :1.50612: L2-Pf-HR :0.98174: L2-HR :0.89111: (Sim:0h49m17s) 
CPU  0 inst:  166000004 cyc:  109878479 now IPC :1.48806: AVG IPC :1.50601: L2-Pf-HR :0.98173: L2-HR :0.89113: (Sim:0h49m35s) 
CPU  0 inst:  167000003 cyc:  110552478 now IPC :1.48368: AVG IPC :1.50587: L2-Pf-HR :0.98172: L2-HR :0.89113: (Sim:0h49m51s) 
CPU  0 inst:  168000004 cyc:  111295884 now IPC :1.34516: AVG IPC :1.50479: L2-Pf-HR :0.98158: L2-HR :0.89109: (Sim:0h50m11s) 
CPU  0 inst:  169000000 cyc:  111948679 now IPC :1.53187: AVG IPC :1.50495: L2-Pf-HR :0.98165: L2-HR :0.89116: (Sim:0h50m30s) 
CPU  0 inst:  170000000 cyc:  112602026 now IPC :1.53058: AVG IPC :1.50510: L2-Pf-HR :0.98173: L2-HR :0.89118: (Sim:0h50m48s) 
CPU  0 inst:  171000000 cyc:  113252798 now IPC :1.53664: AVG IPC :1.50528: L2-Pf-HR :0.98180: L2-HR :0.89126: (Sim:0h51m6s) 
CPU  0 inst:  172000003 cyc:  113904935 now IPC :1.53342: AVG IPC :1.50545: L2-Pf-HR :0.98188: L2-HR :0.89133: (Sim:0h51m25s) 
CPU  0 inst:  173000001 cyc:  114558025 now IPC :1.53118: AVG IPC :1.50559: L2-Pf-HR :0.98196: L2-HR :0.89139: (Sim:0h51m43s) 
CPU  0 inst:  174000005 cyc:  115267071 now IPC :1.41035: AVG IPC :1.50500: L2-Pf-HR :0.98190: L2-HR :0.89136: (Sim:0h52m2s) 
CPU  0 inst:  175000002 cyc:  115926445 now IPC :1.51659: AVG IPC :1.50507: L2-Pf-HR :0.98194: L2-HR :0.89131: (Sim:0h52m21s) 
CPU  0 inst:  176000001 cyc:  116583604 now IPC :1.52170: AVG IPC :1.50516: L2-Pf-HR :0.98200: L2-HR :0.89132: (Sim:0h52m39s) 
CPU  0 inst:  177000000 cyc:  117242476 now IPC :1.51774: AVG IPC :1.50524: L2-Pf-HR :0.98207: L2-HR :0.89136: (Sim:0h52m57s) 
CPU  0 inst:  178000000 cyc:  117987018 now IPC :1.34311: AVG IPC :1.50420: L2-Pf-HR :0.98195: L2-HR :0.89128: (Sim:0h53m12s) 
CPU  0 inst:  179000002 cyc:  118650365 now IPC :1.50751: AVG IPC :1.50422: L2-Pf-HR :0.98190: L2-HR :0.89126: (Sim:0h53m28s) 
CPU  0 inst:  180000004 cyc:  119321930 now IPC :1.48906: AVG IPC :1.50414: L2-Pf-HR :0.98187: L2-HR :0.89123: (Sim:0h53m47s) 
CPU  0 inst:  181000000 cyc:  119987382 now IPC :1.50273: AVG IPC :1.50413: L2-Pf-HR :0.98185: L2-HR :0.89125: (Sim:0h54m5s) 
CPU  0 inst:  182000001 cyc:  120654073 now IPC :1.49995: AVG IPC :1.50411: L2-Pf-HR :0.98183: L2-HR :0.89125: (Sim:0h54m20s) 
CPU  0 inst:  183000001 cyc:  121327263 now IPC :1.48546: AVG IPC :1.50400: L2-Pf-HR :0.98184: L2-HR :0.89127: (Sim:0h54m40s) 
CPU  0 inst:  184000005 cyc:  122072039 now IPC :1.34269: AVG IPC :1.50301: L2-Pf-HR :0.98174: L2-HR :0.89122: (Sim:0h55m0s) 
CPU  0 inst:  185000000 cyc:  122738408 now IPC :1.50066: AVG IPC :1.50300: L2-Pf-HR :0.98181: L2-HR :0.89125: (Sim:0h55m13s) 
CPU  0 inst:  186000005 cyc:  123403340 now IPC :1.50392: AVG IPC :1.50300: L2-Pf-HR :0.98187: L2-HR :0.89131: (Sim:0h55m22s) 
CPU  0 inst:  187000004 cyc:  124068068 now IPC :1.50437: AVG IPC :1.50301: L2-Pf-HR :0.98194: L2-HR :0.89136: (Sim:0h55m34s) 
CPU  0 inst:  188000005 cyc:  124732395 now IPC :1.50528: AVG IPC :1.50302: L2-Pf-HR :0.98202: L2-HR :0.89142: (Sim:0h55m53s) 
CPU  0 inst:  189000004 cyc:  125395946 now IPC :1.50704: AVG IPC :1.50304: L2-Pf-HR :0.98207: L2-HR :0.89148: (Sim:0h56m12s) 
CPU  0 inst:  190000003 cyc:  126119122 now IPC :1.38279: AVG IPC :1.50235: L2-Pf-HR :0.98202: L2-HR :0.89145: (Sim:0h56m27s) 
CPU  0 inst:  191000001 cyc:  126773087 now IPC :1.52913: AVG IPC :1.50249: L2-Pf-HR :0.98206: L2-HR :0.89142: (Sim:0h56m44s) 
CPU  0 inst:  192000000 cyc:  127429041 now IPC :1.52450: AVG IPC :1.50260: L2-Pf-HR :0.98210: L2-HR :0.89142: (Sim:0h57m0s) 
CPU  0 inst:  193000002 cyc:  128087919 now IPC :1.51773: AVG IPC :1.50268: L2-Pf-HR :0.98216: L2-HR :0.89145: (Sim:0h57m18s) 
CPU  0 inst:  194000002 cyc:  128839414 now IPC :1.33068: AVG IPC :1.50167: L2-Pf-HR :0.98207: L2-HR :0.89138: (Sim:0h57m37s) 
CPU  0 inst:  195000004 cyc:  129511981 now IPC :1.48684: AVG IPC :1.50159: L2-Pf-HR :0.98202: L2-HR :0.89136: (Sim:0h57m54s) 
CPU  0 inst:  196000004 cyc:  130177041 now IPC :1.50362: AVG IPC :1.50160: L2-Pf-HR :0.98196: L2-HR :0.89136: (Sim:0h58m13s) 
CPU  0 inst:  197000000 cyc:  130853241 now IPC :1.47885: AVG IPC :1.50148: L2-Pf-HR :0.98194: L2-HR :0.89135: (Sim:0h58m32s) 
CPU  0 inst:  198000001 cyc:  131519593 now IPC :1.50071: AVG IPC :1.50148: L2-Pf-HR :0.98192: L2-HR :0.89138: (Sim:0h58m50s) 
CPU  0 inst:  199000003 cyc:  132191702 now IPC :1.48786: AVG IPC :1.50141: L2-Pf-HR :0.98190: L2-HR :0.89137: (Sim:0h59m9s) 
CPU  0 inst:  200000005 cyc:  132951287 now IPC :1.31651: AVG IPC :1.50034: L2-Pf-HR :0.98178: L2-HR :0.89130: (Sim:0h59m29s) 
CPU  0 inst:  201000001 cyc:  133614710 now IPC :1.50733: AVG IPC :1.50038: L2-Pf-HR :0.98184: L2-HR :0.89138: (Sim:0h59m46s) 
CPU  0 inst:  202000004 cyc:  134283172 now IPC :1.49598: AVG IPC :1.50036: L2-Pf-HR :0.98189: L2-HR :0.89139: (Sim:1h0m5s) 
CPU  0 inst:  203000003 cyc:  134949430 now IPC :1.50092: AVG IPC :1.50036: L2-Pf-HR :0.98195: L2-HR :0.89145: (Sim:1h0m24s) 
CPU  0 inst:  204000002 cyc:  135615852 now IPC :1.50055: AVG IPC :1.50036: L2-Pf-HR :0.98202: L2-HR :0.89151: (Sim:1h0m43s) 
CPU  0 inst:  205000002 cyc:  136283530 now IPC :1.49773: AVG IPC :1.50035: L2-Pf-HR :0.98208: L2-HR :0.89156: (Sim:1h1m1s) 
CPU  0 inst:  206000004 cyc:  137010480 now IPC :1.37561: AVG IPC :1.49968: L2-Pf-HR :0.98206: L2-HR :0.89156: (Sim:1h1m20s) 
CPU  0 inst:  207000005 cyc:  137661897 now IPC :1.53512: AVG IPC :1.49985: L2-Pf-HR :0.98205: L2-HR :0.89153: (Sim:1h1m39s) 
CPU  0 inst:  208000002 cyc:  138323887 now IPC :1.51059: AVG IPC :1.49990: L2-Pf-HR :0.98208: L2-HR :0.89150: (Sim:1h1m58s) 
CPU  0 inst:  209000001 cyc:  138988343 now IPC :1.50499: AVG IPC :1.49993: L2-Pf-HR :0.98214: L2-HR :0.89154: (Sim:1h2m17s) 
CPU  0 inst:  210000004 cyc:  139726617 now IPC :1.35451: AVG IPC :1.49915: L2-Pf-HR :0.98206: L2-HR :0.89148: (Sim:1h2m36s) 
CPU  0 inst:  211000004 cyc:  140390989 now IPC :1.50518: AVG IPC :1.49918: L2-Pf-HR :0.98203: L2-HR :0.89147: (Sim:1h2m55s) 
CPU  0 inst:  212000005 cyc:  141043467 now IPC :1.53262: AVG IPC :1.49934: L2-Pf-HR :0.98200: L2-HR :0.89145: (Sim:1h3m14s) 
CPU  0 inst:  213000001 cyc:  141696103 now IPC :1.53224: AVG IPC :1.49949: L2-Pf-HR :0.98199: L2-HR :0.89146: (Sim:1h3m33s) 
CPU  0 inst:  214000001 cyc:  142352976 now IPC :1.52236: AVG IPC :1.49960: L2-Pf-HR :0.98195: L2-HR :0.89145: (Sim:1h3m51s) 
CPU  0 inst:  215000004 cyc:  143011015 now IPC :1.51967: AVG IPC :1.49969: L2-Pf-HR :0.98196: L2-HR :0.89148: (Sim:1h4m10s) 
CPU  0 inst:  216000003 cyc:  143708747 now IPC :1.43321: AVG IPC :1.49936: L2-Pf-HR :0.98188: L2-HR :0.89143: (Sim:1h4m29s) 
CPU  0 inst:  217000000 cyc:  144412718 now IPC :1.42051: AVG IPC :1.49898: L2-Pf-HR :0.98191: L2-HR :0.89145: (Sim:1h4m48s) 
CPU  0 inst:  218000005 cyc:  145075707 now IPC :1.50833: AVG IPC :1.49902: L2-Pf-HR :0.98196: L2-HR :0.89149: (Sim:1h5m6s) 
CPU  0 inst:  219000002 cyc:  145738900 now IPC :1.50785: AVG IPC :1.49906: L2-Pf-HR :0.98202: L2-HR :0.89153: (Sim:1h5m25s) 
CPU  0 inst:  220000000 cyc:  146401834 now IPC :1.50844: AVG IPC :1.49910: L2-Pf-HR :0.98208: L2-HR :0.89158: (Sim:1h5m44s) 
CPU  0 inst:  221000003 cyc:  147064469 now IPC :1.50913: AVG IPC :1.49915: L2-Pf-HR :0.98214: L2-HR :0.89164: (Sim:1h6m3s) 
CPU  0 inst:  222000003 cyc:  147747829 now IPC :1.46336: AVG IPC :1.49898: L2-Pf-HR :0.98215: L2-HR :0.89167: (Sim:1h6m23s) 
CPU  0 inst:  223000002 cyc:  148422314 now IPC :1.48261: AVG IPC :1.49891: L2-Pf-HR :0.98207: L2-HR :0.89159: (Sim:1h6m41s) 
CPU  0 inst:  224000004 cyc:  149077668 now IPC :1.52590: AVG IPC :1.49903: L2-Pf-HR :0.98211: L2-HR :0.89158: (Sim:1h7m0s) 
CPU  0 inst:  225000005 cyc:  149739705 now IPC :1.51049: AVG IPC :1.49908: L2-Pf-HR :0.98216: L2-HR :0.89162: (Sim:1h7m19s) 
CPU  0 inst:  226000002 cyc:  150411382 now IPC :1.48881: AVG IPC :1.49903: L2-Pf-HR :0.98219: L2-HR :0.89163: (Sim:1h7m38s) 
CPU  0 inst:  227000000 cyc:  151151680 now IPC :1.35080: AVG IPC :1.49830: L2-Pf-HR :0.98206: L2-HR :0.89155: (Sim:1h7m58s) 
CPU  0 inst:  228000002 cyc:  151820553 now IPC :1.49506: AVG IPC :1.49829: L2-Pf-HR :0.98203: L2-HR :0.89154: (Sim:1h8m17s) 
CPU  0 inst:  229000002 cyc:  152494657 now IPC :1.48345: AVG IPC :1.49822: L2-Pf-HR :0.98202: L2-HR :0.89153: (Sim:1h8m36s) 
CPU  0 inst:  230000004 cyc:  153159861 now IPC :1.50330: AVG IPC :1.49824: L2-Pf-HR :0.98199: L2-HR :0.89155: (Sim:1h8m56s) 
CPU  0 inst:  231000004 cyc:  153832844 now IPC :1.48592: AVG IPC :1.49819: L2-Pf-HR :0.98195: L2-HR :0.89153: (Sim:1h9m15s) 
CPU  0 inst:  232000003 cyc:  154502464 now IPC :1.49338: AVG IPC :1.49817: L2-Pf-HR :0.98194: L2-HR :0.89156: (Sim:1h9m34s) 
CPU  0 inst:  233000005 cyc:  155235610 now IPC :1.36399: AVG IPC :1.49753: L2-Pf-HR :0.98188: L2-HR :0.89154: (Sim:1h9m53s) 
CPU  0 inst:  234000004 cyc:  155882078 now IPC :1.54687: AVG IPC :1.49774: L2-Pf-HR :0.98193: L2-HR :0.89155: (Sim:1h10m12s) 
CPU  0 inst:  235000003 cyc:  156528301 now IPC :1.54745: AVG IPC :1.49794: L2-Pf-HR :0.98199: L2-HR :0.89160: (Sim:1h10m31s) 
CPU  0 inst:  236000000 cyc:  157174334 now IPC :1.54790: AVG IPC :1.49815: L2-Pf-HR :0.98204: L2-HR :0.89164: (Sim:1h10m49s) 
CPU  0 inst:  237000000 cyc:  157822736 now IPC :1.54225: AVG IPC :1.49833: L2-Pf-HR :0.98210: L2-HR :0.89168: (Sim:1h11m7s) 
CPU  0 inst:  238000004 cyc:  158468415 now IPC :1.54876: AVG IPC :1.49854: L2-Pf-HR :0.98216: L2-HR :0.89175: (Sim:1h11m25s) 
CPU  0 inst:  239000004 cyc:  159174723 now IPC :1.41581: AVG IPC :1.49817: L2-Pf-HR :0.98207: L2-HR :0.89166: (Sim:1h11m41s) 
CPU  0 inst:  240000000 cyc:  159829954 now IPC :1.52617: AVG IPC :1.49828: L2-Pf-HR :0.98210: L2-HR :0.89165: (Sim:1h11m57s) 
CPU  0 inst:  241000003 cyc:  160491115 now IPC :1.51250: AVG IPC :1.49834: L2-Pf-HR :0.98215: L2-HR :0.89167: (Sim:1h12m15s) 
CPU  0 inst:  242000003 cyc:  161149050 now IPC :1.51991: AVG IPC :1.49843: L2-Pf-HR :0.98220: L2-HR :0.89170: (Sim:1h12m34s) 
CPU  0 inst:  243000002 cyc:  161898968 now IPC :1.33348: AVG IPC :1.49766: L2-Pf-HR :0.98209: L2-HR :0.89163: (Sim:1h12m45s) 
CPU  0 inst:  244000004 cyc:  162571995 now IPC :1.48583: AVG IPC :1.49761: L2-Pf-HR :0.98206: L2-HR :0.89160: (Sim:1h12m54s) 
CPU  0 inst:  245000000 cyc:  163235704 now IPC :1.50668: AVG IPC :1.49765: L2-Pf-HR :0.98203: L2-HR :0.89161: (Sim:1h13m9s) 
CPU  0 inst:  246000003 cyc:  163903014 now IPC :1.49856: AVG IPC :1.49765: L2-Pf-HR :0.98199: L2-HR :0.89159: (Sim:1h13m28s) 
CPU  0 inst:  247000000 cyc:  164571612 now IPC :1.49566: AVG IPC :1.49765: L2-Pf-HR :0.98197: L2-HR :0.89162: (Sim:1h13m47s) 
CPU  0 inst:  248000003 cyc:  165238438 now IPC :1.49965: AVG IPC :1.49765: L2-Pf-HR :0.98196: L2-HR :0.89160: (Sim:1h14m6s) 
CPU  0 inst:  249000004 cyc:  165982599 now IPC :1.34380: AVG IPC :1.49696: L2-Pf-HR :0.98191: L2-HR :0.89159: (Sim:1h14m25s) 
CPU  0 inst:  250000001 cyc:  166647541 now IPC :1.50389: AVG IPC :1.49699: L2-Pf-HR :0.98195: L2-HR :0.89163: (Sim:1h14m44s) 
CPU  0 inst:  251000003 cyc:  167311862 now IPC :1.50530: AVG IPC :1.49702: L2-Pf-HR :0.98201: L2-HR :0.89166: (Sim:1h15m3s) 
CPU  0 inst:  252000001 cyc:  167976803 now IPC :1.50389: AVG IPC :1.49705: L2-Pf-HR :0.98206: L2-HR :0.89170: (Sim:1h15m21s) 
CPU  0 inst:  253000002 cyc:  168642014 now IPC :1.50328: AVG IPC :1.49707: L2-Pf-HR :0.98211: L2-HR :0.89175: (Sim:1h15m40s) 
CPU  0 inst:  254000005 cyc:  169305776 now IPC :1.50657: AVG IPC :1.49711: L2-Pf-HR :0.98216: L2-HR :0.89178: (Sim:1h15m59s) 
CPU  0 inst:  255000001 cyc:  170016766 now IPC :1.40648: AVG IPC :1.49673: L2-Pf-HR :0.98212: L2-HR :0.89174: (Sim:1h16m18s) 
CPU  0 inst:  256000001 cyc:  170674270 now IPC :1.52090: AVG IPC :1.49682: L2-Pf-HR :0.98214: L2-HR :0.89172: (Sim:1h16m37s) 
CPU  0 inst:  257000001 cyc:  171334709 now IPC :1.51414: AVG IPC :1.49689: L2-Pf-HR :0.98218: L2-HR :0.89173: (Sim:1h16m47s) 
CPU  0 inst:  258000005 cyc:  171995271 now IPC :1.51387: AVG IPC :1.49696: L2-Pf-HR :0.98222: L2-HR :0.89177: (Sim:1h17m6s) 
CPU  0 inst:  259000000 cyc:  175686094 now IPC :0.27094: AVG IPC :1.47106: L2-Pf-HR :0.97898: L2-HR :0.88618: (Sim:1h17m45s) 
CPU  0 inst:  260000002 cyc:  180625021 now IPC :0.20247: AVG IPC :1.43618: L2-Pf-HR :0.97453: L2-HR :0.87855: (Sim:1h18m33s) 
CPU  0 inst:  261000004 cyc:  185727284 now IPC :0.19599: AVG IPC :1.40193: L2-Pf-HR :0.97015: L2-HR :0.87121: (Sim:1h19m21s) 
CPU  0 inst:  262000003 cyc:  190829551 now IPC :0.19599: AVG IPC :1.36952: L2-Pf-HR :0.96581: L2-HR :0.86415: (Sim:1h20m10s) 
CPU  0 inst:  263000005 cyc:  195931636 now IPC :0.19600: AVG IPC :1.33880: L2-Pf-HR :0.96150: L2-HR :0.85736: (Sim:1h21m0s) 
CPU  0 inst:  264000004 cyc:  201034075 now IPC :0.19598: AVG IPC :1.30966: L2-Pf-HR :0.95724: L2-HR :0.85082: (Sim:1h21m50s) 
CPU  0 inst:  265000003 cyc:  206135969 now IPC :0.19601: AVG IPC :1.28196: L2-Pf-HR :0.95302: L2-HR :0.84451: (Sim:1h22m25s) 
CPU  0 inst:  266000005 cyc:  211239288 now IPC :0.19595: AVG IPC :1.25560: L2-Pf-HR :0.94884: L2-HR :0.83843: (Sim:1h22m50s) 
CPU  0 inst:  267000001 cyc:  216341127 now IPC :0.19601: AVG IPC :1.23050: L2-Pf-HR :0.94469: L2-HR :0.83256: (Sim:1h23m14s) 
CPU  0 inst:  268000000 cyc:  220947746 now IPC :0.21708: AVG IPC :1.20928: L2-Pf-HR :0.94129: L2-HR :0.82805: (Sim:1h23m41s) 
CPU  0 inst:  269000000 cyc:  224252575 now IPC :0.30259: AVG IPC :1.19586: L2-Pf-HR :0.94007: L2-HR :0.82713: (Sim:1h24m17s) 
CPU  0 inst:  270000000 cyc:  227557274 now IPC :0.30260: AVG IPC :1.18283: L2-Pf-HR :0.93886: L2-HR :0.82622: (Sim:1h24m50s) 
CPU  0 inst:  271000000 cyc:  230862719 now IPC :0.30253: AVG IPC :1.17017: L2-Pf-HR :0.93764: L2-HR :0.82531: (Sim:1h25m26s) 
CPU  0 inst:  272000004 cyc:  234167932 now IPC :0.30255: AVG IPC :1.15787: L2-Pf-HR :0.93644: L2-HR :0.82440: (Sim:1h26m3s) 
CPU  0 inst:  273000000 cyc:  237472649 now IPC :0.30260: AVG IPC :1.14592: L2-Pf-HR :0.93523: L2-HR :0.82350: (Sim:1h26m33s) 
CPU  0 inst:  274000002 cyc:  240777889 now IPC :0.30255: AVG IPC :1.13430: L2-Pf-HR :0.93404: L2-HR :0.82260: (Sim:1h27m9s) 
CPU  0 inst:  275000001 cyc:  244080518 now IPC :0.30279: AVG IPC :1.12300: L2-Pf-HR :0.93284: L2-HR :0.82171: (Sim:1h27m45s) 
CPU  0 inst:  276000004 cyc:  247376666 now IPC :0.30339: AVG IPC :1.11204: L2-Pf-HR :0.93165: L2-HR :0.82082: (Sim:1h28m22s) 
CPU  0 inst:  277000000 cyc:  250659868 now IPC :0.30458: AVG IPC :1.10142: L2-Pf-HR :0.93046: L2-HR :0.81993: (Sim:1h28m56s) 
CPU  0 inst:  278000000 cyc:  253932839 now IPC :0.30553: AVG IPC :1.09112: L2-Pf-HR :0.92927: L2-HR :0.81904: (Sim:1h29m30s) 
CPU  0 inst:  279000000 cyc:  257207272 now IPC :0.30540: AVG IPC :1.08108: L2-Pf-HR :0.92809: L2-HR :0.81816: (Sim:1h30m4s) 
CPU  0 inst:  280000000 cyc:  260476115 now IPC :0.30592: AVG IPC :1.07131: L2-Pf-HR :0.92691: L2-HR :0.81728: (Sim:1h30m38s) 
CPU  0 inst:  281000002 cyc:  263760542 now IPC :0.30447: AVG IPC :1.06173: L2-Pf-HR :0.92574: L2-HR :0.81641: (Sim:1h31m13s) 
CPU  0 inst:  282000005 cyc:  267037011 now IPC :0.30521: AVG IPC :1.05241: L2-Pf-HR :0.92457: L2-HR :0.81554: (Sim:1h31m47s) 
CPU  0 inst:  283000000 cyc:  270312710 now IPC :0.30528: AVG IPC :1.04333: L2-Pf-HR :0.92340: L2-HR :0.81467: (Sim:1h32m21s) 
CPU  0 inst:  284000000 cyc:  273585588 now IPC :0.30554: AVG IPC :1.03447: L2-Pf-HR :0.92223: L2-HR :0.81380: (Sim:1h32m55s) 
CPU  0 inst:  285000000 cyc:  276857567 now IPC :0.30563: AVG IPC :1.02582: L2-Pf-HR :0.92107: L2-HR :0.81294: (Sim:1h33m29s) 
CPU  0 inst:  286000000 cyc:  280129316 now IPC :0.30565: AVG IPC :1.01738: L2-Pf-HR :0.91991: L2-HR :0.81208: (Sim:1h34m3s) 
CPU  0 inst:  287000000 cyc:  283405137 now IPC :0.30527: AVG IPC :1.00912: L2-Pf-HR :0.91875: L2-HR :0.81123: (Sim:1h34m37s) 
CPU  0 inst:  288000000 cyc:  286682648 now IPC :0.30511: AVG IPC :1.00105: L2-Pf-HR :0.91760: L2-HR :0.81038: (Sim:1h35m11s) 
CPU  0 inst:  289000001 cyc:  289960464 now IPC :0.30508: AVG IPC :0.99315: L2-Pf-HR :0.91646: L2-HR :0.80953: (Sim:1h35m44s) 
CPU  0 inst:  290000001 cyc:  293242641 now IPC :0.30468: AVG IPC :0.98542: L2-Pf-HR :0.91531: L2-HR :0.80869: (Sim:1h36m18s) 
CPU  0 inst:  291000000 cyc:  296519727 now IPC :0.30515: AVG IPC :0.97788: L2-Pf-HR :0.91417: L2-HR :0.80785: (Sim:1h36m52s) 
CPU  0 inst:  292000000 cyc:  299797225 now IPC :0.30511: AVG IPC :0.97050: L2-Pf-HR :0.91302: L2-HR :0.80701: (Sim:1h37m25s) 
CPU  0 inst:  293000004 cyc:  303066897 now IPC :0.30584: AVG IPC :0.96330: L2-Pf-HR :0.91189: L2-HR :0.80617: (Sim:1h37m59s) 
CPU  0 inst:  294000000 cyc:  306342686 now IPC :0.30527: AVG IPC :0.95624: L2-Pf-HR :0.91075: L2-HR :0.80534: (Sim:1h38m34s) 
CPU  0 inst:  295000000 cyc:  309616766 now IPC :0.30543: AVG IPC :0.94934: L2-Pf-HR :0.90962: L2-HR :0.80451: (Sim:1h38m57s) 
CPU  0 inst:  296000001 cyc:  312897322 now IPC :0.30483: AVG IPC :0.94256: L2-Pf-HR :0.90850: L2-HR :0.80369: (Sim:1h39m18s) 
CPU  0 inst:  297000001 cyc:  316172712 now IPC :0.30531: AVG IPC :0.93594: L2-Pf-HR :0.90738: L2-HR :0.80287: (Sim:1h39m47s) 
CPU  0 inst:  298000000 cyc:  319445226 now IPC :0.30558: AVG IPC :0.92946: L2-Pf-HR :0.90625: L2-HR :0.80205: (Sim:1h40m19s) 
CPU  0 inst:  299000000 cyc:  322724721 now IPC :0.30492: AVG IPC :0.92310: L2-Pf-HR :0.90514: L2-HR :0.80123: (Sim:1h40m51s) 
CPU  0 inst:  300000000 cyc:  326002765 now IPC :0.30506: AVG IPC :0.91686: L2-Pf-HR :0.90402: L2-HR :0.80042: (Sim:1h41m23s) 
CPU  0 inst:  301000000 cyc:  329276577 now IPC :0.30545: AVG IPC :0.91077: L2-Pf-HR :0.90291: L2-HR :0.79961: (Sim:1h41m55s) 
CPU  0 inst:  302000000 cyc:  332553323 now IPC :0.30518: AVG IPC :0.90478: L2-Pf-HR :0.90180: L2-HR :0.79880: (Sim:1h42m28s) 
CPU  0 inst:  303000000 cyc:  335829172 now IPC :0.30526: AVG IPC :0.89892: L2-Pf-HR :0.90070: L2-HR :0.79800: (Sim:1h42m56s) 
CPU  0 inst:  304000001 cyc:  339102135 now IPC :0.30553: AVG IPC :0.89317: L2-Pf-HR :0.89961: L2-HR :0.79720: (Sim:1h43m14s) 
CPU  0 inst:  305000005 cyc:  342378649 now IPC :0.30520: AVG IPC :0.88753: L2-Pf-HR :0.89851: L2-HR :0.79641: (Sim:1h43m31s) 
CPU  0 inst:  306000000 cyc:  345653774 now IPC :0.30533: AVG IPC :0.88200: L2-Pf-HR :0.89742: L2-HR :0.79561: (Sim:1h44m0s) 
CPU  0 inst:  307000000 cyc:  348929628 now IPC :0.30526: AVG IPC :0.87657: L2-Pf-HR :0.89633: L2-HR :0.79482: (Sim:1h44m34s) 
CPU  0 inst:  308000000 cyc:  352202578 now IPC :0.30553: AVG IPC :0.87125: L2-Pf-HR :0.89524: L2-HR :0.79403: (Sim:1h45m8s) 
CPU  0 inst:  309000000 cyc:  355473228 now IPC :0.30575: AVG IPC :0.86603: L2-Pf-HR :0.89415: L2-HR :0.79325: (Sim:1h45m42s) 
CPU  0 inst:  310000004 cyc:  358751145 now IPC :0.30507: AVG IPC :0.86089: L2-Pf-HR :0.89307: L2-HR :0.79246: (Sim:1h46m17s) 
CPU  0 inst:  311000000 cyc:  362025361 now IPC :0.30542: AVG IPC :0.85585: L2-Pf-HR :0.89199: L2-HR :0.79169: (Sim:1h46m51s) 
CPU  0 inst:  312000001 cyc:  365310543 now IPC :0.30440: AVG IPC :0.85088: L2-Pf-HR :0.89091: L2-HR :0.79091: (Sim:1h47m26s) 
CPU  0 inst:  313000000 cyc:  368584339 now IPC :0.30546: AVG IPC :0.84602: L2-Pf-HR :0.88984: L2-HR :0.79014: (Sim:1h47m46s) 
CPU  0 inst:  314000004 cyc:  371862734 now IPC :0.30503: AVG IPC :0.84124: L2-Pf-HR :0.88877: L2-HR :0.78937: (Sim:1h48m3s) 
CPU  0 inst:  315000000 cyc:  375133124 now IPC :0.30577: AVG IPC :0.83656: L2-Pf-HR :0.88770: L2-HR :0.78860: (Sim:1h48m27s) 
CPU  0 inst:  316000000 cyc:  378409567 now IPC :0.30521: AVG IPC :0.83195: L2-Pf-HR :0.88663: L2-HR :0.78783: (Sim:1h48m57s) 
CPU  0 inst:  317000000 cyc:  381688132 now IPC :0.30501: AVG IPC :0.82741: L2-Pf-HR :0.88557: L2-HR :0.78707: (Sim:1h49m13s) 
CPU  0 inst:  318000005 cyc:  384958528 now IPC :0.30577: AVG IPC :0.82297: L2-Pf-HR :0.88451: L2-HR :0.78631: (Sim:1h49m41s) 
CPU  0 inst:  319000001 cyc:  388235901 now IPC :0.30512: AVG IPC :0.81858: L2-Pf-HR :0.88346: L2-HR :0.78556: (Sim:1h50m17s) 
CPU  0 inst:  320000000 cyc:  391514322 now IPC :0.30502: AVG IPC :0.81427: L2-Pf-HR :0.88241: L2-HR :0.78481: (Sim:1h50m53s) 
CPU  0 inst:  321000000 cyc:  394785348 now IPC :0.30571: AVG IPC :0.81005: L2-Pf-HR :0.88137: L2-HR :0.78405: (Sim:1h51m29s) 
CPU  0 inst:  322000000 cyc:  398058982 now IPC :0.30547: AVG IPC :0.80589: L2-Pf-HR :0.88032: L2-HR :0.78331: (Sim:1h52m6s) 
CPU  0 inst:  323000000 cyc:  401332798 now IPC :0.30545: AVG IPC :0.80180: L2-Pf-HR :0.87927: L2-HR :0.78256: (Sim:1h52m42s) 
CPU  0 inst:  324000000 cyc:  404610713 now IPC :0.30507: AVG IPC :0.79776: L2-Pf-HR :0.87823: L2-HR :0.78182: (Sim:1h53m18s) 
CPU  0 inst:  325000000 cyc:  407887746 now IPC :0.30515: AVG IPC :0.79379: L2-Pf-HR :0.87719: L2-HR :0.78108: (Sim:1h53m54s) 
CPU  0 inst:  326000002 cyc:  411164907 now IPC :0.30514: AVG IPC :0.78989: L2-Pf-HR :0.87616: L2-HR :0.78034: (Sim:1h54m24s) 
CPU  0 inst:  327000001 cyc:  414446421 now IPC :0.30474: AVG IPC :0.78604: L2-Pf-HR :0.87513: L2-HR :0.77961: (Sim:1h54m42s) 
CPU  0 inst:  328000000 cyc:  417719414 now IPC :0.30553: AVG IPC :0.78227: L2-Pf-HR :0.87410: L2-HR :0.77888: (Sim:1h55m15s) 
CPU  0 inst:  329000000 cyc:  420992183 now IPC :0.30555: AVG IPC :0.77855: L2-Pf-HR :0.87307: L2-HR :0.77815: (Sim:1h55m49s) 
CPU  0 inst:  330000000 cyc:  424262995 now IPC :0.30573: AVG IPC :0.77490: L2-Pf-HR :0.87204: L2-HR :0.77742: (Sim:1h56m23s) 
CPU  0 inst:  331000004 cyc:  427539437 now IPC :0.30521: AVG IPC :0.77129: L2-Pf-HR :0.87102: L2-HR :0.77670: (Sim:1h56m56s) 
CPU  0 inst:  332000000 cyc:  430821726 now IPC :0.30466: AVG IPC :0.76773: L2-Pf-HR :0.87000: L2-HR :0.77598: (Sim:1h57m30s) 
CPU  0 inst:  333000002 cyc:  434094698 now IPC :0.30553: AVG IPC :0.76423: L2-Pf-HR :0.86898: L2-HR :0.77526: (Sim:1h57m53s) 
CPU  0 inst:  334000000 cyc:  437374029 now IPC :0.30494: AVG IPC :0.76078: L2-Pf-HR :0.86798: L2-HR :0.77455: (Sim:1h58m9s) 
CPU  0 inst:  335000004 cyc:  440651784 now IPC :0.30509: AVG IPC :0.75739: L2-Pf-HR :0.86697: L2-HR :0.77383: (Sim:1h58m35s) 
CPU  0 inst:  336000000 cyc:  443919879 now IPC :0.30599: AVG IPC :0.75406: L2-Pf-HR :0.86596: L2-HR :0.77312: (Sim:1h59m5s) 
CPU  0 inst:  337000000 cyc:  447202315 now IPC :0.30465: AVG IPC :0.75075: L2-Pf-HR :0.86495: L2-HR :0.77241: (Sim:1h59m39s) 
CPU  0 inst:  338000000 cyc:  450473111 now IPC :0.30574: AVG IPC :0.74751: L2-Pf-HR :0.86394: L2-HR :0.77171: (Sim:2h0m13s) 
CPU  0 inst:  339000000 cyc:  453750429 now IPC :0.30513: AVG IPC :0.74431: L2-Pf-HR :0.86294: L2-HR :0.77101: (Sim:2h0m47s) 
CPU  0 inst:  340000000 cyc:  457024475 now IPC :0.30543: AVG IPC :0.74116: L2-Pf-HR :0.86194: L2-HR :0.77031: (Sim:2h1m10s) 
CPU  0 inst:  341000001 cyc:  460291625 now IPC :0.30608: AVG IPC :0.73806: L2-Pf-HR :0.86095: L2-HR :0.76961: (Sim:2h1m45s) 
CPU  0 inst:  342000001 cyc:  463578568 now IPC :0.30423: AVG IPC :0.73498: L2-Pf-HR :0.85996: L2-HR :0.76891: (Sim:2h2m20s) 
CPU  0 inst:  343000000 cyc:  466860440 now IPC :0.30470: AVG IPC :0.73195: L2-Pf-HR :0.85897: L2-HR :0.76822: (Sim:2h2m56s) 
CPU  0 inst:  344000000 cyc:  470136660 now IPC :0.30523: AVG IPC :0.72897: L2-Pf-HR :0.85798: L2-HR :0.76753: (Sim:2h3m31s) 
CPU  0 inst:  345000000 cyc:  473407112 now IPC :0.30577: AVG IPC :0.72604: L2-Pf-HR :0.85700: L2-HR :0.76684: (Sim:2h4m7s) 
CPU  0 inst:  346000000 cyc:  476678316 now IPC :0.30570: AVG IPC :0.72315: L2-Pf-HR :0.85602: L2-HR :0.76615: (Sim:2h4m42s) 
CPU  0 inst:  347000000 cyc:  479951253 now IPC :0.30554: AVG IPC :0.72030: L2-Pf-HR :0.85504: L2-HR :0.76547: (Sim:2h5m17s) 
CPU  0 inst:  348000001 cyc:  483231674 now IPC :0.30484: AVG IPC :0.71747: L2-Pf-HR :0.85406: L2-HR :0.76479: (Sim:2h5m53s) 
CPU  0 inst:  349000001 cyc:  486506754 now IPC :0.30534: AVG IPC :0.71469: L2-Pf-HR :0.85309: L2-HR :0.76412: (Sim:2h6m23s) 
CPU  0 inst:  350000000 cyc:  489780220 now IPC :0.30549: AVG IPC :0.71195: L2-Pf-HR :0.85212: L2-HR :0.76344: (Sim:2h6m42s) 
CPU  0 inst:  351000000 cyc:  493054402 now IPC :0.30542: AVG IPC :0.70924: L2-Pf-HR :0.85115: L2-HR :0.76276: (Sim:2h7m13s) 
CPU  0 inst:  352000004 cyc:  496328678 now IPC :0.30541: AVG IPC :0.70658: L2-Pf-HR :0.85018: L2-HR :0.76209: (Sim:2h7m47s) 
CPU  0 inst:  353000000 cyc:  499605221 now IPC :0.30520: AVG IPC :0.70394: L2-Pf-HR :0.84922: L2-HR :0.76142: (Sim:2h8m20s) 
CPU  0 inst:  354000000 cyc:  502886781 now IPC :0.30473: AVG IPC :0.70133: L2-Pf-HR :0.84826: L2-HR :0.76076: (Sim:2h8m54s) 
CPU  0 inst:  355000000 cyc:  506163442 now IPC :0.30519: AVG IPC :0.69876: L2-Pf-HR :0.84730: L2-HR :0.76009: (Sim:2h9m27s) 
CPU  0 inst:  356000000 cyc:  509435480 now IPC :0.30562: AVG IPC :0.69623: L2-Pf-HR :0.84635: L2-HR :0.75943: (Sim:2h10m1s) 
CPU  0 inst:  357000001 cyc:  512708823 now IPC :0.30550: AVG IPC :0.69373: L2-Pf-HR :0.84540: L2-HR :0.75877: (Sim:2h10m34s) 
CPU  0 inst:  358000000 cyc:  515985283 now IPC :0.30521: AVG IPC :0.69126: L2-Pf-HR :0.84444: L2-HR :0.75811: (Sim:2h11m7s) 
CPU  0 inst:  359000000 cyc:  519261212 now IPC :0.30526: AVG IPC :0.68882: L2-Pf-HR :0.84350: L2-HR :0.75746: (Sim:2h11m29s) 
CPU  0 inst:  360000000 cyc:  522540946 now IPC :0.30490: AVG IPC :0.68640: L2-Pf-HR :0.84255: L2-HR :0.75680: (Sim:2h11m45s) 
CPU  0 inst:  361000000 cyc:  525819589 now IPC :0.30500: AVG IPC :0.68402: L2-Pf-HR :0.84160: L2-HR :0.75615: (Sim:2h12m2s) 
CPU  0 inst:  362000000 cyc:  529093694 now IPC :0.30543: AVG IPC :0.68167: L2-Pf-HR :0.84066: L2-HR :0.75550: (Sim:2h12m18s) 
CPU  0 inst:  363000000 cyc:  532365553 now IPC :0.30564: AVG IPC :0.67936: L2-Pf-HR :0.83972: L2-HR :0.75486: (Sim:2h12m34s) 
CPU  0 inst:  364000001 cyc:  535635170 now IPC :0.30585: AVG IPC :0.67707: L2-Pf-HR :0.83879: L2-HR :0.75421: (Sim:2h12m52s) 
CPU  0 inst:  365000000 cyc:  538910800 now IPC :0.30528: AVG IPC :0.67481: L2-Pf-HR :0.83785: L2-HR :0.75357: (Sim:2h13m21s) 
CPU  0 inst:  366000000 cyc:  542193113 now IPC :0.30466: AVG IPC :0.67257: L2-Pf-HR :0.83692: L2-HR :0.75293: (Sim:2h13m42s) 
CPU  0 inst:  367000000 cyc:  545467406 now IPC :0.30541: AVG IPC :0.67036: L2-Pf-HR :0.83599: L2-HR :0.75230: (Sim:2h13m59s) 
CPU  0 inst:  368000000 cyc:  548746573 now IPC :0.30496: AVG IPC :0.66817: L2-Pf-HR :0.83507: L2-HR :0.75166: (Sim:2h14m23s) 
CPU  0 inst:  369000004 cyc:  552020555 now IPC :0.30544: AVG IPC :0.66601: L2-Pf-HR :0.83414: L2-HR :0.75103: (Sim:2h14m40s) 
CPU  0 inst:  370000000 cyc:  555296168 now IPC :0.30529: AVG IPC :0.66388: L2-Pf-HR :0.83322: L2-HR :0.75040: (Sim:2h15m6s) 
CPU  0 inst:  371000002 cyc:  558568726 now IPC :0.30557: AVG IPC :0.66178: L2-Pf-HR :0.83231: L2-HR :0.74977: (Sim:2h15m40s) 
CPU  0 inst:  372000001 cyc:  561847549 now IPC :0.30499: AVG IPC :0.65969: L2-Pf-HR :0.83139: L2-HR :0.74914: (Sim:2h16m14s) 
CPU  0 inst:  373000004 cyc:  565122220 now IPC :0.30538: AVG IPC :0.65764: L2-Pf-HR :0.83047: L2-HR :0.74852: (Sim:2h16m48s) 
CPU  0 inst:  374000000 cyc:  568399276 now IPC :0.30515: AVG IPC :0.65560: L2-Pf-HR :0.82956: L2-HR :0.74789: (Sim:2h17m21s) 
CPU  0 inst:  375000000 cyc:  571673911 now IPC :0.30538: AVG IPC :0.65359: L2-Pf-HR :0.82865: L2-HR :0.74727: (Sim:2h17m55s) 
CPU  0 inst:  376000000 cyc:  574953967 now IPC :0.30487: AVG IPC :0.65160: L2-Pf-HR :0.82774: L2-HR :0.74665: (Sim:2h18m30s) 
CPU  0 inst:  377000000 cyc:  578230312 now IPC :0.30522: AVG IPC :0.64963: L2-Pf-HR :0.82684: L2-HR :0.74604: (Sim:2h19m4s) 
CPU  0 inst:  378000002 cyc:  581503658 now IPC :0.30550: AVG IPC :0.64769: L2-Pf-HR :0.82594: L2-HR :0.74542: (Sim:2h19m38s) 
CPU  0 inst:  379000005 cyc:  584782886 now IPC :0.30495: AVG IPC :0.64577: L2-Pf-HR :0.82504: L2-HR :0.74481: (Sim:2h20m12s) 
CPU  0 inst:  380000000 cyc:  588054960 now IPC :0.30562: AVG IPC :0.64387: L2-Pf-HR :0.82414: L2-HR :0.74420: (Sim:2h20m46s) 
CPU  0 inst:  381000000 cyc:  591328367 now IPC :0.30549: AVG IPC :0.64200: L2-Pf-HR :0.82324: L2-HR :0.74359: (Sim:2h21m20s) 
CPU  0 inst:  382000000 cyc:  594602535 now IPC :0.30542: AVG IPC :0.64014: L2-Pf-HR :0.82235: L2-HR :0.74299: (Sim:2h21m54s) 
CPU  0 inst:  383000000 cyc:  597878560 now IPC :0.30525: AVG IPC :0.63830: L2-Pf-HR :0.82146: L2-HR :0.74238: (Sim:2h22m28s) 
CPU  0 inst:  384000000 cyc:  601160197 now IPC :0.30473: AVG IPC :0.63648: L2-Pf-HR :0.82057: L2-HR :0.74178: (Sim:2h23m2s) 
CPU  0 inst:  385000000 cyc:  604433943 now IPC :0.30546: AVG IPC :0.63468: L2-Pf-HR :0.81968: L2-HR :0.74118: (Sim:2h23m36s) 
CPU  0 inst:  386000001 cyc:  607707459 now IPC :0.30548: AVG IPC :0.63291: L2-Pf-HR :0.81880: L2-HR :0.74058: (Sim:2h24m10s) 
CPU  0 inst:  387000001 cyc:  610988402 now IPC :0.30479: AVG IPC :0.63114: L2-Pf-HR :0.81792: L2-HR :0.73999: (Sim:2h24m33s) 
CPU  0 inst:  388000000 cyc:  614258830 now IPC :0.30577: AVG IPC :0.62941: L2-Pf-HR :0.81704: L2-HR :0.73939: (Sim:2h25m5s) 
CPU  0 inst:  389000000 cyc:  617533090 now IPC :0.30541: AVG IPC :0.62768: L2-Pf-HR :0.81616: L2-HR :0.73880: (Sim:2h25m26s) 
CPU  0 inst:  390000004 cyc:  620814473 now IPC :0.30475: AVG IPC :0.62598: L2-Pf-HR :0.81528: L2-HR :0.73821: (Sim:2h25m45s) 
CPU  0 inst:  391000000 cyc:  624091503 now IPC :0.30515: AVG IPC :0.62429: L2-Pf-HR :0.81441: L2-HR :0.73762: (Sim:2h26m7s) 
CPU  0 inst:  392000000 cyc:  627368891 now IPC :0.30512: AVG IPC :0.62262: L2-Pf-HR :0.81353: L2-HR :0.73703: (Sim:2h26m38s) 
CPU  0 inst:  393000001 cyc:  630650103 now IPC :0.30477: AVG IPC :0.62096: L2-Pf-HR :0.81267: L2-HR :0.73645: (Sim:2h27m11s) 
CPU  0 inst:  394000001 cyc:  633926477 now IPC :0.30522: AVG IPC :0.61933: L2-Pf-HR :0.81181: L2-HR :0.73587: (Sim:2h27m45s) 
CPU  0 inst:  395000000 cyc:  637168589 now IPC :0.30844: AVG IPC :0.61774: L2-Pf-HR :0.81083: L2-HR :0.73522: (Sim:2h28m17s) 
CPU  0 inst:  396000003 cyc:  637764669 now IPC :1.67763: AVG IPC :0.61874: L2-Pf-HR :0.81145: L2-HR :0.73586: (Sim:2h28m38s) 
CPU  0 inst:  397000005 cyc:  638350114 now IPC :1.70811: AVG IPC :0.61974: L2-Pf-HR :0.81209: L2-HR :0.73651: (Sim:2h29m0s) 
CPU  0 inst:  398000001 cyc:  638933029 now IPC :1.71551: AVG IPC :0.62074: L2-Pf-HR :0.81273: L2-HR :0.73716: (Sim:2h29m21s) 
CPU  0 inst:  399000005 cyc:  639531622 now IPC :1.67059: AVG IPC :0.62172: L2-Pf-HR :0.81330: L2-HR :0.73778: (Sim:2h29m38s) 
CPU  0 inst:  400000004 cyc:  640067479 now IPC :1.86617: AVG IPC :0.62276: L2-Pf-HR :0.81400: L2-HR :0.73846: (Sim:2h29m49s) 
CPU  0 inst:  401000004 cyc:  640576918 now IPC :1.96294: AVG IPC :0.62383: L2-Pf-HR :0.81474: L2-HR :0.73918: (Sim:2h30m0s) 
CPU  0 inst:  402000005 cyc:  641085734 now IPC :1.96535: AVG IPC :0.62490: L2-Pf-HR :0.81547: L2-HR :0.73989: (Sim:2h30m11s) 
CPU  0 inst:  403000001 cyc:  641596558 now IPC :1.95761: AVG IPC :0.62596: L2-Pf-HR :0.81618: L2-HR :0.74058: (Sim:2h30m22s) 
CPU  0 inst:  404000000 cyc:  642131022 now IPC :1.87103: AVG IPC :0.62700: L2-Pf-HR :0.81675: L2-HR :0.74119: (Sim:2h30m33s) 
CPU  0 inst:  405000005 cyc:  642640107 now IPC :1.96432: AVG IPC :0.62806: L2-Pf-HR :0.81742: L2-HR :0.74184: (Sim:2h30m44s) 
CPU  0 inst:  406000001 cyc:  643145390 now IPC :1.97908: AVG IPC :0.62912: L2-Pf-HR :0.81808: L2-HR :0.74249: (Sim:2h30m57s) 
CPU  0 inst:  407000000 cyc:  643652028 now IPC :1.97379: AVG IPC :0.63018: L2-Pf-HR :0.81874: L2-HR :0.74314: (Sim:2h31m7s) 
CPU  0 inst:  408000004 cyc:  644186201 now IPC :1.87206: AVG IPC :0.63121: L2-Pf-HR :0.81920: L2-HR :0.74366: (Sim:2h31m28s) 
CPU  0 inst:  409000003 cyc:  644705534 now IPC :1.92554: AVG IPC :0.63226: L2-Pf-HR :0.81972: L2-HR :0.74420: (Sim:2h31m49s) 
CPU  0 inst:  410000003 cyc:  645225597 now IPC :1.92284: AVG IPC :0.63330: L2-Pf-HR :0.82022: L2-HR :0.74474: (Sim:2h32m10s) 
CPU  0 inst:  411000002 cyc:  645744710 now IPC :1.92636: AVG IPC :0.63434: L2-Pf-HR :0.82073: L2-HR :0.74527: (Sim:2h32m31s) 
CPU  0 inst:  412000003 cyc:  646315861 now IPC :1.75085: AVG IPC :0.63533: L2-Pf-HR :0.82111: L2-HR :0.74575: (Sim:2h32m52s) 
CPU  0 inst:  413000002 cyc:  646905763 now IPC :1.69520: AVG IPC :0.63630: L2-Pf-HR :0.82164: L2-HR :0.74633: (Sim:2h33m14s) 
CPU  0 inst:  414000005 cyc:  647495168 now IPC :1.69663: AVG IPC :0.63726: L2-Pf-HR :0.82216: L2-HR :0.74690: (Sim:2h33m36s) 
CPU  0 inst:  415000003 cyc:  648077327 now IPC :1.71774: AVG IPC :0.63824: L2-Pf-HR :0.82263: L2-HR :0.74745: (Sim:2h33m58s) 
CPU  0 inst:  416000003 cyc:  648646451 now IPC :1.75709: AVG IPC :0.63922: L2-Pf-HR :0.82311: L2-HR :0.74802: (Sim:2h34m20s) 
CPU  0 inst:  417000001 cyc:  649162081 now IPC :1.93937: AVG IPC :0.64025: L2-Pf-HR :0.82374: L2-HR :0.74867: (Sim:2h34m41s) 
CPU  0 inst:  418000005 cyc:  649676630 now IPC :1.94346: AVG IPC :0.64129: L2-Pf-HR :0.82432: L2-HR :0.74930: (Sim:2h35m3s) 
CPU  0 inst:  419000004 cyc:  650186764 now IPC :1.96027: AVG IPC :0.64232: L2-Pf-HR :0.82491: L2-HR :0.74994: (Sim:2h35m16s) 
CPU  0 inst:  420000005 cyc:  650696423 now IPC :1.96210: AVG IPC :0.64336: L2-Pf-HR :0.82556: L2-HR :0.75062: (Sim:2h35m28s) 
CPU  0 inst:  421000002 cyc:  651219483 now IPC :1.91182: AVG IPC :0.64438: L2-Pf-HR :0.82605: L2-HR :0.75117: (Sim:2h35m47s) 
CPU  0 inst:  422000001 cyc:  651725939 now IPC :1.97450: AVG IPC :0.64541: L2-Pf-HR :0.82657: L2-HR :0.75174: (Sim:2h36m8s) 
CPU  0 inst:  423000003 cyc:  652231187 now IPC :1.97923: AVG IPC :0.64645: L2-Pf-HR :0.82710: L2-HR :0.75231: (Sim:2h36m29s) 
CPU  0 inst:  424000002 cyc:  652734062 now IPC :1.98856: AVG IPC :0.64749: L2-Pf-HR :0.82764: L2-HR :0.75289: (Sim:2h36m51s) 
CPU  0 inst:  425000001 cyc:  653261437 now IPC :1.89618: AVG IPC :0.64849: L2-Pf-HR :0.82808: L2-HR :0.75339: (Sim:2h37m12s) 
CPU  0 inst:  426000004 cyc:  653782402 now IPC :1.91952: AVG IPC :0.64951: L2-Pf-HR :0.82849: L2-HR :0.75386: (Sim:2h37m33s) 
CPU  0 inst:  427000005 cyc:  654302538 now IPC :1.92258: AVG IPC :0.65052: L2-Pf-HR :0.82891: L2-HR :0.75434: (Sim:2h37m54s) 
CPU  0 inst:  428000005 cyc:  654819563 now IPC :1.93414: AVG IPC :0.65154: L2-Pf-HR :0.82933: L2-HR :0.75482: (Sim:2h38m16s) 
CPU  0 inst:  429000003 cyc:  655381389 now IPC :1.77991: AVG IPC :0.65251: L2-Pf-HR :0.82967: L2-HR :0.75527: (Sim:2h38m37s) 
CPU  0 inst:  430000005 cyc:  655941777 now IPC :1.78448: AVG IPC :0.65347: L2-Pf-HR :0.83012: L2-HR :0.75579: (Sim:2h38m59s) 
CPU  0 inst:  431000000 cyc:  656498733 now IPC :1.79546: AVG IPC :0.65445: L2-Pf-HR :0.83056: L2-HR :0.75633: (Sim:2h39m20s) 
CPU  0 inst:  432000000 cyc:  657055691 now IPC :1.79547: AVG IPC :0.65541: L2-Pf-HR :0.83100: L2-HR :0.75685: (Sim:2h39m41s) 
CPU  0 inst:  433000002 cyc:  657597703 now IPC :1.84498: AVG IPC :0.65640: L2-Pf-HR :0.83141: L2-HR :0.75736: (Sim:2h40m3s) 
CPU  0 inst:  434000001 cyc:  658101862 now IPC :1.98350: AVG IPC :0.65741: L2-Pf-HR :0.83196: L2-HR :0.75797: (Sim:2h40m24s) 
CPU  0 inst:  435000005 cyc:  658605855 now IPC :1.98416: AVG IPC :0.65843: L2-Pf-HR :0.83251: L2-HR :0.75858: (Sim:2h40m45s) 
CPU  0 inst:  436000004 cyc:  659109984 now IPC :1.98362: AVG IPC :0.65945: L2-Pf-HR :0.83305: L2-HR :0.75917: (Sim:2h41m6s) 
CPU  0 inst:  437000005 cyc:  659625638 now IPC :1.93929: AVG IPC :0.66045: L2-Pf-HR :0.83347: L2-HR :0.75969: (Sim:2h41m27s) 
CPU  0 inst:  438000003 cyc:  660126864 now IPC :1.99510: AVG IPC :0.66146: L2-Pf-HR :0.83396: L2-HR :0.76024: (Sim:2h41m49s) 
CPU  0 inst:  439000002 cyc:  660628484 now IPC :1.99354: AVG IPC :0.66248: L2-Pf-HR :0.83445: L2-HR :0.76078: (Sim:2h42m10s) 
CPU  0 inst:  440000002 cyc:  661130051 now IPC :1.99375: AVG IPC :0.66349: L2-Pf-HR :0.83493: L2-HR :0.76132: (Sim:2h42m30s) 
CPU  0 inst:  441000001 cyc:  661643637 now IPC :1.94709: AVG IPC :0.66448: L2-Pf-HR :0.83530: L2-HR :0.76180: (Sim:2h42m41s) 
CPU  0 inst:  442000005 cyc:  662161084 now IPC :1.93257: AVG IPC :0.66548: L2-Pf-HR :0.83561: L2-HR :0.76219: (Sim:2h42m54s) 
CPU  0 inst:  443000002 cyc:  662678334 now IPC :1.93330: AVG IPC :0.66647: L2-Pf-HR :0.83593: L2-HR :0.76260: (Sim:2h43m15s) 
CPU  0 inst:  444000004 cyc:  663195026 now IPC :1.93539: AVG IPC :0.66746: L2-Pf-HR :0.83625: L2-HR :0.76300: (Sim:2h43m36s) 
CPU  0 inst:  445000003 cyc:  663715047 now IPC :1.92300: AVG IPC :0.66844: L2-Pf-HR :0.83652: L2-HR :0.76337: (Sim:2h43m56s) 
CPU  0 inst:  446000002 cyc:  664280016 now IPC :1.77001: AVG IPC :0.66938: L2-Pf-HR :0.83684: L2-HR :0.76381: (Sim:2h44m17s) 
CPU  0 inst:  447000004 cyc:  664837177 now IPC :1.79482: AVG IPC :0.67033: L2-Pf-HR :0.83721: L2-HR :0.76428: (Sim:2h44m38s) 
CPU  0 inst:  448000000 cyc:  665392426 now IPC :1.80099: AVG IPC :0.67127: L2-Pf-HR :0.83758: L2-HR :0.76475: (Sim:2h44m59s) 
CPU  0 inst:  449000002 cyc:  665954870 now IPC :1.77796: AVG IPC :0.67221: L2-Pf-HR :0.83789: L2-HR :0.76519: (Sim:2h45m20s) 
CPU  0 inst:  450000004 cyc:  666481858 now IPC :1.89758: AVG IPC :0.67318: L2-Pf-HR :0.83830: L2-HR :0.76569: (Sim:2h45m40s) 
CPU  0 inst:  451000003 cyc:  666989224 now IPC :1.97096: AVG IPC :0.67417: L2-Pf-HR :0.83877: L2-HR :0.76625: (Sim:2h46m1s) 
CPU  0 inst:  452000001 cyc:  667496786 now IPC :1.97020: AVG IPC :0.67515: L2-Pf-HR :0.83919: L2-HR :0.76677: (Sim:2h46m22s) 
CPU  0 inst:  453000002 cyc:  668003986 now IPC :1.97161: AVG IPC :0.67614: L2-Pf-HR :0.83961: L2-HR :0.76729: (Sim:2h46m42s) 
CPU  0 inst:  454000005 cyc:  668519418 now IPC :1.94013: AVG IPC :0.67712: L2-Pf-HR :0.84002: L2-HR :0.76779: (Sim:2h47m3s) 
CPU  0 inst:  455000005 cyc:  669020963 now IPC :1.99384: AVG IPC :0.67810: L2-Pf-HR :0.84042: L2-HR :0.76826: (Sim:2h47m24s) 
CPU  0 inst:  456000005 cyc:  669522604 now IPC :1.99346: AVG IPC :0.67909: L2-Pf-HR :0.84079: L2-HR :0.76873: (Sim:2h47m45s) 
CPU  0 inst:  457000002 cyc:  670024500 now IPC :1.99244: AVG IPC :0.68008: L2-Pf-HR :0.84118: L2-HR :0.76920: (Sim:2h48m6s) 
CPU  0 inst:  458000003 cyc:  670544447 now IPC :1.92327: AVG IPC :0.68104: L2-Pf-HR :0.84150: L2-HR :0.76962: (Sim:2h48m26s) 
CPU  0 inst:  459000005 cyc:  671062815 now IPC :1.92914: AVG IPC :0.68201: L2-Pf-HR :0.84175: L2-HR :0.76997: (Sim:2h48m47s) 
CPU  0 inst:  460000005 cyc:  671580980 now IPC :1.92989: AVG IPC :0.68297: L2-Pf-HR :0.84201: L2-HR :0.77032: (Sim:2h49m8s) 
CPU  0 inst:  461000003 cyc:  672098426 now IPC :1.93256: AVG IPC :0.68393: L2-Pf-HR :0.84230: L2-HR :0.77070: (Sim:2h49m29s) 
CPU  0 inst:  462000004 cyc:  672641694 now IPC :1.84071: AVG IPC :0.68487: L2-Pf-HR :0.84253: L2-HR :0.77105: (Sim:2h49m50s) 
CPU  0 inst:  463000005 cyc:  673201894 now IPC :1.78508: AVG IPC :0.68579: L2-Pf-HR :0.84281: L2-HR :0.77144: (Sim:2h50m11s) 
CPU  0 inst:  464000004 cyc:  673759075 now IPC :1.79475: AVG IPC :0.68671: L2-Pf-HR :0.84311: L2-HR :0.77187: (Sim:2h50m32s) 
CPU  0 inst:  465000002 cyc:  674317146 now IPC :1.79188: AVG IPC :0.68762: L2-Pf-HR :0.84342: L2-HR :0.77228: (Sim:2h50m54s) 
CPU  0 inst:  466000004 cyc:  674881777 now IPC :1.77107: AVG IPC :0.68853: L2-Pf-HR :0.84366: L2-HR :0.77266: (Sim:2h51m15s) 
CPU  0 inst:  467000001 cyc:  675386891 now IPC :1.97975: AVG IPC :0.68950: L2-Pf-HR :0.84406: L2-HR :0.77315: (Sim:2h51m36s) 
CPU  0 inst:  468000001 cyc:  675891250 now IPC :1.98271: AVG IPC :0.69046: L2-Pf-HR :0.84447: L2-HR :0.77364: (Sim:2h51m58s) 
CPU  0 inst:  469000002 cyc:  676395185 now IPC :1.98438: AVG IPC :0.69143: L2-Pf-HR :0.84487: L2-HR :0.77414: (Sim:2h52m19s) 
CPU  0 inst:  470000001 cyc:  676901593 now IPC :1.97469: AVG IPC :0.69239: L2-Pf-HR :0.84521: L2-HR :0.77458: (Sim:2h52m40s) 
CPU  0 inst:  471000001 cyc:  677412504 now IPC :1.95729: AVG IPC :0.69335: L2-Pf-HR :0.84553: L2-HR :0.77501: (Sim:2h53m1s) 
CPU  0 inst:  472000005 cyc:  677914149 now IPC :1.99345: AVG IPC :0.69431: L2-Pf-HR :0.84590: L2-HR :0.77546: (Sim:2h53m22s) 
CPU  0 inst:  473000004 cyc:  678415351 now IPC :1.99520: AVG IPC :0.69527: L2-Pf-HR :0.84626: L2-HR :0.77590: (Sim:2h53m32s) 
CPU  0 inst:  474000000 cyc:  678916773 now IPC :1.99432: AVG IPC :0.69623: L2-Pf-HR :0.84660: L2-HR :0.77634: (Sim:2h53m43s) 
CPU  0 inst:  475000005 cyc:  679441990 now IPC :1.90398: AVG IPC :0.69717: L2-Pf-HR :0.84681: L2-HR :0.77666: (Sim:2h53m56s) 
CPU  0 inst:  476000005 cyc:  679958857 now IPC :1.93473: AVG IPC :0.69811: L2-Pf-HR :0.84708: L2-HR :0.77702: (Sim:2h54m8s) 
CPU  0 inst:  477000005 cyc:  680477196 now IPC :1.92924: AVG IPC :0.69905: L2-Pf-HR :0.84735: L2-HR :0.77738: (Sim:2h54m20s) 
CPU  0 inst:  478000000 cyc:  680995594 now IPC :1.92901: AVG IPC :0.69999: L2-Pf-HR :0.84760: L2-HR :0.77772: (Sim:2h54m30s) 
CPU  0 inst:  479000000 cyc:  681550682 now IPC :1.80152: AVG IPC :0.70088: L2-Pf-HR :0.84778: L2-HR :0.77802: (Sim:2h54m41s) 
CPU  0 inst:  480000005 cyc:  682109718 now IPC :1.78880: AVG IPC :0.70178: L2-Pf-HR :0.84804: L2-HR :0.77840: (Sim:2h54m56s) 
CPU  0 inst:  481000004 cyc:  682665685 now IPC :1.79867: AVG IPC :0.70267: L2-Pf-HR :0.84830: L2-HR :0.77878: (Sim:2h55m7s) 
CPU  0 inst:  482000001 cyc:  683223070 now IPC :1.79409: AVG IPC :0.70356: L2-Pf-HR :0.84856: L2-HR :0.77916: (Sim:2h55m19s) 
CPU  0 inst:  483000003 cyc:  683773864 now IPC :1.81556: AVG IPC :0.70446: L2-Pf-HR :0.84879: L2-HR :0.77951: (Sim:2h55m30s) 
CPU  0 inst:  484000005 cyc:  684280724 now IPC :1.97294: AVG IPC :0.70540: L2-Pf-HR :0.84914: L2-HR :0.77997: (Sim:2h55m43s) 
CPU  0 inst:  485000003 cyc:  684788107 now IPC :1.97089: AVG IPC :0.70634: L2-Pf-HR :0.84950: L2-HR :0.78042: (Sim:2h55m53s) 
CPU  0 inst:  486000000 cyc:  685295257 now IPC :1.97180: AVG IPC :0.70728: L2-Pf-HR :0.84982: L2-HR :0.78086: (Sim:2h56m9s) 
CPU  0 inst:  487000003 cyc:  685812028 now IPC :1.93510: AVG IPC :0.70820: L2-Pf-HR :0.85011: L2-HR :0.78127: (Sim:2h56m31s) 
CPU  0 inst:  488000002 cyc:  686313160 now IPC :1.99548: AVG IPC :0.70915: L2-Pf-HR :0.85042: L2-HR :0.78167: (Sim:2h56m52s) 
CPU  0 inst:  489000000 cyc:  686815412 now IPC :1.99103: AVG IPC :0.71008: L2-Pf-HR :0.85071: L2-HR :0.78206: (Sim:2h57m13s) 
CPU  0 inst:  490000005 cyc:  687316707 now IPC :1.99484: AVG IPC :0.71102: L2-Pf-HR :0.85099: L2-HR :0.78244: (Sim:2h57m35s) 
CPU  0 inst:  491000005 cyc:  687820406 now IPC :1.98531: AVG IPC :0.71196: L2-Pf-HR :0.85130: L2-HR :0.78285: (Sim:2h57m56s) 
CPU  0 inst:  492000000 cyc:  688344744 now IPC :1.90716: AVG IPC :0.71287: L2-Pf-HR :0.85146: L2-HR :0.78311: (Sim:2h58m17s) 
CPU  0 inst:  493000001 cyc:  688862373 now IPC :1.93189: AVG IPC :0.71379: L2-Pf-HR :0.85162: L2-HR :0.78338: (Sim:2h58m27s) 
CPU  0 inst:  494000004 cyc:  689380493 now IPC :1.93006: AVG IPC :0.71470: L2-Pf-HR :0.85180: L2-HR :0.78366: (Sim:2h58m38s) 
CPU  0 inst:  495000003 cyc:  689900716 now IPC :1.92225: AVG IPC :0.71561: L2-Pf-HR :0.85196: L2-HR :0.78394: (Sim:2h58m49s) 
CPU  0 inst:  496000002 cyc:  690463481 now IPC :1.77694: AVG IPC :0.71648: L2-Pf-HR :0.85217: L2-HR :0.78426: (Sim:2h59m1s) 
CPU  0 inst:  497000002 cyc:  691027316 now IPC :1.77357: AVG IPC :0.71734: L2-Pf-HR :0.85236: L2-HR :0.78458: (Sim:2h59m12s) 
CPU  0 inst:  498000005 cyc:  691584554 now IPC :1.79457: AVG IPC :0.71821: L2-Pf-HR :0.85258: L2-HR :0.78491: (Sim:2h59m24s) 
CPU  0 inst:  499000000 cyc:  692141102 now IPC :1.79678: AVG IPC :0.71908: L2-Pf-HR :0.85281: L2-HR :0.78525: (Sim:2h59m41s) 
CPU  0 inst:  500000001 cyc:  692671118 now IPC :1.88674: AVG IPC :0.71998: L2-Pf-HR :0.85302: L2-HR :0.78559: (Sim:3h0m3s) 
CPU  0 inst:  501000000 cyc:  693175105 now IPC :1.98418: AVG IPC :0.72090: L2-Pf-HR :0.85334: L2-HR :0.78601: (Sim:3h0m24s) 
CPU  0 inst:  502000004 cyc:  693679057 now IPC :1.98432: AVG IPC :0.72182: L2-Pf-HR :0.85364: L2-HR :0.78641: (Sim:3h0m46s) 
CPU  0 inst:  503000003 cyc:  694183470 now IPC :1.98250: AVG IPC :0.72273: L2-Pf-HR :0.85394: L2-HR :0.78682: (Sim:3h1m7s) 
CPU  0 inst:  504000002 cyc:  694697453 now IPC :1.94559: AVG IPC :0.72364: L2-Pf-HR :0.85416: L2-HR :0.78716: (Sim:3h1m29s) 
CPU  0 inst:  505000004 cyc:  695198533 now IPC :1.99569: AVG IPC :0.72456: L2-Pf-HR :0.85444: L2-HR :0.78753: (Sim:3h1m50s) 
CPU  0 inst:  506000002 cyc:  695700086 now IPC :1.99380: AVG IPC :0.72547: L2-Pf-HR :0.85472: L2-HR :0.78790: (Sim:3h2m12s) 
CPU  0 inst:  507000004 cyc:  696201402 now IPC :1.99475: AVG IPC :0.72639: L2-Pf-HR :0.85499: L2-HR :0.78827: (Sim:3h2m34s) 
CPU  0 inst:  508000002 cyc:  696718182 now IPC :1.93506: AVG IPC :0.72729: L2-Pf-HR :0.85518: L2-HR :0.78857: (Sim:3h2m55s) 
CPU  0 inst:  509000000 cyc:  697236061 now IPC :1.93095: AVG IPC :0.72818: L2-Pf-HR :0.85536: L2-HR :0.78884: (Sim:3h3m17s) 
CPU  0 inst:  510000002 cyc:  697755111 now IPC :1.92660: AVG IPC :0.72907: L2-Pf-HR :0.85554: L2-HR :0.78912: (Sim:3h3m38s) 
CPU  0 inst:  511000003 cyc:  698273629 now IPC :1.92858: AVG IPC :0.72997: L2-Pf-HR :0.85572: L2-HR :0.78940: (Sim:3h3m59s) 
CPU  0 inst:  512000001 cyc:  698808875 now IPC :1.86830: AVG IPC :0.73084: L2-Pf-HR :0.85584: L2-HR :0.78963: (Sim:3h4m21s) 
CPU  0 inst:  513000002 cyc:  699367480 now IPC :1.79018: AVG IPC :0.73169: L2-Pf-HR :0.85604: L2-HR :0.78994: (Sim:3h4m43s) 
CPU  0 inst:  514000004 cyc:  699928583 now IPC :1.78221: AVG IPC :0.73253: L2-Pf-HR :0.85624: L2-HR :0.79025: (Sim:3h5m5s) 
CPU  0 inst:  515000001 cyc:  700484639 now IPC :1.79837: AVG IPC :0.73338: L2-Pf-HR :0.85643: L2-HR :0.79056: (Sim:3h5m26s) 
CPU  0 inst:  516000001 cyc:  701046842 now IPC :1.77872: AVG IPC :0.73422: L2-Pf-HR :0.85659: L2-HR :0.79085: (Sim:3h5m48s) 
CPU  0 inst:  517000003 cyc:  701560689 now IPC :1.94611: AVG IPC :0.73511: L2-Pf-HR :0.85685: L2-HR :0.79121: (Sim:3h6m10s) 
CPU  0 inst:  518000003 cyc:  702064923 now IPC :1.98321: AVG IPC :0.73600: L2-Pf-HR :0.85714: L2-HR :0.79161: (Sim:3h6m32s) 
CPU  0 inst:  519000003 cyc:  702569463 now IPC :1.98200: AVG IPC :0.73690: L2-Pf-HR :0.85743: L2-HR :0.79199: (Sim:3h6m53s) 
CPU  0 inst:  520000003 cyc:  703073390 now IPC :1.98441: AVG IPC :0.73780: L2-Pf-HR :0.85768: L2-HR :0.79236: (Sim:3h7m15s) 
CPU  0 inst:  521000000 cyc:  703587026 now IPC :1.94690: AVG IPC :0.73868: L2-Pf-HR :0.85791: L2-HR :0.79269: (Sim:3h7m36s) 
CPU  0 inst:  522000005 cyc:  704088149 now IPC :1.99553: AVG IPC :0.73957: L2-Pf-HR :0.85817: L2-HR :0.79304: (Sim:3h7m58s) 
CPU  0 inst:  523000001 cyc:  704589288 now IPC :1.99545: AVG IPC :0.74047: L2-Pf-HR :0.85841: L2-HR :0.79338: (Sim:3h8m19s) 
CPU  0 inst:  524000000 cyc:  705090467 now IPC :1.99529: AVG IPC :0.74136: L2-Pf-HR :0.85864: L2-HR :0.79371: (Sim:3h8m41s) 
CPU  0 inst:  525000004 cyc:  705611423 now IPC :1.91956: AVG IPC :0.74223: L2-Pf-HR :0.85882: L2-HR :0.79400: (Sim:3h9m2s) 
CPU  0 inst:  526000000 cyc:  706129540 now IPC :1.93006: AVG IPC :0.74311: L2-Pf-HR :0.85898: L2-HR :0.79425: (Sim:3h9m24s) 
CPU  0 inst:  527000002 cyc:  706648679 now IPC :1.92627: AVG IPC :0.74398: L2-Pf-HR :0.85912: L2-HR :0.79449: (Sim:3h9m45s) 
CPU  0 inst:  528000002 cyc:  707167133 now IPC :1.92881: AVG IPC :0.74485: L2-Pf-HR :0.85927: L2-HR :0.79474: (Sim:3h10m6s) 
CPU  0 inst:  529000001 cyc:  707715051 now IPC :1.82509: AVG IPC :0.74568: L2-Pf-HR :0.85941: L2-HR :0.79499: (Sim:3h10m28s) 
CPU  0 inst:  530000000 cyc:  708274809 now IPC :1.78648: AVG IPC :0.74651: L2-Pf-HR :0.85956: L2-HR :0.79525: (Sim:3h10m50s) 
CPU  0 inst:  531000003 cyc:  708835041 now IPC :1.78498: AVG IPC :0.74733: L2-Pf-HR :0.85971: L2-HR :0.79552: (Sim:3h11m12s) 
CPU  0 inst:  532000002 cyc:  709393028 now IPC :1.79215: AVG IPC :0.74815: L2-Pf-HR :0.85988: L2-HR :0.79580: (Sim:3h11m34s) 
CPU  0 inst:  533000004 cyc:  709946162 now IPC :1.80788: AVG IPC :0.74898: L2-Pf-HR :0.86002: L2-HR :0.79606: (Sim:3h11m55s) 
CPU  0 inst:  534000004 cyc:  710452883 now IPC :1.97347: AVG IPC :0.74985: L2-Pf-HR :0.86024: L2-HR :0.79639: (Sim:3h12m17s) 
CPU  0 inst:  535000001 cyc:  710960157 now IPC :1.97132: AVG IPC :0.75073: L2-Pf-HR :0.86048: L2-HR :0.79674: (Sim:3h12m38s) 
CPU  0 inst:  536000003 cyc:  711467625 now IPC :1.97057: AVG IPC :0.75160: L2-Pf-HR :0.86071: L2-HR :0.79707: (Sim:3h13m0s) 
CPU  0 inst:  537000004 cyc:  711985145 now IPC :1.93229: AVG IPC :0.75246: L2-Pf-HR :0.86089: L2-HR :0.79737: (Sim:3h13m22s) 
CPU  0 inst:  538000003 cyc:  712488229 now IPC :1.98774: AVG IPC :0.75333: L2-Pf-HR :0.86110: L2-HR :0.79768: (Sim:3h13m43s) 
CPU  0 inst:  539000005 cyc:  712989909 now IPC :1.99331: AVG IPC :0.75420: L2-Pf-HR :0.86131: L2-HR :0.79798: (Sim:3h14m5s) 
CPU  0 inst:  540000001 cyc:  713491286 now IPC :1.99450: AVG IPC :0.75508: L2-Pf-HR :0.86153: L2-HR :0.79829: (Sim:3h14m26s) 
CPU  0 inst:  541000002 cyc:  713994707 now IPC :1.98641: AVG IPC :0.75595: L2-Pf-HR :0.86172: L2-HR :0.79858: (Sim:3h14m48s) 
CPU  0 inst:  542000005 cyc:  714521287 now IPC :1.89905: AVG IPC :0.75679: L2-Pf-HR :0.86185: L2-HR :0.79881: (Sim:3h15m9s) 
CPU  0 inst:  543000000 cyc:  715038777 now IPC :1.93239: AVG IPC :0.75764: L2-Pf-HR :0.86199: L2-HR :0.79904: (Sim:3h15m31s) 
CPU  0 inst:  544000004 cyc:  715555812 now IPC :1.93411: AVG IPC :0.75849: L2-Pf-HR :0.86214: L2-HR :0.79928: (Sim:3h15m52s) 
CPU  0 inst:  545000000 cyc:  716072906 now IPC :1.93388: AVG IPC :0.75934: L2-Pf-HR :0.86228: L2-HR :0.79952: (Sim:3h16m14s) 
CPU  0 inst:  546000002 cyc:  716637019 now IPC :1.77270: AVG IPC :0.76014: L2-Pf-HR :0.86237: L2-HR :0.79973: (Sim:3h16m35s) 
CPU  0 inst:  547000004 cyc:  717193137 now IPC :1.79818: AVG IPC :0.76095: L2-Pf-HR :0.86253: L2-HR :0.79999: (Sim:3h16m57s) 
CPU  0 inst:  548000002 cyc:  717749478 now IPC :1.79746: AVG IPC :0.76175: L2-Pf-HR :0.86268: L2-HR :0.80025: (Sim:3h17m19s) 
CPU  0 inst:  549000005 cyc:  718308372 now IPC :1.78925: AVG IPC :0.76255: L2-Pf-HR :0.86283: L2-HR :0.80051: (Sim:3h17m41s) 
CPU  0 inst:  550000005 cyc:  718848680 now IPC :1.85080: AVG IPC :0.76337: L2-Pf-HR :0.86296: L2-HR :0.80075: (Sim:3h18m3s) 
CPU  0 inst:  551000001 cyc:  719353269 now IPC :1.98180: AVG IPC :0.76423: L2-Pf-HR :0.86318: L2-HR :0.80107: (Sim:3h18m24s) 
CPU  0 inst:  552000005 cyc:  719858123 now IPC :1.98078: AVG IPC :0.76508: L2-Pf-HR :0.86339: L2-HR :0.80138: (Sim:3h18m46s) 
CPU  0 inst:  553000000 cyc:  720361693 now IPC :1.98581: AVG IPC :0.76594: L2-Pf-HR :0.86361: L2-HR :0.80169: (Sim:3h19m7s) 
CPU  0 inst:  554000000 cyc:  720879093 now IPC :1.93274: AVG IPC :0.76678: L2-Pf-HR :0.86374: L2-HR :0.80195: (Sim:3h19m30s) 
CPU  0 inst:  555000002 cyc:  721381041 now IPC :1.99224: AVG IPC :0.76763: L2-Pf-HR :0.86395: L2-HR :0.80224: (Sim:3h19m52s) 
CPU  0 inst:  556000003 cyc:  721884320 now IPC :1.98697: AVG IPC :0.76848: L2-Pf-HR :0.86414: L2-HR :0.80253: (Sim:3h20m15s) 
CPU  0 inst:  557000001 cyc:  722387047 now IPC :1.98915: AVG IPC :0.76933: L2-Pf-HR :0.86433: L2-HR :0.80281: (Sim:3h20m37s) 
CPU  0 inst:  558000000 cyc:  722903257 now IPC :1.93719: AVG IPC :0.77017: L2-Pf-HR :0.86446: L2-HR :0.80305: (Sim:3h21m0s) 
CPU  0 inst:  559000001 cyc:  723420385 now IPC :1.93376: AVG IPC :0.77100: L2-Pf-HR :0.86459: L2-HR :0.80326: (Sim:3h21m16s) 
CPU  0 inst:  560000005 cyc:  723938097 now IPC :1.93158: AVG IPC :0.77183: L2-Pf-HR :0.86471: L2-HR :0.80348: (Sim:3h21m26s) 
CPU  0 inst:  561000002 cyc:  724457054 now IPC :1.92694: AVG IPC :0.77266: L2-Pf-HR :0.86483: L2-HR :0.80368: (Sim:3h21m47s) 
CPU  0 inst:  562000002 cyc:  724975800 now IPC :1.92773: AVG IPC :0.77349: L2-Pf-HR :0.86495: L2-HR :0.80390: (Sim:3h22m8s) 
CPU  0 inst:  563000003 cyc:  725547953 now IPC :1.74779: AVG IPC :0.77426: L2-Pf-HR :0.86505: L2-HR :0.80410: (Sim:3h22m29s) 
CPU  0 inst:  564000000 cyc:  726109309 now IPC :1.78140: AVG IPC :0.77504: L2-Pf-HR :0.86515: L2-HR :0.80432: (Sim:3h22m50s) 
CPU  0 inst:  565000000 cyc:  726668201 now IPC :1.78925: AVG IPC :0.77582: L2-Pf-HR :0.86527: L2-HR :0.80455: (Sim:3h23m4s) 
CPU  0 inst:  566000005 cyc:  727231204 now IPC :1.77620: AVG IPC :0.77659: L2-Pf-HR :0.86538: L2-HR :0.80477: (Sim:3h23m13s) 
CPU  0 inst:  567000001 cyc:  727746129 now IPC :1.94202: AVG IPC :0.77742: L2-Pf-HR :0.86556: L2-HR :0.80504: (Sim:3h23m21s) 
CPU  0 inst:  568000003 cyc:  728251027 now IPC :1.98060: AVG IPC :0.77825: L2-Pf-HR :0.86575: L2-HR :0.80533: (Sim:3h23m30s) 
CPU  0 inst:  569000003 cyc:  728755693 now IPC :1.98151: AVG IPC :0.77909: L2-Pf-HR :0.86596: L2-HR :0.80563: (Sim:3h23m39s) 
CPU  0 inst:  570000000 cyc:  729260024 now IPC :1.98282: AVG IPC :0.77992: L2-Pf-HR :0.86615: L2-HR :0.80592: (Sim:3h23m48s) 
CPU  0 inst:  571000001 cyc:  729776764 now IPC :1.93521: AVG IPC :0.78074: L2-Pf-HR :0.86629: L2-HR :0.80616: (Sim:3h23m57s) 
CPU  0 inst:  572000000 cyc:  730278407 now IPC :1.99345: AVG IPC :0.78157: L2-Pf-HR :0.86647: L2-HR :0.80644: (Sim:3h24m6s) 
CPU  0 inst:  573000001 cyc:  730780008 now IPC :1.99362: AVG IPC :0.78241: L2-Pf-HR :0.86666: L2-HR :0.80671: (Sim:3h24m14s) 
CPU  0 inst:  574000004 cyc:  731281472 now IPC :1.99417: AVG IPC :0.78324: L2-Pf-HR :0.86684: L2-HR :0.80698: (Sim:3h24m23s) 
CPU  0 inst:  575000005 cyc:  731804234 now IPC :1.91292: AVG IPC :0.78405: L2-Pf-HR :0.86694: L2-HR :0.80718: (Sim:3h24m32s) 
CPU  0 inst:  576000004 cyc:  732321030 now IPC :1.93500: AVG IPC :0.78486: L2-Pf-HR :0.86708: L2-HR :0.80740: (Sim:3h24m41s) 
CPU  0 inst:  577000002 cyc:  732838668 now IPC :1.93185: AVG IPC :0.78567: L2-Pf-HR :0.86721: L2-HR :0.80762: (Sim:3h24m50s) 
CPU  0 inst:  578000000 cyc:  733356741 now IPC :1.93023: AVG IPC :0.78648: L2-Pf-HR :0.86734: L2-HR :0.80782: (Sim:3h24m59s) 
CPU  0 inst:  579000005 cyc:  733903219 now IPC :1.82991: AVG IPC :0.78726: L2-Pf-HR :0.86740: L2-HR :0.80799: (Sim:3h25m8s) 
CPU  0 inst:  580000001 cyc:  734459947 now IPC :1.79620: AVG IPC :0.78803: L2-Pf-HR :0.86753: L2-HR :0.80821: (Sim:3h25m18s) 
CPU  0 inst:  581000005 cyc:  735015536 now IPC :1.79990: AVG IPC :0.78879: L2-Pf-HR :0.86765: L2-HR :0.80843: (Sim:3h25m27s) 
CPU  0 inst:  582000002 cyc:  735573235 now IPC :1.79308: AVG IPC :0.78955: L2-Pf-HR :0.86777: L2-HR :0.80866: (Sim:3h25m36s) 
CPU  0 inst:  583000000 cyc:  736136525 now IPC :1.77528: AVG IPC :0.79031: L2-Pf-HR :0.86785: L2-HR :0.80884: (Sim:3h25m45s) 
CPU  0 inst:  584000001 cyc:  736644185 now IPC :1.96982: AVG IPC :0.79112: L2-Pf-HR :0.86802: L2-HR :0.80911: (Sim:3h25m54s) 
CPU  0 inst:  585000001 cyc:  737151374 now IPC :1.97165: AVG IPC :0.79194: L2-Pf-HR :0.86820: L2-HR :0.80938: (Sim:3h26m3s) 
CPU  0 inst:  586000005 cyc:  737658582 now IPC :1.97159: AVG IPC :0.79275: L2-Pf-HR :0.86837: L2-HR :0.80965: (Sim:3h26m12s) 
CPU  0 inst:  587000005 cyc:  738168348 now IPC :1.96168: AVG IPC :0.79356: L2-Pf-HR :0.86851: L2-HR :0.80990: (Sim:3h26m21s) 
CPU  0 inst:  588000003 cyc:  738679887 now IPC :1.95488: AVG IPC :0.79436: L2-Pf-HR :0.86865: L2-HR :0.81013: (Sim:3h26m30s) 
CPU  0 inst:  589000004 cyc:  739181300 now IPC :1.99437: AVG IPC :0.79518: L2-Pf-HR :0.86881: L2-HR :0.81038: (Sim:3h26m39s) 
CPU  0 inst:  590000003 cyc:  739682687 now IPC :1.99447: AVG IPC :0.79599: L2-Pf-HR :0.86898: L2-HR :0.81062: (Sim:3h26m48s) 
CPU  0 inst:  591000001 cyc:  740184298 now IPC :1.99357: AVG IPC :0.79680: L2-Pf-HR :0.86912: L2-HR :0.81086: (Sim:3h26m57s) 
CPU  0 inst:  592000003 cyc:  740708655 now IPC :1.90710: AVG IPC :0.79759: L2-Pf-HR :0.86922: L2-HR :0.81104: (Sim:3h27m6s) 
CPU  0 inst:  593000000 cyc:  741225887 now IPC :1.93336: AVG IPC :0.79839: L2-Pf-HR :0.86932: L2-HR :0.81123: (Sim:3h27m15s) 
CPU  0 inst:  594000004 cyc:  741744199 now IPC :1.92935: AVG IPC :0.79918: L2-Pf-HR :0.86942: L2-HR :0.81141: (Sim:3h27m24s) 
CPU  0 inst:  595000005 cyc:  742261390 now IPC :1.93352: AVG IPC :0.79997: L2-Pf-HR :0.86951: L2-HR :0.81158: (Sim:3h27m32s) 
CPU  0 inst:  596000000 cyc:  742814297 now IPC :1.80861: AVG IPC :0.80072: L2-Pf-HR :0.86960: L2-HR :0.81177: (Sim:3h27m41s) 
CPU  0 inst:  597000005 cyc:  743374361 now IPC :1.78552: AVG IPC :0.80146: L2-Pf-HR :0.86970: L2-HR :0.81196: (Sim:3h27m50s) 
CPU  0 inst:  598000000 cyc:  743934022 now IPC :1.78679: AVG IPC :0.80220: L2-Pf-HR :0.86978: L2-HR :0.81215: (Sim:3h27m59s) 
CPU  0 inst:  599000004 cyc:  744495089 now IPC :1.78233: AVG IPC :0.80294: L2-Pf-HR :0.86988: L2-HR :0.81234: (Sim:3h28m8s) 
CPU  0 inst:  600000000 cyc:  745036483 now IPC :1.84708: AVG IPC :0.80370: L2-Pf-HR :0.86999: L2-HR :0.81255: (Sim:3h28m18s) 
CPU  0 inst:  601000002 cyc:  745540566 now IPC :1.98380: AVG IPC :0.80450: L2-Pf-HR :0.87015: L2-HR :0.81280: (Sim:3h28m27s) 
CPU  0 inst:  602000004 cyc:  746044755 now IPC :1.98339: AVG IPC :0.80530: L2-Pf-HR :0.87031: L2-HR :0.81305: (Sim:3h28m36s) 
CPU  0 inst:  603000000 cyc:  746549049 now IPC :1.98296: AVG IPC :0.80610: L2-Pf-HR :0.87047: L2-HR :0.81331: (Sim:3h28m45s) 
CPU  0 inst:  604000001 cyc:  747066203 now IPC :1.93366: AVG IPC :0.80688: L2-Pf-HR :0.87060: L2-HR :0.81354: (Sim:3h28m54s) 
CPU  0 inst:  605000003 cyc:  747567338 now IPC :1.99547: AVG IPC :0.80768: L2-Pf-HR :0.87074: L2-HR :0.81376: (Sim:3h29m3s) 
CPU  0 inst:  606000003 cyc:  748069095 now IPC :1.99300: AVG IPC :0.80847: L2-Pf-HR :0.87090: L2-HR :0.81400: (Sim:3h29m11s) 
CPU  0 inst:  607000002 cyc:  748570845 now IPC :1.99302: AVG IPC :0.80927: L2-Pf-HR :0.87105: L2-HR :0.81423: (Sim:3h29m20s) 
CPU  0 inst:  608000001 cyc:  749085559 now IPC :1.94282: AVG IPC :0.81005: L2-Pf-HR :0.87115: L2-HR :0.81443: (Sim:3h29m29s) 
CPU  0 inst:  609000002 cyc:  749604969 now IPC :1.92526: AVG IPC :0.81082: L2-Pf-HR :0.87124: L2-HR :0.81460: (Sim:3h29m38s) 
CPU  0 inst:  610000001 cyc:  750121827 now IPC :1.93477: AVG IPC :0.81160: L2-Pf-HR :0.87135: L2-HR :0.81477: (Sim:3h29m47s) 
CPU  0 inst:  611000004 cyc:  750638953 now IPC :1.93377: AVG IPC :0.81237: L2-Pf-HR :0.87146: L2-HR :0.81496: (Sim:3h29m56s) 
CPU  0 inst:  612000005 cyc:  751160677 now IPC :1.91672: AVG IPC :0.81314: L2-Pf-HR :0.87153: L2-HR :0.81511: (Sim:3h30m5s) 
CPU  0 inst:  613000003 cyc:  751728984 now IPC :1.75961: AVG IPC :0.81386: L2-Pf-HR :0.87159: L2-HR :0.81527: (Sim:3h30m14s) 
CPU  0 inst:  614000000 cyc:  752284967 now IPC :1.79861: AVG IPC :0.81458: L2-Pf-HR :0.87169: L2-HR :0.81546: (Sim:3h30m23s) 
CPU  0 inst:  615000005 cyc:  752841979 now IPC :1.79530: AVG IPC :0.81531: L2-Pf-HR :0.87179: L2-HR :0.81565: (Sim:3h30m31s) 
CPU  0 inst:  616000004 cyc:  753398126 now IPC :1.79808: AVG IPC :0.81604: L2-Pf-HR :0.87189: L2-HR :0.81584: (Sim:3h30m40s) 
CPU  0 inst:  617000002 cyc:  753930951 now IPC :1.87679: AVG IPC :0.81679: L2-Pf-HR :0.87198: L2-HR :0.81604: (Sim:3h30m49s) 
CPU  0 inst:  618000003 cyc:  754437949 now IPC :1.97240: AVG IPC :0.81757: L2-Pf-HR :0.87215: L2-HR :0.81629: (Sim:3h30m58s) 
CPU  0 inst:  619000002 cyc:  754945444 now IPC :1.97046: AVG IPC :0.81834: L2-Pf-HR :0.87231: L2-HR :0.81654: (Sim:3h31m7s) 
CPU  0 inst:  620000003 cyc:  755452240 now IPC :1.97318: AVG IPC :0.81912: L2-Pf-HR :0.87247: L2-HR :0.81679: (Sim:3h31m16s) 
CPU  0 inst:  621000003 cyc:  755969396 now IPC :1.93365: AVG IPC :0.81988: L2-Pf-HR :0.87257: L2-HR :0.81699: (Sim:3h31m25s) 
CPU  0 inst:  622000000 cyc:  756471132 now IPC :1.99307: AVG IPC :0.82066: L2-Pf-HR :0.87271: L2-HR :0.81721: (Sim:3h31m33s) 
CPU  0 inst:  623000005 cyc:  756973295 now IPC :1.99140: AVG IPC :0.82144: L2-Pf-HR :0.87285: L2-HR :0.81742: (Sim:3h31m42s) 
CPU  0 inst:  624000004 cyc:  757474909 now IPC :1.99356: AVG IPC :0.82221: L2-Pf-HR :0.87299: L2-HR :0.81764: (Sim:3h31m51s) 
CPU  0 inst:  625000001 cyc:  757993263 now IPC :1.92918: AVG IPC :0.82297: L2-Pf-HR :0.87306: L2-HR :0.81781: (Sim:3h32m0s) 
CPU  0 inst:  626000004 cyc:  758510500 now IPC :1.93336: AVG IPC :0.82373: L2-Pf-HR :0.87317: L2-HR :0.81798: (Sim:3h32m9s) 
CPU  0 inst:  627000003 cyc:  759028120 now IPC :1.93192: AVG IPC :0.82449: L2-Pf-HR :0.87327: L2-HR :0.81816: (Sim:3h32m18s) 
CPU  0 inst:  628000001 cyc:  759545872 now IPC :1.93142: AVG IPC :0.82524: L2-Pf-HR :0.87337: L2-HR :0.81832: (Sim:3h32m27s) 
CPU  0 inst:  629000001 cyc:  760084171 now IPC :1.85770: AVG IPC :0.82598: L2-Pf-HR :0.87342: L2-HR :0.81846: (Sim:3h32m36s) 
CPU  0 inst:  630000002 cyc:  760639375 now IPC :1.80114: AVG IPC :0.82669: L2-Pf-HR :0.87351: L2-HR :0.81863: (Sim:3h32m45s) 
CPU  0 inst:  631000001 cyc:  761199902 now IPC :1.78403: AVG IPC :0.82739: L2-Pf-HR :0.87358: L2-HR :0.81879: (Sim:3h32m54s) 
CPU  0 inst:  632000000 cyc:  761762207 now IPC :1.77839: AVG IPC :0.82810: L2-Pf-HR :0.87364: L2-HR :0.81895: (Sim:3h33m4s) 
CPU  0 inst:  633000002 cyc:  762318605 now IPC :1.79728: AVG IPC :0.82881: L2-Pf-HR :0.87374: L2-HR :0.81914: (Sim:3h33m13s) 
CPU  0 inst:  634000004 cyc:  762837205 now IPC :1.92827: AVG IPC :0.82955: L2-Pf-HR :0.87384: L2-HR :0.81933: (Sim:3h33m21s) 
CPU  0 inst:  635000005 cyc:  763344448 now IPC :1.97144: AVG IPC :0.83031: L2-Pf-HR :0.87397: L2-HR :0.81954: (Sim:3h33m30s) 
CPU  0 inst:  636000000 cyc:  763851867 now IPC :1.97075: AVG IPC :0.83107: L2-Pf-HR :0.87409: L2-HR :0.81975: (Sim:3h33m39s) 
CPU  0 inst:  637000002 cyc:  764360578 now IPC :1.96576: AVG IPC :0.83183: L2-Pf-HR :0.87421: L2-HR :0.81996: (Sim:3h33m47s) 
CPU  0 inst:  638000004 cyc:  764874588 now IPC :1.94549: AVG IPC :0.83258: L2-Pf-HR :0.87433: L2-HR :0.82016: (Sim:3h33m56s) 
CPU  0 inst:  639000000 cyc:  765375701 now IPC :1.99555: AVG IPC :0.83334: L2-Pf-HR :0.87445: L2-HR :0.82036: (Sim:3h34m5s) 
CPU  0 inst:  640000005 cyc:  765877363 now IPC :1.99338: AVG IPC :0.83410: L2-Pf-HR :0.87458: L2-HR :0.82057: (Sim:3h34m14s) 
CPU  0 inst:  641000004 cyc:  766378851 now IPC :1.99406: AVG IPC :0.83486: L2-Pf-HR :0.87471: L2-HR :0.82077: (Sim:3h34m23s) 
CPU  0 inst:  642000001 cyc:  766902882 now IPC :1.90828: AVG IPC :0.83560: L2-Pf-HR :0.87476: L2-HR :0.82091: (Sim:3h34m31s) 
CPU  0 inst:  643000003 cyc:  767419582 now IPC :1.93536: AVG IPC :0.83634: L2-Pf-HR :0.87485: L2-HR :0.82106: (Sim:3h34m40s) 
CPU  0 inst:  644000003 cyc:  767936544 now IPC :1.93438: AVG IPC :0.83708: L2-Pf-HR :0.87493: L2-HR :0.82122: (Sim:3h34m49s) 
CPU  0 inst:  645000001 cyc:  768454176 now IPC :1.93187: AVG IPC :0.83781: L2-Pf-HR :0.87501: L2-HR :0.82137: (Sim:3h34m57s) 
CPU  0 inst:  646000004 cyc:  769006872 now IPC :1.80932: AVG IPC :0.83851: L2-Pf-HR :0.87505: L2-HR :0.82149: (Sim:3h35m6s) 
CPU  0 inst:  647000003 cyc:  769564772 now IPC :1.79243: AVG IPC :0.83921: L2-Pf-HR :0.87513: L2-HR :0.82166: (Sim:3h35m15s) 
CPU  0 inst:  648000005 cyc:  770120762 now IPC :1.79860: AVG IPC :0.83990: L2-Pf-HR :0.87521: L2-HR :0.82182: (Sim:3h35m24s) 
CPU  0 inst:  649000002 cyc:  770678114 now IPC :1.79419: AVG IPC :0.84059: L2-Pf-HR :0.87529: L2-HR :0.82199: (Sim:3h35m33s) 
CPU  0 inst:  650000001 cyc:  771234527 now IPC :1.79722: AVG IPC :0.84128: L2-Pf-HR :0.87534: L2-HR :0.82213: (Sim:3h35m42s) 
CPU  0 inst:  651000004 cyc:  771741446 now IPC :1.97271: AVG IPC :0.84203: L2-Pf-HR :0.87547: L2-HR :0.82234: (Sim:3h35m51s) 
CPU  0 inst:  652000001 cyc:  772248127 now IPC :1.97362: AVG IPC :0.84277: L2-Pf-HR :0.87560: L2-HR :0.82255: (Sim:3h36m0s) 
CPU  0 inst:  653000005 cyc:  772755053 now IPC :1.97268: AVG IPC :0.84351: L2-Pf-HR :0.87572: L2-HR :0.82275: (Sim:3h36m10s) 
CPU  0 inst:  654000004 cyc:  773273005 now IPC :1.93068: AVG IPC :0.84424: L2-Pf-HR :0.87580: L2-HR :0.82293: (Sim:3h36m19s) 
CPU  0 inst:  655000001 cyc:  773775653 now IPC :1.98946: AVG IPC :0.84499: L2-Pf-HR :0.87591: L2-HR :0.82311: (Sim:3h36m27s) 
CPU  0 inst:  656000001 cyc:  774277229 now IPC :1.99372: AVG IPC :0.84573: L2-Pf-HR :0.87603: L2-HR :0.82330: (Sim:3h36m36s) 
CPU  0 inst:  657000002 cyc:  774778581 now IPC :1.99461: AVG IPC :0.84648: L2-Pf-HR :0.87615: L2-HR :0.82349: (Sim:3h36m45s) 
CPU  0 inst:  658000001 cyc:  775283133 now IPC :1.98195: AVG IPC :0.84722: L2-Pf-HR :0.87624: L2-HR :0.82366: (Sim:3h36m54s) 
CPU  0 inst:  659000003 cyc:  775807533 now IPC :1.90695: AVG IPC :0.84793: L2-Pf-HR :0.87629: L2-HR :0.82378: (Sim:3h37m2s) 
Finished CPU 0 instr: 657000002 cyc: 774825929 AVG IPC: 0.84793 (Sim time: 3h37m2s)

ChampSim completed all CPUs

[ROI Statistics]
Core_0_instructions 657000002
Core_0_cycles 774825929
Core_0_IPC 0.84793

Core_0_branch_prediction_accuracy 99.58944
Core_0_branch_MPKI 0.11916
Core_0_average_ROB_occupancy_at_mispredict 571.36295

Core_0_L1D_total_access 338987326
Core_0_L1D_total_hit 325043951 L1D_total_Hit Ratio: 0.95887
Core_0_L1D_total_miss 13943375
Core_0_L1D_loads 191505475
Core_0_L1D_load_hit 186722114 L1D_load_Hit Ratio: 0.97502
Core_0_L1D_load_miss 4783361
Core_0_L1D_RFOs 17265751
Core_0_L1D_RFO_hit 16313883 L1D_RFO_Hit Ratio: 0.94487
Core_0_L1D_RFO_miss 951868
Core_0_L1D_prefetches 130216100
Core_0_L1D_prefetch_hit 122007954 L1D_prefetch_Hit Ratio: 0.93697
Core_0_L1D_prefetch_miss 8208146
Core_0_L1D_writebacks 0
Core_0_L1D_writeback_hit 0 L1D_writeback_Hit Ratio: -nan
Core_0_L1D_writeback_miss 0
Core_0_L1D_prefetch_requested 358445854
Core_0_L1D_prefetch_issued 179077758
Core_0_L1D_prefetch_useful 7566922 L1D_Useful Ratio: 0.04225
Core_0_L1D_prefetch_useless 656649
Core_0_L1D_prefetch_late 641059
Core_0_L1D_average_miss_latency 12235601.20294

Core_0_L1I_total_access 104004635
Core_0_L1I_total_hit 104002652 L1I_total_Hit Ratio: 0.99998
Core_0_L1I_total_miss 1983
Core_0_L1I_loads 104004635
Core_0_L1I_load_hit 104002652 L1I_load_Hit Ratio: 0.99998
Core_0_L1I_load_miss 1983
Core_0_L1I_RFOs 0
Core_0_L1I_RFO_hit 0 L1I_RFO_Hit Ratio: -nan
Core_0_L1I_RFO_miss 0
Core_0_L1I_prefetches 0
Core_0_L1I_prefetch_hit 0 L1I_prefetch_Hit Ratio: -nan
Core_0_L1I_prefetch_miss 0
Core_0_L1I_writebacks 0
Core_0_L1I_writeback_hit 0 L1I_writeback_Hit Ratio: -nan
Core_0_L1I_writeback_miss 0
Core_0_L1I_prefetch_requested 0
Core_0_L1I_prefetch_issued 0
Core_0_L1I_prefetch_useful 0 L1I_Useful Ratio: -nan
Core_0_L1I_prefetch_useless 0
Core_0_L1I_prefetch_late 0
Core_0_L1I_average_miss_latency 263.97176

Core_0_L2C_total_access 33513461
Core_0_L2C_total_hit 27607775 L2C_total_Hit Ratio: 0.82378
Core_0_L2C_total_miss 5905686
Core_0_L2C_loads 4144383
Core_0_L2C_load_hit 2162022 L2C_load_Hit Ratio: 0.52168
Core_0_L2C_load_miss 1982361
Core_0_L2C_RFOs 951862
Core_0_L2C_RFO_hit 65152 L2C_RFO_Hit Ratio: 0.06845
Core_0_L2C_RFO_miss 886710
Core_0_L2C_prefetches 24546307
Core_0_L2C_prefetch_hit 21509716 L2C_prefetch_Hit Ratio: 0.87629
Core_0_L2C_prefetch_miss 3036591
Core_0_L2C_writebacks 3870909
Core_0_L2C_writeback_hit 3870885 L2C_writeback_Hit Ratio: 0.99999
Core_0_L2C_writeback_miss 24
Core_0_L2C_prefetch_requested 31962529
Core_0_L2C_prefetch_issued 30596368
Core_0_L2C_prefetch_useful 213019 L2C_Useful Ratio: 0.00696
Core_0_L2C_prefetch_useless 2774226
Core_0_L2C_prefetch_late 732850
Core_0_L2C_average_miss_latency 298.54256

Core_0_LLC_total_access 9145370
Core_0_LLC_total_hit 3629402 LLC_total_Hit Ratio: 0.39686
Core_0_LLC_total_miss 5515968
Core_0_LLC_loads 1249586
Core_0_LLC_load_hit 77709 LLC_load_Hit Ratio: 0.06219
Core_0_LLC_load_miss 1171877
Core_0_LLC_RFOs 886707
Core_0_LLC_RFO_hit 274 LLC_RFO_Hit Ratio: 0.00031
Core_0_LLC_RFO_miss 886433
Core_0_LLC_prefetches 3769369
Core_0_LLC_prefetch_hit 331828 LLC_prefetch_Hit Ratio: 0.08803
Core_0_LLC_prefetch_miss 3437541
Core_0_LLC_writebacks 3239708
Core_0_LLC_writeback_hit 3219591 LLC_writeback_Hit Ratio: 0.99379
Core_0_LLC_writeback_miss 20117
Core_0_LLC_prefetch_requested 0
Core_0_LLC_prefetch_issued 0
Core_0_LLC_prefetch_useful 72375 LLC_Useful Ratio: inf
Core_0_LLC_prefetch_useless 3257509
Core_0_LLC_prefetch_late 0
Core_0_LLC_average_miss_latency 295.46393

Core_0_major_page_fault 0
Core_0_minor_page_fault 37887


Channel_0_RQ_row_buffer_hit 2937282
Channel_0_RQ_row_buffer_miss 2558569
Channel_0_WQ_row_buffer_hit 1152601
Channel_0_WQ_row_buffer_miss 2057728
Channel_0_WQ_full 10917
Channel_0_dbus_congested 4180164

avg_congested_cycle 8

EzSearch AVG IPC :0.84793: L2-Pf-HR :0.87629 : L2-HR :0.82378 Uful:0.00696
     > Finished combination: TraceType=770-tot Sim:657000000 Prefetcher=L2ipcp L1=ipcp
