TRACE: [125000000][OPT-125M]_[h12][s512][d64] Warmup: 2000000 NumTraces: 125000000
L1:ipcp:L2:ipcp
*************************************************
   ChampSim Multicore Out-of-Order Simulator
   Last compiled: Oct 30 2024 22:58:36
*************************************************

trace_0 770-tot_memTraces_v5/140-subBillion_s512_LLM_Arch/memTraces[125000000][OPT-125M]_[h12][s512][d64].champsim.9.xz
MAIN.cc ln 751 stats print skipped
CPU  0 inst:    1000001 cyc:     498928 now IPC :2.00430: AVG IPC :2.00430: L2-Pf-HR :0.88165: L2-HR :0.81152: (Sim:0h0m20s) 
CPU  0 inst:    2000000 cyc:     981875 now IPC :2.07062: AVG IPC :2.03692: L2-Pf-HR :0.92667: L2-HR :0.85625: (Sim:0h0m42s) 

Warmup complete CPU  0 instructions:    2000003 cycles:     981876 (Simulation time: 0 hr 0 min 42 sec) 

CPU  0 inst:    3000004 cyc:    1596370 now IPC :1.62736: AVG IPC :1.62736: L2-Pf-HR :0.96180: L2-HR :0.87987: (Sim:0h1m0s) 
CPU  0 inst:    4000000 cyc:    2185409 now IPC :1.69767: AVG IPC :1.66177: L2-Pf-HR :0.95528: L2-HR :0.85881: (Sim:0h1m19s) 
CPU  0 inst:    5000001 cyc:    2810450 now IPC :1.59990: AVG IPC :1.64062: L2-Pf-HR :0.95340: L2-HR :0.85960: (Sim:0h1m37s) 
CPU  0 inst:    6000001 cyc:    3410529 now IPC :1.66645: AVG IPC :1.64700: L2-Pf-HR :0.96245: L2-HR :0.86926: (Sim:0h1m56s) 
CPU  0 inst:    7000005 cyc:    4011118 now IPC :1.66504: AVG IPC :1.65058: L2-Pf-HR :0.96755: L2-HR :0.87426: (Sim:0h2m14s) 
CPU  0 inst:    8000005 cyc:    4601466 now IPC :1.69392: AVG IPC :1.65765: L2-Pf-HR :0.96715: L2-HR :0.87113: (Sim:0h2m32s) 
CPU  0 inst:    9000004 cyc:    5214003 now IPC :1.63255: AVG IPC :1.65401: L2-Pf-HR :0.96291: L2-HR :0.86876: (Sim:0h2m51s) 
CPU  0 inst:   10000001 cyc:    5813620 now IPC :1.66773: AVG IPC :1.65572: L2-Pf-HR :0.96601: L2-HR :0.87209: (Sim:0h3m9s) 
CPU  0 inst:   11000005 cyc:    6410086 now IPC :1.67655: AVG IPC :1.65801: L2-Pf-HR :0.96811: L2-HR :0.87384: (Sim:0h3m27s) 
CPU  0 inst:   12000005 cyc:    6995930 now IPC :1.70694: AVG IPC :1.66277: L2-Pf-HR :0.96755: L2-HR :0.87236: (Sim:0h3m46s) 
CPU  0 inst:   13000002 cyc:    7604637 now IPC :1.64282: AVG IPC :1.66094: L2-Pf-HR :0.96533: L2-HR :0.87024: (Sim:0h4m4s) 
CPU  0 inst:   14000005 cyc:    8202992 now IPC :1.67125: AVG IPC :1.66179: L2-Pf-HR :0.96713: L2-HR :0.87198: (Sim:0h4m22s) 
CPU  0 inst:   15000001 cyc:    8795692 now IPC :1.68719: AVG IPC :1.66372: L2-Pf-HR :0.96835: L2-HR :0.87354: (Sim:0h4m40s) 
CPU  0 inst:   16000000 cyc:    9390274 now IPC :1.68185: AVG IPC :1.66500: L2-Pf-HR :0.96850: L2-HR :0.87279: (Sim:0h4m58s) 
CPU  0 inst:   17000000 cyc:    9994785 now IPC :1.65423: AVG IPC :1.66428: L2-Pf-HR :0.96616: L2-HR :0.87049: (Sim:0h5m16s) 
CPU  0 inst:   18000001 cyc:   10596480 now IPC :1.66197: AVG IPC :1.66413: L2-Pf-HR :0.96737: L2-HR :0.87216: (Sim:0h5m34s) 
CPU  0 inst:   19000004 cyc:   11193178 now IPC :1.67589: AVG IPC :1.66482: L2-Pf-HR :0.96839: L2-HR :0.87298: (Sim:0h5m52s) 
CPU  0 inst:   20000000 cyc:   11790410 now IPC :1.67438: AVG IPC :1.66535: L2-Pf-HR :0.96876: L2-HR :0.87314: (Sim:0h6m11s) 
CPU  0 inst:   21000005 cyc:   12400464 now IPC :1.63921: AVG IPC :1.66395: L2-Pf-HR :0.96699: L2-HR :0.87107: (Sim:0h6m29s) 
CPU  0 inst:   22000000 cyc:   13014560 now IPC :1.62840: AVG IPC :1.66214: L2-Pf-HR :0.96798: L2-HR :0.87206: (Sim:0h6m47s) 
CPU  0 inst:   23000003 cyc:   13624942 now IPC :1.63832: AVG IPC :1.66099: L2-Pf-HR :0.96893: L2-HR :0.87334: (Sim:0h7m6s) 
CPU  0 inst:   24000004 cyc:   14240297 now IPC :1.62508: AVG IPC :1.65932: L2-Pf-HR :0.96937: L2-HR :0.87376: (Sim:0h7m24s) 
CPU  0 inst:   25000003 cyc:   14875884 now IPC :1.57335: AVG IPC :1.65539: L2-Pf-HR :0.96781: L2-HR :0.87166: (Sim:0h7m43s) 
CPU  0 inst:   26000005 cyc:   15503244 now IPC :1.59398: AVG IPC :1.65274: L2-Pf-HR :0.96839: L2-HR :0.87256: (Sim:0h8m3s) 
CPU  0 inst:   27000000 cyc:   16133919 now IPC :1.58559: AVG IPC :1.64994: L2-Pf-HR :0.96911: L2-HR :0.87351: (Sim:0h8m21s) 
CPU  0 inst:   28000001 cyc:   16768188 now IPC :1.57662: AVG IPC :1.64700: L2-Pf-HR :0.96946: L2-HR :0.87416: (Sim:0h8m39s) 
CPU  0 inst:   29000002 cyc:   17414605 now IPC :1.54699: AVG IPC :1.64306: L2-Pf-HR :0.96793: L2-HR :0.87222: (Sim:0h8m58s) 
CPU  0 inst:   30000000 cyc:   18065222 now IPC :1.53700: AVG IPC :1.63902: L2-Pf-HR :0.96845: L2-HR :0.87302: (Sim:0h9m16s) 
CPU  0 inst:   31000001 cyc:   18710333 now IPC :1.55012: AVG IPC :1.63579: L2-Pf-HR :0.96903: L2-HR :0.87372: (Sim:0h9m35s) 
CPU  0 inst:   32000003 cyc:   19362055 now IPC :1.53440: AVG IPC :1.63219: L2-Pf-HR :0.96944: L2-HR :0.87453: (Sim:0h9m54s) 
CPU  0 inst:   33000001 cyc:   19998253 now IPC :1.57183: AVG IPC :1.63017: L2-Pf-HR :0.96801: L2-HR :0.87284: (Sim:0h10m12s) 
CPU  0 inst:   34000004 cyc:   20696216 now IPC :1.43274: AVG IPC :1.62318: L2-Pf-HR :0.96813: L2-HR :0.87319: (Sim:0h10m31s) 
CPU  0 inst:   35000000 cyc:   21360622 now IPC :1.50510: AVG IPC :1.61933: L2-Pf-HR :0.96858: L2-HR :0.87394: (Sim:0h10m50s) 
CPU  0 inst:   36000000 cyc:   22011780 now IPC :1.53573: AVG IPC :1.61675: L2-Pf-HR :0.96879: L2-HR :0.87433: (Sim:0h11m9s) 
CPU  0 inst:   37000005 cyc:   22631910 now IPC :1.61257: AVG IPC :1.61663: L2-Pf-HR :0.96816: L2-HR :0.87340: (Sim:0h11m28s) 
CPU  0 inst:   38000003 cyc:   23331800 now IPC :1.42879: AVG IPC :1.61074: L2-Pf-HR :0.96772: L2-HR :0.87327: (Sim:0h11m48s) 
CPU  0 inst:   39000003 cyc:   23986365 now IPC :1.52773: AVG IPC :1.60838: L2-Pf-HR :0.96809: L2-HR :0.87376: (Sim:0h12m8s) 
CPU  0 inst:   40000000 cyc:   24637474 now IPC :1.53584: AVG IPC :1.60638: L2-Pf-HR :0.96845: L2-HR :0.87428: (Sim:0h12m27s) 
CPU  0 inst:   41000003 cyc:   25277112 now IPC :1.56339: AVG IPC :1.60525: L2-Pf-HR :0.96795: L2-HR :0.87354: (Sim:0h12m47s) 
CPU  0 inst:   42000005 cyc:   25978848 now IPC :1.42504: AVG IPC :1.60019: L2-Pf-HR :0.96732: L2-HR :0.87309: (Sim:0h13m6s) 
CPU  0 inst:   43000000 cyc:   26623403 now IPC :1.55145: AVG IPC :1.59897: L2-Pf-HR :0.96735: L2-HR :0.87355: (Sim:0h13m25s) 
CPU  0 inst:   44000001 cyc:   27277287 now IPC :1.52932: AVG IPC :1.59724: L2-Pf-HR :0.96754: L2-HR :0.87391: (Sim:0h13m44s) 
CPU  0 inst:   45000001 cyc:   27917578 now IPC :1.56179: AVG IPC :1.59639: L2-Pf-HR :0.96733: L2-HR :0.87344: (Sim:0h14m3s) 
CPU  0 inst:   46000002 cyc:   28603538 now IPC :1.45781: AVG IPC :1.59295: L2-Pf-HR :0.96670: L2-HR :0.87297: (Sim:0h14m22s) 
CPU  0 inst:   47000000 cyc:   29245516 now IPC :1.55768: AVG IPC :1.59215: L2-Pf-HR :0.96685: L2-HR :0.87333: (Sim:0h14m41s) 
CPU  0 inst:   48000005 cyc:   29889209 now IPC :1.55354: AVG IPC :1.59129: L2-Pf-HR :0.96696: L2-HR :0.87364: (Sim:0h15m0s) 
CPU  0 inst:   49000004 cyc:   30536755 now IPC :1.54429: AVG IPC :1.59026: L2-Pf-HR :0.96684: L2-HR :0.87339: (Sim:0h15m19s) 
CPU  0 inst:   50000004 cyc:   33366252 now IPC :0.35342: AVG IPC :1.48220: L2-Pf-HR :0.95091: L2-HR :0.84965: (Sim:0h15m51s) 
CPU  0 inst:   51000000 cyc:   38016827 now IPC :0.21503: AVG IPC :1.32307: L2-Pf-HR :0.92497: L2-HR :0.81449: (Sim:0h16m38s) 
CPU  0 inst:   52000000 cyc:   41588834 now IPC :0.27995: AVG IPC :1.23132: L2-Pf-HR :0.91327: L2-HR :0.80353: (Sim:0h17m14s) 
CPU  0 inst:   53000000 cyc:   44761992 now IPC :0.31514: AVG IPC :1.16491: L2-Pf-HR :0.90573: L2-HR :0.79873: (Sim:0h17m46s) 
CPU  0 inst:   54000000 cyc:   47933401 now IPC :0.31532: AVG IPC :1.10753: L2-Pf-HR :0.89834: L2-HR :0.79403: (Sim:0h18m17s) 
CPU  0 inst:   55000001 cyc:   51104966 now IPC :0.31530: AVG IPC :1.05740: L2-Pf-HR :0.89106: L2-HR :0.78944: (Sim:0h18m49s) 
CPU  0 inst:   56000000 cyc:   54277313 now IPC :0.31522: AVG IPC :1.01322: L2-Pf-HR :0.88392: L2-HR :0.78495: (Sim:0h19m21s) 
CPU  0 inst:   57000000 cyc:   57448860 now IPC :0.31530: AVG IPC :0.97402: L2-Pf-HR :0.87693: L2-HR :0.78057: (Sim:0h19m53s) 
CPU  0 inst:   58000000 cyc:   60620828 now IPC :0.31526: AVG IPC :0.93898: L2-Pf-HR :0.87006: L2-HR :0.77628: (Sim:0h20m25s) 
CPU  0 inst:   59000000 cyc:   63792355 now IPC :0.31531: AVG IPC :0.90749: L2-Pf-HR :0.86332: L2-HR :0.77208: (Sim:0h20m57s) 
CPU  0 inst:   60000000 cyc:   66960477 now IPC :0.31564: AVG IPC :0.87907: L2-Pf-HR :0.85671: L2-HR :0.76797: (Sim:0h21m29s) 
CPU  0 inst:   61000004 cyc:   70128502 now IPC :0.31566: AVG IPC :0.85326: L2-Pf-HR :0.85022: L2-HR :0.76394: (Sim:0h22m2s) 
CPU  0 inst:   62000000 cyc:   73295914 now IPC :0.31571: AVG IPC :0.82971: L2-Pf-HR :0.84384: L2-HR :0.76000: (Sim:0h22m29s) 
CPU  0 inst:   63000000 cyc:   76463398 now IPC :0.31571: AVG IPC :0.80814: L2-Pf-HR :0.83757: L2-HR :0.75615: (Sim:0h23m1s) 
CPU  0 inst:   64000005 cyc:   79628042 now IPC :0.31599: AVG IPC :0.78834: L2-Pf-HR :0.83141: L2-HR :0.75236: (Sim:0h23m33s) 
CPU  0 inst:   65000002 cyc:   82793620 now IPC :0.31590: AVG IPC :0.77006: L2-Pf-HR :0.82534: L2-HR :0.74866: (Sim:0h24m4s) 
CPU  0 inst:   66000000 cyc:   85959797 now IPC :0.31584: AVG IPC :0.75314: L2-Pf-HR :0.81940: L2-HR :0.74502: (Sim:0h24m36s) 
CPU  0 inst:   67000000 cyc:   89126646 now IPC :0.31577: AVG IPC :0.73742: L2-Pf-HR :0.81356: L2-HR :0.74146: (Sim:0h25m8s) 
CPU  0 inst:   68000000 cyc:   92294045 now IPC :0.31572: AVG IPC :0.72280: L2-Pf-HR :0.80782: L2-HR :0.73798: (Sim:0h25m28s) 
CPU  0 inst:   69000004 cyc:   95459389 now IPC :0.31592: AVG IPC :0.70916: L2-Pf-HR :0.80217: L2-HR :0.73456: (Sim:0h25m54s) 
CPU  0 inst:   70000000 cyc:   98624389 now IPC :0.31595: AVG IPC :0.69642: L2-Pf-HR :0.79663: L2-HR :0.73120: (Sim:0h26m26s) 
CPU  0 inst:   71000000 cyc:  101791775 now IPC :0.31572: AVG IPC :0.68446: L2-Pf-HR :0.79119: L2-HR :0.72792: (Sim:0h26m57s) 
CPU  0 inst:   72000000 cyc:  104957033 now IPC :0.31593: AVG IPC :0.67324: L2-Pf-HR :0.78583: L2-HR :0.72469: (Sim:0h27m29s) 
CPU  0 inst:   73000000 cyc:  108122894 now IPC :0.31587: AVG IPC :0.66268: L2-Pf-HR :0.78054: L2-HR :0.72152: (Sim:0h28m1s) 
CPU  0 inst:   74000001 cyc:  111287668 now IPC :0.31598: AVG IPC :0.65273: L2-Pf-HR :0.77534: L2-HR :0.71841: (Sim:0h28m21s) 
CPU  0 inst:   75000002 cyc:  114452080 now IPC :0.31601: AVG IPC :0.64334: L2-Pf-HR :0.77021: L2-HR :0.71535: (Sim:0h28m45s) 
CPU  0 inst:   76000000 cyc:  116135812 now IPC :0.59392: AVG IPC :0.64262: L2-Pf-HR :0.76968: L2-HR :0.71541: (Sim:0h29m10s) 
CPU  0 inst:   77000002 cyc:  116734831 now IPC :1.66940: AVG IPC :0.64793: L2-Pf-HR :0.77332: L2-HR :0.71833: (Sim:0h29m28s) 
CPU  0 inst:   78000004 cyc:  117296201 now IPC :1.78136: AVG IPC :0.65340: L2-Pf-HR :0.77794: L2-HR :0.72180: (Sim:0h29m49s) 
CPU  0 inst:   79000000 cyc:  117807890 now IPC :1.95430: AVG IPC :0.65910: L2-Pf-HR :0.78379: L2-HR :0.72613: (Sim:0h30m7s) 
CPU  0 inst:   80000005 cyc:  118385344 now IPC :1.73175: AVG IPC :0.66438: L2-Pf-HR :0.78729: L2-HR :0.72908: (Sim:0h30m27s) 
CPU  0 inst:   81000000 cyc:  118969482 now IPC :1.71192: AVG IPC :0.66956: L2-Pf-HR :0.79018: L2-HR :0.73166: (Sim:0h30m48s) 
CPU  0 inst:   82000001 cyc:  119530851 now IPC :1.78136: AVG IPC :0.67483: L2-Pf-HR :0.79347: L2-HR :0.73453: (Sim:0h31m5s) 
CPU  0 inst:   83000003 cyc:  120041998 now IPC :1.95639: AVG IPC :0.68033: L2-Pf-HR :0.79825: L2-HR :0.73836: (Sim:0h31m19s) 
CPU  0 inst:   84000004 cyc:  120615200 now IPC :1.74459: AVG IPC :0.68543: L2-Pf-HR :0.80141: L2-HR :0.74122: (Sim:0h31m34s) 
CPU  0 inst:   85000005 cyc:  121196113 now IPC :1.72143: AVG IPC :0.69043: L2-Pf-HR :0.80368: L2-HR :0.74348: (Sim:0h31m56s) 
CPU  0 inst:   86000003 cyc:  121786927 now IPC :1.69258: AVG IPC :0.69534: L2-Pf-HR :0.80571: L2-HR :0.74555: (Sim:0h32m17s) 
CPU  0 inst:   87000003 cyc:  122299062 now IPC :1.95261: AVG IPC :0.70064: L2-Pf-HR :0.80968: L2-HR :0.74897: (Sim:0h32m39s) 
CPU  0 inst:   88000001 cyc:  122844401 now IPC :1.83372: AVG IPC :0.70571: L2-Pf-HR :0.81263: L2-HR :0.75173: (Sim:0h33m0s) 
CPU  0 inst:   89000000 cyc:  123442871 now IPC :1.67093: AVG IPC :0.71043: L2-Pf-HR :0.81430: L2-HR :0.75360: (Sim:0h33m22s) 
CPU  0 inst:   90000001 cyc:  124015569 now IPC :1.74612: AVG IPC :0.71525: L2-Pf-HR :0.81600: L2-HR :0.75551: (Sim:0h33m44s) 
CPU  0 inst:   91000002 cyc:  124549424 now IPC :1.87317: AVG IPC :0.72025: L2-Pf-HR :0.81902: L2-HR :0.75833: (Sim:0h34m5s) 
CPU  0 inst:   92000000 cyc:  125061716 now IPC :1.95201: AVG IPC :0.72534: L2-Pf-HR :0.82222: L2-HR :0.76129: (Sim:0h34m23s) 
CPU  0 inst:   93000001 cyc:  125662536 now IPC :1.66439: AVG IPC :0.72986: L2-Pf-HR :0.82331: L2-HR :0.76277: (Sim:0h34m45s) 
CPU  0 inst:   94000004 cyc:  126246363 now IPC :1.71284: AVG IPC :0.73445: L2-Pf-HR :0.82468: L2-HR :0.76445: (Sim:0h35m4s) 
CPU  0 inst:   95000004 cyc:  126787393 now IPC :1.84833: AVG IPC :0.73924: L2-Pf-HR :0.82694: L2-HR :0.76675: (Sim:0h35m24s) 
CPU  0 inst:   96000001 cyc:  127299500 now IPC :1.95271: AVG IPC :0.74416: L2-Pf-HR :0.82977: L2-HR :0.76949: (Sim:0h35m45s) 
CPU  0 inst:   97000003 cyc:  127889036 now IPC :1.69625: AVG IPC :0.74858: L2-Pf-HR :0.83090: L2-HR :0.77096: (Sim:0h36m5s) 
CPU  0 inst:   98000005 cyc:  128459131 now IPC :1.75410: AVG IPC :0.75308: L2-Pf-HR :0.83203: L2-HR :0.77246: (Sim:0h36m26s) 
CPU  0 inst:   99000002 cyc:  129015752 now IPC :1.79655: AVG IPC :0.75761: L2-Pf-HR :0.83367: L2-HR :0.77432: (Sim:0h36m48s) 
CPU  0 inst:  100000001 cyc:  129526236 now IPC :1.95892: AVG IPC :0.76238: L2-Pf-HR :0.83616: L2-HR :0.77680: (Sim:0h37m9s) 
CPU  0 inst:  101000003 cyc:  130097153 now IPC :1.75157: AVG IPC :0.76676: L2-Pf-HR :0.83742: L2-HR :0.77838: (Sim:0h37m30s) 
CPU  0 inst:  102000004 cyc:  130656104 now IPC :1.78907: AVG IPC :0.77116: L2-Pf-HR :0.83839: L2-HR :0.77973: (Sim:0h37m52s) 
CPU  0 inst:  103000004 cyc:  131201808 now IPC :1.83250: AVG IPC :0.77561: L2-Pf-HR :0.83954: L2-HR :0.78121: (Sim:0h38m13s) 
CPU  0 inst:  104000005 cyc:  131711634 now IPC :1.96146: AVG IPC :0.78024: L2-Pf-HR :0.84173: L2-HR :0.78347: (Sim:0h38m34s) 
CPU  0 inst:  105000001 cyc:  132258748 now IPC :1.82777: AVG IPC :0.78460: L2-Pf-HR :0.84306: L2-HR :0.78508: (Sim:0h38m55s) 
CPU  0 inst:  106000004 cyc:  132807113 now IPC :1.82361: AVG IPC :0.78892: L2-Pf-HR :0.84382: L2-HR :0.78626: (Sim:0h39m12s) 
CPU  0 inst:  107000000 cyc:  133357185 now IPC :1.81794: AVG IPC :0.79320: L2-Pf-HR :0.84463: L2-HR :0.78746: (Sim:0h39m33s) 
CPU  0 inst:  108000004 cyc:  133865855 now IPC :1.96592: AVG IPC :0.79769: L2-Pf-HR :0.84660: L2-HR :0.78954: (Sim:0h39m55s) 
CPU  0 inst:  109000003 cyc:  134397015 now IPC :1.88267: AVG IPC :0.80201: L2-Pf-HR :0.84805: L2-HR :0.79121: (Sim:0h40m14s) 
CPU  0 inst:  110000001 cyc:  134964686 now IPC :1.76158: AVG IPC :0.80607: L2-Pf-HR :0.84855: L2-HR :0.79216: (Sim:0h40m36s) 
CPU  0 inst:  111000000 cyc:  135514537 now IPC :1.81867: AVG IPC :0.81021: L2-Pf-HR :0.84911: L2-HR :0.79315: (Sim:0h40m57s) 
CPU  0 inst:  112000004 cyc:  136024611 now IPC :1.96051: AVG IPC :0.81456: L2-Pf-HR :0.85087: L2-HR :0.79505: (Sim:0h41m18s) 
CPU  0 inst:  113000001 cyc:  136546916 now IPC :1.91458: AVG IPC :0.81880: L2-Pf-HR :0.85239: L2-HR :0.79676: (Sim:0h41m39s) 
CPU  0 inst:  114000000 cyc:  137103563 now IPC :1.79647: AVG IPC :0.82279: L2-Pf-HR :0.85269: L2-HR :0.79754: (Sim:0h42m1s) 
CPU  0 inst:  115000000 cyc:  137646027 now IPC :1.84344: AVG IPC :0.82684: L2-Pf-HR :0.85327: L2-HR :0.79852: (Sim:0h42m22s) 
CPU  0 inst:  116000002 cyc:  138168337 now IPC :1.91458: AVG IPC :0.83099: L2-Pf-HR :0.85466: L2-HR :0.80011: (Sim:0h42m43s) 
CPU  0 inst:  117000003 cyc:  138677159 now IPC :1.96533: AVG IPC :0.83518: L2-Pf-HR :0.85623: L2-HR :0.80186: (Sim:0h43m4s) 
CPU  0 inst:  118000005 cyc:  139236289 now IPC :1.78850: AVG IPC :0.83903: L2-Pf-HR :0.85648: L2-HR :0.80256: (Sim:0h43m26s) 
CPU  0 inst:  119000004 cyc:  139785711 now IPC :1.82009: AVG IPC :0.84292: L2-Pf-HR :0.85698: L2-HR :0.80345: (Sim:0h43m47s) 
CPU  0 inst:  120000004 cyc:  140315122 now IPC :1.88889: AVG IPC :0.84689: L2-Pf-HR :0.85806: L2-HR :0.80478: (Sim:0h44m8s) 
CPU  0 inst:  121000003 cyc:  140823850 now IPC :1.96569: AVG IPC :0.85096: L2-Pf-HR :0.85949: L2-HR :0.80640: (Sim:0h44m29s) 
CPU  0 inst:  122000003 cyc:  141393162 now IPC :1.75651: AVG IPC :0.85463: L2-Pf-HR :0.85983: L2-HR :0.80714: (Sim:0h44m51s) 
Finished CPU 0 instr: 120000000 cyc: 140411286 AVG IPC: 0.85463 (Sim time: 0h44m51s)

ChampSim completed all CPUs

[ROI Statistics]
Core_0_instructions 120000000
Core_0_cycles 140411286
Core_0_IPC 0.85463

Core_0_branch_prediction_accuracy 99.19469
Core_0_branch_MPKI 0.24154
Core_0_average_ROB_occupancy_at_mispredict 442.91896

Core_0_L1D_total_access 61812406
Core_0_L1D_total_hit 59512437 L1D_total_Hit Ratio: 0.96279
Core_0_L1D_total_miss 2299969
Core_0_L1D_loads 34846662
Core_0_L1D_load_hit 34010197 L1D_load_Hit Ratio: 0.97600
Core_0_L1D_load_miss 836465
Core_0_L1D_RFOs 3281331
Core_0_L1D_RFO_hit 3120019 L1D_RFO_Hit Ratio: 0.95084
Core_0_L1D_RFO_miss 161312
Core_0_L1D_prefetches 23684413
Core_0_L1D_prefetch_hit 22382221 L1D_prefetch_Hit Ratio: 0.94502
Core_0_L1D_prefetch_miss 1302192
Core_0_L1D_writebacks 0
Core_0_L1D_writeback_hit 0 L1D_writeback_Hit Ratio: -nan
Core_0_L1D_writeback_miss 0
Core_0_L1D_prefetch_requested 66997346
Core_0_L1D_prefetch_issued 33091571
Core_0_L1D_prefetch_useful 1221088 L1D_Useful Ratio: 0.03690
Core_0_L1D_prefetch_useless 97431
Core_0_L1D_prefetch_late 119138
Core_0_L1D_average_miss_latency 2525518.39727

Core_0_L1I_total_access 18465610
Core_0_L1I_total_hit 18463651 L1I_total_Hit Ratio: 0.99989
Core_0_L1I_total_miss 1959
Core_0_L1I_loads 18465610
Core_0_L1I_load_hit 18463651 L1I_load_Hit Ratio: 0.99989
Core_0_L1I_load_miss 1959
Core_0_L1I_RFOs 0
Core_0_L1I_RFO_hit 0 L1I_RFO_Hit Ratio: -nan
Core_0_L1I_RFO_miss 0
Core_0_L1I_prefetches 0
Core_0_L1I_prefetch_hit 0 L1I_prefetch_Hit Ratio: -nan
Core_0_L1I_prefetch_miss 0
Core_0_L1I_writebacks 0
Core_0_L1I_writeback_hit 0 L1I_writeback_Hit Ratio: -nan
Core_0_L1I_writeback_miss 0
Core_0_L1I_prefetch_requested 0
Core_0_L1I_prefetch_issued 0
Core_0_L1I_prefetch_useful 0 L1I_Useful Ratio: -nan
Core_0_L1I_prefetch_useless 0
Core_0_L1I_prefetch_late 0
Core_0_L1I_average_miss_latency 258.40786

Core_0_L2C_total_access 5506893
Core_0_L2C_total_hit 4444840 L2C_total_Hit Ratio: 0.80714
Core_0_L2C_total_miss 1062053
Core_0_L2C_loads 719374
Core_0_L2C_load_hit 349465 L2C_load_Hit Ratio: 0.48579
Core_0_L2C_load_miss 369909
Core_0_L2C_RFOs 161306
Core_0_L2C_RFO_hit 13348 L2C_RFO_Hit Ratio: 0.08275
Core_0_L2C_RFO_miss 147958
Core_0_L2C_prefetches 3882211
Core_0_L2C_prefetch_hit 3338032 L2C_prefetch_Hit Ratio: 0.85983
Core_0_L2C_prefetch_miss 544179
Core_0_L2C_writebacks 744002
Core_0_L2C_writeback_hit 743995 L2C_writeback_Hit Ratio: 0.99999
Core_0_L2C_writeback_miss 7
Core_0_L2C_prefetch_requested 5067526
Core_0_L2C_prefetch_issued 4906173
Core_0_L2C_prefetch_useful 61936 L2C_Useful Ratio: 0.01262
Core_0_L2C_prefetch_useless 436484
Core_0_L2C_prefetch_late 138733
Core_0_L2C_average_miss_latency 316.51184

Core_0_LLC_total_access 1672613
Core_0_LLC_total_hit 606942 LLC_total_Hit Ratio: 0.36287
Core_0_LLC_total_miss 1065671
Core_0_LLC_loads 231247
Core_0_LLC_load_hit 0 LLC_load_Hit Ratio: 0.00000
Core_0_LLC_load_miss 231247
Core_0_LLC_RFOs 147955
Core_0_LLC_RFO_hit 2 LLC_RFO_Hit Ratio: 0.00001
Core_0_LLC_RFO_miss 147953
Core_0_LLC_prefetches 682844
Core_0_LLC_prefetch_hit 31 LLC_prefetch_Hit Ratio: 0.00005
Core_0_LLC_prefetch_miss 682813
Core_0_LLC_writebacks 610567
Core_0_LLC_writeback_hit 606909 LLC_writeback_Hit Ratio: 0.99401
Core_0_LLC_writeback_miss 3658
Core_0_LLC_prefetch_requested 0
Core_0_LLC_prefetch_issued 0
Core_0_LLC_prefetch_useful 1 LLC_Useful Ratio: inf
Core_0_LLC_prefetch_useless 571829
Core_0_LLC_prefetch_late 0
Core_0_LLC_average_miss_latency 291.92862

Core_0_major_page_fault 0
Core_0_minor_page_fault 8629


Channel_0_RQ_row_buffer_hit 555491
Channel_0_RQ_row_buffer_miss 506522
Channel_0_WQ_row_buffer_hit 213126
Channel_0_WQ_row_buffer_miss 391288
Channel_0_WQ_full 2275
Channel_0_dbus_congested 854942

avg_congested_cycle 8

EzSearch AVG IPC :0.85463: L2-Pf-HR :0.85983 : L2-HR :0.80714 Uful:0.01262
     > Finished combination: TraceType=770-tot Sim:120000000 Prefetcher=L2ipcp L1=ipcp
