TRACE: [496000000][OPT-125M]_[h12][s1024][d64] Warmup: 2000000 NumTraces: 496000000
L1:isb_ideal:L2:isb_ideal
*************************************************
   ChampSim Multicore Out-of-Order Simulator
   Last compiled: Oct 30 2024 22:08:07
*************************************************

trace_0 770-tot_memTraces_v5/130-subBillion_s1024_LLM_Arch/memTraces[496000000][OPT-125M]_[h12][s1024][d64].champsim.9.xz
L1D: Ideal ISB Prefetching
Ideal ISB Prefetching
MAIN.cc ln 751 stats print skipped
CPU  0 inst:    1000002 cyc:     498151 now IPC :2.00743: AVG IPC :2.00743: L2-Pf-HR :1.00000: L2-HR :0.87761: (Sim:0h0m20s) 
CPU  0 inst:    2000000 cyc:     981140 now IPC :2.07044: AVG IPC :2.03844: L2-Pf-HR :1.00000: L2-HR :0.91047: (Sim:0h0m41s) 

Warmup complete CPU  0 instructions:    2000002 cycles:     981141 (Simulation time: 0 hr 0 min 41 sec) 

CPU  0 inst:    3000001 cyc:    1619902 now IPC :1.56553: AVG IPC :1.56553: L2-Pf-HR :1.00000: L2-HR :0.93978: (Sim:0h0m59s) 
CPU  0 inst:    4000000 cyc:    2260264 now IPC :1.56162: AVG IPC :1.56357: L2-Pf-HR :1.00000: L2-HR :0.93905: (Sim:0h1m18s) 
CPU  0 inst:    5000000 cyc:    2898087 now IPC :1.56783: AVG IPC :1.56499: L2-Pf-HR :1.00000: L2-HR :0.93962: (Sim:0h1m36s) 
CPU  0 inst:    6000005 cyc:    3538295 now IPC :1.56200: AVG IPC :1.56424: L2-Pf-HR :1.00000: L2-HR :0.93942: (Sim:0h1m46s) 
CPU  0 inst:    7000005 cyc:    4212310 now IPC :1.48365: AVG IPC :1.54743: L2-Pf-HR :1.00000: L2-HR :0.93964: (Sim:0h1m55s) 
CPU  0 inst:    8000004 cyc:    4820333 now IPC :1.64467: AVG IPC :1.56283: L2-Pf-HR :1.00000: L2-HR :0.94184: (Sim:0h2m3s) 
CPU  0 inst:    9000005 cyc:    5428350 now IPC :1.64469: AVG IPC :1.57402: L2-Pf-HR :1.00000: L2-HR :0.94353: (Sim:0h2m12s) 
CPU  0 inst:   10000000 cyc:    6036216 now IPC :1.64509: AVG IPC :1.58257: L2-Pf-HR :1.00000: L2-HR :0.94473: (Sim:0h2m20s) 
CPU  0 inst:   11000000 cyc:    6643259 now IPC :1.64733: AVG IPC :1.58951: L2-Pf-HR :1.00000: L2-HR :0.94602: (Sim:0h2m29s) 
CPU  0 inst:   12000003 cyc:    7251754 now IPC :1.64340: AVG IPC :1.59474: L2-Pf-HR :1.00000: L2-HR :0.94670: (Sim:0h2m37s) 
CPU  0 inst:   13000005 cyc:    7895297 now IPC :1.55390: AVG IPC :1.59094: L2-Pf-HR :1.00000: L2-HR :0.94576: (Sim:0h2m49s) 
CPU  0 inst:   14000002 cyc:    8497935 now IPC :1.65937: AVG IPC :1.59643: L2-Pf-HR :1.00000: L2-HR :0.94560: (Sim:0h3m1s) 
CPU  0 inst:   15000003 cyc:    9101093 now IPC :1.65794: AVG IPC :1.60099: L2-Pf-HR :1.00000: L2-HR :0.94610: (Sim:0h3m20s) 
CPU  0 inst:   16000003 cyc:    9704469 now IPC :1.65734: AVG IPC :1.60489: L2-Pf-HR :1.00000: L2-HR :0.94661: (Sim:0h3m38s) 
CPU  0 inst:   17000005 cyc:   10385771 now IPC :1.46778: AVG IPC :1.59496: L2-Pf-HR :1.00000: L2-HR :0.94569: (Sim:0h3m57s) 
CPU  0 inst:   18000000 cyc:   11005869 now IPC :1.61264: AVG IPC :1.59605: L2-Pf-HR :1.00000: L2-HR :0.94581: (Sim:0h4m15s) 
CPU  0 inst:   19000005 cyc:   11625927 now IPC :1.61276: AVG IPC :1.59703: L2-Pf-HR :1.00000: L2-HR :0.94575: (Sim:0h4m34s) 
CPU  0 inst:   20000003 cyc:   12245467 now IPC :1.61410: AVG IPC :1.59797: L2-Pf-HR :1.00000: L2-HR :0.94589: (Sim:0h4m52s) 
CPU  0 inst:   21000001 cyc:   12864858 now IPC :1.61449: AVG IPC :1.59883: L2-Pf-HR :1.00000: L2-HR :0.94592: (Sim:0h5m11s) 
CPU  0 inst:   22000001 cyc:   13484563 now IPC :1.61367: AVG IPC :1.59956: L2-Pf-HR :1.00000: L2-HR :0.94602: (Sim:0h5m29s) 
CPU  0 inst:   23000003 cyc:   14173063 now IPC :1.45244: AVG IPC :1.59188: L2-Pf-HR :1.00000: L2-HR :0.94577: (Sim:0h5m48s) 
CPU  0 inst:   24000003 cyc:   14804346 now IPC :1.58408: AVG IPC :1.59153: L2-Pf-HR :1.00000: L2-HR :0.94610: (Sim:0h6m6s) 
CPU  0 inst:   25000003 cyc:   15437520 now IPC :1.57934: AVG IPC :1.59099: L2-Pf-HR :1.00000: L2-HR :0.94636: (Sim:0h6m25s) 
CPU  0 inst:   26000003 cyc:   16068029 now IPC :1.58602: AVG IPC :1.59079: L2-Pf-HR :1.00000: L2-HR :0.94674: (Sim:0h6m39s) 
CPU  0 inst:   27000004 cyc:   16695247 now IPC :1.59434: AVG IPC :1.59093: L2-Pf-HR :1.00000: L2-HR :0.94696: (Sim:0h6m56s) 
CPU  0 inst:   28000000 cyc:   17320672 now IPC :1.59891: AVG IPC :1.59123: L2-Pf-HR :1.00000: L2-HR :0.94730: (Sim:0h7m7s) 
CPU  0 inst:   29000005 cyc:   18005299 now IPC :1.46066: AVG IPC :1.58598: L2-Pf-HR :1.00000: L2-HR :0.94685: (Sim:0h7m22s) 
CPU  0 inst:   30000000 cyc:   18654284 now IPC :1.54086: AVG IPC :1.58432: L2-Pf-HR :1.00000: L2-HR :0.94680: (Sim:0h7m38s) 
CPU  0 inst:   31000001 cyc:   19300160 now IPC :1.54829: AVG IPC :1.58305: L2-Pf-HR :1.00000: L2-HR :0.94694: (Sim:0h7m57s) 
CPU  0 inst:   32000004 cyc:   19947305 now IPC :1.54525: AVG IPC :1.58176: L2-Pf-HR :1.00000: L2-HR :0.94710: (Sim:0h8m16s) 
CPU  0 inst:   33000003 cyc:   20700497 now IPC :1.32768: AVG IPC :1.57206: L2-Pf-HR :1.00000: L2-HR :0.94674: (Sim:0h8m36s) 
CPU  0 inst:   34000000 cyc:   21386038 now IPC :1.45870: AVG IPC :1.56825: L2-Pf-HR :1.00000: L2-HR :0.94667: (Sim:0h8m55s) 
CPU  0 inst:   35000005 cyc:   22070411 now IPC :1.46120: AVG IPC :1.56478: L2-Pf-HR :1.00000: L2-HR :0.94668: (Sim:0h9m15s) 
CPU  0 inst:   36000002 cyc:   22756497 now IPC :1.45754: AVG IPC :1.56140: L2-Pf-HR :1.00000: L2-HR :0.94666: (Sim:0h9m34s) 
CPU  0 inst:   37000004 cyc:   23440029 now IPC :1.46299: AVG IPC :1.55840: L2-Pf-HR :1.00000: L2-HR :0.94670: (Sim:0h9m50s) 
CPU  0 inst:   38000005 cyc:   24125830 now IPC :1.45815: AVG IPC :1.55543: L2-Pf-HR :1.00000: L2-HR :0.94669: (Sim:0h10m7s) 
CPU  0 inst:   39000003 cyc:   24872271 now IPC :1.33969: AVG IPC :1.54869: L2-Pf-HR :1.00000: L2-HR :0.94651: (Sim:0h10m28s) 
CPU  0 inst:   40000001 cyc:   25526861 now IPC :1.52767: AVG IPC :1.54813: L2-Pf-HR :1.00000: L2-HR :0.94667: (Sim:0h10m46s) 
CPU  0 inst:   41000001 cyc:   26183375 now IPC :1.52320: AVG IPC :1.54748: L2-Pf-HR :1.00000: L2-HR :0.94685: (Sim:0h11m5s) 
CPU  0 inst:   42000001 cyc:   26840495 now IPC :1.52179: AVG IPC :1.54683: L2-Pf-HR :1.00000: L2-HR :0.94697: (Sim:0h11m25s) 
CPU  0 inst:   43000005 cyc:   27494435 now IPC :1.52920: AVG IPC :1.54639: L2-Pf-HR :1.00000: L2-HR :0.94719: (Sim:0h11m42s) 
CPU  0 inst:   44000000 cyc:   28151707 now IPC :1.52143: AVG IPC :1.54579: L2-Pf-HR :1.00000: L2-HR :0.94731: (Sim:0h11m58s) 
CPU  0 inst:   45000000 cyc:   28869616 now IPC :1.39293: AVG IPC :1.54186: L2-Pf-HR :1.00000: L2-HR :0.94710: (Sim:0h12m18s) 
CPU  0 inst:   46000000 cyc:   29527216 now IPC :1.52068: AVG IPC :1.54137: L2-Pf-HR :1.00000: L2-HR :0.94705: (Sim:0h12m37s) 
CPU  0 inst:   47000000 cyc:   30186695 now IPC :1.51635: AVG IPC :1.54080: L2-Pf-HR :1.00000: L2-HR :0.94707: (Sim:0h12m55s) 
CPU  0 inst:   48000002 cyc:   30845883 now IPC :1.51702: AVG IPC :1.54028: L2-Pf-HR :1.00000: L2-HR :0.94719: (Sim:0h13m13s) 
CPU  0 inst:   49000003 cyc:   31602917 now IPC :1.32095: AVG IPC :1.53486: L2-Pf-HR :1.00000: L2-HR :0.94693: (Sim:0h13m33s) 
CPU  0 inst:   50000004 cyc:   32284499 now IPC :1.46718: AVG IPC :1.53338: L2-Pf-HR :1.00000: L2-HR :0.94692: (Sim:0h13m52s) 
CPU  0 inst:   51000001 cyc:   32969082 now IPC :1.46074: AVG IPC :1.53183: L2-Pf-HR :1.00000: L2-HR :0.94688: (Sim:0h14m9s) 
CPU  0 inst:   52000003 cyc:   33653185 now IPC :1.46177: AVG IPC :1.53036: L2-Pf-HR :1.00000: L2-HR :0.94688: (Sim:0h14m28s) 
CPU  0 inst:   53000000 cyc:   34336026 now IPC :1.46447: AVG IPC :1.52901: L2-Pf-HR :1.00000: L2-HR :0.94688: (Sim:0h14m47s) 
CPU  0 inst:   54000002 cyc:   35019814 now IPC :1.46244: AVG IPC :1.52767: L2-Pf-HR :1.00000: L2-HR :0.94688: (Sim:0h15m6s) 
CPU  0 inst:   55000005 cyc:   35780205 now IPC :1.31512: AVG IPC :1.52303: L2-Pf-HR :1.00000: L2-HR :0.94672: (Sim:0h15m26s) 
CPU  0 inst:   56000001 cyc:   36450501 now IPC :1.49187: AVG IPC :1.52244: L2-Pf-HR :1.00000: L2-HR :0.94684: (Sim:0h15m45s) 
CPU  0 inst:   57000004 cyc:   37122045 now IPC :1.48911: AVG IPC :1.52182: L2-Pf-HR :1.00000: L2-HR :0.94692: (Sim:0h16m4s) 
CPU  0 inst:   58000005 cyc:   37794029 now IPC :1.48813: AVG IPC :1.52121: L2-Pf-HR :1.00000: L2-HR :0.94706: (Sim:0h16m24s) 
CPU  0 inst:   59000002 cyc:   38464774 now IPC :1.49088: AVG IPC :1.52066: L2-Pf-HR :1.00000: L2-HR :0.94714: (Sim:0h16m43s) 
CPU  0 inst:   60000003 cyc:   39134494 now IPC :1.49316: AVG IPC :1.52018: L2-Pf-HR :1.00000: L2-HR :0.94728: (Sim:0h17m2s) 
CPU  0 inst:   61000002 cyc:   39865486 now IPC :1.36800: AVG IPC :1.51732: L2-Pf-HR :1.00000: L2-HR :0.94717: (Sim:0h17m20s) 
CPU  0 inst:   62000002 cyc:   40537196 now IPC :1.48874: AVG IPC :1.51683: L2-Pf-HR :1.00000: L2-HR :0.94706: (Sim:0h17m39s) 
CPU  0 inst:   63000005 cyc:   41210822 now IPC :1.48451: AVG IPC :1.51629: L2-Pf-HR :1.00000: L2-HR :0.94707: (Sim:0h17m55s) 
CPU  0 inst:   64000005 cyc:   41882837 now IPC :1.48806: AVG IPC :1.51583: L2-Pf-HR :1.00000: L2-HR :0.94717: (Sim:0h18m13s) 
CPU  0 inst:   65000000 cyc:   42631670 now IPC :1.33540: AVG IPC :1.51259: L2-Pf-HR :1.00000: L2-HR :0.94699: (Sim:0h18m33s) 
CPU  0 inst:   66000001 cyc:   43313586 now IPC :1.46646: AVG IPC :1.51184: L2-Pf-HR :1.00000: L2-HR :0.94695: (Sim:0h18m52s) 
CPU  0 inst:   67000005 cyc:   43999011 now IPC :1.45895: AVG IPC :1.51100: L2-Pf-HR :1.00000: L2-HR :0.94694: (Sim:0h19m11s) 
CPU  0 inst:   68000003 cyc:   44687050 now IPC :1.45340: AVG IPC :1.51009: L2-Pf-HR :1.00000: L2-HR :0.94692: (Sim:0h19m31s) 
CPU  0 inst:   69000000 cyc:   45371582 now IPC :1.46085: AVG IPC :1.50933: L2-Pf-HR :1.00000: L2-HR :0.94692: (Sim:0h19m50s) 
CPU  0 inst:   70000001 cyc:   46060242 now IPC :1.45210: AVG IPC :1.50846: L2-Pf-HR :1.00000: L2-HR :0.94692: (Sim:0h20m10s) 
CPU  0 inst:   71000003 cyc:   46825591 now IPC :1.30660: AVG IPC :1.50509: L2-Pf-HR :1.00000: L2-HR :0.94678: (Sim:0h20m30s) 
CPU  0 inst:   72000004 cyc:   47489394 now IPC :1.50647: AVG IPC :1.50511: L2-Pf-HR :1.00000: L2-HR :0.94685: (Sim:0h20m50s) 
CPU  0 inst:   73000005 cyc:   48153138 now IPC :1.50661: AVG IPC :1.50513: L2-Pf-HR :1.00000: L2-HR :0.94695: (Sim:0h21m9s) 
CPU  0 inst:   74000005 cyc:   48819340 now IPC :1.50105: AVG IPC :1.50507: L2-Pf-HR :1.00000: L2-HR :0.94700: (Sim:0h21m25s) 
CPU  0 inst:   75000001 cyc:   49482112 now IPC :1.50881: AVG IPC :1.50512: L2-Pf-HR :1.00000: L2-HR :0.94711: (Sim:0h21m40s) 
CPU  0 inst:   76000005 cyc:   50144771 now IPC :1.50908: AVG IPC :1.50518: L2-Pf-HR :1.00000: L2-HR :0.94718: (Sim:0h21m53s) 
CPU  0 inst:   77000002 cyc:   50859889 now IPC :1.39837: AVG IPC :1.50365: L2-Pf-HR :1.00000: L2-HR :0.94714: (Sim:0h22m13s) 
CPU  0 inst:   78000004 cyc:   51529360 now IPC :1.49372: AVG IPC :1.50351: L2-Pf-HR :1.00000: L2-HR :0.94702: (Sim:0h22m30s) 
CPU  0 inst:   79000000 cyc:   52196858 now IPC :1.49813: AVG IPC :1.50344: L2-Pf-HR :1.00000: L2-HR :0.94702: (Sim:0h22m49s) 
CPU  0 inst:   80000003 cyc:   52863389 now IPC :1.50031: AVG IPC :1.50340: L2-Pf-HR :1.00000: L2-HR :0.94708: (Sim:0h23m8s) 
CPU  0 inst:   81000003 cyc:   53616798 now IPC :1.32730: AVG IPC :1.50088: L2-Pf-HR :1.00000: L2-HR :0.94694: (Sim:0h23m28s) 
CPU  0 inst:   82000000 cyc:   54303178 now IPC :1.45691: AVG IPC :1.50032: L2-Pf-HR :1.00000: L2-HR :0.94693: (Sim:0h23m47s) 
CPU  0 inst:   83000002 cyc:   54990864 now IPC :1.45415: AVG IPC :1.49973: L2-Pf-HR :1.00000: L2-HR :0.94690: (Sim:0h24m6s) 
CPU  0 inst:   84000000 cyc:   55679536 now IPC :1.45207: AVG IPC :1.49913: L2-Pf-HR :1.00000: L2-HR :0.94689: (Sim:0h24m26s) 
CPU  0 inst:   85000001 cyc:   56369821 now IPC :1.44868: AVG IPC :1.49850: L2-Pf-HR :1.00000: L2-HR :0.94688: (Sim:0h24m45s) 
CPU  0 inst:   86000004 cyc:   57060911 now IPC :1.44699: AVG IPC :1.49787: L2-Pf-HR :1.00000: L2-HR :0.94687: (Sim:0h25m4s) 
CPU  0 inst:   87000001 cyc:   57816035 now IPC :1.32428: AVG IPC :1.49556: L2-Pf-HR :1.00000: L2-HR :0.94675: (Sim:0h25m24s) 
CPU  0 inst:   88000001 cyc:   58509550 now IPC :1.44193: AVG IPC :1.49491: L2-Pf-HR :1.00000: L2-HR :0.94682: (Sim:0h25m43s) 
CPU  0 inst:   89000001 cyc:   59185894 now IPC :1.47854: AVG IPC :1.49472: L2-Pf-HR :1.00000: L2-HR :0.94686: (Sim:0h26m2s) 
CPU  0 inst:   90000005 cyc:   59862212 now IPC :1.47860: AVG IPC :1.49454: L2-Pf-HR :1.00000: L2-HR :0.94695: (Sim:0h26m20s) 
CPU  0 inst:   91000004 cyc:   60539772 now IPC :1.47588: AVG IPC :1.49433: L2-Pf-HR :1.00000: L2-HR :0.94699: (Sim:0h26m37s) 
CPU  0 inst:   92000005 cyc:   61214900 now IPC :1.48120: AVG IPC :1.49418: L2-Pf-HR :1.00000: L2-HR :0.94707: (Sim:0h26m56s) 
CPU  0 inst:   93000001 cyc:   61944822 now IPC :1.37000: AVG IPC :1.49269: L2-Pf-HR :1.00000: L2-HR :0.94705: (Sim:0h27m14s) 
CPU  0 inst:   94000005 cyc:   62616244 now IPC :1.48938: AVG IPC :1.49266: L2-Pf-HR :1.00000: L2-HR :0.94695: (Sim:0h27m33s) 
CPU  0 inst:   95000002 cyc:   63283471 now IPC :1.49874: AVG IPC :1.49272: L2-Pf-HR :1.00000: L2-HR :0.94693: (Sim:0h27m52s) 
CPU  0 inst:   96000003 cyc:   63948856 now IPC :1.50289: AVG IPC :1.49283: L2-Pf-HR :1.00000: L2-HR :0.94697: (Sim:0h28m11s) 
CPU  0 inst:   97000001 cyc:   64673925 now IPC :1.37918: AVG IPC :1.49153: L2-Pf-HR :1.00000: L2-HR :0.94687: (Sim:0h28m31s) 
CPU  0 inst:   98000001 cyc:   65378484 now IPC :1.41933: AVG IPC :1.49074: L2-Pf-HR :1.00000: L2-HR :0.94685: (Sim:0h28m50s) 
CPU  0 inst:   99000001 cyc:   66060317 now IPC :1.46663: AVG IPC :1.49049: L2-Pf-HR :1.00000: L2-HR :0.94683: (Sim:0h29m9s) 
CPU  0 inst:  100000003 cyc:   66742284 now IPC :1.46635: AVG IPC :1.49024: L2-Pf-HR :1.00000: L2-HR :0.94681: (Sim:0h29m28s) 
CPU  0 inst:  101000004 cyc:   67424861 now IPC :1.46504: AVG IPC :1.48998: L2-Pf-HR :1.00000: L2-HR :0.94680: (Sim:0h29m48s) 
CPU  0 inst:  102000002 cyc:   68105089 now IPC :1.47009: AVG IPC :1.48978: L2-Pf-HR :1.00000: L2-HR :0.94680: (Sim:0h30m7s) 
CPU  0 inst:  103000001 cyc:   68799367 now IPC :1.44034: AVG IPC :1.48928: L2-Pf-HR :1.00000: L2-HR :0.94683: (Sim:0h30m26s) 
CPU  0 inst:  104000005 cyc:   69532403 now IPC :1.36419: AVG IPC :1.48794: L2-Pf-HR :1.00000: L2-HR :0.94673: (Sim:0h30m47s) 
CPU  0 inst:  105000000 cyc:   70186193 now IPC :1.52954: AVG IPC :1.48833: L2-Pf-HR :1.00000: L2-HR :0.94679: (Sim:0h31m6s) 
CPU  0 inst:  106000003 cyc:   70840271 now IPC :1.52887: AVG IPC :1.48871: L2-Pf-HR :1.00000: L2-HR :0.94682: (Sim:0h31m26s) 
CPU  0 inst:  107000005 cyc:   71493525 now IPC :1.53080: AVG IPC :1.48910: L2-Pf-HR :1.00000: L2-HR :0.94689: (Sim:0h31m45s) 
CPU  0 inst:  108000000 cyc:   72147312 now IPC :1.52954: AVG IPC :1.48947: L2-Pf-HR :1.00000: L2-HR :0.94694: (Sim:0h32m4s) 
CPU  0 inst:  109000001 cyc:   72806477 now IPC :1.51707: AVG IPC :1.48972: L2-Pf-HR :1.00000: L2-HR :0.94702: (Sim:0h32m21s) 
CPU  0 inst:  110000000 cyc:   73526319 now IPC :1.38919: AVG IPC :1.48873: L2-Pf-HR :1.00000: L2-HR :0.94685: (Sim:0h32m40s) 
CPU  0 inst:  111000000 cyc:   74194929 now IPC :1.49564: AVG IPC :1.48879: L2-Pf-HR :1.00000: L2-HR :0.94681: (Sim:0h32m58s) 
CPU  0 inst:  112000000 cyc:   74862522 now IPC :1.49792: AVG IPC :1.48887: L2-Pf-HR :1.00000: L2-HR :0.94685: (Sim:0h33m15s) 
CPU  0 inst:  113000000 cyc:   75529754 now IPC :1.49873: AVG IPC :1.48896: L2-Pf-HR :1.00000: L2-HR :0.94690: (Sim:0h33m34s) 
CPU  0 inst:  114000001 cyc:   76302589 now IPC :1.29394: AVG IPC :1.48696: L2-Pf-HR :1.00000: L2-HR :0.94675: (Sim:0h33m54s) 
CPU  0 inst:  115000004 cyc:   76995430 now IPC :1.44334: AVG IPC :1.48656: L2-Pf-HR :1.00000: L2-HR :0.94673: (Sim:0h34m13s) 
CPU  0 inst:  116000001 cyc:   77689065 now IPC :1.44168: AVG IPC :1.48616: L2-Pf-HR :1.00000: L2-HR :0.94671: (Sim:0h34m31s) 
CPU  0 inst:  117000001 cyc:   78382597 now IPC :1.44189: AVG IPC :1.48576: L2-Pf-HR :1.00000: L2-HR :0.94671: (Sim:0h34m47s) 
CPU  0 inst:  118000001 cyc:   79078395 now IPC :1.43720: AVG IPC :1.48533: L2-Pf-HR :1.00000: L2-HR :0.94670: (Sim:0h35m7s) 
CPU  0 inst:  119000003 cyc:   79774086 now IPC :1.43742: AVG IPC :1.48490: L2-Pf-HR :1.00000: L2-HR :0.94670: (Sim:0h35m26s) 
CPU  0 inst:  120000000 cyc:   80528806 now IPC :1.32499: AVG IPC :1.48339: L2-Pf-HR :1.00000: L2-HR :0.94664: (Sim:0h35m46s) 
CPU  0 inst:  121000000 cyc:   81194447 now IPC :1.50231: AVG IPC :1.48354: L2-Pf-HR :1.00000: L2-HR :0.94667: (Sim:0h36m5s) 
CPU  0 inst:  122000001 cyc:   81857872 now IPC :1.50733: AVG IPC :1.48374: L2-Pf-HR :1.00000: L2-HR :0.94672: (Sim:0h36m24s) 
CPU  0 inst:  123000002 cyc:   82521618 now IPC :1.50660: AVG IPC :1.48393: L2-Pf-HR :1.00000: L2-HR :0.94676: (Sim:0h36m43s) 
CPU  0 inst:  124000003 cyc:   83185690 now IPC :1.50586: AVG IPC :1.48410: L2-Pf-HR :1.00000: L2-HR :0.94681: (Sim:0h37m2s) 
CPU  0 inst:  125000000 cyc:   83850020 now IPC :1.50527: AVG IPC :1.48427: L2-Pf-HR :1.00000: L2-HR :0.94685: (Sim:0h37m21s) 
CPU  0 inst:  126000003 cyc:   84575393 now IPC :1.37861: AVG IPC :1.48336: L2-Pf-HR :1.00000: L2-HR :0.94673: (Sim:0h37m41s) 
CPU  0 inst:  127000004 cyc:   85245091 now IPC :1.49321: AVG IPC :1.48343: L2-Pf-HR :1.00000: L2-HR :0.94670: (Sim:0h38m0s) 
CPU  0 inst:  128000005 cyc:   85914853 now IPC :1.49307: AVG IPC :1.48351: L2-Pf-HR :1.00000: L2-HR :0.94673: (Sim:0h38m20s) 
CPU  0 inst:  129000003 cyc:   86584198 now IPC :1.49399: AVG IPC :1.48359: L2-Pf-HR :1.00000: L2-HR :0.94675: (Sim:0h38m38s) 
CPU  0 inst:  130000004 cyc:   87352939 now IPC :1.30083: AVG IPC :1.48197: L2-Pf-HR :1.00000: L2-HR :0.94664: (Sim:0h38m56s) 
CPU  0 inst:  131000005 cyc:   88042917 now IPC :1.44932: AVG IPC :1.48171: L2-Pf-HR :1.00000: L2-HR :0.94662: (Sim:0h39m6s) 
CPU  0 inst:  132000003 cyc:   88734351 now IPC :1.44627: AVG IPC :1.48143: L2-Pf-HR :1.00000: L2-HR :0.94660: (Sim:0h39m18s) 
CPU  0 inst:  133000001 cyc:   89425066 now IPC :1.44777: AVG IPC :1.48116: L2-Pf-HR :1.00000: L2-HR :0.94659: (Sim:0h39m37s) 
CPU  0 inst:  134000002 cyc:   90116926 now IPC :1.44538: AVG IPC :1.48089: L2-Pf-HR :1.00000: L2-HR :0.94659: (Sim:0h39m56s) 
CPU  0 inst:  135000001 cyc:   90808630 now IPC :1.44570: AVG IPC :1.48062: L2-Pf-HR :1.00000: L2-HR :0.94657: (Sim:0h40m15s) 
CPU  0 inst:  136000003 cyc:   91564392 now IPC :1.32317: AVG IPC :1.47930: L2-Pf-HR :0.99999: L2-HR :0.94651: (Sim:0h40m36s) 
CPU  0 inst:  137000004 cyc:   92227710 now IPC :1.50757: AVG IPC :1.47951: L2-Pf-HR :0.99999: L2-HR :0.94656: (Sim:0h40m55s) 
CPU  0 inst:  138000004 cyc:   92892363 now IPC :1.50454: AVG IPC :1.47969: L2-Pf-HR :0.99999: L2-HR :0.94658: (Sim:0h41m14s) 
CPU  0 inst:  139000005 cyc:   93553295 now IPC :1.51302: AVG IPC :1.47993: L2-Pf-HR :0.99999: L2-HR :0.94662: (Sim:0h41m34s) 
CPU  0 inst:  140000005 cyc:   94215030 now IPC :1.51118: AVG IPC :1.48015: L2-Pf-HR :0.99999: L2-HR :0.94666: (Sim:0h41m54s) 
CPU  0 inst:  141000002 cyc:   94878704 now IPC :1.50676: AVG IPC :1.48034: L2-Pf-HR :0.99999: L2-HR :0.94669: (Sim:0h42m14s) 
CPU  0 inst:  142000001 cyc:   95600453 now IPC :1.38552: AVG IPC :1.47961: L2-Pf-HR :0.99999: L2-HR :0.94659: (Sim:0h42m33s) 
CPU  0 inst:  143000004 cyc:   96262959 now IPC :1.50942: AVG IPC :1.47982: L2-Pf-HR :0.99999: L2-HR :0.94657: (Sim:0h42m51s) 
CPU  0 inst:  144000005 cyc:   96927135 now IPC :1.50563: AVG IPC :1.48000: L2-Pf-HR :0.99999: L2-HR :0.94657: (Sim:0h43m10s) 
CPU  0 inst:  145000000 cyc:   97590401 now IPC :1.50768: AVG IPC :1.48019: L2-Pf-HR :0.99999: L2-HR :0.94660: (Sim:0h43m30s) 
CPU  0 inst:  146000001 cyc:   98347898 now IPC :1.32014: AVG IPC :1.47894: L2-Pf-HR :0.99999: L2-HR :0.94650: (Sim:0h43m50s) 
CPU  0 inst:  147000001 cyc:   99032684 now IPC :1.46031: AVG IPC :1.47881: L2-Pf-HR :0.99999: L2-HR :0.94649: (Sim:0h44m10s) 
CPU  0 inst:  148000000 cyc:   99719402 now IPC :1.45620: AVG IPC :1.47866: L2-Pf-HR :0.99999: L2-HR :0.94647: (Sim:0h44m29s) 
CPU  0 inst:  149000004 cyc:  100406092 now IPC :1.45627: AVG IPC :1.47850: L2-Pf-HR :0.99999: L2-HR :0.94646: (Sim:0h44m49s) 
CPU  0 inst:  150000005 cyc:  101093078 now IPC :1.45564: AVG IPC :1.47835: L2-Pf-HR :0.99999: L2-HR :0.94645: (Sim:0h45m6s) 
CPU  0 inst:  151000000 cyc:  101779318 now IPC :1.45721: AVG IPC :1.47820: L2-Pf-HR :0.99999: L2-HR :0.94645: (Sim:0h45m22s) 
CPU  0 inst:  152000004 cyc:  102542057 now IPC :1.31107: AVG IPC :1.47695: L2-Pf-HR :0.99999: L2-HR :0.94639: (Sim:0h45m42s) 
CPU  0 inst:  153000001 cyc:  103213238 now IPC :1.48991: AVG IPC :1.47703: L2-Pf-HR :0.99999: L2-HR :0.94641: (Sim:0h46m1s) 
CPU  0 inst:  154000003 cyc:  103883293 now IPC :1.49242: AVG IPC :1.47713: L2-Pf-HR :0.99999: L2-HR :0.94645: (Sim:0h46m20s) 
CPU  0 inst:  155000003 cyc:  104551591 now IPC :1.49634: AVG IPC :1.47726: L2-Pf-HR :0.99999: L2-HR :0.94647: (Sim:0h46m40s) 
CPU  0 inst:  156000003 cyc:  105219472 now IPC :1.49727: AVG IPC :1.47738: L2-Pf-HR :0.99999: L2-HR :0.94651: (Sim:0h46m59s) 
CPU  0 inst:  157000003 cyc:  105889232 now IPC :1.49307: AVG IPC :1.47748: L2-Pf-HR :0.99999: L2-HR :0.94654: (Sim:0h47m19s) 
CPU  0 inst:  158000000 cyc:  106619653 now IPC :1.36907: AVG IPC :1.47673: L2-Pf-HR :0.99999: L2-HR :0.94646: (Sim:0h47m39s) 
CPU  0 inst:  159000005 cyc:  107291564 now IPC :1.48830: AVG IPC :1.47681: L2-Pf-HR :0.99999: L2-HR :0.94643: (Sim:0h47m58s) 
CPU  0 inst:  160000003 cyc:  107964071 now IPC :1.48697: AVG IPC :1.47687: L2-Pf-HR :0.99999: L2-HR :0.94643: (Sim:0h48m17s) 
CPU  0 inst:  161000003 cyc:  108634788 now IPC :1.49094: AVG IPC :1.47696: L2-Pf-HR :0.99999: L2-HR :0.94646: (Sim:0h48m37s) 
CPU  0 inst:  162000004 cyc:  109390178 now IPC :1.32382: AVG IPC :1.47589: L2-Pf-HR :0.99999: L2-HR :0.94637: (Sim:0h48m57s) 
CPU  0 inst:  163000002 cyc:  110075082 now IPC :1.46006: AVG IPC :1.47579: L2-Pf-HR :0.99999: L2-HR :0.94635: (Sim:0h49m17s) 
CPU  0 inst:  164000002 cyc:  110758764 now IPC :1.46267: AVG IPC :1.47571: L2-Pf-HR :0.99999: L2-HR :0.94634: (Sim:0h49m36s) 
CPU  0 inst:  165000001 cyc:  111442330 now IPC :1.46292: AVG IPC :1.47563: L2-Pf-HR :0.99999: L2-HR :0.94632: (Sim:0h49m55s) 
CPU  0 inst:  166000002 cyc:  112126388 now IPC :1.46187: AVG IPC :1.47555: L2-Pf-HR :0.99999: L2-HR :0.94632: (Sim:0h50m14s) 
CPU  0 inst:  167000000 cyc:  112814013 now IPC :1.45428: AVG IPC :1.47542: L2-Pf-HR :0.99999: L2-HR :0.94631: (Sim:0h50m33s) 
CPU  0 inst:  168000003 cyc:  113576996 now IPC :1.31065: AVG IPC :1.47430: L2-Pf-HR :0.99999: L2-HR :0.94625: (Sim:0h50m53s) 
CPU  0 inst:  169000004 cyc:  114243573 now IPC :1.50020: AVG IPC :1.47445: L2-Pf-HR :0.99999: L2-HR :0.94629: (Sim:0h51m13s) 
CPU  0 inst:  170000004 cyc:  114911035 now IPC :1.49821: AVG IPC :1.47459: L2-Pf-HR :0.99999: L2-HR :0.94630: (Sim:0h51m32s) 
CPU  0 inst:  171000004 cyc:  115578165 now IPC :1.49896: AVG IPC :1.47473: L2-Pf-HR :0.99999: L2-HR :0.94633: (Sim:0h51m52s) 
CPU  0 inst:  172000004 cyc:  116244165 now IPC :1.50150: AVG IPC :1.47489: L2-Pf-HR :0.99999: L2-HR :0.94636: (Sim:0h52m11s) 
CPU  0 inst:  173000004 cyc:  116910410 now IPC :1.50095: AVG IPC :1.47504: L2-Pf-HR :0.99999: L2-HR :0.94639: (Sim:0h52m30s) 
CPU  0 inst:  174000001 cyc:  117633207 now IPC :1.38351: AVG IPC :1.47447: L2-Pf-HR :0.99999: L2-HR :0.94634: (Sim:0h52m50s) 
CPU  0 inst:  175000002 cyc:  118306905 now IPC :1.48435: AVG IPC :1.47453: L2-Pf-HR :0.99999: L2-HR :0.94629: (Sim:0h53m8s) 
CPU  0 inst:  176000001 cyc:  118978846 now IPC :1.48822: AVG IPC :1.47460: L2-Pf-HR :0.99999: L2-HR :0.94629: (Sim:0h53m27s) 
CPU  0 inst:  177000001 cyc:  119651350 now IPC :1.48698: AVG IPC :1.47468: L2-Pf-HR :0.99999: L2-HR :0.94631: (Sim:0h53m40s) 
CPU  0 inst:  178000001 cyc:  120412033 now IPC :1.31461: AVG IPC :1.47366: L2-Pf-HR :0.99999: L2-HR :0.94623: (Sim:0h53m52s) 
CPU  0 inst:  179000005 cyc:  121097872 now IPC :1.45807: AVG IPC :1.47357: L2-Pf-HR :0.99999: L2-HR :0.94622: (Sim:0h54m8s) 
CPU  0 inst:  180000000 cyc:  121786462 now IPC :1.45224: AVG IPC :1.47345: L2-Pf-HR :0.99999: L2-HR :0.94620: (Sim:0h54m24s) 
CPU  0 inst:  181000004 cyc:  122472972 now IPC :1.45665: AVG IPC :1.47335: L2-Pf-HR :0.99999: L2-HR :0.94619: (Sim:0h54m43s) 
CPU  0 inst:  182000002 cyc:  123161206 now IPC :1.45299: AVG IPC :1.47324: L2-Pf-HR :0.99999: L2-HR :0.94618: (Sim:0h55m2s) 
CPU  0 inst:  183000002 cyc:  123848620 now IPC :1.45473: AVG IPC :1.47313: L2-Pf-HR :0.99999: L2-HR :0.94618: (Sim:0h55m22s) 
CPU  0 inst:  184000004 cyc:  124597918 now IPC :1.33459: AVG IPC :1.47229: L2-Pf-HR :0.99999: L2-HR :0.94612: (Sim:0h55m42s) 
CPU  0 inst:  185000005 cyc:  125254764 now IPC :1.52243: AVG IPC :1.47256: L2-Pf-HR :0.99999: L2-HR :0.94613: (Sim:0h55m59s) 
CPU  0 inst:  186000004 cyc:  125910325 now IPC :1.52541: AVG IPC :1.47283: L2-Pf-HR :0.99999: L2-HR :0.94616: (Sim:0h56m16s) 
CPU  0 inst:  187000002 cyc:  126567225 now IPC :1.52230: AVG IPC :1.47309: L2-Pf-HR :0.99999: L2-HR :0.94618: (Sim:0h56m35s) 
CPU  0 inst:  188000002 cyc:  127222670 now IPC :1.52568: AVG IPC :1.47337: L2-Pf-HR :0.99999: L2-HR :0.94621: (Sim:0h56m54s) 
CPU  0 inst:  189000002 cyc:  127877663 now IPC :1.52673: AVG IPC :1.47364: L2-Pf-HR :0.99999: L2-HR :0.94624: (Sim:0h57m13s) 
CPU  0 inst:  190000003 cyc:  128592921 now IPC :1.39810: AVG IPC :1.47322: L2-Pf-HR :0.99999: L2-HR :0.94620: (Sim:0h57m33s) 
CPU  0 inst:  191000005 cyc:  129252962 now IPC :1.51506: AVG IPC :1.47343: L2-Pf-HR :0.99999: L2-HR :0.94615: (Sim:0h57m51s) 
CPU  0 inst:  192000000 cyc:  129914381 now IPC :1.51189: AVG IPC :1.47363: L2-Pf-HR :0.99999: L2-HR :0.94614: (Sim:0h58m10s) 
CPU  0 inst:  193000001 cyc:  130577069 now IPC :1.50901: AVG IPC :1.47381: L2-Pf-HR :0.99999: L2-HR :0.94615: (Sim:0h58m29s) 
CPU  0 inst:  194000004 cyc:  132386547 now IPC :0.55265: AVG IPC :1.46113: L2-Pf-HR :0.99999: L2-HR :0.94471: (Sim:0h58m50s) 
CPU  0 inst:  195000000 cyc:  137326708 now IPC :0.20242: AVG IPC :1.41552: L2-Pf-HR :0.99999: L2-HR :0.93875: (Sim:0h59m39s) 
CPU  0 inst:  196000002 cyc:  142485786 now IPC :0.19383: AVG IPC :1.37098: L2-Pf-HR :0.99999: L2-HR :0.93295: (Sim:1h0m39s) 
CPU  0 inst:  197000004 cyc:  147643433 now IPC :0.19389: AVG IPC :1.32959: L2-Pf-HR :0.99999: L2-HR :0.92730: (Sim:1h1m38s) 
CPU  0 inst:  198000003 cyc:  152803161 now IPC :0.19381: AVG IPC :1.29099: L2-Pf-HR :0.99999: L2-HR :0.92179: (Sim:1h2m37s) 
CPU  0 inst:  199000005 cyc:  157964267 now IPC :0.19376: AVG IPC :1.25491: L2-Pf-HR :0.99999: L2-HR :0.91643: (Sim:1h3m39s) 
CPU  0 inst:  200000001 cyc:  163125641 now IPC :0.19375: AVG IPC :1.22113: L2-Pf-HR :0.99999: L2-HR :0.91120: (Sim:1h4m40s) 
CPU  0 inst:  201000000 cyc:  168163885 now IPC :0.19848: AVG IPC :1.19031: L2-Pf-HR :0.99999: L2-HR :0.90674: (Sim:1h5m36s) 
CPU  0 inst:  202000000 cyc:  173249259 now IPC :0.19664: AVG IPC :1.16098: L2-Pf-HR :0.99999: L2-HR :0.90595: (Sim:1h6m18s) 
CPU  0 inst:  203000002 cyc:  178329114 now IPC :0.19686: AVG IPC :1.13337: L2-Pf-HR :0.99999: L2-HR :0.90516: (Sim:1h7m0s) 
CPU  0 inst:  204000005 cyc:  183409698 now IPC :0.19683: AVG IPC :1.10728: L2-Pf-HR :0.99999: L2-HR :0.90438: (Sim:1h7m42s) 
CPU  0 inst:  205000000 cyc:  188494991 now IPC :0.19664: AVG IPC :1.08259: L2-Pf-HR :0.99999: L2-HR :0.90359: (Sim:1h8m19s) 
CPU  0 inst:  206000000 cyc:  193580427 now IPC :0.19664: AVG IPC :1.05919: L2-Pf-HR :0.99999: L2-HR :0.90281: (Sim:1h9m0s) 
CPU  0 inst:  207000000 cyc:  198666032 now IPC :0.19663: AVG IPC :1.03700: L2-Pf-HR :0.99999: L2-HR :0.90202: (Sim:1h9m42s) 
CPU  0 inst:  208000004 cyc:  203715463 now IPC :0.19804: AVG IPC :1.01611: L2-Pf-HR :0.99999: L2-HR :0.90125: (Sim:1h10m24s) 
CPU  0 inst:  209000000 cyc:  208727141 now IPC :0.19953: AVG IPC :0.99641: L2-Pf-HR :0.99999: L2-HR :0.90047: (Sim:1h11m5s) 
CPU  0 inst:  210000001 cyc:  213498969 now IPC :0.20956: AVG IPC :0.97874: L2-Pf-HR :0.99999: L2-HR :0.89969: (Sim:1h11m45s) 
CPU  0 inst:  211000001 cyc:  218295060 now IPC :0.20850: AVG IPC :0.96174: L2-Pf-HR :0.99999: L2-HR :0.89892: (Sim:1h12m25s) 
CPU  0 inst:  212000004 cyc:  222963576 now IPC :0.21420: AVG IPC :0.94602: L2-Pf-HR :0.99999: L2-HR :0.89815: (Sim:1h13m5s) 
CPU  0 inst:  213000000 cyc:  227772515 now IPC :0.20795: AVG IPC :0.93037: L2-Pf-HR :0.99999: L2-HR :0.89738: (Sim:1h13m45s) 
CPU  0 inst:  214000000 cyc:  232393860 now IPC :0.21639: AVG IPC :0.91611: L2-Pf-HR :0.99999: L2-HR :0.89662: (Sim:1h14m25s) 
CPU  0 inst:  215000000 cyc:  237175097 now IPC :0.20915: AVG IPC :0.90180: L2-Pf-HR :0.99999: L2-HR :0.89585: (Sim:1h15m6s) 
CPU  0 inst:  216000000 cyc:  241945145 now IPC :0.20964: AVG IPC :0.88810: L2-Pf-HR :0.99999: L2-HR :0.89509: (Sim:1h15m46s) 
CPU  0 inst:  217000000 cyc:  246665764 now IPC :0.21184: AVG IPC :0.87511: L2-Pf-HR :0.99999: L2-HR :0.89433: (Sim:1h16m27s) 
CPU  0 inst:  218000001 cyc:  251465746 now IPC :0.20833: AVG IPC :0.86233: L2-Pf-HR :0.99999: L2-HR :0.89357: (Sim:1h17m7s) 
CPU  0 inst:  219000003 cyc:  256046144 now IPC :0.21832: AVG IPC :0.85076: L2-Pf-HR :0.99999: L2-HR :0.89281: (Sim:1h17m47s) 
CPU  0 inst:  220000000 cyc:  260597015 now IPC :0.21974: AVG IPC :0.83970: L2-Pf-HR :0.99999: L2-HR :0.89206: (Sim:1h18m11s) 
CPU  0 inst:  221000000 cyc:  265374067 now IPC :0.20933: AVG IPC :0.82831: L2-Pf-HR :0.99999: L2-HR :0.89131: (Sim:1h18m37s) 
CPU  0 inst:  222000000 cyc:  270000414 now IPC :0.21615: AVG IPC :0.81779: L2-Pf-HR :0.99999: L2-HR :0.89056: (Sim:1h19m19s) 
CPU  0 inst:  223000000 cyc:  274748621 now IPC :0.21061: AVG IPC :0.80725: L2-Pf-HR :0.99999: L2-HR :0.88981: (Sim:1h20m1s) 
CPU  0 inst:  224000000 cyc:  279530775 now IPC :0.20911: AVG IPC :0.79699: L2-Pf-HR :0.99999: L2-HR :0.88906: (Sim:1h20m44s) 
CPU  0 inst:  225000001 cyc:  284308717 now IPC :0.20930: AVG IPC :0.78707: L2-Pf-HR :0.99999: L2-HR :0.88832: (Sim:1h21m19s) 
CPU  0 inst:  226000005 cyc:  288949973 now IPC :0.21546: AVG IPC :0.77786: L2-Pf-HR :0.99999: L2-HR :0.88758: (Sim:1h21m57s) 
CPU  0 inst:  227000000 cyc:  293568808 now IPC :0.21650: AVG IPC :0.76900: L2-Pf-HR :0.99999: L2-HR :0.88684: (Sim:1h22m28s) 
CPU  0 inst:  228000000 cyc:  298378198 now IPC :0.20793: AVG IPC :0.75993: L2-Pf-HR :0.99999: L2-HR :0.88610: (Sim:1h23m7s) 
CPU  0 inst:  229000004 cyc:  303182410 now IPC :0.20815: AVG IPC :0.75116: L2-Pf-HR :0.99999: L2-HR :0.88536: (Sim:1h23m47s) 
CPU  0 inst:  230000000 cyc:  308025111 now IPC :0.20650: AVG IPC :0.74256: L2-Pf-HR :0.99999: L2-HR :0.88463: (Sim:1h24m28s) 
CPU  0 inst:  231000000 cyc:  312745507 now IPC :0.21185: AVG IPC :0.73453: L2-Pf-HR :0.99999: L2-HR :0.88390: (Sim:1h25m9s) 
CPU  0 inst:  232000000 cyc:  317515553 now IPC :0.20964: AVG IPC :0.72662: L2-Pf-HR :0.99999: L2-HR :0.88316: (Sim:1h25m50s) 
CPU  0 inst:  233000000 cyc:  322387189 now IPC :0.20527: AVG IPC :0.71872: L2-Pf-HR :0.99999: L2-HR :0.88244: (Sim:1h26m26s) 
CPU  0 inst:  234000003 cyc:  327289081 now IPC :0.20400: AVG IPC :0.71098: L2-Pf-HR :0.99999: L2-HR :0.88171: (Sim:1h26m55s) 
CPU  0 inst:  235000000 cyc:  332010451 now IPC :0.21180: AVG IPC :0.70387: L2-Pf-HR :0.99999: L2-HR :0.88099: (Sim:1h27m35s) 
CPU  0 inst:  236000000 cyc:  336792966 now IPC :0.20910: AVG IPC :0.69682: L2-Pf-HR :0.99999: L2-HR :0.88026: (Sim:1h28m14s) 
CPU  0 inst:  237000000 cyc:  341464118 now IPC :0.21408: AVG IPC :0.69020: L2-Pf-HR :0.99999: L2-HR :0.87954: (Sim:1h28m47s) 
CPU  0 inst:  238000000 cyc:  346097360 now IPC :0.21583: AVG IPC :0.68383: L2-Pf-HR :0.99999: L2-HR :0.87882: (Sim:1h29m26s) 
CPU  0 inst:  239000000 cyc:  350846176 now IPC :0.21058: AVG IPC :0.67740: L2-Pf-HR :0.99999: L2-HR :0.87811: (Sim:1h29m55s) 
CPU  0 inst:  240000000 cyc:  355463134 now IPC :0.21659: AVG IPC :0.67140: L2-Pf-HR :0.99999: L2-HR :0.87739: (Sim:1h30m34s) 
CPU  0 inst:  241000001 cyc:  360172393 now IPC :0.21235: AVG IPC :0.66538: L2-Pf-HR :0.99999: L2-HR :0.87668: (Sim:1h31m16s) 
CPU  0 inst:  242000000 cyc:  364994176 now IPC :0.20739: AVG IPC :0.65932: L2-Pf-HR :0.99999: L2-HR :0.87597: (Sim:1h31m58s) 
CPU  0 inst:  243000000 cyc:  369826823 now IPC :0.20693: AVG IPC :0.65339: L2-Pf-HR :0.99999: L2-HR :0.87526: (Sim:1h32m39s) 
CPU  0 inst:  244000000 cyc:  374388702 now IPC :0.21921: AVG IPC :0.64809: L2-Pf-HR :0.99999: L2-HR :0.87455: (Sim:1h33m16s) 
CPU  0 inst:  245000000 cyc:  379099265 now IPC :0.21229: AVG IPC :0.64266: L2-Pf-HR :0.99999: L2-HR :0.87384: (Sim:1h33m56s) 
CPU  0 inst:  246000004 cyc:  383825570 now IPC :0.21158: AVG IPC :0.63733: L2-Pf-HR :0.99999: L2-HR :0.87314: (Sim:1h34m35s) 
CPU  0 inst:  247000005 cyc:  388554218 now IPC :0.21148: AVG IPC :0.63214: L2-Pf-HR :0.99999: L2-HR :0.87244: (Sim:1h35m14s) 
CPU  0 inst:  248000002 cyc:  393227027 now IPC :0.21400: AVG IPC :0.62716: L2-Pf-HR :0.99999: L2-HR :0.87174: (Sim:1h35m54s) 
CPU  0 inst:  249000003 cyc:  397953634 now IPC :0.21157: AVG IPC :0.62221: L2-Pf-HR :0.99999: L2-HR :0.87104: (Sim:1h36m33s) 
CPU  0 inst:  250000004 cyc:  402675105 now IPC :0.21180: AVG IPC :0.61739: L2-Pf-HR :0.99999: L2-HR :0.87034: (Sim:1h37m12s) 
CPU  0 inst:  251000000 cyc:  407345387 now IPC :0.21412: AVG IPC :0.61275: L2-Pf-HR :0.99999: L2-HR :0.86965: (Sim:1h37m52s) 
CPU  0 inst:  252000000 cyc:  412105072 now IPC :0.21010: AVG IPC :0.60809: L2-Pf-HR :0.99999: L2-HR :0.86895: (Sim:1h38m31s) 
CPU  0 inst:  253000000 cyc:  416848196 now IPC :0.21083: AVG IPC :0.60356: L2-Pf-HR :0.99999: L2-HR :0.86826: (Sim:1h39m11s) 
CPU  0 inst:  254000000 cyc:  421503303 now IPC :0.21482: AVG IPC :0.59925: L2-Pf-HR :0.99999: L2-HR :0.86757: (Sim:1h39m44s) 
CPU  0 inst:  255000002 cyc:  426239749 now IPC :0.21113: AVG IPC :0.59493: L2-Pf-HR :0.99999: L2-HR :0.86689: (Sim:1h40m24s) 
CPU  0 inst:  256000001 cyc:  430896038 now IPC :0.21476: AVG IPC :0.59081: L2-Pf-HR :0.99999: L2-HR :0.86620: (Sim:1h41m4s) 
CPU  0 inst:  257000000 cyc:  435546243 now IPC :0.21504: AVG IPC :0.58679: L2-Pf-HR :0.99999: L2-HR :0.86552: (Sim:1h41m43s) 
CPU  0 inst:  258000000 cyc:  440289964 now IPC :0.21080: AVG IPC :0.58273: L2-Pf-HR :0.99999: L2-HR :0.86483: (Sim:1h42m24s) 
CPU  0 inst:  259000000 cyc:  444940689 now IPC :0.21502: AVG IPC :0.57888: L2-Pf-HR :0.99999: L2-HR :0.86415: (Sim:1h43m2s) 
CPU  0 inst:  260000000 cyc:  449711927 now IPC :0.20959: AVG IPC :0.57495: L2-Pf-HR :0.99999: L2-HR :0.86347: (Sim:1h43m42s) 
CPU  0 inst:  261000000 cyc:  454471393 now IPC :0.21011: AVG IPC :0.57113: L2-Pf-HR :0.99999: L2-HR :0.86280: (Sim:1h44m22s) 
CPU  0 inst:  262000001 cyc:  459292992 now IPC :0.20740: AVG IPC :0.56730: L2-Pf-HR :0.99999: L2-HR :0.86212: (Sim:1h45m2s) 
CPU  0 inst:  263000001 cyc:  463936810 now IPC :0.21534: AVG IPC :0.56377: L2-Pf-HR :0.99999: L2-HR :0.86145: (Sim:1h45m42s) 
CPU  0 inst:  264000003 cyc:  468670969 now IPC :0.21123: AVG IPC :0.56020: L2-Pf-HR :0.99999: L2-HR :0.86078: (Sim:1h46m22s) 
CPU  0 inst:  265000000 cyc:  473520492 now IPC :0.20621: AVG IPC :0.55657: L2-Pf-HR :0.99999: L2-HR :0.86011: (Sim:1h47m1s) 
CPU  0 inst:  266000000 cyc:  478158890 now IPC :0.21559: AVG IPC :0.55325: L2-Pf-HR :0.99999: L2-HR :0.85944: (Sim:1h47m39s) 
CPU  0 inst:  267000004 cyc:  482831080 now IPC :0.21403: AVG IPC :0.54996: L2-Pf-HR :0.99999: L2-HR :0.85877: (Sim:1h48m18s) 
CPU  0 inst:  268000000 cyc:  487590609 now IPC :0.21010: AVG IPC :0.54664: L2-Pf-HR :0.99999: L2-HR :0.85810: (Sim:1h48m58s) 
CPU  0 inst:  269000000 cyc:  492499615 now IPC :0.20371: AVG IPC :0.54321: L2-Pf-HR :0.99999: L2-HR :0.85744: (Sim:1h49m39s) 
CPU  0 inst:  270000001 cyc:  497318379 now IPC :0.20752: AVG IPC :0.53996: L2-Pf-HR :0.99999: L2-HR :0.85678: (Sim:1h50m20s) 
CPU  0 inst:  271000000 cyc:  502062836 now IPC :0.21077: AVG IPC :0.53684: L2-Pf-HR :0.99999: L2-HR :0.85612: (Sim:1h51m1s) 
CPU  0 inst:  272000000 cyc:  506729512 now IPC :0.21429: AVG IPC :0.53386: L2-Pf-HR :0.99999: L2-HR :0.85546: (Sim:1h51m41s) 
CPU  0 inst:  273000000 cyc:  511423862 now IPC :0.21302: AVG IPC :0.53091: L2-Pf-HR :0.99999: L2-HR :0.85480: (Sim:1h52m18s) 
CPU  0 inst:  274000000 cyc:  516144415 now IPC :0.21184: AVG IPC :0.52799: L2-Pf-HR :0.99999: L2-HR :0.85415: (Sim:1h52m58s) 
CPU  0 inst:  275000000 cyc:  520891914 now IPC :0.21064: AVG IPC :0.52509: L2-Pf-HR :0.99999: L2-HR :0.85349: (Sim:1h53m39s) 
CPU  0 inst:  276000000 cyc:  525651378 now IPC :0.21011: AVG IPC :0.52223: L2-Pf-HR :0.99999: L2-HR :0.85284: (Sim:1h54m19s) 
CPU  0 inst:  277000000 cyc:  530388677 now IPC :0.21109: AVG IPC :0.51945: L2-Pf-HR :0.99999: L2-HR :0.85219: (Sim:1h54m54s) 
CPU  0 inst:  278000001 cyc:  535128171 now IPC :0.21099: AVG IPC :0.51671: L2-Pf-HR :0.99999: L2-HR :0.85155: (Sim:1h55m34s) 
CPU  0 inst:  279000003 cyc:  539823611 now IPC :0.21297: AVG IPC :0.51406: L2-Pf-HR :0.99999: L2-HR :0.85090: (Sim:1h56m14s) 
CPU  0 inst:  280000000 cyc:  544583107 now IPC :0.21011: AVG IPC :0.51140: L2-Pf-HR :0.99999: L2-HR :0.85025: (Sim:1h56m54s) 
CPU  0 inst:  281000000 cyc:  549354622 now IPC :0.20958: AVG IPC :0.50878: L2-Pf-HR :0.99999: L2-HR :0.84961: (Sim:1h57m34s) 
CPU  0 inst:  282000000 cyc:  554055092 now IPC :0.21274: AVG IPC :0.50626: L2-Pf-HR :0.99999: L2-HR :0.84897: (Sim:1h58m11s) 
CPU  0 inst:  283000000 cyc:  558710013 now IPC :0.21483: AVG IPC :0.50383: L2-Pf-HR :0.99999: L2-HR :0.84832: (Sim:1h58m51s) 
CPU  0 inst:  284000004 cyc:  563537091 now IPC :0.20717: AVG IPC :0.50128: L2-Pf-HR :0.99999: L2-HR :0.84768: (Sim:1h59m20s) 
CPU  0 inst:  285000000 cyc:  568355375 now IPC :0.20754: AVG IPC :0.49879: L2-Pf-HR :0.99999: L2-HR :0.84705: (Sim:1h59m55s) 
CPU  0 inst:  286000003 cyc:  573051847 now IPC :0.21293: AVG IPC :0.49644: L2-Pf-HR :0.99999: L2-HR :0.84641: (Sim:2h0m23s) 
CPU  0 inst:  287000000 cyc:  577856807 now IPC :0.20812: AVG IPC :0.49404: L2-Pf-HR :0.99999: L2-HR :0.84578: (Sim:2h1m6s) 
CPU  0 inst:  288000004 cyc:  582533894 now IPC :0.21381: AVG IPC :0.49179: L2-Pf-HR :0.99999: L2-HR :0.84515: (Sim:2h1m48s) 
CPU  0 inst:  289000000 cyc:  587315293 now IPC :0.20914: AVG IPC :0.48948: L2-Pf-HR :0.99999: L2-HR :0.84451: (Sim:2h2m31s) 
CPU  0 inst:  290000000 cyc:  592053749 now IPC :0.21104: AVG IPC :0.48725: L2-Pf-HR :0.99999: L2-HR :0.84388: (Sim:2h3m13s) 
CPU  0 inst:  291000000 cyc:  596703362 now IPC :0.21507: AVG IPC :0.48513: L2-Pf-HR :0.99999: L2-HR :0.84326: (Sim:2h3m55s) 
CPU  0 inst:  292000000 cyc:  601375192 now IPC :0.21405: AVG IPC :0.48302: L2-Pf-HR :0.99999: L2-HR :0.84263: (Sim:2h4m38s) 
CPU  0 inst:  293000001 cyc:  606122651 now IPC :0.21064: AVG IPC :0.48088: L2-Pf-HR :0.99999: L2-HR :0.84201: (Sim:2h5m16s) 
CPU  0 inst:  294000001 cyc:  610875184 now IPC :0.21041: AVG IPC :0.47877: L2-Pf-HR :0.99999: L2-HR :0.84138: (Sim:2h5m56s) 
CPU  0 inst:  295000000 cyc:  615578854 now IPC :0.21260: AVG IPC :0.47673: L2-Pf-HR :0.99999: L2-HR :0.84076: (Sim:2h6m32s) 
CPU  0 inst:  296000000 cyc:  620393956 now IPC :0.20768: AVG IPC :0.47464: L2-Pf-HR :0.99999: L2-HR :0.84014: (Sim:2h7m14s) 
CPU  0 inst:  297000004 cyc:  622234610 now IPC :0.54329: AVG IPC :0.47485: L2-Pf-HR :0.99999: L2-HR :0.83995: (Sim:2h7m44s) 
CPU  0 inst:  298000002 cyc:  622939691 now IPC :1.41827: AVG IPC :0.47592: L2-Pf-HR :0.99999: L2-HR :0.84002: (Sim:2h8m10s) 
CPU  0 inst:  299000004 cyc:  623653873 now IPC :1.40021: AVG IPC :0.47698: L2-Pf-HR :0.99999: L2-HR :0.84009: (Sim:2h8m36s) 
CPU  0 inst:  300000000 cyc:  624379158 now IPC :1.37876: AVG IPC :0.47803: L2-Pf-HR :0.99999: L2-HR :0.84014: (Sim:2h9m0s) 
CPU  0 inst:  301000000 cyc:  625097990 now IPC :1.39115: AVG IPC :0.47908: L2-Pf-HR :0.99999: L2-HR :0.84020: (Sim:2h9m13s) 
CPU  0 inst:  302000002 cyc:  625762818 now IPC :1.50415: AVG IPC :0.48017: L2-Pf-HR :0.99999: L2-HR :0.84033: (Sim:2h9m26s) 
CPU  0 inst:  303000005 cyc:  626446236 now IPC :1.46324: AVG IPC :0.48124: L2-Pf-HR :0.99999: L2-HR :0.84044: (Sim:2h9m42s) 
CPU  0 inst:  304000000 cyc:  627120694 now IPC :1.48266: AVG IPC :0.48232: L2-Pf-HR :0.99999: L2-HR :0.84055: (Sim:2h9m58s) 
CPU  0 inst:  305000003 cyc:  627809175 now IPC :1.45248: AVG IPC :0.48339: L2-Pf-HR :0.99998: L2-HR :0.84067: (Sim:2h10m21s) 
CPU  0 inst:  306000005 cyc:  628485204 now IPC :1.47923: AVG IPC :0.48446: L2-Pf-HR :0.99998: L2-HR :0.84078: (Sim:2h10m46s) 
CPU  0 inst:  307000005 cyc:  629167432 now IPC :1.46579: AVG IPC :0.48552: L2-Pf-HR :0.99998: L2-HR :0.84089: (Sim:2h11m12s) 
CPU  0 inst:  308000005 cyc:  629836489 now IPC :1.49464: AVG IPC :0.48660: L2-Pf-HR :0.99998: L2-HR :0.84100: (Sim:2h11m38s) 
CPU  0 inst:  309000001 cyc:  630518855 now IPC :1.46548: AVG IPC :0.48766: L2-Pf-HR :0.99997: L2-HR :0.84111: (Sim:2h12m4s) 
CPU  0 inst:  310000000 cyc:  631192166 now IPC :1.48520: AVG IPC :0.48873: L2-Pf-HR :0.99996: L2-HR :0.84118: (Sim:2h12m30s) 
CPU  0 inst:  311000002 cyc:  631866229 now IPC :1.48354: AVG IPC :0.48979: L2-Pf-HR :0.99996: L2-HR :0.84126: (Sim:2h12m55s) 
CPU  0 inst:  312000003 cyc:  632524373 now IPC :1.51943: AVG IPC :0.49086: L2-Pf-HR :0.99996: L2-HR :0.84136: (Sim:2h13m20s) 
CPU  0 inst:  313000001 cyc:  633204461 now IPC :1.47039: AVG IPC :0.49191: L2-Pf-HR :0.99995: L2-HR :0.84144: (Sim:2h13m46s) 
CPU  0 inst:  314000000 cyc:  633950224 now IPC :1.34091: AVG IPC :0.49292: L2-Pf-HR :0.99995: L2-HR :0.84146: (Sim:2h14m11s) 
CPU  0 inst:  315000001 cyc:  634661233 now IPC :1.40645: AVG IPC :0.49394: L2-Pf-HR :0.99995: L2-HR :0.84152: (Sim:2h14m37s) 
CPU  0 inst:  316000000 cyc:  635366077 now IPC :1.41875: AVG IPC :0.49497: L2-Pf-HR :0.99995: L2-HR :0.84159: (Sim:2h15m2s) 
CPU  0 inst:  317000000 cyc:  636082554 now IPC :1.39572: AVG IPC :0.49598: L2-Pf-HR :0.99995: L2-HR :0.84164: (Sim:2h15m28s) 
CPU  0 inst:  318000001 cyc:  636778178 now IPC :1.43756: AVG IPC :0.49701: L2-Pf-HR :0.99994: L2-HR :0.84172: (Sim:2h15m53s) 
CPU  0 inst:  319000002 cyc:  637445552 now IPC :1.49841: AVG IPC :0.49806: L2-Pf-HR :0.99994: L2-HR :0.84184: (Sim:2h16m19s) 
CPU  0 inst:  320000001 cyc:  638103278 now IPC :1.52039: AVG IPC :0.49912: L2-Pf-HR :0.99994: L2-HR :0.84197: (Sim:2h16m44s) 
CPU  0 inst:  321000001 cyc:  638761102 now IPC :1.52016: AVG IPC :0.50017: L2-Pf-HR :0.99994: L2-HR :0.84209: (Sim:2h17m10s) 
CPU  0 inst:  322000003 cyc:  639460004 now IPC :1.43082: AVG IPC :0.50119: L2-Pf-HR :0.99993: L2-HR :0.84216: (Sim:2h17m36s) 
CPU  0 inst:  323000001 cyc:  640129112 now IPC :1.49452: AVG IPC :0.50223: L2-Pf-HR :0.99992: L2-HR :0.84227: (Sim:2h18m2s) 
CPU  0 inst:  324000000 cyc:  640790141 now IPC :1.51279: AVG IPC :0.50328: L2-Pf-HR :0.99992: L2-HR :0.84240: (Sim:2h18m28s) 
CPU  0 inst:  325000002 cyc:  641444936 now IPC :1.52720: AVG IPC :0.50432: L2-Pf-HR :0.99992: L2-HR :0.84252: (Sim:2h18m54s) 
CPU  0 inst:  326000002 cyc:  642147699 now IPC :1.42295: AVG IPC :0.50533: L2-Pf-HR :0.99990: L2-HR :0.84257: (Sim:2h19m20s) 
CPU  0 inst:  327000004 cyc:  642806317 now IPC :1.51833: AVG IPC :0.50637: L2-Pf-HR :0.99990: L2-HR :0.84265: (Sim:2h19m45s) 
CPU  0 inst:  328000002 cyc:  643466527 now IPC :1.51467: AVG IPC :0.50740: L2-Pf-HR :0.99990: L2-HR :0.84274: (Sim:2h20m9s) 
CPU  0 inst:  329000004 cyc:  644121471 now IPC :1.52685: AVG IPC :0.50844: L2-Pf-HR :0.99990: L2-HR :0.84283: (Sim:2h20m35s) 
CPU  0 inst:  330000005 cyc:  644819833 now IPC :1.43192: AVG IPC :0.50944: L2-Pf-HR :0.99989: L2-HR :0.84285: (Sim:2h21m0s) 
CPU  0 inst:  331000005 cyc:  645506756 now IPC :1.45577: AVG IPC :0.51045: L2-Pf-HR :0.99989: L2-HR :0.84292: (Sim:2h21m23s) 
CPU  0 inst:  332000005 cyc:  646194084 now IPC :1.45491: AVG IPC :0.51146: L2-Pf-HR :0.99989: L2-HR :0.84298: (Sim:2h21m50s) 
CPU  0 inst:  333000000 cyc:  646881173 now IPC :1.45541: AVG IPC :0.51246: L2-Pf-HR :0.99989: L2-HR :0.84305: (Sim:2h22m17s) 
CPU  0 inst:  334000001 cyc:  647588680 now IPC :1.41341: AVG IPC :0.51345: L2-Pf-HR :0.99989: L2-HR :0.84307: (Sim:2h22m40s) 
CPU  0 inst:  335000003 cyc:  648231944 now IPC :1.55457: AVG IPC :0.51448: L2-Pf-HR :0.99989: L2-HR :0.84319: (Sim:2h23m5s) 
CPU  0 inst:  336000005 cyc:  648872385 now IPC :1.56143: AVG IPC :0.51552: L2-Pf-HR :0.99989: L2-HR :0.84332: (Sim:2h23m30s) 
CPU  0 inst:  337000002 cyc:  649522350 now IPC :1.53854: AVG IPC :0.51654: L2-Pf-HR :0.99989: L2-HR :0.84343: (Sim:2h23m55s) 
CPU  0 inst:  338000004 cyc:  650174808 now IPC :1.53267: AVG IPC :0.51757: L2-Pf-HR :0.99989: L2-HR :0.84354: (Sim:2h24m18s) 
CPU  0 inst:  339000000 cyc:  650835671 now IPC :1.51317: AVG IPC :0.51858: L2-Pf-HR :0.99988: L2-HR :0.84364: (Sim:2h24m43s) 
CPU  0 inst:  340000005 cyc:  651483357 now IPC :1.54397: AVG IPC :0.51960: L2-Pf-HR :0.99988: L2-HR :0.84375: (Sim:2h25m8s) 
CPU  0 inst:  341000000 cyc:  652133847 now IPC :1.53729: AVG IPC :0.52062: L2-Pf-HR :0.99988: L2-HR :0.84385: (Sim:2h25m32s) 
CPU  0 inst:  342000003 cyc:  652789061 now IPC :1.52622: AVG IPC :0.52163: L2-Pf-HR :0.99988: L2-HR :0.84395: (Sim:2h25m57s) 
CPU  0 inst:  343000000 cyc:  653434498 now IPC :1.54933: AVG IPC :0.52264: L2-Pf-HR :0.99988: L2-HR :0.84404: (Sim:2h26m22s) 
CPU  0 inst:  344000005 cyc:  654075424 now IPC :1.56025: AVG IPC :0.52366: L2-Pf-HR :0.99988: L2-HR :0.84412: (Sim:2h26m47s) 
CPU  0 inst:  345000000 cyc:  654719817 now IPC :1.55184: AVG IPC :0.52467: L2-Pf-HR :0.99988: L2-HR :0.84420: (Sim:2h27m13s) 
CPU  0 inst:  346000001 cyc:  655363878 now IPC :1.55265: AVG IPC :0.52569: L2-Pf-HR :0.99987: L2-HR :0.84429: (Sim:2h27m39s) 
CPU  0 inst:  347000001 cyc:  656063194 now IPC :1.42997: AVG IPC :0.52665: L2-Pf-HR :0.99987: L2-HR :0.84432: (Sim:2h28m5s) 
CPU  0 inst:  348000004 cyc:  656756973 now IPC :1.44139: AVG IPC :0.52762: L2-Pf-HR :0.99987: L2-HR :0.84437: (Sim:2h28m30s) 
CPU  0 inst:  349000000 cyc:  657440939 now IPC :1.46206: AVG IPC :0.52859: L2-Pf-HR :0.99988: L2-HR :0.84443: (Sim:2h28m54s) 
CPU  0 inst:  350000002 cyc:  658131676 now IPC :1.44773: AVG IPC :0.52956: L2-Pf-HR :0.99988: L2-HR :0.84449: (Sim:2h29m15s) 
CPU  0 inst:  351000005 cyc:  658833296 now IPC :1.42528: AVG IPC :0.53051: L2-Pf-HR :0.99987: L2-HR :0.84452: (Sim:2h29m41s) 
CPU  0 inst:  352000002 cyc:  659471634 now IPC :1.56656: AVG IPC :0.53152: L2-Pf-HR :0.99987: L2-HR :0.84464: (Sim:2h30m6s) 
CPU  0 inst:  353000005 cyc:  660112382 now IPC :1.56068: AVG IPC :0.53252: L2-Pf-HR :0.99987: L2-HR :0.84476: (Sim:2h30m32s) 
CPU  0 inst:  354000003 cyc:  660761453 now IPC :1.54066: AVG IPC :0.53351: L2-Pf-HR :0.99987: L2-HR :0.84488: (Sim:2h30m57s) 
CPU  0 inst:  355000005 cyc:  661439944 now IPC :1.47386: AVG IPC :0.53448: L2-Pf-HR :0.99986: L2-HR :0.84494: (Sim:2h31m23s) 
CPU  0 inst:  356000004 cyc:  662084176 now IPC :1.55223: AVG IPC :0.53547: L2-Pf-HR :0.99986: L2-HR :0.84505: (Sim:2h31m48s) 
CPU  0 inst:  357000002 cyc:  662720883 now IPC :1.57058: AVG IPC :0.53646: L2-Pf-HR :0.99986: L2-HR :0.84517: (Sim:2h32m13s) 
CPU  0 inst:  358000003 cyc:  663369344 now IPC :1.54211: AVG IPC :0.53745: L2-Pf-HR :0.99986: L2-HR :0.84529: (Sim:2h32m39s) 
CPU  0 inst:  359000004 cyc:  664043639 now IPC :1.48303: AVG IPC :0.53841: L2-Pf-HR :0.99985: L2-HR :0.84535: (Sim:2h33m2s) 
CPU  0 inst:  360000005 cyc:  664686809 now IPC :1.55480: AVG IPC :0.53940: L2-Pf-HR :0.99985: L2-HR :0.84543: (Sim:2h33m23s) 
CPU  0 inst:  361000004 cyc:  665318095 now IPC :1.58407: AVG IPC :0.54039: L2-Pf-HR :0.99985: L2-HR :0.84551: (Sim:2h33m44s) 
CPU  0 inst:  362000002 cyc:  665958654 now IPC :1.56113: AVG IPC :0.54137: L2-Pf-HR :0.99985: L2-HR :0.84559: (Sim:2h34m7s) 
CPU  0 inst:  363000001 cyc:  666612732 now IPC :1.52887: AVG IPC :0.54234: L2-Pf-HR :0.99984: L2-HR :0.84565: (Sim:2h34m28s) 
CPU  0 inst:  364000001 cyc:  667321191 now IPC :1.41151: AVG IPC :0.54327: L2-Pf-HR :0.99984: L2-HR :0.84568: (Sim:2h34m53s) 
CPU  0 inst:  365000005 cyc:  668010178 now IPC :1.45141: AVG IPC :0.54420: L2-Pf-HR :0.99984: L2-HR :0.84573: (Sim:2h35m18s) 
CPU  0 inst:  366000004 cyc:  668696067 now IPC :1.45796: AVG IPC :0.54514: L2-Pf-HR :0.99984: L2-HR :0.84579: (Sim:2h35m43s) 
CPU  0 inst:  367000000 cyc:  669386895 now IPC :1.44753: AVG IPC :0.54608: L2-Pf-HR :0.99984: L2-HR :0.84585: (Sim:2h36m9s) 
CPU  0 inst:  368000001 cyc:  670064085 now IPC :1.47669: AVG IPC :0.54702: L2-Pf-HR :0.99984: L2-HR :0.84590: (Sim:2h36m34s) 
CPU  0 inst:  369000002 cyc:  670709749 now IPC :1.54879: AVG IPC :0.54798: L2-Pf-HR :0.99984: L2-HR :0.84601: (Sim:2h36m59s) 
CPU  0 inst:  370000000 cyc:  671361054 now IPC :1.53538: AVG IPC :0.54894: L2-Pf-HR :0.99984: L2-HR :0.84611: (Sim:2h37m22s) 
CPU  0 inst:  371000005 cyc:  672015866 now IPC :1.52716: AVG IPC :0.54990: L2-Pf-HR :0.99983: L2-HR :0.84620: (Sim:2h37m40s) 
CPU  0 inst:  372000002 cyc:  672675218 now IPC :1.51664: AVG IPC :0.55085: L2-Pf-HR :0.99983: L2-HR :0.84628: (Sim:2h38m6s) 
CPU  0 inst:  373000002 cyc:  673323069 now IPC :1.54356: AVG IPC :0.55180: L2-Pf-HR :0.99983: L2-HR :0.84639: (Sim:2h38m31s) 
CPU  0 inst:  374000000 cyc:  673980615 now IPC :1.52080: AVG IPC :0.55275: L2-Pf-HR :0.99983: L2-HR :0.84649: (Sim:2h38m57s) 
CPU  0 inst:  375000005 cyc:  674635611 now IPC :1.52673: AVG IPC :0.55370: L2-Pf-HR :0.99983: L2-HR :0.84657: (Sim:2h39m23s) 
CPU  0 inst:  376000000 cyc:  675283326 now IPC :1.54388: AVG IPC :0.55465: L2-Pf-HR :0.99982: L2-HR :0.84666: (Sim:2h39m48s) 
CPU  0 inst:  377000003 cyc:  675928079 now IPC :1.55099: AVG IPC :0.55560: L2-Pf-HR :0.99982: L2-HR :0.84673: (Sim:2h40m13s) 
CPU  0 inst:  378000001 cyc:  676573951 now IPC :1.54829: AVG IPC :0.55655: L2-Pf-HR :0.99982: L2-HR :0.84680: (Sim:2h40m35s) 
CPU  0 inst:  379000005 cyc:  677223127 now IPC :1.54042: AVG IPC :0.55749: L2-Pf-HR :0.99982: L2-HR :0.84687: (Sim:2h40m51s) 
CPU  0 inst:  380000001 cyc:  677885582 now IPC :1.50953: AVG IPC :0.55842: L2-Pf-HR :0.99981: L2-HR :0.84692: (Sim:2h41m12s) 
CPU  0 inst:  381000001 cyc:  678591302 now IPC :1.41699: AVG IPC :0.55932: L2-Pf-HR :0.99981: L2-HR :0.84695: (Sim:2h41m38s) 
CPU  0 inst:  382000005 cyc:  679289396 now IPC :1.43248: AVG IPC :0.56022: L2-Pf-HR :0.99981: L2-HR :0.84699: (Sim:2h42m4s) 
CPU  0 inst:  383000005 cyc:  679981041 now IPC :1.44583: AVG IPC :0.56112: L2-Pf-HR :0.99981: L2-HR :0.84704: (Sim:2h42m29s) 
CPU  0 inst:  384000005 cyc:  680679836 now IPC :1.43103: AVG IPC :0.56201: L2-Pf-HR :0.99981: L2-HR :0.84707: (Sim:2h42m55s) 
CPU  0 inst:  385000003 cyc:  681337832 now IPC :1.51976: AVG IPC :0.56294: L2-Pf-HR :0.99981: L2-HR :0.84716: (Sim:2h43m20s) 
CPU  0 inst:  386000002 cyc:  681983232 now IPC :1.54943: AVG IPC :0.56387: L2-Pf-HR :0.99981: L2-HR :0.84726: (Sim:2h43m44s) 
CPU  0 inst:  387000000 cyc:  682642039 now IPC :1.51789: AVG IPC :0.56480: L2-Pf-HR :0.99981: L2-HR :0.84737: (Sim:2h44m5s) 
CPU  0 inst:  388000001 cyc:  683297784 now IPC :1.52498: AVG IPC :0.56572: L2-Pf-HR :0.99981: L2-HR :0.84746: (Sim:2h44m32s) 
CPU  0 inst:  389000000 cyc:  683960572 now IPC :1.50878: AVG IPC :0.56663: L2-Pf-HR :0.99979: L2-HR :0.84753: (Sim:2h44m57s) 
CPU  0 inst:  390000001 cyc:  684604467 now IPC :1.55305: AVG IPC :0.56756: L2-Pf-HR :0.99979: L2-HR :0.84764: (Sim:2h45m22s) 
CPU  0 inst:  391000004 cyc:  685263492 now IPC :1.51740: AVG IPC :0.56848: L2-Pf-HR :0.99979: L2-HR :0.84774: (Sim:2h45m48s) 
CPU  0 inst:  392000004 cyc:  685906408 now IPC :1.55541: AVG IPC :0.56941: L2-Pf-HR :0.99979: L2-HR :0.84784: (Sim:2h46m14s) 
CPU  0 inst:  393000004 cyc:  686575067 now IPC :1.49553: AVG IPC :0.57031: L2-Pf-HR :0.99978: L2-HR :0.84787: (Sim:2h46m40s) 
CPU  0 inst:  394000000 cyc:  687207574 now IPC :1.58100: AVG IPC :0.57124: L2-Pf-HR :0.99978: L2-HR :0.84795: (Sim:2h47m5s) 
CPU  0 inst:  395000000 cyc:  687846215 now IPC :1.56582: AVG IPC :0.57216: L2-Pf-HR :0.99978: L2-HR :0.84802: (Sim:2h47m31s) 
CPU  0 inst:  396000001 cyc:  688492305 now IPC :1.54777: AVG IPC :0.57308: L2-Pf-HR :0.99978: L2-HR :0.84810: (Sim:2h47m57s) 
CPU  0 inst:  397000002 cyc:  689200018 now IPC :1.41300: AVG IPC :0.57395: L2-Pf-HR :0.99977: L2-HR :0.84810: (Sim:2h48m23s) 
CPU  0 inst:  398000000 cyc:  689891009 now IPC :1.44719: AVG IPC :0.57482: L2-Pf-HR :0.99977: L2-HR :0.84815: (Sim:2h48m49s) 
CPU  0 inst:  399000002 cyc:  690581247 now IPC :1.44878: AVG IPC :0.57570: L2-Pf-HR :0.99977: L2-HR :0.84820: (Sim:2h49m14s) 
CPU  0 inst:  400000005 cyc:  691270555 now IPC :1.45073: AVG IPC :0.57657: L2-Pf-HR :0.99977: L2-HR :0.84825: (Sim:2h49m36s) 
CPU  0 inst:  401000002 cyc:  691977431 now IPC :1.41467: AVG IPC :0.57743: L2-Pf-HR :0.99977: L2-HR :0.84826: (Sim:2h50m1s) 
CPU  0 inst:  402000005 cyc:  692626323 now IPC :1.54109: AVG IPC :0.57833: L2-Pf-HR :0.99977: L2-HR :0.84836: (Sim:2h50m26s) 
CPU  0 inst:  403000003 cyc:  693277609 now IPC :1.53542: AVG IPC :0.57923: L2-Pf-HR :0.99977: L2-HR :0.84846: (Sim:2h50m51s) 
CPU  0 inst:  404000003 cyc:  693928705 now IPC :1.53587: AVG IPC :0.58013: L2-Pf-HR :0.99977: L2-HR :0.84856: (Sim:2h51m16s) 
CPU  0 inst:  405000003 cyc:  694604918 now IPC :1.47882: AVG IPC :0.58101: L2-Pf-HR :0.99976: L2-HR :0.84862: (Sim:2h51m37s) 
CPU  0 inst:  406000005 cyc:  695254498 now IPC :1.53946: AVG IPC :0.58190: L2-Pf-HR :0.99976: L2-HR :0.84871: (Sim:2h51m56s) 
CPU  0 inst:  407000002 cyc:  695903501 now IPC :1.54082: AVG IPC :0.58280: L2-Pf-HR :0.99976: L2-HR :0.84881: (Sim:2h52m19s) 
CPU  0 inst:  408000003 cyc:  696566056 now IPC :1.50931: AVG IPC :0.58368: L2-Pf-HR :0.99976: L2-HR :0.84889: (Sim:2h52m45s) 
CPU  0 inst:  409000000 cyc:  697217510 now IPC :1.53502: AVG IPC :0.58457: L2-Pf-HR :0.99976: L2-HR :0.84899: (Sim:2h53m12s) 
CPU  0 inst:  410000001 cyc:  697880116 now IPC :1.50919: AVG IPC :0.58545: L2-Pf-HR :0.99975: L2-HR :0.84903: (Sim:2h53m37s) 
CPU  0 inst:  411000004 cyc:  698523949 now IPC :1.55320: AVG IPC :0.58634: L2-Pf-HR :0.99975: L2-HR :0.84910: (Sim:2h54m0s) 
CPU  0 inst:  412000001 cyc:  699175960 now IPC :1.53371: AVG IPC :0.58723: L2-Pf-HR :0.99975: L2-HR :0.84915: (Sim:2h54m25s) 
CPU  0 inst:  413000000 cyc:  699834971 now IPC :1.51742: AVG IPC :0.58811: L2-Pf-HR :0.99975: L2-HR :0.84921: (Sim:2h54m44s) 
CPU  0 inst:  414000000 cyc:  700527291 now IPC :1.44442: AVG IPC :0.58895: L2-Pf-HR :0.99974: L2-HR :0.84924: (Sim:2h55m7s) 
CPU  0 inst:  415000001 cyc:  701227179 now IPC :1.42880: AVG IPC :0.58979: L2-Pf-HR :0.99974: L2-HR :0.84927: (Sim:2h55m33s) 
CPU  0 inst:  416000000 cyc:  701920240 now IPC :1.44287: AVG IPC :0.59064: L2-Pf-HR :0.99974: L2-HR :0.84931: (Sim:2h55m56s) 
CPU  0 inst:  417000002 cyc:  702607775 now IPC :1.45447: AVG IPC :0.59148: L2-Pf-HR :0.99974: L2-HR :0.84935: (Sim:2h56m19s) 
CPU  0 inst:  418000002 cyc:  703288738 now IPC :1.46851: AVG IPC :0.59233: L2-Pf-HR :0.99974: L2-HR :0.84939: (Sim:2h56m46s) 
CPU  0 inst:  419000000 cyc:  703935193 now IPC :1.54690: AVG IPC :0.59321: L2-Pf-HR :0.99974: L2-HR :0.84947: (Sim:2h57m12s) 
CPU  0 inst:  420000000 cyc:  704580096 now IPC :1.55062: AVG IPC :0.59409: L2-Pf-HR :0.99974: L2-HR :0.84957: (Sim:2h57m38s) 
CPU  0 inst:  421000003 cyc:  705228071 now IPC :1.54327: AVG IPC :0.59496: L2-Pf-HR :0.99974: L2-HR :0.84966: (Sim:2h58m2s) 
CPU  0 inst:  422000005 cyc:  705907740 now IPC :1.47131: AVG IPC :0.59581: L2-Pf-HR :0.99973: L2-HR :0.84971: (Sim:2h58m28s) 
CPU  0 inst:  423000000 cyc:  706549124 now IPC :1.55912: AVG IPC :0.59668: L2-Pf-HR :0.99973: L2-HR :0.84980: (Sim:2h58m52s) 
CPU  0 inst:  424000005 cyc:  707190939 now IPC :1.55809: AVG IPC :0.59756: L2-Pf-HR :0.99973: L2-HR :0.84989: (Sim:2h59m18s) 
CPU  0 inst:  425000000 cyc:  707839247 now IPC :1.54247: AVG IPC :0.59842: L2-Pf-HR :0.99973: L2-HR :0.84999: (Sim:2h59m44s) 
CPU  0 inst:  426000002 cyc:  708517465 now IPC :1.47446: AVG IPC :0.59926: L2-Pf-HR :0.99973: L2-HR :0.85003: (Sim:3h0m9s) 
CPU  0 inst:  427000001 cyc:  709150461 now IPC :1.57979: AVG IPC :0.60014: L2-Pf-HR :0.99973: L2-HR :0.85010: (Sim:3h0m34s) 
CPU  0 inst:  428000004 cyc:  709783143 now IPC :1.58058: AVG IPC :0.60101: L2-Pf-HR :0.99973: L2-HR :0.85016: (Sim:3h1m0s) 
CPU  0 inst:  429000002 cyc:  710419185 now IPC :1.57222: AVG IPC :0.60188: L2-Pf-HR :0.99973: L2-HR :0.85023: (Sim:3h1m21s) 
CPU  0 inst:  430000003 cyc:  711099946 now IPC :1.46895: AVG IPC :0.60272: L2-Pf-HR :0.99972: L2-HR :0.85026: (Sim:3h1m46s) 
CPU  0 inst:  431000001 cyc:  711786115 now IPC :1.45736: AVG IPC :0.60354: L2-Pf-HR :0.99972: L2-HR :0.85029: (Sim:3h2m12s) 
CPU  0 inst:  432000001 cyc:  712465588 now IPC :1.47173: AVG IPC :0.60437: L2-Pf-HR :0.99972: L2-HR :0.85034: (Sim:3h2m38s) 
CPU  0 inst:  433000004 cyc:  713158617 now IPC :1.44295: AVG IPC :0.60519: L2-Pf-HR :0.99972: L2-HR :0.85038: (Sim:3h3m4s) 
CPU  0 inst:  434000002 cyc:  713869618 now IPC :1.40646: AVG IPC :0.60599: L2-Pf-HR :0.99972: L2-HR :0.85041: (Sim:3h3m30s) 
CPU  0 inst:  435000003 cyc:  714532318 now IPC :1.50898: AVG IPC :0.60682: L2-Pf-HR :0.99972: L2-HR :0.85047: (Sim:3h3m55s) 
CPU  0 inst:  436000002 cyc:  715174377 now IPC :1.55749: AVG IPC :0.60768: L2-Pf-HR :0.99972: L2-HR :0.85056: (Sim:3h4m20s) 
CPU  0 inst:  437000004 cyc:  715827786 now IPC :1.53044: AVG IPC :0.60852: L2-Pf-HR :0.99972: L2-HR :0.85065: (Sim:3h4m44s) 
CPU  0 inst:  438000002 cyc:  716483574 now IPC :1.52488: AVG IPC :0.60936: L2-Pf-HR :0.99972: L2-HR :0.85074: (Sim:3h5m10s) 
CPU  0 inst:  439000005 cyc:  717152514 now IPC :1.49491: AVG IPC :0.61019: L2-Pf-HR :0.99971: L2-HR :0.85079: (Sim:3h5m37s) 
CPU  0 inst:  440000005 cyc:  717794557 now IPC :1.55753: AVG IPC :0.61104: L2-Pf-HR :0.99971: L2-HR :0.85088: (Sim:3h6m3s) 
CPU  0 inst:  441000001 cyc:  718441259 now IPC :1.54630: AVG IPC :0.61188: L2-Pf-HR :0.99971: L2-HR :0.85097: (Sim:3h6m28s) 
CPU  0 inst:  442000001 cyc:  719104004 now IPC :1.50888: AVG IPC :0.61271: L2-Pf-HR :0.99971: L2-HR :0.85104: (Sim:3h6m54s) 
CPU  0 inst:  443000004 cyc:  719764595 now IPC :1.51380: AVG IPC :0.61354: L2-Pf-HR :0.99970: L2-HR :0.85109: (Sim:3h7m20s) 
CPU  0 inst:  444000000 cyc:  720395522 now IPC :1.58496: AVG IPC :0.61439: L2-Pf-HR :0.99970: L2-HR :0.85115: (Sim:3h7m46s) 
CPU  0 inst:  445000005 cyc:  721039685 now IPC :1.55241: AVG IPC :0.61523: L2-Pf-HR :0.99970: L2-HR :0.85120: (Sim:3h8m11s) 
CPU  0 inst:  446000000 cyc:  721699051 now IPC :1.51660: AVG IPC :0.61605: L2-Pf-HR :0.99970: L2-HR :0.85125: (Sim:3h8m37s) 
CPU  0 inst:  447000005 cyc:  722376074 now IPC :1.47706: AVG IPC :0.61686: L2-Pf-HR :0.99970: L2-HR :0.85128: (Sim:3h9m2s) 
CPU  0 inst:  448000005 cyc:  723082093 now IPC :1.41639: AVG IPC :0.61764: L2-Pf-HR :0.99970: L2-HR :0.85131: (Sim:3h9m23s) 
CPU  0 inst:  449000000 cyc:  723787870 now IPC :1.41687: AVG IPC :0.61842: L2-Pf-HR :0.99970: L2-HR :0.85133: (Sim:3h9m49s) 
CPU  0 inst:  450000004 cyc:  724483225 now IPC :1.43812: AVG IPC :0.61921: L2-Pf-HR :0.99970: L2-HR :0.85137: (Sim:3h10m15s) 
CPU  0 inst:  451000000 cyc:  725171270 now IPC :1.45339: AVG IPC :0.62000: L2-Pf-HR :0.99970: L2-HR :0.85140: (Sim:3h10m38s) 
CPU  0 inst:  452000003 cyc:  725835845 now IPC :1.50473: AVG IPC :0.62081: L2-Pf-HR :0.99970: L2-HR :0.85147: (Sim:3h10m53s) 
CPU  0 inst:  453000000 cyc:  726488053 now IPC :1.53325: AVG IPC :0.62163: L2-Pf-HR :0.99970: L2-HR :0.85155: (Sim:3h11m11s) 
CPU  0 inst:  454000002 cyc:  727136725 now IPC :1.54161: AVG IPC :0.62246: L2-Pf-HR :0.99970: L2-HR :0.85164: (Sim:3h11m35s) 
CPU  0 inst:  455000004 cyc:  727802302 now IPC :1.50246: AVG IPC :0.62326: L2-Pf-HR :0.99969: L2-HR :0.85170: (Sim:3h11m49s) 
CPU  0 inst:  456000000 cyc:  728466679 now IPC :1.50516: AVG IPC :0.62407: L2-Pf-HR :0.99968: L2-HR :0.85176: (Sim:3h12m5s) 
CPU  0 inst:  457000000 cyc:  729117392 now IPC :1.53678: AVG IPC :0.62488: L2-Pf-HR :0.99968: L2-HR :0.85185: (Sim:3h12m31s) 
CPU  0 inst:  458000005 cyc:  729762228 now IPC :1.55079: AVG IPC :0.62570: L2-Pf-HR :0.99968: L2-HR :0.85194: (Sim:3h12m56s) 
CPU  0 inst:  459000001 cyc:  730419625 now IPC :1.52114: AVG IPC :0.62651: L2-Pf-HR :0.99968: L2-HR :0.85200: (Sim:3h13m15s) 
CPU  0 inst:  460000001 cyc:  731082032 now IPC :1.50965: AVG IPC :0.62731: L2-Pf-HR :0.99967: L2-HR :0.85204: (Sim:3h13m29s) 
CPU  0 inst:  461000003 cyc:  731724532 now IPC :1.55642: AVG IPC :0.62813: L2-Pf-HR :0.99967: L2-HR :0.85210: (Sim:3h13m42s) 
CPU  0 inst:  462000000 cyc:  732362359 now IPC :1.56782: AVG IPC :0.62895: L2-Pf-HR :0.99967: L2-HR :0.85216: (Sim:3h14m7s) 
CPU  0 inst:  463000004 cyc:  733006067 now IPC :1.55351: AVG IPC :0.62976: L2-Pf-HR :0.99967: L2-HR :0.85222: (Sim:3h14m32s) 
CPU  0 inst:  464000003 cyc:  733724566 now IPC :1.39179: AVG IPC :0.63051: L2-Pf-HR :0.99966: L2-HR :0.85222: (Sim:3h14m57s) 
CPU  0 inst:  465000000 cyc:  734409127 now IPC :1.46079: AVG IPC :0.63128: L2-Pf-HR :0.99966: L2-HR :0.85226: (Sim:3h15m22s) 
CPU  0 inst:  466000002 cyc:  735094818 now IPC :1.45839: AVG IPC :0.63205: L2-Pf-HR :0.99966: L2-HR :0.85230: (Sim:3h15m48s) 
CPU  0 inst:  467000001 cyc:  735784329 now IPC :1.45030: AVG IPC :0.63282: L2-Pf-HR :0.99966: L2-HR :0.85234: (Sim:3h16m14s) 
CPU  0 inst:  468000005 cyc:  736485986 now IPC :1.42520: AVG IPC :0.63358: L2-Pf-HR :0.99966: L2-HR :0.85235: (Sim:3h16m39s) 
CPU  0 inst:  469000004 cyc:  737125317 now IPC :1.56413: AVG IPC :0.63439: L2-Pf-HR :0.99966: L2-HR :0.85243: (Sim:3h17m4s) 
CPU  0 inst:  470000005 cyc:  737771167 now IPC :1.54835: AVG IPC :0.63519: L2-Pf-HR :0.99966: L2-HR :0.85252: (Sim:3h17m29s) 
CPU  0 inst:  471000004 cyc:  738417842 now IPC :1.54637: AVG IPC :0.63599: L2-Pf-HR :0.99966: L2-HR :0.85260: (Sim:3h17m55s) 
CPU  0 inst:  472000001 cyc:  739102204 now IPC :1.46121: AVG IPC :0.63675: L2-Pf-HR :0.99965: L2-HR :0.85264: (Sim:3h18m20s) 
CPU  0 inst:  473000001 cyc:  739745250 now IPC :1.55510: AVG IPC :0.63755: L2-Pf-HR :0.99965: L2-HR :0.85273: (Sim:3h18m45s) 
CPU  0 inst:  474000000 cyc:  740387471 now IPC :1.55709: AVG IPC :0.63835: L2-Pf-HR :0.99965: L2-HR :0.85281: (Sim:3h19m10s) 
CPU  0 inst:  475000001 cyc:  741037524 now IPC :1.53834: AVG IPC :0.63914: L2-Pf-HR :0.99965: L2-HR :0.85289: (Sim:3h19m35s) 
CPU  0 inst:  476000001 cyc:  741719822 now IPC :1.46564: AVG IPC :0.63990: L2-Pf-HR :0.99965: L2-HR :0.85293: (Sim:3h20m1s) 
CPU  0 inst:  477000005 cyc:  742355843 now IPC :1.57228: AVG IPC :0.64070: L2-Pf-HR :0.99965: L2-HR :0.85299: (Sim:3h20m26s) 
CPU  0 inst:  478000000 cyc:  742988460 now IPC :1.58073: AVG IPC :0.64150: L2-Pf-HR :0.99964: L2-HR :0.85305: (Sim:3h20m52s) 
CPU  0 inst:  479000004 cyc:  743632687 now IPC :1.55225: AVG IPC :0.64229: L2-Pf-HR :0.99964: L2-HR :0.85310: (Sim:3h21m18s) 
CPU  0 inst:  480000000 cyc:  744290563 now IPC :1.52004: AVG IPC :0.64307: L2-Pf-HR :0.99964: L2-HR :0.85314: (Sim:3h21m44s) 
CPU  0 inst:  481000002 cyc:  745006278 now IPC :1.39721: AVG IPC :0.64380: L2-Pf-HR :0.99964: L2-HR :0.85316: (Sim:3h22m7s) 
CPU  0 inst:  482000001 cyc:  745704700 now IPC :1.43180: AVG IPC :0.64453: L2-Pf-HR :0.99964: L2-HR :0.85318: (Sim:3h22m20s) 
CPU  0 inst:  483000005 cyc:  746411577 now IPC :1.41468: AVG IPC :0.64526: L2-Pf-HR :0.99965: L2-HR :0.85320: (Sim:3h22m34s) 
CPU  0 inst:  484000002 cyc:  747111947 now IPC :1.42781: AVG IPC :0.64600: L2-Pf-HR :0.99965: L2-HR :0.85322: (Sim:3h22m47s) 
CPU  0 inst:  485000000 cyc:  747774384 now IPC :1.50957: AVG IPC :0.64677: L2-Pf-HR :0.99964: L2-HR :0.85328: (Sim:3h23m1s) 
CPU  0 inst:  486000002 cyc:  748431030 now IPC :1.52289: AVG IPC :0.64754: L2-Pf-HR :0.99964: L2-HR :0.85335: (Sim:3h23m15s) 
CPU  0 inst:  487000005 cyc:  749085009 now IPC :1.52911: AVG IPC :0.64831: L2-Pf-HR :0.99965: L2-HR :0.85342: (Sim:3h23m28s) 
CPU  0 inst:  488000003 cyc:  749732844 now IPC :1.54360: AVG IPC :0.64908: L2-Pf-HR :0.99964: L2-HR :0.85350: (Sim:3h23m41s) 
CPU  0 inst:  489000005 cyc:  750406614 now IPC :1.48419: AVG IPC :0.64983: L2-Pf-HR :0.99964: L2-HR :0.85355: (Sim:3h23m53s) 
CPU  0 inst:  490000002 cyc:  751061599 now IPC :1.52675: AVG IPC :0.65060: L2-Pf-HR :0.99964: L2-HR :0.85362: (Sim:3h24m5s) 
CPU  0 inst:  491000002 cyc:  751708633 now IPC :1.54551: AVG IPC :0.65137: L2-Pf-HR :0.99964: L2-HR :0.85370: (Sim:3h24m18s) 
CPU  0 inst:  492000005 cyc:  752355485 now IPC :1.54595: AVG IPC :0.65214: L2-Pf-HR :0.99963: L2-HR :0.85378: (Sim:3h24m31s) 
CPU  0 inst:  493000004 cyc:  753029760 now IPC :1.48307: AVG IPC :0.65288: L2-Pf-HR :0.99963: L2-HR :0.85380: (Sim:3h24m43s) 
Finished CPU 0 instr: 491000002 cyc: 752048619 AVG IPC: 0.65288 (Sim time: 3h24m43s)

ChampSim completed all CPUs

[ROI Statistics]
Core_0_instructions 491000002
Core_0_cycles 752048619
Core_0_IPC 0.65288

Core_0_branch_prediction_accuracy 99.58586
Core_0_branch_MPKI 0.12051
Core_0_average_ROB_occupancy_at_mispredict 569.03426

Core_0_L1D_total_access 153704731
Core_0_L1D_total_hit 143802874 L1D_total_Hit Ratio: 0.93558
Core_0_L1D_total_miss 9901857
Core_0_L1D_loads 140502147
Core_0_L1D_load_hit 131388021 L1D_load_Hit Ratio: 0.93513
Core_0_L1D_load_miss 9114126
Core_0_L1D_RFOs 12869801
Core_0_L1D_RFO_hit 12082070 L1D_RFO_Hit Ratio: 0.93879
Core_0_L1D_RFO_miss 787731
Core_0_L1D_prefetches 332783
Core_0_L1D_prefetch_hit 332783 L1D_prefetch_Hit Ratio: 1.00000
Core_0_L1D_prefetch_miss 0
Core_0_L1D_writebacks 0
Core_0_L1D_writeback_hit 0 L1D_writeback_Hit Ratio: -nan
Core_0_L1D_writeback_miss 0
Core_0_L1D_prefetch_requested 49001732
Core_0_L1D_prefetch_issued 19788726
Core_0_L1D_prefetch_useful 0 L1D_Useful Ratio: 0.00000
Core_0_L1D_prefetch_useless 0
Core_0_L1D_prefetch_late 0
Core_0_L1D_average_miss_latency 144.55459

Core_0_L1I_total_access 76693028
Core_0_L1I_total_hit 76691101 L1I_total_Hit Ratio: 0.99997
Core_0_L1I_total_miss 1927
Core_0_L1I_loads 76693028
Core_0_L1I_load_hit 76691101 L1I_load_Hit Ratio: 0.99997
Core_0_L1I_load_miss 1927
Core_0_L1I_RFOs 0
Core_0_L1I_RFO_hit 0 L1I_RFO_Hit Ratio: -nan
Core_0_L1I_RFO_miss 0
Core_0_L1I_prefetches 0
Core_0_L1I_prefetch_hit 0 L1I_prefetch_Hit Ratio: -nan
Core_0_L1I_prefetch_miss 0
Core_0_L1I_writebacks 0
Core_0_L1I_writeback_hit 0 L1I_writeback_Hit Ratio: -nan
Core_0_L1I_writeback_miss 0
Core_0_L1I_prefetch_requested 0
Core_0_L1I_prefetch_issued 0
Core_0_L1I_prefetch_useful 0 L1I_Useful Ratio: -nan
Core_0_L1I_prefetch_useless 0
Core_0_L1I_prefetch_late 0
Core_0_L1I_average_miss_latency 276.40685

Core_0_L2C_total_access 28450940
Core_0_L2C_total_hit 24291548 L2C_total_Hit Ratio: 0.85380
Core_0_L2C_total_miss 4159392
Core_0_L2C_loads 9116053
Core_0_L2C_load_hit 5749451 L2C_load_Hit Ratio: 0.63070
Core_0_L2C_load_miss 3366602
Core_0_L2C_RFOs 787731
Core_0_L2C_RFO_hit 775 L2C_RFO_Hit Ratio: 0.00098
Core_0_L2C_RFO_miss 786956
Core_0_L2C_prefetches 15648411
Core_0_L2C_prefetch_hit 15642584 L2C_prefetch_Hit Ratio: 0.99963
Core_0_L2C_prefetch_miss 5827
Core_0_L2C_writebacks 2898745
Core_0_L2C_writeback_hit 2898738 L2C_writeback_Hit Ratio: 1.00000
Core_0_L2C_writeback_miss 7
Core_0_L2C_prefetch_requested 12856614
Core_0_L2C_prefetch_issued 4697
Core_0_L2C_prefetch_useful 5763 L2C_Useful Ratio: 1.22695
Core_0_L2C_prefetch_useless 64
Core_0_L2C_prefetch_late 0
Core_0_L2C_average_miss_latency 298.33880

Core_0_LLC_total_access 6578241
Core_0_LLC_total_hit 2447725 LLC_total_Hit Ratio: 0.37209
Core_0_LLC_total_miss 4130516
Core_0_LLC_loads 3366602
Core_0_LLC_load_hit 42612 LLC_load_Hit Ratio: 0.01266
Core_0_LLC_load_miss 3323990
Core_0_LLC_RFOs 786956
Core_0_LLC_RFO_hit 329 LLC_RFO_Hit Ratio: 0.00042
Core_0_LLC_RFO_miss 786627
Core_0_LLC_prefetches 6515
Core_0_LLC_prefetch_hit 6421 LLC_prefetch_Hit Ratio: 0.98557
Core_0_LLC_prefetch_miss 94
Core_0_LLC_writebacks 2418168
Core_0_LLC_writeback_hit 2398363 LLC_writeback_Hit Ratio: 0.99181
Core_0_LLC_writeback_miss 19805
Core_0_LLC_prefetch_requested 0
Core_0_LLC_prefetch_issued 0
Core_0_LLC_prefetch_useful 9 LLC_Useful Ratio: inf
Core_0_LLC_prefetch_useless 81
Core_0_LLC_prefetch_late 0
Core_0_LLC_average_miss_latency 260.04115

Core_0_major_page_fault 0
Core_0_minor_page_fault 28665

CPU 0 L1D next line prefetcher final stats
Prefetcher final stats
Training Unit Size: 4729
Addr table size: 1762849 1762854


Triggers: 3383103
No Prediction: 1767994 52.25954
Stream end: 13826
No translation: 998537 29.51542
Predictions: 4697 0.13884


Stream divergence: 20936 0.61884
Stream divergence -- new stream: 0
Channel_0_RQ_row_buffer_hit 2252915
Channel_0_RQ_row_buffer_miss 1857796
Channel_0_WQ_row_buffer_hit 1075155
Channel_0_WQ_row_buffer_miss 1330224
Channel_0_WQ_full 8733
Channel_0_dbus_congested 1752259

avg_congested_cycle 8

EzSearch AVG IPC :0.65288: L2-Pf-HR :0.99963 : L2-HR :0.85380 Uful:1.22695
     > Finished combination: TraceType=770-tot Sim:491000000 Prefetcher=L2isb_ideal L1=isb_ideal
