TRACE: [1979000000]_FE_[GPT-Neo-125M]_[h12]_[s2048]_[d64] Warmup: 2000000 NumTraces: 1979000000
L1:no:L2:no
*************************************************
   ChampSim Multicore Out-of-Order Simulator
   Last compiled: Oct 30 2024 21:56:54
*************************************************

trace_0 770-tot_memTraces_v5/120-subBillion_s2048_LLM_Arch/memTraces[1979000000]_FE_[GPT-Neo-125M]_[h12]_[s2048]_[d64].champsim.9.xz
MAIN.cc ln 751 stats print skipped
CPU  0 inst:    1000003 cyc:     497823 now IPC :2.00875: AVG IPC :2.00875: L2-Pf-HR :-nan: L2-HR :0.61754: (Sim:0h0m8s) 
CPU  0 inst:    2000000 cyc:     980802 now IPC :2.07048: AVG IPC :2.03915: L2-Pf-HR :-nan: L2-HR :0.68851: (Sim:0h0m17s) 

Warmup complete CPU  0 instructions:    2000002 cycles:     980803 (Simulation time: 0 hr 0 min 17 sec) 

CPU  0 inst:    3000003 cyc:    1620763 now IPC :1.56260: AVG IPC :1.56260: L2-Pf-HR :-nan: L2-HR :0.78599: (Sim:0h0m24s) 
CPU  0 inst:    4000005 cyc:    2263212 now IPC :1.55655: AVG IPC :1.55957: L2-Pf-HR :-nan: L2-HR :0.78429: (Sim:0h0m31s) 
CPU  0 inst:    5000003 cyc:    2902459 now IPC :1.56434: AVG IPC :1.56115: L2-Pf-HR :-nan: L2-HR :0.78649: (Sim:0h0m39s) 
CPU  0 inst:    6000004 cyc:    3544109 now IPC :1.55848: AVG IPC :1.56049: L2-Pf-HR :-nan: L2-HR :0.78568: (Sim:0h0m46s) 
CPU  0 inst:    7000001 cyc:    4221577 now IPC :1.47608: AVG IPC :1.54284: L2-Pf-HR :-nan: L2-HR :0.78624: (Sim:0h0m53s) 
CPU  0 inst:    8000000 cyc:    4862670 now IPC :1.55983: AVG IPC :1.54565: L2-Pf-HR :-nan: L2-HR :0.78598: (Sim:0h1m0s) 
CPU  0 inst:    9000001 cyc:    5501890 now IPC :1.56441: AVG IPC :1.54830: L2-Pf-HR :-nan: L2-HR :0.78611: (Sim:0h1m8s) 
CPU  0 inst:   10000004 cyc:    6142335 now IPC :1.56142: AVG IPC :1.54993: L2-Pf-HR :-nan: L2-HR :0.78615: (Sim:0h1m15s) 
CPU  0 inst:   11000000 cyc:    6781697 now IPC :1.56405: AVG IPC :1.55148: L2-Pf-HR :-nan: L2-HR :0.78609: (Sim:0h1m22s) 
CPU  0 inst:   12000004 cyc:    7422059 now IPC :1.56162: AVG IPC :1.55249: L2-Pf-HR :-nan: L2-HR :0.78627: (Sim:0h1m29s) 
CPU  0 inst:   13000001 cyc:    8088952 now IPC :1.49949: AVG IPC :1.54752: L2-Pf-HR :-nan: L2-HR :0.78600: (Sim:0h1m37s) 
CPU  0 inst:   14000002 cyc:    8693557 now IPC :1.65397: AVG IPC :1.55586: L2-Pf-HR :-nan: L2-HR :0.78730: (Sim:0h1m44s) 
CPU  0 inst:   15000000 cyc:    9300571 now IPC :1.64741: AVG IPC :1.56254: L2-Pf-HR :-nan: L2-HR :0.78856: (Sim:0h1m51s) 
CPU  0 inst:   16000000 cyc:    9905910 now IPC :1.65197: AVG IPC :1.56861: L2-Pf-HR :-nan: L2-HR :0.79097: (Sim:0h1m58s) 
CPU  0 inst:   17000000 cyc:   10511785 now IPC :1.65051: AVG IPC :1.57381: L2-Pf-HR :-nan: L2-HR :0.79193: (Sim:0h2m5s) 
CPU  0 inst:   18000000 cyc:   11119048 now IPC :1.64673: AVG IPC :1.57818: L2-Pf-HR :-nan: L2-HR :0.79354: (Sim:0h2m12s) 
CPU  0 inst:   19000003 cyc:   11766852 now IPC :1.54368: AVG IPC :1.57611: L2-Pf-HR :-nan: L2-HR :0.79567: (Sim:0h2m19s) 
CPU  0 inst:   20000004 cyc:   12378847 now IPC :1.63400: AVG IPC :1.57922: L2-Pf-HR :-nan: L2-HR :0.79647: (Sim:0h2m27s) 
CPU  0 inst:   21000004 cyc:   12988694 now IPC :1.63976: AVG IPC :1.58229: L2-Pf-HR :-nan: L2-HR :0.79756: (Sim:0h2m34s) 
CPU  0 inst:   22000001 cyc:   13600713 now IPC :1.63393: AVG IPC :1.58480: L2-Pf-HR :-nan: L2-HR :0.79861: (Sim:0h2m41s) 
CPU  0 inst:   23000004 cyc:   14209922 now IPC :1.64148: AVG IPC :1.58741: L2-Pf-HR :-nan: L2-HR :0.79963: (Sim:0h2m48s) 
CPU  0 inst:   24000000 cyc:   14818497 now IPC :1.64318: AVG IPC :1.58986: L2-Pf-HR :-nan: L2-HR :0.80064: (Sim:0h2m55s) 
CPU  0 inst:   25000004 cyc:   15503925 now IPC :1.45895: AVG IPC :1.58368: L2-Pf-HR :-nan: L2-HR :0.80070: (Sim:0h3m2s) 
CPU  0 inst:   26000002 cyc:   16143687 now IPC :1.56308: AVG IPC :1.58281: L2-Pf-HR :-nan: L2-HR :0.80155: (Sim:0h3m9s) 
CPU  0 inst:   27000002 cyc:   16783145 now IPC :1.56382: AVG IPC :1.58204: L2-Pf-HR :-nan: L2-HR :0.80195: (Sim:0h3m17s) 
CPU  0 inst:   28000002 cyc:   17423186 now IPC :1.56240: AVG IPC :1.58128: L2-Pf-HR :-nan: L2-HR :0.80281: (Sim:0h3m24s) 
CPU  0 inst:   29000000 cyc:   18063159 now IPC :1.56256: AVG IPC :1.58058: L2-Pf-HR :-nan: L2-HR :0.80356: (Sim:0h3m31s) 
CPU  0 inst:   30000002 cyc:   18701050 now IPC :1.56767: AVG IPC :1.58011: L2-Pf-HR :-nan: L2-HR :0.80366: (Sim:0h3m39s) 
CPU  0 inst:   31000002 cyc:   19384563 now IPC :1.46303: AVG IPC :1.57576: L2-Pf-HR :-nan: L2-HR :0.80414: (Sim:0h3m46s) 
CPU  0 inst:   32000000 cyc:   20036620 now IPC :1.53361: AVG IPC :1.57432: L2-Pf-HR :-nan: L2-HR :0.80460: (Sim:0h3m54s) 
CPU  0 inst:   33000000 cyc:   20685588 now IPC :1.54091: AVG IPC :1.57322: L2-Pf-HR :-nan: L2-HR :0.80543: (Sim:0h4m1s) 
CPU  0 inst:   34000003 cyc:   21335407 now IPC :1.53889: AVG IPC :1.57213: L2-Pf-HR :-nan: L2-HR :0.80562: (Sim:0h4m11s) 
CPU  0 inst:   35000002 cyc:   21987566 now IPC :1.53337: AVG IPC :1.57092: L2-Pf-HR :-nan: L2-HR :0.80614: (Sim:0h4m18s) 
CPU  0 inst:   36000000 cyc:   22638682 now IPC :1.53582: AVG IPC :1.56987: L2-Pf-HR :-nan: L2-HR :0.80681: (Sim:0h4m26s) 
CPU  0 inst:   37000004 cyc:   23369334 now IPC :1.36865: AVG IPC :1.56330: L2-Pf-HR :-nan: L2-HR :0.80656: (Sim:0h4m38s) 
CPU  0 inst:   38000004 cyc:   24040075 now IPC :1.49089: AVG IPC :1.56119: L2-Pf-HR :-nan: L2-HR :0.80702: (Sim:0h4m50s) 
CPU  0 inst:   39000004 cyc:   24710425 now IPC :1.49176: AVG IPC :1.55923: L2-Pf-HR :-nan: L2-HR :0.80723: (Sim:0h4m58s) 
CPU  0 inst:   40000003 cyc:   25380455 now IPC :1.49247: AVG IPC :1.55740: L2-Pf-HR :-nan: L2-HR :0.80759: (Sim:0h5m5s) 
CPU  0 inst:   41000004 cyc:   26049474 now IPC :1.49473: AVG IPC :1.55573: L2-Pf-HR :-nan: L2-HR :0.80816: (Sim:0h5m13s) 
CPU  0 inst:   42000004 cyc:   26720071 now IPC :1.49121: AVG IPC :1.55405: L2-Pf-HR :-nan: L2-HR :0.80819: (Sim:0h5m21s) 
CPU  0 inst:   43000005 cyc:   27427569 now IPC :1.41343: AVG IPC :1.55028: L2-Pf-HR :-nan: L2-HR :0.80866: (Sim:0h5m28s) 
CPU  0 inst:   44000002 cyc:   28097275 now IPC :1.49319: AVG IPC :1.54887: L2-Pf-HR :-nan: L2-HR :0.80877: (Sim:0h5m36s) 
CPU  0 inst:   45000002 cyc:   28766855 now IPC :1.49347: AVG IPC :1.54754: L2-Pf-HR :-nan: L2-HR :0.80930: (Sim:0h5m43s) 
CPU  0 inst:   46000004 cyc:   29437404 now IPC :1.49132: AVG IPC :1.54621: L2-Pf-HR :-nan: L2-HR :0.80947: (Sim:0h5m51s) 
CPU  0 inst:   47000002 cyc:   30106198 now IPC :1.49523: AVG IPC :1.54504: L2-Pf-HR :-nan: L2-HR :0.80964: (Sim:0h5m59s) 
CPU  0 inst:   48000002 cyc:   30775782 now IPC :1.49346: AVG IPC :1.54388: L2-Pf-HR :-nan: L2-HR :0.81016: (Sim:0h6m6s) 
CPU  0 inst:   49000003 cyc:   31525821 now IPC :1.33327: AVG IPC :1.53871: L2-Pf-HR :-nan: L2-HR :0.80984: (Sim:0h6m14s) 
CPU  0 inst:   50000003 cyc:   32197803 now IPC :1.48814: AVG IPC :1.53762: L2-Pf-HR :-nan: L2-HR :0.81016: (Sim:0h6m22s) 
CPU  0 inst:   51000002 cyc:   32870706 now IPC :1.48610: AVG IPC :1.53654: L2-Pf-HR :-nan: L2-HR :0.81025: (Sim:0h6m29s) 
CPU  0 inst:   52000002 cyc:   33545652 now IPC :1.48160: AVG IPC :1.53540: L2-Pf-HR :-nan: L2-HR :0.81034: (Sim:0h6m37s) 
CPU  0 inst:   53000003 cyc:   34218810 now IPC :1.48554: AVG IPC :1.53439: L2-Pf-HR :-nan: L2-HR :0.81072: (Sim:0h6m50s) 
CPU  0 inst:   54000005 cyc:   34892205 now IPC :1.48502: AVG IPC :1.53341: L2-Pf-HR :-nan: L2-HR :0.81058: (Sim:0h7m8s) 
CPU  0 inst:   55000001 cyc:   35601010 now IPC :1.41082: AVG IPC :1.53090: L2-Pf-HR :-nan: L2-HR :0.81081: (Sim:0h7m26s) 
CPU  0 inst:   56000001 cyc:   36273973 now IPC :1.48597: AVG IPC :1.53004: L2-Pf-HR :-nan: L2-HR :0.81085: (Sim:0h7m44s) 
CPU  0 inst:   57000000 cyc:   36944577 now IPC :1.49119: AVG IPC :1.52932: L2-Pf-HR :-nan: L2-HR :0.81119: (Sim:0h8m2s) 
CPU  0 inst:   58000001 cyc:   37615526 now IPC :1.49043: AVG IPC :1.52860: L2-Pf-HR :-nan: L2-HR :0.81121: (Sim:0h8m21s) 
CPU  0 inst:   59000002 cyc:   38288219 now IPC :1.48656: AVG IPC :1.52785: L2-Pf-HR :-nan: L2-HR :0.81128: (Sim:0h8m39s) 
CPU  0 inst:   60000001 cyc:   38958497 now IPC :1.49192: AVG IPC :1.52721: L2-Pf-HR :-nan: L2-HR :0.81166: (Sim:0h8m57s) 
CPU  0 inst:   61000001 cyc:   39641659 now IPC :1.46378: AVG IPC :1.52609: L2-Pf-HR :-nan: L2-HR :0.81068: (Sim:0h9m6s) 
CPU  0 inst:   62000002 cyc:   40304733 now IPC :1.50813: AVG IPC :1.52579: L2-Pf-HR :-nan: L2-HR :0.80951: (Sim:0h9m14s) 
CPU  0 inst:   63000003 cyc:   40987058 now IPC :1.46558: AVG IPC :1.52476: L2-Pf-HR :-nan: L2-HR :0.80843: (Sim:0h9m21s) 
CPU  0 inst:   64000005 cyc:   41659570 now IPC :1.48697: AVG IPC :1.52414: L2-Pf-HR :-nan: L2-HR :0.80740: (Sim:0h9m29s) 
CPU  0 inst:   65000001 cyc:   42437690 now IPC :1.28514: AVG IPC :1.51965: L2-Pf-HR :-nan: L2-HR :0.80664: (Sim:0h9m38s) 
CPU  0 inst:   66000000 cyc:   43126179 now IPC :1.45245: AVG IPC :1.51855: L2-Pf-HR :-nan: L2-HR :0.80669: (Sim:0h9m51s) 
CPU  0 inst:   67000000 cyc:   43817695 now IPC :1.44610: AVG IPC :1.51738: L2-Pf-HR :-nan: L2-HR :0.80667: (Sim:0h9m58s) 
CPU  0 inst:   68000005 cyc:   44509131 now IPC :1.44627: AVG IPC :1.51625: L2-Pf-HR :-nan: L2-HR :0.80679: (Sim:0h10m6s) 
CPU  0 inst:   69000003 cyc:   45201128 now IPC :1.44509: AVG IPC :1.51514: L2-Pf-HR :-nan: L2-HR :0.80687: (Sim:0h10m14s) 
CPU  0 inst:   70000004 cyc:   45893177 now IPC :1.44499: AVG IPC :1.51406: L2-Pf-HR :-nan: L2-HR :0.80698: (Sim:0h10m22s) 
CPU  0 inst:   71000002 cyc:   46622533 now IPC :1.37107: AVG IPC :1.51177: L2-Pf-HR :-nan: L2-HR :0.80707: (Sim:0h10m29s) 
CPU  0 inst:   72000001 cyc:   47313865 now IPC :1.44648: AVG IPC :1.51080: L2-Pf-HR :-nan: L2-HR :0.80711: (Sim:0h10m37s) 
CPU  0 inst:   73000001 cyc:   48007377 now IPC :1.44194: AVG IPC :1.50978: L2-Pf-HR :-nan: L2-HR :0.80715: (Sim:0h10m45s) 
CPU  0 inst:   74000000 cyc:   48700710 now IPC :1.44231: AVG IPC :1.50880: L2-Pf-HR :-nan: L2-HR :0.80708: (Sim:0h10m56s) 
CPU  0 inst:   75000000 cyc:   49395132 now IPC :1.44005: AVG IPC :1.50782: L2-Pf-HR :-nan: L2-HR :0.80709: (Sim:0h11m4s) 
CPU  0 inst:   76000003 cyc:   50090690 now IPC :1.43770: AVG IPC :1.50682: L2-Pf-HR :-nan: L2-HR :0.80682: (Sim:0h11m12s) 
CPU  0 inst:   77000004 cyc:   50846651 now IPC :1.32282: AVG IPC :1.50404: L2-Pf-HR :-nan: L2-HR :0.80649: (Sim:0h11m20s) 
CPU  0 inst:   78000004 cyc:   51519647 now IPC :1.48589: AVG IPC :1.50379: L2-Pf-HR :-nan: L2-HR :0.80649: (Sim:0h11m28s) 
CPU  0 inst:   79000000 cyc:   52192009 now IPC :1.48729: AVG IPC :1.50358: L2-Pf-HR :-nan: L2-HR :0.80659: (Sim:0h11m36s) 
CPU  0 inst:   80000004 cyc:   52863511 now IPC :1.48920: AVG IPC :1.50339: L2-Pf-HR :-nan: L2-HR :0.80669: (Sim:0h11m44s) 
CPU  0 inst:   81000004 cyc:   53535569 now IPC :1.48797: AVG IPC :1.50319: L2-Pf-HR :-nan: L2-HR :0.80675: (Sim:0h11m52s) 
CPU  0 inst:   82000004 cyc:   54208399 now IPC :1.48626: AVG IPC :1.50298: L2-Pf-HR :-nan: L2-HR :0.80685: (Sim:0h12m0s) 
CPU  0 inst:   83000002 cyc:   54910741 now IPC :1.42380: AVG IPC :1.50195: L2-Pf-HR :-nan: L2-HR :0.80682: (Sim:0h12m8s) 
CPU  0 inst:   84000002 cyc:   55568898 now IPC :1.51939: AVG IPC :1.50216: L2-Pf-HR :-nan: L2-HR :0.80699: (Sim:0h12m16s) 
CPU  0 inst:   85000001 cyc:   56229716 now IPC :1.51327: AVG IPC :1.50229: L2-Pf-HR :-nan: L2-HR :0.80709: (Sim:0h12m23s) 
CPU  0 inst:   86000004 cyc:   56887599 now IPC :1.52003: AVG IPC :1.50250: L2-Pf-HR :-nan: L2-HR :0.80718: (Sim:0h12m31s) 
CPU  0 inst:   87000002 cyc:   57545230 now IPC :1.52061: AVG IPC :1.50271: L2-Pf-HR :-nan: L2-HR :0.80736: (Sim:0h12m39s) 
CPU  0 inst:   88000002 cyc:   58204497 now IPC :1.51684: AVG IPC :1.50287: L2-Pf-HR :-nan: L2-HR :0.80756: (Sim:0h12m47s) 
CPU  0 inst:   89000003 cyc:   58941772 now IPC :1.35635: AVG IPC :1.50101: L2-Pf-HR :-nan: L2-HR :0.80760: (Sim:0h12m55s) 
CPU  0 inst:   90000000 cyc:   59608133 now IPC :1.50068: AVG IPC :1.50101: L2-Pf-HR :-nan: L2-HR :0.80766: (Sim:0h13m4s) 
CPU  0 inst:   91000005 cyc:   60275149 now IPC :1.49922: AVG IPC :1.50099: L2-Pf-HR :-nan: L2-HR :0.80782: (Sim:0h13m22s) 
CPU  0 inst:   92000003 cyc:   60942359 now IPC :1.49878: AVG IPC :1.50096: L2-Pf-HR :-nan: L2-HR :0.80792: (Sim:0h13m40s) 
CPU  0 inst:   93000003 cyc:   61608099 now IPC :1.50209: AVG IPC :1.50097: L2-Pf-HR :-nan: L2-HR :0.80808: (Sim:0h13m58s) 
CPU  0 inst:   94000001 cyc:   62274330 now IPC :1.50098: AVG IPC :1.50097: L2-Pf-HR :-nan: L2-HR :0.80825: (Sim:0h14m16s) 
CPU  0 inst:   95000001 cyc:   62983523 now IPC :1.41005: AVG IPC :1.49993: L2-Pf-HR :-nan: L2-HR :0.80828: (Sim:0h14m34s) 
CPU  0 inst:   96000002 cyc:   63653805 now IPC :1.49191: AVG IPC :1.49985: L2-Pf-HR :-nan: L2-HR :0.80844: (Sim:0h14m52s) 
CPU  0 inst:   97000003 cyc:   64323363 now IPC :1.49352: AVG IPC :1.49978: L2-Pf-HR :-nan: L2-HR :0.80859: (Sim:0h15m11s) 
CPU  0 inst:   98000001 cyc:   64993741 now IPC :1.49169: AVG IPC :1.49970: L2-Pf-HR :-nan: L2-HR :0.80869: (Sim:0h15m29s) 
CPU  0 inst:   99000001 cyc:   65663796 now IPC :1.49241: AVG IPC :1.49962: L2-Pf-HR :-nan: L2-HR :0.80887: (Sim:0h15m47s) 
CPU  0 inst:  100000001 cyc:   66331424 now IPC :1.49784: AVG IPC :1.49960: L2-Pf-HR :-nan: L2-HR :0.80897: (Sim:0h16m5s) 
CPU  0 inst:  101000005 cyc:   67062551 now IPC :1.36776: AVG IPC :1.49814: L2-Pf-HR :-nan: L2-HR :0.80897: (Sim:0h16m23s) 
CPU  0 inst:  102000001 cyc:   67734781 now IPC :1.48758: AVG IPC :1.49804: L2-Pf-HR :-nan: L2-HR :0.80905: (Sim:0h16m41s) 
CPU  0 inst:  103000004 cyc:   68405325 now IPC :1.49133: AVG IPC :1.49797: L2-Pf-HR :-nan: L2-HR :0.80914: (Sim:0h16m59s) 
CPU  0 inst:  104000005 cyc:   69075575 now IPC :1.49198: AVG IPC :1.49791: L2-Pf-HR :-nan: L2-HR :0.80927: (Sim:0h17m15s) 
CPU  0 inst:  105000005 cyc:   69748993 now IPC :1.48496: AVG IPC :1.49779: L2-Pf-HR :-nan: L2-HR :0.80933: (Sim:0h17m24s) 
CPU  0 inst:  106000003 cyc:   70420174 now IPC :1.48991: AVG IPC :1.49771: L2-Pf-HR :-nan: L2-HR :0.80944: (Sim:0h17m33s) 
CPU  0 inst:  107000000 cyc:   71127500 now IPC :1.41377: AVG IPC :1.49686: L2-Pf-HR :-nan: L2-HR :0.80944: (Sim:0h17m51s) 
CPU  0 inst:  108000003 cyc:   71796709 now IPC :1.49431: AVG IPC :1.49684: L2-Pf-HR :-nan: L2-HR :0.80963: (Sim:0h18m9s) 
CPU  0 inst:  109000003 cyc:   72467252 now IPC :1.49133: AVG IPC :1.49679: L2-Pf-HR :-nan: L2-HR :0.80976: (Sim:0h18m27s) 
CPU  0 inst:  110000003 cyc:   73136789 now IPC :1.49357: AVG IPC :1.49676: L2-Pf-HR :-nan: L2-HR :0.80975: (Sim:0h18m45s) 
CPU  0 inst:  111000003 cyc:   73806134 now IPC :1.49400: AVG IPC :1.49673: L2-Pf-HR :-nan: L2-HR :0.80993: (Sim:0h19m3s) 
CPU  0 inst:  112000003 cyc:   74478152 now IPC :1.48806: AVG IPC :1.49665: L2-Pf-HR :-nan: L2-HR :0.81000: (Sim:0h19m21s) 
CPU  0 inst:  113000003 cyc:   75215276 now IPC :1.35662: AVG IPC :1.49526: L2-Pf-HR :-nan: L2-HR :0.80998: (Sim:0h19m40s) 
CPU  0 inst:  114000000 cyc:   75872999 now IPC :1.52039: AVG IPC :1.49548: L2-Pf-HR :-nan: L2-HR :0.81006: (Sim:0h19m58s) 
CPU  0 inst:  115000001 cyc:   76534637 now IPC :1.51140: AVG IPC :1.49562: L2-Pf-HR :-nan: L2-HR :0.81010: (Sim:0h20m16s) 
CPU  0 inst:  116000001 cyc:   77193930 now IPC :1.51678: AVG IPC :1.49581: L2-Pf-HR :-nan: L2-HR :0.81022: (Sim:0h20m34s) 
CPU  0 inst:  117000001 cyc:   77851797 now IPC :1.52006: AVG IPC :1.49601: L2-Pf-HR :-nan: L2-HR :0.81031: (Sim:0h20m52s) 
CPU  0 inst:  118000002 cyc:   78511405 now IPC :1.51605: AVG IPC :1.49618: L2-Pf-HR :-nan: L2-HR :0.81038: (Sim:0h21m10s) 
CPU  0 inst:  119000005 cyc:   79215134 now IPC :1.42101: AVG IPC :1.49551: L2-Pf-HR :-nan: L2-HR :0.81039: (Sim:0h21m28s) 
CPU  0 inst:  120000005 cyc:   79883179 now IPC :1.49691: AVG IPC :1.49552: L2-Pf-HR :-nan: L2-HR :0.81047: (Sim:0h21m46s) 
CPU  0 inst:  121000005 cyc:   80549643 now IPC :1.50046: AVG IPC :1.49556: L2-Pf-HR :-nan: L2-HR :0.81060: (Sim:0h22m5s) 
CPU  0 inst:  122000005 cyc:   81218584 now IPC :1.49490: AVG IPC :1.49555: L2-Pf-HR :-nan: L2-HR :0.81061: (Sim:0h22m23s) 
CPU  0 inst:  123000005 cyc:   81885066 now IPC :1.50042: AVG IPC :1.49559: L2-Pf-HR :-nan: L2-HR :0.81074: (Sim:0h22m42s) 
CPU  0 inst:  124000002 cyc:   82551617 now IPC :1.50026: AVG IPC :1.49563: L2-Pf-HR :-nan: L2-HR :0.81081: (Sim:0h23m0s) 
CPU  0 inst:  125000005 cyc:   83237024 now IPC :1.45899: AVG IPC :1.49533: L2-Pf-HR :-nan: L2-HR :0.81051: (Sim:0h23m17s) 
CPU  0 inst:  126000002 cyc:   83902714 now IPC :1.50220: AVG IPC :1.49538: L2-Pf-HR :-nan: L2-HR :0.80992: (Sim:0h23m33s) 
CPU  0 inst:  127000001 cyc:   84581878 now IPC :1.47240: AVG IPC :1.49520: L2-Pf-HR :-nan: L2-HR :0.80939: (Sim:0h23m50s) 
CPU  0 inst:  128000005 cyc:   85247148 now IPC :1.50316: AVG IPC :1.49526: L2-Pf-HR :-nan: L2-HR :0.80890: (Sim:0h24m9s) 
CPU  0 inst:  129000005 cyc:   86017918 now IPC :1.29740: AVG IPC :1.49347: L2-Pf-HR :-nan: L2-HR :0.80847: (Sim:0h24m28s) 
CPU  0 inst:  130000000 cyc:   86707485 now IPC :1.45018: AVG IPC :1.49312: L2-Pf-HR :-nan: L2-HR :0.80844: (Sim:0h24m46s) 
CPU  0 inst:  131000003 cyc:   87398544 now IPC :1.44706: AVG IPC :1.49275: L2-Pf-HR :-nan: L2-HR :0.80844: (Sim:0h25m5s) 
CPU  0 inst:  132000005 cyc:   88090076 now IPC :1.44607: AVG IPC :1.49238: L2-Pf-HR :-nan: L2-HR :0.80848: (Sim:0h25m23s) 
CPU  0 inst:  133000000 cyc:   88781589 now IPC :1.44610: AVG IPC :1.49201: L2-Pf-HR :-nan: L2-HR :0.80850: (Sim:0h25m42s) 
CPU  0 inst:  134000004 cyc:   89470594 now IPC :1.45137: AVG IPC :1.49170: L2-Pf-HR :-nan: L2-HR :0.80855: (Sim:0h26m0s) 
CPU  0 inst:  135000002 cyc:   90202524 now IPC :1.36625: AVG IPC :1.49067: L2-Pf-HR :-nan: L2-HR :0.80857: (Sim:0h26m19s) 
CPU  0 inst:  136000000 cyc:   90897969 now IPC :1.43793: AVG IPC :1.49026: L2-Pf-HR :-nan: L2-HR :0.80859: (Sim:0h26m38s) 
CPU  0 inst:  137000001 cyc:   91592790 now IPC :1.43922: AVG IPC :1.48987: L2-Pf-HR :-nan: L2-HR :0.80858: (Sim:0h26m55s) 
CPU  0 inst:  138000005 cyc:   92286420 now IPC :1.44170: AVG IPC :1.48950: L2-Pf-HR :-nan: L2-HR :0.80860: (Sim:0h27m4s) 
CPU  0 inst:  139000000 cyc:   92984123 now IPC :1.43327: AVG IPC :1.48908: L2-Pf-HR :-nan: L2-HR :0.80846: (Sim:0h27m14s) 
CPU  0 inst:  140000003 cyc:   93677854 now IPC :1.44149: AVG IPC :1.48872: L2-Pf-HR :-nan: L2-HR :0.80849: (Sim:0h27m23s) 
CPU  0 inst:  141000004 cyc:   94433499 now IPC :1.32337: AVG IPC :1.48738: L2-Pf-HR :-nan: L2-HR :0.80830: (Sim:0h27m33s) 
CPU  0 inst:  142000001 cyc:   95098803 now IPC :1.50307: AVG IPC :1.48749: L2-Pf-HR :-nan: L2-HR :0.80838: (Sim:0h27m50s) 
CPU  0 inst:  143000005 cyc:   95763391 now IPC :1.50470: AVG IPC :1.48761: L2-Pf-HR :-nan: L2-HR :0.80839: (Sim:0h28m9s) 
CPU  0 inst:  144000005 cyc:   96430438 now IPC :1.49914: AVG IPC :1.48770: L2-Pf-HR :-nan: L2-HR :0.80832: (Sim:0h28m27s) 
CPU  0 inst:  145000005 cyc:   97096685 now IPC :1.50094: AVG IPC :1.48779: L2-Pf-HR :-nan: L2-HR :0.80846: (Sim:0h28m46s) 
CPU  0 inst:  146000005 cyc:   97763421 now IPC :1.49984: AVG IPC :1.48787: L2-Pf-HR :-nan: L2-HR :0.80845: (Sim:0h29m4s) 
CPU  0 inst:  147000005 cyc:   98468843 now IPC :1.41759: AVG IPC :1.48736: L2-Pf-HR :-nan: L2-HR :0.80852: (Sim:0h29m22s) 
CPU  0 inst:  148000003 cyc:   99140103 now IPC :1.48973: AVG IPC :1.48738: L2-Pf-HR :-nan: L2-HR :0.80845: (Sim:0h29m41s) 
CPU  0 inst:  149000003 cyc:   99806312 now IPC :1.50103: AVG IPC :1.48747: L2-Pf-HR :-nan: L2-HR :0.80855: (Sim:0h29m58s) 
CPU  0 inst:  150000003 cyc:  100471733 now IPC :1.50281: AVG IPC :1.48757: L2-Pf-HR :-nan: L2-HR :0.80865: (Sim:0h30m14s) 
CPU  0 inst:  151000005 cyc:  101138703 now IPC :1.49932: AVG IPC :1.48765: L2-Pf-HR :-nan: L2-HR :0.80867: (Sim:0h30m22s) 
CPU  0 inst:  152000004 cyc:  101805988 now IPC :1.49861: AVG IPC :1.48772: L2-Pf-HR :-nan: L2-HR :0.80881: (Sim:0h30m35s) 
CPU  0 inst:  153000003 cyc:  102548400 now IPC :1.34696: AVG IPC :1.48669: L2-Pf-HR :-nan: L2-HR :0.80878: (Sim:0h30m44s) 
CPU  0 inst:  154000000 cyc:  103221881 now IPC :1.48482: AVG IPC :1.48668: L2-Pf-HR :-nan: L2-HR :0.80885: (Sim:0h31m0s) 
CPU  0 inst:  155000001 cyc:  103896074 now IPC :1.48326: AVG IPC :1.48666: L2-Pf-HR :-nan: L2-HR :0.80891: (Sim:0h31m19s) 
CPU  0 inst:  156000001 cyc:  104569687 now IPC :1.48453: AVG IPC :1.48665: L2-Pf-HR :-nan: L2-HR :0.80894: (Sim:0h31m37s) 
CPU  0 inst:  157000001 cyc:  105242944 now IPC :1.48532: AVG IPC :1.48664: L2-Pf-HR :-nan: L2-HR :0.80908: (Sim:0h31m56s) 
CPU  0 inst:  158000000 cyc:  105918390 now IPC :1.48050: AVG IPC :1.48660: L2-Pf-HR :-nan: L2-HR :0.80907: (Sim:0h32m14s) 
CPU  0 inst:  159000005 cyc:  106628946 now IPC :1.40736: AVG IPC :1.48606: L2-Pf-HR :-nan: L2-HR :0.80911: (Sim:0h32m32s) 
CPU  0 inst:  160000005 cyc:  107301432 now IPC :1.48702: AVG IPC :1.48607: L2-Pf-HR :-nan: L2-HR :0.80915: (Sim:0h32m50s) 
CPU  0 inst:  161000005 cyc:  107972727 now IPC :1.48966: AVG IPC :1.48609: L2-Pf-HR :-nan: L2-HR :0.80927: (Sim:0h33m7s) 
CPU  0 inst:  162000005 cyc:  108643295 now IPC :1.49127: AVG IPC :1.48613: L2-Pf-HR :-nan: L2-HR :0.80931: (Sim:0h33m23s) 
CPU  0 inst:  163000000 cyc:  109313966 now IPC :1.49104: AVG IPC :1.48616: L2-Pf-HR :-nan: L2-HR :0.80933: (Sim:0h33m40s) 
CPU  0 inst:  164000002 cyc:  109984181 now IPC :1.49206: AVG IPC :1.48619: L2-Pf-HR :-nan: L2-HR :0.80949: (Sim:0h33m58s) 
CPU  0 inst:  165000002 cyc:  110724309 now IPC :1.35112: AVG IPC :1.48528: L2-Pf-HR :-nan: L2-HR :0.80942: (Sim:0h34m15s) 
CPU  0 inst:  166000000 cyc:  111395322 now IPC :1.49028: AVG IPC :1.48531: L2-Pf-HR :-nan: L2-HR :0.80950: (Sim:0h34m33s) 
CPU  0 inst:  167000000 cyc:  112065537 now IPC :1.49206: AVG IPC :1.48535: L2-Pf-HR :-nan: L2-HR :0.80953: (Sim:0h34m51s) 
CPU  0 inst:  168000000 cyc:  112738279 now IPC :1.48645: AVG IPC :1.48536: L2-Pf-HR :-nan: L2-HR :0.80954: (Sim:0h35m9s) 
CPU  0 inst:  169000000 cyc:  113409752 now IPC :1.48926: AVG IPC :1.48538: L2-Pf-HR :-nan: L2-HR :0.80968: (Sim:0h35m27s) 
CPU  0 inst:  170000004 cyc:  114080874 now IPC :1.49005: AVG IPC :1.48541: L2-Pf-HR :-nan: L2-HR :0.80968: (Sim:0h35m45s) 
CPU  0 inst:  171000004 cyc:  114791403 now IPC :1.40740: AVG IPC :1.48492: L2-Pf-HR :-nan: L2-HR :0.80975: (Sim:0h36m3s) 
CPU  0 inst:  172000004 cyc:  115467534 now IPC :1.47900: AVG IPC :1.48489: L2-Pf-HR :-nan: L2-HR :0.80978: (Sim:0h36m21s) 
CPU  0 inst:  173000004 cyc:  116142302 now IPC :1.48199: AVG IPC :1.48487: L2-Pf-HR :-nan: L2-HR :0.80985: (Sim:0h36m39s) 
CPU  0 inst:  174000004 cyc:  116815923 now IPC :1.48451: AVG IPC :1.48487: L2-Pf-HR :-nan: L2-HR :0.80990: (Sim:0h36m58s) 
CPU  0 inst:  175000000 cyc:  117492434 now IPC :1.47817: AVG IPC :1.48483: L2-Pf-HR :-nan: L2-HR :0.80993: (Sim:0h37m16s) 
CPU  0 inst:  176000000 cyc:  118166101 now IPC :1.48441: AVG IPC :1.48483: L2-Pf-HR :-nan: L2-HR :0.81003: (Sim:0h37m34s) 
CPU  0 inst:  177000002 cyc:  118914709 now IPC :1.33582: AVG IPC :1.48388: L2-Pf-HR :-nan: L2-HR :0.80996: (Sim:0h37m52s) 
CPU  0 inst:  178000002 cyc:  119589329 now IPC :1.48232: AVG IPC :1.48387: L2-Pf-HR :-nan: L2-HR :0.80998: (Sim:0h38m10s) 
CPU  0 inst:  179000002 cyc:  120261652 now IPC :1.48738: AVG IPC :1.48389: L2-Pf-HR :-nan: L2-HR :0.81004: (Sim:0h38m28s) 
CPU  0 inst:  180000001 cyc:  120934494 now IPC :1.48623: AVG IPC :1.48391: L2-Pf-HR :-nan: L2-HR :0.81007: (Sim:0h38m46s) 
CPU  0 inst:  181000000 cyc:  121606356 now IPC :1.48840: AVG IPC :1.48393: L2-Pf-HR :-nan: L2-HR :0.81017: (Sim:0h39m5s) 
CPU  0 inst:  182000000 cyc:  122281169 now IPC :1.48189: AVG IPC :1.48392: L2-Pf-HR :-nan: L2-HR :0.81016: (Sim:0h39m23s) 
CPU  0 inst:  183000000 cyc:  122991834 now IPC :1.40713: AVG IPC :1.48347: L2-Pf-HR :-nan: L2-HR :0.81021: (Sim:0h39m41s) 
CPU  0 inst:  184000000 cyc:  123663591 now IPC :1.48863: AVG IPC :1.48350: L2-Pf-HR :-nan: L2-HR :0.81029: (Sim:0h39m58s) 
CPU  0 inst:  185000000 cyc:  124337862 now IPC :1.48308: AVG IPC :1.48350: L2-Pf-HR :-nan: L2-HR :0.81034: (Sim:0h40m9s) 
CPU  0 inst:  186000002 cyc:  125010822 now IPC :1.48598: AVG IPC :1.48351: L2-Pf-HR :-nan: L2-HR :0.81039: (Sim:0h40m21s) 
CPU  0 inst:  187000004 cyc:  125682886 now IPC :1.48796: AVG IPC :1.48354: L2-Pf-HR :-nan: L2-HR :0.81043: (Sim:0h40m39s) 
CPU  0 inst:  188000004 cyc:  126355827 now IPC :1.48601: AVG IPC :1.48355: L2-Pf-HR :-nan: L2-HR :0.81051: (Sim:0h40m57s) 
CPU  0 inst:  189000000 cyc:  127047704 now IPC :1.44534: AVG IPC :1.48334: L2-Pf-HR :-nan: L2-HR :0.81031: (Sim:0h41m16s) 
CPU  0 inst:  190000002 cyc:  127714694 now IPC :1.49928: AVG IPC :1.48342: L2-Pf-HR :-nan: L2-HR :0.80993: (Sim:0h41m34s) 
CPU  0 inst:  191000000 cyc:  128395094 now IPC :1.46972: AVG IPC :1.48335: L2-Pf-HR :-nan: L2-HR :0.80960: (Sim:0h41m52s) 
CPU  0 inst:  192000001 cyc:  129064297 now IPC :1.49432: AVG IPC :1.48341: L2-Pf-HR :-nan: L2-HR :0.80927: (Sim:0h42m10s) 
CPU  0 inst:  193000002 cyc:  129825361 now IPC :1.31395: AVG IPC :1.48241: L2-Pf-HR :-nan: L2-HR :0.80894: (Sim:0h42m29s) 
CPU  0 inst:  194000000 cyc:  130504510 now IPC :1.47243: AVG IPC :1.48235: L2-Pf-HR :-nan: L2-HR :0.80892: (Sim:0h42m48s) 
CPU  0 inst:  195000000 cyc:  131182450 now IPC :1.47506: AVG IPC :1.48232: L2-Pf-HR :-nan: L2-HR :0.80892: (Sim:0h43m6s) 
CPU  0 inst:  196000005 cyc:  131859189 now IPC :1.47768: AVG IPC :1.48229: L2-Pf-HR :-nan: L2-HR :0.80892: (Sim:0h43m24s) 
CPU  0 inst:  197000005 cyc:  132536605 now IPC :1.47620: AVG IPC :1.48226: L2-Pf-HR :-nan: L2-HR :0.80896: (Sim:0h43m43s) 
CPU  0 inst:  198000004 cyc:  133213429 now IPC :1.47749: AVG IPC :1.48224: L2-Pf-HR :-nan: L2-HR :0.80896: (Sim:0h44m1s) 
CPU  0 inst:  199000002 cyc:  133938949 now IPC :1.37832: AVG IPC :1.48167: L2-Pf-HR :-nan: L2-HR :0.80901: (Sim:0h44m20s) 
CPU  0 inst:  200000003 cyc:  134635317 now IPC :1.43602: AVG IPC :1.48143: L2-Pf-HR :-nan: L2-HR :0.80899: (Sim:0h44m39s) 
CPU  0 inst:  201000003 cyc:  135330370 now IPC :1.43874: AVG IPC :1.48121: L2-Pf-HR :-nan: L2-HR :0.80903: (Sim:0h44m57s) 
CPU  0 inst:  202000005 cyc:  136029072 now IPC :1.43123: AVG IPC :1.48095: L2-Pf-HR :-nan: L2-HR :0.80897: (Sim:0h45m16s) 
CPU  0 inst:  203000000 cyc:  136727316 now IPC :1.43216: AVG IPC :1.48070: L2-Pf-HR :-nan: L2-HR :0.80894: (Sim:0h45m34s) 
CPU  0 inst:  204000003 cyc:  137423219 now IPC :1.43699: AVG IPC :1.48048: L2-Pf-HR :-nan: L2-HR :0.80889: (Sim:0h45m53s) 
CPU  0 inst:  205000000 cyc:  138182490 now IPC :1.31705: AVG IPC :1.47957: L2-Pf-HR :-nan: L2-HR :0.80882: (Sim:0h46m12s) 
CPU  0 inst:  206000000 cyc:  138854659 now IPC :1.48772: AVG IPC :1.47961: L2-Pf-HR :-nan: L2-HR :0.80886: (Sim:0h46m30s) 
CPU  0 inst:  207000000 cyc:  139527345 now IPC :1.48658: AVG IPC :1.47965: L2-Pf-HR :-nan: L2-HR :0.80885: (Sim:0h46m44s) 
CPU  0 inst:  208000000 cyc:  140202009 now IPC :1.48222: AVG IPC :1.47966: L2-Pf-HR :-nan: L2-HR :0.80884: (Sim:0h46m54s) 
CPU  0 inst:  209000000 cyc:  140876337 now IPC :1.48296: AVG IPC :1.47968: L2-Pf-HR :-nan: L2-HR :0.80887: (Sim:0h47m3s) 
CPU  0 inst:  210000004 cyc:  141549490 now IPC :1.48555: AVG IPC :1.47970: L2-Pf-HR :-nan: L2-HR :0.80889: (Sim:0h47m18s) 
CPU  0 inst:  211000004 cyc:  142256115 now IPC :1.41518: AVG IPC :1.47938: L2-Pf-HR :-nan: L2-HR :0.80885: (Sim:0h47m36s) 
CPU  0 inst:  212000000 cyc:  142916075 now IPC :1.51524: AVG IPC :1.47955: L2-Pf-HR :-nan: L2-HR :0.80888: (Sim:0h47m55s) 
CPU  0 inst:  213000004 cyc:  143574206 now IPC :1.51946: AVG IPC :1.47973: L2-Pf-HR :-nan: L2-HR :0.80896: (Sim:0h48m9s) 
CPU  0 inst:  214000003 cyc:  144234172 now IPC :1.51523: AVG IPC :1.47990: L2-Pf-HR :-nan: L2-HR :0.80896: (Sim:0h48m27s) 
CPU  0 inst:  215000000 cyc:  144892681 now IPC :1.51858: AVG IPC :1.48007: L2-Pf-HR :-nan: L2-HR :0.80904: (Sim:0h48m45s) 
CPU  0 inst:  216000002 cyc:  145551167 now IPC :1.51864: AVG IPC :1.48025: L2-Pf-HR :-nan: L2-HR :0.80909: (Sim:0h49m0s) 
CPU  0 inst:  217000002 cyc:  146279191 now IPC :1.37358: AVG IPC :1.47971: L2-Pf-HR :-nan: L2-HR :0.80907: (Sim:0h49m9s) 
CPU  0 inst:  218000002 cyc:  146938762 now IPC :1.51614: AVG IPC :1.47988: L2-Pf-HR :-nan: L2-HR :0.80913: (Sim:0h49m18s) 
CPU  0 inst:  219000005 cyc:  147598323 now IPC :1.51616: AVG IPC :1.48004: L2-Pf-HR :-nan: L2-HR :0.80917: (Sim:0h49m28s) 
CPU  0 inst:  220000002 cyc:  148255714 now IPC :1.52116: AVG IPC :1.48022: L2-Pf-HR :-nan: L2-HR :0.80921: (Sim:0h49m38s) 
CPU  0 inst:  221000000 cyc:  148915701 now IPC :1.51518: AVG IPC :1.48038: L2-Pf-HR :-nan: L2-HR :0.80924: (Sim:0h49m49s) 
CPU  0 inst:  222000000 cyc:  149574179 now IPC :1.51865: AVG IPC :1.48055: L2-Pf-HR :-nan: L2-HR :0.80935: (Sim:0h50m6s) 
CPU  0 inst:  223000000 cyc:  150276200 now IPC :1.42446: AVG IPC :1.48029: L2-Pf-HR :-nan: L2-HR :0.80941: (Sim:0h50m24s) 
CPU  0 inst:  224000000 cyc:  150947002 now IPC :1.49075: AVG IPC :1.48033: L2-Pf-HR :-nan: L2-HR :0.80946: (Sim:0h50m39s) 
CPU  0 inst:  225000005 cyc:  151618297 now IPC :1.48967: AVG IPC :1.48038: L2-Pf-HR :-nan: L2-HR :0.80950: (Sim:0h50m54s) 
CPU  0 inst:  226000002 cyc:  152288029 now IPC :1.49313: AVG IPC :1.48043: L2-Pf-HR :-nan: L2-HR :0.80956: (Sim:0h51m13s) 
CPU  0 inst:  227000004 cyc:  152956866 now IPC :1.49514: AVG IPC :1.48050: L2-Pf-HR :-nan: L2-HR :0.80965: (Sim:0h51m31s) 
CPU  0 inst:  228000004 cyc:  153628342 now IPC :1.48926: AVG IPC :1.48053: L2-Pf-HR :-nan: L2-HR :0.80967: (Sim:0h51m49s) 
CPU  0 inst:  229000001 cyc:  154362833 now IPC :1.36148: AVG IPC :1.47996: L2-Pf-HR :-nan: L2-HR :0.80969: (Sim:0h52m8s) 
CPU  0 inst:  230000001 cyc:  155022683 now IPC :1.51550: AVG IPC :1.48012: L2-Pf-HR :-nan: L2-HR :0.80972: (Sim:0h52m26s) 
CPU  0 inst:  231000003 cyc:  155685331 now IPC :1.50910: AVG IPC :1.48024: L2-Pf-HR :-nan: L2-HR :0.80973: (Sim:0h52m39s) 
CPU  0 inst:  232000005 cyc:  156346272 now IPC :1.51300: AVG IPC :1.48038: L2-Pf-HR :-nan: L2-HR :0.80981: (Sim:0h52m52s) 
CPU  0 inst:  233000005 cyc:  157007539 now IPC :1.51225: AVG IPC :1.48052: L2-Pf-HR :-nan: L2-HR :0.80982: (Sim:0h53m8s) 
CPU  0 inst:  234000005 cyc:  157668118 now IPC :1.51382: AVG IPC :1.48066: L2-Pf-HR :-nan: L2-HR :0.80988: (Sim:0h53m26s) 
CPU  0 inst:  235000005 cyc:  158372498 now IPC :1.41969: AVG IPC :1.48038: L2-Pf-HR :-nan: L2-HR :0.80991: (Sim:0h53m44s) 
CPU  0 inst:  236000001 cyc:  159039870 now IPC :1.49841: AVG IPC :1.48046: L2-Pf-HR :-nan: L2-HR :0.80996: (Sim:0h54m3s) 
CPU  0 inst:  237000000 cyc:  159705977 now IPC :1.50126: AVG IPC :1.48055: L2-Pf-HR :-nan: L2-HR :0.81002: (Sim:0h54m21s) 
CPU  0 inst:  238000002 cyc:  160374213 now IPC :1.49648: AVG IPC :1.48061: L2-Pf-HR :-nan: L2-HR :0.81004: (Sim:0h54m39s) 
CPU  0 inst:  239000003 cyc:  161041624 now IPC :1.49833: AVG IPC :1.48069: L2-Pf-HR :-nan: L2-HR :0.81011: (Sim:0h54m58s) 
CPU  0 inst:  240000003 cyc:  161708519 now IPC :1.49949: AVG IPC :1.48077: L2-Pf-HR :-nan: L2-HR :0.81014: (Sim:0h55m16s) 
CPU  0 inst:  241000003 cyc:  162448242 now IPC :1.35186: AVG IPC :1.48017: L2-Pf-HR :-nan: L2-HR :0.81013: (Sim:0h55m34s) 
CPU  0 inst:  242000005 cyc:  163114627 now IPC :1.50064: AVG IPC :1.48026: L2-Pf-HR :-nan: L2-HR :0.81018: (Sim:0h55m53s) 
CPU  0 inst:  243000002 cyc:  163781234 now IPC :1.50013: AVG IPC :1.48034: L2-Pf-HR :-nan: L2-HR :0.81019: (Sim:0h56m11s) 
CPU  0 inst:  244000001 cyc:  164447499 now IPC :1.50090: AVG IPC :1.48042: L2-Pf-HR :-nan: L2-HR :0.81025: (Sim:0h56m29s) 
CPU  0 inst:  245000001 cyc:  165115184 now IPC :1.49771: AVG IPC :1.48049: L2-Pf-HR :-nan: L2-HR :0.81028: (Sim:0h56m48s) 
CPU  0 inst:  246000001 cyc:  165782873 now IPC :1.49770: AVG IPC :1.48056: L2-Pf-HR :-nan: L2-HR :0.81031: (Sim:0h57m7s) 
CPU  0 inst:  247000004 cyc:  166490792 now IPC :1.41260: AVG IPC :1.48027: L2-Pf-HR :-nan: L2-HR :0.81033: (Sim:0h57m26s) 
xz: 770-tot_memTraces_v5/120-subBillion_s2048_LLM_Arch/memTraces[1979000000]_FE_[GPT-Neo-125M]_[h12]_[s2048]_[d64].champsim.9.xz: Unexpected end of input
*** Reached end of trace for Core: 0 Repeating trace: 770-tot_memTraces_v5/120-subBillion_s2048_LLM_Arch/memTraces[1979000000]_FE_[GPT-Neo-125M]_[h12]_[s2048]_[d64].champsim.9.xz
CPU  0 inst:  248000004 cyc:  167410133 now IPC :1.08774: AVG IPC :1.47810: L2-Pf-HR :-nan: L2-HR :0.81006: (Sim:0h57m44s) 
CPU  0 inst:  249000003 cyc:  168103761 now IPC :1.44169: AVG IPC :1.47795: L2-Pf-HR :-nan: L2-HR :0.81007: (Sim:0h58m3s) 
CPU  0 inst:  250000001 cyc:  168800127 now IPC :1.43602: AVG IPC :1.47778: L2-Pf-HR :-nan: L2-HR :0.81004: (Sim:0h58m13s) 
CPU  0 inst:  251000001 cyc:  169494808 now IPC :1.43951: AVG IPC :1.47762: L2-Pf-HR :-nan: L2-HR :0.81005: (Sim:0h58m22s) 
CPU  0 inst:  252000000 cyc:  170193007 now IPC :1.43226: AVG IPC :1.47743: L2-Pf-HR :-nan: L2-HR :0.81005: (Sim:0h58m31s) 
CPU  0 inst:  253000004 cyc:  170885894 now IPC :1.44324: AVG IPC :1.47730: L2-Pf-HR :-nan: L2-HR :0.81008: (Sim:0h58m41s) 
CPU  0 inst:  254000004 cyc:  171618780 now IPC :1.36447: AVG IPC :1.47681: L2-Pf-HR :-nan: L2-HR :0.81007: (Sim:0h58m56s) 
CPU  0 inst:  255000004 cyc:  172307502 now IPC :1.45196: AVG IPC :1.47671: L2-Pf-HR :-nan: L2-HR :0.81009: (Sim:0h59m14s) 
CPU  0 inst:  256000003 cyc:  173000207 now IPC :1.44361: AVG IPC :1.47658: L2-Pf-HR :-nan: L2-HR :0.80999: (Sim:0h59m33s) 
CPU  0 inst:  257000002 cyc:  173691735 now IPC :1.44607: AVG IPC :1.47646: L2-Pf-HR :-nan: L2-HR :0.80989: (Sim:0h59m51s) 
CPU  0 inst:  258000002 cyc:  174383070 now IPC :1.44648: AVG IPC :1.47634: L2-Pf-HR :-nan: L2-HR :0.80980: (Sim:1h0m10s) 
CPU  0 inst:  259000004 cyc:  175074091 now IPC :1.44714: AVG IPC :1.47622: L2-Pf-HR :-nan: L2-HR :0.80970: (Sim:1h0m29s) 
CPU  0 inst:  260000000 cyc:  175778500 now IPC :1.41962: AVG IPC :1.47599: L2-Pf-HR :-nan: L2-HR :0.80962: (Sim:1h0m44s) 
CPU  0 inst:  261000001 cyc:  176522239 now IPC :1.34456: AVG IPC :1.47544: L2-Pf-HR :-nan: L2-HR :0.80950: (Sim:1h1m4s) 
CPU  0 inst:  262000002 cyc:  177194774 now IPC :1.48691: AVG IPC :1.47548: L2-Pf-HR :-nan: L2-HR :0.80950: (Sim:1h1m13s) 
CPU  0 inst:  263000005 cyc:  177867665 now IPC :1.48613: AVG IPC :1.47552: L2-Pf-HR :-nan: L2-HR :0.80949: (Sim:1h1m23s) 
CPU  0 inst:  264000005 cyc:  178540172 now IPC :1.48697: AVG IPC :1.47556: L2-Pf-HR :-nan: L2-HR :0.80953: (Sim:1h1m32s) 
CPU  0 inst:  265000001 cyc:  179214705 now IPC :1.48250: AVG IPC :1.47559: L2-Pf-HR :-nan: L2-HR :0.80952: (Sim:1h1m50s) 
CPU  0 inst:  266000005 cyc:  179917077 now IPC :1.42375: AVG IPC :1.47539: L2-Pf-HR :-nan: L2-HR :0.80956: (Sim:1h2m9s) 
CPU  0 inst:  267000005 cyc:  180594977 now IPC :1.47514: AVG IPC :1.47538: L2-Pf-HR :-nan: L2-HR :0.80965: (Sim:1h2m27s) 
CPU  0 inst:  268000003 cyc:  181267049 now IPC :1.48793: AVG IPC :1.47543: L2-Pf-HR :-nan: L2-HR :0.80965: (Sim:1h2m45s) 
CPU  0 inst:  269000003 cyc:  181937444 now IPC :1.49166: AVG IPC :1.47549: L2-Pf-HR :-nan: L2-HR :0.80968: (Sim:1h3m3s) 
CPU  0 inst:  270000003 cyc:  182608611 now IPC :1.48994: AVG IPC :1.47554: L2-Pf-HR :-nan: L2-HR :0.80972: (Sim:1h3m22s) 
CPU  0 inst:  271000002 cyc:  183280339 now IPC :1.48870: AVG IPC :1.47559: L2-Pf-HR :-nan: L2-HR :0.80976: (Sim:1h3m39s) 
CPU  0 inst:  272000004 cyc:  183969945 now IPC :1.45011: AVG IPC :1.47550: L2-Pf-HR :-nan: L2-HR :0.80978: (Sim:1h3m57s) 
CPU  0 inst:  273000004 cyc:  184687902 now IPC :1.39284: AVG IPC :1.47517: L2-Pf-HR :-nan: L2-HR :0.80976: (Sim:1h4m15s) 
CPU  0 inst:  274000004 cyc:  185351406 now IPC :1.50715: AVG IPC :1.47529: L2-Pf-HR :-nan: L2-HR :0.80981: (Sim:1h4m33s) 
CPU  0 inst:  275000004 cyc:  186017470 now IPC :1.50136: AVG IPC :1.47538: L2-Pf-HR :-nan: L2-HR :0.80983: (Sim:1h4m51s) 
CPU  0 inst:  276000003 cyc:  186683558 now IPC :1.50130: AVG IPC :1.47548: L2-Pf-HR :-nan: L2-HR :0.80988: (Sim:1h5m9s) 
CPU  0 inst:  277000001 cyc:  187346671 now IPC :1.50804: AVG IPC :1.47559: L2-Pf-HR :-nan: L2-HR :0.80992: (Sim:1h5m27s) 
CPU  0 inst:  278000001 cyc:  188043744 now IPC :1.43457: AVG IPC :1.47544: L2-Pf-HR :-nan: L2-HR :0.80989: (Sim:1h5m45s) 
CPU  0 inst:  279000000 cyc:  188704832 now IPC :1.51266: AVG IPC :1.47557: L2-Pf-HR :-nan: L2-HR :0.80994: (Sim:1h6m4s) 
CPU  0 inst:  280000002 cyc:  189360469 now IPC :1.52524: AVG IPC :1.47574: L2-Pf-HR :-nan: L2-HR :0.80998: (Sim:1h6m22s) 
CPU  0 inst:  281000000 cyc:  190016554 now IPC :1.52419: AVG IPC :1.47591: L2-Pf-HR :-nan: L2-HR :0.81003: (Sim:1h6m41s) 
CPU  0 inst:  282000004 cyc:  190673698 now IPC :1.52174: AVG IPC :1.47607: L2-Pf-HR :-nan: L2-HR :0.81006: (Sim:1h7m0s) 
CPU  0 inst:  283000001 cyc:  191328564 now IPC :1.52703: AVG IPC :1.47625: L2-Pf-HR :-nan: L2-HR :0.81011: (Sim:1h7m19s) 
CPU  0 inst:  284000001 cyc:  192010973 now IPC :1.46540: AVG IPC :1.47621: L2-Pf-HR :-nan: L2-HR :0.81010: (Sim:1h7m38s) 
CPU  0 inst:  285000000 cyc:  192722518 now IPC :1.40539: AVG IPC :1.47594: L2-Pf-HR :-nan: L2-HR :0.81013: (Sim:1h7m56s) 
CPU  0 inst:  286000000 cyc:  193394560 now IPC :1.48800: AVG IPC :1.47599: L2-Pf-HR :-nan: L2-HR :0.81017: (Sim:1h8m15s) 
CPU  0 inst:  287000005 cyc:  194065180 now IPC :1.49116: AVG IPC :1.47604: L2-Pf-HR :-nan: L2-HR :0.81019: (Sim:1h8m33s) 
CPU  0 inst:  288000000 cyc:  194736439 now IPC :1.48973: AVG IPC :1.47609: L2-Pf-HR :-nan: L2-HR :0.81023: (Sim:1h8m52s) 
CPU  0 inst:  289000000 cyc:  195407996 now IPC :1.48908: AVG IPC :1.47613: L2-Pf-HR :-nan: L2-HR :0.81030: (Sim:1h9m10s) 
CPU  0 inst:  290000000 cyc:  196114705 now IPC :1.41501: AVG IPC :1.47591: L2-Pf-HR :-nan: L2-HR :0.81029: (Sim:1h9m28s) 
CPU  0 inst:  291000005 cyc:  196786331 now IPC :1.48893: AVG IPC :1.47595: L2-Pf-HR :-nan: L2-HR :0.81034: (Sim:1h9m44s) 
CPU  0 inst:  292000004 cyc:  197458573 now IPC :1.48756: AVG IPC :1.47599: L2-Pf-HR :-nan: L2-HR :0.81037: (Sim:1h10m2s) 
CPU  0 inst:  293000000 cyc:  198128186 now IPC :1.49339: AVG IPC :1.47605: L2-Pf-HR :-nan: L2-HR :0.81044: (Sim:1h10m21s) 
CPU  0 inst:  294000003 cyc:  198797133 now IPC :1.49489: AVG IPC :1.47612: L2-Pf-HR :-nan: L2-HR :0.81046: (Sim:1h10m39s) 
CPU  0 inst:  295000004 cyc:  199468177 now IPC :1.49022: AVG IPC :1.47616: L2-Pf-HR :-nan: L2-HR :0.81049: (Sim:1h10m57s) 
CPU  0 inst:  296000004 cyc:  200178758 now IPC :1.40730: AVG IPC :1.47592: L2-Pf-HR :-nan: L2-HR :0.81049: (Sim:1h11m16s) 
CPU  0 inst:  297000005 cyc:  200887499 now IPC :1.41095: AVG IPC :1.47569: L2-Pf-HR :-nan: L2-HR :0.81051: (Sim:1h11m34s) 
CPU  0 inst:  298000001 cyc:  201561411 now IPC :1.48387: AVG IPC :1.47572: L2-Pf-HR :-nan: L2-HR :0.81056: (Sim:1h11m53s) 
CPU  0 inst:  299000002 cyc:  202235922 now IPC :1.48256: AVG IPC :1.47574: L2-Pf-HR :-nan: L2-HR :0.81057: (Sim:1h12m11s) 
CPU  0 inst:  300000002 cyc:  202908402 now IPC :1.48703: AVG IPC :1.47578: L2-Pf-HR :-nan: L2-HR :0.81060: (Sim:1h12m29s) 
CPU  0 inst:  301000002 cyc:  203581523 now IPC :1.48562: AVG IPC :1.47581: L2-Pf-HR :-nan: L2-HR :0.81065: (Sim:1h12m47s) 
CPU  0 inst:  302000002 cyc:  204294335 now IPC :1.40289: AVG IPC :1.47555: L2-Pf-HR :-nan: L2-HR :0.81062: (Sim:1h13m5s) 
CPU  0 inst:  303000003 cyc:  204964658 now IPC :1.49182: AVG IPC :1.47561: L2-Pf-HR :-nan: L2-HR :0.81067: (Sim:1h13m23s) 
CPU  0 inst:  304000002 cyc:  205635652 now IPC :1.49032: AVG IPC :1.47566: L2-Pf-HR :-nan: L2-HR :0.81069: (Sim:1h13m41s) 
CPU  0 inst:  305000005 cyc:  206307005 now IPC :1.48953: AVG IPC :1.47570: L2-Pf-HR :-nan: L2-HR :0.81073: (Sim:1h13m59s) 
CPU  0 inst:  306000000 cyc:  206978652 now IPC :1.48887: AVG IPC :1.47574: L2-Pf-HR :-nan: L2-HR :0.81075: (Sim:1h14m17s) 
CPU  0 inst:  307000000 cyc:  207649405 now IPC :1.49086: AVG IPC :1.47579: L2-Pf-HR :-nan: L2-HR :0.81077: (Sim:1h14m35s) 
CPU  0 inst:  308000003 cyc:  208338521 now IPC :1.45114: AVG IPC :1.47571: L2-Pf-HR :-nan: L2-HR :0.81081: (Sim:1h14m53s) 
CPU  0 inst:  309000000 cyc:  209001411 now IPC :1.50854: AVG IPC :1.47582: L2-Pf-HR :-nan: L2-HR :0.81056: (Sim:1h15m12s) 
CPU  0 inst:  310000004 cyc:  209679210 now IPC :1.47537: AVG IPC :1.47581: L2-Pf-HR :-nan: L2-HR :0.81035: (Sim:1h15m27s) 
CPU  0 inst:  311000005 cyc:  210351443 now IPC :1.48758: AVG IPC :1.47585: L2-Pf-HR :-nan: L2-HR :0.81014: (Sim:1h15m45s) 
CPU  0 inst:  312000002 cyc:  211080297 now IPC :1.37201: AVG IPC :1.47549: L2-Pf-HR :-nan: L2-HR :0.80984: (Sim:1h16m4s) 
CPU  0 inst:  313000004 cyc:  211800229 now IPC :1.38902: AVG IPC :1.47520: L2-Pf-HR :-nan: L2-HR :0.80982: (Sim:1h16m22s) 
CPU  0 inst:  314000001 cyc:  212490601 now IPC :1.44849: AVG IPC :1.47511: L2-Pf-HR :-nan: L2-HR :0.80983: (Sim:1h16m41s) 
CPU  0 inst:  315000004 cyc:  213181995 now IPC :1.44636: AVG IPC :1.47502: L2-Pf-HR :-nan: L2-HR :0.80981: (Sim:1h16m59s) 
CPU  0 inst:  316000000 cyc:  213873190 now IPC :1.44676: AVG IPC :1.47492: L2-Pf-HR :-nan: L2-HR :0.80983: (Sim:1h17m18s) 
CPU  0 inst:  317000004 cyc:  214565205 now IPC :1.44506: AVG IPC :1.47483: L2-Pf-HR :-nan: L2-HR :0.80984: (Sim:1h17m33s) 
CPU  0 inst:  318000002 cyc:  215273969 now IPC :1.41090: AVG IPC :1.47462: L2-Pf-HR :-nan: L2-HR :0.80985: (Sim:1h17m50s) 
CPU  0 inst:  319000003 cyc:  215984012 now IPC :1.40837: AVG IPC :1.47440: L2-Pf-HR :-nan: L2-HR :0.80986: (Sim:1h18m8s) 
CPU  0 inst:  320000001 cyc:  216675439 now IPC :1.44628: AVG IPC :1.47431: L2-Pf-HR :-nan: L2-HR :0.80985: (Sim:1h18m26s) 
CPU  0 inst:  321000002 cyc:  217369896 now IPC :1.43998: AVG IPC :1.47420: L2-Pf-HR :-nan: L2-HR :0.80986: (Sim:1h18m40s) 
CPU  0 inst:  322000005 cyc:  218063932 now IPC :1.44085: AVG IPC :1.47409: L2-Pf-HR :-nan: L2-HR :0.80983: (Sim:1h18m53s) 
CPU  0 inst:  323000004 cyc:  218756880 now IPC :1.44311: AVG IPC :1.47399: L2-Pf-HR :-nan: L2-HR :0.80981: (Sim:1h19m11s) 
CPU  0 inst:  324000005 cyc:  219456597 now IPC :1.42915: AVG IPC :1.47385: L2-Pf-HR :-nan: L2-HR :0.80973: (Sim:1h19m30s) 
CPU  0 inst:  325000000 cyc:  220202990 now IPC :1.33977: AVG IPC :1.47339: L2-Pf-HR :-nan: L2-HR :0.80966: (Sim:1h19m49s) 
CPU  0 inst:  326000003 cyc:  220874601 now IPC :1.48896: AVG IPC :1.47344: L2-Pf-HR :-nan: L2-HR :0.80966: (Sim:1h20m7s) 
CPU  0 inst:  327000002 cyc:  221546437 now IPC :1.48846: AVG IPC :1.47348: L2-Pf-HR :-nan: L2-HR :0.80967: (Sim:1h20m26s) 
CPU  0 inst:  328000000 cyc:  222219867 now IPC :1.48493: AVG IPC :1.47352: L2-Pf-HR :-nan: L2-HR :0.80969: (Sim:1h20m44s) 
CPU  0 inst:  329000000 cyc:  222891215 now IPC :1.48954: AVG IPC :1.47357: L2-Pf-HR :-nan: L2-HR :0.80969: (Sim:1h21m2s) 
CPU  0 inst:  330000000 cyc:  223562502 now IPC :1.48968: AVG IPC :1.47362: L2-Pf-HR :-nan: L2-HR :0.80970: (Sim:1h21m21s) 
CPU  0 inst:  331000004 cyc:  224261396 now IPC :1.43084: AVG IPC :1.47348: L2-Pf-HR :-nan: L2-HR :0.80969: (Sim:1h21m39s) 
CPU  0 inst:  332000003 cyc:  224920459 now IPC :1.51730: AVG IPC :1.47361: L2-Pf-HR :-nan: L2-HR :0.80973: (Sim:1h21m57s) 
CPU  0 inst:  333000000 cyc:  225579059 now IPC :1.51837: AVG IPC :1.47374: L2-Pf-HR :-nan: L2-HR :0.80975: (Sim:1h22m15s) 
CPU  0 inst:  334000004 cyc:  226238275 now IPC :1.51696: AVG IPC :1.47387: L2-Pf-HR :-nan: L2-HR :0.80976: (Sim:1h22m33s) 
CPU  0 inst:  335000004 cyc:  226897207 now IPC :1.51761: AVG IPC :1.47400: L2-Pf-HR :-nan: L2-HR :0.80981: (Sim:1h22m51s) 
CPU  0 inst:  336000004 cyc:  227557408 now IPC :1.51469: AVG IPC :1.47412: L2-Pf-HR :-nan: L2-HR :0.80985: (Sim:1h23m10s) 
CPU  0 inst:  337000005 cyc:  228295162 now IPC :1.35547: AVG IPC :1.47373: L2-Pf-HR :-nan: L2-HR :0.80985: (Sim:1h23m25s) 
CPU  0 inst:  338000002 cyc:  228963280 now IPC :1.49674: AVG IPC :1.47380: L2-Pf-HR :-nan: L2-HR :0.80986: (Sim:1h23m42s) 
CPU  0 inst:  339000002 cyc:  229629690 now IPC :1.50058: AVG IPC :1.47388: L2-Pf-HR :-nan: L2-HR :0.80989: (Sim:1h24m0s) 
CPU  0 inst:  340000002 cyc:  230295400 now IPC :1.50216: AVG IPC :1.47396: L2-Pf-HR :-nan: L2-HR :0.80992: (Sim:1h24m18s) 
CPU  0 inst:  341000002 cyc:  230961354 now IPC :1.50161: AVG IPC :1.47404: L2-Pf-HR :-nan: L2-HR :0.80995: (Sim:1h24m37s) 
CPU  0 inst:  342000002 cyc:  231628356 now IPC :1.49925: AVG IPC :1.47411: L2-Pf-HR :-nan: L2-HR :0.80998: (Sim:1h24m55s) 
CPU  0 inst:  343000005 cyc:  232337667 now IPC :1.40982: AVG IPC :1.47391: L2-Pf-HR :-nan: L2-HR :0.81000: (Sim:1h25m13s) 
CPU  0 inst:  344000002 cyc:  233007732 now IPC :1.49239: AVG IPC :1.47397: L2-Pf-HR :-nan: L2-HR :0.81003: (Sim:1h25m31s) 
CPU  0 inst:  345000000 cyc:  233679211 now IPC :1.48925: AVG IPC :1.47401: L2-Pf-HR :-nan: L2-HR :0.81008: (Sim:1h25m49s) 
CPU  0 inst:  346000000 cyc:  234348683 now IPC :1.49371: AVG IPC :1.47407: L2-Pf-HR :-nan: L2-HR :0.81010: (Sim:1h26m7s) 
CPU  0 inst:  347000000 cyc:  235016650 now IPC :1.49708: AVG IPC :1.47413: L2-Pf-HR :-nan: L2-HR :0.81014: (Sim:1h26m25s) 
CPU  0 inst:  348000000 cyc:  235687534 now IPC :1.49057: AVG IPC :1.47418: L2-Pf-HR :-nan: L2-HR :0.81017: (Sim:1h26m44s) 
CPU  0 inst:  349000001 cyc:  236417558 now IPC :1.36982: AVG IPC :1.47386: L2-Pf-HR :-nan: L2-HR :0.81016: (Sim:1h27m2s) 
CPU  0 inst:  350000001 cyc:  237087892 now IPC :1.49179: AVG IPC :1.47391: L2-Pf-HR :-nan: L2-HR :0.81018: (Sim:1h27m20s) 
CPU  0 inst:  351000001 cyc:  237759181 now IPC :1.48967: AVG IPC :1.47395: L2-Pf-HR :-nan: L2-HR :0.81020: (Sim:1h27m39s) 
CPU  0 inst:  352000002 cyc:  238430655 now IPC :1.48926: AVG IPC :1.47400: L2-Pf-HR :-nan: L2-HR :0.81024: (Sim:1h27m57s) 
CPU  0 inst:  353000001 cyc:  239102429 now IPC :1.48859: AVG IPC :1.47404: L2-Pf-HR :-nan: L2-HR :0.81025: (Sim:1h28m14s) 
CPU  0 inst:  354000000 cyc:  239777233 now IPC :1.48191: AVG IPC :1.47406: L2-Pf-HR :-nan: L2-HR :0.81028: (Sim:1h28m32s) 
CPU  0 inst:  355000004 cyc:  240482009 now IPC :1.41890: AVG IPC :1.47390: L2-Pf-HR :-nan: L2-HR :0.81028: (Sim:1h28m50s) 
CPU  0 inst:  356000005 cyc:  241151303 now IPC :1.49411: AVG IPC :1.47395: L2-Pf-HR :-nan: L2-HR :0.81034: (Sim:1h29m9s) 
CPU  0 inst:  357000005 cyc:  241819946 now IPC :1.49557: AVG IPC :1.47401: L2-Pf-HR :-nan: L2-HR :0.81037: (Sim:1h29m27s) 
CPU  0 inst:  358000005 cyc:  242490104 now IPC :1.49219: AVG IPC :1.47406: L2-Pf-HR :-nan: L2-HR :0.81037: (Sim:1h29m45s) 
CPU  0 inst:  359000005 cyc:  243160343 now IPC :1.49201: AVG IPC :1.47411: L2-Pf-HR :-nan: L2-HR :0.81043: (Sim:1h30m3s) 
CPU  0 inst:  360000004 cyc:  243833615 now IPC :1.48528: AVG IPC :1.47414: L2-Pf-HR :-nan: L2-HR :0.81045: (Sim:1h30m22s) 
CPU  0 inst:  361000003 cyc:  244565515 now IPC :1.36631: AVG IPC :1.47382: L2-Pf-HR :-nan: L2-HR :0.81043: (Sim:1h30m40s) 
CPU  0 inst:  362000003 cyc:  245225558 now IPC :1.51505: AVG IPC :1.47393: L2-Pf-HR :-nan: L2-HR :0.81046: (Sim:1h30m58s) 
CPU  0 inst:  363000003 cyc:  245884866 now IPC :1.51674: AVG IPC :1.47405: L2-Pf-HR :-nan: L2-HR :0.81046: (Sim:1h31m11s) 
CPU  0 inst:  364000003 cyc:  246543360 now IPC :1.51862: AVG IPC :1.47417: L2-Pf-HR :-nan: L2-HR :0.81052: (Sim:1h31m22s) 
CPU  0 inst:  365000004 cyc:  247203911 now IPC :1.51389: AVG IPC :1.47427: L2-Pf-HR :-nan: L2-HR :0.81053: (Sim:1h31m38s) 
CPU  0 inst:  366000000 cyc:  247869555 now IPC :1.50230: AVG IPC :1.47435: L2-Pf-HR :-nan: L2-HR :0.81055: (Sim:1h31m53s) 
CPU  0 inst:  367000001 cyc:  248567025 now IPC :1.43375: AVG IPC :1.47423: L2-Pf-HR :-nan: L2-HR :0.81056: (Sim:1h32m9s) 
CPU  0 inst:  368000001 cyc:  249235526 now IPC :1.49588: AVG IPC :1.47429: L2-Pf-HR :-nan: L2-HR :0.81059: (Sim:1h32m28s) 
CPU  0 inst:  369000001 cyc:  249902751 now IPC :1.49874: AVG IPC :1.47436: L2-Pf-HR :-nan: L2-HR :0.81064: (Sim:1h32m47s) 
CPU  0 inst:  370000001 cyc:  250570555 now IPC :1.49745: AVG IPC :1.47442: L2-Pf-HR :-nan: L2-HR :0.81063: (Sim:1h33m6s) 
CPU  0 inst:  371000000 cyc:  251237320 now IPC :1.49978: AVG IPC :1.47449: L2-Pf-HR :-nan: L2-HR :0.81068: (Sim:1h33m25s) 
CPU  0 inst:  372000005 cyc:  251905211 now IPC :1.49726: AVG IPC :1.47455: L2-Pf-HR :-nan: L2-HR :0.81072: (Sim:1h33m43s) 
CPU  0 inst:  373000000 cyc:  252590604 now IPC :1.45901: AVG IPC :1.47451: L2-Pf-HR :-nan: L2-HR :0.81053: (Sim:1h34m1s) 
CPU  0 inst:  374000000 cyc:  253256328 now IPC :1.50212: AVG IPC :1.47458: L2-Pf-HR :-nan: L2-HR :0.81034: (Sim:1h34m19s) 
CPU  0 inst:  375000004 cyc:  253933011 now IPC :1.47780: AVG IPC :1.47459: L2-Pf-HR :-nan: L2-HR :0.81017: (Sim:1h34m36s) 
CPU  0 inst:  376000000 cyc:  254597961 now IPC :1.50387: AVG IPC :1.47466: L2-Pf-HR :-nan: L2-HR :0.81000: (Sim:1h34m45s) 
CPU  0 inst:  377000002 cyc:  255373830 now IPC :1.28888: AVG IPC :1.47410: L2-Pf-HR :-nan: L2-HR :0.80990: (Sim:1h34m55s) 
CPU  0 inst:  378000001 cyc:  256063666 now IPC :1.44962: AVG IPC :1.47403: L2-Pf-HR :-nan: L2-HR :0.80989: (Sim:1h35m5s) 
CPU  0 inst:  379000005 cyc:  256754717 now IPC :1.44708: AVG IPC :1.47396: L2-Pf-HR :-nan: L2-HR :0.80988: (Sim:1h35m19s) 
CPU  0 inst:  380000000 cyc:  257445255 now IPC :1.44814: AVG IPC :1.47389: L2-Pf-HR :-nan: L2-HR :0.80989: (Sim:1h35m38s) 
CPU  0 inst:  381000004 cyc:  258136161 now IPC :1.44738: AVG IPC :1.47382: L2-Pf-HR :-nan: L2-HR :0.80990: (Sim:1h35m56s) 
CPU  0 inst:  382000002 cyc:  258826163 now IPC :1.44927: AVG IPC :1.47375: L2-Pf-HR :-nan: L2-HR :0.80991: (Sim:1h36m15s) 
CPU  0 inst:  383000003 cyc:  259561530 now IPC :1.35987: AVG IPC :1.47343: L2-Pf-HR :-nan: L2-HR :0.80991: (Sim:1h36m28s) 
CPU  0 inst:  384000000 cyc:  260255758 now IPC :1.44044: AVG IPC :1.47334: L2-Pf-HR :-nan: L2-HR :0.80992: (Sim:1h36m45s) 
CPU  0 inst:  385000002 cyc:  260950515 now IPC :1.43936: AVG IPC :1.47325: L2-Pf-HR :-nan: L2-HR :0.80991: (Sim:1h37m3s) 
CPU  0 inst:  386000002 cyc:  261646595 now IPC :1.43662: AVG IPC :1.47315: L2-Pf-HR :-nan: L2-HR :0.80990: (Sim:1h37m21s) 
CPU  0 inst:  387000004 cyc:  262341559 now IPC :1.43893: AVG IPC :1.47306: L2-Pf-HR :-nan: L2-HR :0.80986: (Sim:1h37m39s) 
CPU  0 inst:  388000005 cyc:  263036692 now IPC :1.43858: AVG IPC :1.47297: L2-Pf-HR :-nan: L2-HR :0.80986: (Sim:1h37m58s) 
CPU  0 inst:  389000000 cyc:  263782102 now IPC :1.34154: AVG IPC :1.47260: L2-Pf-HR :-nan: L2-HR :0.80980: (Sim:1h38m11s) 
CPU  0 inst:  390000001 cyc:  264447199 now IPC :1.50354: AVG IPC :1.47267: L2-Pf-HR :-nan: L2-HR :0.80983: (Sim:1h38m21s) 
CPU  0 inst:  391000001 cyc:  265113832 now IPC :1.50008: AVG IPC :1.47274: L2-Pf-HR :-nan: L2-HR :0.80981: (Sim:1h38m39s) 
CPU  0 inst:  392000001 cyc:  265780355 now IPC :1.50032: AVG IPC :1.47281: L2-Pf-HR :-nan: L2-HR :0.80980: (Sim:1h38m48s) 
CPU  0 inst:  393000001 cyc:  266445396 now IPC :1.50367: AVG IPC :1.47289: L2-Pf-HR :-nan: L2-HR :0.80985: (Sim:1h38m58s) 
CPU  0 inst:  394000001 cyc:  267113893 now IPC :1.49589: AVG IPC :1.47295: L2-Pf-HR :-nan: L2-HR :0.80982: (Sim:1h39m12s) 
CPU  0 inst:  395000000 cyc:  267819873 now IPC :1.41647: AVG IPC :1.47280: L2-Pf-HR :-nan: L2-HR :0.80985: (Sim:1h39m31s) 
CPU  0 inst:  396000005 cyc:  268488345 now IPC :1.49596: AVG IPC :1.47286: L2-Pf-HR :-nan: L2-HR :0.80983: (Sim:1h39m49s) 
CPU  0 inst:  397000005 cyc:  269154511 now IPC :1.50113: AVG IPC :1.47293: L2-Pf-HR :-nan: L2-HR :0.80987: (Sim:1h40m7s) 
CPU  0 inst:  398000005 cyc:  269821405 now IPC :1.49949: AVG IPC :1.47299: L2-Pf-HR :-nan: L2-HR :0.80989: (Sim:1h40m25s) 
CPU  0 inst:  399000001 cyc:  270488376 now IPC :1.49931: AVG IPC :1.47306: L2-Pf-HR :-nan: L2-HR :0.80990: (Sim:1h40m43s) 
CPU  0 inst:  400000002 cyc:  271154278 now IPC :1.50172: AVG IPC :1.47313: L2-Pf-HR :-nan: L2-HR :0.80996: (Sim:1h41m2s) 
CPU  0 inst:  401000003 cyc:  271898375 now IPC :1.34391: AVG IPC :1.47277: L2-Pf-HR :-nan: L2-HR :0.80993: (Sim:1h41m21s) 
CPU  0 inst:  402000003 cyc:  272572039 now IPC :1.48442: AVG IPC :1.47280: L2-Pf-HR :-nan: L2-HR :0.80996: (Sim:1h41m39s) 
CPU  0 inst:  403000003 cyc:  273244927 now IPC :1.48613: AVG IPC :1.47283: L2-Pf-HR :-nan: L2-HR :0.80998: (Sim:1h41m54s) 
CPU  0 inst:  404000003 cyc:  273918957 now IPC :1.48361: AVG IPC :1.47286: L2-Pf-HR :-nan: L2-HR :0.80999: (Sim:1h42m7s) 
CPU  0 inst:  405000005 cyc:  274593181 now IPC :1.48319: AVG IPC :1.47289: L2-Pf-HR :-nan: L2-HR :0.81004: (Sim:1h42m21s) 
CPU  0 inst:  406000001 cyc:  275267233 now IPC :1.48356: AVG IPC :1.47291: L2-Pf-HR :-nan: L2-HR :0.81003: (Sim:1h42m37s) 
CPU  0 inst:  407000001 cyc:  275978056 now IPC :1.40682: AVG IPC :1.47274: L2-Pf-HR :-nan: L2-HR :0.81005: (Sim:1h42m55s) 
CPU  0 inst:  408000001 cyc:  276650920 now IPC :1.48618: AVG IPC :1.47277: L2-Pf-HR :-nan: L2-HR :0.81007: (Sim:1h43m13s) 
CPU  0 inst:  409000001 cyc:  277321408 now IPC :1.49145: AVG IPC :1.47282: L2-Pf-HR :-nan: L2-HR :0.81011: (Sim:1h43m27s) 
CPU  0 inst:  410000004 cyc:  277991326 now IPC :1.49272: AVG IPC :1.47287: L2-Pf-HR :-nan: L2-HR :0.81012: (Sim:1h43m45s) 
CPU  0 inst:  411000000 cyc:  278663465 now IPC :1.48778: AVG IPC :1.47290: L2-Pf-HR :-nan: L2-HR :0.81013: (Sim:1h44m3s) 
CPU  0 inst:  412000005 cyc:  279334838 now IPC :1.48949: AVG IPC :1.47294: L2-Pf-HR :-nan: L2-HR :0.81019: (Sim:1h44m22s) 
CPU  0 inst:  413000000 cyc:  280071879 now IPC :1.35677: AVG IPC :1.47264: L2-Pf-HR :-nan: L2-HR :0.81016: (Sim:1h44m40s) 
CPU  0 inst:  414000000 cyc:  280743147 now IPC :1.48972: AVG IPC :1.47268: L2-Pf-HR :-nan: L2-HR :0.81018: (Sim:1h44m59s) 
CPU  0 inst:  415000002 cyc:  281414977 now IPC :1.48847: AVG IPC :1.47272: L2-Pf-HR :-nan: L2-HR :0.81019: (Sim:1h45m14s) 
CPU  0 inst:  416000001 cyc:  282086773 now IPC :1.48855: AVG IPC :1.47275: L2-Pf-HR :-nan: L2-HR :0.81020: (Sim:1h45m32s) 
CPU  0 inst:  417000000 cyc:  282757523 now IPC :1.49087: AVG IPC :1.47280: L2-Pf-HR :-nan: L2-HR :0.81025: (Sim:1h45m50s) 
CPU  0 inst:  418000000 cyc:  283430658 now IPC :1.48559: AVG IPC :1.47283: L2-Pf-HR :-nan: L2-HR :0.81025: (Sim:1h46m8s) 
CPU  0 inst:  419000000 cyc:  284142344 now IPC :1.40511: AVG IPC :1.47266: L2-Pf-HR :-nan: L2-HR :0.81028: (Sim:1h46m27s) 
CPU  0 inst:  420000000 cyc:  284816368 now IPC :1.48363: AVG IPC :1.47268: L2-Pf-HR :-nan: L2-HR :0.81029: (Sim:1h46m45s) 
CPU  0 inst:  421000000 cyc:  285492781 now IPC :1.47839: AVG IPC :1.47270: L2-Pf-HR :-nan: L2-HR :0.81032: (Sim:1h47m3s) 
CPU  0 inst:  422000002 cyc:  286167327 now IPC :1.48248: AVG IPC :1.47272: L2-Pf-HR :-nan: L2-HR :0.81034: (Sim:1h47m21s) 
CPU  0 inst:  423000003 cyc:  286841625 now IPC :1.48303: AVG IPC :1.47274: L2-Pf-HR :-nan: L2-HR :0.81035: (Sim:1h47m40s) 
CPU  0 inst:  424000004 cyc:  287516340 now IPC :1.48211: AVG IPC :1.47277: L2-Pf-HR :-nan: L2-HR :0.81038: (Sim:1h47m58s) 
CPU  0 inst:  425000004 cyc:  288264279 now IPC :1.33701: AVG IPC :1.47241: L2-Pf-HR :-nan: L2-HR :0.81036: (Sim:1h48m17s) 
CPU  0 inst:  426000004 cyc:  288938377 now IPC :1.48346: AVG IPC :1.47244: L2-Pf-HR :-nan: L2-HR :0.81036: (Sim:1h48m35s) 
CPU  0 inst:  427000003 cyc:  289609825 now IPC :1.48932: AVG IPC :1.47248: L2-Pf-HR :-nan: L2-HR :0.81039: (Sim:1h48m52s) 
CPU  0 inst:  428000005 cyc:  290284914 now IPC :1.48129: AVG IPC :1.47250: L2-Pf-HR :-nan: L2-HR :0.81040: (Sim:1h49m8s) 
CPU  0 inst:  429000002 cyc:  290957501 now IPC :1.48679: AVG IPC :1.47253: L2-Pf-HR :-nan: L2-HR :0.81043: (Sim:1h49m27s) 
CPU  0 inst:  430000002 cyc:  291629235 now IPC :1.48868: AVG IPC :1.47257: L2-Pf-HR :-nan: L2-HR :0.81044: (Sim:1h49m45s) 
CPU  0 inst:  431000003 cyc:  292340915 now IPC :1.40513: AVG IPC :1.47240: L2-Pf-HR :-nan: L2-HR :0.81046: (Sim:1h50m2s) 
CPU  0 inst:  432000002 cyc:  293014127 now IPC :1.48541: AVG IPC :1.47243: L2-Pf-HR :-nan: L2-HR :0.81049: (Sim:1h50m20s) 
CPU  0 inst:  433000004 cyc:  293686983 now IPC :1.48621: AVG IPC :1.47247: L2-Pf-HR :-nan: L2-HR :0.81051: (Sim:1h50m37s) 
CPU  0 inst:  434000001 cyc:  294358634 now IPC :1.48886: AVG IPC :1.47250: L2-Pf-HR :-nan: L2-HR :0.81053: (Sim:1h50m52s) 
CPU  0 inst:  435000000 cyc:  295032854 now IPC :1.48319: AVG IPC :1.47253: L2-Pf-HR :-nan: L2-HR :0.81055: (Sim:1h51m11s) 
CPU  0 inst:  436000000 cyc:  295705282 now IPC :1.48715: AVG IPC :1.47256: L2-Pf-HR :-nan: L2-HR :0.81059: (Sim:1h51m29s) 
CPU  0 inst:  437000003 cyc:  296394646 now IPC :1.45062: AVG IPC :1.47251: L2-Pf-HR :-nan: L2-HR :0.81045: (Sim:1h51m48s) 
CPU  0 inst:  438000003 cyc:  297062131 now IPC :1.49816: AVG IPC :1.47257: L2-Pf-HR :-nan: L2-HR :0.81029: (Sim:1h52m6s) 
CPU  0 inst:  439000002 cyc:  297744599 now IPC :1.46527: AVG IPC :1.47255: L2-Pf-HR :-nan: L2-HR :0.81014: (Sim:1h52m24s) 
CPU  0 inst:  440000004 cyc:  298414618 now IPC :1.49250: AVG IPC :1.47260: L2-Pf-HR :-nan: L2-HR :0.81000: (Sim:1h52m42s) 
CPU  0 inst:  441000005 cyc:  299177516 now IPC :1.31079: AVG IPC :1.47218: L2-Pf-HR :-nan: L2-HR :0.80989: (Sim:1h53m1s) 
CPU  0 inst:  442000001 cyc:  299855877 now IPC :1.47414: AVG IPC :1.47219: L2-Pf-HR :-nan: L2-HR :0.80988: (Sim:1h53m20s) 
CPU  0 inst:  443000002 cyc:  300533063 now IPC :1.47670: AVG IPC :1.47220: L2-Pf-HR :-nan: L2-HR :0.80988: (Sim:1h53m38s) 
CPU  0 inst:  444000000 cyc:  301210496 now IPC :1.47616: AVG IPC :1.47221: L2-Pf-HR :-nan: L2-HR :0.80989: (Sim:1h53m56s) 
CPU  0 inst:  445000003 cyc:  301887749 now IPC :1.47656: AVG IPC :1.47222: L2-Pf-HR :-nan: L2-HR :0.80990: (Sim:1h54m14s) 
CPU  0 inst:  446000002 cyc:  302565108 now IPC :1.47632: AVG IPC :1.47223: L2-Pf-HR :-nan: L2-HR :0.80990: (Sim:1h54m33s) 
CPU  0 inst:  447000003 cyc:  303294602 now IPC :1.37081: AVG IPC :1.47198: L2-Pf-HR :-nan: L2-HR :0.80991: (Sim:1h54m51s) 
CPU  0 inst:  448000001 cyc:  303989775 now IPC :1.43849: AVG IPC :1.47190: L2-Pf-HR :-nan: L2-HR :0.80990: (Sim:1h55m9s) 
CPU  0 inst:  449000002 cyc:  304685150 now IPC :1.43807: AVG IPC :1.47183: L2-Pf-HR :-nan: L2-HR :0.80992: (Sim:1h55m27s) 
CPU  0 inst:  450000005 cyc:  305383044 now IPC :1.43289: AVG IPC :1.47174: L2-Pf-HR :-nan: L2-HR :0.80988: (Sim:1h55m46s) 
CPU  0 inst:  451000002 cyc:  306083005 now IPC :1.42865: AVG IPC :1.47164: L2-Pf-HR :-nan: L2-HR :0.80987: (Sim:1h56m4s) 
CPU  0 inst:  452000004 cyc:  306777429 now IPC :1.44005: AVG IPC :1.47157: L2-Pf-HR :-nan: L2-HR :0.80985: (Sim:1h56m23s) 
CPU  0 inst:  453000002 cyc:  307529820 now IPC :1.32909: AVG IPC :1.47122: L2-Pf-HR :-nan: L2-HR :0.80982: (Sim:1h56m41s) 
CPU  0 inst:  454000002 cyc:  308203780 now IPC :1.48377: AVG IPC :1.47124: L2-Pf-HR :-nan: L2-HR :0.80983: (Sim:1h57m0s) 
CPU  0 inst:  455000004 cyc:  308877501 now IPC :1.48430: AVG IPC :1.47127: L2-Pf-HR :-nan: L2-HR :0.80982: (Sim:1h57m18s) 
CPU  0 inst:  456000001 cyc:  309550094 now IPC :1.48678: AVG IPC :1.47131: L2-Pf-HR :-nan: L2-HR :0.80982: (Sim:1h57m36s) 
CPU  0 inst:  457000000 cyc:  310225415 now IPC :1.48078: AVG IPC :1.47133: L2-Pf-HR :-nan: L2-HR :0.80983: (Sim:1h57m55s) 
CPU  0 inst:  458000000 cyc:  310900986 now IPC :1.48023: AVG IPC :1.47135: L2-Pf-HR :-nan: L2-HR :0.80983: (Sim:1h58m12s) 
CPU  0 inst:  459000000 cyc:  311601319 now IPC :1.42789: AVG IPC :1.47125: L2-Pf-HR :-nan: L2-HR :0.80982: (Sim:1h58m29s) 
CPU  0 inst:  460000000 cyc:  312260289 now IPC :1.51752: AVG IPC :1.47135: L2-Pf-HR :-nan: L2-HR :0.80984: (Sim:1h58m47s) 
CPU  0 inst:  461000005 cyc:  312919728 now IPC :1.51645: AVG IPC :1.47144: L2-Pf-HR :-nan: L2-HR :0.80987: (Sim:1h59m4s) 
CPU  0 inst:  462000002 cyc:  313578888 now IPC :1.51708: AVG IPC :1.47154: L2-Pf-HR :-nan: L2-HR :0.80987: (Sim:1h59m22s) 
CPU  0 inst:  463000003 cyc:  314236283 now IPC :1.52116: AVG IPC :1.47164: L2-Pf-HR :-nan: L2-HR :0.80991: (Sim:1h59m40s) 
CPU  0 inst:  464000004 cyc:  314895906 now IPC :1.51602: AVG IPC :1.47174: L2-Pf-HR :-nan: L2-HR :0.80993: (Sim:1h59m54s) 
CPU  0 inst:  465000004 cyc:  315623314 now IPC :1.37474: AVG IPC :1.47151: L2-Pf-HR :-nan: L2-HR :0.80991: (Sim:2h0m13s) 
CPU  0 inst:  466000001 cyc:  316280894 now IPC :1.52072: AVG IPC :1.47161: L2-Pf-HR :-nan: L2-HR :0.80994: (Sim:2h0m31s) 
CPU  0 inst:  467000000 cyc:  316941250 now IPC :1.51433: AVG IPC :1.47170: L2-Pf-HR :-nan: L2-HR :0.80996: (Sim:2h0m49s) 
CPU  0 inst:  468000000 cyc:  317600308 now IPC :1.51732: AVG IPC :1.47180: L2-Pf-HR :-nan: L2-HR :0.80997: (Sim:2h1m7s) 
CPU  0 inst:  469000002 cyc:  318258614 now IPC :1.51905: AVG IPC :1.47190: L2-Pf-HR :-nan: L2-HR :0.80999: (Sim:2h1m26s) 
CPU  0 inst:  470000002 cyc:  318915925 now IPC :1.52135: AVG IPC :1.47200: L2-Pf-HR :-nan: L2-HR :0.81003: (Sim:2h1m44s) 
CPU  0 inst:  471000002 cyc:  319622997 now IPC :1.41428: AVG IPC :1.47187: L2-Pf-HR :-nan: L2-HR :0.81007: (Sim:2h2m2s) 
CPU  0 inst:  472000001 cyc:  320293817 now IPC :1.49071: AVG IPC :1.47191: L2-Pf-HR :-nan: L2-HR :0.81008: (Sim:2h2m20s) 
CPU  0 inst:  473000004 cyc:  320963306 now IPC :1.49368: AVG IPC :1.47196: L2-Pf-HR :-nan: L2-HR :0.81011: (Sim:2h2m39s) 
CPU  0 inst:  474000000 cyc:  321634775 now IPC :1.48927: AVG IPC :1.47199: L2-Pf-HR :-nan: L2-HR :0.81013: (Sim:2h2m57s) 
CPU  0 inst:  475000000 cyc:  322304406 now IPC :1.49336: AVG IPC :1.47204: L2-Pf-HR :-nan: L2-HR :0.81017: (Sim:2h3m12s) 
CPU  0 inst:  476000000 cyc:  322974565 now IPC :1.49218: AVG IPC :1.47208: L2-Pf-HR :-nan: L2-HR :0.81019: (Sim:2h3m31s) 
CPU  0 inst:  477000000 cyc:  323705277 now IPC :1.36853: AVG IPC :1.47184: L2-Pf-HR :-nan: L2-HR :0.81018: (Sim:2h3m50s) 
CPU  0 inst:  478000000 cyc:  324367337 now IPC :1.51044: AVG IPC :1.47192: L2-Pf-HR :-nan: L2-HR :0.81020: (Sim:2h4m9s) 
CPU  0 inst:  479000000 cyc:  325028285 now IPC :1.51298: AVG IPC :1.47201: L2-Pf-HR :-nan: L2-HR :0.81020: (Sim:2h4m23s) 
CPU  0 inst:  480000001 cyc:  325687761 now IPC :1.51636: AVG IPC :1.47210: L2-Pf-HR :-nan: L2-HR :0.81024: (Sim:2h4m41s) 
CPU  0 inst:  481000001 cyc:  326349789 now IPC :1.51051: AVG IPC :1.47217: L2-Pf-HR :-nan: L2-HR :0.81025: (Sim:2h4m52s) 
CPU  0 inst:  482000001 cyc:  327011413 now IPC :1.51143: AVG IPC :1.47225: L2-Pf-HR :-nan: L2-HR :0.81027: (Sim:2h5m4s) 
CPU  0 inst:  483000003 cyc:  327715336 now IPC :1.42061: AVG IPC :1.47214: L2-Pf-HR :-nan: L2-HR :0.81029: (Sim:2h5m22s) 
CPU  0 inst:  484000000 cyc:  328383634 now IPC :1.49633: AVG IPC :1.47219: L2-Pf-HR :-nan: L2-HR :0.81031: (Sim:2h5m40s) 
CPU  0 inst:  485000004 cyc:  329051005 now IPC :1.49842: AVG IPC :1.47225: L2-Pf-HR :-nan: L2-HR :0.81034: (Sim:2h5m57s) 
CPU  0 inst:  486000004 cyc:  329717723 now IPC :1.49988: AVG IPC :1.47230: L2-Pf-HR :-nan: L2-HR :0.81034: (Sim:2h6m16s) 
CPU  0 inst:  487000002 cyc:  330383722 now IPC :1.50150: AVG IPC :1.47236: L2-Pf-HR :-nan: L2-HR :0.81038: (Sim:2h6m35s) 
CPU  0 inst:  488000002 cyc:  331052825 now IPC :1.49454: AVG IPC :1.47241: L2-Pf-HR :-nan: L2-HR :0.81040: (Sim:2h6m54s) 
CPU  0 inst:  489000005 cyc:  331792928 now IPC :1.35117: AVG IPC :1.47213: L2-Pf-HR :-nan: L2-HR :0.81039: (Sim:2h7m13s) 
CPU  0 inst:  490000005 cyc:  332458084 now IPC :1.50341: AVG IPC :1.47220: L2-Pf-HR :-nan: L2-HR :0.81042: (Sim:2h7m30s) 
CPU  0 inst:  491000005 cyc:  333126475 now IPC :1.49613: AVG IPC :1.47225: L2-Pf-HR :-nan: L2-HR :0.81041: (Sim:2h7m49s) 
CPU  0 inst:  492000000 cyc:  333791815 now IPC :1.50298: AVG IPC :1.47231: L2-Pf-HR :-nan: L2-HR :0.81045: (Sim:2h8m8s) 
CPU  0 inst:  493000003 cyc:  334458903 now IPC :1.49906: AVG IPC :1.47236: L2-Pf-HR :-nan: L2-HR :0.81047: (Sim:2h8m26s) 
CPU  0 inst:  494000004 cyc:  335128081 now IPC :1.49437: AVG IPC :1.47240: L2-Pf-HR :-nan: L2-HR :0.81047: (Sim:2h8m45s) 
CPU  0 inst:  495000002 cyc:  335837297 now IPC :1.41000: AVG IPC :1.47227: L2-Pf-HR :-nan: L2-HR :0.81049: (Sim:2h9m4s) 
xz: 770-tot_memTraces_v5/120-subBillion_s2048_LLM_Arch/memTraces[1979000000]_FE_[GPT-Neo-125M]_[h12]_[s2048]_[d64].champsim.9.xz: Unexpected end of input
*** Reached end of trace for Core: 0 Repeating trace: 770-tot_memTraces_v5/120-subBillion_s2048_LLM_Arch/memTraces[1979000000]_FE_[GPT-Neo-125M]_[h12]_[s2048]_[d64].champsim.9.xz
CPU  0 inst:  496000003 cyc:  336749697 now IPC :1.09601: AVG IPC :1.47125: L2-Pf-HR :-nan: L2-HR :0.81035: (Sim:2h9m23s) 
CPU  0 inst:  497000001 cyc:  337443123 now IPC :1.44211: AVG IPC :1.47119: L2-Pf-HR :-nan: L2-HR :0.81035: (Sim:2h9m41s) 
CPU  0 inst:  498000005 cyc:  338139110 now IPC :1.43681: AVG IPC :1.47112: L2-Pf-HR :-nan: L2-HR :0.81033: (Sim:2h9m55s) 
CPU  0 inst:  499000000 cyc:  338835199 now IPC :1.43659: AVG IPC :1.47105: L2-Pf-HR :-nan: L2-HR :0.81034: (Sim:2h10m10s) 
CPU  0 inst:  500000003 cyc:  339531810 now IPC :1.43553: AVG IPC :1.47097: L2-Pf-HR :-nan: L2-HR :0.81034: (Sim:2h10m20s) 
CPU  0 inst:  501000005 cyc:  340223734 now IPC :1.44525: AVG IPC :1.47092: L2-Pf-HR :-nan: L2-HR :0.81035: (Sim:2h10m33s) 
CPU  0 inst:  502000002 cyc:  340954823 now IPC :1.36782: AVG IPC :1.47070: L2-Pf-HR :-nan: L2-HR :0.81035: (Sim:2h10m50s) 
CPU  0 inst:  503000002 cyc:  341644744 now IPC :1.44944: AVG IPC :1.47066: L2-Pf-HR :-nan: L2-HR :0.81034: (Sim:2h11m9s) 
CPU  0 inst:  504000002 cyc:  342339226 now IPC :1.43992: AVG IPC :1.47060: L2-Pf-HR :-nan: L2-HR :0.81029: (Sim:2h11m27s) 
CPU  0 inst:  505000000 cyc:  343030790 now IPC :1.44599: AVG IPC :1.47055: L2-Pf-HR :-nan: L2-HR :0.81024: (Sim:2h11m41s) 
CPU  0 inst:  506000000 cyc:  343719410 now IPC :1.45218: AVG IPC :1.47051: L2-Pf-HR :-nan: L2-HR :0.81019: (Sim:2h11m50s) 
CPU  0 inst:  507000005 cyc:  344411420 now IPC :1.44507: AVG IPC :1.47046: L2-Pf-HR :-nan: L2-HR :0.81014: (Sim:2h12m0s) 
CPU  0 inst:  508000003 cyc:  345179882 now IPC :1.30130: AVG IPC :1.47008: L2-Pf-HR :-nan: L2-HR :0.81008: (Sim:2h12m13s) 
CPU  0 inst:  509000003 cyc:  345853408 now IPC :1.48472: AVG IPC :1.47011: L2-Pf-HR :-nan: L2-HR :0.81004: (Sim:2h12m25s) 
CPU  0 inst:  510000000 cyc:  346525530 now IPC :1.48782: AVG IPC :1.47014: L2-Pf-HR :-nan: L2-HR :0.81005: (Sim:2h12m42s) 
CPU  0 inst:  511000001 cyc:  347199432 now IPC :1.48390: AVG IPC :1.47017: L2-Pf-HR :-nan: L2-HR :0.81005: (Sim:2h12m58s) 
CPU  0 inst:  512000003 cyc:  347873145 now IPC :1.48431: AVG IPC :1.47020: L2-Pf-HR :-nan: L2-HR :0.81006: (Sim:2h13m16s) 
CPU  0 inst:  513000000 cyc:  348545777 now IPC :1.48669: AVG IPC :1.47023: L2-Pf-HR :-nan: L2-HR :0.81007: (Sim:2h13m34s) 
CPU  0 inst:  514000001 cyc:  349257039 now IPC :1.40595: AVG IPC :1.47010: L2-Pf-HR :-nan: L2-HR :0.81009: (Sim:2h13m52s) 
CPU  0 inst:  515000000 cyc:  349927328 now IPC :1.49189: AVG IPC :1.47014: L2-Pf-HR :-nan: L2-HR :0.81013: (Sim:2h14m10s) 
CPU  0 inst:  516000005 cyc:  350598183 now IPC :1.49064: AVG IPC :1.47018: L2-Pf-HR :-nan: L2-HR :0.81012: (Sim:2h14m28s) 
CPU  0 inst:  517000000 cyc:  351267490 now IPC :1.49408: AVG IPC :1.47022: L2-Pf-HR :-nan: L2-HR :0.81014: (Sim:2h14m46s) 
CPU  0 inst:  518000000 cyc:  351939831 now IPC :1.48734: AVG IPC :1.47026: L2-Pf-HR :-nan: L2-HR :0.81016: (Sim:2h15m4s) 
CPU  0 inst:  519000005 cyc:  352611410 now IPC :1.48904: AVG IPC :1.47029: L2-Pf-HR :-nan: L2-HR :0.81018: (Sim:2h15m22s) 
CPU  0 inst:  520000005 cyc:  353350599 now IPC :1.35283: AVG IPC :1.47005: L2-Pf-HR :-nan: L2-HR :0.81018: (Sim:2h15m40s) 
CPU  0 inst:  521000000 cyc:  354018288 now IPC :1.49770: AVG IPC :1.47010: L2-Pf-HR :-nan: L2-HR :0.81018: (Sim:2h15m58s) 
CPU  0 inst:  522000000 cyc:  354682483 now IPC :1.50558: AVG IPC :1.47017: L2-Pf-HR :-nan: L2-HR :0.81020: (Sim:2h16m16s) 
CPU  0 inst:  523000005 cyc:  355347053 now IPC :1.50474: AVG IPC :1.47023: L2-Pf-HR :-nan: L2-HR :0.81022: (Sim:2h16m34s) 
CPU  0 inst:  524000002 cyc:  356013828 now IPC :1.49975: AVG IPC :1.47029: L2-Pf-HR :-nan: L2-HR :0.81025: (Sim:2h16m49s) 
CPU  0 inst:  525000003 cyc:  356678355 now IPC :1.50483: AVG IPC :1.47035: L2-Pf-HR :-nan: L2-HR :0.81026: (Sim:2h17m1s) 
CPU  0 inst:  526000003 cyc:  357376932 now IPC :1.43148: AVG IPC :1.47027: L2-Pf-HR :-nan: L2-HR :0.81025: (Sim:2h17m14s) 
CPU  0 inst:  527000001 cyc:  358031466 now IPC :1.52780: AVG IPC :1.47038: L2-Pf-HR :-nan: L2-HR :0.81028: (Sim:2h17m27s) 
CPU  0 inst:  528000001 cyc:  358688345 now IPC :1.52235: AVG IPC :1.47047: L2-Pf-HR :-nan: L2-HR :0.81030: (Sim:2h17m45s) 
CPU  0 inst:  529000001 cyc:  359344470 now IPC :1.52410: AVG IPC :1.47057: L2-Pf-HR :-nan: L2-HR :0.81032: (Sim:2h18m4s) 
CPU  0 inst:  530000001 cyc:  359999911 now IPC :1.52569: AVG IPC :1.47067: L2-Pf-HR :-nan: L2-HR :0.81034: (Sim:2h18m22s) 
CPU  0 inst:  531000001 cyc:  360656108 now IPC :1.52393: AVG IPC :1.47077: L2-Pf-HR :-nan: L2-HR :0.81036: (Sim:2h18m41s) 
CPU  0 inst:  532000002 cyc:  361382189 now IPC :1.37726: AVG IPC :1.47058: L2-Pf-HR :-nan: L2-HR :0.81036: (Sim:2h18m59s) 
CPU  0 inst:  533000002 cyc:  362052970 now IPC :1.49080: AVG IPC :1.47062: L2-Pf-HR :-nan: L2-HR :0.81037: (Sim:2h19m17s) 
CPU  0 inst:  534000001 cyc:  362724641 now IPC :1.48882: AVG IPC :1.47065: L2-Pf-HR :-nan: L2-HR :0.81039: (Sim:2h19m35s) 
CPU  0 inst:  535000004 cyc:  363397636 now IPC :1.48590: AVG IPC :1.47068: L2-Pf-HR :-nan: L2-HR :0.81040: (Sim:2h19m53s) 
CPU  0 inst:  536000000 cyc:  364068144 now IPC :1.49140: AVG IPC :1.47072: L2-Pf-HR :-nan: L2-HR :0.81043: (Sim:2h20m7s) 
CPU  0 inst:  537000002 cyc:  364737271 now IPC :1.49449: AVG IPC :1.47076: L2-Pf-HR :-nan: L2-HR :0.81046: (Sim:2h20m16s) 
CPU  0 inst:  538000002 cyc:  365447761 now IPC :1.40748: AVG IPC :1.47064: L2-Pf-HR :-nan: L2-HR :0.81046: (Sim:2h20m31s) 
CPU  0 inst:  539000000 cyc:  366117409 now IPC :1.49332: AVG IPC :1.47068: L2-Pf-HR :-nan: L2-HR :0.81048: (Sim:2h20m48s) 
CPU  0 inst:  540000002 cyc:  366788073 now IPC :1.49106: AVG IPC :1.47072: L2-Pf-HR :-nan: L2-HR :0.81050: (Sim:2h21m6s) 
CPU  0 inst:  541000000 cyc:  367458764 now IPC :1.49100: AVG IPC :1.47076: L2-Pf-HR :-nan: L2-HR :0.81053: (Sim:2h21m23s) 
CPU  0 inst:  542000000 cyc:  368129169 now IPC :1.49164: AVG IPC :1.47080: L2-Pf-HR :-nan: L2-HR :0.81054: (Sim:2h21m41s) 
CPU  0 inst:  543000000 cyc:  368798778 now IPC :1.49341: AVG IPC :1.47084: L2-Pf-HR :-nan: L2-HR :0.81057: (Sim:2h21m59s) 
CPU  0 inst:  544000004 cyc:  369545239 now IPC :1.33966: AVG IPC :1.47057: L2-Pf-HR :-nan: L2-HR :0.81056: (Sim:2h22m17s) 
CPU  0 inst:  545000003 cyc:  370220306 now IPC :1.48133: AVG IPC :1.47059: L2-Pf-HR :-nan: L2-HR :0.81057: (Sim:2h22m35s) 
CPU  0 inst:  546000004 cyc:  370893174 now IPC :1.48618: AVG IPC :1.47062: L2-Pf-HR :-nan: L2-HR :0.81059: (Sim:2h22m52s) 
CPU  0 inst:  547000004 cyc:  371566178 now IPC :1.48588: AVG IPC :1.47065: L2-Pf-HR :-nan: L2-HR :0.81060: (Sim:2h23m10s) 
CPU  0 inst:  548000004 cyc:  372239834 now IPC :1.48444: AVG IPC :1.47067: L2-Pf-HR :-nan: L2-HR :0.81062: (Sim:2h23m28s) 
CPU  0 inst:  549000004 cyc:  372913128 now IPC :1.48524: AVG IPC :1.47070: L2-Pf-HR :-nan: L2-HR :0.81064: (Sim:2h23m47s) 
CPU  0 inst:  550000003 cyc:  373623818 now IPC :1.40708: AVG IPC :1.47058: L2-Pf-HR :-nan: L2-HR :0.81063: (Sim:2h24m5s) 
CPU  0 inst:  551000004 cyc:  374295657 now IPC :1.48845: AVG IPC :1.47061: L2-Pf-HR :-nan: L2-HR :0.81065: (Sim:2h24m24s) 
CPU  0 inst:  552000001 cyc:  374967742 now IPC :1.48790: AVG IPC :1.47064: L2-Pf-HR :-nan: L2-HR :0.81067: (Sim:2h24m42s) 
CPU  0 inst:  553000000 cyc:  375637783 now IPC :1.49244: AVG IPC :1.47068: L2-Pf-HR :-nan: L2-HR :0.81069: (Sim:2h25m1s) 
CPU  0 inst:  554000002 cyc:  376307695 now IPC :1.49274: AVG IPC :1.47072: L2-Pf-HR :-nan: L2-HR :0.81070: (Sim:2h25m20s) 
CPU  0 inst:  555000002 cyc:  376980250 now IPC :1.48687: AVG IPC :1.47075: L2-Pf-HR :-nan: L2-HR :0.81072: (Sim:2h25m38s) 
CPU  0 inst:  556000000 cyc:  377667521 now IPC :1.45503: AVG IPC :1.47072: L2-Pf-HR :-nan: L2-HR :0.81069: (Sim:2h25m57s) 
CPU  0 inst:  557000001 cyc:  378331843 now IPC :1.50530: AVG IPC :1.47078: L2-Pf-HR :-nan: L2-HR :0.81056: (Sim:2h26m16s) 
CPU  0 inst:  558000001 cyc:  379010639 now IPC :1.47320: AVG IPC :1.47078: L2-Pf-HR :-nan: L2-HR :0.81044: (Sim:2h26m34s) 
CPU  0 inst:  559000003 cyc:  379681239 now IPC :1.49120: AVG IPC :1.47082: L2-Pf-HR :-nan: L2-HR :0.81033: (Sim:2h26m53s) 
CPU  0 inst:  560000003 cyc:  380447291 now IPC :1.30539: AVG IPC :1.47049: L2-Pf-HR :-nan: L2-HR :0.81019: (Sim:2h27m12s) 
CPU  0 inst:  561000001 cyc:  381135352 now IPC :1.45336: AVG IPC :1.47045: L2-Pf-HR :-nan: L2-HR :0.81018: (Sim:2h27m30s) 
CPU  0 inst:  562000002 cyc:  381826296 now IPC :1.44730: AVG IPC :1.47041: L2-Pf-HR :-nan: L2-HR :0.81018: (Sim:2h27m47s) 
CPU  0 inst:  563000000 cyc:  382518664 now IPC :1.44432: AVG IPC :1.47037: L2-Pf-HR :-nan: L2-HR :0.81018: (Sim:2h28m1s) 
CPU  0 inst:  564000000 cyc:  383210550 now IPC :1.44532: AVG IPC :1.47032: L2-Pf-HR :-nan: L2-HR :0.81018: (Sim:2h28m20s) 
CPU  0 inst:  565000005 cyc:  383902507 now IPC :1.44518: AVG IPC :1.47027: L2-Pf-HR :-nan: L2-HR :0.81019: (Sim:2h28m39s) 
CPU  0 inst:  566000005 cyc:  384632507 now IPC :1.36986: AVG IPC :1.47008: L2-Pf-HR :-nan: L2-HR :0.81019: (Sim:2h28m56s) 
CPU  0 inst:  567000001 cyc:  385321814 now IPC :1.45073: AVG IPC :1.47005: L2-Pf-HR :-nan: L2-HR :0.81020: (Sim:2h29m13s) 
CPU  0 inst:  568000002 cyc:  386015267 now IPC :1.44206: AVG IPC :1.47000: L2-Pf-HR :-nan: L2-HR :0.81019: (Sim:2h29m32s) 
CPU  0 inst:  569000000 cyc:  386708594 now IPC :1.44232: AVG IPC :1.46995: L2-Pf-HR :-nan: L2-HR :0.81019: (Sim:2h29m51s) 
CPU  0 inst:  570000003 cyc:  387402728 now IPC :1.44065: AVG IPC :1.46990: L2-Pf-HR :-nan: L2-HR :0.81018: (Sim:2h30m10s) 
CPU  0 inst:  571000001 cyc:  388097064 now IPC :1.44022: AVG IPC :1.46984: L2-Pf-HR :-nan: L2-HR :0.81016: (Sim:2h30m29s) 
CPU  0 inst:  572000004 cyc:  388863990 now IPC :1.30391: AVG IPC :1.46951: L2-Pf-HR :-nan: L2-HR :0.81007: (Sim:2h30m49s) 
CPU  0 inst:  573000003 cyc:  389534536 now IPC :1.49132: AVG IPC :1.46955: L2-Pf-HR :-nan: L2-HR :0.81008: (Sim:2h31m7s) 
CPU  0 inst:  574000001 cyc:  390207917 now IPC :1.48504: AVG IPC :1.46958: L2-Pf-HR :-nan: L2-HR :0.81008: (Sim:2h31m25s) 
CPU  0 inst:  575000002 cyc:  390879833 now IPC :1.48828: AVG IPC :1.46961: L2-Pf-HR :-nan: L2-HR :0.81009: (Sim:2h31m42s) 
CPU  0 inst:  576000002 cyc:  391551196 now IPC :1.48951: AVG IPC :1.46965: L2-Pf-HR :-nan: L2-HR :0.81010: (Sim:2h32m0s) 
CPU  0 inst:  577000002 cyc:  392224255 now IPC :1.48575: AVG IPC :1.46967: L2-Pf-HR :-nan: L2-HR :0.81009: (Sim:2h32m14s) 
CPU  0 inst:  578000002 cyc:  392931837 now IPC :1.41326: AVG IPC :1.46957: L2-Pf-HR :-nan: L2-HR :0.81010: (Sim:2h32m25s) 
CPU  0 inst:  579000005 cyc:  393591168 now IPC :1.51669: AVG IPC :1.46965: L2-Pf-HR :-nan: L2-HR :0.81009: (Sim:2h32m35s) 
CPU  0 inst:  580000000 cyc:  394249002 now IPC :1.52013: AVG IPC :1.46973: L2-Pf-HR :-nan: L2-HR :0.81012: (Sim:2h32m45s) 
CPU  0 inst:  581000000 cyc:  394908545 now IPC :1.51620: AVG IPC :1.46981: L2-Pf-HR :-nan: L2-HR :0.81013: (Sim:2h33m0s) 
CPU  0 inst:  582000000 cyc:  395567746 now IPC :1.51699: AVG IPC :1.46989: L2-Pf-HR :-nan: L2-HR :0.81013: (Sim:2h33m18s) 
CPU  0 inst:  583000000 cyc:  396225633 now IPC :1.52002: AVG IPC :1.46997: L2-Pf-HR :-nan: L2-HR :0.81017: (Sim:2h33m36s) 
CPU  0 inst:  584000001 cyc:  396961044 now IPC :1.35979: AVG IPC :1.46977: L2-Pf-HR :-nan: L2-HR :0.81016: (Sim:2h33m55s) 
CPU  0 inst:  585000003 cyc:  397627465 now IPC :1.50056: AVG IPC :1.46982: L2-Pf-HR :-nan: L2-HR :0.81018: (Sim:2h34m13s) 
CPU  0 inst:  586000004 cyc:  398294339 now IPC :1.49954: AVG IPC :1.46987: L2-Pf-HR :-nan: L2-HR :0.81019: (Sim:2h34m31s) 
CPU  0 inst:  587000004 cyc:  398961207 now IPC :1.49955: AVG IPC :1.46992: L2-Pf-HR :-nan: L2-HR :0.81021: (Sim:2h34m50s) 
CPU  0 inst:  588000004 cyc:  399628207 now IPC :1.49925: AVG IPC :1.46997: L2-Pf-HR :-nan: L2-HR :0.81023: (Sim:2h35m8s) 
CPU  0 inst:  589000005 cyc:  400294539 now IPC :1.50075: AVG IPC :1.47002: L2-Pf-HR :-nan: L2-HR :0.81024: (Sim:2h35m26s) 
CPU  0 inst:  590000001 cyc:  400999118 now IPC :1.41928: AVG IPC :1.46993: L2-Pf-HR :-nan: L2-HR :0.81026: (Sim:2h35m45s) 
CPU  0 inst:  591000004 cyc:  401671248 now IPC :1.48781: AVG IPC :1.46996: L2-Pf-HR :-nan: L2-HR :0.81027: (Sim:2h36m3s) 
CPU  0 inst:  592000002 cyc:  402341468 now IPC :1.49204: AVG IPC :1.47000: L2-Pf-HR :-nan: L2-HR :0.81029: (Sim:2h36m22s) 
CPU  0 inst:  593000002 cyc:  403010915 now IPC :1.49377: AVG IPC :1.47004: L2-Pf-HR :-nan: L2-HR :0.81031: (Sim:2h36m40s) 
CPU  0 inst:  594000002 cyc:  403681799 now IPC :1.49057: AVG IPC :1.47007: L2-Pf-HR :-nan: L2-HR :0.81033: (Sim:2h36m59s) 
CPU  0 inst:  595000002 cyc:  404350661 now IPC :1.49508: AVG IPC :1.47011: L2-Pf-HR :-nan: L2-HR :0.81036: (Sim:2h37m18s) 
CPU  0 inst:  596000005 cyc:  405080569 now IPC :1.37004: AVG IPC :1.46993: L2-Pf-HR :-nan: L2-HR :0.81034: (Sim:2h37m37s) 
CPU  0 inst:  597000000 cyc:  405751977 now IPC :1.48940: AVG IPC :1.46997: L2-Pf-HR :-nan: L2-HR :0.81036: (Sim:2h37m55s) 
CPU  0 inst:  598000003 cyc:  406423944 now IPC :1.48817: AVG IPC :1.47000: L2-Pf-HR :-nan: L2-HR :0.81037: (Sim:2h38m14s) 
CPU  0 inst:  599000003 cyc:  407094389 now IPC :1.49155: AVG IPC :1.47003: L2-Pf-HR :-nan: L2-HR :0.81039: (Sim:2h38m32s) 
CPU  0 inst:  600000000 cyc:  407764878 now IPC :1.49144: AVG IPC :1.47007: L2-Pf-HR :-nan: L2-HR :0.81041: (Sim:2h38m51s) 
CPU  0 inst:  601000005 cyc:  408438320 now IPC :1.48492: AVG IPC :1.47009: L2-Pf-HR :-nan: L2-HR :0.81041: (Sim:2h39m9s) 
CPU  0 inst:  602000000 cyc:  409147016 now IPC :1.41104: AVG IPC :1.46999: L2-Pf-HR :-nan: L2-HR :0.81043: (Sim:2h39m27s) 
CPU  0 inst:  603000003 cyc:  409815540 now IPC :1.49584: AVG IPC :1.47003: L2-Pf-HR :-nan: L2-HR :0.81044: (Sim:2h39m46s) 
CPU  0 inst:  604000001 cyc:  410484989 now IPC :1.49376: AVG IPC :1.47007: L2-Pf-HR :-nan: L2-HR :0.81046: (Sim:2h40m5s) 
CPU  0 inst:  605000001 cyc:  411155309 now IPC :1.49182: AVG IPC :1.47011: L2-Pf-HR :-nan: L2-HR :0.81048: (Sim:2h40m23s) 
CPU  0 inst:  606000001 cyc:  411824369 now IPC :1.49463: AVG IPC :1.47015: L2-Pf-HR :-nan: L2-HR :0.81048: (Sim:2h40m42s) 
CPU  0 inst:  607000004 cyc:  412494214 now IPC :1.49289: AVG IPC :1.47018: L2-Pf-HR :-nan: L2-HR :0.81052: (Sim:2h41m1s) 
CPU  0 inst:  608000005 cyc:  413239505 now IPC :1.34176: AVG IPC :1.46995: L2-Pf-HR :-nan: L2-HR :0.81050: (Sim:2h41m20s) 
CPU  0 inst:  609000005 cyc:  413897315 now IPC :1.52020: AVG IPC :1.47003: L2-Pf-HR :-nan: L2-HR :0.81052: (Sim:2h41m38s) 
CPU  0 inst:  610000005 cyc:  414555797 now IPC :1.51864: AVG IPC :1.47011: L2-Pf-HR :-nan: L2-HR :0.81053: (Sim:2h41m56s) 
CPU  0 inst:  611000005 cyc:  415216399 now IPC :1.51377: AVG IPC :1.47018: L2-Pf-HR :-nan: L2-HR :0.81054: (Sim:2h42m14s) 
CPU  0 inst:  612000002 cyc:  415875182 now IPC :1.51795: AVG IPC :1.47025: L2-Pf-HR :-nan: L2-HR :0.81057: (Sim:2h42m33s) 
CPU  0 inst:  613000002 cyc:  416534651 now IPC :1.51637: AVG IPC :1.47033: L2-Pf-HR :-nan: L2-HR :0.81057: (Sim:2h42m50s) 
CPU  0 inst:  614000005 cyc:  417234057 now IPC :1.42979: AVG IPC :1.47026: L2-Pf-HR :-nan: L2-HR :0.81059: (Sim:2h43m5s) 
CPU  0 inst:  615000003 cyc:  417903488 now IPC :1.49380: AVG IPC :1.47030: L2-Pf-HR :-nan: L2-HR :0.81059: (Sim:2h43m24s) 
CPU  0 inst:  616000003 cyc:  418569454 now IPC :1.50158: AVG IPC :1.47035: L2-Pf-HR :-nan: L2-HR :0.81061: (Sim:2h43m42s) 
CPU  0 inst:  617000003 cyc:  419236513 now IPC :1.49912: AVG IPC :1.47039: L2-Pf-HR :-nan: L2-HR :0.81063: (Sim:2h44m1s) 
CPU  0 inst:  618000003 cyc:  419905855 now IPC :1.49400: AVG IPC :1.47043: L2-Pf-HR :-nan: L2-HR :0.81064: (Sim:2h44m19s) 
CPU  0 inst:  619000003 cyc:  420572512 now IPC :1.50002: AVG IPC :1.47048: L2-Pf-HR :-nan: L2-HR :0.81067: (Sim:2h44m37s) 
CPU  0 inst:  620000002 cyc:  421260465 now IPC :1.45359: AVG IPC :1.47045: L2-Pf-HR :-nan: L2-HR :0.81066: (Sim:2h44m55s) 
CPU  0 inst:  621000003 cyc:  421925081 now IPC :1.50463: AVG IPC :1.47050: L2-Pf-HR :-nan: L2-HR :0.81054: (Sim:2h45m13s) 
CPU  0 inst:  622000000 cyc:  422604087 now IPC :1.47274: AVG IPC :1.47051: L2-Pf-HR :-nan: L2-HR :0.81043: (Sim:2h45m32s) 
CPU  0 inst:  623000000 cyc:  423269766 now IPC :1.50223: AVG IPC :1.47056: L2-Pf-HR :-nan: L2-HR :0.81032: (Sim:2h45m50s) 
CPU  0 inst:  624000003 cyc:  424028703 now IPC :1.31764: AVG IPC :1.47028: L2-Pf-HR :-nan: L2-HR :0.81019: (Sim:2h46m10s) 
CPU  0 inst:  625000001 cyc:  424719857 now IPC :1.44685: AVG IPC :1.47024: L2-Pf-HR :-nan: L2-HR :0.81019: (Sim:2h46m27s) 
CPU  0 inst:  626000002 cyc:  425410553 now IPC :1.44782: AVG IPC :1.47021: L2-Pf-HR :-nan: L2-HR :0.81018: (Sim:2h46m38s) 
CPU  0 inst:  627000000 cyc:  426101751 now IPC :1.44676: AVG IPC :1.47017: L2-Pf-HR :-nan: L2-HR :0.81018: (Sim:2h46m52s) 
CPU  0 inst:  628000004 cyc:  426791376 now IPC :1.45007: AVG IPC :1.47014: L2-Pf-HR :-nan: L2-HR :0.81019: (Sim:2h47m11s) 
CPU  0 inst:  629000005 cyc:  427482484 now IPC :1.44695: AVG IPC :1.47010: L2-Pf-HR :-nan: L2-HR :0.81019: (Sim:2h47m29s) 
CPU  0 inst:  630000002 cyc:  428211770 now IPC :1.37120: AVG IPC :1.46993: L2-Pf-HR :-nan: L2-HR :0.81020: (Sim:2h47m47s) 
CPU  0 inst:  631000004 cyc:  428908798 now IPC :1.43467: AVG IPC :1.46987: L2-Pf-HR :-nan: L2-HR :0.81020: (Sim:2h48m6s) 
CPU  0 inst:  632000000 cyc:  429604042 now IPC :1.43834: AVG IPC :1.46982: L2-Pf-HR :-nan: L2-HR :0.81020: (Sim:2h48m24s) 
CPU  0 inst:  633000000 cyc:  430298424 now IPC :1.44013: AVG IPC :1.46977: L2-Pf-HR :-nan: L2-HR :0.81019: (Sim:2h48m43s) 
CPU  0 inst:  634000001 cyc:  430994098 now IPC :1.43746: AVG IPC :1.46972: L2-Pf-HR :-nan: L2-HR :0.81018: (Sim:2h49m1s) 
CPU  0 inst:  635000005 cyc:  431689041 now IPC :1.43897: AVG IPC :1.46967: L2-Pf-HR :-nan: L2-HR :0.81016: (Sim:2h49m19s) 
CPU  0 inst:  636000003 cyc:  432420605 now IPC :1.36693: AVG IPC :1.46950: L2-Pf-HR :-nan: L2-HR :0.81012: (Sim:2h49m37s) 
CPU  0 inst:  637000003 cyc:  433120445 now IPC :1.42890: AVG IPC :1.46943: L2-Pf-HR :-nan: L2-HR :0.81013: (Sim:2h49m55s) 
[...]
CPU  0 inst: 1847000005 cyc: 1259150049 now IPC :1.35492: AVG IPC :1.46642: L2-Pf-HR :-nan: L2-HR :0.81059: (Sim:5h47m59s) 
CPU  0 inst: 1848000002 cyc: 1259808893 now IPC :1.51781: AVG IPC :1.46644: L2-Pf-HR :-nan: L2-HR :0.81060: (Sim:5h48m6s) 
CPU  0 inst: 1849000003 cyc: 1260469397 now IPC :1.51400: AVG IPC :1.46647: L2-Pf-HR :-nan: L2-HR :0.81060: (Sim:5h48m13s) 
CPU  0 inst: 1850000003 cyc: 1261128997 now IPC :1.51607: AVG IPC :1.46649: L2-Pf-HR :-nan: L2-HR :0.81061: (Sim:5h48m20s) 
CPU  0 inst: 1851000003 cyc: 1261788029 now IPC :1.51738: AVG IPC :1.46652: L2-Pf-HR :-nan: L2-HR :0.81061: (Sim:5h48m27s) 
CPU  0 inst: 1852000004 cyc: 1262446238 now IPC :1.51928: AVG IPC :1.46655: L2-Pf-HR :-nan: L2-HR :0.81062: (Sim:5h48m34s) 
CPU  0 inst: 1853000001 cyc: 1263149072 now IPC :1.42281: AVG IPC :1.46652: L2-Pf-HR :-nan: L2-HR :0.81062: (Sim:5h48m41s) 
CPU  0 inst: 1854000001 cyc: 1263818209 now IPC :1.49446: AVG IPC :1.46654: L2-Pf-HR :-nan: L2-HR :0.81062: (Sim:5h48m48s) 
CPU  0 inst: 1855000001 cyc: 1264484330 now IPC :1.50123: AVG IPC :1.46656: L2-Pf-HR :-nan: L2-HR :0.81063: (Sim:5h48m55s) 
CPU  0 inst: 1856000001 cyc: 1265151907 now IPC :1.49795: AVG IPC :1.46657: L2-Pf-HR :-nan: L2-HR :0.81063: (Sim:5h49m2s) 
CPU  0 inst: 1857000001 cyc: 1265819962 now IPC :1.49688: AVG IPC :1.46659: L2-Pf-HR :-nan: L2-HR :0.81064: (Sim:5h49m9s) 
CPU  0 inst: 1858000004 cyc: 1266487865 now IPC :1.49723: AVG IPC :1.46661: L2-Pf-HR :-nan: L2-HR :0.81064: (Sim:5h49m16s) 
CPU  0 inst: 1859000001 cyc: 1267172800 now IPC :1.45999: AVG IPC :1.46660: L2-Pf-HR :-nan: L2-HR :0.81062: (Sim:5h49m23s) 
CPU  0 inst: 1860000004 cyc: 1267838547 now IPC :1.50208: AVG IPC :1.46662: L2-Pf-HR :-nan: L2-HR :0.81058: (Sim:5h49m30s) 
CPU  0 inst: 1861000003 cyc: 1268517292 now IPC :1.47331: AVG IPC :1.46662: L2-Pf-HR :-nan: L2-HR :0.81055: (Sim:5h49m37s) 
CPU  0 inst: 1862000001 cyc: 1269182477 now IPC :1.50334: AVG IPC :1.46664: L2-Pf-HR :-nan: L2-HR :0.81052: (Sim:5h49m44s) 
CPU  0 inst: 1863000001 cyc: 1269950660 now IPC :1.30177: AVG IPC :1.46654: L2-Pf-HR :-nan: L2-HR :0.81049: (Sim:5h49m51s) 
CPU  0 inst: 1864000001 cyc: 1270641295 now IPC :1.44794: AVG IPC :1.46653: L2-Pf-HR :-nan: L2-HR :0.81048: (Sim:5h49m58s) 
CPU  0 inst: 1865000005 cyc: 1271331584 now IPC :1.44867: AVG IPC :1.46652: L2-Pf-HR :-nan: L2-HR :0.81048: (Sim:5h50m5s) 
CPU  0 inst: 1866000001 cyc: 1272024010 now IPC :1.44419: AVG IPC :1.46651: L2-Pf-HR :-nan: L2-HR :0.81048: (Sim:5h50m12s) 
CPU  0 inst: 1867000004 cyc: 1272716325 now IPC :1.44443: AVG IPC :1.46650: L2-Pf-HR :-nan: L2-HR :0.81048: (Sim:5h50m19s) 
CPU  0 inst: 1868000000 cyc: 1273405151 now IPC :1.45174: AVG IPC :1.46649: L2-Pf-HR :-nan: L2-HR :0.81049: (Sim:5h50m26s) 
CPU  0 inst: 1869000004 cyc: 1274137783 now IPC :1.36495: AVG IPC :1.46643: L2-Pf-HR :-nan: L2-HR :0.81049: (Sim:5h50m33s) 
CPU  0 inst: 1870000005 cyc: 1274832960 now IPC :1.43848: AVG IPC :1.46642: L2-Pf-HR :-nan: L2-HR :0.81049: (Sim:5h50m40s) 
CPU  0 inst: 1871000000 cyc: 1275527684 now IPC :1.43941: AVG IPC :1.46640: L2-Pf-HR :-nan: L2-HR :0.81048: (Sim:5h50m47s) 
CPU  0 inst: 1872000000 cyc: 1276221996 now IPC :1.44027: AVG IPC :1.46639: L2-Pf-HR :-nan: L2-HR :0.81048: (Sim:5h50m54s) 
CPU  0 inst: 1873000002 cyc: 1276919768 now IPC :1.43314: AVG IPC :1.46637: L2-Pf-HR :-nan: L2-HR :0.81047: (Sim:5h51m1s) 
CPU  0 inst: 1874000005 cyc: 1277614596 now IPC :1.43921: AVG IPC :1.46636: L2-Pf-HR :-nan: L2-HR :0.81047: (Sim:5h51m8s) 
CPU  0 inst: 1875000000 cyc: 1278368075 now IPC :1.32717: AVG IPC :1.46627: L2-Pf-HR :-nan: L2-HR :0.81046: (Sim:5h51m16s) 
CPU  0 inst: 1876000001 cyc: 1279034018 now IPC :1.50163: AVG IPC :1.46629: L2-Pf-HR :-nan: L2-HR :0.81046: (Sim:5h51m23s) 
CPU  0 inst: 1877000001 cyc: 1279699688 now IPC :1.50225: AVG IPC :1.46631: L2-Pf-HR :-nan: L2-HR :0.81046: (Sim:5h51m30s) 
CPU  0 inst: 1878000001 cyc: 1280365474 now IPC :1.50198: AVG IPC :1.46633: L2-Pf-HR :-nan: L2-HR :0.81046: (Sim:5h51m37s) 
CPU  0 inst: 1879000001 cyc: 1281031426 now IPC :1.50161: AVG IPC :1.46635: L2-Pf-HR :-nan: L2-HR :0.81047: (Sim:5h51m44s) 
CPU  0 inst: 1880000001 cyc: 1281699180 now IPC :1.49756: AVG IPC :1.46636: L2-Pf-HR :-nan: L2-HR :0.81047: (Sim:5h51m50s) 
CPU  0 inst: 1881000001 cyc: 1282404350 now IPC :1.41810: AVG IPC :1.46634: L2-Pf-HR :-nan: L2-HR :0.81047: (Sim:5h51m57s) 
CPU  0 inst: 1882000005 cyc: 1283075070 now IPC :1.49094: AVG IPC :1.46635: L2-Pf-HR :-nan: L2-HR :0.81046: (Sim:5h52m4s) 
CPU  0 inst: 1883000005 cyc: 1283742562 now IPC :1.49815: AVG IPC :1.46637: L2-Pf-HR :-nan: L2-HR :0.81047: (Sim:5h52m11s) 
CPU  0 inst: 1884000005 cyc: 1284408389 now IPC :1.50189: AVG IPC :1.46639: L2-Pf-HR :-nan: L2-HR :0.81048: (Sim:5h52m18s) 
CPU  0 inst: 1885000005 cyc: 1285074616 now IPC :1.50099: AVG IPC :1.46640: L2-Pf-HR :-nan: L2-HR :0.81048: (Sim:5h52m25s) 
CPU  0 inst: 1886000000 cyc: 1285742092 now IPC :1.49817: AVG IPC :1.46642: L2-Pf-HR :-nan: L2-HR :0.81049: (Sim:5h52m32s) 
CPU  0 inst: 1887000005 cyc: 1286485085 now IPC :1.34591: AVG IPC :1.46635: L2-Pf-HR :-nan: L2-HR :0.81048: (Sim:5h52m39s) 
CPU  0 inst: 1888000003 cyc: 1287157082 now IPC :1.48810: AVG IPC :1.46636: L2-Pf-HR :-nan: L2-HR :0.81049: (Sim:5h52m46s) 
CPU  0 inst: 1889000003 cyc: 1287830522 now IPC :1.48491: AVG IPC :1.46637: L2-Pf-HR :-nan: L2-HR :0.81049: (Sim:5h52m53s) 
CPU  0 inst: 1890000003 cyc: 1288505962 now IPC :1.48052: AVG IPC :1.46638: L2-Pf-HR :-nan: L2-HR :0.81049: (Sim:5h53m0s) 
CPU  0 inst: 1891000003 cyc: 1289178456 now IPC :1.48700: AVG IPC :1.46639: L2-Pf-HR :-nan: L2-HR :0.81050: (Sim:5h53m7s) 
CPU  0 inst: 1892000003 cyc: 1289853105 now IPC :1.48225: AVG IPC :1.46640: L2-Pf-HR :-nan: L2-HR :0.81050: (Sim:5h53m14s) 
CPU  0 inst: 1893000003 cyc: 1290564379 now IPC :1.40593: AVG IPC :1.46636: L2-Pf-HR :-nan: L2-HR :0.81051: (Sim:5h53m21s) 
CPU  0 inst: 1894000001 cyc: 1291238053 now IPC :1.48439: AVG IPC :1.46637: L2-Pf-HR :-nan: L2-HR :0.81051: (Sim:5h53m28s) 
CPU  0 inst: 1895000001 cyc: 1291908232 now IPC :1.49214: AVG IPC :1.46639: L2-Pf-HR :-nan: L2-HR :0.81052: (Sim:5h53m35s) 
CPU  0 inst: 1896000000 cyc: 1292578880 now IPC :1.49109: AVG IPC :1.46640: L2-Pf-HR :-nan: L2-HR :0.81052: (Sim:5h53m42s) 
CPU  0 inst: 1897000001 cyc: 1293250625 now IPC :1.48866: AVG IPC :1.46641: L2-Pf-HR :-nan: L2-HR :0.81052: (Sim:5h53m49s) 
CPU  0 inst: 1898000000 cyc: 1293920065 now IPC :1.49378: AVG IPC :1.46643: L2-Pf-HR :-nan: L2-HR :0.81053: (Sim:5h53m56s) 
CPU  0 inst: 1899000004 cyc: 1294660303 now IPC :1.35092: AVG IPC :1.46636: L2-Pf-HR :-nan: L2-HR :0.81053: (Sim:5h54m4s) 
CPU  0 inst: 1900000002 cyc: 1295331334 now IPC :1.49024: AVG IPC :1.46637: L2-Pf-HR :-nan: L2-HR :0.81053: (Sim:5h54m11s) 
CPU  0 inst: 1901000002 cyc: 1296002227 now IPC :1.49055: AVG IPC :1.46639: L2-Pf-HR :-nan: L2-HR :0.81054: (Sim:5h54m18s) 
CPU  0 inst: 1902000002 cyc: 1296674116 now IPC :1.48834: AVG IPC :1.46640: L2-Pf-HR :-nan: L2-HR :0.81054: (Sim:5h54m25s) 
CPU  0 inst: 1903000001 cyc: 1297345596 now IPC :1.48925: AVG IPC :1.46641: L2-Pf-HR :-nan: L2-HR :0.81055: (Sim:5h54m32s) 
CPU  0 inst: 1904000000 cyc: 1298017975 now IPC :1.48725: AVG IPC :1.46642: L2-Pf-HR :-nan: L2-HR :0.81055: (Sim:5h54m39s) 
CPU  0 inst: 1905000000 cyc: 1298728268 now IPC :1.40787: AVG IPC :1.46639: L2-Pf-HR :-nan: L2-HR :0.81055: (Sim:5h54m46s) 
CPU  0 inst: 1906000000 cyc: 1299403650 now IPC :1.48064: AVG IPC :1.46639: L2-Pf-HR :-nan: L2-HR :0.81056: (Sim:5h54m53s) 
CPU  0 inst: 1907000003 cyc: 1300079200 now IPC :1.48028: AVG IPC :1.46640: L2-Pf-HR :-nan: L2-HR :0.81056: (Sim:5h55m0s) 
CPU  0 inst: 1908000000 cyc: 1300752672 now IPC :1.48484: AVG IPC :1.46641: L2-Pf-HR :-nan: L2-HR :0.81057: (Sim:5h55m7s) 
CPU  0 inst: 1909000002 cyc: 1301427636 now IPC :1.48156: AVG IPC :1.46642: L2-Pf-HR :-nan: L2-HR :0.81057: (Sim:5h55m13s) 
CPU  0 inst: 1910000003 cyc: 1302102241 now IPC :1.48235: AVG IPC :1.46643: L2-Pf-HR :-nan: L2-HR :0.81058: (Sim:5h55m20s) 
CPU  0 inst: 1911000001 cyc: 1302851224 now IPC :1.33514: AVG IPC :1.46635: L2-Pf-HR :-nan: L2-HR :0.81057: (Sim:5h55m28s) 
CPU  0 inst: 1912000004 cyc: 1303524529 now IPC :1.48522: AVG IPC :1.46636: L2-Pf-HR :-nan: L2-HR :0.81057: (Sim:5h55m35s) 
CPU  0 inst: 1913000004 cyc: 1304197794 now IPC :1.48530: AVG IPC :1.46637: L2-Pf-HR :-nan: L2-HR :0.81058: (Sim:5h55m42s) 
CPU  0 inst: 1914000000 cyc: 1304871102 now IPC :1.48520: AVG IPC :1.46638: L2-Pf-HR :-nan: L2-HR :0.81058: (Sim:5h55m49s) 
CPU  0 inst: 1915000002 cyc: 1305542691 now IPC :1.48901: AVG IPC :1.46639: L2-Pf-HR :-nan: L2-HR :0.81059: (Sim:5h55m56s) 
CPU  0 inst: 1916000002 cyc: 1306217511 now IPC :1.48188: AVG IPC :1.46640: L2-Pf-HR :-nan: L2-HR :0.81059: (Sim:5h56m2s) 
CPU  0 inst: 1917000002 cyc: 1306928626 now IPC :1.40624: AVG IPC :1.46637: L2-Pf-HR :-nan: L2-HR :0.81059: (Sim:5h56m9s) 
CPU  0 inst: 1918000002 cyc: 1307600277 now IPC :1.48887: AVG IPC :1.46638: L2-Pf-HR :-nan: L2-HR :0.81060: (Sim:5h56m16s) 
CPU  0 inst: 1919000002 cyc: 1308274027 now IPC :1.48423: AVG IPC :1.46639: L2-Pf-HR :-nan: L2-HR :0.81060: (Sim:5h56m23s) 
CPU  0 inst: 1920000004 cyc: 1308947307 now IPC :1.48527: AVG IPC :1.46640: L2-Pf-HR :-nan: L2-HR :0.81061: (Sim:5h56m30s) 
CPU  0 inst: 1921000001 cyc: 1309619937 now IPC :1.48670: AVG IPC :1.46641: L2-Pf-HR :-nan: L2-HR :0.81061: (Sim:5h56m37s) 
CPU  0 inst: 1922000000 cyc: 1310292625 now IPC :1.48657: AVG IPC :1.46642: L2-Pf-HR :-nan: L2-HR :0.81062: (Sim:5h56m44s) 
CPU  0 inst: 1923000002 cyc: 1310983945 now IPC :1.44651: AVG IPC :1.46641: L2-Pf-HR :-nan: L2-HR :0.81060: (Sim:5h56m51s) 
CPU  0 inst: 1924000001 cyc: 1311651205 now IPC :1.49866: AVG IPC :1.46643: L2-Pf-HR :-nan: L2-HR :0.81056: (Sim:5h56m58s) 
CPU  0 inst: 1925000003 cyc: 1312331495 now IPC :1.46996: AVG IPC :1.46643: L2-Pf-HR :-nan: L2-HR :0.81053: (Sim:5h57m5s) 
CPU  0 inst: 1926000002 cyc: 1313000818 now IPC :1.49405: AVG IPC :1.46644: L2-Pf-HR :-nan: L2-HR :0.81050: (Sim:5h57m12s) 
CPU  0 inst: 1927000004 cyc: 1313760621 now IPC :1.31613: AVG IPC :1.46635: L2-Pf-HR :-nan: L2-HR :0.81046: (Sim:5h57m19s) 
CPU  0 inst: 1928000002 cyc: 1314438571 now IPC :1.47503: AVG IPC :1.46636: L2-Pf-HR :-nan: L2-HR :0.81046: (Sim:5h57m27s) 
CPU  0 inst: 1929000002 cyc: 1315116791 now IPC :1.47445: AVG IPC :1.46636: L2-Pf-HR :-nan: L2-HR :0.81046: (Sim:5h57m34s) 
CPU  0 inst: 1930000001 cyc: 1315793603 now IPC :1.47751: AVG IPC :1.46637: L2-Pf-HR :-nan: L2-HR :0.81046: (Sim:5h57m41s) 
CPU  0 inst: 1931000001 cyc: 1316469770 now IPC :1.47892: AVG IPC :1.46637: L2-Pf-HR :-nan: L2-HR :0.81046: (Sim:5h57m48s) 
CPU  0 inst: 1932000001 cyc: 1317147370 now IPC :1.47580: AVG IPC :1.46638: L2-Pf-HR :-nan: L2-HR :0.81046: (Sim:5h57m55s) 
CPU  0 inst: 1933000000 cyc: 1317872623 now IPC :1.37883: AVG IPC :1.46633: L2-Pf-HR :-nan: L2-HR :0.81047: (Sim:5h58m2s) 
CPU  0 inst: 1934000005 cyc: 1318567742 now IPC :1.43861: AVG IPC :1.46632: L2-Pf-HR :-nan: L2-HR :0.81046: (Sim:5h58m9s) 
CPU  0 inst: 1935000005 cyc: 1319263416 now IPC :1.43745: AVG IPC :1.46630: L2-Pf-HR :-nan: L2-HR :0.81047: (Sim:5h58m16s) 
CPU  0 inst: 1936000001 cyc: 1319960787 now IPC :1.43395: AVG IPC :1.46628: L2-Pf-HR :-nan: L2-HR :0.81046: (Sim:5h58m23s) 
CPU  0 inst: 1937000002 cyc: 1320656659 now IPC :1.43705: AVG IPC :1.46627: L2-Pf-HR :-nan: L2-HR :0.81046: (Sim:5h58m30s) 
CPU  0 inst: 1938000001 cyc: 1321352612 now IPC :1.43688: AVG IPC :1.46625: L2-Pf-HR :-nan: L2-HR :0.81045: (Sim:5h58m37s) 
CPU  0 inst: 1939000002 cyc: 1322114625 now IPC :1.31231: AVG IPC :1.46616: L2-Pf-HR :-nan: L2-HR :0.81044: (Sim:5h58m44s) 
CPU  0 inst: 1940000002 cyc: 1322788599 now IPC :1.48374: AVG IPC :1.46617: L2-Pf-HR :-nan: L2-HR :0.81044: (Sim:5h58m51s) 
CPU  0 inst: 1941000002 cyc: 1323461686 now IPC :1.48569: AVG IPC :1.46618: L2-Pf-HR :-nan: L2-HR :0.81044: (Sim:5h58m58s) 
CPU  0 inst: 1942000001 cyc: 1324134879 now IPC :1.48546: AVG IPC :1.46619: L2-Pf-HR :-nan: L2-HR :0.81044: (Sim:5h59m5s) 
CPU  0 inst: 1943000004 cyc: 1324810612 now IPC :1.47988: AVG IPC :1.46620: L2-Pf-HR :-nan: L2-HR :0.81044: (Sim:5h59m12s) 
CPU  0 inst: 1944000000 cyc: 1325484001 now IPC :1.48502: AVG IPC :1.46621: L2-Pf-HR :-nan: L2-HR :0.81045: (Sim:5h59m19s) 
CPU  0 inst: 1945000000 cyc: 1326188867 now IPC :1.41871: AVG IPC :1.46618: L2-Pf-HR :-nan: L2-HR :0.81044: (Sim:5h59m26s) 
CPU  0 inst: 1946000000 cyc: 1326849196 now IPC :1.51440: AVG IPC :1.46621: L2-Pf-HR :-nan: L2-HR :0.81044: (Sim:5h59m33s) 
CPU  0 inst: 1947000000 cyc: 1327508723 now IPC :1.51624: AVG IPC :1.46623: L2-Pf-HR :-nan: L2-HR :0.81045: (Sim:5h59m40s) 
CPU  0 inst: 1948000005 cyc: 1328167371 now IPC :1.51827: AVG IPC :1.46626: L2-Pf-HR :-nan: L2-HR :0.81045: (Sim:5h59m47s) 
CPU  0 inst: 1949000002 cyc: 1328825806 now IPC :1.51875: AVG IPC :1.46629: L2-Pf-HR :-nan: L2-HR :0.81046: (Sim:5h59m54s) 
CPU  0 inst: 1950000002 cyc: 1329485548 now IPC :1.51574: AVG IPC :1.46631: L2-Pf-HR :-nan: L2-HR :0.81046: (Sim:6h0m1s) 
CPU  0 inst: 1951000004 cyc: 1330211434 now IPC :1.37763: AVG IPC :1.46626: L2-Pf-HR :-nan: L2-HR :0.81046: (Sim:6h0m8s) 
CPU  0 inst: 1952000004 cyc: 1330871139 now IPC :1.51583: AVG IPC :1.46629: L2-Pf-HR :-nan: L2-HR :0.81046: (Sim:6h0m15s) 
CPU  0 inst: 1953000001 cyc: 1331531361 now IPC :1.51464: AVG IPC :1.46631: L2-Pf-HR :-nan: L2-HR :0.81047: (Sim:6h0m22s) 
CPU  0 inst: 1954000004 cyc: 1332189015 now IPC :1.52056: AVG IPC :1.46634: L2-Pf-HR :-nan: L2-HR :0.81047: (Sim:6h0m29s) 
CPU  0 inst: 1955000004 cyc: 1332848082 now IPC :1.51730: AVG IPC :1.46636: L2-Pf-HR :-nan: L2-HR :0.81048: (Sim:6h0m36s) 
CPU  0 inst: 1956000002 cyc: 1333506375 now IPC :1.51908: AVG IPC :1.46639: L2-Pf-HR :-nan: L2-HR :0.81049: (Sim:6h0m43s) 
CPU  0 inst: 1957000005 cyc: 1334209490 now IPC :1.42225: AVG IPC :1.46637: L2-Pf-HR :-nan: L2-HR :0.81049: (Sim:6h0m50s) 
CPU  0 inst: 1958000002 cyc: 1334879911 now IPC :1.49160: AVG IPC :1.46638: L2-Pf-HR :-nan: L2-HR :0.81050: (Sim:6h0m57s) 
CPU  0 inst: 1959000001 cyc: 1335550504 now IPC :1.49122: AVG IPC :1.46639: L2-Pf-HR :-nan: L2-HR :0.81050: (Sim:6h1m3s) 
CPU  0 inst: 1960000004 cyc: 1336221616 now IPC :1.49007: AVG IPC :1.46640: L2-Pf-HR :-nan: L2-HR :0.81051: (Sim:6h1m10s) 
CPU  0 inst: 1961000002 cyc: 1336890546 now IPC :1.49492: AVG IPC :1.46642: L2-Pf-HR :-nan: L2-HR :0.81052: (Sim:6h1m17s) 
CPU  0 inst: 1962000000 cyc: 1337560523 now IPC :1.49259: AVG IPC :1.46643: L2-Pf-HR :-nan: L2-HR :0.81052: (Sim:6h1m24s) 
CPU  0 inst: 1963000003 cyc: 1338295292 now IPC :1.36098: AVG IPC :1.46637: L2-Pf-HR :-nan: L2-HR :0.81052: (Sim:6h1m31s) 
CPU  0 inst: 1964000003 cyc: 1338955105 now IPC :1.51558: AVG IPC :1.46640: L2-Pf-HR :-nan: L2-HR :0.81053: (Sim:6h1m37s) 
CPU  0 inst: 1965000000 cyc: 1339616076 now IPC :1.51292: AVG IPC :1.46642: L2-Pf-HR :-nan: L2-HR :0.81053: (Sim:6h1m44s) 
CPU  0 inst: 1966000000 cyc: 1340276976 now IPC :1.51309: AVG IPC :1.46644: L2-Pf-HR :-nan: L2-HR :0.81054: (Sim:6h1m51s) 
CPU  0 inst: 1967000001 cyc: 1340939579 now IPC :1.50920: AVG IPC :1.46646: L2-Pf-HR :-nan: L2-HR :0.81054: (Sim:6h1m58s) 
CPU  0 inst: 1968000001 cyc: 1341599572 now IPC :1.51517: AVG IPC :1.46649: L2-Pf-HR :-nan: L2-HR :0.81054: (Sim:6h2m5s) 
CPU  0 inst: 1969000001 cyc: 1342303157 now IPC :1.42129: AVG IPC :1.46646: L2-Pf-HR :-nan: L2-HR :0.81055: (Sim:6h2m12s) 
CPU  0 inst: 1970000003 cyc: 1342971234 now IPC :1.49684: AVG IPC :1.46648: L2-Pf-HR :-nan: L2-HR :0.81055: (Sim:6h2m19s) 
CPU  0 inst: 1971000000 cyc: 1343637543 now IPC :1.50080: AVG IPC :1.46650: L2-Pf-HR :-nan: L2-HR :0.81056: (Sim:6h2m25s) 
CPU  0 inst: 1972000004 cyc: 1344304844 now IPC :1.49858: AVG IPC :1.46651: L2-Pf-HR :-nan: L2-HR :0.81056: (Sim:6h2m32s) 
CPU  0 inst: 1973000005 cyc: 1344972127 now IPC :1.49862: AVG IPC :1.46653: L2-Pf-HR :-nan: L2-HR :0.81057: (Sim:6h2m39s) 
CPU  0 inst: 1974000005 cyc: 1345640027 now IPC :1.49723: AVG IPC :1.46654: L2-Pf-HR :-nan: L2-HR :0.81057: (Sim:6h2m46s) 
CPU  0 inst: 1975000000 cyc: 1346378853 now IPC :1.35349: AVG IPC :1.46648: L2-Pf-HR :-nan: L2-HR :0.81057: (Sim:6h2m54s) 
CPU  0 inst: 1976000001 cyc: 1347045266 now IPC :1.50057: AVG IPC :1.46650: L2-Pf-HR :-nan: L2-HR :0.81058: (Sim:6h3m0s) 
Finished CPU 0 instr: 1974000005 cyc: 1346064464 AVG IPC: 1.46650 (Sim time: 6h3m0s)

ChampSim completed all CPUs

[ROI Statistics]
Core_0_instructions 1974000005
Core_0_cycles 1346064464
Core_0_IPC 1.46650

Core_0_branch_prediction_accuracy 99.93238
Core_0_branch_MPKI 0.00946
Core_0_average_ROB_occupancy_at_mispredict 562.71182

Core_0_L1D_total_access 457569397
Core_0_L1D_total_hit 421386643 L1D_total_Hit Ratio: 0.92092
Core_0_L1D_total_miss 36182754
Core_0_L1D_loads 439738451
Core_0_L1D_load_hit 403566724 L1D_load_Hit Ratio: 0.91774
Core_0_L1D_load_miss 36171727
Core_0_L1D_RFOs 17830946
Core_0_L1D_RFO_hit 17819919 L1D_RFO_Hit Ratio: 0.99938
Core_0_L1D_RFO_miss 11027
Core_0_L1D_prefetches 0
Core_0_L1D_prefetch_hit 0 L1D_prefetch_Hit Ratio: -nan
Core_0_L1D_prefetch_miss 0
Core_0_L1D_writebacks 0
Core_0_L1D_writeback_hit 0 L1D_writeback_Hit Ratio: -nan
Core_0_L1D_writeback_miss 0
Core_0_L1D_prefetch_requested 0
Core_0_L1D_prefetch_issued 0
Core_0_L1D_prefetch_useful 0 L1D_Useful Ratio: -nan
Core_0_L1D_prefetch_useless 0
Core_0_L1D_prefetch_late 0
Core_0_L1D_average_miss_latency 90.80381

Core_0_L1I_total_access 219648805
Core_0_L1I_total_hit 219644967 L1I_total_Hit Ratio: 0.99998
Core_0_L1I_total_miss 3838
Core_0_L1I_loads 219648805
Core_0_L1I_load_hit 219644967 L1I_load_Hit Ratio: 0.99998
Core_0_L1I_load_miss 3838
Core_0_L1I_RFOs 0
Core_0_L1I_RFO_hit 0 L1I_RFO_Hit Ratio: -nan
Core_0_L1I_RFO_miss 0
Core_0_L1I_prefetches 0
Core_0_L1I_prefetch_hit 0 L1I_prefetch_Hit Ratio: -nan
Core_0_L1I_prefetch_miss 0
Core_0_L1I_writebacks 0
Core_0_L1I_writeback_hit 0 L1I_writeback_Hit Ratio: -nan
Core_0_L1I_writeback_miss 0
Core_0_L1I_prefetch_requested 0
Core_0_L1I_prefetch_issued 0
Core_0_L1I_prefetch_useful 0 L1I_Useful Ratio: -nan
Core_0_L1I_prefetch_useless 0
Core_0_L1I_prefetch_late 0
Core_0_L1I_average_miss_latency 315.11204

Core_0_L2C_total_access 47512705
Core_0_L2C_total_hit 38512680 L2C_total_Hit Ratio: 0.81058
Core_0_L2C_total_miss 9000025
Core_0_L2C_loads 36175565
Core_0_L2C_load_hit 27177467 L2C_load_Hit Ratio: 0.75127
Core_0_L2C_load_miss 8998098
Core_0_L2C_RFOs 11027
Core_0_L2C_RFO_hit 9100 L2C_RFO_Hit Ratio: 0.82525
Core_0_L2C_RFO_miss 1927
Core_0_L2C_prefetches 0
Core_0_L2C_prefetch_hit 0 L2C_prefetch_Hit Ratio: -nan
Core_0_L2C_prefetch_miss 0
Core_0_L2C_writebacks 11326113
Core_0_L2C_writeback_hit 11326113 L2C_writeback_Hit Ratio: 1.00000
Core_0_L2C_writeback_miss 0
Core_0_L2C_prefetch_requested 0
Core_0_L2C_prefetch_issued 0
Core_0_L2C_prefetch_useful 0 L2C_Useful Ratio: -nan
Core_0_L2C_prefetch_useless 0
Core_0_L2C_prefetch_late 0
Core_0_L2C_average_miss_latency 288.24998

Core_0_LLC_total_access 17196451
Core_0_LLC_total_hit 8451715 LLC_total_Hit Ratio: 0.49148
Core_0_LLC_total_miss 8744736
Core_0_LLC_loads 8998098
Core_0_LLC_load_hit 365578 LLC_load_Hit Ratio: 0.04063
Core_0_LLC_load_miss 8632520
Core_0_LLC_RFOs 1927
Core_0_LLC_RFO_hit 669 LLC_RFO_Hit Ratio: 0.34717
Core_0_LLC_RFO_miss 1258
Core_0_LLC_prefetches 0
Core_0_LLC_prefetch_hit 0 LLC_prefetch_Hit Ratio: -nan
Core_0_LLC_prefetch_miss 0
Core_0_LLC_writebacks 8196426
Core_0_LLC_writeback_hit 8085468 LLC_writeback_Hit Ratio: 0.98646
Core_0_LLC_writeback_miss 110958
Core_0_LLC_prefetch_requested 0
Core_0_LLC_prefetch_issued 0
Core_0_LLC_prefetch_useful 0 LLC_Useful Ratio: -nan
Core_0_LLC_prefetch_useless 0
Core_0_LLC_prefetch_late 0
Core_0_LLC_average_miss_latency 255.42492

Core_0_major_page_fault 0
Core_0_minor_page_fault 17949

Channel_0_RQ_row_buffer_hit 5994421
Channel_0_RQ_row_buffer_miss 2639340
Channel_0_WQ_row_buffer_hit 3084670
Channel_0_WQ_row_buffer_miss 4995723
Channel_0_WQ_full 6142
Channel_0_dbus_congested 1906952

avg_congested_cycle 8

EzSearch AVG IPC :1.46650: L2-Pf-HR :-nan : L2-HR :0.81058 Uful:-nan
     > Finished combination: TraceType=770-tot Sim:1974000000 Prefetcher=L2no L1=no
