TRACE: [21000000]_FE_[Pythia-70M]_[h8]_[s256]_[d64] Warmup: 2000000 NumTraces: 21000000
L1:next_line:L2:029-SecTOP-L2-MultiMarkovDelta_ip_stride_v4-IPStrS256
*************************************************
   ChampSim Multicore Out-of-Order Simulator
   Last compiled: Oct 31 2024 01:02:44
*************************************************

trace_0 770-tot_memTraces_v5/150-subBillion_s256_LLM_Arch/memTraces[21000000]_FE_[Pythia-70M]_[h8]_[s256]_[d64].champsim.9.xz
CPU 0 L1D next line prefetcher
MK1: Size: 128 TMAX: 64 TMIN: 32 MKPTHRESH: 40
MK2: Size: 256 TMAX: 32 TMIN: 16 MK2PTHRESH: 30
MK3: Size: 384 TMAX: 16 TMIN: 8 MK3PTHRESH: 25
MK4: Size: 512 TMAX: 8 TMIN: 0 MK4PTHRESH: 20
Stride Size: 256 Prefetch Degree: 15

CPU 0 L2C prefetcher
MAIN.cc ln 751 stats print skipped
CPU 0 L2C prefetcher initialized


Cache Size: 4096
number of cache lines: 65536
CPU  0 inst:    1000001 cyc:     499234 now IPC :2.00307: AVG IPC :2.00307: L2-Pf-HR :0.91339: L2-HR :0.89338: (Sim:0h0m12s) 
CPU  0 inst:    2000003 cyc:     987035 now IPC :2.05002: AVG IPC :2.02627: L2-Pf-HR :0.93728: L2-HR :0.92548: (Sim:0h0m22s) 

Warmup complete CPU  0 instructions:    2000003 cycles:     987035 (Simulation time: 0 hr 0 min 22 sec) 

CPU  0 inst:    3000000 cyc:    1497544 now IPC :1.95882: AVG IPC :1.95882: L2-Pf-HR :0.93112: L2-HR :0.92820: (Sim:0h0m32s) 
CPU  0 inst:    4000005 cyc:    2003527 now IPC :1.97636: AVG IPC :1.96755: L2-Pf-HR :0.93194: L2-HR :0.92895: (Sim:0h0m45s) 
CPU  0 inst:    5000000 cyc:    2509843 now IPC :1.97504: AVG IPC :1.97004: L2-Pf-HR :0.93278: L2-HR :0.92965: (Sim:0h1m1s) 
CPU  0 inst:    6000005 cyc:    3018458 now IPC :1.96613: AVG IPC :1.96906: L2-Pf-HR :0.93290: L2-HR :0.92977: (Sim:0h1m20s) 
CPU  0 inst:    7000004 cyc:    3526067 now IPC :1.97002: AVG IPC :1.96925: L2-Pf-HR :0.93312: L2-HR :0.92995: (Sim:0h1m38s) 
CPU  0 inst:    8000003 cyc:    4034613 now IPC :1.96639: AVG IPC :1.96878: L2-Pf-HR :0.93354: L2-HR :0.93025: (Sim:0h1m56s) 
CPU  0 inst:    9000000 cyc:    4862482 now IPC :1.20792: AVG IPC :1.80624: L2-Pf-HR :0.93808: L2-HR :0.93621: (Sim:0h2m13s) 
CPU  0 inst:   10000000 cyc:    7828841 now IPC :0.33711: AVG IPC :1.16928: L2-Pf-HR :0.93130: L2-HR :0.92970: (Sim:0h2m35s) 
CPU  0 inst:   11000000 cyc:   10794981 now IPC :0.33714: AVG IPC :0.91762: L2-Pf-HR :0.92546: L2-HR :0.92412: (Sim:0h3m2s) 
CPU  0 inst:   12000000 cyc:   13761556 now IPC :0.33709: AVG IPC :0.78281: L2-Pf-HR :0.92024: L2-HR :0.91915: (Sim:0h3m29s) 
CPU  0 inst:   13000000 cyc:   16728144 now IPC :0.33709: AVG IPC :0.69881: L2-Pf-HR :0.91140: L2-HR :0.91155: (Sim:0h3m55s) 
CPU  0 inst:   14000002 cyc:   17337178 now IPC :1.64195: AVG IPC :0.73394: L2-Pf-HR :0.90696: L2-HR :0.90689: (Sim:0h4m15s) 
CPU  0 inst:   15000000 cyc:   17856926 now IPC :1.92401: AVG IPC :0.77060: L2-Pf-HR :0.90684: L2-HR :0.90646: (Sim:0h4m33s) 
CPU  0 inst:   16000003 cyc:   18373863 now IPC :1.93448: AVG IPC :0.80521: L2-Pf-HR :0.90733: L2-HR :0.90656: (Sim:0h4m51s) 
CPU  0 inst:   17000001 cyc:   18890816 now IPC :1.93441: AVG IPC :0.83781: L2-Pf-HR :0.90795: L2-HR :0.90677: (Sim:0h5m10s) 
CPU  0 inst:   18000003 cyc:   19409198 now IPC :1.92908: AVG IPC :0.86852: L2-Pf-HR :0.90947: L2-HR :0.90780: (Sim:0h5m31s) 
Finished CPU 0 instr: 16000000 cyc: 18422163 AVG IPC: 0.86852 (Sim time: 0h5m31s)

ChampSim completed all CPUs

[ROI Statistics]
Core_0_instructions 16000000
Core_0_cycles 18422163
Core_0_IPC 0.86852

Core_0_branch_prediction_accuracy 98.24556
Core_0_branch_MPKI 0.63131
Core_0_average_ROB_occupancy_at_mispredict 315.29829

Core_0_L1D_total_access 11544382
Core_0_L1D_total_hit 11234985 L1D_total_Hit Ratio: 0.97320
Core_0_L1D_total_miss 309397
Core_0_L1D_loads 4541487
Core_0_L1D_load_hit 4417901 L1D_load_Hit Ratio: 0.97279
Core_0_L1D_load_miss 123586
Core_0_L1D_RFOs 568346
Core_0_L1D_RFO_hit 542913 L1D_RFO_Hit Ratio: 0.95525
Core_0_L1D_RFO_miss 25433
Core_0_L1D_prefetches 6434549
Core_0_L1D_prefetch_hit 6274171 L1D_prefetch_Hit Ratio: 0.97508
Core_0_L1D_prefetch_miss 160378
Core_0_L1D_writebacks 0
Core_0_L1D_writeback_hit 0 L1D_writeback_Hit Ratio: -nan
Core_0_L1D_writeback_miss 0
Core_0_L1D_prefetch_requested 15811116
Core_0_L1D_prefetch_issued 8424625
Core_0_L1D_prefetch_useful 134678 L1D_Useful Ratio: 0.01599
Core_0_L1D_prefetch_useless 45361
Core_0_L1D_prefetch_late 42152
Core_0_L1D_average_miss_latency 522080.86045

Core_0_L1I_total_access 2421395
Core_0_L1I_total_hit 2419536 L1I_total_Hit Ratio: 0.99923
Core_0_L1I_total_miss 1859
Core_0_L1I_loads 2421395
Core_0_L1I_load_hit 2419536 L1I_load_Hit Ratio: 0.99923
Core_0_L1I_load_miss 1859
Core_0_L1I_RFOs 0
Core_0_L1I_RFO_hit 0 L1I_RFO_Hit Ratio: -nan
Core_0_L1I_RFO_miss 0
Core_0_L1I_prefetches 0
Core_0_L1I_prefetch_hit 0 L1I_prefetch_Hit Ratio: -nan
Core_0_L1I_prefetch_miss 0
Core_0_L1I_writebacks 0
Core_0_L1I_writeback_hit 0 L1I_writeback_Hit Ratio: -nan
Core_0_L1I_writeback_miss 0
Core_0_L1I_prefetch_requested 0
Core_0_L1I_prefetch_issued 0
Core_0_L1I_prefetch_useful 0 L1I_Useful Ratio: -nan
Core_0_L1I_prefetch_useless 0
Core_0_L1I_prefetch_late 0
Core_0_L1I_average_miss_latency 187.49489

Core_0_L2C_total_access 1044579
Core_0_L2C_total_hit 948273 L2C_total_Hit Ratio: 0.90780
Core_0_L2C_total_miss 96306
Core_0_L2C_loads 86148
Core_0_L2C_load_hit 72107 L2C_load_Hit Ratio: 0.83701
Core_0_L2C_load_miss 14041
Core_0_L2C_RFOs 25430
Core_0_L2C_RFO_hit 17503 L2C_RFO_Hit Ratio: 0.68828
Core_0_L2C_RFO_miss 7927
Core_0_L2C_prefetches 821116
Core_0_L2C_prefetch_hit 746779 L2C_prefetch_Hit Ratio: 0.90947
Core_0_L2C_prefetch_miss 74337
Core_0_L2C_writebacks 111885
Core_0_L2C_writeback_hit 111884 L2C_writeback_Hit Ratio: 0.99999
Core_0_L2C_writeback_miss 1
Core_0_L2C_prefetch_requested 2392292
Core_0_L2C_prefetch_issued 1319029
Core_0_L2C_prefetch_useful 50693 L2C_Useful Ratio: 0.03843
Core_0_L2C_prefetch_useless 15625
Core_0_L2C_prefetch_late 2083
Core_0_L2C_average_miss_latency 158.12248

Core_0_LLC_total_access 121036
Core_0_LLC_total_hit 37349 LLC_total_Hit Ratio: 0.30858
Core_0_LLC_total_miss 83687
Core_0_LLC_loads 11970
Core_0_LLC_load_hit 1235 LLC_load_Hit Ratio: 0.10317
Core_0_LLC_load_miss 10735
Core_0_LLC_RFOs 7927
Core_0_LLC_RFO_hit 63 LLC_RFO_Hit Ratio: 0.00795
Core_0_LLC_RFO_miss 7864
Core_0_LLC_prefetches 76695
Core_0_LLC_prefetch_hit 11630 LLC_prefetch_Hit Ratio: 0.15164
Core_0_LLC_prefetch_miss 65065
Core_0_LLC_writebacks 24444
Core_0_LLC_writeback_hit 24421 LLC_writeback_Hit Ratio: 0.99906
Core_0_LLC_writeback_miss 23
Core_0_LLC_prefetch_requested 0
Core_0_LLC_prefetch_issued 0
Core_0_LLC_prefetch_useful 661 LLC_Useful Ratio: inf
Core_0_LLC_prefetch_useless 636
Core_0_LLC_prefetch_late 137
Core_0_LLC_average_miss_latency 137.22929

Core_0_major_page_fault 0
Core_0_minor_page_fault 2382

CPU 0 L1D next line prefetcher final stats
CPU 0 L2C PC-based stride prefetcher final stats
Stride Degree: 15
MK1  MARKOV_LRU_SIZE: 128
MK1  MARKOV_PREDICTION_PERCENTTHRESHOLD: 40.00000
MK1  OUTLIERS_THRESHOLD_Max: 64
MK1  OUTLIERS_THRESHOLD_Min: 32
MK2  MARKOV_LRU_SIZE: 256
MK2  MARKOV_PREDICTION_PERCENTTHRESHOLD: 30.00000
MK2  OUTLIERS_THRESHOLD_Max: 32
MK2  OUTLIERS_THRESHOLD_Min: 16
MK3  MARKOV_LRU_SIZE: 384
MK3  MARKOV_PREDICTION_PERCENTTHRESHOLD: 25.00000
MK3  OUTLIERS_THRESHOLD_Max: 16
MK3  OUTLIERS_THRESHOLD_Min: 8
MK4  MARKOV_LRU_SIZE: 512
MK4  MARKOV_PREDICTION_PERCENTTHRESHOLD: 20.00000
MK4  OUTLIERS_THRESHOLD_Max: 8
MK4  OUTLIERS_THRESHOLD_Min: 0
IPStride Degree/Access Ratio: 5.08229
MK1 IPDEltaMarkov  Degree/Access Ratio: 0.31342
MK2 IPDEltaMarkov  Degree/Access Ratio: 0.54931
MK3 IPDEltaMarkov  Degree/Access Ratio: 1.12740
MK4 IPDEltaMarkov  Degree/Access Ratio: 1.07788
Channel_0_RQ_row_buffer_hit 77715
Channel_0_RQ_row_buffer_miss 5949
Channel_0_WQ_row_buffer_hit 71
Channel_0_WQ_row_buffer_miss 234
Channel_0_WQ_full 0
Channel_0_dbus_congested 51276

avg_congested_cycle 8

EzSearch AVG IPC :0.86852: L2-Pf-HR :0.90947 : L2-HR :0.90780 Uful:0.03843
     > Finished combination: TraceType=770-tot Sim:16000000 Prefetcher=L2029-SecTOP-L2-MultiMarkovDelta_ip_stride_v4-IPStrS256 L1=next_line
