TRACE: [42000000]_FE_[OPT-350M]_[h16]_[s256]_[d64] Warmup: 2000000 NumTraces: 42000000
L1:berti_concurso:L2:berti_concurso
*************************************************
   ChampSim Multicore Out-of-Order Simulator
   Last compiled: Oct 31 2024 01:17:31
*************************************************

trace_0 770-tot_memTraces_v5/150-subBillion_s256_LLM_Arch/memTraces[42000000]_FE_[OPT-350M]_[h16]_[s256]_[d64].champsim.9.xz
CPU 0 L1D Berti prefetcher
CPU 0 L2C Berti prefetcher
MAIN.cc ln 751 stats print skipped
CPU  0 inst:    1000002 cyc:     499447 now IPC :2.00222: AVG IPC :2.00222: L2-Pf-HR :0.61595: L2-HR :0.62665: (Sim:0h0m21s) 
CPU  0 inst:    2000000 cyc:     986672 now IPC :2.05244: AVG IPC :2.02702: L2-Pf-HR :0.67636: L2-HR :0.69450: (Sim:0h0m42s) 

Warmup complete CPU  0 instructions:    2000002 cycles:     986673 (Simulation time: 0 hr 0 min 42 sec) 

CPU  0 inst:    3000003 cyc:    1587419 now IPC :1.66460: AVG IPC :1.66460: L2-Pf-HR :0.77123: L2-HR :0.74877: (Sim:0h0m59s) 
CPU  0 inst:    4000003 cyc:    2194464 now IPC :1.64732: AVG IPC :1.65592: L2-Pf-HR :0.76422: L2-HR :0.73799: (Sim:0h1m17s) 
CPU  0 inst:    5000005 cyc:    2803036 now IPC :1.64319: AVG IPC :1.65165: L2-Pf-HR :0.77045: L2-HR :0.73533: (Sim:0h1m35s) 
CPU  0 inst:    6000000 cyc:    3412527 now IPC :1.64071: AVG IPC :1.64890: L2-Pf-HR :0.76563: L2-HR :0.73383: (Sim:0h1m54s) 
CPU  0 inst:    7000002 cyc:    4020816 now IPC :1.64396: AVG IPC :1.64791: L2-Pf-HR :0.76650: L2-HR :0.73418: (Sim:0h2m12s) 
CPU  0 inst:    8000003 cyc:    4630458 now IPC :1.64031: AVG IPC :1.64664: L2-Pf-HR :0.76820: L2-HR :0.73389: (Sim:0h2m31s) 
CPU  0 inst:    9000005 cyc:    5236537 now IPC :1.64995: AVG IPC :1.64711: L2-Pf-HR :0.76827: L2-HR :0.73436: (Sim:0h2m49s) 
CPU  0 inst:   10000005 cyc:    5844459 now IPC :1.64495: AVG IPC :1.64684: L2-Pf-HR :0.76855: L2-HR :0.73424: (Sim:0h3m1s) 
CPU  0 inst:   11000002 cyc:    6450440 now IPC :1.65021: AVG IPC :1.64722: L2-Pf-HR :0.77030: L2-HR :0.73438: (Sim:0h3m20s) 
CPU  0 inst:   12000002 cyc:    7054941 now IPC :1.65426: AVG IPC :1.64792: L2-Pf-HR :0.76967: L2-HR :0.73416: (Sim:0h3m36s) 
CPU  0 inst:   13000005 cyc:    7662808 now IPC :1.64510: AVG IPC :1.64766: L2-Pf-HR :0.77051: L2-HR :0.73380: (Sim:0h3m54s) 
CPU  0 inst:   14000001 cyc:    8268862 now IPC :1.65001: AVG IPC :1.64786: L2-Pf-HR :0.76991: L2-HR :0.73399: (Sim:0h4m13s) 
CPU  0 inst:   15000000 cyc:    8878576 now IPC :1.64011: AVG IPC :1.64726: L2-Pf-HR :0.77052: L2-HR :0.73372: (Sim:0h4m31s) 
CPU  0 inst:   16000002 cyc:    9481793 now IPC :1.65778: AVG IPC :1.64801: L2-Pf-HR :0.77012: L2-HR :0.73363: (Sim:0h4m50s) 
CPU  0 inst:   17000002 cyc:   10120325 now IPC :1.56609: AVG IPC :1.64228: L2-Pf-HR :0.77068: L2-HR :0.73367: (Sim:0h5m8s) 
CPU  0 inst:   18000000 cyc:   11589921 now IPC :0.68046: AVG IPC :1.50897: L2-Pf-HR :0.65201: L2-HR :0.68137: (Sim:0h5m30s) 
CPU  0 inst:   19000000 cyc:   14556403 now IPC :0.33710: AVG IPC :1.25279: L2-Pf-HR :0.64071: L2-HR :0.67387: (Sim:0h5m57s) 
CPU  0 inst:   20000000 cyc:   17523563 now IPC :0.33702: AVG IPC :1.08848: L2-Pf-HR :0.62499: L2-HR :0.66447: (Sim:0h6m12s) 
CPU  0 inst:   21000000 cyc:   20491418 now IPC :0.33694: AVG IPC :0.97412: L2-Pf-HR :0.61198: L2-HR :0.65601: (Sim:0h6m39s) 
CPU  0 inst:   22000000 cyc:   23468984 now IPC :0.33584: AVG IPC :0.88959: L2-Pf-HR :0.60093: L2-HR :0.64839: (Sim:0h7m6s) 
CPU  0 inst:   23000000 cyc:   26454428 now IPC :0.33496: AVG IPC :0.82457: L2-Pf-HR :0.59132: L2-HR :0.64148: (Sim:0h7m33s) 
CPU  0 inst:   24000000 cyc:   29440133 now IPC :0.33493: AVG IPC :0.77319: L2-Pf-HR :0.58287: L2-HR :0.63528: (Sim:0h8m1s) 
CPU  0 inst:   25000000 cyc:   32430480 now IPC :0.33441: AVG IPC :0.73146: L2-Pf-HR :0.57360: L2-HR :0.62894: (Sim:0h8m28s) 
CPU  0 inst:   26000002 cyc:   35170826 now IPC :0.36492: AVG IPC :0.70208: L2-Pf-HR :0.56543: L2-HR :0.62280: (Sim:0h8m55s) 
CPU  0 inst:   27000000 cyc:   35793563 now IPC :1.60581: AVG IPC :0.71825: L2-Pf-HR :0.56452: L2-HR :0.62213: (Sim:0h9m16s) 
CPU  0 inst:   28000004 cyc:   36362023 now IPC :1.75915: AVG IPC :0.73498: L2-Pf-HR :0.56508: L2-HR :0.62231: (Sim:0h9m37s) 
CPU  0 inst:   29000004 cyc:   36916979 now IPC :1.80194: AVG IPC :0.75145: L2-Pf-HR :0.56591: L2-HR :0.62299: (Sim:0h9m50s) 
CPU  0 inst:   30000003 cyc:   37476093 now IPC :1.78854: AVG IPC :0.76735: L2-Pf-HR :0.56656: L2-HR :0.62374: (Sim:0h10m0s) 
CPU  0 inst:   31000005 cyc:   38065888 now IPC :1.69551: AVG IPC :0.78211: L2-Pf-HR :0.56665: L2-HR :0.62370: (Sim:0h10m22s) 
CPU  0 inst:   32000003 cyc:   38623937 now IPC :1.79195: AVG IPC :0.79708: L2-Pf-HR :0.56679: L2-HR :0.62377: (Sim:0h10m43s) 
CPU  0 inst:   33000002 cyc:   39166437 now IPC :1.84332: AVG IPC :0.81195: L2-Pf-HR :0.56689: L2-HR :0.62390: (Sim:0h11m4s) 
CPU  0 inst:   34000001 cyc:   39719227 now IPC :1.80900: AVG IPC :0.82618: L2-Pf-HR :0.56705: L2-HR :0.62405: (Sim:0h11m25s) 
CPU  0 inst:   35000005 cyc:   40265378 now IPC :1.83100: AVG IPC :0.84015: L2-Pf-HR :0.56772: L2-HR :0.62453: (Sim:0h11m46s) 
CPU  0 inst:   36000000 cyc:   40796285 now IPC :1.88356: AVG IPC :0.85407: L2-Pf-HR :0.56785: L2-HR :0.62460: (Sim:0h12m7s) 
CPU  0 inst:   37000000 cyc:   41367867 now IPC :1.74953: AVG IPC :0.86674: L2-Pf-HR :0.56797: L2-HR :0.62479: (Sim:0h12m28s) 
CPU  0 inst:   38000001 cyc:   41907244 now IPC :1.85399: AVG IPC :0.87975: L2-Pf-HR :0.56819: L2-HR :0.62499: (Sim:0h12m49s) 
CPU  0 inst:   39000004 cyc:   42450166 now IPC :1.84189: AVG IPC :0.89235: L2-Pf-HR :0.56833: L2-HR :0.62509: (Sim:0h13m10s) 
Finished CPU 0 instr: 37000002 cyc: 41463493 AVG IPC: 0.89235 (Sim time: 0h13m10s)

ChampSim completed all CPUs

[ROI Statistics]
Core_0_instructions 37000002
Core_0_cycles 41463493
Core_0_IPC 0.89235

Core_0_branch_prediction_accuracy 98.43855
Core_0_branch_MPKI 0.50535
Core_0_average_ROB_occupancy_at_mispredict 336.44700

Core_0_L1D_total_access 12438487
Core_0_L1D_total_hit 11900168 L1D_total_Hit Ratio: 0.95672
Core_0_L1D_total_miss 538319
Core_0_L1D_loads 10618875
Core_0_L1D_load_hit 10396645 L1D_load_Hit Ratio: 0.97907
Core_0_L1D_load_miss 222230
Core_0_L1D_RFOs 1158740
Core_0_L1D_RFO_hit 1115228 L1D_RFO_Hit Ratio: 0.96245
Core_0_L1D_RFO_miss 43512
Core_0_L1D_prefetches 660872
Core_0_L1D_prefetch_hit 388295 L1D_prefetch_Hit Ratio: 0.58755
Core_0_L1D_prefetch_miss 272577
Core_0_L1D_writebacks 0
Core_0_L1D_writeback_hit 0 L1D_writeback_Hit Ratio: -nan
Core_0_L1D_writeback_miss 0
Core_0_L1D_prefetch_requested 925473
Core_0_L1D_prefetch_issued 810864
Core_0_L1D_prefetch_useful 283619 L1D_Useful Ratio: 0.34977
Core_0_L1D_prefetch_useless 3928
Core_0_L1D_prefetch_late 57579
Core_0_L1D_average_miss_latency 1166997.35098

Core_0_L1I_total_access 5451596
Core_0_L1I_total_hit 5449723 L1I_total_Hit Ratio: 0.99966
Core_0_L1I_total_miss 1873
Core_0_L1I_loads 5451596
Core_0_L1I_load_hit 5449723 L1I_load_Hit Ratio: 0.99966
Core_0_L1I_load_miss 1873
Core_0_L1I_RFOs 0
Core_0_L1I_RFO_hit 0 L1I_RFO_Hit Ratio: -nan
Core_0_L1I_RFO_miss 0
Core_0_L1I_prefetches 0
Core_0_L1I_prefetch_hit 0 L1I_prefetch_Hit Ratio: -nan
Core_0_L1I_prefetch_miss 0
Core_0_L1I_writebacks 0
Core_0_L1I_writeback_hit 0 L1I_writeback_Hit Ratio: -nan
Core_0_L1I_writeback_miss 0
Core_0_L1I_prefetch_requested 0
Core_0_L1I_prefetch_issued 0
Core_0_L1I_prefetch_useful 0 L1I_Useful Ratio: -nan
Core_0_L1I_prefetch_useless 0
Core_0_L1I_prefetch_late 0
Core_0_L1I_average_miss_latency 215.59584

Core_0_L2C_total_access 954459
Core_0_L2C_total_hit 596624 L2C_total_Hit Ratio: 0.62509
Core_0_L2C_total_miss 357835
Core_0_L2C_loads 168141
Core_0_L2C_load_hit 70784 L2C_load_Hit Ratio: 0.42098
Core_0_L2C_load_miss 97357
Core_0_L2C_RFOs 43507
Core_0_L2C_RFO_hit 886 L2C_RFO_Hit Ratio: 0.02036
Core_0_L2C_RFO_miss 42621
Core_0_L2C_prefetches 504674
Core_0_L2C_prefetch_hit 286822 L2C_prefetch_Hit Ratio: 0.56833
Core_0_L2C_prefetch_miss 217852
Core_0_L2C_writebacks 238137
Core_0_L2C_writeback_hit 238132 L2C_writeback_Hit Ratio: 0.99998
Core_0_L2C_writeback_miss 5
Core_0_L2C_prefetch_requested 324300
Core_0_L2C_prefetch_issued 282254
Core_0_L2C_prefetch_useful 42472 L2C_Useful Ratio: 0.15047
Core_0_L2C_prefetch_useless 144207
Core_0_L2C_prefetch_late 16351
Core_0_L2C_average_miss_latency 138.81290

Core_0_LLC_total_access 553826
Core_0_LLC_total_hit 351019 LLC_total_Hit Ratio: 0.63381
Core_0_LLC_total_miss 202807
Core_0_LLC_loads 81118
Core_0_LLC_load_hit 21173 LLC_load_Hit Ratio: 0.26101
Core_0_LLC_load_miss 59945
Core_0_LLC_RFOs 42619
Core_0_LLC_RFO_hit 59 LLC_RFO_Hit Ratio: 0.00138
Core_0_LLC_RFO_miss 42560
Core_0_LLC_prefetches 234093
Core_0_LLC_prefetch_hit 133817 LLC_prefetch_Hit Ratio: 0.57164
Core_0_LLC_prefetch_miss 100276
Core_0_LLC_writebacks 195996
Core_0_LLC_writeback_hit 195970 LLC_writeback_Hit Ratio: 0.99987
Core_0_LLC_writeback_miss 26
Core_0_LLC_prefetch_requested 0
Core_0_LLC_prefetch_issued 0
Core_0_LLC_prefetch_useful 9872 LLC_Useful Ratio: inf
Core_0_LLC_prefetch_useless 37076
Core_0_LLC_prefetch_late 0
Core_0_LLC_average_miss_latency 176.38634

Core_0_major_page_fault 0
Core_0_minor_page_fault 3913

CPU 0 L1D berti prefetcher final stats
CPU 0 L2C berti prefetcher final stats
Channel_0_RQ_row_buffer_hit 163950
Channel_0_RQ_row_buffer_miss 38821
Channel_0_WQ_row_buffer_hit 21250
Channel_0_WQ_row_buffer_miss 27387
Channel_0_WQ_full 0
Channel_0_dbus_congested 78562

avg_congested_cycle 8

EzSearch AVG IPC :0.89235: L2-Pf-HR :0.56833 : L2-HR :0.62509 Uful:0.15047
     > Finished combination: TraceType=770-tot Sim:37000000 Prefetcher=L2berti_concurso L1=berti_concurso
