TRACE: [125000000][OPT-125M]_[h12][s512][d64] Warmup: 2000000 NumTraces: 125000000
L1:bingo_dpc3:L2:bingo_dpc3
*************************************************
   ChampSim Multicore Out-of-Order Simulator
   Last compiled: Oct 30 2024 22:15:54
*************************************************

trace_0 770-tot_memTraces_v5/140-subBillion_s512_LLM_Arch/memTraces[125000000][OPT-125M]_[h12][s512][d64].champsim.9.xz
Bingo PHT WAYS: 16 and PHT_SIZE: 16384
Bingo2 PHT WAYS: 16 and PHT_SIZE: 16384
MAIN.cc ln 751 stats print skipped
CPU  0 inst:    1000001 cyc:     498174 now IPC :2.00733: AVG IPC :2.00733: L2-Pf-HR :0.80040: L2-HR :0.66410: (Sim:0h0m20s) 
CPU  0 inst:    2000000 cyc:     980513 now IPC :2.07323: AVG IPC :2.03975: L2-Pf-HR :0.82835: L2-HR :0.73927: (Sim:0h0m42s) 

Warmup complete CPU  0 instructions:    2000003 cycles:     980514 (Simulation time: 0 hr 0 min 42 sec) 

CPU  0 inst:    3000001 cyc:    1586344 now IPC :1.65063: AVG IPC :1.65062: L2-Pf-HR :0.88176: L2-HR :0.80321: (Sim:0h1m0s) 
CPU  0 inst:    4000000 cyc:    2161507 now IPC :1.73864: AVG IPC :1.69349: L2-Pf-HR :0.81852: L2-HR :0.78750: (Sim:0h1m18s) 
CPU  0 inst:    5000001 cyc:    2750857 now IPC :1.69679: AVG IPC :1.69459: L2-Pf-HR :0.79283: L2-HR :0.78569: (Sim:0h1m36s) 
CPU  0 inst:    6000004 cyc:    3270290 now IPC :1.92518: AVG IPC :1.74690: L2-Pf-HR :0.82074: L2-HR :0.81248: (Sim:0h1m53s) 
CPU  0 inst:    7000005 cyc:    3824859 now IPC :1.80320: AVG IPC :1.75787: L2-Pf-HR :0.83402: L2-HR :0.82205: (Sim:0h2m11s) 
CPU  0 inst:    8000005 cyc:    4389312 now IPC :1.77163: AVG IPC :1.76015: L2-Pf-HR :0.83112: L2-HR :0.82088: (Sim:0h2m27s) 
CPU  0 inst:    9000000 cyc:    4988940 now IPC :1.66769: AVG IPC :1.74632: L2-Pf-HR :0.82376: L2-HR :0.81516: (Sim:0h2m39s) 
CPU  0 inst:   10000001 cyc:    5555663 now IPC :1.76453: AVG IPC :1.74858: L2-Pf-HR :0.83422: L2-HR :0.81953: (Sim:0h2m52s) 
CPU  0 inst:   11000005 cyc:    6119491 now IPC :1.77360: AVG IPC :1.75132: L2-Pf-HR :0.84119: L2-HR :0.82304: (Sim:0h3m2s) 
CPU  0 inst:   12000005 cyc:    6688108 now IPC :1.75865: AVG IPC :1.75205: L2-Pf-HR :0.83975: L2-HR :0.82198: (Sim:0h3m11s) 
CPU  0 inst:   13000002 cyc:    7288113 now IPC :1.66665: AVG IPC :1.74393: L2-Pf-HR :0.83205: L2-HR :0.81682: (Sim:0h3m20s) 
CPU  0 inst:   14000005 cyc:    7844113 now IPC :1.79857: AVG IPC :1.74835: L2-Pf-HR :0.83777: L2-HR :0.81998: (Sim:0h3m30s) 
CPU  0 inst:   15000001 cyc:    8417057 now IPC :1.74536: AVG IPC :1.74812: L2-Pf-HR :0.84361: L2-HR :0.82257: (Sim:0h3m43s) 
CPU  0 inst:   16000000 cyc:    8990992 now IPC :1.74236: AVG IPC :1.74771: L2-Pf-HR :0.84365: L2-HR :0.82214: (Sim:0h3m55s) 
CPU  0 inst:   17000000 cyc:    9584392 now IPC :1.68520: AVG IPC :1.74340: L2-Pf-HR :0.83682: L2-HR :0.81795: (Sim:0h4m14s) 
CPU  0 inst:   18000001 cyc:   10158777 now IPC :1.74099: AVG IPC :1.74325: L2-Pf-HR :0.84184: L2-HR :0.82021: (Sim:0h4m32s) 
CPU  0 inst:   19000004 cyc:   10727804 now IPC :1.75739: AVG IPC :1.74407: L2-Pf-HR :0.84501: L2-HR :0.82134: (Sim:0h4m50s) 
CPU  0 inst:   20000000 cyc:   11300733 now IPC :1.74541: AVG IPC :1.74415: L2-Pf-HR :0.84596: L2-HR :0.82211: (Sim:0h4m59s) 
CPU  0 inst:   21000003 cyc:   11900783 now IPC :1.66653: AVG IPC :1.73988: L2-Pf-HR :0.83975: L2-HR :0.81855: (Sim:0h5m12s) 
CPU  0 inst:   22000000 cyc:   12485228 now IPC :1.71102: AVG IPC :1.73842: L2-Pf-HR :0.84394: L2-HR :0.82010: (Sim:0h5m29s) 
CPU  0 inst:   23000003 cyc:   13065851 now IPC :1.72229: AVG IPC :1.73764: L2-Pf-HR :0.84665: L2-HR :0.82156: (Sim:0h5m47s) 
CPU  0 inst:   24000004 cyc:   13658277 now IPC :1.68798: AVG IPC :1.73532: L2-Pf-HR :0.84815: L2-HR :0.82200: (Sim:0h6m5s) 
CPU  0 inst:   25000003 cyc:   14281195 now IPC :1.60535: AVG IPC :1.72923: L2-Pf-HR :0.84174: L2-HR :0.81833: (Sim:0h6m23s) 
CPU  0 inst:   26000004 cyc:   14873616 now IPC :1.68799: AVG IPC :1.72748: L2-Pf-HR :0.84450: L2-HR :0.81997: (Sim:0h6m41s) 
CPU  0 inst:   27000000 cyc:   15479090 now IPC :1.65159: AVG IPC :1.72431: L2-Pf-HR :0.84706: L2-HR :0.82112: (Sim:0h6m53s) 
CPU  0 inst:   28000001 cyc:   16090613 now IPC :1.63526: AVG IPC :1.72070: L2-Pf-HR :0.84910: L2-HR :0.82204: (Sim:0h7m5s) 
CPU  0 inst:   29000002 cyc:   16736264 now IPC :1.54883: AVG IPC :1.71366: L2-Pf-HR :0.84314: L2-HR :0.81889: (Sim:0h7m14s) 
CPU  0 inst:   30000000 cyc:   17358537 now IPC :1.60701: AVG IPC :1.70961: L2-Pf-HR :0.84503: L2-HR :0.81975: (Sim:0h7m24s) 
CPU  0 inst:   31000001 cyc:   17976579 now IPC :1.61801: AVG IPC :1.70628: L2-Pf-HR :0.84789: L2-HR :0.82093: (Sim:0h7m33s) 
CPU  0 inst:   32000003 cyc:   18612209 now IPC :1.57325: AVG IPC :1.70148: L2-Pf-HR :0.84997: L2-HR :0.82165: (Sim:0h7m43s) 
CPU  0 inst:   33000003 cyc:   19247660 now IPC :1.57369: AVG IPC :1.69704: L2-Pf-HR :0.84614: L2-HR :0.81975: (Sim:0h7m58s) 
CPU  0 inst:   34000004 cyc:   19923994 now IPC :1.47856: AVG IPC :1.68924: L2-Pf-HR :0.84587: L2-HR :0.81934: (Sim:0h8m17s) 
CPU  0 inst:   35000000 cyc:   20562515 now IPC :1.56611: AVG IPC :1.68522: L2-Pf-HR :0.84833: L2-HR :0.82052: (Sim:0h8m31s) 
CPU  0 inst:   36000000 cyc:   21189247 now IPC :1.59558: AVG IPC :1.68244: L2-Pf-HR :0.84966: L2-HR :0.82107: (Sim:0h8m48s) 
CPU  0 inst:   37000005 cyc:   21805116 now IPC :1.62373: AVG IPC :1.68070: L2-Pf-HR :0.84731: L2-HR :0.82002: (Sim:0h9m7s) 
CPU  0 inst:   38000003 cyc:   22486933 now IPC :1.46667: AVG IPC :1.67392: L2-Pf-HR :0.84624: L2-HR :0.81926: (Sim:0h9m26s) 
CPU  0 inst:   39000003 cyc:   23118513 now IPC :1.58333: AVG IPC :1.67133: L2-Pf-HR :0.84830: L2-HR :0.81998: (Sim:0h9m38s) 
CPU  0 inst:   40000000 cyc:   23755368 now IPC :1.57021: AVG IPC :1.66851: L2-Pf-HR :0.85008: L2-HR :0.82058: (Sim:0h9m55s) 
CPU  0 inst:   41000003 cyc:   24385282 now IPC :1.58752: AVG IPC :1.66633: L2-Pf-HR :0.84851: L2-HR :0.81981: (Sim:0h10m13s) 
CPU  0 inst:   42000003 cyc:   25070657 now IPC :1.45906: AVG IPC :1.66043: L2-Pf-HR :0.84710: L2-HR :0.81892: (Sim:0h10m32s) 
CPU  0 inst:   43000003 cyc:   25705364 now IPC :1.57553: AVG IPC :1.65825: L2-Pf-HR :0.84901: L2-HR :0.81975: (Sim:0h10m50s) 
CPU  0 inst:   44000001 cyc:   26351963 now IPC :1.54655: AVG IPC :1.65540: L2-Pf-HR :0.85036: L2-HR :0.81998: (Sim:0h11m9s) 
CPU  0 inst:   45000001 cyc:   26970713 now IPC :1.61616: AVG IPC :1.65447: L2-Pf-HR :0.84907: L2-HR :0.81965: (Sim:0h11m27s) 
CPU  0 inst:   46000001 cyc:   27637803 now IPC :1.49905: AVG IPC :1.65058: L2-Pf-HR :0.84727: L2-HR :0.81869: (Sim:0h11m43s) 
CPU  0 inst:   47000000 cyc:   28264781 now IPC :1.59495: AVG IPC :1.64930: L2-Pf-HR :0.84854: L2-HR :0.81921: (Sim:0h12m0s) 
CPU  0 inst:   48000002 cyc:   28894502 now IPC :1.58801: AVG IPC :1.64792: L2-Pf-HR :0.84981: L2-HR :0.81982: (Sim:0h12m18s) 
CPU  0 inst:   49000004 cyc:   29525831 now IPC :1.58396: AVG IPC :1.64650: L2-Pf-HR :0.84921: L2-HR :0.81960: (Sim:0h12m36s) 
CPU  0 inst:   50000001 cyc:   32374979 now IPC :0.35098: AVG IPC :1.52893: L2-Pf-HR :0.82784: L2-HR :0.79284: (Sim:0h13m8s) 
CPU  0 inst:   51000000 cyc:   37034989 now IPC :0.21459: AVG IPC :1.35905: L2-Pf-HR :0.79155: L2-HR :0.75630: (Sim:0h13m53s) 
CPU  0 inst:   52000000 cyc:   40790887 now IPC :0.26625: AVG IPC :1.25595: L2-Pf-HR :0.77671: L2-HR :0.74497: (Sim:0h14m28s) 
CPU  0 inst:   53000000 cyc:   43947292 now IPC :0.31682: AVG IPC :1.18696: L2-Pf-HR :0.76589: L2-HR :0.73929: (Sim:0h14m57s) 
CPU  0 inst:   54000000 cyc:   47102577 now IPC :0.31693: AVG IPC :1.12744: L2-Pf-HR :0.75537: L2-HR :0.73377: (Sim:0h15m25s) 
CPU  0 inst:   55000001 cyc:   50257981 now IPC :0.31692: AVG IPC :1.07554: L2-Pf-HR :0.74513: L2-HR :0.72839: (Sim:0h15m56s) 
CPU  0 inst:   56000000 cyc:   53413823 now IPC :0.31687: AVG IPC :1.02988: L2-Pf-HR :0.73516: L2-HR :0.72315: (Sim:0h16m28s) 
CPU  0 inst:   57000000 cyc:   56569620 now IPC :0.31688: AVG IPC :0.98940: L2-Pf-HR :0.72546: L2-HR :0.71806: (Sim:0h16m59s) 
CPU  0 inst:   58000000 cyc:   59726577 now IPC :0.31676: AVG IPC :0.95326: L2-Pf-HR :0.71602: L2-HR :0.71310: (Sim:0h17m31s) 
CPU  0 inst:   59000000 cyc:   62883118 now IPC :0.31680: AVG IPC :0.92080: L2-Pf-HR :0.70682: L2-HR :0.70826: (Sim:0h18m2s) 
CPU  0 inst:   60000000 cyc:   66038466 now IPC :0.31692: AVG IPC :0.89151: L2-Pf-HR :0.69784: L2-HR :0.70355: (Sim:0h18m28s) 
CPU  0 inst:   61000004 cyc:   69195064 now IPC :0.31680: AVG IPC :0.86492: L2-Pf-HR :0.68908: L2-HR :0.69894: (Sim:0h18m51s) 
CPU  0 inst:   62000000 cyc:   72351911 now IPC :0.31677: AVG IPC :0.84067: L2-Pf-HR :0.68054: L2-HR :0.69446: (Sim:0h19m22s) 
CPU  0 inst:   63000000 cyc:   75507525 now IPC :0.31690: AVG IPC :0.81850: L2-Pf-HR :0.67220: L2-HR :0.69008: (Sim:0h19m54s) 
CPU  0 inst:   64000005 cyc:   78662768 now IPC :0.31693: AVG IPC :0.79812: L2-Pf-HR :0.66407: L2-HR :0.68581: (Sim:0h20m25s) 
CPU  0 inst:   65000002 cyc:   81818197 now IPC :0.31691: AVG IPC :0.77934: L2-Pf-HR :0.65612: L2-HR :0.68165: (Sim:0h20m57s) 
CPU  0 inst:   66000000 cyc:   84973887 now IPC :0.31689: AVG IPC :0.76196: L2-Pf-HR :0.64836: L2-HR :0.67756: (Sim:0h21m22s) 
CPU  0 inst:   67000000 cyc:   88130707 now IPC :0.31677: AVG IPC :0.74584: L2-Pf-HR :0.64080: L2-HR :0.67359: (Sim:0h21m53s) 
CPU  0 inst:   68000000 cyc:   91287210 now IPC :0.31681: AVG IPC :0.73084: L2-Pf-HR :0.63341: L2-HR :0.66970: (Sim:0h22m25s) 
CPU  0 inst:   69000004 cyc:   94442554 now IPC :0.31692: AVG IPC :0.71687: L2-Pf-HR :0.62619: L2-HR :0.66590: (Sim:0h22m53s) 
CPU  0 inst:   70000000 cyc:   97599277 now IPC :0.31678: AVG IPC :0.70380: L2-Pf-HR :0.61912: L2-HR :0.66219: (Sim:0h23m12s) 
CPU  0 inst:   71000000 cyc:  100756272 now IPC :0.31676: AVG IPC :0.69155: L2-Pf-HR :0.61223: L2-HR :0.65856: (Sim:0h23m27s) 
CPU  0 inst:   72000000 cyc:  103911886 now IPC :0.31690: AVG IPC :0.68006: L2-Pf-HR :0.60547: L2-HR :0.65500: (Sim:0h23m44s) 
CPU  0 inst:   73000000 cyc:  107067960 now IPC :0.31685: AVG IPC :0.66926: L2-Pf-HR :0.59885: L2-HR :0.65152: (Sim:0h24m15s) 
CPU  0 inst:   74000001 cyc:  110222906 now IPC :0.31696: AVG IPC :0.65908: L2-Pf-HR :0.59239: L2-HR :0.64812: (Sim:0h24m47s) 
CPU  0 inst:   75000002 cyc:  113378529 now IPC :0.31689: AVG IPC :0.64948: L2-Pf-HR :0.58605: L2-HR :0.64479: (Sim:0h25m20s) 
CPU  0 inst:   76000000 cyc:  115073866 now IPC :0.58985: AVG IPC :0.64859: L2-Pf-HR :0.58470: L2-HR :0.64344: (Sim:0h25m43s) 
CPU  0 inst:   77000002 cyc:  115658127 now IPC :1.71157: AVG IPC :0.65401: L2-Pf-HR :0.58645: L2-HR :0.64424: (Sim:0h26m4s) 
CPU  0 inst:   78000004 cyc:  116270148 now IPC :1.63393: AVG IPC :0.65921: L2-Pf-HR :0.58845: L2-HR :0.64498: (Sim:0h26m24s) 
CPU  0 inst:   79000000 cyc:  116807362 now IPC :1.86145: AVG IPC :0.66479: L2-Pf-HR :0.59122: L2-HR :0.64646: (Sim:0h26m44s) 
CPU  0 inst:   80000005 cyc:  117394248 now IPC :1.70392: AVG IPC :0.67002: L2-Pf-HR :0.59237: L2-HR :0.64711: (Sim:0h27m5s) 
CPU  0 inst:   81000000 cyc:  117968056 now IPC :1.74273: AVG IPC :0.67529: L2-Pf-HR :0.59372: L2-HR :0.64780: (Sim:0h27m27s) 
CPU  0 inst:   82000001 cyc:  118542625 now IPC :1.74044: AVG IPC :0.68049: L2-Pf-HR :0.59511: L2-HR :0.64865: (Sim:0h27m47s) 
CPU  0 inst:   83000003 cyc:  119080456 now IPC :1.85932: AVG IPC :0.68586: L2-Pf-HR :0.59728: L2-HR :0.64989: (Sim:0h28m7s) 
CPU  0 inst:   84000004 cyc:  119669002 now IPC :1.69910: AVG IPC :0.69088: L2-Pf-HR :0.59848: L2-HR :0.65062: (Sim:0h28m26s) 
CPU  0 inst:   85000005 cyc:  120242624 now IPC :1.74331: AVG IPC :0.69595: L2-Pf-HR :0.59990: L2-HR :0.65134: (Sim:0h28m48s) 
CPU  0 inst:   86000003 cyc:  120832798 now IPC :1.69441: AVG IPC :0.70086: L2-Pf-HR :0.60085: L2-HR :0.65194: (Sim:0h29m9s) 
CPU  0 inst:   87000003 cyc:  121373782 now IPC :1.84848: AVG IPC :0.70602: L2-Pf-HR :0.60287: L2-HR :0.65310: (Sim:0h29m30s) 
CPU  0 inst:   88000001 cyc:  121939462 now IPC :1.76778: AVG IPC :0.71099: L2-Pf-HR :0.60410: L2-HR :0.65387: (Sim:0h29m51s) 
CPU  0 inst:   89000000 cyc:  122523529 now IPC :1.71213: AVG IPC :0.71580: L2-Pf-HR :0.60523: L2-HR :0.65446: (Sim:0h30m12s) 
CPU  0 inst:   90000001 cyc:  123092642 now IPC :1.75712: AVG IPC :0.72065: L2-Pf-HR :0.60641: L2-HR :0.65511: (Sim:0h30m32s) 
CPU  0 inst:   91000002 cyc:  123663417 now IPC :1.75201: AVG IPC :0.72545: L2-Pf-HR :0.60783: L2-HR :0.65599: (Sim:0h30m52s) 
CPU  0 inst:   92000000 cyc:  124202231 now IPC :1.85592: AVG IPC :0.73039: L2-Pf-HR :0.60961: L2-HR :0.65707: (Sim:0h31m14s) 
CPU  0 inst:   93000001 cyc:  124796670 now IPC :1.68226: AVG IPC :0.73496: L2-Pf-HR :0.61032: L2-HR :0.65751: (Sim:0h31m36s) 
CPU  0 inst:   94000004 cyc:  125367537 now IPC :1.75173: AVG IPC :0.73963: L2-Pf-HR :0.61141: L2-HR :0.65813: (Sim:0h31m51s) 
CPU  0 inst:   95000004 cyc:  125936084 now IPC :1.75887: AVG IPC :0.74426: L2-Pf-HR :0.61241: L2-HR :0.65880: (Sim:0h32m12s) 
CPU  0 inst:   96000001 cyc:  126472682 now IPC :1.86359: AVG IPC :0.74905: L2-Pf-HR :0.61418: L2-HR :0.65988: (Sim:0h32m33s) 
CPU  0 inst:   97000003 cyc:  127070705 now IPC :1.67218: AVG IPC :0.75343: L2-Pf-HR :0.61495: L2-HR :0.66036: (Sim:0h32m55s) 
CPU  0 inst:   98000005 cyc:  127637438 now IPC :1.76450: AVG IPC :0.75795: L2-Pf-HR :0.61592: L2-HR :0.66090: (Sim:0h33m16s) 
CPU  0 inst:   99000002 cyc:  128220237 now IPC :1.71585: AVG IPC :0.76234: L2-Pf-HR :0.61676: L2-HR :0.66147: (Sim:0h33m38s) 
CPU  0 inst:  100000001 cyc:  128754051 now IPC :1.87331: AVG IPC :0.76698: L2-Pf-HR :0.61840: L2-HR :0.66248: (Sim:0h33m59s) 
CPU  0 inst:  101000003 cyc:  129333863 now IPC :1.72470: AVG IPC :0.77131: L2-Pf-HR :0.61932: L2-HR :0.66312: (Sim:0h34m20s) 
CPU  0 inst:  102000004 cyc:  129895008 now IPC :1.78207: AVG IPC :0.77571: L2-Pf-HR :0.62025: L2-HR :0.66361: (Sim:0h34m41s) 
CPU  0 inst:  103000004 cyc:  130460906 now IPC :1.76710: AVG IPC :0.78004: L2-Pf-HR :0.62076: L2-HR :0.66403: (Sim:0h35m3s) 
CPU  0 inst:  104000005 cyc:  130992554 now IPC :1.88095: AVG IPC :0.78454: L2-Pf-HR :0.62231: L2-HR :0.66500: (Sim:0h35m24s) 
CPU  0 inst:  105000001 cyc:  131543988 now IPC :1.81345: AVG IPC :0.78889: L2-Pf-HR :0.62323: L2-HR :0.66570: (Sim:0h35m41s) 
CPU  0 inst:  106000004 cyc:  132102434 now IPC :1.79069: AVG IPC :0.79315: L2-Pf-HR :0.62390: L2-HR :0.66606: (Sim:0h36m0s) 
CPU  0 inst:  107000000 cyc:  132664354 now IPC :1.77961: AVG IPC :0.79736: L2-Pf-HR :0.62434: L2-HR :0.66641: (Sim:0h36m21s) 
CPU  0 inst:  108000004 cyc:  133188222 now IPC :1.90889: AVG IPC :0.80177: L2-Pf-HR :0.62574: L2-HR :0.66733: (Sim:0h36m41s) 
CPU  0 inst:  109000003 cyc:  133732205 now IPC :1.83829: AVG IPC :0.80602: L2-Pf-HR :0.62672: L2-HR :0.66803: (Sim:0h37m2s) 
CPU  0 inst:  110000001 cyc:  134301792 now IPC :1.75565: AVG IPC :0.81007: L2-Pf-HR :0.62725: L2-HR :0.66830: (Sim:0h37m23s) 
CPU  0 inst:  111000004 cyc:  134862616 now IPC :1.78310: AVG IPC :0.81415: L2-Pf-HR :0.62767: L2-HR :0.66859: (Sim:0h37m43s) 
CPU  0 inst:  112000004 cyc:  135391187 now IPC :1.89189: AVG IPC :0.81839: L2-Pf-HR :0.62898: L2-HR :0.66945: (Sim:0h38m4s) 
CPU  0 inst:  113000001 cyc:  135931413 now IPC :1.85107: AVG IPC :0.82252: L2-Pf-HR :0.62998: L2-HR :0.67013: (Sim:0h38m25s) 
CPU  0 inst:  114000000 cyc:  136492584 now IPC :1.78199: AVG IPC :0.82649: L2-Pf-HR :0.63044: L2-HR :0.67045: (Sim:0h38m46s) 
CPU  0 inst:  115000000 cyc:  137046086 now IPC :1.80668: AVG IPC :0.83048: L2-Pf-HR :0.63117: L2-HR :0.67093: (Sim:0h39m6s) 
CPU  0 inst:  116000002 cyc:  137590978 now IPC :1.83523: AVG IPC :0.83449: L2-Pf-HR :0.63211: L2-HR :0.67162: (Sim:0h39m27s) 
CPU  0 inst:  117000003 cyc:  138116845 now IPC :1.90162: AVG IPC :0.83858: L2-Pf-HR :0.63339: L2-HR :0.67250: (Sim:0h39m48s) 
CPU  0 inst:  118000001 cyc:  138682939 now IPC :1.76649: AVG IPC :0.84240: L2-Pf-HR :0.63355: L2-HR :0.67264: (Sim:0h40m9s) 
CPU  0 inst:  119000004 cyc:  139240790 now IPC :1.79260: AVG IPC :0.84623: L2-Pf-HR :0.63422: L2-HR :0.67305: (Sim:0h40m30s) 
CPU  0 inst:  120000004 cyc:  139791086 now IPC :1.81720: AVG IPC :0.85008: L2-Pf-HR :0.63500: L2-HR :0.67365: (Sim:0h40m51s) 
CPU  0 inst:  121000003 cyc:  140314851 now IPC :1.90925: AVG IPC :0.85406: L2-Pf-HR :0.63621: L2-HR :0.67447: (Sim:0h41m12s) 
CPU  0 inst:  122000003 cyc:  140891600 now IPC :1.73386: AVG IPC :0.85769: L2-Pf-HR :0.63638: L2-HR :0.67465: (Sim:0h41m33s) 
Finished CPU 0 instr: 120000000 cyc: 139911086 AVG IPC: 0.85769 (Sim time: 0h41m33s)

ChampSim completed all CPUs

[ROI Statistics]
Core_0_instructions 120000000
Core_0_cycles 139911086
Core_0_IPC 0.85769

Core_0_branch_prediction_accuracy 99.19469
Core_0_branch_MPKI 0.24154
Core_0_average_ROB_occupancy_at_mispredict 442.89836

Core_0_L1D_total_access 40457976
Core_0_L1D_total_hit 38242610 L1D_total_Hit Ratio: 0.94524
Core_0_L1D_total_miss 2215366
Core_0_L1D_loads 34801415
Core_0_L1D_load_hit 34054440 L1D_load_Hit Ratio: 0.97854
Core_0_L1D_load_miss 746975
Core_0_L1D_RFOs 3309532
Core_0_L1D_RFO_hit 3203781 L1D_RFO_Hit Ratio: 0.96805
Core_0_L1D_RFO_miss 105751
Core_0_L1D_prefetches 2347029
Core_0_L1D_prefetch_hit 984389 L1D_prefetch_Hit Ratio: 0.41942
Core_0_L1D_prefetch_miss 1362640
Core_0_L1D_writebacks 0
Core_0_L1D_writeback_hit 0 L1D_writeback_Hit Ratio: -nan
Core_0_L1D_writeback_miss 0
Core_0_L1D_prefetch_requested 2686060
Core_0_L1D_prefetch_issued 2686060
Core_0_L1D_prefetch_useful 1354297 L1D_Useful Ratio: 0.50419
Core_0_L1D_prefetch_useless 34935
Core_0_L1D_prefetch_late 150235
Core_0_L1D_average_miss_latency 2562662.60360

Core_0_L1I_total_access 18543695
Core_0_L1I_total_hit 18541736 L1I_total_Hit Ratio: 0.99989
Core_0_L1I_total_miss 1959
Core_0_L1I_loads 18543695
Core_0_L1I_load_hit 18541736 L1I_load_Hit Ratio: 0.99989
Core_0_L1I_load_miss 1959
Core_0_L1I_RFOs 0
Core_0_L1I_RFO_hit 0 L1I_RFO_Hit Ratio: -nan
Core_0_L1I_RFO_miss 0
Core_0_L1I_prefetches 0
Core_0_L1I_prefetch_hit 0 L1I_prefetch_Hit Ratio: -nan
Core_0_L1I_prefetch_miss 0
Core_0_L1I_writebacks 0
Core_0_L1I_writeback_hit 0 L1I_writeback_Hit Ratio: -nan
Core_0_L1I_writeback_miss 0
Core_0_L1I_prefetch_requested 0
Core_0_L1I_prefetch_issued 0
Core_0_L1I_prefetch_useful 0 L1I_Useful Ratio: -nan
Core_0_L1I_prefetch_useless 0
Core_0_L1I_prefetch_late 0
Core_0_L1I_average_miss_latency 269.77233

Core_0_L2C_total_access 3256166
Core_0_L2C_total_hit 2196773 L2C_total_Hit Ratio: 0.67465
Core_0_L2C_total_miss 1059393
Core_0_L2C_loads 599653
Core_0_L2C_load_hit 302471 L2C_load_Hit Ratio: 0.50441
Core_0_L2C_load_miss 297182
Core_0_L2C_RFOs 105749
Core_0_L2C_RFO_hit 500 L2C_RFO_Hit Ratio: 0.00473
Core_0_L2C_RFO_miss 105249
Core_0_L2C_prefetches 1806715
Core_0_L2C_prefetch_hit 1149758 L2C_prefetch_Hit Ratio: 0.63638
Core_0_L2C_prefetch_miss 656957
Core_0_L2C_writebacks 744049
Core_0_L2C_writeback_hit 744044 L2C_writeback_Hit Ratio: 0.99999
Core_0_L2C_writeback_miss 5
Core_0_L2C_prefetch_requested 669138
Core_0_L2C_prefetch_issued 669138
Core_0_L2C_prefetch_useful 110758 L2C_Useful Ratio: 0.16552
Core_0_L2C_prefetch_useless 507034
Core_0_L2C_prefetch_late 124664
Core_0_L2C_average_miss_latency 340.68837

Core_0_LLC_total_access 1669628
Core_0_LLC_total_hit 606600 LLC_total_Hit Ratio: 0.36331
Core_0_LLC_total_miss 1063028
Core_0_LLC_loads 172524
Core_0_LLC_load_hit 4 LLC_load_Hit Ratio: 0.00002
Core_0_LLC_load_miss 172520
Core_0_LLC_RFOs 105249
Core_0_LLC_RFO_hit 1 LLC_RFO_Hit Ratio: 0.00001
Core_0_LLC_RFO_miss 105248
Core_0_LLC_prefetches 781615
Core_0_LLC_prefetch_hit 0 LLC_prefetch_Hit Ratio: 0.00000
Core_0_LLC_prefetch_miss 781615
Core_0_LLC_writebacks 610240
Core_0_LLC_writeback_hit 606595 LLC_writeback_Hit Ratio: 0.99403
Core_0_LLC_writeback_miss 3645
Core_0_LLC_prefetch_requested 0
Core_0_LLC_prefetch_issued 0
Core_0_LLC_prefetch_useful 0 LLC_Useful Ratio: -nan
Core_0_LLC_prefetch_useless 670447
Core_0_LLC_prefetch_late 0
Core_0_LLC_average_miss_latency 343.64862

Core_0_major_page_fault 0
Core_0_minor_page_fault 8629

[Bingo] PHT Access: 287488
[Bingo] PHT Hit PC+Addr: 94186
[Bingo] PHT Hit PC+Offs: 183814
[Bingo] PHT Miss: 9488
[Bingo] Prefetch PC+Addr: 0
[Bingo] Prefetch PC+Offs: 0
[Bingo] Useful PC+Addr: 0
[Bingo] Useful PC+Offs: 0
[Bingo] Useless PC+Addr: 0
[Bingo] Useless PC+Offs: 0
[Bingo] L1 Prefetch per Region: 11.62126
[Bingo] L2 Prefetch per Region: 0.46358
[Bingo] L3 Prefetch per Region: 0.00000
[Bingo] No Prefetch per Region: 19.91516
[Bingo] Number of Voters Mean: 15.57419
[Bingo] Number of Voters SD: 3.19884
PHT read accesses: 3806456
PHT write accesses: 276697
AT read accesses: 32886716
AT write accesses: 32887067
FT read accesses: 5058528
FT write accesses: 287488
PS read accesses: 2579865
PS write accesses: 278000
PHT tag read accesses: 11240266
PHT tag write accesses: 370883
AT tag read accesses: 605952534
AT tag write accesses: 33163412
FT tag read accesses: 87698471
FT tag write accesses: 2960302
PS tag read accesses: 569459570
PS tag write accesses: 2848767
[Bingo2] PHT Access: 144423
[Bingo2] PHT Hit PC+Addr: 5508
[Bingo2] PHT Hit PC+Offs: 131341
[Bingo2] PHT Miss: 7574
[Bingo2] Prefetch PC+Addr: 0
[Bingo2] Prefetch PC+Offs: 0
[Bingo2] Useful PC+Addr: 0
[Bingo2] Useful PC+Offs: 0
[Bingo2] Useless PC+Addr: 0
[Bingo2] Useless PC+Offs: 0
[Bingo2] L1 Prefetch per Region: 0.00000
[Bingo2] L2 Prefetch per Region: 7.26358
[Bingo2] L3 Prefetch per Region: 0.00000
[Bingo2] No Prefetch per Region: 24.73642
[Bingo2] Number of Voters Mean: 15.51512
[Bingo2] Number of Voters SD: 1.80284
PHT read accesses: 2111581
PHT write accesses: 88519
AT read accesses: 452231
AT write accesses: 540621
FT read accesses: 271889
FT write accesses: 144423
PS read accesses: 318208
PS write accesses: 136849
PHT tag read accesses: 5042781
PHT tag write accesses: 94027
AT tag read accesses: 30012189
AT tag write accesses: 540750
FT tag read accesses: 25270133
FT tag write accesses: 324665
PS tag read accesses: 14210203
PS tag write accesses: 447690
Channel_0_RQ_row_buffer_hit 569296
Channel_0_RQ_row_buffer_miss 490087
Channel_0_WQ_row_buffer_hit 238848
Channel_0_WQ_row_buffer_miss 365545
Channel_0_WQ_full 1638
Channel_0_dbus_congested 1095493

avg_congested_cycle 8

EzSearch AVG IPC :0.85769: L2-Pf-HR :0.63638 : L2-HR :0.67465 Uful:0.16552
     > Finished combination: TraceType=770-tot Sim:120000000 Prefetcher=L2bingo_dpc3 L1=bingo_dpc3
