TRACE: [1319000000]_FE_[Pythia-70M]_[h8]_[s2048]_[d64] Warmup: 2000000 NumTraces: 1319000000
L1:no:L2:spp_berti_src
Initialize SIGNATURE TABLE
ST_SET: 1
ST_WAY: 256
ST_TAG_BIT: 16
ST_TAG_MASK: ffff

Initialize PATTERN TABLE
PT_SET: 512
PT_WAY: 4
SIG_DELTA_BIT: 7
C_SIG_BIT: 4
C_DELTA_BIT: 4

Initialize PREFETCH FILTER
FILTER_SET: 1024
*************************************************
   ChampSim Multicore Out-of-Order Simulator
   Last compiled: Oct 30 2024 21:53:20
*************************************************

trace_0 770-tot_memTraces_v5/120-subBillion_s2048_LLM_Arch/memTraces[1319000000]_FE_[Pythia-70M]_[h8]_[s2048]_[d64].champsim.9SSize.xz
ST_WAYS: 256
PT_SETS: 512
MAIN.cc ln 751 stats print skipped
CPU  0 inst:    1000002 cyc:     498007 now IPC :2.00801: AVG IPC :2.00801: L2-Pf-HR :0.96638: L2-HR :0.85095: (Sim:0h0m7s) 
CPU  0 inst:    2000005 cyc:     980796 now IPC :2.07130: AVG IPC :2.03917: L2-Pf-HR :0.98377: L2-HR :0.90345: (Sim:0h0m14s) 

Warmup complete CPU  0 instructions:    2000005 cycles:     980796 (Simulation time: 0 hr 0 min 14 sec) 

CPU  0 inst:    3000004 cyc:    1460796 now IPC :2.08333: AVG IPC :2.08333: L2-Pf-HR :0.93496: L2-HR :0.91037: (Sim:0h0m20s) 
CPU  0 inst:    4000002 cyc:    1939218 now IPC :2.09020: AVG IPC :2.08676: L2-Pf-HR :0.94729: L2-HR :0.91549: (Sim:0h0m27s) 
CPU  0 inst:    5000000 cyc:    2417881 now IPC :2.08915: AVG IPC :2.08756: L2-Pf-HR :0.95565: L2-HR :0.92096: (Sim:0h0m33s) 
CPU  0 inst:    6000001 cyc:    2917243 now IPC :2.00256: AVG IPC :2.06564: L2-Pf-HR :0.95711: L2-HR :0.92048: (Sim:0h0m39s) 
CPU  0 inst:    7000002 cyc:    3479084 now IPC :1.77986: AVG IPC :2.00137: L2-Pf-HR :0.95717: L2-HR :0.92028: (Sim:0h0m46s) 
CPU  0 inst:    8000000 cyc:    3970293 now IPC :2.03579: AVG IPC :2.00703: L2-Pf-HR :0.96358: L2-HR :0.92304: (Sim:0h0m52s) 
CPU  0 inst:    9000004 cyc:    4456059 now IPC :2.05861: AVG IPC :2.01424: L2-Pf-HR :0.97009: L2-HR :0.92596: (Sim:0h0m59s) 
CPU  0 inst:   10000002 cyc:    4939526 now IPC :2.06839: AVG IPC :2.02085: L2-Pf-HR :0.97082: L2-HR :0.92604: (Sim:0h1m5s) 
CPU  0 inst:   11000003 cyc:    5416842 now IPC :2.09505: AVG IPC :2.02883: L2-Pf-HR :0.96866: L2-HR :0.92483: (Sim:0h1m11s) 
CPU  0 inst:   12000001 cyc:    5910657 now IPC :2.02505: AVG IPC :2.02845: L2-Pf-HR :0.96752: L2-HR :0.92444: (Sim:0h1m18s) 
CPU  0 inst:   13000002 cyc:    6499675 now IPC :1.69774: AVG IPC :1.99316: L2-Pf-HR :0.96847: L2-HR :0.92382: (Sim:0h1m24s) 
CPU  0 inst:   14000003 cyc:    6973336 now IPC :2.11122: AVG IPC :2.00249: L2-Pf-HR :0.96790: L2-HR :0.92414: (Sim:0h1m31s) 
CPU  0 inst:   15000002 cyc:    7435690 now IPC :2.16284: AVG IPC :2.01398: L2-Pf-HR :0.96654: L2-HR :0.92422: (Sim:0h1m37s) 
CPU  0 inst:   16000000 cyc:    7895407 now IPC :2.17525: AVG IPC :2.02470: L2-Pf-HR :0.96517: L2-HR :0.92454: (Sim:0h1m44s) 
CPU  0 inst:   17000000 cyc:    8352311 now IPC :2.18864: AVG IPC :2.03486: L2-Pf-HR :0.96445: L2-HR :0.92506: (Sim:0h1m50s) 
CPU  0 inst:   18000000 cyc:    8810322 now IPC :2.18335: AVG IPC :2.04355: L2-Pf-HR :0.96364: L2-HR :0.92541: (Sim:0h1m57s) 
CPU  0 inst:   19000000 cyc:    9354018 now IPC :1.83926: AVG IPC :2.03028: L2-Pf-HR :0.96340: L2-HR :0.92569: (Sim:0h2m3s) 
CPU  0 inst:   20000001 cyc:    9822924 now IPC :2.13263: AVG IPC :2.03571: L2-Pf-HR :0.96486: L2-HR :0.92681: (Sim:0h2m10s) 
CPU  0 inst:   21000004 cyc:   10296508 now IPC :2.11156: AVG IPC :2.03956: L2-Pf-HR :0.96752: L2-HR :0.92857: (Sim:0h2m16s) 
CPU  0 inst:   22000004 cyc:   10779717 now IPC :2.06950: AVG IPC :2.04104: L2-Pf-HR :0.96996: L2-HR :0.93030: (Sim:0h2m23s) 
CPU  0 inst:   23000004 cyc:   11251127 now IPC :2.12130: AVG IPC :2.04472: L2-Pf-HR :0.97130: L2-HR :0.93128: (Sim:0h2m30s) 
CPU  0 inst:   24000004 cyc:   11709197 now IPC :2.18307: AVG IPC :2.05063: L2-Pf-HR :0.97030: L2-HR :0.93128: (Sim:0h2m36s) 
CPU  0 inst:   25000005 cyc:   12310792 now IPC :1.66225: AVG IPC :2.03001: L2-Pf-HR :0.97069: L2-HR :0.93106: (Sim:0h2m43s) 
CPU  0 inst:   26000004 cyc:   12811742 now IPC :1.99621: AVG IPC :2.02858: L2-Pf-HR :0.97128: L2-HR :0.93152: (Sim:0h2m50s) 
CPU  0 inst:   27000005 cyc:   13274816 now IPC :2.15948: AVG IPC :2.03351: L2-Pf-HR :0.97054: L2-HR :0.93145: (Sim:0h2m57s) 
CPU  0 inst:   28000005 cyc:   13731261 now IPC :2.19084: AVG IPC :2.03914: L2-Pf-HR :0.96963: L2-HR :0.93144: (Sim:0h3m3s) 
CPU  0 inst:   29000001 cyc:   14187198 now IPC :2.19328: AVG IPC :2.04446: L2-Pf-HR :0.96899: L2-HR :0.93152: (Sim:0h3m10s) 
CPU  0 inst:   30000005 cyc:   14644427 now IPC :2.18710: AVG IPC :2.04924: L2-Pf-HR :0.96866: L2-HR :0.93149: (Sim:0h3m17s) 
CPU  0 inst:   31000005 cyc:   15209056 now IPC :1.77107: AVG IPC :2.03820: L2-Pf-HR :0.96896: L2-HR :0.93164: (Sim:0h3m24s) 
CPU  0 inst:   32000000 cyc:   15674310 now IPC :2.14935: AVG IPC :2.04172: L2-Pf-HR :0.96906: L2-HR :0.93199: (Sim:0h3m31s) 
CPU  0 inst:   33000003 cyc:   16155615 now IPC :2.07769: AVG IPC :2.04286: L2-Pf-HR :0.97060: L2-HR :0.93313: (Sim:0h3m38s) 
CPU  0 inst:   34000003 cyc:   16643647 now IPC :2.04905: AVG IPC :2.04305: L2-Pf-HR :0.97191: L2-HR :0.93392: (Sim:0h3m45s) 
CPU  0 inst:   35000003 cyc:   17111184 now IPC :2.13887: AVG IPC :2.04583: L2-Pf-HR :0.97151: L2-HR :0.93391: (Sim:0h3m52s) 
CPU  0 inst:   36000003 cyc:   17569675 now IPC :2.18107: AVG IPC :2.04957: L2-Pf-HR :0.97105: L2-HR :0.93398: (Sim:0h3m59s) 
CPU  0 inst:   37000000 cyc:   18199570 now IPC :1.58756: AVG IPC :2.03266: L2-Pf-HR :0.97098: L2-HR :0.93360: (Sim:0h4m6s) 
CPU  0 inst:   38000003 cyc:   18675377 now IPC :2.10170: AVG IPC :2.03452: L2-Pf-HR :0.97024: L2-HR :0.93345: (Sim:0h4m13s) 
CPU  0 inst:   39000001 cyc:   19140718 now IPC :2.14896: AVG IPC :2.03745: L2-Pf-HR :0.96968: L2-HR :0.93328: (Sim:0h4m20s) 
CPU  0 inst:   40000001 cyc:   19600781 now IPC :2.17362: AVG IPC :2.04082: L2-Pf-HR :0.96927: L2-HR :0.93331: (Sim:0h4m27s) 
CPU  0 inst:   41000001 cyc:   20067245 now IPC :2.14379: AVG IPC :2.04333: L2-Pf-HR :0.96878: L2-HR :0.93331: (Sim:0h4m34s) 
CPU  0 inst:   42000001 cyc:   20524822 now IPC :2.18542: AVG IPC :2.04666: L2-Pf-HR :0.96827: L2-HR :0.93315: (Sim:0h4m41s) 
CPU  0 inst:   43000002 cyc:   21089521 now IPC :1.77086: AVG IPC :2.03892: L2-Pf-HR :0.96806: L2-HR :0.93313: (Sim:0h4m48s) 
CPU  0 inst:   44000005 cyc:   21576446 now IPC :2.05371: AVG IPC :2.03927: L2-Pf-HR :0.96779: L2-HR :0.93321: (Sim:0h4m55s) 
CPU  0 inst:   45000005 cyc:   22057122 now IPC :2.08040: AVG IPC :2.04020: L2-Pf-HR :0.96877: L2-HR :0.93388: (Sim:0h5m2s) 
CPU  0 inst:   46000005 cyc:   22538771 now IPC :2.07620: AVG IPC :2.04101: L2-Pf-HR :0.96983: L2-HR :0.93451: (Sim:0h5m9s) 
CPU  0 inst:   47000005 cyc:   23013464 now IPC :2.10662: AVG IPC :2.04242: L2-Pf-HR :0.96933: L2-HR :0.93433: (Sim:0h5m16s) 
CPU  0 inst:   48000005 cyc:   23478997 now IPC :2.14808: AVG IPC :2.04461: L2-Pf-HR :0.96896: L2-HR :0.93439: (Sim:0h5m23s) 
CPU  0 inst:   49000000 cyc:   24127234 now IPC :1.54264: AVG IPC :2.03055: L2-Pf-HR :0.96911: L2-HR :0.93408: (Sim:0h5m30s) 
CPU  0 inst:   50000000 cyc:   24618600 now IPC :2.03514: AVG IPC :2.03065: L2-Pf-HR :0.96880: L2-HR :0.93411: (Sim:0h5m37s) 
CPU  0 inst:   51000000 cyc:   25088816 now IPC :2.12668: AVG IPC :2.03252: L2-Pf-HR :0.96844: L2-HR :0.93400: (Sim:0h5m43s) 
CPU  0 inst:   52000000 cyc:   25555361 now IPC :2.14342: AVG IPC :2.03462: L2-Pf-HR :0.96826: L2-HR :0.93407: (Sim:0h5m50s) 
CPU  0 inst:   53000000 cyc:   26018889 now IPC :2.15737: AVG IPC :2.03690: L2-Pf-HR :0.96785: L2-HR :0.93396: (Sim:0h5m57s) 
CPU  0 inst:   54000004 cyc:   26492431 now IPC :2.11175: AVG IPC :2.03829: L2-Pf-HR :0.96774: L2-HR :0.93392: (Sim:0h6m4s) 
CPU  0 inst:   55000004 cyc:   27064478 now IPC :1.74811: AVG IPC :2.03192: L2-Pf-HR :0.96793: L2-HR :0.93405: (Sim:0h6m12s) 
CPU  0 inst:   56000004 cyc:   27532774 now IPC :2.13540: AVG IPC :2.03375: L2-Pf-HR :0.96798: L2-HR :0.93413: (Sim:0h6m18s) 
CPU  0 inst:   57000004 cyc:   28010506 now IPC :2.09322: AVG IPC :2.03480: L2-Pf-HR :0.96883: L2-HR :0.93463: (Sim:0h6m25s) 
CPU  0 inst:   58000004 cyc:   28511905 now IPC :1.99442: AVG IPC :2.03406: L2-Pf-HR :0.96960: L2-HR :0.93502: (Sim:0h6m33s) 
CPU  0 inst:   59000004 cyc:   28983265 now IPC :2.12152: AVG IPC :2.03553: L2-Pf-HR :0.96921: L2-HR :0.93484: (Sim:0h6m40s) 
CPU  0 inst:   60000001 cyc:   29468199 now IPC :2.06213: AVG IPC :2.03599: L2-Pf-HR :0.96910: L2-HR :0.93493: (Sim:0h6m47s) 
CPU  0 inst:   61000004 cyc:   29991842 now IPC :1.90970: AVG IPC :2.03371: L2-Pf-HR :0.96873: L2-HR :0.93439: (Sim:0h6m54s) 
CPU  0 inst:   62000004 cyc:   30437929 now IPC :2.24172: AVG IPC :2.03686: L2-Pf-HR :0.96814: L2-HR :0.93365: (Sim:0h7m1s) 
CPU  0 inst:   63000005 cyc:   30913011 now IPC :2.10490: AVG IPC :2.03794: L2-Pf-HR :0.96762: L2-HR :0.93299: (Sim:0h7m8s) 
CPU  0 inst:   64000005 cyc:   31367902 now IPC :2.19833: AVG IPC :2.04034: L2-Pf-HR :0.96708: L2-HR :0.93234: (Sim:0h7m15s) 
CPU  0 inst:   65000005 cyc:   32011211 now IPC :1.55446: AVG IPC :2.03027: L2-Pf-HR :0.96687: L2-HR :0.93176: (Sim:0h7m22s) 
CPU  0 inst:   66000005 cyc:   32547856 now IPC :1.86343: AVG IPC :2.02743: L2-Pf-HR :0.96687: L2-HR :0.93179: (Sim:0h7m29s) 
CPU  0 inst:   67000004 cyc:   33084910 now IPC :1.86201: AVG IPC :2.02466: L2-Pf-HR :0.96634: L2-HR :0.93156: (Sim:0h7m37s) 
CPU  0 inst:   68000005 cyc:   33588885 now IPC :1.98423: AVG IPC :2.02404: L2-Pf-HR :0.96642: L2-HR :0.93165: (Sim:0h7m44s) 
CPU  0 inst:   69000000 cyc:   34085913 now IPC :2.01195: AVG IPC :2.02386: L2-Pf-HR :0.96625: L2-HR :0.93159: (Sim:0h7m52s) 
CPU  0 inst:   70000001 cyc:   34578695 now IPC :2.02930: AVG IPC :2.02394: L2-Pf-HR :0.96627: L2-HR :0.93163: (Sim:0h7m59s) 
CPU  0 inst:   71000005 cyc:   35161907 now IPC :1.71465: AVG IPC :2.01866: L2-Pf-HR :0.96634: L2-HR :0.93163: (Sim:0h8m6s) 
CPU  0 inst:   72000000 cyc:   35704949 now IPC :1.84147: AVG IPC :2.01589: L2-Pf-HR :0.96662: L2-HR :0.93171: (Sim:0h8m14s) 
CPU  0 inst:   73000002 cyc:   36256831 now IPC :1.81199: AVG IPC :2.01270: L2-Pf-HR :0.96734: L2-HR :0.93205: (Sim:0h8m21s) 
CPU  0 inst:   74000002 cyc:   36762916 now IPC :1.97595: AVG IPC :2.01218: L2-Pf-HR :0.96752: L2-HR :0.93208: (Sim:0h8m29s) 
CPU  0 inst:   75000004 cyc:   37259413 now IPC :2.01411: AVG IPC :2.01220: L2-Pf-HR :0.96722: L2-HR :0.93194: (Sim:0h8m36s) 
CPU  0 inst:   76000001 cyc:   37757819 now IPC :2.00639: AVG IPC :2.01213: L2-Pf-HR :0.96734: L2-HR :0.93189: (Sim:0h8m43s) 
CPU  0 inst:   77000005 cyc:   38415404 now IPC :1.52072: AVG IPC :2.00349: L2-Pf-HR :0.96737: L2-HR :0.93167: (Sim:0h8m51s) 
CPU  0 inst:   78000001 cyc:   38929041 now IPC :1.94689: AVG IPC :2.00273: L2-Pf-HR :0.96776: L2-HR :0.93180: (Sim:0h8m58s) 
CPU  0 inst:   79000000 cyc:   39397795 now IPC :2.13331: AVG IPC :2.00432: L2-Pf-HR :0.96755: L2-HR :0.93181: (Sim:0h9m5s) 
CPU  0 inst:   80000001 cyc:   39887599 now IPC :2.04164: AVG IPC :2.00479: L2-Pf-HR :0.96735: L2-HR :0.93172: (Sim:0h9m13s) 
CPU  0 inst:   81000001 cyc:   40357710 now IPC :2.12716: AVG IPC :2.00625: L2-Pf-HR :0.96709: L2-HR :0.93169: (Sim:0h9m20s) 
CPU  0 inst:   82000001 cyc:   40833002 now IPC :2.10397: AVG IPC :2.00742: L2-Pf-HR :0.96689: L2-HR :0.93163: (Sim:0h9m27s) 
CPU  0 inst:   83000005 cyc:   41398729 now IPC :1.76764: AVG IPC :2.00406: L2-Pf-HR :0.96694: L2-HR :0.93162: (Sim:0h9m34s) 
CPU  0 inst:   84000005 cyc:   41882047 now IPC :2.06903: AVG IPC :2.00483: L2-Pf-HR :0.96707: L2-HR :0.93183: (Sim:0h9m52s) 
CPU  0 inst:   85000005 cyc:   42388272 now IPC :1.97541: AVG IPC :2.00447: L2-Pf-HR :0.96769: L2-HR :0.93219: (Sim:0h10m9s) 
CPU  0 inst:   86000005 cyc:   42875514 now IPC :2.05237: AVG IPC :2.00503: L2-Pf-HR :0.96827: L2-HR :0.93254: (Sim:0h10m26s) 
CPU  0 inst:   87000005 cyc:   43369561 now IPC :2.02410: AVG IPC :2.00525: L2-Pf-HR :0.96862: L2-HR :0.93273: (Sim:0h10m43s) 
CPU  0 inst:   88000000 cyc:   43868742 now IPC :2.00327: AVG IPC :2.00523: L2-Pf-HR :0.96853: L2-HR :0.93276: (Sim:0h10m50s) 
CPU  0 inst:   89000000 cyc:   44511769 now IPC :1.55514: AVG IPC :1.99858: L2-Pf-HR :0.96849: L2-HR :0.93264: (Sim:0h10m58s) 
CPU  0 inst:   90000000 cyc:   44988590 now IPC :2.09722: AVG IPC :1.99965: L2-Pf-HR :0.96820: L2-HR :0.93255: (Sim:0h11m5s) 
CPU  0 inst:   91000000 cyc:   45467010 now IPC :2.09021: AVG IPC :2.00062: L2-Pf-HR :0.96803: L2-HR :0.93252: (Sim:0h11m13s) 
CPU  0 inst:   92000000 cyc:   45931846 now IPC :2.15130: AVG IPC :2.00218: L2-Pf-HR :0.96788: L2-HR :0.93257: (Sim:0h11m20s) 
CPU  0 inst:   93000003 cyc:   46417317 now IPC :2.05986: AVG IPC :2.00279: L2-Pf-HR :0.96771: L2-HR :0.93252: (Sim:0h11m27s) 
CPU  0 inst:   94000003 cyc:   46882325 now IPC :2.15050: AVG IPC :2.00429: L2-Pf-HR :0.96752: L2-HR :0.93249: (Sim:0h11m34s) 
CPU  0 inst:   95000004 cyc:   47448645 now IPC :1.76579: AVG IPC :2.00138: L2-Pf-HR :0.96746: L2-HR :0.93246: (Sim:0h11m42s) 
CPU  0 inst:   96000004 cyc:   47929292 now IPC :2.08053: AVG IPC :2.00219: L2-Pf-HR :0.96746: L2-HR :0.93255: (Sim:0h11m49s) 
CPU  0 inst:   97000002 cyc:   48430950 now IPC :1.99339: AVG IPC :2.00210: L2-Pf-HR :0.96799: L2-HR :0.93287: (Sim:0h11m56s) 
CPU  0 inst:   98000004 cyc:   48917402 now IPC :2.05571: AVG IPC :2.00264: L2-Pf-HR :0.96850: L2-HR :0.93317: (Sim:0h12m4s) 
CPU  0 inst:   99000004 cyc:   49413708 now IPC :2.01489: AVG IPC :2.00277: L2-Pf-HR :0.96876: L2-HR :0.93334: (Sim:0h12m11s) 
CPU  0 inst:  100000000 cyc:   49910989 now IPC :2.01093: AVG IPC :2.00285: L2-Pf-HR :0.96883: L2-HR :0.93340: (Sim:0h12m18s) 
CPU  0 inst:  101000002 cyc:   50536748 now IPC :1.59806: AVG IPC :1.99774: L2-Pf-HR :0.96878: L2-HR :0.93328: (Sim:0h12m26s) 
CPU  0 inst:  102000002 cyc:   51010680 now IPC :2.11001: AVG IPC :1.99881: L2-Pf-HR :0.96867: L2-HR :0.93331: (Sim:0h12m34s) 
CPU  0 inst:  103000002 cyc:   51486813 now IPC :2.10025: AVG IPC :1.99976: L2-Pf-HR :0.96844: L2-HR :0.93324: (Sim:0h12m45s) 
CPU  0 inst:  104000002 cyc:   51961716 now IPC :2.10569: AVG IPC :2.00075: L2-Pf-HR :0.96827: L2-HR :0.93321: (Sim:0h13m1s) 
CPU  0 inst:  105000004 cyc:   52432315 now IPC :2.12496: AVG IPC :2.00188: L2-Pf-HR :0.96815: L2-HR :0.93324: (Sim:0h13m11s) 
CPU  0 inst:  106000000 cyc:   52899080 now IPC :2.14240: AVG IPC :2.00315: L2-Pf-HR :0.96795: L2-HR :0.93320: (Sim:0h13m29s) 
CPU  0 inst:  107000000 cyc:   53464940 now IPC :1.76722: AVG IPC :2.00060: L2-Pf-HR :0.96791: L2-HR :0.93315: (Sim:0h13m46s) 
CPU  0 inst:  108000000 cyc:   53957493 now IPC :2.03024: AVG IPC :2.00088: L2-Pf-HR :0.96805: L2-HR :0.93331: (Sim:0h14m3s) 
CPU  0 inst:  109000000 cyc:   54469709 now IPC :1.95230: AVG IPC :2.00041: L2-Pf-HR :0.96852: L2-HR :0.93362: (Sim:0h14m21s) 
CPU  0 inst:  110000000 cyc:   54993494 now IPC :1.90918: AVG IPC :1.99953: L2-Pf-HR :0.96897: L2-HR :0.93387: (Sim:0h14m39s) 
CPU  0 inst:  111000003 cyc:   55477076 now IPC :2.06791: AVG IPC :2.00014: L2-Pf-HR :0.96919: L2-HR :0.93403: (Sim:0h14m48s) 
CPU  0 inst:  112000001 cyc:   55960308 now IPC :2.06940: AVG IPC :2.00075: L2-Pf-HR :0.96908: L2-HR :0.93400: (Sim:0h14m56s) 
CPU  0 inst:  113000001 cyc:   56600700 now IPC :1.56154: AVG IPC :1.99569: L2-Pf-HR :0.96920: L2-HR :0.93397: (Sim:0h15m4s) 
CPU  0 inst:  114000001 cyc:   57145286 now IPC :1.83626: AVG IPC :1.99414: L2-Pf-HR :0.96944: L2-HR :0.93406: (Sim:0h15m12s) 
CPU  0 inst:  115000004 cyc:   57610617 now IPC :2.14901: AVG IPC :1.99542: L2-Pf-HR :0.96930: L2-HR :0.93405: (Sim:0h15m20s) 
CPU  0 inst:  116000004 cyc:   58101808 now IPC :2.03587: AVG IPC :1.99576: L2-Pf-HR :0.96916: L2-HR :0.93403: (Sim:0h15m27s) 
CPU  0 inst:  117000004 cyc:   58570450 now IPC :2.13383: AVG IPC :1.99689: L2-Pf-HR :0.96903: L2-HR :0.93403: (Sim:0h15m40s) 
CPU  0 inst:  118000005 cyc:   59041984 now IPC :2.12074: AVG IPC :1.99789: L2-Pf-HR :0.96891: L2-HR :0.93399: (Sim:0h15m52s) 
CPU  0 inst:  119000000 cyc:   59613613 now IPC :1.74938: AVG IPC :1.99547: L2-Pf-HR :0.96891: L2-HR :0.93397: (Sim:0h16m0s) 
CPU  0 inst:  120000002 cyc:   60083661 now IPC :2.12745: AVG IPC :1.99652: L2-Pf-HR :0.96892: L2-HR :0.93407: (Sim:0h16m15s) 
CPU  0 inst:  121000002 cyc:   60614082 now IPC :1.88529: AVG IPC :1.99553: L2-Pf-HR :0.96934: L2-HR :0.93435: (Sim:0h16m30s) 
CPU  0 inst:  122000005 cyc:   61154762 now IPC :1.84953: AVG IPC :1.99422: L2-Pf-HR :0.96973: L2-HR :0.93456: (Sim:0h16m46s) 
CPU  0 inst:  123000002 cyc:   61642117 now IPC :2.05189: AVG IPC :1.99468: L2-Pf-HR :0.97009: L2-HR :0.93480: (Sim:0h17m4s) 
CPU  0 inst:  124000003 cyc:   62126018 now IPC :2.06654: AVG IPC :1.99525: L2-Pf-HR :0.97002: L2-HR :0.93479: (Sim:0h17m21s) 
CPU  0 inst:  125000000 cyc:   62657987 now IPC :1.87980: AVG IPC :1.99425: L2-Pf-HR :0.96989: L2-HR :0.93456: (Sim:0h17m39s) 
CPU  0 inst:  126000001 cyc:   63110512 now IPC :2.20982: AVG IPC :1.99582: L2-Pf-HR :0.96960: L2-HR :0.93419: (Sim:0h17m56s) 
CPU  0 inst:  127000002 cyc:   63596565 now IPC :2.05739: AVG IPC :1.99630: L2-Pf-HR :0.96935: L2-HR :0.93386: (Sim:0h18m13s) 
CPU  0 inst:  128000005 cyc:   64055780 now IPC :2.17764: AVG IPC :1.99762: L2-Pf-HR :0.96909: L2-HR :0.93355: (Sim:0h18m30s) 
CPU  0 inst:  129000005 cyc:   64696335 now IPC :1.56115: AVG IPC :1.99323: L2-Pf-HR :0.96909: L2-HR :0.93330: (Sim:0h18m48s) 
CPU  0 inst:  130000001 cyc:   65252957 now IPC :1.79654: AVG IPC :1.99153: L2-Pf-HR :0.96903: L2-HR :0.93324: (Sim:0h19m6s) 
CPU  0 inst:  131000004 cyc:   65773909 now IPC :1.91957: AVG IPC :1.99095: L2-Pf-HR :0.96896: L2-HR :0.93323: (Sim:0h19m24s) 
CPU  0 inst:  132000001 cyc:   66272558 now IPC :2.00541: AVG IPC :1.99106: L2-Pf-HR :0.96888: L2-HR :0.93320: (Sim:0h19m42s) 
CPU  0 inst:  133000000 cyc:   66774013 now IPC :1.99419: AVG IPC :1.99109: L2-Pf-HR :0.96878: L2-HR :0.93314: (Sim:0h19m59s) 
CPU  0 inst:  134000001 cyc:   67292878 now IPC :1.92729: AVG IPC :1.99059: L2-Pf-HR :0.96885: L2-HR :0.93317: (Sim:0h20m17s) 
CPU  0 inst:  135000005 cyc:   67879139 now IPC :1.70573: AVG IPC :1.98809: L2-Pf-HR :0.96881: L2-HR :0.93312: (Sim:0h20m35s) 
CPU  0 inst:  136000000 cyc:   68407017 now IPC :1.89437: AVG IPC :1.98736: L2-Pf-HR :0.96865: L2-HR :0.93306: (Sim:0h20m53s) 
CPU  0 inst:  137000004 cyc:   68925833 now IPC :1.92747: AVG IPC :1.98690: L2-Pf-HR :0.96900: L2-HR :0.93325: (Sim:0h21m10s) 
CPU  0 inst:  138000001 cyc:   69440186 now IPC :1.94418: AVG IPC :1.98658: L2-Pf-HR :0.96919: L2-HR :0.93332: (Sim:0h21m28s) 
CPU  0 inst:  139000000 cyc:   69956925 now IPC :1.93521: AVG IPC :1.98619: L2-Pf-HR :0.96905: L2-HR :0.93320: (Sim:0h21m45s) 
CPU  0 inst:  140000001 cyc:   70449800 now IPC :2.02891: AVG IPC :1.98650: L2-Pf-HR :0.96895: L2-HR :0.93316: (Sim:0h22m3s) 
CPU  0 inst:  141000002 cyc:   71101652 now IPC :1.53409: AVG IPC :1.98229: L2-Pf-HR :0.96895: L2-HR :0.93301: (Sim:0h22m21s) 
CPU  0 inst:  142000002 cyc:   71610806 now IPC :1.96404: AVG IPC :1.98216: L2-Pf-HR :0.96922: L2-HR :0.93317: (Sim:0h22m38s) 
CPU  0 inst:  143000002 cyc:   72125017 now IPC :1.94473: AVG IPC :1.98189: L2-Pf-HR :0.96926: L2-HR :0.93318: (Sim:0h22m54s) 
CPU  0 inst:  144000002 cyc:   72591099 now IPC :2.14555: AVG IPC :1.98295: L2-Pf-HR :0.96907: L2-HR :0.93311: (Sim:0h23m11s) 
CPU  0 inst:  145000002 cyc:   73057409 now IPC :2.14450: AVG IPC :1.98400: L2-Pf-HR :0.96902: L2-HR :0.93317: (Sim:0h23m28s) 
CPU  0 inst:  146000003 cyc:   73534136 now IPC :2.09764: AVG IPC :1.98475: L2-Pf-HR :0.96891: L2-HR :0.93308: (Sim:0h23m45s) 
CPU  0 inst:  147000000 cyc:   74094384 now IPC :1.78492: AVG IPC :1.98322: L2-Pf-HR :0.96890: L2-HR :0.93310: (Sim:0h24m3s) 
CPU  0 inst:  148000000 cyc:   74581163 now IPC :2.05432: AVG IPC :1.98369: L2-Pf-HR :0.96885: L2-HR :0.93306: (Sim:0h24m20s) 
CPU  0 inst:  149000003 cyc:   75092995 now IPC :1.95377: AVG IPC :1.98348: L2-Pf-HR :0.96913: L2-HR :0.93327: (Sim:0h24m37s) 
CPU  0 inst:  150000005 cyc:   75597364 now IPC :1.98268: AVG IPC :1.98347: L2-Pf-HR :0.96944: L2-HR :0.93346: (Sim:0h24m50s) 
CPU  0 inst:  151000002 cyc:   76110312 now IPC :1.94951: AVG IPC :1.98324: L2-Pf-HR :0.96953: L2-HR :0.93351: (Sim:0h25m7s) 
CPU  0 inst:  152000000 cyc:   76587699 now IPC :2.09473: AVG IPC :1.98395: L2-Pf-HR :0.96941: L2-HR :0.93352: (Sim:0h25m22s) 
CPU  0 inst:  153000001 cyc:   77221282 now IPC :1.57833: AVG IPC :1.98057: L2-Pf-HR :0.96939: L2-HR :0.93344: (Sim:0h25m36s) 
CPU  0 inst:  154000001 cyc:   77755447 now IPC :1.87208: AVG IPC :1.97982: L2-Pf-HR :0.96965: L2-HR :0.93359: (Sim:0h25m51s) 
CPU  0 inst:  155000004 cyc:   78253566 now IPC :2.00756: AVG IPC :1.98000: L2-Pf-HR :0.96953: L2-HR :0.93355: (Sim:0h26m9s) 
CPU  0 inst:  156000004 cyc:   78730907 now IPC :2.09494: AVG IPC :1.98070: L2-Pf-HR :0.96949: L2-HR :0.93355: (Sim:0h26m26s) 
CPU  0 inst:  157000004 cyc:   79207632 now IPC :2.09765: AVG IPC :1.98142: L2-Pf-HR :0.96939: L2-HR :0.93356: (Sim:0h26m44s) 
CPU  0 inst:  158000000 cyc:   79674675 now IPC :2.14112: AVG IPC :1.98237: L2-Pf-HR :0.96926: L2-HR :0.93349: (Sim:0h27m1s) 
CPU  0 inst:  159000000 cyc:   80236933 now IPC :1.77854: AVG IPC :1.98092: L2-Pf-HR :0.96927: L2-HR :0.93351: (Sim:0h27m18s) 
CPU  0 inst:  160000005 cyc:   80724606 now IPC :2.05056: AVG IPC :1.98135: L2-Pf-HR :0.96920: L2-HR :0.93352: (Sim:0h27m35s) 
CPU  0 inst:  161000001 cyc:   81264012 now IPC :1.85388: AVG IPC :1.98049: L2-Pf-HR :0.96950: L2-HR :0.93371: (Sim:0h27m53s) 
CPU  0 inst:  162000002 cyc:   81810427 now IPC :1.83011: AVG IPC :1.97947: L2-Pf-HR :0.96977: L2-HR :0.93387: (Sim:0h28m9s) 
CPU  0 inst:  163000002 cyc:   82326293 now IPC :1.93849: AVG IPC :1.97921: L2-Pf-HR :0.96981: L2-HR :0.93389: (Sim:0h28m26s) 
CPU  0 inst:  164000003 cyc:   82798586 now IPC :2.11733: AVG IPC :1.98001: L2-Pf-HR :0.96972: L2-HR :0.93390: (Sim:0h28m43s) 
CPU  0 inst:  165000003 cyc:   83429018 now IPC :1.58621: AVG IPC :1.97700: L2-Pf-HR :0.96973: L2-HR :0.93382: (Sim:0h29m0s) 
CPU  0 inst:  166000002 cyc:   83930510 now IPC :1.99405: AVG IPC :1.97710: L2-Pf-HR :0.96996: L2-HR :0.93395: (Sim:0h29m17s) 
CPU  0 inst:  167000003 cyc:   84505025 now IPC :1.74060: AVG IPC :1.97547: L2-Pf-HR :0.97024: L2-HR :0.93413: (Sim:0h29m35s) 
CPU  0 inst:  168000003 cyc:   85116320 now IPC :1.63587: AVG IPC :1.97301: L2-Pf-HR :0.97052: L2-HR :0.93430: (Sim:0h29m53s) 
CPU  0 inst:  169000004 cyc:   85619910 now IPC :1.98574: AVG IPC :1.97308: L2-Pf-HR :0.97080: L2-HR :0.93450: (Sim:0h30m11s) 
CPU  0 inst:  170000001 cyc:   86103678 now IPC :2.06710: AVG IPC :1.97362: L2-Pf-HR :0.97105: L2-HR :0.93463: (Sim:0h30m29s) 
CPU  0 inst:  171000001 cyc:   86672676 now IPC :1.75748: AVG IPC :1.97218: L2-Pf-HR :0.97104: L2-HR :0.93463: (Sim:0h30m46s) 
CPU  0 inst:  172000004 cyc:   87158460 now IPC :2.05853: AVG IPC :1.97267: L2-Pf-HR :0.97097: L2-HR :0.93463: (Sim:0h31m2s) 
CPU  0 inst:  173000001 cyc:   87644633 now IPC :2.05687: AVG IPC :1.97314: L2-Pf-HR :0.97124: L2-HR :0.93480: (Sim:0h31m19s) 
CPU  0 inst:  174000001 cyc:   88178388 now IPC :1.87352: AVG IPC :1.97253: L2-Pf-HR :0.97149: L2-HR :0.93497: (Sim:0h31m37s) 
CPU  0 inst:  175000001 cyc:   88673972 now IPC :2.01782: AVG IPC :1.97279: L2-Pf-HR :0.97174: L2-HR :0.93512: (Sim:0h31m54s) 
CPU  0 inst:  176000002 cyc:   89157445 now IPC :2.06837: AVG IPC :1.97331: L2-Pf-HR :0.97168: L2-HR :0.93512: (Sim:0h32m12s) 
CPU  0 inst:  177000004 cyc:   89800395 now IPC :1.55533: AVG IPC :1.97029: L2-Pf-HR :0.97167: L2-HR :0.93504: (Sim:0h32m29s) 
CPU  0 inst:  178000001 cyc:   90334559 now IPC :1.87208: AVG IPC :1.96970: L2-Pf-HR :0.97172: L2-HR :0.93504: (Sim:0h32m46s) 
CPU  0 inst:  179000005 cyc:   90814026 now IPC :2.08566: AVG IPC :1.97032: L2-Pf-HR :0.97163: L2-HR :0.93502: (Sim:0h33m4s) 
CPU  0 inst:  180000005 cyc:   91280645 now IPC :2.14308: AVG IPC :1.97121: L2-Pf-HR :0.97149: L2-HR :0.93498: (Sim:0h33m21s) 
CPU  0 inst:  181000003 cyc:   91753428 now IPC :2.11513: AVG IPC :1.97196: L2-Pf-HR :0.97138: L2-HR :0.93498: (Sim:0h33m37s) 
CPU  0 inst:  182000003 cyc:   92226416 now IPC :2.11422: AVG IPC :1.97270: L2-Pf-HR :0.97124: L2-HR :0.93493: (Sim:0h33m53s) 
CPU  0 inst:  183000005 cyc:   92794568 now IPC :1.76010: AVG IPC :1.97138: L2-Pf-HR :0.97122: L2-HR :0.93494: (Sim:0h34m10s) 
CPU  0 inst:  184000003 cyc:   93292504 now IPC :2.00829: AVG IPC :1.97158: L2-Pf-HR :0.97122: L2-HR :0.93499: (Sim:0h34m27s) 
CPU  0 inst:  185000003 cyc:   93791195 now IPC :2.00525: AVG IPC :1.97176: L2-Pf-HR :0.97147: L2-HR :0.93514: (Sim:0h34m45s) 
CPU  0 inst:  186000003 cyc:   94293622 now IPC :1.99034: AVG IPC :1.97186: L2-Pf-HR :0.97170: L2-HR :0.93530: (Sim:0h35m2s) 
CPU  0 inst:  187000001 cyc:   94785951 now IPC :2.03116: AVG IPC :1.97217: L2-Pf-HR :0.97181: L2-HR :0.93535: (Sim:0h35m20s) 
CPU  0 inst:  188000001 cyc:   95282851 now IPC :2.01248: AVG IPC :1.97239: L2-Pf-HR :0.97178: L2-HR :0.93537: (Sim:0h35m36s) 
CPU  0 inst:  189000002 cyc:   95819203 now IPC :1.86445: AVG IPC :1.97177: L2-Pf-HR :0.97167: L2-HR :0.93525: (Sim:0h35m52s) 
CPU  0 inst:  190000002 cyc:   96277978 now IPC :2.17972: AVG IPC :1.97278: L2-Pf-HR :0.97149: L2-HR :0.93502: (Sim:0h36m9s) 
CPU  0 inst:  191000005 cyc:   96762184 now IPC :2.06524: AVG IPC :1.97324: L2-Pf-HR :0.97132: L2-HR :0.93481: (Sim:0h36m26s) 
CPU  0 inst:  192000001 cyc:   97220914 now IPC :2.17992: AVG IPC :1.97423: L2-Pf-HR :0.97116: L2-HR :0.93461: (Sim:0h36m38s) 
CPU  0 inst:  193000005 cyc:   97849862 now IPC :1.58996: AVG IPC :1.97173: L2-Pf-HR :0.97112: L2-HR :0.93442: (Sim:0h36m54s) 
CPU  0 inst:  194000005 cyc:   98377830 now IPC :1.89405: AVG IPC :1.97131: L2-Pf-HR :0.97106: L2-HR :0.93436: (Sim:0h37m12s) 
CPU  0 inst:  195000004 cyc:   98908525 now IPC :1.88432: AVG IPC :1.97084: L2-Pf-HR :0.97088: L2-HR :0.93429: (Sim:0h37m30s) 
CPU  0 inst:  196000003 cyc:   99415707 now IPC :1.97168: AVG IPC :1.97085: L2-Pf-HR :0.97081: L2-HR :0.93426: (Sim:0h37m48s) 
CPU  0 inst:  197000000 cyc:   99914966 now IPC :2.00296: AVG IPC :1.97101: L2-Pf-HR :0.97074: L2-HR :0.93424: (Sim:0h38m6s) 
CPU  0 inst:  198000001 cyc:  100415157 now IPC :1.99924: AVG IPC :1.97115: L2-Pf-HR :0.97064: L2-HR :0.93419: (Sim:0h38m24s) 
CPU  0 inst:  199000005 cyc:  101000149 now IPC :1.70943: AVG IPC :1.96962: L2-Pf-HR :0.97060: L2-HR :0.93417: (Sim:0h38m42s) 
CPU  0 inst:  200000000 cyc:  101554886 now IPC :1.80265: AVG IPC :1.96870: L2-Pf-HR :0.97077: L2-HR :0.93424: (Sim:0h39m0s) 
CPU  0 inst:  201000004 cyc:  102126760 now IPC :1.74864: AVG IPC :1.96745: L2-Pf-HR :0.97099: L2-HR :0.93435: (Sim:0h39m18s) 
CPU  0 inst:  202000002 cyc:  102714826 now IPC :1.70049: AVG IPC :1.96591: L2-Pf-HR :0.97119: L2-HR :0.93441: (Sim:0h39m36s) 
CPU  0 inst:  203000002 cyc:  103301510 now IPC :1.70450: AVG IPC :1.96441: L2-Pf-HR :0.97139: L2-HR :0.93449: (Sim:0h39m54s) 
CPU  0 inst:  204000003 cyc:  103884170 now IPC :1.71627: AVG IPC :1.96301: L2-Pf-HR :0.97159: L2-HR :0.93457: (Sim:0h40m12s) 
CPU  0 inst:  205000004 cyc:  104550826 now IPC :1.50003: AVG IPC :1.96003: L2-Pf-HR :0.97170: L2-HR :0.93453: (Sim:0h40m30s) 
CPU  0 inst:  206000003 cyc:  105058341 now IPC :1.97038: AVG IPC :1.96008: L2-Pf-HR :0.97180: L2-HR :0.93458: (Sim:0h40m47s) 
CPU  0 inst:  207000003 cyc:  105608015 now IPC :1.81926: AVG IPC :1.95934: L2-Pf-HR :0.97199: L2-HR :0.93468: (Sim:0h41m5s) 
CPU  0 inst:  208000003 cyc:  106174006 now IPC :1.76681: AVG IPC :1.95830: L2-Pf-HR :0.97217: L2-HR :0.93476: (Sim:0h41m23s) 
CPU  0 inst:  209000003 cyc:  106660204 now IPC :2.05678: AVG IPC :1.95875: L2-Pf-HR :0.97206: L2-HR :0.93472: (Sim:0h41m41s) 
CPU  0 inst:  210000001 cyc:  107130350 now IPC :2.12699: AVG IPC :1.95950: L2-Pf-HR :0.97199: L2-HR :0.93470: (Sim:0h41m58s) 
CPU  0 inst:  211000000 cyc:  107690316 now IPC :1.78582: AVG IPC :1.95859: L2-Pf-HR :0.97204: L2-HR :0.93473: (Sim:0h42m16s) 
CPU  0 inst:  212000001 cyc:  108174632 now IPC :2.06477: AVG IPC :1.95907: L2-Pf-HR :0.97192: L2-HR :0.93468: (Sim:0h42m33s) 
CPU  0 inst:  213000001 cyc:  108684646 now IPC :1.96073: AVG IPC :1.95908: L2-Pf-HR :0.97211: L2-HR :0.93482: (Sim:0h42m51s) 
CPU  0 inst:  214000001 cyc:  109198616 now IPC :1.94564: AVG IPC :1.95901: L2-Pf-HR :0.97230: L2-HR :0.93492: (Sim:0h43m8s) 
CPU  0 inst:  215000001 cyc:  109696639 now IPC :2.00794: AVG IPC :1.95924: L2-Pf-HR :0.97228: L2-HR :0.93495: (Sim:0h43m26s) 
CPU  0 inst:  216000005 cyc:  110168952 now IPC :2.11725: AVG IPC :1.95992: L2-Pf-HR :0.97219: L2-HR :0.93494: (Sim:0h43m43s) 
CPU  0 inst:  217000003 cyc:  110795140 now IPC :1.59696: AVG IPC :1.95785: L2-Pf-HR :0.97216: L2-HR :0.93485: (Sim:0h44m1s) 
CPU  0 inst:  218000005 cyc:  111325015 now IPC :1.88724: AVG IPC :1.95751: L2-Pf-HR :0.97229: L2-HR :0.93493: (Sim:0h44m18s) 
CPU  0 inst:  219000002 cyc:  111842291 now IPC :1.93320: AVG IPC :1.95740: L2-Pf-HR :0.97225: L2-HR :0.93492: (Sim:0h44m36s) 
CPU  0 inst:  220000005 cyc:  112322506 now IPC :2.08241: AVG IPC :1.95794: L2-Pf-HR :0.97221: L2-HR :0.93491: (Sim:0h44m53s) 
CPU  0 inst:  221000003 cyc:  112796103 now IPC :2.11150: AVG IPC :1.95859: L2-Pf-HR :0.97216: L2-HR :0.93492: (Sim:0h45m10s) 
CPU  0 inst:  222000000 cyc:  113271747 now IPC :2.10241: AVG IPC :1.95920: L2-Pf-HR :0.97211: L2-HR :0.93492: (Sim:0h45m27s) 
CPU  0 inst:  223000003 cyc:  113829804 now IPC :1.79194: AVG IPC :1.95837: L2-Pf-HR :0.97205: L2-HR :0.93491: (Sim:0h45m44s) 
CPU  0 inst:  224000003 cyc:  114311260 now IPC :2.07703: AVG IPC :1.95887: L2-Pf-HR :0.97202: L2-HR :0.93492: (Sim:0h46m1s) 
CPU  0 inst:  225000003 cyc:  114843924 now IPC :1.87736: AVG IPC :1.95849: L2-Pf-HR :0.97219: L2-HR :0.93502: (Sim:0h46m18s) 
CPU  0 inst:  226000003 cyc:  115372607 now IPC :1.89149: AVG IPC :1.95818: L2-Pf-HR :0.97237: L2-HR :0.93513: (Sim:0h46m35s) 
CPU  0 inst:  227000001 cyc:  115918629 now IPC :1.83142: AVG IPC :1.95758: L2-Pf-HR :0.97244: L2-HR :0.93517: (Sim:0h46m53s) 
CPU  0 inst:  228000003 cyc:  116386150 now IPC :2.13895: AVG IPC :1.95831: L2-Pf-HR :0.97241: L2-HR :0.93519: (Sim:0h47m10s) 
CPU  0 inst:  229000003 cyc:  117015186 now IPC :1.58973: AVG IPC :1.95632: L2-Pf-HR :0.97251: L2-HR :0.93519: (Sim:0h47m28s) 
CPU  0 inst:  230000003 cyc:  117507727 now IPC :2.03029: AVG IPC :1.95663: L2-Pf-HR :0.97251: L2-HR :0.93519: (Sim:0h47m45s) 
CPU  0 inst:  231000000 cyc:  117985688 now IPC :2.09221: AVG IPC :1.95718: L2-Pf-HR :0.97243: L2-HR :0.93517: (Sim:0h48m3s) 
CPU  0 inst:  232000002 cyc:  118504508 now IPC :1.92745: AVG IPC :1.95705: L2-Pf-HR :0.97254: L2-HR :0.93525: (Sim:0h48m20s) 
CPU  0 inst:  233000005 cyc:  119047707 now IPC :1.84095: AVG IPC :1.95652: L2-Pf-HR :0.97272: L2-HR :0.93535: (Sim:0h48m37s) 
CPU  0 inst:  234000002 cyc:  119564976 now IPC :1.93322: AVG IPC :1.95642: L2-Pf-HR :0.97288: L2-HR :0.93545: (Sim:0h48m55s) 
CPU  0 inst:  235000002 cyc:  120152901 now IPC :1.70090: AVG IPC :1.95516: L2-Pf-HR :0.97296: L2-HR :0.93549: (Sim:0h49m12s) 
CPU  0 inst:  236000002 cyc:  120641541 now IPC :2.04650: AVG IPC :1.95553: L2-Pf-HR :0.97293: L2-HR :0.93550: (Sim:0h49m30s) 
CPU  0 inst:  237000000 cyc:  121158377 now IPC :1.93485: AVG IPC :1.95544: L2-Pf-HR :0.97309: L2-HR :0.93561: (Sim:0h49m47s) 
CPU  0 inst:  238000002 cyc:  121691697 now IPC :1.87505: AVG IPC :1.95508: L2-Pf-HR :0.97325: L2-HR :0.93569: (Sim:0h50m5s) 
CPU  0 inst:  239000000 cyc:  122196941 now IPC :1.97924: AVG IPC :1.95519: L2-Pf-HR :0.97324: L2-HR :0.93571: (Sim:0h50m21s) 
CPU  0 inst:  240000002 cyc:  122666054 now IPC :2.13169: AVG IPC :1.95587: L2-Pf-HR :0.97317: L2-HR :0.93570: (Sim:0h50m37s) 
CPU  0 inst:  241000000 cyc:  123297808 now IPC :1.58289: AVG IPC :1.95394: L2-Pf-HR :0.97316: L2-HR :0.93565: (Sim:0h50m55s) 
CPU  0 inst:  242000000 cyc:  123830973 now IPC :1.87559: AVG IPC :1.95360: L2-Pf-HR :0.97327: L2-HR :0.93572: (Sim:0h51m13s) 
CPU  0 inst:  243000000 cyc:  124400053 now IPC :1.75722: AVG IPC :1.95269: L2-Pf-HR :0.97343: L2-HR :0.93580: (Sim:0h51m30s) 
CPU  0 inst:  244000001 cyc:  124961836 now IPC :1.78005: AVG IPC :1.95191: L2-Pf-HR :0.97357: L2-HR :0.93589: (Sim:0h51m48s) 
CPU  0 inst:  245000004 cyc:  125534490 now IPC :1.74626: AVG IPC :1.95097: L2-Pf-HR :0.97373: L2-HR :0.93599: (Sim:0h52m5s) 
CPU  0 inst:  246000004 cyc:  126099114 now IPC :1.77109: AVG IPC :1.95015: L2-Pf-HR :0.97388: L2-HR :0.93607: (Sim:0h52m23s) 
CPU  0 inst:  247000004 cyc:  126682881 now IPC :1.71301: AVG IPC :1.94905: L2-Pf-HR :0.97393: L2-HR :0.93608: (Sim:0h52m40s) 
CPU  0 inst:  248000004 cyc:  127210664 now IPC :1.89472: AVG IPC :1.94883: L2-Pf-HR :0.97404: L2-HR :0.93614: (Sim:0h52m57s) 
CPU  0 inst:  249000004 cyc:  127737523 now IPC :1.89804: AVG IPC :1.94861: L2-Pf-HR :0.97419: L2-HR :0.93624: (Sim:0h53m15s) 
CPU  0 inst:  250000001 cyc:  128248967 now IPC :1.95524: AVG IPC :1.94864: L2-Pf-HR :0.97434: L2-HR :0.93631: (Sim:0h53m32s) 
CPU  0 inst:  251000005 cyc:  128761967 now IPC :1.94933: AVG IPC :1.94864: L2-Pf-HR :0.97436: L2-HR :0.93633: (Sim:0h53m50s) 
CPU  0 inst:  252000002 cyc:  129236886 now IPC :2.10562: AVG IPC :1.94923: L2-Pf-HR :0.97434: L2-HR :0.93636: (Sim:0h54m7s) 
CPU  0 inst:  253000002 cyc:  129783194 now IPC :1.83047: AVG IPC :1.94872: L2-Pf-HR :0.97437: L2-HR :0.93634: (Sim:0h54m25s) 
CPU  0 inst:  254000005 cyc:  130242422 now IPC :2.17757: AVG IPC :1.94953: L2-Pf-HR :0.97424: L2-HR :0.93617: (Sim:0h54m42s) 
CPU  0 inst:  255000005 cyc:  130723758 now IPC :2.07755: AVG IPC :1.95001: L2-Pf-HR :0.97412: L2-HR :0.93601: (Sim:0h55m0s) 
CPU  0 inst:  256000005 cyc:  131185489 now IPC :2.16576: AVG IPC :1.95077: L2-Pf-HR :0.97399: L2-HR :0.93586: (Sim:0h55m13s) 
CPU  0 inst:  257000005 cyc:  131811916 now IPC :1.59636: AVG IPC :1.94908: L2-Pf-HR :0.97393: L2-HR :0.93569: (Sim:0h55m27s) 
CPU  0 inst:  258000003 cyc:  132341061 now IPC :1.88984: AVG IPC :1.94884: L2-Pf-HR :0.97402: L2-HR :0.93571: (Sim:0h55m43s) 
CPU  0 inst:  259000004 cyc:  132858893 now IPC :1.93113: AVG IPC :1.94877: L2-Pf-HR :0.97406: L2-HR :0.93573: (Sim:0h56m1s) 
CPU  0 inst:  260000001 cyc:  133385431 now IPC :1.89919: AVG IPC :1.94857: L2-Pf-HR :0.97403: L2-HR :0.93571: (Sim:0h56m20s) 
CPU  0 inst:  261000003 cyc:  133927361 now IPC :1.84526: AVG IPC :1.94815: L2-Pf-HR :0.97398: L2-HR :0.93567: (Sim:0h56m37s) 
CPU  0 inst:  262000000 cyc:  134442894 now IPC :1.93973: AVG IPC :1.94812: L2-Pf-HR :0.97393: L2-HR :0.93566: (Sim:0h56m52s) 
CPU  0 inst:  263000005 cyc:  135027802 now IPC :1.70968: AVG IPC :1.94708: L2-Pf-HR :0.97388: L2-HR :0.93563: (Sim:0h57m8s) 
CPU  0 inst:  264000005 cyc:  135572208 now IPC :1.83686: AVG IPC :1.94663: L2-Pf-HR :0.97388: L2-HR :0.93564: (Sim:0h57m26s) 
CPU  0 inst:  265000002 cyc:  136132863 now IPC :1.78362: AVG IPC :1.94596: L2-Pf-HR :0.97403: L2-HR :0.93571: (Sim:0h57m44s) 
CPU  0 inst:  266000001 cyc:  136691558 now IPC :1.78988: AVG IPC :1.94531: L2-Pf-HR :0.97417: L2-HR :0.93578: (Sim:0h58m2s) 
CPU  0 inst:  267000002 cyc:  137252460 now IPC :1.78284: AVG IPC :1.94464: L2-Pf-HR :0.97414: L2-HR :0.93573: (Sim:0h58m20s) 
CPU  0 inst:  268000000 cyc:  137787530 now IPC :1.86891: AVG IPC :1.94435: L2-Pf-HR :0.97410: L2-HR :0.93570: (Sim:0h58m38s) 
CPU  0 inst:  269000004 cyc:  138441839 now IPC :1.52834: AVG IPC :1.94237: L2-Pf-HR :0.97411: L2-HR :0.93564: (Sim:0h58m56s) 
CPU  0 inst:  270000004 cyc:  138947195 now IPC :1.97880: AVG IPC :1.94250: L2-Pf-HR :0.97418: L2-HR :0.93566: (Sim:0h59m14s) 
CPU  0 inst:  271000004 cyc:  139517314 now IPC :1.75402: AVG IPC :1.94173: L2-Pf-HR :0.97432: L2-HR :0.93574: (Sim:0h59m31s) 
CPU  0 inst:  272000004 cyc:  140082177 now IPC :1.77034: AVG IPC :1.94103: L2-Pf-HR :0.97435: L2-HR :0.93575: (Sim:0h59m49s) 
CPU  0 inst:  273000000 cyc:  140614271 now IPC :1.87936: AVG IPC :1.94080: L2-Pf-HR :0.97431: L2-HR :0.93573: (Sim:1h0m7s) 
CPU  0 inst:  274000005 cyc:  141149246 now IPC :1.86926: AVG IPC :1.94052: L2-Pf-HR :0.97425: L2-HR :0.93571: (Sim:1h0m24s) 
CPU  0 inst:  275000002 cyc:  141733450 now IPC :1.71173: AVG IPC :1.93957: L2-Pf-HR :0.97425: L2-HR :0.93572: (Sim:1h0m42s) 
CPU  0 inst:  276000002 cyc:  142242977 now IPC :1.96260: AVG IPC :1.93966: L2-Pf-HR :0.97424: L2-HR :0.93571: (Sim:1h0m59s) 
CPU  0 inst:  277000004 cyc:  142756295 now IPC :1.94811: AVG IPC :1.93969: L2-Pf-HR :0.97429: L2-HR :0.93576: (Sim:1h1m17s) 
CPU  0 inst:  278000004 cyc:  143297305 now IPC :1.84839: AVG IPC :1.93934: L2-Pf-HR :0.97443: L2-HR :0.93586: (Sim:1h1m34s) 
CPU  0 inst:  279000005 cyc:  143853751 now IPC :1.79712: AVG IPC :1.93879: L2-Pf-HR :0.97451: L2-HR :0.93590: (Sim:1h1m52s) 
CPU  0 inst:  280000002 cyc:  144337566 now IPC :2.06690: AVG IPC :1.93922: L2-Pf-HR :0.97443: L2-HR :0.93589: (Sim:1h2m10s) 
CPU  0 inst:  281000000 cyc:  144978477 now IPC :1.56028: AVG IPC :1.93753: L2-Pf-HR :0.97442: L2-HR :0.93584: (Sim:1h2m28s) 
CPU  0 inst:  282000000 cyc:  145464799 now IPC :2.05625: AVG IPC :1.93793: L2-Pf-HR :0.97432: L2-HR :0.93581: (Sim:1h2m45s) 
CPU  0 inst:  283000003 cyc:  145980044 now IPC :1.94083: AVG IPC :1.93794: L2-Pf-HR :0.97430: L2-HR :0.93581: (Sim:1h2m59s) 
CPU  0 inst:  284000004 cyc:  146521697 now IPC :1.84620: AVG IPC :1.93760: L2-Pf-HR :0.97426: L2-HR :0.93579: (Sim:1h3m14s) 
CPU  0 inst:  285000004 cyc:  147055313 now IPC :1.87401: AVG IPC :1.93737: L2-Pf-HR :0.97425: L2-HR :0.93580: (Sim:1h3m29s) 
CPU  0 inst:  286000004 cyc:  147589653 now IPC :1.87147: AVG IPC :1.93713: L2-Pf-HR :0.97420: L2-HR :0.93578: (Sim:1h3m44s) 
CPU  0 inst:  287000004 cyc:  148171481 now IPC :1.71872: AVG IPC :1.93626: L2-Pf-HR :0.97418: L2-HR :0.93577: (Sim:1h4m2s) 
CPU  0 inst:  288000004 cyc:  148665990 now IPC :2.02221: AVG IPC :1.93655: L2-Pf-HR :0.97416: L2-HR :0.93579: (Sim:1h4m18s) 
CPU  0 inst:  289000005 cyc:  149215907 now IPC :1.81846: AVG IPC :1.93611: L2-Pf-HR :0.97429: L2-HR :0.93587: (Sim:1h4m36s) 
CPU  0 inst:  290000001 cyc:  149722790 now IPC :1.97283: AVG IPC :1.93624: L2-Pf-HR :0.97443: L2-HR :0.93597: (Sim:1h4m54s) 
CPU  0 inst:  291000005 cyc:  150236826 now IPC :1.94540: AVG IPC :1.93627: L2-Pf-HR :0.97456: L2-HR :0.93605: (Sim:1h5m10s) 
CPU  0 inst:  292000002 cyc:  150739202 now IPC :1.99054: AVG IPC :1.93645: L2-Pf-HR :0.97453: L2-HR :0.93605: (Sim:1h5m23s) 
CPU  0 inst:  293000002 cyc:  151389344 now IPC :1.53813: AVG IPC :1.93473: L2-Pf-HR :0.97453: L2-HR :0.93601: (Sim:1h5m40s) 
CPU  0 inst:  294000002 cyc:  151872624 now IPC :2.06919: AVG IPC :1.93516: L2-Pf-HR :0.97445: L2-HR :0.93600: (Sim:1h5m57s) 
CPU  0 inst:  295000002 cyc:  152391944 now IPC :1.92560: AVG IPC :1.93513: L2-Pf-HR :0.97442: L2-HR :0.93598: (Sim:1h6m14s) 
CPU  0 inst:  296000000 cyc:  152925359 now IPC :1.87471: AVG IPC :1.93492: L2-Pf-HR :0.97438: L2-HR :0.93596: (Sim:1h6m31s) 
CPU  0 inst:  297000000 cyc:  153455079 now IPC :1.88779: AVG IPC :1.93475: L2-Pf-HR :0.97436: L2-HR :0.93597: (Sim:1h6m49s) 
CPU  0 inst:  298000000 cyc:  153985710 now IPC :1.88455: AVG IPC :1.93458: L2-Pf-HR :0.97433: L2-HR :0.93596: (Sim:1h7m6s) 
CPU  0 inst:  299000000 cyc:  154571723 now IPC :1.70645: AVG IPC :1.93371: L2-Pf-HR :0.97432: L2-HR :0.93595: (Sim:1h7m23s) 
xz: 770-tot_memTraces_v5/120-subBillion_s2048_LLM_Arch/memTraces[1319000000]_FE_[Pythia-70M]_[h8]_[s2048]_[d64].champsim.9SSize.xz: Unexpected end of input
*** Reached end of trace for Core: 0 Repeating trace: 770-tot_memTraces_v5/120-subBillion_s2048_LLM_Arch/memTraces[1319000000]_FE_[Pythia-70M]_[h8]_[s2048]_[d64].champsim.9SSize.xz
CPU  0 inst:  300000001 cyc:  155403610 now IPC :1.20209: AVG IPC :1.92977: L2-Pf-HR :0.97434: L2-HR :0.93584: (Sim:1h7m41s) 
CPU  0 inst:  301000005 cyc:  155989447 now IPC :1.70697: AVG IPC :1.92892: L2-Pf-HR :0.97444: L2-HR :0.93588: (Sim:1h7m59s) 
CPU  0 inst:  302000002 cyc:  156561551 now IPC :1.74793: AVG IPC :1.92826: L2-Pf-HR :0.97448: L2-HR :0.93589: (Sim:1h8m17s) 
CPU  0 inst:  303000000 cyc:  157119356 now IPC :1.79274: AVG IPC :1.92777: L2-Pf-HR :0.97445: L2-HR :0.93587: (Sim:1h8m35s) 
CPU  0 inst:  304000005 cyc:  157658893 now IPC :1.85345: AVG IPC :1.92752: L2-Pf-HR :0.97441: L2-HR :0.93584: (Sim:1h8m53s) 
CPU  0 inst:  305000000 cyc:  158172414 now IPC :1.94733: AVG IPC :1.92758: L2-Pf-HR :0.97436: L2-HR :0.93583: (Sim:1h9m11s) 
CPU  0 inst:  306000004 cyc:  158786426 now IPC :1.62864: AVG IPC :1.92642: L2-Pf-HR :0.97438: L2-HR :0.93583: (Sim:1h9m29s) 
CPU  0 inst:  307000002 cyc:  159332051 now IPC :1.83276: AVG IPC :1.92610: L2-Pf-HR :0.97437: L2-HR :0.93580: (Sim:1h9m47s) 
CPU  0 inst:  308000000 cyc:  159900747 now IPC :1.75841: AVG IPC :1.92550: L2-Pf-HR :0.97448: L2-HR :0.93582: (Sim:1h10m5s) 
CPU  0 inst:  309000000 cyc:  160484140 now IPC :1.71411: AVG IPC :1.92472: L2-Pf-HR :0.97451: L2-HR :0.93580: (Sim:1h10m23s) 
CPU  0 inst:  310000000 cyc:  161056736 now IPC :1.74643: AVG IPC :1.92409: L2-Pf-HR :0.97446: L2-HR :0.93574: (Sim:1h10m41s) 
CPU  0 inst:  311000005 cyc:  161567399 now IPC :1.95825: AVG IPC :1.92420: L2-Pf-HR :0.97444: L2-HR :0.93571: (Sim:1h10m58s) 
CPU  0 inst:  312000004 cyc:  162231501 now IPC :1.50579: AVG IPC :1.92247: L2-Pf-HR :0.97442: L2-HR :0.93565: (Sim:1h11m17s) 
CPU  0 inst:  313000002 cyc:  162741496 now IPC :1.96080: AVG IPC :1.92259: L2-Pf-HR :0.97450: L2-HR :0.93568: (Sim:1h11m34s) 
CPU  0 inst:  314000004 cyc:  163310064 now IPC :1.75881: AVG IPC :1.92202: L2-Pf-HR :0.97462: L2-HR :0.93574: (Sim:1h11m52s) 
CPU  0 inst:  315000002 cyc:  163861609 now IPC :1.81309: AVG IPC :1.92165: L2-Pf-HR :0.97462: L2-HR :0.93574: (Sim:1h12m9s) 
CPU  0 inst:  316000000 cyc:  164399425 now IPC :1.85937: AVG IPC :1.92145: L2-Pf-HR :0.97459: L2-HR :0.93572: (Sim:1h12m24s) 
CPU  0 inst:  317000002 cyc:  164932506 now IPC :1.87589: AVG IPC :1.92130: L2-Pf-HR :0.97454: L2-HR :0.93570: (Sim:1h12m38s) 
CPU  0 inst:  318000002 cyc:  165513353 now IPC :1.72162: AVG IPC :1.92059: L2-Pf-HR :0.97454: L2-HR :0.93572: (Sim:1h12m56s) 
CPU  0 inst:  319000002 cyc:  166029060 now IPC :1.93909: AVG IPC :1.92065: L2-Pf-HR :0.97459: L2-HR :0.93576: (Sim:1h13m13s) 
CPU  0 inst:  320000002 cyc:  166581293 now IPC :1.81083: AVG IPC :1.92028: L2-Pf-HR :0.97470: L2-HR :0.93582: (Sim:1h13m30s) 
CPU  0 inst:  321000003 cyc:  167077916 now IPC :2.01360: AVG IPC :1.92056: L2-Pf-HR :0.97482: L2-HR :0.93591: (Sim:1h13m48s) 
CPU  0 inst:  322000000 cyc:  167621292 now IPC :1.84034: AVG IPC :1.92030: L2-Pf-HR :0.97490: L2-HR :0.93595: (Sim:1h14m5s) 
CPU  0 inst:  323000000 cyc:  168121461 now IPC :1.99932: AVG IPC :1.92054: L2-Pf-HR :0.97486: L2-HR :0.93596: (Sim:1h14m14s) 
CPU  0 inst:  324000000 cyc:  168769957 now IPC :1.54203: AVG IPC :1.91908: L2-Pf-HR :0.97484: L2-HR :0.93591: (Sim:1h14m31s) 
CPU  0 inst:  325000000 cyc:  169248422 now IPC :2.09002: AVG IPC :1.91956: L2-Pf-HR :0.97476: L2-HR :0.93589: (Sim:1h14m49s) 
CPU  0 inst:  326000005 cyc:  169782308 now IPC :1.87307: AVG IPC :1.91941: L2-Pf-HR :0.97473: L2-HR :0.93588: (Sim:1h15m6s) 
CPU  0 inst:  327000000 cyc:  170310881 now IPC :1.89188: AVG IPC :1.91933: L2-Pf-HR :0.97467: L2-HR :0.93586: (Sim:1h15m24s) 
CPU  0 inst:  328000004 cyc:  170827947 now IPC :1.93400: AVG IPC :1.91937: L2-Pf-HR :0.97463: L2-HR :0.93586: (Sim:1h15m42s) 
CPU  0 inst:  329000004 cyc:  171359950 now IPC :1.87969: AVG IPC :1.91925: L2-Pf-HR :0.97458: L2-HR :0.93583: (Sim:1h15m59s) 
CPU  0 inst:  330000004 cyc:  171928170 now IPC :1.75988: AVG IPC :1.91872: L2-Pf-HR :0.97454: L2-HR :0.93582: (Sim:1h16m17s) 
CPU  0 inst:  331000004 cyc:  172414597 now IPC :2.05581: AVG IPC :1.91911: L2-Pf-HR :0.97460: L2-HR :0.93586: (Sim:1h16m35s) 
CPU  0 inst:  332000000 cyc:  172922117 now IPC :1.97036: AVG IPC :1.91926: L2-Pf-HR :0.97472: L2-HR :0.93595: (Sim:1h16m53s) 
CPU  0 inst:  333000003 cyc:  173434269 now IPC :1.95255: AVG IPC :1.91936: L2-Pf-HR :0.97483: L2-HR :0.93602: (Sim:1h17m11s) 
CPU  0 inst:  334000000 cyc:  173924253 now IPC :2.04088: AVG IPC :1.91970: L2-Pf-HR :0.97479: L2-HR :0.93602: (Sim:1h17m27s) 
CPU  0 inst:  335000002 cyc:  174423196 now IPC :2.00424: AVG IPC :1.91995: L2-Pf-HR :0.97475: L2-HR :0.93602: (Sim:1h17m43s) 
CPU  0 inst:  336000005 cyc:  175068815 now IPC :1.54891: AVG IPC :1.91857: L2-Pf-HR :0.97477: L2-HR :0.93600: (Sim:1h18m1s) 
CPU  0 inst:  337000001 cyc:  175579964 now IPC :1.95637: AVG IPC :1.91868: L2-Pf-HR :0.97476: L2-HR :0.93599: (Sim:1h18m19s) 
CPU  0 inst:  338000002 cyc:  176104216 now IPC :1.90748: AVG IPC :1.91865: L2-Pf-HR :0.97473: L2-HR :0.93598: (Sim:1h18m36s) 
CPU  0 inst:  339000000 cyc:  176640147 now IPC :1.86591: AVG IPC :1.91849: L2-Pf-HR :0.97469: L2-HR :0.93596: (Sim:1h18m53s) 
CPU  0 inst:  340000003 cyc:  177164357 now IPC :1.90764: AVG IPC :1.91845: L2-Pf-HR :0.97467: L2-HR :0.93598: (Sim:1h19m10s) 
CPU  0 inst:  341000003 cyc:  177696265 now IPC :1.88002: AVG IPC :1.91834: L2-Pf-HR :0.97465: L2-HR :0.93597: (Sim:1h19m28s) 
CPU  0 inst:  342000000 cyc:  178271751 now IPC :1.73766: AVG IPC :1.91775: L2-Pf-HR :0.97461: L2-HR :0.93595: (Sim:1h19m45s) 
CPU  0 inst:  343000002 cyc:  178756754 now IPC :2.06185: AVG IPC :1.91814: L2-Pf-HR :0.97461: L2-HR :0.93597: (Sim:1h20m2s) 
CPU  0 inst:  344000004 cyc:  179314460 now IPC :1.79306: AVG IPC :1.91775: L2-Pf-HR :0.97472: L2-HR :0.93604: (Sim:1h20m20s) 
CPU  0 inst:  345000001 cyc:  179866278 now IPC :1.81219: AVG IPC :1.91743: L2-Pf-HR :0.97482: L2-HR :0.93611: (Sim:1h20m37s) 
CPU  0 inst:  346000001 cyc:  180420465 now IPC :1.80445: AVG IPC :1.91708: L2-Pf-HR :0.97485: L2-HR :0.93612: (Sim:1h20m55s) 
CPU  0 inst:  347000001 cyc:  180951220 now IPC :1.88411: AVG IPC :1.91698: L2-Pf-HR :0.97484: L2-HR :0.93613: (Sim:1h21m12s) 
CPU  0 inst:  348000004 cyc:  181602141 now IPC :1.53629: AVG IPC :1.91561: L2-Pf-HR :0.97484: L2-HR :0.93610: (Sim:1h21m27s) 
CPU  0 inst:  349000001 cyc:  182151282 now IPC :1.82102: AVG IPC :1.91532: L2-Pf-HR :0.97493: L2-HR :0.93615: (Sim:1h21m42s) 
CPU  0 inst:  350000005 cyc:  182683546 now IPC :1.87877: AVG IPC :1.91522: L2-Pf-HR :0.97488: L2-HR :0.93613: (Sim:1h21m54s) 
CPU  0 inst:  351000005 cyc:  183217409 now IPC :1.87314: AVG IPC :1.91509: L2-Pf-HR :0.97486: L2-HR :0.93612: (Sim:1h22m4s) 
CPU  0 inst:  352000001 cyc:  183751506 now IPC :1.87231: AVG IPC :1.91497: L2-Pf-HR :0.97483: L2-HR :0.93612: (Sim:1h22m19s) 
CPU  0 inst:  353000005 cyc:  184282402 now IPC :1.88362: AVG IPC :1.91488: L2-Pf-HR :0.97480: L2-HR :0.93610: (Sim:1h22m37s) 
CPU  0 inst:  354000004 cyc:  184862416 now IPC :1.72409: AVG IPC :1.91428: L2-Pf-HR :0.97480: L2-HR :0.93610: (Sim:1h22m54s) 
CPU  0 inst:  355000001 cyc:  185376636 now IPC :1.94469: AVG IPC :1.91436: L2-Pf-HR :0.97486: L2-HR :0.93615: (Sim:1h23m11s) 
CPU  0 inst:  356000005 cyc:  185908084 now IPC :1.88166: AVG IPC :1.91427: L2-Pf-HR :0.97496: L2-HR :0.93622: (Sim:1h23m29s) 
CPU  0 inst:  357000003 cyc:  186414628 now IPC :1.97416: AVG IPC :1.91443: L2-Pf-HR :0.97507: L2-HR :0.93630: (Sim:1h23m44s) 
CPU  0 inst:  358000003 cyc:  186905301 now IPC :2.03802: AVG IPC :1.91476: L2-Pf-HR :0.97510: L2-HR :0.93632: (Sim:1h24m2s) 
CPU  0 inst:  359000003 cyc:  187408702 now IPC :1.98649: AVG IPC :1.91495: L2-Pf-HR :0.97507: L2-HR :0.93633: (Sim:1h24m19s) 
CPU  0 inst:  360000004 cyc:  187954389 now IPC :1.83255: AVG IPC :1.91471: L2-Pf-HR :0.97501: L2-HR :0.93626: (Sim:1h24m37s) 
CPU  0 inst:  361000005 cyc:  188430809 now IPC :2.09899: AVG IPC :1.91518: L2-Pf-HR :0.97492: L2-HR :0.93613: (Sim:1h24m54s) 
CPU  0 inst:  362000004 cyc:  188930507 now IPC :2.00121: AVG IPC :1.91541: L2-Pf-HR :0.97484: L2-HR :0.93602: (Sim:1h25m11s) 
CPU  0 inst:  363000001 cyc:  189402646 now IPC :2.11801: AVG IPC :1.91591: L2-Pf-HR :0.97476: L2-HR :0.93592: (Sim:1h25m28s) 
CPU  0 inst:  364000001 cyc:  190023538 now IPC :1.61059: AVG IPC :1.91491: L2-Pf-HR :0.97469: L2-HR :0.93580: (Sim:1h25m46s) 
CPU  0 inst:  365000005 cyc:  190558778 now IPC :1.86833: AVG IPC :1.91478: L2-Pf-HR :0.97466: L2-HR :0.93578: (Sim:1h26m3s) 
CPU  0 inst:  366000000 cyc:  191080261 now IPC :1.91760: AVG IPC :1.91479: L2-Pf-HR :0.97466: L2-HR :0.93578: (Sim:1h26m22s) 
CPU  0 inst:  367000003 cyc:  191578530 now IPC :2.00695: AVG IPC :1.91503: L2-Pf-HR :0.97460: L2-HR :0.93575: (Sim:1h26m39s) 
CPU  0 inst:  368000005 cyc:  192096299 now IPC :1.93137: AVG IPC :1.91507: L2-Pf-HR :0.97453: L2-HR :0.93572: (Sim:1h26m57s) 
CPU  0 inst:  369000000 cyc:  192592080 now IPC :2.01701: AVG IPC :1.91534: L2-Pf-HR :0.97446: L2-HR :0.93569: (Sim:1h27m15s) 
CPU  0 inst:  370000003 cyc:  193190252 now IPC :1.67176: AVG IPC :1.91458: L2-Pf-HR :0.97447: L2-HR :0.93569: (Sim:1h27m32s) 
CPU  0 inst:  371000001 cyc:  193743605 now IPC :1.80716: AVG IPC :1.91427: L2-Pf-HR :0.97447: L2-HR :0.93569: (Sim:1h27m49s) 
CPU  0 inst:  372000002 cyc:  194255898 now IPC :1.95201: AVG IPC :1.91437: L2-Pf-HR :0.97457: L2-HR :0.93574: (Sim:1h28m6s) 
CPU  0 inst:  373000000 cyc:  194758435 now IPC :1.98990: AVG IPC :1.91457: L2-Pf-HR :0.97466: L2-HR :0.93578: (Sim:1h28m24s) 
CPU  0 inst:  374000004 cyc:  195261484 now IPC :1.98789: AVG IPC :1.91476: L2-Pf-HR :0.97457: L2-HR :0.93573: (Sim:1h28m42s) 
CPU  0 inst:  375000002 cyc:  195752428 now IPC :2.03689: AVG IPC :1.91506: L2-Pf-HR :0.97453: L2-HR :0.93570: (Sim:1h28m59s) 
CPU  0 inst:  376000005 cyc:  196407446 now IPC :1.52668: AVG IPC :1.91376: L2-Pf-HR :0.97451: L2-HR :0.93564: (Sim:1h29m16s) 
CPU  0 inst:  377000002 cyc:  196902194 now IPC :2.02122: AVG IPC :1.91403: L2-Pf-HR :0.97456: L2-HR :0.93566: (Sim:1h29m29s) 
CPU  0 inst:  378000002 cyc:  197369611 now IPC :2.13942: AVG IPC :1.91457: L2-Pf-HR :0.97447: L2-HR :0.93563: (Sim:1h29m43s) 
CPU  0 inst:  379000003 cyc:  197857814 now IPC :2.04833: AVG IPC :1.91490: L2-Pf-HR :0.97444: L2-HR :0.93562: (Sim:1h30m1s) 
CPU  0 inst:  380000003 cyc:  198333376 now IPC :2.10278: AVG IPC :1.91535: L2-Pf-HR :0.97436: L2-HR :0.93559: (Sim:1h30m19s) 
CPU  0 inst:  381000000 cyc:  198804369 now IPC :2.12317: AVG IPC :1.91585: L2-Pf-HR :0.97431: L2-HR :0.93557: (Sim:1h30m37s) 
CPU  0 inst:  382000005 cyc:  199361336 now IPC :1.79545: AVG IPC :1.91551: L2-Pf-HR :0.97432: L2-HR :0.93558: (Sim:1h30m55s) 
CPU  0 inst:  383000001 cyc:  199838357 now IPC :2.09634: AVG IPC :1.91594: L2-Pf-HR :0.97426: L2-HR :0.93557: (Sim:1h31m13s) 
CPU  0 inst:  384000003 cyc:  200350599 now IPC :1.95221: AVG IPC :1.91604: L2-Pf-HR :0.97433: L2-HR :0.93562: (Sim:1h31m31s) 
CPU  0 inst:  385000000 cyc:  200871152 now IPC :1.92103: AVG IPC :1.91605: L2-Pf-HR :0.97443: L2-HR :0.93567: (Sim:1h31m49s) 
CPU  0 inst:  386000001 cyc:  201373550 now IPC :1.99046: AVG IPC :1.91624: L2-Pf-HR :0.97441: L2-HR :0.93567: (Sim:1h32m7s) 
CPU  0 inst:  387000001 cyc:  201860715 now IPC :2.05269: AVG IPC :1.91657: L2-Pf-HR :0.97437: L2-HR :0.93567: (Sim:1h32m24s) 
CPU  0 inst:  388000001 cyc:  202497654 now IPC :1.57001: AVG IPC :1.91547: L2-Pf-HR :0.97436: L2-HR :0.93564: (Sim:1h32m42s) 
CPU  0 inst:  389000000 cyc:  202987431 now IPC :2.04174: AVG IPC :1.91578: L2-Pf-HR :0.97435: L2-HR :0.93566: (Sim:1h33m0s) 
CPU  0 inst:  390000001 cyc:  203474251 now IPC :2.05415: AVG IPC :1.91611: L2-Pf-HR :0.97429: L2-HR :0.93563: (Sim:1h33m17s) 
CPU  0 inst:  391000005 cyc:  203956773 now IPC :2.07245: AVG IPC :1.91648: L2-Pf-HR :0.97426: L2-HR :0.93563: (Sim:1h33m34s) 
CPU  0 inst:  392000005 cyc:  204429427 now IPC :2.11571: AVG IPC :1.91695: L2-Pf-HR :0.97419: L2-HR :0.93561: (Sim:1h33m51s) 
CPU  0 inst:  393000005 cyc:  204896854 now IPC :2.13937: AVG IPC :1.91746: L2-Pf-HR :0.97414: L2-HR :0.93559: (Sim:1h34m9s) 
CPU  0 inst:  394000004 cyc:  205453069 now IPC :1.79786: AVG IPC :1.91713: L2-Pf-HR :0.97414: L2-HR :0.93560: (Sim:1h34m26s) 
CPU  0 inst:  395000000 cyc:  205934948 now IPC :2.07520: AVG IPC :1.91750: L2-Pf-HR :0.97409: L2-HR :0.93558: (Sim:1h34m43s) 
CPU  0 inst:  396000005 cyc:  206422760 now IPC :2.04998: AVG IPC :1.91782: L2-Pf-HR :0.97419: L2-HR :0.93566: (Sim:1h35m0s) 
CPU  0 inst:  397000003 cyc:  206934744 now IPC :1.95318: AVG IPC :1.91790: L2-Pf-HR :0.97428: L2-HR :0.93572: (Sim:1h35m18s) 
CPU  0 inst:  398000003 cyc:  207423821 now IPC :2.04467: AVG IPC :1.91820: L2-Pf-HR :0.97438: L2-HR :0.93578: (Sim:1h35m35s) 
CPU  0 inst:  399000003 cyc:  207912738 now IPC :2.04534: AVG IPC :1.91851: L2-Pf-HR :0.97437: L2-HR :0.93580: (Sim:1h35m52s) 
CPU  0 inst:  400000003 cyc:  208538878 now IPC :1.59709: AVG IPC :1.91754: L2-Pf-HR :0.97435: L2-HR :0.93576: (Sim:1h36m10s) 
CPU  0 inst:  401000003 cyc:  209011494 now IPC :2.11588: AVG IPC :1.91799: L2-Pf-HR :0.97428: L2-HR :0.93575: (Sim:1h36m27s) 
CPU  0 inst:  402000004 cyc:  209496478 now IPC :2.06193: AVG IPC :1.91832: L2-Pf-HR :0.97424: L2-HR :0.93573: (Sim:1h36m44s) 
CPU  0 inst:  403000001 cyc:  209959270 now IPC :2.16079: AVG IPC :1.91886: L2-Pf-HR :0.97416: L2-HR :0.93571: (Sim:1h37m1s) 
CPU  0 inst:  404000004 cyc:  210433557 now IPC :2.10843: AVG IPC :1.91929: L2-Pf-HR :0.97414: L2-HR :0.93572: (Sim:1h37m14s) 
CPU  0 inst:  405000001 cyc:  210906063 now IPC :2.11637: AVG IPC :1.91973: L2-Pf-HR :0.97408: L2-HR :0.93571: (Sim:1h37m29s) 
CPU  0 inst:  406000001 cyc:  211465595 now IPC :1.78721: AVG IPC :1.91938: L2-Pf-HR :0.97405: L2-HR :0.93569: (Sim:1h37m46s) 
CPU  0 inst:  407000001 cyc:  211953662 now IPC :2.04890: AVG IPC :1.91968: L2-Pf-HR :0.97403: L2-HR :0.93571: (Sim:1h38m4s) 
CPU  0 inst:  408000005 cyc:  212435025 now IPC :2.07744: AVG IPC :1.92004: L2-Pf-HR :0.97411: L2-HR :0.93577: (Sim:1h38m21s) 
CPU  0 inst:  409000005 cyc:  212931571 now IPC :2.01391: AVG IPC :1.92026: L2-Pf-HR :0.97420: L2-HR :0.93582: (Sim:1h38m39s) 
CPU  0 inst:  410000004 cyc:  213457485 now IPC :1.90145: AVG IPC :1.92021: L2-Pf-HR :0.97428: L2-HR :0.93588: (Sim:1h38m54s) 
CPU  0 inst:  411000005 cyc:  213940083 now IPC :2.07212: AVG IPC :1.92055: L2-Pf-HR :0.97423: L2-HR :0.93587: (Sim:1h39m4s) 
CPU  0 inst:  412000002 cyc:  214569486 now IPC :1.58880: AVG IPC :1.91958: L2-Pf-HR :0.97423: L2-HR :0.93584: (Sim:1h39m14s) 
CPU  0 inst:  413000000 cyc:  215111898 now IPC :1.84361: AVG IPC :1.91938: L2-Pf-HR :0.97430: L2-HR :0.93589: (Sim:1h39m23s) 
CPU  0 inst:  414000002 cyc:  215637666 now IPC :1.90198: AVG IPC :1.91934: L2-Pf-HR :0.97431: L2-HR :0.93589: (Sim:1h39m35s) 
CPU  0 inst:  415000000 cyc:  216100585 now IPC :2.16020: AVG IPC :1.91986: L2-Pf-HR :0.97423: L2-HR :0.93588: (Sim:1h39m53s) 
CPU  0 inst:  416000003 cyc:  216578979 now IPC :2.09033: AVG IPC :1.92024: L2-Pf-HR :0.97419: L2-HR :0.93588: (Sim:1h40m9s) 
CPU  0 inst:  417000000 cyc:  217044221 now IPC :2.14941: AVG IPC :1.92073: L2-Pf-HR :0.97414: L2-HR :0.93586: (Sim:1h40m24s) 
CPU  0 inst:  418000002 cyc:  217605565 now IPC :1.78144: AVG IPC :1.92037: L2-Pf-HR :0.97412: L2-HR :0.93585: (Sim:1h40m41s) 
CPU  0 inst:  419000000 cyc:  218116778 now IPC :1.95613: AVG IPC :1.92046: L2-Pf-HR :0.97406: L2-HR :0.93583: (Sim:1h40m58s) 
CPU  0 inst:  420000004 cyc:  218609483 now IPC :2.02962: AVG IPC :1.92070: L2-Pf-HR :0.97413: L2-HR :0.93589: (Sim:1h41m11s) 
CPU  0 inst:  421000000 cyc:  219118384 now IPC :1.96501: AVG IPC :1.92081: L2-Pf-HR :0.97422: L2-HR :0.93595: (Sim:1h41m27s) 
CPU  0 inst:  422000003 cyc:  219595055 now IPC :2.09789: AVG IPC :1.92119: L2-Pf-HR :0.97419: L2-HR :0.93595: (Sim:1h41m41s) 
CPU  0 inst:  423000004 cyc:  220081625 now IPC :2.05520: AVG IPC :1.92149: L2-Pf-HR :0.97414: L2-HR :0.93593: (Sim:1h41m58s) 
CPU  0 inst:  424000002 cyc:  220616949 now IPC :1.86802: AVG IPC :1.92136: L2-Pf-HR :0.97410: L2-HR :0.93588: (Sim:1h42m12s) 
CPU  0 inst:  425000001 cyc:  221072577 now IPC :2.19477: AVG IPC :1.92193: L2-Pf-HR :0.97402: L2-HR :0.93578: (Sim:1h42m29s) 
CPU  0 inst:  426000005 cyc:  221557178 now IPC :2.06356: AVG IPC :1.92224: L2-Pf-HR :0.97394: L2-HR :0.93568: (Sim:1h42m47s) 
CPU  0 inst:  427000001 cyc:  222018388 now IPC :2.16820: AVG IPC :1.92275: L2-Pf-HR :0.97387: L2-HR :0.93559: (Sim:1h43m4s) 
CPU  0 inst:  428000004 cyc:  222643871 now IPC :1.59877: AVG IPC :1.92184: L2-Pf-HR :0.97384: L2-HR :0.93549: (Sim:1h43m17s) 
CPU  0 inst:  429000002 cyc:  223174925 now IPC :1.88304: AVG IPC :1.92174: L2-Pf-HR :0.97384: L2-HR :0.93549: (Sim:1h43m35s) 
CPU  0 inst:  430000002 cyc:  223738967 now IPC :1.77292: AVG IPC :1.92137: L2-Pf-HR :0.97386: L2-HR :0.93548: (Sim:1h43m53s) 
CPU  0 inst:  431000000 cyc:  224298171 now IPC :1.78825: AVG IPC :1.92103: L2-Pf-HR :0.97385: L2-HR :0.93548: (Sim:1h44m11s) 
CPU  0 inst:  432000003 cyc:  224833149 now IPC :1.86924: AVG IPC :1.92091: L2-Pf-HR :0.97382: L2-HR :0.93546: (Sim:1h44m29s) 
CPU  0 inst:  433000002 cyc:  225338942 now IPC :1.97709: AVG IPC :1.92104: L2-Pf-HR :0.97378: L2-HR :0.93546: (Sim:1h44m42s) 
CPU  0 inst:  434000003 cyc:  225927924 now IPC :1.69785: AVG IPC :1.92045: L2-Pf-HR :0.97377: L2-HR :0.93544: (Sim:1h45m0s) 
CPU  0 inst:  435000001 cyc:  226447877 now IPC :1.92325: AVG IPC :1.92046: L2-Pf-HR :0.97374: L2-HR :0.93543: (Sim:1h45m18s) 
CPU  0 inst:  436000002 cyc:  227007756 now IPC :1.78610: AVG IPC :1.92012: L2-Pf-HR :0.97381: L2-HR :0.93546: (Sim:1h45m36s) 
CPU  0 inst:  437000000 cyc:  227573755 now IPC :1.76678: AVG IPC :1.91974: L2-Pf-HR :0.97390: L2-HR :0.93551: (Sim:1h45m54s) 
CPU  0 inst:  438000000 cyc:  228133391 now IPC :1.78688: AVG IPC :1.91941: L2-Pf-HR :0.97387: L2-HR :0.93547: (Sim:1h46m12s) 
CPU  0 inst:  439000005 cyc:  228660526 now IPC :1.89706: AVG IPC :1.91936: L2-Pf-HR :0.97385: L2-HR :0.93546: (Sim:1h46m29s) 
CPU  0 inst:  440000003 cyc:  229306144 now IPC :1.54890: AVG IPC :1.91832: L2-Pf-HR :0.97383: L2-HR :0.93541: (Sim:1h46m48s) 
CPU  0 inst:  441000003 cyc:  229819759 now IPC :1.94698: AVG IPC :1.91838: L2-Pf-HR :0.97388: L2-HR :0.93543: (Sim:1h47m6s) 
CPU  0 inst:  442000001 cyc:  230352747 now IPC :1.87621: AVG IPC :1.91828: L2-Pf-HR :0.97383: L2-HR :0.93540: (Sim:1h47m24s) 
CPU  0 inst:  443000001 cyc:  230889177 now IPC :1.86418: AVG IPC :1.91816: L2-Pf-HR :0.97382: L2-HR :0.93539: (Sim:1h47m41s) 
CPU  0 inst:  444000002 cyc:  231418735 now IPC :1.88837: AVG IPC :1.91809: L2-Pf-HR :0.97379: L2-HR :0.93538: (Sim:1h47m59s) 
CPU  0 inst:  445000000 cyc:  231948823 now IPC :1.88648: AVG IPC :1.91801: L2-Pf-HR :0.97376: L2-HR :0.93537: (Sim:1h48m17s) 
CPU  0 inst:  446000003 cyc:  232530393 now IPC :1.71949: AVG IPC :1.91752: L2-Pf-HR :0.97376: L2-HR :0.93537: (Sim:1h48m34s) 
CPU  0 inst:  447000001 cyc:  233016442 now IPC :2.05740: AVG IPC :1.91781: L2-Pf-HR :0.97370: L2-HR :0.93534: (Sim:1h48m52s) 
CPU  0 inst:  448000001 cyc:  233575189 now IPC :1.78972: AVG IPC :1.91750: L2-Pf-HR :0.97378: L2-HR :0.93539: (Sim:1h49m9s) 
CPU  0 inst:  449000005 cyc:  234140483 now IPC :1.76900: AVG IPC :1.91714: L2-Pf-HR :0.97387: L2-HR :0.93546: (Sim:1h49m27s) 
CPU  0 inst:  450000005 cyc:  234703617 now IPC :1.77578: AVG IPC :1.91680: L2-Pf-HR :0.97392: L2-HR :0.93548: (Sim:1h49m45s) 
CPU  0 inst:  451000005 cyc:  235208395 now IPC :1.98107: AVG IPC :1.91694: L2-Pf-HR :0.97387: L2-HR :0.93548: (Sim:1h50m2s) 
CPU  0 inst:  452000002 cyc:  235849931 now IPC :1.55875: AVG IPC :1.91596: L2-Pf-HR :0.97386: L2-HR :0.93545: (Sim:1h50m20s) 
CPU  0 inst:  453000002 cyc:  236332803 now IPC :2.07094: AVG IPC :1.91628: L2-Pf-HR :0.97381: L2-HR :0.93544: (Sim:1h50m36s) 
CPU  0 inst:  454000000 cyc:  236858816 now IPC :1.90109: AVG IPC :1.91624: L2-Pf-HR :0.97379: L2-HR :0.93543: (Sim:1h50m48s) 
CPU  0 inst:  455000005 cyc:  237388171 now IPC :1.88910: AVG IPC :1.91618: L2-Pf-HR :0.97374: L2-HR :0.93540: (Sim:1h51m5s) 
CPU  0 inst:  456000002 cyc:  237919488 now IPC :1.88211: AVG IPC :1.91611: L2-Pf-HR :0.97373: L2-HR :0.93541: (Sim:1h51m23s) 
CPU  0 inst:  457000000 cyc:  238449266 now IPC :1.88758: AVG IPC :1.91604: L2-Pf-HR :0.97371: L2-HR :0.93540: (Sim:1h51m40s) 
CPU  0 inst:  458000000 cyc:  239031679 now IPC :1.71699: AVG IPC :1.91556: L2-Pf-HR :0.97370: L2-HR :0.93539: (Sim:1h51m58s) 
CPU  0 inst:  459000000 cyc:  239511575 now IPC :2.08378: AVG IPC :1.91590: L2-Pf-HR :0.97367: L2-HR :0.93539: (Sim:1h52m15s) 
CPU  0 inst:  460000000 cyc:  240066389 now IPC :1.80241: AVG IPC :1.91563: L2-Pf-HR :0.97375: L2-HR :0.93545: (Sim:1h52m33s) 
CPU  0 inst:  461000000 cyc:  240571514 now IPC :1.97971: AVG IPC :1.91577: L2-Pf-HR :0.97384: L2-HR :0.93551: (Sim:1h52m50s) 
CPU  0 inst:  462000004 cyc:  241074058 now IPC :1.98988: AVG IPC :1.91592: L2-Pf-HR :0.97392: L2-HR :0.93556: (Sim:1h53m8s) 
CPU  0 inst:  463000004 cyc:  241573837 now IPC :2.00088: AVG IPC :1.91610: L2-Pf-HR :0.97392: L2-HR :0.93557: (Sim:1h53m25s) 
CPU  0 inst:  464000001 cyc:  242212594 now IPC :1.56554: AVG IPC :1.91517: L2-Pf-HR :0.97391: L2-HR :0.93554: (Sim:1h53m43s) 
CPU  0 inst:  465000002 cyc:  242704229 now IPC :2.03403: AVG IPC :1.91541: L2-Pf-HR :0.97397: L2-HR :0.93558: (Sim:1h54m0s) 
CPU  0 inst:  466000001 cyc:  243245405 now IPC :1.84783: AVG IPC :1.91526: L2-Pf-HR :0.97406: L2-HR :0.93564: (Sim:1h54m18s) 
CPU  0 inst:  467000004 cyc:  243865372 now IPC :1.61299: AVG IPC :1.91449: L2-Pf-HR :0.97414: L2-HR :0.93570: (Sim:1h54m33s) 
CPU  0 inst:  468000002 cyc:  244386383 now IPC :1.91934: AVG IPC :1.91450: L2-Pf-HR :0.97422: L2-HR :0.93576: (Sim:1h54m51s) 
CPU  0 inst:  469000002 cyc:  244948678 now IPC :1.77843: AVG IPC :1.91419: L2-Pf-HR :0.97428: L2-HR :0.93579: (Sim:1h55m8s) 
CPU  0 inst:  470000002 cyc:  245531851 now IPC :1.71476: AVG IPC :1.91371: L2-Pf-HR :0.97426: L2-HR :0.93579: (Sim:1h55m26s) 
CPU  0 inst:  471000005 cyc:  246014406 now IPC :2.07231: AVG IPC :1.91402: L2-Pf-HR :0.97420: L2-HR :0.93577: (Sim:1h55m44s) 
CPU  0 inst:  472000002 cyc:  246573618 now IPC :1.78823: AVG IPC :1.91374: L2-Pf-HR :0.97428: L2-HR :0.93582: (Sim:1h56m2s) 
CPU  0 inst:  473000005 cyc:  247108508 now IPC :1.86955: AVG IPC :1.91364: L2-Pf-HR :0.97436: L2-HR :0.93588: (Sim:1h56m15s) 
CPU  0 inst:  474000000 cyc:  247651984 now IPC :1.84000: AVG IPC :1.91348: L2-Pf-HR :0.97444: L2-HR :0.93593: (Sim:1h56m33s) 
CPU  0 inst:  475000000 cyc:  248180068 now IPC :1.89364: AVG IPC :1.91344: L2-Pf-HR :0.97444: L2-HR :0.93593: (Sim:1h56m50s) 
CPU  0 inst:  476000000 cyc:  248834254 now IPC :1.52862: AVG IPC :1.91242: L2-Pf-HR :0.97445: L2-HR :0.93591: (Sim:1h57m8s) 
CPU  0 inst:  477000003 cyc:  249369917 now IPC :1.86685: AVG IPC :1.91232: L2-Pf-HR :0.97449: L2-HR :0.93593: (Sim:1h57m23s) 
CPU  0 inst:  478000004 cyc:  249900914 now IPC :1.88325: AVG IPC :1.91226: L2-Pf-HR :0.97446: L2-HR :0.93591: (Sim:1h57m38s) 
CPU  0 inst:  479000004 cyc:  250443182 now IPC :1.84411: AVG IPC :1.91211: L2-Pf-HR :0.97446: L2-HR :0.93591: (Sim:1h57m54s) 
CPU  0 inst:  480000004 cyc:  250979028 now IPC :1.86621: AVG IPC :1.91201: L2-Pf-HR :0.97442: L2-HR :0.93590: (Sim:1h58m11s) 
CPU  0 inst:  481000001 cyc:  251498855 now IPC :1.92371: AVG IPC :1.91204: L2-Pf-HR :0.97440: L2-HR :0.93589: (Sim:1h58m29s) 
CPU  0 inst:  482000004 cyc:  252081418 now IPC :1.71656: AVG IPC :1.91158: L2-Pf-HR :0.97438: L2-HR :0.93588: (Sim:1h58m45s) 
CPU  0 inst:  483000004 cyc:  252567423 now IPC :2.05759: AVG IPC :1.91187: L2-Pf-HR :0.97434: L2-HR :0.93588: (Sim:1h58m59s) 
CPU  0 inst:  484000001 cyc:  253103160 now IPC :1.86658: AVG IPC :1.91177: L2-Pf-HR :0.97441: L2-HR :0.93593: (Sim:1h59m12s) 
CPU  0 inst:  485000002 cyc:  253628308 now IPC :1.90423: AVG IPC :1.91175: L2-Pf-HR :0.97449: L2-HR :0.93598: (Sim:1h59m30s) 
CPU  0 inst:  486000002 cyc:  254127152 now IPC :2.00463: AVG IPC :1.91194: L2-Pf-HR :0.97457: L2-HR :0.93604: (Sim:1h59m47s) 
CPU  0 inst:  487000002 cyc:  254626977 now IPC :2.00070: AVG IPC :1.91211: L2-Pf-HR :0.97456: L2-HR :0.93605: (Sim:1h59m59s) 
CPU  0 inst:  488000002 cyc:  255179361 now IPC :1.81033: AVG IPC :1.91189: L2-Pf-HR :0.97455: L2-HR :0.93602: (Sim:2h0m7s) 
CPU  0 inst:  489000004 cyc:  255656369 now IPC :2.09641: AVG IPC :1.91224: L2-Pf-HR :0.97449: L2-HR :0.93594: (Sim:2h0m19s) 
CPU  0 inst:  490000002 cyc:  256155299 now IPC :2.00429: AVG IPC :1.91242: L2-Pf-HR :0.97443: L2-HR :0.93585: (Sim:2h0m32s) 
CPU  0 inst:  491000000 cyc:  256642371 now IPC :2.05308: AVG IPC :1.91268: L2-Pf-HR :0.97437: L2-HR :0.93577: (Sim:2h0m45s) 
CPU  0 inst:  492000002 cyc:  257275649 now IPC :1.57909: AVG IPC :1.91186: L2-Pf-HR :0.97434: L2-HR :0.93568: (Sim:2h1m0s) 
CPU  0 inst:  493000001 cyc:  257787398 now IPC :1.95408: AVG IPC :1.91194: L2-Pf-HR :0.97435: L2-HR :0.93568: (Sim:2h1m16s) 
CPU  0 inst:  494000005 cyc:  258345710 now IPC :1.79112: AVG IPC :1.91168: L2-Pf-HR :0.97435: L2-HR :0.93567: (Sim:2h1m34s) 
CPU  0 inst:  495000000 cyc:  258906840 now IPC :1.78211: AVG IPC :1.91140: L2-Pf-HR :0.97433: L2-HR :0.93565: (Sim:2h1m52s) 
CPU  0 inst:  496000000 cyc:  259443629 now IPC :1.86293: AVG IPC :1.91130: L2-Pf-HR :0.97430: L2-HR :0.93564: (Sim:2h2m10s) 
CPU  0 inst:  497000001 cyc:  259958439 now IPC :1.94247: AVG IPC :1.91136: L2-Pf-HR :0.97428: L2-HR :0.93564: (Sim:2h2m28s) 
CPU  0 inst:  498000005 cyc:  260538516 now IPC :1.72392: AVG IPC :1.91094: L2-Pf-HR :0.97425: L2-HR :0.93563: (Sim:2h2m46s) 
CPU  0 inst:  499000001 cyc:  261083602 now IPC :1.83457: AVG IPC :1.91078: L2-Pf-HR :0.97429: L2-HR :0.93564: (Sim:2h3m4s) 
CPU  0 inst:  500000002 cyc:  261679305 now IPC :1.67869: AVG IPC :1.91025: L2-Pf-HR :0.97437: L2-HR :0.93567: (Sim:2h3m22s) 
CPU  0 inst:  501000000 cyc:  262280044 now IPC :1.66461: AVG IPC :1.90969: L2-Pf-HR :0.97443: L2-HR :0.93570: (Sim:2h3m40s) 
CPU  0 inst:  502000003 cyc:  262880813 now IPC :1.66454: AVG IPC :1.90913: L2-Pf-HR :0.97450: L2-HR :0.93573: (Sim:2h3m58s) 
CPU  0 inst:  503000005 cyc:  263466726 now IPC :1.70674: AVG IPC :1.90867: L2-Pf-HR :0.97458: L2-HR :0.93576: (Sim:2h4m16s) 
CPU  0 inst:  504000004 cyc:  264157139 now IPC :1.44841: AVG IPC :1.90747: L2-Pf-HR :0.97463: L2-HR :0.93575: (Sim:2h4m34s) 
CPU  0 inst:  505000005 cyc:  264705080 now IPC :1.82502: AVG IPC :1.90729: L2-Pf-HR :0.97466: L2-HR :0.93577: (Sim:2h4m52s) 
CPU  0 inst:  506000001 cyc:  265262070 now IPC :1.79536: AVG IPC :1.90706: L2-Pf-HR :0.97473: L2-HR :0.93581: (Sim:2h5m9s) 
CPU  0 inst:  507000002 cyc:  265840390 now IPC :1.72915: AVG IPC :1.90667: L2-Pf-HR :0.97480: L2-HR :0.93585: (Sim:2h5m27s) 
CPU  0 inst:  508000002 cyc:  266399137 now IPC :1.78972: AVG IPC :1.90642: L2-Pf-HR :0.97481: L2-HR :0.93585: (Sim:2h5m45s) 
CPU  0 inst:  509000002 cyc:  266936619 now IPC :1.86053: AVG IPC :1.90633: L2-Pf-HR :0.97478: L2-HR :0.93584: (Sim:2h6m2s) 
CPU  0 inst:  510000002 cyc:  267520191 now IPC :1.71358: AVG IPC :1.90591: L2-Pf-HR :0.97477: L2-HR :0.93583: (Sim:2h6m20s) 
CPU  0 inst:  511000001 cyc:  268019762 now IPC :2.00172: AVG IPC :1.90609: L2-Pf-HR :0.97473: L2-HR :0.93582: (Sim:2h6m37s) 
CPU  0 inst:  512000002 cyc:  268576964 now IPC :1.79468: AVG IPC :1.90586: L2-Pf-HR :0.97480: L2-HR :0.93587: (Sim:2h6m55s) 
CPU  0 inst:  513000000 cyc:  269138559 now IPC :1.78064: AVG IPC :1.90559: L2-Pf-HR :0.97487: L2-HR :0.93591: (Sim:2h7m12s) 
CPU  0 inst:  514000000 cyc:  269671583 now IPC :1.87609: AVG IPC :1.90554: L2-Pf-HR :0.97486: L2-HR :0.93592: (Sim:2h7m30s) 
CPU  0 inst:  515000000 cyc:  270189676 now IPC :1.93016: AVG IPC :1.90558: L2-Pf-HR :0.97482: L2-HR :0.93591: (Sim:2h7m47s) 
CPU  0 inst:  516000003 cyc:  270843400 now IPC :1.52970: AVG IPC :1.90467: L2-Pf-HR :0.97483: L2-HR :0.93589: (Sim:2h8m6s) 
CPU  0 inst:  517000003 cyc:  271371222 now IPC :1.89458: AVG IPC :1.90465: L2-Pf-HR :0.97478: L2-HR :0.93588: (Sim:2h8m19s) 
CPU  0 inst:  518000004 cyc:  271905264 now IPC :1.87251: AVG IPC :1.90459: L2-Pf-HR :0.97476: L2-HR :0.93587: (Sim:2h8m37s) 
CPU  0 inst:  519000004 cyc:  272446380 now IPC :1.84803: AVG IPC :1.90448: L2-Pf-HR :0.97475: L2-HR :0.93587: (Sim:2h8m54s) 
CPU  0 inst:  520000004 cyc:  272981061 now IPC :1.87027: AVG IPC :1.90441: L2-Pf-HR :0.97474: L2-HR :0.93587: (Sim:2h9m11s) 
CPU  0 inst:  521000004 cyc:  273505798 now IPC :1.90572: AVG IPC :1.90441: L2-Pf-HR :0.97470: L2-HR :0.93586: (Sim:2h9m29s) 
CPU  0 inst:  522000003 cyc:  274092146 now IPC :1.70547: AVG IPC :1.90399: L2-Pf-HR :0.97469: L2-HR :0.93587: (Sim:2h9m46s) 
CPU  0 inst:  523000003 cyc:  274627922 now IPC :1.86645: AVG IPC :1.90391: L2-Pf-HR :0.97468: L2-HR :0.93586: (Sim:2h10m3s) 
CPU  0 inst:  524000001 cyc:  275172837 now IPC :1.83514: AVG IPC :1.90378: L2-Pf-HR :0.97470: L2-HR :0.93589: (Sim:2h10m20s) 
CPU  0 inst:  525000002 cyc:  275751437 now IPC :1.72831: AVG IPC :1.90341: L2-Pf-HR :0.97477: L2-HR :0.93593: (Sim:2h10m39s) 
CPU  0 inst:  526000002 cyc:  276303112 now IPC :1.81266: AVG IPC :1.90322: L2-Pf-HR :0.97477: L2-HR :0.93594: (Sim:2h10m57s) 
CPU  0 inst:  527000002 cyc:  276832772 now IPC :1.88800: AVG IPC :1.90319: L2-Pf-HR :0.97474: L2-HR :0.93593: (Sim:2h11m15s) 
CPU  0 inst:  528000005 cyc:  277473824 now IPC :1.55994: AVG IPC :1.90240: L2-Pf-HR :0.97478: L2-HR :0.93593: (Sim:2h11m34s) 
CPU  0 inst:  529000003 cyc:  278014893 now IPC :1.84819: AVG IPC :1.90229: L2-Pf-HR :0.97482: L2-HR :0.93596: (Sim:2h11m52s) 
CPU  0 inst:  530000003 cyc:  278554793 now IPC :1.85219: AVG IPC :1.90220: L2-Pf-HR :0.97480: L2-HR :0.93595: (Sim:2h12m9s) 
CPU  0 inst:  531000003 cyc:  279106904 now IPC :1.81123: AVG IPC :1.90201: L2-Pf-HR :0.97485: L2-HR :0.93599: (Sim:2h12m27s) 
CPU  0 inst:  532000003 cyc:  279636403 now IPC :1.88858: AVG IPC :1.90199: L2-Pf-HR :0.97492: L2-HR :0.93604: (Sim:2h12m44s) 
CPU  0 inst:  533000004 cyc:  280152906 now IPC :1.93610: AVG IPC :1.90205: L2-Pf-HR :0.97499: L2-HR :0.93608: (Sim:2h13m2s) 
CPU  0 inst:  534000002 cyc:  280746934 now IPC :1.68342: AVG IPC :1.90159: L2-Pf-HR :0.97503: L2-HR :0.93611: (Sim:2h13m20s) 
CPU  0 inst:  535000004 cyc:  281272547 now IPC :1.90254: AVG IPC :1.90159: L2-Pf-HR :0.97501: L2-HR :0.93611: (Sim:2h13m38s) 
CPU  0 inst:  536000001 cyc:  281831154 now IPC :1.79016: AVG IPC :1.90137: L2-Pf-HR :0.97507: L2-HR :0.93615: (Sim:2h13m57s) 
CPU  0 inst:  537000001 cyc:  282385119 now IPC :1.80517: AVG IPC :1.90118: L2-Pf-HR :0.97514: L2-HR :0.93620: (Sim:2h14m15s) 
CPU  0 inst:  538000001 cyc:  282906961 now IPC :1.91629: AVG IPC :1.90121: L2-Pf-HR :0.97513: L2-HR :0.93620: (Sim:2h14m33s) 
CPU  0 inst:  539000000 cyc:  283421512 now IPC :1.94344: AVG IPC :1.90128: L2-Pf-HR :0.97510: L2-HR :0.93620: (Sim:2h14m51s) 
CPU  0 inst:  540000005 cyc:  284068911 now IPC :1.54465: AVG IPC :1.90047: L2-Pf-HR :0.97510: L2-HR :0.93617: (Sim:2h15m10s) 
CPU  0 inst:  541000005 cyc:  284609959 now IPC :1.84826: AVG IPC :1.90037: L2-Pf-HR :0.97513: L2-HR :0.93620: (Sim:2h15m28s) 
CPU  0 inst:  542000005 cyc:  285192417 now IPC :1.71686: AVG IPC :1.89999: L2-Pf-HR :0.97520: L2-HR :0.93624: (Sim:2h15m47s) 
CPU  0 inst:  543000005 cyc:  285777151 now IPC :1.71018: AVG IPC :1.89960: L2-Pf-HR :0.97526: L2-HR :0.93628: (Sim:2h16m6s) 
CPU  0 inst:  544000002 cyc:  286347915 now IPC :1.75203: AVG IPC :1.89931: L2-Pf-HR :0.97533: L2-HR :0.93632: (Sim:2h16m24s) 
CPU  0 inst:  545000004 cyc:  286927570 now IPC :1.72517: AVG IPC :1.89895: L2-Pf-HR :0.97539: L2-HR :0.93636: (Sim:2h16m41s) 
CPU  0 inst:  546000003 cyc:  287537917 now IPC :1.63841: AVG IPC :1.89840: L2-Pf-HR :0.97543: L2-HR :0.93638: (Sim:2h16m59s) 
CPU  0 inst:  547000003 cyc:  288081866 now IPC :1.83841: AVG IPC :1.89829: L2-Pf-HR :0.97548: L2-HR :0.93641: (Sim:2h17m16s) 
CPU  0 inst:  548000003 cyc:  288645082 now IPC :1.77552: AVG IPC :1.89805: L2-Pf-HR :0.97554: L2-HR :0.93645: (Sim:2h17m34s) 
CPU  0 inst:  549000003 cyc:  289197313 now IPC :1.81084: AVG IPC :1.89788: L2-Pf-HR :0.97560: L2-HR :0.93649: (Sim:2h17m53s) 
CPU  0 inst:  550000002 cyc:  289764571 now IPC :1.76286: AVG IPC :1.89761: L2-Pf-HR :0.97567: L2-HR :0.93653: (Sim:2h18m11s) 
CPU  0 inst:  551000003 cyc:  290309149 now IPC :1.83629: AVG IPC :1.89750: L2-Pf-HR :0.97565: L2-HR :0.93653: (Sim:2h18m29s) 
CPU  0 inst:  552000004 cyc:  290881803 now IPC :1.74626: AVG IPC :1.89720: L2-Pf-HR :0.97569: L2-HR :0.93655: (Sim:2h18m47s) 
CPU  0 inst:  553000000 cyc:  291350106 now IPC :2.13536: AVG IPC :1.89758: L2-Pf-HR :0.97563: L2-HR :0.93647: (Sim:2h19m5s) 
CPU  0 inst:  554000002 cyc:  291844355 now IPC :2.02328: AVG IPC :1.89780: L2-Pf-HR :0.97557: L2-HR :0.93639: (Sim:2h19m22s) 
CPU  0 inst:  555000005 cyc:  292314843 now IPC :2.12546: AVG IPC :1.89816: L2-Pf-HR :0.97552: L2-HR :0.93633: (Sim:2h19m36s) 
CPU  0 inst:  556000000 cyc:  292937594 now IPC :1.60577: AVG IPC :1.89754: L2-Pf-HR :0.97548: L2-HR :0.93624: (Sim:2h19m54s) 
CPU  0 inst:  557000001 cyc:  293468995 now IPC :1.88182: AVG IPC :1.89751: L2-Pf-HR :0.97552: L2-HR :0.93625: (Sim:2h20m11s) 
CPU  0 inst:  558000005 cyc:  294050865 now IPC :1.71860: AVG IPC :1.89716: L2-Pf-HR :0.97553: L2-HR :0.93625: (Sim:2h20m22s) 
CPU  0 inst:  559000000 cyc:  294595836 now IPC :1.83495: AVG IPC :1.89704: L2-Pf-HR :0.97552: L2-HR :0.93625: (Sim:2h20m30s) 
CPU  0 inst:  560000004 cyc:  295135600 now IPC :1.85267: AVG IPC :1.89696: L2-Pf-HR :0.97550: L2-HR :0.93624: (Sim:2h20m39s) 
CPU  0 inst:  561000002 cyc:  295663402 now IPC :1.89465: AVG IPC :1.89696: L2-Pf-HR :0.97548: L2-HR :0.93623: (Sim:2h20m47s) 
CPU  0 inst:  562000002 cyc:  296243882 now IPC :1.72271: AVG IPC :1.89661: L2-Pf-HR :0.97547: L2-HR :0.93622: (Sim:2h20m56s) 
CPU  0 inst:  563000001 cyc:  296774743 now IPC :1.88373: AVG IPC :1.89659: L2-Pf-HR :0.97545: L2-HR :0.93621: (Sim:2h21m4s) 
CPU  0 inst:  564000002 cyc:  297360611 now IPC :1.70687: AVG IPC :1.89622: L2-Pf-HR :0.97550: L2-HR :0.93624: (Sim:2h21m13s) 
CPU  0 inst:  565000000 cyc:  297951364 now IPC :1.69275: AVG IPC :1.89581: L2-Pf-HR :0.97556: L2-HR :0.93627: (Sim:2h21m27s) 
CPU  0 inst:  566000000 cyc:  298528387 now IPC :1.73303: AVG IPC :1.89550: L2-Pf-HR :0.97555: L2-HR :0.93625: (Sim:2h21m45s) 
CPU  0 inst:  567000005 cyc:  299074206 now IPC :1.83212: AVG IPC :1.89538: L2-Pf-HR :0.97554: L2-HR :0.93624: (Sim:2h22m2s) 
CPU  0 inst:  568000005 cyc:  299654016 now IPC :1.72470: AVG IPC :1.89505: L2-Pf-HR :0.97554: L2-HR :0.93622: (Sim:2h22m21s) 
CPU  0 inst:  569000003 cyc:  300250778 now IPC :1.67571: AVG IPC :1.89461: L2-Pf-HR :0.97556: L2-HR :0.93620: (Sim:2h22m32s) 
CPU  0 inst:  570000003 cyc:  300808566 now IPC :1.79280: AVG IPC :1.89442: L2-Pf-HR :0.97562: L2-HR :0.93624: (Sim:2h22m49s) 
CPU  0 inst:  571000005 cyc:  301384982 now IPC :1.73486: AVG IPC :1.89411: L2-Pf-HR :0.97567: L2-HR :0.93628: (Sim:2h23m6s) 
CPU  0 inst:  572000002 cyc:  301946035 now IPC :1.78236: AVG IPC :1.89391: L2-Pf-HR :0.97566: L2-HR :0.93626: (Sim:2h23m24s) 
CPU  0 inst:  573000005 cyc:  302481923 now IPC :1.86607: AVG IPC :1.89386: L2-Pf-HR :0.97562: L2-HR :0.93625: (Sim:2h23m41s) 
CPU  0 inst:  574000002 cyc:  303057470 now IPC :1.73747: AVG IPC :1.89356: L2-Pf-HR :0.97562: L2-HR :0.93625: (Sim:2h23m59s) 
CPU  0 inst:  575000001 cyc:  303592402 now IPC :1.86939: AVG IPC :1.89352: L2-Pf-HR :0.97558: L2-HR :0.93624: (Sim:2h24m16s) 
CPU  0 inst:  576000001 cyc:  304149904 now IPC :1.79372: AVG IPC :1.89333: L2-Pf-HR :0.97562: L2-HR :0.93626: (Sim:2h24m34s) 
CPU  0 inst:  577000001 cyc:  304714422 now IPC :1.77142: AVG IPC :1.89311: L2-Pf-HR :0.97568: L2-HR :0.93630: (Sim:2h24m51s) 
CPU  0 inst:  578000003 cyc:  305272992 now IPC :1.79029: AVG IPC :1.89292: L2-Pf-HR :0.97570: L2-HR :0.93632: (Sim:2h25m9s) 
CPU  0 inst:  579000001 cyc:  305797490 now IPC :1.90658: AVG IPC :1.89294: L2-Pf-HR :0.97568: L2-HR :0.93631: (Sim:2h25m26s) 
CPU  0 inst:  580000005 cyc:  306359929 now IPC :1.77798: AVG IPC :1.89273: L2-Pf-HR :0.97566: L2-HR :0.93629: (Sim:2h25m44s) 
CPU  0 inst:  581000005 cyc:  306932328 now IPC :1.74703: AVG IPC :1.89246: L2-Pf-HR :0.97563: L2-HR :0.93627: (Sim:2h26m2s) 
CPU  0 inst:  582000005 cyc:  307458468 now IPC :1.90063: AVG IPC :1.89247: L2-Pf-HR :0.97563: L2-HR :0.93628: (Sim:2h26m20s) 
CPU  0 inst:  583000005 cyc:  307992939 now IPC :1.87101: AVG IPC :1.89243: L2-Pf-HR :0.97560: L2-HR :0.93627: (Sim:2h26m38s) 
CPU  0 inst:  584000001 cyc:  308523447 now IPC :1.88498: AVG IPC :1.89242: L2-Pf-HR :0.97556: L2-HR :0.93625: (Sim:2h26m55s) 
CPU  0 inst:  585000004 cyc:  309054788 now IPC :1.88204: AVG IPC :1.89240: L2-Pf-HR :0.97555: L2-HR :0.93625: (Sim:2h27m13s) 
CPU  0 inst:  586000003 cyc:  309639114 now IPC :1.71137: AVG IPC :1.89206: L2-Pf-HR :0.97555: L2-HR :0.93626: (Sim:2h27m31s) 
CPU  0 inst:  587000003 cyc:  310160730 now IPC :1.91712: AVG IPC :1.89210: L2-Pf-HR :0.97552: L2-HR :0.93625: (Sim:2h27m49s) 
CPU  0 inst:  588000003 cyc:  310704625 now IPC :1.83859: AVG IPC :1.89201: L2-Pf-HR :0.97555: L2-HR :0.93628: (Sim:2h28m6s) 
CPU  0 inst:  589000004 cyc:  311268800 now IPC :1.77250: AVG IPC :1.89179: L2-Pf-HR :0.97562: L2-HR :0.93632: (Sim:2h28m24s) 
CPU  0 inst:  590000003 cyc:  311808925 now IPC :1.85142: AVG IPC :1.89172: L2-Pf-HR :0.97568: L2-HR :0.93637: (Sim:2h28m42s) 
CPU  0 inst:  591000003 cyc:  312329649 now IPC :1.92040: AVG IPC :1.89177: L2-Pf-HR :0.97566: L2-HR :0.93636: (Sim:2h29m0s) 
CPU  0 inst:  592000004 cyc:  312919095 now IPC :1.69651: AVG IPC :1.89140: L2-Pf-HR :0.97565: L2-HR :0.93636: (Sim:2h29m18s) 
CPU  0 inst:  593000004 cyc:  313479084 now IPC :1.78575: AVG IPC :1.89121: L2-Pf-HR :0.97561: L2-HR :0.93634: (Sim:2h29m35s) 
CPU  0 inst:  594000004 cyc:  314005871 now IPC :1.89830: AVG IPC :1.89122: L2-Pf-HR :0.97561: L2-HR :0.93634: (Sim:2h29m53s) 
CPU  0 inst:  595000004 cyc:  314538839 now IPC :1.87629: AVG IPC :1.89120: L2-Pf-HR :0.97559: L2-HR :0.93633: (Sim:2h30m10s) 
CPU  0 inst:  596000000 cyc:  315069179 now IPC :1.88558: AVG IPC :1.89119: L2-Pf-HR :0.97556: L2-HR :0.93632: (Sim:2h30m28s) 
CPU  0 inst:  597000001 cyc:  315594988 now IPC :1.90183: AVG IPC :1.89121: L2-Pf-HR :0.97553: L2-HR :0.93632: (Sim:2h30m45s) 
CPU  0 inst:  598000002 cyc:  316177543 now IPC :1.71658: AVG IPC :1.89088: L2-Pf-HR :0.97552: L2-HR :0.93631: (Sim:2h30m55s) 
xz: 770-tot_memTraces_v5/120-subBillion_s2048_LLM_Arch/memTraces[1319000000]_FE_[Pythia-70M]_[h8]_[s2048]_[d64].champsim.9SSize.xz: Unexpected end of input
*** Reached end of trace for Core: 0 Repeating trace: 770-tot_memTraces_v5/120-subBillion_s2048_LLM_Arch/memTraces[1319000000]_FE_[Pythia-70M]_[h8]_[s2048]_[d64].champsim.9SSize.xz
CPU  0 inst:  599000005 cyc:  317003827 now IPC :1.21024: AVG IPC :1.88910: L2-Pf-HR :0.97551: L2-HR :0.93625: (Sim:2h31m5s) 
CPU  0 inst:  600000002 cyc:  317555874 now IPC :1.81143: AVG IPC :1.88897: L2-Pf-HR :0.97556: L2-HR :0.93628: (Sim:2h31m15s) 
CPU  0 inst:  601000004 cyc:  318121870 now IPC :1.76680: AVG IPC :1.88875: L2-Pf-HR :0.97559: L2-HR :0.93629: (Sim:2h31m27s) 
CPU  0 inst:  602000002 cyc:  318674704 now IPC :1.80886: AVG IPC :1.88861: L2-Pf-HR :0.97557: L2-HR :0.93628: (Sim:2h31m45s) 
CPU  0 inst:  603000003 cyc:  319228967 now IPC :1.80420: AVG IPC :1.88846: L2-Pf-HR :0.97555: L2-HR :0.93626: (Sim:2h32m3s) 
CPU  0 inst:  604000001 cyc:  319739190 now IPC :1.95992: AVG IPC :1.88858: L2-Pf-HR :0.97554: L2-HR :0.93626: (Sim:2h32m21s) 
CPU  0 inst:  605000005 cyc:  320329036 now IPC :1.69536: AVG IPC :1.88822: L2-Pf-HR :0.97553: L2-HR :0.93625: (Sim:2h32m40s) 
CPU  0 inst:  606000000 cyc:  320876818 now IPC :1.82553: AVG IPC :1.88811: L2-Pf-HR :0.97553: L2-HR :0.93625: (Sim:2h32m58s) 
CPU  0 inst:  607000001 cyc:  321443342 now IPC :1.76515: AVG IPC :1.88790: L2-Pf-HR :0.97558: L2-HR :0.93626: (Sim:2h33m16s) 
CPU  0 inst:  608000002 cyc:  322002836 now IPC :1.78733: AVG IPC :1.88772: L2-Pf-HR :0.97563: L2-HR :0.93628: (Sim:2h33m34s) 
CPU  0 inst:  609000003 cyc:  322545736 now IPC :1.84196: AVG IPC :1.88764: L2-Pf-HR :0.97561: L2-HR :0.93625: (Sim:2h33m52s) 
CPU  0 inst:  610000001 cyc:  323077800 now IPC :1.87947: AVG IPC :1.88763: L2-Pf-HR :0.97558: L2-HR :0.93622: (Sim:2h34m10s) 
CPU  0 inst:  611000005 cyc:  323740699 now IPC :1.50853: AVG IPC :1.88685: L2-Pf-HR :0.97557: L2-HR :0.93619: (Sim:2h34m29s) 
CPU  0 inst:  612000003 cyc:  324279226 now IPC :1.85691: AVG IPC :1.88680: L2-Pf-HR :0.97560: L2-HR :0.93619: (Sim:2h34m47s) 
CPU  0 inst:  613000003 cyc:  324844312 now IPC :1.76964: AVG IPC :1.88660: L2-Pf-HR :0.97566: L2-HR :0.93623: (Sim:2h35m4s) 
CPU  0 inst:  614000003 cyc:  325395430 now IPC :1.81449: AVG IPC :1.88647: L2-Pf-HR :0.97566: L2-HR :0.93623: (Sim:2h35m14s) 
CPU  0 inst:  615000001 cyc:  325928145 now IPC :1.87717: AVG IPC :1.88646: L2-Pf-HR :0.97562: L2-HR :0.93621: (Sim:2h35m29s) 
CPU  0 inst:  616000005 cyc:  326453742 now IPC :1.90261: AVG IPC :1.88649: L2-Pf-HR :0.97560: L2-HR :0.93620: (Sim:2h35m46s) 
CPU  0 inst:  617000003 cyc:  327034405 now IPC :1.72217: AVG IPC :1.88619: L2-Pf-HR :0.97559: L2-HR :0.93620: (Sim:2h36m4s) 
CPU  0 inst:  618000001 cyc:  327540000 now IPC :1.97786: AVG IPC :1.88633: L2-Pf-HR :0.97555: L2-HR :0.93620: (Sim:2h36m21s) 
CPU  0 inst:  619000001 cyc:  328085105 now IPC :1.83451: AVG IPC :1.88625: L2-Pf-HR :0.97560: L2-HR :0.93622: (Sim:2h36m30s) 
CPU  0 inst:  620000001 cyc:  328589771 now IPC :1.98151: AVG IPC :1.88640: L2-Pf-HR :0.97565: L2-HR :0.93626: (Sim:2h36m39s) 
[...]
CPU  0 inst: 1208000005 cyc:  637125590 now IPC :1.97070: AVG IPC :1.89579: L2-Pf-HR :0.97504: L2-HR :0.93618: (Sim:4h31m53s) 
CPU  0 inst: 1209000002 cyc:  637647074 now IPC :1.91760: AVG IPC :1.89581: L2-Pf-HR :0.97503: L2-HR :0.93616: (Sim:4h32m0s) 
CPU  0 inst: 1210000003 cyc:  638283234 now IPC :1.57193: AVG IPC :1.89549: L2-Pf-HR :0.97503: L2-HR :0.93615: (Sim:4h32m8s) 
CPU  0 inst: 1211000003 cyc:  638838091 now IPC :1.80227: AVG IPC :1.89541: L2-Pf-HR :0.97506: L2-HR :0.93616: (Sim:4h32m15s) 
CPU  0 inst: 1212000003 cyc:  639332645 now IPC :2.02202: AVG IPC :1.89551: L2-Pf-HR :0.97504: L2-HR :0.93616: (Sim:4h32m23s) 
CPU  0 inst: 1213000003 cyc:  639805213 now IPC :2.11610: AVG IPC :1.89567: L2-Pf-HR :0.97502: L2-HR :0.93615: (Sim:4h32m30s) 
CPU  0 inst: 1214000003 cyc:  640281433 now IPC :2.09987: AVG IPC :1.89582: L2-Pf-HR :0.97500: L2-HR :0.93614: (Sim:4h32m37s) 
CPU  0 inst: 1215000001 cyc:  640750418 now IPC :2.13226: AVG IPC :1.89600: L2-Pf-HR :0.97500: L2-HR :0.93615: (Sim:4h32m44s) 
CPU  0 inst: 1216000003 cyc:  641311483 now IPC :1.78233: AVG IPC :1.89590: L2-Pf-HR :0.97499: L2-HR :0.93614: (Sim:4h32m53s) 
CPU  0 inst: 1217000000 cyc:  641810623 now IPC :2.00344: AVG IPC :1.89598: L2-Pf-HR :0.97500: L2-HR :0.93615: (Sim:4h33m1s) 
CPU  0 inst: 1218000003 cyc:  642325901 now IPC :1.94071: AVG IPC :1.89602: L2-Pf-HR :0.97503: L2-HR :0.93617: (Sim:4h33m8s) 
CPU  0 inst: 1219000001 cyc:  642855696 now IPC :1.88752: AVG IPC :1.89601: L2-Pf-HR :0.97506: L2-HR :0.93619: (Sim:4h33m16s) 
CPU  0 inst: 1220000001 cyc:  643340451 now IPC :2.06290: AVG IPC :1.89613: L2-Pf-HR :0.97504: L2-HR :0.93618: (Sim:4h33m24s) 
CPU  0 inst: 1221000001 cyc:  643831423 now IPC :2.03678: AVG IPC :1.89624: L2-Pf-HR :0.97502: L2-HR :0.93618: (Sim:4h33m31s) 
CPU  0 inst: 1222000002 cyc:  644462316 now IPC :1.58506: AVG IPC :1.89594: L2-Pf-HR :0.97503: L2-HR :0.93618: (Sim:4h33m39s) 
CPU  0 inst: 1223000002 cyc:  644981007 now IPC :1.92793: AVG IPC :1.89596: L2-Pf-HR :0.97502: L2-HR :0.93617: (Sim:4h33m46s) 
CPU  0 inst: 1224000002 cyc:  645440483 now IPC :2.17639: AVG IPC :1.89616: L2-Pf-HR :0.97499: L2-HR :0.93617: (Sim:4h33m54s) 
CPU  0 inst: 1225000002 cyc:  645915269 now IPC :2.10621: AVG IPC :1.89632: L2-Pf-HR :0.97498: L2-HR :0.93616: (Sim:4h34m1s) 
CPU  0 inst: 1226000002 cyc:  646383373 now IPC :2.13628: AVG IPC :1.89649: L2-Pf-HR :0.97496: L2-HR :0.93616: (Sim:4h34m8s) 
CPU  0 inst: 1227000002 cyc:  646844148 now IPC :2.17026: AVG IPC :1.89669: L2-Pf-HR :0.97495: L2-HR :0.93616: (Sim:4h34m15s) 
CPU  0 inst: 1228000000 cyc:  647413253 now IPC :1.75714: AVG IPC :1.89656: L2-Pf-HR :0.97493: L2-HR :0.93614: (Sim:4h34m23s) 
CPU  0 inst: 1229000000 cyc:  647918014 now IPC :1.98114: AVG IPC :1.89663: L2-Pf-HR :0.97493: L2-HR :0.93616: (Sim:4h34m30s) 
CPU  0 inst: 1230000000 cyc:  648411060 now IPC :2.02821: AVG IPC :1.89673: L2-Pf-HR :0.97496: L2-HR :0.93618: (Sim:4h34m37s) 
CPU  0 inst: 1231000000 cyc:  648902796 now IPC :2.03361: AVG IPC :1.89683: L2-Pf-HR :0.97499: L2-HR :0.93620: (Sim:4h34m44s) 
CPU  0 inst: 1232000003 cyc:  649386220 now IPC :2.06858: AVG IPC :1.89696: L2-Pf-HR :0.97499: L2-HR :0.93620: (Sim:4h34m52s) 
CPU  0 inst: 1233000003 cyc:  649903573 now IPC :1.93292: AVG IPC :1.89699: L2-Pf-HR :0.97499: L2-HR :0.93620: (Sim:4h34m59s) 
CPU  0 inst: 1234000004 cyc:  650504798 now IPC :1.66327: AVG IPC :1.89677: L2-Pf-HR :0.97497: L2-HR :0.93619: (Sim:4h35m7s) 
CPU  0 inst: 1235000004 cyc:  650996433 now IPC :2.03403: AVG IPC :1.89688: L2-Pf-HR :0.97496: L2-HR :0.93619: (Sim:4h35m14s) 
CPU  0 inst: 1236000000 cyc:  651467862 now IPC :2.12120: AVG IPC :1.89704: L2-Pf-HR :0.97495: L2-HR :0.93618: (Sim:4h35m22s) 
CPU  0 inst: 1237000002 cyc:  651960982 now IPC :2.02791: AVG IPC :1.89714: L2-Pf-HR :0.97493: L2-HR :0.93618: (Sim:4h35m29s) 
CPU  0 inst: 1238000003 cyc:  652428012 now IPC :2.14119: AVG IPC :1.89731: L2-Pf-HR :0.97491: L2-HR :0.93618: (Sim:4h35m36s) 
CPU  0 inst: 1239000004 cyc:  652897440 now IPC :2.13025: AVG IPC :1.89748: L2-Pf-HR :0.97490: L2-HR :0.93618: (Sim:4h35m44s) 
CPU  0 inst: 1240000002 cyc:  653461318 now IPC :1.77343: AVG IPC :1.89737: L2-Pf-HR :0.97489: L2-HR :0.93617: (Sim:4h35m51s) 
CPU  0 inst: 1241000002 cyc:  653949174 now IPC :2.04979: AVG IPC :1.89749: L2-Pf-HR :0.97492: L2-HR :0.93619: (Sim:4h35m59s) 
CPU  0 inst: 1242000002 cyc:  654469780 now IPC :1.92084: AVG IPC :1.89751: L2-Pf-HR :0.97495: L2-HR :0.93622: (Sim:4h36m6s) 
CPU  0 inst: 1243000000 cyc:  654971556 now IPC :1.99292: AVG IPC :1.89758: L2-Pf-HR :0.97498: L2-HR :0.93623: (Sim:4h36m13s) 
CPU  0 inst: 1244000001 cyc:  655449312 now IPC :2.09312: AVG IPC :1.89772: L2-Pf-HR :0.97498: L2-HR :0.93624: (Sim:4h36m21s) 
CPU  0 inst: 1245000003 cyc:  655954322 now IPC :1.98016: AVG IPC :1.89779: L2-Pf-HR :0.97496: L2-HR :0.93624: (Sim:4h36m28s) 
CPU  0 inst: 1246000003 cyc:  656578754 now IPC :1.60146: AVG IPC :1.89750: L2-Pf-HR :0.97495: L2-HR :0.93622: (Sim:4h36m35s) 
CPU  0 inst: 1247000000 cyc:  657055682 now IPC :2.09675: AVG IPC :1.89765: L2-Pf-HR :0.97493: L2-HR :0.93622: (Sim:4h36m43s) 
CPU  0 inst: 1248000003 cyc:  657538736 now IPC :2.07017: AVG IPC :1.89778: L2-Pf-HR :0.97492: L2-HR :0.93621: (Sim:4h36m50s) 
CPU  0 inst: 1249000005 cyc:  658022402 now IPC :2.06755: AVG IPC :1.89790: L2-Pf-HR :0.97491: L2-HR :0.93621: (Sim:4h36m57s) 
CPU  0 inst: 1250000001 cyc:  658502233 now IPC :2.08406: AVG IPC :1.89804: L2-Pf-HR :0.97489: L2-HR :0.93621: (Sim:4h37m5s) 
CPU  0 inst: 1251000001 cyc:  658982099 now IPC :2.08391: AVG IPC :1.89817: L2-Pf-HR :0.97489: L2-HR :0.93621: (Sim:4h37m12s) 
CPU  0 inst: 1252000001 cyc:  659553655 now IPC :1.74961: AVG IPC :1.89804: L2-Pf-HR :0.97488: L2-HR :0.93620: (Sim:4h37m19s) 
CPU  0 inst: 1253000001 cyc:  660027697 now IPC :2.10952: AVG IPC :1.89820: L2-Pf-HR :0.97487: L2-HR :0.93621: (Sim:4h37m26s) 
CPU  0 inst: 1254000003 cyc:  660539785 now IPC :1.95279: AVG IPC :1.89824: L2-Pf-HR :0.97490: L2-HR :0.93623: (Sim:4h37m33s) 
CPU  0 inst: 1255000000 cyc:  661034310 now IPC :2.02214: AVG IPC :1.89833: L2-Pf-HR :0.97492: L2-HR :0.93624: (Sim:4h37m41s) 
CPU  0 inst: 1256000004 cyc:  661522272 now IPC :2.04935: AVG IPC :1.89844: L2-Pf-HR :0.97490: L2-HR :0.93624: (Sim:4h37m48s) 
CPU  0 inst: 1257000000 cyc:  662017685 now IPC :2.01851: AVG IPC :1.89853: L2-Pf-HR :0.97489: L2-HR :0.93624: (Sim:4h37m55s) 
CPU  0 inst: 1258000005 cyc:  662520716 now IPC :1.98796: AVG IPC :1.89860: L2-Pf-HR :0.97486: L2-HR :0.93620: (Sim:4h38m3s) 
CPU  0 inst: 1259000000 cyc:  662974104 now IPC :2.20561: AVG IPC :1.89881: L2-Pf-HR :0.97484: L2-HR :0.93617: (Sim:4h38m10s) 
CPU  0 inst: 1260000005 cyc:  663466500 now IPC :2.03090: AVG IPC :1.89891: L2-Pf-HR :0.97481: L2-HR :0.93614: (Sim:4h38m17s) 
CPU  0 inst: 1261000003 cyc:  663930564 now IPC :2.15487: AVG IPC :1.89909: L2-Pf-HR :0.97479: L2-HR :0.93611: (Sim:4h38m25s) 
CPU  0 inst: 1262000004 cyc:  664569957 now IPC :1.56398: AVG IPC :1.89877: L2-Pf-HR :0.97478: L2-HR :0.93609: (Sim:4h38m32s) 
CPU  0 inst: 1263000004 cyc:  665112811 now IPC :1.84212: AVG IPC :1.89872: L2-Pf-HR :0.97480: L2-HR :0.93609: (Sim:4h38m40s) 
CPU  0 inst: 1264000000 cyc:  665631089 now IPC :1.92946: AVG IPC :1.89874: L2-Pf-HR :0.97480: L2-HR :0.93609: (Sim:4h38m48s) 
CPU  0 inst: 1265000003 cyc:  666135244 now IPC :1.98352: AVG IPC :1.89881: L2-Pf-HR :0.97478: L2-HR :0.93609: (Sim:4h38m55s) 
CPU  0 inst: 1266000001 cyc:  666643388 now IPC :1.96794: AVG IPC :1.89886: L2-Pf-HR :0.97477: L2-HR :0.93608: (Sim:4h39m2s) 
CPU  0 inst: 1267000004 cyc:  667138195 now IPC :2.02100: AVG IPC :1.89895: L2-Pf-HR :0.97476: L2-HR :0.93608: (Sim:4h39m10s) 
CPU  0 inst: 1268000000 cyc:  667729326 now IPC :1.69167: AVG IPC :1.89877: L2-Pf-HR :0.97475: L2-HR :0.93607: (Sim:4h39m17s) 
CPU  0 inst: 1269000004 cyc:  668268205 now IPC :1.85571: AVG IPC :1.89873: L2-Pf-HR :0.97476: L2-HR :0.93607: (Sim:4h39m25s) 
CPU  0 inst: 1270000002 cyc:  668788456 now IPC :1.92215: AVG IPC :1.89875: L2-Pf-HR :0.97479: L2-HR :0.93609: (Sim:4h39m32s) 
CPU  0 inst: 1271000003 cyc:  669319434 now IPC :1.88332: AVG IPC :1.89874: L2-Pf-HR :0.97479: L2-HR :0.93608: (Sim:4h39m40s) 
CPU  0 inst: 1272000002 cyc:  669824790 now IPC :1.97880: AVG IPC :1.89880: L2-Pf-HR :0.97477: L2-HR :0.93607: (Sim:4h39m47s) 
CPU  0 inst: 1273000002 cyc:  670316679 now IPC :2.03298: AVG IPC :1.89890: L2-Pf-HR :0.97477: L2-HR :0.93607: (Sim:4h39m54s) 
CPU  0 inst: 1274000004 cyc:  670970999 now IPC :1.52831: AVG IPC :1.89854: L2-Pf-HR :0.97478: L2-HR :0.93605: (Sim:4h40m2s) 
CPU  0 inst: 1275000000 cyc:  671513929 now IPC :1.84185: AVG IPC :1.89849: L2-Pf-HR :0.97480: L2-HR :0.93607: (Sim:4h40m10s) 
CPU  0 inst: 1276000000 cyc:  671986756 now IPC :2.11494: AVG IPC :1.89864: L2-Pf-HR :0.97478: L2-HR :0.93606: (Sim:4h40m17s) 
CPU  0 inst: 1277000000 cyc:  672465198 now IPC :2.09012: AVG IPC :1.89878: L2-Pf-HR :0.97476: L2-HR :0.93605: (Sim:4h40m24s) 
CPU  0 inst: 1278000002 cyc:  672941030 now IPC :2.10159: AVG IPC :1.89892: L2-Pf-HR :0.97475: L2-HR :0.93605: (Sim:4h40m31s) 
CPU  0 inst: 1279000002 cyc:  673414137 now IPC :2.11369: AVG IPC :1.89907: L2-Pf-HR :0.97474: L2-HR :0.93604: (Sim:4h40m38s) 
CPU  0 inst: 1280000002 cyc:  673982738 now IPC :1.75870: AVG IPC :1.89895: L2-Pf-HR :0.97473: L2-HR :0.93604: (Sim:4h40m45s) 
CPU  0 inst: 1281000002 cyc:  674455909 now IPC :2.11340: AVG IPC :1.89911: L2-Pf-HR :0.97472: L2-HR :0.93604: (Sim:4h40m53s) 
CPU  0 inst: 1282000002 cyc:  674972378 now IPC :1.93622: AVG IPC :1.89913: L2-Pf-HR :0.97475: L2-HR :0.93606: (Sim:4h41m0s) 
CPU  0 inst: 1283000002 cyc:  675497657 now IPC :1.90375: AVG IPC :1.89914: L2-Pf-HR :0.97478: L2-HR :0.93607: (Sim:4h41m8s) 
CPU  0 inst: 1284000002 cyc:  676015313 now IPC :1.93178: AVG IPC :1.89916: L2-Pf-HR :0.97478: L2-HR :0.93608: (Sim:4h41m15s) 
CPU  0 inst: 1285000002 cyc:  676493932 now IPC :2.08934: AVG IPC :1.89930: L2-Pf-HR :0.97477: L2-HR :0.93608: (Sim:4h41m23s) 
CPU  0 inst: 1286000000 cyc:  677136668 now IPC :1.55585: AVG IPC :1.89897: L2-Pf-HR :0.97476: L2-HR :0.93606: (Sim:4h41m30s) 
CPU  0 inst: 1287000003 cyc:  677612441 now IPC :2.10185: AVG IPC :1.89911: L2-Pf-HR :0.97474: L2-HR :0.93606: (Sim:4h41m38s) 
CPU  0 inst: 1288000003 cyc:  678092433 now IPC :2.08337: AVG IPC :1.89924: L2-Pf-HR :0.97472: L2-HR :0.93605: (Sim:4h41m45s) 
CPU  0 inst: 1289000004 cyc:  678560497 now IPC :2.13646: AVG IPC :1.89941: L2-Pf-HR :0.97471: L2-HR :0.93605: (Sim:4h41m52s) 
CPU  0 inst: 1290000000 cyc:  679027277 now IPC :2.14233: AVG IPC :1.89957: L2-Pf-HR :0.97469: L2-HR :0.93605: (Sim:4h41m59s) 
CPU  0 inst: 1291000001 cyc:  679494113 now IPC :2.14208: AVG IPC :1.89974: L2-Pf-HR :0.97467: L2-HR :0.93604: (Sim:4h42m7s) 
CPU  0 inst: 1292000001 cyc:  680063065 now IPC :1.75762: AVG IPC :1.89962: L2-Pf-HR :0.97466: L2-HR :0.93604: (Sim:4h42m14s) 
CPU  0 inst: 1293000004 cyc:  680539387 now IPC :2.09943: AVG IPC :1.89976: L2-Pf-HR :0.97468: L2-HR :0.93605: (Sim:4h42m21s) 
CPU  0 inst: 1294000002 cyc:  681068961 now IPC :1.88831: AVG IPC :1.89975: L2-Pf-HR :0.97471: L2-HR :0.93607: (Sim:4h42m28s) 
CPU  0 inst: 1295000004 cyc:  681580978 now IPC :1.95306: AVG IPC :1.89979: L2-Pf-HR :0.97473: L2-HR :0.93609: (Sim:4h42m35s) 
CPU  0 inst: 1296000004 cyc:  682064185 now IPC :2.06951: AVG IPC :1.89991: L2-Pf-HR :0.97474: L2-HR :0.93610: (Sim:4h42m43s) 
CPU  0 inst: 1297000002 cyc:  682538229 now IPC :2.10950: AVG IPC :1.90006: L2-Pf-HR :0.97472: L2-HR :0.93609: (Sim:4h42m50s) 
CPU  0 inst: 1298000005 cyc:  683172157 now IPC :1.57747: AVG IPC :1.89976: L2-Pf-HR :0.97472: L2-HR :0.93609: (Sim:4h42m57s) 
CPU  0 inst: 1299000005 cyc:  683663025 now IPC :2.03721: AVG IPC :1.89986: L2-Pf-HR :0.97471: L2-HR :0.93608: (Sim:4h43m4s) 
CPU  0 inst: 1300000005 cyc:  684141503 now IPC :2.08996: AVG IPC :1.89999: L2-Pf-HR :0.97469: L2-HR :0.93608: (Sim:4h43m11s) 
CPU  0 inst: 1301000005 cyc:  684617416 now IPC :2.10122: AVG IPC :1.90013: L2-Pf-HR :0.97469: L2-HR :0.93608: (Sim:4h43m18s) 
CPU  0 inst: 1302000003 cyc:  685092853 now IPC :2.10332: AVG IPC :1.90027: L2-Pf-HR :0.97467: L2-HR :0.93607: (Sim:4h43m25s) 
CPU  0 inst: 1303000003 cyc:  685573327 now IPC :2.08128: AVG IPC :1.90040: L2-Pf-HR :0.97467: L2-HR :0.93608: (Sim:4h43m32s) 
CPU  0 inst: 1304000003 cyc:  686151703 now IPC :1.72898: AVG IPC :1.90026: L2-Pf-HR :0.97467: L2-HR :0.93608: (Sim:4h43m39s) 
CPU  0 inst: 1305000004 cyc:  686639418 now IPC :2.05038: AVG IPC :1.90036: L2-Pf-HR :0.97468: L2-HR :0.93609: (Sim:4h43m46s) 
CPU  0 inst: 1306000003 cyc:  687148027 now IPC :1.96614: AVG IPC :1.90041: L2-Pf-HR :0.97471: L2-HR :0.93611: (Sim:4h43m53s) 
CPU  0 inst: 1307000003 cyc:  687648453 now IPC :1.99830: AVG IPC :1.90048: L2-Pf-HR :0.97474: L2-HR :0.93613: (Sim:4h44m0s) 
CPU  0 inst: 1308000003 cyc:  688153034 now IPC :1.98184: AVG IPC :1.90054: L2-Pf-HR :0.97474: L2-HR :0.93614: (Sim:4h44m8s) 
CPU  0 inst: 1309000001 cyc:  688626224 now IPC :2.11331: AVG IPC :1.90069: L2-Pf-HR :0.97472: L2-HR :0.93613: (Sim:4h44m14s) 
CPU  0 inst: 1310000001 cyc:  689276767 now IPC :1.53718: AVG IPC :1.90035: L2-Pf-HR :0.97473: L2-HR :0.93613: (Sim:4h44m22s) 
CPU  0 inst: 1311000001 cyc:  689813666 now IPC :1.86255: AVG IPC :1.90032: L2-Pf-HR :0.97474: L2-HR :0.93613: (Sim:4h44m29s) 
CPU  0 inst: 1312000001 cyc:  690296315 now IPC :2.07190: AVG IPC :1.90044: L2-Pf-HR :0.97472: L2-HR :0.93613: (Sim:4h44m36s) 
CPU  0 inst: 1313000001 cyc:  690773881 now IPC :2.09395: AVG IPC :1.90057: L2-Pf-HR :0.97471: L2-HR :0.93612: (Sim:4h44m43s) 
CPU  0 inst: 1314000005 cyc:  691240108 now IPC :2.14489: AVG IPC :1.90073: L2-Pf-HR :0.97469: L2-HR :0.93612: (Sim:4h44m50s) 
CPU  0 inst: 1315000005 cyc:  691709281 now IPC :2.13141: AVG IPC :1.90089: L2-Pf-HR :0.97468: L2-HR :0.93612: (Sim:4h44m57s) 
CPU  0 inst: 1316000001 cyc:  692280299 now IPC :1.75125: AVG IPC :1.90077: L2-Pf-HR :0.97467: L2-HR :0.93611: (Sim:4h45m4s) 
Finished CPU 0 instr: 1314000002 cyc: 691299504 AVG IPC: 1.90077 (Sim time: 4h45m4s)

ChampSim completed all CPUs

[ROI Statistics]
Core_0_instructions 1314000002
Core_0_cycles 691299504
Core_0_IPC 1.90077

Core_0_branch_prediction_accuracy 99.93053
Core_0_branch_MPKI 0.00971
Core_0_average_ROB_occupancy_at_mispredict 552.13043

Core_0_L1D_total_access 304691220
Core_0_L1D_total_hit 280611558 L1D_total_Hit Ratio: 0.92097
Core_0_L1D_total_miss 24079662
Core_0_L1D_loads 292815197
Core_0_L1D_load_hit 268743002 L1D_load_Hit Ratio: 0.91779
Core_0_L1D_load_miss 24072195
Core_0_L1D_RFOs 11876023
Core_0_L1D_RFO_hit 11868556 L1D_RFO_Hit Ratio: 0.99937
Core_0_L1D_RFO_miss 7467
Core_0_L1D_prefetches 0
Core_0_L1D_prefetch_hit 0 L1D_prefetch_Hit Ratio: -nan
Core_0_L1D_prefetch_miss 0
Core_0_L1D_writebacks 0
Core_0_L1D_writeback_hit 0 L1D_writeback_Hit Ratio: -nan
Core_0_L1D_writeback_miss 0
Core_0_L1D_prefetch_requested 0
Core_0_L1D_prefetch_issued 0
Core_0_L1D_prefetch_useful 0 L1D_Useful Ratio: -nan
Core_0_L1D_prefetch_useless 0
Core_0_L1D_prefetch_late 0
Core_0_L1D_average_miss_latency 38.98107

Core_0_L1I_total_access 144483083
Core_0_L1I_total_hit 144480606 L1I_total_Hit Ratio: 0.99998
Core_0_L1I_total_miss 2477
Core_0_L1I_loads 144483083
Core_0_L1I_load_hit 144480606 L1I_load_Hit Ratio: 0.99998
Core_0_L1I_load_miss 2477
Core_0_L1I_RFOs 0
Core_0_L1I_RFO_hit 0 L1I_RFO_Hit Ratio: -nan
Core_0_L1I_RFO_miss 0
Core_0_L1I_prefetches 0
Core_0_L1I_prefetch_hit 0 L1I_prefetch_Hit Ratio: -nan
Core_0_L1I_prefetch_miss 0
Core_0_L1I_writebacks 0
Core_0_L1I_writeback_hit 0 L1I_writeback_Hit Ratio: -nan
Core_0_L1I_writeback_miss 0
Core_0_L1I_prefetch_requested 0
Core_0_L1I_prefetch_issued 0
Core_0_L1I_prefetch_useful 0 L1I_Useful Ratio: -nan
Core_0_L1I_prefetch_useless 0
Core_0_L1I_prefetch_late 0
Core_0_L1I_average_miss_latency 325.39645

Core_0_L2C_total_access 94683244
Core_0_L2C_total_hit 88634220 L2C_total_Hit Ratio: 0.93611
Core_0_L2C_total_miss 6049024
Core_0_L2C_loads 24074664
Core_0_L2C_load_hit 19623732 L2C_load_Hit Ratio: 0.81512
Core_0_L2C_load_miss 4450932
Core_0_L2C_RFOs 7467
Core_0_L2C_RFO_hit 6720 L2C_RFO_Hit Ratio: 0.89996
Core_0_L2C_RFO_miss 747
Core_0_L2C_prefetches 63057082
Core_0_L2C_prefetch_hit 61459737 L2C_prefetch_Hit Ratio: 0.97467
Core_0_L2C_prefetch_miss 1597345
Core_0_L2C_writebacks 7544031
Core_0_L2C_writeback_hit 7544031 L2C_writeback_Hit Ratio: 1.00000
Core_0_L2C_writeback_miss 0
Core_0_L2C_prefetch_requested 108508370
Core_0_L2C_prefetch_issued 100429111
Core_0_L2C_prefetch_useful 1593606 L2C_Useful Ratio: 0.01587
Core_0_L2C_prefetch_useless 5472
Core_0_L2C_prefetch_late 24744
Core_0_L2C_average_miss_latency 117.95533

Core_0_LLC_total_access 19613731
Core_0_LLC_total_hit 13773875 LLC_total_Hit Ratio: 0.70226
Core_0_LLC_total_miss 5839856
Core_0_LLC_loads 4426232
Core_0_LLC_load_hit 3249490 LLC_load_Hit Ratio: 0.73414
Core_0_LLC_load_miss 1176742
Core_0_LLC_RFOs 747
Core_0_LLC_RFO_hit 205 LLC_RFO_Hit Ratio: 0.27443
Core_0_LLC_RFO_miss 542
Core_0_LLC_prefetches 9739419
Core_0_LLC_prefetch_hit 5158459 LLC_prefetch_Hit Ratio: 0.52965
Core_0_LLC_prefetch_miss 4580960
Core_0_LLC_writebacks 5447333
Core_0_LLC_writeback_hit 5365721 LLC_writeback_Hit Ratio: 0.98502
Core_0_LLC_writeback_miss 81612
Core_0_LLC_prefetch_requested 0
Core_0_LLC_prefetch_issued 0
Core_0_LLC_prefetch_useful 3038042 LLC_Useful Ratio: inf
Core_0_LLC_prefetch_useless 1516926
Core_0_LLC_prefetch_late 102146
Core_0_LLC_average_miss_latency 291.66716

Core_0_major_page_fault 0
Core_0_minor_page_fault 21513

 All Calls: 24115620
 Critical Calls: 24115620
------------------
Depth Distribution
------------------
depth 0: 0
depth 1: 21183483
depth 2: 19740385
depth 3: 16016227
depth 4: 12126480
depth 5: 7557567
depth 6: 5709442
depth 7: 4845872
depth 8: 4105068
depth 9: 3249997
depth 10: 2511232
depth 11: 1783019
depth 12: 1041136
depth 13: 513797
depth 14: 23323
depth 15: 21662
depth 16: 307
depth 17: 49
depth 18: 36
depth 19: 29
depth 20: 0
depth 21: 0
depth 22: 0
depth 23: 0
depth 24: 0
depth 25: 0
depth 26: 0
depth 27: 0
depth 28: 0
depth 29: 0
Total: 100429111
-----------------------------
-----------------------------
	Captured at Filter
-----------------------------
depth 0: 0
depth 1: 2139654
depth 2: 1954096
depth 3: 1872724
depth 4: 1582820
depth 5: 1154642
depth 6: 951251
depth 7: 833123
depth 8: 718401
depth 9: 580758
depth 10: 452851
depth 11: 322232
depth 12: 187200
depth 13: 91350
depth 14: 3770
depth 15: 3703
depth 16: 87
depth 17: 10
depth 18: 15
depth 19: 5
depth 20: 0
depth 21: 0
depth 22: 0
depth 23: 0
depth 24: 0
depth 25: 0
depth 26: 0
depth 27: 0
depth 28: 0
depth 29: 0
-----------------------------
-----------------------------
		Lost at Page
-----------------------------
depth 0: 0
depth 1: 413795
depth 2: 1516593
depth 3: 1219777
depth 4: 1222750
depth 5: 962947
depth 6: 793065
depth 7: 761021
depth 8: 749319
depth 9: 681362
depth 10: 599383
depth 11: 479008
depth 12: 311610
depth 13: 169472
depth 14: 8377
depth 15: 8808
depth 16: 159
depth 17: 28
depth 18: 30
depth 19: 32
depth 20: 2
depth 21: 2
depth 22: 2
depth 23: 0
depth 24: 0
depth 25: 0
depth 26: 0
depth 27: 0
depth 28: 0
depth 29: 0
-----------------------------
-----------------------------
	Lost due to PQ Size
-----------------------------
8079259
-----------------------------
ST read accesses: 20342381
ST write accesses: 3732283
PT read accesses: 758104975
PT write accesses: 25988465
FILTER read accesses: 151268496
FILTER write accesses: 29759066
GHR read accesses: 84920716
GHR write accesses: 9882180
GHR counter read accesses: 659406244
GHR counter write accesses: 48497536
ST tag read accesses: 11174657327
ST tag write accesses: 1017312975
Channel_0_RQ_row_buffer_hit 2907043
Channel_0_RQ_row_buffer_miss 2851200
Channel_0_WQ_row_buffer_hit 1469781
Channel_0_WQ_row_buffer_miss 3869028
Channel_0_WQ_full 1818
Channel_0_dbus_congested 3891702

avg_congested_cycle 8

EzSearch AVG IPC :1.90077: L2-Pf-HR :0.97467 : L2-HR :0.93611 Uful:0.01587
     > Finished combination: TraceType=770-tot Sim:1314000000 Prefetcher=L2spp_berti_src L1=no
