TRACE: [42000000]_FE_[OPT-350M]_[h16]_[s256]_[d64] Warmup: 2000000 NumTraces: 42000000
L1:ipcp:L2:ipcp
*************************************************
   ChampSim Multicore Out-of-Order Simulator
   Last compiled: Oct 31 2024 01:19:15
*************************************************

trace_0 770-tot_memTraces_v5/150-subBillion_s256_LLM_Arch/memTraces[42000000]_FE_[OPT-350M]_[h16]_[s256]_[d64].champsim.9.xz
MAIN.cc ln 751 stats print skipped
CPU  0 inst:    1000002 cyc:     499949 now IPC :2.00021: AVG IPC :2.00021: L2-Pf-HR :0.83530: L2-HR :0.73332: (Sim:0h0m19s) 
CPU  0 inst:    2000000 cyc:     987996 now IPC :2.04898: AVG IPC :2.02430: L2-Pf-HR :0.88973: L2-HR :0.78821: (Sim:0h0m31s) 

Warmup complete CPU  0 instructions:    2000002 cycles:     987997 (Simulation time: 0 hr 0 min 31 sec) 

CPU  0 inst:    3000003 cyc:    1593883 now IPC :1.65048: AVG IPC :1.65048: L2-Pf-HR :0.92212: L2-HR :0.80942: (Sim:0h0m40s) 
CPU  0 inst:    4000003 cyc:    2194470 now IPC :1.66504: AVG IPC :1.65773: L2-Pf-HR :0.92482: L2-HR :0.80982: (Sim:0h0m49s) 
CPU  0 inst:    5000005 cyc:    2798617 now IPC :1.65523: AVG IPC :1.65689: L2-Pf-HR :0.92667: L2-HR :0.80989: (Sim:0h0m59s) 
CPU  0 inst:    6000000 cyc:    3409322 now IPC :1.63744: AVG IPC :1.65199: L2-Pf-HR :0.92621: L2-HR :0.81032: (Sim:0h1m7s) 
CPU  0 inst:    7000005 cyc:    4013464 now IPC :1.65525: AVG IPC :1.65264: L2-Pf-HR :0.92581: L2-HR :0.81035: (Sim:0h1m16s) 
CPU  0 inst:    8000003 cyc:    4619089 now IPC :1.65118: AVG IPC :1.65240: L2-Pf-HR :0.92634: L2-HR :0.81012: (Sim:0h1m25s) 
CPU  0 inst:    9000005 cyc:    5224694 now IPC :1.65124: AVG IPC :1.65223: L2-Pf-HR :0.92687: L2-HR :0.81049: (Sim:0h1m34s) 
CPU  0 inst:   10000005 cyc:    5827430 now IPC :1.65910: AVG IPC :1.65309: L2-Pf-HR :0.92674: L2-HR :0.81063: (Sim:0h1m43s) 
CPU  0 inst:   11000002 cyc:    6433614 now IPC :1.64966: AVG IPC :1.65271: L2-Pf-HR :0.92760: L2-HR :0.81062: (Sim:0h1m52s) 
CPU  0 inst:   12000001 cyc:    7032475 now IPC :1.66983: AVG IPC :1.65440: L2-Pf-HR :0.92716: L2-HR :0.81031: (Sim:0h2m1s) 
CPU  0 inst:   13000005 cyc:    7631926 now IPC :1.66820: AVG IPC :1.65565: L2-Pf-HR :0.92677: L2-HR :0.81037: (Sim:0h2m10s) 
CPU  0 inst:   14000001 cyc:    8237777 now IPC :1.65056: AVG IPC :1.65522: L2-Pf-HR :0.92676: L2-HR :0.81040: (Sim:0h2m23s) 
CPU  0 inst:   15000000 cyc:    8841111 now IPC :1.65746: AVG IPC :1.65539: L2-Pf-HR :0.92605: L2-HR :0.80997: (Sim:0h2m42s) 
CPU  0 inst:   16000002 cyc:    9440633 now IPC :1.66800: AVG IPC :1.65629: L2-Pf-HR :0.92655: L2-HR :0.81027: (Sim:0h3m0s) 
CPU  0 inst:   17000002 cyc:   10070116 now IPC :1.58861: AVG IPC :1.65160: L2-Pf-HR :0.92575: L2-HR :0.80920: (Sim:0h3m18s) 
CPU  0 inst:   18000000 cyc:   11562793 now IPC :0.66994: AVG IPC :1.51303: L2-Pf-HR :0.84466: L2-HR :0.74579: (Sim:0h3m40s) 
CPU  0 inst:   19000000 cyc:   14529326 now IPC :0.33709: AVG IPC :1.25542: L2-Pf-HR :0.82261: L2-HR :0.73837: (Sim:0h4m7s) 
CPU  0 inst:   20000000 cyc:   17495867 now IPC :0.33709: AVG IPC :1.09039: L2-Pf-HR :0.79919: L2-HR :0.72949: (Sim:0h4m34s) 
CPU  0 inst:   21000000 cyc:   20462548 now IPC :0.33708: AVG IPC :0.97563: L2-Pf-HR :0.77793: L2-HR :0.72105: (Sim:0h5m0s) 
CPU  0 inst:   22000000 cyc:   23430757 now IPC :0.33690: AVG IPC :0.89116: L2-Pf-HR :0.75887: L2-HR :0.71317: (Sim:0h5m27s) 
CPU  0 inst:   23000000 cyc:   26399229 now IPC :0.33687: AVG IPC :0.82641: L2-Pf-HR :0.74192: L2-HR :0.70596: (Sim:0h5m53s) 
CPU  0 inst:   24000000 cyc:   29368520 now IPC :0.33678: AVG IPC :0.77518: L2-Pf-HR :0.72666: L2-HR :0.69927: (Sim:0h6m20s) 
CPU  0 inst:   25000000 cyc:   32343642 now IPC :0.33612: AVG IPC :0.73352: L2-Pf-HR :0.71137: L2-HR :0.69224: (Sim:0h6m47s) 
CPU  0 inst:   26000002 cyc:   35050863 now IPC :0.36938: AVG IPC :0.70458: L2-Pf-HR :0.69909: L2-HR :0.68618: (Sim:0h7m11s) 
CPU  0 inst:   27000000 cyc:   35644076 now IPC :1.68573: AVG IPC :0.72137: L2-Pf-HR :0.70415: L2-HR :0.68919: (Sim:0h7m21s) 
CPU  0 inst:   28000004 cyc:   36197707 now IPC :1.80626: AVG IPC :0.73843: L2-Pf-HR :0.70991: L2-HR :0.69278: (Sim:0h7m31s) 
CPU  0 inst:   29000004 cyc:   36743768 now IPC :1.83130: AVG IPC :0.75512: L2-Pf-HR :0.71549: L2-HR :0.69639: (Sim:0h7m40s) 
CPU  0 inst:   30000003 cyc:   37290021 now IPC :1.83065: AVG IPC :0.77131: L2-Pf-HR :0.72183: L2-HR :0.70070: (Sim:0h7m51s) 
CPU  0 inst:   31000003 cyc:   37864413 now IPC :1.74097: AVG IPC :0.78641: L2-Pf-HR :0.72566: L2-HR :0.70337: (Sim:0h8m12s) 
CPU  0 inst:   32000003 cyc:   38410781 now IPC :1.83027: AVG IPC :0.80165: L2-Pf-HR :0.72952: L2-HR :0.70623: (Sim:0h8m28s) 
CPU  0 inst:   33000002 cyc:   38950054 now IPC :1.85435: AVG IPC :0.81660: L2-Pf-HR :0.73315: L2-HR :0.70893: (Sim:0h8m42s) 
CPU  0 inst:   34000001 cyc:   39493281 now IPC :1.84085: AVG IPC :0.83105: L2-Pf-HR :0.73637: L2-HR :0.71139: (Sim:0h9m3s) 
CPU  0 inst:   35000005 cyc:   40036001 now IPC :1.84258: AVG IPC :0.84511: L2-Pf-HR :0.73988: L2-HR :0.71412: (Sim:0h9m23s) 
CPU  0 inst:   36000000 cyc:   40562123 now IPC :1.90069: AVG IPC :0.85915: L2-Pf-HR :0.74302: L2-HR :0.71665: (Sim:0h9m36s) 
CPU  0 inst:   37000000 cyc:   41119443 now IPC :1.79430: AVG IPC :0.87213: L2-Pf-HR :0.74580: L2-HR :0.71898: (Sim:0h9m46s) 
CPU  0 inst:   38000001 cyc:   41650479 now IPC :1.88311: AVG IPC :0.88534: L2-Pf-HR :0.74843: L2-HR :0.72125: (Sim:0h9m56s) 
CPU  0 inst:   39000004 cyc:   42188371 now IPC :1.85911: AVG IPC :0.89805: L2-Pf-HR :0.75082: L2-HR :0.72336: (Sim:0h10m5s) 
Finished CPU 0 instr: 37000002 cyc: 41200374 AVG IPC: 0.89805 (Sim time: 0h10m5s)

ChampSim completed all CPUs

[ROI Statistics]
Core_0_instructions 37000002
Core_0_cycles 41200374
Core_0_IPC 0.89805

Core_0_branch_prediction_accuracy 98.43855
Core_0_branch_MPKI 0.50535
Core_0_average_ROB_occupancy_at_mispredict 336.33560

Core_0_L1D_total_access 19134154
Core_0_L1D_total_hit 18588630 L1D_total_Hit Ratio: 0.97149
Core_0_L1D_total_miss 545524
Core_0_L1D_loads 10626685
Core_0_L1D_load_hit 10401847 L1D_load_Hit Ratio: 0.97884
Core_0_L1D_load_miss 224838
Core_0_L1D_RFOs 1161372
Core_0_L1D_RFO_hit 1119772 L1D_RFO_Hit Ratio: 0.96418
Core_0_L1D_RFO_miss 41600
Core_0_L1D_prefetches 7346097
Core_0_L1D_prefetch_hit 7067011 L1D_prefetch_Hit Ratio: 0.96201
Core_0_L1D_prefetch_miss 279086
Core_0_L1D_writebacks 0
Core_0_L1D_writeback_hit 0 L1D_writeback_Hit Ratio: -nan
Core_0_L1D_writeback_miss 0
Core_0_L1D_prefetch_requested 21130477
Core_0_L1D_prefetch_issued 10688631
Core_0_L1D_prefetch_useful 281503 L1D_Useful Ratio: 0.02634
Core_0_L1D_prefetch_useless 6919
Core_0_L1D_prefetch_late 33215
Core_0_L1D_average_miss_latency 801306.64828

Core_0_L1I_total_access 5433061
Core_0_L1I_total_hit 5431188 L1I_total_Hit Ratio: 0.99966
Core_0_L1I_total_miss 1873
Core_0_L1I_loads 5433061
Core_0_L1I_load_hit 5431188 L1I_load_Hit Ratio: 0.99966
Core_0_L1I_load_miss 1873
Core_0_L1I_RFOs 0
Core_0_L1I_RFO_hit 0 L1I_RFO_Hit Ratio: -nan
Core_0_L1I_RFO_miss 0
Core_0_L1I_prefetches 0
Core_0_L1I_prefetch_hit 0 L1I_prefetch_Hit Ratio: -nan
Core_0_L1I_prefetch_miss 0
Core_0_L1I_writebacks 0
Core_0_L1I_writeback_hit 0 L1I_writeback_Hit Ratio: -nan
Core_0_L1I_writeback_miss 0
Core_0_L1I_prefetch_requested 0
Core_0_L1I_prefetch_issued 0
Core_0_L1I_prefetch_useful 0 L1I_Useful Ratio: -nan
Core_0_L1I_prefetch_useless 0
Core_0_L1I_prefetch_late 0
Core_0_L1I_average_miss_latency 197.09076

Core_0_L2C_total_access 1296139
Core_0_L2C_total_hit 937571 L2C_total_Hit Ratio: 0.72336
Core_0_L2C_total_miss 358568
Core_0_L2C_loads 193559
Core_0_L2C_load_hit 70065 L2C_load_Hit Ratio: 0.36198
Core_0_L2C_load_miss 123494
Core_0_L2C_RFOs 41597
Core_0_L2C_RFO_hit 11573 L2C_RFO_Hit Ratio: 0.27822
Core_0_L2C_RFO_miss 30024
Core_0_L2C_prefetches 822890
Core_0_L2C_prefetch_hit 617845 L2C_prefetch_Hit Ratio: 0.75082
Core_0_L2C_prefetch_miss 205045
Core_0_L2C_writebacks 238093
Core_0_L2C_writeback_hit 238088 L2C_writeback_Hit Ratio: 0.99998
Core_0_L2C_writeback_miss 5
Core_0_L2C_prefetch_requested 1195082
Core_0_L2C_prefetch_issued 1174776
Core_0_L2C_prefetch_useful 29956 L2C_Useful Ratio: 0.02550
Core_0_L2C_prefetch_useless 130154
Core_0_L2C_prefetch_late 13217
Core_0_L2C_average_miss_latency 138.10177

Core_0_LLC_total_access 554867
Core_0_LLC_total_hit 351737 LLC_total_Hit Ratio: 0.63391
Core_0_LLC_total_miss 203130
Core_0_LLC_loads 110356
Core_0_LLC_load_hit 34305 LLC_load_Hit Ratio: 0.31086
Core_0_LLC_load_miss 76051
Core_0_LLC_RFOs 30023
Core_0_LLC_RFO_hit 69 LLC_RFO_Hit Ratio: 0.00230
Core_0_LLC_RFO_miss 29954
Core_0_LLC_prefetches 218184
Core_0_LLC_prefetch_hit 121086 LLC_prefetch_Hit Ratio: 0.55497
Core_0_LLC_prefetch_miss 97098
Core_0_LLC_writebacks 196304
Core_0_LLC_writeback_hit 196277 LLC_writeback_Hit Ratio: 0.99986
Core_0_LLC_writeback_miss 27
Core_0_LLC_prefetch_requested 0
Core_0_LLC_prefetch_issued 0
Core_0_LLC_prefetch_useful 5918 LLC_Useful Ratio: inf
Core_0_LLC_prefetch_useless 31791
Core_0_LLC_prefetch_late 0
Core_0_LLC_average_miss_latency 174.04337

Core_0_major_page_fault 0
Core_0_minor_page_fault 3913


Channel_0_RQ_row_buffer_hit 164030
Channel_0_RQ_row_buffer_miss 39072
Channel_0_WQ_row_buffer_hit 21367
Channel_0_WQ_row_buffer_miss 27310
Channel_0_WQ_full 0
Channel_0_dbus_congested 94257

avg_congested_cycle 8

EzSearch AVG IPC :0.89805: L2-Pf-HR :0.75082 : L2-HR :0.72336 Uful:0.02550
     > Finished combination: TraceType=770-tot Sim:37000000 Prefetcher=L2ipcp L1=ipcp
