TRACE: [1979000000]_FE_[GPT-Neo-125M]_[h12]_[s2048]_[d64] Warmup: 2000000 NumTraces: 1979000000
L1:isb_ideal:L2:isb_ideal
*************************************************
   ChampSim Multicore Out-of-Order Simulator
   Last compiled: Oct 30 2024 21:56:04
*************************************************

trace_0 770-tot_memTraces_v5/120-subBillion_s2048_LLM_Arch/memTraces[1979000000]_FE_[GPT-Neo-125M]_[h12]_[s2048]_[d64].champsim.9.xz
L1D: Ideal ISB Prefetching
Ideal ISB Prefetching
MAIN.cc ln 751 stats print skipped
CPU  0 inst:    1000003 cyc:     497823 now IPC :2.00875: AVG IPC :2.00875: L2-Pf-HR :1.00000: L2-HR :0.87747: (Sim:0h0m8s) 
CPU  0 inst:    2000000 cyc:     980802 now IPC :2.07048: AVG IPC :2.03915: L2-Pf-HR :1.00000: L2-HR :0.91044: (Sim:0h0m17s) 

Warmup complete CPU  0 instructions:    2000002 cycles:     980803 (Simulation time: 0 hr 0 min 17 sec) 

CPU  0 inst:    3000003 cyc:    1620765 now IPC :1.56260: AVG IPC :1.56259: L2-Pf-HR :1.00000: L2-HR :0.94018: (Sim:0h0m24s) 
CPU  0 inst:    4000005 cyc:    2263222 now IPC :1.55653: AVG IPC :1.55956: L2-Pf-HR :1.00000: L2-HR :0.93933: (Sim:0h0m32s) 
CPU  0 inst:    5000003 cyc:    2902470 now IPC :1.56433: AVG IPC :1.56115: L2-Pf-HR :1.00000: L2-HR :0.93986: (Sim:0h0m39s) 
CPU  0 inst:    6000004 cyc:    3544120 now IPC :1.55848: AVG IPC :1.56048: L2-Pf-HR :1.00000: L2-HR :0.93963: (Sim:0h0m46s) 
CPU  0 inst:    7000001 cyc:    4221590 now IPC :1.47608: AVG IPC :1.54283: L2-Pf-HR :1.00000: L2-HR :0.93978: (Sim:0h0m54s) 
CPU  0 inst:    8000000 cyc:    4862683 now IPC :1.55983: AVG IPC :1.54564: L2-Pf-HR :1.00000: L2-HR :0.93970: (Sim:0h1m1s) 
CPU  0 inst:    9000001 cyc:    5501903 now IPC :1.56441: AVG IPC :1.54830: L2-Pf-HR :1.00000: L2-HR :0.93976: (Sim:0h1m9s) 
CPU  0 inst:   10000004 cyc:    6142348 now IPC :1.56142: AVG IPC :1.54992: L2-Pf-HR :1.00000: L2-HR :0.93976: (Sim:0h1m17s) 
CPU  0 inst:   11000000 cyc:    6781710 now IPC :1.56405: AVG IPC :1.55148: L2-Pf-HR :1.00000: L2-HR :0.93974: (Sim:0h1m24s) 
CPU  0 inst:   12000004 cyc:    7422072 now IPC :1.56162: AVG IPC :1.55249: L2-Pf-HR :1.00000: L2-HR :0.93978: (Sim:0h1m32s) 
CPU  0 inst:   13000001 cyc:    8089143 now IPC :1.49909: AVG IPC :1.54748: L2-Pf-HR :0.99942: L2-HR :0.93935: (Sim:0h1m40s) 
CPU  0 inst:   14000002 cyc:    8693973 now IPC :1.65336: AVG IPC :1.55578: L2-Pf-HR :0.99878: L2-HR :0.94008: (Sim:0h1m47s) 
CPU  0 inst:   15000000 cyc:    9301143 now IPC :1.64698: AVG IPC :1.56244: L2-Pf-HR :0.99854: L2-HR :0.94071: (Sim:0h1m54s) 
CPU  0 inst:   16000000 cyc:    9906542 now IPC :1.65180: AVG IPC :1.56850: L2-Pf-HR :0.99851: L2-HR :0.94161: (Sim:0h2m2s) 
CPU  0 inst:   17000000 cyc:   10512611 now IPC :1.64998: AVG IPC :1.57368: L2-Pf-HR :0.99815: L2-HR :0.94208: (Sim:0h2m9s) 
CPU  0 inst:   18000000 cyc:   11119929 now IPC :1.64658: AVG IPC :1.57805: L2-Pf-HR :0.99812: L2-HR :0.94270: (Sim:0h2m17s) 
CPU  0 inst:   19000003 cyc:   11767759 now IPC :1.54362: AVG IPC :1.57598: L2-Pf-HR :0.99818: L2-HR :0.94343: (Sim:0h2m25s) 
CPU  0 inst:   20000004 cyc:   12379860 now IPC :1.63372: AVG IPC :1.57908: L2-Pf-HR :0.99808: L2-HR :0.94378: (Sim:0h2m32s) 
CPU  0 inst:   21000004 cyc:   12989869 now IPC :1.63932: AVG IPC :1.58214: L2-Pf-HR :0.99788: L2-HR :0.94419: (Sim:0h2m40s) 
CPU  0 inst:   22000001 cyc:   13601955 now IPC :1.63375: AVG IPC :1.58464: L2-Pf-HR :0.99789: L2-HR :0.94459: (Sim:0h2m47s) 
CPU  0 inst:   23000004 cyc:   14211249 now IPC :1.64125: AVG IPC :1.58725: L2-Pf-HR :0.99786: L2-HR :0.94496: (Sim:0h2m55s) 
CPU  0 inst:   24000000 cyc:   14819903 now IPC :1.64296: AVG IPC :1.58970: L2-Pf-HR :0.99785: L2-HR :0.94532: (Sim:0h3m3s) 
CPU  0 inst:   25000004 cyc:   15505373 now IPC :1.45886: AVG IPC :1.58352: L2-Pf-HR :0.99785: L2-HR :0.94514: (Sim:0h3m11s) 
CPU  0 inst:   26000002 cyc:   16145203 now IPC :1.56291: AVG IPC :1.58265: L2-Pf-HR :0.99786: L2-HR :0.94547: (Sim:0h3m18s) 
CPU  0 inst:   27000002 cyc:   16784743 now IPC :1.56362: AVG IPC :1.58188: L2-Pf-HR :0.99785: L2-HR :0.94565: (Sim:0h3m26s) 
CPU  0 inst:   28000002 cyc:   17424823 now IPC :1.56230: AVG IPC :1.58112: L2-Pf-HR :0.99789: L2-HR :0.94596: (Sim:0h3m34s) 
CPU  0 inst:   29000000 cyc:   18064869 now IPC :1.56238: AVG IPC :1.58042: L2-Pf-HR :0.99790: L2-HR :0.94622: (Sim:0h3m42s) 
CPU  0 inst:   30000002 cyc:   18702925 now IPC :1.56726: AVG IPC :1.57995: L2-Pf-HR :0.99775: L2-HR :0.94630: (Sim:0h3m50s) 
CPU  0 inst:   31000002 cyc:   19386606 now IPC :1.46267: AVG IPC :1.57559: L2-Pf-HR :0.99764: L2-HR :0.94649: (Sim:0h3m57s) 
CPU  0 inst:   32000000 cyc:   20038693 now IPC :1.53353: AVG IPC :1.57415: L2-Pf-HR :0.99768: L2-HR :0.94667: (Sim:0h4m5s) 
CPU  0 inst:   33000000 cyc:   20687685 now IPC :1.54085: AVG IPC :1.57305: L2-Pf-HR :0.99773: L2-HR :0.94694: (Sim:0h4m13s) 
CPU  0 inst:   34000003 cyc:   21337553 now IPC :1.53878: AVG IPC :1.57196: L2-Pf-HR :0.99765: L2-HR :0.94704: (Sim:0h4m21s) 
CPU  0 inst:   35000002 cyc:   21989744 now IPC :1.53329: AVG IPC :1.57076: L2-Pf-HR :0.99768: L2-HR :0.94722: (Sim:0h4m29s) 
CPU  0 inst:   36000000 cyc:   22640884 now IPC :1.53576: AVG IPC :1.56971: L2-Pf-HR :0.99772: L2-HR :0.94743: (Sim:0h4m37s) 
CPU  0 inst:   37000004 cyc:   23371468 now IPC :1.36877: AVG IPC :1.56315: L2-Pf-HR :0.99770: L2-HR :0.94724: (Sim:0h4m45s) 
CPU  0 inst:   38000004 cyc:   24042316 now IPC :1.49065: AVG IPC :1.56104: L2-Pf-HR :0.99773: L2-HR :0.94741: (Sim:0h4m53s) 
CPU  0 inst:   39000004 cyc:   24712718 now IPC :1.49164: AVG IPC :1.55908: L2-Pf-HR :0.99774: L2-HR :0.94750: (Sim:0h5m1s) 
CPU  0 inst:   40000003 cyc:   25382796 now IPC :1.49236: AVG IPC :1.55725: L2-Pf-HR :0.99775: L2-HR :0.94763: (Sim:0h5m9s) 
CPU  0 inst:   41000004 cyc:   26051925 now IPC :1.49448: AVG IPC :1.55557: L2-Pf-HR :0.99780: L2-HR :0.94782: (Sim:0h5m17s) 
CPU  0 inst:   42000004 cyc:   26722675 now IPC :1.49087: AVG IPC :1.55389: L2-Pf-HR :0.99775: L2-HR :0.94786: (Sim:0h5m25s) 
CPU  0 inst:   43000005 cyc:   27430247 now IPC :1.41329: AVG IPC :1.55013: L2-Pf-HR :0.99774: L2-HR :0.94801: (Sim:0h5m34s) 
CPU  0 inst:   44000002 cyc:   28099928 now IPC :1.49324: AVG IPC :1.54872: L2-Pf-HR :0.99772: L2-HR :0.94806: (Sim:0h5m42s) 
CPU  0 inst:   45000002 cyc:   28769508 now IPC :1.49347: AVG IPC :1.54739: L2-Pf-HR :0.99778: L2-HR :0.94823: (Sim:0h5m50s) 
CPU  0 inst:   46000004 cyc:   29440157 now IPC :1.49110: AVG IPC :1.54606: L2-Pf-HR :0.99775: L2-HR :0.94831: (Sim:0h6m0s) 
CPU  0 inst:   47000002 cyc:   30109043 now IPC :1.49502: AVG IPC :1.54489: L2-Pf-HR :0.99774: L2-HR :0.94838: (Sim:0h6m9s) 
CPU  0 inst:   48000002 cyc:   30778527 now IPC :1.49369: AVG IPC :1.54374: L2-Pf-HR :0.99779: L2-HR :0.94854: (Sim:0h6m17s) 
CPU  0 inst:   49000003 cyc:   31528595 now IPC :1.33321: AVG IPC :1.53857: L2-Pf-HR :0.99778: L2-HR :0.94836: (Sim:0h6m26s) 
CPU  0 inst:   50000003 cyc:   32200598 now IPC :1.48809: AVG IPC :1.53749: L2-Pf-HR :0.99783: L2-HR :0.94847: (Sim:0h6m34s) 
CPU  0 inst:   51000002 cyc:   32873739 now IPC :1.48557: AVG IPC :1.53639: L2-Pf-HR :0.99782: L2-HR :0.94852: (Sim:0h6m42s) 
CPU  0 inst:   52000002 cyc:   33548842 now IPC :1.48126: AVG IPC :1.53525: L2-Pf-HR :0.99779: L2-HR :0.94856: (Sim:0h6m50s) 
CPU  0 inst:   53000003 cyc:   34222023 now IPC :1.48549: AVG IPC :1.53424: L2-Pf-HR :0.99782: L2-HR :0.94868: (Sim:0h6m58s) 
CPU  0 inst:   54000005 cyc:   34895617 now IPC :1.48458: AVG IPC :1.53325: L2-Pf-HR :0.99775: L2-HR :0.94867: (Sim:0h7m7s) 
CPU  0 inst:   55000001 cyc:   35604534 now IPC :1.41060: AVG IPC :1.53074: L2-Pf-HR :0.99772: L2-HR :0.94875: (Sim:0h7m15s) 
CPU  0 inst:   56000001 cyc:   36277336 now IPC :1.48632: AVG IPC :1.52990: L2-Pf-HR :0.99769: L2-HR :0.94877: (Sim:0h7m24s) 
CPU  0 inst:   57000000 cyc:   36947940 now IPC :1.49119: AVG IPC :1.52917: L2-Pf-HR :0.99773: L2-HR :0.94888: (Sim:0h7m33s) 
CPU  0 inst:   58000001 cyc:   37619026 now IPC :1.49012: AVG IPC :1.52846: L2-Pf-HR :0.99768: L2-HR :0.94890: (Sim:0h7m42s) 
CPU  0 inst:   59000002 cyc:   38291930 now IPC :1.48610: AVG IPC :1.52769: L2-Pf-HR :0.99767: L2-HR :0.94894: (Sim:0h7m51s) 
CPU  0 inst:   60000001 cyc:   38962225 now IPC :1.49188: AVG IPC :1.52706: L2-Pf-HR :0.99770: L2-HR :0.94905: (Sim:0h8m1s) 
CPU  0 inst:   61000001 cyc:   39645487 now IPC :1.46357: AVG IPC :1.52594: L2-Pf-HR :0.99766: L2-HR :0.94854: (Sim:0h8m9s) 
CPU  0 inst:   62000002 cyc:   40308563 now IPC :1.50812: AVG IPC :1.52564: L2-Pf-HR :0.99762: L2-HR :0.94792: (Sim:0h8m18s) 
CPU  0 inst:   63000003 cyc:   40990892 now IPC :1.46557: AVG IPC :1.52462: L2-Pf-HR :0.99762: L2-HR :0.94733: (Sim:0h8m25s) 
CPU  0 inst:   64000005 cyc:   41663404 now IPC :1.48697: AVG IPC :1.52399: L2-Pf-HR :0.99762: L2-HR :0.94674: (Sim:0h8m35s) 
CPU  0 inst:   65000001 cyc:   42441463 now IPC :1.28524: AVG IPC :1.51951: L2-Pf-HR :0.99765: L2-HR :0.94636: (Sim:0h8m44s) 
CPU  0 inst:   66000000 cyc:   43129957 now IPC :1.45244: AVG IPC :1.51842: L2-Pf-HR :0.99769: L2-HR :0.94638: (Sim:0h8m53s) 
CPU  0 inst:   67000000 cyc:   43821475 now IPC :1.44609: AVG IPC :1.51725: L2-Pf-HR :0.99772: L2-HR :0.94637: (Sim:0h9m2s) 
CPU  0 inst:   68000005 cyc:   44512916 now IPC :1.44626: AVG IPC :1.51612: L2-Pf-HR :0.99776: L2-HR :0.94640: (Sim:0h9m10s) 
CPU  0 inst:   69000003 cyc:   45204911 now IPC :1.44509: AVG IPC :1.51501: L2-Pf-HR :0.99780: L2-HR :0.94641: (Sim:0h9m18s) 
CPU  0 inst:   70000004 cyc:   45896962 now IPC :1.44498: AVG IPC :1.51393: L2-Pf-HR :0.99783: L2-HR :0.94643: (Sim:0h9m27s) 
CPU  0 inst:   71000002 cyc:   46626323 now IPC :1.37106: AVG IPC :1.51165: L2-Pf-HR :0.99786: L2-HR :0.94645: (Sim:0h9m35s) 
CPU  0 inst:   72000001 cyc:   47317665 now IPC :1.44646: AVG IPC :1.51068: L2-Pf-HR :0.99789: L2-HR :0.94646: (Sim:0h9m44s) 
CPU  0 inst:   73000001 cyc:   48011007 now IPC :1.44229: AVG IPC :1.50967: L2-Pf-HR :0.99790: L2-HR :0.94647: (Sim:0h9m52s) 
CPU  0 inst:   74000000 cyc:   48704580 now IPC :1.44181: AVG IPC :1.50868: L2-Pf-HR :0.99790: L2-HR :0.94644: (Sim:0h10m0s) 
CPU  0 inst:   75000000 cyc:   49399100 now IPC :1.43984: AVG IPC :1.50769: L2-Pf-HR :0.99789: L2-HR :0.94644: (Sim:0h10m9s) 
CPU  0 inst:   76000003 cyc:   50094586 now IPC :1.43785: AVG IPC :1.50671: L2-Pf-HR :0.99782: L2-HR :0.94636: (Sim:0h10m17s) 
CPU  0 inst:   77000004 cyc:   50849708 now IPC :1.32429: AVG IPC :1.50394: L2-Pf-HR :0.99773: L2-HR :0.94621: (Sim:0h10m26s) 
CPU  0 inst:   78000004 cyc:   51522781 now IPC :1.48572: AVG IPC :1.50370: L2-Pf-HR :0.99771: L2-HR :0.94624: (Sim:0h10m34s) 
CPU  0 inst:   79000000 cyc:   52195220 now IPC :1.48712: AVG IPC :1.50348: L2-Pf-HR :0.99770: L2-HR :0.94630: (Sim:0h10m43s) 
CPU  0 inst:   80000004 cyc:   52866858 now IPC :1.48890: AVG IPC :1.50329: L2-Pf-HR :0.99769: L2-HR :0.94636: (Sim:0h10m51s) 
CPU  0 inst:   81000004 cyc:   53539012 now IPC :1.48775: AVG IPC :1.50310: L2-Pf-HR :0.99766: L2-HR :0.94641: (Sim:0h10m59s) 
CPU  0 inst:   82000004 cyc:   54212212 now IPC :1.48544: AVG IPC :1.50287: L2-Pf-HR :0.99761: L2-HR :0.94646: (Sim:0h11m7s) 
CPU  0 inst:   83000002 cyc:   54914624 now IPC :1.42366: AVG IPC :1.50184: L2-Pf-HR :0.99757: L2-HR :0.94648: (Sim:0h11m16s) 
CPU  0 inst:   84000002 cyc:   55572899 now IPC :1.51912: AVG IPC :1.50205: L2-Pf-HR :0.99755: L2-HR :0.94655: (Sim:0h11m24s) 
CPU  0 inst:   85000001 cyc:   56233822 now IPC :1.51303: AVG IPC :1.50218: L2-Pf-HR :0.99755: L2-HR :0.94661: (Sim:0h11m32s) 
CPU  0 inst:   86000004 cyc:   56891849 now IPC :1.51970: AVG IPC :1.50239: L2-Pf-HR :0.99752: L2-HR :0.94666: (Sim:0h11m40s) 
CPU  0 inst:   87000002 cyc:   57549576 now IPC :1.52038: AVG IPC :1.50260: L2-Pf-HR :0.99753: L2-HR :0.94673: (Sim:0h11m49s) 
CPU  0 inst:   88000002 cyc:   58208853 now IPC :1.51681: AVG IPC :1.50276: L2-Pf-HR :0.99756: L2-HR :0.94681: (Sim:0h11m57s) 
CPU  0 inst:   89000003 cyc:   58946215 now IPC :1.35619: AVG IPC :1.50090: L2-Pf-HR :0.99757: L2-HR :0.94678: (Sim:0h12m5s) 
CPU  0 inst:   90000000 cyc:   59612645 now IPC :1.50053: AVG IPC :1.50089: L2-Pf-HR :0.99758: L2-HR :0.94682: (Sim:0h12m14s) 
CPU  0 inst:   91000005 cyc:   60279684 now IPC :1.49917: AVG IPC :1.50087: L2-Pf-HR :0.99760: L2-HR :0.94689: (Sim:0h12m22s) 
CPU  0 inst:   92000003 cyc:   60946992 now IPC :1.49856: AVG IPC :1.50085: L2-Pf-HR :0.99759: L2-HR :0.94694: (Sim:0h12m30s) 
CPU  0 inst:   93000003 cyc:   61612759 now IPC :1.50203: AVG IPC :1.50086: L2-Pf-HR :0.99761: L2-HR :0.94700: (Sim:0h12m40s) 
CPU  0 inst:   94000005 cyc:   62279083 now IPC :1.50077: AVG IPC :1.50086: L2-Pf-HR :0.99760: L2-HR :0.94707: (Sim:0h12m48s) 
CPU  0 inst:   95000001 cyc:   62988385 now IPC :1.40983: AVG IPC :1.49982: L2-Pf-HR :0.99759: L2-HR :0.94710: (Sim:0h12m57s) 
CPU  0 inst:   96000002 cyc:   63658786 now IPC :1.49165: AVG IPC :1.49973: L2-Pf-HR :0.99758: L2-HR :0.94716: (Sim:0h13m5s) 
CPU  0 inst:   97000003 cyc:   64328395 now IPC :1.49341: AVG IPC :1.49966: L2-Pf-HR :0.99760: L2-HR :0.94722: (Sim:0h13m13s) 
CPU  0 inst:   98000001 cyc:   64998835 now IPC :1.49155: AVG IPC :1.49958: L2-Pf-HR :0.99759: L2-HR :0.94727: (Sim:0h13m22s) 
CPU  0 inst:   99000001 cyc:   65668928 now IPC :1.49233: AVG IPC :1.49950: L2-Pf-HR :0.99760: L2-HR :0.94734: (Sim:0h13m30s) 
CPU  0 inst:  100000001 cyc:   66336509 now IPC :1.49795: AVG IPC :1.49949: L2-Pf-HR :0.99761: L2-HR :0.94738: (Sim:0h13m39s) 
CPU  0 inst:  101000005 cyc:   67067619 now IPC :1.36779: AVG IPC :1.49803: L2-Pf-HR :0.99762: L2-HR :0.94734: (Sim:0h13m48s) 
CPU  0 inst:  102000001 cyc:   67739885 now IPC :1.48750: AVG IPC :1.49792: L2-Pf-HR :0.99764: L2-HR :0.94738: (Sim:0h13m57s) 
CPU  0 inst:  103000004 cyc:   68410439 now IPC :1.49131: AVG IPC :1.49786: L2-Pf-HR :0.99765: L2-HR :0.94743: (Sim:0h14m6s) 
CPU  0 inst:  104000005 cyc:   69080765 now IPC :1.49181: AVG IPC :1.49780: L2-Pf-HR :0.99765: L2-HR :0.94748: (Sim:0h14m14s) 
CPU  0 inst:  105000005 cyc:   69754261 now IPC :1.48479: AVG IPC :1.49767: L2-Pf-HR :0.99765: L2-HR :0.94751: (Sim:0h14m24s) 
CPU  0 inst:  106000003 cyc:   70425555 now IPC :1.48966: AVG IPC :1.49759: L2-Pf-HR :0.99763: L2-HR :0.94756: (Sim:0h14m33s) 
CPU  0 inst:  107000000 cyc:   71132908 now IPC :1.41372: AVG IPC :1.49675: L2-Pf-HR :0.99762: L2-HR :0.94758: (Sim:0h14m41s) 
CPU  0 inst:  108000003 cyc:   71802141 now IPC :1.49425: AVG IPC :1.49672: L2-Pf-HR :0.99763: L2-HR :0.94764: (Sim:0h14m50s) 
CPU  0 inst:  109000003 cyc:   72472721 now IPC :1.49125: AVG IPC :1.49667: L2-Pf-HR :0.99764: L2-HR :0.94769: (Sim:0h14m58s) 
CPU  0 inst:  110000003 cyc:   73142304 now IPC :1.49347: AVG IPC :1.49664: L2-Pf-HR :0.99762: L2-HR :0.94771: (Sim:0h15m7s) 
CPU  0 inst:  111000003 cyc:   73811677 now IPC :1.49394: AVG IPC :1.49662: L2-Pf-HR :0.99763: L2-HR :0.94777: (Sim:0h15m15s) 
CPU  0 inst:  112000003 cyc:   74483728 now IPC :1.48798: AVG IPC :1.49654: L2-Pf-HR :0.99764: L2-HR :0.94781: (Sim:0h15m24s) 
CPU  0 inst:  113000003 cyc:   75221063 now IPC :1.35624: AVG IPC :1.49515: L2-Pf-HR :0.99764: L2-HR :0.94776: (Sim:0h15m33s) 
CPU  0 inst:  114000000 cyc:   75879258 now IPC :1.51930: AVG IPC :1.49536: L2-Pf-HR :0.99765: L2-HR :0.94780: (Sim:0h15m43s) 
CPU  0 inst:  115000001 cyc:   76540327 now IPC :1.51270: AVG IPC :1.49551: L2-Pf-HR :0.99766: L2-HR :0.94783: (Sim:0h15m53s) 
CPU  0 inst:  116000001 cyc:   77199378 now IPC :1.51733: AVG IPC :1.49570: L2-Pf-HR :0.99766: L2-HR :0.94787: (Sim:0h16m1s) 
CPU  0 inst:  117000001 cyc:   77857459 now IPC :1.51957: AVG IPC :1.49590: L2-Pf-HR :0.99768: L2-HR :0.94791: (Sim:0h16m12s) 
CPU  0 inst:  118000002 cyc:   78516989 now IPC :1.51623: AVG IPC :1.49608: L2-Pf-HR :0.99766: L2-HR :0.94794: (Sim:0h16m22s) 
CPU  0 inst:  119000005 cyc:   79220848 now IPC :1.42074: AVG IPC :1.49540: L2-Pf-HR :0.99764: L2-HR :0.94796: (Sim:0h16m30s) 
CPU  0 inst:  120000005 cyc:   79888848 now IPC :1.49701: AVG IPC :1.49541: L2-Pf-HR :0.99764: L2-HR :0.94799: (Sim:0h16m39s) 
CPU  0 inst:  121000005 cyc:   80555339 now IPC :1.50040: AVG IPC :1.49545: L2-Pf-HR :0.99765: L2-HR :0.94804: (Sim:0h16m48s) 
CPU  0 inst:  122000005 cyc:   81224495 now IPC :1.49442: AVG IPC :1.49544: L2-Pf-HR :0.99764: L2-HR :0.94806: (Sim:0h16m57s) 
CPU  0 inst:  123000005 cyc:   81890895 now IPC :1.50060: AVG IPC :1.49549: L2-Pf-HR :0.99764: L2-HR :0.94811: (Sim:0h17m6s) 
CPU  0 inst:  124000002 cyc:   82557469 now IPC :1.50020: AVG IPC :1.49553: L2-Pf-HR :0.99765: L2-HR :0.94814: (Sim:0h17m15s) 
CPU  0 inst:  125000005 cyc:   83242909 now IPC :1.45892: AVG IPC :1.49522: L2-Pf-HR :0.99765: L2-HR :0.94796: (Sim:0h17m23s) 
CPU  0 inst:  126000002 cyc:   83908339 now IPC :1.50278: AVG IPC :1.49528: L2-Pf-HR :0.99763: L2-HR :0.94764: (Sim:0h17m32s) 
CPU  0 inst:  127000001 cyc:   84587516 now IPC :1.47237: AVG IPC :1.49510: L2-Pf-HR :0.99763: L2-HR :0.94735: (Sim:0h17m40s) 
CPU  0 inst:  128000005 cyc:   85252786 now IPC :1.50316: AVG IPC :1.49516: L2-Pf-HR :0.99763: L2-HR :0.94707: (Sim:0h17m49s) 
CPU  0 inst:  129000005 cyc:   86023648 now IPC :1.29725: AVG IPC :1.49336: L2-Pf-HR :0.99764: L2-HR :0.94685: (Sim:0h17m58s) 
CPU  0 inst:  130000000 cyc:   86713218 now IPC :1.45017: AVG IPC :1.49302: L2-Pf-HR :0.99766: L2-HR :0.94684: (Sim:0h18m9s) 
CPU  0 inst:  131000003 cyc:   87404280 now IPC :1.44705: AVG IPC :1.49265: L2-Pf-HR :0.99768: L2-HR :0.94684: (Sim:0h18m19s) 
CPU  0 inst:  132000005 cyc:   88095771 now IPC :1.44615: AVG IPC :1.49228: L2-Pf-HR :0.99770: L2-HR :0.94684: (Sim:0h18m32s) 
CPU  0 inst:  133000000 cyc:   88787294 now IPC :1.44608: AVG IPC :1.49192: L2-Pf-HR :0.99771: L2-HR :0.94684: (Sim:0h18m47s) 
CPU  0 inst:  134000004 cyc:   89476307 now IPC :1.45136: AVG IPC :1.49160: L2-Pf-HR :0.99773: L2-HR :0.94685: (Sim:0h19m0s) 
CPU  0 inst:  135000002 cyc:   90208238 now IPC :1.36625: AVG IPC :1.49057: L2-Pf-HR :0.99775: L2-HR :0.94685: (Sim:0h19m17s) 
CPU  0 inst:  136000000 cyc:   90904041 now IPC :1.43719: AVG IPC :1.49016: L2-Pf-HR :0.99776: L2-HR :0.94686: (Sim:0h19m27s) 
CPU  0 inst:  137000001 cyc:   91598929 now IPC :1.43908: AVG IPC :1.48977: L2-Pf-HR :0.99777: L2-HR :0.94685: (Sim:0h19m44s) 
CPU  0 inst:  138000005 cyc:   92292623 now IPC :1.44156: AVG IPC :1.48940: L2-Pf-HR :0.99778: L2-HR :0.94685: (Sim:0h20m0s) 
CPU  0 inst:  139000000 cyc:   92990271 now IPC :1.43338: AVG IPC :1.48898: L2-Pf-HR :0.99776: L2-HR :0.94681: (Sim:0h20m20s) 
CPU  0 inst:  140000003 cyc:   93684011 now IPC :1.44147: AVG IPC :1.48862: L2-Pf-HR :0.99776: L2-HR :0.94682: (Sim:0h20m40s) 
CPU  0 inst:  141000004 cyc:   94439458 now IPC :1.32372: AVG IPC :1.48729: L2-Pf-HR :0.99774: L2-HR :0.94672: (Sim:0h21m1s) 
CPU  0 inst:  142000001 cyc:   95104806 now IPC :1.50297: AVG IPC :1.48740: L2-Pf-HR :0.99775: L2-HR :0.94677: (Sim:0h21m20s) 
CPU  0 inst:  143000005 cyc:   95769516 now IPC :1.50442: AVG IPC :1.48752: L2-Pf-HR :0.99774: L2-HR :0.94679: (Sim:0h21m40s) 
CPU  0 inst:  144000005 cyc:   96436795 now IPC :1.49862: AVG IPC :1.48760: L2-Pf-HR :0.99770: L2-HR :0.94678: (Sim:0h21m59s) 
CPU  0 inst:  145000005 cyc:   97103077 now IPC :1.50087: AVG IPC :1.48769: L2-Pf-HR :0.99771: L2-HR :0.94684: (Sim:0h22m18s) 
CPU  0 inst:  146000005 cyc:   97769952 now IPC :1.49953: AVG IPC :1.48777: L2-Pf-HR :0.99770: L2-HR :0.94685: (Sim:0h22m37s) 
CPU  0 inst:  147000005 cyc:   98475637 now IPC :1.41706: AVG IPC :1.48726: L2-Pf-HR :0.99768: L2-HR :0.94689: (Sim:0h22m56s) 
CPU  0 inst:  148000003 cyc:   99146735 now IPC :1.49009: AVG IPC :1.48728: L2-Pf-HR :0.99764: L2-HR :0.94688: (Sim:0h23m16s) 
CPU  0 inst:  149000003 cyc:   99813002 now IPC :1.50090: AVG IPC :1.48737: L2-Pf-HR :0.99765: L2-HR :0.94692: (Sim:0h23m35s) 
CPU  0 inst:  150000003 cyc:  100478468 now IPC :1.50271: AVG IPC :1.48747: L2-Pf-HR :0.99765: L2-HR :0.94696: (Sim:0h23m54s) 
CPU  0 inst:  151000005 cyc:  101145543 now IPC :1.49908: AVG IPC :1.48755: L2-Pf-HR :0.99764: L2-HR :0.94698: (Sim:0h24m14s) 
CPU  0 inst:  152000004 cyc:  101812860 now IPC :1.49854: AVG IPC :1.48762: L2-Pf-HR :0.99765: L2-HR :0.94703: (Sim:0h24m33s) 
CPU  0 inst:  153000003 cyc:  102555617 now IPC :1.34633: AVG IPC :1.48659: L2-Pf-HR :0.99766: L2-HR :0.94700: (Sim:0h24m53s) 
CPU  0 inst:  154000000 cyc:  103229129 now IPC :1.48475: AVG IPC :1.48658: L2-Pf-HR :0.99767: L2-HR :0.94703: (Sim:0h25m12s) 
CPU  0 inst:  155000001 cyc:  103903389 now IPC :1.48311: AVG IPC :1.48655: L2-Pf-HR :0.99768: L2-HR :0.94706: (Sim:0h25m32s) 
CPU  0 inst:  156000001 cyc:  104577102 now IPC :1.48431: AVG IPC :1.48654: L2-Pf-HR :0.99768: L2-HR :0.94708: (Sim:0h25m51s) 
CPU  0 inst:  157000001 cyc:  105250387 now IPC :1.48526: AVG IPC :1.48653: L2-Pf-HR :0.99768: L2-HR :0.94714: (Sim:0h26m10s) 
CPU  0 inst:  158000000 cyc:  105925939 now IPC :1.48027: AVG IPC :1.48649: L2-Pf-HR :0.99768: L2-HR :0.94715: (Sim:0h26m21s) 
CPU  0 inst:  159000005 cyc:  106636655 now IPC :1.40704: AVG IPC :1.48596: L2-Pf-HR :0.99766: L2-HR :0.94717: (Sim:0h26m30s) 
CPU  0 inst:  160000005 cyc:  107309222 now IPC :1.48684: AVG IPC :1.48596: L2-Pf-HR :0.99766: L2-HR :0.94719: (Sim:0h26m40s) 
CPU  0 inst:  161000005 cyc:  107980537 now IPC :1.48961: AVG IPC :1.48599: L2-Pf-HR :0.99767: L2-HR :0.94724: (Sim:0h26m50s) 
CPU  0 inst:  162000005 cyc:  108651353 now IPC :1.49072: AVG IPC :1.48601: L2-Pf-HR :0.99766: L2-HR :0.94726: (Sim:0h27m0s) 
CPU  0 inst:  163000000 cyc:  109322118 now IPC :1.49083: AVG IPC :1.48604: L2-Pf-HR :0.99765: L2-HR :0.94728: (Sim:0h27m18s) 
CPU  0 inst:  164000002 cyc:  109992356 now IPC :1.49201: AVG IPC :1.48608: L2-Pf-HR :0.99767: L2-HR :0.94733: (Sim:0h27m38s) 
CPU  0 inst:  165000002 cyc:  110732433 now IPC :1.35121: AVG IPC :1.48517: L2-Pf-HR :0.99767: L2-HR :0.94729: (Sim:0h27m58s) 
CPU  0 inst:  166000000 cyc:  111403575 now IPC :1.48999: AVG IPC :1.48520: L2-Pf-HR :0.99768: L2-HR :0.94732: (Sim:0h28m15s) 
CPU  0 inst:  167000000 cyc:  112073865 now IPC :1.49189: AVG IPC :1.48524: L2-Pf-HR :0.99768: L2-HR :0.94734: (Sim:0h28m27s) 
CPU  0 inst:  168000000 cyc:  112746699 now IPC :1.48625: AVG IPC :1.48525: L2-Pf-HR :0.99768: L2-HR :0.94736: (Sim:0h28m43s) 
CPU  0 inst:  169000000 cyc:  113418195 now IPC :1.48921: AVG IPC :1.48527: L2-Pf-HR :0.99769: L2-HR :0.94741: (Sim:0h28m54s) 
CPU  0 inst:  170000004 cyc:  114089426 now IPC :1.48981: AVG IPC :1.48530: L2-Pf-HR :0.99768: L2-HR :0.94742: (Sim:0h29m4s) 
CPU  0 inst:  171000004 cyc:  114800046 now IPC :1.40722: AVG IPC :1.48481: L2-Pf-HR :0.99768: L2-HR :0.94745: (Sim:0h29m17s) 
CPU  0 inst:  172000004 cyc:  115476293 now IPC :1.47875: AVG IPC :1.48477: L2-Pf-HR :0.99767: L2-HR :0.94746: (Sim:0h29m34s) 
CPU  0 inst:  173000004 cyc:  116151110 now IPC :1.48188: AVG IPC :1.48476: L2-Pf-HR :0.99768: L2-HR :0.94749: (Sim:0h29m44s) 
CPU  0 inst:  174000004 cyc:  116824797 now IPC :1.48437: AVG IPC :1.48476: L2-Pf-HR :0.99767: L2-HR :0.94752: (Sim:0h29m56s) 
CPU  0 inst:  175000000 cyc:  117501361 now IPC :1.47805: AVG IPC :1.48472: L2-Pf-HR :0.99768: L2-HR :0.94753: (Sim:0h30m16s) 
CPU  0 inst:  176000000 cyc:  118175104 now IPC :1.48425: AVG IPC :1.48471: L2-Pf-HR :0.99767: L2-HR :0.94757: (Sim:0h30m35s) 
CPU  0 inst:  177000002 cyc:  118923682 now IPC :1.33587: AVG IPC :1.48377: L2-Pf-HR :0.99767: L2-HR :0.94753: (Sim:0h30m55s) 
CPU  0 inst:  178000002 cyc:  119598539 now IPC :1.48180: AVG IPC :1.48376: L2-Pf-HR :0.99767: L2-HR :0.94755: (Sim:0h31m14s) 
CPU  0 inst:  179000002 cyc:  120270889 now IPC :1.48732: AVG IPC :1.48378: L2-Pf-HR :0.99768: L2-HR :0.94757: (Sim:0h31m33s) 
CPU  0 inst:  180000001 cyc:  120943875 now IPC :1.48591: AVG IPC :1.48379: L2-Pf-HR :0.99768: L2-HR :0.94759: (Sim:0h31m52s) 
CPU  0 inst:  181000000 cyc:  121615785 now IPC :1.48829: AVG IPC :1.48382: L2-Pf-HR :0.99769: L2-HR :0.94763: (Sim:0h32m11s) 
CPU  0 inst:  182000000 cyc:  122290582 now IPC :1.48193: AVG IPC :1.48380: L2-Pf-HR :0.99768: L2-HR :0.94764: (Sim:0h32m31s) 
CPU  0 inst:  183000000 cyc:  123001369 now IPC :1.40689: AVG IPC :1.48336: L2-Pf-HR :0.99767: L2-HR :0.94766: (Sim:0h32m45s) 
CPU  0 inst:  184000000 cyc:  123673165 now IPC :1.48855: AVG IPC :1.48338: L2-Pf-HR :0.99767: L2-HR :0.94769: (Sim:0h32m59s) 
CPU  0 inst:  185000000 cyc:  124347887 now IPC :1.48209: AVG IPC :1.48338: L2-Pf-HR :0.99768: L2-HR :0.94771: (Sim:0h33m18s) 
CPU  0 inst:  186000002 cyc:  125020848 now IPC :1.48597: AVG IPC :1.48339: L2-Pf-HR :0.99767: L2-HR :0.94773: (Sim:0h33m37s) 
CPU  0 inst:  187000004 cyc:  125692963 now IPC :1.48784: AVG IPC :1.48342: L2-Pf-HR :0.99768: L2-HR :0.94775: (Sim:0h33m56s) 
CPU  0 inst:  188000004 cyc:  126365967 now IPC :1.48588: AVG IPC :1.48343: L2-Pf-HR :0.99768: L2-HR :0.94778: (Sim:0h34m15s) 
CPU  0 inst:  189000000 cyc:  127057912 now IPC :1.44520: AVG IPC :1.48322: L2-Pf-HR :0.99767: L2-HR :0.94767: (Sim:0h34m35s) 
CPU  0 inst:  190000002 cyc:  127724935 now IPC :1.49920: AVG IPC :1.48330: L2-Pf-HR :0.99766: L2-HR :0.94747: (Sim:0h34m53s) 
CPU  0 inst:  191000000 cyc:  128405342 now IPC :1.46971: AVG IPC :1.48323: L2-Pf-HR :0.99766: L2-HR :0.94728: (Sim:0h35m12s) 
CPU  0 inst:  192000001 cyc:  129074545 now IPC :1.49432: AVG IPC :1.48329: L2-Pf-HR :0.99766: L2-HR :0.94708: (Sim:0h35m30s) 
CPU  0 inst:  193000002 cyc:  129834787 now IPC :1.31537: AVG IPC :1.48230: L2-Pf-HR :0.99767: L2-HR :0.94691: (Sim:0h35m50s) 
CPU  0 inst:  194000000 cyc:  130513943 now IPC :1.47241: AVG IPC :1.48225: L2-Pf-HR :0.99768: L2-HR :0.94691: (Sim:0h36m10s) 
CPU  0 inst:  195000000 cyc:  131191884 now IPC :1.47505: AVG IPC :1.48221: L2-Pf-HR :0.99770: L2-HR :0.94691: (Sim:0h36m29s) 
CPU  0 inst:  196000005 cyc:  131868626 now IPC :1.47768: AVG IPC :1.48219: L2-Pf-HR :0.99771: L2-HR :0.94690: (Sim:0h36m48s) 
CPU  0 inst:  197000005 cyc:  132546042 now IPC :1.47620: AVG IPC :1.48215: L2-Pf-HR :0.99772: L2-HR :0.94691: (Sim:0h37m7s) 
CPU  0 inst:  198000004 cyc:  133222866 now IPC :1.47749: AVG IPC :1.48213: L2-Pf-HR :0.99773: L2-HR :0.94691: (Sim:0h37m26s) 
CPU  0 inst:  199000002 cyc:  133948395 now IPC :1.37830: AVG IPC :1.48156: L2-Pf-HR :0.99774: L2-HR :0.94692: (Sim:0h37m46s) 
CPU  0 inst:  200000003 cyc:  134644915 now IPC :1.43571: AVG IPC :1.48133: L2-Pf-HR :0.99775: L2-HR :0.94691: (Sim:0h38m6s) 
CPU  0 inst:  201000003 cyc:  135339971 now IPC :1.43873: AVG IPC :1.48110: L2-Pf-HR :0.99776: L2-HR :0.94692: (Sim:0h38m26s) 
CPU  0 inst:  202000005 cyc:  136038362 now IPC :1.43187: AVG IPC :1.48085: L2-Pf-HR :0.99776: L2-HR :0.94690: (Sim:0h38m46s) 
CPU  0 inst:  203000000 cyc:  136736043 now IPC :1.43331: AVG IPC :1.48061: L2-Pf-HR :0.99776: L2-HR :0.94689: (Sim:0h39m6s) 
CPU  0 inst:  204000003 cyc:  137432011 now IPC :1.43685: AVG IPC :1.48038: L2-Pf-HR :0.99776: L2-HR :0.94687: (Sim:0h39m26s) 
CPU  0 inst:  205000000 cyc:  138190931 now IPC :1.31766: AVG IPC :1.47948: L2-Pf-HR :0.99774: L2-HR :0.94682: (Sim:0h39m47s) 
CPU  0 inst:  206000000 cyc:  138863138 now IPC :1.48764: AVG IPC :1.47952: L2-Pf-HR :0.99775: L2-HR :0.94684: (Sim:0h39m57s) 
CPU  0 inst:  207000000 cyc:  139536204 now IPC :1.48574: AVG IPC :1.47955: L2-Pf-HR :0.99774: L2-HR :0.94685: (Sim:0h40m12s) 
CPU  0 inst:  208000000 cyc:  140210824 now IPC :1.48232: AVG IPC :1.47957: L2-Pf-HR :0.99773: L2-HR :0.94686: (Sim:0h40m32s) 
CPU  0 inst:  209000000 cyc:  140885233 now IPC :1.48278: AVG IPC :1.47958: L2-Pf-HR :0.99773: L2-HR :0.94688: (Sim:0h40m51s) 
CPU  0 inst:  210000004 cyc:  141558598 now IPC :1.48508: AVG IPC :1.47961: L2-Pf-HR :0.99771: L2-HR :0.94690: (Sim:0h41m11s) 
CPU  0 inst:  211000004 cyc:  142265524 now IPC :1.41458: AVG IPC :1.47928: L2-Pf-HR :0.99769: L2-HR :0.94690: (Sim:0h41m27s) 
CPU  0 inst:  212000000 cyc:  142925724 now IPC :1.51469: AVG IPC :1.47945: L2-Pf-HR :0.99768: L2-HR :0.94691: (Sim:0h41m46s) 
CPU  0 inst:  213000004 cyc:  143583908 now IPC :1.51934: AVG IPC :1.47963: L2-Pf-HR :0.99769: L2-HR :0.94694: (Sim:0h42m5s) 
CPU  0 inst:  214000003 cyc:  144243999 now IPC :1.51494: AVG IPC :1.47979: L2-Pf-HR :0.99768: L2-HR :0.94695: (Sim:0h42m24s) 
CPU  0 inst:  215000000 cyc:  144902554 now IPC :1.51847: AVG IPC :1.47997: L2-Pf-HR :0.99768: L2-HR :0.94698: (Sim:0h42m43s) 
CPU  0 inst:  216000002 cyc:  145561066 now IPC :1.51858: AVG IPC :1.48015: L2-Pf-HR :0.99769: L2-HR :0.94701: (Sim:0h43m2s) 
CPU  0 inst:  217000002 cyc:  146288865 now IPC :1.37401: AVG IPC :1.47962: L2-Pf-HR :0.99769: L2-HR :0.94698: (Sim:0h43m21s) 
CPU  0 inst:  218000002 cyc:  146948439 now IPC :1.51613: AVG IPC :1.47978: L2-Pf-HR :0.99770: L2-HR :0.94701: (Sim:0h43m40s) 
CPU  0 inst:  219000005 cyc:  147608007 now IPC :1.51615: AVG IPC :1.47994: L2-Pf-HR :0.99771: L2-HR :0.94703: (Sim:0h43m59s) 
CPU  0 inst:  220000002 cyc:  148265487 now IPC :1.52095: AVG IPC :1.48013: L2-Pf-HR :0.99770: L2-HR :0.94705: (Sim:0h44m10s) 
CPU  0 inst:  221000000 cyc:  148925514 now IPC :1.51509: AVG IPC :1.48028: L2-Pf-HR :0.99771: L2-HR :0.94707: (Sim:0h44m20s) 
CPU  0 inst:  222000000 cyc:  149584011 now IPC :1.51861: AVG IPC :1.48045: L2-Pf-HR :0.99772: L2-HR :0.94711: (Sim:0h44m30s) 
CPU  0 inst:  223000000 cyc:  150285963 now IPC :1.42460: AVG IPC :1.48019: L2-Pf-HR :0.99772: L2-HR :0.94713: (Sim:0h44m49s) 
CPU  0 inst:  224000000 cyc:  150956846 now IPC :1.49057: AVG IPC :1.48024: L2-Pf-HR :0.99772: L2-HR :0.94715: (Sim:0h45m8s) 
CPU  0 inst:  225000005 cyc:  151628252 now IPC :1.48942: AVG IPC :1.48028: L2-Pf-HR :0.99772: L2-HR :0.94717: (Sim:0h45m27s) 
CPU  0 inst:  226000002 cyc:  152297987 now IPC :1.49312: AVG IPC :1.48033: L2-Pf-HR :0.99773: L2-HR :0.94720: (Sim:0h45m46s) 
CPU  0 inst:  227000004 cyc:  152966773 now IPC :1.49525: AVG IPC :1.48040: L2-Pf-HR :0.99773: L2-HR :0.94723: (Sim:0h46m5s) 
CPU  0 inst:  228000004 cyc:  153638312 now IPC :1.48912: AVG IPC :1.48044: L2-Pf-HR :0.99774: L2-HR :0.94724: (Sim:0h46m24s) 
CPU  0 inst:  229000001 cyc:  154372996 now IPC :1.36113: AVG IPC :1.47987: L2-Pf-HR :0.99774: L2-HR :0.94723: (Sim:0h46m45s) 
CPU  0 inst:  230000001 cyc:  155032910 now IPC :1.51535: AVG IPC :1.48002: L2-Pf-HR :0.99775: L2-HR :0.94725: (Sim:0h47m4s) 
CPU  0 inst:  231000003 cyc:  155695706 now IPC :1.50876: AVG IPC :1.48014: L2-Pf-HR :0.99775: L2-HR :0.94726: (Sim:0h47m23s) 
CPU  0 inst:  232000005 cyc:  156356695 now IPC :1.51289: AVG IPC :1.48028: L2-Pf-HR :0.99775: L2-HR :0.94729: (Sim:0h47m43s) 
CPU  0 inst:  233000005 cyc:  157017942 now IPC :1.51229: AVG IPC :1.48042: L2-Pf-HR :0.99775: L2-HR :0.94730: (Sim:0h48m2s) 
CPU  0 inst:  234000005 cyc:  157678582 now IPC :1.51368: AVG IPC :1.48056: L2-Pf-HR :0.99775: L2-HR :0.94733: (Sim:0h48m21s) 
CPU  0 inst:  235000005 cyc:  158383048 now IPC :1.41951: AVG IPC :1.48028: L2-Pf-HR :0.99775: L2-HR :0.94734: (Sim:0h48m41s) 
CPU  0 inst:  236000001 cyc:  159050474 now IPC :1.49829: AVG IPC :1.48036: L2-Pf-HR :0.99776: L2-HR :0.94737: (Sim:0h49m0s) 
CPU  0 inst:  237000000 cyc:  159716641 now IPC :1.50112: AVG IPC :1.48045: L2-Pf-HR :0.99776: L2-HR :0.94739: (Sim:0h49m20s) 
CPU  0 inst:  238000002 cyc:  160384933 now IPC :1.49635: AVG IPC :1.48051: L2-Pf-HR :0.99776: L2-HR :0.94740: (Sim:0h49m39s) 
CPU  0 inst:  239000003 cyc:  161052414 now IPC :1.49817: AVG IPC :1.48059: L2-Pf-HR :0.99776: L2-HR :0.94743: (Sim:0h49m59s) 
CPU  0 inst:  240000003 cyc:  161719254 now IPC :1.49961: AVG IPC :1.48067: L2-Pf-HR :0.99776: L2-HR :0.94744: (Sim:0h50m18s) 
CPU  0 inst:  241000003 cyc:  162458907 now IPC :1.35199: AVG IPC :1.48008: L2-Pf-HR :0.99777: L2-HR :0.94742: (Sim:0h50m39s) 
CPU  0 inst:  242000005 cyc:  163125342 now IPC :1.50052: AVG IPC :1.48016: L2-Pf-HR :0.99777: L2-HR :0.94745: (Sim:0h50m58s) 
CPU  0 inst:  243000002 cyc:  163792009 now IPC :1.49999: AVG IPC :1.48024: L2-Pf-HR :0.99778: L2-HR :0.94746: (Sim:0h51m17s) 
CPU  0 inst:  244000001 cyc:  164458165 now IPC :1.50115: AVG IPC :1.48033: L2-Pf-HR :0.99778: L2-HR :0.94748: (Sim:0h51m36s) 
CPU  0 inst:  245000001 cyc:  165125893 now IPC :1.49762: AVG IPC :1.48040: L2-Pf-HR :0.99778: L2-HR :0.94750: (Sim:0h51m55s) 
CPU  0 inst:  246000001 cyc:  165793796 now IPC :1.49722: AVG IPC :1.48047: L2-Pf-HR :0.99778: L2-HR :0.94751: (Sim:0h52m15s) 
CPU  0 inst:  247000004 cyc:  166501902 now IPC :1.41222: AVG IPC :1.48017: L2-Pf-HR :0.99777: L2-HR :0.94752: (Sim:0h52m34s) 
xz: 770-tot_memTraces_v5/120-subBillion_s2048_LLM_Arch/memTraces[1979000000]_FE_[GPT-Neo-125M]_[h12]_[s2048]_[d64].champsim.9.xz: Unexpected end of input
*** Reached end of trace for Core: 0 Repeating trace: 770-tot_memTraces_v5/120-subBillion_s2048_LLM_Arch/memTraces[1979000000]_FE_[GPT-Neo-125M]_[h12]_[s2048]_[d64].champsim.9.xz
CPU  0 inst:  248000004 cyc:  167417019 now IPC :1.09276: AVG IPC :1.47804: L2-Pf-HR :0.99773: L2-HR :0.94742: (Sim:0h52m54s) 
CPU  0 inst:  249000003 cyc:  168109954 now IPC :1.44314: AVG IPC :1.47790: L2-Pf-HR :0.99773: L2-HR :0.94742: (Sim:0h53m9s) 
CPU  0 inst:  250000001 cyc:  168803637 now IPC :1.44158: AVG IPC :1.47775: L2-Pf-HR :0.99773: L2-HR :0.94741: (Sim:0h53m25s) 
CPU  0 inst:  251000001 cyc:  169496102 now IPC :1.44412: AVG IPC :1.47761: L2-Pf-HR :0.99773: L2-HR :0.94741: (Sim:0h53m37s) 
CPU  0 inst:  252000000 cyc:  170191512 now IPC :1.43800: AVG IPC :1.47745: L2-Pf-HR :0.99773: L2-HR :0.94741: (Sim:0h53m55s) 
CPU  0 inst:  253000004 cyc:  170882527 now IPC :1.44715: AVG IPC :1.47732: L2-Pf-HR :0.99773: L2-HR :0.94741: (Sim:0h54m6s) 
CPU  0 inst:  254000004 cyc:  171613767 now IPC :1.36754: AVG IPC :1.47685: L2-Pf-HR :0.99773: L2-HR :0.94741: (Sim:0h54m26s) 
CPU  0 inst:  255000004 cyc:  172300856 now IPC :1.45542: AVG IPC :1.47677: L2-Pf-HR :0.99773: L2-HR :0.94741: (Sim:0h54m46s) 
CPU  0 inst:  256000003 cyc:  172991230 now IPC :1.44849: AVG IPC :1.47665: L2-Pf-HR :0.99770: L2-HR :0.94738: (Sim:0h55m6s) 
CPU  0 inst:  257000002 cyc:  173680866 now IPC :1.45004: AVG IPC :1.47655: L2-Pf-HR :0.99768: L2-HR :0.94735: (Sim:0h55m26s) 
CPU  0 inst:  258000002 cyc:  174369564 now IPC :1.45202: AVG IPC :1.47645: L2-Pf-HR :0.99765: L2-HR :0.94732: (Sim:0h55m47s) 
CPU  0 inst:  259000004 cyc:  175058486 now IPC :1.45155: AVG IPC :1.47635: L2-Pf-HR :0.99762: L2-HR :0.94729: (Sim:0h55m59s) 
CPU  0 inst:  260000000 cyc:  175758445 now IPC :1.42865: AVG IPC :1.47616: L2-Pf-HR :0.99758: L2-HR :0.94727: (Sim:0h56m15s) 
CPU  0 inst:  261000001 cyc:  176502157 now IPC :1.34461: AVG IPC :1.47560: L2-Pf-HR :0.99755: L2-HR :0.94722: (Sim:0h56m31s) 
CPU  0 inst:  262000002 cyc:  177174856 now IPC :1.48655: AVG IPC :1.47565: L2-Pf-HR :0.99754: L2-HR :0.94723: (Sim:0h56m51s) 
CPU  0 inst:  263000005 cyc:  177847830 now IPC :1.48595: AVG IPC :1.47568: L2-Pf-HR :0.99754: L2-HR :0.94724: (Sim:0h57m8s) 
CPU  0 inst:  264000005 cyc:  178520405 now IPC :1.48682: AVG IPC :1.47573: L2-Pf-HR :0.99754: L2-HR :0.94725: (Sim:0h57m19s) 
CPU  0 inst:  265000001 cyc:  179195100 now IPC :1.48215: AVG IPC :1.47575: L2-Pf-HR :0.99753: L2-HR :0.94726: (Sim:0h57m30s) 
CPU  0 inst:  266000005 cyc:  179897527 now IPC :1.42364: AVG IPC :1.47555: L2-Pf-HR :0.99753: L2-HR :0.94728: (Sim:0h57m45s) 
CPU  0 inst:  267000005 cyc:  180575448 now IPC :1.47510: AVG IPC :1.47555: L2-Pf-HR :0.99754: L2-HR :0.94731: (Sim:0h58m5s) 
CPU  0 inst:  268000003 cyc:  181247604 now IPC :1.48775: AVG IPC :1.47559: L2-Pf-HR :0.99754: L2-HR :0.94731: (Sim:0h58m25s) 
CPU  0 inst:  269000003 cyc:  181918133 now IPC :1.49136: AVG IPC :1.47565: L2-Pf-HR :0.99753: L2-HR :0.94733: (Sim:0h58m45s) 
CPU  0 inst:  270000003 cyc:  182589321 now IPC :1.48990: AVG IPC :1.47570: L2-Pf-HR :0.99754: L2-HR :0.94734: (Sim:0h59m5s) 
CPU  0 inst:  271000002 cyc:  183261127 now IPC :1.48852: AVG IPC :1.47575: L2-Pf-HR :0.99754: L2-HR :0.94736: (Sim:0h59m25s) 
CPU  0 inst:  272000004 cyc:  183948757 now IPC :1.45427: AVG IPC :1.47567: L2-Pf-HR :0.99753: L2-HR :0.94737: (Sim:0h59m45s) 
CPU  0 inst:  273000004 cyc:  184665363 now IPC :1.39547: AVG IPC :1.47536: L2-Pf-HR :0.99752: L2-HR :0.94736: (Sim:0h59m58s) 
CPU  0 inst:  274000004 cyc:  185328888 now IPC :1.50710: AVG IPC :1.47547: L2-Pf-HR :0.99753: L2-HR :0.94738: (Sim:1h0m13s) 
CPU  0 inst:  275000004 cyc:  185995012 now IPC :1.50122: AVG IPC :1.47556: L2-Pf-HR :0.99753: L2-HR :0.94739: (Sim:1h0m34s) 
CPU  0 inst:  276000003 cyc:  186661128 now IPC :1.50124: AVG IPC :1.47565: L2-Pf-HR :0.99753: L2-HR :0.94741: (Sim:1h0m54s) 
CPU  0 inst:  277000001 cyc:  187324291 now IPC :1.50792: AVG IPC :1.47577: L2-Pf-HR :0.99754: L2-HR :0.94742: (Sim:1h1m14s) 
CPU  0 inst:  278000001 cyc:  188021512 now IPC :1.43427: AVG IPC :1.47561: L2-Pf-HR :0.99752: L2-HR :0.94742: (Sim:1h1m35s) 
CPU  0 inst:  279000000 cyc:  188682664 now IPC :1.51251: AVG IPC :1.47574: L2-Pf-HR :0.99752: L2-HR :0.94744: (Sim:1h1m55s) 
CPU  0 inst:  280000002 cyc:  189338317 now IPC :1.52520: AVG IPC :1.47592: L2-Pf-HR :0.99753: L2-HR :0.94746: (Sim:1h2m14s) 
CPU  0 inst:  281000000 cyc:  189994466 now IPC :1.52404: AVG IPC :1.47608: L2-Pf-HR :0.99753: L2-HR :0.94748: (Sim:1h2m31s) 
CPU  0 inst:  282000004 cyc:  190651701 now IPC :1.52153: AVG IPC :1.47624: L2-Pf-HR :0.99753: L2-HR :0.94749: (Sim:1h2m52s) 
CPU  0 inst:  283000001 cyc:  191306578 now IPC :1.52700: AVG IPC :1.47642: L2-Pf-HR :0.99754: L2-HR :0.94751: (Sim:1h3m13s) 
CPU  0 inst:  284000001 cyc:  191985802 now IPC :1.47227: AVG IPC :1.47640: L2-Pf-HR :0.99752: L2-HR :0.94750: (Sim:1h3m34s) 
CPU  0 inst:  285000000 cyc:  192696907 now IPC :1.40626: AVG IPC :1.47614: L2-Pf-HR :0.99752: L2-HR :0.94751: (Sim:1h3m55s) 
CPU  0 inst:  286000000 cyc:  193368800 now IPC :1.48833: AVG IPC :1.47618: L2-Pf-HR :0.99753: L2-HR :0.94753: (Sim:1h4m15s) 
CPU  0 inst:  287000005 cyc:  194039482 now IPC :1.49103: AVG IPC :1.47624: L2-Pf-HR :0.99753: L2-HR :0.94754: (Sim:1h4m36s) 
CPU  0 inst:  288000000 cyc:  194710756 now IPC :1.48970: AVG IPC :1.47628: L2-Pf-HR :0.99754: L2-HR :0.94756: (Sim:1h4m56s) 
CPU  0 inst:  289000000 cyc:  195382364 now IPC :1.48896: AVG IPC :1.47633: L2-Pf-HR :0.99754: L2-HR :0.94758: (Sim:1h5m17s) 
CPU  0 inst:  290000000 cyc:  196089199 now IPC :1.41476: AVG IPC :1.47610: L2-Pf-HR :0.99754: L2-HR :0.94758: (Sim:1h5m36s) 
CPU  0 inst:  291000005 cyc:  196760901 now IPC :1.48876: AVG IPC :1.47615: L2-Pf-HR :0.99754: L2-HR :0.94760: (Sim:1h5m57s) 
CPU  0 inst:  292000004 cyc:  197433187 now IPC :1.48746: AVG IPC :1.47618: L2-Pf-HR :0.99754: L2-HR :0.94762: (Sim:1h6m17s) 
CPU  0 inst:  293000000 cyc:  198102809 now IPC :1.49337: AVG IPC :1.47624: L2-Pf-HR :0.99755: L2-HR :0.94764: (Sim:1h6m38s) 
CPU  0 inst:  294000003 cyc:  198771850 now IPC :1.49468: AVG IPC :1.47631: L2-Pf-HR :0.99755: L2-HR :0.94765: (Sim:1h6m57s) 
CPU  0 inst:  295000004 cyc:  199442931 now IPC :1.49013: AVG IPC :1.47635: L2-Pf-HR :0.99756: L2-HR :0.94766: (Sim:1h7m17s) 
CPU  0 inst:  296000004 cyc:  200151763 now IPC :1.41077: AVG IPC :1.47612: L2-Pf-HR :0.99754: L2-HR :0.94765: (Sim:1h7m38s) 
CPU  0 inst:  297000005 cyc:  200860738 now IPC :1.41049: AVG IPC :1.47589: L2-Pf-HR :0.99754: L2-HR :0.94766: (Sim:1h7m58s) 
CPU  0 inst:  298000001 cyc:  201534653 now IPC :1.48386: AVG IPC :1.47591: L2-Pf-HR :0.99755: L2-HR :0.94768: (Sim:1h8m17s) 
CPU  0 inst:  299000002 cyc:  202209158 now IPC :1.48257: AVG IPC :1.47594: L2-Pf-HR :0.99755: L2-HR :0.94769: (Sim:1h8m37s) 
CPU  0 inst:  300000002 cyc:  202881705 now IPC :1.48688: AVG IPC :1.47597: L2-Pf-HR :0.99755: L2-HR :0.94770: (Sim:1h8m57s) 
CPU  0 inst:  301000002 cyc:  203554880 now IPC :1.48550: AVG IPC :1.47600: L2-Pf-HR :0.99755: L2-HR :0.94772: (Sim:1h9m17s) 
CPU  0 inst:  302000002 cyc:  204267850 now IPC :1.40258: AVG IPC :1.47575: L2-Pf-HR :0.99755: L2-HR :0.94772: (Sim:1h9m36s) 
CPU  0 inst:  303000003 cyc:  204938257 now IPC :1.49163: AVG IPC :1.47580: L2-Pf-HR :0.99755: L2-HR :0.94774: (Sim:1h9m56s) 
CPU  0 inst:  304000002 cyc:  205609138 now IPC :1.49058: AVG IPC :1.47585: L2-Pf-HR :0.99755: L2-HR :0.94775: (Sim:1h10m13s) 
CPU  0 inst:  305000005 cyc:  206280514 now IPC :1.48948: AVG IPC :1.47589: L2-Pf-HR :0.99755: L2-HR :0.94777: (Sim:1h10m24s) 
CPU  0 inst:  306000000 cyc:  206952266 now IPC :1.48864: AVG IPC :1.47593: L2-Pf-HR :0.99755: L2-HR :0.94778: (Sim:1h10m44s) 
CPU  0 inst:  307000000 cyc:  207622991 now IPC :1.49092: AVG IPC :1.47598: L2-Pf-HR :0.99755: L2-HR :0.94779: (Sim:1h11m3s) 
CPU  0 inst:  308000003 cyc:  208310752 now IPC :1.45400: AVG IPC :1.47591: L2-Pf-HR :0.99755: L2-HR :0.94780: (Sim:1h11m21s) 
CPU  0 inst:  309000000 cyc:  208973497 now IPC :1.50887: AVG IPC :1.47601: L2-Pf-HR :0.99754: L2-HR :0.94767: (Sim:1h11m37s) 
CPU  0 inst:  310000004 cyc:  209651412 now IPC :1.47512: AVG IPC :1.47601: L2-Pf-HR :0.99754: L2-HR :0.94754: (Sim:1h11m56s) 
CPU  0 inst:  311000005 cyc:  210323644 now IPC :1.48758: AVG IPC :1.47605: L2-Pf-HR :0.99754: L2-HR :0.94742: (Sim:1h12m15s) 
CPU  0 inst:  312000002 cyc:  211050392 now IPC :1.37599: AVG IPC :1.47570: L2-Pf-HR :0.99752: L2-HR :0.94726: (Sim:1h12m34s) 
CPU  0 inst:  313000004 cyc:  211768503 now IPC :1.39255: AVG IPC :1.47542: L2-Pf-HR :0.99752: L2-HR :0.94726: (Sim:1h12m55s) 
CPU  0 inst:  314000001 cyc:  212458218 now IPC :1.44987: AVG IPC :1.47533: L2-Pf-HR :0.99752: L2-HR :0.94726: (Sim:1h13m15s) 
CPU  0 inst:  315000004 cyc:  213149093 now IPC :1.44744: AVG IPC :1.47524: L2-Pf-HR :0.99752: L2-HR :0.94726: (Sim:1h13m36s) 
CPU  0 inst:  316000000 cyc:  213839264 now IPC :1.44891: AVG IPC :1.47516: L2-Pf-HR :0.99752: L2-HR :0.94726: (Sim:1h13m56s) 
CPU  0 inst:  317000004 cyc:  214530195 now IPC :1.44733: AVG IPC :1.47507: L2-Pf-HR :0.99752: L2-HR :0.94726: (Sim:1h14m16s) 
CPU  0 inst:  318000002 cyc:  215239379 now IPC :1.41007: AVG IPC :1.47485: L2-Pf-HR :0.99752: L2-HR :0.94726: (Sim:1h14m37s) 
CPU  0 inst:  319000003 cyc:  215948752 now IPC :1.40970: AVG IPC :1.47464: L2-Pf-HR :0.99752: L2-HR :0.94726: (Sim:1h14m57s) 
CPU  0 inst:  320000001 cyc:  216639857 now IPC :1.44696: AVG IPC :1.47455: L2-Pf-HR :0.99752: L2-HR :0.94725: (Sim:1h15m18s) 
CPU  0 inst:  321000002 cyc:  217332223 now IPC :1.44432: AVG IPC :1.47445: L2-Pf-HR :0.99752: L2-HR :0.94725: (Sim:1h15m39s) 
CPU  0 inst:  322000005 cyc:  218024811 now IPC :1.44386: AVG IPC :1.47436: L2-Pf-HR :0.99751: L2-HR :0.94724: (Sim:1h15m59s) 
CPU  0 inst:  323000004 cyc:  218716970 now IPC :1.44475: AVG IPC :1.47426: L2-Pf-HR :0.99750: L2-HR :0.94724: (Sim:1h16m19s) 
CPU  0 inst:  324000005 cyc:  219415512 now IPC :1.43155: AVG IPC :1.47412: L2-Pf-HR :0.99748: L2-HR :0.94721: (Sim:1h16m40s) 
CPU  0 inst:  325000000 cyc:  220159372 now IPC :1.34433: AVG IPC :1.47368: L2-Pf-HR :0.99745: L2-HR :0.94718: (Sim:1h17m1s) 
CPU  0 inst:  326000003 cyc:  220831052 now IPC :1.48881: AVG IPC :1.47373: L2-Pf-HR :0.99745: L2-HR :0.94719: (Sim:1h17m21s) 
CPU  0 inst:  327000002 cyc:  221503035 now IPC :1.48813: AVG IPC :1.47377: L2-Pf-HR :0.99745: L2-HR :0.94720: (Sim:1h17m41s) 
CPU  0 inst:  328000000 cyc:  222176506 now IPC :1.48484: AVG IPC :1.47381: L2-Pf-HR :0.99745: L2-HR :0.94721: (Sim:1h18m2s) 
CPU  0 inst:  329000000 cyc:  222848111 now IPC :1.48897: AVG IPC :1.47385: L2-Pf-HR :0.99744: L2-HR :0.94721: (Sim:1h18m22s) 
CPU  0 inst:  330000000 cyc:  223519313 now IPC :1.48986: AVG IPC :1.47390: L2-Pf-HR :0.99743: L2-HR :0.94722: (Sim:1h18m41s) 
CPU  0 inst:  331000004 cyc:  224218585 now IPC :1.43006: AVG IPC :1.47376: L2-Pf-HR :0.99743: L2-HR :0.94723: (Sim:1h19m2s) 
CPU  0 inst:  332000003 cyc:  224877724 now IPC :1.51713: AVG IPC :1.47389: L2-Pf-HR :0.99743: L2-HR :0.94724: (Sim:1h19m20s) 
CPU  0 inst:  333000000 cyc:  225536391 now IPC :1.51821: AVG IPC :1.47402: L2-Pf-HR :0.99743: L2-HR :0.94725: (Sim:1h19m37s) 
CPU  0 inst:  334000004 cyc:  226195621 now IPC :1.51693: AVG IPC :1.47415: L2-Pf-HR :0.99743: L2-HR :0.94726: (Sim:1h19m55s) 
CPU  0 inst:  335000004 cyc:  226854571 now IPC :1.51757: AVG IPC :1.47427: L2-Pf-HR :0.99743: L2-HR :0.94728: (Sim:1h20m13s) 
CPU  0 inst:  336000004 cyc:  227514773 now IPC :1.51469: AVG IPC :1.47439: L2-Pf-HR :0.99744: L2-HR :0.94730: (Sim:1h20m33s) 
CPU  0 inst:  337000005 cyc:  228248324 now IPC :1.36323: AVG IPC :1.47403: L2-Pf-HR :0.99743: L2-HR :0.94728: (Sim:1h20m52s) 
CPU  0 inst:  338000002 cyc:  228916479 now IPC :1.49665: AVG IPC :1.47410: L2-Pf-HR :0.99743: L2-HR :0.94729: (Sim:1h21m10s) 
CPU  0 inst:  339000002 cyc:  229582927 now IPC :1.50049: AVG IPC :1.47418: L2-Pf-HR :0.99743: L2-HR :0.94731: (Sim:1h21m26s) 
CPU  0 inst:  340000002 cyc:  230248710 now IPC :1.50199: AVG IPC :1.47426: L2-Pf-HR :0.99744: L2-HR :0.94732: (Sim:1h21m46s) 
CPU  0 inst:  341000002 cyc:  230914701 now IPC :1.50152: AVG IPC :1.47434: L2-Pf-HR :0.99744: L2-HR :0.94733: (Sim:1h22m2s) 
CPU  0 inst:  342000002 cyc:  231581822 now IPC :1.49898: AVG IPC :1.47441: L2-Pf-HR :0.99744: L2-HR :0.94735: (Sim:1h22m21s) 
CPU  0 inst:  343000005 cyc:  232291195 now IPC :1.40970: AVG IPC :1.47421: L2-Pf-HR :0.99744: L2-HR :0.94736: (Sim:1h22m41s) 
CPU  0 inst:  344000002 cyc:  232961340 now IPC :1.49221: AVG IPC :1.47426: L2-Pf-HR :0.99744: L2-HR :0.94737: (Sim:1h23m1s) 
CPU  0 inst:  345000000 cyc:  233632822 now IPC :1.48924: AVG IPC :1.47430: L2-Pf-HR :0.99745: L2-HR :0.94739: (Sim:1h23m18s) 
CPU  0 inst:  346000000 cyc:  234302370 now IPC :1.49354: AVG IPC :1.47436: L2-Pf-HR :0.99745: L2-HR :0.94740: (Sim:1h23m38s) 
CPU  0 inst:  347000000 cyc:  234970370 now IPC :1.49701: AVG IPC :1.47442: L2-Pf-HR :0.99745: L2-HR :0.94742: (Sim:1h23m58s) 
CPU  0 inst:  348000000 cyc:  235641073 now IPC :1.49097: AVG IPC :1.47447: L2-Pf-HR :0.99746: L2-HR :0.94743: (Sim:1h24m18s) 
CPU  0 inst:  349000001 cyc:  236364065 now IPC :1.38314: AVG IPC :1.47419: L2-Pf-HR :0.99744: L2-HR :0.94742: (Sim:1h24m40s) 
CPU  0 inst:  350000001 cyc:  237034654 now IPC :1.49123: AVG IPC :1.47424: L2-Pf-HR :0.99745: L2-HR :0.94743: (Sim:1h25m0s) 
CPU  0 inst:  351000001 cyc:  237705720 now IPC :1.49017: AVG IPC :1.47429: L2-Pf-HR :0.99745: L2-HR :0.94744: (Sim:1h25m21s) 
CPU  0 inst:  352000002 cyc:  238377260 now IPC :1.48912: AVG IPC :1.47433: L2-Pf-HR :0.99745: L2-HR :0.94746: (Sim:1h25m42s) 
CPU  0 inst:  353000001 cyc:  239049232 now IPC :1.48816: AVG IPC :1.47437: L2-Pf-HR :0.99746: L2-HR :0.94746: (Sim:1h26m1s) 
CPU  0 inst:  354000000 cyc:  239724063 now IPC :1.48185: AVG IPC :1.47439: L2-Pf-HR :0.99745: L2-HR :0.94748: (Sim:1h26m22s) 
CPU  0 inst:  355000004 cyc:  240428938 now IPC :1.41870: AVG IPC :1.47422: L2-Pf-HR :0.99745: L2-HR :0.94748: (Sim:1h26m43s) 
CPU  0 inst:  356000005 cyc:  241098538 now IPC :1.49343: AVG IPC :1.47428: L2-Pf-HR :0.99746: L2-HR :0.94750: (Sim:1h27m3s) 
CPU  0 inst:  357000005 cyc:  241767249 now IPC :1.49541: AVG IPC :1.47434: L2-Pf-HR :0.99746: L2-HR :0.94751: (Sim:1h27m23s) 
CPU  0 inst:  358000005 cyc:  242437396 now IPC :1.49221: AVG IPC :1.47439: L2-Pf-HR :0.99746: L2-HR :0.94752: (Sim:1h27m43s) 
CPU  0 inst:  359000005 cyc:  243107655 now IPC :1.49196: AVG IPC :1.47443: L2-Pf-HR :0.99746: L2-HR :0.94754: (Sim:1h28m3s) 
CPU  0 inst:  360000004 cyc:  243781001 now IPC :1.48512: AVG IPC :1.47446: L2-Pf-HR :0.99747: L2-HR :0.94755: (Sim:1h28m23s) 
CPU  0 inst:  361000003 cyc:  244509785 now IPC :1.37215: AVG IPC :1.47416: L2-Pf-HR :0.99745: L2-HR :0.94753: (Sim:1h28m44s) 
CPU  0 inst:  362000003 cyc:  245169781 now IPC :1.51516: AVG IPC :1.47427: L2-Pf-HR :0.99745: L2-HR :0.94755: (Sim:1h29m4s) 
CPU  0 inst:  363000003 cyc:  245829180 now IPC :1.51653: AVG IPC :1.47438: L2-Pf-HR :0.99746: L2-HR :0.94755: (Sim:1h29m24s) 
CPU  0 inst:  364000003 cyc:  246487469 now IPC :1.51909: AVG IPC :1.47450: L2-Pf-HR :0.99746: L2-HR :0.94757: (Sim:1h29m44s) 
CPU  0 inst:  365000004 cyc:  247148093 now IPC :1.51372: AVG IPC :1.47461: L2-Pf-HR :0.99746: L2-HR :0.94758: (Sim:1h30m5s) 
CPU  0 inst:  366000000 cyc:  247813804 now IPC :1.50215: AVG IPC :1.47468: L2-Pf-HR :0.99746: L2-HR :0.94759: (Sim:1h30m26s) 
CPU  0 inst:  367000001 cyc:  248511233 now IPC :1.43384: AVG IPC :1.47457: L2-Pf-HR :0.99746: L2-HR :0.94760: (Sim:1h30m45s) 
CPU  0 inst:  368000001 cyc:  249179685 now IPC :1.49599: AVG IPC :1.47462: L2-Pf-HR :0.99746: L2-HR :0.94761: (Sim:1h31m0s) 
CPU  0 inst:  369000001 cyc:  249846924 now IPC :1.49871: AVG IPC :1.47469: L2-Pf-HR :0.99747: L2-HR :0.94763: (Sim:1h31m16s) 
CPU  0 inst:  370000001 cyc:  250514784 now IPC :1.49732: AVG IPC :1.47475: L2-Pf-HR :0.99747: L2-HR :0.94763: (Sim:1h31m34s) 
CPU  0 inst:  371000000 cyc:  251181646 now IPC :1.49956: AVG IPC :1.47482: L2-Pf-HR :0.99747: L2-HR :0.94765: (Sim:1h31m54s) 
CPU  0 inst:  372000005 cyc:  251849539 now IPC :1.49725: AVG IPC :1.47487: L2-Pf-HR :0.99747: L2-HR :0.94766: (Sim:1h32m13s) 
CPU  0 inst:  373000000 cyc:  252534735 now IPC :1.45943: AVG IPC :1.47483: L2-Pf-HR :0.99746: L2-HR :0.94756: (Sim:1h32m33s) 
CPU  0 inst:  374000000 cyc:  253200388 now IPC :1.50228: AVG IPC :1.47491: L2-Pf-HR :0.99746: L2-HR :0.94745: (Sim:1h32m52s) 
CPU  0 inst:  375000004 cyc:  253877071 now IPC :1.47780: AVG IPC :1.47491: L2-Pf-HR :0.99746: L2-HR :0.94735: (Sim:1h33m9s) 
CPU  0 inst:  376000000 cyc:  254542021 now IPC :1.50387: AVG IPC :1.47499: L2-Pf-HR :0.99746: L2-HR :0.94726: (Sim:1h33m27s) 
CPU  0 inst:  377000002 cyc:  255315086 now IPC :1.29355: AVG IPC :1.47444: L2-Pf-HR :0.99744: L2-HR :0.94721: (Sim:1h33m48s) 
CPU  0 inst:  378000001 cyc:  256004472 now IPC :1.45056: AVG IPC :1.47437: L2-Pf-HR :0.99744: L2-HR :0.94721: (Sim:1h34m7s) 
CPU  0 inst:  379000005 cyc:  256694471 now IPC :1.44928: AVG IPC :1.47431: L2-Pf-HR :0.99744: L2-HR :0.94720: (Sim:1h34m27s) 
CPU  0 inst:  380000000 cyc:  257383996 now IPC :1.45027: AVG IPC :1.47424: L2-Pf-HR :0.99744: L2-HR :0.94720: (Sim:1h34m46s) 
CPU  0 inst:  381000004 cyc:  258074015 now IPC :1.44924: AVG IPC :1.47417: L2-Pf-HR :0.99744: L2-HR :0.94720: (Sim:1h35m6s) 
CPU  0 inst:  382000002 cyc:  258763700 now IPC :1.44993: AVG IPC :1.47411: L2-Pf-HR :0.99745: L2-HR :0.94721: (Sim:1h35m25s) 
CPU  0 inst:  383000003 cyc:  259498531 now IPC :1.36086: AVG IPC :1.47379: L2-Pf-HR :0.99745: L2-HR :0.94720: (Sim:1h35m45s) 
CPU  0 inst:  384000000 cyc:  260191948 now IPC :1.44213: AVG IPC :1.47370: L2-Pf-HR :0.99744: L2-HR :0.94720: (Sim:1h36m5s) 
CPU  0 inst:  385000002 cyc:  260884978 now IPC :1.44294: AVG IPC :1.47362: L2-Pf-HR :0.99744: L2-HR :0.94720: (Sim:1h36m25s) 
CPU  0 inst:  386000002 cyc:  261579757 now IPC :1.43931: AVG IPC :1.47353: L2-Pf-HR :0.99744: L2-HR :0.94720: (Sim:1h36m46s) 
CPU  0 inst:  387000004 cyc:  262273071 now IPC :1.44235: AVG IPC :1.47345: L2-Pf-HR :0.99743: L2-HR :0.94718: (Sim:1h37m6s) 
CPU  0 inst:  388000005 cyc:  262966986 now IPC :1.44110: AVG IPC :1.47336: L2-Pf-HR :0.99743: L2-HR :0.94718: (Sim:1h37m27s) 
CPU  0 inst:  389000000 cyc:  263710542 now IPC :1.34488: AVG IPC :1.47300: L2-Pf-HR :0.99740: L2-HR :0.94715: (Sim:1h37m48s) 
CPU  0 inst:  390000001 cyc:  264375664 now IPC :1.50349: AVG IPC :1.47307: L2-Pf-HR :0.99741: L2-HR :0.94717: (Sim:1h38m6s) 
CPU  0 inst:  391000001 cyc:  265042504 now IPC :1.49961: AVG IPC :1.47314: L2-Pf-HR :0.99740: L2-HR :0.94717: (Sim:1h38m24s) 
CPU  0 inst:  392000001 cyc:  265709377 now IPC :1.49954: AVG IPC :1.47321: L2-Pf-HR :0.99740: L2-HR :0.94717: (Sim:1h38m44s) 
CPU  0 inst:  393000001 cyc:  266374455 now IPC :1.50358: AVG IPC :1.47328: L2-Pf-HR :0.99740: L2-HR :0.94719: (Sim:1h39m4s) 
CPU  0 inst:  394000001 cyc:  267042818 now IPC :1.49619: AVG IPC :1.47334: L2-Pf-HR :0.99740: L2-HR :0.94719: (Sim:1h39m24s) 
CPU  0 inst:  395000000 cyc:  267748982 now IPC :1.41610: AVG IPC :1.47319: L2-Pf-HR :0.99739: L2-HR :0.94720: (Sim:1h39m45s) 
CPU  0 inst:  396000005 cyc:  268417668 now IPC :1.49548: AVG IPC :1.47324: L2-Pf-HR :0.99739: L2-HR :0.94720: (Sim:1h40m2s) 
CPU  0 inst:  397000005 cyc:  269083848 now IPC :1.50110: AVG IPC :1.47331: L2-Pf-HR :0.99739: L2-HR :0.94721: (Sim:1h40m22s) 
CPU  0 inst:  398000005 cyc:  269750806 now IPC :1.49934: AVG IPC :1.47338: L2-Pf-HR :0.99739: L2-HR :0.94722: (Sim:1h40m42s) 
CPU  0 inst:  399000001 cyc:  270417851 now IPC :1.49914: AVG IPC :1.47344: L2-Pf-HR :0.99739: L2-HR :0.94723: (Sim:1h41m2s) 
CPU  0 inst:  400000002 cyc:  271083768 now IPC :1.50169: AVG IPC :1.47351: L2-Pf-HR :0.99740: L2-HR :0.94725: (Sim:1h41m22s) 
CPU  0 inst:  401000003 cyc:  271825081 now IPC :1.34896: AVG IPC :1.47317: L2-Pf-HR :0.99738: L2-HR :0.94723: (Sim:1h41m43s) 
CPU  0 inst:  402000003 cyc:  272498760 now IPC :1.48439: AVG IPC :1.47320: L2-Pf-HR :0.99739: L2-HR :0.94725: (Sim:1h42m1s) 
CPU  0 inst:  403000003 cyc:  273171717 now IPC :1.48598: AVG IPC :1.47323: L2-Pf-HR :0.99739: L2-HR :0.94726: (Sim:1h42m17s) 
CPU  0 inst:  404000003 cyc:  273845792 now IPC :1.48351: AVG IPC :1.47326: L2-Pf-HR :0.99739: L2-HR :0.94727: (Sim:1h42m35s) 
CPU  0 inst:  405000005 cyc:  274520071 now IPC :1.48307: AVG IPC :1.47328: L2-Pf-HR :0.99740: L2-HR :0.94728: (Sim:1h42m54s) 
CPU  0 inst:  406000001 cyc:  275194242 now IPC :1.48330: AVG IPC :1.47330: L2-Pf-HR :0.99739: L2-HR :0.94728: (Sim:1h43m14s) 
CPU  0 inst:  407000001 cyc:  275905171 now IPC :1.40661: AVG IPC :1.47313: L2-Pf-HR :0.99739: L2-HR :0.94729: (Sim:1h43m33s) 
CPU  0 inst:  408000001 cyc:  276578096 now IPC :1.48605: AVG IPC :1.47316: L2-Pf-HR :0.99739: L2-HR :0.94730: (Sim:1h43m52s) 
CPU  0 inst:  409000001 cyc:  277248596 now IPC :1.49142: AVG IPC :1.47321: L2-Pf-HR :0.99740: L2-HR :0.94732: (Sim:1h44m11s) 
CPU  0 inst:  410000004 cyc:  277918601 now IPC :1.49253: AVG IPC :1.47326: L2-Pf-HR :0.99740: L2-HR :0.94733: (Sim:1h44m28s) 
CPU  0 inst:  411000000 cyc:  278590768 now IPC :1.48772: AVG IPC :1.47329: L2-Pf-HR :0.99740: L2-HR :0.94733: (Sim:1h44m44s) 
CPU  0 inst:  412000005 cyc:  279262164 now IPC :1.48944: AVG IPC :1.47333: L2-Pf-HR :0.99741: L2-HR :0.94735: (Sim:1h45m4s) 
CPU  0 inst:  413000000 cyc:  279998242 now IPC :1.35854: AVG IPC :1.47303: L2-Pf-HR :0.99739: L2-HR :0.94734: (Sim:1h45m25s) 
CPU  0 inst:  414000000 cyc:  280669313 now IPC :1.49016: AVG IPC :1.47307: L2-Pf-HR :0.99740: L2-HR :0.94735: (Sim:1h45m45s) 
CPU  0 inst:  415000002 cyc:  281341232 now IPC :1.48828: AVG IPC :1.47310: L2-Pf-HR :0.99740: L2-HR :0.94736: (Sim:1h46m5s) 
CPU  0 inst:  416000001 cyc:  282013085 now IPC :1.48842: AVG IPC :1.47314: L2-Pf-HR :0.99740: L2-HR :0.94736: (Sim:1h46m24s) 
CPU  0 inst:  417000000 cyc:  282683850 now IPC :1.49083: AVG IPC :1.47318: L2-Pf-HR :0.99740: L2-HR :0.94738: (Sim:1h46m44s) 
CPU  0 inst:  418000000 cyc:  283357091 now IPC :1.48535: AVG IPC :1.47321: L2-Pf-HR :0.99740: L2-HR :0.94738: (Sim:1h47m4s) 
CPU  0 inst:  419000000 cyc:  284068849 now IPC :1.40497: AVG IPC :1.47304: L2-Pf-HR :0.99740: L2-HR :0.94740: (Sim:1h47m24s) 
CPU  0 inst:  420000000 cyc:  284742949 now IPC :1.48346: AVG IPC :1.47306: L2-Pf-HR :0.99740: L2-HR :0.94740: (Sim:1h47m38s) 
CPU  0 inst:  421000000 cyc:  285419404 now IPC :1.47829: AVG IPC :1.47308: L2-Pf-HR :0.99741: L2-HR :0.94741: (Sim:1h47m57s) 
CPU  0 inst:  422000002 cyc:  286094068 now IPC :1.48222: AVG IPC :1.47310: L2-Pf-HR :0.99741: L2-HR :0.94742: (Sim:1h48m17s) 
CPU  0 inst:  423000003 cyc:  286768404 now IPC :1.48294: AVG IPC :1.47312: L2-Pf-HR :0.99741: L2-HR :0.94743: (Sim:1h48m34s) 
CPU  0 inst:  424000004 cyc:  287442688 now IPC :1.48306: AVG IPC :1.47315: L2-Pf-HR :0.99741: L2-HR :0.94744: (Sim:1h48m54s) 
CPU  0 inst:  425000004 cyc:  288189335 now IPC :1.33932: AVG IPC :1.47280: L2-Pf-HR :0.99739: L2-HR :0.94743: (Sim:1h49m15s) 
CPU  0 inst:  426000004 cyc:  288863709 now IPC :1.48286: AVG IPC :1.47282: L2-Pf-HR :0.99740: L2-HR :0.94744: (Sim:1h49m32s) 
CPU  0 inst:  427000003 cyc:  289535172 now IPC :1.48928: AVG IPC :1.47286: L2-Pf-HR :0.99740: L2-HR :0.94745: (Sim:1h49m52s) 
CPU  0 inst:  428000005 cyc:  290210343 now IPC :1.48111: AVG IPC :1.47288: L2-Pf-HR :0.99740: L2-HR :0.94746: (Sim:1h50m12s) 
CPU  0 inst:  429000002 cyc:  290883143 now IPC :1.48632: AVG IPC :1.47291: L2-Pf-HR :0.99740: L2-HR :0.94747: (Sim:1h50m33s) 
CPU  0 inst:  430000002 cyc:  291554973 now IPC :1.48847: AVG IPC :1.47295: L2-Pf-HR :0.99740: L2-HR :0.94747: (Sim:1h50m53s) 
CPU  0 inst:  431000003 cyc:  292266725 now IPC :1.40499: AVG IPC :1.47278: L2-Pf-HR :0.99740: L2-HR :0.94748: (Sim:1h51m11s) 
CPU  0 inst:  432000002 cyc:  292940104 now IPC :1.48505: AVG IPC :1.47281: L2-Pf-HR :0.99741: L2-HR :0.94750: (Sim:1h51m31s) 
CPU  0 inst:  433000004 cyc:  293612940 now IPC :1.48625: AVG IPC :1.47284: L2-Pf-HR :0.99741: L2-HR :0.94750: (Sim:1h51m51s) 
CPU  0 inst:  434000001 cyc:  294284460 now IPC :1.48915: AVG IPC :1.47288: L2-Pf-HR :0.99741: L2-HR :0.94751: (Sim:1h52m11s) 
CPU  0 inst:  435000000 cyc:  294958702 now IPC :1.48315: AVG IPC :1.47290: L2-Pf-HR :0.99741: L2-HR :0.94752: (Sim:1h52m31s) 
CPU  0 inst:  436000000 cyc:  295631192 now IPC :1.48701: AVG IPC :1.47293: L2-Pf-HR :0.99741: L2-HR :0.94754: (Sim:1h52m51s) 
CPU  0 inst:  437000003 cyc:  296319936 now IPC :1.45192: AVG IPC :1.47288: L2-Pf-HR :0.99740: L2-HR :0.94746: (Sim:1h53m9s) 
CPU  0 inst:  438000003 cyc:  296987454 now IPC :1.49809: AVG IPC :1.47294: L2-Pf-HR :0.99740: L2-HR :0.94737: (Sim:1h53m24s) 
CPU  0 inst:  439000002 cyc:  297669922 now IPC :1.46527: AVG IPC :1.47292: L2-Pf-HR :0.99740: L2-HR :0.94729: (Sim:1h53m39s) 
CPU  0 inst:  440000004 cyc:  298339942 now IPC :1.49250: AVG IPC :1.47297: L2-Pf-HR :0.99740: L2-HR :0.94720: (Sim:1h53m58s) 
CPU  0 inst:  441000005 cyc:  299098305 now IPC :1.31863: AVG IPC :1.47257: L2-Pf-HR :0.99739: L2-HR :0.94715: (Sim:1h54m19s) 
CPU  0 inst:  442000001 cyc:  299775726 now IPC :1.47618: AVG IPC :1.47258: L2-Pf-HR :0.99739: L2-HR :0.94715: (Sim:1h54m39s) 
CPU  0 inst:  443000002 cyc:  300453078 now IPC :1.47634: AVG IPC :1.47259: L2-Pf-HR :0.99739: L2-HR :0.94715: (Sim:1h54m59s) 
CPU  0 inst:  444000000 cyc:  301128474 now IPC :1.48061: AVG IPC :1.47261: L2-Pf-HR :0.99739: L2-HR :0.94715: (Sim:1h55m20s) 
CPU  0 inst:  445000003 cyc:  301804374 now IPC :1.47951: AVG IPC :1.47262: L2-Pf-HR :0.99739: L2-HR :0.94715: (Sim:1h55m40s) 
CPU  0 inst:  446000002 cyc:  302481045 now IPC :1.47782: AVG IPC :1.47264: L2-Pf-HR :0.99739: L2-HR :0.94715: (Sim:1h56m0s) 
CPU  0 inst:  447000003 cyc:  303210811 now IPC :1.37030: AVG IPC :1.47239: L2-Pf-HR :0.99739: L2-HR :0.94715: (Sim:1h56m20s) 
CPU  0 inst:  448000001 cyc:  303904714 now IPC :1.44112: AVG IPC :1.47232: L2-Pf-HR :0.99739: L2-HR :0.94714: (Sim:1h56m40s) 
CPU  0 inst:  449000002 cyc:  304598454 now IPC :1.44146: AVG IPC :1.47225: L2-Pf-HR :0.99739: L2-HR :0.94715: (Sim:1h57m1s) 
CPU  0 inst:  450000005 cyc:  305294984 now IPC :1.43569: AVG IPC :1.47216: L2-Pf-HR :0.99738: L2-HR :0.94714: (Sim:1h57m21s) 
CPU  0 inst:  451000002 cyc:  305992939 now IPC :1.43275: AVG IPC :1.47207: L2-Pf-HR :0.99738: L2-HR :0.94713: (Sim:1h57m41s) 
CPU  0 inst:  452000004 cyc:  306686648 now IPC :1.44153: AVG IPC :1.47200: L2-Pf-HR :0.99737: L2-HR :0.94712: (Sim:1h58m1s) 
CPU  0 inst:  453000002 cyc:  307435745 now IPC :1.33494: AVG IPC :1.47167: L2-Pf-HR :0.99735: L2-HR :0.94711: (Sim:1h58m22s) 
CPU  0 inst:  454000002 cyc:  308109729 now IPC :1.48371: AVG IPC :1.47169: L2-Pf-HR :0.99736: L2-HR :0.94712: (Sim:1h58m42s) 
CPU  0 inst:  455000003 cyc:  308784003 now IPC :1.48308: AVG IPC :1.47172: L2-Pf-HR :0.99735: L2-HR :0.94712: (Sim:1h59m3s) 
CPU  0 inst:  456000001 cyc:  309456607 now IPC :1.48676: AVG IPC :1.47175: L2-Pf-HR :0.99735: L2-HR :0.94712: (Sim:1h59m23s) 
CPU  0 inst:  457000000 cyc:  310131983 now IPC :1.48066: AVG IPC :1.47177: L2-Pf-HR :0.99735: L2-HR :0.94713: (Sim:1h59m43s) 
CPU  0 inst:  458000000 cyc:  310807494 now IPC :1.48036: AVG IPC :1.47179: L2-Pf-HR :0.99735: L2-HR :0.94713: (Sim:2h0m3s) 
CPU  0 inst:  459000000 cyc:  311507954 now IPC :1.42763: AVG IPC :1.47169: L2-Pf-HR :0.99734: L2-HR :0.94713: (Sim:2h0m23s) 
CPU  0 inst:  460000000 cyc:  312167132 now IPC :1.51704: AVG IPC :1.47179: L2-Pf-HR :0.99734: L2-HR :0.94714: (Sim:2h0m42s) 
CPU  0 inst:  461000005 cyc:  312826606 now IPC :1.51637: AVG IPC :1.47188: L2-Pf-HR :0.99734: L2-HR :0.94716: (Sim:2h1m2s) 
CPU  0 inst:  462000002 cyc:  313485880 now IPC :1.51682: AVG IPC :1.47198: L2-Pf-HR :0.99734: L2-HR :0.94716: (Sim:2h1m20s) 
CPU  0 inst:  463000003 cyc:  314143339 now IPC :1.52101: AVG IPC :1.47208: L2-Pf-HR :0.99734: L2-HR :0.94717: (Sim:2h1m37s) 
CPU  0 inst:  464000004 cyc:  314802987 now IPC :1.51596: AVG IPC :1.47217: L2-Pf-HR :0.99735: L2-HR :0.94718: (Sim:2h1m56s) 
CPU  0 inst:  465000004 cyc:  315526502 now IPC :1.38214: AVG IPC :1.47196: L2-Pf-HR :0.99733: L2-HR :0.94717: (Sim:2h2m17s) 
CPU  0 inst:  466000001 cyc:  316184094 now IPC :1.52070: AVG IPC :1.47207: L2-Pf-HR :0.99734: L2-HR :0.94718: (Sim:2h2m37s) 
CPU  0 inst:  467000000 cyc:  316844481 now IPC :1.51426: AVG IPC :1.47215: L2-Pf-HR :0.99734: L2-HR :0.94719: (Sim:2h2m57s) 
CPU  0 inst:  468000000 cyc:  317503665 now IPC :1.51703: AVG IPC :1.47225: L2-Pf-HR :0.99734: L2-HR :0.94720: (Sim:2h3m16s) 
CPU  0 inst:  469000002 cyc:  318161994 now IPC :1.51900: AVG IPC :1.47234: L2-Pf-HR :0.99735: L2-HR :0.94721: (Sim:2h3m36s) 
CPU  0 inst:  470000002 cyc:  318819322 now IPC :1.52131: AVG IPC :1.47245: L2-Pf-HR :0.99735: L2-HR :0.94723: (Sim:2h3m55s) 
CPU  0 inst:  471000002 cyc:  319526309 now IPC :1.41445: AVG IPC :1.47232: L2-Pf-HR :0.99736: L2-HR :0.94724: (Sim:2h4m15s) 
CPU  0 inst:  472000001 cyc:  320197226 now IPC :1.49050: AVG IPC :1.47236: L2-Pf-HR :0.99736: L2-HR :0.94725: (Sim:2h4m34s) 
CPU  0 inst:  473000004 cyc:  320866747 now IPC :1.49361: AVG IPC :1.47240: L2-Pf-HR :0.99736: L2-HR :0.94726: (Sim:2h4m55s) 
CPU  0 inst:  474000000 cyc:  321538228 now IPC :1.48924: AVG IPC :1.47244: L2-Pf-HR :0.99736: L2-HR :0.94727: (Sim:2h5m13s) 
CPU  0 inst:  475000000 cyc:  322207805 now IPC :1.49348: AVG IPC :1.47248: L2-Pf-HR :0.99737: L2-HR :0.94728: (Sim:2h5m31s) 
CPU  0 inst:  476000000 cyc:  322878004 now IPC :1.49209: AVG IPC :1.47252: L2-Pf-HR :0.99737: L2-HR :0.94729: (Sim:2h5m49s) 
CPU  0 inst:  477000000 cyc:  323606221 now IPC :1.37322: AVG IPC :1.47230: L2-Pf-HR :0.99736: L2-HR :0.94728: (Sim:2h6m3s) 
CPU  0 inst:  478000000 cyc:  324268328 now IPC :1.51033: AVG IPC :1.47237: L2-Pf-HR :0.99736: L2-HR :0.94729: (Sim:2h6m19s) 
CPU  0 inst:  479000000 cyc:  324929426 now IPC :1.51263: AVG IPC :1.47246: L2-Pf-HR :0.99736: L2-HR :0.94730: (Sim:2h6m39s) 
CPU  0 inst:  480000001 cyc:  325588942 now IPC :1.51626: AVG IPC :1.47254: L2-Pf-HR :0.99737: L2-HR :0.94731: (Sim:2h6m58s) 
CPU  0 inst:  481000001 cyc:  326250924 now IPC :1.51062: AVG IPC :1.47262: L2-Pf-HR :0.99737: L2-HR :0.94732: (Sim:2h7m18s) 
CPU  0 inst:  482000001 cyc:  326912629 now IPC :1.51125: AVG IPC :1.47270: L2-Pf-HR :0.99737: L2-HR :0.94733: (Sim:2h7m37s) 
CPU  0 inst:  483000003 cyc:  327616630 now IPC :1.42046: AVG IPC :1.47259: L2-Pf-HR :0.99737: L2-HR :0.94734: (Sim:2h7m56s) 
CPU  0 inst:  484000000 cyc:  328284960 now IPC :1.49626: AVG IPC :1.47264: L2-Pf-HR :0.99737: L2-HR :0.94735: (Sim:2h8m16s) 
CPU  0 inst:  485000004 cyc:  328952388 now IPC :1.49829: AVG IPC :1.47269: L2-Pf-HR :0.99737: L2-HR :0.94736: (Sim:2h8m35s) 
CPU  0 inst:  486000004 cyc:  329619167 now IPC :1.49975: AVG IPC :1.47274: L2-Pf-HR :0.99737: L2-HR :0.94736: (Sim:2h8m55s) 
CPU  0 inst:  487000002 cyc:  330285216 now IPC :1.50139: AVG IPC :1.47280: L2-Pf-HR :0.99738: L2-HR :0.94737: (Sim:2h9m15s) 
CPU  0 inst:  488000002 cyc:  330954154 now IPC :1.49491: AVG IPC :1.47285: L2-Pf-HR :0.99738: L2-HR :0.94738: (Sim:2h9m30s) 
CPU  0 inst:  489000005 cyc:  331691019 now IPC :1.35710: AVG IPC :1.47259: L2-Pf-HR :0.99737: L2-HR :0.94737: (Sim:2h9m47s) 
CPU  0 inst:  490000005 cyc:  332356312 now IPC :1.50310: AVG IPC :1.47265: L2-Pf-HR :0.99737: L2-HR :0.94738: (Sim:2h10m6s) 
CPU  0 inst:  491000005 cyc:  333024765 now IPC :1.49599: AVG IPC :1.47270: L2-Pf-HR :0.99738: L2-HR :0.94739: (Sim:2h10m26s) 
CPU  0 inst:  492000000 cyc:  333690146 now IPC :1.50289: AVG IPC :1.47276: L2-Pf-HR :0.99738: L2-HR :0.94740: (Sim:2h10m46s) 
CPU  0 inst:  493000003 cyc:  334357148 now IPC :1.49925: AVG IPC :1.47281: L2-Pf-HR :0.99738: L2-HR :0.94741: (Sim:2h11m6s) 
CPU  0 inst:  494000004 cyc:  335025967 now IPC :1.49517: AVG IPC :1.47285: L2-Pf-HR :0.99738: L2-HR :0.94742: (Sim:2h11m27s) 
CPU  0 inst:  495000002 cyc:  335735199 now IPC :1.40997: AVG IPC :1.47272: L2-Pf-HR :0.99738: L2-HR :0.94742: (Sim:2h11m47s) 
xz: 770-tot_memTraces_v5/120-subBillion_s2048_LLM_Arch/memTraces[1979000000]_FE_[GPT-Neo-125M]_[h12]_[s2048]_[d64].champsim.9.xz: Unexpected end of input
*** Reached end of trace for Core: 0 Repeating trace: 770-tot_memTraces_v5/120-subBillion_s2048_LLM_Arch/memTraces[1979000000]_FE_[GPT-Neo-125M]_[h12]_[s2048]_[d64].champsim.9.xz
CPU  0 inst:  496000003 cyc:  336643365 now IPC :1.10112: AVG IPC :1.47172: L2-Pf-HR :0.99736: L2-HR :0.94737: (Sim:2h12m7s) 
CPU  0 inst:  497000001 cyc:  337336074 now IPC :1.44360: AVG IPC :1.47166: L2-Pf-HR :0.99736: L2-HR :0.94737: (Sim:2h12m28s) 
CPU  0 inst:  498000005 cyc:  338030838 now IPC :1.43934: AVG IPC :1.47159: L2-Pf-HR :0.99736: L2-HR :0.94736: (Sim:2h12m48s) 
CPU  0 inst:  499000000 cyc:  338724076 now IPC :1.44250: AVG IPC :1.47153: L2-Pf-HR :0.99736: L2-HR :0.94737: (Sim:2h13m8s) 
CPU  0 inst:  500000003 cyc:  339418785 now IPC :1.43946: AVG IPC :1.47147: L2-Pf-HR :0.99736: L2-HR :0.94736: (Sim:2h13m29s) 
CPU  0 inst:  501000005 cyc:  340109296 now IPC :1.44821: AVG IPC :1.47142: L2-Pf-HR :0.99736: L2-HR :0.94736: (Sim:2h13m49s) 
CPU  0 inst:  502000002 cyc:  340838543 now IPC :1.37127: AVG IPC :1.47120: L2-Pf-HR :0.99737: L2-HR :0.94736: (Sim:2h14m10s) 
CPU  0 inst:  503000002 cyc:  341526754 now IPC :1.45304: AVG IPC :1.47117: L2-Pf-HR :0.99736: L2-HR :0.94736: (Sim:2h14m27s) 
CPU  0 inst:  504000002 cyc:  342217336 now IPC :1.44805: AVG IPC :1.47112: L2-Pf-HR :0.99735: L2-HR :0.94734: (Sim:2h14m48s) 
CPU  0 inst:  505000000 cyc:  342907951 now IPC :1.44798: AVG IPC :1.47107: L2-Pf-HR :0.99734: L2-HR :0.94733: (Sim:2h15m8s) 
CPU  0 inst:  506000000 cyc:  343594954 now IPC :1.45560: AVG IPC :1.47104: L2-Pf-HR :0.99733: L2-HR :0.94731: (Sim:2h15m28s) 
CPU  0 inst:  507000005 cyc:  344284841 now IPC :1.44952: AVG IPC :1.47100: L2-Pf-HR :0.99732: L2-HR :0.94730: (Sim:2h15m49s) 
CPU  0 inst:  508000003 cyc:  345050476 now IPC :1.30610: AVG IPC :1.47063: L2-Pf-HR :0.99730: L2-HR :0.94727: (Sim:2h16m10s) 
CPU  0 inst:  509000003 cyc:  345724148 now IPC :1.48440: AVG IPC :1.47066: L2-Pf-HR :0.99729: L2-HR :0.94727: (Sim:2h16m30s) 
CPU  0 inst:  510000000 cyc:  346396367 now IPC :1.48761: AVG IPC :1.47069: L2-Pf-HR :0.99729: L2-HR :0.94727: (Sim:2h16m50s) 
CPU  0 inst:  511000001 cyc:  347070329 now IPC :1.48376: AVG IPC :1.47072: L2-Pf-HR :0.99729: L2-HR :0.94728: (Sim:2h17m10s) 
CPU  0 inst:  512000003 cyc:  347744146 now IPC :1.48409: AVG IPC :1.47074: L2-Pf-HR :0.99729: L2-HR :0.94728: (Sim:2h17m31s) 
CPU  0 inst:  513000000 cyc:  348416879 now IPC :1.48647: AVG IPC :1.47077: L2-Pf-HR :0.99729: L2-HR :0.94729: (Sim:2h17m51s) 
CPU  0 inst:  514000001 cyc:  349128176 now IPC :1.40588: AVG IPC :1.47064: L2-Pf-HR :0.99729: L2-HR :0.94730: (Sim:2h18m9s) 
CPU  0 inst:  515000000 cyc:  349798510 now IPC :1.49179: AVG IPC :1.47068: L2-Pf-HR :0.99730: L2-HR :0.94731: (Sim:2h18m27s) 
CPU  0 inst:  516000005 cyc:  350469480 now IPC :1.49039: AVG IPC :1.47072: L2-Pf-HR :0.99729: L2-HR :0.94731: (Sim:2h18m47s) 
CPU  0 inst:  517000000 cyc:  351138883 now IPC :1.49386: AVG IPC :1.47076: L2-Pf-HR :0.99729: L2-HR :0.94732: (Sim:2h19m7s) 
CPU  0 inst:  518000000 cyc:  351811267 now IPC :1.48725: AVG IPC :1.47080: L2-Pf-HR :0.99730: L2-HR :0.94733: (Sim:2h19m23s) 
CPU  0 inst:  519000005 cyc:  352482912 now IPC :1.48889: AVG IPC :1.47083: L2-Pf-HR :0.99730: L2-HR :0.94734: (Sim:2h19m35s) 
CPU  0 inst:  520000005 cyc:  353219088 now IPC :1.35837: AVG IPC :1.47060: L2-Pf-HR :0.99729: L2-HR :0.94733: (Sim:2h19m53s) 
CPU  0 inst:  521000000 cyc:  353886834 now IPC :1.49757: AVG IPC :1.47065: L2-Pf-HR :0.99729: L2-HR :0.94734: (Sim:2h20m11s) 
CPU  0 inst:  522000000 cyc:  354551072 now IPC :1.50548: AVG IPC :1.47071: L2-Pf-HR :0.99730: L2-HR :0.94735: (Sim:2h20m30s) 
CPU  0 inst:  523000005 cyc:  355215686 now IPC :1.50464: AVG IPC :1.47078: L2-Pf-HR :0.99730: L2-HR :0.94735: (Sim:2h20m49s) 
CPU  0 inst:  524000002 cyc:  355882477 now IPC :1.49972: AVG IPC :1.47083: L2-Pf-HR :0.99730: L2-HR :0.94736: (Sim:2h21m8s) 
CPU  0 inst:  525000003 cyc:  356547122 now IPC :1.50456: AVG IPC :1.47089: L2-Pf-HR :0.99730: L2-HR :0.94737: (Sim:2h21m27s) 
CPU  0 inst:  526000003 cyc:  357245779 now IPC :1.43132: AVG IPC :1.47082: L2-Pf-HR :0.99730: L2-HR :0.94737: (Sim:2h21m47s) 
CPU  0 inst:  527000001 cyc:  357900374 now IPC :1.52766: AVG IPC :1.47092: L2-Pf-HR :0.99730: L2-HR :0.94738: (Sim:2h22m6s) 
CPU  0 inst:  528000001 cyc:  358557252 now IPC :1.52235: AVG IPC :1.47101: L2-Pf-HR :0.99731: L2-HR :0.94739: (Sim:2h22m26s) 
CPU  0 inst:  529000001 cyc:  359213455 now IPC :1.52392: AVG IPC :1.47111: L2-Pf-HR :0.99731: L2-HR :0.94740: (Sim:2h22m46s) 
CPU  0 inst:  530000001 cyc:  359868969 now IPC :1.52552: AVG IPC :1.47121: L2-Pf-HR :0.99731: L2-HR :0.94741: (Sim:2h23m6s) 
CPU  0 inst:  531000001 cyc:  360525172 now IPC :1.52392: AVG IPC :1.47131: L2-Pf-HR :0.99731: L2-HR :0.94742: (Sim:2h23m26s) 
CPU  0 inst:  532000002 cyc:  361247412 now IPC :1.38458: AVG IPC :1.47113: L2-Pf-HR :0.99730: L2-HR :0.94741: (Sim:2h23m47s) 
CPU  0 inst:  533000002 cyc:  361918230 now IPC :1.49072: AVG IPC :1.47117: L2-Pf-HR :0.99731: L2-HR :0.94742: (Sim:2h24m7s) 
CPU  0 inst:  534000001 cyc:  362590048 now IPC :1.48850: AVG IPC :1.47120: L2-Pf-HR :0.99731: L2-HR :0.94743: (Sim:2h24m26s) 
CPU  0 inst:  535000004 cyc:  363263089 now IPC :1.48580: AVG IPC :1.47123: L2-Pf-HR :0.99731: L2-HR :0.94743: (Sim:2h24m44s) 
CPU  0 inst:  536000000 cyc:  363933618 now IPC :1.49135: AVG IPC :1.47127: L2-Pf-HR :0.99732: L2-HR :0.94744: (Sim:2h25m3s) 
CPU  0 inst:  537000002 cyc:  364602993 now IPC :1.49393: AVG IPC :1.47131: L2-Pf-HR :0.99732: L2-HR :0.94746: (Sim:2h25m21s) 
CPU  0 inst:  538000002 cyc:  365313566 now IPC :1.40731: AVG IPC :1.47118: L2-Pf-HR :0.99732: L2-HR :0.94746: (Sim:2h25m40s) 
CPU  0 inst:  539000000 cyc:  365983297 now IPC :1.49313: AVG IPC :1.47122: L2-Pf-HR :0.99732: L2-HR :0.94747: (Sim:2h25m59s) 
CPU  0 inst:  540000002 cyc:  366653999 now IPC :1.49098: AVG IPC :1.47126: L2-Pf-HR :0.99732: L2-HR :0.94748: (Sim:2h26m18s) 
CPU  0 inst:  541000000 cyc:  367324718 now IPC :1.49093: AVG IPC :1.47130: L2-Pf-HR :0.99733: L2-HR :0.94749: (Sim:2h26m36s) 
CPU  0 inst:  542000000 cyc:  367995212 now IPC :1.49144: AVG IPC :1.47133: L2-Pf-HR :0.99733: L2-HR :0.94749: (Sim:2h26m53s) 
CPU  0 inst:  543000000 cyc:  368664844 now IPC :1.49336: AVG IPC :1.47137: L2-Pf-HR :0.99733: L2-HR :0.94750: (Sim:2h27m11s) 
CPU  0 inst:  544000004 cyc:  369409936 now IPC :1.34212: AVG IPC :1.47111: L2-Pf-HR :0.99733: L2-HR :0.94750: (Sim:2h27m31s) 
CPU  0 inst:  545000003 cyc:  370085022 now IPC :1.48129: AVG IPC :1.47113: L2-Pf-HR :0.99733: L2-HR :0.94750: (Sim:2h27m50s) 
CPU  0 inst:  546000004 cyc:  370758025 now IPC :1.48588: AVG IPC :1.47116: L2-Pf-HR :0.99733: L2-HR :0.94751: (Sim:2h28m9s) 
CPU  0 inst:  547000004 cyc:  371431056 now IPC :1.48582: AVG IPC :1.47118: L2-Pf-HR :0.99733: L2-HR :0.94752: (Sim:2h28m28s) 
CPU  0 inst:  548000004 cyc:  372104735 now IPC :1.48439: AVG IPC :1.47121: L2-Pf-HR :0.99734: L2-HR :0.94753: (Sim:2h28m43s) 
CPU  0 inst:  549000004 cyc:  372778144 now IPC :1.48498: AVG IPC :1.47123: L2-Pf-HR :0.99734: L2-HR :0.94753: (Sim:2h29m0s) 
CPU  0 inst:  550000003 cyc:  373488956 now IPC :1.40684: AVG IPC :1.47111: L2-Pf-HR :0.99734: L2-HR :0.94753: (Sim:2h29m14s) 
CPU  0 inst:  551000004 cyc:  374160775 now IPC :1.48850: AVG IPC :1.47114: L2-Pf-HR :0.99734: L2-HR :0.94754: (Sim:2h29m30s) 
CPU  0 inst:  552000001 cyc:  374832745 now IPC :1.48816: AVG IPC :1.47117: L2-Pf-HR :0.99734: L2-HR :0.94755: (Sim:2h29m50s) 
CPU  0 inst:  553000000 cyc:  375502848 now IPC :1.49231: AVG IPC :1.47121: L2-Pf-HR :0.99734: L2-HR :0.94756: (Sim:2h30m8s) 
CPU  0 inst:  554000002 cyc:  376172747 now IPC :1.49277: AVG IPC :1.47125: L2-Pf-HR :0.99734: L2-HR :0.94757: (Sim:2h30m28s) 
CPU  0 inst:  555000002 cyc:  376845327 now IPC :1.48681: AVG IPC :1.47127: L2-Pf-HR :0.99734: L2-HR :0.94757: (Sim:2h30m48s) 
CPU  0 inst:  556000000 cyc:  377532226 now IPC :1.45582: AVG IPC :1.47125: L2-Pf-HR :0.99734: L2-HR :0.94755: (Sim:2h31m9s) 
CPU  0 inst:  557000001 cyc:  378196618 now IPC :1.50514: AVG IPC :1.47131: L2-Pf-HR :0.99734: L2-HR :0.94748: (Sim:2h31m28s) 
CPU  0 inst:  558000001 cyc:  378875403 now IPC :1.47322: AVG IPC :1.47131: L2-Pf-HR :0.99734: L2-HR :0.94741: (Sim:2h31m46s) 
CPU  0 inst:  559000003 cyc:  379546003 now IPC :1.49120: AVG IPC :1.47134: L2-Pf-HR :0.99734: L2-HR :0.94735: (Sim:2h32m4s) 
CPU  0 inst:  560000003 cyc:  380309316 now IPC :1.31008: AVG IPC :1.47102: L2-Pf-HR :0.99733: L2-HR :0.94728: (Sim:2h32m25s) 
CPU  0 inst:  561000001 cyc:  380994668 now IPC :1.45910: AVG IPC :1.47100: L2-Pf-HR :0.99733: L2-HR :0.94727: (Sim:2h32m46s) 
CPU  0 inst:  562000002 cyc:  381685399 now IPC :1.44774: AVG IPC :1.47096: L2-Pf-HR :0.99733: L2-HR :0.94727: (Sim:2h33m6s) 
CPU  0 inst:  563000000 cyc:  382377191 now IPC :1.44552: AVG IPC :1.47091: L2-Pf-HR :0.99733: L2-HR :0.94727: (Sim:2h33m27s) 
CPU  0 inst:  564000000 cyc:  383067815 now IPC :1.44797: AVG IPC :1.47087: L2-Pf-HR :0.99733: L2-HR :0.94727: (Sim:2h33m47s) 
CPU  0 inst:  565000005 cyc:  383759285 now IPC :1.44620: AVG IPC :1.47082: L2-Pf-HR :0.99733: L2-HR :0.94727: (Sim:2h34m7s) 
CPU  0 inst:  566000005 cyc:  384488599 now IPC :1.37115: AVG IPC :1.47064: L2-Pf-HR :0.99733: L2-HR :0.94727: (Sim:2h34m27s) 
CPU  0 inst:  567000001 cyc:  385177883 now IPC :1.45078: AVG IPC :1.47060: L2-Pf-HR :0.99733: L2-HR :0.94727: (Sim:2h34m47s) 
CPU  0 inst:  568000002 cyc:  385869526 now IPC :1.44583: AVG IPC :1.47055: L2-Pf-HR :0.99733: L2-HR :0.94727: (Sim:2h35m7s) 
CPU  0 inst:  569000000 cyc:  386560581 now IPC :1.44706: AVG IPC :1.47051: L2-Pf-HR :0.99733: L2-HR :0.94727: (Sim:2h35m21s) 
CPU  0 inst:  570000003 cyc:  387253101 now IPC :1.44401: AVG IPC :1.47047: L2-Pf-HR :0.99733: L2-HR :0.94726: (Sim:2h35m41s) 
CPU  0 inst:  571000001 cyc:  387947592 now IPC :1.43990: AVG IPC :1.47041: L2-Pf-HR :0.99732: L2-HR :0.94726: (Sim:2h36m1s) 
CPU  0 inst:  572000004 cyc:  388713124 now IPC :1.30629: AVG IPC :1.47009: L2-Pf-HR :0.99730: L2-HR :0.94722: (Sim:2h36m20s) 
CPU  0 inst:  573000003 cyc:  389383776 now IPC :1.49108: AVG IPC :1.47012: L2-Pf-HR :0.99730: L2-HR :0.94723: (Sim:2h36m40s) 
CPU  0 inst:  574000001 cyc:  390057006 now IPC :1.48537: AVG IPC :1.47015: L2-Pf-HR :0.99730: L2-HR :0.94723: (Sim:2h37m0s) 
CPU  0 inst:  575000002 cyc:  390729005 now IPC :1.48810: AVG IPC :1.47018: L2-Pf-HR :0.99730: L2-HR :0.94724: (Sim:2h37m20s) 
CPU  0 inst:  576000002 cyc:  391400449 now IPC :1.48933: AVG IPC :1.47021: L2-Pf-HR :0.99730: L2-HR :0.94724: (Sim:2h37m40s) 
CPU  0 inst:  577000002 cyc:  392073867 now IPC :1.48496: AVG IPC :1.47024: L2-Pf-HR :0.99730: L2-HR :0.94725: (Sim:2h38m0s) 
CPU  0 inst:  578000002 cyc:  392781274 now IPC :1.41361: AVG IPC :1.47014: L2-Pf-HR :0.99729: L2-HR :0.94725: (Sim:2h38m20s) 
CPU  0 inst:  579000005 cyc:  393440729 now IPC :1.51641: AVG IPC :1.47021: L2-Pf-HR :0.99729: L2-HR :0.94725: (Sim:2h38m36s) 
CPU  0 inst:  580000000 cyc:  394098602 now IPC :1.52004: AVG IPC :1.47030: L2-Pf-HR :0.99729: L2-HR :0.94726: (Sim:2h38m53s) 
CPU  0 inst:  581000000 cyc:  394758247 now IPC :1.51597: AVG IPC :1.47037: L2-Pf-HR :0.99729: L2-HR :0.94727: (Sim:2h39m13s) 
CPU  0 inst:  582000000 cyc:  395417430 now IPC :1.51703: AVG IPC :1.47045: L2-Pf-HR :0.99729: L2-HR :0.94727: (Sim:2h39m33s) 
CPU  0 inst:  583000000 cyc:  396075320 now IPC :1.52001: AVG IPC :1.47053: L2-Pf-HR :0.99730: L2-HR :0.94728: (Sim:2h39m52s) 
CPU  0 inst:  584000001 cyc:  396808149 now IPC :1.36458: AVG IPC :1.47034: L2-Pf-HR :0.99730: L2-HR :0.94727: (Sim:2h40m13s) 
CPU  0 inst:  585000003 cyc:  397474618 now IPC :1.50045: AVG IPC :1.47039: L2-Pf-HR :0.99730: L2-HR :0.94728: (Sim:2h40m32s) 
CPU  0 inst:  586000004 cyc:  398141514 now IPC :1.49949: AVG IPC :1.47044: L2-Pf-HR :0.99730: L2-HR :0.94729: (Sim:2h40m51s) 
CPU  0 inst:  587000004 cyc:  398808427 now IPC :1.49945: AVG IPC :1.47049: L2-Pf-HR :0.99730: L2-HR :0.94730: (Sim:2h41m11s) 
CPU  0 inst:  588000004 cyc:  399475479 now IPC :1.49913: AVG IPC :1.47053: L2-Pf-HR :0.99731: L2-HR :0.94731: (Sim:2h41m30s) 
CPU  0 inst:  589000005 cyc:  400141878 now IPC :1.50060: AVG IPC :1.47058: L2-Pf-HR :0.99731: L2-HR :0.94731: (Sim:2h41m49s) 
CPU  0 inst:  590000001 cyc:  400846558 now IPC :1.41908: AVG IPC :1.47049: L2-Pf-HR :0.99731: L2-HR :0.94732: (Sim:2h42m8s) 
CPU  0 inst:  591000004 cyc:  401518718 now IPC :1.48775: AVG IPC :1.47052: L2-Pf-HR :0.99731: L2-HR :0.94733: (Sim:2h42m28s) 
CPU  0 inst:  592000002 cyc:  402189009 now IPC :1.49189: AVG IPC :1.47056: L2-Pf-HR :0.99731: L2-HR :0.94734: (Sim:2h42m48s) 
CPU  0 inst:  593000002 cyc:  402858497 now IPC :1.49368: AVG IPC :1.47060: L2-Pf-HR :0.99731: L2-HR :0.94735: (Sim:2h43m8s) 
CPU  0 inst:  594000002 cyc:  403529420 now IPC :1.49048: AVG IPC :1.47063: L2-Pf-HR :0.99731: L2-HR :0.94735: (Sim:2h43m28s) 
CPU  0 inst:  595000002 cyc:  404198309 now IPC :1.49502: AVG IPC :1.47067: L2-Pf-HR :0.99732: L2-HR :0.94736: (Sim:2h43m48s) 
CPU  0 inst:  596000005 cyc:  404923110 now IPC :1.37969: AVG IPC :1.47051: L2-Pf-HR :0.99731: L2-HR :0.94735: (Sim:2h44m8s) 
CPU  0 inst:  597000000 cyc:  405594541 now IPC :1.48935: AVG IPC :1.47054: L2-Pf-HR :0.99732: L2-HR :0.94736: (Sim:2h44m28s) 
CPU  0 inst:  598000003 cyc:  406266581 now IPC :1.48801: AVG IPC :1.47057: L2-Pf-HR :0.99732: L2-HR :0.94737: (Sim:2h44m48s) 
CPU  0 inst:  599000003 cyc:  406937070 now IPC :1.49145: AVG IPC :1.47060: L2-Pf-HR :0.99732: L2-HR :0.94737: (Sim:2h45m8s) 
CPU  0 inst:  600000000 cyc:  407607599 now IPC :1.49136: AVG IPC :1.47064: L2-Pf-HR :0.99732: L2-HR :0.94738: (Sim:2h45m29s) 
CPU  0 inst:  601000005 cyc:  408281247 now IPC :1.48446: AVG IPC :1.47066: L2-Pf-HR :0.99732: L2-HR :0.94739: (Sim:2h45m45s) 
CPU  0 inst:  602000000 cyc:  408989959 now IPC :1.41100: AVG IPC :1.47056: L2-Pf-HR :0.99732: L2-HR :0.94740: (Sim:2h45m58s) 
CPU  0 inst:  603000003 cyc:  409658628 now IPC :1.49551: AVG IPC :1.47060: L2-Pf-HR :0.99732: L2-HR :0.94740: (Sim:2h46m14s) 
CPU  0 inst:  604000001 cyc:  410328289 now IPC :1.49329: AVG IPC :1.47063: L2-Pf-HR :0.99733: L2-HR :0.94741: (Sim:2h46m34s) 
CPU  0 inst:  605000001 cyc:  410998691 now IPC :1.49164: AVG IPC :1.47067: L2-Pf-HR :0.99733: L2-HR :0.94742: (Sim:2h46m54s) 
CPU  0 inst:  606000001 cyc:  411667716 now IPC :1.49471: AVG IPC :1.47071: L2-Pf-HR :0.99733: L2-HR :0.94742: (Sim:2h47m14s) 
CPU  0 inst:  607000004 cyc:  412337597 now IPC :1.49281: AVG IPC :1.47074: L2-Pf-HR :0.99733: L2-HR :0.94743: (Sim:2h47m34s) 
CPU  0 inst:  608000005 cyc:  413081884 now IPC :1.34357: AVG IPC :1.47051: L2-Pf-HR :0.99733: L2-HR :0.94742: (Sim:2h47m51s) 
CPU  0 inst:  609000005 cyc:  413739746 now IPC :1.52008: AVG IPC :1.47059: L2-Pf-HR :0.99733: L2-HR :0.94743: (Sim:2h48m7s) 
CPU  0 inst:  610000005 cyc:  414398404 now IPC :1.51824: AVG IPC :1.47067: L2-Pf-HR :0.99733: L2-HR :0.94744: (Sim:2h48m27s) 
CPU  0 inst:  611000005 cyc:  415058912 now IPC :1.51399: AVG IPC :1.47074: L2-Pf-HR :0.99733: L2-HR :0.94744: (Sim:2h48m47s) 
CPU  0 inst:  612000002 cyc:  415717729 now IPC :1.51787: AVG IPC :1.47081: L2-Pf-HR :0.99734: L2-HR :0.94746: (Sim:2h49m7s) 
CPU  0 inst:  613000002 cyc:  416377523 now IPC :1.51562: AVG IPC :1.47088: L2-Pf-HR :0.99734: L2-HR :0.94746: (Sim:2h49m27s) 
CPU  0 inst:  614000005 cyc:  417076824 now IPC :1.43000: AVG IPC :1.47081: L2-Pf-HR :0.99734: L2-HR :0.94747: (Sim:2h49m47s) 
CPU  0 inst:  615000003 cyc:  417746445 now IPC :1.49338: AVG IPC :1.47085: L2-Pf-HR :0.99734: L2-HR :0.94747: (Sim:2h50m7s) 
CPU  0 inst:  616000003 cyc:  418412441 now IPC :1.50151: AVG IPC :1.47090: L2-Pf-HR :0.99734: L2-HR :0.94748: (Sim:2h50m27s) 
CPU  0 inst:  617000003 cyc:  419079550 now IPC :1.49901: AVG IPC :1.47094: L2-Pf-HR :0.99734: L2-HR :0.94749: (Sim:2h50m47s) 
CPU  0 inst:  618000003 cyc:  419749011 now IPC :1.49374: AVG IPC :1.47098: L2-Pf-HR :0.99734: L2-HR :0.94749: (Sim:2h51m5s) 
CPU  0 inst:  619000003 cyc:  420415721 now IPC :1.49990: AVG IPC :1.47103: L2-Pf-HR :0.99734: L2-HR :0.94750: (Sim:2h51m24s) 
CPU  0 inst:  620000002 cyc:  421102510 now IPC :1.45605: AVG IPC :1.47100: L2-Pf-HR :0.99734: L2-HR :0.94749: (Sim:2h51m42s) 
CPU  0 inst:  621000003 cyc:  421767082 now IPC :1.50473: AVG IPC :1.47106: L2-Pf-HR :0.99734: L2-HR :0.94743: (Sim:2h51m57s) 
[...]
CPU  0 inst: 1854000001 cyc: 1263154449 now IPC :1.49463: AVG IPC :1.46731: L2-Pf-HR :0.99735: L2-HR :0.94729: (Sim:6h10m43s) 
CPU  0 inst: 1855000001 cyc: 1263820598 now IPC :1.50117: AVG IPC :1.46733: L2-Pf-HR :0.99735: L2-HR :0.94730: (Sim:6h10m50s) 
CPU  0 inst: 1856000001 cyc: 1264488384 now IPC :1.49749: AVG IPC :1.46734: L2-Pf-HR :0.99735: L2-HR :0.94730: (Sim:6h10m58s) 
CPU  0 inst: 1857000001 cyc: 1265156418 now IPC :1.49693: AVG IPC :1.46736: L2-Pf-HR :0.99735: L2-HR :0.94730: (Sim:6h11m6s) 
CPU  0 inst: 1858000004 cyc: 1265824361 now IPC :1.49714: AVG IPC :1.46738: L2-Pf-HR :0.99735: L2-HR :0.94730: (Sim:6h11m13s) 
CPU  0 inst: 1859000001 cyc: 1266509761 now IPC :1.45900: AVG IPC :1.46737: L2-Pf-HR :0.99735: L2-HR :0.94729: (Sim:6h11m21s) 
CPU  0 inst: 1860000004 cyc: 1267175551 now IPC :1.50198: AVG IPC :1.46739: L2-Pf-HR :0.99735: L2-HR :0.94727: (Sim:6h11m28s) 
CPU  0 inst: 1861000003 cyc: 1267854265 now IPC :1.47337: AVG IPC :1.46739: L2-Pf-HR :0.99735: L2-HR :0.94725: (Sim:6h11m35s) 
CPU  0 inst: 1862000001 cyc: 1268519450 now IPC :1.50334: AVG IPC :1.46741: L2-Pf-HR :0.99735: L2-HR :0.94723: (Sim:6h11m43s) 
CPU  0 inst: 1863000001 cyc: 1269282938 now IPC :1.30978: AVG IPC :1.46732: L2-Pf-HR :0.99735: L2-HR :0.94721: (Sim:6h11m51s) 
CPU  0 inst: 1864000001 cyc: 1269972026 now IPC :1.45119: AVG IPC :1.46731: L2-Pf-HR :0.99735: L2-HR :0.94721: (Sim:6h11m58s) 
CPU  0 inst: 1865000005 cyc: 1270660843 now IPC :1.45177: AVG IPC :1.46730: L2-Pf-HR :0.99735: L2-HR :0.94721: (Sim:6h12m6s) 
CPU  0 inst: 1866000001 cyc: 1271350624 now IPC :1.44973: AVG IPC :1.46729: L2-Pf-HR :0.99735: L2-HR :0.94721: (Sim:6h12m14s) 
CPU  0 inst: 1867000004 cyc: 1272040608 now IPC :1.44931: AVG IPC :1.46728: L2-Pf-HR :0.99735: L2-HR :0.94721: (Sim:6h12m22s) 
CPU  0 inst: 1868000000 cyc: 1272728440 now IPC :1.45384: AVG IPC :1.46727: L2-Pf-HR :0.99735: L2-HR :0.94721: (Sim:6h12m29s) 
CPU  0 inst: 1869000004 cyc: 1273459792 now IPC :1.36734: AVG IPC :1.46721: L2-Pf-HR :0.99735: L2-HR :0.94721: (Sim:6h12m37s) 
CPU  0 inst: 1870000005 cyc: 1274153245 now IPC :1.44206: AVG IPC :1.46720: L2-Pf-HR :0.99735: L2-HR :0.94721: (Sim:6h12m45s) 
CPU  0 inst: 1871000000 cyc: 1274847420 now IPC :1.44055: AVG IPC :1.46719: L2-Pf-HR :0.99735: L2-HR :0.94721: (Sim:6h12m53s) 
CPU  0 inst: 1872000000 cyc: 1275538446 now IPC :1.44712: AVG IPC :1.46718: L2-Pf-HR :0.99735: L2-HR :0.94721: (Sim:6h13m0s) 
CPU  0 inst: 1873000002 cyc: 1276233206 now IPC :1.43935: AVG IPC :1.46716: L2-Pf-HR :0.99735: L2-HR :0.94721: (Sim:6h13m8s) 
CPU  0 inst: 1874000005 cyc: 1276926479 now IPC :1.44244: AVG IPC :1.46715: L2-Pf-HR :0.99735: L2-HR :0.94721: (Sim:6h13m16s) 
CPU  0 inst: 1875000000 cyc: 1277678327 now IPC :1.33005: AVG IPC :1.46707: L2-Pf-HR :0.99734: L2-HR :0.94720: (Sim:6h13m24s) 
CPU  0 inst: 1876000001 cyc: 1278344305 now IPC :1.50155: AVG IPC :1.46708: L2-Pf-HR :0.99734: L2-HR :0.94721: (Sim:6h13m32s) 
CPU  0 inst: 1877000001 cyc: 1279010088 now IPC :1.50199: AVG IPC :1.46710: L2-Pf-HR :0.99734: L2-HR :0.94721: (Sim:6h13m39s) 
CPU  0 inst: 1878000001 cyc: 1279676050 now IPC :1.50159: AVG IPC :1.46712: L2-Pf-HR :0.99734: L2-HR :0.94721: (Sim:6h13m47s) 
CPU  0 inst: 1879000001 cyc: 1280342031 now IPC :1.50154: AVG IPC :1.46714: L2-Pf-HR :0.99734: L2-HR :0.94721: (Sim:6h13m55s) 
CPU  0 inst: 1880000001 cyc: 1281009888 now IPC :1.49733: AVG IPC :1.46715: L2-Pf-HR :0.99734: L2-HR :0.94721: (Sim:6h14m2s) 
CPU  0 inst: 1881000001 cyc: 1281715137 now IPC :1.41794: AVG IPC :1.46713: L2-Pf-HR :0.99734: L2-HR :0.94721: (Sim:6h14m10s) 
CPU  0 inst: 1882000005 cyc: 1282385698 now IPC :1.49129: AVG IPC :1.46714: L2-Pf-HR :0.99734: L2-HR :0.94721: (Sim:6h14m18s) 
CPU  0 inst: 1883000005 cyc: 1283053239 now IPC :1.49804: AVG IPC :1.46716: L2-Pf-HR :0.99734: L2-HR :0.94721: (Sim:6h14m25s) 
CPU  0 inst: 1884000005 cyc: 1283719116 now IPC :1.50178: AVG IPC :1.46717: L2-Pf-HR :0.99734: L2-HR :0.94722: (Sim:6h14m33s) 
CPU  0 inst: 1885000005 cyc: 1284385427 now IPC :1.50080: AVG IPC :1.46719: L2-Pf-HR :0.99734: L2-HR :0.94722: (Sim:6h14m40s) 
CPU  0 inst: 1886000000 cyc: 1285052935 now IPC :1.49810: AVG IPC :1.46721: L2-Pf-HR :0.99734: L2-HR :0.94722: (Sim:6h14m48s) 
CPU  0 inst: 1887000005 cyc: 1285795529 now IPC :1.34664: AVG IPC :1.46714: L2-Pf-HR :0.99734: L2-HR :0.94722: (Sim:6h14m56s) 
CPU  0 inst: 1888000003 cyc: 1286467563 now IPC :1.48802: AVG IPC :1.46715: L2-Pf-HR :0.99734: L2-HR :0.94722: (Sim:6h15m4s) 
CPU  0 inst: 1889000003 cyc: 1287141052 now IPC :1.48481: AVG IPC :1.46716: L2-Pf-HR :0.99734: L2-HR :0.94722: (Sim:6h15m11s) 
CPU  0 inst: 1890000003 cyc: 1287816555 now IPC :1.48038: AVG IPC :1.46716: L2-Pf-HR :0.99734: L2-HR :0.94723: (Sim:6h15m19s) 
CPU  0 inst: 1891000003 cyc: 1288489092 now IPC :1.48691: AVG IPC :1.46718: L2-Pf-HR :0.99735: L2-HR :0.94723: (Sim:6h15m27s) 
CPU  0 inst: 1892000003 cyc: 1289163807 now IPC :1.48211: AVG IPC :1.46718: L2-Pf-HR :0.99734: L2-HR :0.94723: (Sim:6h15m34s) 
CPU  0 inst: 1893000003 cyc: 1289875200 now IPC :1.40569: AVG IPC :1.46715: L2-Pf-HR :0.99734: L2-HR :0.94723: (Sim:6h15m42s) 
CPU  0 inst: 1894000001 cyc: 1290548947 now IPC :1.48423: AVG IPC :1.46716: L2-Pf-HR :0.99734: L2-HR :0.94723: (Sim:6h15m49s) 
CPU  0 inst: 1895000001 cyc: 1291219136 now IPC :1.49212: AVG IPC :1.46717: L2-Pf-HR :0.99735: L2-HR :0.94724: (Sim:6h15m57s) 
CPU  0 inst: 1896000000 cyc: 1291889880 now IPC :1.49088: AVG IPC :1.46718: L2-Pf-HR :0.99735: L2-HR :0.94724: (Sim:6h16m5s) 
CPU  0 inst: 1897000001 cyc: 1292561698 now IPC :1.48850: AVG IPC :1.46719: L2-Pf-HR :0.99735: L2-HR :0.94724: (Sim:6h16m12s) 
CPU  0 inst: 1898000000 cyc: 1293231142 now IPC :1.49378: AVG IPC :1.46721: L2-Pf-HR :0.99735: L2-HR :0.94724: (Sim:6h16m20s) 
CPU  0 inst: 1899000004 cyc: 1293969165 now IPC :1.35498: AVG IPC :1.46714: L2-Pf-HR :0.99735: L2-HR :0.94724: (Sim:6h16m28s) 
CPU  0 inst: 1900000002 cyc: 1294640008 now IPC :1.49066: AVG IPC :1.46716: L2-Pf-HR :0.99735: L2-HR :0.94724: (Sim:6h16m35s) 
CPU  0 inst: 1901000002 cyc: 1295310969 now IPC :1.49040: AVG IPC :1.46717: L2-Pf-HR :0.99735: L2-HR :0.94725: (Sim:6h16m43s) 
CPU  0 inst: 1902000002 cyc: 1295982918 now IPC :1.48821: AVG IPC :1.46718: L2-Pf-HR :0.99735: L2-HR :0.94725: (Sim:6h16m51s) 
CPU  0 inst: 1903000001 cyc: 1296654421 now IPC :1.48920: AVG IPC :1.46719: L2-Pf-HR :0.99735: L2-HR :0.94725: (Sim:6h16m58s) 
CPU  0 inst: 1904000000 cyc: 1297326904 now IPC :1.48702: AVG IPC :1.46720: L2-Pf-HR :0.99735: L2-HR :0.94725: (Sim:6h17m6s) 
CPU  0 inst: 1905000000 cyc: 1298037270 now IPC :1.40772: AVG IPC :1.46717: L2-Pf-HR :0.99735: L2-HR :0.94725: (Sim:6h17m13s) 
CPU  0 inst: 1906000000 cyc: 1298712738 now IPC :1.48046: AVG IPC :1.46718: L2-Pf-HR :0.99735: L2-HR :0.94726: (Sim:6h17m21s) 
CPU  0 inst: 1907000003 cyc: 1299388340 now IPC :1.48017: AVG IPC :1.46718: L2-Pf-HR :0.99735: L2-HR :0.94726: (Sim:6h17m29s) 
CPU  0 inst: 1908000000 cyc: 1300061891 now IPC :1.48466: AVG IPC :1.46719: L2-Pf-HR :0.99735: L2-HR :0.94726: (Sim:6h17m36s) 
CPU  0 inst: 1909000002 cyc: 1300736896 now IPC :1.48147: AVG IPC :1.46720: L2-Pf-HR :0.99735: L2-HR :0.94726: (Sim:6h17m44s) 
CPU  0 inst: 1910000003 cyc: 1301411560 now IPC :1.48222: AVG IPC :1.46721: L2-Pf-HR :0.99735: L2-HR :0.94727: (Sim:6h17m52s) 
CPU  0 inst: 1911000001 cyc: 1302159455 now IPC :1.33708: AVG IPC :1.46713: L2-Pf-HR :0.99735: L2-HR :0.94726: (Sim:6h18m0s) 
CPU  0 inst: 1912000004 cyc: 1302832938 now IPC :1.48482: AVG IPC :1.46714: L2-Pf-HR :0.99735: L2-HR :0.94726: (Sim:6h18m7s) 
CPU  0 inst: 1913000004 cyc: 1303506357 now IPC :1.48496: AVG IPC :1.46715: L2-Pf-HR :0.99735: L2-HR :0.94727: (Sim:6h18m15s) 
CPU  0 inst: 1914000000 cyc: 1304179726 now IPC :1.48506: AVG IPC :1.46716: L2-Pf-HR :0.99735: L2-HR :0.94727: (Sim:6h18m23s) 
CPU  0 inst: 1915000002 cyc: 1304851236 now IPC :1.48918: AVG IPC :1.46717: L2-Pf-HR :0.99735: L2-HR :0.94727: (Sim:6h18m30s) 
CPU  0 inst: 1916000002 cyc: 1305526199 now IPC :1.48156: AVG IPC :1.46718: L2-Pf-HR :0.99735: L2-HR :0.94727: (Sim:6h18m38s) 
CPU  0 inst: 1917000002 cyc: 1306237414 now IPC :1.40604: AVG IPC :1.46714: L2-Pf-HR :0.99735: L2-HR :0.94727: (Sim:6h18m45s) 
CPU  0 inst: 1918000002 cyc: 1306909105 now IPC :1.48878: AVG IPC :1.46716: L2-Pf-HR :0.99735: L2-HR :0.94728: (Sim:6h18m53s) 
CPU  0 inst: 1919000002 cyc: 1307582904 now IPC :1.48412: AVG IPC :1.46716: L2-Pf-HR :0.99735: L2-HR :0.94728: (Sim:6h19m1s) 
CPU  0 inst: 1920000004 cyc: 1308256334 now IPC :1.48494: AVG IPC :1.46717: L2-Pf-HR :0.99735: L2-HR :0.94728: (Sim:6h19m8s) 
CPU  0 inst: 1921000001 cyc: 1308929009 now IPC :1.48660: AVG IPC :1.46718: L2-Pf-HR :0.99735: L2-HR :0.94728: (Sim:6h19m16s) 
CPU  0 inst: 1922000000 cyc: 1309601760 now IPC :1.48643: AVG IPC :1.46719: L2-Pf-HR :0.99735: L2-HR :0.94729: (Sim:6h19m24s) 
CPU  0 inst: 1923000002 cyc: 1310292400 now IPC :1.44794: AVG IPC :1.46718: L2-Pf-HR :0.99735: L2-HR :0.94728: (Sim:6h19m31s) 
CPU  0 inst: 1924000001 cyc: 1310959775 now IPC :1.49841: AVG IPC :1.46720: L2-Pf-HR :0.99735: L2-HR :0.94726: (Sim:6h19m38s) 
CPU  0 inst: 1925000003 cyc: 1311640057 now IPC :1.46998: AVG IPC :1.46720: L2-Pf-HR :0.99735: L2-HR :0.94724: (Sim:6h19m46s) 
CPU  0 inst: 1926000002 cyc: 1312309380 now IPC :1.49405: AVG IPC :1.46721: L2-Pf-HR :0.99735: L2-HR :0.94722: (Sim:6h19m53s) 
CPU  0 inst: 1927000004 cyc: 1313067711 now IPC :1.31869: AVG IPC :1.46713: L2-Pf-HR :0.99735: L2-HR :0.94720: (Sim:6h20m1s) 
CPU  0 inst: 1928000002 cyc: 1313743578 now IPC :1.47958: AVG IPC :1.46713: L2-Pf-HR :0.99735: L2-HR :0.94720: (Sim:6h20m8s) 
CPU  0 inst: 1929000002 cyc: 1314419764 now IPC :1.47888: AVG IPC :1.46714: L2-Pf-HR :0.99735: L2-HR :0.94720: (Sim:6h20m16s) 
CPU  0 inst: 1930000001 cyc: 1315094382 now IPC :1.48232: AVG IPC :1.46715: L2-Pf-HR :0.99735: L2-HR :0.94720: (Sim:6h20m24s) 
CPU  0 inst: 1931000001 cyc: 1315769502 now IPC :1.48122: AVG IPC :1.46716: L2-Pf-HR :0.99735: L2-HR :0.94720: (Sim:6h20m31s) 
CPU  0 inst: 1932000001 cyc: 1316446327 now IPC :1.47749: AVG IPC :1.46716: L2-Pf-HR :0.99735: L2-HR :0.94720: (Sim:6h20m39s) 
CPU  0 inst: 1933000000 cyc: 1317169239 now IPC :1.38329: AVG IPC :1.46712: L2-Pf-HR :0.99735: L2-HR :0.94720: (Sim:6h20m47s) 
CPU  0 inst: 1934000005 cyc: 1317863748 now IPC :1.43987: AVG IPC :1.46710: L2-Pf-HR :0.99735: L2-HR :0.94720: (Sim:6h20m55s) 
CPU  0 inst: 1935000005 cyc: 1318557538 now IPC :1.44136: AVG IPC :1.46709: L2-Pf-HR :0.99735: L2-HR :0.94720: (Sim:6h21m2s) 
CPU  0 inst: 1936000001 cyc: 1319252957 now IPC :1.43798: AVG IPC :1.46707: L2-Pf-HR :0.99735: L2-HR :0.94720: (Sim:6h21m10s) 
CPU  0 inst: 1937000002 cyc: 1319947603 now IPC :1.43958: AVG IPC :1.46706: L2-Pf-HR :0.99735: L2-HR :0.94720: (Sim:6h21m18s) 
CPU  0 inst: 1938000001 cyc: 1320642715 now IPC :1.43862: AVG IPC :1.46704: L2-Pf-HR :0.99735: L2-HR :0.94719: (Sim:6h21m26s) 
CPU  0 inst: 1939000002 cyc: 1321402386 now IPC :1.31636: AVG IPC :1.46696: L2-Pf-HR :0.99735: L2-HR :0.94719: (Sim:6h21m34s) 
CPU  0 inst: 1940000002 cyc: 1322076397 now IPC :1.48366: AVG IPC :1.46696: L2-Pf-HR :0.99735: L2-HR :0.94719: (Sim:6h21m42s) 
CPU  0 inst: 1941000002 cyc: 1322749544 now IPC :1.48556: AVG IPC :1.46697: L2-Pf-HR :0.99735: L2-HR :0.94719: (Sim:6h21m49s) 
CPU  0 inst: 1942000001 cyc: 1323422715 now IPC :1.48551: AVG IPC :1.46698: L2-Pf-HR :0.99734: L2-HR :0.94719: (Sim:6h21m57s) 
CPU  0 inst: 1943000004 cyc: 1324098527 now IPC :1.47971: AVG IPC :1.46699: L2-Pf-HR :0.99735: L2-HR :0.94719: (Sim:6h22m4s) 
CPU  0 inst: 1944000000 cyc: 1324771717 now IPC :1.48546: AVG IPC :1.46700: L2-Pf-HR :0.99734: L2-HR :0.94719: (Sim:6h22m12s) 
CPU  0 inst: 1945000000 cyc: 1325476956 now IPC :1.41796: AVG IPC :1.46697: L2-Pf-HR :0.99734: L2-HR :0.94719: (Sim:6h22m20s) 
CPU  0 inst: 1946000000 cyc: 1326137545 now IPC :1.51380: AVG IPC :1.46700: L2-Pf-HR :0.99734: L2-HR :0.94720: (Sim:6h22m27s) 
CPU  0 inst: 1947000000 cyc: 1326797106 now IPC :1.51616: AVG IPC :1.46702: L2-Pf-HR :0.99734: L2-HR :0.94720: (Sim:6h22m35s) 
CPU  0 inst: 1948000005 cyc: 1327455850 now IPC :1.51805: AVG IPC :1.46705: L2-Pf-HR :0.99734: L2-HR :0.94720: (Sim:6h22m43s) 
CPU  0 inst: 1949000002 cyc: 1328114297 now IPC :1.51872: AVG IPC :1.46707: L2-Pf-HR :0.99734: L2-HR :0.94720: (Sim:6h22m50s) 
CPU  0 inst: 1950000002 cyc: 1328774063 now IPC :1.51569: AVG IPC :1.46710: L2-Pf-HR :0.99734: L2-HR :0.94720: (Sim:6h22m58s) 
CPU  0 inst: 1951000004 cyc: 1329498355 now IPC :1.38066: AVG IPC :1.46705: L2-Pf-HR :0.99734: L2-HR :0.94720: (Sim:6h23m6s) 
CPU  0 inst: 1952000004 cyc: 1330158091 now IPC :1.51576: AVG IPC :1.46707: L2-Pf-HR :0.99734: L2-HR :0.94720: (Sim:6h23m13s) 
CPU  0 inst: 1953000001 cyc: 1330818316 now IPC :1.51463: AVG IPC :1.46710: L2-Pf-HR :0.99735: L2-HR :0.94721: (Sim:6h23m21s) 
CPU  0 inst: 1954000004 cyc: 1331476054 now IPC :1.52037: AVG IPC :1.46712: L2-Pf-HR :0.99735: L2-HR :0.94721: (Sim:6h23m29s) 
CPU  0 inst: 1955000004 cyc: 1332135159 now IPC :1.51721: AVG IPC :1.46715: L2-Pf-HR :0.99735: L2-HR :0.94721: (Sim:6h23m36s) 
CPU  0 inst: 1956000002 cyc: 1332793458 now IPC :1.51906: AVG IPC :1.46717: L2-Pf-HR :0.99735: L2-HR :0.94722: (Sim:6h23m44s) 
CPU  0 inst: 1957000005 cyc: 1333496576 now IPC :1.42224: AVG IPC :1.46715: L2-Pf-HR :0.99735: L2-HR :0.94722: (Sim:6h23m52s) 
CPU  0 inst: 1958000002 cyc: 1334167043 now IPC :1.49149: AVG IPC :1.46716: L2-Pf-HR :0.99735: L2-HR :0.94722: (Sim:6h23m59s) 
CPU  0 inst: 1959000001 cyc: 1334837710 now IPC :1.49105: AVG IPC :1.46717: L2-Pf-HR :0.99735: L2-HR :0.94722: (Sim:6h24m7s) 
CPU  0 inst: 1960000004 cyc: 1335508828 now IPC :1.49006: AVG IPC :1.46719: L2-Pf-HR :0.99735: L2-HR :0.94723: (Sim:6h24m14s) 
CPU  0 inst: 1961000002 cyc: 1336177797 now IPC :1.49483: AVG IPC :1.46720: L2-Pf-HR :0.99735: L2-HR :0.94723: (Sim:6h24m22s) 
CPU  0 inst: 1962000000 cyc: 1336847836 now IPC :1.49245: AVG IPC :1.46721: L2-Pf-HR :0.99735: L2-HR :0.94723: (Sim:6h24m29s) 
CPU  0 inst: 1963000003 cyc: 1337578716 now IPC :1.36822: AVG IPC :1.46716: L2-Pf-HR :0.99735: L2-HR :0.94723: (Sim:6h24m37s) 
CPU  0 inst: 1964000003 cyc: 1338238586 now IPC :1.51545: AVG IPC :1.46718: L2-Pf-HR :0.99735: L2-HR :0.94723: (Sim:6h24m45s) 
CPU  0 inst: 1965000000 cyc: 1338899702 now IPC :1.51259: AVG IPC :1.46720: L2-Pf-HR :0.99735: L2-HR :0.94723: (Sim:6h24m52s) 
CPU  0 inst: 1966000000 cyc: 1339560646 now IPC :1.51299: AVG IPC :1.46723: L2-Pf-HR :0.99735: L2-HR :0.94724: (Sim:6h25m0s) 
CPU  0 inst: 1967000001 cyc: 1340223215 now IPC :1.50928: AVG IPC :1.46725: L2-Pf-HR :0.99735: L2-HR :0.94724: (Sim:6h25m7s) 
CPU  0 inst: 1968000001 cyc: 1340883262 now IPC :1.51504: AVG IPC :1.46727: L2-Pf-HR :0.99735: L2-HR :0.94724: (Sim:6h25m15s) 
CPU  0 inst: 1969000001 cyc: 1341586905 now IPC :1.42118: AVG IPC :1.46725: L2-Pf-HR :0.99735: L2-HR :0.94724: (Sim:6h25m23s) 
CPU  0 inst: 1970000003 cyc: 1342255028 now IPC :1.49673: AVG IPC :1.46726: L2-Pf-HR :0.99735: L2-HR :0.94724: (Sim:6h25m30s) 
CPU  0 inst: 1971000000 cyc: 1342921407 now IPC :1.50064: AVG IPC :1.46728: L2-Pf-HR :0.99736: L2-HR :0.94725: (Sim:6h25m38s) 
CPU  0 inst: 1972000004 cyc: 1343588763 now IPC :1.49846: AVG IPC :1.46729: L2-Pf-HR :0.99736: L2-HR :0.94725: (Sim:6h25m45s) 
CPU  0 inst: 1973000005 cyc: 1344256107 now IPC :1.49848: AVG IPC :1.46731: L2-Pf-HR :0.99736: L2-HR :0.94725: (Sim:6h25m53s) 
CPU  0 inst: 1974000005 cyc: 1344924046 now IPC :1.49714: AVG IPC :1.46732: L2-Pf-HR :0.99736: L2-HR :0.94725: (Sim:6h26m1s) 
CPU  0 inst: 1975000000 cyc: 1345663606 now IPC :1.35215: AVG IPC :1.46726: L2-Pf-HR :0.99736: L2-HR :0.94725: (Sim:6h26m9s) 
CPU  0 inst: 1976000001 cyc: 1346330053 now IPC :1.50050: AVG IPC :1.46728: L2-Pf-HR :0.99736: L2-HR :0.94725: (Sim:6h26m16s) 
Finished CPU 0 instr: 1974000005 cyc: 1345349251 AVG IPC: 1.46728 (Sim time: 6h26m16s)

ChampSim completed all CPUs

[ROI Statistics]
Core_0_instructions 1974000005
Core_0_cycles 1345349251
Core_0_IPC 1.46728

Core_0_branch_prediction_accuracy 99.93238
Core_0_branch_MPKI 0.00946
Core_0_average_ROB_occupancy_at_mispredict 562.54791

Core_0_L1D_total_access 458938728
Core_0_L1D_total_hit 422796037 L1D_total_Hit Ratio: 0.92125
Core_0_L1D_total_miss 36142691
Core_0_L1D_loads 440412239
Core_0_L1D_load_hit 404280653 L1D_load_Hit Ratio: 0.91796
Core_0_L1D_load_miss 36131586
Core_0_L1D_RFOs 17832483
Core_0_L1D_RFO_hit 17821378 L1D_RFO_Hit Ratio: 0.99938
Core_0_L1D_RFO_miss 11105
Core_0_L1D_prefetches 694006
Core_0_L1D_prefetch_hit 694006 L1D_prefetch_Hit Ratio: 1.00000
Core_0_L1D_prefetch_miss 0
Core_0_L1D_writebacks 0
Core_0_L1D_writeback_hit 0 L1D_writeback_Hit Ratio: -nan
Core_0_L1D_writeback_miss 0
Core_0_L1D_prefetch_requested 257912004
Core_0_L1D_prefetch_issued 156762920
Core_0_L1D_prefetch_useful 0 L1D_Useful Ratio: 0.00000
Core_0_L1D_prefetch_useless 0
Core_0_L1D_prefetch_late 0
Core_0_L1D_average_miss_latency 89.34851

Core_0_L1I_total_access 219584954
Core_0_L1I_total_hit 219581116 L1I_total_Hit Ratio: 0.99998
Core_0_L1I_total_miss 3838
Core_0_L1I_loads 219584954
Core_0_L1I_load_hit 219581116 L1I_load_Hit Ratio: 0.99998
Core_0_L1I_load_miss 3838
Core_0_L1I_RFOs 0
Core_0_L1I_RFO_hit 0 L1I_RFO_Hit Ratio: -nan
Core_0_L1I_RFO_miss 0
Core_0_L1I_prefetches 0
Core_0_L1I_prefetch_hit 0 L1I_prefetch_Hit Ratio: -nan
Core_0_L1I_prefetch_miss 0
Core_0_L1I_writebacks 0
Core_0_L1I_writeback_hit 0 L1I_writeback_Hit Ratio: -nan
Core_0_L1I_writeback_miss 0
Core_0_L1I_prefetch_requested 0
Core_0_L1I_prefetch_issued 0
Core_0_L1I_prefetch_useful 0 L1I_Useful Ratio: -nan
Core_0_L1I_prefetch_useless 0
Core_0_L1I_prefetch_late 0
Core_0_L1I_average_miss_latency 314.97212

Core_0_L2C_total_access 170611017
Core_0_L2C_total_hit 161611949 L2C_total_Hit Ratio: 0.94725
Core_0_L2C_total_miss 8999068
Core_0_L2C_loads 36135424
Core_0_L2C_load_hit 27463739 L2C_load_Hit Ratio: 0.76002
Core_0_L2C_load_miss 8671685
Core_0_L2C_RFOs 11105
Core_0_L2C_RFO_hit 9178 L2C_RFO_Hit Ratio: 0.82647
Core_0_L2C_RFO_miss 1927
Core_0_L2C_prefetches 123138366
Core_0_L2C_prefetch_hit 122812910 L2C_prefetch_Hit Ratio: 0.99736
Core_0_L2C_prefetch_miss 325456
Core_0_L2C_writebacks 11326122
Core_0_L2C_writeback_hit 11326122 L2C_writeback_Hit Ratio: 1.00000
Core_0_L2C_writeback_miss 0
Core_0_L2C_prefetch_requested 59356831
Core_0_L2C_prefetch_issued 766652
Core_0_L2C_prefetch_useful 325392 L2C_Useful Ratio: 0.42443
Core_0_L2C_prefetch_useless 64
Core_0_L2C_prefetch_late 18922
Core_0_L2C_average_miss_latency 286.23082

Core_0_LLC_total_access 17630220
Core_0_LLC_total_hit 8885797 LLC_total_Hit Ratio: 0.50401
Core_0_LLC_total_miss 8744423
Core_0_LLC_loads 8652763
Core_0_LLC_load_hit 277535 LLC_load_Hit Ratio: 0.03207
Core_0_LLC_load_miss 8375228
Core_0_LLC_RFOs 1927
Core_0_LLC_RFO_hit 681 LLC_RFO_Hit Ratio: 0.35340
Core_0_LLC_RFO_miss 1246
Core_0_LLC_prefetches 779398
Core_0_LLC_prefetch_hit 522268 LLC_prefetch_Hit Ratio: 0.67009
Core_0_LLC_prefetch_miss 257130
Core_0_LLC_writebacks 8196132
Core_0_LLC_writeback_hit 8085313 LLC_writeback_Hit Ratio: 0.98648
Core_0_LLC_writeback_miss 110819
Core_0_LLC_prefetch_requested 0
Core_0_LLC_prefetch_issued 0
Core_0_LLC_prefetch_useful 136625 LLC_Useful Ratio: inf
Core_0_LLC_prefetch_useless 119541
Core_0_LLC_prefetch_late 21231
Core_0_LLC_average_miss_latency 265.84450

Core_0_major_page_fault 0
Core_0_minor_page_fault 17949

CPU 0 L1D next line prefetcher final stats
Prefetcher final stats
Training Unit Size: 2852
Addr table size: 1082979 1082979


Triggers: 8688207
No Prediction: 1123993 12.93700
Stream end: 191822
No translation: 136345783 1569.32015
Predictions: 766652 8.82405


Stream divergence: 87528 1.00743
Stream divergence -- new stream: 0
Channel_0_RQ_row_buffer_hit 5949516
Channel_0_RQ_row_buffer_miss 2684077
Channel_0_WQ_row_buffer_hit 3045897
Channel_0_WQ_row_buffer_miss 5034266
Channel_0_WQ_full 1786
Channel_0_dbus_congested 2154671

avg_congested_cycle 8

EzSearch AVG IPC :1.46728: L2-Pf-HR :0.99736 : L2-HR :0.94725 Uful:0.42443
     > Finished combination: TraceType=770-tot Sim:1974000000 Prefetcher=L2isb_ideal L1=isb_ideal
