TRACE: [331000000][Pythia-70M]_[h8][s1024][d64] Warmup: 2000000 NumTraces: 331000000
L1:isb_ideal:L2:isb_ideal
*************************************************
   ChampSim Multicore Out-of-Order Simulator
   Last compiled: Oct 30 2024 22:02:58
*************************************************

trace_0 770-tot_memTraces_v5/130-subBillion_s1024_LLM_Arch/memTraces[331000000][Pythia-70M]_[h8][s1024][d64].champsim.9.xz
L1D: Ideal ISB Prefetching
Ideal ISB Prefetching
MAIN.cc ln 751 stats print skipped
CPU  0 inst:    1000000 cyc:     498018 now IPC :2.00796: AVG IPC :2.00796: L2-Pf-HR :1.00000: L2-HR :0.87735: (Sim:0h0m21s) 
CPU  0 inst:    2000003 cyc:     980855 now IPC :2.07110: AVG IPC :2.03904: L2-Pf-HR :1.00000: L2-HR :0.91037: (Sim:0h0m42s) 

Warmup complete CPU  0 instructions:    2000003 cycles:     980855 (Simulation time: 0 hr 0 min 42 sec) 

CPU  0 inst:    3000004 cyc:    1617874 now IPC :1.56981: AVG IPC :1.56981: L2-Pf-HR :1.00000: L2-HR :0.94006: (Sim:0h1m1s) 
CPU  0 inst:    4000001 cyc:    2256722 now IPC :1.56531: AVG IPC :1.56756: L2-Pf-HR :1.00000: L2-HR :0.93920: (Sim:0h1m20s) 
CPU  0 inst:    5000000 cyc:    2893405 now IPC :1.57064: AVG IPC :1.56858: L2-Pf-HR :1.00000: L2-HR :0.93973: (Sim:0h1m38s) 
CPU  0 inst:    6000000 cyc:    3532858 now IPC :1.56384: AVG IPC :1.56740: L2-Pf-HR :1.00000: L2-HR :0.93947: (Sim:0h1m57s) 
CPU  0 inst:    7000004 cyc:    4205975 now IPC :1.48563: AVG IPC :1.55033: L2-Pf-HR :1.00000: L2-HR :0.93966: (Sim:0h2m16s) 
CPU  0 inst:    8000001 cyc:    4813124 now IPC :1.64704: AVG IPC :1.56565: L2-Pf-HR :1.00000: L2-HR :0.94186: (Sim:0h2m35s) 
CPU  0 inst:    9000001 cyc:    5420749 now IPC :1.64575: AVG IPC :1.57661: L2-Pf-HR :1.00000: L2-HR :0.94357: (Sim:0h2m53s) 
CPU  0 inst:   10000001 cyc:    6028848 now IPC :1.64447: AVG IPC :1.58479: L2-Pf-HR :1.00000: L2-HR :0.94475: (Sim:0h3m12s) 
CPU  0 inst:   11000001 cyc:    6636110 now IPC :1.64674: AVG IPC :1.59144: L2-Pf-HR :1.00000: L2-HR :0.94604: (Sim:0h3m30s) 
CPU  0 inst:   12000005 cyc:    7243987 now IPC :1.64508: AVG IPC :1.59665: L2-Pf-HR :1.00000: L2-HR :0.94672: (Sim:0h3m49s) 
CPU  0 inst:   13000000 cyc:    7887681 now IPC :1.55353: AVG IPC :1.59263: L2-Pf-HR :1.00000: L2-HR :0.94577: (Sim:0h4m8s) 
CPU  0 inst:   14000003 cyc:    8490043 now IPC :1.66014: AVG IPC :1.59804: L2-Pf-HR :1.00000: L2-HR :0.94561: (Sim:0h4m26s) 
CPU  0 inst:   15000005 cyc:    9093702 now IPC :1.65657: AVG IPC :1.60240: L2-Pf-HR :1.00000: L2-HR :0.94591: (Sim:0h4m45s) 
CPU  0 inst:   16000000 cyc:    9697364 now IPC :1.65655: AVG IPC :1.60615: L2-Pf-HR :1.00000: L2-HR :0.94643: (Sim:0h5m3s) 
CPU  0 inst:   17000002 cyc:   10378190 now IPC :1.46881: AVG IPC :1.59620: L2-Pf-HR :1.00000: L2-HR :0.94553: (Sim:0h5m22s) 
CPU  0 inst:   18000000 cyc:   10997670 now IPC :1.61425: AVG IPC :1.59731: L2-Pf-HR :1.00000: L2-HR :0.94564: (Sim:0h5m41s) 
CPU  0 inst:   19000001 cyc:   11617952 now IPC :1.61217: AVG IPC :1.59818: L2-Pf-HR :1.00000: L2-HR :0.94560: (Sim:0h6m0s) 
CPU  0 inst:   20000005 cyc:   12237425 now IPC :1.61428: AVG IPC :1.59907: L2-Pf-HR :1.00000: L2-HR :0.94576: (Sim:0h6m19s) 
CPU  0 inst:   21000003 cyc:   12857747 now IPC :1.61206: AVG IPC :1.59975: L2-Pf-HR :1.00000: L2-HR :0.94580: (Sim:0h6m37s) 
CPU  0 inst:   22000004 cyc:   13476707 now IPC :1.61561: AVG IPC :1.60053: L2-Pf-HR :1.00000: L2-HR :0.94592: (Sim:0h6m56s) 
CPU  0 inst:   23000005 cyc:   14164654 now IPC :1.45360: AVG IPC :1.59286: L2-Pf-HR :1.00000: L2-HR :0.94567: (Sim:0h7m15s) 
CPU  0 inst:   24000005 cyc:   14796376 now IPC :1.58297: AVG IPC :1.59241: L2-Pf-HR :1.00000: L2-HR :0.94600: (Sim:0h7m34s) 
CPU  0 inst:   25000001 cyc:   15427533 now IPC :1.58439: AVG IPC :1.59206: L2-Pf-HR :1.00000: L2-HR :0.94627: (Sim:0h7m53s) 
CPU  0 inst:   26000004 cyc:   16057659 now IPC :1.58699: AVG IPC :1.59185: L2-Pf-HR :1.00000: L2-HR :0.94666: (Sim:0h8m12s) 
CPU  0 inst:   27000003 cyc:   16685222 now IPC :1.59346: AVG IPC :1.59191: L2-Pf-HR :1.00000: L2-HR :0.94688: (Sim:0h8m30s) 
CPU  0 inst:   28000003 cyc:   17307722 now IPC :1.60643: AVG IPC :1.59247: L2-Pf-HR :1.00000: L2-HR :0.94722: (Sim:0h8m49s) 
CPU  0 inst:   29000002 cyc:   17991853 now IPC :1.46171: AVG IPC :1.58721: L2-Pf-HR :1.00000: L2-HR :0.94678: (Sim:0h9m9s) 
CPU  0 inst:   30000004 cyc:   18641714 now IPC :1.53879: AVG IPC :1.58543: L2-Pf-HR :1.00000: L2-HR :0.94672: (Sim:0h9m27s) 
CPU  0 inst:   31000005 cyc:   19290536 now IPC :1.54126: AVG IPC :1.58386: L2-Pf-HR :1.00000: L2-HR :0.94678: (Sim:0h9m46s) 
CPU  0 inst:   32000002 cyc:   19940717 now IPC :1.53803: AVG IPC :1.58229: L2-Pf-HR :1.00000: L2-HR :0.94695: (Sim:0h10m4s) 
CPU  0 inst:   33000001 cyc:   20690877 now IPC :1.33305: AVG IPC :1.57280: L2-Pf-HR :1.00000: L2-HR :0.94660: (Sim:0h10m24s) 
CPU  0 inst:   34000003 cyc:   21375525 now IPC :1.46061: AVG IPC :1.56904: L2-Pf-HR :1.00000: L2-HR :0.94654: (Sim:0h10m43s) 
CPU  0 inst:   35000000 cyc:   22057953 now IPC :1.46535: AVG IPC :1.56568: L2-Pf-HR :1.00000: L2-HR :0.94655: (Sim:0h11m2s) 
CPU  0 inst:   36000004 cyc:   22741067 now IPC :1.46389: AVG IPC :1.56248: L2-Pf-HR :1.00000: L2-HR :0.94654: (Sim:0h11m21s) 
CPU  0 inst:   37000000 cyc:   23425715 now IPC :1.46060: AVG IPC :1.55938: L2-Pf-HR :1.00000: L2-HR :0.94659: (Sim:0h11m41s) 
CPU  0 inst:   38000001 cyc:   24113066 now IPC :1.45486: AVG IPC :1.55627: L2-Pf-HR :1.00000: L2-HR :0.94659: (Sim:0h12m0s) 
CPU  0 inst:   39000003 cyc:   24860994 now IPC :1.33703: AVG IPC :1.54940: L2-Pf-HR :1.00000: L2-HR :0.94641: (Sim:0h12m20s) 
CPU  0 inst:   40000002 cyc:   25517282 now IPC :1.52372: AVG IPC :1.54872: L2-Pf-HR :1.00000: L2-HR :0.94657: (Sim:0h12m39s) 
CPU  0 inst:   41000003 cyc:   26173149 now IPC :1.52470: AVG IPC :1.54809: L2-Pf-HR :1.00000: L2-HR :0.94676: (Sim:0h12m59s) 
CPU  0 inst:   42000005 cyc:   26830999 now IPC :1.52011: AVG IPC :1.54738: L2-Pf-HR :1.00000: L2-HR :0.94689: (Sim:0h13m18s) 
CPU  0 inst:   43000000 cyc:   27487903 now IPC :1.52228: AVG IPC :1.54676: L2-Pf-HR :1.00000: L2-HR :0.94711: (Sim:0h13m37s) 
CPU  0 inst:   44000000 cyc:   28144747 now IPC :1.52243: AVG IPC :1.54617: L2-Pf-HR :1.00000: L2-HR :0.94724: (Sim:0h13m55s) 
CPU  0 inst:   45000000 cyc:   28862577 now IPC :1.39309: AVG IPC :1.54223: L2-Pf-HR :1.00000: L2-HR :0.94702: (Sim:0h14m15s) 
CPU  0 inst:   46000005 cyc:   29521154 now IPC :1.51843: AVG IPC :1.54168: L2-Pf-HR :1.00000: L2-HR :0.94697: (Sim:0h14m34s) 
CPU  0 inst:   47000002 cyc:   30180253 now IPC :1.51722: AVG IPC :1.54113: L2-Pf-HR :1.00000: L2-HR :0.94694: (Sim:0h14m52s) 
CPU  0 inst:   48000004 cyc:   30840003 now IPC :1.51573: AVG IPC :1.54057: L2-Pf-HR :1.00000: L2-HR :0.94707: (Sim:0h15m11s) 
CPU  0 inst:   49000002 cyc:   31598401 now IPC :1.31857: AVG IPC :1.53507: L2-Pf-HR :1.00000: L2-HR :0.94681: (Sim:0h15m31s) 
CPU  0 inst:   50000003 cyc:   32281155 now IPC :1.46466: AVG IPC :1.53353: L2-Pf-HR :1.00000: L2-HR :0.94682: (Sim:0h15m50s) 
CPU  0 inst:   51000004 cyc:   32967171 now IPC :1.45769: AVG IPC :1.53191: L2-Pf-HR :1.00000: L2-HR :0.94678: (Sim:0h16m9s) 
CPU  0 inst:   52000001 cyc:   33652900 now IPC :1.45830: AVG IPC :1.53036: L2-Pf-HR :1.00000: L2-HR :0.94679: (Sim:0h16m28s) 
CPU  0 inst:   53000003 cyc:   34339033 now IPC :1.45745: AVG IPC :1.52886: L2-Pf-HR :1.00000: L2-HR :0.94679: (Sim:0h16m48s) 
CPU  0 inst:   54000004 cyc:   35024980 now IPC :1.45784: AVG IPC :1.52743: L2-Pf-HR :1.00000: L2-HR :0.94680: (Sim:0h17m7s) 
CPU  0 inst:   55000001 cyc:   35790237 now IPC :1.30675: AVG IPC :1.52258: L2-Pf-HR :1.00000: L2-HR :0.94664: (Sim:0h17m28s) 
CPU  0 inst:   56000001 cyc:   36461623 now IPC :1.48946: AVG IPC :1.52195: L2-Pf-HR :1.00000: L2-HR :0.94677: (Sim:0h17m47s) 
CPU  0 inst:   57000001 cyc:   37132708 now IPC :1.49012: AVG IPC :1.52136: L2-Pf-HR :1.00000: L2-HR :0.94685: (Sim:0h17m59s) 
CPU  0 inst:   58000001 cyc:   37803251 now IPC :1.49133: AVG IPC :1.52081: L2-Pf-HR :1.00000: L2-HR :0.94700: (Sim:0h18m9s) 
CPU  0 inst:   59000001 cyc:   38476604 now IPC :1.48511: AVG IPC :1.52017: L2-Pf-HR :1.00000: L2-HR :0.94709: (Sim:0h18m19s) 
CPU  0 inst:   60000004 cyc:   39147388 now IPC :1.49080: AVG IPC :1.51966: L2-Pf-HR :1.00000: L2-HR :0.94722: (Sim:0h18m29s) 
CPU  0 inst:   61000002 cyc:   39875260 now IPC :1.37387: AVG IPC :1.51693: L2-Pf-HR :1.00000: L2-HR :0.94711: (Sim:0h18m38s) 
CPU  0 inst:   62000003 cyc:   40546643 now IPC :1.48946: AVG IPC :1.51646: L2-Pf-HR :1.00000: L2-HR :0.94700: (Sim:0h18m53s) 
CPU  0 inst:   63000001 cyc:   41218663 now IPC :1.48805: AVG IPC :1.51599: L2-Pf-HR :1.00000: L2-HR :0.94697: (Sim:0h19m2s) 
CPU  0 inst:   64000000 cyc:   41890861 now IPC :1.48766: AVG IPC :1.51552: L2-Pf-HR :1.00000: L2-HR :0.94708: (Sim:0h19m19s) 
CPU  0 inst:   65000002 cyc:   42640541 now IPC :1.33391: AVG IPC :1.51225: L2-Pf-HR :1.00000: L2-HR :0.94691: (Sim:0h19m39s) 
CPU  0 inst:   66000003 cyc:   43323790 now IPC :1.46360: AVG IPC :1.51147: L2-Pf-HR :1.00000: L2-HR :0.94688: (Sim:0h19m58s) 
CPU  0 inst:   67000001 cyc:   44008143 now IPC :1.46123: AVG IPC :1.51067: L2-Pf-HR :1.00000: L2-HR :0.94687: (Sim:0h20m17s) 
CPU  0 inst:   68000002 cyc:   44695160 now IPC :1.45557: AVG IPC :1.50980: L2-Pf-HR :1.00000: L2-HR :0.94685: (Sim:0h20m36s) 
CPU  0 inst:   69000000 cyc:   45380217 now IPC :1.45973: AVG IPC :1.50903: L2-Pf-HR :1.00000: L2-HR :0.94686: (Sim:0h20m56s) 
CPU  0 inst:   70000004 cyc:   46070756 now IPC :1.44815: AVG IPC :1.50810: L2-Pf-HR :1.00000: L2-HR :0.94686: (Sim:0h21m16s) 
CPU  0 inst:   71000001 cyc:   46836290 now IPC :1.30627: AVG IPC :1.50473: L2-Pf-HR :1.00000: L2-HR :0.94672: (Sim:0h21m37s) 
CPU  0 inst:   72000005 cyc:   47499361 now IPC :1.50814: AVG IPC :1.50478: L2-Pf-HR :1.00000: L2-HR :0.94681: (Sim:0h21m56s) 
CPU  0 inst:   73000001 cyc:   48162283 now IPC :1.50847: AVG IPC :1.50483: L2-Pf-HR :1.00000: L2-HR :0.94690: (Sim:0h22m16s) 
CPU  0 inst:   74000005 cyc:   48825767 now IPC :1.50720: AVG IPC :1.50486: L2-Pf-HR :1.00000: L2-HR :0.94696: (Sim:0h22m35s) 
CPU  0 inst:   75000003 cyc:   49487679 now IPC :1.51077: AVG IPC :1.50494: L2-Pf-HR :1.00000: L2-HR :0.94708: (Sim:0h22m54s) 
CPU  0 inst:   76000003 cyc:   50151076 now IPC :1.50739: AVG IPC :1.50498: L2-Pf-HR :1.00000: L2-HR :0.94715: (Sim:0h23m6s) 
CPU  0 inst:   77000003 cyc:   50869697 now IPC :1.39155: AVG IPC :1.50334: L2-Pf-HR :1.00000: L2-HR :0.94711: (Sim:0h23m16s) 
CPU  0 inst:   78000004 cyc:   51538612 now IPC :1.49496: AVG IPC :1.50323: L2-Pf-HR :1.00000: L2-HR :0.94700: (Sim:0h23m27s) 
CPU  0 inst:   79000000 cyc:   52205028 now IPC :1.50056: AVG IPC :1.50320: L2-Pf-HR :1.00000: L2-HR :0.94697: (Sim:0h23m45s) 
CPU  0 inst:   80000002 cyc:   52871854 now IPC :1.49964: AVG IPC :1.50315: L2-Pf-HR :1.00000: L2-HR :0.94703: (Sim:0h24m0s) 
CPU  0 inst:   81000001 cyc:   53627033 now IPC :1.32419: AVG IPC :1.50058: L2-Pf-HR :1.00000: L2-HR :0.94690: (Sim:0h24m21s) 
CPU  0 inst:   82000000 cyc:   54311596 now IPC :1.46078: AVG IPC :1.50007: L2-Pf-HR :1.00000: L2-HR :0.94689: (Sim:0h24m40s) 
CPU  0 inst:   83000004 cyc:   54997782 now IPC :1.45734: AVG IPC :1.49953: L2-Pf-HR :1.00000: L2-HR :0.94687: (Sim:0h24m58s) 
CPU  0 inst:   84000002 cyc:   55685599 now IPC :1.45387: AVG IPC :1.49896: L2-Pf-HR :1.00000: L2-HR :0.94686: (Sim:0h25m18s) 
CPU  0 inst:   85000003 cyc:   56373232 now IPC :1.45427: AVG IPC :1.49840: L2-Pf-HR :1.00000: L2-HR :0.94686: (Sim:0h25m37s) 
CPU  0 inst:   86000001 cyc:   57062529 now IPC :1.45075: AVG IPC :1.49782: L2-Pf-HR :1.00000: L2-HR :0.94686: (Sim:0h25m57s) 
CPU  0 inst:   87000002 cyc:   57816353 now IPC :1.32657: AVG IPC :1.49554: L2-Pf-HR :1.00000: L2-HR :0.94673: (Sim:0h26m17s) 
CPU  0 inst:   88000003 cyc:   58507726 now IPC :1.44640: AVG IPC :1.49495: L2-Pf-HR :1.00000: L2-HR :0.94681: (Sim:0h26m29s) 
CPU  0 inst:   89000003 cyc:   59184637 now IPC :1.47730: AVG IPC :1.49475: L2-Pf-HR :1.00000: L2-HR :0.94686: (Sim:0h26m39s) 
CPU  0 inst:   90000004 cyc:   59860155 now IPC :1.48035: AVG IPC :1.49458: L2-Pf-HR :1.00000: L2-HR :0.94695: (Sim:0h26m50s) 
CPU  0 inst:   91000001 cyc:   60535877 now IPC :1.47989: AVG IPC :1.49442: L2-Pf-HR :1.00000: L2-HR :0.94700: (Sim:0h27m6s) 
CPU  0 inst:   92000001 cyc:   61212123 now IPC :1.47875: AVG IPC :1.49424: L2-Pf-HR :1.00000: L2-HR :0.94708: (Sim:0h27m25s) 
CPU  0 inst:   93000002 cyc:   61943906 now IPC :1.36653: AVG IPC :1.49271: L2-Pf-HR :1.00000: L2-HR :0.94706: (Sim:0h27m42s) 
CPU  0 inst:   94000001 cyc:   62614955 now IPC :1.49020: AVG IPC :1.49268: L2-Pf-HR :1.00000: L2-HR :0.94696: (Sim:0h27m51s) 
CPU  0 inst:   95000002 cyc:   63281482 now IPC :1.50032: AVG IPC :1.49276: L2-Pf-HR :1.00000: L2-HR :0.94692: (Sim:0h28m0s) 
CPU  0 inst:   96000003 cyc:   63946986 now IPC :1.50262: AVG IPC :1.49287: L2-Pf-HR :1.00000: L2-HR :0.94697: (Sim:0h28m10s) 
CPU  0 inst:   97000000 cyc:   64670694 now IPC :1.38177: AVG IPC :1.49160: L2-Pf-HR :1.00000: L2-HR :0.94687: (Sim:0h28m19s) 
CPU  0 inst:   98000002 cyc:   65376466 now IPC :1.41689: AVG IPC :1.49078: L2-Pf-HR :1.00000: L2-HR :0.94686: (Sim:0h28m34s) 
CPU  0 inst:   99000001 cyc:   66053692 now IPC :1.47661: AVG IPC :1.49064: L2-Pf-HR :1.00000: L2-HR :0.94685: (Sim:0h28m51s) 
CPU  0 inst:  100000001 cyc:   66737773 now IPC :1.46182: AVG IPC :1.49034: L2-Pf-HR :1.00000: L2-HR :0.94683: (Sim:0h29m1s) 
CPU  0 inst:  101000000 cyc:   67420358 now IPC :1.46502: AVG IPC :1.49008: L2-Pf-HR :1.00000: L2-HR :0.94683: (Sim:0h29m11s) 
CPU  0 inst:  102000004 cyc:   68101236 now IPC :1.46870: AVG IPC :1.48986: L2-Pf-HR :1.00000: L2-HR :0.94683: (Sim:0h29m30s) 
CPU  0 inst:  103000003 cyc:   68795679 now IPC :1.44000: AVG IPC :1.48935: L2-Pf-HR :1.00000: L2-HR :0.94686: (Sim:0h29m49s) 
CPU  0 inst:  104000000 cyc:   69527328 now IPC :1.36677: AVG IPC :1.48804: L2-Pf-HR :1.00000: L2-HR :0.94677: (Sim:0h30m9s) 
CPU  0 inst:  105000004 cyc:   70180648 now IPC :1.53065: AVG IPC :1.48844: L2-Pf-HR :1.00000: L2-HR :0.94684: (Sim:0h30m26s) 
CPU  0 inst:  106000005 cyc:   70836512 now IPC :1.52471: AVG IPC :1.48878: L2-Pf-HR :1.00000: L2-HR :0.94687: (Sim:0h30m35s) 
CPU  0 inst:  107000005 cyc:   71489423 now IPC :1.53160: AVG IPC :1.48918: L2-Pf-HR :1.00000: L2-HR :0.94695: (Sim:0h30m45s) 
CPU  0 inst:  108000002 cyc:   72142855 now IPC :1.53038: AVG IPC :1.48956: L2-Pf-HR :1.00000: L2-HR :0.94700: (Sim:0h31m2s) 
CPU  0 inst:  109000003 cyc:   72803395 now IPC :1.51391: AVG IPC :1.48978: L2-Pf-HR :1.00000: L2-HR :0.94708: (Sim:0h31m22s) 
CPU  0 inst:  110000004 cyc:   73524649 now IPC :1.38648: AVG IPC :1.48876: L2-Pf-HR :1.00000: L2-HR :0.94691: (Sim:0h31m42s) 
CPU  0 inst:  111000001 cyc:   74193857 now IPC :1.49430: AVG IPC :1.48881: L2-Pf-HR :1.00000: L2-HR :0.94686: (Sim:0h32m2s) 
CPU  0 inst:  112000003 cyc:   74862112 now IPC :1.49644: AVG IPC :1.48888: L2-Pf-HR :1.00000: L2-HR :0.94690: (Sim:0h32m17s) 
CPU  0 inst:  113000002 cyc:   75531462 now IPC :1.49399: AVG IPC :1.48892: L2-Pf-HR :1.00000: L2-HR :0.94696: (Sim:0h32m27s) 
CPU  0 inst:  114000003 cyc:   76303644 now IPC :1.29503: AVG IPC :1.48693: L2-Pf-HR :1.00000: L2-HR :0.94681: (Sim:0h32m37s) 
CPU  0 inst:  115000000 cyc:   76998321 now IPC :1.43951: AVG IPC :1.48650: L2-Pf-HR :1.00000: L2-HR :0.94679: (Sim:0h32m47s) 
CPU  0 inst:  116000002 cyc:   77690959 now IPC :1.44376: AVG IPC :1.48611: L2-Pf-HR :1.00000: L2-HR :0.94678: (Sim:0h33m1s) 
CPU  0 inst:  117000002 cyc:   78385725 now IPC :1.43933: AVG IPC :1.48569: L2-Pf-HR :1.00000: L2-HR :0.94678: (Sim:0h33m21s) 
CPU  0 inst:  118000001 cyc:   79081939 now IPC :1.43634: AVG IPC :1.48525: L2-Pf-HR :1.00000: L2-HR :0.94677: (Sim:0h33m41s) 
CPU  0 inst:  119000005 cyc:   79778406 now IPC :1.43582: AVG IPC :1.48482: L2-Pf-HR :1.00000: L2-HR :0.94678: (Sim:0h34m1s) 
CPU  0 inst:  120000005 cyc:   80532155 now IPC :1.32670: AVG IPC :1.48332: L2-Pf-HR :0.99999: L2-HR :0.94672: (Sim:0h34m22s) 
CPU  0 inst:  121000004 cyc:   81195294 now IPC :1.50798: AVG IPC :1.48352: L2-Pf-HR :0.99999: L2-HR :0.94675: (Sim:0h34m41s) 
CPU  0 inst:  122000005 cyc:   81859417 now IPC :1.50575: AVG IPC :1.48371: L2-Pf-HR :0.99999: L2-HR :0.94681: (Sim:0h35m1s) 
CPU  0 inst:  123000004 cyc:   82523793 now IPC :1.50517: AVG IPC :1.48388: L2-Pf-HR :0.99999: L2-HR :0.94685: (Sim:0h35m20s) 
CPU  0 inst:  124000003 cyc:   83185554 now IPC :1.51112: AVG IPC :1.48410: L2-Pf-HR :0.99999: L2-HR :0.94690: (Sim:0h35m39s) 
CPU  0 inst:  125000003 cyc:   83849554 now IPC :1.50602: AVG IPC :1.48428: L2-Pf-HR :0.99999: L2-HR :0.94695: (Sim:0h35m58s) 
CPU  0 inst:  126000005 cyc:   84574222 now IPC :1.37995: AVG IPC :1.48337: L2-Pf-HR :0.99999: L2-HR :0.94683: (Sim:0h36m18s) 
CPU  0 inst:  127000001 cyc:   85243429 now IPC :1.49430: AVG IPC :1.48346: L2-Pf-HR :0.99999: L2-HR :0.94680: (Sim:0h36m36s) 
CPU  0 inst:  128000001 cyc:   85912552 now IPC :1.49449: AVG IPC :1.48355: L2-Pf-HR :0.99999: L2-HR :0.94681: (Sim:0h36m55s) 
CPU  0 inst:  129000004 cyc:   86581235 now IPC :1.49548: AVG IPC :1.48364: L2-Pf-HR :0.99999: L2-HR :0.94684: (Sim:0h37m14s) 
CPU  0 inst:  130000005 cyc:   90701512 now IPC :0.24270: AVG IPC :1.42665: L2-Pf-HR :0.99999: L2-HR :0.93988: (Sim:0h37m51s) 
CPU  0 inst:  131000004 cyc:   95733948 now IPC :0.19871: AVG IPC :1.36143: L2-Pf-HR :0.99999: L2-HR :0.93127: (Sim:0h38m50s) 
CPU  0 inst:  132000002 cyc:  100884606 now IPC :0.19415: AVG IPC :1.30125: L2-Pf-HR :0.99999: L2-HR :0.92300: (Sim:0h39m40s) 
CPU  0 inst:  133000002 cyc:  106033435 now IPC :0.19422: AVG IPC :1.24699: L2-Pf-HR :0.99999: L2-HR :0.91503: (Sim:0h40m40s) 
CPU  0 inst:  134000000 cyc:  111068420 now IPC :0.19861: AVG IPC :1.19905: L2-Pf-HR :0.99999: L2-HR :0.90770: (Sim:0h41m39s) 
CPU  0 inst:  135000000 cyc:  116154306 now IPC :0.19662: AVG IPC :1.15478: L2-Pf-HR :0.99999: L2-HR :0.90652: (Sim:0h42m15s) 
CPU  0 inst:  136000002 cyc:  121240121 now IPC :0.19663: AVG IPC :1.11426: L2-Pf-HR :0.99999: L2-HR :0.90535: (Sim:0h42m57s) 
CPU  0 inst:  137000000 cyc:  126327044 now IPC :0.19658: AVG IPC :1.07702: L2-Pf-HR :0.99999: L2-HR :0.90418: (Sim:0h43m24s) 
CPU  0 inst:  138000000 cyc:  131400251 now IPC :0.19711: AVG IPC :1.04279: L2-Pf-HR :0.99999: L2-HR :0.90301: (Sim:0h44m5s) 
CPU  0 inst:  139000000 cyc:  136487025 now IPC :0.19659: AVG IPC :1.01102: L2-Pf-HR :0.99999: L2-HR :0.90185: (Sim:0h44m47s) 
CPU  0 inst:  140000002 cyc:  141572549 now IPC :0.19664: AVG IPC :0.98157: L2-Pf-HR :0.99999: L2-HR :0.90070: (Sim:0h45m20s) 
CPU  0 inst:  141000004 cyc:  146657184 now IPC :0.19667: AVG IPC :0.95417: L2-Pf-HR :0.99999: L2-HR :0.89954: (Sim:0h45m59s) 
CPU  0 inst:  142000004 cyc:  151628278 now IPC :0.20116: AVG IPC :0.92932: L2-Pf-HR :0.99999: L2-HR :0.89840: (Sim:0h46m25s) 
CPU  0 inst:  143000000 cyc:  156294361 now IPC :0.21431: AVG IPC :0.90784: L2-Pf-HR :0.99999: L2-HR :0.89725: (Sim:0h47m0s) 
CPU  0 inst:  144000003 cyc:  161027182 now IPC :0.21129: AVG IPC :0.88724: L2-Pf-HR :0.99999: L2-HR :0.89611: (Sim:0h47m40s) 
CPU  0 inst:  145000002 cyc:  165806990 now IPC :0.20921: AVG IPC :0.86758: L2-Pf-HR :0.99999: L2-HR :0.89498: (Sim:0h48m21s) 
CPU  0 inst:  146000000 cyc:  170571639 now IPC :0.20988: AVG IPC :0.84910: L2-Pf-HR :0.99999: L2-HR :0.89386: (Sim:0h48m58s) 
CPU  0 inst:  147000000 cyc:  175253923 now IPC :0.21357: AVG IPC :0.83203: L2-Pf-HR :0.99999: L2-HR :0.89273: (Sim:0h49m39s) 
CPU  0 inst:  148000003 cyc:  179957952 now IPC :0.21258: AVG IPC :0.81575: L2-Pf-HR :0.99999: L2-HR :0.89161: (Sim:0h50m22s) 
CPU  0 inst:  149000002 cyc:  184673296 now IPC :0.21207: AVG IPC :0.80025: L2-Pf-HR :0.99999: L2-HR :0.89049: (Sim:0h51m5s) 
CPU  0 inst:  150000000 cyc:  189388199 now IPC :0.21209: AVG IPC :0.78553: L2-Pf-HR :0.99999: L2-HR :0.88938: (Sim:0h51m48s) 
CPU  0 inst:  151000000 cyc:  194027411 now IPC :0.21555: AVG IPC :0.77183: L2-Pf-HR :0.99999: L2-HR :0.88828: (Sim:0h52m30s) 
CPU  0 inst:  152000002 cyc:  198776066 now IPC :0.21059: AVG IPC :0.75836: L2-Pf-HR :0.99999: L2-HR :0.88718: (Sim:0h53m14s) 
CPU  0 inst:  153000000 cyc:  203497915 now IPC :0.21178: AVG IPC :0.74562: L2-Pf-HR :0.99999: L2-HR :0.88608: (Sim:0h53m57s) 
CPU  0 inst:  154000000 cyc:  208293322 now IPC :0.20853: AVG IPC :0.73319: L2-Pf-HR :0.99999: L2-HR :0.88499: (Sim:0h54m40s) 
CPU  0 inst:  155000000 cyc:  212971966 now IPC :0.21374: AVG IPC :0.72173: L2-Pf-HR :0.99999: L2-HR :0.88390: (Sim:0h55m23s) 
CPU  0 inst:  156000000 cyc:  217661060 now IPC :0.21326: AVG IPC :0.71072: L2-Pf-HR :0.99999: L2-HR :0.88281: (Sim:0h56m6s) 
CPU  0 inst:  157000002 cyc:  222267388 now IPC :0.21709: AVG IPC :0.70045: L2-Pf-HR :0.99999: L2-HR :0.88173: (Sim:0h56m48s) 
CPU  0 inst:  158000000 cyc:  226977495 now IPC :0.21231: AVG IPC :0.69028: L2-Pf-HR :0.99999: L2-HR :0.88065: (Sim:0h57m31s) 
CPU  0 inst:  159000004 cyc:  231616290 now IPC :0.21557: AVG IPC :0.68073: L2-Pf-HR :0.99999: L2-HR :0.87958: (Sim:0h58m14s) 
CPU  0 inst:  160000001 cyc:  236288036 now IPC :0.21405: AVG IPC :0.67146: L2-Pf-HR :0.99999: L2-HR :0.87852: (Sim:0h58m57s) 
CPU  0 inst:  161000000 cyc:  241044239 now IPC :0.21025: AVG IPC :0.66233: L2-Pf-HR :0.99999: L2-HR :0.87745: (Sim:0h59m28s) 
CPU  0 inst:  162000004 cyc:  245656097 now IPC :0.21683: AVG IPC :0.65393: L2-Pf-HR :0.99999: L2-HR :0.87639: (Sim:0h59m47s) 
CPU  0 inst:  163000004 cyc:  250356284 now IPC :0.21276: AVG IPC :0.64561: L2-Pf-HR :0.99999: L2-HR :0.87534: (Sim:1h0m8s) 
CPU  0 inst:  164000000 cyc:  255072881 now IPC :0.21202: AVG IPC :0.63756: L2-Pf-HR :0.99999: L2-HR :0.87429: (Sim:1h0m37s) 
CPU  0 inst:  165000003 cyc:  259860011 now IPC :0.20889: AVG IPC :0.62964: L2-Pf-HR :0.99999: L2-HR :0.87324: (Sim:1h0m58s) 
CPU  0 inst:  166000002 cyc:  264620078 now IPC :0.21008: AVG IPC :0.62206: L2-Pf-HR :0.99999: L2-HR :0.87220: (Sim:1h1m17s) 
CPU  0 inst:  167000001 cyc:  269427374 now IPC :0.20802: AVG IPC :0.61465: L2-Pf-HR :0.99999: L2-HR :0.87116: (Sim:1h1m37s) 
CPU  0 inst:  168000002 cyc:  274161335 now IPC :0.21124: AVG IPC :0.60766: L2-Pf-HR :0.99999: L2-HR :0.87012: (Sim:1h1m57s) 
CPU  0 inst:  169000003 cyc:  278785264 now IPC :0.21627: AVG IPC :0.60114: L2-Pf-HR :0.99999: L2-HR :0.86909: (Sim:1h2m33s) 
CPU  0 inst:  170000002 cyc:  283572867 now IPC :0.20887: AVG IPC :0.59450: L2-Pf-HR :0.99999: L2-HR :0.86806: (Sim:1h3m14s) 
CPU  0 inst:  171000000 cyc:  288299271 now IPC :0.21158: AVG IPC :0.58820: L2-Pf-HR :0.99999: L2-HR :0.86704: (Sim:1h3m54s) 
CPU  0 inst:  172000000 cyc:  293059787 now IPC :0.21006: AVG IPC :0.58203: L2-Pf-HR :0.99999: L2-HR :0.86602: (Sim:1h4m35s) 
CPU  0 inst:  173000000 cyc:  297771351 now IPC :0.21224: AVG IPC :0.57616: L2-Pf-HR :0.99999: L2-HR :0.86501: (Sim:1h5m15s) 
CPU  0 inst:  174000002 cyc:  302663765 now IPC :0.20440: AVG IPC :0.57014: L2-Pf-HR :0.99999: L2-HR :0.86399: (Sim:1h5m56s) 
CPU  0 inst:  175000000 cyc:  307277817 now IPC :0.21673: AVG IPC :0.56481: L2-Pf-HR :0.99999: L2-HR :0.86299: (Sim:1h6m36s) 
CPU  0 inst:  176000000 cyc:  312034781 now IPC :0.21022: AVG IPC :0.55939: L2-Pf-HR :0.99999: L2-HR :0.86198: (Sim:1h7m16s) 
CPU  0 inst:  177000000 cyc:  316651418 now IPC :0.21661: AVG IPC :0.55438: L2-Pf-HR :0.99999: L2-HR :0.86098: (Sim:1h7m56s) 
CPU  0 inst:  178000002 cyc:  321371986 now IPC :0.21184: AVG IPC :0.54933: L2-Pf-HR :0.99999: L2-HR :0.85999: (Sim:1h8m37s) 
CPU  0 inst:  179000004 cyc:  326094087 now IPC :0.21177: AVG IPC :0.54443: L2-Pf-HR :0.99999: L2-HR :0.85899: (Sim:1h9m17s) 
CPU  0 inst:  180000004 cyc:  330981864 now IPC :0.20459: AVG IPC :0.53939: L2-Pf-HR :0.99999: L2-HR :0.85801: (Sim:1h9m58s) 
CPU  0 inst:  181000000 cyc:  335735571 now IPC :0.21036: AVG IPC :0.53472: L2-Pf-HR :0.99999: L2-HR :0.85702: (Sim:1h10m39s) 
CPU  0 inst:  182000000 cyc:  340574058 now IPC :0.20668: AVG IPC :0.53005: L2-Pf-HR :0.99999: L2-HR :0.85604: (Sim:1h11m20s) 
CPU  0 inst:  183000000 cyc:  345387039 now IPC :0.20777: AVG IPC :0.52554: L2-Pf-HR :0.99999: L2-HR :0.85506: (Sim:1h12m0s) 
CPU  0 inst:  184000004 cyc:  350102993 now IPC :0.21205: AVG IPC :0.52131: L2-Pf-HR :0.99999: L2-HR :0.85409: (Sim:1h12m40s) 
CPU  0 inst:  185000000 cyc:  354885053 now IPC :0.20911: AVG IPC :0.51709: L2-Pf-HR :0.99999: L2-HR :0.85312: (Sim:1h13m21s) 
CPU  0 inst:  186000003 cyc:  359627491 now IPC :0.21086: AVG IPC :0.51304: L2-Pf-HR :0.99999: L2-HR :0.85215: (Sim:1h14m0s) 
CPU  0 inst:  187000002 cyc:  364326208 now IPC :0.21282: AVG IPC :0.50916: L2-Pf-HR :0.99999: L2-HR :0.85119: (Sim:1h14m36s) 
CPU  0 inst:  188000000 cyc:  369098375 now IPC :0.20955: AVG IPC :0.50527: L2-Pf-HR :0.99999: L2-HR :0.85023: (Sim:1h15m16s) 
CPU  0 inst:  189000002 cyc:  373952940 now IPC :0.20599: AVG IPC :0.50138: L2-Pf-HR :0.99999: L2-HR :0.84927: (Sim:1h15m57s) 
CPU  0 inst:  190000000 cyc:  378728245 now IPC :0.20941: AVG IPC :0.49769: L2-Pf-HR :0.99999: L2-HR :0.84832: (Sim:1h16m38s) 
CPU  0 inst:  191000000 cyc:  383479614 now IPC :0.21047: AVG IPC :0.49412: L2-Pf-HR :0.99999: L2-HR :0.84737: (Sim:1h17m19s) 
CPU  0 inst:  192000000 cyc:  388168122 now IPC :0.21329: AVG IPC :0.49072: L2-Pf-HR :0.99999: L2-HR :0.84642: (Sim:1h17m59s) 
CPU  0 inst:  193000000 cyc:  392734594 now IPC :0.21899: AVG IPC :0.48755: L2-Pf-HR :0.99999: L2-HR :0.84548: (Sim:1h18m39s) 
CPU  0 inst:  194000000 cyc:  397484196 now IPC :0.21054: AVG IPC :0.48423: L2-Pf-HR :0.99999: L2-HR :0.84454: (Sim:1h19m20s) 
CPU  0 inst:  195000002 cyc:  402132173 now IPC :0.21515: AVG IPC :0.48112: L2-Pf-HR :0.99999: L2-HR :0.84361: (Sim:1h20m0s) 
CPU  0 inst:  196000004 cyc:  406898488 now IPC :0.20981: AVG IPC :0.47793: L2-Pf-HR :0.99999: L2-HR :0.84268: (Sim:1h20m41s) 
CPU  0 inst:  197000002 cyc:  411726619 now IPC :0.20712: AVG IPC :0.47475: L2-Pf-HR :0.99999: L2-HR :0.84175: (Sim:1h21m22s) 
CPU  0 inst:  198000004 cyc:  414821292 now IPC :0.32314: AVG IPC :0.47361: L2-Pf-HR :0.99999: L2-HR :0.84113: (Sim:1h21m55s) 
CPU  0 inst:  199000003 cyc:  415551674 now IPC :1.36915: AVG IPC :0.47519: L2-Pf-HR :0.99999: L2-HR :0.84120: (Sim:1h22m21s) 
CPU  0 inst:  200000001 cyc:  416265886 now IPC :1.40014: AVG IPC :0.47678: L2-Pf-HR :0.99999: L2-HR :0.84130: (Sim:1h22m47s) 
CPU  0 inst:  201000005 cyc:  416981310 now IPC :1.39778: AVG IPC :0.47836: L2-Pf-HR :0.99999: L2-HR :0.84140: (Sim:1h23m13s) 
CPU  0 inst:  202000001 cyc:  417725719 now IPC :1.34334: AVG IPC :0.47991: L2-Pf-HR :0.99998: L2-HR :0.84144: (Sim:1h23m39s) 
CPU  0 inst:  203000000 cyc:  418396930 now IPC :1.48984: AVG IPC :0.48153: L2-Pf-HR :0.99998: L2-HR :0.84162: (Sim:1h24m4s) 
CPU  0 inst:  204000003 cyc:  419064658 now IPC :1.49762: AVG IPC :0.48316: L2-Pf-HR :0.99998: L2-HR :0.84181: (Sim:1h24m29s) 
CPU  0 inst:  205000003 cyc:  419736743 now IPC :1.48791: AVG IPC :0.48477: L2-Pf-HR :0.99998: L2-HR :0.84201: (Sim:1h24m55s) 
CPU  0 inst:  206000002 cyc:  420433700 now IPC :1.43481: AVG IPC :0.48635: L2-Pf-HR :0.99996: L2-HR :0.84212: (Sim:1h25m18s) 
CPU  0 inst:  207000005 cyc:  421115668 now IPC :1.46635: AVG IPC :0.48794: L2-Pf-HR :0.99996: L2-HR :0.84228: (Sim:1h25m43s) 
CPU  0 inst:  208000001 cyc:  421782656 now IPC :1.49927: AVG IPC :0.48954: L2-Pf-HR :0.99996: L2-HR :0.84246: (Sim:1h26m8s) 
CPU  0 inst:  209000001 cyc:  422454393 now IPC :1.48868: AVG IPC :0.49113: L2-Pf-HR :0.99996: L2-HR :0.84265: (Sim:1h26m34s) 
CPU  0 inst:  210000001 cyc:  423138746 now IPC :1.46123: AVG IPC :0.49271: L2-Pf-HR :0.99993: L2-HR :0.84278: (Sim:1h27m0s) 
CPU  0 inst:  211000000 cyc:  423833952 now IPC :1.43842: AVG IPC :0.49426: L2-Pf-HR :0.99993: L2-HR :0.84288: (Sim:1h27m25s) 
CPU  0 inst:  212000005 cyc:  424495666 now IPC :1.51123: AVG IPC :0.49585: L2-Pf-HR :0.99993: L2-HR :0.84302: (Sim:1h27m50s) 
CPU  0 inst:  213000004 cyc:  425160458 now IPC :1.50423: AVG IPC :0.49743: L2-Pf-HR :0.99992: L2-HR :0.84316: (Sim:1h28m15s) 
CPU  0 inst:  214000003 cyc:  425823017 now IPC :1.50930: AVG IPC :0.49901: L2-Pf-HR :0.99991: L2-HR :0.84328: (Sim:1h28m40s) 
CPU  0 inst:  215000002 cyc:  426572242 now IPC :1.33471: AVG IPC :0.50048: L2-Pf-HR :0.99990: L2-HR :0.84329: (Sim:1h29m5s) 
CPU  0 inst:  216000005 cyc:  427289850 now IPC :1.39352: AVG IPC :0.50198: L2-Pf-HR :0.99990: L2-HR :0.84339: (Sim:1h29m30s) 
CPU  0 inst:  217000000 cyc:  428000876 now IPC :1.40641: AVG IPC :0.50349: L2-Pf-HR :0.99990: L2-HR :0.84348: (Sim:1h29m56s) 
CPU  0 inst:  218000001 cyc:  428710832 now IPC :1.40854: AVG IPC :0.50499: L2-Pf-HR :0.99990: L2-HR :0.84356: (Sim:1h30m22s) 
CPU  0 inst:  219000002 cyc:  429435092 now IPC :1.38072: AVG IPC :0.50647: L2-Pf-HR :0.99990: L2-HR :0.84363: (Sim:1h30m48s) 
CPU  0 inst:  220000003 cyc:  430101679 now IPC :1.50018: AVG IPC :0.50802: L2-Pf-HR :0.99990: L2-HR :0.84380: (Sim:1h31m13s) 
CPU  0 inst:  221000000 cyc:  430773442 now IPC :1.48862: AVG IPC :0.50955: L2-Pf-HR :0.99990: L2-HR :0.84398: (Sim:1h31m39s) 
CPU  0 inst:  222000005 cyc:  431447049 now IPC :1.48455: AVG IPC :0.51107: L2-Pf-HR :0.99990: L2-HR :0.84412: (Sim:1h32m5s) 
CPU  0 inst:  223000002 cyc:  432131517 now IPC :1.46098: AVG IPC :0.51258: L2-Pf-HR :0.99989: L2-HR :0.84425: (Sim:1h32m30s) 
CPU  0 inst:  224000001 cyc:  432800494 now IPC :1.49482: AVG IPC :0.51410: L2-Pf-HR :0.99989: L2-HR :0.84442: (Sim:1h32m56s) 
CPU  0 inst:  225000000 cyc:  433480866 now IPC :1.46978: AVG IPC :0.51561: L2-Pf-HR :0.99989: L2-HR :0.84457: (Sim:1h33m22s) 
CPU  0 inst:  226000001 cyc:  434151813 now IPC :1.49043: AVG IPC :0.51712: L2-Pf-HR :0.99989: L2-HR :0.84472: (Sim:1h33m47s) 
CPU  0 inst:  227000005 cyc:  434825626 now IPC :1.48410: AVG IPC :0.51862: L2-Pf-HR :0.99988: L2-HR :0.84486: (Sim:1h34m13s) 
CPU  0 inst:  228000001 cyc:  435491856 now IPC :1.50098: AVG IPC :0.52012: L2-Pf-HR :0.99988: L2-HR :0.84496: (Sim:1h34m39s) 
CPU  0 inst:  229000000 cyc:  436167146 now IPC :1.48084: AVG IPC :0.52162: L2-Pf-HR :0.99988: L2-HR :0.84506: (Sim:1h35m5s) 
CPU  0 inst:  230000002 cyc:  436835262 now IPC :1.49675: AVG IPC :0.52311: L2-Pf-HR :0.99988: L2-HR :0.84517: (Sim:1h35m32s) 
CPU  0 inst:  231000002 cyc:  437484845 now IPC :1.53945: AVG IPC :0.52462: L2-Pf-HR :0.99987: L2-HR :0.84530: (Sim:1h35m58s) 
CPU  0 inst:  232000000 cyc:  438205435 now IPC :1.38775: AVG IPC :0.52605: L2-Pf-HR :0.99987: L2-HR :0.84532: (Sim:1h36m25s) 
CPU  0 inst:  233000002 cyc:  438907795 now IPC :1.42377: AVG IPC :0.52749: L2-Pf-HR :0.99987: L2-HR :0.84539: (Sim:1h36m51s) 
CPU  0 inst:  234000000 cyc:  439594708 now IPC :1.45579: AVG IPC :0.52894: L2-Pf-HR :0.99987: L2-HR :0.84548: (Sim:1h37m18s) 
CPU  0 inst:  235000001 cyc:  440300366 now IPC :1.41712: AVG IPC :0.53037: L2-Pf-HR :0.99987: L2-HR :0.84553: (Sim:1h37m45s) 
CPU  0 inst:  236000001 cyc:  440966958 now IPC :1.50017: AVG IPC :0.53183: L2-Pf-HR :0.99986: L2-HR :0.84564: (Sim:1h38m11s) 
CPU  0 inst:  237000000 cyc:  441614336 now IPC :1.54469: AVG IPC :0.53332: L2-Pf-HR :0.99986: L2-HR :0.84581: (Sim:1h38m29s) 
CPU  0 inst:  238000004 cyc:  442257412 now IPC :1.55503: AVG IPC :0.53481: L2-Pf-HR :0.99986: L2-HR :0.84599: (Sim:1h38m41s) 
CPU  0 inst:  239000002 cyc:  442905272 now IPC :1.54354: AVG IPC :0.53629: L2-Pf-HR :0.99986: L2-HR :0.84616: (Sim:1h39m1s) 
CPU  0 inst:  240000003 cyc:  443584205 now IPC :1.47290: AVG IPC :0.53773: L2-Pf-HR :0.99985: L2-HR :0.84624: (Sim:1h39m26s) 
CPU  0 inst:  241000005 cyc:  444229183 now IPC :1.55044: AVG IPC :0.53920: L2-Pf-HR :0.99984: L2-HR :0.84641: (Sim:1h39m51s) 
CPU  0 inst:  242000002 cyc:  444874729 now IPC :1.54907: AVG IPC :0.54067: L2-Pf-HR :0.99984: L2-HR :0.84658: (Sim:1h40m16s) 
CPU  0 inst:  243000003 cyc:  445520416 now IPC :1.54874: AVG IPC :0.54213: L2-Pf-HR :0.99984: L2-HR :0.84674: (Sim:1h40m38s) 
CPU  0 inst:  244000001 cyc:  446196487 now IPC :1.47913: AVG IPC :0.54356: L2-Pf-HR :0.99982: L2-HR :0.84681: (Sim:1h40m52s) 
CPU  0 inst:  245000000 cyc:  446835262 now IPC :1.56549: AVG IPC :0.54502: L2-Pf-HR :0.99982: L2-HR :0.84693: (Sim:1h41m6s) 
CPU  0 inst:  246000002 cyc:  447472858 now IPC :1.56839: AVG IPC :0.54648: L2-Pf-HR :0.99982: L2-HR :0.84706: (Sim:1h41m18s) 
CPU  0 inst:  247000003 cyc:  448113882 now IPC :1.56001: AVG IPC :0.54794: L2-Pf-HR :0.99982: L2-HR :0.84718: (Sim:1h41m30s) 
CPU  0 inst:  248000001 cyc:  448817398 now IPC :1.42143: AVG IPC :0.54931: L2-Pf-HR :0.99981: L2-HR :0.84720: (Sim:1h41m43s) 
CPU  0 inst:  249000005 cyc:  449506189 now IPC :1.45183: AVG IPC :0.55069: L2-Pf-HR :0.99982: L2-HR :0.84728: (Sim:1h41m56s) 
CPU  0 inst:  250000003 cyc:  450201808 now IPC :1.43757: AVG IPC :0.55207: L2-Pf-HR :0.99982: L2-HR :0.84736: (Sim:1h42m8s) 
CPU  0 inst:  251000004 cyc:  450891720 now IPC :1.44946: AVG IPC :0.55344: L2-Pf-HR :0.99982: L2-HR :0.84744: (Sim:1h42m24s) 
CPU  0 inst:  252000005 cyc:  451601549 now IPC :1.40879: AVG IPC :0.55479: L2-Pf-HR :0.99981: L2-HR :0.84746: (Sim:1h42m48s) 
CPU  0 inst:  253000005 cyc:  452247294 now IPC :1.54860: AVG IPC :0.55621: L2-Pf-HR :0.99981: L2-HR :0.84760: (Sim:1h43m10s) 
CPU  0 inst:  254000000 cyc:  452896951 now IPC :1.53927: AVG IPC :0.55763: L2-Pf-HR :0.99981: L2-HR :0.84776: (Sim:1h43m28s) 
CPU  0 inst:  255000000 cyc:  453548830 now IPC :1.53403: AVG IPC :0.55903: L2-Pf-HR :0.99981: L2-HR :0.84792: (Sim:1h43m42s) 
CPU  0 inst:  256000002 cyc:  454210617 now IPC :1.51106: AVG IPC :0.56042: L2-Pf-HR :0.99981: L2-HR :0.84805: (Sim:1h43m55s) 
CPU  0 inst:  257000003 cyc:  454871095 now IPC :1.51406: AVG IPC :0.56181: L2-Pf-HR :0.99979: L2-HR :0.84816: (Sim:1h44m8s) 
CPU  0 inst:  258000004 cyc:  455516755 now IPC :1.54880: AVG IPC :0.56321: L2-Pf-HR :0.99979: L2-HR :0.84832: (Sim:1h44m22s) 
CPU  0 inst:  259000001 cyc:  456177272 now IPC :1.51396: AVG IPC :0.56459: L2-Pf-HR :0.99979: L2-HR :0.84845: (Sim:1h44m48s) 
CPU  0 inst:  260000000 cyc:  456836729 now IPC :1.51640: AVG IPC :0.56597: L2-Pf-HR :0.99979: L2-HR :0.84858: (Sim:1h45m15s) 
CPU  0 inst:  261000000 cyc:  457486212 now IPC :1.53969: AVG IPC :0.56735: L2-Pf-HR :0.99977: L2-HR :0.84867: (Sim:1h45m40s) 
CPU  0 inst:  262000000 cyc:  458131244 now IPC :1.55031: AVG IPC :0.56874: L2-Pf-HR :0.99977: L2-HR :0.84877: (Sim:1h46m6s) 
CPU  0 inst:  263000003 cyc:  458782743 now IPC :1.53493: AVG IPC :0.57012: L2-Pf-HR :0.99977: L2-HR :0.84885: (Sim:1h46m33s) 
CPU  0 inst:  264000005 cyc:  459428488 now IPC :1.54860: AVG IPC :0.57149: L2-Pf-HR :0.99977: L2-HR :0.84894: (Sim:1h46m59s) 
CPU  0 inst:  265000004 cyc:  460115080 now IPC :1.45647: AVG IPC :0.57282: L2-Pf-HR :0.99976: L2-HR :0.84900: (Sim:1h47m26s) 
CPU  0 inst:  266000000 cyc:  460835101 now IPC :1.38884: AVG IPC :0.57409: L2-Pf-HR :0.99976: L2-HR :0.84904: (Sim:1h47m53s) 
CPU  0 inst:  267000000 cyc:  461539837 now IPC :1.41897: AVG IPC :0.57539: L2-Pf-HR :0.99976: L2-HR :0.84909: (Sim:1h48m20s) 
CPU  0 inst:  268000004 cyc:  462226754 now IPC :1.45579: AVG IPC :0.57670: L2-Pf-HR :0.99976: L2-HR :0.84917: (Sim:1h48m47s) 
CPU  0 inst:  269000000 cyc:  462921363 now IPC :1.43965: AVG IPC :0.57800: L2-Pf-HR :0.99976: L2-HR :0.84921: (Sim:1h49m13s) 
CPU  0 inst:  270000003 cyc:  463575532 now IPC :1.52866: AVG IPC :0.57934: L2-Pf-HR :0.99975: L2-HR :0.84934: (Sim:1h49m40s) 
CPU  0 inst:  271000004 cyc:  464228190 now IPC :1.53220: AVG IPC :0.58068: L2-Pf-HR :0.99975: L2-HR :0.84949: (Sim:1h50m6s) 
CPU  0 inst:  272000001 cyc:  464877565 now IPC :1.53994: AVG IPC :0.58203: L2-Pf-HR :0.99976: L2-HR :0.84963: (Sim:1h50m32s) 
CPU  0 inst:  273000000 cyc:  465553757 now IPC :1.47887: AVG IPC :0.58333: L2-Pf-HR :0.99975: L2-HR :0.84971: (Sim:1h50m59s) 
CPU  0 inst:  274000001 cyc:  466204003 now IPC :1.53788: AVG IPC :0.58467: L2-Pf-HR :0.99974: L2-HR :0.84985: (Sim:1h51m25s) 
CPU  0 inst:  275000000 cyc:  466853682 now IPC :1.53922: AVG IPC :0.58600: L2-Pf-HR :0.99974: L2-HR :0.85000: (Sim:1h51m52s) 
CPU  0 inst:  276000005 cyc:  467502780 now IPC :1.54061: AVG IPC :0.58733: L2-Pf-HR :0.99974: L2-HR :0.85014: (Sim:1h52m18s) 
CPU  0 inst:  277000000 cyc:  468170434 now IPC :1.49777: AVG IPC :0.58863: L2-Pf-HR :0.99973: L2-HR :0.85023: (Sim:1h52m43s) 
CPU  0 inst:  278000005 cyc:  468819883 now IPC :1.53977: AVG IPC :0.58995: L2-Pf-HR :0.99972: L2-HR :0.85032: (Sim:1h53m8s) 
CPU  0 inst:  279000001 cyc:  469457457 now IPC :1.56844: AVG IPC :0.59128: L2-Pf-HR :0.99972: L2-HR :0.85043: (Sim:1h53m33s) 
CPU  0 inst:  280000001 cyc:  470102232 now IPC :1.55093: AVG IPC :0.59260: L2-Pf-HR :0.99972: L2-HR :0.85053: (Sim:1h53m58s) 
CPU  0 inst:  281000002 cyc:  470759896 now IPC :1.52053: AVG IPC :0.59390: L2-Pf-HR :0.99972: L2-HR :0.85061: (Sim:1h54m24s) 
CPU  0 inst:  282000001 cyc:  471462181 now IPC :1.42392: AVG IPC :0.59514: L2-Pf-HR :0.99972: L2-HR :0.85063: (Sim:1h54m49s) 
CPU  0 inst:  283000000 cyc:  472144296 now IPC :1.46603: AVG IPC :0.59640: L2-Pf-HR :0.99972: L2-HR :0.85070: (Sim:1h55m15s) 
CPU  0 inst:  284000002 cyc:  472832490 now IPC :1.45308: AVG IPC :0.59765: L2-Pf-HR :0.99972: L2-HR :0.85077: (Sim:1h55m41s) 
CPU  0 inst:  285000003 cyc:  473521859 now IPC :1.45060: AVG IPC :0.59889: L2-Pf-HR :0.99972: L2-HR :0.85084: (Sim:1h56m7s) 
CPU  0 inst:  286000002 cyc:  474205848 now IPC :1.46201: AVG IPC :0.60014: L2-Pf-HR :0.99972: L2-HR :0.85088: (Sim:1h56m33s) 
CPU  0 inst:  287000002 cyc:  474846489 now IPC :1.56094: AVG IPC :0.60144: L2-Pf-HR :0.99972: L2-HR :0.85102: (Sim:1h56m59s) 
CPU  0 inst:  288000002 cyc:  475491579 now IPC :1.55017: AVG IPC :0.60273: L2-Pf-HR :0.99972: L2-HR :0.85115: (Sim:1h57m24s) 
CPU  0 inst:  289000004 cyc:  476137763 now IPC :1.54755: AVG IPC :0.60401: L2-Pf-HR :0.99971: L2-HR :0.85128: (Sim:1h57m50s) 
CPU  0 inst:  290000002 cyc:  476809348 now IPC :1.48901: AVG IPC :0.60526: L2-Pf-HR :0.99970: L2-HR :0.85135: (Sim:1h58m15s) 
CPU  0 inst:  291000001 cyc:  477446468 now IPC :1.56956: AVG IPC :0.60655: L2-Pf-HR :0.99970: L2-HR :0.85149: (Sim:1h58m40s) 
CPU  0 inst:  292000002 cyc:  478093157 now IPC :1.54634: AVG IPC :0.60782: L2-Pf-HR :0.99970: L2-HR :0.85162: (Sim:1h59m5s) 
CPU  0 inst:  293000000 cyc:  478747176 now IPC :1.52900: AVG IPC :0.60908: L2-Pf-HR :0.99970: L2-HR :0.85173: (Sim:1h59m31s) 
CPU  0 inst:  294000005 cyc:  479409257 now IPC :1.51040: AVG IPC :0.61033: L2-Pf-HR :0.99968: L2-HR :0.85180: (Sim:1h59m56s) 
CPU  0 inst:  295000001 cyc:  480042295 now IPC :1.57968: AVG IPC :0.61161: L2-Pf-HR :0.99967: L2-HR :0.85189: (Sim:2h0m21s) 
CPU  0 inst:  296000005 cyc:  480685948 now IPC :1.55364: AVG IPC :0.61288: L2-Pf-HR :0.99967: L2-HR :0.85197: (Sim:2h0m47s) 
CPU  0 inst:  297000002 cyc:  481342237 now IPC :1.52371: AVG IPC :0.61412: L2-Pf-HR :0.99967: L2-HR :0.85205: (Sim:2h1m12s) 
CPU  0 inst:  298000005 cyc:  482006589 now IPC :1.50523: AVG IPC :0.61535: L2-Pf-HR :0.99966: L2-HR :0.85210: (Sim:2h1m37s) 
CPU  0 inst:  299000005 cyc:  482701939 now IPC :1.43812: AVG IPC :0.61654: L2-Pf-HR :0.99966: L2-HR :0.85214: (Sim:2h2m3s) 
CPU  0 inst:  300000000 cyc:  483406338 now IPC :1.41964: AVG IPC :0.61771: L2-Pf-HR :0.99967: L2-HR :0.85217: (Sim:2h2m28s) 
CPU  0 inst:  301000003 cyc:  484102418 now IPC :1.43662: AVG IPC :0.61889: L2-Pf-HR :0.99967: L2-HR :0.85222: (Sim:2h2m54s) 
CPU  0 inst:  302000000 cyc:  484787930 now IPC :1.45876: AVG IPC :0.62008: L2-Pf-HR :0.99967: L2-HR :0.85228: (Sim:2h3m20s) 
CPU  0 inst:  303000003 cyc:  485453098 now IPC :1.50338: AVG IPC :0.62129: L2-Pf-HR :0.99966: L2-HR :0.85235: (Sim:2h3m46s) 
CPU  0 inst:  304000000 cyc:  486114332 now IPC :1.51232: AVG IPC :0.62251: L2-Pf-HR :0.99966: L2-HR :0.85247: (Sim:2h4m12s) 
CPU  0 inst:  305000001 cyc:  486760471 now IPC :1.54766: AVG IPC :0.62374: L2-Pf-HR :0.99966: L2-HR :0.85260: (Sim:2h4m38s) 
CPU  0 inst:  306000002 cyc:  487414851 now IPC :1.52817: AVG IPC :0.62496: L2-Pf-HR :0.99966: L2-HR :0.85270: (Sim:2h5m3s) 
CPU  0 inst:  307000004 cyc:  488079279 now IPC :1.50506: AVG IPC :0.62616: L2-Pf-HR :0.99964: L2-HR :0.85278: (Sim:2h5m28s) 
CPU  0 inst:  308000001 cyc:  488729205 now IPC :1.53863: AVG IPC :0.62737: L2-Pf-HR :0.99964: L2-HR :0.85290: (Sim:2h5m53s) 
CPU  0 inst:  309000002 cyc:  489374246 now IPC :1.55029: AVG IPC :0.62859: L2-Pf-HR :0.99964: L2-HR :0.85302: (Sim:2h6m18s) 
CPU  0 inst:  310000005 cyc:  490014424 now IPC :1.56207: AVG IPC :0.62981: L2-Pf-HR :0.99963: L2-HR :0.85314: (Sim:2h6m43s) 
CPU  0 inst:  311000002 cyc:  490688802 now IPC :1.48284: AVG IPC :0.63099: L2-Pf-HR :0.99961: L2-HR :0.85317: (Sim:2h7m8s) 
CPU  0 inst:  312000001 cyc:  491324303 now IPC :1.57356: AVG IPC :0.63221: L2-Pf-HR :0.99961: L2-HR :0.85326: (Sim:2h7m34s) 
CPU  0 inst:  313000005 cyc:  491960274 now IPC :1.57240: AVG IPC :0.63343: L2-Pf-HR :0.99961: L2-HR :0.85336: (Sim:2h7m59s) 
CPU  0 inst:  314000000 cyc:  492597759 now IPC :1.56866: AVG IPC :0.63464: L2-Pf-HR :0.99961: L2-HR :0.85344: (Sim:2h8m24s) 
CPU  0 inst:  315000005 cyc:  493294542 now IPC :1.43517: AVG IPC :0.63577: L2-Pf-HR :0.99960: L2-HR :0.85344: (Sim:2h8m50s) 
CPU  0 inst:  316000000 cyc:  493982939 now IPC :1.45264: AVG IPC :0.63691: L2-Pf-HR :0.99960: L2-HR :0.85349: (Sim:2h9m16s) 
CPU  0 inst:  317000005 cyc:  494671623 now IPC :1.45205: AVG IPC :0.63805: L2-Pf-HR :0.99960: L2-HR :0.85355: (Sim:2h9m42s) 
CPU  0 inst:  318000003 cyc:  495362641 now IPC :1.44714: AVG IPC :0.63918: L2-Pf-HR :0.99960: L2-HR :0.85360: (Sim:2h10m9s) 
CPU  0 inst:  319000000 cyc:  496063232 now IPC :1.42736: AVG IPC :0.64030: L2-Pf-HR :0.99959: L2-HR :0.85361: (Sim:2h10m36s) 
CPU  0 inst:  320000004 cyc:  496702295 now IPC :1.56480: AVG IPC :0.64149: L2-Pf-HR :0.99960: L2-HR :0.85372: (Sim:2h11m2s) 
CPU  0 inst:  321000003 cyc:  497356117 now IPC :1.52947: AVG IPC :0.64266: L2-Pf-HR :0.99960: L2-HR :0.85384: (Sim:2h11m29s) 
CPU  0 inst:  322000004 cyc:  498005548 now IPC :1.53981: AVG IPC :0.64383: L2-Pf-HR :0.99960: L2-HR :0.85396: (Sim:2h11m55s) 
CPU  0 inst:  323000004 cyc:  498677026 now IPC :1.48925: AVG IPC :0.64497: L2-Pf-HR :0.99959: L2-HR :0.85402: (Sim:2h12m22s) 
CPU  0 inst:  324000005 cyc:  499318169 now IPC :1.55972: AVG IPC :0.64615: L2-Pf-HR :0.99959: L2-HR :0.85413: (Sim:2h12m49s) 
CPU  0 inst:  325000000 cyc:  499966376 now IPC :1.54271: AVG IPC :0.64731: L2-Pf-HR :0.99959: L2-HR :0.85425: (Sim:2h13m15s) 
CPU  0 inst:  326000005 cyc:  500619676 now IPC :1.53070: AVG IPC :0.64847: L2-Pf-HR :0.99959: L2-HR :0.85436: (Sim:2h13m42s) 
CPU  0 inst:  327000003 cyc:  501277775 now IPC :1.51953: AVG IPC :0.64961: L2-Pf-HR :0.99959: L2-HR :0.85445: (Sim:2h14m9s) 
CPU  0 inst:  328000005 cyc:  501928199 now IPC :1.53746: AVG IPC :0.65077: L2-Pf-HR :0.99959: L2-HR :0.85450: (Sim:2h14m35s) 
Finished CPU 0 instr: 326000002 cyc: 500947344 AVG IPC: 0.65077 (Sim time: 2h14m35s)

ChampSim completed all CPUs

[ROI Statistics]
Core_0_instructions 326000002
Core_0_cycles 500947344
Core_0_IPC 0.65077

Core_0_branch_prediction_accuracy 99.57883
Core_0_branch_MPKI 0.12289
Core_0_average_ROB_occupancy_at_mispredict 562.32412

Core_0_L1D_total_access 102065334
Core_0_L1D_total_hit 95497675 L1D_total_Hit Ratio: 0.93565
Core_0_L1D_total_miss 6567659
Core_0_L1D_loads 93275039
Core_0_L1D_load_hit 87232582 L1D_load_Hit Ratio: 0.93522
Core_0_L1D_load_miss 6042457
Core_0_L1D_RFOs 8560821
Core_0_L1D_RFO_hit 8035619 L1D_RFO_Hit Ratio: 0.93865
Core_0_L1D_RFO_miss 525202
Core_0_L1D_prefetches 229474
Core_0_L1D_prefetch_hit 229474 L1D_prefetch_Hit Ratio: 1.00000
Core_0_L1D_prefetch_miss 0
Core_0_L1D_writebacks 0
Core_0_L1D_writeback_hit 0 L1D_writeback_Hit Ratio: -nan
Core_0_L1D_writeback_miss 0
Core_0_L1D_prefetch_requested 32986312
Core_0_L1D_prefetch_issued 13375384
Core_0_L1D_prefetch_useful 0 L1D_Useful Ratio: 0.00000
Core_0_L1D_prefetch_useless 0
Core_0_L1D_prefetch_late 0
Core_0_L1D_average_miss_latency 144.82613

Core_0_L1I_total_access 50997838
Core_0_L1I_total_hit 50995860 L1I_total_Hit Ratio: 0.99996
Core_0_L1I_total_miss 1978
Core_0_L1I_loads 50997838
Core_0_L1I_load_hit 50995860 L1I_load_Hit Ratio: 0.99996
Core_0_L1I_load_miss 1978
Core_0_L1I_RFOs 0
Core_0_L1I_RFO_hit 0 L1I_RFO_Hit Ratio: -nan
Core_0_L1I_RFO_miss 0
Core_0_L1I_prefetches 0
Core_0_L1I_prefetch_hit 0 L1I_prefetch_Hit Ratio: -nan
Core_0_L1I_prefetch_miss 0
Core_0_L1I_writebacks 0
Core_0_L1I_writeback_hit 0 L1I_writeback_Hit Ratio: -nan
Core_0_L1I_writeback_miss 0
Core_0_L1I_prefetch_requested 0
Core_0_L1I_prefetch_issued 0
Core_0_L1I_prefetch_useful 0 L1I_Useful Ratio: -nan
Core_0_L1I_prefetch_useless 0
Core_0_L1I_prefetch_late 0
Core_0_L1I_average_miss_latency 278.79120

Core_0_L2C_total_access 19023205
Core_0_L2C_total_hit 16255411 L2C_total_Hit Ratio: 0.85450
Core_0_L2C_total_miss 2767794
Core_0_L2C_loads 6044435
Core_0_L2C_load_hit 3805688 L2C_load_Hit Ratio: 0.62962
Core_0_L2C_load_miss 2238747
Core_0_L2C_RFOs 525202
Core_0_L2C_RFO_hit 514 L2C_RFO_Hit Ratio: 0.00098
Core_0_L2C_RFO_miss 524688
Core_0_L2C_prefetches 10526061
Core_0_L2C_prefetch_hit 10521708 L2C_prefetch_Hit Ratio: 0.99959
Core_0_L2C_prefetch_miss 4353
Core_0_L2C_writebacks 1927507
Core_0_L2C_writeback_hit 1927501 L2C_writeback_Hit Ratio: 1.00000
Core_0_L2C_writeback_miss 6
Core_0_L2C_prefetch_requested 8562998
Core_0_L2C_prefetch_issued 3419
Core_0_L2C_prefetch_useful 4311 L2C_Useful Ratio: 1.26089
Core_0_L2C_prefetch_useless 42
Core_0_L2C_prefetch_late 0
Core_0_L2C_average_miss_latency 298.07232

Core_0_LLC_total_access 4381548
Core_0_LLC_total_hit 1631239 LLC_total_Hit Ratio: 0.37230
Core_0_LLC_total_miss 2750309
Core_0_LLC_loads 2238747
Core_0_LLC_load_hit 27379 LLC_load_Hit Ratio: 0.01223
Core_0_LLC_load_miss 2211368
Core_0_LLC_RFOs 524688
Core_0_LLC_RFO_hit 205 LLC_RFO_Hit Ratio: 0.00039
Core_0_LLC_RFO_miss 524483
Core_0_LLC_prefetches 4894
Core_0_LLC_prefetch_hit 4789 LLC_prefetch_Hit Ratio: 0.97855
Core_0_LLC_prefetch_miss 105
Core_0_LLC_writebacks 1613219
Core_0_LLC_writeback_hit 1598866 LLC_writeback_Hit Ratio: 0.99110
Core_0_LLC_writeback_miss 14353
Core_0_LLC_prefetch_requested 0
Core_0_LLC_prefetch_issued 0
Core_0_LLC_prefetch_useful 9 LLC_Useful Ratio: inf
Core_0_LLC_prefetch_useless 95
Core_0_LLC_prefetch_late 0
Core_0_LLC_average_miss_latency 259.60787

Core_0_major_page_fault 0
Core_0_minor_page_fault 19454

CPU 0 L1D next line prefetcher final stats
Prefetcher final stats
Training Unit Size: 4731
Addr table size: 1174464 1174468


Triggers: 2255263
No Prediction: 1179482 52.29909
Stream end: 9280
No translation: 732227 32.46748
Predictions: 3419 0.15160


Stream divergence: 12934 0.57350
Stream divergence -- new stream: 0
Channel_0_RQ_row_buffer_hit 1484825
Channel_0_RQ_row_buffer_miss 1251131
Channel_0_WQ_row_buffer_hit 719123
Channel_0_WQ_row_buffer_miss 883424
Channel_0_WQ_full 9463
Channel_0_dbus_congested 1167131

avg_congested_cycle 8

EzSearch AVG IPC :0.65077: L2-Pf-HR :0.99959 : L2-HR :0.85450 Uful:1.26089
     > Finished combination: TraceType=770-tot Sim:326000000 Prefetcher=L2isb_ideal L1=isb_ideal
