TRACE: [32000000]_FE_[OPT-125M]_[h12]_[s256]_[d64] Warmup: 2000000 NumTraces: 32000000
L1:isb_ideal:L2:isb_ideal
*************************************************
   ChampSim Multicore Out-of-Order Simulator
   Last compiled: Oct 31 2024 01:11:18
*************************************************

trace_0 770-tot_memTraces_v5/150-subBillion_s256_LLM_Arch/memTraces[32000000]_FE_[OPT-125M]_[h12]_[s256]_[d64].champsim.9.xz
L1D: Ideal ISB Prefetching
Ideal ISB Prefetching
MAIN.cc ln 751 stats print skipped
CPU  0 inst:    1000000 cyc:     499116 now IPC :2.00354: AVG IPC :2.00354: L2-Pf-HR :1.00000: L2-HR :0.85450: (Sim:0h0m19s) 
CPU  0 inst:    2000004 cyc:     987233 now IPC :2.04870: AVG IPC :2.02587: L2-Pf-HR :1.00000: L2-HR :0.89243: (Sim:0h0m41s) 

Warmup complete CPU  0 instructions:    2000004 cycles:     987233 (Simulation time: 0 hr 0 min 41 sec) 

CPU  0 inst:    3000004 cyc:    1618229 now IPC :1.58480: AVG IPC :1.58480: L2-Pf-HR :1.00000: L2-HR :0.91450: (Sim:0h1m1s) 
CPU  0 inst:    4000001 cyc:    2245297 now IPC :1.59472: AVG IPC :1.58974: L2-Pf-HR :1.00000: L2-HR :0.91371: (Sim:0h1m21s) 
CPU  0 inst:    5000001 cyc:    2873552 now IPC :1.59171: AVG IPC :1.59040: L2-Pf-HR :1.00000: L2-HR :0.91309: (Sim:0h1m37s) 
CPU  0 inst:    6000003 cyc:    3504611 now IPC :1.58464: AVG IPC :1.58895: L2-Pf-HR :1.00000: L2-HR :0.91305: (Sim:0h1m47s) 
CPU  0 inst:    7000002 cyc:    4133483 now IPC :1.59015: AVG IPC :1.58919: L2-Pf-HR :1.00000: L2-HR :0.91283: (Sim:0h2m0s) 
CPU  0 inst:    8000000 cyc:    4764611 now IPC :1.58446: AVG IPC :1.58840: L2-Pf-HR :1.00000: L2-HR :0.91162: (Sim:0h2m18s) 
CPU  0 inst:    9000004 cyc:    5393894 now IPC :1.58912: AVG IPC :1.58850: L2-Pf-HR :1.00000: L2-HR :0.91068: (Sim:0h2m37s) 
CPU  0 inst:   10000000 cyc:    6022751 now IPC :1.59018: AVG IPC :1.58871: L2-Pf-HR :1.00000: L2-HR :0.90975: (Sim:0h2m56s) 
CPU  0 inst:   11000001 cyc:    6650651 now IPC :1.59261: AVG IPC :1.58915: L2-Pf-HR :1.00000: L2-HR :0.90854: (Sim:0h3m14s) 
CPU  0 inst:   12000001 cyc:    7279096 now IPC :1.59123: AVG IPC :1.58935: L2-Pf-HR :1.00000: L2-HR :0.90748: (Sim:0h3m33s) 
CPU  0 inst:   13000005 cyc:    8024791 now IPC :1.34104: AVG IPC :1.56304: L2-Pf-HR :1.00000: L2-HR :0.88866: (Sim:0h3m52s) 
CPU  0 inst:   14000003 cyc:   10331937 now IPC :0.43344: AVG IPC :1.28415: L2-Pf-HR :1.00000: L2-HR :0.88875: (Sim:0h4m11s) 
CPU  0 inst:   15000000 cyc:   13363990 now IPC :0.32981: AVG IPC :1.05036: L2-Pf-HR :1.00000: L2-HR :0.88177: (Sim:0h4m29s) 
CPU  0 inst:   16000003 cyc:   16491747 now IPC :0.31972: AVG IPC :0.90296: L2-Pf-HR :1.00000: L2-HR :0.87061: (Sim:0h4m50s) 
CPU  0 inst:   17000003 cyc:   19696755 now IPC :0.31201: AVG IPC :0.80173: L2-Pf-HR :1.00000: L2-HR :0.85628: (Sim:0h5m19s) 
CPU  0 inst:   18000000 cyc:   22917101 now IPC :0.31052: AVG IPC :0.72960: L2-Pf-HR :1.00000: L2-HR :0.84214: (Sim:0h5m48s) 
CPU  0 inst:   19000000 cyc:   26136210 now IPC :0.31064: AVG IPC :0.67597: L2-Pf-HR :1.00000: L2-HR :0.82876: (Sim:0h6m7s) 
CPU  0 inst:   20000004 cyc:   27933639 now IPC :0.55635: AVG IPC :0.66799: L2-Pf-HR :0.99998: L2-HR :0.82075: (Sim:0h6m23s) 
CPU  0 inst:   21000005 cyc:   28497066 now IPC :1.77485: AVG IPC :0.69066: L2-Pf-HR :0.99998: L2-HR :0.81904: (Sim:0h6m34s) 
CPU  0 inst:   22000003 cyc:   29065204 now IPC :1.76013: AVG IPC :0.71230: L2-Pf-HR :0.99998: L2-HR :0.81733: (Sim:0h6m46s) 
CPU  0 inst:   23000000 cyc:   29629297 now IPC :1.77275: AVG IPC :0.73319: L2-Pf-HR :0.99998: L2-HR :0.81588: (Sim:0h6m59s) 
CPU  0 inst:   24000003 cyc:   30180492 now IPC :1.81425: AVG IPC :0.75360: L2-Pf-HR :0.99998: L2-HR :0.81476: (Sim:0h7m9s) 
CPU  0 inst:   25000002 cyc:   30739755 now IPC :1.78807: AVG IPC :0.77304: L2-Pf-HR :0.99998: L2-HR :0.81333: (Sim:0h7m20s) 
CPU  0 inst:   26000001 cyc:   31313212 now IPC :1.74381: AVG IPC :0.79140: L2-Pf-HR :0.99998: L2-HR :0.81156: (Sim:0h7m36s) 
CPU  0 inst:   27000002 cyc:   31881522 now IPC :1.75960: AVG IPC :0.80921: L2-Pf-HR :0.99998: L2-HR :0.80974: (Sim:0h7m57s) 
CPU  0 inst:   28000004 cyc:   32431893 now IPC :1.81696: AVG IPC :0.82685: L2-Pf-HR :0.99998: L2-HR :0.80840: (Sim:0h8m9s) 
CPU  0 inst:   29000003 cyc:   32989751 now IPC :1.79257: AVG IPC :0.84368: L2-Pf-HR :0.99998: L2-HR :0.80701: (Sim:0h8m28s) 
Finished CPU 0 instr: 27000005 cyc: 32002519 AVG IPC: 0.84368 (Sim time: 0h8m28s)

ChampSim completed all CPUs

[ROI Statistics]
Core_0_instructions 27000005
Core_0_cycles 32002519
Core_0_IPC 0.84368

Core_0_branch_prediction_accuracy 98.37822
Core_0_branch_MPKI 0.53456
Core_0_average_ROB_occupancy_at_mispredict 329.64498

Core_0_L1D_total_access 8670003
Core_0_L1D_total_hit 8230673 L1D_total_Hit Ratio: 0.94933
Core_0_L1D_total_miss 439330
Core_0_L1D_loads 7719354
Core_0_L1D_load_hit 7330118 L1D_load_Hit Ratio: 0.94958
Core_0_L1D_load_miss 389236
Core_0_L1D_RFOs 861440
Core_0_L1D_RFO_hit 811346 L1D_RFO_Hit Ratio: 0.94185
Core_0_L1D_RFO_miss 50094
Core_0_L1D_prefetches 89209
Core_0_L1D_prefetch_hit 89209 L1D_prefetch_Hit Ratio: 1.00000
Core_0_L1D_prefetch_miss 0
Core_0_L1D_writebacks 0
Core_0_L1D_writeback_hit 0 L1D_writeback_Hit Ratio: -nan
Core_0_L1D_writeback_miss 0
Core_0_L1D_prefetch_requested 2075459
Core_0_L1D_prefetch_issued 873372
Core_0_L1D_prefetch_useful 0 L1D_Useful Ratio: 0.00000
Core_0_L1D_prefetch_useless 0
Core_0_L1D_prefetch_late 0
Core_0_L1D_average_miss_latency 77.15648

Core_0_L1I_total_access 3859432
Core_0_L1I_total_hit 3857589 L1I_total_Hit Ratio: 0.99952
Core_0_L1I_total_miss 1843
Core_0_L1I_loads 3859432
Core_0_L1I_load_hit 3857589 L1I_load_Hit Ratio: 0.99952
Core_0_L1I_load_miss 1843
Core_0_L1I_RFOs 0
Core_0_L1I_RFO_hit 0 L1I_RFO_Hit Ratio: -nan
Core_0_L1I_RFO_miss 0
Core_0_L1I_prefetches 0
Core_0_L1I_prefetch_hit 0 L1I_prefetch_Hit Ratio: -nan
Core_0_L1I_prefetch_miss 0
Core_0_L1I_writebacks 0
Core_0_L1I_writeback_hit 0 L1I_writeback_Hit Ratio: -nan
Core_0_L1I_writeback_miss 0
Core_0_L1I_prefetch_requested 0
Core_0_L1I_prefetch_issued 0
Core_0_L1I_prefetch_useful 0 L1I_Useful Ratio: -nan
Core_0_L1I_prefetch_useless 0
Core_0_L1I_prefetch_late 0
Core_0_L1I_average_miss_latency 207.50678

Core_0_L2C_total_access 1145854
Core_0_L2C_total_hit 924710 L2C_total_Hit Ratio: 0.80701
Core_0_L2C_total_miss 221144
Core_0_L2C_loads 391079
Core_0_L2C_load_hit 219353 L2C_load_Hit Ratio: 0.56089
Core_0_L2C_load_miss 171726
Core_0_L2C_RFOs 50094
Core_0_L2C_RFO_hit 760 L2C_RFO_Hit Ratio: 0.01517
Core_0_L2C_RFO_miss 49334
Core_0_L2C_prefetches 529365
Core_0_L2C_prefetch_hit 529356 L2C_prefetch_Hit Ratio: 0.99998
Core_0_L2C_prefetch_miss 9
Core_0_L2C_writebacks 175316
Core_0_L2C_writeback_hit 175241 L2C_writeback_Hit Ratio: 0.99957
Core_0_L2C_writeback_miss 75
Core_0_L2C_prefetch_requested 395589
Core_0_L2C_prefetch_issued 7
Core_0_L2C_prefetch_useful 7 L2C_Useful Ratio: 1.00000
Core_0_L2C_prefetch_useless 1
Core_0_L2C_prefetch_late 0
Core_0_L2C_average_miss_latency 116.50810

Core_0_LLC_total_access 334868
Core_0_LLC_total_hit 201367 LLC_total_Hit Ratio: 0.60133
Core_0_LLC_total_miss 133501
Core_0_LLC_loads 171726
Core_0_LLC_load_hit 87696 LLC_load_Hit Ratio: 0.51067
Core_0_LLC_load_miss 84030
Core_0_LLC_RFOs 49334
Core_0_LLC_RFO_hit 150 LLC_RFO_Hit Ratio: 0.00304
Core_0_LLC_RFO_miss 49184
Core_0_LLC_prefetches 9
Core_0_LLC_prefetch_hit 8 LLC_prefetch_Hit Ratio: 0.88889
Core_0_LLC_prefetch_miss 1
Core_0_LLC_writebacks 113799
Core_0_LLC_writeback_hit 113513 LLC_writeback_Hit Ratio: 0.99749
Core_0_LLC_writeback_miss 286
Core_0_LLC_prefetch_requested 0
Core_0_LLC_prefetch_issued 0
Core_0_LLC_prefetch_useful 0 LLC_Useful Ratio: -nan
Core_0_LLC_prefetch_useless 0
Core_0_LLC_prefetch_late 0
Core_0_LLC_average_miss_latency 126.52984

Core_0_major_page_fault 0
Core_0_minor_page_fault 3170

CPU 0 L1D next line prefetcher final stats
Prefetcher final stats
Training Unit Size: 4539
Addr table size: 132918 132918


Triggers: 187352
No Prediction: 137452 73.36564
Stream end: 682
No translation: 214652 114.57150
Predictions: 7 0.00374


Stream divergence: 2 0.00107
Stream divergence -- new stream: 0
Channel_0_RQ_row_buffer_hit 125424
Channel_0_RQ_row_buffer_miss 7791
Channel_0_WQ_row_buffer_hit 1862
Channel_0_WQ_row_buffer_miss 3815
Channel_0_WQ_full 0
Channel_0_dbus_congested 14043

avg_congested_cycle 7

EzSearch AVG IPC :0.84368: L2-Pf-HR :0.99998 : L2-HR :0.80701 Uful:1.00000
     > Finished combination: TraceType=770-tot Sim:27000000 Prefetcher=L2isb_ideal L1=isb_ideal
