TRACE: [331000000][Pythia-70M]_[h8][s1024][d64] Warmup: 2000000 NumTraces: 331000000
L1:ipcp:L2:ipcp
*************************************************
   ChampSim Multicore Out-of-Order Simulator
   Last compiled: Oct 30 2024 22:01:39
*************************************************

trace_0 770-tot_memTraces_v5/130-subBillion_s1024_LLM_Arch/memTraces[331000000][Pythia-70M]_[h8][s1024][d64].champsim.9.xz
MAIN.cc ln 751 stats print skipped
CPU  0 inst:    1000000 cyc:     498149 now IPC :2.00743: AVG IPC :2.00743: L2-Pf-HR :0.88093: L2-HR :0.80804: (Sim:0h0m8s) 
CPU  0 inst:    2000003 cyc:     981051 now IPC :2.07082: AVG IPC :2.03863: L2-Pf-HR :0.92485: L2-HR :0.85266: (Sim:0h0m17s) 

Warmup complete CPU  0 instructions:    2000003 cycles:     981051 (Simulation time: 0 hr 0 min 17 sec) 

CPU  0 inst:    3000005 cyc:    1601031 now IPC :1.61296: AVG IPC :1.61296: L2-Pf-HR :0.95699: L2-HR :0.87316: (Sim:0h0m25s) 
CPU  0 inst:    4000001 cyc:    2223817 now IPC :1.60568: AVG IPC :1.60931: L2-Pf-HR :0.95924: L2-HR :0.87328: (Sim:0h0m32s) 
CPU  0 inst:    5000000 cyc:    2845027 now IPC :1.60976: AVG IPC :1.60946: L2-Pf-HR :0.95985: L2-HR :0.87529: (Sim:0h0m40s) 
CPU  0 inst:    6000000 cyc:    3469152 now IPC :1.60224: AVG IPC :1.60765: L2-Pf-HR :0.96004: L2-HR :0.87495: (Sim:0h0m48s) 
CPU  0 inst:    7000001 cyc:    4127662 now IPC :1.51858: AVG IPC :1.58901: L2-Pf-HR :0.96104: L2-HR :0.87646: (Sim:0h0m56s) 
CPU  0 inst:    8000001 cyc:    4728624 now IPC :1.66400: AVG IPC :1.60104: L2-Pf-HR :0.96612: L2-HR :0.87977: (Sim:0h1m4s) 
CPU  0 inst:    9000001 cyc:    5329306 now IPC :1.66477: AVG IPC :1.60984: L2-Pf-HR :0.97003: L2-HR :0.88254: (Sim:0h1m11s) 
CPU  0 inst:   10000001 cyc:    5930785 now IPC :1.66257: AVG IPC :1.61625: L2-Pf-HR :0.97311: L2-HR :0.88467: (Sim:0h1m19s) 
CPU  0 inst:   11000001 cyc:    6531370 now IPC :1.66504: AVG IPC :1.62153: L2-Pf-HR :0.97545: L2-HR :0.88710: (Sim:0h1m27s) 
CPU  0 inst:   12000002 cyc:    7133199 now IPC :1.66160: AVG IPC :1.62545: L2-Pf-HR :0.97747: L2-HR :0.88828: (Sim:0h1m34s) 
CPU  0 inst:   13000000 cyc:    7764380 now IPC :1.58433: AVG IPC :1.62162: L2-Pf-HR :0.97669: L2-HR :0.88730: (Sim:0h1m42s) 
CPU  0 inst:   14000003 cyc:    8359932 now IPC :1.67912: AVG IPC :1.62626: L2-Pf-HR :0.97790: L2-HR :0.88719: (Sim:0h1m49s) 
CPU  0 inst:   15000000 cyc:    8956354 now IPC :1.67666: AVG IPC :1.63003: L2-Pf-HR :0.97900: L2-HR :0.88768: (Sim:0h1m57s) 
CPU  0 inst:   16000000 cyc:    9553275 now IPC :1.67526: AVG IPC :1.63318: L2-Pf-HR :0.98010: L2-HR :0.88854: (Sim:0h2m5s) 
CPU  0 inst:   17000003 cyc:   10215433 now IPC :1.51022: AVG IPC :1.62436: L2-Pf-HR :0.97836: L2-HR :0.88719: (Sim:0h2m12s) 
CPU  0 inst:   18000000 cyc:   10821717 now IPC :1.64939: AVG IPC :1.62591: L2-Pf-HR :0.97859: L2-HR :0.88740: (Sim:0h2m20s) 
CPU  0 inst:   19000002 cyc:   11428103 now IPC :1.64912: AVG IPC :1.62725: L2-Pf-HR :0.97887: L2-HR :0.88737: (Sim:0h2m28s) 
CPU  0 inst:   20000002 cyc:   12035047 now IPC :1.64760: AVG IPC :1.62837: L2-Pf-HR :0.97919: L2-HR :0.88774: (Sim:0h2m35s) 
CPU  0 inst:   21000000 cyc:   12645539 now IPC :1.63802: AVG IPC :1.62888: L2-Pf-HR :0.97956: L2-HR :0.88788: (Sim:0h2m43s) 
CPU  0 inst:   22000004 cyc:   13253838 now IPC :1.64393: AVG IPC :1.62962: L2-Pf-HR :0.97981: L2-HR :0.88815: (Sim:0h2m51s) 
CPU  0 inst:   23000001 cyc:   13921553 now IPC :1.49764: AVG IPC :1.62281: L2-Pf-HR :0.97916: L2-HR :0.88801: (Sim:0h2m59s) 
CPU  0 inst:   24000005 cyc:   14547813 now IPC :1.59679: AVG IPC :1.62161: L2-Pf-HR :0.97985: L2-HR :0.88847: (Sim:0h3m6s) 
CPU  0 inst:   25000001 cyc:   15173716 now IPC :1.59769: AVG IPC :1.62056: L2-Pf-HR :0.98054: L2-HR :0.88886: (Sim:0h3m14s) 
CPU  0 inst:   26000004 cyc:   15797777 now IPC :1.60241: AVG IPC :1.61979: L2-Pf-HR :0.98112: L2-HR :0.88953: (Sim:0h3m22s) 
CPU  0 inst:   27000005 cyc:   16419804 now IPC :1.60765: AVG IPC :1.61930: L2-Pf-HR :0.98170: L2-HR :0.88993: (Sim:0h3m30s) 
CPU  0 inst:   28000000 cyc:   17037401 now IPC :1.61917: AVG IPC :1.61930: L2-Pf-HR :0.98226: L2-HR :0.89055: (Sim:0h3m38s) 
CPU  0 inst:   29000004 cyc:   17711246 now IPC :1.48403: AVG IPC :1.61385: L2-Pf-HR :0.98203: L2-HR :0.88998: (Sim:0h3m46s) 
CPU  0 inst:   30000004 cyc:   18354330 now IPC :1.55501: AVG IPC :1.61167: L2-Pf-HR :0.98238: L2-HR :0.89000: (Sim:0h3m53s) 
CPU  0 inst:   31000005 cyc:   18995592 now IPC :1.55943: AVG IPC :1.60981: L2-Pf-HR :0.98273: L2-HR :0.89014: (Sim:0h4m1s) 
CPU  0 inst:   32000002 cyc:   19640617 now IPC :1.55032: AVG IPC :1.60775: L2-Pf-HR :0.98314: L2-HR :0.89037: (Sim:0h4m9s) 
CPU  0 inst:   33000001 cyc:   20374694 now IPC :1.36225: AVG IPC :1.59846: L2-Pf-HR :0.98228: L2-HR :0.88990: (Sim:0h4m17s) 
CPU  0 inst:   34000000 cyc:   21036589 now IPC :1.51081: AVG IPC :1.59557: L2-Pf-HR :0.98206: L2-HR :0.88979: (Sim:0h4m25s) 
CPU  0 inst:   35000000 cyc:   21694783 now IPC :1.51931: AVG IPC :1.59315: L2-Pf-HR :0.98180: L2-HR :0.88982: (Sim:0h4m33s) 
CPU  0 inst:   36000004 cyc:   22359851 now IPC :1.50361: AVG IPC :1.59036: L2-Pf-HR :0.98162: L2-HR :0.88981: (Sim:0h4m41s) 
CPU  0 inst:   37000000 cyc:   23027821 now IPC :1.49707: AVG IPC :1.58753: L2-Pf-HR :0.98162: L2-HR :0.89000: (Sim:0h4m49s) 
CPU  0 inst:   38000001 cyc:   23698819 now IPC :1.49032: AVG IPC :1.58466: L2-Pf-HR :0.98158: L2-HR :0.89003: (Sim:0h4m57s) 
CPU  0 inst:   39000003 cyc:   24436447 now IPC :1.35570: AVG IPC :1.57746: L2-Pf-HR :0.98120: L2-HR :0.88987: (Sim:0h5m5s) 
CPU  0 inst:   40000002 cyc:   25086290 now IPC :1.53883: AVG IPC :1.57642: L2-Pf-HR :0.98151: L2-HR :0.89008: (Sim:0h5m13s) 
CPU  0 inst:   41000000 cyc:   25734887 now IPC :1.54179: AVG IPC :1.57551: L2-Pf-HR :0.98186: L2-HR :0.89035: (Sim:0h5m21s) 
CPU  0 inst:   42000005 cyc:   26385210 now IPC :1.53771: AVG IPC :1.57455: L2-Pf-HR :0.98218: L2-HR :0.89055: (Sim:0h5m29s) 
CPU  0 inst:   43000000 cyc:   27035900 now IPC :1.53682: AVG IPC :1.57360: L2-Pf-HR :0.98249: L2-HR :0.89092: (Sim:0h5m38s) 
CPU  0 inst:   44000000 cyc:   27685495 now IPC :1.53942: AVG IPC :1.57277: L2-Pf-HR :0.98279: L2-HR :0.89113: (Sim:0h5m45s) 
CPU  0 inst:   45000000 cyc:   28393491 now IPC :1.41244: AVG IPC :1.56863: L2-Pf-HR :0.98248: L2-HR :0.89093: (Sim:0h5m54s) 
CPU  0 inst:   46000005 cyc:   29044963 now IPC :1.53499: AVG IPC :1.56785: L2-Pf-HR :0.98266: L2-HR :0.89091: (Sim:0h6m2s) 
CPU  0 inst:   47000002 cyc:   29696299 now IPC :1.53530: AVG IPC :1.56711: L2-Pf-HR :0.98286: L2-HR :0.89088: (Sim:0h6m10s) 
CPU  0 inst:   48000004 cyc:   30347255 now IPC :1.53621: AVG IPC :1.56643: L2-Pf-HR :0.98309: L2-HR :0.89103: (Sim:0h6m18s) 
CPU  0 inst:   49000005 cyc:   31090103 now IPC :1.34617: AVG IPC :1.56099: L2-Pf-HR :0.98256: L2-HR :0.89069: (Sim:0h6m26s) 
CPU  0 inst:   50000003 cyc:   31758046 now IPC :1.49713: AVG IPC :1.55961: L2-Pf-HR :0.98244: L2-HR :0.89070: (Sim:0h6m34s) 
CPU  0 inst:   51000004 cyc:   32422262 now IPC :1.50554: AVG IPC :1.55846: L2-Pf-HR :0.98222: L2-HR :0.89059: (Sim:0h6m43s) 
CPU  0 inst:   52000001 cyc:   33080459 now IPC :1.51930: AVG IPC :1.55766: L2-Pf-HR :0.98205: L2-HR :0.89068: (Sim:0h6m54s) 
CPU  0 inst:   53000000 cyc:   33749400 now IPC :1.49490: AVG IPC :1.55638: L2-Pf-HR :0.98197: L2-HR :0.89069: (Sim:0h7m2s) 
CPU  0 inst:   54000001 cyc:   34421974 now IPC :1.48683: AVG IPC :1.55498: L2-Pf-HR :0.98199: L2-HR :0.89073: (Sim:0h7m10s) 
CPU  0 inst:   55000001 cyc:   35170873 now IPC :1.33529: AVG IPC :1.55017: L2-Pf-HR :0.98164: L2-HR :0.89063: (Sim:0h7m20s) 
CPU  0 inst:   56000001 cyc:   35833891 now IPC :1.50825: AVG IPC :1.54937: L2-Pf-HR :0.98184: L2-HR :0.89078: (Sim:0h7m29s) 
CPU  0 inst:   57000001 cyc:   36498355 now IPC :1.50497: AVG IPC :1.54854: L2-Pf-HR :0.98208: L2-HR :0.89089: (Sim:0h7m39s) 
CPU  0 inst:   58000000 cyc:   37162421 now IPC :1.50587: AVG IPC :1.54776: L2-Pf-HR :0.98232: L2-HR :0.89112: (Sim:0h7m47s) 
CPU  0 inst:   59000001 cyc:   37827919 now IPC :1.50264: AVG IPC :1.54694: L2-Pf-HR :0.98255: L2-HR :0.89127: (Sim:0h7m56s) 
CPU  0 inst:   60000004 cyc:   38491764 now IPC :1.50638: AVG IPC :1.54622: L2-Pf-HR :0.98276: L2-HR :0.89151: (Sim:0h8m4s) 
CPU  0 inst:   61000002 cyc:   39212952 now IPC :1.38660: AVG IPC :1.54321: L2-Pf-HR :0.98265: L2-HR :0.89140: (Sim:0h8m12s) 
CPU  0 inst:   62000003 cyc:   39877712 now IPC :1.50430: AVG IPC :1.54255: L2-Pf-HR :0.98274: L2-HR :0.89127: (Sim:0h8m24s) 
CPU  0 inst:   63000004 cyc:   40527970 now IPC :1.53785: AVG IPC :1.54247: L2-Pf-HR :0.98279: L2-HR :0.89128: (Sim:0h8m43s) 
CPU  0 inst:   64000000 cyc:   41190592 now IPC :1.50915: AVG IPC :1.54192: L2-Pf-HR :0.98297: L2-HR :0.89144: (Sim:0h9m1s) 
CPU  0 inst:   65000002 cyc:   41923731 now IPC :1.36400: AVG IPC :1.53874: L2-Pf-HR :0.98261: L2-HR :0.89121: (Sim:0h9m20s) 
CPU  0 inst:   66000004 cyc:   42594151 now IPC :1.49161: AVG IPC :1.53798: L2-Pf-HR :0.98255: L2-HR :0.89112: (Sim:0h9m35s) 
CPU  0 inst:   67000001 cyc:   43262046 now IPC :1.49724: AVG IPC :1.53733: L2-Pf-HR :0.98248: L2-HR :0.89111: (Sim:0h9m46s) 
CPU  0 inst:   68000002 cyc:   43928558 now IPC :1.50035: AVG IPC :1.53676: L2-Pf-HR :0.98236: L2-HR :0.89110: (Sim:0h9m55s) 
CPU  0 inst:   69000000 cyc:   44585094 now IPC :1.52314: AVG IPC :1.53655: L2-Pf-HR :0.98224: L2-HR :0.89115: (Sim:0h10m3s) 
CPU  0 inst:   70000004 cyc:   45260052 now IPC :1.48158: AVG IPC :1.53572: L2-Pf-HR :0.98225: L2-HR :0.89118: (Sim:0h10m13s) 
CPU  0 inst:   71000001 cyc:   46009392 now IPC :1.33450: AVG IPC :1.53237: L2-Pf-HR :0.98195: L2-HR :0.89105: (Sim:0h10m21s) 
CPU  0 inst:   72000005 cyc:   46665844 now IPC :1.52335: AVG IPC :1.53224: L2-Pf-HR :0.98211: L2-HR :0.89114: (Sim:0h10m31s) 
CPU  0 inst:   73000002 cyc:   47321318 now IPC :1.52561: AVG IPC :1.53214: L2-Pf-HR :0.98227: L2-HR :0.89129: (Sim:0h10m40s) 
CPU  0 inst:   74000005 cyc:   47979365 now IPC :1.51965: AVG IPC :1.53197: L2-Pf-HR :0.98246: L2-HR :0.89137: (Sim:0h10m49s) 
CPU  0 inst:   75000000 cyc:   48630489 now IPC :1.53580: AVG IPC :1.53202: L2-Pf-HR :0.98260: L2-HR :0.89158: (Sim:0h10m58s) 
CPU  0 inst:   76000003 cyc:   49286931 now IPC :1.52337: AVG IPC :1.53190: L2-Pf-HR :0.98276: L2-HR :0.89170: (Sim:0h11m7s) 
CPU  0 inst:   77000003 cyc:   49997362 now IPC :1.40760: AVG IPC :1.53010: L2-Pf-HR :0.98270: L2-HR :0.89169: (Sim:0h11m15s) 
CPU  0 inst:   78000004 cyc:   50651653 now IPC :1.52837: AVG IPC :1.53008: L2-Pf-HR :0.98273: L2-HR :0.89155: (Sim:0h11m23s) 
CPU  0 inst:   79000000 cyc:   51295924 now IPC :1.55214: AVG IPC :1.53036: L2-Pf-HR :0.98275: L2-HR :0.89157: (Sim:0h11m32s) 
CPU  0 inst:   80000002 cyc:   51955061 now IPC :1.51714: AVG IPC :1.53019: L2-Pf-HR :0.98291: L2-HR :0.89166: (Sim:0h11m40s) 
CPU  0 inst:   81000000 cyc:   52701728 now IPC :1.33928: AVG IPC :1.52744: L2-Pf-HR :0.98264: L2-HR :0.89143: (Sim:0h11m49s) 
CPU  0 inst:   82000003 cyc:   53358565 now IPC :1.52245: AVG IPC :1.52737: L2-Pf-HR :0.98251: L2-HR :0.89145: (Sim:0h11m57s) 
CPU  0 inst:   83000000 cyc:   54029466 now IPC :1.49053: AVG IPC :1.52691: L2-Pf-HR :0.98244: L2-HR :0.89139: (Sim:0h12m6s) 
CPU  0 inst:   84000002 cyc:   54702039 now IPC :1.48683: AVG IPC :1.52641: L2-Pf-HR :0.98242: L2-HR :0.89139: (Sim:0h12m14s) 
CPU  0 inst:   85000004 cyc:   55371821 now IPC :1.49303: AVG IPC :1.52599: L2-Pf-HR :0.98238: L2-HR :0.89142: (Sim:0h12m23s) 
CPU  0 inst:   86000001 cyc:   56039427 now IPC :1.49788: AVG IPC :1.52565: L2-Pf-HR :0.98232: L2-HR :0.89144: (Sim:0h12m32s) 
CPU  0 inst:   87000002 cyc:   56783370 now IPC :1.34419: AVG IPC :1.52323: L2-Pf-HR :0.98207: L2-HR :0.89130: (Sim:0h12m42s) 
CPU  0 inst:   88000003 cyc:   57461913 now IPC :1.47375: AVG IPC :1.52264: L2-Pf-HR :0.98214: L2-HR :0.89142: (Sim:0h12m52s) 
CPU  0 inst:   89000003 cyc:   58131836 now IPC :1.49271: AVG IPC :1.52229: L2-Pf-HR :0.98227: L2-HR :0.89148: (Sim:0h13m2s) 
CPU  0 inst:   90000004 cyc:   58800779 now IPC :1.49490: AVG IPC :1.52197: L2-Pf-HR :0.98240: L2-HR :0.89161: (Sim:0h13m11s) 
CPU  0 inst:   91000001 cyc:   59469493 now IPC :1.49540: AVG IPC :1.52167: L2-Pf-HR :0.98254: L2-HR :0.89170: (Sim:0h13m22s) 
CPU  0 inst:   92000001 cyc:   60138082 now IPC :1.49569: AVG IPC :1.52137: L2-Pf-HR :0.98268: L2-HR :0.89184: (Sim:0h13m31s) 
CPU  0 inst:   93000002 cyc:   60864024 now IPC :1.37752: AVG IPC :1.51963: L2-Pf-HR :0.98267: L2-HR :0.89186: (Sim:0h13m44s) 
CPU  0 inst:   94000002 cyc:   61522504 now IPC :1.51865: AVG IPC :1.51962: L2-Pf-HR :0.98268: L2-HR :0.89174: (Sim:0h14m3s) 
CPU  0 inst:   95000005 cyc:   62177484 now IPC :1.52677: AVG IPC :1.51970: L2-Pf-HR :0.98275: L2-HR :0.89171: (Sim:0h14m20s) 
CPU  0 inst:   96000000 cyc:   62835319 now IPC :1.52013: AVG IPC :1.51970: L2-Pf-HR :0.98287: L2-HR :0.89178: (Sim:0h14m38s) 
CPU  0 inst:   97000000 cyc:   63555332 now IPC :1.38886: AVG IPC :1.51820: L2-Pf-HR :0.98271: L2-HR :0.89165: (Sim:0h14m57s) 
CPU  0 inst:   98000001 cyc:   64243278 now IPC :1.45360: AVG IPC :1.51749: L2-Pf-HR :0.98265: L2-HR :0.89162: (Sim:0h15m16s) 
CPU  0 inst:   99000001 cyc:   64901976 now IPC :1.51815: AVG IPC :1.51750: L2-Pf-HR :0.98258: L2-HR :0.89159: (Sim:0h15m35s) 
CPU  0 inst:  100000001 cyc:   65569492 now IPC :1.49809: AVG IPC :1.51730: L2-Pf-HR :0.98253: L2-HR :0.89158: (Sim:0h15m54s) 
CPU  0 inst:  101000003 cyc:   66236438 now IPC :1.49937: AVG IPC :1.51712: L2-Pf-HR :0.98252: L2-HR :0.89160: (Sim:0h16m10s) 
CPU  0 inst:  102000004 cyc:   66899774 now IPC :1.50753: AVG IPC :1.51702: L2-Pf-HR :0.98249: L2-HR :0.89162: (Sim:0h16m19s) 
CPU  0 inst:  103000001 cyc:   67582058 now IPC :1.46566: AVG IPC :1.51649: L2-Pf-HR :0.98255: L2-HR :0.89167: (Sim:0h16m29s) 
CPU  0 inst:  104000000 cyc:   68308595 now IPC :1.37639: AVG IPC :1.51498: L2-Pf-HR :0.98243: L2-HR :0.89155: (Sim:0h16m39s) 
CPU  0 inst:  105000001 cyc:   68955144 now IPC :1.54667: AVG IPC :1.51528: L2-Pf-HR :0.98253: L2-HR :0.89165: (Sim:0h16m58s) 
CPU  0 inst:  106000005 cyc:   69603857 now IPC :1.54152: AVG IPC :1.51553: L2-Pf-HR :0.98265: L2-HR :0.89170: (Sim:0h17m17s) 
CPU  0 inst:  107000005 cyc:   70249878 now IPC :1.54794: AVG IPC :1.51583: L2-Pf-HR :0.98276: L2-HR :0.89183: (Sim:0h17m35s) 
CPU  0 inst:  108000002 cyc:   70897402 now IPC :1.54434: AVG IPC :1.51610: L2-Pf-HR :0.98288: L2-HR :0.89191: (Sim:0h17m54s) 
CPU  0 inst:  109000004 cyc:   71551308 now IPC :1.52927: AVG IPC :1.51622: L2-Pf-HR :0.98302: L2-HR :0.89206: (Sim:0h18m3s) 
CPU  0 inst:  110000004 cyc:   72263023 now IPC :1.40506: AVG IPC :1.51511: L2-Pf-HR :0.98287: L2-HR :0.89187: (Sim:0h18m12s) 
CPU  0 inst:  111000001 cyc:   72922256 now IPC :1.51691: AVG IPC :1.51513: L2-Pf-HR :0.98293: L2-HR :0.89182: (Sim:0h18m24s) 
CPU  0 inst:  112000004 cyc:   73582439 now IPC :1.51474: AVG IPC :1.51512: L2-Pf-HR :0.98302: L2-HR :0.89187: (Sim:0h18m43s) 
CPU  0 inst:  113000003 cyc:   74241018 now IPC :1.51842: AVG IPC :1.51515: L2-Pf-HR :0.98311: L2-HR :0.89195: (Sim:0h19m2s) 
CPU  0 inst:  114000003 cyc:   74993232 now IPC :1.32941: AVG IPC :1.51326: L2-Pf-HR :0.98279: L2-HR :0.89174: (Sim:0h19m21s) 
CPU  0 inst:  115000000 cyc:   75668464 now IPC :1.48097: AVG IPC :1.51297: L2-Pf-HR :0.98274: L2-HR :0.89170: (Sim:0h19m40s) 
CPU  0 inst:  116000002 cyc:   76344704 now IPC :1.47877: AVG IPC :1.51267: L2-Pf-HR :0.98271: L2-HR :0.89169: (Sim:0h19m59s) 
CPU  0 inst:  117000002 cyc:   77022029 now IPC :1.47640: AVG IPC :1.51234: L2-Pf-HR :0.98266: L2-HR :0.89170: (Sim:0h20m18s) 
CPU  0 inst:  118000002 cyc:   77705959 now IPC :1.46214: AVG IPC :1.51189: L2-Pf-HR :0.98264: L2-HR :0.89169: (Sim:0h20m37s) 
CPU  0 inst:  119000005 cyc:   78386635 now IPC :1.46913: AVG IPC :1.51152: L2-Pf-HR :0.98264: L2-HR :0.89173: (Sim:0h20m56s) 
CPU  0 inst:  120000002 cyc:   79128201 now IPC :1.34849: AVG IPC :1.50997: L2-Pf-HR :0.98248: L2-HR :0.89166: (Sim:0h21m15s) 
CPU  0 inst:  121000004 cyc:   79786408 now IPC :1.51928: AVG IPC :1.51005: L2-Pf-HR :0.98259: L2-HR :0.89169: (Sim:0h21m35s) 
CPU  0 inst:  122000005 cyc:   80442584 now IPC :1.52398: AVG IPC :1.51016: L2-Pf-HR :0.98268: L2-HR :0.89178: (Sim:0h21m54s) 
CPU  0 inst:  123000004 cyc:   81100336 now IPC :1.52033: AVG IPC :1.51025: L2-Pf-HR :0.98277: L2-HR :0.89185: (Sim:0h22m12s) 
CPU  0 inst:  124000003 cyc:   81755457 now IPC :1.52643: AVG IPC :1.51038: L2-Pf-HR :0.98287: L2-HR :0.89194: (Sim:0h22m31s) 
CPU  0 inst:  125000003 cyc:   82412659 now IPC :1.52160: AVG IPC :1.51047: L2-Pf-HR :0.98298: L2-HR :0.89204: (Sim:0h22m50s) 
CPU  0 inst:  126000001 cyc:   83127000 now IPC :1.39989: AVG IPC :1.50951: L2-Pf-HR :0.98289: L2-HR :0.89188: (Sim:0h23m9s) 
CPU  0 inst:  127000001 cyc:   83787973 now IPC :1.51292: AVG IPC :1.50954: L2-Pf-HR :0.98297: L2-HR :0.89188: (Sim:0h23m25s) 
CPU  0 inst:  128000004 cyc:   84446697 now IPC :1.51809: AVG IPC :1.50960: L2-Pf-HR :0.98303: L2-HR :0.89191: (Sim:0h23m42s) 
CPU  0 inst:  129000004 cyc:   85101829 now IPC :1.52641: AVG IPC :1.50973: L2-Pf-HR :0.98310: L2-HR :0.89195: (Sim:0h24m1s) 
CPU  0 inst:  130000005 cyc:   89147561 now IPC :0.24717: AVG IPC :1.45180: L2-Pf-HR :0.97578: L2-HR :0.87959: (Sim:0h24m41s) 
CPU  0 inst:  131000004 cyc:   94099767 now IPC :0.20193: AVG IPC :1.38533: L2-Pf-HR :0.96696: L2-HR :0.86506: (Sim:0h25m29s) 
CPU  0 inst:  132000000 cyc:   99201528 now IPC :0.19601: AVG IPC :1.32355: L2-Pf-HR :0.95834: L2-HR :0.85160: (Sim:0h26m18s) 
CPU  0 inst:  133000002 cyc:  104305058 now IPC :0.19594: AVG IPC :1.26786: L2-Pf-HR :0.94987: L2-HR :0.83910: (Sim:0h27m7s) 
CPU  0 inst:  134000000 cyc:  109262118 now IPC :0.20173: AVG IPC :1.21905: L2-Pf-HR :0.94183: L2-HR :0.82793: (Sim:0h27m55s) 
CPU  0 inst:  135000000 cyc:  112567861 now IPC :0.30250: AVG IPC :1.19190: L2-Pf-HR :0.93939: L2-HR :0.82611: (Sim:0h28m29s) 
CPU  0 inst:  136000002 cyc:  115872698 now IPC :0.30259: AVG IPC :1.16632: L2-Pf-HR :0.93697: L2-HR :0.82428: (Sim:0h29m3s) 
CPU  0 inst:  137000000 cyc:  119178884 now IPC :0.30246: AVG IPC :1.14215: L2-Pf-HR :0.93456: L2-HR :0.82248: (Sim:0h29m38s) 
CPU  0 inst:  138000000 cyc:  122485879 now IPC :0.30239: AVG IPC :1.11930: L2-Pf-HR :0.93217: L2-HR :0.82069: (Sim:0h30m12s) 
CPU  0 inst:  139000000 cyc:  125792817 now IPC :0.30239: AVG IPC :1.09765: L2-Pf-HR :0.92978: L2-HR :0.81891: (Sim:0h30m47s) 
CPU  0 inst:  140000002 cyc:  129097645 now IPC :0.30259: AVG IPC :1.07714: L2-Pf-HR :0.92741: L2-HR :0.81715: (Sim:0h31m17s) 
CPU  0 inst:  141000004 cyc:  132401832 now IPC :0.30265: AVG IPC :1.05767: L2-Pf-HR :0.92506: L2-HR :0.81540: (Sim:0h31m34s) 
CPU  0 inst:  142000004 cyc:  135696505 now IPC :0.30352: AVG IPC :1.03923: L2-Pf-HR :0.92271: L2-HR :0.81366: (Sim:0h31m51s) 
CPU  0 inst:  143000000 cyc:  138971798 now IPC :0.30531: AVG IPC :1.02181: L2-Pf-HR :0.92038: L2-HR :0.81193: (Sim:0h32m8s) 
CPU  0 inst:  144000003 cyc:  142248882 now IPC :0.30515: AVG IPC :1.00518: L2-Pf-HR :0.91806: L2-HR :0.81022: (Sim:0h32m33s) 
CPU  0 inst:  145000002 cyc:  145531438 now IPC :0.30464: AVG IPC :0.98927: L2-Pf-HR :0.91577: L2-HR :0.80853: (Sim:0h33m7s) 
CPU  0 inst:  146000000 cyc:  148809833 now IPC :0.30503: AVG IPC :0.97410: L2-Pf-HR :0.91348: L2-HR :0.80684: (Sim:0h33m41s) 
CPU  0 inst:  147000000 cyc:  152084485 now IPC :0.30538: AVG IPC :0.95961: L2-Pf-HR :0.91120: L2-HR :0.80517: (Sim:0h34m15s) 
CPU  0 inst:  148000003 cyc:  155359114 now IPC :0.30538: AVG IPC :0.94573: L2-Pf-HR :0.90894: L2-HR :0.80351: (Sim:0h34m49s) 
CPU  0 inst:  149000002 cyc:  158632989 now IPC :0.30545: AVG IPC :0.93243: L2-Pf-HR :0.90668: L2-HR :0.80187: (Sim:0h35m23s) 
CPU  0 inst:  150000000 cyc:  161909327 now IPC :0.30522: AVG IPC :0.91966: L2-Pf-HR :0.90444: L2-HR :0.80023: (Sim:0h35m51s) 
CPU  0 inst:  151000000 cyc:  165179896 now IPC :0.30576: AVG IPC :0.90744: L2-Pf-HR :0.90221: L2-HR :0.79861: (Sim:0h36m7s) 
CPU  0 inst:  152000002 cyc:  168458154 now IPC :0.30504: AVG IPC :0.89564: L2-Pf-HR :0.90000: L2-HR :0.79701: (Sim:0h36m23s) 
CPU  0 inst:  153000000 cyc:  171735335 now IPC :0.30514: AVG IPC :0.88431: L2-Pf-HR :0.89781: L2-HR :0.79542: (Sim:0h36m39s) 
CPU  0 inst:  154000000 cyc:  175016323 now IPC :0.30479: AVG IPC :0.87339: L2-Pf-HR :0.89562: L2-HR :0.79383: (Sim:0h37m2s) 
CPU  0 inst:  155000000 cyc:  178289662 now IPC :0.30550: AVG IPC :0.86290: L2-Pf-HR :0.89345: L2-HR :0.79226: (Sim:0h37m36s) 
CPU  0 inst:  156000000 cyc:  181562578 now IPC :0.30554: AVG IPC :0.85280: L2-Pf-HR :0.89128: L2-HR :0.79070: (Sim:0h38m10s) 
CPU  0 inst:  157000002 cyc:  184835589 now IPC :0.30553: AVG IPC :0.84306: L2-Pf-HR :0.88912: L2-HR :0.78915: (Sim:0h38m44s) 
CPU  0 inst:  158000000 cyc:  188109651 now IPC :0.30543: AVG IPC :0.83365: L2-Pf-HR :0.88699: L2-HR :0.78761: (Sim:0h39m18s) 
CPU  0 inst:  159000004 cyc:  191384934 now IPC :0.30532: AVG IPC :0.82456: L2-Pf-HR :0.88485: L2-HR :0.78608: (Sim:0h39m52s) 
CPU  0 inst:  160000001 cyc:  194662918 now IPC :0.30506: AVG IPC :0.81577: L2-Pf-HR :0.88275: L2-HR :0.78458: (Sim:0h40m27s) 
CPU  0 inst:  161000000 cyc:  197943628 now IPC :0.30481: AVG IPC :0.80726: L2-Pf-HR :0.88065: L2-HR :0.78307: (Sim:0h41m1s) 
CPU  0 inst:  162000004 cyc:  201216404 now IPC :0.30555: AVG IPC :0.79906: L2-Pf-HR :0.87856: L2-HR :0.78158: (Sim:0h41m35s) 
CPU  0 inst:  163000004 cyc:  204492181 now IPC :0.30527: AVG IPC :0.79111: L2-Pf-HR :0.87647: L2-HR :0.78010: (Sim:0h42m9s) 
CPU  0 inst:  164000000 cyc:  207769644 now IPC :0.30511: AVG IPC :0.78341: L2-Pf-HR :0.87440: L2-HR :0.77863: (Sim:0h42m43s) 
CPU  0 inst:  165000003 cyc:  211046343 now IPC :0.30519: AVG IPC :0.77595: L2-Pf-HR :0.87234: L2-HR :0.77717: (Sim:0h43m17s) 
CPU  0 inst:  166000002 cyc:  214323599 now IPC :0.30513: AVG IPC :0.76872: L2-Pf-HR :0.87029: L2-HR :0.77572: (Sim:0h43m51s) 
CPU  0 inst:  167000001 cyc:  217605134 now IPC :0.30474: AVG IPC :0.76169: L2-Pf-HR :0.86826: L2-HR :0.77428: (Sim:0h44m25s) 
CPU  0 inst:  168000002 cyc:  220882506 now IPC :0.30512: AVG IPC :0.75488: L2-Pf-HR :0.86625: L2-HR :0.77286: (Sim:0h45m0s) 
CPU  0 inst:  169000003 cyc:  224156157 now IPC :0.30547: AVG IPC :0.74829: L2-Pf-HR :0.86423: L2-HR :0.77144: (Sim:0h45m24s) 
CPU  0 inst:  170000002 cyc:  227429479 now IPC :0.30550: AVG IPC :0.74189: L2-Pf-HR :0.86223: L2-HR :0.77003: (Sim:0h45m58s) 
CPU  0 inst:  171000000 cyc:  230705403 now IPC :0.30526: AVG IPC :0.73566: L2-Pf-HR :0.86024: L2-HR :0.76863: (Sim:0h46m32s) 
CPU  0 inst:  172000000 cyc:  233980375 now IPC :0.30535: AVG IPC :0.72962: L2-Pf-HR :0.85825: L2-HR :0.76725: (Sim:0h47m5s) 
CPU  0 inst:  173000000 cyc:  237259066 now IPC :0.30500: AVG IPC :0.72372: L2-Pf-HR :0.85628: L2-HR :0.76587: (Sim:0h47m39s) 
CPU  0 inst:  174000002 cyc:  240535977 now IPC :0.30517: AVG IPC :0.71800: L2-Pf-HR :0.85432: L2-HR :0.76451: (Sim:0h48m13s) 
CPU  0 inst:  175000000 cyc:  243813495 now IPC :0.30511: AVG IPC :0.71243: L2-Pf-HR :0.85238: L2-HR :0.76315: (Sim:0h48m41s) 
CPU  0 inst:  176000000 cyc:  247091338 now IPC :0.30508: AVG IPC :0.70700: L2-Pf-HR :0.85044: L2-HR :0.76180: (Sim:0h49m7s) 
CPU  0 inst:  177000000 cyc:  250362427 now IPC :0.30571: AVG IPC :0.70174: L2-Pf-HR :0.84850: L2-HR :0.76046: (Sim:0h49m41s) 
CPU  0 inst:  178000002 cyc:  253640330 now IPC :0.30507: AVG IPC :0.69659: L2-Pf-HR :0.84658: L2-HR :0.75913: (Sim:0h50m15s) 
CPU  0 inst:  179000004 cyc:  256913560 now IPC :0.30551: AVG IPC :0.69159: L2-Pf-HR :0.84466: L2-HR :0.75781: (Sim:0h50m49s) 
CPU  0 inst:  180000004 cyc:  260196251 now IPC :0.30463: AVG IPC :0.68669: L2-Pf-HR :0.84276: L2-HR :0.75650: (Sim:0h51m23s) 
CPU  0 inst:  181000000 cyc:  263471614 now IPC :0.30531: AVG IPC :0.68193: L2-Pf-HR :0.84086: L2-HR :0.75519: (Sim:0h51m57s) 
CPU  0 inst:  182000000 cyc:  266752021 now IPC :0.30484: AVG IPC :0.67727: L2-Pf-HR :0.83899: L2-HR :0.75390: (Sim:0h52m31s) 
CPU  0 inst:  183000000 cyc:  270032235 now IPC :0.30486: AVG IPC :0.67273: L2-Pf-HR :0.83712: L2-HR :0.75262: (Sim:0h53m5s) 
CPU  0 inst:  184000004 cyc:  273307153 now IPC :0.30535: AVG IPC :0.66832: L2-Pf-HR :0.83526: L2-HR :0.75134: (Sim:0h53m39s) 
CPU  0 inst:  185000000 cyc:  276582155 now IPC :0.30534: AVG IPC :0.66400: L2-Pf-HR :0.83341: L2-HR :0.75007: (Sim:0h54m13s) 
CPU  0 inst:  186000003 cyc:  279854678 now IPC :0.30558: AVG IPC :0.65980: L2-Pf-HR :0.83156: L2-HR :0.74881: (Sim:0h54m47s) 
CPU  0 inst:  187000002 cyc:  283126686 now IPC :0.30562: AVG IPC :0.65569: L2-Pf-HR :0.82972: L2-HR :0.74756: (Sim:0h55m20s) 
CPU  0 inst:  188000000 cyc:  286399850 now IPC :0.30551: AVG IPC :0.65167: L2-Pf-HR :0.82790: L2-HR :0.74632: (Sim:0h55m54s) 
CPU  0 inst:  189000000 cyc:  289675842 now IPC :0.30525: AVG IPC :0.64774: L2-Pf-HR :0.82609: L2-HR :0.74509: (Sim:0h56m28s) 
CPU  0 inst:  190000000 cyc:  292956810 now IPC :0.30479: AVG IPC :0.64389: L2-Pf-HR :0.82429: L2-HR :0.74387: (Sim:0h57m2s) 
CPU  0 inst:  191000000 cyc:  296233245 now IPC :0.30521: AVG IPC :0.64013: L2-Pf-HR :0.82250: L2-HR :0.74265: (Sim:0h57m27s) 
CPU  0 inst:  192000000 cyc:  299513371 now IPC :0.30487: AVG IPC :0.63645: L2-Pf-HR :0.82071: L2-HR :0.74144: (Sim:0h57m46s) 
CPU  0 inst:  193000000 cyc:  302787381 now IPC :0.30544: AVG IPC :0.63286: L2-Pf-HR :0.81892: L2-HR :0.74024: (Sim:0h58m19s) 
CPU  0 inst:  194000000 cyc:  306063931 now IPC :0.30520: AVG IPC :0.62934: L2-Pf-HR :0.81716: L2-HR :0.73904: (Sim:0h58m53s) 
CPU  0 inst:  195000002 cyc:  309335874 now IPC :0.30563: AVG IPC :0.62590: L2-Pf-HR :0.81540: L2-HR :0.73785: (Sim:0h59m26s) 
CPU  0 inst:  196000004 cyc:  312613109 now IPC :0.30514: AVG IPC :0.62253: L2-Pf-HR :0.81365: L2-HR :0.73668: (Sim:1h0m0s) 
CPU  0 inst:  197000002 cyc:  315891052 now IPC :0.30507: AVG IPC :0.61922: L2-Pf-HR :0.81191: L2-HR :0.73551: (Sim:1h0m33s) 
CPU  0 inst:  198000000 cyc:  318134897 now IPC :0.44566: AVG IPC :0.61800: L2-Pf-HR :0.81110: L2-HR :0.73516: (Sim:1h1m2s) 
CPU  0 inst:  199000003 cyc:  318720946 now IPC :1.70635: AVG IPC :0.62000: L2-Pf-HR :0.81231: L2-HR :0.73642: (Sim:1h1m23s) 
CPU  0 inst:  200000001 cyc:  319313735 now IPC :1.68694: AVG IPC :0.62199: L2-Pf-HR :0.81356: L2-HR :0.73770: (Sim:1h1m45s) 
CPU  0 inst:  201000000 cyc:  319900012 now IPC :1.70568: AVG IPC :0.62398: L2-Pf-HR :0.81479: L2-HR :0.73897: (Sim:1h2m7s) 
CPU  0 inst:  202000001 cyc:  320486280 now IPC :1.70571: AVG IPC :0.62597: L2-Pf-HR :0.81586: L2-HR :0.74017: (Sim:1h2m29s) 
CPU  0 inst:  203000000 cyc:  320994410 now IPC :1.96800: AVG IPC :0.62810: L2-Pf-HR :0.81735: L2-HR :0.74161: (Sim:1h2m50s) 
CPU  0 inst:  204000000 cyc:  321504905 now IPC :1.95888: AVG IPC :0.63022: L2-Pf-HR :0.81880: L2-HR :0.74304: (Sim:1h3m12s) 
CPU  0 inst:  205000003 cyc:  322015031 now IPC :1.96031: AVG IPC :0.63233: L2-Pf-HR :0.82021: L2-HR :0.74445: (Sim:1h3m34s) 
CPU  0 inst:  206000001 cyc:  322541276 now IPC :1.90025: AVG IPC :0.63441: L2-Pf-HR :0.82133: L2-HR :0.74569: (Sim:1h3m56s) 
CPU  0 inst:  207000005 cyc:  323051650 now IPC :1.95936: AVG IPC :0.63651: L2-Pf-HR :0.82257: L2-HR :0.74694: (Sim:1h4m17s) 
CPU  0 inst:  208000001 cyc:  323561450 now IPC :1.96155: AVG IPC :0.63860: L2-Pf-HR :0.82378: L2-HR :0.74818: (Sim:1h4m39s) 
CPU  0 inst:  209000001 cyc:  324069215 now IPC :1.96941: AVG IPC :0.64069: L2-Pf-HR :0.82496: L2-HR :0.74941: (Sim:1h5m1s) 
CPU  0 inst:  210000001 cyc:  324582593 now IPC :1.94788: AVG IPC :0.64277: L2-Pf-HR :0.82596: L2-HR :0.75054: (Sim:1h5m22s) 
CPU  0 inst:  211000000 cyc:  325121306 now IPC :1.85627: AVG IPC :0.64478: L2-Pf-HR :0.82681: L2-HR :0.75151: (Sim:1h5m44s) 
CPU  0 inst:  212000002 cyc:  325640977 now IPC :1.92430: AVG IPC :0.64683: L2-Pf-HR :0.82772: L2-HR :0.75251: (Sim:1h6m5s) 
CPU  0 inst:  213000004 cyc:  326160639 now IPC :1.92433: AVG IPC :0.64887: L2-Pf-HR :0.82863: L2-HR :0.75352: (Sim:1h6m27s) 
CPU  0 inst:  214000003 cyc:  326680710 now IPC :1.92281: AVG IPC :0.65091: L2-Pf-HR :0.82946: L2-HR :0.75447: (Sim:1h6m48s) 
CPU  0 inst:  215000002 cyc:  327294150 now IPC :1.63015: AVG IPC :0.65275: L2-Pf-HR :0.83010: L2-HR :0.75534: (Sim:1h7m10s) 
CPU  0 inst:  216000005 cyc:  327872063 now IPC :1.73037: AVG IPC :0.65465: L2-Pf-HR :0.83096: L2-HR :0.75637: (Sim:1h7m32s) 
CPU  0 inst:  217000000 cyc:  328443271 now IPC :1.75067: AVG IPC :0.65656: L2-Pf-HR :0.83178: L2-HR :0.75738: (Sim:1h7m43s) 
CPU  0 inst:  218000001 cyc:  329020847 now IPC :1.73138: AVG IPC :0.65846: L2-Pf-HR :0.83259: L2-HR :0.75838: (Sim:1h7m53s) 
CPU  0 inst:  219000004 cyc:  329582596 now IPC :1.78016: AVG IPC :0.66037: L2-Pf-HR :0.83334: L2-HR :0.75936: (Sim:1h8m3s) 
CPU  0 inst:  220000003 cyc:  330090133 now IPC :1.97030: AVG IPC :0.66239: L2-Pf-HR :0.83435: L2-HR :0.76050: (Sim:1h8m13s) 
CPU  0 inst:  221000002 cyc:  330595915 now IPC :1.97713: AVG IPC :0.66441: L2-Pf-HR :0.83534: L2-HR :0.76163: (Sim:1h8m29s) 
CPU  0 inst:  222000002 cyc:  331102658 now IPC :1.97339: AVG IPC :0.66642: L2-Pf-HR :0.83623: L2-HR :0.76270: (Sim:1h8m43s) 
CPU  0 inst:  223000002 cyc:  331631482 now IPC :1.89099: AVG IPC :0.66838: L2-Pf-HR :0.83707: L2-HR :0.76372: (Sim:1h8m53s) 
CPU  0 inst:  224000001 cyc:  332138239 now IPC :1.97333: AVG IPC :0.67038: L2-Pf-HR :0.83794: L2-HR :0.76473: (Sim:1h9m4s) 
CPU  0 inst:  225000002 cyc:  332642972 now IPC :1.98125: AVG IPC :0.67237: L2-Pf-HR :0.83877: L2-HR :0.76572: (Sim:1h9m26s) 
CPU  0 inst:  226000002 cyc:  333145794 now IPC :1.98878: AVG IPC :0.67436: L2-Pf-HR :0.83956: L2-HR :0.76668: (Sim:1h9m47s) 
CPU  0 inst:  227000005 cyc:  333665766 now IPC :1.92319: AVG IPC :0.67632: L2-Pf-HR :0.84034: L2-HR :0.76764: (Sim:1h10m9s) 
CPU  0 inst:  228000001 cyc:  334185610 now IPC :1.92365: AVG IPC :0.67826: L2-Pf-HR :0.84094: L2-HR :0.76841: (Sim:1h10m30s) 
CPU  0 inst:  229000002 cyc:  334705754 now IPC :1.92255: AVG IPC :0.68020: L2-Pf-HR :0.84153: L2-HR :0.76918: (Sim:1h10m52s) 
CPU  0 inst:  230000002 cyc:  335225939 now IPC :1.92239: AVG IPC :0.68213: L2-Pf-HR :0.84212: L2-HR :0.76995: (Sim:1h11m13s) 
CPU  0 inst:  231000000 cyc:  335755099 now IPC :1.88978: AVG IPC :0.68404: L2-Pf-HR :0.84276: L2-HR :0.77074: (Sim:1h11m35s) 
CPU  0 inst:  232000000 cyc:  336322482 now IPC :1.76248: AVG IPC :0.68587: L2-Pf-HR :0.84325: L2-HR :0.77151: (Sim:1h11m56s) 
CPU  0 inst:  233000001 cyc:  336883090 now IPC :1.78378: AVG IPC :0.68770: L2-Pf-HR :0.84381: L2-HR :0.77230: (Sim:1h12m18s) 
CPU  0 inst:  234000000 cyc:  337439655 now IPC :1.79673: AVG IPC :0.68954: L2-Pf-HR :0.84441: L2-HR :0.77313: (Sim:1h12m40s) 
CPU  0 inst:  235000001 cyc:  338003510 now IPC :1.77351: AVG IPC :0.69135: L2-Pf-HR :0.84493: L2-HR :0.77390: (Sim:1h13m2s) 
CPU  0 inst:  236000001 cyc:  338518494 now IPC :1.94181: AVG IPC :0.69326: L2-Pf-HR :0.84562: L2-HR :0.77481: (Sim:1h13m23s) 
CPU  0 inst:  237000000 cyc:  339022295 now IPC :1.98491: AVG IPC :0.69518: L2-Pf-HR :0.84641: L2-HR :0.77578: (Sim:1h13m44s) 
CPU  0 inst:  238000004 cyc:  339526208 now IPC :1.98448: AVG IPC :0.69710: L2-Pf-HR :0.84720: L2-HR :0.77676: (Sim:1h14m6s) 
CPU  0 inst:  239000002 cyc:  340030423 now IPC :1.98328: AVG IPC :0.69901: L2-Pf-HR :0.84794: L2-HR :0.77770: (Sim:1h14m27s) 
CPU  0 inst:  240000003 cyc:  340546521 now IPC :1.93762: AVG IPC :0.70090: L2-Pf-HR :0.84846: L2-HR :0.77847: (Sim:1h14m49s) 
CPU  0 inst:  241000005 cyc:  341047993 now IPC :1.99413: AVG IPC :0.70280: L2-Pf-HR :0.84913: L2-HR :0.77931: (Sim:1h15m10s) 
CPU  0 inst:  242000002 cyc:  341549755 now IPC :1.99297: AVG IPC :0.70470: L2-Pf-HR :0.84978: L2-HR :0.78015: (Sim:1h15m32s) 
CPU  0 inst:  243000003 cyc:  342051195 now IPC :1.99426: AVG IPC :0.70660: L2-Pf-HR :0.85042: L2-HR :0.78098: (Sim:1h15m46s) 
CPU  0 inst:  244000000 cyc:  342571772 now IPC :1.92094: AVG IPC :0.70845: L2-Pf-HR :0.85081: L2-HR :0.78161: (Sim:1h15m57s) 
CPU  0 inst:  245000000 cyc:  343088707 now IPC :1.93448: AVG IPC :0.71030: L2-Pf-HR :0.85129: L2-HR :0.78227: (Sim:1h16m17s) 
CPU  0 inst:  246000002 cyc:  343605987 now IPC :1.93319: AVG IPC :0.71215: L2-Pf-HR :0.85175: L2-HR :0.78291: (Sim:1h16m38s) 
CPU  0 inst:  247000000 cyc:  344123522 now IPC :1.93223: AVG IPC :0.71399: L2-Pf-HR :0.85221: L2-HR :0.78356: (Sim:1h16m58s) 
CPU  0 inst:  248000000 cyc:  344671741 now IPC :1.82409: AVG IPC :0.71576: L2-Pf-HR :0.85249: L2-HR :0.78410: (Sim:1h17m9s) 
CPU  0 inst:  249000005 cyc:  345228101 now IPC :1.79741: AVG IPC :0.71751: L2-Pf-HR :0.85295: L2-HR :0.78478: (Sim:1h17m19s) 
CPU  0 inst:  250000003 cyc:  345786025 now IPC :1.79236: AVG IPC :0.71925: L2-Pf-HR :0.85340: L2-HR :0.78547: (Sim:1h17m30s) 
CPU  0 inst:  251000004 cyc:  346344120 now IPC :1.79181: AVG IPC :0.72098: L2-Pf-HR :0.85384: L2-HR :0.78614: (Sim:1h17m41s) 
CPU  0 inst:  252000000 cyc:  346904086 now IPC :1.78582: AVG IPC :0.72270: L2-Pf-HR :0.85416: L2-HR :0.78673: (Sim:1h17m51s) 
CPU  0 inst:  253000005 cyc:  347408623 now IPC :1.98203: AVG IPC :0.72454: L2-Pf-HR :0.85476: L2-HR :0.78753: (Sim:1h18m4s) 
CPU  0 inst:  254000000 cyc:  347912754 now IPC :1.98360: AVG IPC :0.72637: L2-Pf-HR :0.85537: L2-HR :0.78835: (Sim:1h18m15s) 
CPU  0 inst:  255000000 cyc:  348416802 now IPC :1.98394: AVG IPC :0.72819: L2-Pf-HR :0.85597: L2-HR :0.78915: (Sim:1h18m28s) 
CPU  0 inst:  256000002 cyc:  348923858 now IPC :1.97217: AVG IPC :0.73001: L2-Pf-HR :0.85648: L2-HR :0.78990: (Sim:1h18m40s) 
CPU  0 inst:  257000003 cyc:  349434626 now IPC :1.95784: AVG IPC :0.73180: L2-Pf-HR :0.85695: L2-HR :0.79058: (Sim:1h18m50s) 
CPU  0 inst:  258000004 cyc:  349935889 now IPC :1.99496: AVG IPC :0.73362: L2-Pf-HR :0.85748: L2-HR :0.79130: (Sim:1h19m0s) 
CPU  0 inst:  259000000 cyc:  350437824 now IPC :1.99228: AVG IPC :0.73543: L2-Pf-HR :0.85797: L2-HR :0.79199: (Sim:1h19m11s) 
CPU  0 inst:  260000004 cyc:  350939464 now IPC :1.99347: AVG IPC :0.73723: L2-Pf-HR :0.85842: L2-HR :0.79265: (Sim:1h19m22s) 
CPU  0 inst:  261000000 cyc:  351463321 now IPC :1.90891: AVG IPC :0.73898: L2-Pf-HR :0.85873: L2-HR :0.79317: (Sim:1h19m38s) 
CPU  0 inst:  262000001 cyc:  351981979 now IPC :1.92805: AVG IPC :0.74074: L2-Pf-HR :0.85902: L2-HR :0.79366: (Sim:1h19m59s) 
CPU  0 inst:  263000003 cyc:  352500293 now IPC :1.92934: AVG IPC :0.74249: L2-Pf-HR :0.85928: L2-HR :0.79412: (Sim:1h20m20s) 
CPU  0 inst:  264000003 cyc:  353017493 now IPC :1.93349: AVG IPC :0.74424: L2-Pf-HR :0.85955: L2-HR :0.79459: (Sim:1h20m40s) 
CPU  0 inst:  265000005 cyc:  353572142 now IPC :1.80295: AVG IPC :0.74591: L2-Pf-HR :0.85985: L2-HR :0.79512: (Sim:1h21m2s) 
CPU  0 inst:  266000002 cyc:  354139300 now IPC :1.76317: AVG IPC :0.74754: L2-Pf-HR :0.86013: L2-HR :0.79564: (Sim:1h21m23s) 
CPU  0 inst:  267000000 cyc:  354698349 now IPC :1.78875: AVG IPC :0.74919: L2-Pf-HR :0.86043: L2-HR :0.79618: (Sim:1h21m44s) 
CPU  0 inst:  268000004 cyc:  355256923 now IPC :1.79028: AVG IPC :0.75083: L2-Pf-HR :0.86077: L2-HR :0.79674: (Sim:1h22m6s) 
CPU  0 inst:  269000002 cyc:  355800809 now IPC :1.83862: AVG IPC :0.75249: L2-Pf-HR :0.86108: L2-HR :0.79729: (Sim:1h22m28s) 
CPU  0 inst:  270000003 cyc:  356304892 now IPC :1.98380: AVG IPC :0.75424: L2-Pf-HR :0.86154: L2-HR :0.79795: (Sim:1h22m44s) 
CPU  0 inst:  271000004 cyc:  356808981 now IPC :1.98378: AVG IPC :0.75598: L2-Pf-HR :0.86202: L2-HR :0.79863: (Sim:1h22m54s) 
CPU  0 inst:  272000001 cyc:  357312644 now IPC :1.98545: AVG IPC :0.75772: L2-Pf-HR :0.86250: L2-HR :0.79931: (Sim:1h23m12s) 
CPU  0 inst:  273000000 cyc:  357827492 now IPC :1.94232: AVG IPC :0.75943: L2-Pf-HR :0.86283: L2-HR :0.79988: (Sim:1h23m27s) 
CPU  0 inst:  274000001 cyc:  358329093 now IPC :1.99362: AVG IPC :0.76116: L2-Pf-HR :0.86323: L2-HR :0.80047: (Sim:1h23m38s) 
CPU  0 inst:  275000000 cyc:  358830957 now IPC :1.99257: AVG IPC :0.76289: L2-Pf-HR :0.86364: L2-HR :0.80106: (Sim:1h23m48s) 
CPU  0 inst:  276000005 cyc:  359332252 now IPC :1.99484: AVG IPC :0.76461: L2-Pf-HR :0.86404: L2-HR :0.80166: (Sim:1h23m58s) 
CPU  0 inst:  277000000 cyc:  359845582 now IPC :1.94805: AVG IPC :0.76631: L2-Pf-HR :0.86436: L2-HR :0.80218: (Sim:1h24m7s) 
CPU  0 inst:  278000005 cyc:  360364790 now IPC :1.92602: AVG IPC :0.76798: L2-Pf-HR :0.86462: L2-HR :0.80262: (Sim:1h24m18s) 
CPU  0 inst:  279000001 cyc:  360881641 now IPC :1.93479: AVG IPC :0.76966: L2-Pf-HR :0.86491: L2-HR :0.80308: (Sim:1h24m38s) 
CPU  0 inst:  280000001 cyc:  361398289 now IPC :1.93555: AVG IPC :0.77133: L2-Pf-HR :0.86519: L2-HR :0.80353: (Sim:1h24m59s) 
CPU  0 inst:  281000002 cyc:  361918861 now IPC :1.92097: AVG IPC :0.77299: L2-Pf-HR :0.86544: L2-HR :0.80397: (Sim:1h25m19s) 
CPU  0 inst:  282000001 cyc:  362485123 now IPC :1.76597: AVG IPC :0.77454: L2-Pf-HR :0.86564: L2-HR :0.80439: (Sim:1h25m40s) 
CPU  0 inst:  283000000 cyc:  363043020 now IPC :1.79244: AVG IPC :0.77611: L2-Pf-HR :0.86591: L2-HR :0.80487: (Sim:1h26m1s) 
CPU  0 inst:  284000002 cyc:  363598820 now IPC :1.79921: AVG IPC :0.77768: L2-Pf-HR :0.86618: L2-HR :0.80535: (Sim:1h26m22s) 
CPU  0 inst:  285000005 cyc:  364156662 now IPC :1.79263: AVG IPC :0.77924: L2-Pf-HR :0.86644: L2-HR :0.80582: (Sim:1h26m39s) 
CPU  0 inst:  286000002 cyc:  364685939 now IPC :1.88936: AVG IPC :0.78085: L2-Pf-HR :0.86669: L2-HR :0.80628: (Sim:1h26m48s) 
CPU  0 inst:  287000002 cyc:  365189941 now IPC :1.98412: AVG IPC :0.78252: L2-Pf-HR :0.86709: L2-HR :0.80687: (Sim:1h27m2s) 
CPU  0 inst:  288000001 cyc:  365694581 now IPC :1.98161: AVG IPC :0.78418: L2-Pf-HR :0.86747: L2-HR :0.80744: (Sim:1h27m12s) 
CPU  0 inst:  289000000 cyc:  366198691 now IPC :1.98369: AVG IPC :0.78583: L2-Pf-HR :0.86783: L2-HR :0.80800: (Sim:1h27m30s) 
CPU  0 inst:  290000002 cyc:  366714680 now IPC :1.93803: AVG IPC :0.78746: L2-Pf-HR :0.86807: L2-HR :0.80846: (Sim:1h27m51s) 
CPU  0 inst:  291000001 cyc:  367216271 now IPC :1.99365: AVG IPC :0.78911: L2-Pf-HR :0.86843: L2-HR :0.80898: (Sim:1h28m12s) 
CPU  0 inst:  292000002 cyc:  367717948 now IPC :1.99332: AVG IPC :0.79076: L2-Pf-HR :0.86877: L2-HR :0.80950: (Sim:1h28m33s) 
CPU  0 inst:  293000001 cyc:  368219512 now IPC :1.99376: AVG IPC :0.79240: L2-Pf-HR :0.86905: L2-HR :0.80997: (Sim:1h28m54s) 
CPU  0 inst:  294000004 cyc:  368738102 now IPC :1.92831: AVG IPC :0.79400: L2-Pf-HR :0.86925: L2-HR :0.81037: (Sim:1h29m15s) 
CPU  0 inst:  295000001 cyc:  369256237 now IPC :1.92999: AVG IPC :0.79560: L2-Pf-HR :0.86947: L2-HR :0.81075: (Sim:1h29m35s) 
CPU  0 inst:  296000005 cyc:  369774588 now IPC :1.92920: AVG IPC :0.79719: L2-Pf-HR :0.86966: L2-HR :0.81110: (Sim:1h29m56s) 
CPU  0 inst:  297000005 cyc:  370292722 now IPC :1.93000: AVG IPC :0.79878: L2-Pf-HR :0.86985: L2-HR :0.81146: (Sim:1h30m17s) 
CPU  0 inst:  298000003 cyc:  370829210 now IPC :1.86397: AVG IPC :0.80033: L2-Pf-HR :0.87001: L2-HR :0.81181: (Sim:1h30m38s) 
CPU  0 inst:  299000005 cyc:  371390308 now IPC :1.78222: AVG IPC :0.80182: L2-Pf-HR :0.87021: L2-HR :0.81220: (Sim:1h30m59s) 
CPU  0 inst:  300000000 cyc:  371956322 now IPC :1.76673: AVG IPC :0.80329: L2-Pf-HR :0.87037: L2-HR :0.81257: (Sim:1h31m21s) 
CPU  0 inst:  301000003 cyc:  372516607 now IPC :1.78481: AVG IPC :0.80477: L2-Pf-HR :0.87056: L2-HR :0.81296: (Sim:1h31m42s) 
CPU  0 inst:  302000003 cyc:  373074723 now IPC :1.79174: AVG IPC :0.80625: L2-Pf-HR :0.87076: L2-HR :0.81335: (Sim:1h32m2s) 
CPU  0 inst:  303000003 cyc:  373585214 now IPC :1.95890: AVG IPC :0.80783: L2-Pf-HR :0.87102: L2-HR :0.81381: (Sim:1h32m12s) 
CPU  0 inst:  304000005 cyc:  374092340 now IPC :1.97190: AVG IPC :0.80941: L2-Pf-HR :0.87132: L2-HR :0.81430: (Sim:1h32m22s) 
CPU  0 inst:  305000001 cyc:  374599062 now IPC :1.97346: AVG IPC :0.81099: L2-Pf-HR :0.87164: L2-HR :0.81480: (Sim:1h32m38s) 
CPU  0 inst:  306000002 cyc:  375107680 now IPC :1.96611: AVG IPC :0.81256: L2-Pf-HR :0.87190: L2-HR :0.81526: (Sim:1h32m59s) 
CPU  0 inst:  307000004 cyc:  375621234 now IPC :1.94722: AVG IPC :0.81411: L2-Pf-HR :0.87212: L2-HR :0.81565: (Sim:1h33m20s) 
CPU  0 inst:  308000002 cyc:  376122581 now IPC :1.99462: AVG IPC :0.81569: L2-Pf-HR :0.87240: L2-HR :0.81610: (Sim:1h33m37s) 
CPU  0 inst:  309000002 cyc:  376624241 now IPC :1.99338: AVG IPC :0.81726: L2-Pf-HR :0.87268: L2-HR :0.81654: (Sim:1h33m52s) 
CPU  0 inst:  310000005 cyc:  377125813 now IPC :1.99374: AVG IPC :0.81883: L2-Pf-HR :0.87294: L2-HR :0.81697: (Sim:1h34m2s) 
CPU  0 inst:  311000002 cyc:  377649504 now IPC :1.90952: AVG IPC :0.82035: L2-Pf-HR :0.87304: L2-HR :0.81725: (Sim:1h34m12s) 
CPU  0 inst:  312000001 cyc:  378166153 now IPC :1.93555: AVG IPC :0.82188: L2-Pf-HR :0.87322: L2-HR :0.81757: (Sim:1h34m22s) 
CPU  0 inst:  313000005 cyc:  378683171 now IPC :1.93418: AVG IPC :0.82340: L2-Pf-HR :0.87341: L2-HR :0.81791: (Sim:1h34m32s) 
CPU  0 inst:  314000000 cyc:  379200141 now IPC :1.93434: AVG IPC :0.82492: L2-Pf-HR :0.87359: L2-HR :0.81824: (Sim:1h34m52s) 
CPU  0 inst:  315000005 cyc:  379754847 now IPC :1.80277: AVG IPC :0.82635: L2-Pf-HR :0.87366: L2-HR :0.81849: (Sim:1h35m13s) 
CPU  0 inst:  316000000 cyc:  380312718 now IPC :1.79252: AVG IPC :0.82777: L2-Pf-HR :0.87384: L2-HR :0.81884: (Sim:1h35m34s) 
CPU  0 inst:  317000005 cyc:  380869567 now IPC :1.79583: AVG IPC :0.82919: L2-Pf-HR :0.87402: L2-HR :0.81920: (Sim:1h35m56s) 
CPU  0 inst:  318000003 cyc:  381426854 now IPC :1.79440: AVG IPC :0.83060: L2-Pf-HR :0.87420: L2-HR :0.81955: (Sim:1h36m17s) 
CPU  0 inst:  319000003 cyc:  381978692 now IPC :1.81213: AVG IPC :0.83203: L2-Pf-HR :0.87431: L2-HR :0.81985: (Sim:1h36m38s) 
CPU  0 inst:  320000004 cyc:  382482972 now IPC :1.98303: AVG IPC :0.83355: L2-Pf-HR :0.87457: L2-HR :0.82027: (Sim:1h36m59s) 
CPU  0 inst:  321000003 cyc:  382987483 now IPC :1.98212: AVG IPC :0.83506: L2-Pf-HR :0.87483: L2-HR :0.82070: (Sim:1h37m20s) 
CPU  0 inst:  322000004 cyc:  383491477 now IPC :1.98415: AVG IPC :0.83658: L2-Pf-HR :0.87508: L2-HR :0.82112: (Sim:1h37m41s) 
CPU  0 inst:  323000004 cyc:  384007919 now IPC :1.93633: AVG IPC :0.83806: L2-Pf-HR :0.87523: L2-HR :0.82145: (Sim:1h37m55s) 
CPU  0 inst:  324000005 cyc:  384510141 now IPC :1.99115: AVG IPC :0.83957: L2-Pf-HR :0.87548: L2-HR :0.82185: (Sim:1h38m5s) 
CPU  0 inst:  325000000 cyc:  385011680 now IPC :1.99385: AVG IPC :0.84108: L2-Pf-HR :0.87572: L2-HR :0.82224: (Sim:1h38m15s) 
CPU  0 inst:  326000005 cyc:  385512996 now IPC :1.99476: AVG IPC :0.84258: L2-Pf-HR :0.87595: L2-HR :0.82262: (Sim:1h38m25s) 
CPU  0 inst:  327000003 cyc:  386018314 now IPC :1.97895: AVG IPC :0.84407: L2-Pf-HR :0.87615: L2-HR :0.82298: (Sim:1h38m35s) 
CPU  0 inst:  328000005 cyc:  386543275 now IPC :1.90491: AVG IPC :0.84552: L2-Pf-HR :0.87626: L2-HR :0.82324: (Sim:1h38m45s) 
Finished CPU 0 instr: 326000002 cyc: 385562224 AVG IPC: 0.84552 (Sim time: 1h38m45s)

ChampSim completed all CPUs

[ROI Statistics]
Core_0_instructions 326000002
Core_0_cycles 385562224
Core_0_IPC 0.84552

Core_0_branch_prediction_accuracy 99.57883
Core_0_branch_MPKI 0.12289
Core_0_average_ROB_occupancy_at_mispredict 561.08639

Core_0_L1D_total_access 168339371
Core_0_L1D_total_hit 161435605 L1D_total_Hit Ratio: 0.95899
Core_0_L1D_total_miss 6903766
Core_0_L1D_loads 95051338
Core_0_L1D_load_hit 92674790 L1D_load_Hit Ratio: 0.97500
Core_0_L1D_load_miss 2376548
Core_0_L1D_RFOs 8609385
Core_0_L1D_RFO_hit 8133292 L1D_RFO_Hit Ratio: 0.94470
Core_0_L1D_RFO_miss 476093
Core_0_L1D_prefetches 64678648
Core_0_L1D_prefetch_hit 60627523 L1D_prefetch_Hit Ratio: 0.93737
Core_0_L1D_prefetch_miss 4051125
Core_0_L1D_writebacks 0
Core_0_L1D_writeback_hit 0 L1D_writeback_Hit Ratio: -nan
Core_0_L1D_writeback_miss 0
Core_0_L1D_prefetch_requested 181528764
Core_0_L1D_prefetch_issued 88852489
Core_0_L1D_prefetch_useful 3742341 L1D_Useful Ratio: 0.04212
Core_0_L1D_prefetch_useless 324145
Core_0_L1D_prefetch_late 323843
Core_0_L1D_average_miss_latency 6147052.02002

Core_0_L1I_total_access 51726008
Core_0_L1I_total_hit 51724030 L1I_total_Hit Ratio: 0.99996
Core_0_L1I_total_miss 1978
Core_0_L1I_loads 51726008
Core_0_L1I_load_hit 51724030 L1I_load_Hit Ratio: 0.99996
Core_0_L1I_load_miss 1978
Core_0_L1I_RFOs 0
Core_0_L1I_RFO_hit 0 L1I_RFO_Hit Ratio: -nan
Core_0_L1I_RFO_miss 0
Core_0_L1I_prefetches 0
Core_0_L1I_prefetch_hit 0 L1I_prefetch_Hit Ratio: -nan
Core_0_L1I_prefetch_miss 0
Core_0_L1I_writebacks 0
Core_0_L1I_writeback_hit 0 L1I_writeback_Hit Ratio: -nan
Core_0_L1I_writeback_miss 0
Core_0_L1I_prefetch_requested 0
Core_0_L1I_prefetch_issued 0
Core_0_L1I_prefetch_useful 0 L1I_Useful Ratio: -nan
Core_0_L1I_prefetch_useless 0
Core_0_L1I_prefetch_late 0
Core_0_L1I_average_miss_latency 255.43124

Core_0_L2C_total_access 16609367
Core_0_L2C_total_hit 13673443 L2C_total_Hit Ratio: 0.82324
Core_0_L2C_total_miss 2935924
Core_0_L2C_loads 2054794
Core_0_L2C_load_hit 1066046 L2C_load_Hit Ratio: 0.51881
Core_0_L2C_load_miss 988748
Core_0_L2C_RFOs 476082
Core_0_L2C_RFO_hit 32494 L2C_RFO_Hit Ratio: 0.06825
Core_0_L2C_RFO_miss 443588
Core_0_L2C_prefetches 12150930
Core_0_L2C_prefetch_hit 10647348 L2C_prefetch_Hit Ratio: 0.87626
Core_0_L2C_prefetch_miss 1503582
Core_0_L2C_writebacks 1927561
Core_0_L2C_writeback_hit 1927555 L2C_writeback_Hit Ratio: 1.00000
Core_0_L2C_writeback_miss 6
Core_0_L2C_prefetch_requested 15846182
Core_0_L2C_prefetch_issued 15172049
Core_0_L2C_prefetch_useful 106407 L2C_Useful Ratio: 0.00701
Core_0_L2C_prefetch_useless 1347813
Core_0_L2C_prefetch_late 365486
Core_0_L2C_average_miss_latency 301.26696

Core_0_LLC_total_access 4556470
Core_0_LLC_total_hit 1802238 LLC_total_Hit Ratio: 0.39553
Core_0_LLC_total_miss 2754232
Core_0_LLC_loads 623345
Core_0_LLC_load_hit 37110 LLC_load_Hit Ratio: 0.05953
Core_0_LLC_load_miss 586235
Core_0_LLC_RFOs 443587
Core_0_LLC_RFO_hit 141 LLC_RFO_Hit Ratio: 0.00032
Core_0_LLC_RFO_miss 443446
Core_0_LLC_prefetches 1868986
Core_0_LLC_prefetch_hit 155632 LLC_prefetch_Hit Ratio: 0.08327
Core_0_LLC_prefetch_miss 1713354
Core_0_LLC_writebacks 1620552
Core_0_LLC_writeback_hit 1609355 LLC_writeback_Hit Ratio: 0.99309
Core_0_LLC_writeback_miss 11197
Core_0_LLC_prefetch_requested 0
Core_0_LLC_prefetch_issued 0
Core_0_LLC_prefetch_useful 34560 LLC_Useful Ratio: inf
Core_0_LLC_prefetch_useless 1571520
Core_0_LLC_prefetch_late 0
Core_0_LLC_average_miss_latency 296.87209

Core_0_major_page_fault 0
Core_0_minor_page_fault 19454


Channel_0_RQ_row_buffer_hit 1453744
Channel_0_RQ_row_buffer_miss 1289291
Channel_0_WQ_row_buffer_hit 578501
Channel_0_WQ_row_buffer_miss 1024963
Channel_0_WQ_full 9916
Channel_0_dbus_congested 2111482

avg_congested_cycle 8

EzSearch AVG IPC :0.84552: L2-Pf-HR :0.87626 : L2-HR :0.82324 Uful:0.00701
     > Finished combination: TraceType=770-tot Sim:326000000 Prefetcher=L2ipcp L1=ipcp
