TRACE: [125000000][OPT-125M]_[h12][s512][d64] Warmup: 2000000 NumTraces: 125000000
L1:berti_concurso:L2:berti_concurso
*************************************************
   ChampSim Multicore Out-of-Order Simulator
   Last compiled: Oct 30 2024 22:15:14
*************************************************

trace_0 770-tot_memTraces_v5/140-subBillion_s512_LLM_Arch/memTraces[125000000][OPT-125M]_[h12][s512][d64].champsim.9.xz
CPU 0 L1D Berti prefetcher
CPU 0 L2C Berti prefetcher
MAIN.cc ln 751 stats print skipped
CPU  0 inst:    1000001 cyc:     498251 now IPC :2.00702: AVG IPC :2.00702: L2-Pf-HR :0.76219: L2-HR :0.72616: (Sim:0h0m21s) 
CPU  0 inst:    2000000 cyc:     980426 now IPC :2.07393: AVG IPC :2.03993: L2-Pf-HR :0.81810: L2-HR :0.78941: (Sim:0h0m41s) 

Warmup complete CPU  0 instructions:    2000003 cycles:     980427 (Simulation time: 0 hr 0 min 41 sec) 

CPU  0 inst:    3000004 cyc:    1581278 now IPC :1.66431: AVG IPC :1.66431: L2-Pf-HR :0.91860: L2-HR :0.86013: (Sim:0h0m59s) 
CPU  0 inst:    4000000 cyc:    2173364 now IPC :1.68894: AVG IPC :1.67653: L2-Pf-HR :0.90245: L2-HR :0.83651: (Sim:0h1m17s) 
CPU  0 inst:    5000001 cyc:    2802792 now IPC :1.58875: AVG IPC :1.64621: L2-Pf-HR :0.90396: L2-HR :0.83084: (Sim:0h1m36s) 
CPU  0 inst:    6000004 cyc:    3398656 now IPC :1.67824: AVG IPC :1.65410: L2-Pf-HR :0.91820: L2-HR :0.84120: (Sim:0h1m52s) 
CPU  0 inst:    7000005 cyc:    3993294 now IPC :1.68170: AVG IPC :1.65955: L2-Pf-HR :0.92553: L2-HR :0.84647: (Sim:0h2m1s) 
CPU  0 inst:    8000005 cyc:    4581644 now IPC :1.69967: AVG IPC :1.66610: L2-Pf-HR :0.92303: L2-HR :0.84312: (Sim:0h2m10s) 
CPU  0 inst:    9000000 cyc:    5207797 now IPC :1.59705: AVG IPC :1.65588: L2-Pf-HR :0.92152: L2-HR :0.83906: (Sim:0h2m23s) 
CPU  0 inst:   10000001 cyc:    5802214 now IPC :1.68232: AVG IPC :1.65914: L2-Pf-HR :0.92631: L2-HR :0.84287: (Sim:0h2m42s) 
CPU  0 inst:   11000005 cyc:    6395494 now IPC :1.68555: AVG IPC :1.66203: L2-Pf-HR :0.92952: L2-HR :0.84572: (Sim:0h3m0s) 
CPU  0 inst:   12000005 cyc:    6983712 now IPC :1.70005: AVG IPC :1.66576: L2-Pf-HR :0.92853: L2-HR :0.84464: (Sim:0h3m18s) 
CPU  0 inst:   13000002 cyc:    7604701 now IPC :1.61033: AVG IPC :1.66056: L2-Pf-HR :0.92642: L2-HR :0.84130: (Sim:0h3m36s) 
CPU  0 inst:   14000005 cyc:    8196797 now IPC :1.68892: AVG IPC :1.66289: L2-Pf-HR :0.92890: L2-HR :0.84342: (Sim:0h3m47s) 
CPU  0 inst:   15000001 cyc:    8788976 now IPC :1.68867: AVG IPC :1.66484: L2-Pf-HR :0.93136: L2-HR :0.84581: (Sim:0h3m57s) 
CPU  0 inst:   16000000 cyc:    9379892 now IPC :1.69229: AVG IPC :1.66677: L2-Pf-HR :0.93047: L2-HR :0.84561: (Sim:0h4m15s) 
CPU  0 inst:   17000000 cyc:    9997109 now IPC :1.62018: AVG IPC :1.66358: L2-Pf-HR :0.92802: L2-HR :0.84216: (Sim:0h4m33s) 
CPU  0 inst:   18000001 cyc:   10592430 now IPC :1.67977: AVG IPC :1.66459: L2-Pf-HR :0.92969: L2-HR :0.84411: (Sim:0h4m51s) 
CPU  0 inst:   19000004 cyc:   11186481 now IPC :1.68336: AVG IPC :1.66568: L2-Pf-HR :0.93140: L2-HR :0.84534: (Sim:0h5m4s) 
CPU  0 inst:   20000000 cyc:   11778368 now IPC :1.68950: AVG IPC :1.66698: L2-Pf-HR :0.93159: L2-HR :0.84600: (Sim:0h5m19s) 
CPU  0 inst:   21000005 cyc:   12402847 now IPC :1.60134: AVG IPC :1.66340: L2-Pf-HR :0.92954: L2-HR :0.84312: (Sim:0h5m37s) 
CPU  0 inst:   22000000 cyc:   13010825 now IPC :1.64479: AVG IPC :1.66246: L2-Pf-HR :0.93083: L2-HR :0.84414: (Sim:0h5m55s) 
CPU  0 inst:   23000003 cyc:   13616871 now IPC :1.65004: AVG IPC :1.66186: L2-Pf-HR :0.93207: L2-HR :0.84548: (Sim:0h6m14s) 
CPU  0 inst:   24000004 cyc:   14223829 now IPC :1.64756: AVG IPC :1.66120: L2-Pf-HR :0.93251: L2-HR :0.84604: (Sim:0h6m32s) 
CPU  0 inst:   25000003 cyc:   14873176 now IPC :1.54001: AVG IPC :1.65554: L2-Pf-HR :0.93040: L2-HR :0.84328: (Sim:0h6m51s) 
CPU  0 inst:   26000005 cyc:   15496848 now IPC :1.60341: AVG IPC :1.65330: L2-Pf-HR :0.93144: L2-HR :0.84423: (Sim:0h7m9s) 
CPU  0 inst:   27000000 cyc:   16122280 now IPC :1.59889: AVG IPC :1.65105: L2-Pf-HR :0.93247: L2-HR :0.84518: (Sim:0h7m28s) 
CPU  0 inst:   28000002 cyc:   16751355 now IPC :1.58964: AVG IPC :1.64860: L2-Pf-HR :0.93294: L2-HR :0.84611: (Sim:0h7m47s) 
CPU  0 inst:   29000002 cyc:   17414776 now IPC :1.50734: AVG IPC :1.64290: L2-Pf-HR :0.93103: L2-HR :0.84361: (Sim:0h8m6s) 
CPU  0 inst:   30000000 cyc:   18064744 now IPC :1.53853: AVG IPC :1.63893: L2-Pf-HR :0.93179: L2-HR :0.84443: (Sim:0h8m24s) 
CPU  0 inst:   31000001 cyc:   18706623 now IPC :1.55793: AVG IPC :1.63600: L2-Pf-HR :0.93264: L2-HR :0.84514: (Sim:0h8m44s) 
CPU  0 inst:   32000003 cyc:   19351258 now IPC :1.55127: AVG IPC :1.63302: L2-Pf-HR :0.93310: L2-HR :0.84613: (Sim:0h9m3s) 
CPU  0 inst:   33000003 cyc:   20011506 now IPC :1.51458: AVG IPC :1.62891: L2-Pf-HR :0.93162: L2-HR :0.84406: (Sim:0h9m22s) 
CPU  0 inst:   34000004 cyc:   20708374 now IPC :1.43499: AVG IPC :1.62206: L2-Pf-HR :0.93188: L2-HR :0.84424: (Sim:0h9m41s) 
CPU  0 inst:   35000000 cyc:   21369842 now IPC :1.51178: AVG IPC :1.61849: L2-Pf-HR :0.93269: L2-HR :0.84512: (Sim:0h10m0s) 
CPU  0 inst:   36000000 cyc:   22023052 now IPC :1.53090: AVG IPC :1.61577: L2-Pf-HR :0.93324: L2-HR :0.84577: (Sim:0h10m19s) 
CPU  0 inst:   37000005 cyc:   22661959 now IPC :1.56518: AVG IPC :1.61428: L2-Pf-HR :0.93245: L2-HR :0.84478: (Sim:0h10m37s) 
CPU  0 inst:   38000003 cyc:   23361070 now IPC :1.43039: AVG IPC :1.60853: L2-Pf-HR :0.93222: L2-HR :0.84436: (Sim:0h10m56s) 
CPU  0 inst:   39000003 cyc:   24014471 now IPC :1.53045: AVG IPC :1.60632: L2-Pf-HR :0.93293: L2-HR :0.84491: (Sim:0h11m14s) 
CPU  0 inst:   40000000 cyc:   24666145 now IPC :1.53451: AVG IPC :1.60434: L2-Pf-HR :0.93359: L2-HR :0.84571: (Sim:0h11m24s) 
CPU  0 inst:   41000003 cyc:   25313595 now IPC :1.54453: AVG IPC :1.60275: L2-Pf-HR :0.93280: L2-HR :0.84503: (Sim:0h11m36s) 
CPU  0 inst:   42000003 cyc:   26016234 now IPC :1.42321: AVG IPC :1.59771: L2-Pf-HR :0.93208: L2-HR :0.84448: (Sim:0h11m56s) 
CPU  0 inst:   43000003 cyc:   26675455 now IPC :1.51694: AVG IPC :1.59564: L2-Pf-HR :0.93265: L2-HR :0.84512: (Sim:0h12m15s) 
CPU  0 inst:   44000001 cyc:   27331471 now IPC :1.52435: AVG IPC :1.59386: L2-Pf-HR :0.93329: L2-HR :0.84576: (Sim:0h12m33s) 
CPU  0 inst:   45000001 cyc:   27977536 now IPC :1.54783: AVG IPC :1.59276: L2-Pf-HR :0.93269: L2-HR :0.84528: (Sim:0h12m52s) 
CPU  0 inst:   46000002 cyc:   28670553 now IPC :1.44297: AVG IPC :1.58901: L2-Pf-HR :0.93230: L2-HR :0.84457: (Sim:0h13m11s) 
CPU  0 inst:   47000000 cyc:   29318306 now IPC :1.54380: AVG IPC :1.58798: L2-Pf-HR :0.93286: L2-HR :0.84515: (Sim:0h13m30s) 
CPU  0 inst:   48000002 cyc:   29973406 now IPC :1.52649: AVG IPC :1.58659: L2-Pf-HR :0.93336: L2-HR :0.84563: (Sim:0h13m49s) 
CPU  0 inst:   49000004 cyc:   30624011 now IPC :1.53703: AVG IPC :1.58550: L2-Pf-HR :0.93313: L2-HR :0.84538: (Sim:0h14m8s) 
CPU  0 inst:   50000000 cyc:   33470073 now IPC :0.35136: AVG IPC :1.47739: L2-Pf-HR :0.90941: L2-HR :0.81992: (Sim:0h14m43s) 
CPU  0 inst:   51000001 cyc:   38109255 now IPC :0.21556: AVG IPC :1.31973: L2-Pf-HR :0.86937: L2-HR :0.78408: (Sim:0h15m10s) 
CPU  0 inst:   52000000 cyc:   41676336 now IPC :0.28034: AVG IPC :1.22862: L2-Pf-HR :0.85482: L2-HR :0.77302: (Sim:0h15m31s) 
CPU  0 inst:   53000000 cyc:   44836123 now IPC :0.31648: AVG IPC :1.16290: L2-Pf-HR :0.84759: L2-HR :0.76799: (Sim:0h16m4s) 
CPU  0 inst:   54000000 cyc:   47995055 now IPC :0.31656: AVG IPC :1.10604: L2-Pf-HR :0.84052: L2-HR :0.76310: (Sim:0h16m36s) 
CPU  0 inst:   55000001 cyc:   51154060 now IPC :0.31656: AVG IPC :1.05633: L2-Pf-HR :0.83359: L2-HR :0.75831: (Sim:0h17m9s) 
CPU  0 inst:   56000000 cyc:   54313679 now IPC :0.31649: AVG IPC :1.01250: L2-Pf-HR :0.82680: L2-HR :0.75366: (Sim:0h17m41s) 
CPU  0 inst:   57000000 cyc:   57474800 now IPC :0.31634: AVG IPC :0.97355: L2-Pf-HR :0.82020: L2-HR :0.74913: (Sim:0h18m14s) 
CPU  0 inst:   58000000 cyc:   60635719 now IPC :0.31636: AVG IPC :0.93873: L2-Pf-HR :0.81375: L2-HR :0.74472: (Sim:0h18m46s) 
CPU  0 inst:   59000000 cyc:   63795313 now IPC :0.31650: AVG IPC :0.90743: L2-Pf-HR :0.80747: L2-HR :0.74043: (Sim:0h19m19s) 
CPU  0 inst:   60000000 cyc:   66951102 now IPC :0.31688: AVG IPC :0.87918: L2-Pf-HR :0.80138: L2-HR :0.73629: (Sim:0h19m51s) 
CPU  0 inst:   61000004 cyc:   70108034 now IPC :0.31676: AVG IPC :0.85349: L2-Pf-HR :0.79549: L2-HR :0.73226: (Sim:0h20m23s) 
CPU  0 inst:   62000000 cyc:   73264653 now IPC :0.31679: AVG IPC :0.83006: L2-Pf-HR :0.78981: L2-HR :0.72832: (Sim:0h20m56s) 
CPU  0 inst:   63000000 cyc:   76419370 now IPC :0.31699: AVG IPC :0.80860: L2-Pf-HR :0.78449: L2-HR :0.72450: (Sim:0h21m28s) 
CPU  0 inst:   64000005 cyc:   79572866 now IPC :0.31711: AVG IPC :0.78888: L2-Pf-HR :0.77926: L2-HR :0.72077: (Sim:0h21m45s) 
CPU  0 inst:   65000002 cyc:   82725997 now IPC :0.31714: AVG IPC :0.77068: L2-Pf-HR :0.77431: L2-HR :0.71712: (Sim:0h22m0s) 
CPU  0 inst:   66000000 cyc:   85880785 now IPC :0.31698: AVG IPC :0.75382: L2-Pf-HR :0.76960: L2-HR :0.71353: (Sim:0h22m31s) 
CPU  0 inst:   67000000 cyc:   89034407 now IPC :0.31710: AVG IPC :0.73818: L2-Pf-HR :0.76503: L2-HR :0.71003: (Sim:0h23m4s) 
CPU  0 inst:   68000000 cyc:   92190131 now IPC :0.31688: AVG IPC :0.72361: L2-Pf-HR :0.76053: L2-HR :0.70661: (Sim:0h23m36s) 
CPU  0 inst:   69000004 cyc:   95343992 now IPC :0.31707: AVG IPC :0.71002: L2-Pf-HR :0.75609: L2-HR :0.70325: (Sim:0h24m8s) 
CPU  0 inst:   70000000 cyc:   98499436 now IPC :0.31691: AVG IPC :0.69730: L2-Pf-HR :0.75177: L2-HR :0.69998: (Sim:0h24m41s) 
CPU  0 inst:   71000000 cyc:  101653746 now IPC :0.31703: AVG IPC :0.68539: L2-Pf-HR :0.74754: L2-HR :0.69680: (Sim:0h25m13s) 
CPU  0 inst:   72000000 cyc:  104806928 now IPC :0.31714: AVG IPC :0.67420: L2-Pf-HR :0.74339: L2-HR :0.69370: (Sim:0h25m45s) 
CPU  0 inst:   73000000 cyc:  107962371 now IPC :0.31691: AVG IPC :0.66366: L2-Pf-HR :0.73932: L2-HR :0.69066: (Sim:0h26m17s) 
CPU  0 inst:   74000001 cyc:  111116581 now IPC :0.31704: AVG IPC :0.65374: L2-Pf-HR :0.73527: L2-HR :0.68765: (Sim:0h26m48s) 
CPU  0 inst:   75000002 cyc:  114270484 now IPC :0.31707: AVG IPC :0.64436: L2-Pf-HR :0.73130: L2-HR :0.68472: (Sim:0h27m20s) 
CPU  0 inst:   76000000 cyc:  115945054 now IPC :0.59717: AVG IPC :0.64368: L2-Pf-HR :0.72883: L2-HR :0.68329: (Sim:0h27m45s) 
CPU  0 inst:   77000002 cyc:  116516758 now IPC :1.74916: AVG IPC :0.64915: L2-Pf-HR :0.72870: L2-HR :0.68382: (Sim:0h28m6s) 
CPU  0 inst:   78000004 cyc:  117089476 now IPC :1.74606: AVG IPC :0.65456: L2-Pf-HR :0.72889: L2-HR :0.68454: (Sim:0h28m28s) 
CPU  0 inst:   79000000 cyc:  117621747 now IPC :1.87873: AVG IPC :0.66014: L2-Pf-HR :0.72977: L2-HR :0.68569: (Sim:0h28m49s) 
CPU  0 inst:   80000005 cyc:  118204428 now IPC :1.71621: AVG IPC :0.66539: L2-Pf-HR :0.72943: L2-HR :0.68606: (Sim:0h29m10s) 
CPU  0 inst:   81000000 cyc:  118764026 now IPC :1.78699: AVG IPC :0.67072: L2-Pf-HR :0.72940: L2-HR :0.68660: (Sim:0h29m31s) 
CPU  0 inst:   82000001 cyc:  119334506 now IPC :1.75291: AVG IPC :0.67594: L2-Pf-HR :0.72945: L2-HR :0.68715: (Sim:0h29m53s) 
CPU  0 inst:   83000003 cyc:  119867328 now IPC :1.87680: AVG IPC :0.68132: L2-Pf-HR :0.73032: L2-HR :0.68825: (Sim:0h30m14s) 
CPU  0 inst:   84000004 cyc:  120458287 now IPC :1.69217: AVG IPC :0.68632: L2-Pf-HR :0.73016: L2-HR :0.68871: (Sim:0h30m35s) 
CPU  0 inst:   85000005 cyc:  121021097 now IPC :1.77680: AVG IPC :0.69143: L2-Pf-HR :0.73015: L2-HR :0.68923: (Sim:0h30m57s) 
CPU  0 inst:   86000003 cyc:  121602507 now IPC :1.71995: AVG IPC :0.69639: L2-Pf-HR :0.72991: L2-HR :0.68959: (Sim:0h31m18s) 
CPU  0 inst:   87000003 cyc:  122135888 now IPC :1.87483: AVG IPC :0.70158: L2-Pf-HR :0.73073: L2-HR :0.69062: (Sim:0h31m39s) 
CPU  0 inst:   88000001 cyc:  122705583 now IPC :1.75532: AVG IPC :0.70651: L2-Pf-HR :0.73091: L2-HR :0.69126: (Sim:0h32m1s) 
CPU  0 inst:   89000000 cyc:  123273488 now IPC :1.76086: AVG IPC :0.71141: L2-Pf-HR :0.73070: L2-HR :0.69161: (Sim:0h32m22s) 
CPU  0 inst:   90000001 cyc:  123828959 now IPC :1.80028: AVG IPC :0.71633: L2-Pf-HR :0.73065: L2-HR :0.69208: (Sim:0h32m43s) 
CPU  0 inst:   91000002 cyc:  124390274 now IPC :1.78153: AVG IPC :0.72117: L2-Pf-HR :0.73116: L2-HR :0.69285: (Sim:0h33m4s) 
CPU  0 inst:   92000000 cyc:  124925753 now IPC :1.86748: AVG IPC :0.72613: L2-Pf-HR :0.73184: L2-HR :0.69379: (Sim:0h33m25s) 
CPU  0 inst:   93000001 cyc:  125517214 now IPC :1.69073: AVG IPC :0.73071: L2-Pf-HR :0.73147: L2-HR :0.69397: (Sim:0h33m48s) 
CPU  0 inst:   94000004 cyc:  126077513 now IPC :1.78477: AVG IPC :0.73543: L2-Pf-HR :0.73139: L2-HR :0.69438: (Sim:0h34m10s) 
CPU  0 inst:   95000004 cyc:  126641182 now IPC :1.77409: AVG IPC :0.74009: L2-Pf-HR :0.73153: L2-HR :0.69493: (Sim:0h34m32s) 
CPU  0 inst:   96000001 cyc:  127179033 now IPC :1.85925: AVG IPC :0.74486: L2-Pf-HR :0.73223: L2-HR :0.69586: (Sim:0h34m53s) 
CPU  0 inst:   97000003 cyc:  127768440 now IPC :1.69662: AVG IPC :0.74928: L2-Pf-HR :0.73192: L2-HR :0.69609: (Sim:0h35m11s) 
CPU  0 inst:   98000005 cyc:  128324933 now IPC :1.79697: AVG IPC :0.75386: L2-Pf-HR :0.73187: L2-HR :0.69650: (Sim:0h35m22s) 
CPU  0 inst:   99000002 cyc:  128895531 now IPC :1.75254: AVG IPC :0.75832: L2-Pf-HR :0.73197: L2-HR :0.69698: (Sim:0h35m33s) 
CPU  0 inst:  100000001 cyc:  129425427 now IPC :1.88716: AVG IPC :0.76297: L2-Pf-HR :0.73269: L2-HR :0.69791: (Sim:0h35m50s) 
CPU  0 inst:  101000003 cyc:  130006137 now IPC :1.72203: AVG IPC :0.76729: L2-Pf-HR :0.73259: L2-HR :0.69825: (Sim:0h36m10s) 
CPU  0 inst:  102000004 cyc:  130555366 now IPC :1.82074: AVG IPC :0.77175: L2-Pf-HR :0.73255: L2-HR :0.69864: (Sim:0h36m32s) 
CPU  0 inst:  103000004 cyc:  131113686 now IPC :1.79109: AVG IPC :0.77613: L2-Pf-HR :0.73239: L2-HR :0.69896: (Sim:0h36m53s) 
CPU  0 inst:  104000005 cyc:  131642061 now IPC :1.89260: AVG IPC :0.78064: L2-Pf-HR :0.73308: L2-HR :0.69984: (Sim:0h37m15s) 
CPU  0 inst:  105000001 cyc:  132200296 now IPC :1.79135: AVG IPC :0.78494: L2-Pf-HR :0.73313: L2-HR :0.70027: (Sim:0h37m37s) 
CPU  0 inst:  106000004 cyc:  132745936 now IPC :1.83272: AVG IPC :0.78928: L2-Pf-HR :0.73307: L2-HR :0.70060: (Sim:0h37m58s) 
CPU  0 inst:  107000000 cyc:  133305632 now IPC :1.78668: AVG IPC :0.79350: L2-Pf-HR :0.73280: L2-HR :0.70081: (Sim:0h38m20s) 
CPU  0 inst:  108000004 cyc:  133825916 now IPC :1.92203: AVG IPC :0.79792: L2-Pf-HR :0.73350: L2-HR :0.70167: (Sim:0h38m42s) 
CPU  0 inst:  109000003 cyc:  134376637 now IPC :1.81580: AVG IPC :0.80212: L2-Pf-HR :0.73381: L2-HR :0.70224: (Sim:0h39m4s) 
CPU  0 inst:  110000001 cyc:  134935671 now IPC :1.78880: AVG IPC :0.80624: L2-Pf-HR :0.73356: L2-HR :0.70241: (Sim:0h39m25s) 
CPU  0 inst:  111000000 cyc:  135493911 now IPC :1.79134: AVG IPC :0.81033: L2-Pf-HR :0.73335: L2-HR :0.70263: (Sim:0h39m47s) 
CPU  0 inst:  112000004 cyc:  136019921 now IPC :1.90111: AVG IPC :0.81458: L2-Pf-HR :0.73392: L2-HR :0.70338: (Sim:0h40m8s) 
CPU  0 inst:  113000001 cyc:  136555604 now IPC :1.86677: AVG IPC :0.81873: L2-Pf-HR :0.73440: L2-HR :0.70408: (Sim:0h40m26s) 
CPU  0 inst:  114000000 cyc:  137117759 now IPC :1.77887: AVG IPC :0.82270: L2-Pf-HR :0.73397: L2-HR :0.70415: (Sim:0h40m36s) 
CPU  0 inst:  115000000 cyc:  137660593 now IPC :1.84218: AVG IPC :0.82675: L2-Pf-HR :0.73387: L2-HR :0.70446: (Sim:0h40m46s) 
CPU  0 inst:  116000002 cyc:  138205323 now IPC :1.83578: AVG IPC :0.83075: L2-Pf-HR :0.73427: L2-HR :0.70507: (Sim:0h40m57s) 
CPU  0 inst:  117000003 cyc:  138727248 now IPC :1.91599: AVG IPC :0.83486: L2-Pf-HR :0.73485: L2-HR :0.70585: (Sim:0h41m7s) 
CPU  0 inst:  118000000 cyc:  139298666 now IPC :1.75003: AVG IPC :0.83865: L2-Pf-HR :0.73438: L2-HR :0.70585: (Sim:0h41m21s) 
CPU  0 inst:  119000004 cyc:  139841942 now IPC :1.84069: AVG IPC :0.84257: L2-Pf-HR :0.73432: L2-HR :0.70615: (Sim:0h41m38s) 
CPU  0 inst:  120000004 cyc:  140388816 now IPC :1.82857: AVG IPC :0.84643: L2-Pf-HR :0.73459: L2-HR :0.70667: (Sim:0h42m0s) 
CPU  0 inst:  121000003 cyc:  140908777 now IPC :1.92322: AVG IPC :0.85044: L2-Pf-HR :0.73516: L2-HR :0.70741: (Sim:0h42m21s) 
CPU  0 inst:  122000003 cyc:  141480867 now IPC :1.74798: AVG IPC :0.85409: L2-Pf-HR :0.73478: L2-HR :0.70747: (Sim:0h42m43s) 
Finished CPU 0 instr: 120000000 cyc: 140500440 AVG IPC: 0.85409 (Sim time: 0h42m43s)

ChampSim completed all CPUs

[ROI Statistics]
Core_0_instructions 120000000
Core_0_cycles 140500440
Core_0_IPC 0.85409

Core_0_branch_prediction_accuracy 99.19469
Core_0_branch_MPKI 0.24154
Core_0_average_ROB_occupancy_at_mispredict 442.96471

Core_0_L1D_total_access 40728999
Core_0_L1D_total_hit 38550059 L1D_total_Hit Ratio: 0.94650
Core_0_L1D_total_miss 2178940
Core_0_L1D_loads 34836860
Core_0_L1D_load_hit 34078271 L1D_load_Hit Ratio: 0.97822
Core_0_L1D_load_miss 758589
Core_0_L1D_RFOs 3261861
Core_0_L1D_RFO_hit 3082499 L1D_RFO_Hit Ratio: 0.94501
Core_0_L1D_RFO_miss 179362
Core_0_L1D_prefetches 2630278
Core_0_L1D_prefetch_hit 1389289 L1D_prefetch_Hit Ratio: 0.52819
Core_0_L1D_prefetch_miss 1240989
Core_0_L1D_writebacks 0
Core_0_L1D_writeback_hit 0 L1D_writeback_Hit Ratio: -nan
Core_0_L1D_writeback_miss 0
Core_0_L1D_prefetch_requested 3491272
Core_0_L1D_prefetch_issued 3068229
Core_0_L1D_prefetch_useful 1251270 L1D_Useful Ratio: 0.40782
Core_0_L1D_prefetch_useless 17066
Core_0_L1D_prefetch_late 164988
Core_0_L1D_average_miss_latency 3667768.26087

Core_0_L1I_total_access 18592557
Core_0_L1I_total_hit 18590598 L1I_total_Hit Ratio: 0.99989
Core_0_L1I_total_miss 1959
Core_0_L1I_loads 18592557
Core_0_L1I_load_hit 18590598 L1I_load_Hit Ratio: 0.99989
Core_0_L1I_load_miss 1959
Core_0_L1I_RFOs 0
Core_0_L1I_RFO_hit 0 L1I_RFO_Hit Ratio: -nan
Core_0_L1I_RFO_miss 0
Core_0_L1I_prefetches 0
Core_0_L1I_prefetch_hit 0 L1I_prefetch_Hit Ratio: -nan
Core_0_L1I_prefetch_miss 0
Core_0_L1I_writebacks 0
Core_0_L1I_writeback_hit 0 L1I_writeback_Hit Ratio: -nan
Core_0_L1I_writeback_miss 0
Core_0_L1I_prefetch_requested 0
Core_0_L1I_prefetch_issued 0
Core_0_L1I_prefetch_useful 0 L1I_Useful Ratio: -nan
Core_0_L1I_prefetch_useless 0
Core_0_L1I_prefetch_late 0
Core_0_L1I_average_miss_latency 273.52935

Core_0_L2C_total_access 3625777
Core_0_L2C_total_hit 2565119 L2C_total_Hit Ratio: 0.70747
Core_0_L2C_total_miss 1060658
Core_0_L2C_loads 596882
Core_0_L2C_load_hit 271733 L2C_load_Hit Ratio: 0.45525
Core_0_L2C_load_miss 325149
Core_0_L2C_RFOs 179360
Core_0_L2C_RFO_hit 2258 L2C_RFO_Hit Ratio: 0.01259
Core_0_L2C_RFO_miss 177102
Core_0_L2C_prefetches 2105415
Core_0_L2C_prefetch_hit 1547013 L2C_prefetch_Hit Ratio: 0.73478
Core_0_L2C_prefetch_miss 558402
Core_0_L2C_writebacks 744120
Core_0_L2C_writeback_hit 744115 L2C_writeback_Hit Ratio: 0.99999
Core_0_L2C_writeback_miss 5
Core_0_L2C_prefetch_requested 1433322
Core_0_L2C_prefetch_issued 1114556
Core_0_L2C_prefetch_useful 82738 L2C_Useful Ratio: 0.07423
Core_0_L2C_prefetch_useless 440029
Core_0_L2C_prefetch_late 91530
Core_0_L2C_average_miss_latency 324.48114

Core_0_LLC_total_access 1670925
Core_0_LLC_total_hit 606681 LLC_total_Hit Ratio: 0.36308
Core_0_LLC_total_miss 1064244
Core_0_LLC_loads 233710
Core_0_LLC_load_hit 6 LLC_load_Hit Ratio: 0.00003
Core_0_LLC_load_miss 233704
Core_0_LLC_RFOs 177101
Core_0_LLC_RFO_hit 1 LLC_RFO_Hit Ratio: 0.00001
Core_0_LLC_RFO_miss 177100
Core_0_LLC_prefetches 649842
Core_0_LLC_prefetch_hit 51 LLC_prefetch_Hit Ratio: 0.00008
Core_0_LLC_prefetch_miss 649791
Core_0_LLC_writebacks 610272
Core_0_LLC_writeback_hit 606623 LLC_writeback_Hit Ratio: 0.99402
Core_0_LLC_writeback_miss 3649
Core_0_LLC_prefetch_requested 0
Core_0_LLC_prefetch_issued 0
Core_0_LLC_prefetch_useful 1 LLC_Useful Ratio: inf
Core_0_LLC_prefetch_useless 545751
Core_0_LLC_prefetch_late 0
Core_0_LLC_average_miss_latency 315.12703

Core_0_major_page_fault 0
Core_0_minor_page_fault 8629

CPU 0 L1D berti prefetcher final stats
CPU 0 L2C berti prefetcher final stats
Channel_0_RQ_row_buffer_hit 601317
Channel_0_RQ_row_buffer_miss 459278
Channel_0_WQ_row_buffer_hit 244991
Channel_0_WQ_row_buffer_miss 359399
Channel_0_WQ_full 1547
Channel_0_dbus_congested 693884

avg_congested_cycle 8

EzSearch AVG IPC :0.85409: L2-Pf-HR :0.73478 : L2-HR :0.70747 Uful:0.07423
     > Finished combination: TraceType=770-tot Sim:120000000 Prefetcher=L2berti_concurso L1=berti_concurso
