TRACE: [662000000][OPT-350M]_[h16][s1024][d64] Warmup: 2000000 NumTraces: 662000000
L1:no:L2:spp_berti_src
Initialize SIGNATURE TABLE
ST_SET: 1
ST_WAY: 256
ST_TAG_BIT: 16
ST_TAG_MASK: ffff

Initialize PATTERN TABLE
PT_SET: 512
PT_WAY: 4
SIG_DELTA_BIT: 7
C_SIG_BIT: 4
C_DELTA_BIT: 4

Initialize PREFETCH FILTER
FILTER_SET: 1024
*************************************************
   ChampSim Multicore Out-of-Order Simulator
   Last compiled: Oct 30 2024 22:13:57
*************************************************

trace_0 770-tot_memTraces_v5/130-subBillion_s1024_LLM_Arch/memTraces[662000000][OPT-350M]_[h16][s1024][d64].champsim.9.xz
ST_WAYS: 256
PT_SETS: 512
MAIN.cc ln 751 stats print skipped
CPU  0 inst:    1000001 cyc:     497988 now IPC :2.00808: AVG IPC :2.00808: L2-Pf-HR :0.96471: L2-HR :0.84740: (Sim:0h0m19s) 
CPU  0 inst:    2000000 cyc:     980679 now IPC :2.07172: AVG IPC :2.03940: L2-Pf-HR :0.98295: L2-HR :0.89992: (Sim:0h0m40s) 

Warmup complete CPU  0 instructions:    2000001 cycles:     980680 (Simulation time: 0 hr 0 min 40 sec) 

CPU  0 inst:    3000000 cyc:    1507822 now IPC :1.89702: AVG IPC :1.89702: L2-Pf-HR :0.99711: L2-HR :0.93575: (Sim:0h0m57s) 
CPU  0 inst:    4000002 cyc:    2053541 now IPC :1.83245: AVG IPC :1.86418: L2-Pf-HR :0.99711: L2-HR :0.93479: (Sim:0h1m15s) 
CPU  0 inst:    5000003 cyc:    2585714 now IPC :1.87909: AVG IPC :1.86912: L2-Pf-HR :0.99100: L2-HR :0.93188: (Sim:0h1m32s) 
CPU  0 inst:    6000004 cyc:    3069822 now IPC :2.06566: AVG IPC :1.91466: L2-Pf-HR :0.98371: L2-HR :0.92870: (Sim:0h1m45s) 
CPU  0 inst:    7000001 cyc:    3660687 now IPC :1.69243: AVG IPC :1.86567: L2-Pf-HR :0.98360: L2-HR :0.92770: (Sim:0h1m57s) 
CPU  0 inst:    8000001 cyc:    4167250 now IPC :1.97409: AVG IPC :1.88290: L2-Pf-HR :0.98239: L2-HR :0.92955: (Sim:0h2m14s) 
CPU  0 inst:    9000003 cyc:    4633956 now IPC :2.14268: AVG IPC :1.91609: L2-Pf-HR :0.98103: L2-HR :0.93215: (Sim:0h2m32s) 
CPU  0 inst:   10000004 cyc:    5140986 now IPC :1.97227: AVG IPC :1.92294: L2-Pf-HR :0.98053: L2-HR :0.93298: (Sim:0h2m49s) 
CPU  0 inst:   11000005 cyc:    5601635 now IPC :2.17085: AVG IPC :1.94765: L2-Pf-HR :0.97765: L2-HR :0.93369: (Sim:0h3m5s) 
CPU  0 inst:   12000005 cyc:    6060960 now IPC :2.17711: AVG IPC :1.96840: L2-Pf-HR :0.97489: L2-HR :0.93346: (Sim:0h3m20s) 
CPU  0 inst:   13000004 cyc:    6600900 now IPC :1.85206: AVG IPC :1.95722: L2-Pf-HR :0.97476: L2-HR :0.93249: (Sim:0h3m37s) 
CPU  0 inst:   14000001 cyc:    7065365 now IPC :2.15301: AVG IPC :1.97216: L2-Pf-HR :0.97311: L2-HR :0.93125: (Sim:0h3m54s) 
CPU  0 inst:   15000005 cyc:    7520073 now IPC :2.19922: AVG IPC :1.98795: L2-Pf-HR :0.96979: L2-HR :0.93058: (Sim:0h4m10s) 
CPU  0 inst:   16000000 cyc:    7975204 now IPC :2.19716: AVG IPC :2.00157: L2-Pf-HR :0.96711: L2-HR :0.93031: (Sim:0h4m27s) 
CPU  0 inst:   17000002 cyc:    8550866 now IPC :1.73713: AVG IPC :1.98146: L2-Pf-HR :0.96607: L2-HR :0.92854: (Sim:0h4m44s) 
CPU  0 inst:   18000000 cyc:    9036467 now IPC :2.05930: AVG IPC :1.98615: L2-Pf-HR :0.96526: L2-HR :0.92851: (Sim:0h5m1s) 
CPU  0 inst:   19000001 cyc:    9514484 now IPC :2.09198: AVG IPC :1.99208: L2-Pf-HR :0.96534: L2-HR :0.92888: (Sim:0h5m18s) 
CPU  0 inst:   20000001 cyc:   10043756 now IPC :1.88939: AVG IPC :1.98608: L2-Pf-HR :0.96758: L2-HR :0.92995: (Sim:0h5m35s) 
CPU  0 inst:   21000000 cyc:   10519730 now IPC :2.10095: AVG IPC :1.99181: L2-Pf-HR :0.96662: L2-HR :0.92969: (Sim:0h5m53s) 
CPU  0 inst:   22000004 cyc:   11014294 now IPC :2.02199: AVG IPC :1.99330: L2-Pf-HR :0.96710: L2-HR :0.93008: (Sim:0h6m10s) 
CPU  0 inst:   23000001 cyc:   11608021 now IPC :1.68427: AVG IPC :1.97604: L2-Pf-HR :0.96782: L2-HR :0.92989: (Sim:0h6m28s) 
CPU  0 inst:   24000005 cyc:   12139509 now IPC :1.88152: AVG IPC :1.97153: L2-Pf-HR :0.96919: L2-HR :0.93069: (Sim:0h6m43s) 
CPU  0 inst:   25000005 cyc:   12616734 now IPC :2.09545: AVG IPC :1.97662: L2-Pf-HR :0.96893: L2-HR :0.93111: (Sim:0h6m52s) 
CPU  0 inst:   26000002 cyc:   13132882 now IPC :1.93742: AVG IPC :1.97495: L2-Pf-HR :0.96999: L2-HR :0.93200: (Sim:0h7m10s) 
CPU  0 inst:   27000003 cyc:   13599079 now IPC :2.14502: AVG IPC :1.98123: L2-Pf-HR :0.96914: L2-HR :0.93195: (Sim:0h7m27s) 
CPU  0 inst:   28000003 cyc:   14062729 now IPC :2.15680: AVG IPC :1.98746: L2-Pf-HR :0.96865: L2-HR :0.93220: (Sim:0h7m43s) 
CPU  0 inst:   29000001 cyc:   14620731 now IPC :1.79210: AVG IPC :1.97946: L2-Pf-HR :0.96874: L2-HR :0.93176: (Sim:0h7m59s) 
CPU  0 inst:   30000002 cyc:   15102465 now IPC :2.07584: AVG IPC :1.98275: L2-Pf-HR :0.96840: L2-HR :0.93142: (Sim:0h8m16s) 
CPU  0 inst:   31000003 cyc:   15563147 now IPC :2.17070: AVG IPC :1.98869: L2-Pf-HR :0.96709: L2-HR :0.93096: (Sim:0h8m33s) 
CPU  0 inst:   32000000 cyc:   16027928 now IPC :2.15154: AVG IPC :1.99372: L2-Pf-HR :0.96599: L2-HR :0.93077: (Sim:0h8m51s) 
CPU  0 inst:   33000005 cyc:   16647251 now IPC :1.61467: AVG IPC :1.97874: L2-Pf-HR :0.96581: L2-HR :0.93012: (Sim:0h9m3s) 
CPU  0 inst:   34000003 cyc:   17148543 now IPC :1.99484: AVG IPC :1.97924: L2-Pf-HR :0.96554: L2-HR :0.93001: (Sim:0h9m20s) 
CPU  0 inst:   35000004 cyc:   17632215 now IPC :2.06752: AVG IPC :1.98180: L2-Pf-HR :0.96521: L2-HR :0.93005: (Sim:0h9m37s) 
CPU  0 inst:   36000005 cyc:   18191387 now IPC :1.78836: AVG IPC :1.97551: L2-Pf-HR :0.96685: L2-HR :0.93083: (Sim:0h9m54s) 
CPU  0 inst:   37000002 cyc:   18704662 now IPC :1.94827: AVG IPC :1.97473: L2-Pf-HR :0.96648: L2-HR :0.93062: (Sim:0h10m12s) 
CPU  0 inst:   38000001 cyc:   19227685 now IPC :1.91196: AVG IPC :1.97293: L2-Pf-HR :0.96655: L2-HR :0.93072: (Sim:0h10m28s) 
CPU  0 inst:   39000000 cyc:   19872217 now IPC :1.55151: AVG IPC :1.95855: L2-Pf-HR :0.96700: L2-HR :0.93057: (Sim:0h10m43s) 
CPU  0 inst:   40000000 cyc:   20391810 now IPC :1.92458: AVG IPC :1.95764: L2-Pf-HR :0.96713: L2-HR :0.93064: (Sim:0h11m1s) 
CPU  0 inst:   41000000 cyc:   20888486 now IPC :2.01339: AVG IPC :1.95903: L2-Pf-HR :0.96697: L2-HR :0.93078: (Sim:0h11m18s) 
CPU  0 inst:   42000003 cyc:   21410767 now IPC :1.91468: AVG IPC :1.95790: L2-Pf-HR :0.96745: L2-HR :0.93119: (Sim:0h11m35s) 
CPU  0 inst:   43000004 cyc:   21884583 now IPC :2.11053: AVG IPC :1.96136: L2-Pf-HR :0.96719: L2-HR :0.93141: (Sim:0h11m53s) 
CPU  0 inst:   44000004 cyc:   22349799 now IPC :2.14954: AVG IPC :1.96545: L2-Pf-HR :0.96694: L2-HR :0.93151: (Sim:0h12m10s) 
CPU  0 inst:   45000005 cyc:   22935361 now IPC :1.70776: AVG IPC :1.95858: L2-Pf-HR :0.96702: L2-HR :0.93125: (Sim:0h12m28s) 
CPU  0 inst:   46000002 cyc:   23411245 now IPC :2.10135: AVG IPC :1.96161: L2-Pf-HR :0.96655: L2-HR :0.93097: (Sim:0h12m46s) 
CPU  0 inst:   47000005 cyc:   23883038 now IPC :2.11958: AVG IPC :1.96486: L2-Pf-HR :0.96584: L2-HR :0.93067: (Sim:0h13m3s) 
CPU  0 inst:   48000000 cyc:   24362247 now IPC :2.08676: AVG IPC :1.96736: L2-Pf-HR :0.96544: L2-HR :0.93067: (Sim:0h13m21s) 
CPU  0 inst:   49000002 cyc:   25009320 now IPC :1.54542: AVG IPC :1.95600: L2-Pf-HR :0.96592: L2-HR :0.93042: (Sim:0h13m39s) 
CPU  0 inst:   50000000 cyc:   25521849 now IPC :1.95111: AVG IPC :1.95590: L2-Pf-HR :0.96620: L2-HR :0.93065: (Sim:0h13m57s) 
CPU  0 inst:   51000001 cyc:   26026249 now IPC :1.98256: AVG IPC :1.95643: L2-Pf-HR :0.96582: L2-HR :0.93046: (Sim:0h14m14s) 
CPU  0 inst:   52000005 cyc:   26594460 now IPC :1.75992: AVG IPC :1.95207: L2-Pf-HR :0.96692: L2-HR :0.93102: (Sim:0h14m32s) 
CPU  0 inst:   53000003 cyc:   27144870 now IPC :1.81682: AVG IPC :1.94923: L2-Pf-HR :0.96702: L2-HR :0.93098: (Sim:0h14m50s) 
CPU  0 inst:   54000000 cyc:   27663735 now IPC :1.92728: AVG IPC :1.94880: L2-Pf-HR :0.96725: L2-HR :0.93101: (Sim:0h15m3s) 
CPU  0 inst:   55000004 cyc:   28303121 now IPC :1.56401: AVG IPC :1.93980: L2-Pf-HR :0.96728: L2-HR :0.93083: (Sim:0h15m20s) 
CPU  0 inst:   56000004 cyc:   28844332 now IPC :1.84771: AVG IPC :1.93801: L2-Pf-HR :0.96801: L2-HR :0.93127: (Sim:0h15m37s) 
CPU  0 inst:   57000004 cyc:   29365538 now IPC :1.91863: AVG IPC :1.93765: L2-Pf-HR :0.96799: L2-HR :0.93133: (Sim:0h15m54s) 
CPU  0 inst:   58000004 cyc:   29842023 now IPC :2.09870: AVG IPC :1.94031: L2-Pf-HR :0.96785: L2-HR :0.93153: (Sim:0h16m11s) 
CPU  0 inst:   59000005 cyc:   30323089 now IPC :2.07872: AVG IPC :1.94258: L2-Pf-HR :0.96765: L2-HR :0.93149: (Sim:0h16m28s) 
CPU  0 inst:   60000001 cyc:   30788920 now IPC :2.14669: AVG IPC :1.94577: L2-Pf-HR :0.96741: L2-HR :0.93158: (Sim:0h16m46s) 
CPU  0 inst:   61000005 cyc:   31372131 now IPC :1.71465: AVG IPC :1.94134: L2-Pf-HR :0.96740: L2-HR :0.93149: (Sim:0h16m59s) 
CPU  0 inst:   62000000 cyc:   31831199 now IPC :2.17832: AVG IPC :1.94486: L2-Pf-HR :0.96682: L2-HR :0.93120: (Sim:0h17m9s) 
CPU  0 inst:   63000001 cyc:   32322424 now IPC :2.03573: AVG IPC :1.94629: L2-Pf-HR :0.96692: L2-HR :0.93126: (Sim:0h17m27s) 
CPU  0 inst:   64000001 cyc:   32881864 now IPC :1.78750: AVG IPC :1.94350: L2-Pf-HR :0.96767: L2-HR :0.93167: (Sim:0h17m45s) 
CPU  0 inst:   65000005 cyc:   33510534 now IPC :1.59067: AVG IPC :1.93668: L2-Pf-HR :0.96769: L2-HR :0.93138: (Sim:0h18m3s) 
CPU  0 inst:   66000002 cyc:   34041802 now IPC :1.88228: AVG IPC :1.93581: L2-Pf-HR :0.96803: L2-HR :0.93152: (Sim:0h18m21s) 
CPU  0 inst:   67000001 cyc:   34545958 now IPC :1.98351: AVG IPC :1.93652: L2-Pf-HR :0.96785: L2-HR :0.93144: (Sim:0h18m38s) 
CPU  0 inst:   68000001 cyc:   35098114 now IPC :1.81108: AVG IPC :1.93449: L2-Pf-HR :0.96834: L2-HR :0.93164: (Sim:0h18m56s) 
CPU  0 inst:   69000000 cyc:   35619026 now IPC :1.91971: AVG IPC :1.93427: L2-Pf-HR :0.96815: L2-HR :0.93151: (Sim:0h19m13s) 
CPU  0 inst:   70000001 cyc:   36134206 now IPC :1.94107: AVG IPC :1.93437: L2-Pf-HR :0.96807: L2-HR :0.93146: (Sim:0h19m31s) 
CPU  0 inst:   71000004 cyc:   36789614 now IPC :1.52577: AVG IPC :1.92689: L2-Pf-HR :0.96822: L2-HR :0.93136: (Sim:0h19m50s) 
CPU  0 inst:   72000002 cyc:   37329905 now IPC :1.85085: AVG IPC :1.92576: L2-Pf-HR :0.96868: L2-HR :0.93160: (Sim:0h20m8s) 
CPU  0 inst:   73000002 cyc:   37875377 now IPC :1.83327: AVG IPC :1.92440: L2-Pf-HR :0.96882: L2-HR :0.93175: (Sim:0h20m25s) 
CPU  0 inst:   74000002 cyc:   38362181 now IPC :2.05421: AVG IPC :1.92609: L2-Pf-HR :0.96862: L2-HR :0.93174: (Sim:0h20m42s) 
CPU  0 inst:   75000003 cyc:   38834406 now IPC :2.11764: AVG IPC :1.92848: L2-Pf-HR :0.96859: L2-HR :0.93192: (Sim:0h20m59s) 
CPU  0 inst:   76000000 cyc:   39307857 now IPC :2.11214: AVG IPC :1.93074: L2-Pf-HR :0.96839: L2-HR :0.93194: (Sim:0h21m16s) 
CPU  0 inst:   77000000 cyc:   39888638 now IPC :1.72182: AVG IPC :1.92763: L2-Pf-HR :0.96841: L2-HR :0.93188: (Sim:0h21m34s) 
CPU  0 inst:   78000001 cyc:   40348428 now IPC :2.17491: AVG IPC :1.93051: L2-Pf-HR :0.96795: L2-HR :0.93163: (Sim:0h21m51s) 
CPU  0 inst:   79000000 cyc:   40826846 now IPC :2.09022: AVG IPC :1.93243: L2-Pf-HR :0.96788: L2-HR :0.93160: (Sim:0h22m8s) 
CPU  0 inst:   80000005 cyc:   41384963 now IPC :1.79175: AVG IPC :1.93049: L2-Pf-HR :0.96845: L2-HR :0.93190: (Sim:0h22m25s) 
CPU  0 inst:   81000005 cyc:   42028647 now IPC :1.55356: AVG IPC :1.92458: L2-Pf-HR :0.96854: L2-HR :0.93172: (Sim:0h22m40s) 
CPU  0 inst:   82000000 cyc:   42544972 now IPC :1.93675: AVG IPC :1.92473: L2-Pf-HR :0.96852: L2-HR :0.93167: (Sim:0h22m54s) 
CPU  0 inst:   83000004 cyc:   43059128 now IPC :1.94494: AVG IPC :1.92498: L2-Pf-HR :0.96851: L2-HR :0.93162: (Sim:0h23m12s) 
CPU  0 inst:   84000005 cyc:   43580756 now IPC :1.91708: AVG IPC :1.92488: L2-Pf-HR :0.96868: L2-HR :0.93173: (Sim:0h23m29s) 
CPU  0 inst:   85000002 cyc:   44100632 now IPC :1.92353: AVG IPC :1.92486: L2-Pf-HR :0.96861: L2-HR :0.93170: (Sim:0h23m46s) 
CPU  0 inst:   86000001 cyc:   44628554 now IPC :1.89422: AVG IPC :1.92449: L2-Pf-HR :0.96851: L2-HR :0.93160: (Sim:0h24m3s) 
CPU  0 inst:   87000000 cyc:   45256984 now IPC :1.59127: AVG IPC :1.91976: L2-Pf-HR :0.96859: L2-HR :0.93150: (Sim:0h24m21s) 
CPU  0 inst:   88000000 cyc:   45772830 now IPC :1.93856: AVG IPC :1.91998: L2-Pf-HR :0.96825: L2-HR :0.93143: (Sim:0h24m38s) 
CPU  0 inst:   89000005 cyc:   46278479 now IPC :1.97767: AVG IPC :1.92062: L2-Pf-HR :0.96829: L2-HR :0.93149: (Sim:0h24m56s) 
CPU  0 inst:   90000004 cyc:   46760146 now IPC :2.07612: AVG IPC :1.92226: L2-Pf-HR :0.96818: L2-HR :0.93157: (Sim:0h25m12s) 
CPU  0 inst:   91000004 cyc:   47232794 now IPC :2.11574: AVG IPC :1.92424: L2-Pf-HR :0.96800: L2-HR :0.93158: (Sim:0h25m24s) 
CPU  0 inst:   92000004 cyc:   47699954 now IPC :2.14059: AVG IPC :1.92640: L2-Pf-HR :0.96785: L2-HR :0.93163: (Sim:0h25m41s) 
CPU  0 inst:   93000005 cyc:   48265948 now IPC :1.76680: AVG IPC :1.92449: L2-Pf-HR :0.96803: L2-HR :0.93172: (Sim:0h25m59s) 
CPU  0 inst:   94000001 cyc:   48742423 now IPC :2.09874: AVG IPC :1.92623: L2-Pf-HR :0.96768: L2-HR :0.93148: (Sim:0h26m11s) 
CPU  0 inst:   95000002 cyc:   49209903 now IPC :2.13913: AVG IPC :1.92829: L2-Pf-HR :0.96745: L2-HR :0.93136: (Sim:0h26m26s) 
CPU  0 inst:   96000003 cyc:   49722246 now IPC :1.95182: AVG IPC :1.92854: L2-Pf-HR :0.96722: L2-HR :0.93127: (Sim:0h26m43s) 
CPU  0 inst:   97000002 cyc:   50305526 now IPC :1.71444: AVG IPC :1.92601: L2-Pf-HR :0.96748: L2-HR :0.93127: (Sim:0h27m1s) 
CPU  0 inst:   98000003 cyc:   50880277 now IPC :1.73989: AVG IPC :1.92386: L2-Pf-HR :0.96770: L2-HR :0.93130: (Sim:0h27m18s) 
CPU  0 inst:   99000001 cyc:   51420240 now IPC :1.85198: AVG IPC :1.92309: L2-Pf-HR :0.96770: L2-HR :0.93127: (Sim:0h27m36s) 
CPU  0 inst:  100000002 cyc:   51949593 now IPC :1.88910: AVG IPC :1.92274: L2-Pf-HR :0.96799: L2-HR :0.93145: (Sim:0h27m54s) 
CPU  0 inst:  101000000 cyc:   52516294 now IPC :1.76460: AVG IPC :1.92100: L2-Pf-HR :0.96823: L2-HR :0.93153: (Sim:0h28m11s) 
CPU  0 inst:  102000003 cyc:   53028595 now IPC :1.95198: AVG IPC :1.92131: L2-Pf-HR :0.96817: L2-HR :0.93152: (Sim:0h28m29s) 
CPU  0 inst:  103000000 cyc:   53558842 now IPC :1.88591: AVG IPC :1.92095: L2-Pf-HR :0.96819: L2-HR :0.93156: (Sim:0h28m46s) 
CPU  0 inst:  104000001 cyc:   54178239 now IPC :1.61448: AVG IPC :1.91738: L2-Pf-HR :0.96803: L2-HR :0.93133: (Sim:0h29m5s) 
CPU  0 inst:  105000000 cyc:   54683771 now IPC :1.97811: AVG IPC :1.91795: L2-Pf-HR :0.96807: L2-HR :0.93141: (Sim:0h29m22s) 
CPU  0 inst:  106000002 cyc:   55170652 now IPC :2.05389: AVG IPC :1.91917: L2-Pf-HR :0.96797: L2-HR :0.93142: (Sim:0h29m40s) 
CPU  0 inst:  107000002 cyc:   55648013 now IPC :2.09485: AVG IPC :1.92071: L2-Pf-HR :0.96781: L2-HR :0.93146: (Sim:0h29m57s) 
CPU  0 inst:  108000002 cyc:   56112836 now IPC :2.15136: AVG IPC :1.92265: L2-Pf-HR :0.96770: L2-HR :0.93152: (Sim:0h30m14s) 
CPU  0 inst:  109000000 cyc:   56604127 now IPC :2.03545: AVG IPC :1.92365: L2-Pf-HR :0.96763: L2-HR :0.93161: (Sim:0h30m31s) 
CPU  0 inst:  110000001 cyc:   57159932 now IPC :1.79919: AVG IPC :1.92242: L2-Pf-HR :0.96738: L2-HR :0.93134: (Sim:0h30m49s) 
CPU  0 inst:  111000005 cyc:   57623898 now IPC :2.15534: AVG IPC :1.92433: L2-Pf-HR :0.96707: L2-HR :0.93118: (Sim:0h31m6s) 
CPU  0 inst:  112000003 cyc:   58097179 now IPC :2.11291: AVG IPC :1.92589: L2-Pf-HR :0.96678: L2-HR :0.93113: (Sim:0h31m24s) 
CPU  0 inst:  113000005 cyc:   58565902 now IPC :2.13346: AVG IPC :1.92758: L2-Pf-HR :0.96659: L2-HR :0.93114: (Sim:0h31m38s) 
CPU  0 inst:  114000002 cyc:   59214078 now IPC :1.54279: AVG IPC :1.92330: L2-Pf-HR :0.96655: L2-HR :0.93090: (Sim:0h31m48s) 
CPU  0 inst:  115000000 cyc:   59718016 now IPC :1.98437: AVG IPC :1.92382: L2-Pf-HR :0.96645: L2-HR :0.93085: (Sim:0h32m6s) 
CPU  0 inst:  116000002 cyc:   60222290 now IPC :1.98305: AVG IPC :1.92432: L2-Pf-HR :0.96639: L2-HR :0.93082: (Sim:0h32m23s) 
CPU  0 inst:  117000003 cyc:   60746157 now IPC :1.90888: AVG IPC :1.92419: L2-Pf-HR :0.96631: L2-HR :0.93077: (Sim:0h32m31s) 
CPU  0 inst:  118000001 cyc:   61267470 now IPC :1.91823: AVG IPC :1.92414: L2-Pf-HR :0.96627: L2-HR :0.93075: (Sim:0h32m40s) 
CPU  0 inst:  119000000 cyc:   61793167 now IPC :1.90223: AVG IPC :1.92395: L2-Pf-HR :0.96628: L2-HR :0.93077: (Sim:0h32m58s) 
CPU  0 inst:  120000002 cyc:   62444195 now IPC :1.53604: AVG IPC :1.91984: L2-Pf-HR :0.96635: L2-HR :0.93068: (Sim:0h33m16s) 
CPU  0 inst:  121000002 cyc:   62926694 now IPC :2.07254: AVG IPC :1.92103: L2-Pf-HR :0.96619: L2-HR :0.93066: (Sim:0h33m33s) 
CPU  0 inst:  122000002 cyc:   63415280 now IPC :2.04672: AVG IPC :1.92201: L2-Pf-HR :0.96635: L2-HR :0.93084: (Sim:0h33m51s) 
CPU  0 inst:  123000000 cyc:   63920564 now IPC :1.97908: AVG IPC :1.92247: L2-Pf-HR :0.96639: L2-HR :0.93093: (Sim:0h34m8s) 
CPU  0 inst:  124000000 cyc:   64396000 now IPC :2.10333: AVG IPC :1.92383: L2-Pf-HR :0.96623: L2-HR :0.93091: (Sim:0h34m25s) 
CPU  0 inst:  125000000 cyc:   64865651 now IPC :2.12924: AVG IPC :1.92534: L2-Pf-HR :0.96621: L2-HR :0.93098: (Sim:0h34m41s) 
CPU  0 inst:  126000001 cyc:   65442047 now IPC :1.73492: AVG IPC :1.92363: L2-Pf-HR :0.96610: L2-HR :0.93082: (Sim:0h34m59s) 
CPU  0 inst:  127000004 cyc:   65910135 now IPC :2.13636: AVG IPC :1.92517: L2-Pf-HR :0.96587: L2-HR :0.93070: (Sim:0h35m13s) 
CPU  0 inst:  128000000 cyc:   66366821 now IPC :2.18968: AVG IPC :1.92701: L2-Pf-HR :0.96557: L2-HR :0.93065: (Sim:0h35m30s) 
CPU  0 inst:  129000002 cyc:   66823381 now IPC :2.19030: AVG IPC :1.92884: L2-Pf-HR :0.96534: L2-HR :0.93061: (Sim:0h35m48s) 
CPU  0 inst:  130000000 cyc:   67463523 now IPC :1.56215: AVG IPC :1.92531: L2-Pf-HR :0.96538: L2-HR :0.93046: (Sim:0h36m6s) 
CPU  0 inst:  131000003 cyc:   67958544 now IPC :2.02012: AVG IPC :1.92601: L2-Pf-HR :0.96522: L2-HR :0.93039: (Sim:0h36m22s) 
CPU  0 inst:  132000005 cyc:   68462876 now IPC :1.98282: AVG IPC :1.92643: L2-Pf-HR :0.96532: L2-HR :0.93046: (Sim:0h36m33s) 
CPU  0 inst:  133000000 cyc:   69024255 now IPC :1.78132: AVG IPC :1.92524: L2-Pf-HR :0.96547: L2-HR :0.93049: (Sim:0h36m44s) 
CPU  0 inst:  134000004 cyc:   69551165 now IPC :1.89786: AVG IPC :1.92503: L2-Pf-HR :0.96557: L2-HR :0.93054: (Sim:0h37m1s) 
CPU  0 inst:  135000002 cyc:   70072804 now IPC :1.91703: AVG IPC :1.92497: L2-Pf-HR :0.96555: L2-HR :0.93049: (Sim:0h37m19s) 
CPU  0 inst:  136000000 cyc:   70707550 now IPC :1.57543: AVG IPC :1.92178: L2-Pf-HR :0.96555: L2-HR :0.93041: (Sim:0h37m38s) 
CPU  0 inst:  137000000 cyc:   71193880 now IPC :2.05622: AVG IPC :1.92272: L2-Pf-HR :0.96556: L2-HR :0.93051: (Sim:0h37m57s) 
CPU  0 inst:  138000004 cyc:   71673592 now IPC :2.08459: AVG IPC :1.92381: L2-Pf-HR :0.96546: L2-HR :0.93051: (Sim:0h38m15s) 
CPU  0 inst:  139000000 cyc:   72160076 now IPC :2.05556: AVG IPC :1.92471: L2-Pf-HR :0.96541: L2-HR :0.93054: (Sim:0h38m32s) 
CPU  0 inst:  140000001 cyc:   72634271 now IPC :2.10884: AVG IPC :1.92593: L2-Pf-HR :0.96532: L2-HR :0.93057: (Sim:0h38m49s) 
CPU  0 inst:  141000004 cyc:   73106224 now IPC :2.11886: AVG IPC :1.92720: L2-Pf-HR :0.96525: L2-HR :0.93060: (Sim:0h39m7s) 
CPU  0 inst:  142000003 cyc:   73685226 now IPC :1.72711: AVG IPC :1.92560: L2-Pf-HR :0.96530: L2-HR :0.93052: (Sim:0h39m25s) 
CPU  0 inst:  143000003 cyc:   74177223 now IPC :2.03253: AVG IPC :1.92632: L2-Pf-HR :0.96529: L2-HR :0.93046: (Sim:0h39m42s) 
CPU  0 inst:  144000003 cyc:   74658951 now IPC :2.07586: AVG IPC :1.92730: L2-Pf-HR :0.96508: L2-HR :0.93037: (Sim:0h40m0s) 
CPU  0 inst:  145000004 cyc:   75125510 now IPC :2.14335: AVG IPC :1.92866: L2-Pf-HR :0.96494: L2-HR :0.93037: (Sim:0h40m17s) 
CPU  0 inst:  146000003 cyc:   75745238 now IPC :1.61361: AVG IPC :1.92605: L2-Pf-HR :0.96497: L2-HR :0.93026: (Sim:0h40m33s) 
CPU  0 inst:  147000004 cyc:   76257237 now IPC :1.95313: AVG IPC :1.92623: L2-Pf-HR :0.96504: L2-HR :0.93033: (Sim:0h40m51s) 
CPU  0 inst:  148000003 cyc:   76763488 now IPC :1.97530: AVG IPC :1.92656: L2-Pf-HR :0.96494: L2-HR :0.93028: (Sim:0h41m8s) 
CPU  0 inst:  149000000 cyc:   77276555 now IPC :1.94906: AVG IPC :1.92671: L2-Pf-HR :0.96496: L2-HR :0.93028: (Sim:0h41m26s) 
CPU  0 inst:  150000004 cyc:   77794814 now IPC :1.92954: AVG IPC :1.92673: L2-Pf-HR :0.96491: L2-HR :0.93022: (Sim:0h41m44s) 
CPU  0 inst:  151000000 cyc:   78327586 now IPC :1.87697: AVG IPC :1.92639: L2-Pf-HR :0.96503: L2-HR :0.93028: (Sim:0h42m2s) 
CPU  0 inst:  152000004 cyc:   78971988 now IPC :1.55183: AVG IPC :1.92329: L2-Pf-HR :0.96513: L2-HR :0.93025: (Sim:0h42m21s) 
CPU  0 inst:  153000004 cyc:   79495753 now IPC :1.90925: AVG IPC :1.92320: L2-Pf-HR :0.96508: L2-HR :0.93024: (Sim:0h42m39s) 
CPU  0 inst:  154000002 cyc:   80011777 now IPC :1.93789: AVG IPC :1.92329: L2-Pf-HR :0.96509: L2-HR :0.93030: (Sim:0h42m57s) 
CPU  0 inst:  155000003 cyc:   80547730 now IPC :1.86584: AVG IPC :1.92291: L2-Pf-HR :0.96528: L2-HR :0.93037: (Sim:0h43m15s) 
CPU  0 inst:  156000003 cyc:   81062122 now IPC :1.94404: AVG IPC :1.92304: L2-Pf-HR :0.96531: L2-HR :0.93045: (Sim:0h43m33s) 
CPU  0 inst:  157000002 cyc:   81581426 now IPC :1.92565: AVG IPC :1.92306: L2-Pf-HR :0.96525: L2-HR :0.93045: (Sim:0h43m50s) 
CPU  0 inst:  158000000 cyc:   82144361 now IPC :1.77640: AVG IPC :1.92204: L2-Pf-HR :0.96538: L2-HR :0.93044: (Sim:0h44m7s) 
CPU  0 inst:  159000001 cyc:   82633152 now IPC :2.04587: AVG IPC :1.92278: L2-Pf-HR :0.96536: L2-HR :0.93041: (Sim:0h44m24s) 
CPU  0 inst:  160000002 cyc:   83153234 now IPC :1.92278: AVG IPC :1.92278: L2-Pf-HR :0.96528: L2-HR :0.93037: (Sim:0h44m41s) 
CPU  0 inst:  161000002 cyc:   83663228 now IPC :1.96081: AVG IPC :1.92302: L2-Pf-HR :0.96517: L2-HR :0.93038: (Sim:0h44m59s) 
CPU  0 inst:  162000000 cyc:   84295937 now IPC :1.58050: AVG IPC :1.92042: L2-Pf-HR :0.96526: L2-HR :0.93031: (Sim:0h45m17s) 
CPU  0 inst:  163000001 cyc:   84810725 now IPC :1.94255: AVG IPC :1.92055: L2-Pf-HR :0.96527: L2-HR :0.93032: (Sim:0h45m35s) 
CPU  0 inst:  164000005 cyc:   85358623 now IPC :1.82516: AVG IPC :1.91993: L2-Pf-HR :0.96554: L2-HR :0.93040: (Sim:0h45m52s) 
CPU  0 inst:  165000003 cyc:   85917039 now IPC :1.79078: AVG IPC :1.91908: L2-Pf-HR :0.96581: L2-HR :0.93047: (Sim:0h46m10s) 
CPU  0 inst:  166000004 cyc:   86477639 now IPC :1.78380: AVG IPC :1.91820: L2-Pf-HR :0.96605: L2-HR :0.93053: (Sim:0h46m18s) 
CPU  0 inst:  167000003 cyc:   87019994 now IPC :1.84381: AVG IPC :1.91773: L2-Pf-HR :0.96604: L2-HR :0.93051: (Sim:0h46m32s) 
CPU  0 inst:  168000003 cyc:   87658513 now IPC :1.56612: AVG IPC :1.91514: L2-Pf-HR :0.96611: L2-HR :0.93046: (Sim:0h46m49s) 
CPU  0 inst:  169000000 cyc:   88177619 now IPC :1.92638: AVG IPC :1.91520: L2-Pf-HR :0.96609: L2-HR :0.93050: (Sim:0h47m2s) 
CPU  0 inst:  170000000 cyc:   88689942 now IPC :1.95189: AVG IPC :1.91542: L2-Pf-HR :0.96602: L2-HR :0.93051: (Sim:0h47m14s) 
CPU  0 inst:  171000000 cyc:   89234011 now IPC :1.83800: AVG IPC :1.91494: L2-Pf-HR :0.96627: L2-HR :0.93063: (Sim:0h47m29s) 
CPU  0 inst:  172000003 cyc:   89762737 now IPC :1.89134: AVG IPC :1.91480: L2-Pf-HR :0.96633: L2-HR :0.93066: (Sim:0h47m40s) 
CPU  0 inst:  173000000 cyc:   90279156 now IPC :1.93641: AVG IPC :1.91493: L2-Pf-HR :0.96628: L2-HR :0.93068: (Sim:0h47m54s) 
CPU  0 inst:  174000004 cyc:   90838975 now IPC :1.78630: AVG IPC :1.91412: L2-Pf-HR :0.96631: L2-HR :0.93067: (Sim:0h48m12s) 
CPU  0 inst:  175000005 cyc:   91331207 now IPC :2.03156: AVG IPC :1.91476: L2-Pf-HR :0.96618: L2-HR :0.93058: (Sim:0h48m29s) 
CPU  0 inst:  176000001 cyc:   91821797 now IPC :2.03835: AVG IPC :1.91543: L2-Pf-HR :0.96605: L2-HR :0.93055: (Sim:0h48m46s) 
CPU  0 inst:  177000003 cyc:   92332201 now IPC :1.95924: AVG IPC :1.91568: L2-Pf-HR :0.96592: L2-HR :0.93054: (Sim:0h49m3s) 
CPU  0 inst:  178000003 cyc:   92973097 now IPC :1.56032: AVG IPC :1.91320: L2-Pf-HR :0.96596: L2-HR :0.93046: (Sim:0h49m22s) 
CPU  0 inst:  179000003 cyc:   93503343 now IPC :1.88592: AVG IPC :1.91304: L2-Pf-HR :0.96608: L2-HR :0.93051: (Sim:0h49m41s) 
CPU  0 inst:  180000002 cyc:   94053903 now IPC :1.81633: AVG IPC :1.91247: L2-Pf-HR :0.96632: L2-HR :0.93056: (Sim:0h49m59s) 
CPU  0 inst:  181000000 cyc:   94602959 now IPC :1.82130: AVG IPC :1.91194: L2-Pf-HR :0.96655: L2-HR :0.93063: (Sim:0h50m17s) 
CPU  0 inst:  182000001 cyc:   95149872 now IPC :1.82845: AVG IPC :1.91145: L2-Pf-HR :0.96679: L2-HR :0.93070: (Sim:0h50m36s) 
CPU  0 inst:  183000005 cyc:   95694843 now IPC :1.83497: AVG IPC :1.91101: L2-Pf-HR :0.96702: L2-HR :0.93077: (Sim:0h50m53s) 
CPU  0 inst:  184000005 cyc:   96333361 now IPC :1.56613: AVG IPC :1.90870: L2-Pf-HR :0.96714: L2-HR :0.93075: (Sim:0h51m5s) 
CPU  0 inst:  185000000 cyc:   96866115 now IPC :1.87703: AVG IPC :1.90853: L2-Pf-HR :0.96732: L2-HR :0.93083: (Sim:0h51m22s) 
CPU  0 inst:  186000004 cyc:   97396782 now IPC :1.88443: AVG IPC :1.90839: L2-Pf-HR :0.96734: L2-HR :0.93086: (Sim:0h51m40s) 
CPU  0 inst:  187000004 cyc:   97920341 now IPC :1.91000: AVG IPC :1.90840: L2-Pf-HR :0.96734: L2-HR :0.93089: (Sim:0h51m58s) 
CPU  0 inst:  188000004 cyc:   98414751 now IPC :2.02261: AVG IPC :1.90898: L2-Pf-HR :0.96733: L2-HR :0.93095: (Sim:0h52m15s) 
CPU  0 inst:  189000004 cyc:   98898299 now IPC :2.06805: AVG IPC :1.90977: L2-Pf-HR :0.96728: L2-HR :0.93099: (Sim:0h52m32s) 
CPU  0 inst:  190000003 cyc:   99481283 now IPC :1.71531: AVG IPC :1.90862: L2-Pf-HR :0.96734: L2-HR :0.93100: (Sim:0h52m50s) 
CPU  0 inst:  191000001 cyc:   99980236 now IPC :2.00419: AVG IPC :1.90910: L2-Pf-HR :0.96733: L2-HR :0.93095: (Sim:0h53m7s) 
CPU  0 inst:  192000000 cyc:  100478592 now IPC :2.00660: AVG IPC :1.90959: L2-Pf-HR :0.96727: L2-HR :0.93091: (Sim:0h53m24s) 
CPU  0 inst:  193000001 cyc:  100987779 now IPC :1.96392: AVG IPC :1.90986: L2-Pf-HR :0.96715: L2-HR :0.93089: (Sim:0h53m42s) 
CPU  0 inst:  194000002 cyc:  101622395 now IPC :1.57576: AVG IPC :1.90776: L2-Pf-HR :0.96725: L2-HR :0.93087: (Sim:0h54m0s) 
CPU  0 inst:  195000004 cyc:  102167722 now IPC :1.83377: AVG IPC :1.90736: L2-Pf-HR :0.96741: L2-HR :0.93090: (Sim:0h54m17s) 
CPU  0 inst:  196000004 cyc:  102716335 now IPC :1.82278: AVG IPC :1.90690: L2-Pf-HR :0.96760: L2-HR :0.93094: (Sim:0h54m34s) 
CPU  0 inst:  197000003 cyc:  103264286 now IPC :1.82498: AVG IPC :1.90646: L2-Pf-HR :0.96777: L2-HR :0.93094: (Sim:0h54m52s) 
CPU  0 inst:  198000004 cyc:  103826887 now IPC :1.77746: AVG IPC :1.90576: L2-Pf-HR :0.96797: L2-HR :0.93101: (Sim:0h55m9s) 
CPU  0 inst:  199000002 cyc:  104390836 now IPC :1.77321: AVG IPC :1.90504: L2-Pf-HR :0.96817: L2-HR :0.93105: (Sim:0h55m27s) 
CPU  0 inst:  200000004 cyc:  105048661 now IPC :1.52016: AVG IPC :1.90260: L2-Pf-HR :0.96836: L2-HR :0.93106: (Sim:0h55m44s) 
CPU  0 inst:  201000001 cyc:  105567542 now IPC :1.92722: AVG IPC :1.90272: L2-Pf-HR :0.96851: L2-HR :0.93116: (Sim:0h56m1s) 
CPU  0 inst:  202000002 cyc:  106112729 now IPC :1.83423: AVG IPC :1.90237: L2-Pf-HR :0.96871: L2-HR :0.93125: (Sim:0h56m18s) 
CPU  0 inst:  203000002 cyc:  106649756 now IPC :1.86210: AVG IPC :1.90216: L2-Pf-HR :0.96890: L2-HR :0.93135: (Sim:0h56m36s) 
CPU  0 inst:  204000002 cyc:  107195542 now IPC :1.83222: AVG IPC :1.90181: L2-Pf-HR :0.96909: L2-HR :0.93144: (Sim:0h56m53s) 
CPU  0 inst:  205000002 cyc:  107738698 now IPC :1.84109: AVG IPC :1.90150: L2-Pf-HR :0.96918: L2-HR :0.93148: (Sim:0h57m11s) 
CPU  0 inst:  206000004 cyc:  108319565 now IPC :1.72157: AVG IPC :1.90052: L2-Pf-HR :0.96925: L2-HR :0.93152: (Sim:0h57m28s) 
CPU  0 inst:  207000005 cyc:  108821300 now IPC :1.99309: AVG IPC :1.90095: L2-Pf-HR :0.96924: L2-HR :0.93146: (Sim:0h57m46s) 
CPU  0 inst:  208000002 cyc:  109316914 now IPC :2.01769: AVG IPC :1.90149: L2-Pf-HR :0.96915: L2-HR :0.93141: (Sim:0h58m3s) 
CPU  0 inst:  209000001 cyc:  109825671 now IPC :1.96557: AVG IPC :1.90179: L2-Pf-HR :0.96904: L2-HR :0.93139: (Sim:0h58m17s) 
CPU  0 inst:  210000003 cyc:  110437494 now IPC :1.63446: AVG IPC :1.90029: L2-Pf-HR :0.96901: L2-HR :0.93133: (Sim:0h58m32s) 
CPU  0 inst:  211000001 cyc:  110969159 now IPC :1.88088: AVG IPC :1.90020: L2-Pf-HR :0.96912: L2-HR :0.93137: (Sim:0h58m49s) 
CPU  0 inst:  212000002 cyc:  111487004 now IPC :1.93108: AVG IPC :1.90034: L2-Pf-HR :0.96935: L2-HR :0.93148: (Sim:0h59m5s) 
CPU  0 inst:  213000000 cyc:  112108416 now IPC :1.60924: AVG IPC :1.89872: L2-Pf-HR :0.96959: L2-HR :0.93163: (Sim:0h59m18s) 
CPU  0 inst:  214000004 cyc:  112770994 now IPC :1.50926: AVG IPC :1.89641: L2-Pf-HR :0.96983: L2-HR :0.93175: (Sim:0h59m34s) 
CPU  0 inst:  215000004 cyc:  113422951 now IPC :1.53384: AVG IPC :1.89431: L2-Pf-HR :0.97006: L2-HR :0.93189: (Sim:0h59m49s) 
CPU  0 inst:  216000001 cyc:  114031978 now IPC :1.64196: AVG IPC :1.89295: L2-Pf-HR :0.97024: L2-HR :0.93192: (Sim:1h0m7s) 
CPU  0 inst:  217000000 cyc:  114610400 now IPC :1.72884: AVG IPC :1.89211: L2-Pf-HR :0.97033: L2-HR :0.93196: (Sim:1h0m24s) 
CPU  0 inst:  218000005 cyc:  115159590 now IPC :1.82087: AVG IPC :1.89177: L2-Pf-HR :0.97055: L2-HR :0.93212: (Sim:1h0m42s) 
CPU  0 inst:  219000002 cyc:  115716991 now IPC :1.79404: AVG IPC :1.89129: L2-Pf-HR :0.97078: L2-HR :0.93227: (Sim:1h0m59s) 
CPU  0 inst:  220000000 cyc:  116274991 now IPC :1.79211: AVG IPC :1.89081: L2-Pf-HR :0.97097: L2-HR :0.93240: (Sim:1h1m16s) 
CPU  0 inst:  221000000 cyc:  116746460 now IPC :2.12103: AVG IPC :1.89175: L2-Pf-HR :0.97083: L2-HR :0.93239: (Sim:1h1m33s) 
CPU  0 inst:  222000005 cyc:  117259071 now IPC :1.95081: AVG IPC :1.89201: L2-Pf-HR :0.97087: L2-HR :0.93244: (Sim:1h1m51s) 
CPU  0 inst:  223000002 cyc:  117786119 now IPC :1.89735: AVG IPC :1.89204: L2-Pf-HR :0.97081: L2-HR :0.93234: (Sim:1h2m9s) 
CPU  0 inst:  224000004 cyc:  118299800 now IPC :1.94674: AVG IPC :1.89227: L2-Pf-HR :0.97086: L2-HR :0.93232: (Sim:1h2m27s) 
CPU  0 inst:  225000005 cyc:  118810980 now IPC :1.95626: AVG IPC :1.89255: L2-Pf-HR :0.97105: L2-HR :0.93243: (Sim:1h2m45s) 
CPU  0 inst:  226000003 cyc:  119311393 now IPC :1.99835: AVG IPC :1.89300: L2-Pf-HR :0.97124: L2-HR :0.93253: (Sim:1h3m3s) 
CPU  0 inst:  227000004 cyc:  119938175 now IPC :1.59545: AVG IPC :1.89143: L2-Pf-HR :0.97131: L2-HR :0.93247: (Sim:1h3m21s) 
CPU  0 inst:  228000002 cyc:  120501117 now IPC :1.77638: AVG IPC :1.89089: L2-Pf-HR :0.97151: L2-HR :0.93258: (Sim:1h3m39s) 
CPU  0 inst:  229000002 cyc:  121067659 now IPC :1.76509: AVG IPC :1.89030: L2-Pf-HR :0.97168: L2-HR :0.93265: (Sim:1h3m57s) 
CPU  0 inst:  230000004 cyc:  121639296 now IPC :1.74937: AVG IPC :1.88963: L2-Pf-HR :0.97179: L2-HR :0.93270: (Sim:1h4m15s) 
CPU  0 inst:  231000002 cyc:  122146570 now IPC :1.97132: AVG IPC :1.88997: L2-Pf-HR :0.97173: L2-HR :0.93268: (Sim:1h4m33s) 
CPU  0 inst:  232000003 cyc:  122671047 now IPC :1.90666: AVG IPC :1.89004: L2-Pf-HR :0.97189: L2-HR :0.93276: (Sim:1h4m51s) 
CPU  0 inst:  233000004 cyc:  123311753 now IPC :1.56078: AVG IPC :1.88832: L2-Pf-HR :0.97197: L2-HR :0.93274: (Sim:1h5m10s) 
CPU  0 inst:  234000004 cyc:  123875870 now IPC :1.77268: AVG IPC :1.88779: L2-Pf-HR :0.97216: L2-HR :0.93287: (Sim:1h5m28s) 
CPU  0 inst:  235000003 cyc:  124447309 now IPC :1.74997: AVG IPC :1.88715: L2-Pf-HR :0.97236: L2-HR :0.93301: (Sim:1h5m45s) 
CPU  0 inst:  236000000 cyc:  125026837 now IPC :1.72554: AVG IPC :1.88639: L2-Pf-HR :0.97255: L2-HR :0.93316: (Sim:1h6m3s) 
CPU  0 inst:  237000000 cyc:  125595104 now IPC :1.75974: AVG IPC :1.88582: L2-Pf-HR :0.97274: L2-HR :0.93330: (Sim:1h6m22s) 
CPU  0 inst:  238000004 cyc:  126138242 now IPC :1.84116: AVG IPC :1.88562: L2-Pf-HR :0.97294: L2-HR :0.93346: (Sim:1h6m40s) 
CPU  0 inst:  239000004 cyc:  126734922 now IPC :1.67594: AVG IPC :1.88463: L2-Pf-HR :0.97298: L2-HR :0.93338: (Sim:1h6m58s) 
CPU  0 inst:  240000004 cyc:  127224733 now IPC :2.04160: AVG IPC :1.88524: L2-Pf-HR :0.97296: L2-HR :0.93334: (Sim:1h7m11s) 
CPU  0 inst:  241000002 cyc:  127683758 now IPC :2.17853: AVG IPC :1.88630: L2-Pf-HR :0.97279: L2-HR :0.93330: (Sim:1h7m28s) 
CPU  0 inst:  242000003 cyc:  128151331 now IPC :2.13871: AVG IPC :1.88723: L2-Pf-HR :0.97278: L2-HR :0.93333: (Sim:1h7m42s) 
CPU  0 inst:  243000001 cyc:  128785885 now IPC :1.57591: AVG IPC :1.88568: L2-Pf-HR :0.97272: L2-HR :0.93322: (Sim:1h7m58s) 
CPU  0 inst:  244000005 cyc:  129298487 now IPC :1.95084: AVG IPC :1.88594: L2-Pf-HR :0.97266: L2-HR :0.93319: (Sim:1h8m11s) 
CPU  0 inst:  245000000 cyc:  129799476 now IPC :1.99604: AVG IPC :1.88637: L2-Pf-HR :0.97264: L2-HR :0.93320: (Sim:1h8m19s) 
CPU  0 inst:  246000003 cyc:  130304718 now IPC :1.97926: AVG IPC :1.88673: L2-Pf-HR :0.97256: L2-HR :0.93316: (Sim:1h8m30s) 
CPU  0 inst:  247000000 cyc:  130834737 now IPC :1.88672: AVG IPC :1.88673: L2-Pf-HR :0.97251: L2-HR :0.93313: (Sim:1h8m40s) 
CPU  0 inst:  248000002 cyc:  131354691 now IPC :1.92325: AVG IPC :1.88688: L2-Pf-HR :0.97256: L2-HR :0.93315: (Sim:1h8m57s) 
CPU  0 inst:  249000002 cyc:  131958061 now IPC :1.65736: AVG IPC :1.88582: L2-Pf-HR :0.97256: L2-HR :0.93312: (Sim:1h9m15s) 
CPU  0 inst:  250000002 cyc:  132476544 now IPC :1.92870: AVG IPC :1.88599: L2-Pf-HR :0.97256: L2-HR :0.93313: (Sim:1h9m32s) 
CPU  0 inst:  251000002 cyc:  132954310 now IPC :2.09307: AVG IPC :1.88674: L2-Pf-HR :0.97250: L2-HR :0.93314: (Sim:1h9m50s) 
CPU  0 inst:  252000001 cyc:  133432563 now IPC :2.09094: AVG IPC :1.88748: L2-Pf-HR :0.97243: L2-HR :0.93314: (Sim:1h10m7s) 
CPU  0 inst:  253000002 cyc:  133901527 now IPC :2.13236: AVG IPC :1.88834: L2-Pf-HR :0.97237: L2-HR :0.93317: (Sim:1h10m25s) 
CPU  0 inst:  254000002 cyc:  134371527 now IPC :2.12766: AVG IPC :1.88919: L2-Pf-HR :0.97234: L2-HR :0.93317: (Sim:1h10m42s) 
CPU  0 inst:  255000004 cyc:  134948000 now IPC :1.73469: AVG IPC :1.88852: L2-Pf-HR :0.97235: L2-HR :0.93313: (Sim:1h11m0s) 
CPU  0 inst:  256000001 cyc:  135459820 now IPC :1.95381: AVG IPC :1.88877: L2-Pf-HR :0.97246: L2-HR :0.93316: (Sim:1h11m18s) 
CPU  0 inst:  257000003 cyc:  135937825 now IPC :2.09203: AVG IPC :1.88949: L2-Pf-HR :0.97233: L2-HR :0.93311: (Sim:1h11m33s) 
CPU  0 inst:  258000000 cyc:  136404731 now IPC :2.14175: AVG IPC :1.89036: L2-Pf-HR :0.97223: L2-HR :0.93310: (Sim:1h11m50s) 
CPU  0 inst:  259000003 cyc:  140072981 now IPC :0.27261: AVG IPC :1.84769: L2-Pf-HR :0.97217: L2-HR :0.92932: (Sim:1h12m28s) 
CPU  0 inst:  260000002 cyc:  144992324 now IPC :0.20328: AVG IPC :1.79152: L2-Pf-HR :0.97207: L2-HR :0.92400: (Sim:1h13m15s) 
CPU  0 inst:  261000001 cyc:  150071515 now IPC :0.19688: AVG IPC :1.73720: L2-Pf-HR :0.97198: L2-HR :0.91882: (Sim:1h13m57s) 
CPU  0 inst:  262000003 cyc:  155141248 now IPC :0.19725: AVG IPC :1.68655: L2-Pf-HR :0.97189: L2-HR :0.91376: (Sim:1h14m46s) 
CPU  0 inst:  263000002 cyc:  160212511 now IPC :0.19719: AVG IPC :1.63912: L2-Pf-HR :0.97180: L2-HR :0.90882: (Sim:1h15m33s) 
CPU  0 inst:  264000004 cyc:  165286647 now IPC :0.19708: AVG IPC :1.59459: L2-Pf-HR :0.97171: L2-HR :0.90400: (Sim:1h16m21s) 
CPU  0 inst:  265000003 cyc:  170362037 now IPC :0.19703: AVG IPC :1.55271: L2-Pf-HR :0.97162: L2-HR :0.89930: (Sim:1h17m11s) 
CPU  0 inst:  266000005 cyc:  175433731 now IPC :0.19717: AVG IPC :1.51330: L2-Pf-HR :0.97153: L2-HR :0.89470: (Sim:1h18m1s) 
CPU  0 inst:  267000003 cyc:  180504787 now IPC :0.19720: AVG IPC :1.47612: L2-Pf-HR :0.97143: L2-HR :0.89022: (Sim:1h18m51s) 
CPU  0 inst:  268000000 cyc:  185139496 now IPC :0.21576: AVG IPC :1.44441: L2-Pf-HR :0.97131: L2-HR :0.88675: (Sim:1h19m38s) 
CPU  0 inst:  269000000 cyc:  188625453 now IPC :0.28687: AVG IPC :1.42290: L2-Pf-HR :0.97105: L2-HR :0.88607: (Sim:1h20m14s) 
CPU  0 inst:  270000000 cyc:  192112463 now IPC :0.28678: AVG IPC :1.40217: L2-Pf-HR :0.97079: L2-HR :0.88539: (Sim:1h20m49s) 
CPU  0 inst:  271000000 cyc:  195601419 now IPC :0.28662: AVG IPC :1.38218: L2-Pf-HR :0.97053: L2-HR :0.88472: (Sim:1h21m23s) 
CPU  0 inst:  272000004 cyc:  199088554 now IPC :0.28677: AVG IPC :1.36289: L2-Pf-HR :0.97027: L2-HR :0.88405: (Sim:1h21m58s) 
CPU  0 inst:  273000000 cyc:  202577958 now IPC :0.28658: AVG IPC :1.34426: L2-Pf-HR :0.97001: L2-HR :0.88337: (Sim:1h22m32s) 
CPU  0 inst:  274000002 cyc:  206066348 now IPC :0.28667: AVG IPC :1.32627: L2-Pf-HR :0.96975: L2-HR :0.88271: (Sim:1h23m7s) 
CPU  0 inst:  275000001 cyc:  209556790 now IPC :0.28650: AVG IPC :1.30887: L2-Pf-HR :0.96949: L2-HR :0.88204: (Sim:1h23m42s) 
CPU  0 inst:  276000004 cyc:  213043686 now IPC :0.28679: AVG IPC :1.29207: L2-Pf-HR :0.96923: L2-HR :0.88138: (Sim:1h24m17s) 
CPU  0 inst:  277000000 cyc:  216528214 now IPC :0.28698: AVG IPC :1.27582: L2-Pf-HR :0.96897: L2-HR :0.88071: (Sim:1h24m52s) 
CPU  0 inst:  278000000 cyc:  220011829 now IPC :0.28706: AVG IPC :1.26009: L2-Pf-HR :0.96871: L2-HR :0.88005: (Sim:1h25m27s) 
CPU  0 inst:  279000000 cyc:  223496139 now IPC :0.28700: AVG IPC :1.24486: L2-Pf-HR :0.96846: L2-HR :0.87939: (Sim:1h26m1s) 
CPU  0 inst:  280000000 cyc:  226979622 now IPC :0.28707: AVG IPC :1.23009: L2-Pf-HR :0.96820: L2-HR :0.87873: (Sim:1h26m36s) 
CPU  0 inst:  281000002 cyc:  230465219 now IPC :0.28690: AVG IPC :1.21577: L2-Pf-HR :0.96794: L2-HR :0.87808: (Sim:1h27m11s) 
CPU  0 inst:  282000005 cyc:  233949634 now IPC :0.28699: AVG IPC :1.20188: L2-Pf-HR :0.96768: L2-HR :0.87743: (Sim:1h27m46s) 
CPU  0 inst:  283000000 cyc:  237434745 now IPC :0.28693: AVG IPC :1.18839: L2-Pf-HR :0.96742: L2-HR :0.87677: (Sim:1h28m21s) 
CPU  0 inst:  284000000 cyc:  240919826 now IPC :0.28694: AVG IPC :1.17530: L2-Pf-HR :0.96717: L2-HR :0.87612: (Sim:1h28m54s) 
CPU  0 inst:  285000000 cyc:  244404081 now IPC :0.28701: AVG IPC :1.16258: L2-Pf-HR :0.96691: L2-HR :0.87548: (Sim:1h29m28s) 
CPU  0 inst:  286000000 cyc:  247885380 now IPC :0.28725: AVG IPC :1.15024: L2-Pf-HR :0.96665: L2-HR :0.87483: (Sim:1h30m2s) 
CPU  0 inst:  287000000 cyc:  251368282 now IPC :0.28712: AVG IPC :1.13824: L2-Pf-HR :0.96639: L2-HR :0.87418: (Sim:1h30m37s) 
CPU  0 inst:  288000000 cyc:  254851639 now IPC :0.28708: AVG IPC :1.12656: L2-Pf-HR :0.96613: L2-HR :0.87354: (Sim:1h31m11s) 
CPU  0 inst:  289000001 cyc:  258333294 now IPC :0.28722: AVG IPC :1.11520: L2-Pf-HR :0.96588: L2-HR :0.87290: (Sim:1h31m45s) 
CPU  0 inst:  290000001 cyc:  261819713 now IPC :0.28683: AVG IPC :1.10413: L2-Pf-HR :0.96562: L2-HR :0.87226: (Sim:1h32m19s) 
CPU  0 inst:  291000000 cyc:  265303149 now IPC :0.28707: AVG IPC :1.09336: L2-Pf-HR :0.96536: L2-HR :0.87162: (Sim:1h32m53s) 
CPU  0 inst:  292000000 cyc:  268787269 now IPC :0.28702: AVG IPC :1.08287: L2-Pf-HR :0.96511: L2-HR :0.87099: (Sim:1h33m27s) 
CPU  0 inst:  293000004 cyc:  272270009 now IPC :0.28713: AVG IPC :1.07266: L2-Pf-HR :0.96485: L2-HR :0.87035: (Sim:1h33m56s) 
CPU  0 inst:  294000000 cyc:  275754959 now IPC :0.28695: AVG IPC :1.06269: L2-Pf-HR :0.96459: L2-HR :0.86972: (Sim:1h34m17s) 
CPU  0 inst:  295000000 cyc:  279240289 now IPC :0.28692: AVG IPC :1.05297: L2-Pf-HR :0.96433: L2-HR :0.86909: (Sim:1h34m39s) 
CPU  0 inst:  296000001 cyc:  282723052 now IPC :0.28713: AVG IPC :1.04351: L2-Pf-HR :0.96408: L2-HR :0.86846: (Sim:1h35m8s) 
CPU  0 inst:  297000001 cyc:  286208267 now IPC :0.28693: AVG IPC :1.03426: L2-Pf-HR :0.96382: L2-HR :0.86783: (Sim:1h35m42s) 
CPU  0 inst:  298000000 cyc:  289691471 now IPC :0.28709: AVG IPC :1.02525: L2-Pf-HR :0.96357: L2-HR :0.86721: (Sim:1h36m11s) 
CPU  0 inst:  299000000 cyc:  293174428 now IPC :0.28711: AVG IPC :1.01645: L2-Pf-HR :0.96331: L2-HR :0.86658: (Sim:1h36m28s) 
CPU  0 inst:  300000000 cyc:  296660152 now IPC :0.28688: AVG IPC :1.00785: L2-Pf-HR :0.96305: L2-HR :0.86596: (Sim:1h36m58s) 
CPU  0 inst:  301000000 cyc:  300143947 now IPC :0.28704: AVG IPC :0.99945: L2-Pf-HR :0.96280: L2-HR :0.86534: (Sim:1h37m32s) 
CPU  0 inst:  302000000 cyc:  303626725 now IPC :0.28713: AVG IPC :0.99126: L2-Pf-HR :0.96254: L2-HR :0.86472: (Sim:1h38m7s) 
CPU  0 inst:  303000003 cyc:  307110868 now IPC :0.28702: AVG IPC :0.98324: L2-Pf-HR :0.96229: L2-HR :0.86410: (Sim:1h38m41s) 
CPU  0 inst:  304000001 cyc:  310594074 now IPC :0.28709: AVG IPC :0.97541: L2-Pf-HR :0.96203: L2-HR :0.86349: (Sim:1h39m16s) 
CPU  0 inst:  305000005 cyc:  314080786 now IPC :0.28680: AVG IPC :0.96774: L2-Pf-HR :0.96178: L2-HR :0.86288: (Sim:1h39m50s) 
CPU  0 inst:  306000000 cyc:  317566151 now IPC :0.28691: AVG IPC :0.96025: L2-Pf-HR :0.96152: L2-HR :0.86226: (Sim:1h40m25s) 
CPU  0 inst:  307000000 cyc:  321049374 now IPC :0.28709: AVG IPC :0.95292: L2-Pf-HR :0.96127: L2-HR :0.86165: (Sim:1h41m0s) 
CPU  0 inst:  308000000 cyc:  324532403 now IPC :0.28711: AVG IPC :0.94575: L2-Pf-HR :0.96101: L2-HR :0.86104: (Sim:1h41m34s) 
CPU  0 inst:  309000000 cyc:  328015720 now IPC :0.28708: AVG IPC :0.93874: L2-Pf-HR :0.96076: L2-HR :0.86044: (Sim:1h42m8s) 
CPU  0 inst:  310000004 cyc:  331499502 now IPC :0.28705: AVG IPC :0.93187: L2-Pf-HR :0.96050: L2-HR :0.85983: (Sim:1h42m43s) 
CPU  0 inst:  311000000 cyc:  334981954 now IPC :0.28715: AVG IPC :0.92515: L2-Pf-HR :0.96025: L2-HR :0.85923: (Sim:1h43m17s) 
CPU  0 inst:  312000001 cyc:  338469636 now IPC :0.28672: AVG IPC :0.91855: L2-Pf-HR :0.96000: L2-HR :0.85862: (Sim:1h43m52s) 
CPU  0 inst:  313000000 cyc:  341955105 now IPC :0.28691: AVG IPC :0.91209: L2-Pf-HR :0.95974: L2-HR :0.85802: (Sim:1h44m26s) 
CPU  0 inst:  314000004 cyc:  345438761 now IPC :0.28706: AVG IPC :0.90577: L2-Pf-HR :0.95949: L2-HR :0.85742: (Sim:1h44m50s) 
CPU  0 inst:  315000000 cyc:  348922113 now IPC :0.28708: AVG IPC :0.89958: L2-Pf-HR :0.95923: L2-HR :0.85683: (Sim:1h45m25s) 
CPU  0 inst:  316000000 cyc:  352405111 now IPC :0.28711: AVG IPC :0.89351: L2-Pf-HR :0.95898: L2-HR :0.85623: (Sim:1h45m59s) 
CPU  0 inst:  317000000 cyc:  355889382 now IPC :0.28700: AVG IPC :0.88755: L2-Pf-HR :0.95872: L2-HR :0.85563: (Sim:1h46m32s) 
CPU  0 inst:  318000005 cyc:  359374242 now IPC :0.28696: AVG IPC :0.88171: L2-Pf-HR :0.95847: L2-HR :0.85504: (Sim:1h47m4s) 
CPU  0 inst:  319000001 cyc:  362859688 now IPC :0.28691: AVG IPC :0.87598: L2-Pf-HR :0.95822: L2-HR :0.85445: (Sim:1h47m33s) 
CPU  0 inst:  320000000 cyc:  366346118 now IPC :0.28683: AVG IPC :0.87036: L2-Pf-HR :0.95797: L2-HR :0.85386: (Sim:1h48m8s) 
CPU  0 inst:  321000000 cyc:  369829851 now IPC :0.28705: AVG IPC :0.86485: L2-Pf-HR :0.95771: L2-HR :0.85327: (Sim:1h48m42s) 
CPU  0 inst:  322000000 cyc:  373311494 now IPC :0.28722: AVG IPC :0.85945: L2-Pf-HR :0.95746: L2-HR :0.85269: (Sim:1h49m17s) 
CPU  0 inst:  323000000 cyc:  376793606 now IPC :0.28718: AVG IPC :0.85415: L2-Pf-HR :0.95721: L2-HR :0.85210: (Sim:1h49m52s) 
CPU  0 inst:  324000000 cyc:  380278359 now IPC :0.28696: AVG IPC :0.84894: L2-Pf-HR :0.95695: L2-HR :0.85152: (Sim:1h50m26s) 
CPU  0 inst:  325000000 cyc:  383762484 now IPC :0.28702: AVG IPC :0.84382: L2-Pf-HR :0.95670: L2-HR :0.85093: (Sim:1h51m2s) 
CPU  0 inst:  326000002 cyc:  387246901 now IPC :0.28699: AVG IPC :0.83880: L2-Pf-HR :0.95645: L2-HR :0.85035: (Sim:1h51m36s) 
CPU  0 inst:  327000001 cyc:  390732748 now IPC :0.28687: AVG IPC :0.83386: L2-Pf-HR :0.95620: L2-HR :0.84978: (Sim:1h51m56s) 
CPU  0 inst:  328000000 cyc:  394217081 now IPC :0.28700: AVG IPC :0.82902: L2-Pf-HR :0.95595: L2-HR :0.84920: (Sim:1h52m24s) 
CPU  0 inst:  329000000 cyc:  397700241 now IPC :0.28710: AVG IPC :0.82426: L2-Pf-HR :0.95569: L2-HR :0.84862: (Sim:1h52m59s) 
CPU  0 inst:  330000000 cyc:  401185318 now IPC :0.28694: AVG IPC :0.81958: L2-Pf-HR :0.95544: L2-HR :0.84805: (Sim:1h53m33s) 
CPU  0 inst:  331000004 cyc:  404669421 now IPC :0.28702: AVG IPC :0.81498: L2-Pf-HR :0.95519: L2-HR :0.84747: (Sim:1h54m7s) 
CPU  0 inst:  332000000 cyc:  408155183 now IPC :0.28688: AVG IPC :0.81046: L2-Pf-HR :0.95494: L2-HR :0.84690: (Sim:1h54m30s) 
CPU  0 inst:  333000002 cyc:  411637757 now IPC :0.28714: AVG IPC :0.80603: L2-Pf-HR :0.95469: L2-HR :0.84633: (Sim:1h55m0s) 
CPU  0 inst:  334000000 cyc:  415121112 now IPC :0.28708: AVG IPC :0.80166: L2-Pf-HR :0.95444: L2-HR :0.84576: (Sim:1h55m36s) 
CPU  0 inst:  335000004 cyc:  418607177 now IPC :0.28686: AVG IPC :0.79736: L2-Pf-HR :0.95418: L2-HR :0.84520: (Sim:1h56m12s) 
CPU  0 inst:  336000000 cyc:  422090309 now IPC :0.28710: AVG IPC :0.79314: L2-Pf-HR :0.95393: L2-HR :0.84463: (Sim:1h56m48s) 
CPU  0 inst:  337000000 cyc:  425576576 now IPC :0.28684: AVG IPC :0.78899: L2-Pf-HR :0.95368: L2-HR :0.84406: (Sim:1h57m24s) 
CPU  0 inst:  338000000 cyc:  429059281 now IPC :0.28713: AVG IPC :0.78490: L2-Pf-HR :0.95343: L2-HR :0.84350: (Sim:1h58m0s) 
CPU  0 inst:  339000000 cyc:  432541639 now IPC :0.28716: AVG IPC :0.78089: L2-Pf-HR :0.95318: L2-HR :0.84294: (Sim:1h58m36s) 
CPU  0 inst:  340000000 cyc:  436024148 now IPC :0.28715: AVG IPC :0.77693: L2-Pf-HR :0.95293: L2-HR :0.84238: (Sim:1h59m11s) 
CPU  0 inst:  341000001 cyc:  439506563 now IPC :0.28716: AVG IPC :0.77304: L2-Pf-HR :0.95268: L2-HR :0.84182: (Sim:1h59m45s) 
CPU  0 inst:  342000001 cyc:  442995691 now IPC :0.28660: AVG IPC :0.76920: L2-Pf-HR :0.95243: L2-HR :0.84127: (Sim:2h0m19s) 
CPU  0 inst:  343000000 cyc:  446480266 now IPC :0.28698: AVG IPC :0.76543: L2-Pf-HR :0.95218: L2-HR :0.84071: (Sim:2h0m54s) 
CPU  0 inst:  344000000 cyc:  449964706 now IPC :0.28699: AVG IPC :0.76172: L2-Pf-HR :0.95193: L2-HR :0.84015: (Sim:2h1m28s) 
CPU  0 inst:  345000000 cyc:  453448078 now IPC :0.28708: AVG IPC :0.75807: L2-Pf-HR :0.95168: L2-HR :0.83960: (Sim:2h2m2s) 
CPU  0 inst:  346000000 cyc:  456930350 now IPC :0.28717: AVG IPC :0.75447: L2-Pf-HR :0.95143: L2-HR :0.83905: (Sim:2h2m36s) 
CPU  0 inst:  347000000 cyc:  460414224 now IPC :0.28704: AVG IPC :0.75092: L2-Pf-HR :0.95118: L2-HR :0.83850: (Sim:2h3m11s) 
CPU  0 inst:  348000001 cyc:  463901335 now IPC :0.28677: AVG IPC :0.74743: L2-Pf-HR :0.95093: L2-HR :0.83795: (Sim:2h3m45s) 
CPU  0 inst:  349000001 cyc:  467386745 now IPC :0.28691: AVG IPC :0.74399: L2-Pf-HR :0.95068: L2-HR :0.83740: (Sim:2h4m16s) 
CPU  0 inst:  350000000 cyc:  470872293 now IPC :0.28690: AVG IPC :0.74060: L2-Pf-HR :0.95043: L2-HR :0.83686: (Sim:2h4m45s) 
CPU  0 inst:  351000000 cyc:  474354617 now IPC :0.28716: AVG IPC :0.73726: L2-Pf-HR :0.95018: L2-HR :0.83631: (Sim:2h5m20s) 
CPU  0 inst:  352000004 cyc:  477836099 now IPC :0.28724: AVG IPC :0.73398: L2-Pf-HR :0.94993: L2-HR :0.83577: (Sim:2h5m54s) 
CPU  0 inst:  353000000 cyc:  481318915 now IPC :0.28712: AVG IPC :0.73074: L2-Pf-HR :0.94969: L2-HR :0.83523: (Sim:2h6m28s) 
CPU  0 inst:  354000000 cyc:  484805477 now IPC :0.28682: AVG IPC :0.72754: L2-Pf-HR :0.94944: L2-HR :0.83469: (Sim:2h7m3s) 
CPU  0 inst:  355000000 cyc:  488290650 now IPC :0.28693: AVG IPC :0.72438: L2-Pf-HR :0.94919: L2-HR :0.83415: (Sim:2h7m37s) 
CPU  0 inst:  356000000 cyc:  491773803 now IPC :0.28710: AVG IPC :0.72128: L2-Pf-HR :0.94894: L2-HR :0.83361: (Sim:2h8m10s) 
CPU  0 inst:  357000001 cyc:  495258792 now IPC :0.28695: AVG IPC :0.71822: L2-Pf-HR :0.94869: L2-HR :0.83308: (Sim:2h8m43s) 
CPU  0 inst:  358000000 cyc:  498743135 now IPC :0.28700: AVG IPC :0.71520: L2-Pf-HR :0.94844: L2-HR :0.83254: (Sim:2h9m19s) 
CPU  0 inst:  359000000 cyc:  502228391 now IPC :0.28692: AVG IPC :0.71222: L2-Pf-HR :0.94820: L2-HR :0.83201: (Sim:2h9m55s) 
CPU  0 inst:  360000000 cyc:  505711912 now IPC :0.28707: AVG IPC :0.70929: L2-Pf-HR :0.94795: L2-HR :0.83147: (Sim:2h10m30s) 
CPU  0 inst:  361000000 cyc:  509197383 now IPC :0.28691: AVG IPC :0.70639: L2-Pf-HR :0.94770: L2-HR :0.83094: (Sim:2h11m4s) 
CPU  0 inst:  362000000 cyc:  512681829 now IPC :0.28699: AVG IPC :0.70354: L2-Pf-HR :0.94745: L2-HR :0.83041: (Sim:2h11m36s) 
CPU  0 inst:  363000000 cyc:  516164303 now IPC :0.28715: AVG IPC :0.70072: L2-Pf-HR :0.94720: L2-HR :0.82988: (Sim:2h12m11s) 
CPU  0 inst:  364000001 cyc:  519646736 now IPC :0.28716: AVG IPC :0.69794: L2-Pf-HR :0.94696: L2-HR :0.82936: (Sim:2h12m45s) 
CPU  0 inst:  365000000 cyc:  523131571 now IPC :0.28696: AVG IPC :0.69520: L2-Pf-HR :0.94671: L2-HR :0.82883: (Sim:2h13m16s) 
CPU  0 inst:  366000000 cyc:  526618101 now IPC :0.28682: AVG IPC :0.69249: L2-Pf-HR :0.94646: L2-HR :0.82831: (Sim:2h13m44s) 
CPU  0 inst:  367000000 cyc:  530101804 now IPC :0.28705: AVG IPC :0.68982: L2-Pf-HR :0.94622: L2-HR :0.82778: (Sim:2h14m15s) 
CPU  0 inst:  368000000 cyc:  533586180 now IPC :0.28700: AVG IPC :0.68719: L2-Pf-HR :0.94597: L2-HR :0.82726: (Sim:2h14m49s) 
CPU  0 inst:  369000004 cyc:  537068407 now IPC :0.28717: AVG IPC :0.68459: L2-Pf-HR :0.94572: L2-HR :0.82674: (Sim:2h15m24s) 
CPU  0 inst:  370000000 cyc:  540553241 now IPC :0.28696: AVG IPC :0.68202: L2-Pf-HR :0.94548: L2-HR :0.82622: (Sim:2h15m57s) 
CPU  0 inst:  371000002 cyc:  544036027 now IPC :0.28713: AVG IPC :0.67949: L2-Pf-HR :0.94523: L2-HR :0.82571: (Sim:2h16m29s) 
CPU  0 inst:  372000001 cyc:  547522477 now IPC :0.28682: AVG IPC :0.67698: L2-Pf-HR :0.94498: L2-HR :0.82519: (Sim:2h17m4s) 
CPU  0 inst:  373000004 cyc:  551006229 now IPC :0.28705: AVG IPC :0.67451: L2-Pf-HR :0.94474: L2-HR :0.82467: (Sim:2h17m39s) 
CPU  0 inst:  374000000 cyc:  554491481 now IPC :0.28692: AVG IPC :0.67207: L2-Pf-HR :0.94449: L2-HR :0.82416: (Sim:2h18m14s) 
CPU  0 inst:  375000000 cyc:  557973656 now IPC :0.28718: AVG IPC :0.66967: L2-Pf-HR :0.94424: L2-HR :0.82365: (Sim:2h18m49s) 
CPU  0 inst:  376000000 cyc:  561458256 now IPC :0.28698: AVG IPC :0.66729: L2-Pf-HR :0.94400: L2-HR :0.82313: (Sim:2h19m18s) 
CPU  0 inst:  377000000 cyc:  564944032 now IPC :0.28688: AVG IPC :0.66494: L2-Pf-HR :0.94375: L2-HR :0.82262: (Sim:2h19m53s) 
CPU  0 inst:  378000002 cyc:  568427986 now IPC :0.28703: AVG IPC :0.66262: L2-Pf-HR :0.94351: L2-HR :0.82211: (Sim:2h20m27s) 
CPU  0 inst:  379000005 cyc:  571913464 now IPC :0.28691: AVG IPC :0.66032: L2-Pf-HR :0.94326: L2-HR :0.82161: (Sim:2h21m1s) 
CPU  0 inst:  380000000 cyc:  575400275 now IPC :0.28679: AVG IPC :0.65806: L2-Pf-HR :0.94302: L2-HR :0.82110: (Sim:2h21m35s) 
CPU  0 inst:  381000000 cyc:  578885887 now IPC :0.28689: AVG IPC :0.65582: L2-Pf-HR :0.94277: L2-HR :0.82059: (Sim:2h22m10s) 
CPU  0 inst:  382000000 cyc:  582369819 now IPC :0.28703: AVG IPC :0.65361: L2-Pf-HR :0.94253: L2-HR :0.82009: (Sim:2h22m45s) 
CPU  0 inst:  383000000 cyc:  585856612 now IPC :0.28680: AVG IPC :0.65142: L2-Pf-HR :0.94228: L2-HR :0.81959: (Sim:2h23m20s) 
CPU  0 inst:  384000000 cyc:  589339769 now IPC :0.28710: AVG IPC :0.64926: L2-Pf-HR :0.94204: L2-HR :0.81908: (Sim:2h23m52s) 
CPU  0 inst:  385000000 cyc:  592822119 now IPC :0.28716: AVG IPC :0.64713: L2-Pf-HR :0.94179: L2-HR :0.81858: (Sim:2h24m26s) 
CPU  0 inst:  386000001 cyc:  596305025 now IPC :0.28712: AVG IPC :0.64503: L2-Pf-HR :0.94155: L2-HR :0.81809: (Sim:2h24m57s) 
CPU  0 inst:  387000001 cyc:  599790277 now IPC :0.28692: AVG IPC :0.64294: L2-Pf-HR :0.94130: L2-HR :0.81759: (Sim:2h25m31s) 
CPU  0 inst:  388000000 cyc:  603272864 now IPC :0.28714: AVG IPC :0.64088: L2-Pf-HR :0.94106: L2-HR :0.81709: (Sim:2h26m6s) 
CPU  0 inst:  389000000 cyc:  606759002 now IPC :0.28685: AVG IPC :0.63885: L2-Pf-HR :0.94082: L2-HR :0.81659: (Sim:2h26m41s) 
CPU  0 inst:  390000004 cyc:  610243110 now IPC :0.28702: AVG IPC :0.63684: L2-Pf-HR :0.94057: L2-HR :0.81610: (Sim:2h27m15s) 
CPU  0 inst:  391000000 cyc:  613729450 now IPC :0.28683: AVG IPC :0.63484: L2-Pf-HR :0.94033: L2-HR :0.81561: (Sim:2h27m49s) 
CPU  0 inst:  392000000 cyc:  617215047 now IPC :0.28689: AVG IPC :0.63288: L2-Pf-HR :0.94008: L2-HR :0.81511: (Sim:2h28m25s) 
CPU  0 inst:  393000001 cyc:  620699713 now IPC :0.28697: AVG IPC :0.63093: L2-Pf-HR :0.93984: L2-HR :0.81462: (Sim:2h29m0s) 
CPU  0 inst:  394000001 cyc:  624185413 now IPC :0.28689: AVG IPC :0.62901: L2-Pf-HR :0.93960: L2-HR :0.81413: (Sim:2h29m35s) 
CPU  0 inst:  395000000 cyc:  627627406 now IPC :0.29053: AVG IPC :0.62715: L2-Pf-HR :0.93933: L2-HR :0.81361: (Sim:2h30m10s) 
CPU  0 inst:  396000003 cyc:  628249262 now IPC :1.60809: AVG IPC :0.62812: L2-Pf-HR :0.93927: L2-HR :0.81379: (Sim:2h30m33s) 
CPU  0 inst:  397000005 cyc:  628855795 now IPC :1.64872: AVG IPC :0.62911: L2-Pf-HR :0.93922: L2-HR :0.81399: (Sim:2h30m54s) 
CPU  0 inst:  398000001 cyc:  629456924 now IPC :1.66353: AVG IPC :0.63010: L2-Pf-HR :0.93917: L2-HR :0.81420: (Sim:2h31m16s) 
CPU  0 inst:  399000005 cyc:  630070288 now IPC :1.63036: AVG IPC :0.63107: L2-Pf-HR :0.93911: L2-HR :0.81439: (Sim:2h31m37s) 
CPU  0 inst:  400000004 cyc:  630623744 now IPC :1.80683: AVG IPC :0.63210: L2-Pf-HR :0.93904: L2-HR :0.81462: (Sim:2h31m59s) 
CPU  0 inst:  401000004 cyc:  631146577 now IPC :1.91266: AVG IPC :0.63317: L2-Pf-HR :0.93899: L2-HR :0.81488: (Sim:2h32m19s) 
CPU  0 inst:  402000004 cyc:  631669553 now IPC :1.91213: AVG IPC :0.63423: L2-Pf-HR :0.93893: L2-HR :0.81514: (Sim:2h32m39s) 
CPU  0 inst:  403000001 cyc:  632193147 now IPC :1.90987: AVG IPC :0.63529: L2-Pf-HR :0.93888: L2-HR :0.81540: (Sim:2h33m0s) 
CPU  0 inst:  404000000 cyc:  632747382 now IPC :1.80429: AVG IPC :0.63631: L2-Pf-HR :0.93879: L2-HR :0.81561: (Sim:2h33m20s) 
CPU  0 inst:  405000005 cyc:  633271996 now IPC :1.90617: AVG IPC :0.63736: L2-Pf-HR :0.93873: L2-HR :0.81586: (Sim:2h33m40s) 
CPU  0 inst:  406000001 cyc:  633792425 now IPC :1.92148: AVG IPC :0.63842: L2-Pf-HR :0.93868: L2-HR :0.81612: (Sim:2h33m53s) 
CPU  0 inst:  407000000 cyc:  634314925 now IPC :1.91387: AVG IPC :0.63947: L2-Pf-HR :0.93862: L2-HR :0.81637: (Sim:2h34m4s) 
CPU  0 inst:  408000004 cyc:  634866257 now IPC :1.81380: AVG IPC :0.64049: L2-Pf-HR :0.93857: L2-HR :0.81657: (Sim:2h34m22s) 
CPU  0 inst:  409000003 cyc:  635399127 now IPC :1.87663: AVG IPC :0.64153: L2-Pf-HR :0.93859: L2-HR :0.81680: (Sim:2h34m42s) 
CPU  0 inst:  410000003 cyc:  635931916 now IPC :1.87692: AVG IPC :0.64257: L2-Pf-HR :0.93862: L2-HR :0.81704: (Sim:2h35m1s) 
CPU  0 inst:  411000002 cyc:  636465777 now IPC :1.87314: AVG IPC :0.64360: L2-Pf-HR :0.93864: L2-HR :0.81728: (Sim:2h35m22s) 
CPU  0 inst:  412000003 cyc:  637061546 now IPC :1.67850: AVG IPC :0.64457: L2-Pf-HR :0.93861: L2-HR :0.81745: (Sim:2h35m40s) 
CPU  0 inst:  413000002 cyc:  637670440 now IPC :1.64232: AVG IPC :0.64553: L2-Pf-HR :0.93855: L2-HR :0.81763: (Sim:2h35m58s) 
CPU  0 inst:  414000005 cyc:  638279669 now IPC :1.64142: AVG IPC :0.64648: L2-Pf-HR :0.93849: L2-HR :0.81782: (Sim:2h36m19s) 
CPU  0 inst:  415000003 cyc:  638880673 now IPC :1.66388: AVG IPC :0.64744: L2-Pf-HR :0.93841: L2-HR :0.81798: (Sim:2h36m41s) 
CPU  0 inst:  416000005 cyc:  639476322 now IPC :1.67884: AVG IPC :0.64840: L2-Pf-HR :0.93835: L2-HR :0.81816: (Sim:2h37m2s) 
CPU  0 inst:  417000001 cyc:  640004917 now IPC :1.89180: AVG IPC :0.64943: L2-Pf-HR :0.93830: L2-HR :0.81840: (Sim:2h37m23s) 
CPU  0 inst:  418000005 cyc:  640529144 now IPC :1.90758: AVG IPC :0.65046: L2-Pf-HR :0.93823: L2-HR :0.81863: (Sim:2h37m44s) 
CPU  0 inst:  419000004 cyc:  641049353 now IPC :1.92230: AVG IPC :0.65149: L2-Pf-HR :0.93817: L2-HR :0.81886: (Sim:2h38m5s) 
CPU  0 inst:  420000003 cyc:  641571799 now IPC :1.91407: AVG IPC :0.65252: L2-Pf-HR :0.93814: L2-HR :0.81912: (Sim:2h38m25s) 
CPU  0 inst:  421000002 cyc:  642116079 now IPC :1.83729: AVG IPC :0.65353: L2-Pf-HR :0.93806: L2-HR :0.81932: (Sim:2h38m46s) 
CPU  0 inst:  422000001 cyc:  642638261 now IPC :1.91504: AVG IPC :0.65455: L2-Pf-HR :0.93799: L2-HR :0.81954: (Sim:2h39m7s) 
CPU  0 inst:  423000003 cyc:  643157523 now IPC :1.92581: AVG IPC :0.65558: L2-Pf-HR :0.93793: L2-HR :0.81977: (Sim:2h39m27s) 
CPU  0 inst:  424000002 cyc:  643676989 now IPC :1.92505: AVG IPC :0.65661: L2-Pf-HR :0.93786: L2-HR :0.81999: (Sim:2h39m48s) 
CPU  0 inst:  425000001 cyc:  644224228 now IPC :1.82735: AVG IPC :0.65760: L2-Pf-HR :0.93788: L2-HR :0.82021: (Sim:2h40m10s) 
CPU  0 inst:  426000005 cyc:  644758738 now IPC :1.87088: AVG IPC :0.65861: L2-Pf-HR :0.93790: L2-HR :0.82042: (Sim:2h40m30s) 
CPU  0 inst:  427000001 cyc:  645292490 now IPC :1.87352: AVG IPC :0.65962: L2-Pf-HR :0.93792: L2-HR :0.82064: (Sim:2h40m51s) 
CPU  0 inst:  428000005 cyc:  645823081 now IPC :1.88470: AVG IPC :0.66063: L2-Pf-HR :0.93795: L2-HR :0.82086: (Sim:2h41m12s) 
CPU  0 inst:  429000003 cyc:  646409390 now IPC :1.70558: AVG IPC :0.66158: L2-Pf-HR :0.93790: L2-HR :0.82101: (Sim:2h41m34s) 
CPU  0 inst:  430000005 cyc:  646989167 now IPC :1.72480: AVG IPC :0.66253: L2-Pf-HR :0.93784: L2-HR :0.82118: (Sim:2h41m56s) 
CPU  0 inst:  431000000 cyc:  647567582 now IPC :1.72885: AVG IPC :0.66348: L2-Pf-HR :0.93777: L2-HR :0.82135: (Sim:2h42m17s) 
CPU  0 inst:  432000000 cyc:  648147251 now IPC :1.72512: AVG IPC :0.66443: L2-Pf-HR :0.93771: L2-HR :0.82152: (Sim:2h42m39s) 
CPU  0 inst:  433000002 cyc:  648708386 now IPC :1.78211: AVG IPC :0.66540: L2-Pf-HR :0.93762: L2-HR :0.82167: (Sim:2h43m1s) 
CPU  0 inst:  434000002 cyc:  649224532 now IPC :1.93744: AVG IPC :0.66642: L2-Pf-HR :0.93757: L2-HR :0.82190: (Sim:2h43m22s) 
CPU  0 inst:  435000005 cyc:  649741317 now IPC :1.93505: AVG IPC :0.66743: L2-Pf-HR :0.93752: L2-HR :0.82213: (Sim:2h43m44s) 
CPU  0 inst:  436000004 cyc:  650257233 now IPC :1.93830: AVG IPC :0.66844: L2-Pf-HR :0.93747: L2-HR :0.82236: (Sim:2h43m59s) 
CPU  0 inst:  437000005 cyc:  650789104 now IPC :1.88016: AVG IPC :0.66943: L2-Pf-HR :0.93740: L2-HR :0.82255: (Sim:2h44m20s) 
CPU  0 inst:  438000000 cyc:  651304729 now IPC :1.93938: AVG IPC :0.67044: L2-Pf-HR :0.93734: L2-HR :0.82277: (Sim:2h44m42s) 
CPU  0 inst:  439000002 cyc:  651820670 now IPC :1.93821: AVG IPC :0.67144: L2-Pf-HR :0.93729: L2-HR :0.82299: (Sim:2h45m3s) 
CPU  0 inst:  440000002 cyc:  652335770 now IPC :1.94137: AVG IPC :0.67244: L2-Pf-HR :0.93724: L2-HR :0.82321: (Sim:2h45m25s) 
CPU  0 inst:  441000001 cyc:  652865834 now IPC :1.88656: AVG IPC :0.67343: L2-Pf-HR :0.93718: L2-HR :0.82339: (Sim:2h45m47s) 
CPU  0 inst:  442000005 cyc:  653396618 now IPC :1.88401: AVG IPC :0.67442: L2-Pf-HR :0.93719: L2-HR :0.82358: (Sim:2h46m0s) 
CPU  0 inst:  443000005 cyc:  653925648 now IPC :1.89025: AVG IPC :0.67540: L2-Pf-HR :0.93722: L2-HR :0.82379: (Sim:2h46m11s) 
CPU  0 inst:  444000004 cyc:  654454722 now IPC :1.89009: AVG IPC :0.67638: L2-Pf-HR :0.93724: L2-HR :0.82399: (Sim:2h46m27s) 
CPU  0 inst:  445000003 cyc:  654987858 now IPC :1.87569: AVG IPC :0.67736: L2-Pf-HR :0.93725: L2-HR :0.82417: (Sim:2h46m48s) 
CPU  0 inst:  446000002 cyc:  655578201 now IPC :1.69393: AVG IPC :0.67828: L2-Pf-HR :0.93719: L2-HR :0.82432: (Sim:2h47m9s) 
CPU  0 inst:  447000004 cyc:  656156698 now IPC :1.72862: AVG IPC :0.67921: L2-Pf-HR :0.93714: L2-HR :0.82447: (Sim:2h47m30s) 
CPU  0 inst:  448000000 cyc:  656736902 now IPC :1.72352: AVG IPC :0.68013: L2-Pf-HR :0.93708: L2-HR :0.82463: (Sim:2h47m51s) 
CPU  0 inst:  449000002 cyc:  657322426 now IPC :1.70788: AVG IPC :0.68105: L2-Pf-HR :0.93701: L2-HR :0.82478: (Sim:2h48m11s) 
CPU  0 inst:  450000004 cyc:  657864018 now IPC :1.84641: AVG IPC :0.68201: L2-Pf-HR :0.93696: L2-HR :0.82496: (Sim:2h48m32s) 
CPU  0 inst:  451000003 cyc:  658382551 now IPC :1.92852: AVG IPC :0.68299: L2-Pf-HR :0.93691: L2-HR :0.82518: (Sim:2h48m53s) 
CPU  0 inst:  452000000 cyc:  658901353 now IPC :1.92751: AVG IPC :0.68397: L2-Pf-HR :0.93685: L2-HR :0.82538: (Sim:2h49m14s) 
CPU  0 inst:  453000002 cyc:  659419476 now IPC :1.93005: AVG IPC :0.68495: L2-Pf-HR :0.93678: L2-HR :0.82558: (Sim:2h49m35s) 
CPU  0 inst:  454000005 cyc:  659950028 now IPC :1.88484: AVG IPC :0.68592: L2-Pf-HR :0.93674: L2-HR :0.82578: (Sim:2h49m56s) 
CPU  0 inst:  455000003 cyc:  660466057 now IPC :1.93787: AVG IPC :0.68690: L2-Pf-HR :0.93668: L2-HR :0.82597: (Sim:2h50m17s) 
CPU  0 inst:  456000004 cyc:  660981435 now IPC :1.94033: AVG IPC :0.68788: L2-Pf-HR :0.93661: L2-HR :0.82617: (Sim:2h50m38s) 
CPU  0 inst:  457000002 cyc:  661496833 now IPC :1.94024: AVG IPC :0.68886: L2-Pf-HR :0.93656: L2-HR :0.82636: (Sim:2h50m59s) 
CPU  0 inst:  458000003 cyc:  662032231 now IPC :1.86777: AVG IPC :0.68981: L2-Pf-HR :0.93655: L2-HR :0.82655: (Sim:2h51m20s) 
CPU  0 inst:  459000005 cyc:  662563186 now IPC :1.88340: AVG IPC :0.69077: L2-Pf-HR :0.93656: L2-HR :0.82673: (Sim:2h51m39s) 
CPU  0 inst:  460000000 cyc:  663094517 now IPC :1.88206: AVG IPC :0.69172: L2-Pf-HR :0.93658: L2-HR :0.82691: (Sim:2h52m0s) 
CPU  0 inst:  461000003 cyc:  663623908 now IPC :1.88897: AVG IPC :0.69268: L2-Pf-HR :0.93660: L2-HR :0.82710: (Sim:2h52m21s) 
CPU  0 inst:  462000004 cyc:  664188074 now IPC :1.77253: AVG IPC :0.69360: L2-Pf-HR :0.93660: L2-HR :0.82726: (Sim:2h52m43s) 
CPU  0 inst:  463000005 cyc:  664770781 now IPC :1.71613: AVG IPC :0.69450: L2-Pf-HR :0.93653: L2-HR :0.82738: (Sim:2h53m5s) 
CPU  0 inst:  464000004 cyc:  665351141 now IPC :1.72307: AVG IPC :0.69540: L2-Pf-HR :0.93647: L2-HR :0.82753: (Sim:2h53m27s) 
CPU  0 inst:  465000002 cyc:  665931564 now IPC :1.72288: AVG IPC :0.69629: L2-Pf-HR :0.93642: L2-HR :0.82768: (Sim:2h53m48s) 
CPU  0 inst:  466000004 cyc:  666517790 now IPC :1.70583: AVG IPC :0.69718: L2-Pf-HR :0.93635: L2-HR :0.82780: (Sim:2h54m10s) 
CPU  0 inst:  467000001 cyc:  667036117 now IPC :1.92928: AVG IPC :0.69814: L2-Pf-HR :0.93630: L2-HR :0.82799: (Sim:2h54m24s) 
CPU  0 inst:  468000001 cyc:  667553529 now IPC :1.93270: AVG IPC :0.69910: L2-Pf-HR :0.93625: L2-HR :0.82819: (Sim:2h54m35s) 
CPU  0 inst:  469000002 cyc:  668071703 now IPC :1.92986: AVG IPC :0.70005: L2-Pf-HR :0.93621: L2-HR :0.82839: (Sim:2h54m47s) 
CPU  0 inst:  470000001 cyc:  668591201 now IPC :1.92493: AVG IPC :0.70101: L2-Pf-HR :0.93615: L2-HR :0.82857: (Sim:2h55m1s) 
CPU  0 inst:  471000001 cyc:  669118201 now IPC :1.89753: AVG IPC :0.70195: L2-Pf-HR :0.93610: L2-HR :0.82874: (Sim:2h55m13s) 
CPU  0 inst:  472000005 cyc:  669634276 now IPC :1.93771: AVG IPC :0.70291: L2-Pf-HR :0.93605: L2-HR :0.82894: (Sim:2h55m26s) 
CPU  0 inst:  473000004 cyc:  670150490 now IPC :1.93718: AVG IPC :0.70386: L2-Pf-HR :0.93601: L2-HR :0.82914: (Sim:2h55m38s) 
CPU  0 inst:  474000000 cyc:  670666230 now IPC :1.93895: AVG IPC :0.70481: L2-Pf-HR :0.93597: L2-HR :0.82933: (Sim:2h55m57s) 
CPU  0 inst:  475000005 cyc:  671208541 now IPC :1.84397: AVG IPC :0.70573: L2-Pf-HR :0.93596: L2-HR :0.82948: (Sim:2h56m18s) 
CPU  0 inst:  476000005 cyc:  671738442 now IPC :1.88714: AVG IPC :0.70666: L2-Pf-HR :0.93598: L2-HR :0.82966: (Sim:2h56m39s) 
CPU  0 inst:  477000003 cyc:  672268816 now IPC :1.88546: AVG IPC :0.70759: L2-Pf-HR :0.93601: L2-HR :0.82984: (Sim:2h56m59s) 
CPU  0 inst:  478000000 cyc:  672800134 now IPC :1.88211: AVG IPC :0.70852: L2-Pf-HR :0.93603: L2-HR :0.83002: (Sim:2h57m20s) 
CPU  0 inst:  479000000 cyc:  673378447 now IPC :1.72917: AVG IPC :0.70940: L2-Pf-HR :0.93600: L2-HR :0.83014: (Sim:2h57m42s) 
CPU  0 inst:  480000005 cyc:  673959023 now IPC :1.72244: AVG IPC :0.71028: L2-Pf-HR :0.93595: L2-HR :0.83027: (Sim:2h58m2s) 
CPU  0 inst:  481000001 cyc:  674537591 now IPC :1.72840: AVG IPC :0.71115: L2-Pf-HR :0.93590: L2-HR :0.83041: (Sim:2h58m14s) 
CPU  0 inst:  482000001 cyc:  675116521 now IPC :1.72732: AVG IPC :0.71202: L2-Pf-HR :0.93585: L2-HR :0.83054: (Sim:2h58m26s) 
CPU  0 inst:  483000000 cyc:  675686965 now IPC :1.75302: AVG IPC :0.71290: L2-Pf-HR :0.93579: L2-HR :0.83066: (Sim:2h58m39s) 
CPU  0 inst:  484000005 cyc:  676204095 now IPC :1.93376: AVG IPC :0.71384: L2-Pf-HR :0.93575: L2-HR :0.83085: (Sim:2h58m56s) 
CPU  0 inst:  485000003 cyc:  676722134 now IPC :1.93035: AVG IPC :0.71477: L2-Pf-HR :0.93571: L2-HR :0.83104: (Sim:2h59m16s) 
CPU  0 inst:  486000000 cyc:  677240943 now IPC :1.92749: AVG IPC :0.71570: L2-Pf-HR :0.93565: L2-HR :0.83122: (Sim:2h59m29s) 
CPU  0 inst:  487000003 cyc:  677773570 now IPC :1.87749: AVG IPC :0.71662: L2-Pf-HR :0.93561: L2-HR :0.83138: (Sim:2h59m45s) 
CPU  0 inst:  488000003 cyc:  678288817 now IPC :1.94082: AVG IPC :0.71755: L2-Pf-HR :0.93557: L2-HR :0.83156: (Sim:2h59m57s) 
CPU  0 inst:  489000000 cyc:  678805075 now IPC :1.93701: AVG IPC :0.71848: L2-Pf-HR :0.93552: L2-HR :0.83174: (Sim:3h0m8s) 
CPU  0 inst:  490000005 cyc:  679320831 now IPC :1.93891: AVG IPC :0.71940: L2-Pf-HR :0.93546: L2-HR :0.83191: (Sim:3h0m20s) 
CPU  0 inst:  491000004 cyc:  679839530 now IPC :1.92790: AVG IPC :0.72033: L2-Pf-HR :0.93544: L2-HR :0.83211: (Sim:3h0m37s) 
CPU  0 inst:  492000000 cyc:  680377111 now IPC :1.86018: AVG IPC :0.72123: L2-Pf-HR :0.93544: L2-HR :0.83224: (Sim:3h0m52s) 
CPU  0 inst:  493000001 cyc:  680907031 now IPC :1.88708: AVG IPC :0.72214: L2-Pf-HR :0.93546: L2-HR :0.83240: (Sim:3h1m8s) 
CPU  0 inst:  494000002 cyc:  681438023 now IPC :1.88327: AVG IPC :0.72304: L2-Pf-HR :0.93548: L2-HR :0.83255: (Sim:3h1m29s) 
CPU  0 inst:  495000001 cyc:  681971475 now IPC :1.87458: AVG IPC :0.72395: L2-Pf-HR :0.93550: L2-HR :0.83271: (Sim:3h1m50s) 
CPU  0 inst:  496000002 cyc:  682558519 now IPC :1.70345: AVG IPC :0.72479: L2-Pf-HR :0.93547: L2-HR :0.83283: (Sim:3h2m10s) 
CPU  0 inst:  497000001 cyc:  683143849 now IPC :1.70844: AVG IPC :0.72563: L2-Pf-HR :0.93540: L2-HR :0.83295: (Sim:3h2m32s) 
CPU  0 inst:  498000005 cyc:  683723267 now IPC :1.72588: AVG IPC :0.72648: L2-Pf-HR :0.93535: L2-HR :0.83307: (Sim:3h2m53s) 
CPU  0 inst:  499000003 cyc:  684302510 now IPC :1.72639: AVG IPC :0.72733: L2-Pf-HR :0.93531: L2-HR :0.83320: (Sim:3h3m14s) 
CPU  0 inst:  500000001 cyc:  684849730 now IPC :1.82741: AVG IPC :0.72821: L2-Pf-HR :0.93524: L2-HR :0.83332: (Sim:3h3m34s) 
CPU  0 inst:  501000000 cyc:  685367392 now IPC :1.93176: AVG IPC :0.72912: L2-Pf-HR :0.93521: L2-HR :0.83350: (Sim:3h3m54s) 
CPU  0 inst:  502000000 cyc:  685885287 now IPC :1.93089: AVG IPC :0.73003: L2-Pf-HR :0.93517: L2-HR :0.83368: (Sim:3h4m15s) 
CPU  0 inst:  503000003 cyc:  686402653 now IPC :1.93287: AVG IPC :0.73094: L2-Pf-HR :0.93513: L2-HR :0.83385: (Sim:3h4m35s) 
CPU  0 inst:  504000002 cyc:  686933066 now IPC :1.88532: AVG IPC :0.73183: L2-Pf-HR :0.93506: L2-HR :0.83399: (Sim:3h4m55s) 
CPU  0 inst:  505000004 cyc:  687448803 now IPC :1.93898: AVG IPC :0.73274: L2-Pf-HR :0.93502: L2-HR :0.83416: (Sim:3h5m13s) 
CPU  0 inst:  506000002 cyc:  687964291 now IPC :1.93991: AVG IPC :0.73364: L2-Pf-HR :0.93498: L2-HR :0.83433: (Sim:3h5m24s) 
CPU  0 inst:  507000004 cyc:  688480136 now IPC :1.93857: AVG IPC :0.73455: L2-Pf-HR :0.93494: L2-HR :0.83450: (Sim:3h5m33s) 
CPU  0 inst:  508000002 cyc:  689013257 now IPC :1.87574: AVG IPC :0.73543: L2-Pf-HR :0.93490: L2-HR :0.83463: (Sim:3h5m44s) 
CPU  0 inst:  509000000 cyc:  689543170 now IPC :1.88710: AVG IPC :0.73632: L2-Pf-HR :0.93493: L2-HR :0.83479: (Sim:3h5m55s) 
CPU  0 inst:  510000002 cyc:  690074880 now IPC :1.88073: AVG IPC :0.73720: L2-Pf-HR :0.93495: L2-HR :0.83495: (Sim:3h6m9s) 
CPU  0 inst:  511000003 cyc:  690606583 now IPC :1.88075: AVG IPC :0.73808: L2-Pf-HR :0.93498: L2-HR :0.83510: (Sim:3h6m30s) 
CPU  0 inst:  512000001 cyc:  691161568 now IPC :1.80185: AVG IPC :0.73894: L2-Pf-HR :0.93498: L2-HR :0.83523: (Sim:3h6m50s) 
CPU  0 inst:  513000002 cyc:  691740744 now IPC :1.72659: AVG IPC :0.73976: L2-Pf-HR :0.93493: L2-HR :0.83534: (Sim:3h7m12s) 
CPU  0 inst:  514000004 cyc:  692317789 now IPC :1.73297: AVG IPC :0.74059: L2-Pf-HR :0.93489: L2-HR :0.83545: (Sim:3h7m33s) 
CPU  0 inst:  515000001 cyc:  692897133 now IPC :1.72609: AVG IPC :0.74142: L2-Pf-HR :0.93484: L2-HR :0.83557: (Sim:3h7m54s) 
CPU  0 inst:  516000003 cyc:  693482539 now IPC :1.70822: AVG IPC :0.74224: L2-Pf-HR :0.93478: L2-HR :0.83566: (Sim:3h8m15s) 
CPU  0 inst:  517000003 cyc:  694011445 now IPC :1.89070: AVG IPC :0.74311: L2-Pf-HR :0.93473: L2-HR :0.83581: (Sim:3h8m36s) 
CPU  0 inst:  518000002 cyc:  694528850 now IPC :1.93272: AVG IPC :0.74400: L2-Pf-HR :0.93469: L2-HR :0.83597: (Sim:3h8m56s) 
CPU  0 inst:  519000003 cyc:  695045862 now IPC :1.93419: AVG IPC :0.74489: L2-Pf-HR :0.93465: L2-HR :0.83614: (Sim:3h9m17s) 
CPU  0 inst:  520000000 cyc:  695562674 now IPC :1.93493: AVG IPC :0.74577: L2-Pf-HR :0.93459: L2-HR :0.83629: (Sim:3h9m38s) 
CPU  0 inst:  521000000 cyc:  696093440 now IPC :1.88407: AVG IPC :0.74664: L2-Pf-HR :0.93455: L2-HR :0.83643: (Sim:3h10m0s) 
CPU  0 inst:  522000005 cyc:  696609263 now IPC :1.93866: AVG IPC :0.74753: L2-Pf-HR :0.93451: L2-HR :0.83659: (Sim:3h10m21s) 
CPU  0 inst:  523000001 cyc:  697125839 now IPC :1.93582: AVG IPC :0.74841: L2-Pf-HR :0.93446: L2-HR :0.83674: (Sim:3h10m42s) 
CPU  0 inst:  524000001 cyc:  697642331 now IPC :1.93614: AVG IPC :0.74929: L2-Pf-HR :0.93440: L2-HR :0.83689: (Sim:3h10m54s) 
CPU  0 inst:  525000004 cyc:  698178523 now IPC :1.86501: AVG IPC :0.75015: L2-Pf-HR :0.93440: L2-HR :0.83703: (Sim:3h11m4s) 
CPU  0 inst:  526000000 cyc:  698709123 now IPC :1.88465: AVG IPC :0.75101: L2-Pf-HR :0.93442: L2-HR :0.83717: (Sim:3h11m16s) 
CPU  0 inst:  527000002 cyc:  699242410 now IPC :1.87517: AVG IPC :0.75187: L2-Pf-HR :0.93444: L2-HR :0.83731: (Sim:3h11m32s) 
CPU  0 inst:  528000002 cyc:  699773106 now IPC :1.88432: AVG IPC :0.75273: L2-Pf-HR :0.93446: L2-HR :0.83745: (Sim:3h11m41s) 
CPU  0 inst:  529000002 cyc:  700341225 now IPC :1.76019: AVG IPC :0.75355: L2-Pf-HR :0.93446: L2-HR :0.83758: (Sim:3h11m57s) 
CPU  0 inst:  530000003 cyc:  700926107 now IPC :1.70975: AVG IPC :0.75434: L2-Pf-HR :0.93440: L2-HR :0.83767: (Sim:3h12m10s) 
CPU  0 inst:  531000003 cyc:  701509139 now IPC :1.71517: AVG IPC :0.75514: L2-Pf-HR :0.93434: L2-HR :0.83776: (Sim:3h12m20s) 
CPU  0 inst:  532000002 cyc:  702089938 now IPC :1.72176: AVG IPC :0.75594: L2-Pf-HR :0.93429: L2-HR :0.83787: (Sim:3h12m29s) 
CPU  0 inst:  533000004 cyc:  702664019 now IPC :1.74192: AVG IPC :0.75675: L2-Pf-HR :0.93424: L2-HR :0.83796: (Sim:3h12m40s) 
CPU  0 inst:  534000004 cyc:  703181975 now IPC :1.93067: AVG IPC :0.75762: L2-Pf-HR :0.93420: L2-HR :0.83811: (Sim:3h12m50s) 
CPU  0 inst:  535000003 cyc:  703700181 now IPC :1.92973: AVG IPC :0.75848: L2-Pf-HR :0.93416: L2-HR :0.83827: (Sim:3h13m0s) 
CPU  0 inst:  536000003 cyc:  704218733 now IPC :1.92845: AVG IPC :0.75934: L2-Pf-HR :0.93413: L2-HR :0.83843: (Sim:3h13m10s) 
CPU  0 inst:  537000002 cyc:  704747845 now IPC :1.88996: AVG IPC :0.76019: L2-Pf-HR :0.93408: L2-HR :0.83856: (Sim:3h13m20s) 
CPU  0 inst:  538000003 cyc:  705267547 now IPC :1.92418: AVG IPC :0.76105: L2-Pf-HR :0.93404: L2-HR :0.83870: (Sim:3h13m30s) 
CPU  0 inst:  539000005 cyc:  705783476 now IPC :1.93826: AVG IPC :0.76192: L2-Pf-HR :0.93400: L2-HR :0.83886: (Sim:3h13m39s) 
CPU  0 inst:  540000001 cyc:  706299214 now IPC :1.93896: AVG IPC :0.76278: L2-Pf-HR :0.93397: L2-HR :0.83901: (Sim:3h13m49s) 
CPU  0 inst:  541000003 cyc:  706818130 now IPC :1.92710: AVG IPC :0.76363: L2-Pf-HR :0.93392: L2-HR :0.83915: (Sim:3h13m58s) 
CPU  0 inst:  542000002 cyc:  707358077 now IPC :1.85203: AVG IPC :0.76446: L2-Pf-HR :0.93394: L2-HR :0.83928: (Sim:3h14m7s) 
CPU  0 inst:  543000005 cyc:  707888966 now IPC :1.88364: AVG IPC :0.76530: L2-Pf-HR :0.93396: L2-HR :0.83942: (Sim:3h14m16s) 
CPU  0 inst:  544000002 cyc:  708417905 now IPC :1.89057: AVG IPC :0.76615: L2-Pf-HR :0.93399: L2-HR :0.83956: (Sim:3h14m25s) 
CPU  0 inst:  545000002 cyc:  708947210 now IPC :1.88927: AVG IPC :0.76699: L2-Pf-HR :0.93401: L2-HR :0.83971: (Sim:3h14m35s) 
CPU  0 inst:  546000002 cyc:  709533673 now IPC :1.70514: AVG IPC :0.76776: L2-Pf-HR :0.93398: L2-HR :0.83979: (Sim:3h14m44s) 
CPU  0 inst:  547000004 cyc:  710111243 now IPC :1.73140: AVG IPC :0.76855: L2-Pf-HR :0.93394: L2-HR :0.83989: (Sim:3h14m56s) 
CPU  0 inst:  548000002 cyc:  710691371 now IPC :1.72375: AVG IPC :0.76933: L2-Pf-HR :0.93390: L2-HR :0.84000: (Sim:3h15m17s) 
CPU  0 inst:  549000005 cyc:  711271038 now IPC :1.72513: AVG IPC :0.77011: L2-Pf-HR :0.93386: L2-HR :0.84010: (Sim:3h15m38s) 
CPU  0 inst:  550000005 cyc:  711831900 now IPC :1.78297: AVG IPC :0.77091: L2-Pf-HR :0.93380: L2-HR :0.84019: (Sim:3h15m59s) 
CPU  0 inst:  551000001 cyc:  712349836 now IPC :1.93073: AVG IPC :0.77175: L2-Pf-HR :0.93377: L2-HR :0.84034: (Sim:3h16m20s) 
CPU  0 inst:  552000005 cyc:  712867940 now IPC :1.93012: AVG IPC :0.77259: L2-Pf-HR :0.93374: L2-HR :0.84050: (Sim:3h16m40s) 
CPU  0 inst:  553000000 cyc:  713384403 now IPC :1.93624: AVG IPC :0.77344: L2-Pf-HR :0.93371: L2-HR :0.84064: (Sim:3h17m1s) 
CPU  0 inst:  554000003 cyc:  713916395 now IPC :1.87973: AVG IPC :0.77426: L2-Pf-HR :0.93366: L2-HR :0.84076: (Sim:3h17m21s) 
CPU  0 inst:  555000002 cyc:  714432198 now IPC :1.93872: AVG IPC :0.77511: L2-Pf-HR :0.93363: L2-HR :0.84090: (Sim:3h17m38s) 
CPU  0 inst:  556000003 cyc:  714949109 now IPC :1.93457: AVG IPC :0.77594: L2-Pf-HR :0.93360: L2-HR :0.84105: (Sim:3h17m47s) 
CPU  0 inst:  557000001 cyc:  715465636 now IPC :1.93600: AVG IPC :0.77678: L2-Pf-HR :0.93355: L2-HR :0.84119: (Sim:3h17m56s) 
CPU  0 inst:  558000000 cyc:  715996357 now IPC :1.88423: AVG IPC :0.77761: L2-Pf-HR :0.93352: L2-HR :0.84130: (Sim:3h18m5s) 
CPU  0 inst:  559000001 cyc:  716525791 now IPC :1.88881: AVG IPC :0.77843: L2-Pf-HR :0.93355: L2-HR :0.84143: (Sim:3h18m15s) 
CPU  0 inst:  560000005 cyc:  717055208 now IPC :1.88888: AVG IPC :0.77925: L2-Pf-HR :0.93357: L2-HR :0.84156: (Sim:3h18m25s) 
CPU  0 inst:  561000002 cyc:  717586718 now IPC :1.88143: AVG IPC :0.78007: L2-Pf-HR :0.93358: L2-HR :0.84168: (Sim:3h18m34s) 
CPU  0 inst:  562000002 cyc:  718119799 now IPC :1.87589: AVG IPC :0.78088: L2-Pf-HR :0.93361: L2-HR :0.84182: (Sim:3h18m43s) 
CPU  0 inst:  563000003 cyc:  718714395 now IPC :1.68182: AVG IPC :0.78163: L2-Pf-HR :0.93358: L2-HR :0.84189: (Sim:3h18m52s) 
CPU  0 inst:  564000005 cyc:  719296817 now IPC :1.71697: AVG IPC :0.78239: L2-Pf-HR :0.93354: L2-HR :0.84197: (Sim:3h19m1s) 
CPU  0 inst:  565000000 cyc:  719878313 now IPC :1.71969: AVG IPC :0.78314: L2-Pf-HR :0.93350: L2-HR :0.84206: (Sim:3h19m13s) 
CPU  0 inst:  566000005 cyc:  720462883 now IPC :1.71067: AVG IPC :0.78390: L2-Pf-HR :0.93347: L2-HR :0.84214: (Sim:3h19m23s) 
CPU  0 inst:  567000005 cyc:  720993865 now IPC :1.88330: AVG IPC :0.78471: L2-Pf-HR :0.93345: L2-HR :0.84226: (Sim:3h19m32s) 
CPU  0 inst:  568000003 cyc:  721511716 now IPC :1.93105: AVG IPC :0.78553: L2-Pf-HR :0.93342: L2-HR :0.84239: (Sim:3h19m41s) 
CPU  0 inst:  569000003 cyc:  722030053 now IPC :1.92925: AVG IPC :0.78635: L2-Pf-HR :0.93341: L2-HR :0.84254: (Sim:3h19m53s) 
CPU  0 inst:  570000000 cyc:  722546791 now IPC :1.93521: AVG IPC :0.78718: L2-Pf-HR :0.93339: L2-HR :0.84268: (Sim:3h20m14s) 
CPU  0 inst:  571000001 cyc:  723081984 now IPC :1.86849: AVG IPC :0.78798: L2-Pf-HR :0.93335: L2-HR :0.84278: (Sim:3h20m30s) 
CPU  0 inst:  572000000 cyc:  723598029 now IPC :1.93781: AVG IPC :0.78880: L2-Pf-HR :0.93334: L2-HR :0.84292: (Sim:3h20m41s) 
CPU  0 inst:  573000001 cyc:  724115337 now IPC :1.93309: AVG IPC :0.78962: L2-Pf-HR :0.93332: L2-HR :0.84306: (Sim:3h20m50s) 
CPU  0 inst:  574000000 cyc:  724630836 now IPC :1.93987: AVG IPC :0.79044: L2-Pf-HR :0.93330: L2-HR :0.84320: (Sim:3h20m59s) 
CPU  0 inst:  575000005 cyc:  725171082 now IPC :1.85102: AVG IPC :0.79123: L2-Pf-HR :0.93329: L2-HR :0.84330: (Sim:3h21m8s) 
CPU  0 inst:  576000004 cyc:  725699552 now IPC :1.89225: AVG IPC :0.79203: L2-Pf-HR :0.93332: L2-HR :0.84343: (Sim:3h21m30s) 
CPU  0 inst:  577000002 cyc:  726228538 now IPC :1.89041: AVG IPC :0.79283: L2-Pf-HR :0.93335: L2-HR :0.84356: (Sim:3h21m52s) 
CPU  0 inst:  578000000 cyc:  726760309 now IPC :1.88050: AVG IPC :0.79363: L2-Pf-HR :0.93337: L2-HR :0.84369: (Sim:3h22m13s) 
CPU  0 inst:  579000005 cyc:  727327826 now IPC :1.76207: AVG IPC :0.79439: L2-Pf-HR :0.93337: L2-HR :0.84378: (Sim:3h22m34s) 
CPU  0 inst:  580000001 cyc:  727905640 now IPC :1.73065: AVG IPC :0.79513: L2-Pf-HR :0.93333: L2-HR :0.84387: (Sim:3h22m56s) 
CPU  0 inst:  581000005 cyc:  728484410 now IPC :1.72781: AVG IPC :0.79587: L2-Pf-HR :0.93330: L2-HR :0.84396: (Sim:3h23m17s) 
CPU  0 inst:  582000002 cyc:  729063785 now IPC :1.72599: AVG IPC :0.79661: L2-Pf-HR :0.93326: L2-HR :0.84405: (Sim:3h23m39s) 
CPU  0 inst:  583000000 cyc:  729646863 now IPC :1.71503: AVG IPC :0.79735: L2-Pf-HR :0.93321: L2-HR :0.84412: (Sim:3h24m0s) 
CPU  0 inst:  584000001 cyc:  730165021 now IPC :1.92992: AVG IPC :0.79815: L2-Pf-HR :0.93318: L2-HR :0.84424: (Sim:3h24m22s) 
CPU  0 inst:  585000005 cyc:  730683368 now IPC :1.92922: AVG IPC :0.79896: L2-Pf-HR :0.93316: L2-HR :0.84438: (Sim:3h24m39s) 
CPU  0 inst:  586000005 cyc:  731202022 now IPC :1.92807: AVG IPC :0.79976: L2-Pf-HR :0.93313: L2-HR :0.84451: (Sim:3h24m49s) 
CPU  0 inst:  587000005 cyc:  731725176 now IPC :1.91148: AVG IPC :0.80055: L2-Pf-HR :0.93310: L2-HR :0.84463: (Sim:3h24m58s) 
CPU  0 inst:  588000004 cyc:  732254090 now IPC :1.89066: AVG IPC :0.80134: L2-Pf-HR :0.93306: L2-HR :0.84474: (Sim:3h25m7s) 
CPU  0 inst:  589000004 cyc:  732770281 now IPC :1.93727: AVG IPC :0.80214: L2-Pf-HR :0.93304: L2-HR :0.84487: (Sim:3h25m15s) 
CPU  0 inst:  590000003 cyc:  733285036 now IPC :1.94267: AVG IPC :0.80294: L2-Pf-HR :0.93301: L2-HR :0.84500: (Sim:3h25m24s) 
CPU  0 inst:  591000001 cyc:  733801620 now IPC :1.93579: AVG IPC :0.80374: L2-Pf-HR :0.93297: L2-HR :0.84512: (Sim:3h25m33s) 
CPU  0 inst:  592000004 cyc:  734340745 now IPC :1.85486: AVG IPC :0.80452: L2-Pf-HR :0.93297: L2-HR :0.84523: (Sim:3h25m42s) 
CPU  0 inst:  593000000 cyc:  734870554 now IPC :1.88747: AVG IPC :0.80530: L2-Pf-HR :0.93300: L2-HR :0.84535: (Sim:3h25m50s) 
CPU  0 inst:  594000004 cyc:  735401893 now IPC :1.88205: AVG IPC :0.80608: L2-Pf-HR :0.93302: L2-HR :0.84547: (Sim:3h25m59s) 
CPU  0 inst:  595000005 cyc:  735932184 now IPC :1.88576: AVG IPC :0.80686: L2-Pf-HR :0.93303: L2-HR :0.84558: (Sim:3h26m8s) 
CPU  0 inst:  596000000 cyc:  736506241 now IPC :1.74198: AVG IPC :0.80759: L2-Pf-HR :0.93302: L2-HR :0.84567: (Sim:3h26m17s) 
CPU  0 inst:  597000005 cyc:  737088476 now IPC :1.71753: AVG IPC :0.80831: L2-Pf-HR :0.93298: L2-HR :0.84574: (Sim:3h26m26s) 
CPU  0 inst:  598000000 cyc:  737672841 now IPC :1.71125: AVG IPC :0.80902: L2-Pf-HR :0.93293: L2-HR :0.84581: (Sim:3h26m35s) 
CPU  0 inst:  599000000 cyc:  738256140 now IPC :1.71439: AVG IPC :0.80974: L2-Pf-HR :0.93289: L2-HR :0.84589: (Sim:3h26m44s) 
CPU  0 inst:  600000000 cyc:  738818807 now IPC :1.77725: AVG IPC :0.81048: L2-Pf-HR :0.93286: L2-HR :0.84598: (Sim:3h26m53s) 
CPU  0 inst:  601000002 cyc:  739335760 now IPC :1.93442: AVG IPC :0.81126: L2-Pf-HR :0.93282: L2-HR :0.84609: (Sim:3h27m2s) 
CPU  0 inst:  602000000 cyc:  739853969 now IPC :1.92972: AVG IPC :0.81205: L2-Pf-HR :0.93279: L2-HR :0.84622: (Sim:3h27m10s) 
CPU  0 inst:  603000000 cyc:  740371232 now IPC :1.93325: AVG IPC :0.81283: L2-Pf-HR :0.93276: L2-HR :0.84635: (Sim:3h27m19s) 
CPU  0 inst:  604000001 cyc:  740906345 now IPC :1.86877: AVG IPC :0.81360: L2-Pf-HR :0.93273: L2-HR :0.84645: (Sim:3h27m28s) 
CPU  0 inst:  605000003 cyc:  741421261 now IPC :1.94207: AVG IPC :0.81438: L2-Pf-HR :0.93269: L2-HR :0.84656: (Sim:3h27m37s) 
CPU  0 inst:  606000003 cyc:  741936152 now IPC :1.94216: AVG IPC :0.81516: L2-Pf-HR :0.93266: L2-HR :0.84668: (Sim:3h27m45s) 
CPU  0 inst:  607000002 cyc:  742452915 now IPC :1.93512: AVG IPC :0.81594: L2-Pf-HR :0.93263: L2-HR :0.84681: (Sim:3h27m54s) 
CPU  0 inst:  608000005 cyc:  742983070 now IPC :1.88625: AVG IPC :0.81671: L2-Pf-HR :0.93260: L2-HR :0.84691: (Sim:3h28m3s) 
CPU  0 inst:  609000002 cyc:  743515299 now IPC :1.87888: AVG IPC :0.81747: L2-Pf-HR :0.93262: L2-HR :0.84701: (Sim:3h28m12s) 
CPU  0 inst:  610000001 cyc:  744044337 now IPC :1.89022: AVG IPC :0.81823: L2-Pf-HR :0.93265: L2-HR :0.84713: (Sim:3h28m20s) 
CPU  0 inst:  611000004 cyc:  744573946 now IPC :1.88819: AVG IPC :0.81900: L2-Pf-HR :0.93267: L2-HR :0.84724: (Sim:3h28m29s) 
CPU  0 inst:  612000005 cyc:  745109744 now IPC :1.86638: AVG IPC :0.81975: L2-Pf-HR :0.93269: L2-HR :0.84735: (Sim:3h28m38s) 
CPU  0 inst:  613000003 cyc:  745702409 now IPC :1.68729: AVG IPC :0.82044: L2-Pf-HR :0.93265: L2-HR :0.84741: (Sim:3h28m47s) 
CPU  0 inst:  614000005 cyc:  746278576 now IPC :1.73561: AVG IPC :0.82115: L2-Pf-HR :0.93262: L2-HR :0.84750: (Sim:3h28m56s) 
CPU  0 inst:  615000005 cyc:  746857216 now IPC :1.72819: AVG IPC :0.82185: L2-Pf-HR :0.93259: L2-HR :0.84758: (Sim:3h29m5s) 
CPU  0 inst:  616000004 cyc:  747435259 now IPC :1.72997: AVG IPC :0.82256: L2-Pf-HR :0.93256: L2-HR :0.84766: (Sim:3h29m13s) 
CPU  0 inst:  617000003 cyc:  747984329 now IPC :1.82126: AVG IPC :0.82329: L2-Pf-HR :0.93251: L2-HR :0.84774: (Sim:3h29m22s) 
CPU  0 inst:  618000003 cyc:  748502010 now IPC :1.93169: AVG IPC :0.82406: L2-Pf-HR :0.93249: L2-HR :0.84787: (Sim:3h29m31s) 
CPU  0 inst:  619000002 cyc:  749020884 now IPC :1.92725: AVG IPC :0.82482: L2-Pf-HR :0.93247: L2-HR :0.84800: (Sim:3h29m40s) 
CPU  0 inst:  620000004 cyc:  749537369 now IPC :1.93617: AVG IPC :0.82559: L2-Pf-HR :0.93244: L2-HR :0.84812: (Sim:3h29m48s) 
CPU  0 inst:  621000003 cyc:  750071382 now IPC :1.87261: AVG IPC :0.82634: L2-Pf-HR :0.93240: L2-HR :0.84821: (Sim:3h29m57s) 
CPU  0 inst:  622000000 cyc:  750586305 now IPC :1.94203: AVG IPC :0.82710: L2-Pf-HR :0.93237: L2-HR :0.84833: (Sim:3h30m6s) 
CPU  0 inst:  623000005 cyc:  751102661 now IPC :1.93666: AVG IPC :0.82787: L2-Pf-HR :0.93235: L2-HR :0.84846: (Sim:3h30m15s) 
CPU  0 inst:  624000004 cyc:  751618314 now IPC :1.93929: AVG IPC :0.82863: L2-Pf-HR :0.93232: L2-HR :0.84857: (Sim:3h30m24s) 
CPU  0 inst:  625000002 cyc:  752152582 now IPC :1.87172: AVG IPC :0.82937: L2-Pf-HR :0.93230: L2-HR :0.84866: (Sim:3h30m33s) 
CPU  0 inst:  626000004 cyc:  752681440 now IPC :1.89087: AVG IPC :0.83012: L2-Pf-HR :0.93232: L2-HR :0.84877: (Sim:3h30m41s) 
CPU  0 inst:  627000003 cyc:  753211309 now IPC :1.88726: AVG IPC :0.83086: L2-Pf-HR :0.93235: L2-HR :0.84888: (Sim:3h30m50s) 
CPU  0 inst:  628000005 cyc:  753741718 now IPC :1.88534: AVG IPC :0.83161: L2-Pf-HR :0.93237: L2-HR :0.84899: (Sim:3h30m59s) 
CPU  0 inst:  629000001 cyc:  754300112 now IPC :1.79084: AVG IPC :0.83232: L2-Pf-HR :0.93238: L2-HR :0.84907: (Sim:3h31m7s) 
CPU  0 inst:  630000002 cyc:  754878670 now IPC :1.72844: AVG IPC :0.83300: L2-Pf-HR :0.93235: L2-HR :0.84915: (Sim:3h31m16s) 
CPU  0 inst:  631000001 cyc:  755462100 now IPC :1.71400: AVG IPC :0.83369: L2-Pf-HR :0.93231: L2-HR :0.84922: (Sim:3h31m25s) 
CPU  0 inst:  632000000 cyc:  756048357 now IPC :1.70573: AVG IPC :0.83436: L2-Pf-HR :0.93227: L2-HR :0.84928: (Sim:3h31m34s) 
CPU  0 inst:  633000002 cyc:  756625435 now IPC :1.73287: AVG IPC :0.83505: L2-Pf-HR :0.93226: L2-HR :0.84937: (Sim:3h31m42s) 
CPU  0 inst:  634000004 cyc:  757154448 now IPC :1.89032: AVG IPC :0.83579: L2-Pf-HR :0.93222: L2-HR :0.84946: (Sim:3h31m51s) 
CPU  0 inst:  635000000 cyc:  757673988 now IPC :1.92477: AVG IPC :0.83653: L2-Pf-HR :0.93218: L2-HR :0.84956: (Sim:3h32m0s) 
CPU  0 inst:  636000000 cyc:  758192973 now IPC :1.92684: AVG IPC :0.83728: L2-Pf-HR :0.93216: L2-HR :0.84967: (Sim:3h32m8s) 
CPU  0 inst:  637000000 cyc:  758711964 now IPC :1.92682: AVG IPC :0.83803: L2-Pf-HR :0.93212: L2-HR :0.84977: (Sim:3h32m17s) 
CPU  0 inst:  638000004 cyc:  759241440 now IPC :1.88867: AVG IPC :0.83876: L2-Pf-HR :0.93209: L2-HR :0.84987: (Sim:3h32m26s) 
CPU  0 inst:  639000004 cyc:  759757379 now IPC :1.93821: AVG IPC :0.83951: L2-Pf-HR :0.93207: L2-HR :0.84998: (Sim:3h32m35s) 
CPU  0 inst:  640000005 cyc:  760273826 now IPC :1.93631: AVG IPC :0.84026: L2-Pf-HR :0.93205: L2-HR :0.85009: (Sim:3h32m43s) 
CPU  0 inst:  641000004 cyc:  760790063 now IPC :1.93709: AVG IPC :0.84100: L2-Pf-HR :0.93204: L2-HR :0.85021: (Sim:3h32m52s) 
CPU  0 inst:  642000001 cyc:  761328963 now IPC :1.85563: AVG IPC :0.84172: L2-Pf-HR :0.93204: L2-HR :0.85029: (Sim:3h33m1s) 
CPU  0 inst:  643000003 cyc:  761856932 now IPC :1.89405: AVG IPC :0.84245: L2-Pf-HR :0.93207: L2-HR :0.85040: (Sim:3h33m10s) 
CPU  0 inst:  644000003 cyc:  762386837 now IPC :1.88713: AVG IPC :0.84318: L2-Pf-HR :0.93210: L2-HR :0.85051: (Sim:3h33m19s) 
CPU  0 inst:  645000001 cyc:  762917282 now IPC :1.88521: AVG IPC :0.84390: L2-Pf-HR :0.93212: L2-HR :0.85061: (Sim:3h33m28s) 
CPU  0 inst:  646000004 cyc:  763493333 now IPC :1.73596: AVG IPC :0.84458: L2-Pf-HR :0.93210: L2-HR :0.85068: (Sim:3h33m37s) 
CPU  0 inst:  647000003 cyc:  764075243 now IPC :1.71848: AVG IPC :0.84524: L2-Pf-HR :0.93207: L2-HR :0.85075: (Sim:3h33m46s) 
CPU  0 inst:  648000005 cyc:  764655692 now IPC :1.72281: AVG IPC :0.84591: L2-Pf-HR :0.93204: L2-HR :0.85082: (Sim:3h33m55s) 
CPU  0 inst:  649000002 cyc:  765234012 now IPC :1.72914: AVG IPC :0.84658: L2-Pf-HR :0.93201: L2-HR :0.85090: (Sim:3h34m4s) 
CPU  0 inst:  650000001 cyc:  765810950 now IPC :1.73329: AVG IPC :0.84725: L2-Pf-HR :0.93197: L2-HR :0.85095: (Sim:3h34m13s) 
CPU  0 inst:  651000004 cyc:  766328252 now IPC :1.93311: AVG IPC :0.84798: L2-Pf-HR :0.93194: L2-HR :0.85106: (Sim:3h34m21s) 
CPU  0 inst:  652000005 cyc:  766845252 now IPC :1.93424: AVG IPC :0.84871: L2-Pf-HR :0.93192: L2-HR :0.85117: (Sim:3h34m30s) 
CPU  0 inst:  653000005 cyc:  767362011 now IPC :1.93514: AVG IPC :0.84945: L2-Pf-HR :0.93190: L2-HR :0.85128: (Sim:3h34m39s) 
CPU  0 inst:  654000004 cyc:  767894331 now IPC :1.87857: AVG IPC :0.85016: L2-Pf-HR :0.93186: L2-HR :0.85137: (Sim:3h34m48s) 
CPU  0 inst:  655000001 cyc:  768410976 now IPC :1.93556: AVG IPC :0.85089: L2-Pf-HR :0.93183: L2-HR :0.85147: (Sim:3h34m57s) 
CPU  0 inst:  656000001 cyc:  768925558 now IPC :1.94332: AVG IPC :0.85162: L2-Pf-HR :0.93181: L2-HR :0.85158: (Sim:3h35m5s) 
CPU  0 inst:  657000005 cyc:  769441175 now IPC :1.93943: AVG IPC :0.85235: L2-Pf-HR :0.93179: L2-HR :0.85169: (Sim:3h35m14s) 
CPU  0 inst:  658000002 cyc:  769962234 now IPC :1.91916: AVG IPC :0.85308: L2-Pf-HR :0.93175: L2-HR :0.85178: (Sim:3h35m23s) 
CPU  0 inst:  659000001 cyc:  770500760 now IPC :1.85692: AVG IPC :0.85378: L2-Pf-HR :0.93177: L2-HR :0.85187: (Sim:3h35m31s) 
Finished CPU 0 instr: 657000000 cyc: 769520080 AVG IPC: 0.85378 (Sim time: 3h35m31s)

ChampSim completed all CPUs

[ROI Statistics]
Core_0_instructions 657000000
Core_0_cycles 769520080
Core_0_IPC 0.85378

Core_0_branch_prediction_accuracy 99.58944
Core_0_branch_MPKI 0.11916
Core_0_average_ROB_occupancy_at_mispredict 571.45916

Core_0_L1D_total_access 208442903
Core_0_L1D_total_hit 195176171 L1D_total_Hit Ratio: 0.93635
Core_0_L1D_total_miss 13266732
Core_0_L1D_loads 191283882
Core_0_L1D_load_hit 179067350 L1D_load_Hit Ratio: 0.93613
Core_0_L1D_load_miss 12216532
Core_0_L1D_RFOs 17159021
Core_0_L1D_RFO_hit 16108821 L1D_RFO_Hit Ratio: 0.93880
Core_0_L1D_RFO_miss 1050200
Core_0_L1D_prefetches 0
Core_0_L1D_prefetch_hit 0 L1D_prefetch_Hit Ratio: -nan
Core_0_L1D_prefetch_miss 0
Core_0_L1D_writebacks 0
Core_0_L1D_writeback_hit 0 L1D_writeback_Hit Ratio: -nan
Core_0_L1D_writeback_miss 0
Core_0_L1D_prefetch_requested 0
Core_0_L1D_prefetch_issued 0
Core_0_L1D_prefetch_useful 0 L1D_Useful Ratio: -nan
Core_0_L1D_prefetch_useless 0
Core_0_L1D_prefetch_late 0
Core_0_L1D_average_miss_latency 88.54391

Core_0_L1I_total_access 102159456
Core_0_L1I_total_hit 102157473 L1I_total_Hit Ratio: 0.99998
Core_0_L1I_total_miss 1983
Core_0_L1I_loads 102159456
Core_0_L1I_load_hit 102157473 L1I_load_Hit Ratio: 0.99998
Core_0_L1I_load_miss 1983
Core_0_L1I_RFOs 0
Core_0_L1I_RFO_hit 0 L1I_RFO_Hit Ratio: -nan
Core_0_L1I_RFO_miss 0
Core_0_L1I_prefetches 0
Core_0_L1I_prefetch_hit 0 L1I_prefetch_Hit Ratio: -nan
Core_0_L1I_prefetch_miss 0
Core_0_L1I_writebacks 0
Core_0_L1I_writeback_hit 0 L1I_writeback_Hit Ratio: -nan
Core_0_L1I_writeback_miss 0
Core_0_L1I_prefetch_requested 0
Core_0_L1I_prefetch_issued 0
Core_0_L1I_prefetch_useful 0 L1I_Useful Ratio: -nan
Core_0_L1I_prefetch_useless 0
Core_0_L1I_prefetch_late 0
Core_0_L1I_average_miss_latency 266.72516

Core_0_L2C_total_access 37714803
Core_0_L2C_total_hit 32127960 L2C_total_Hit Ratio: 0.85187
Core_0_L2C_total_miss 5586843
Core_0_L2C_loads 12218515
Core_0_L2C_load_hit 9084688 L2C_load_Hit Ratio: 0.74352
Core_0_L2C_load_miss 3133827
Core_0_L2C_RFOs 1050200
Core_0_L2C_RFO_hit 1074 L2C_RFO_Hit Ratio: 0.00102
Core_0_L2C_RFO_miss 1049126
Core_0_L2C_prefetches 20575297
Core_0_L2C_prefetch_hit 19171413 L2C_prefetch_Hit Ratio: 0.93177
Core_0_L2C_prefetch_miss 1403884
Core_0_L2C_writebacks 3870791
Core_0_L2C_writeback_hit 3870785 L2C_writeback_Hit Ratio: 1.00000
Core_0_L2C_writeback_miss 6
Core_0_L2C_prefetch_requested 57844294
Core_0_L2C_prefetch_issued 54005957
Core_0_L2C_prefetch_useful 1375805 L2C_Useful Ratio: 0.02548
Core_0_L2C_prefetch_useless 29353
Core_0_L2C_prefetch_late 681065
Core_0_L2C_average_miss_latency 180.35773

Core_0_LLC_total_access 25444223
Core_0_LLC_total_hit 19917115 LLC_total_Hit Ratio: 0.78278
Core_0_LLC_total_miss 5527108
Core_0_LLC_loads 2452795
Core_0_LLC_load_hit 1384044 LLC_load_Hit Ratio: 0.56427
Core_0_LLC_load_miss 1068751
Core_0_LLC_RFOs 1049126
Core_0_LLC_RFO_hit 402 LLC_RFO_Hit Ratio: 0.00038
Core_0_LLC_RFO_miss 1048724
Core_0_LLC_prefetches 18716048
Core_0_LLC_prefetch_hit 15338744 LLC_prefetch_Hit Ratio: 0.81955
Core_0_LLC_prefetch_miss 3377304
Core_0_LLC_writebacks 3226254
Core_0_LLC_writeback_hit 3193925 LLC_writeback_Hit Ratio: 0.98998
Core_0_LLC_writeback_miss 32329
Core_0_LLC_prefetch_requested 0
Core_0_LLC_prefetch_issued 0
Core_0_LLC_prefetch_useful 1365197 LLC_Useful Ratio: inf
Core_0_LLC_prefetch_useless 1951679
Core_0_LLC_prefetch_late 524360
Core_0_LLC_average_miss_latency 277.65329

Core_0_major_page_fault 0
Core_0_minor_page_fault 37887

 All Calls: 12259132
 Critical Calls: 12259132
------------------
Depth Distribution
------------------
depth 0: 0
depth 1: 10003059
depth 2: 9355653
depth 3: 8331062
depth 4: 6766574
depth 5: 5200773
depth 6: 3871243
depth 7: 2716756
depth 8: 2272605
depth 9: 1791575
depth 10: 1449134
depth 11: 1027922
depth 12: 660571
depth 13: 356754
depth 14: 102389
depth 15: 99308
depth 16: 519
depth 17: 19
depth 18: 20
depth 19: 21
depth 20: 0
depth 21: 0
depth 22: 0
depth 23: 0
depth 24: 0
depth 25: 0
depth 26: 0
depth 27: 0
depth 28: 0
depth 29: 0
Total: 54005957
-----------------------------
-----------------------------
	Captured at Filter
-----------------------------
depth 0: 0
depth 1: 1834335
depth 2: 1720887
depth 3: 1535403
depth 4: 1144581
depth 5: 777766
depth 6: 425454
depth 7: 174189
depth 8: 126948
depth 9: 92611
depth 10: 68110
depth 11: 46320
depth 12: 26686
depth 13: 12339
depth 14: 1096
depth 15: 970
depth 16: 64
depth 17: 12
depth 18: 10
depth 19: 10
depth 20: 0
depth 21: 0
depth 22: 0
depth 23: 0
depth 24: 0
depth 25: 0
depth 26: 0
depth 27: 0
depth 28: 0
depth 29: 0
-----------------------------
-----------------------------
		Lost at Page
-----------------------------
depth 0: 0
depth 1: 391165
depth 2: 505409
depth 3: 605980
depth 4: 654242
depth 5: 687665
depth 6: 731704
depth 7: 661183
depth 8: 542385
depth 9: 367919
depth 10: 301066
depth 11: 235408
depth 12: 162485
depth 13: 95281
depth 14: 29001
depth 15: 30901
depth 16: 116
depth 17: 13
depth 18: 14
depth 19: 14
depth 20: 0
depth 21: 0
depth 22: 0
depth 23: 0
depth 24: 0
depth 25: 0
depth 26: 0
depth 27: 0
depth 28: 0
depth 29: 0
-----------------------------
-----------------------------
	Lost due to PQ Size
-----------------------------
3838337
-----------------------------
ST read accesses: 11360586
ST write accesses: 857929
PT read accesses: 415946002
PT write accesses: 16035926
FILTER read accesses: 83423904
FILTER write accesses: 17033007
GHR read accesses: 39856218
GHR write accesses: 5987601
GHR counter read accesses: 356471466
GHR counter write accesses: 23959739
ST tag read accesses: 5138661162
ST tag write accesses: 279464316
Channel_0_RQ_row_buffer_hit 2723652
Channel_0_RQ_row_buffer_miss 2771127
Channel_0_WQ_row_buffer_hit 1145887
Channel_0_WQ_row_buffer_miss 2062947
Channel_0_WQ_full 6280
Channel_0_dbus_congested 4180925

avg_congested_cycle 8

EzSearch AVG IPC :0.85378: L2-Pf-HR :0.93177 : L2-HR :0.85187 Uful:0.02548
     > Finished combination: TraceType=770-tot Sim:657000000 Prefetcher=L2spp_berti_src L1=no
