TRACE: [1319000000]_FE_[Pythia-70M]_[h8]_[s2048]_[d64] Warmup: 2000000 NumTraces: 1319000000
L1:berti_concurso:L2:berti_concurso
*************************************************
   ChampSim Multicore Out-of-Order Simulator
   Last compiled: Oct 30 2024 21:50:55
*************************************************

trace_0 770-tot_memTraces_v5/120-subBillion_s2048_LLM_Arch/memTraces[1319000000]_FE_[Pythia-70M]_[h8]_[s2048]_[d64].champsim.9SSize.xz
CPU 0 L1D Berti prefetcher
CPU 0 L2C Berti prefetcher
MAIN.cc ln 751 stats print skipped
CPU  0 inst:    1000002 cyc:     497685 now IPC :2.00931: AVG IPC :2.00931: L2-Pf-HR :0.76286: L2-HR :0.72027: (Sim:0h0m7s) 
CPU  0 inst:    2000005 cyc:     979684 now IPC :2.07470: AVG IPC :2.04148: L2-Pf-HR :0.81625: L2-HR :0.78034: (Sim:0h0m14s) 

Warmup complete CPU  0 instructions:    2000005 cycles:     979684 (Simulation time: 0 hr 0 min 14 sec) 

CPU  0 inst:    3000001 cyc:    1596832 now IPC :1.62035: AVG IPC :1.62035: L2-Pf-HR :0.94819: L2-HR :0.85113: (Sim:0h0m19s) 
CPU  0 inst:    4000004 cyc:    2220708 now IPC :1.60289: AVG IPC :1.61157: L2-Pf-HR :0.94977: L2-HR :0.84773: (Sim:0h0m25s) 
CPU  0 inst:    5000002 cyc:    2840404 now IPC :1.61369: AVG IPC :1.61228: L2-Pf-HR :0.95044: L2-HR :0.84902: (Sim:0h0m31s) 
CPU  0 inst:    6000002 cyc:    3464399 now IPC :1.60258: AVG IPC :1.60984: L2-Pf-HR :0.95086: L2-HR :0.84840: (Sim:0h0m36s) 
CPU  0 inst:    7000002 cyc:    4123000 now IPC :1.51837: AVG IPC :1.59068: L2-Pf-HR :0.95131: L2-HR :0.84872: (Sim:0h0m42s) 
CPU  0 inst:    8000003 cyc:    4746428 now IPC :1.60404: AVG IPC :1.59289: L2-Pf-HR :0.95152: L2-HR :0.84807: (Sim:0h0m47s) 
CPU  0 inst:    9000003 cyc:    5367775 now IPC :1.60941: AVG IPC :1.59523: L2-Pf-HR :0.95204: L2-HR :0.84808: (Sim:0h0m53s) 
CPU  0 inst:   10000002 cyc:    5991243 now IPC :1.60393: AVG IPC :1.59631: L2-Pf-HR :0.95191: L2-HR :0.84809: (Sim:0h0m58s) 
CPU  0 inst:   11000004 cyc:    6611709 now IPC :1.61170: AVG IPC :1.59800: L2-Pf-HR :0.95198: L2-HR :0.84827: (Sim:0h1m4s) 
CPU  0 inst:   12000004 cyc:    7234094 now IPC :1.60672: AVG IPC :1.59887: L2-Pf-HR :0.95201: L2-HR :0.84829: (Sim:0h1m9s) 
CPU  0 inst:   13000005 cyc:    7885217 now IPC :1.53581: AVG IPC :1.59293: L2-Pf-HR :0.95174: L2-HR :0.84778: (Sim:0h1m15s) 
CPU  0 inst:   14000003 cyc:    8477154 now IPC :1.68937: AVG IPC :1.60054: L2-Pf-HR :0.95287: L2-HR :0.84868: (Sim:0h1m21s) 
CPU  0 inst:   15000002 cyc:    9071473 now IPC :1.68260: AVG IPC :1.60657: L2-Pf-HR :0.95463: L2-HR :0.84941: (Sim:0h1m26s) 
CPU  0 inst:   16000000 cyc:    9665473 now IPC :1.68350: AVG IPC :1.61183: L2-Pf-HR :0.95612: L2-HR :0.85078: (Sim:0h1m32s) 
CPU  0 inst:   17000003 cyc:   10258582 now IPC :1.68604: AVG IPC :1.61657: L2-Pf-HR :0.95697: L2-HR :0.85152: (Sim:0h1m38s) 
CPU  0 inst:   18000003 cyc:   10852115 now IPC :1.68483: AVG IPC :1.62067: L2-Pf-HR :0.95900: L2-HR :0.85294: (Sim:0h1m44s) 
CPU  0 inst:   19000003 cyc:   11487088 now IPC :1.57487: AVG IPC :1.61791: L2-Pf-HR :0.96060: L2-HR :0.85434: (Sim:0h1m50s) 
CPU  0 inst:   20000004 cyc:   12085968 now IPC :1.66979: AVG IPC :1.62070: L2-Pf-HR :0.96130: L2-HR :0.85471: (Sim:0h1m55s) 
CPU  0 inst:   21000003 cyc:   12683436 now IPC :1.67373: AVG IPC :1.62341: L2-Pf-HR :0.96191: L2-HR :0.85551: (Sim:0h2m2s) 
CPU  0 inst:   22000001 cyc:   13281780 now IPC :1.67128: AVG IPC :1.62574: L2-Pf-HR :0.96320: L2-HR :0.85635: (Sim:0h2m8s) 
CPU  0 inst:   23000001 cyc:   13877877 now IPC :1.67758: AVG IPC :1.62813: L2-Pf-HR :0.96419: L2-HR :0.85717: (Sim:0h2m15s) 
CPU  0 inst:   24000001 cyc:   14472621 now IPC :1.68140: AVG IPC :1.63048: L2-Pf-HR :0.96521: L2-HR :0.85806: (Sim:0h2m21s) 
CPU  0 inst:   25000005 cyc:   15142155 now IPC :1.49358: AVG IPC :1.62401: L2-Pf-HR :0.96527: L2-HR :0.85774: (Sim:0h2m28s) 
CPU  0 inst:   26000004 cyc:   15769627 now IPC :1.59370: AVG IPC :1.62272: L2-Pf-HR :0.96605: L2-HR :0.85830: (Sim:0h2m34s) 
CPU  0 inst:   27000001 cyc:   16394527 now IPC :1.60025: AVG IPC :1.62181: L2-Pf-HR :0.96677: L2-HR :0.85871: (Sim:0h2m41s) 
CPU  0 inst:   28000002 cyc:   17017978 now IPC :1.60398: AVG IPC :1.62112: L2-Pf-HR :0.96752: L2-HR :0.85929: (Sim:0h2m48s) 
CPU  0 inst:   29000001 cyc:   17640418 now IPC :1.60658: AVG IPC :1.62058: L2-Pf-HR :0.96817: L2-HR :0.85983: (Sim:0h2m54s) 
CPU  0 inst:   30000001 cyc:   18260816 now IPC :1.61187: AVG IPC :1.62026: L2-Pf-HR :0.96836: L2-HR :0.85995: (Sim:0h3m1s) 
CPU  0 inst:   31000002 cyc:   18931987 now IPC :1.48993: AVG IPC :1.61539: L2-Pf-HR :0.96847: L2-HR :0.86025: (Sim:0h3m8s) 
CPU  0 inst:   32000005 cyc:   19571556 now IPC :1.56356: AVG IPC :1.61361: L2-Pf-HR :0.96909: L2-HR :0.86056: (Sim:0h3m15s) 
CPU  0 inst:   33000002 cyc:   20209272 now IPC :1.56809: AVG IPC :1.61210: L2-Pf-HR :0.96968: L2-HR :0.86106: (Sim:0h3m22s) 
CPU  0 inst:   34000000 cyc:   20848575 now IPC :1.56420: AVG IPC :1.61056: L2-Pf-HR :0.96988: L2-HR :0.86121: (Sim:0h3m29s) 
CPU  0 inst:   35000000 cyc:   21487700 now IPC :1.56464: AVG IPC :1.60913: L2-Pf-HR :0.97046: L2-HR :0.86166: (Sim:0h3m36s) 
CPU  0 inst:   36000003 cyc:   22126708 now IPC :1.56493: AVG IPC :1.60779: L2-Pf-HR :0.97096: L2-HR :0.86210: (Sim:0h3m43s) 
CPU  0 inst:   37000000 cyc:   22845649 now IPC :1.39093: AVG IPC :1.60066: L2-Pf-HR :0.97081: L2-HR :0.86188: (Sim:0h3m50s) 
CPU  0 inst:   38000003 cyc:   23501369 now IPC :1.52505: AVG IPC :1.59846: L2-Pf-HR :0.97117: L2-HR :0.86214: (Sim:0h3m57s) 
CPU  0 inst:   39000001 cyc:   24157147 now IPC :1.52490: AVG IPC :1.59638: L2-Pf-HR :0.97146: L2-HR :0.86222: (Sim:0h4m4s) 
CPU  0 inst:   40000001 cyc:   24812153 now IPC :1.52670: AVG IPC :1.59446: L2-Pf-HR :0.97189: L2-HR :0.86254: (Sim:0h4m11s) 
CPU  0 inst:   41000002 cyc:   25468086 now IPC :1.52455: AVG IPC :1.59259: L2-Pf-HR :0.97234: L2-HR :0.86299: (Sim:0h4m19s) 
CPU  0 inst:   42000001 cyc:   26123736 now IPC :1.52520: AVG IPC :1.59083: L2-Pf-HR :0.97254: L2-HR :0.86308: (Sim:0h4m26s) 
CPU  0 inst:   43000001 cyc:   26817165 now IPC :1.44211: AVG IPC :1.58684: L2-Pf-HR :0.97274: L2-HR :0.86336: (Sim:0h4m33s) 
CPU  0 inst:   44000000 cyc:   27472687 now IPC :1.52550: AVG IPC :1.58532: L2-Pf-HR :0.97298: L2-HR :0.86348: (Sim:0h4m40s) 
CPU  0 inst:   45000000 cyc:   28127161 now IPC :1.52794: AVG IPC :1.58394: L2-Pf-HR :0.97345: L2-HR :0.86388: (Sim:0h4m48s) 
CPU  0 inst:   46000000 cyc:   28782853 now IPC :1.52511: AVG IPC :1.58255: L2-Pf-HR :0.97356: L2-HR :0.86396: (Sim:0h4m55s) 
CPU  0 inst:   47000000 cyc:   29438954 now IPC :1.52416: AVG IPC :1.58121: L2-Pf-HR :0.97381: L2-HR :0.86412: (Sim:0h5m2s) 
CPU  0 inst:   48000005 cyc:   30094717 now IPC :1.52495: AVG IPC :1.57994: L2-Pf-HR :0.97417: L2-HR :0.86447: (Sim:0h5m9s) 
CPU  0 inst:   49000005 cyc:   30829760 now IPC :1.36046: AVG IPC :1.57454: L2-Pf-HR :0.97400: L2-HR :0.86425: (Sim:0h5m17s) 
CPU  0 inst:   50000002 cyc:   31488756 now IPC :1.51746: AVG IPC :1.57330: L2-Pf-HR :0.97434: L2-HR :0.86441: (Sim:0h5m25s) 
CPU  0 inst:   51000000 cyc:   32148506 now IPC :1.51572: AVG IPC :1.57208: L2-Pf-HR :0.97443: L2-HR :0.86441: (Sim:0h5m32s) 
CPU  0 inst:   52000000 cyc:   32809795 now IPC :1.51220: AVG IPC :1.57084: L2-Pf-HR :0.97463: L2-HR :0.86453: (Sim:0h5m40s) 
CPU  0 inst:   53000000 cyc:   33469491 now IPC :1.51585: AVG IPC :1.56972: L2-Pf-HR :0.97485: L2-HR :0.86476: (Sim:0h5m47s) 
CPU  0 inst:   54000004 cyc:   34130333 now IPC :1.51323: AVG IPC :1.56860: L2-Pf-HR :0.97495: L2-HR :0.86476: (Sim:0h5m55s) 
CPU  0 inst:   55000002 cyc:   34825787 now IPC :1.43791: AVG IPC :1.56591: L2-Pf-HR :0.97507: L2-HR :0.86496: (Sim:0h6m2s) 
CPU  0 inst:   56000001 cyc:   35483350 now IPC :1.52077: AVG IPC :1.56505: L2-Pf-HR :0.97529: L2-HR :0.86506: (Sim:0h6m10s) 
CPU  0 inst:   57000004 cyc:   36139997 now IPC :1.52289: AVG IPC :1.56426: L2-Pf-HR :0.97555: L2-HR :0.86528: (Sim:0h6m17s) 
CPU  0 inst:   58000004 cyc:   36797817 now IPC :1.52017: AVG IPC :1.56345: L2-Pf-HR :0.97556: L2-HR :0.86533: (Sim:0h6m25s) 
CPU  0 inst:   59000004 cyc:   37454538 now IPC :1.52272: AVG IPC :1.56272: L2-Pf-HR :0.97571: L2-HR :0.86544: (Sim:0h6m32s) 
CPU  0 inst:   60000000 cyc:   38111162 now IPC :1.52294: AVG IPC :1.56202: L2-Pf-HR :0.97593: L2-HR :0.86567: (Sim:0h6m40s) 
CPU  0 inst:   61000003 cyc:   38786983 now IPC :1.47969: AVG IPC :1.56055: L2-Pf-HR :0.97570: L2-HR :0.86481: (Sim:0h6m48s) 
CPU  0 inst:   62000000 cyc:   39445332 now IPC :1.51895: AVG IPC :1.55983: L2-Pf-HR :0.97549: L2-HR :0.86371: (Sim:0h6m55s) 
CPU  0 inst:   63000005 cyc:   40123576 now IPC :1.47440: AVG IPC :1.55835: L2-Pf-HR :0.97544: L2-HR :0.86271: (Sim:0h7m3s) 
CPU  0 inst:   64000004 cyc:   40788836 now IPC :1.50317: AVG IPC :1.55743: L2-Pf-HR :0.97541: L2-HR :0.86172: (Sim:0h7m10s) 
CPU  0 inst:   65000000 cyc:   41550055 now IPC :1.31368: AVG IPC :1.55286: L2-Pf-HR :0.97516: L2-HR :0.86098: (Sim:0h7m18s) 
CPU  0 inst:   66000005 cyc:   42223718 now IPC :1.48443: AVG IPC :1.55174: L2-Pf-HR :0.97522: L2-HR :0.86097: (Sim:0h7m26s) 
CPU  0 inst:   67000001 cyc:   42899008 now IPC :1.48084: AVG IPC :1.55060: L2-Pf-HR :0.97531: L2-HR :0.86093: (Sim:0h7m34s) 
CPU  0 inst:   68000004 cyc:   43573652 now IPC :1.48227: AVG IPC :1.54952: L2-Pf-HR :0.97547: L2-HR :0.86101: (Sim:0h7m42s) 
CPU  0 inst:   69000000 cyc:   44249459 now IPC :1.47971: AVG IPC :1.54842: L2-Pf-HR :0.97558: L2-HR :0.86107: (Sim:0h7m50s) 
CPU  0 inst:   70000002 cyc:   44925036 now IPC :1.48022: AVG IPC :1.54738: L2-Pf-HR :0.97565: L2-HR :0.86116: (Sim:0h7m57s) 
CPU  0 inst:   71000002 cyc:   45636869 now IPC :1.40482: AVG IPC :1.54510: L2-Pf-HR :0.97578: L2-HR :0.86122: (Sim:0h8m5s) 
CPU  0 inst:   72000003 cyc:   46312724 now IPC :1.47961: AVG IPC :1.54413: L2-Pf-HR :0.97586: L2-HR :0.86126: (Sim:0h8m13s) 
CPU  0 inst:   73000002 cyc:   46989374 now IPC :1.47787: AVG IPC :1.54315: L2-Pf-HR :0.97590: L2-HR :0.86129: (Sim:0h8m21s) 
CPU  0 inst:   74000002 cyc:   47666897 now IPC :1.47596: AVG IPC :1.54218: L2-Pf-HR :0.97589: L2-HR :0.86124: (Sim:0h8m29s) 
CPU  0 inst:   75000005 cyc:   48343260 now IPC :1.47850: AVG IPC :1.54127: L2-Pf-HR :0.97584: L2-HR :0.86126: (Sim:0h8m37s) 
CPU  0 inst:   76000004 cyc:   49020212 now IPC :1.47721: AVG IPC :1.54037: L2-Pf-HR :0.97564: L2-HR :0.86113: (Sim:0h8m45s) 
CPU  0 inst:   77000000 cyc:   49764614 now IPC :1.34335: AVG IPC :1.53736: L2-Pf-HR :0.97507: L2-HR :0.86087: (Sim:0h8m53s) 
CPU  0 inst:   78000002 cyc:   50423597 now IPC :1.51749: AVG IPC :1.53710: L2-Pf-HR :0.97518: L2-HR :0.86090: (Sim:0h9m1s) 
CPU  0 inst:   79000000 cyc:   51081304 now IPC :1.52043: AVG IPC :1.53688: L2-Pf-HR :0.97520: L2-HR :0.86094: (Sim:0h9m9s) 
CPU  0 inst:   80000001 cyc:   51739473 now IPC :1.51937: AVG IPC :1.53665: L2-Pf-HR :0.97521: L2-HR :0.86103: (Sim:0h9m17s) 
CPU  0 inst:   81000002 cyc:   52397364 now IPC :1.52001: AVG IPC :1.53644: L2-Pf-HR :0.97530: L2-HR :0.86114: (Sim:0h9m25s) 
CPU  0 inst:   82000000 cyc:   53056615 now IPC :1.51687: AVG IPC :1.53619: L2-Pf-HR :0.97521: L2-HR :0.86119: (Sim:0h9m33s) 
CPU  0 inst:   83000000 cyc:   53745346 now IPC :1.45195: AVG IPC :1.53509: L2-Pf-HR :0.97519: L2-HR :0.86117: (Sim:0h9m41s) 
CPU  0 inst:   84000000 cyc:   54391378 now IPC :1.54791: AVG IPC :1.53524: L2-Pf-HR :0.97522: L2-HR :0.86132: (Sim:0h9m49s) 
CPU  0 inst:   85000000 cyc:   55036802 now IPC :1.54937: AVG IPC :1.53541: L2-Pf-HR :0.97533: L2-HR :0.86142: (Sim:0h9m57s) 
CPU  0 inst:   86000000 cyc:   55681160 now IPC :1.55193: AVG IPC :1.53561: L2-Pf-HR :0.97534: L2-HR :0.86150: (Sim:0h10m5s) 
CPU  0 inst:   87000000 cyc:   56325326 now IPC :1.55239: AVG IPC :1.53580: L2-Pf-HR :0.97542: L2-HR :0.86160: (Sim:0h10m13s) 
CPU  0 inst:   88000001 cyc:   56971699 now IPC :1.54710: AVG IPC :1.53593: L2-Pf-HR :0.97563: L2-HR :0.86177: (Sim:0h10m21s) 
CPU  0 inst:   89000005 cyc:   57696390 now IPC :1.37990: AVG IPC :1.53394: L2-Pf-HR :0.97544: L2-HR :0.86172: (Sim:0h10m29s) 
CPU  0 inst:   90000000 cyc:   58348572 now IPC :1.53331: AVG IPC :1.53393: L2-Pf-HR :0.97554: L2-HR :0.86174: (Sim:0h10m37s) 
CPU  0 inst:   91000005 cyc:   59001291 now IPC :1.53206: AVG IPC :1.53391: L2-Pf-HR :0.97560: L2-HR :0.86179: (Sim:0h10m45s) 
CPU  0 inst:   92000000 cyc:   59654294 now IPC :1.53138: AVG IPC :1.53388: L2-Pf-HR :0.97568: L2-HR :0.86191: (Sim:0h10m55s) 
CPU  0 inst:   93000002 cyc:   60307272 now IPC :1.53145: AVG IPC :1.53386: L2-Pf-HR :0.97581: L2-HR :0.86202: (Sim:0h11m3s) 
CPU  0 inst:   94000000 cyc:   60960164 now IPC :1.53164: AVG IPC :1.53383: L2-Pf-HR :0.97582: L2-HR :0.86214: (Sim:0h11m11s) 
CPU  0 inst:   95000004 cyc:   61655684 now IPC :1.43778: AVG IPC :1.53273: L2-Pf-HR :0.97586: L2-HR :0.86216: (Sim:0h11m19s) 
CPU  0 inst:   96000004 cyc:   62312254 now IPC :1.52307: AVG IPC :1.53263: L2-Pf-HR :0.97590: L2-HR :0.86226: (Sim:0h11m27s) 
CPU  0 inst:   97000002 cyc:   62970305 now IPC :1.51964: AVG IPC :1.53249: L2-Pf-HR :0.97605: L2-HR :0.86240: (Sim:0h11m38s) 
CPU  0 inst:   98000004 cyc:   63628068 now IPC :1.52031: AVG IPC :1.53236: L2-Pf-HR :0.97609: L2-HR :0.86247: (Sim:0h11m46s) 
CPU  0 inst:   99000003 cyc:   64285013 now IPC :1.52220: AVG IPC :1.53226: L2-Pf-HR :0.97616: L2-HR :0.86259: (Sim:0h11m54s) 
CPU  0 inst:  100000000 cyc:   64939910 now IPC :1.52695: AVG IPC :1.53220: L2-Pf-HR :0.97630: L2-HR :0.86269: (Sim:0h12m3s) 
CPU  0 inst:  101000000 cyc:   65653531 now IPC :1.40130: AVG IPC :1.53076: L2-Pf-HR :0.97613: L2-HR :0.86263: (Sim:0h12m11s) 
CPU  0 inst:  102000003 cyc:   66312421 now IPC :1.51771: AVG IPC :1.53063: L2-Pf-HR :0.97627: L2-HR :0.86270: (Sim:0h12m19s) 
CPU  0 inst:  103000003 cyc:   66970795 now IPC :1.51889: AVG IPC :1.53051: L2-Pf-HR :0.97634: L2-HR :0.86275: (Sim:0h12m27s) 
CPU  0 inst:  104000002 cyc:   67629151 now IPC :1.51893: AVG IPC :1.53039: L2-Pf-HR :0.97640: L2-HR :0.86285: (Sim:0h12m35s) 
CPU  0 inst:  105000002 cyc:   68288994 now IPC :1.51551: AVG IPC :1.53025: L2-Pf-HR :0.97651: L2-HR :0.86295: (Sim:0h12m43s) 
CPU  0 inst:  106000001 cyc:   68946142 now IPC :1.52173: AVG IPC :1.53017: L2-Pf-HR :0.97660: L2-HR :0.86310: (Sim:0h12m51s) 
CPU  0 inst:  107000001 cyc:   69640468 now IPC :1.44025: AVG IPC :1.52926: L2-Pf-HR :0.97665: L2-HR :0.86312: (Sim:0h12m59s) 
CPU  0 inst:  108000001 cyc:   70297398 now IPC :1.52223: AVG IPC :1.52919: L2-Pf-HR :0.97676: L2-HR :0.86324: (Sim:0h13m7s) 
CPU  0 inst:  109000000 cyc:   70955821 now IPC :1.51878: AVG IPC :1.52909: L2-Pf-HR :0.97688: L2-HR :0.86336: (Sim:0h13m15s) 
CPU  0 inst:  110000005 cyc:   71613276 now IPC :1.52102: AVG IPC :1.52902: L2-Pf-HR :0.97692: L2-HR :0.86341: (Sim:0h13m23s) 
CPU  0 inst:  111000002 cyc:   72269941 now IPC :1.52284: AVG IPC :1.52896: L2-Pf-HR :0.97701: L2-HR :0.86354: (Sim:0h13m31s) 
CPU  0 inst:  112000005 cyc:   72927540 now IPC :1.52069: AVG IPC :1.52889: L2-Pf-HR :0.97712: L2-HR :0.86360: (Sim:0h13m39s) 
CPU  0 inst:  113000001 cyc:   73652075 now IPC :1.38019: AVG IPC :1.52740: L2-Pf-HR :0.97696: L2-HR :0.86355: (Sim:0h13m48s) 
CPU  0 inst:  114000001 cyc:   74297396 now IPC :1.54962: AVG IPC :1.52760: L2-Pf-HR :0.97705: L2-HR :0.86361: (Sim:0h13m56s) 
CPU  0 inst:  115000004 cyc:   74943287 now IPC :1.54825: AVG IPC :1.52778: L2-Pf-HR :0.97709: L2-HR :0.86362: (Sim:0h14m4s) 
CPU  0 inst:  116000005 cyc:   75588279 now IPC :1.55041: AVG IPC :1.52797: L2-Pf-HR :0.97719: L2-HR :0.86375: (Sim:0h14m12s) 
CPU  0 inst:  117000001 cyc:   76233373 now IPC :1.55016: AVG IPC :1.52816: L2-Pf-HR :0.97730: L2-HR :0.86382: (Sim:0h14m20s) 
CPU  0 inst:  118000005 cyc:   76878301 now IPC :1.55057: AVG IPC :1.52835: L2-Pf-HR :0.97731: L2-HR :0.86389: (Sim:0h14m28s) 
CPU  0 inst:  119000001 cyc:   77568189 now IPC :1.44950: AVG IPC :1.52764: L2-Pf-HR :0.97732: L2-HR :0.86388: (Sim:0h14m36s) 
CPU  0 inst:  120000001 cyc:   78221962 now IPC :1.52958: AVG IPC :1.52766: L2-Pf-HR :0.97736: L2-HR :0.86395: (Sim:0h14m44s) 
CPU  0 inst:  121000001 cyc:   78875619 now IPC :1.52985: AVG IPC :1.52768: L2-Pf-HR :0.97748: L2-HR :0.86408: (Sim:0h14m52s) 
CPU  0 inst:  122000004 cyc:   79531003 now IPC :1.52583: AVG IPC :1.52766: L2-Pf-HR :0.97746: L2-HR :0.86406: (Sim:0h15m0s) 
CPU  0 inst:  123000002 cyc:   80183982 now IPC :1.53144: AVG IPC :1.52769: L2-Pf-HR :0.97750: L2-HR :0.86417: (Sim:0h15m8s) 
CPU  0 inst:  124000003 cyc:   80837274 now IPC :1.53071: AVG IPC :1.52772: L2-Pf-HR :0.97761: L2-HR :0.86424: (Sim:0h15m17s) 
CPU  0 inst:  125000000 cyc:   81515503 now IPC :1.47442: AVG IPC :1.52727: L2-Pf-HR :0.97746: L2-HR :0.86389: (Sim:0h15m25s) 
CPU  0 inst:  126000001 cyc:   82173603 now IPC :1.51953: AVG IPC :1.52721: L2-Pf-HR :0.97733: L2-HR :0.86334: (Sim:0h15m35s) 
CPU  0 inst:  127000002 cyc:   82846045 now IPC :1.48712: AVG IPC :1.52688: L2-Pf-HR :0.97730: L2-HR :0.86284: (Sim:0h15m43s) 
CPU  0 inst:  128000005 cyc:   83506267 now IPC :1.51465: AVG IPC :1.52678: L2-Pf-HR :0.97728: L2-HR :0.86237: (Sim:0h15m52s) 
CPU  0 inst:  129000000 cyc:   84262600 now IPC :1.32216: AVG IPC :1.52492: L2-Pf-HR :0.97712: L2-HR :0.86196: (Sim:0h16m0s) 
CPU  0 inst:  130000002 cyc:   84936601 now IPC :1.48368: AVG IPC :1.52459: L2-Pf-HR :0.97717: L2-HR :0.86193: (Sim:0h16m9s) 
CPU  0 inst:  131000001 cyc:   85609238 now IPC :1.48668: AVG IPC :1.52429: L2-Pf-HR :0.97719: L2-HR :0.86192: (Sim:0h16m19s) 
CPU  0 inst:  132000001 cyc:   86284574 now IPC :1.48074: AVG IPC :1.52395: L2-Pf-HR :0.97725: L2-HR :0.86195: (Sim:0h16m29s) 
CPU  0 inst:  133000000 cyc:   86958844 now IPC :1.48308: AVG IPC :1.52363: L2-Pf-HR :0.97729: L2-HR :0.86200: (Sim:0h16m37s) 
CPU  0 inst:  134000003 cyc:   87631590 now IPC :1.48645: AVG IPC :1.52334: L2-Pf-HR :0.97732: L2-HR :0.86203: (Sim:0h16m45s) 
CPU  0 inst:  135000002 cyc:   88347218 now IPC :1.39737: AVG IPC :1.52230: L2-Pf-HR :0.97735: L2-HR :0.86205: (Sim:0h16m53s) 
CPU  0 inst:  136000005 cyc:   89026974 now IPC :1.47112: AVG IPC :1.52191: L2-Pf-HR :0.97739: L2-HR :0.86208: (Sim:0h17m1s) 
CPU  0 inst:  137000000 cyc:   89705986 now IPC :1.47272: AVG IPC :1.52153: L2-Pf-HR :0.97741: L2-HR :0.86208: (Sim:0h17m10s) 
CPU  0 inst:  138000002 cyc:   90383340 now IPC :1.47634: AVG IPC :1.52119: L2-Pf-HR :0.97738: L2-HR :0.86209: (Sim:0h17m18s) 
CPU  0 inst:  139000002 cyc:   91067186 now IPC :1.46232: AVG IPC :1.52074: L2-Pf-HR :0.97726: L2-HR :0.86201: (Sim:0h17m26s) 
CPU  0 inst:  140000004 cyc:   91746503 now IPC :1.47207: AVG IPC :1.52038: L2-Pf-HR :0.97725: L2-HR :0.86204: (Sim:0h17m35s) 
CPU  0 inst:  141000003 cyc:   92484103 now IPC :1.35575: AVG IPC :1.51905: L2-Pf-HR :0.97705: L2-HR :0.86188: (Sim:0h17m43s) 
CPU  0 inst:  142000003 cyc:   93134887 now IPC :1.53661: AVG IPC :1.51918: L2-Pf-HR :0.97712: L2-HR :0.86194: (Sim:0h17m52s) 
CPU  0 inst:  143000005 cyc:   93785689 now IPC :1.53657: AVG IPC :1.51930: L2-Pf-HR :0.97710: L2-HR :0.86192: (Sim:0h18m0s) 
CPU  0 inst:  144000004 cyc:   94439492 now IPC :1.52951: AVG IPC :1.51937: L2-Pf-HR :0.97706: L2-HR :0.86193: (Sim:0h18m9s) 
CPU  0 inst:  145000004 cyc:   95091369 now IPC :1.53403: AVG IPC :1.51947: L2-Pf-HR :0.97716: L2-HR :0.86207: (Sim:0h18m18s) 
CPU  0 inst:  146000005 cyc:   95743833 now IPC :1.53265: AVG IPC :1.51956: L2-Pf-HR :0.97712: L2-HR :0.86205: (Sim:0h18m27s) 
CPU  0 inst:  147000001 cyc:   96433636 now IPC :1.44968: AVG IPC :1.51906: L2-Pf-HR :0.97712: L2-HR :0.86212: (Sim:0h18m36s) 
CPU  0 inst:  148000001 cyc:   97089821 now IPC :1.52396: AVG IPC :1.51909: L2-Pf-HR :0.97707: L2-HR :0.86210: (Sim:0h18m44s) 
CPU  0 inst:  149000002 cyc:   97741856 now IPC :1.53366: AVG IPC :1.51919: L2-Pf-HR :0.97717: L2-HR :0.86221: (Sim:0h18m53s) 
CPU  0 inst:  150000005 cyc:   98394651 now IPC :1.53188: AVG IPC :1.51927: L2-Pf-HR :0.97720: L2-HR :0.86227: (Sim:0h19m1s) 
CPU  0 inst:  151000002 cyc:   99048914 now IPC :1.52843: AVG IPC :1.51933: L2-Pf-HR :0.97720: L2-HR :0.86229: (Sim:0h19m9s) 
CPU  0 inst:  152000000 cyc:   99700717 now IPC :1.53420: AVG IPC :1.51943: L2-Pf-HR :0.97729: L2-HR :0.86241: (Sim:0h19m17s) 
CPU  0 inst:  153000001 cyc:  100425923 now IPC :1.37892: AVG IPC :1.51841: L2-Pf-HR :0.97720: L2-HR :0.86235: (Sim:0h19m26s) 
CPU  0 inst:  154000001 cyc:  101084262 now IPC :1.51897: AVG IPC :1.51841: L2-Pf-HR :0.97728: L2-HR :0.86240: (Sim:0h19m34s) 
CPU  0 inst:  155000001 cyc:  101744723 now IPC :1.51409: AVG IPC :1.51838: L2-Pf-HR :0.97733: L2-HR :0.86243: (Sim:0h19m43s) 
CPU  0 inst:  156000001 cyc:  102404651 now IPC :1.51532: AVG IPC :1.51836: L2-Pf-HR :0.97734: L2-HR :0.86246: (Sim:0h19m51s) 
CPU  0 inst:  157000001 cyc:  103062623 now IPC :1.51982: AVG IPC :1.51837: L2-Pf-HR :0.97742: L2-HR :0.86258: (Sim:0h19m59s) 
CPU  0 inst:  158000000 cyc:  103722907 now IPC :1.51450: AVG IPC :1.51835: L2-Pf-HR :0.97738: L2-HR :0.86255: (Sim:0h20m8s) 
CPU  0 inst:  159000000 cyc:  104420484 now IPC :1.43353: AVG IPC :1.51778: L2-Pf-HR :0.97738: L2-HR :0.86261: (Sim:0h20m16s) 
CPU  0 inst:  160000005 cyc:  105079207 now IPC :1.51810: AVG IPC :1.51778: L2-Pf-HR :0.97739: L2-HR :0.86264: (Sim:0h20m25s) 
CPU  0 inst:  161000001 cyc:  105738928 now IPC :1.51579: AVG IPC :1.51777: L2-Pf-HR :0.97748: L2-HR :0.86273: (Sim:0h20m33s) 
CPU  0 inst:  162000003 cyc:  106397167 now IPC :1.51921: AVG IPC :1.51777: L2-Pf-HR :0.97746: L2-HR :0.86276: (Sim:0h20m44s) 
CPU  0 inst:  163000002 cyc:  107055756 now IPC :1.51840: AVG IPC :1.51778: L2-Pf-HR :0.97748: L2-HR :0.86279: (Sim:0h20m52s) 
CPU  0 inst:  164000000 cyc:  107714362 now IPC :1.51836: AVG IPC :1.51778: L2-Pf-HR :0.97758: L2-HR :0.86291: (Sim:0h21m1s) 
CPU  0 inst:  165000003 cyc:  108441577 now IPC :1.37511: AVG IPC :1.51682: L2-Pf-HR :0.97750: L2-HR :0.86284: (Sim:0h21m10s) 
CPU  0 inst:  166000002 cyc:  109099268 now IPC :1.52047: AVG IPC :1.51684: L2-Pf-HR :0.97756: L2-HR :0.86289: (Sim:0h21m18s) 
CPU  0 inst:  167000003 cyc:  109754904 now IPC :1.52524: AVG IPC :1.51689: L2-Pf-HR :0.97759: L2-HR :0.86293: (Sim:0h21m27s) 
CPU  0 inst:  168000003 cyc:  110412055 now IPC :1.52172: AVG IPC :1.51692: L2-Pf-HR :0.97759: L2-HR :0.86294: (Sim:0h21m35s) 
CPU  0 inst:  169000004 cyc:  111068728 now IPC :1.52283: AVG IPC :1.51695: L2-Pf-HR :0.97767: L2-HR :0.86305: (Sim:0h21m44s) 
CPU  0 inst:  170000002 cyc:  111726136 now IPC :1.52112: AVG IPC :1.51698: L2-Pf-HR :0.97768: L2-HR :0.86305: (Sim:0h21m52s) 
CPU  0 inst:  171000004 cyc:  112423540 now IPC :1.43389: AVG IPC :1.51646: L2-Pf-HR :0.97772: L2-HR :0.86313: (Sim:0h22m1s) 
CPU  0 inst:  172000003 cyc:  113084916 now IPC :1.51200: AVG IPC :1.51643: L2-Pf-HR :0.97772: L2-HR :0.86315: (Sim:0h22m9s) 
CPU  0 inst:  173000001 cyc:  113745649 now IPC :1.51347: AVG IPC :1.51641: L2-Pf-HR :0.97779: L2-HR :0.86322: (Sim:0h22m18s) 
CPU  0 inst:  174000001 cyc:  114405832 now IPC :1.51473: AVG IPC :1.51641: L2-Pf-HR :0.97781: L2-HR :0.86328: (Sim:0h22m27s) 
CPU  0 inst:  175000001 cyc:  115067287 now IPC :1.51182: AVG IPC :1.51638: L2-Pf-HR :0.97786: L2-HR :0.86331: (Sim:0h22m35s) 
CPU  0 inst:  176000002 cyc:  115728183 now IPC :1.51310: AVG IPC :1.51636: L2-Pf-HR :0.97786: L2-HR :0.86337: (Sim:0h22m44s) 
CPU  0 inst:  177000004 cyc:  116464340 now IPC :1.35841: AVG IPC :1.51535: L2-Pf-HR :0.97773: L2-HR :0.86330: (Sim:0h22m53s) 
CPU  0 inst:  178000001 cyc:  117123967 now IPC :1.51600: AVG IPC :1.51536: L2-Pf-HR :0.97776: L2-HR :0.86332: (Sim:0h23m2s) 
CPU  0 inst:  179000000 cyc:  117782487 now IPC :1.51856: AVG IPC :1.51537: L2-Pf-HR :0.97779: L2-HR :0.86335: (Sim:0h23m10s) 
CPU  0 inst:  180000000 cyc:  118440914 now IPC :1.51877: AVG IPC :1.51539: L2-Pf-HR :0.97783: L2-HR :0.86338: (Sim:0h23m29s) 
CPU  0 inst:  181000000 cyc:  119100506 now IPC :1.51609: AVG IPC :1.51540: L2-Pf-HR :0.97788: L2-HR :0.86347: (Sim:0h23m48s) 
CPU  0 inst:  182000000 cyc:  119759683 now IPC :1.51704: AVG IPC :1.51541: L2-Pf-HR :0.97787: L2-HR :0.86347: (Sim:0h24m7s) 
CPU  0 inst:  183000005 cyc:  120456870 now IPC :1.43434: AVG IPC :1.51493: L2-Pf-HR :0.97791: L2-HR :0.86353: (Sim:0h24m26s) 
CPU  0 inst:  184000004 cyc:  121115232 now IPC :1.51892: AVG IPC :1.51496: L2-Pf-HR :0.97793: L2-HR :0.86357: (Sim:0h24m45s) 
CPU  0 inst:  185000005 cyc:  121773779 now IPC :1.51850: AVG IPC :1.51497: L2-Pf-HR :0.97800: L2-HR :0.86362: (Sim:0h25m4s) 
CPU  0 inst:  186000004 cyc:  122433276 now IPC :1.51631: AVG IPC :1.51498: L2-Pf-HR :0.97802: L2-HR :0.86369: (Sim:0h25m24s) 
CPU  0 inst:  187000001 cyc:  123093099 now IPC :1.51555: AVG IPC :1.51499: L2-Pf-HR :0.97804: L2-HR :0.86371: (Sim:0h25m43s) 
CPU  0 inst:  188000001 cyc:  123751003 now IPC :1.51998: AVG IPC :1.51501: L2-Pf-HR :0.97811: L2-HR :0.86381: (Sim:0h26m2s) 
CPU  0 inst:  189000002 cyc:  124431837 now IPC :1.46879: AVG IPC :1.51476: L2-Pf-HR :0.97806: L2-HR :0.86364: (Sim:0h26m22s) 
CPU  0 inst:  190000001 cyc:  125093948 now IPC :1.51032: AVG IPC :1.51473: L2-Pf-HR :0.97801: L2-HR :0.86330: (Sim:0h26m40s) 
CPU  0 inst:  191000005 cyc:  125771210 now IPC :1.47654: AVG IPC :1.51453: L2-Pf-HR :0.97799: L2-HR :0.86298: (Sim:0h26m59s) 
CPU  0 inst:  192000001 cyc:  126434541 now IPC :1.50754: AVG IPC :1.51449: L2-Pf-HR :0.97797: L2-HR :0.86267: (Sim:0h27m18s) 
CPU  0 inst:  193000002 cyc:  127185739 now IPC :1.33121: AVG IPC :1.51340: L2-Pf-HR :0.97788: L2-HR :0.86236: (Sim:0h27m38s) 
CPU  0 inst:  194000000 cyc:  127847773 now IPC :1.51049: AVG IPC :1.51338: L2-Pf-HR :0.97789: L2-HR :0.86233: (Sim:0h27m57s) 
CPU  0 inst:  195000005 cyc:  128508216 now IPC :1.51414: AVG IPC :1.51339: L2-Pf-HR :0.97791: L2-HR :0.86232: (Sim:0h28m17s) 
CPU  0 inst:  196000004 cyc:  129171821 now IPC :1.50692: AVG IPC :1.51335: L2-Pf-HR :0.97793: L2-HR :0.86232: (Sim:0h28m36s) 
CPU  0 inst:  197000000 cyc:  129832386 now IPC :1.51385: AVG IPC :1.51336: L2-Pf-HR :0.97796: L2-HR :0.86237: (Sim:0h28m56s) 
CPU  0 inst:  198000004 cyc:  130494739 now IPC :1.50978: AVG IPC :1.51334: L2-Pf-HR :0.97798: L2-HR :0.86238: (Sim:0h29m15s) 
CPU  0 inst:  199000005 cyc:  131202522 now IPC :1.41286: AVG IPC :1.51279: L2-Pf-HR :0.97800: L2-HR :0.86240: (Sim:0h29m35s) 
CPU  0 inst:  200000000 cyc:  131882278 now IPC :1.47111: AVG IPC :1.51258: L2-Pf-HR :0.97803: L2-HR :0.86239: (Sim:0h29m52s) 
CPU  0 inst:  201000001 cyc:  132560699 now IPC :1.47401: AVG IPC :1.51238: L2-Pf-HR :0.97804: L2-HR :0.86242: (Sim:0h30m2s) 
CPU  0 inst:  202000002 cyc:  133243838 now IPC :1.46383: AVG IPC :1.51213: L2-Pf-HR :0.97799: L2-HR :0.86237: (Sim:0h30m12s) 
CPU  0 inst:  203000003 cyc:  133928178 now IPC :1.46126: AVG IPC :1.51186: L2-Pf-HR :0.97793: L2-HR :0.86237: (Sim:0h30m25s) 
CPU  0 inst:  204000003 cyc:  134607864 now IPC :1.47127: AVG IPC :1.51166: L2-Pf-HR :0.97794: L2-HR :0.86234: (Sim:0h30m44s) 
CPU  0 inst:  205000004 cyc:  135351939 now IPC :1.34395: AVG IPC :1.51073: L2-Pf-HR :0.97779: L2-HR :0.86227: (Sim:0h31m3s) 
CPU  0 inst:  206000003 cyc:  136010430 now IPC :1.51862: AVG IPC :1.51077: L2-Pf-HR :0.97783: L2-HR :0.86230: (Sim:0h31m22s) 
CPU  0 inst:  207000003 cyc:  136670553 now IPC :1.51487: AVG IPC :1.51079: L2-Pf-HR :0.97782: L2-HR :0.86230: (Sim:0h31m41s) 
CPU  0 inst:  208000003 cyc:  137330581 now IPC :1.51509: AVG IPC :1.51081: L2-Pf-HR :0.97777: L2-HR :0.86232: (Sim:0h32m0s) 
CPU  0 inst:  209000003 cyc:  137990642 now IPC :1.51501: AVG IPC :1.51083: L2-Pf-HR :0.97781: L2-HR :0.86235: (Sim:0h32m18s) 
CPU  0 inst:  210000004 cyc:  138651900 now IPC :1.51227: AVG IPC :1.51083: L2-Pf-HR :0.97778: L2-HR :0.86239: (Sim:0h32m37s) 
CPU  0 inst:  211000000 cyc:  139345661 now IPC :1.44141: AVG IPC :1.51049: L2-Pf-HR :0.97774: L2-HR :0.86237: (Sim:0h32m56s) 
CPU  0 inst:  212000001 cyc:  139992600 now IPC :1.54574: AVG IPC :1.51065: L2-Pf-HR :0.97773: L2-HR :0.86240: (Sim:0h33m14s) 
CPU  0 inst:  213000005 cyc:  140637045 now IPC :1.55173: AVG IPC :1.51084: L2-Pf-HR :0.97779: L2-HR :0.86248: (Sim:0h33m33s) 
CPU  0 inst:  214000004 cyc:  141282932 now IPC :1.54826: AVG IPC :1.51101: L2-Pf-HR :0.97778: L2-HR :0.86249: (Sim:0h33m51s) 
CPU  0 inst:  215000001 cyc:  141927876 now IPC :1.55052: AVG IPC :1.51119: L2-Pf-HR :0.97781: L2-HR :0.86255: (Sim:0h34m10s) 
CPU  0 inst:  216000002 cyc:  142572478 now IPC :1.55135: AVG IPC :1.51138: L2-Pf-HR :0.97788: L2-HR :0.86261: (Sim:0h34m28s) 
CPU  0 inst:  217000004 cyc:  143287872 now IPC :1.39783: AVG IPC :1.51081: L2-Pf-HR :0.97777: L2-HR :0.86259: (Sim:0h34m48s) 
CPU  0 inst:  218000000 cyc:  143932303 now IPC :1.55175: AVG IPC :1.51099: L2-Pf-HR :0.97782: L2-HR :0.86262: (Sim:0h35m6s) 
CPU  0 inst:  219000000 cyc:  144576876 now IPC :1.55141: AVG IPC :1.51117: L2-Pf-HR :0.97787: L2-HR :0.86265: (Sim:0h35m25s) 
CPU  0 inst:  220000000 cyc:  145220684 now IPC :1.55326: AVG IPC :1.51136: L2-Pf-HR :0.97786: L2-HR :0.86269: (Sim:0h35m43s) 
CPU  0 inst:  221000003 cyc:  145865583 now IPC :1.55064: AVG IPC :1.51153: L2-Pf-HR :0.97789: L2-HR :0.86270: (Sim:0h36m2s) 
CPU  0 inst:  222000002 cyc:  146510204 now IPC :1.55130: AVG IPC :1.51171: L2-Pf-HR :0.97796: L2-HR :0.86279: (Sim:0h36m20s) 
CPU  0 inst:  223000000 cyc:  147198885 now IPC :1.45205: AVG IPC :1.51143: L2-Pf-HR :0.97802: L2-HR :0.86285: (Sim:0h36m39s) 
CPU  0 inst:  224000004 cyc:  147855202 now IPC :1.52366: AVG IPC :1.51148: L2-Pf-HR :0.97803: L2-HR :0.86288: (Sim:0h36m57s) 
CPU  0 inst:  225000004 cyc:  148511614 now IPC :1.52343: AVG IPC :1.51154: L2-Pf-HR :0.97806: L2-HR :0.86292: (Sim:0h37m9s) 
CPU  0 inst:  226000004 cyc:  149167935 now IPC :1.52364: AVG IPC :1.51159: L2-Pf-HR :0.97811: L2-HR :0.86296: (Sim:0h37m28s) 
CPU  0 inst:  227000002 cyc:  149823211 now IPC :1.52607: AVG IPC :1.51165: L2-Pf-HR :0.97812: L2-HR :0.86301: (Sim:0h37m47s) 
CPU  0 inst:  228000003 cyc:  150481185 now IPC :1.51982: AVG IPC :1.51169: L2-Pf-HR :0.97815: L2-HR :0.86303: (Sim:0h38m6s) 
CPU  0 inst:  229000003 cyc:  151200379 now IPC :1.39045: AVG IPC :1.51111: L2-Pf-HR :0.97810: L2-HR :0.86302: (Sim:0h38m26s) 
CPU  0 inst:  230000003 cyc:  151846778 now IPC :1.54703: AVG IPC :1.51126: L2-Pf-HR :0.97812: L2-HR :0.86304: (Sim:0h38m44s) 
CPU  0 inst:  231000000 cyc:  152494769 now IPC :1.54323: AVG IPC :1.51140: L2-Pf-HR :0.97815: L2-HR :0.86306: (Sim:0h39m3s) 
CPU  0 inst:  232000005 cyc:  153141342 now IPC :1.54662: AVG IPC :1.51155: L2-Pf-HR :0.97817: L2-HR :0.86310: (Sim:0h39m22s) 
CPU  0 inst:  233000001 cyc:  153789574 now IPC :1.54265: AVG IPC :1.51168: L2-Pf-HR :0.97819: L2-HR :0.86312: (Sim:0h39m41s) 
CPU  0 inst:  234000002 cyc:  154437676 now IPC :1.54297: AVG IPC :1.51181: L2-Pf-HR :0.97819: L2-HR :0.86316: (Sim:0h40m0s) 
CPU  0 inst:  235000002 cyc:  155126713 now IPC :1.45130: AVG IPC :1.51154: L2-Pf-HR :0.97821: L2-HR :0.86319: (Sim:0h40m19s) 
CPU  0 inst:  236000002 cyc:  155780015 now IPC :1.53069: AVG IPC :1.51162: L2-Pf-HR :0.97824: L2-HR :0.86322: (Sim:0h40m37s) 
CPU  0 inst:  237000000 cyc:  156433340 now IPC :1.53063: AVG IPC :1.51170: L2-Pf-HR :0.97827: L2-HR :0.86328: (Sim:0h40m56s) 
CPU  0 inst:  238000004 cyc:  157087646 now IPC :1.52834: AVG IPC :1.51177: L2-Pf-HR :0.97827: L2-HR :0.86328: (Sim:0h41m15s) 
CPU  0 inst:  239000005 cyc:  157740908 now IPC :1.53078: AVG IPC :1.51185: L2-Pf-HR :0.97829: L2-HR :0.86334: (Sim:0h41m34s) 
CPU  0 inst:  240000002 cyc:  158394799 now IPC :1.52930: AVG IPC :1.51193: L2-Pf-HR :0.97834: L2-HR :0.86339: (Sim:0h41m53s) 
CPU  0 inst:  241000002 cyc:  159120984 now IPC :1.37706: AVG IPC :1.51131: L2-Pf-HR :0.97828: L2-HR :0.86336: (Sim:0h42m12s) 
CPU  0 inst:  242000001 cyc:  159773265 now IPC :1.53308: AVG IPC :1.51140: L2-Pf-HR :0.97833: L2-HR :0.86340: (Sim:0h42m31s) 
CPU  0 inst:  243000001 cyc:  160427189 now IPC :1.52923: AVG IPC :1.51147: L2-Pf-HR :0.97835: L2-HR :0.86340: (Sim:0h42m50s) 
CPU  0 inst:  244000001 cyc:  161078830 now IPC :1.53459: AVG IPC :1.51156: L2-Pf-HR :0.97835: L2-HR :0.86344: (Sim:0h43m9s) 
CPU  0 inst:  245000000 cyc:  161731432 now IPC :1.53233: AVG IPC :1.51165: L2-Pf-HR :0.97841: L2-HR :0.86349: (Sim:0h43m28s) 
CPU  0 inst:  246000001 cyc:  162384749 now IPC :1.53065: AVG IPC :1.51172: L2-Pf-HR :0.97839: L2-HR :0.86350: (Sim:0h43m47s) 
CPU  0 inst:  247000001 cyc:  163077986 now IPC :1.44251: AVG IPC :1.51143: L2-Pf-HR :0.97839: L2-HR :0.86352: (Sim:0h44m6s) 
CPU  0 inst:  248000001 cyc:  163734558 now IPC :1.52306: AVG IPC :1.51148: L2-Pf-HR :0.97840: L2-HR :0.86353: (Sim:0h44m18s) 
CPU  0 inst:  249000004 cyc:  164389259 now IPC :1.52742: AVG IPC :1.51154: L2-Pf-HR :0.97844: L2-HR :0.86360: (Sim:0h44m30s) 
CPU  0 inst:  250000001 cyc:  165047187 now IPC :1.51992: AVG IPC :1.51157: L2-Pf-HR :0.97844: L2-HR :0.86360: (Sim:0h44m50s) 
CPU  0 inst:  251000004 cyc:  165702005 now IPC :1.52715: AVG IPC :1.51163: L2-Pf-HR :0.97846: L2-HR :0.86365: (Sim:0h45m6s) 
CPU  0 inst:  252000004 cyc:  166358004 now IPC :1.52439: AVG IPC :1.51169: L2-Pf-HR :0.97851: L2-HR :0.86370: (Sim:0h45m15s) 
CPU  0 inst:  253000002 cyc:  167038049 now IPC :1.47049: AVG IPC :1.51152: L2-Pf-HR :0.97847: L2-HR :0.86361: (Sim:0h45m25s) 
CPU  0 inst:  254000005 cyc:  167702243 now IPC :1.50559: AVG IPC :1.51149: L2-Pf-HR :0.97842: L2-HR :0.86335: (Sim:0h45m34s) 
CPU  0 inst:  255000005 cyc:  168367828 now IPC :1.50244: AVG IPC :1.51146: L2-Pf-HR :0.97839: L2-HR :0.86310: (Sim:0h45m43s) 
CPU  0 inst:  256000005 cyc:  169008075 now IPC :1.56190: AVG IPC :1.51165: L2-Pf-HR :0.97838: L2-HR :0.86286: (Sim:0h45m52s) 
CPU  0 inst:  257000002 cyc:  169754583 now IPC :1.33957: AVG IPC :1.51089: L2-Pf-HR :0.97828: L2-HR :0.86260: (Sim:0h46m12s) 
CPU  0 inst:  258000000 cyc:  170431822 now IPC :1.47658: AVG IPC :1.51075: L2-Pf-HR :0.97829: L2-HR :0.86260: (Sim:0h46m32s) 
CPU  0 inst:  259000005 cyc:  171109410 now IPC :1.47583: AVG IPC :1.51061: L2-Pf-HR :0.97829: L2-HR :0.86257: (Sim:0h46m51s) 
CPU  0 inst:  260000001 cyc:  171785200 now IPC :1.47974: AVG IPC :1.51049: L2-Pf-HR :0.97830: L2-HR :0.86259: (Sim:0h47m11s) 
CPU  0 inst:  261000000 cyc:  172462867 now IPC :1.47565: AVG IPC :1.51035: L2-Pf-HR :0.97832: L2-HR :0.86258: (Sim:0h47m28s) 
CPU  0 inst:  262000000 cyc:  173139678 now IPC :1.47752: AVG IPC :1.51022: L2-Pf-HR :0.97834: L2-HR :0.86262: (Sim:0h47m38s) 
CPU  0 inst:  263000001 cyc:  173856518 now IPC :1.39501: AVG IPC :1.50975: L2-Pf-HR :0.97834: L2-HR :0.86260: (Sim:0h47m57s) 
CPU  0 inst:  264000002 cyc:  174533098 now IPC :1.47802: AVG IPC :1.50962: L2-Pf-HR :0.97835: L2-HR :0.86263: (Sim:0h48m16s) 
CPU  0 inst:  265000002 cyc:  175209198 now IPC :1.47907: AVG IPC :1.50950: L2-Pf-HR :0.97835: L2-HR :0.86260: (Sim:0h48m35s) 
CPU  0 inst:  266000001 cyc:  175885091 now IPC :1.47952: AVG IPC :1.50939: L2-Pf-HR :0.97833: L2-HR :0.86261: (Sim:0h48m54s) 
CPU  0 inst:  267000003 cyc:  176561269 now IPC :1.47890: AVG IPC :1.50927: L2-Pf-HR :0.97831: L2-HR :0.86258: (Sim:0h49m13s) 
CPU  0 inst:  268000003 cyc:  177239717 now IPC :1.47395: AVG IPC :1.50913: L2-Pf-HR :0.97826: L2-HR :0.86258: (Sim:0h49m32s) 
CPU  0 inst:  269000004 cyc:  177989237 now IPC :1.33419: AVG IPC :1.50839: L2-Pf-HR :0.97813: L2-HR :0.86249: (Sim:0h49m46s) 
CPU  0 inst:  270000004 cyc:  178653273 now IPC :1.50594: AVG IPC :1.50838: L2-Pf-HR :0.97812: L2-HR :0.86249: (Sim:0h50m5s) 
CPU  0 inst:  271000003 cyc:  179315726 now IPC :1.50954: AVG IPC :1.50839: L2-Pf-HR :0.97813: L2-HR :0.86250: (Sim:0h50m24s) 
CPU  0 inst:  272000004 cyc:  179979690 now IPC :1.50611: AVG IPC :1.50838: L2-Pf-HR :0.97810: L2-HR :0.86249: (Sim:0h50m44s) 
CPU  0 inst:  273000000 cyc:  180643538 now IPC :1.50636: AVG IPC :1.50837: L2-Pf-HR :0.97808: L2-HR :0.86252: (Sim:0h51m3s) 
CPU  0 inst:  274000001 cyc:  181306797 now IPC :1.50771: AVG IPC :1.50837: L2-Pf-HR :0.97808: L2-HR :0.86253: (Sim:0h51m22s) 
CPU  0 inst:  275000005 cyc:  182001087 now IPC :1.44033: AVG IPC :1.50811: L2-Pf-HR :0.97809: L2-HR :0.86256: (Sim:0h51m41s) 
CPU  0 inst:  276000002 cyc:  182645701 now IPC :1.55131: AVG IPC :1.50826: L2-Pf-HR :0.97809: L2-HR :0.86259: (Sim:0h51m59s) 
CPU  0 inst:  277000004 cyc:  183289260 now IPC :1.55386: AVG IPC :1.50842: L2-Pf-HR :0.97810: L2-HR :0.86261: (Sim:0h52m18s) 
CPU  0 inst:  278000004 cyc:  183932901 now IPC :1.55366: AVG IPC :1.50858: L2-Pf-HR :0.97811: L2-HR :0.86265: (Sim:0h52m37s) 
CPU  0 inst:  279000005 cyc:  184577029 now IPC :1.55249: AVG IPC :1.50874: L2-Pf-HR :0.97814: L2-HR :0.86267: (Sim:0h52m56s) 
CPU  0 inst:  280000002 cyc:  185220109 now IPC :1.55501: AVG IPC :1.50890: L2-Pf-HR :0.97814: L2-HR :0.86271: (Sim:0h53m14s) 
CPU  0 inst:  281000002 cyc:  185934269 now IPC :1.40025: AVG IPC :1.50848: L2-Pf-HR :0.97806: L2-HR :0.86268: (Sim:0h53m34s) 
CPU  0 inst:  282000001 cyc:  186592183 now IPC :1.51995: AVG IPC :1.50852: L2-Pf-HR :0.97809: L2-HR :0.86269: (Sim:0h53m52s) 
CPU  0 inst:  283000003 cyc:  187249539 now IPC :1.52125: AVG IPC :1.50856: L2-Pf-HR :0.97812: L2-HR :0.86272: (Sim:0h54m11s) 
CPU  0 inst:  284000001 cyc:  187910089 now IPC :1.51389: AVG IPC :1.50858: L2-Pf-HR :0.97813: L2-HR :0.86273: (Sim:0h54m30s) 
CPU  0 inst:  285000000 cyc:  188568684 now IPC :1.51838: AVG IPC :1.50862: L2-Pf-HR :0.97815: L2-HR :0.86278: (Sim:0h54m49s) 
CPU  0 inst:  286000001 cyc:  189226833 now IPC :1.51941: AVG IPC :1.50865: L2-Pf-HR :0.97817: L2-HR :0.86281: (Sim:0h55m8s) 
CPU  0 inst:  287000001 cyc:  189923232 now IPC :1.43596: AVG IPC :1.50839: L2-Pf-HR :0.97821: L2-HR :0.86285: (Sim:0h55m26s) 
CPU  0 inst:  288000000 cyc:  190580827 now IPC :1.52069: AVG IPC :1.50843: L2-Pf-HR :0.97825: L2-HR :0.86290: (Sim:0h55m45s) 
CPU  0 inst:  289000005 cyc:  191239014 now IPC :1.51933: AVG IPC :1.50847: L2-Pf-HR :0.97827: L2-HR :0.86292: (Sim:0h56m4s) 
CPU  0 inst:  290000001 cyc:  191896476 now IPC :1.52099: AVG IPC :1.50851: L2-Pf-HR :0.97829: L2-HR :0.86298: (Sim:0h56m19s) 
CPU  0 inst:  291000005 cyc:  192555264 now IPC :1.51795: AVG IPC :1.50854: L2-Pf-HR :0.97830: L2-HR :0.86299: (Sim:0h56m38s) 
CPU  0 inst:  292000005 cyc:  193212493 now IPC :1.52154: AVG IPC :1.50859: L2-Pf-HR :0.97832: L2-HR :0.86303: (Sim:0h56m57s) 
CPU  0 inst:  293000005 cyc:  193939161 now IPC :1.37614: AVG IPC :1.50809: L2-Pf-HR :0.97827: L2-HR :0.86302: (Sim:0h57m17s) 
CPU  0 inst:  294000005 cyc:  194590231 now IPC :1.53593: AVG IPC :1.50818: L2-Pf-HR :0.97832: L2-HR :0.86303: (Sim:0h57m36s) 
CPU  0 inst:  295000002 cyc:  195241806 now IPC :1.53474: AVG IPC :1.50827: L2-Pf-HR :0.97834: L2-HR :0.86306: (Sim:0h57m56s) 
CPU  0 inst:  296000002 cyc:  195892610 now IPC :1.53656: AVG IPC :1.50837: L2-Pf-HR :0.97833: L2-HR :0.86306: (Sim:0h58m15s) 
CPU  0 inst:  297000003 cyc:  196541514 now IPC :1.54106: AVG IPC :1.50847: L2-Pf-HR :0.97838: L2-HR :0.86312: (Sim:0h58m34s) 
CPU  0 inst:  298000003 cyc:  197191715 now IPC :1.53799: AVG IPC :1.50857: L2-Pf-HR :0.97841: L2-HR :0.86315: (Sim:0h58m53s) 
CPU  0 inst:  299000003 cyc:  197883158 now IPC :1.44625: AVG IPC :1.50835: L2-Pf-HR :0.97842: L2-HR :0.86317: (Sim:0h59m12s) 
xz: 770-tot_memTraces_v5/120-subBillion_s2048_LLM_Arch/memTraces[1319000000]_FE_[Pythia-70M]_[h8]_[s2048]_[d64].champsim.9SSize.xz: Unexpected end of input
*** Reached end of trace for Core: 0 Repeating trace: 770-tot_memTraces_v5/120-subBillion_s2048_LLM_Arch/memTraces[1319000000]_FE_[Pythia-70M]_[h8]_[s2048]_[d64].champsim.9SSize.xz
CPU  0 inst:  300000004 cyc:  198806492 now IPC :1.08303: AVG IPC :1.50637: L2-Pf-HR :0.97830: L2-HR :0.86297: (Sim:0h59m31s) 
CPU  0 inst:  301000001 cyc:  199485982 now IPC :1.47169: AVG IPC :1.50625: L2-Pf-HR :0.97830: L2-HR :0.86297: (Sim:0h59m51s) 
CPU  0 inst:  302000002 cyc:  200165635 now IPC :1.47134: AVG IPC :1.50613: L2-Pf-HR :0.97831: L2-HR :0.86295: (Sim:1h0m10s) 
CPU  0 inst:  303000000 cyc:  200845918 now IPC :1.46997: AVG IPC :1.50601: L2-Pf-HR :0.97833: L2-HR :0.86297: (Sim:1h0m29s) 
CPU  0 inst:  304000000 cyc:  201526326 now IPC :1.46971: AVG IPC :1.50588: L2-Pf-HR :0.97833: L2-HR :0.86297: (Sim:1h0m48s) 
CPU  0 inst:  305000005 cyc:  202204215 now IPC :1.47518: AVG IPC :1.50578: L2-Pf-HR :0.97835: L2-HR :0.86300: (Sim:1h1m7s) 
CPU  0 inst:  306000005 cyc:  202916957 now IPC :1.40303: AVG IPC :1.50542: L2-Pf-HR :0.97835: L2-HR :0.86298: (Sim:1h1m23s) 
CPU  0 inst:  307000005 cyc:  203592251 now IPC :1.48084: AVG IPC :1.50534: L2-Pf-HR :0.97826: L2-HR :0.86294: (Sim:1h1m34s) 
CPU  0 inst:  308000000 cyc:  204266933 now IPC :1.48217: AVG IPC :1.50526: L2-Pf-HR :0.97818: L2-HR :0.86287: (Sim:1h1m52s) 
CPU  0 inst:  309000003 cyc:  204940063 now IPC :1.48560: AVG IPC :1.50519: L2-Pf-HR :0.97810: L2-HR :0.86283: (Sim:1h2m11s) 
CPU  0 inst:  310000000 cyc:  205613555 now IPC :1.48479: AVG IPC :1.50513: L2-Pf-HR :0.97801: L2-HR :0.86276: (Sim:1h2m26s) 
CPU  0 inst:  311000004 cyc:  206289518 now IPC :1.47938: AVG IPC :1.50504: L2-Pf-HR :0.97793: L2-HR :0.86272: (Sim:1h2m45s) 
CPU  0 inst:  312000004 cyc:  207035731 now IPC :1.34010: AVG IPC :1.50445: L2-Pf-HR :0.97785: L2-HR :0.86265: (Sim:1h3m5s) 
CPU  0 inst:  313000002 cyc:  207695404 now IPC :1.51590: AVG IPC :1.50448: L2-Pf-HR :0.97781: L2-HR :0.86262: (Sim:1h3m24s) 
CPU  0 inst:  314000004 cyc:  208354976 now IPC :1.51614: AVG IPC :1.50452: L2-Pf-HR :0.97780: L2-HR :0.86263: (Sim:1h3m35s) 
CPU  0 inst:  315000003 cyc:  209014681 now IPC :1.51583: AVG IPC :1.50455: L2-Pf-HR :0.97779: L2-HR :0.86263: (Sim:1h3m44s) 
CPU  0 inst:  316000000 cyc:  209673609 now IPC :1.51761: AVG IPC :1.50460: L2-Pf-HR :0.97776: L2-HR :0.86264: (Sim:1h3m53s) 
CPU  0 inst:  317000001 cyc:  210332899 now IPC :1.51678: AVG IPC :1.50463: L2-Pf-HR :0.97779: L2-HR :0.86266: (Sim:1h4m3s) 
CPU  0 inst:  318000002 cyc:  211028956 now IPC :1.43667: AVG IPC :1.50441: L2-Pf-HR :0.97782: L2-HR :0.86271: (Sim:1h4m12s) 
CPU  0 inst:  319000002 cyc:  211686202 now IPC :1.52150: AVG IPC :1.50446: L2-Pf-HR :0.97782: L2-HR :0.86272: (Sim:1h4m22s) 
CPU  0 inst:  320000002 cyc:  212343565 now IPC :1.52123: AVG IPC :1.50451: L2-Pf-HR :0.97780: L2-HR :0.86272: (Sim:1h4m31s) 
CPU  0 inst:  321000004 cyc:  212999987 now IPC :1.52341: AVG IPC :1.50457: L2-Pf-HR :0.97783: L2-HR :0.86277: (Sim:1h4m40s) 
CPU  0 inst:  322000000 cyc:  213657812 now IPC :1.52016: AVG IPC :1.50462: L2-Pf-HR :0.97785: L2-HR :0.86278: (Sim:1h4m56s) 
CPU  0 inst:  323000000 cyc:  214315230 now IPC :1.52110: AVG IPC :1.50467: L2-Pf-HR :0.97787: L2-HR :0.86283: (Sim:1h5m13s) 
CPU  0 inst:  324000001 cyc:  215042489 now IPC :1.37503: AVG IPC :1.50423: L2-Pf-HR :0.97783: L2-HR :0.86281: (Sim:1h5m23s) 
CPU  0 inst:  325000001 cyc:  215694524 now IPC :1.53366: AVG IPC :1.50432: L2-Pf-HR :0.97786: L2-HR :0.86283: (Sim:1h5m32s) 
CPU  0 inst:  326000005 cyc:  216346188 now IPC :1.53454: AVG IPC :1.50441: L2-Pf-HR :0.97788: L2-HR :0.86285: (Sim:1h5m43s) 
CPU  0 inst:  327000003 cyc:  216997132 now IPC :1.53623: AVG IPC :1.50451: L2-Pf-HR :0.97791: L2-HR :0.86287: (Sim:1h6m2s) 
CPU  0 inst:  328000000 cyc:  217647953 now IPC :1.53652: AVG IPC :1.50460: L2-Pf-HR :0.97794: L2-HR :0.86292: (Sim:1h6m20s) 
CPU  0 inst:  329000005 cyc:  218301179 now IPC :1.53087: AVG IPC :1.50468: L2-Pf-HR :0.97792: L2-HR :0.86291: (Sim:1h6m39s) 
CPU  0 inst:  330000005 cyc:  218984846 now IPC :1.46270: AVG IPC :1.50455: L2-Pf-HR :0.97791: L2-HR :0.86293: (Sim:1h6m57s) 
CPU  0 inst:  331000000 cyc:  219627395 now IPC :1.55629: AVG IPC :1.50470: L2-Pf-HR :0.97793: L2-HR :0.86296: (Sim:1h7m16s) 
CPU  0 inst:  332000000 cyc:  220270960 now IPC :1.55384: AVG IPC :1.50485: L2-Pf-HR :0.97797: L2-HR :0.86299: (Sim:1h7m34s) 
CPU  0 inst:  333000003 cyc:  220913996 now IPC :1.55513: AVG IPC :1.50499: L2-Pf-HR :0.97796: L2-HR :0.86301: (Sim:1h7m44s) 
CPU  0 inst:  334000000 cyc:  221557585 now IPC :1.55378: AVG IPC :1.50514: L2-Pf-HR :0.97798: L2-HR :0.86303: (Sim:1h8m0s) 
CPU  0 inst:  335000003 cyc:  222200396 now IPC :1.55567: AVG IPC :1.50528: L2-Pf-HR :0.97801: L2-HR :0.86308: (Sim:1h8m18s) 
CPU  0 inst:  336000002 cyc:  222918821 now IPC :1.39193: AVG IPC :1.50492: L2-Pf-HR :0.97797: L2-HR :0.86307: (Sim:1h8m38s) 
CPU  0 inst:  337000001 cyc:  223576369 now IPC :1.52080: AVG IPC :1.50496: L2-Pf-HR :0.97800: L2-HR :0.86309: (Sim:1h8m57s) 
CPU  0 inst:  338000003 cyc:  224232340 now IPC :1.52446: AVG IPC :1.50502: L2-Pf-HR :0.97801: L2-HR :0.86311: (Sim:1h9m15s) 
CPU  0 inst:  339000000 cyc:  224891084 now IPC :1.51804: AVG IPC :1.50506: L2-Pf-HR :0.97803: L2-HR :0.86312: (Sim:1h9m34s) 
CPU  0 inst:  340000003 cyc:  225548739 now IPC :1.52056: AVG IPC :1.50510: L2-Pf-HR :0.97807: L2-HR :0.86318: (Sim:1h9m53s) 
CPU  0 inst:  341000000 cyc:  226205175 now IPC :1.52337: AVG IPC :1.50516: L2-Pf-HR :0.97808: L2-HR :0.86319: (Sim:1h10m11s) 
CPU  0 inst:  342000000 cyc:  226900422 now IPC :1.43834: AVG IPC :1.50495: L2-Pf-HR :0.97810: L2-HR :0.86322: (Sim:1h10m30s) 
CPU  0 inst:  343000002 cyc:  227557386 now IPC :1.52216: AVG IPC :1.50500: L2-Pf-HR :0.97810: L2-HR :0.86324: (Sim:1h10m49s) 
CPU  0 inst:  344000005 cyc:  228213813 now IPC :1.52340: AVG IPC :1.50506: L2-Pf-HR :0.97814: L2-HR :0.86327: (Sim:1h11m8s) 
CPU  0 inst:  345000001 cyc:  228870254 now IPC :1.52336: AVG IPC :1.50511: L2-Pf-HR :0.97815: L2-HR :0.86330: (Sim:1h11m26s) 
CPU  0 inst:  346000001 cyc:  229527921 now IPC :1.52053: AVG IPC :1.50515: L2-Pf-HR :0.97816: L2-HR :0.86332: (Sim:1h11m45s) 
CPU  0 inst:  347000001 cyc:  230183477 now IPC :1.52542: AVG IPC :1.50521: L2-Pf-HR :0.97820: L2-HR :0.86336: (Sim:1h12m4s) 
CPU  0 inst:  348000004 cyc:  230915473 now IPC :1.36613: AVG IPC :1.50477: L2-Pf-HR :0.97816: L2-HR :0.86334: (Sim:1h12m23s) 
CPU  0 inst:  349000001 cyc:  231576885 now IPC :1.51191: AVG IPC :1.50479: L2-Pf-HR :0.97819: L2-HR :0.86336: (Sim:1h12m42s) 
CPU  0 inst:  350000002 cyc:  232237598 now IPC :1.51352: AVG IPC :1.50481: L2-Pf-HR :0.97821: L2-HR :0.86338: (Sim:1h13m1s) 
CPU  0 inst:  351000002 cyc:  232898978 now IPC :1.51199: AVG IPC :1.50483: L2-Pf-HR :0.97822: L2-HR :0.86340: (Sim:1h13m19s) 
CPU  0 inst:  352000001 cyc:  233558192 now IPC :1.51696: AVG IPC :1.50487: L2-Pf-HR :0.97826: L2-HR :0.86344: (Sim:1h13m38s) 
CPU  0 inst:  353000001 cyc:  234219037 now IPC :1.51321: AVG IPC :1.50489: L2-Pf-HR :0.97826: L2-HR :0.86345: (Sim:1h13m57s) 
CPU  0 inst:  354000004 cyc:  234915949 now IPC :1.43491: AVG IPC :1.50468: L2-Pf-HR :0.97828: L2-HR :0.86348: (Sim:1h14m15s) 
CPU  0 inst:  355000001 cyc:  235572361 now IPC :1.52343: AVG IPC :1.50474: L2-Pf-HR :0.97828: L2-HR :0.86350: (Sim:1h14m29s) 
CPU  0 inst:  356000005 cyc:  236230296 now IPC :1.51991: AVG IPC :1.50478: L2-Pf-HR :0.97831: L2-HR :0.86353: (Sim:1h14m44s) 
CPU  0 inst:  357000005 cyc:  236886755 now IPC :1.52332: AVG IPC :1.50483: L2-Pf-HR :0.97832: L2-HR :0.86357: (Sim:1h15m1s) 
CPU  0 inst:  358000000 cyc:  237543449 now IPC :1.52277: AVG IPC :1.50488: L2-Pf-HR :0.97833: L2-HR :0.86358: (Sim:1h15m19s) 
CPU  0 inst:  359000000 cyc:  238200357 now IPC :1.52228: AVG IPC :1.50493: L2-Pf-HR :0.97837: L2-HR :0.86362: (Sim:1h15m38s) 
CPU  0 inst:  360000005 cyc:  238878044 now IPC :1.47561: AVG IPC :1.50484: L2-Pf-HR :0.97834: L2-HR :0.86353: (Sim:1h15m57s) 
CPU  0 inst:  361000005 cyc:  239534308 now IPC :1.52378: AVG IPC :1.50490: L2-Pf-HR :0.97829: L2-HR :0.86334: (Sim:1h16m15s) 
CPU  0 inst:  362000004 cyc:  240209567 now IPC :1.48091: AVG IPC :1.50483: L2-Pf-HR :0.97828: L2-HR :0.86317: (Sim:1h16m34s) 
CPU  0 inst:  363000001 cyc:  240875363 now IPC :1.50196: AVG IPC :1.50482: L2-Pf-HR :0.97827: L2-HR :0.86301: (Sim:1h16m43s) 
CPU  0 inst:  364000000 cyc:  241631598 now IPC :1.32234: AVG IPC :1.50425: L2-Pf-HR :0.97822: L2-HR :0.86285: (Sim:1h16m52s) 
CPU  0 inst:  365000005 cyc:  242304988 now IPC :1.48503: AVG IPC :1.50419: L2-Pf-HR :0.97822: L2-HR :0.86283: (Sim:1h17m1s) 
CPU  0 inst:  366000000 cyc:  242978480 now IPC :1.48479: AVG IPC :1.50414: L2-Pf-HR :0.97824: L2-HR :0.86283: (Sim:1h17m11s) 
CPU  0 inst:  367000002 cyc:  243654939 now IPC :1.47829: AVG IPC :1.50407: L2-Pf-HR :0.97825: L2-HR :0.86283: (Sim:1h17m26s) 
CPU  0 inst:  368000002 cyc:  244329020 now IPC :1.48350: AVG IPC :1.50401: L2-Pf-HR :0.97826: L2-HR :0.86285: (Sim:1h17m45s) 
CPU  0 inst:  369000004 cyc:  245006169 now IPC :1.47678: AVG IPC :1.50394: L2-Pf-HR :0.97827: L2-HR :0.86285: (Sim:1h18m4s) 
CPU  0 inst:  370000004 cyc:  245720114 now IPC :1.40067: AVG IPC :1.50363: L2-Pf-HR :0.97828: L2-HR :0.86287: (Sim:1h18m23s) 
CPU  0 inst:  371000003 cyc:  246394977 now IPC :1.48178: AVG IPC :1.50357: L2-Pf-HR :0.97829: L2-HR :0.86286: (Sim:1h18m42s) 
CPU  0 inst:  372000005 cyc:  247072375 now IPC :1.47624: AVG IPC :1.50350: L2-Pf-HR :0.97829: L2-HR :0.86287: (Sim:1h19m1s) 
CPU  0 inst:  373000000 cyc:  247750860 now IPC :1.47386: AVG IPC :1.50342: L2-Pf-HR :0.97828: L2-HR :0.86286: (Sim:1h19m20s) 
CPU  0 inst:  374000004 cyc:  248427951 now IPC :1.47691: AVG IPC :1.50334: L2-Pf-HR :0.97826: L2-HR :0.86286: (Sim:1h19m38s) 
CPU  0 inst:  375000005 cyc:  249104701 now IPC :1.47765: AVG IPC :1.50327: L2-Pf-HR :0.97822: L2-HR :0.86283: (Sim:1h19m57s) 
CPU  0 inst:  376000002 cyc:  249848950 now IPC :1.34363: AVG IPC :1.50280: L2-Pf-HR :0.97811: L2-HR :0.86276: (Sim:1h20m17s) 
CPU  0 inst:  377000001 cyc:  250506216 now IPC :1.52145: AVG IPC :1.50285: L2-Pf-HR :0.97812: L2-HR :0.86277: (Sim:1h20m36s) 
CPU  0 inst:  378000002 cyc:  251165190 now IPC :1.51751: AVG IPC :1.50288: L2-Pf-HR :0.97812: L2-HR :0.86276: (Sim:1h20m54s) 
CPU  0 inst:  379000003 cyc:  251823530 now IPC :1.51897: AVG IPC :1.50293: L2-Pf-HR :0.97811: L2-HR :0.86278: (Sim:1h21m13s) 
CPU  0 inst:  380000003 cyc:  252481277 now IPC :1.52034: AVG IPC :1.50297: L2-Pf-HR :0.97812: L2-HR :0.86279: (Sim:1h21m32s) 
CPU  0 inst:  381000000 cyc:  253141111 now IPC :1.51553: AVG IPC :1.50301: L2-Pf-HR :0.97810: L2-HR :0.86280: (Sim:1h21m51s) 
CPU  0 inst:  382000005 cyc:  253831614 now IPC :1.44823: AVG IPC :1.50286: L2-Pf-HR :0.97808: L2-HR :0.86280: (Sim:1h22m9s) 
CPU  0 inst:  383000002 cyc:  254477245 now IPC :1.54887: AVG IPC :1.50297: L2-Pf-HR :0.97808: L2-HR :0.86281: (Sim:1h22m28s) 
CPU  0 inst:  384000005 cyc:  255121536 now IPC :1.55210: AVG IPC :1.50310: L2-Pf-HR :0.97810: L2-HR :0.86284: (Sim:1h22m47s) 
CPU  0 inst:  385000000 cyc:  255767032 now IPC :1.54919: AVG IPC :1.50321: L2-Pf-HR :0.97809: L2-HR :0.86284: (Sim:1h23m5s) 
CPU  0 inst:  386000001 cyc:  256412297 now IPC :1.54975: AVG IPC :1.50333: L2-Pf-HR :0.97810: L2-HR :0.86287: (Sim:1h23m24s) 
CPU  0 inst:  387000001 cyc:  257058323 now IPC :1.54793: AVG IPC :1.50344: L2-Pf-HR :0.97814: L2-HR :0.86290: (Sim:1h23m43s) 
CPU  0 inst:  388000001 cyc:  257782349 now IPC :1.38117: AVG IPC :1.50310: L2-Pf-HR :0.97810: L2-HR :0.86289: (Sim:1h24m2s) 
CPU  0 inst:  389000000 cyc:  258434967 now IPC :1.53229: AVG IPC :1.50317: L2-Pf-HR :0.97811: L2-HR :0.86291: (Sim:1h24m21s) 
CPU  0 inst:  390000001 cyc:  259089261 now IPC :1.52837: AVG IPC :1.50324: L2-Pf-HR :0.97813: L2-HR :0.86291: (Sim:1h24m40s) 
CPU  0 inst:  391000002 cyc:  259740927 now IPC :1.53453: AVG IPC :1.50332: L2-Pf-HR :0.97813: L2-HR :0.86293: (Sim:1h24m58s) 
CPU  0 inst:  392000001 cyc:  260393576 now IPC :1.53222: AVG IPC :1.50339: L2-Pf-HR :0.97815: L2-HR :0.86295: (Sim:1h25m15s) 
CPU  0 inst:  393000000 cyc:  261045838 now IPC :1.53312: AVG IPC :1.50346: L2-Pf-HR :0.97815: L2-HR :0.86297: (Sim:1h25m24s) 
CPU  0 inst:  394000004 cyc:  261739171 now IPC :1.44231: AVG IPC :1.50330: L2-Pf-HR :0.97816: L2-HR :0.86299: (Sim:1h25m32s) 
CPU  0 inst:  395000000 cyc:  262396946 now IPC :1.52027: AVG IPC :1.50334: L2-Pf-HR :0.97815: L2-HR :0.86299: (Sim:1h25m41s) 
CPU  0 inst:  396000004 cyc:  263054813 now IPC :1.52007: AVG IPC :1.50339: L2-Pf-HR :0.97818: L2-HR :0.86304: (Sim:1h25m51s) 
CPU  0 inst:  397000000 cyc:  263712778 now IPC :1.51983: AVG IPC :1.50343: L2-Pf-HR :0.97819: L2-HR :0.86305: (Sim:1h26m0s) 
CPU  0 inst:  398000000 cyc:  264369326 now IPC :1.52312: AVG IPC :1.50348: L2-Pf-HR :0.97820: L2-HR :0.86308: (Sim:1h26m10s) 
CPU  0 inst:  399000003 cyc:  265024572 now IPC :1.52615: AVG IPC :1.50353: L2-Pf-HR :0.97823: L2-HR :0.86311: (Sim:1h26m19s) 
CPU  0 inst:  400000004 cyc:  265736170 now IPC :1.40529: AVG IPC :1.50327: L2-Pf-HR :0.97819: L2-HR :0.86309: (Sim:1h26m28s) 
CPU  0 inst:  401000004 cyc:  266394232 now IPC :1.51961: AVG IPC :1.50331: L2-Pf-HR :0.97821: L2-HR :0.86312: (Sim:1h26m37s) 
CPU  0 inst:  402000004 cyc:  267054123 now IPC :1.51540: AVG IPC :1.50334: L2-Pf-HR :0.97823: L2-HR :0.86312: (Sim:1h26m47s) 
CPU  0 inst:  403000001 cyc:  267711835 now IPC :1.52042: AVG IPC :1.50338: L2-Pf-HR :0.97824: L2-HR :0.86315: (Sim:1h26m56s) 
CPU  0 inst:  404000001 cyc:  268370982 now IPC :1.51711: AVG IPC :1.50341: L2-Pf-HR :0.97827: L2-HR :0.86318: (Sim:1h27m5s) 
CPU  0 inst:  405000000 cyc:  269028448 now IPC :1.52099: AVG IPC :1.50346: L2-Pf-HR :0.97828: L2-HR :0.86320: (Sim:1h27m16s) 
CPU  0 inst:  406000003 cyc:  269724070 now IPC :1.43757: AVG IPC :1.50329: L2-Pf-HR :0.97829: L2-HR :0.86321: (Sim:1h27m30s) 
CPU  0 inst:  407000003 cyc:  270382080 now IPC :1.51973: AVG IPC :1.50333: L2-Pf-HR :0.97831: L2-HR :0.86323: (Sim:1h27m48s) 
CPU  0 inst:  408000005 cyc:  271038235 now IPC :1.52403: AVG IPC :1.50338: L2-Pf-HR :0.97835: L2-HR :0.86328: (Sim:1h28m7s) 
CPU  0 inst:  409000002 cyc:  271696735 now IPC :1.51860: AVG IPC :1.50341: L2-Pf-HR :0.97835: L2-HR :0.86329: (Sim:1h28m26s) 
CPU  0 inst:  410000004 cyc:  272354024 now IPC :1.52140: AVG IPC :1.50346: L2-Pf-HR :0.97837: L2-HR :0.86332: (Sim:1h28m44s) 
CPU  0 inst:  411000000 cyc:  273010169 now IPC :1.52405: AVG IPC :1.50351: L2-Pf-HR :0.97840: L2-HR :0.86335: (Sim:1h29m3s) 
CPU  0 inst:  412000002 cyc:  273739429 now IPC :1.37126: AVG IPC :1.50315: L2-Pf-HR :0.97834: L2-HR :0.86333: (Sim:1h29m22s) 
CPU  0 inst:  413000000 cyc:  274384443 now IPC :1.55035: AVG IPC :1.50327: L2-Pf-HR :0.97837: L2-HR :0.86335: (Sim:1h29m41s) 
CPU  0 inst:  414000000 cyc:  275030346 now IPC :1.54822: AVG IPC :1.50337: L2-Pf-HR :0.97838: L2-HR :0.86335: (Sim:1h29m59s) 
CPU  0 inst:  415000003 cyc:  275675247 now IPC :1.55063: AVG IPC :1.50348: L2-Pf-HR :0.97840: L2-HR :0.86338: (Sim:1h30m18s) 
CPU  0 inst:  416000002 cyc:  276320970 now IPC :1.54865: AVG IPC :1.50359: L2-Pf-HR :0.97843: L2-HR :0.86341: (Sim:1h30m36s) 
CPU  0 inst:  417000000 cyc:  276967250 now IPC :1.54731: AVG IPC :1.50369: L2-Pf-HR :0.97843: L2-HR :0.86341: (Sim:1h30m55s) 
CPU  0 inst:  418000000 cyc:  277654412 now IPC :1.45526: AVG IPC :1.50357: L2-Pf-HR :0.97843: L2-HR :0.86344: (Sim:1h31m13s) 
CPU  0 inst:  419000000 cyc:  278308154 now IPC :1.52966: AVG IPC :1.50363: L2-Pf-HR :0.97843: L2-HR :0.86344: (Sim:1h31m25s) 
CPU  0 inst:  420000001 cyc:  278961051 now IPC :1.53164: AVG IPC :1.50370: L2-Pf-HR :0.97846: L2-HR :0.86349: (Sim:1h31m34s) 
CPU  0 inst:  421000000 cyc:  279614945 now IPC :1.52930: AVG IPC :1.50376: L2-Pf-HR :0.97846: L2-HR :0.86349: (Sim:1h31m43s) 
CPU  0 inst:  422000003 cyc:  280268221 now IPC :1.53075: AVG IPC :1.50382: L2-Pf-HR :0.97847: L2-HR :0.86351: (Sim:1h31m53s) 
CPU  0 inst:  423000004 cyc:  280921826 now IPC :1.52998: AVG IPC :1.50388: L2-Pf-HR :0.97849: L2-HR :0.86354: (Sim:1h32m2s) 
CPU  0 inst:  424000002 cyc:  281599598 now IPC :1.47542: AVG IPC :1.50381: L2-Pf-HR :0.97847: L2-HR :0.86347: (Sim:1h32m11s) 
CPU  0 inst:  425000001 cyc:  282257837 now IPC :1.51920: AVG IPC :1.50385: L2-Pf-HR :0.97842: L2-HR :0.86331: (Sim:1h32m20s) 
CPU  0 inst:  426000005 cyc:  282930177 now IPC :1.48735: AVG IPC :1.50381: L2-Pf-HR :0.97841: L2-HR :0.86316: (Sim:1h32m29s) 
CPU  0 inst:  427000002 cyc:  283590168 now IPC :1.51517: AVG IPC :1.50384: L2-Pf-HR :0.97840: L2-HR :0.86302: (Sim:1h32m49s) 
CPU  0 inst:  428000001 cyc:  284344343 now IPC :1.32595: AVG IPC :1.50336: L2-Pf-HR :0.97836: L2-HR :0.86286: (Sim:1h33m9s) 
CPU  0 inst:  429000003 cyc:  285017118 now IPC :1.48638: AVG IPC :1.50332: L2-Pf-HR :0.97836: L2-HR :0.86287: (Sim:1h33m28s) 
CPU  0 inst:  430000002 cyc:  285693549 now IPC :1.47835: AVG IPC :1.50326: L2-Pf-HR :0.97837: L2-HR :0.86284: (Sim:1h33m48s) 
CPU  0 inst:  431000002 cyc:  286367011 now IPC :1.48486: AVG IPC :1.50322: L2-Pf-HR :0.97838: L2-HR :0.86286: (Sim:1h34m8s) 
CPU  0 inst:  432000003 cyc:  287042090 now IPC :1.48131: AVG IPC :1.50317: L2-Pf-HR :0.97839: L2-HR :0.86286: (Sim:1h34m28s) 
CPU  0 inst:  433000005 cyc:  287716928 now IPC :1.48184: AVG IPC :1.50312: L2-Pf-HR :0.97840: L2-HR :0.86287: (Sim:1h34m47s) 
CPU  0 inst:  434000002 cyc:  288431215 now IPC :1.39999: AVG IPC :1.50286: L2-Pf-HR :0.97841: L2-HR :0.86287: (Sim:1h35m7s) 
CPU  0 inst:  435000004 cyc:  289110082 now IPC :1.47305: AVG IPC :1.50279: L2-Pf-HR :0.97841: L2-HR :0.86288: (Sim:1h35m27s) 
CPU  0 inst:  436000002 cyc:  289787165 now IPC :1.47692: AVG IPC :1.50273: L2-Pf-HR :0.97842: L2-HR :0.86288: (Sim:1h35m46s) 
CPU  0 inst:  437000001 cyc:  290466492 now IPC :1.47204: AVG IPC :1.50266: L2-Pf-HR :0.97841: L2-HR :0.86288: (Sim:1h36m6s) 
CPU  0 inst:  438000000 cyc:  291146929 now IPC :1.46964: AVG IPC :1.50258: L2-Pf-HR :0.97838: L2-HR :0.86286: (Sim:1h36m26s) 
CPU  0 inst:  439000002 cyc:  291828412 now IPC :1.46739: AVG IPC :1.50250: L2-Pf-HR :0.97836: L2-HR :0.86285: (Sim:1h36m46s) 
CPU  0 inst:  440000004 cyc:  292567580 now IPC :1.35288: AVG IPC :1.50212: L2-Pf-HR :0.97829: L2-HR :0.86281: (Sim:1h37m6s) 
CPU  0 inst:  441000004 cyc:  293219186 now IPC :1.53467: AVG IPC :1.50219: L2-Pf-HR :0.97831: L2-HR :0.86281: (Sim:1h37m20s) 
CPU  0 inst:  442000004 cyc:  293870844 now IPC :1.53455: AVG IPC :1.50226: L2-Pf-HR :0.97831: L2-HR :0.86282: (Sim:1h37m31s) 
CPU  0 inst:  443000004 cyc:  294525551 now IPC :1.52740: AVG IPC :1.50232: L2-Pf-HR :0.97828: L2-HR :0.86280: (Sim:1h37m40s) 
CPU  0 inst:  444000003 cyc:  295176826 now IPC :1.53545: AVG IPC :1.50239: L2-Pf-HR :0.97831: L2-HR :0.86284: (Sim:1h37m49s) 
CPU  0 inst:  445000000 cyc:  295828514 now IPC :1.53447: AVG IPC :1.50246: L2-Pf-HR :0.97831: L2-HR :0.86286: (Sim:1h37m59s) 
CPU  0 inst:  446000003 cyc:  296519232 now IPC :1.44777: AVG IPC :1.50234: L2-Pf-HR :0.97831: L2-HR :0.86286: (Sim:1h38m12s) 
CPU  0 inst:  447000002 cyc:  297172920 now IPC :1.52978: AVG IPC :1.50240: L2-Pf-HR :0.97828: L2-HR :0.86286: (Sim:1h38m22s) 
CPU  0 inst:  448000002 cyc:  297827672 now IPC :1.52730: AVG IPC :1.50245: L2-Pf-HR :0.97830: L2-HR :0.86288: (Sim:1h38m31s) 
CPU  0 inst:  449000005 cyc:  298480076 now IPC :1.53280: AVG IPC :1.50252: L2-Pf-HR :0.97832: L2-HR :0.86292: (Sim:1h38m39s) 
CPU  0 inst:  450000000 cyc:  299133699 now IPC :1.52993: AVG IPC :1.50258: L2-Pf-HR :0.97832: L2-HR :0.86292: (Sim:1h38m56s) 
CPU  0 inst:  451000000 cyc:  299785878 now IPC :1.53332: AVG IPC :1.50265: L2-Pf-HR :0.97834: L2-HR :0.86295: (Sim:1h39m14s) 
CPU  0 inst:  452000002 cyc:  300510307 now IPC :1.38040: AVG IPC :1.50235: L2-Pf-HR :0.97831: L2-HR :0.86294: (Sim:1h39m34s) 
CPU  0 inst:  453000002 cyc:  301170825 now IPC :1.51396: AVG IPC :1.50238: L2-Pf-HR :0.97833: L2-HR :0.86295: (Sim:1h39m52s) 
CPU  0 inst:  454000003 cyc:  301829686 now IPC :1.51777: AVG IPC :1.50241: L2-Pf-HR :0.97834: L2-HR :0.86298: (Sim:1h40m11s) 
CPU  0 inst:  455000005 cyc:  302489585 now IPC :1.51539: AVG IPC :1.50244: L2-Pf-HR :0.97834: L2-HR :0.86297: (Sim:1h40m30s) 
CPU  0 inst:  456000002 cyc:  303148607 now IPC :1.51740: AVG IPC :1.50247: L2-Pf-HR :0.97837: L2-HR :0.86301: (Sim:1h40m48s) 
CPU  0 inst:  457000002 cyc:  303807415 now IPC :1.51789: AVG IPC :1.50250: L2-Pf-HR :0.97837: L2-HR :0.86302: (Sim:1h41m7s) 
CPU  0 inst:  458000000 cyc:  304505483 now IPC :1.43252: AVG IPC :1.50234: L2-Pf-HR :0.97835: L2-HR :0.86302: (Sim:1h41m26s) 
CPU  0 inst:  459000000 cyc:  305165254 now IPC :1.51568: AVG IPC :1.50237: L2-Pf-HR :0.97835: L2-HR :0.86304: (Sim:1h41m44s) 
CPU  0 inst:  460000000 cyc:  305825300 now IPC :1.51505: AVG IPC :1.50240: L2-Pf-HR :0.97838: L2-HR :0.86306: (Sim:1h42m1s) 
CPU  0 inst:  461000000 cyc:  306482847 now IPC :1.52080: AVG IPC :1.50244: L2-Pf-HR :0.97838: L2-HR :0.86308: (Sim:1h42m10s) 
CPU  0 inst:  462000004 cyc:  307141480 now IPC :1.51830: AVG IPC :1.50247: L2-Pf-HR :0.97838: L2-HR :0.86308: (Sim:1h42m20s) 
CPU  0 inst:  463000004 cyc:  307800857 now IPC :1.51658: AVG IPC :1.50250: L2-Pf-HR :0.97841: L2-HR :0.86311: (Sim:1h42m29s) 
CPU  0 inst:  464000000 cyc:  308527783 now IPC :1.37565: AVG IPC :1.50220: L2-Pf-HR :0.97838: L2-HR :0.86310: (Sim:1h42m44s) 
CPU  0 inst:  465000002 cyc:  309184970 now IPC :1.52164: AVG IPC :1.50225: L2-Pf-HR :0.97840: L2-HR :0.86311: (Sim:1h42m55s) 
CPU  0 inst:  466000001 cyc:  309840983 now IPC :1.52436: AVG IPC :1.50229: L2-Pf-HR :0.97841: L2-HR :0.86313: (Sim:1h43m4s) 
CPU  0 inst:  467000004 cyc:  310497623 now IPC :1.52291: AVG IPC :1.50234: L2-Pf-HR :0.97841: L2-HR :0.86313: (Sim:1h43m14s) 
CPU  0 inst:  468000002 cyc:  311155361 now IPC :1.52036: AVG IPC :1.50237: L2-Pf-HR :0.97843: L2-HR :0.86317: (Sim:1h43m24s) 
CPU  0 inst:  469000005 cyc:  311812722 now IPC :1.52124: AVG IPC :1.50241: L2-Pf-HR :0.97845: L2-HR :0.86319: (Sim:1h43m42s) 
CPU  0 inst:  470000005 cyc:  312509588 now IPC :1.43500: AVG IPC :1.50226: L2-Pf-HR :0.97845: L2-HR :0.86319: (Sim:1h44m1s) 
CPU  0 inst:  471000005 cyc:  313169451 now IPC :1.51547: AVG IPC :1.50229: L2-Pf-HR :0.97845: L2-HR :0.86322: (Sim:1h44m20s) 
CPU  0 inst:  472000002 cyc:  313830920 now IPC :1.51178: AVG IPC :1.50231: L2-Pf-HR :0.97847: L2-HR :0.86323: (Sim:1h44m39s) 
CPU  0 inst:  473000005 cyc:  314491910 now IPC :1.51289: AVG IPC :1.50233: L2-Pf-HR :0.97849: L2-HR :0.86325: (Sim:1h44m59s) 
CPU  0 inst:  474000000 cyc:  315153454 now IPC :1.51161: AVG IPC :1.50235: L2-Pf-HR :0.97850: L2-HR :0.86327: (Sim:1h45m18s) 
CPU  0 inst:  475000002 cyc:  315814308 now IPC :1.51320: AVG IPC :1.50238: L2-Pf-HR :0.97850: L2-HR :0.86329: (Sim:1h45m37s) 
CPU  0 inst:  476000000 cyc:  316550048 now IPC :1.35917: AVG IPC :1.50204: L2-Pf-HR :0.97844: L2-HR :0.86327: (Sim:1h45m57s) 
CPU  0 inst:  477000003 cyc:  317209018 now IPC :1.51752: AVG IPC :1.50207: L2-Pf-HR :0.97846: L2-HR :0.86327: (Sim:1h46m17s) 
CPU  0 inst:  478000001 cyc:  317868161 now IPC :1.51712: AVG IPC :1.50211: L2-Pf-HR :0.97846: L2-HR :0.86328: (Sim:1h46m36s) 
CPU  0 inst:  479000000 cyc:  318527607 now IPC :1.51642: AVG IPC :1.50214: L2-Pf-HR :0.97847: L2-HR :0.86329: (Sim:1h46m55s) 
CPU  0 inst:  480000001 cyc:  319186273 now IPC :1.51822: AVG IPC :1.50217: L2-Pf-HR :0.97849: L2-HR :0.86332: (Sim:1h47m14s) 
CPU  0 inst:  481000001 cyc:  319845882 now IPC :1.51605: AVG IPC :1.50220: L2-Pf-HR :0.97850: L2-HR :0.86334: (Sim:1h47m34s) 
CPU  0 inst:  482000000 cyc:  320543589 now IPC :1.43326: AVG IPC :1.50205: L2-Pf-HR :0.97850: L2-HR :0.86334: (Sim:1h47m53s) 
CPU  0 inst:  483000004 cyc:  321201739 now IPC :1.51942: AVG IPC :1.50208: L2-Pf-HR :0.97852: L2-HR :0.86337: (Sim:1h48m12s) 
CPU  0 inst:  484000001 cyc:  321860465 now IPC :1.51808: AVG IPC :1.50212: L2-Pf-HR :0.97854: L2-HR :0.86339: (Sim:1h48m31s) 
CPU  0 inst:  485000005 cyc:  322521555 now IPC :1.51266: AVG IPC :1.50214: L2-Pf-HR :0.97854: L2-HR :0.86341: (Sim:1h48m51s) 
CPU  0 inst:  486000002 cyc:  323179365 now IPC :1.52019: AVG IPC :1.50217: L2-Pf-HR :0.97855: L2-HR :0.86343: (Sim:1h49m10s) 
CPU  0 inst:  487000005 cyc:  323837264 now IPC :1.51999: AVG IPC :1.50221: L2-Pf-HR :0.97858: L2-HR :0.86345: (Sim:1h49m29s) 
CPU  0 inst:  488000002 cyc:  324519008 now IPC :1.46682: AVG IPC :1.50214: L2-Pf-HR :0.97857: L2-HR :0.86343: (Sim:1h49m49s) 
CPU  0 inst:  489000004 cyc:  325180703 now IPC :1.51127: AVG IPC :1.50215: L2-Pf-HR :0.97855: L2-HR :0.86329: (Sim:1h50m8s) 
CPU  0 inst:  490000003 cyc:  325855368 now IPC :1.48222: AVG IPC :1.50211: L2-Pf-HR :0.97853: L2-HR :0.86317: (Sim:1h50m27s) 
CPU  0 inst:  491000000 cyc:  326518717 now IPC :1.50750: AVG IPC :1.50212: L2-Pf-HR :0.97853: L2-HR :0.86304: (Sim:1h50m46s) 
CPU  0 inst:  492000002 cyc:  327272232 now IPC :1.32712: AVG IPC :1.50172: L2-Pf-HR :0.97848: L2-HR :0.86290: (Sim:1h51m6s) 
CPU  0 inst:  493000002 cyc:  327934335 now IPC :1.51034: AVG IPC :1.50174: L2-Pf-HR :0.97849: L2-HR :0.86288: (Sim:1h51m25s) 
CPU  0 inst:  494000005 cyc:  328594987 now IPC :1.51366: AVG IPC :1.50176: L2-Pf-HR :0.97849: L2-HR :0.86288: (Sim:1h51m45s) 
CPU  0 inst:  495000003 cyc:  329256763 now IPC :1.51108: AVG IPC :1.50178: L2-Pf-HR :0.97850: L2-HR :0.86288: (Sim:1h52m4s) 
CPU  0 inst:  496000000 cyc:  329917557 now IPC :1.51333: AVG IPC :1.50180: L2-Pf-HR :0.97851: L2-HR :0.86289: (Sim:1h52m24s) 
CPU  0 inst:  497000002 cyc:  330577461 now IPC :1.51538: AVG IPC :1.50183: L2-Pf-HR :0.97851: L2-HR :0.86289: (Sim:1h52m43s) 
CPU  0 inst:  498000005 cyc:  331284052 now IPC :1.41525: AVG IPC :1.50165: L2-Pf-HR :0.97852: L2-HR :0.86290: (Sim:1h53m3s) 
CPU  0 inst:  499000004 cyc:  331962606 now IPC :1.47372: AVG IPC :1.50159: L2-Pf-HR :0.97853: L2-HR :0.86290: (Sim:1h53m22s) 
CPU  0 inst:  500000003 cyc:  332642080 now IPC :1.47173: AVG IPC :1.50153: L2-Pf-HR :0.97853: L2-HR :0.86291: (Sim:1h53m42s) 
CPU  0 inst:  501000001 cyc:  333323612 now IPC :1.46728: AVG IPC :1.50146: L2-Pf-HR :0.97853: L2-HR :0.86290: (Sim:1h54m1s) 
CPU  0 inst:  502000003 cyc:  334004037 now IPC :1.46967: AVG IPC :1.50139: L2-Pf-HR :0.97850: L2-HR :0.86289: (Sim:1h54m21s) 
CPU  0 inst:  503000000 cyc:  334684874 now IPC :1.46878: AVG IPC :1.50133: L2-Pf-HR :0.97850: L2-HR :0.86289: (Sim:1h54m40s) 
CPU  0 inst:  504000000 cyc:  335431305 now IPC :1.33971: AVG IPC :1.50096: L2-Pf-HR :0.97843: L2-HR :0.86284: (Sim:1h55m1s) 
CPU  0 inst:  505000005 cyc:  336095459 now IPC :1.50568: AVG IPC :1.50097: L2-Pf-HR :0.97844: L2-HR :0.86286: (Sim:1h55m20s) 
CPU  0 inst:  506000001 cyc:  336756290 now IPC :1.51324: AVG IPC :1.50100: L2-Pf-HR :0.97845: L2-HR :0.86285: (Sim:1h55m39s) 
CPU  0 inst:  507000005 cyc:  337415752 now IPC :1.51639: AVG IPC :1.50103: L2-Pf-HR :0.97843: L2-HR :0.86286: (Sim:1h55m59s) 
CPU  0 inst:  508000005 cyc:  338075848 now IPC :1.51493: AVG IPC :1.50106: L2-Pf-HR :0.97844: L2-HR :0.86287: (Sim:1h56m18s) 
CPU  0 inst:  509000005 cyc:  338736857 now IPC :1.51284: AVG IPC :1.50108: L2-Pf-HR :0.97843: L2-HR :0.86287: (Sim:1h56m37s) 
CPU  0 inst:  510000002 cyc:  339433685 now IPC :1.43507: AVG IPC :1.50094: L2-Pf-HR :0.97841: L2-HR :0.86288: (Sim:1h56m57s) 
CPU  0 inst:  511000001 cyc:  340080847 now IPC :1.54521: AVG IPC :1.50103: L2-Pf-HR :0.97840: L2-HR :0.86287: (Sim:1h57m16s) 
CPU  0 inst:  512000002 cyc:  340724987 now IPC :1.55246: AVG IPC :1.50112: L2-Pf-HR :0.97841: L2-HR :0.86290: (Sim:1h57m35s) 
CPU  0 inst:  513000003 cyc:  341370021 now IPC :1.55031: AVG IPC :1.50122: L2-Pf-HR :0.97842: L2-HR :0.86291: (Sim:1h57m54s) 
CPU  0 inst:  514000003 cyc:  342015251 now IPC :1.54983: AVG IPC :1.50131: L2-Pf-HR :0.97843: L2-HR :0.86293: (Sim:1h58m13s) 
CPU  0 inst:  515000000 cyc:  342660958 now IPC :1.54869: AVG IPC :1.50140: L2-Pf-HR :0.97845: L2-HR :0.86295: (Sim:1h58m33s) 
CPU  0 inst:  516000000 cyc:  343376518 now IPC :1.39751: AVG IPC :1.50118: L2-Pf-HR :0.97841: L2-HR :0.86293: (Sim:1h58m53s) 
CPU  0 inst:  517000003 cyc:  344022611 now IPC :1.54777: AVG IPC :1.50127: L2-Pf-HR :0.97843: L2-HR :0.86296: (Sim:1h59m12s) 
CPU  0 inst:  518000000 cyc:  344667910 now IPC :1.54966: AVG IPC :1.50136: L2-Pf-HR :0.97845: L2-HR :0.86297: (Sim:1h59m31s) 
CPU  0 inst:  519000001 cyc:  345311645 now IPC :1.55344: AVG IPC :1.50146: L2-Pf-HR :0.97845: L2-HR :0.86298: (Sim:1h59m50s) 
CPU  0 inst:  520000001 cyc:  345955633 now IPC :1.55282: AVG IPC :1.50155: L2-Pf-HR :0.97846: L2-HR :0.86300: (Sim:2h0m9s) 
CPU  0 inst:  521000004 cyc:  346601325 now IPC :1.54873: AVG IPC :1.50164: L2-Pf-HR :0.97848: L2-HR :0.86302: (Sim:2h0m28s) 
CPU  0 inst:  522000003 cyc:  347286811 now IPC :1.45882: AVG IPC :1.50156: L2-Pf-HR :0.97851: L2-HR :0.86306: (Sim:2h0m48s) 
CPU  0 inst:  523000004 cyc:  347943005 now IPC :1.52394: AVG IPC :1.50160: L2-Pf-HR :0.97852: L2-HR :0.86306: (Sim:2h1m7s) 
CPU  0 inst:  524000001 cyc:  348599055 now IPC :1.52427: AVG IPC :1.50164: L2-Pf-HR :0.97853: L2-HR :0.86309: (Sim:2h1m26s) 
CPU  0 inst:  525000005 cyc:  349255826 now IPC :1.52261: AVG IPC :1.50168: L2-Pf-HR :0.97855: L2-HR :0.86311: (Sim:2h1m45s) 
CPU  0 inst:  526000005 cyc:  349912695 now IPC :1.52237: AVG IPC :1.50172: L2-Pf-HR :0.97856: L2-HR :0.86313: (Sim:2h2m4s) 
CPU  0 inst:  527000005 cyc:  350569153 now IPC :1.52333: AVG IPC :1.50176: L2-Pf-HR :0.97857: L2-HR :0.86315: (Sim:2h2m24s) 
CPU  0 inst:  528000005 cyc:  351292567 now IPC :1.38233: AVG IPC :1.50151: L2-Pf-HR :0.97854: L2-HR :0.86313: (Sim:2h2m44s) 
CPU  0 inst:  529000000 cyc:  351938932 now IPC :1.54711: AVG IPC :1.50160: L2-Pf-HR :0.97855: L2-HR :0.86315: (Sim:2h3m3s) 
CPU  0 inst:  530000000 cyc:  352586161 now IPC :1.54505: AVG IPC :1.50168: L2-Pf-HR :0.97856: L2-HR :0.86316: (Sim:2h3m22s) 
CPU  0 inst:  531000000 cyc:  353233185 now IPC :1.54554: AVG IPC :1.50176: L2-Pf-HR :0.97857: L2-HR :0.86317: (Sim:2h3m41s) 
CPU  0 inst:  532000003 cyc:  353880134 now IPC :1.54572: AVG IPC :1.50184: L2-Pf-HR :0.97858: L2-HR :0.86319: (Sim:2h4m0s) 
CPU  0 inst:  533000004 cyc:  354528371 now IPC :1.54265: AVG IPC :1.50191: L2-Pf-HR :0.97858: L2-HR :0.86320: (Sim:2h4m19s) 
CPU  0 inst:  534000002 cyc:  355215593 now IPC :1.45513: AVG IPC :1.50182: L2-Pf-HR :0.97858: L2-HR :0.86322: (Sim:2h4m38s) 
CPU  0 inst:  535000003 cyc:  355870458 now IPC :1.52703: AVG IPC :1.50187: L2-Pf-HR :0.97859: L2-HR :0.86322: (Sim:2h4m58s) 
CPU  0 inst:  536000000 cyc:  356524004 now IPC :1.53011: AVG IPC :1.50192: L2-Pf-HR :0.97861: L2-HR :0.86325: (Sim:2h5m16s) 
CPU  0 inst:  537000004 cyc:  357177962 now IPC :1.52916: AVG IPC :1.50197: L2-Pf-HR :0.97862: L2-HR :0.86326: (Sim:2h5m35s) 
CPU  0 inst:  538000004 cyc:  357832104 now IPC :1.52872: AVG IPC :1.50202: L2-Pf-HR :0.97862: L2-HR :0.86327: (Sim:2h5m54s) 
CPU  0 inst:  539000000 cyc:  358485837 now IPC :1.52967: AVG IPC :1.50207: L2-Pf-HR :0.97864: L2-HR :0.86330: (Sim:2h6m13s) 
CPU  0 inst:  540000000 cyc:  359213216 now IPC :1.37480: AVG IPC :1.50181: L2-Pf-HR :0.97861: L2-HR :0.86328: (Sim:2h6m32s) 
CPU  0 inst:  541000002 cyc:  359865506 now IPC :1.53306: AVG IPC :1.50187: L2-Pf-HR :0.97863: L2-HR :0.86331: (Sim:2h6m51s) 
CPU  0 inst:  542000002 cyc:  360518224 now IPC :1.53206: AVG IPC :1.50193: L2-Pf-HR :0.97864: L2-HR :0.86331: (Sim:2h7m9s) 
CPU  0 inst:  543000000 cyc:  361170387 now IPC :1.53336: AVG IPC :1.50198: L2-Pf-HR :0.97865: L2-HR :0.86332: (Sim:2h7m29s) 
CPU  0 inst:  544000002 cyc:  361821948 now IPC :1.53478: AVG IPC :1.50204: L2-Pf-HR :0.97867: L2-HR :0.86335: (Sim:2h7m47s) 
CPU  0 inst:  545000004 cyc:  362477191 now IPC :1.52615: AVG IPC :1.50209: L2-Pf-HR :0.97866: L2-HR :0.86335: (Sim:2h8m6s) 
CPU  0 inst:  546000000 cyc:  363170238 now IPC :1.44290: AVG IPC :1.50197: L2-Pf-HR :0.97866: L2-HR :0.86336: (Sim:2h8m25s) 
CPU  0 inst:  547000000 cyc:  363826373 now IPC :1.52408: AVG IPC :1.50201: L2-Pf-HR :0.97866: L2-HR :0.86336: (Sim:2h8m44s) 
CPU  0 inst:  548000000 cyc:  364481452 now IPC :1.52653: AVG IPC :1.50206: L2-Pf-HR :0.97868: L2-HR :0.86339: (Sim:2h9m4s) 
CPU  0 inst:  549000000 cyc:  365138783 now IPC :1.52130: AVG IPC :1.50209: L2-Pf-HR :0.97868: L2-HR :0.86340: (Sim:2h9m20s) 
CPU  0 inst:  550000002 cyc:  365794760 now IPC :1.52445: AVG IPC :1.50213: L2-Pf-HR :0.97869: L2-HR :0.86342: (Sim:2h9m33s) 
CPU  0 inst:  551000000 cyc:  366449475 now IPC :1.52738: AVG IPC :1.50218: L2-Pf-HR :0.97871: L2-HR :0.86344: (Sim:2h9m47s) 
CPU  0 inst:  552000004 cyc:  367129080 now IPC :1.47145: AVG IPC :1.50212: L2-Pf-HR :0.97871: L2-HR :0.86343: (Sim:2h10m5s) 
CPU  0 inst:  553000000 cyc:  367792989 now IPC :1.50622: AVG IPC :1.50213: L2-Pf-HR :0.97868: L2-HR :0.86331: (Sim:2h10m24s) 
CPU  0 inst:  554000002 cyc:  368463996 now IPC :1.49030: AVG IPC :1.50210: L2-Pf-HR :0.97866: L2-HR :0.86319: (Sim:2h10m43s) 
CPU  0 inst:  555000005 cyc:  369104386 now IPC :1.56155: AVG IPC :1.50221: L2-Pf-HR :0.97866: L2-HR :0.86308: (Sim:2h11m1s) 
CPU  0 inst:  556000000 cyc:  369842136 now IPC :1.35547: AVG IPC :1.50191: L2-Pf-HR :0.97862: L2-HR :0.86293: (Sim:2h11m20s) 
CPU  0 inst:  557000000 cyc:  370519565 now IPC :1.47617: AVG IPC :1.50187: L2-Pf-HR :0.97862: L2-HR :0.86293: (Sim:2h11m39s) 
CPU  0 inst:  558000001 cyc:  371197304 now IPC :1.47550: AVG IPC :1.50182: L2-Pf-HR :0.97863: L2-HR :0.86293: (Sim:2h11m58s) 
CPU  0 inst:  559000000 cyc:  371874245 now IPC :1.47723: AVG IPC :1.50177: L2-Pf-HR :0.97864: L2-HR :0.86293: (Sim:2h12m17s) 
CPU  0 inst:  560000001 cyc:  372551343 now IPC :1.47689: AVG IPC :1.50173: L2-Pf-HR :0.97865: L2-HR :0.86294: (Sim:2h12m36s) 
CPU  0 inst:  561000002 cyc:  373229191 now IPC :1.47526: AVG IPC :1.50168: L2-Pf-HR :0.97865: L2-HR :0.86294: (Sim:2h12m55s) 
CPU  0 inst:  562000002 cyc:  373944243 now IPC :1.39850: AVG IPC :1.50148: L2-Pf-HR :0.97867: L2-HR :0.86295: (Sim:2h13m14s) 
CPU  0 inst:  563000001 cyc:  374620337 now IPC :1.47908: AVG IPC :1.50144: L2-Pf-HR :0.97867: L2-HR :0.86295: (Sim:2h13m33s) 
CPU  0 inst:  564000002 cyc:  375295748 now IPC :1.48058: AVG IPC :1.50141: L2-Pf-HR :0.97867: L2-HR :0.86296: (Sim:2h13m52s) 
CPU  0 inst:  565000002 cyc:  375973577 now IPC :1.47530: AVG IPC :1.50136: L2-Pf-HR :0.97867: L2-HR :0.86295: (Sim:2h14m11s) 
CPU  0 inst:  566000000 cyc:  376651419 now IPC :1.47527: AVG IPC :1.50131: L2-Pf-HR :0.97865: L2-HR :0.86294: (Sim:2h14m30s) 
CPU  0 inst:  567000002 cyc:  377330259 now IPC :1.47310: AVG IPC :1.50126: L2-Pf-HR :0.97862: L2-HR :0.86292: (Sim:2h14m49s) 
CPU  0 inst:  568000003 cyc:  378044336 now IPC :1.40041: AVG IPC :1.50107: L2-Pf-HR :0.97857: L2-HR :0.86290: (Sim:2h15m8s) 
CPU  0 inst:  569000005 cyc:  378748934 now IPC :1.41925: AVG IPC :1.50092: L2-Pf-HR :0.97856: L2-HR :0.86288: (Sim:2h15m27s) 
CPU  0 inst:  570000000 cyc:  379410723 now IPC :1.51105: AVG IPC :1.50093: L2-Pf-HR :0.97856: L2-HR :0.86289: (Sim:2h15m46s) 
CPU  0 inst:  571000005 cyc:  380075220 now IPC :1.50491: AVG IPC :1.50094: L2-Pf-HR :0.97855: L2-HR :0.86289: (Sim:2h16m5s) 
CPU  0 inst:  572000000 cyc:  380739628 now IPC :1.50509: AVG IPC :1.50095: L2-Pf-HR :0.97853: L2-HR :0.86289: (Sim:2h16m24s) 
CPU  0 inst:  573000005 cyc:  381402145 now IPC :1.50940: AVG IPC :1.50096: L2-Pf-HR :0.97853: L2-HR :0.86290: (Sim:2h16m43s) 
CPU  0 inst:  574000002 cyc:  382098853 now IPC :1.43532: AVG IPC :1.50084: L2-Pf-HR :0.97853: L2-HR :0.86290: (Sim:2h17m2s) 
CPU  0 inst:  575000000 cyc:  382745031 now IPC :1.54756: AVG IPC :1.50092: L2-Pf-HR :0.97854: L2-HR :0.86292: (Sim:2h17m20s) 
CPU  0 inst:  576000003 cyc:  383389036 now IPC :1.55279: AVG IPC :1.50101: L2-Pf-HR :0.97854: L2-HR :0.86293: (Sim:2h17m39s) 
CPU  0 inst:  577000004 cyc:  384033011 now IPC :1.55286: AVG IPC :1.50110: L2-Pf-HR :0.97854: L2-HR :0.86295: (Sim:2h17m58s) 
CPU  0 inst:  578000000 cyc:  384677154 now IPC :1.55244: AVG IPC :1.50118: L2-Pf-HR :0.97855: L2-HR :0.86297: (Sim:2h18m17s) 
CPU  0 inst:  579000001 cyc:  385320695 now IPC :1.55390: AVG IPC :1.50127: L2-Pf-HR :0.97856: L2-HR :0.86298: (Sim:2h18m35s) 
CPU  0 inst:  580000002 cyc:  385996117 now IPC :1.48056: AVG IPC :1.50123: L2-Pf-HR :0.97853: L2-HR :0.86297: (Sim:2h18m55s) 
CPU  0 inst:  581000002 cyc:  386689421 now IPC :1.44237: AVG IPC :1.50113: L2-Pf-HR :0.97853: L2-HR :0.86297: (Sim:2h19m14s) 
CPU  0 inst:  582000000 cyc:  387348892 now IPC :1.51636: AVG IPC :1.50115: L2-Pf-HR :0.97854: L2-HR :0.86298: (Sim:2h19m33s) 
CPU  0 inst:  583000002 cyc:  388008180 now IPC :1.51679: AVG IPC :1.50118: L2-Pf-HR :0.97855: L2-HR :0.86300: (Sim:2h19m52s) 
CPU  0 inst:  584000001 cyc:  388666764 now IPC :1.51841: AVG IPC :1.50121: L2-Pf-HR :0.97856: L2-HR :0.86301: (Sim:2h20m11s) 
CPU  0 inst:  585000004 cyc:  389325558 now IPC :1.51793: AVG IPC :1.50124: L2-Pf-HR :0.97857: L2-HR :0.86303: (Sim:2h20m30s) 
CPU  0 inst:  586000000 cyc:  390022779 now IPC :1.43426: AVG IPC :1.50112: L2-Pf-HR :0.97858: L2-HR :0.86304: (Sim:2h20m50s) 
CPU  0 inst:  587000004 cyc:  390679471 now IPC :1.52279: AVG IPC :1.50116: L2-Pf-HR :0.97860: L2-HR :0.86307: (Sim:2h21m6s) 
CPU  0 inst:  588000000 cyc:  391338349 now IPC :1.51773: AVG IPC :1.50118: L2-Pf-HR :0.97861: L2-HR :0.86308: (Sim:2h21m15s) 
CPU  0 inst:  589000004 cyc:  391995900 now IPC :1.52080: AVG IPC :1.50122: L2-Pf-HR :0.97862: L2-HR :0.86310: (Sim:2h21m24s) 
CPU  0 inst:  590000000 cyc:  392653068 now IPC :1.52167: AVG IPC :1.50125: L2-Pf-HR :0.97863: L2-HR :0.86312: (Sim:2h21m33s) 
CPU  0 inst:  591000000 cyc:  393311396 now IPC :1.51900: AVG IPC :1.50128: L2-Pf-HR :0.97864: L2-HR :0.86313: (Sim:2h21m42s) 
CPU  0 inst:  592000004 cyc:  394008863 now IPC :1.43377: AVG IPC :1.50116: L2-Pf-HR :0.97862: L2-HR :0.86313: (Sim:2h21m51s) 
CPU  0 inst:  593000004 cyc:  394690829 now IPC :1.46635: AVG IPC :1.50110: L2-Pf-HR :0.97863: L2-HR :0.86314: (Sim:2h22m1s) 
CPU  0 inst:  594000004 cyc:  395340610 now IPC :1.53898: AVG IPC :1.50116: L2-Pf-HR :0.97864: L2-HR :0.86315: (Sim:2h22m9s) 
CPU  0 inst:  595000003 cyc:  395990973 now IPC :1.53760: AVG IPC :1.50122: L2-Pf-HR :0.97864: L2-HR :0.86316: (Sim:2h22m19s) 
CPU  0 inst:  596000000 cyc:  396641219 now IPC :1.53787: AVG IPC :1.50128: L2-Pf-HR :0.97866: L2-HR :0.86317: (Sim:2h22m32s) 
CPU  0 inst:  597000001 cyc:  397290466 now IPC :1.54025: AVG IPC :1.50135: L2-Pf-HR :0.97867: L2-HR :0.86320: (Sim:2h22m41s) 
CPU  0 inst:  598000004 cyc:  397981726 now IPC :1.44664: AVG IPC :1.50125: L2-Pf-HR :0.97867: L2-HR :0.86320: (Sim:2h22m50s) 
xz: 770-tot_memTraces_v5/120-subBillion_s2048_LLM_Arch/memTraces[1319000000]_FE_[Pythia-70M]_[h8]_[s2048]_[d64].champsim.9SSize.xz: Unexpected end of input
*** Reached end of trace for Core: 0 Repeating trace: 770-tot_memTraces_v5/120-subBillion_s2048_LLM_Arch/memTraces[1319000000]_FE_[Pythia-70M]_[h8]_[s2048]_[d64].champsim.9SSize.xz
CPU  0 inst:  599000000 cyc:  398885975 now IPC :1.10589: AVG IPC :1.50035: L2-Pf-HR :0.97862: L2-HR :0.86311: (Sim:2h23m0s) 
CPU  0 inst:  600000002 cyc:  399564499 now IPC :1.47379: AVG IPC :1.50031: L2-Pf-HR :0.97863: L2-HR :0.86311: (Sim:2h23m9s) 
CPU  0 inst:  601000001 cyc:  400244421 now IPC :1.47076: AVG IPC :1.50026: L2-Pf-HR :0.97863: L2-HR :0.86310: (Sim:2h23m19s) 
CPU  0 inst:  602000005 cyc:  400924475 now IPC :1.47048: AVG IPC :1.50021: L2-Pf-HR :0.97864: L2-HR :0.86311: (Sim:2h23m28s) 
CPU  0 inst:  603000002 cyc:  401605266 now IPC :1.46888: AVG IPC :1.50015: L2-Pf-HR :0.97865: L2-HR :0.86311: (Sim:2h23m37s) 
CPU  0 inst:  604000002 cyc:  402283579 now IPC :1.47425: AVG IPC :1.50011: L2-Pf-HR :0.97865: L2-HR :0.86312: (Sim:2h23m47s) 
CPU  0 inst:  605000001 cyc:  402997991 now IPC :1.39975: AVG IPC :1.49993: L2-Pf-HR :0.97866: L2-HR :0.86312: (Sim:2h24m3s) 
CPU  0 inst:  606000003 cyc:  403674240 now IPC :1.47875: AVG IPC :1.49990: L2-Pf-HR :0.97862: L2-HR :0.86310: (Sim:2h24m22s) 
CPU  0 inst:  607000001 cyc:  404346647 now IPC :1.48719: AVG IPC :1.49987: L2-Pf-HR :0.97858: L2-HR :0.86307: (Sim:2h24m41s) 
CPU  0 inst:  608000000 cyc:  405018457 now IPC :1.48851: AVG IPC :1.49986: L2-Pf-HR :0.97854: L2-HR :0.86305: (Sim:2h25m0s) 
CPU  0 inst:  609000005 cyc:  405688707 now IPC :1.49199: AVG IPC :1.49984: L2-Pf-HR :0.97849: L2-HR :0.86302: (Sim:2h25m19s) 
CPU  0 inst:  610000004 cyc:  406366352 now IPC :1.47570: AVG IPC :1.49980: L2-Pf-HR :0.97845: L2-HR :0.86299: (Sim:2h25m37s) 
CPU  0 inst:  611000005 cyc:  407116835 now IPC :1.33248: AVG IPC :1.49949: L2-Pf-HR :0.97839: L2-HR :0.86295: (Sim:2h25m57s) 
CPU  0 inst:  612000000 cyc:  407776920 now IPC :1.51495: AVG IPC :1.49952: L2-Pf-HR :0.97837: L2-HR :0.86294: (Sim:2h26m15s) 
CPU  0 inst:  613000000 cyc:  408435946 now IPC :1.51739: AVG IPC :1.49955: L2-Pf-HR :0.97837: L2-HR :0.86294: (Sim:2h26m34s) 
CPU  0 inst:  614000003 cyc:  409094872 now IPC :1.51763: AVG IPC :1.49958: L2-Pf-HR :0.97836: L2-HR :0.86295: (Sim:2h26m52s) 
CPU  0 inst:  615000002 cyc:  409754264 now IPC :1.51655: AVG IPC :1.49960: L2-Pf-HR :0.97835: L2-HR :0.86295: (Sim:2h27m11s) 
CPU  0 inst:  616000005 cyc:  410413956 now IPC :1.51586: AVG IPC :1.49963: L2-Pf-HR :0.97836: L2-HR :0.86296: (Sim:2h27m29s) 
CPU  0 inst:  617000003 cyc:  411110887 now IPC :1.43486: AVG IPC :1.49952: L2-Pf-HR :0.97837: L2-HR :0.86298: (Sim:2h27m48s) 
CPU  0 inst:  618000000 cyc:  411766976 now IPC :1.52418: AVG IPC :1.49956: L2-Pf-HR :0.97838: L2-HR :0.86300: (Sim:2h28m1s) 
CPU  0 inst:  619000003 cyc:  412424703 now IPC :1.52039: AVG IPC :1.49959: L2-Pf-HR :0.97836: L2-HR :0.86299: (Sim:2h28m13s) 
CPU  0 inst:  620000004 cyc:  413081294 now IPC :1.52302: AVG IPC :1.49963: L2-Pf-HR :0.97837: L2-HR :0.86301: (Sim:2h28m31s) 
CPU  0 inst:  621000003 cyc:  413739051 now IPC :1.52032: AVG IPC :1.49966: L2-Pf-HR :0.97839: L2-HR :0.86303: (Sim:2h28m50s) 
[...]
CPU  0 inst: 1195000003 cyc:  797435598 now IPC :1.53879: AVG IPC :1.49789: L2-Pf-HR :0.97880: L2-HR :0.86319: (Sim:4h20m30s) 
CPU  0 inst: 1196000005 cyc:  798086414 now IPC :1.53654: AVG IPC :1.49792: L2-Pf-HR :0.97880: L2-HR :0.86320: (Sim:4h20m38s) 
xz: 770-tot_memTraces_v5/120-subBillion_s2048_LLM_Arch/memTraces[1319000000]_FE_[Pythia-70M]_[h8]_[s2048]_[d64].champsim.9SSize.xz: Unexpected end of input
*** Reached end of trace for Core: 0 Repeating trace: 770-tot_memTraces_v5/120-subBillion_s2048_LLM_Arch/memTraces[1319000000]_FE_[Pythia-70M]_[h8]_[s2048]_[d64].champsim.9SSize.xz
CPU  0 inst: 1197000005 cyc:  798972034 now IPC :1.12915: AVG IPC :1.49751: L2-Pf-HR :0.97877: L2-HR :0.86316: (Sim:4h20m46s) 
CPU  0 inst: 1198000000 cyc:  799684100 now IPC :1.40436: AVG IPC :1.49743: L2-Pf-HR :0.97878: L2-HR :0.86315: (Sim:4h20m55s) 
CPU  0 inst: 1199000000 cyc:  800362684 now IPC :1.47366: AVG IPC :1.49740: L2-Pf-HR :0.97878: L2-HR :0.86315: (Sim:4h21m3s) 
CPU  0 inst: 1200000005 cyc:  801043761 now IPC :1.46827: AVG IPC :1.49738: L2-Pf-HR :0.97878: L2-HR :0.86315: (Sim:4h21m11s) 
CPU  0 inst: 1201000005 cyc:  801725395 now IPC :1.46706: AVG IPC :1.49735: L2-Pf-HR :0.97878: L2-HR :0.86316: (Sim:4h21m20s) 
CPU  0 inst: 1202000002 cyc:  802403236 now IPC :1.47527: AVG IPC :1.49734: L2-Pf-HR :0.97879: L2-HR :0.86316: (Sim:4h21m28s) 
CPU  0 inst: 1203000005 cyc:  803100110 now IPC :1.43498: AVG IPC :1.49728: L2-Pf-HR :0.97878: L2-HR :0.86316: (Sim:4h21m36s) 
CPU  0 inst: 1204000001 cyc:  803791609 now IPC :1.44613: AVG IPC :1.49724: L2-Pf-HR :0.97878: L2-HR :0.86316: (Sim:4h21m44s) 
CPU  0 inst: 1205000001 cyc:  804465261 now IPC :1.48445: AVG IPC :1.49723: L2-Pf-HR :0.97876: L2-HR :0.86314: (Sim:4h21m52s) 
CPU  0 inst: 1206000002 cyc:  805139274 now IPC :1.48365: AVG IPC :1.49722: L2-Pf-HR :0.97873: L2-HR :0.86313: (Sim:4h22m1s) 
CPU  0 inst: 1207000004 cyc:  805812282 now IPC :1.48587: AVG IPC :1.49721: L2-Pf-HR :0.97871: L2-HR :0.86312: (Sim:4h22m9s) 
CPU  0 inst: 1208000000 cyc:  806485604 now IPC :1.48517: AVG IPC :1.49720: L2-Pf-HR :0.97869: L2-HR :0.86311: (Sim:4h22m17s) 
CPU  0 inst: 1209000005 cyc:  807165908 now IPC :1.46994: AVG IPC :1.49717: L2-Pf-HR :0.97867: L2-HR :0.86309: (Sim:4h22m25s) 
CPU  0 inst: 1210000002 cyc:  807902247 now IPC :1.35807: AVG IPC :1.49705: L2-Pf-HR :0.97865: L2-HR :0.86308: (Sim:4h22m33s) 
CPU  0 inst: 1211000001 cyc:  808562611 now IPC :1.51431: AVG IPC :1.49706: L2-Pf-HR :0.97864: L2-HR :0.86307: (Sim:4h22m41s) 
CPU  0 inst: 1212000004 cyc:  809222381 now IPC :1.51568: AVG IPC :1.49708: L2-Pf-HR :0.97864: L2-HR :0.86308: (Sim:4h22m49s) 
CPU  0 inst: 1213000004 cyc:  809881154 now IPC :1.51797: AVG IPC :1.49709: L2-Pf-HR :0.97863: L2-HR :0.86308: (Sim:4h22m57s) 
CPU  0 inst: 1214000004 cyc:  810540812 now IPC :1.51594: AVG IPC :1.49711: L2-Pf-HR :0.97863: L2-HR :0.86308: (Sim:4h23m5s) 
CPU  0 inst: 1215000002 cyc:  811200222 now IPC :1.51650: AVG IPC :1.49712: L2-Pf-HR :0.97864: L2-HR :0.86309: (Sim:4h23m13s) 
CPU  0 inst: 1216000003 cyc:  811896005 now IPC :1.43723: AVG IPC :1.49707: L2-Pf-HR :0.97865: L2-HR :0.86310: (Sim:4h23m21s) 
CPU  0 inst: 1217000000 cyc:  812553107 now IPC :1.52183: AVG IPC :1.49709: L2-Pf-HR :0.97864: L2-HR :0.86310: (Sim:4h23m29s) 
CPU  0 inst: 1218000003 cyc:  813210567 now IPC :1.52101: AVG IPC :1.49711: L2-Pf-HR :0.97864: L2-HR :0.86310: (Sim:4h23m38s) 
CPU  0 inst: 1219000003 cyc:  813866887 now IPC :1.52365: AVG IPC :1.49713: L2-Pf-HR :0.97865: L2-HR :0.86311: (Sim:4h23m46s) 
CPU  0 inst: 1220000002 cyc:  814523160 now IPC :1.52375: AVG IPC :1.49715: L2-Pf-HR :0.97865: L2-HR :0.86312: (Sim:4h23m54s) 
CPU  0 inst: 1221000001 cyc:  815182885 now IPC :1.51578: AVG IPC :1.49717: L2-Pf-HR :0.97866: L2-HR :0.86313: (Sim:4h24m2s) 
CPU  0 inst: 1222000002 cyc:  815904912 now IPC :1.38499: AVG IPC :1.49707: L2-Pf-HR :0.97865: L2-HR :0.86312: (Sim:4h24m10s) 
CPU  0 inst: 1223000005 cyc:  816556796 now IPC :1.53402: AVG IPC :1.49710: L2-Pf-HR :0.97865: L2-HR :0.86313: (Sim:4h24m18s) 
CPU  0 inst: 1224000002 cyc:  817208584 now IPC :1.53424: AVG IPC :1.49713: L2-Pf-HR :0.97866: L2-HR :0.86313: (Sim:4h24m26s) 
CPU  0 inst: 1225000002 cyc:  817859612 now IPC :1.53603: AVG IPC :1.49716: L2-Pf-HR :0.97866: L2-HR :0.86314: (Sim:4h24m34s) 
CPU  0 inst: 1226000004 cyc:  818511197 now IPC :1.53472: AVG IPC :1.49719: L2-Pf-HR :0.97867: L2-HR :0.86314: (Sim:4h24m42s) 
CPU  0 inst: 1227000001 cyc:  819163484 now IPC :1.53306: AVG IPC :1.49722: L2-Pf-HR :0.97866: L2-HR :0.86315: (Sim:4h24m50s) 
CPU  0 inst: 1228000001 cyc:  819844749 now IPC :1.46786: AVG IPC :1.49719: L2-Pf-HR :0.97866: L2-HR :0.86315: (Sim:4h24m57s) 
CPU  0 inst: 1229000000 cyc:  820487299 now IPC :1.55630: AVG IPC :1.49724: L2-Pf-HR :0.97867: L2-HR :0.86316: (Sim:4h25m5s) 
CPU  0 inst: 1230000000 cyc:  821130716 now IPC :1.55420: AVG IPC :1.49729: L2-Pf-HR :0.97867: L2-HR :0.86317: (Sim:4h25m13s) 
CPU  0 inst: 1231000000 cyc:  821773265 now IPC :1.55630: AVG IPC :1.49733: L2-Pf-HR :0.97867: L2-HR :0.86318: (Sim:4h25m21s) 
CPU  0 inst: 1232000000 cyc:  822416510 now IPC :1.55462: AVG IPC :1.49738: L2-Pf-HR :0.97868: L2-HR :0.86319: (Sim:4h25m29s) 
CPU  0 inst: 1233000004 cyc:  823063318 now IPC :1.54606: AVG IPC :1.49741: L2-Pf-HR :0.97869: L2-HR :0.86319: (Sim:4h25m37s) 
CPU  0 inst: 1234000005 cyc:  823784112 now IPC :1.38736: AVG IPC :1.49732: L2-Pf-HR :0.97868: L2-HR :0.86319: (Sim:4h25m45s) 
CPU  0 inst: 1235000005 cyc:  824442314 now IPC :1.51929: AVG IPC :1.49734: L2-Pf-HR :0.97869: L2-HR :0.86320: (Sim:4h25m53s) 
CPU  0 inst: 1236000000 cyc:  825098775 now IPC :1.52331: AVG IPC :1.49736: L2-Pf-HR :0.97869: L2-HR :0.86320: (Sim:4h26m1s) 
CPU  0 inst: 1237000002 cyc:  825755736 now IPC :1.52216: AVG IPC :1.49738: L2-Pf-HR :0.97869: L2-HR :0.86321: (Sim:4h26m9s) 
CPU  0 inst: 1238000003 cyc:  826414482 now IPC :1.51804: AVG IPC :1.49739: L2-Pf-HR :0.97870: L2-HR :0.86322: (Sim:4h26m17s) 
CPU  0 inst: 1239000004 cyc:  827073667 now IPC :1.51703: AVG IPC :1.49741: L2-Pf-HR :0.97870: L2-HR :0.86323: (Sim:4h26m25s) 
CPU  0 inst: 1240000004 cyc:  827766118 now IPC :1.44415: AVG IPC :1.49736: L2-Pf-HR :0.97870: L2-HR :0.86323: (Sim:4h26m33s) 
CPU  0 inst: 1241000003 cyc:  828422437 now IPC :1.52365: AVG IPC :1.49738: L2-Pf-HR :0.97871: L2-HR :0.86324: (Sim:4h26m41s) 
CPU  0 inst: 1242000003 cyc:  829078725 now IPC :1.52372: AVG IPC :1.49741: L2-Pf-HR :0.97872: L2-HR :0.86325: (Sim:4h26m49s) 
CPU  0 inst: 1243000001 cyc:  829737062 now IPC :1.51898: AVG IPC :1.49742: L2-Pf-HR :0.97872: L2-HR :0.86325: (Sim:4h26m57s) 
CPU  0 inst: 1244000001 cyc:  830392549 now IPC :1.52558: AVG IPC :1.49744: L2-Pf-HR :0.97873: L2-HR :0.86326: (Sim:4h27m5s) 
CPU  0 inst: 1245000001 cyc:  831051815 now IPC :1.51684: AVG IPC :1.49746: L2-Pf-HR :0.97874: L2-HR :0.86327: (Sim:4h27m13s) 
CPU  0 inst: 1246000003 cyc:  831782696 now IPC :1.36821: AVG IPC :1.49735: L2-Pf-HR :0.97873: L2-HR :0.86327: (Sim:4h27m21s) 
CPU  0 inst: 1247000000 cyc:  832442495 now IPC :1.51561: AVG IPC :1.49736: L2-Pf-HR :0.97873: L2-HR :0.86327: (Sim:4h27m29s) 
CPU  0 inst: 1248000003 cyc:  833103335 now IPC :1.51323: AVG IPC :1.49737: L2-Pf-HR :0.97873: L2-HR :0.86328: (Sim:4h27m37s) 
CPU  0 inst: 1249000005 cyc:  833763133 now IPC :1.51562: AVG IPC :1.49739: L2-Pf-HR :0.97874: L2-HR :0.86329: (Sim:4h27m45s) 
CPU  0 inst: 1250000005 cyc:  834423406 now IPC :1.51453: AVG IPC :1.49740: L2-Pf-HR :0.97875: L2-HR :0.86329: (Sim:4h27m53s) 
CPU  0 inst: 1251000001 cyc:  835089353 now IPC :1.50162: AVG IPC :1.49741: L2-Pf-HR :0.97875: L2-HR :0.86330: (Sim:4h28m1s) 
CPU  0 inst: 1252000001 cyc:  835779038 now IPC :1.44994: AVG IPC :1.49737: L2-Pf-HR :0.97875: L2-HR :0.86330: (Sim:4h28m9s) 
CPU  0 inst: 1253000001 cyc:  836435833 now IPC :1.52255: AVG IPC :1.49739: L2-Pf-HR :0.97876: L2-HR :0.86331: (Sim:4h28m17s) 
CPU  0 inst: 1254000003 cyc:  837093630 now IPC :1.52023: AVG IPC :1.49740: L2-Pf-HR :0.97876: L2-HR :0.86332: (Sim:4h28m25s) 
CPU  0 inst: 1255000000 cyc:  837751014 now IPC :1.52118: AVG IPC :1.49742: L2-Pf-HR :0.97876: L2-HR :0.86332: (Sim:4h28m33s) 
CPU  0 inst: 1256000005 cyc:  838407062 now IPC :1.52429: AVG IPC :1.49744: L2-Pf-HR :0.97877: L2-HR :0.86334: (Sim:4h28m41s) 
CPU  0 inst: 1257000000 cyc:  839064401 now IPC :1.52128: AVG IPC :1.49746: L2-Pf-HR :0.97878: L2-HR :0.86334: (Sim:4h28m48s) 
CPU  0 inst: 1258000005 cyc:  839740017 now IPC :1.48014: AVG IPC :1.49745: L2-Pf-HR :0.97876: L2-HR :0.86330: (Sim:4h28m56s) 
CPU  0 inst: 1259000000 cyc:  840398911 now IPC :1.51769: AVG IPC :1.49746: L2-Pf-HR :0.97875: L2-HR :0.86324: (Sim:4h29m4s) 
CPU  0 inst: 1260000005 cyc:  841078372 now IPC :1.47176: AVG IPC :1.49744: L2-Pf-HR :0.97875: L2-HR :0.86320: (Sim:4h29m11s) 
CPU  0 inst: 1261000003 cyc:  841743846 now IPC :1.50269: AVG IPC :1.49745: L2-Pf-HR :0.97875: L2-HR :0.86315: (Sim:4h29m19s) 
CPU  0 inst: 1262000002 cyc:  842500578 now IPC :1.32147: AVG IPC :1.49729: L2-Pf-HR :0.97873: L2-HR :0.86312: (Sim:4h29m27s) 
CPU  0 inst: 1263000003 cyc:  843175742 now IPC :1.48112: AVG IPC :1.49728: L2-Pf-HR :0.97873: L2-HR :0.86311: (Sim:4h29m35s) 
CPU  0 inst: 1264000000 cyc:  843851190 now IPC :1.48049: AVG IPC :1.49726: L2-Pf-HR :0.97874: L2-HR :0.86311: (Sim:4h29m43s) 
CPU  0 inst: 1265000004 cyc:  844526128 now IPC :1.48162: AVG IPC :1.49725: L2-Pf-HR :0.97874: L2-HR :0.86312: (Sim:4h29m51s) 
CPU  0 inst: 1266000002 cyc:  845202265 now IPC :1.47899: AVG IPC :1.49724: L2-Pf-HR :0.97874: L2-HR :0.86312: (Sim:4h29m59s) 
CPU  0 inst: 1267000001 cyc:  845877271 now IPC :1.48147: AVG IPC :1.49722: L2-Pf-HR :0.97875: L2-HR :0.86312: (Sim:4h30m7s) 
CPU  0 inst: 1268000003 cyc:  846588999 now IPC :1.40503: AVG IPC :1.49715: L2-Pf-HR :0.97875: L2-HR :0.86312: (Sim:4h30m15s) 
CPU  0 inst: 1269000000 cyc:  847265346 now IPC :1.47853: AVG IPC :1.49713: L2-Pf-HR :0.97875: L2-HR :0.86312: (Sim:4h30m23s) 
CPU  0 inst: 1270000002 cyc:  847941745 now IPC :1.47842: AVG IPC :1.49712: L2-Pf-HR :0.97875: L2-HR :0.86312: (Sim:4h30m31s) 
CPU  0 inst: 1271000004 cyc:  848618935 now IPC :1.47669: AVG IPC :1.49710: L2-Pf-HR :0.97874: L2-HR :0.86312: (Sim:4h30m39s) 
CPU  0 inst: 1272000002 cyc:  849297407 now IPC :1.47390: AVG IPC :1.49708: L2-Pf-HR :0.97874: L2-HR :0.86311: (Sim:4h30m47s) 
CPU  0 inst: 1273000005 cyc:  849975610 now IPC :1.47449: AVG IPC :1.49706: L2-Pf-HR :0.97872: L2-HR :0.86311: (Sim:4h30m55s) 
CPU  0 inst: 1274000005 cyc:  850714281 now IPC :1.35378: AVG IPC :1.49694: L2-Pf-HR :0.97869: L2-HR :0.86309: (Sim:4h31m3s) 
CPU  0 inst: 1275000000 cyc:  851371783 now IPC :1.52090: AVG IPC :1.49696: L2-Pf-HR :0.97869: L2-HR :0.86309: (Sim:4h31m11s) 
CPU  0 inst: 1276000000 cyc:  852029669 now IPC :1.52002: AVG IPC :1.49697: L2-Pf-HR :0.97869: L2-HR :0.86309: (Sim:4h31m19s) 
CPU  0 inst: 1277000000 cyc:  852688267 now IPC :1.51838: AVG IPC :1.49699: L2-Pf-HR :0.97869: L2-HR :0.86309: (Sim:4h31m27s) 
CPU  0 inst: 1278000003 cyc:  853346570 now IPC :1.51906: AVG IPC :1.49701: L2-Pf-HR :0.97869: L2-HR :0.86309: (Sim:4h31m35s) 
CPU  0 inst: 1279000003 cyc:  854007035 now IPC :1.51408: AVG IPC :1.49702: L2-Pf-HR :0.97868: L2-HR :0.86309: (Sim:4h31m43s) 
CPU  0 inst: 1280000003 cyc:  854692860 now IPC :1.45810: AVG IPC :1.49699: L2-Pf-HR :0.97868: L2-HR :0.86310: (Sim:4h31m51s) 
CPU  0 inst: 1281000003 cyc:  855338933 now IPC :1.54781: AVG IPC :1.49703: L2-Pf-HR :0.97868: L2-HR :0.86310: (Sim:4h31m58s) 
CPU  0 inst: 1282000002 cyc:  855983459 now IPC :1.55153: AVG IPC :1.49707: L2-Pf-HR :0.97869: L2-HR :0.86311: (Sim:4h32m6s) 
CPU  0 inst: 1283000001 cyc:  856628113 now IPC :1.55122: AVG IPC :1.49711: L2-Pf-HR :0.97868: L2-HR :0.86311: (Sim:4h32m14s) 
CPU  0 inst: 1284000002 cyc:  857273715 now IPC :1.54894: AVG IPC :1.49715: L2-Pf-HR :0.97869: L2-HR :0.86312: (Sim:4h32m22s) 
CPU  0 inst: 1285000002 cyc:  857918189 now IPC :1.55165: AVG IPC :1.49719: L2-Pf-HR :0.97870: L2-HR :0.86313: (Sim:4h32m30s) 
CPU  0 inst: 1286000000 cyc:  858643923 now IPC :1.37791: AVG IPC :1.49709: L2-Pf-HR :0.97868: L2-HR :0.86312: (Sim:4h32m38s) 
CPU  0 inst: 1287000000 cyc:  859296513 now IPC :1.53236: AVG IPC :1.49712: L2-Pf-HR :0.97869: L2-HR :0.86313: (Sim:4h32m46s) 
CPU  0 inst: 1288000002 cyc:  859950457 now IPC :1.52919: AVG IPC :1.49714: L2-Pf-HR :0.97869: L2-HR :0.86313: (Sim:4h32m54s) 
CPU  0 inst: 1289000005 cyc:  860603713 now IPC :1.53080: AVG IPC :1.49717: L2-Pf-HR :0.97869: L2-HR :0.86313: (Sim:4h33m1s) 
CPU  0 inst: 1290000000 cyc:  861255393 now IPC :1.53449: AVG IPC :1.49719: L2-Pf-HR :0.97869: L2-HR :0.86314: (Sim:4h33m9s) 
CPU  0 inst: 1291000001 cyc:  861909162 now IPC :1.52959: AVG IPC :1.49722: L2-Pf-HR :0.97869: L2-HR :0.86314: (Sim:4h33m17s) 
CPU  0 inst: 1292000004 cyc:  862603579 now IPC :1.44006: AVG IPC :1.49717: L2-Pf-HR :0.97870: L2-HR :0.86315: (Sim:4h33m25s) 
CPU  0 inst: 1293000004 cyc:  863261189 now IPC :1.52066: AVG IPC :1.49719: L2-Pf-HR :0.97870: L2-HR :0.86316: (Sim:4h33m33s) 
CPU  0 inst: 1294000003 cyc:  863920135 now IPC :1.51757: AVG IPC :1.49721: L2-Pf-HR :0.97871: L2-HR :0.86317: (Sim:4h33m41s) 
CPU  0 inst: 1295000005 cyc:  864577067 now IPC :1.52223: AVG IPC :1.49723: L2-Pf-HR :0.97871: L2-HR :0.86317: (Sim:4h33m49s) 
CPU  0 inst: 1296000005 cyc:  865233645 now IPC :1.52305: AVG IPC :1.49725: L2-Pf-HR :0.97871: L2-HR :0.86318: (Sim:4h33m57s) 
CPU  0 inst: 1297000003 cyc:  865886766 now IPC :1.53111: AVG IPC :1.49727: L2-Pf-HR :0.97872: L2-HR :0.86319: (Sim:4h34m5s) 
CPU  0 inst: 1298000002 cyc:  866600919 now IPC :1.40026: AVG IPC :1.49719: L2-Pf-HR :0.97870: L2-HR :0.86318: (Sim:4h34m13s) 
CPU  0 inst: 1299000004 cyc:  867260654 now IPC :1.51576: AVG IPC :1.49720: L2-Pf-HR :0.97871: L2-HR :0.86319: (Sim:4h34m21s) 
CPU  0 inst: 1300000005 cyc:  867918795 now IPC :1.51943: AVG IPC :1.49722: L2-Pf-HR :0.97872: L2-HR :0.86319: (Sim:4h34m29s) 
CPU  0 inst: 1301000005 cyc:  868577508 now IPC :1.51811: AVG IPC :1.49724: L2-Pf-HR :0.97872: L2-HR :0.86320: (Sim:4h34m37s) 
CPU  0 inst: 1302000000 cyc:  869236311 now IPC :1.51790: AVG IPC :1.49725: L2-Pf-HR :0.97873: L2-HR :0.86321: (Sim:4h34m45s) 
CPU  0 inst: 1303000000 cyc:  869893132 now IPC :1.52248: AVG IPC :1.49727: L2-Pf-HR :0.97873: L2-HR :0.86321: (Sim:4h34m52s) 
CPU  0 inst: 1304000000 cyc:  870588086 now IPC :1.43894: AVG IPC :1.49723: L2-Pf-HR :0.97873: L2-HR :0.86322: (Sim:4h35m0s) 
CPU  0 inst: 1305000005 cyc:  871245827 now IPC :1.52036: AVG IPC :1.49724: L2-Pf-HR :0.97874: L2-HR :0.86323: (Sim:4h35m8s) 
CPU  0 inst: 1306000003 cyc:  871903496 now IPC :1.52052: AVG IPC :1.49726: L2-Pf-HR :0.97875: L2-HR :0.86324: (Sim:4h35m16s) 
CPU  0 inst: 1307000003 cyc:  872560404 now IPC :1.52228: AVG IPC :1.49728: L2-Pf-HR :0.97875: L2-HR :0.86325: (Sim:4h35m24s) 
CPU  0 inst: 1308000001 cyc:  873218438 now IPC :1.51968: AVG IPC :1.49730: L2-Pf-HR :0.97876: L2-HR :0.86325: (Sim:4h35m32s) 
CPU  0 inst: 1309000004 cyc:  873874951 now IPC :1.52320: AVG IPC :1.49732: L2-Pf-HR :0.97876: L2-HR :0.86326: (Sim:4h35m40s) 
CPU  0 inst: 1310000000 cyc:  874600177 now IPC :1.37888: AVG IPC :1.49722: L2-Pf-HR :0.97875: L2-HR :0.86326: (Sim:4h35m49s) 
CPU  0 inst: 1311000002 cyc:  875245566 now IPC :1.54946: AVG IPC :1.49726: L2-Pf-HR :0.97876: L2-HR :0.86326: (Sim:4h35m57s) 
CPU  0 inst: 1312000002 cyc:  875890823 now IPC :1.54977: AVG IPC :1.49729: L2-Pf-HR :0.97876: L2-HR :0.86326: (Sim:4h36m5s) 
CPU  0 inst: 1313000002 cyc:  876535955 now IPC :1.55007: AVG IPC :1.49733: L2-Pf-HR :0.97877: L2-HR :0.86327: (Sim:4h36m13s) 
CPU  0 inst: 1314000002 cyc:  877181326 now IPC :1.54950: AVG IPC :1.49737: L2-Pf-HR :0.97877: L2-HR :0.86328: (Sim:4h36m21s) 
CPU  0 inst: 1315000000 cyc:  877826793 now IPC :1.54926: AVG IPC :1.49741: L2-Pf-HR :0.97877: L2-HR :0.86328: (Sim:4h36m29s) 
CPU  0 inst: 1316000001 cyc:  878517529 now IPC :1.44773: AVG IPC :1.49737: L2-Pf-HR :0.97877: L2-HR :0.86329: (Sim:4h36m37s) 
Finished CPU 0 instr: 1314000002 cyc: 877537846 AVG IPC: 1.49737 (Sim time: 4h36m37s)

ChampSim completed all CPUs

[ROI Statistics]
Core_0_instructions 1314000002
Core_0_cycles 877537846
Core_0_IPC 1.49737

Core_0_branch_prediction_accuracy 99.93053
Core_0_branch_MPKI 0.00971
Core_0_average_ROB_occupancy_at_mispredict 550.09064

Core_0_L1D_total_access 327083553
Core_0_L1D_total_hit 302981278 L1D_total_Hit Ratio: 0.92631
Core_0_L1D_total_miss 24102275
Core_0_L1D_loads 294332495
Core_0_L1D_load_hit 285479847 L1D_load_Hit Ratio: 0.96992
Core_0_L1D_load_miss 8852648
Core_0_L1D_RFOs 11880446
Core_0_L1D_RFO_hit 11874951 L1D_RFO_Hit Ratio: 0.99954
Core_0_L1D_RFO_miss 5495
Core_0_L1D_prefetches 20870612
Core_0_L1D_prefetch_hit 5626480 L1D_prefetch_Hit Ratio: 0.26959
Core_0_L1D_prefetch_miss 15244132
Core_0_L1D_writebacks 0
Core_0_L1D_writeback_hit 0 L1D_writeback_Hit Ratio: -nan
Core_0_L1D_writeback_miss 0
Core_0_L1D_prefetch_requested 25757033
Core_0_L1D_prefetch_issued 24689319
Core_0_L1D_prefetch_useful 15234217 L1D_Useful Ratio: 0.61704
Core_0_L1D_prefetch_useless 37143
Core_0_L1D_prefetch_late 675414
Core_0_L1D_average_miss_latency 12283281.43410

Core_0_L1I_total_access 160076679
Core_0_L1I_total_hit 160074199 L1I_total_Hit Ratio: 0.99998
Core_0_L1I_total_miss 2480
Core_0_L1I_loads 160076679
Core_0_L1I_load_hit 160074199 L1I_load_Hit Ratio: 0.99998
Core_0_L1I_load_miss 2480
Core_0_L1I_RFOs 0
Core_0_L1I_RFO_hit 0 L1I_RFO_Hit Ratio: -nan
Core_0_L1I_RFO_miss 0
Core_0_L1I_prefetches 0
Core_0_L1I_prefetch_hit 0 L1I_prefetch_Hit Ratio: -nan
Core_0_L1I_prefetch_miss 0
Core_0_L1I_writebacks 0
Core_0_L1I_writeback_hit 0 L1I_writeback_Hit Ratio: -nan
Core_0_L1I_writeback_miss 0
Core_0_L1I_prefetch_requested 0
Core_0_L1I_prefetch_issued 0
Core_0_L1I_prefetch_useful 0 L1I_Useful Ratio: -nan
Core_0_L1I_prefetch_useless 0
Core_0_L1I_prefetch_late 0
Core_0_L1I_average_miss_latency 310.63750

Core_0_L2C_total_access 43943643
Core_0_L2C_total_hit 37936010 L2C_total_Hit Ratio: 0.86329
Core_0_L2C_total_miss 6007633
Core_0_L2C_loads 8180543
Core_0_L2C_load_hit 2772343 L2C_load_Hit Ratio: 0.33889
Core_0_L2C_load_miss 5408200
Core_0_L2C_RFOs 5469
Core_0_L2C_RFO_hit 4900 L2C_RFO_Hit Ratio: 0.89596
Core_0_L2C_RFO_miss 569
Core_0_L2C_prefetches 28213601
Core_0_L2C_prefetch_hit 27614737 L2C_prefetch_Hit Ratio: 0.97877
Core_0_L2C_prefetch_miss 598864
Core_0_L2C_writebacks 7544030
Core_0_L2C_writeback_hit 7544030 L2C_writeback_Hit Ratio: 1.00000
Core_0_L2C_writeback_miss 0
Core_0_L2C_prefetch_requested 22694454
Core_0_L2C_prefetch_issued 16086969
Core_0_L2C_prefetch_useful 316499 L2C_Useful Ratio: 0.01967
Core_0_L2C_prefetch_useless 287339
Core_0_L2C_prefetch_late 33753
Core_0_L2C_average_miss_latency 289.41450

Core_0_LLC_total_access 11448086
Core_0_LLC_total_hit 5625217 LLC_total_Hit Ratio: 0.49137
Core_0_LLC_total_miss 5822869
Core_0_LLC_loads 5374546
Core_0_LLC_load_hit 19716 LLC_load_Hit Ratio: 0.00367
Core_0_LLC_load_miss 5354830
Core_0_LLC_RFOs 569
Core_0_LLC_RFO_hit 31 LLC_RFO_Hit Ratio: 0.05448
Core_0_LLC_RFO_miss 538
Core_0_LLC_prefetches 632518
Core_0_LLC_prefetch_hit 234986 LLC_prefetch_Hit Ratio: 0.37151
Core_0_LLC_prefetch_miss 397532
Core_0_LLC_writebacks 5440453
Core_0_LLC_writeback_hit 5370484 LLC_writeback_Hit Ratio: 0.98714
Core_0_LLC_writeback_miss 69969
Core_0_LLC_prefetch_requested 0
Core_0_LLC_prefetch_issued 0
Core_0_LLC_prefetch_useful 563 LLC_Useful Ratio: inf
Core_0_LLC_prefetch_useless 399009
Core_0_LLC_prefetch_late 0
Core_0_LLC_average_miss_latency 257.92110

Core_0_major_page_fault 0
Core_0_minor_page_fault 21513

CPU 0 L1D berti prefetcher final stats
CPU 0 L2C berti prefetcher final stats
Channel_0_RQ_row_buffer_hit 3964203
Channel_0_RQ_row_buffer_miss 1788697
Channel_0_WQ_row_buffer_hit 2002067
Channel_0_WQ_row_buffer_miss 3333738
Channel_0_WQ_full 6362
Channel_0_dbus_congested 1414724

avg_congested_cycle 8

EzSearch AVG IPC :1.49737: L2-Pf-HR :0.97877 : L2-HR :0.86329 Uful:0.01967
     > Finished combination: TraceType=770-tot Sim:1314000000 Prefetcher=L2berti_concurso L1=berti_concurso
