TRACE: [2639000000]_FE_[OPT-350M]_[h16]_[s2048]_[d64] Warmup: 2000000 NumTraces: 2639000000
L1:berti_concurso:L2:berti_concurso
*************************************************
   ChampSim Multicore Out-of-Order Simulator
   Last compiled: Oct 30 2024 21:57:17
*************************************************

trace_0 770-tot_memTraces_v5/120-subBillion_s2048_LLM_Arch/memTraces[2639000000]_FE_[OPT-350M]_[h16]_[s2048]_[d64].champsim.9.xz
CPU 0 L1D Berti prefetcher
CPU 0 L2C Berti prefetcher
MAIN.cc ln 751 stats print skipped
CPU  0 inst:    1000000 cyc:     497262 now IPC :2.01101: AVG IPC :2.01101: L2-Pf-HR :0.76438: L2-HR :0.71959: (Sim:0h0m8s) 
CPU  0 inst:    2000001 cyc:     979092 now IPC :2.07542: AVG IPC :2.04271: L2-Pf-HR :0.81518: L2-HR :0.77847: (Sim:0h0m17s) 

Warmup complete CPU  0 instructions:    2000001 cycles:     979092 (Simulation time: 0 hr 0 min 17 sec) 

CPU  0 inst:    3000001 cyc:    1595335 now IPC :1.62274: AVG IPC :1.62274: L2-Pf-HR :0.94367: L2-HR :0.85014: (Sim:0h0m24s) 
CPU  0 inst:    4000004 cyc:    2219426 now IPC :1.60234: AVG IPC :1.61247: L2-Pf-HR :0.94686: L2-HR :0.84719: (Sim:0h0m31s) 
CPU  0 inst:    5000005 cyc:    2839483 now IPC :1.61276: AVG IPC :1.61257: L2-Pf-HR :0.94826: L2-HR :0.84852: (Sim:0h0m39s) 
CPU  0 inst:    6000000 cyc:    3462937 now IPC :1.60396: AVG IPC :1.61041: L2-Pf-HR :0.94884: L2-HR :0.84735: (Sim:0h0m46s) 
CPU  0 inst:    7000000 cyc:    4120199 now IPC :1.52146: AVG IPC :1.59180: L2-Pf-HR :0.94914: L2-HR :0.84764: (Sim:0h0m54s) 
CPU  0 inst:    8000003 cyc:    4743035 now IPC :1.60556: AVG IPC :1.59407: L2-Pf-HR :0.94951: L2-HR :0.84743: (Sim:0h1m1s) 
CPU  0 inst:    9000005 cyc:    5365254 now IPC :1.60715: AVG IPC :1.59593: L2-Pf-HR :0.95032: L2-HR :0.84761: (Sim:0h1m9s) 
CPU  0 inst:   10000004 cyc:    5989532 now IPC :1.60185: AVG IPC :1.59667: L2-Pf-HR :0.95031: L2-HR :0.84752: (Sim:0h1m16s) 
CPU  0 inst:   11000002 cyc:    6611261 now IPC :1.60841: AVG IPC :1.59796: L2-Pf-HR :0.95037: L2-HR :0.84759: (Sim:0h1m24s) 
CPU  0 inst:   12000003 cyc:    7232865 now IPC :1.60874: AVG IPC :1.59904: L2-Pf-HR :0.95044: L2-HR :0.84754: (Sim:0h1m31s) 
CPU  0 inst:   13000001 cyc:    7885881 now IPC :1.53135: AVG IPC :1.59264: L2-Pf-HR :0.95034: L2-HR :0.84690: (Sim:0h1m39s) 
CPU  0 inst:   14000001 cyc:    8478537 now IPC :1.68732: AVG IPC :1.60012: L2-Pf-HR :0.95160: L2-HR :0.84790: (Sim:0h1m47s) 
CPU  0 inst:   15000004 cyc:    9072426 now IPC :1.68382: AVG IPC :1.60626: L2-Pf-HR :0.95357: L2-HR :0.84889: (Sim:0h1m54s) 
CPU  0 inst:   16000005 cyc:    9664940 now IPC :1.68773: AVG IPC :1.61182: L2-Pf-HR :0.95540: L2-HR :0.85052: (Sim:0h2m2s) 
CPU  0 inst:   17000005 cyc:   10257495 now IPC :1.68761: AVG IPC :1.61666: L2-Pf-HR :0.95638: L2-HR :0.85131: (Sim:0h2m9s) 
CPU  0 inst:   18000005 cyc:   10850487 now IPC :1.68636: AVG IPC :1.62085: L2-Pf-HR :0.95840: L2-HR :0.85273: (Sim:0h2m17s) 
CPU  0 inst:   19000004 cyc:   11484085 now IPC :1.57829: AVG IPC :1.61828: L2-Pf-HR :0.96020: L2-HR :0.85425: (Sim:0h2m24s) 
CPU  0 inst:   20000002 cyc:   12082256 now IPC :1.67176: AVG IPC :1.62116: L2-Pf-HR :0.96099: L2-HR :0.85455: (Sim:0h2m31s) 
CPU  0 inst:   21000005 cyc:   12678178 now IPC :1.67808: AVG IPC :1.62406: L2-Pf-HR :0.96158: L2-HR :0.85536: (Sim:0h2m39s) 
CPU  0 inst:   22000002 cyc:   13275243 now IPC :1.67485: AVG IPC :1.62653: L2-Pf-HR :0.96293: L2-HR :0.85622: (Sim:0h2m47s) 
CPU  0 inst:   23000001 cyc:   13869603 now IPC :1.68248: AVG IPC :1.62911: L2-Pf-HR :0.96384: L2-HR :0.85699: (Sim:0h2m54s) 
CPU  0 inst:   24000003 cyc:   14463458 now IPC :1.68392: AVG IPC :1.63152: L2-Pf-HR :0.96483: L2-HR :0.85775: (Sim:0h3m2s) 
CPU  0 inst:   25000003 cyc:   15135619 now IPC :1.48774: AVG IPC :1.62469: L2-Pf-HR :0.96485: L2-HR :0.85754: (Sim:0h3m10s) 
CPU  0 inst:   26000001 cyc:   15763589 now IPC :1.59243: AVG IPC :1.62332: L2-Pf-HR :0.96563: L2-HR :0.85810: (Sim:0h3m18s) 
CPU  0 inst:   27000001 cyc:   16390516 now IPC :1.59508: AVG IPC :1.62217: L2-Pf-HR :0.96639: L2-HR :0.85840: (Sim:0h3m26s) 
CPU  0 inst:   28000001 cyc:   17017200 now IPC :1.59570: AVG IPC :1.62114: L2-Pf-HR :0.96718: L2-HR :0.85901: (Sim:0h3m34s) 
CPU  0 inst:   29000000 cyc:   17642818 now IPC :1.59842: AVG IPC :1.62029: L2-Pf-HR :0.96782: L2-HR :0.85951: (Sim:0h3m42s) 
CPU  0 inst:   30000001 cyc:   18269176 now IPC :1.59653: AVG IPC :1.61943: L2-Pf-HR :0.96802: L2-HR :0.85960: (Sim:0h3m50s) 
CPU  0 inst:   31000000 cyc:   18952045 now IPC :1.46441: AVG IPC :1.61354: L2-Pf-HR :0.96820: L2-HR :0.85996: (Sim:0h3m58s) 
CPU  0 inst:   32000001 cyc:   19603865 now IPC :1.53417: AVG IPC :1.61076: L2-Pf-HR :0.96882: L2-HR :0.86027: (Sim:0h4m6s) 
CPU  0 inst:   33000002 cyc:   20253912 now IPC :1.53835: AVG IPC :1.60832: L2-Pf-HR :0.96950: L2-HR :0.86086: (Sim:0h4m14s) 
CPU  0 inst:   34000005 cyc:   20904948 now IPC :1.53602: AVG IPC :1.60595: L2-Pf-HR :0.96960: L2-HR :0.86093: (Sim:0h4m22s) 
CPU  0 inst:   35000005 cyc:   21556822 now IPC :1.53404: AVG IPC :1.60368: L2-Pf-HR :0.97003: L2-HR :0.86131: (Sim:0h4m30s) 
CPU  0 inst:   36000002 cyc:   22208717 now IPC :1.53398: AVG IPC :1.60154: L2-Pf-HR :0.97053: L2-HR :0.86180: (Sim:0h4m38s) 
CPU  0 inst:   37000002 cyc:   22925893 now IPC :1.39436: AVG IPC :1.59477: L2-Pf-HR :0.97032: L2-HR :0.86157: (Sim:0h4m46s) 
CPU  0 inst:   38000000 cyc:   23583846 now IPC :1.51986: AVG IPC :1.59259: L2-Pf-HR :0.97075: L2-HR :0.86183: (Sim:0h4m54s) 
CPU  0 inst:   39000000 cyc:   24242155 now IPC :1.51904: AVG IPC :1.59050: L2-Pf-HR :0.97102: L2-HR :0.86192: (Sim:0h5m2s) 
CPU  0 inst:   40000003 cyc:   24900381 now IPC :1.51924: AVG IPC :1.58854: L2-Pf-HR :0.97138: L2-HR :0.86220: (Sim:0h5m10s) 
CPU  0 inst:   41000000 cyc:   25559404 now IPC :1.51739: AVG IPC :1.58664: L2-Pf-HR :0.97186: L2-HR :0.86260: (Sim:0h5m18s) 
CPU  0 inst:   42000002 cyc:   26216454 now IPC :1.52196: AVG IPC :1.58495: L2-Pf-HR :0.97201: L2-HR :0.86269: (Sim:0h5m26s) 
CPU  0 inst:   43000003 cyc:   26909852 now IPC :1.44217: AVG IPC :1.58113: L2-Pf-HR :0.97221: L2-HR :0.86297: (Sim:0h5m34s) 
CPU  0 inst:   44000000 cyc:   27565897 now IPC :1.52428: AVG IPC :1.57973: L2-Pf-HR :0.97242: L2-HR :0.86307: (Sim:0h5m42s) 
CPU  0 inst:   45000003 cyc:   28221274 now IPC :1.52584: AVG IPC :1.57843: L2-Pf-HR :0.97286: L2-HR :0.86344: (Sim:0h5m50s) 
CPU  0 inst:   46000004 cyc:   28877210 now IPC :1.52454: AVG IPC :1.57717: L2-Pf-HR :0.97297: L2-HR :0.86356: (Sim:0h5m58s) 
CPU  0 inst:   47000000 cyc:   29533790 now IPC :1.52304: AVG IPC :1.57592: L2-Pf-HR :0.97320: L2-HR :0.86372: (Sim:0h6m8s) 
CPU  0 inst:   48000003 cyc:   30189673 now IPC :1.52467: AVG IPC :1.57477: L2-Pf-HR :0.97360: L2-HR :0.86409: (Sim:0h6m16s) 
CPU  0 inst:   49000005 cyc:   30924299 now IPC :1.36124: AVG IPC :1.56953: L2-Pf-HR :0.97338: L2-HR :0.86383: (Sim:0h6m24s) 
CPU  0 inst:   50000002 cyc:   31584010 now IPC :1.51581: AVG IPC :1.56838: L2-Pf-HR :0.97374: L2-HR :0.86403: (Sim:0h6m32s) 
CPU  0 inst:   51000000 cyc:   32243305 now IPC :1.51677: AVG IPC :1.56729: L2-Pf-HR :0.97385: L2-HR :0.86409: (Sim:0h6m40s) 
CPU  0 inst:   52000002 cyc:   32903367 now IPC :1.51501: AVG IPC :1.56621: L2-Pf-HR :0.97400: L2-HR :0.86419: (Sim:0h6m48s) 
CPU  0 inst:   53000004 cyc:   33562561 now IPC :1.51701: AVG IPC :1.56521: L2-Pf-HR :0.97427: L2-HR :0.86446: (Sim:0h6m59s) 
CPU  0 inst:   54000005 cyc:   34222022 now IPC :1.51639: AVG IPC :1.56424: L2-Pf-HR :0.97439: L2-HR :0.86448: (Sim:0h7m7s) 
CPU  0 inst:   55000000 cyc:   34917217 now IPC :1.43844: AVG IPC :1.56167: L2-Pf-HR :0.97452: L2-HR :0.86468: (Sim:0h7m15s) 
CPU  0 inst:   56000002 cyc:   35575017 now IPC :1.52022: AVG IPC :1.56088: L2-Pf-HR :0.97466: L2-HR :0.86474: (Sim:0h7m23s) 
CPU  0 inst:   57000000 cyc:   36232279 now IPC :1.52146: AVG IPC :1.56014: L2-Pf-HR :0.97494: L2-HR :0.86497: (Sim:0h7m31s) 
CPU  0 inst:   58000000 cyc:   36889241 now IPC :1.52216: AVG IPC :1.55945: L2-Pf-HR :0.97499: L2-HR :0.86505: (Sim:0h7m39s) 
CPU  0 inst:   59000005 cyc:   37546988 now IPC :1.52035: AVG IPC :1.55874: L2-Pf-HR :0.97512: L2-HR :0.86512: (Sim:0h7m47s) 
CPU  0 inst:   60000002 cyc:   38203564 now IPC :1.52305: AVG IPC :1.55811: L2-Pf-HR :0.97533: L2-HR :0.86536: (Sim:0h7m55s) 
CPU  0 inst:   61000005 cyc:   38884463 now IPC :1.46865: AVG IPC :1.55651: L2-Pf-HR :0.97514: L2-HR :0.86451: (Sim:0h8m3s) 
CPU  0 inst:   62000001 cyc:   39546421 now IPC :1.51066: AVG IPC :1.55572: L2-Pf-HR :0.97492: L2-HR :0.86340: (Sim:0h8m11s) 
CPU  0 inst:   63000001 cyc:   40218163 now IPC :1.48867: AVG IPC :1.55457: L2-Pf-HR :0.97487: L2-HR :0.86239: (Sim:0h8m19s) 
CPU  0 inst:   64000000 cyc:   40876247 now IPC :1.51956: AVG IPC :1.55400: L2-Pf-HR :0.97485: L2-HR :0.86141: (Sim:0h8m27s) 
CPU  0 inst:   65000001 cyc:   41634647 now IPC :1.31857: AVG IPC :1.54960: L2-Pf-HR :0.97453: L2-HR :0.86065: (Sim:0h8m35s) 
CPU  0 inst:   66000003 cyc:   42306006 now IPC :1.48952: AVG IPC :1.54863: L2-Pf-HR :0.97460: L2-HR :0.86062: (Sim:0h8m43s) 
CPU  0 inst:   67000003 cyc:   42981056 now IPC :1.48137: AVG IPC :1.54755: L2-Pf-HR :0.97464: L2-HR :0.86059: (Sim:0h8m51s) 
CPU  0 inst:   68000000 cyc:   43654413 now IPC :1.48509: AVG IPC :1.54656: L2-Pf-HR :0.97473: L2-HR :0.86070: (Sim:0h9m0s) 
CPU  0 inst:   69000000 cyc:   44327980 now IPC :1.48463: AVG IPC :1.54560: L2-Pf-HR :0.97482: L2-HR :0.86077: (Sim:0h9m9s) 
CPU  0 inst:   70000003 cyc:   45001711 now IPC :1.48428: AVG IPC :1.54466: L2-Pf-HR :0.97489: L2-HR :0.86083: (Sim:0h9m26s) 
CPU  0 inst:   71000003 cyc:   45712622 now IPC :1.40665: AVG IPC :1.54247: L2-Pf-HR :0.97494: L2-HR :0.86089: (Sim:0h9m46s) 
CPU  0 inst:   72000004 cyc:   46385427 now IPC :1.48632: AVG IPC :1.54164: L2-Pf-HR :0.97498: L2-HR :0.86090: (Sim:0h10m5s) 
CPU  0 inst:   73000002 cyc:   47060908 now IPC :1.48042: AVG IPC :1.54074: L2-Pf-HR :0.97499: L2-HR :0.86092: (Sim:0h10m24s) 
CPU  0 inst:   74000001 cyc:   47736936 now IPC :1.47923: AVG IPC :1.53985: L2-Pf-HR :0.97492: L2-HR :0.86086: (Sim:0h10m43s) 
CPU  0 inst:   75000001 cyc:   48411572 now IPC :1.48228: AVG IPC :1.53903: L2-Pf-HR :0.97486: L2-HR :0.86089: (Sim:0h10m52s) 
CPU  0 inst:   76000000 cyc:   49088718 now IPC :1.47678: AVG IPC :1.53815: L2-Pf-HR :0.97466: L2-HR :0.86074: (Sim:0h11m1s) 
CPU  0 inst:   77000002 cyc:   49828844 now IPC :1.35112: AVG IPC :1.53532: L2-Pf-HR :0.97410: L2-HR :0.86046: (Sim:0h11m19s) 
CPU  0 inst:   78000000 cyc:   50487279 now IPC :1.51875: AVG IPC :1.53510: L2-Pf-HR :0.97422: L2-HR :0.86049: (Sim:0h11m35s) 
CPU  0 inst:   79000000 cyc:   51144954 now IPC :1.52051: AVG IPC :1.53491: L2-Pf-HR :0.97426: L2-HR :0.86055: (Sim:0h11m47s) 
CPU  0 inst:   80000005 cyc:   51803262 now IPC :1.51905: AVG IPC :1.53470: L2-Pf-HR :0.97432: L2-HR :0.86065: (Sim:0h12m4s) 
CPU  0 inst:   81000004 cyc:   52461850 now IPC :1.51840: AVG IPC :1.53449: L2-Pf-HR :0.97437: L2-HR :0.86074: (Sim:0h12m12s) 
CPU  0 inst:   82000002 cyc:   53120725 now IPC :1.51774: AVG IPC :1.53428: L2-Pf-HR :0.97430: L2-HR :0.86082: (Sim:0h12m21s) 
CPU  0 inst:   83000000 cyc:   53818469 now IPC :1.43319: AVG IPC :1.53295: L2-Pf-HR :0.97435: L2-HR :0.86085: (Sim:0h12m29s) 
CPU  0 inst:   84000003 cyc:   54477370 now IPC :1.51768: AVG IPC :1.53276: L2-Pf-HR :0.97442: L2-HR :0.86100: (Sim:0h12m38s) 
CPU  0 inst:   85000004 cyc:   55136525 now IPC :1.51710: AVG IPC :1.53257: L2-Pf-HR :0.97452: L2-HR :0.86109: (Sim:0h12m46s) 
CPU  0 inst:   86000001 cyc:   55795512 now IPC :1.51748: AVG IPC :1.53239: L2-Pf-HR :0.97454: L2-HR :0.86116: (Sim:0h12m54s) 
CPU  0 inst:   87000000 cyc:   56453844 now IPC :1.51899: AVG IPC :1.53223: L2-Pf-HR :0.97463: L2-HR :0.86128: (Sim:0h13m3s) 
CPU  0 inst:   88000001 cyc:   57113325 now IPC :1.51635: AVG IPC :1.53204: L2-Pf-HR :0.97479: L2-HR :0.86142: (Sim:0h13m11s) 
CPU  0 inst:   89000002 cyc:   57842078 now IPC :1.37221: AVG IPC :1.52999: L2-Pf-HR :0.97462: L2-HR :0.86140: (Sim:0h13m20s) 
CPU  0 inst:   90000002 cyc:   58495222 now IPC :1.53106: AVG IPC :1.53001: L2-Pf-HR :0.97473: L2-HR :0.86143: (Sim:0h13m32s) 
CPU  0 inst:   91000000 cyc:   59149149 now IPC :1.52922: AVG IPC :1.53000: L2-Pf-HR :0.97482: L2-HR :0.86149: (Sim:0h13m51s) 
CPU  0 inst:   92000002 cyc:   59802935 now IPC :1.52956: AVG IPC :1.52999: L2-Pf-HR :0.97488: L2-HR :0.86162: (Sim:0h14m10s) 
CPU  0 inst:   93000004 cyc:   60456543 now IPC :1.52997: AVG IPC :1.52999: L2-Pf-HR :0.97504: L2-HR :0.86175: (Sim:0h14m29s) 
CPU  0 inst:   94000000 cyc:   61109156 now IPC :1.53230: AVG IPC :1.53002: L2-Pf-HR :0.97507: L2-HR :0.86186: (Sim:0h14m48s) 
CPU  0 inst:   95000000 cyc:   61805543 now IPC :1.43598: AVG IPC :1.52894: L2-Pf-HR :0.97512: L2-HR :0.86188: (Sim:0h15m6s) 
CPU  0 inst:   96000000 cyc:   62463436 now IPC :1.52000: AVG IPC :1.52884: L2-Pf-HR :0.97518: L2-HR :0.86201: (Sim:0h15m25s) 
CPU  0 inst:   97000000 cyc:   63122284 now IPC :1.51780: AVG IPC :1.52873: L2-Pf-HR :0.97534: L2-HR :0.86214: (Sim:0h15m44s) 
CPU  0 inst:   98000002 cyc:   63781683 now IPC :1.51654: AVG IPC :1.52860: L2-Pf-HR :0.97536: L2-HR :0.86221: (Sim:0h16m3s) 
CPU  0 inst:   99000005 cyc:   64439496 now IPC :1.52019: AVG IPC :1.52851: L2-Pf-HR :0.97543: L2-HR :0.86232: (Sim:0h16m21s) 
CPU  0 inst:  100000000 cyc:   65093849 now IPC :1.52822: AVG IPC :1.52851: L2-Pf-HR :0.97559: L2-HR :0.86243: (Sim:0h16m40s) 
CPU  0 inst:  101000004 cyc:   65808446 now IPC :1.39940: AVG IPC :1.52709: L2-Pf-HR :0.97543: L2-HR :0.86239: (Sim:0h17m0s) 
CPU  0 inst:  102000004 cyc:   66470463 now IPC :1.51054: AVG IPC :1.52692: L2-Pf-HR :0.97557: L2-HR :0.86245: (Sim:0h17m17s) 
CPU  0 inst:  103000001 cyc:   67132301 now IPC :1.51094: AVG IPC :1.52676: L2-Pf-HR :0.97563: L2-HR :0.86249: (Sim:0h17m35s) 
CPU  0 inst:  104000000 cyc:   67792675 now IPC :1.51429: AVG IPC :1.52664: L2-Pf-HR :0.97570: L2-HR :0.86259: (Sim:0h17m50s) 
CPU  0 inst:  105000004 cyc:   68454702 now IPC :1.51052: AVG IPC :1.52648: L2-Pf-HR :0.97582: L2-HR :0.86267: (Sim:0h18m9s) 
CPU  0 inst:  106000002 cyc:   69114538 now IPC :1.51553: AVG IPC :1.52637: L2-Pf-HR :0.97587: L2-HR :0.86277: (Sim:0h18m28s) 
CPU  0 inst:  107000002 cyc:   69809510 now IPC :1.43891: AVG IPC :1.52549: L2-Pf-HR :0.97591: L2-HR :0.86279: (Sim:0h18m39s) 
CPU  0 inst:  108000000 cyc:   70466456 now IPC :1.52219: AVG IPC :1.52546: L2-Pf-HR :0.97604: L2-HR :0.86295: (Sim:0h18m50s) 
CPU  0 inst:  109000004 cyc:   71123704 now IPC :1.52150: AVG IPC :1.52542: L2-Pf-HR :0.97615: L2-HR :0.86305: (Sim:0h19m9s) 
CPU  0 inst:  110000001 cyc:   71778966 now IPC :1.52610: AVG IPC :1.52543: L2-Pf-HR :0.97616: L2-HR :0.86308: (Sim:0h19m27s) 
CPU  0 inst:  111000004 cyc:   72434995 now IPC :1.52433: AVG IPC :1.52542: L2-Pf-HR :0.97627: L2-HR :0.86322: (Sim:0h19m45s) 
CPU  0 inst:  112000001 cyc:   73092200 now IPC :1.52159: AVG IPC :1.52538: L2-Pf-HR :0.97637: L2-HR :0.86329: (Sim:0h20m4s) 
CPU  0 inst:  113000002 cyc:   73827649 now IPC :1.35971: AVG IPC :1.52371: L2-Pf-HR :0.97619: L2-HR :0.86323: (Sim:0h20m22s) 
CPU  0 inst:  114000001 cyc:   74485995 now IPC :1.51896: AVG IPC :1.52367: L2-Pf-HR :0.97629: L2-HR :0.86328: (Sim:0h20m40s) 
CPU  0 inst:  115000003 cyc:   75144850 now IPC :1.51779: AVG IPC :1.52361: L2-Pf-HR :0.97634: L2-HR :0.86330: (Sim:0h21m0s) 
CPU  0 inst:  116000003 cyc:   75803491 now IPC :1.51828: AVG IPC :1.52357: L2-Pf-HR :0.97643: L2-HR :0.86341: (Sim:0h21m16s) 
CPU  0 inst:  117000003 cyc:   76462793 now IPC :1.51676: AVG IPC :1.52351: L2-Pf-HR :0.97654: L2-HR :0.86348: (Sim:0h21m36s) 
CPU  0 inst:  118000005 cyc:   77120810 now IPC :1.51972: AVG IPC :1.52348: L2-Pf-HR :0.97654: L2-HR :0.86357: (Sim:0h21m51s) 
CPU  0 inst:  119000000 cyc:   77821898 now IPC :1.42635: AVG IPC :1.52259: L2-Pf-HR :0.97657: L2-HR :0.86359: (Sim:0h22m5s) 
CPU  0 inst:  120000004 cyc:   78485688 now IPC :1.50651: AVG IPC :1.52245: L2-Pf-HR :0.97661: L2-HR :0.86366: (Sim:0h22m20s) 
CPU  0 inst:  121000003 cyc:   79148812 now IPC :1.50801: AVG IPC :1.52233: L2-Pf-HR :0.97673: L2-HR :0.86377: (Sim:0h22m34s) 
CPU  0 inst:  122000000 cyc:   79813408 now IPC :1.50467: AVG IPC :1.52218: L2-Pf-HR :0.97675: L2-HR :0.86379: (Sim:0h22m53s) 
CPU  0 inst:  123000000 cyc:   80477274 now IPC :1.50633: AVG IPC :1.52205: L2-Pf-HR :0.97679: L2-HR :0.86389: (Sim:0h23m12s) 
CPU  0 inst:  124000003 cyc:   81140582 now IPC :1.50760: AVG IPC :1.52193: L2-Pf-HR :0.97690: L2-HR :0.86397: (Sim:0h23m31s) 
CPU  0 inst:  125000005 cyc:   81819545 now IPC :1.47284: AVG IPC :1.52152: L2-Pf-HR :0.97674: L2-HR :0.86362: (Sim:0h23m50s) 
CPU  0 inst:  126000001 cyc:   82478103 now IPC :1.51846: AVG IPC :1.52149: L2-Pf-HR :0.97662: L2-HR :0.86306: (Sim:0h24m8s) 
CPU  0 inst:  127000002 cyc:   83150170 now IPC :1.48795: AVG IPC :1.52122: L2-Pf-HR :0.97657: L2-HR :0.86257: (Sim:0h24m27s) 
CPU  0 inst:  128000004 cyc:   83811601 now IPC :1.51188: AVG IPC :1.52114: L2-Pf-HR :0.97655: L2-HR :0.86210: (Sim:0h24m45s) 
CPU  0 inst:  129000001 cyc:   84569386 now IPC :1.31963: AVG IPC :1.51932: L2-Pf-HR :0.97639: L2-HR :0.86168: (Sim:0h25m5s) 
CPU  0 inst:  130000004 cyc:   85242142 now IPC :1.48643: AVG IPC :1.51905: L2-Pf-HR :0.97641: L2-HR :0.86163: (Sim:0h25m25s) 
CPU  0 inst:  131000003 cyc:   85914432 now IPC :1.48745: AVG IPC :1.51880: L2-Pf-HR :0.97642: L2-HR :0.86161: (Sim:0h25m44s) 
CPU  0 inst:  132000003 cyc:   86586894 now IPC :1.48707: AVG IPC :1.51855: L2-Pf-HR :0.97645: L2-HR :0.86167: (Sim:0h26m4s) 
CPU  0 inst:  133000000 cyc:   87259372 now IPC :1.48703: AVG IPC :1.51831: L2-Pf-HR :0.97647: L2-HR :0.86171: (Sim:0h26m23s) 
CPU  0 inst:  134000001 cyc:   87932827 now IPC :1.48488: AVG IPC :1.51805: L2-Pf-HR :0.97650: L2-HR :0.86175: (Sim:0h26m43s) 
CPU  0 inst:  135000001 cyc:   88637295 now IPC :1.41951: AVG IPC :1.51726: L2-Pf-HR :0.97651: L2-HR :0.86176: (Sim:0h27m3s) 
CPU  0 inst:  136000005 cyc:   89299744 now IPC :1.50956: AVG IPC :1.51720: L2-Pf-HR :0.97652: L2-HR :0.86177: (Sim:0h27m23s) 
CPU  0 inst:  137000000 cyc:   89961437 now IPC :1.51127: AVG IPC :1.51715: L2-Pf-HR :0.97652: L2-HR :0.86177: (Sim:0h27m42s) 
CPU  0 inst:  138000002 cyc:   90622909 now IPC :1.51178: AVG IPC :1.51712: L2-Pf-HR :0.97647: L2-HR :0.86177: (Sim:0h27m58s) 
CPU  0 inst:  139000004 cyc:   91288042 now IPC :1.50346: AVG IPC :1.51701: L2-Pf-HR :0.97636: L2-HR :0.86169: (Sim:0h28m14s) 
CPU  0 inst:  140000003 cyc:   91949920 now IPC :1.51085: AVG IPC :1.51697: L2-Pf-HR :0.97632: L2-HR :0.86170: (Sim:0h28m33s) 
CPU  0 inst:  141000004 cyc:   92685873 now IPC :1.35878: AVG IPC :1.51570: L2-Pf-HR :0.97612: L2-HR :0.86155: (Sim:0h28m53s) 
CPU  0 inst:  142000004 cyc:   93342338 now IPC :1.52331: AVG IPC :1.51575: L2-Pf-HR :0.97621: L2-HR :0.86162: (Sim:0h29m12s) 
CPU  0 inst:  143000003 cyc:   94000385 now IPC :1.51965: AVG IPC :1.51578: L2-Pf-HR :0.97620: L2-HR :0.86162: (Sim:0h29m31s) 
CPU  0 inst:  144000004 cyc:   94660791 now IPC :1.51422: AVG IPC :1.51577: L2-Pf-HR :0.97615: L2-HR :0.86163: (Sim:0h29m51s) 
CPU  0 inst:  145000004 cyc:   95317314 now IPC :1.52318: AVG IPC :1.51582: L2-Pf-HR :0.97624: L2-HR :0.86176: (Sim:0h30m10s) 
CPU  0 inst:  146000004 cyc:   95974864 now IPC :1.52080: AVG IPC :1.51586: L2-Pf-HR :0.97622: L2-HR :0.86175: (Sim:0h30m29s) 
CPU  0 inst:  147000002 cyc:   96672600 now IPC :1.43320: AVG IPC :1.51525: L2-Pf-HR :0.97623: L2-HR :0.86182: (Sim:0h30m46s) 
CPU  0 inst:  148000002 cyc:   97334622 now IPC :1.51052: AVG IPC :1.51522: L2-Pf-HR :0.97617: L2-HR :0.86180: (Sim:0h31m2s) 
CPU  0 inst:  149000004 cyc:   97993359 now IPC :1.51806: AVG IPC :1.51524: L2-Pf-HR :0.97626: L2-HR :0.86189: (Sim:0h31m21s) 
CPU  0 inst:  150000001 cyc:   98651494 now IPC :1.51944: AVG IPC :1.51527: L2-Pf-HR :0.97632: L2-HR :0.86198: (Sim:0h31m35s) 
CPU  0 inst:  151000002 cyc:   99309348 now IPC :1.52010: AVG IPC :1.51530: L2-Pf-HR :0.97633: L2-HR :0.86201: (Sim:0h31m53s) 
CPU  0 inst:  152000002 cyc:   99966888 now IPC :1.52082: AVG IPC :1.51534: L2-Pf-HR :0.97643: L2-HR :0.86214: (Sim:0h32m10s) 
CPU  0 inst:  153000001 cyc:  100696021 now IPC :1.37149: AVG IPC :1.51429: L2-Pf-HR :0.97635: L2-HR :0.86209: (Sim:0h32m30s) 
CPU  0 inst:  154000005 cyc:  101355943 now IPC :1.51534: AVG IPC :1.51429: L2-Pf-HR :0.97643: L2-HR :0.86215: (Sim:0h32m49s) 
CPU  0 inst:  155000000 cyc:  102016116 now IPC :1.51475: AVG IPC :1.51430: L2-Pf-HR :0.97648: L2-HR :0.86219: (Sim:0h33m8s) 
CPU  0 inst:  156000002 cyc:  102676065 now IPC :1.51527: AVG IPC :1.51430: L2-Pf-HR :0.97650: L2-HR :0.86222: (Sim:0h33m27s) 
CPU  0 inst:  157000003 cyc:  103335125 now IPC :1.51731: AVG IPC :1.51432: L2-Pf-HR :0.97660: L2-HR :0.86235: (Sim:0h33m46s) 
CPU  0 inst:  158000000 cyc:  103995258 now IPC :1.51484: AVG IPC :1.51433: L2-Pf-HR :0.97657: L2-HR :0.86233: (Sim:0h34m5s) 
CPU  0 inst:  159000000 cyc:  104686673 now IPC :1.44631: AVG IPC :1.51387: L2-Pf-HR :0.97659: L2-HR :0.86240: (Sim:0h34m20s) 
CPU  0 inst:  160000000 cyc:  105335678 now IPC :1.54082: AVG IPC :1.51404: L2-Pf-HR :0.97661: L2-HR :0.86243: (Sim:0h34m39s) 
CPU  0 inst:  161000003 cyc:  105983681 now IPC :1.54321: AVG IPC :1.51422: L2-Pf-HR :0.97671: L2-HR :0.86253: (Sim:0h34m59s) 
CPU  0 inst:  162000000 cyc:  106631822 now IPC :1.54287: AVG IPC :1.51440: L2-Pf-HR :0.97670: L2-HR :0.86256: (Sim:0h35m18s) 
CPU  0 inst:  163000000 cyc:  107279665 now IPC :1.54358: AVG IPC :1.51457: L2-Pf-HR :0.97672: L2-HR :0.86258: (Sim:0h35m37s) 
CPU  0 inst:  164000003 cyc:  107927608 now IPC :1.54335: AVG IPC :1.51475: L2-Pf-HR :0.97682: L2-HR :0.86272: (Sim:0h35m57s) 
CPU  0 inst:  165000001 cyc:  108653775 now IPC :1.37709: AVG IPC :1.51382: L2-Pf-HR :0.97668: L2-HR :0.86265: (Sim:0h36m17s) 
CPU  0 inst:  166000002 cyc:  109308921 now IPC :1.52638: AVG IPC :1.51390: L2-Pf-HR :0.97677: L2-HR :0.86270: (Sim:0h36m36s) 
CPU  0 inst:  167000005 cyc:  109964425 now IPC :1.52555: AVG IPC :1.51397: L2-Pf-HR :0.97681: L2-HR :0.86273: (Sim:0h36m56s) 
CPU  0 inst:  168000005 cyc:  110620605 now IPC :1.52397: AVG IPC :1.51403: L2-Pf-HR :0.97681: L2-HR :0.86273: (Sim:0h37m15s) 
CPU  0 inst:  169000003 cyc:  111277557 now IPC :1.52218: AVG IPC :1.51407: L2-Pf-HR :0.97690: L2-HR :0.86285: (Sim:0h37m34s) 
CPU  0 inst:  170000003 cyc:  111935584 now IPC :1.51969: AVG IPC :1.51411: L2-Pf-HR :0.97693: L2-HR :0.86287: (Sim:0h37m50s) 
CPU  0 inst:  171000002 cyc:  112629654 now IPC :1.44078: AVG IPC :1.51365: L2-Pf-HR :0.97697: L2-HR :0.86295: (Sim:0h38m5s) 
CPU  0 inst:  172000005 cyc:  113286713 now IPC :1.52194: AVG IPC :1.51370: L2-Pf-HR :0.97698: L2-HR :0.86298: (Sim:0h38m23s) 
CPU  0 inst:  173000001 cyc:  113943656 now IPC :1.52220: AVG IPC :1.51375: L2-Pf-HR :0.97704: L2-HR :0.86304: (Sim:0h38m43s) 
CPU  0 inst:  174000001 cyc:  114598651 now IPC :1.52673: AVG IPC :1.51382: L2-Pf-HR :0.97707: L2-HR :0.86311: (Sim:0h39m2s) 
CPU  0 inst:  175000003 cyc:  115256357 now IPC :1.52044: AVG IPC :1.51386: L2-Pf-HR :0.97713: L2-HR :0.86315: (Sim:0h39m22s) 
CPU  0 inst:  176000003 cyc:  115912870 now IPC :1.52320: AVG IPC :1.51392: L2-Pf-HR :0.97715: L2-HR :0.86323: (Sim:0h39m41s) 
CPU  0 inst:  177000000 cyc:  116648321 now IPC :1.35971: AVG IPC :1.51293: L2-Pf-HR :0.97704: L2-HR :0.86315: (Sim:0h40m1s) 
CPU  0 inst:  178000001 cyc:  117308243 now IPC :1.51533: AVG IPC :1.51295: L2-Pf-HR :0.97708: L2-HR :0.86317: (Sim:0h40m20s) 
CPU  0 inst:  179000001 cyc:  117967168 now IPC :1.51762: AVG IPC :1.51297: L2-Pf-HR :0.97714: L2-HR :0.86323: (Sim:0h40m37s) 
CPU  0 inst:  180000000 cyc:  118627556 now IPC :1.51426: AVG IPC :1.51298: L2-Pf-HR :0.97717: L2-HR :0.86325: (Sim:0h40m56s) 
CPU  0 inst:  181000000 cyc:  119287115 now IPC :1.51616: AVG IPC :1.51300: L2-Pf-HR :0.97722: L2-HR :0.86334: (Sim:0h41m15s) 
CPU  0 inst:  182000004 cyc:  119946597 now IPC :1.51635: AVG IPC :1.51302: L2-Pf-HR :0.97726: L2-HR :0.86337: (Sim:0h41m35s) 
CPU  0 inst:  183000001 cyc:  120635577 now IPC :1.45142: AVG IPC :1.51266: L2-Pf-HR :0.97731: L2-HR :0.86343: (Sim:0h41m54s) 
CPU  0 inst:  184000005 cyc:  121281141 now IPC :1.54904: AVG IPC :1.51286: L2-Pf-HR :0.97733: L2-HR :0.86348: (Sim:0h42m13s) 
CPU  0 inst:  185000002 cyc:  121927152 now IPC :1.54796: AVG IPC :1.51305: L2-Pf-HR :0.97739: L2-HR :0.86353: (Sim:0h42m33s) 
CPU  0 inst:  186000005 cyc:  122573707 now IPC :1.54666: AVG IPC :1.51322: L2-Pf-HR :0.97742: L2-HR :0.86359: (Sim:0h42m49s) 
CPU  0 inst:  187000005 cyc:  123220525 now IPC :1.54603: AVG IPC :1.51340: L2-Pf-HR :0.97745: L2-HR :0.86361: (Sim:0h43m7s) 
CPU  0 inst:  188000005 cyc:  123865548 now IPC :1.55033: AVG IPC :1.51359: L2-Pf-HR :0.97750: L2-HR :0.86369: (Sim:0h43m26s) 
CPU  0 inst:  189000004 cyc:  124543001 now IPC :1.47612: AVG IPC :1.51339: L2-Pf-HR :0.97747: L2-HR :0.86353: (Sim:0h43m46s) 
CPU  0 inst:  190000003 cyc:  125204392 now IPC :1.51196: AVG IPC :1.51338: L2-Pf-HR :0.97740: L2-HR :0.86317: (Sim:0h44m5s) 
CPU  0 inst:  191000001 cyc:  125879896 now IPC :1.48037: AVG IPC :1.51320: L2-Pf-HR :0.97737: L2-HR :0.86285: (Sim:0h44m24s) 
CPU  0 inst:  192000005 cyc:  126544376 now IPC :1.50494: AVG IPC :1.51316: L2-Pf-HR :0.97736: L2-HR :0.86254: (Sim:0h44m43s) 
CPU  0 inst:  193000001 cyc:  127301280 now IPC :1.32117: AVG IPC :1.51201: L2-Pf-HR :0.97727: L2-HR :0.86221: (Sim:0h45m3s) 
CPU  0 inst:  194000003 cyc:  127977036 now IPC :1.47983: AVG IPC :1.51184: L2-Pf-HR :0.97726: L2-HR :0.86219: (Sim:0h45m23s) 
CPU  0 inst:  195000002 cyc:  128652578 now IPC :1.48029: AVG IPC :1.51167: L2-Pf-HR :0.97727: L2-HR :0.86216: (Sim:0h45m42s) 
CPU  0 inst:  196000004 cyc:  129330147 now IPC :1.47587: AVG IPC :1.51148: L2-Pf-HR :0.97727: L2-HR :0.86217: (Sim:0h46m2s) 
CPU  0 inst:  197000000 cyc:  130003748 now IPC :1.48455: AVG IPC :1.51134: L2-Pf-HR :0.97730: L2-HR :0.86221: (Sim:0h46m21s) 
CPU  0 inst:  198000005 cyc:  130680824 now IPC :1.47695: AVG IPC :1.51116: L2-Pf-HR :0.97731: L2-HR :0.86221: (Sim:0h46m41s) 
CPU  0 inst:  199000001 cyc:  131393256 now IPC :1.40364: AVG IPC :1.51057: L2-Pf-HR :0.97730: L2-HR :0.86223: (Sim:0h47m0s) 
CPU  0 inst:  200000005 cyc:  132070134 now IPC :1.47738: AVG IPC :1.51040: L2-Pf-HR :0.97731: L2-HR :0.86221: (Sim:0h47m19s) 
CPU  0 inst:  201000002 cyc:  132744949 now IPC :1.48188: AVG IPC :1.51025: L2-Pf-HR :0.97731: L2-HR :0.86224: (Sim:0h47m38s) 
CPU  0 inst:  202000002 cyc:  133424453 now IPC :1.47166: AVG IPC :1.51006: L2-Pf-HR :0.97725: L2-HR :0.86220: (Sim:0h47m57s) 
CPU  0 inst:  203000001 cyc:  134103463 now IPC :1.47273: AVG IPC :1.50987: L2-Pf-HR :0.97718: L2-HR :0.86219: (Sim:0h48m16s) 
CPU  0 inst:  204000004 cyc:  134780875 now IPC :1.47621: AVG IPC :1.50970: L2-Pf-HR :0.97716: L2-HR :0.86216: (Sim:0h48m36s) 
CPU  0 inst:  205000001 cyc:  135518837 now IPC :1.35508: AVG IPC :1.50885: L2-Pf-HR :0.97698: L2-HR :0.86207: (Sim:0h48m56s) 
CPU  0 inst:  206000001 cyc:  136168003 now IPC :1.54044: AVG IPC :1.50900: L2-Pf-HR :0.97702: L2-HR :0.86210: (Sim:0h49m15s) 
CPU  0 inst:  207000002 cyc:  136817974 now IPC :1.53853: AVG IPC :1.50914: L2-Pf-HR :0.97702: L2-HR :0.86211: (Sim:0h49m35s) 
CPU  0 inst:  208000005 cyc:  137469467 now IPC :1.53494: AVG IPC :1.50926: L2-Pf-HR :0.97698: L2-HR :0.86212: (Sim:0h49m54s) 
CPU  0 inst:  209000003 cyc:  138120261 now IPC :1.53658: AVG IPC :1.50939: L2-Pf-HR :0.97701: L2-HR :0.86214: (Sim:0h50m13s) 
CPU  0 inst:  210000005 cyc:  138771225 now IPC :1.53619: AVG IPC :1.50952: L2-Pf-HR :0.97698: L2-HR :0.86217: (Sim:0h50m33s) 
CPU  0 inst:  211000002 cyc:  139464517 now IPC :1.44239: AVG IPC :1.50918: L2-Pf-HR :0.97694: L2-HR :0.86216: (Sim:0h50m52s) 
CPU  0 inst:  212000001 cyc:  140121043 now IPC :1.52317: AVG IPC :1.50925: L2-Pf-HR :0.97692: L2-HR :0.86218: (Sim:0h51m11s) 
CPU  0 inst:  213000001 cyc:  140776268 now IPC :1.52619: AVG IPC :1.50933: L2-Pf-HR :0.97699: L2-HR :0.86224: (Sim:0h51m30s) 
CPU  0 inst:  214000003 cyc:  141432254 now IPC :1.52443: AVG IPC :1.50940: L2-Pf-HR :0.97699: L2-HR :0.86227: (Sim:0h51m48s) 
CPU  0 inst:  215000003 cyc:  142088112 now IPC :1.52472: AVG IPC :1.50947: L2-Pf-HR :0.97701: L2-HR :0.86233: (Sim:0h52m4s) 
CPU  0 inst:  216000001 cyc:  142744893 now IPC :1.52257: AVG IPC :1.50953: L2-Pf-HR :0.97709: L2-HR :0.86238: (Sim:0h52m19s) 
CPU  0 inst:  217000000 cyc:  143466349 now IPC :1.38608: AVG IPC :1.50891: L2-Pf-HR :0.97700: L2-HR :0.86235: (Sim:0h52m35s) 
CPU  0 inst:  218000001 cyc:  144119328 now IPC :1.53144: AVG IPC :1.50901: L2-Pf-HR :0.97706: L2-HR :0.86239: (Sim:0h52m54s) 
CPU  0 inst:  219000001 cyc:  144772420 now IPC :1.53118: AVG IPC :1.50911: L2-Pf-HR :0.97710: L2-HR :0.86241: (Sim:0h53m9s) 
CPU  0 inst:  220000000 cyc:  145423838 now IPC :1.53511: AVG IPC :1.50923: L2-Pf-HR :0.97710: L2-HR :0.86246: (Sim:0h53m23s) 
CPU  0 inst:  221000002 cyc:  146077294 now IPC :1.53033: AVG IPC :1.50932: L2-Pf-HR :0.97713: L2-HR :0.86248: (Sim:0h53m42s) 
CPU  0 inst:  222000004 cyc:  146730521 now IPC :1.53086: AVG IPC :1.50942: L2-Pf-HR :0.97720: L2-HR :0.86257: (Sim:0h54m0s) 
CPU  0 inst:  223000005 cyc:  147415172 now IPC :1.46060: AVG IPC :1.50919: L2-Pf-HR :0.97727: L2-HR :0.86263: (Sim:0h54m19s) 
CPU  0 inst:  224000005 cyc:  148054527 now IPC :1.56408: AVG IPC :1.50943: L2-Pf-HR :0.97729: L2-HR :0.86266: (Sim:0h54m39s) 
CPU  0 inst:  225000000 cyc:  148694485 now IPC :1.56259: AVG IPC :1.50966: L2-Pf-HR :0.97732: L2-HR :0.86271: (Sim:0h54m57s) 
CPU  0 inst:  226000005 cyc:  149335518 now IPC :1.55999: AVG IPC :1.50988: L2-Pf-HR :0.97738: L2-HR :0.86276: (Sim:0h55m16s) 
CPU  0 inst:  227000002 cyc:  149974860 now IPC :1.56410: AVG IPC :1.51011: L2-Pf-HR :0.97739: L2-HR :0.86282: (Sim:0h55m34s) 
CPU  0 inst:  228000003 cyc:  150615228 now IPC :1.56160: AVG IPC :1.51033: L2-Pf-HR :0.97742: L2-HR :0.86285: (Sim:0h55m53s) 
CPU  0 inst:  229000004 cyc:  151328234 now IPC :1.40251: AVG IPC :1.50982: L2-Pf-HR :0.97738: L2-HR :0.86286: (Sim:0h56m13s) 
CPU  0 inst:  230000005 cyc:  151984049 now IPC :1.52482: AVG IPC :1.50988: L2-Pf-HR :0.97740: L2-HR :0.86288: (Sim:0h56m31s) 
CPU  0 inst:  231000005 cyc:  152642685 now IPC :1.51829: AVG IPC :1.50992: L2-Pf-HR :0.97744: L2-HR :0.86289: (Sim:0h56m50s) 
CPU  0 inst:  232000001 cyc:  153299653 now IPC :1.52214: AVG IPC :1.50997: L2-Pf-HR :0.97747: L2-HR :0.86295: (Sim:0h57m9s) 
CPU  0 inst:  233000000 cyc:  153958049 now IPC :1.51884: AVG IPC :1.51001: L2-Pf-HR :0.97750: L2-HR :0.86297: (Sim:0h57m28s) 
CPU  0 inst:  234000002 cyc:  154614974 now IPC :1.52225: AVG IPC :1.51006: L2-Pf-HR :0.97753: L2-HR :0.86302: (Sim:0h57m46s) 
CPU  0 inst:  235000002 cyc:  155311898 now IPC :1.43488: AVG IPC :1.50972: L2-Pf-HR :0.97755: L2-HR :0.86305: (Sim:0h58m5s) 
CPU  0 inst:  236000002 cyc:  155970529 now IPC :1.51830: AVG IPC :1.50976: L2-Pf-HR :0.97759: L2-HR :0.86309: (Sim:0h58m24s) 
CPU  0 inst:  237000000 cyc:  156628628 now IPC :1.51953: AVG IPC :1.50980: L2-Pf-HR :0.97761: L2-HR :0.86314: (Sim:0h58m41s) 
CPU  0 inst:  238000000 cyc:  157288804 now IPC :1.51475: AVG IPC :1.50982: L2-Pf-HR :0.97764: L2-HR :0.86316: (Sim:0h59m0s) 
CPU  0 inst:  239000001 cyc:  157946679 now IPC :1.52005: AVG IPC :1.50987: L2-Pf-HR :0.97766: L2-HR :0.86322: (Sim:0h59m19s) 
CPU  0 inst:  240000000 cyc:  158605393 now IPC :1.51811: AVG IPC :1.50990: L2-Pf-HR :0.97771: L2-HR :0.86327: (Sim:0h59m38s) 
CPU  0 inst:  241000002 cyc:  159336476 now IPC :1.36784: AVG IPC :1.50924: L2-Pf-HR :0.97766: L2-HR :0.86324: (Sim:0h59m56s) 
CPU  0 inst:  242000001 cyc:  159996120 now IPC :1.51597: AVG IPC :1.50927: L2-Pf-HR :0.97770: L2-HR :0.86328: (Sim:1h0m16s) 
CPU  0 inst:  243000005 cyc:  160656905 now IPC :1.51336: AVG IPC :1.50929: L2-Pf-HR :0.97774: L2-HR :0.86328: (Sim:1h0m35s) 
CPU  0 inst:  244000002 cyc:  161315360 now IPC :1.51870: AVG IPC :1.50933: L2-Pf-HR :0.97775: L2-HR :0.86333: (Sim:1h0m51s) 
CPU  0 inst:  245000000 cyc:  161975765 now IPC :1.51422: AVG IPC :1.50935: L2-Pf-HR :0.97781: L2-HR :0.86337: (Sim:1h1m2s) 
CPU  0 inst:  246000000 cyc:  162638041 now IPC :1.50994: AVG IPC :1.50935: L2-Pf-HR :0.97781: L2-HR :0.86339: (Sim:1h1m18s) 
CPU  0 inst:  247000000 cyc:  163336526 now IPC :1.43167: AVG IPC :1.50902: L2-Pf-HR :0.97781: L2-HR :0.86342: (Sim:1h1m37s) 
CPU  0 inst:  248000000 cyc:  163997009 now IPC :1.51404: AVG IPC :1.50904: L2-Pf-HR :0.97782: L2-HR :0.86344: (Sim:1h1m55s) 
CPU  0 inst:  249000002 cyc:  164655881 now IPC :1.51775: AVG IPC :1.50907: L2-Pf-HR :0.97787: L2-HR :0.86350: (Sim:1h2m14s) 
CPU  0 inst:  250000003 cyc:  165317756 now IPC :1.51086: AVG IPC :1.50908: L2-Pf-HR :0.97788: L2-HR :0.86351: (Sim:1h2m32s) 
CPU  0 inst:  251000000 cyc:  165976543 now IPC :1.51794: AVG IPC :1.50911: L2-Pf-HR :0.97790: L2-HR :0.86356: (Sim:1h2m51s) 
CPU  0 inst:  252000001 cyc:  166636320 now IPC :1.51567: AVG IPC :1.50914: L2-Pf-HR :0.97796: L2-HR :0.86360: (Sim:1h3m10s) 
CPU  0 inst:  253000001 cyc:  167314125 now IPC :1.47535: AVG IPC :1.50900: L2-Pf-HR :0.97790: L2-HR :0.86350: (Sim:1h3m24s) 
CPU  0 inst:  254000001 cyc:  167972326 now IPC :1.51929: AVG IPC :1.50904: L2-Pf-HR :0.97784: L2-HR :0.86323: (Sim:1h3m40s) 
CPU  0 inst:  255000002 cyc:  168641341 now IPC :1.49474: AVG IPC :1.50899: L2-Pf-HR :0.97781: L2-HR :0.86298: (Sim:1h3m53s) 
CPU  0 inst:  256000000 cyc:  169298883 now IPC :1.52081: AVG IPC :1.50903: L2-Pf-HR :0.97780: L2-HR :0.86274: (Sim:1h4m6s) 
CPU  0 inst:  257000001 cyc:  170045390 now IPC :1.33957: AVG IPC :1.50828: L2-Pf-HR :0.97771: L2-HR :0.86247: (Sim:1h4m22s) 
CPU  0 inst:  258000004 cyc:  170705029 now IPC :1.51599: AVG IPC :1.50831: L2-Pf-HR :0.97772: L2-HR :0.86246: (Sim:1h4m39s) 
CPU  0 inst:  259000000 cyc:  171365685 now IPC :1.51364: AVG IPC :1.50833: L2-Pf-HR :0.97772: L2-HR :0.86243: (Sim:1h4m58s) 
CPU  0 inst:  260000001 cyc:  172025004 now IPC :1.51672: AVG IPC :1.50837: L2-Pf-HR :0.97774: L2-HR :0.86246: (Sim:1h5m17s) 
CPU  0 inst:  261000000 cyc:  172686983 now IPC :1.51062: AVG IPC :1.50838: L2-Pf-HR :0.97775: L2-HR :0.86245: (Sim:1h5m36s) 
CPU  0 inst:  262000002 cyc:  173347141 now IPC :1.51479: AVG IPC :1.50840: L2-Pf-HR :0.97775: L2-HR :0.86248: (Sim:1h5m55s) 
CPU  0 inst:  263000001 cyc:  174044537 now IPC :1.43390: AVG IPC :1.50810: L2-Pf-HR :0.97775: L2-HR :0.86246: (Sim:1h6m14s) 
CPU  0 inst:  264000004 cyc:  174703124 now IPC :1.51841: AVG IPC :1.50814: L2-Pf-HR :0.97775: L2-HR :0.86248: (Sim:1h6m33s) 
CPU  0 inst:  265000005 cyc:  175361093 now IPC :1.51983: AVG IPC :1.50818: L2-Pf-HR :0.97774: L2-HR :0.86245: (Sim:1h6m52s) 
CPU  0 inst:  266000003 cyc:  176019137 now IPC :1.51965: AVG IPC :1.50823: L2-Pf-HR :0.97772: L2-HR :0.86246: (Sim:1h7m12s) 
CPU  0 inst:  267000004 cyc:  176676796 now IPC :1.52055: AVG IPC :1.50827: L2-Pf-HR :0.97768: L2-HR :0.86244: (Sim:1h7m31s) 
CPU  0 inst:  268000001 cyc:  177337270 now IPC :1.51406: AVG IPC :1.50829: L2-Pf-HR :0.97762: L2-HR :0.86243: (Sim:1h7m50s) 
CPU  0 inst:  269000004 cyc:  178072424 now IPC :1.36026: AVG IPC :1.50768: L2-Pf-HR :0.97749: L2-HR :0.86233: (Sim:1h8m10s) 
CPU  0 inst:  270000005 cyc:  178727430 now IPC :1.52671: AVG IPC :1.50775: L2-Pf-HR :0.97750: L2-HR :0.86234: (Sim:1h8m29s) 
CPU  0 inst:  271000004 cyc:  179382119 now IPC :1.52744: AVG IPC :1.50782: L2-Pf-HR :0.97751: L2-HR :0.86236: (Sim:1h8m48s) 
CPU  0 inst:  272000005 cyc:  180039237 now IPC :1.52180: AVG IPC :1.50787: L2-Pf-HR :0.97750: L2-HR :0.86235: (Sim:1h9m7s) 
CPU  0 inst:  273000003 cyc:  180694450 now IPC :1.52622: AVG IPC :1.50794: L2-Pf-HR :0.97747: L2-HR :0.86237: (Sim:1h9m26s) 
CPU  0 inst:  274000002 cyc:  181350032 now IPC :1.52536: AVG IPC :1.50800: L2-Pf-HR :0.97748: L2-HR :0.86238: (Sim:1h9m45s) 
CPU  0 inst:  275000002 cyc:  182043130 now IPC :1.44280: AVG IPC :1.50775: L2-Pf-HR :0.97749: L2-HR :0.86241: (Sim:1h10m5s) 
CPU  0 inst:  276000002 cyc:  182702214 now IPC :1.51726: AVG IPC :1.50779: L2-Pf-HR :0.97750: L2-HR :0.86244: (Sim:1h10m24s) 
CPU  0 inst:  277000005 cyc:  183359388 now IPC :1.52167: AVG IPC :1.50784: L2-Pf-HR :0.97752: L2-HR :0.86246: (Sim:1h10m41s) 
CPU  0 inst:  278000000 cyc:  184016700 now IPC :1.52134: AVG IPC :1.50789: L2-Pf-HR :0.97755: L2-HR :0.86251: (Sim:1h11m0s) 
CPU  0 inst:  279000000 cyc:  184674650 now IPC :1.51987: AVG IPC :1.50793: L2-Pf-HR :0.97757: L2-HR :0.86254: (Sim:1h11m19s) 
CPU  0 inst:  280000000 cyc:  185330857 now IPC :1.52391: AVG IPC :1.50799: L2-Pf-HR :0.97758: L2-HR :0.86258: (Sim:1h11m31s) 
CPU  0 inst:  281000005 cyc:  186051889 now IPC :1.38691: AVG IPC :1.50751: L2-Pf-HR :0.97753: L2-HR :0.86257: (Sim:1h11m41s) 
CPU  0 inst:  282000002 cyc:  186693807 now IPC :1.55783: AVG IPC :1.50769: L2-Pf-HR :0.97756: L2-HR :0.86258: (Sim:1h11m54s) 
xz: 770-tot_memTraces_v5/120-subBillion_s2048_LLM_Arch/memTraces[2639000000]_FE_[OPT-350M]_[h16]_[s2048]_[d64].champsim.9.xz: Unexpected end of input
*** Reached end of trace for Core: 0 Repeating trace: 770-tot_memTraces_v5/120-subBillion_s2048_LLM_Arch/memTraces[2639000000]_FE_[OPT-350M]_[h16]_[s2048]_[d64].champsim.9.xz
CPU  0 inst:  283000004 cyc:  187604234 now IPC :1.09839: AVG IPC :1.50569: L2-Pf-HR :0.97742: L2-HR :0.86238: (Sim:1h12m13s) 
CPU  0 inst:  284000004 cyc:  188277900 now IPC :1.48442: AVG IPC :1.50562: L2-Pf-HR :0.97741: L2-HR :0.86234: (Sim:1h12m33s) 
CPU  0 inst:  285000005 cyc:  188956583 now IPC :1.47344: AVG IPC :1.50550: L2-Pf-HR :0.97736: L2-HR :0.86232: (Sim:1h12m52s) 
CPU  0 inst:  286000003 cyc:  189633090 now IPC :1.47818: AVG IPC :1.50540: L2-Pf-HR :0.97729: L2-HR :0.86227: (Sim:1h13m12s) 
CPU  0 inst:  287000001 cyc:  190306338 now IPC :1.48533: AVG IPC :1.50533: L2-Pf-HR :0.97725: L2-HR :0.86227: (Sim:1h13m31s) 
CPU  0 inst:  288000004 cyc:  190986029 now IPC :1.47126: AVG IPC :1.50521: L2-Pf-HR :0.97719: L2-HR :0.86221: (Sim:1h13m51s) 
CPU  0 inst:  289000005 cyc:  191699841 now IPC :1.40093: AVG IPC :1.50482: L2-Pf-HR :0.97712: L2-HR :0.86220: (Sim:1h14m10s) 
CPU  0 inst:  290000005 cyc:  192378428 now IPC :1.47365: AVG IPC :1.50471: L2-Pf-HR :0.97707: L2-HR :0.86215: (Sim:1h14m28s) 
CPU  0 inst:  291000003 cyc:  193055957 now IPC :1.47595: AVG IPC :1.50461: L2-Pf-HR :0.97701: L2-HR :0.86213: (Sim:1h14m48s) 
CPU  0 inst:  292000004 cyc:  193730485 now IPC :1.48252: AVG IPC :1.50453: L2-Pf-HR :0.97696: L2-HR :0.86208: (Sim:1h15m7s) 
CPU  0 inst:  293000003 cyc:  194404284 now IPC :1.48412: AVG IPC :1.50446: L2-Pf-HR :0.97690: L2-HR :0.86206: (Sim:1h15m27s) 
CPU  0 inst:  294000003 cyc:  195078361 now IPC :1.48351: AVG IPC :1.50438: L2-Pf-HR :0.97681: L2-HR :0.86200: (Sim:1h15m46s) 
CPU  0 inst:  295000002 cyc:  195810453 now IPC :1.36595: AVG IPC :1.50386: L2-Pf-HR :0.97670: L2-HR :0.86193: (Sim:1h16m5s) 
CPU  0 inst:  296000000 cyc:  196461397 now IPC :1.53623: AVG IPC :1.50397: L2-Pf-HR :0.97666: L2-HR :0.86191: (Sim:1h16m23s) 
CPU  0 inst:  297000002 cyc:  197113636 now IPC :1.53318: AVG IPC :1.50407: L2-Pf-HR :0.97667: L2-HR :0.86191: (Sim:1h16m42s) 
CPU  0 inst:  298000000 cyc:  197766554 now IPC :1.53158: AVG IPC :1.50416: L2-Pf-HR :0.97668: L2-HR :0.86195: (Sim:1h17m1s) 
CPU  0 inst:  299000002 cyc:  198420116 now IPC :1.53008: AVG IPC :1.50425: L2-Pf-HR :0.97666: L2-HR :0.86195: (Sim:1h17m18s) 
CPU  0 inst:  300000005 cyc:  199073502 now IPC :1.53049: AVG IPC :1.50433: L2-Pf-HR :0.97671: L2-HR :0.86200: (Sim:1h17m37s) 
CPU  0 inst:  301000000 cyc:  199754443 now IPC :1.46855: AVG IPC :1.50421: L2-Pf-HR :0.97676: L2-HR :0.86206: (Sim:1h17m53s) 
CPU  0 inst:  302000004 cyc:  200394261 now IPC :1.56295: AVG IPC :1.50440: L2-Pf-HR :0.97675: L2-HR :0.86206: (Sim:1h18m11s) 
CPU  0 inst:  303000003 cyc:  201033055 now IPC :1.56545: AVG IPC :1.50459: L2-Pf-HR :0.97673: L2-HR :0.86209: (Sim:1h18m31s) 
CPU  0 inst:  304000001 cyc:  201672861 now IPC :1.56297: AVG IPC :1.50478: L2-Pf-HR :0.97677: L2-HR :0.86212: (Sim:1h18m50s) 
CPU  0 inst:  305000003 cyc:  202312008 now IPC :1.56459: AVG IPC :1.50497: L2-Pf-HR :0.97679: L2-HR :0.86216: (Sim:1h19m10s) 
CPU  0 inst:  306000001 cyc:  202951203 now IPC :1.56446: AVG IPC :1.50516: L2-Pf-HR :0.97683: L2-HR :0.86220: (Sim:1h19m29s) 
CPU  0 inst:  307000004 cyc:  203677130 now IPC :1.37755: AVG IPC :1.50470: L2-Pf-HR :0.97679: L2-HR :0.86217: (Sim:1h19m49s) 
CPU  0 inst:  308000004 cyc:  204329859 now IPC :1.53203: AVG IPC :1.50479: L2-Pf-HR :0.97682: L2-HR :0.86220: (Sim:1h20m8s) 
CPU  0 inst:  309000004 cyc:  204984273 now IPC :1.52808: AVG IPC :1.50486: L2-Pf-HR :0.97684: L2-HR :0.86220: (Sim:1h20m27s) 
CPU  0 inst:  310000003 cyc:  205637898 now IPC :1.52993: AVG IPC :1.50494: L2-Pf-HR :0.97688: L2-HR :0.86225: (Sim:1h20m46s) 
CPU  0 inst:  311000001 cyc:  206291605 now IPC :1.52973: AVG IPC :1.50502: L2-Pf-HR :0.97690: L2-HR :0.86228: (Sim:1h21m5s) 
CPU  0 inst:  312000004 cyc:  206945723 now IPC :1.52878: AVG IPC :1.50510: L2-Pf-HR :0.97689: L2-HR :0.86230: (Sim:1h21m24s) 
CPU  0 inst:  313000002 cyc:  207641620 now IPC :1.43699: AVG IPC :1.50487: L2-Pf-HR :0.97689: L2-HR :0.86231: (Sim:1h21m43s) 
CPU  0 inst:  314000002 cyc:  208300618 now IPC :1.51746: AVG IPC :1.50491: L2-Pf-HR :0.97691: L2-HR :0.86233: (Sim:1h22m2s) 
CPU  0 inst:  315000002 cyc:  208960004 now IPC :1.51656: AVG IPC :1.50495: L2-Pf-HR :0.97695: L2-HR :0.86239: (Sim:1h22m21s) 
CPU  0 inst:  316000000 cyc:  209620670 now IPC :1.51362: AVG IPC :1.50497: L2-Pf-HR :0.97694: L2-HR :0.86239: (Sim:1h22m41s) 
CPU  0 inst:  317000005 cyc:  210280152 now IPC :1.51635: AVG IPC :1.50501: L2-Pf-HR :0.97697: L2-HR :0.86243: (Sim:1h23m0s) 
CPU  0 inst:  318000003 cyc:  210939322 now IPC :1.51706: AVG IPC :1.50505: L2-Pf-HR :0.97700: L2-HR :0.86248: (Sim:1h23m19s) 
CPU  0 inst:  319000001 cyc:  211662740 now IPC :1.38232: AVG IPC :1.50463: L2-Pf-HR :0.97694: L2-HR :0.86246: (Sim:1h23m38s) 
CPU  0 inst:  320000002 cyc:  212321492 now IPC :1.51802: AVG IPC :1.50467: L2-Pf-HR :0.97697: L2-HR :0.86249: (Sim:1h23m57s) 
CPU  0 inst:  321000001 cyc:  212981740 now IPC :1.51458: AVG IPC :1.50470: L2-Pf-HR :0.97698: L2-HR :0.86248: (Sim:1h24m15s) 
CPU  0 inst:  322000003 cyc:  213639690 now IPC :1.51988: AVG IPC :1.50475: L2-Pf-HR :0.97700: L2-HR :0.86252: (Sim:1h24m26s) 
CPU  0 inst:  323000000 cyc:  214298773 now IPC :1.51726: AVG IPC :1.50478: L2-Pf-HR :0.97705: L2-HR :0.86257: (Sim:1h24m35s) 
CPU  0 inst:  324000005 cyc:  214956940 now IPC :1.51938: AVG IPC :1.50483: L2-Pf-HR :0.97706: L2-HR :0.86259: (Sim:1h24m45s) 
CPU  0 inst:  325000005 cyc:  215651623 now IPC :1.43951: AVG IPC :1.50462: L2-Pf-HR :0.97707: L2-HR :0.86262: (Sim:1h24m57s) 
CPU  0 inst:  326000005 cyc:  216310129 now IPC :1.51859: AVG IPC :1.50466: L2-Pf-HR :0.97707: L2-HR :0.86262: (Sim:1h25m16s) 
CPU  0 inst:  327000001 cyc:  216967401 now IPC :1.52143: AVG IPC :1.50471: L2-Pf-HR :0.97712: L2-HR :0.86269: (Sim:1h25m35s) 
CPU  0 inst:  328000003 cyc:  217624814 now IPC :1.52112: AVG IPC :1.50476: L2-Pf-HR :0.97712: L2-HR :0.86269: (Sim:1h25m54s) 
CPU  0 inst:  329000003 cyc:  218281957 now IPC :1.52174: AVG IPC :1.50481: L2-Pf-HR :0.97714: L2-HR :0.86272: (Sim:1h26m13s) 
CPU  0 inst:  330000003 cyc:  218938049 now IPC :1.52418: AVG IPC :1.50487: L2-Pf-HR :0.97719: L2-HR :0.86277: (Sim:1h26m32s) 
CPU  0 inst:  331000001 cyc:  219672034 now IPC :1.36242: AVG IPC :1.50439: L2-Pf-HR :0.97714: L2-HR :0.86274: (Sim:1h26m47s) 
CPU  0 inst:  332000000 cyc:  220331351 now IPC :1.51672: AVG IPC :1.50443: L2-Pf-HR :0.97718: L2-HR :0.86278: (Sim:1h27m6s) 
CPU  0 inst:  333000005 cyc:  220991463 now IPC :1.51490: AVG IPC :1.50446: L2-Pf-HR :0.97720: L2-HR :0.86278: (Sim:1h27m21s) 
CPU  0 inst:  334000000 cyc:  221650853 now IPC :1.51655: AVG IPC :1.50450: L2-Pf-HR :0.97721: L2-HR :0.86281: (Sim:1h27m40s) 
CPU  0 inst:  335000002 cyc:  222310330 now IPC :1.51636: AVG IPC :1.50453: L2-Pf-HR :0.97725: L2-HR :0.86285: (Sim:1h27m54s) 
CPU  0 inst:  336000000 cyc:  222970544 now IPC :1.51466: AVG IPC :1.50456: L2-Pf-HR :0.97726: L2-HR :0.86286: (Sim:1h28m4s) 
CPU  0 inst:  337000003 cyc:  223666172 now IPC :1.43755: AVG IPC :1.50435: L2-Pf-HR :0.97726: L2-HR :0.86289: (Sim:1h28m13s) 
CPU  0 inst:  338000000 cyc:  224323666 now IPC :1.52092: AVG IPC :1.50440: L2-Pf-HR :0.97728: L2-HR :0.86290: (Sim:1h28m26s) 
CPU  0 inst:  339000001 cyc:  224980468 now IPC :1.52253: AVG IPC :1.50446: L2-Pf-HR :0.97732: L2-HR :0.86295: (Sim:1h28m45s) 
CPU  0 inst:  340000004 cyc:  225637588 now IPC :1.52180: AVG IPC :1.50451: L2-Pf-HR :0.97732: L2-HR :0.86296: (Sim:1h29m5s) 
CPU  0 inst:  341000004 cyc:  226294309 now IPC :1.52272: AVG IPC :1.50456: L2-Pf-HR :0.97733: L2-HR :0.86299: (Sim:1h29m25s) 
CPU  0 inst:  342000000 cyc:  226951709 now IPC :1.52114: AVG IPC :1.50461: L2-Pf-HR :0.97737: L2-HR :0.86303: (Sim:1h29m44s) 
CPU  0 inst:  343000005 cyc:  227634000 now IPC :1.46566: AVG IPC :1.50449: L2-Pf-HR :0.97733: L2-HR :0.86289: (Sim:1h30m3s) 
CPU  0 inst:  344000003 cyc:  228295380 now IPC :1.51199: AVG IPC :1.50451: L2-Pf-HR :0.97729: L2-HR :0.86269: (Sim:1h30m21s) 
CPU  0 inst:  345000003 cyc:  228966745 now IPC :1.48950: AVG IPC :1.50447: L2-Pf-HR :0.97728: L2-HR :0.86252: (Sim:1h30m40s) 
CPU  0 inst:  346000005 cyc:  229623346 now IPC :1.52300: AVG IPC :1.50452: L2-Pf-HR :0.97726: L2-HR :0.86235: (Sim:1h30m58s) 
CPU  0 inst:  347000004 cyc:  230376543 now IPC :1.32767: AVG IPC :1.50394: L2-Pf-HR :0.97720: L2-HR :0.86219: (Sim:1h31m13s) 
CPU  0 inst:  348000005 cyc:  231048129 now IPC :1.48901: AVG IPC :1.50390: L2-Pf-HR :0.97720: L2-HR :0.86219: (Sim:1h31m32s) 
CPU  0 inst:  349000001 cyc:  231722956 now IPC :1.48186: AVG IPC :1.50383: L2-Pf-HR :0.97719: L2-HR :0.86217: (Sim:1h31m51s) 
CPU  0 inst:  350000000 cyc:  232396961 now IPC :1.48367: AVG IPC :1.50377: L2-Pf-HR :0.97719: L2-HR :0.86219: (Sim:1h32m11s) 
CPU  0 inst:  351000003 cyc:  233068499 now IPC :1.48912: AVG IPC :1.50373: L2-Pf-HR :0.97720: L2-HR :0.86219: (Sim:1h32m30s) 
CPU  0 inst:  352000001 cyc:  233741715 now IPC :1.48540: AVG IPC :1.50368: L2-Pf-HR :0.97720: L2-HR :0.86221: (Sim:1h32m49s) 
CPU  0 inst:  353000002 cyc:  234451869 now IPC :1.40815: AVG IPC :1.50339: L2-Pf-HR :0.97720: L2-HR :0.86221: (Sim:1h33m8s) 
CPU  0 inst:  354000002 cyc:  235125592 now IPC :1.48429: AVG IPC :1.50333: L2-Pf-HR :0.97720: L2-HR :0.86222: (Sim:1h33m28s) 
CPU  0 inst:  355000002 cyc:  235801142 now IPC :1.48028: AVG IPC :1.50327: L2-Pf-HR :0.97719: L2-HR :0.86221: (Sim:1h33m47s) 
CPU  0 inst:  356000005 cyc:  236477883 now IPC :1.47767: AVG IPC :1.50319: L2-Pf-HR :0.97716: L2-HR :0.86221: (Sim:1h34m7s) 
CPU  0 inst:  357000001 cyc:  237151399 now IPC :1.48474: AVG IPC :1.50314: L2-Pf-HR :0.97714: L2-HR :0.86220: (Sim:1h34m27s) 
CPU  0 inst:  358000000 cyc:  237828060 now IPC :1.47784: AVG IPC :1.50307: L2-Pf-HR :0.97709: L2-HR :0.86217: (Sim:1h34m46s) 
CPU  0 inst:  359000001 cyc:  238566780 now IPC :1.35369: AVG IPC :1.50260: L2-Pf-HR :0.97699: L2-HR :0.86211: (Sim:1h35m7s) 
CPU  0 inst:  360000001 cyc:  239224851 now IPC :1.51959: AVG IPC :1.50265: L2-Pf-HR :0.97700: L2-HR :0.86211: (Sim:1h35m26s) 
CPU  0 inst:  361000000 cyc:  239882574 now IPC :1.52040: AVG IPC :1.50270: L2-Pf-HR :0.97700: L2-HR :0.86212: (Sim:1h35m45s) 
CPU  0 inst:  362000003 cyc:  240542305 now IPC :1.51577: AVG IPC :1.50273: L2-Pf-HR :0.97700: L2-HR :0.86213: (Sim:1h36m5s) 
CPU  0 inst:  363000005 cyc:  241200250 now IPC :1.51989: AVG IPC :1.50278: L2-Pf-HR :0.97701: L2-HR :0.86216: (Sim:1h36m24s) 
CPU  0 inst:  364000005 cyc:  241858702 now IPC :1.51871: AVG IPC :1.50283: L2-Pf-HR :0.97699: L2-HR :0.86216: (Sim:1h36m43s) 
CPU  0 inst:  365000005 cyc:  242555798 now IPC :1.43452: AVG IPC :1.50263: L2-Pf-HR :0.97699: L2-HR :0.86217: (Sim:1h37m3s) 
CPU  0 inst:  366000001 cyc:  243215409 now IPC :1.51604: AVG IPC :1.50266: L2-Pf-HR :0.97699: L2-HR :0.86220: (Sim:1h37m22s) 
CPU  0 inst:  367000004 cyc:  243874536 now IPC :1.51716: AVG IPC :1.50270: L2-Pf-HR :0.97701: L2-HR :0.86221: (Sim:1h37m41s) 
CPU  0 inst:  368000003 cyc:  244534135 now IPC :1.51607: AVG IPC :1.50274: L2-Pf-HR :0.97700: L2-HR :0.86224: (Sim:1h38m1s) 
CPU  0 inst:  369000003 cyc:  245192276 now IPC :1.51943: AVG IPC :1.50279: L2-Pf-HR :0.97702: L2-HR :0.86225: (Sim:1h38m20s) 
CPU  0 inst:  370000004 cyc:  245849869 now IPC :1.52070: AVG IPC :1.50283: L2-Pf-HR :0.97706: L2-HR :0.86230: (Sim:1h38m39s) 
CPU  0 inst:  371000005 cyc:  246579336 now IPC :1.37087: AVG IPC :1.50244: L2-Pf-HR :0.97701: L2-HR :0.86228: (Sim:1h38m59s) 
CPU  0 inst:  372000002 cyc:  247234450 now IPC :1.52645: AVG IPC :1.50251: L2-Pf-HR :0.97703: L2-HR :0.86228: (Sim:1h39m18s) 
CPU  0 inst:  373000005 cyc:  247888478 now IPC :1.52899: AVG IPC :1.50258: L2-Pf-HR :0.97704: L2-HR :0.86230: (Sim:1h39m38s) 
CPU  0 inst:  374000003 cyc:  248541598 now IPC :1.53111: AVG IPC :1.50265: L2-Pf-HR :0.97705: L2-HR :0.86232: (Sim:1h39m57s) 
CPU  0 inst:  375000003 cyc:  249194639 now IPC :1.53130: AVG IPC :1.50273: L2-Pf-HR :0.97709: L2-HR :0.86236: (Sim:1h40m17s) 
CPU  0 inst:  376000003 cyc:  249848278 now IPC :1.52990: AVG IPC :1.50280: L2-Pf-HR :0.97709: L2-HR :0.86238: (Sim:1h40m37s) 
CPU  0 inst:  377000000 cyc:  250543206 now IPC :1.43899: AVG IPC :1.50262: L2-Pf-HR :0.97710: L2-HR :0.86239: (Sim:1h40m57s) 
CPU  0 inst:  378000000 cyc:  251202104 now IPC :1.51769: AVG IPC :1.50266: L2-Pf-HR :0.97710: L2-HR :0.86242: (Sim:1h41m17s) 
CPU  0 inst:  379000004 cyc:  251861405 now IPC :1.51676: AVG IPC :1.50270: L2-Pf-HR :0.97714: L2-HR :0.86245: (Sim:1h41m36s) 
CPU  0 inst:  380000001 cyc:  252519030 now IPC :1.52062: AVG IPC :1.50274: L2-Pf-HR :0.97714: L2-HR :0.86247: (Sim:1h41m55s) 
CPU  0 inst:  381000000 cyc:  253176942 now IPC :1.51996: AVG IPC :1.50279: L2-Pf-HR :0.97716: L2-HR :0.86249: (Sim:1h42m14s) 
CPU  0 inst:  382000001 cyc:  253831725 now IPC :1.52723: AVG IPC :1.50285: L2-Pf-HR :0.97719: L2-HR :0.86253: (Sim:1h42m31s) 
CPU  0 inst:  383000000 cyc:  254546907 now IPC :1.39824: AVG IPC :1.50256: L2-Pf-HR :0.97714: L2-HR :0.86252: (Sim:1h42m51s) 
CPU  0 inst:  384000001 cyc:  255208396 now IPC :1.51174: AVG IPC :1.50258: L2-Pf-HR :0.97717: L2-HR :0.86252: (Sim:1h43m11s) 
CPU  0 inst:  385000000 cyc:  255869404 now IPC :1.51284: AVG IPC :1.50261: L2-Pf-HR :0.97718: L2-HR :0.86255: (Sim:1h43m30s) 
CPU  0 inst:  386000001 cyc:  256530540 now IPC :1.51255: AVG IPC :1.50263: L2-Pf-HR :0.97720: L2-HR :0.86257: (Sim:1h43m50s) 
CPU  0 inst:  387000000 cyc:  257191740 now IPC :1.51240: AVG IPC :1.50266: L2-Pf-HR :0.97724: L2-HR :0.86260: (Sim:1h44m10s) 
CPU  0 inst:  388000001 cyc:  257852027 now IPC :1.51449: AVG IPC :1.50269: L2-Pf-HR :0.97724: L2-HR :0.86263: (Sim:1h44m29s) 
CPU  0 inst:  389000001 cyc:  258548111 now IPC :1.43661: AVG IPC :1.50251: L2-Pf-HR :0.97724: L2-HR :0.86263: (Sim:1h44m48s) 
CPU  0 inst:  390000000 cyc:  259203751 now IPC :1.52523: AVG IPC :1.50257: L2-Pf-HR :0.97728: L2-HR :0.86268: (Sim:1h45m8s) 
CPU  0 inst:  391000000 cyc:  259860769 now IPC :1.52203: AVG IPC :1.50262: L2-Pf-HR :0.97731: L2-HR :0.86270: (Sim:1h45m27s) 
CPU  0 inst:  392000000 cyc:  260516469 now IPC :1.52509: AVG IPC :1.50267: L2-Pf-HR :0.97731: L2-HR :0.86272: (Sim:1h45m45s) 
CPU  0 inst:  393000000 cyc:  261173340 now IPC :1.52237: AVG IPC :1.50272: L2-Pf-HR :0.97734: L2-HR :0.86276: (Sim:1h46m4s) 
CPU  0 inst:  394000004 cyc:  261831171 now IPC :1.52015: AVG IPC :1.50277: L2-Pf-HR :0.97736: L2-HR :0.86278: (Sim:1h46m23s) 
CPU  0 inst:  395000000 cyc:  262566443 now IPC :1.36004: AVG IPC :1.50237: L2-Pf-HR :0.97729: L2-HR :0.86276: (Sim:1h46m42s) 
CPU  0 inst:  396000004 cyc:  263226009 now IPC :1.51615: AVG IPC :1.50240: L2-Pf-HR :0.97732: L2-HR :0.86277: (Sim:1h47m2s) 
CPU  0 inst:  397000004 cyc:  263883709 now IPC :1.52045: AVG IPC :1.50245: L2-Pf-HR :0.97734: L2-HR :0.86278: (Sim:1h47m21s) 
CPU  0 inst:  398000004 cyc:  264542991 now IPC :1.51680: AVG IPC :1.50248: L2-Pf-HR :0.97735: L2-HR :0.86281: (Sim:1h47m40s) 
CPU  0 inst:  399000004 cyc:  265201820 now IPC :1.51784: AVG IPC :1.50252: L2-Pf-HR :0.97739: L2-HR :0.86284: (Sim:1h48m0s) 
CPU  0 inst:  400000003 cyc:  265860315 now IPC :1.51861: AVG IPC :1.50256: L2-Pf-HR :0.97739: L2-HR :0.86286: (Sim:1h48m19s) 
CPU  0 inst:  401000004 cyc:  266561111 now IPC :1.42695: AVG IPC :1.50236: L2-Pf-HR :0.97739: L2-HR :0.86287: (Sim:1h48m39s) 
CPU  0 inst:  402000002 cyc:  267225110 now IPC :1.50602: AVG IPC :1.50237: L2-Pf-HR :0.97741: L2-HR :0.86290: (Sim:1h48m58s) 
CPU  0 inst:  403000002 cyc:  267888473 now IPC :1.50747: AVG IPC :1.50238: L2-Pf-HR :0.97744: L2-HR :0.86293: (Sim:1h49m18s) 
CPU  0 inst:  404000002 cyc:  268552550 now IPC :1.50585: AVG IPC :1.50239: L2-Pf-HR :0.97744: L2-HR :0.86295: (Sim:1h49m37s) 
CPU  0 inst:  405000000 cyc:  269215906 now IPC :1.50748: AVG IPC :1.50240: L2-Pf-HR :0.97745: L2-HR :0.86297: (Sim:1h49m56s) 
CPU  0 inst:  406000000 cyc:  269879970 now IPC :1.50588: AVG IPC :1.50241: L2-Pf-HR :0.97748: L2-HR :0.86300: (Sim:1h50m16s) 
CPU  0 inst:  407000004 cyc:  270558651 now IPC :1.47345: AVG IPC :1.50234: L2-Pf-HR :0.97744: L2-HR :0.86290: (Sim:1h50m28s) 
CPU  0 inst:  408000004 cyc:  271217382 now IPC :1.51807: AVG IPC :1.50238: L2-Pf-HR :0.97740: L2-HR :0.86273: (Sim:1h50m42s) 
CPU  0 inst:  409000001 cyc:  271891061 now IPC :1.48438: AVG IPC :1.50233: L2-Pf-HR :0.97739: L2-HR :0.86258: (Sim:1h50m56s) 
CPU  0 inst:  410000000 cyc:  272552115 now IPC :1.51273: AVG IPC :1.50236: L2-Pf-HR :0.97738: L2-HR :0.86243: (Sim:1h51m15s) 
CPU  0 inst:  411000004 cyc:  273307822 now IPC :1.32327: AVG IPC :1.50186: L2-Pf-HR :0.97732: L2-HR :0.86230: (Sim:1h51m34s) 
CPU  0 inst:  412000000 cyc:  273980537 now IPC :1.48651: AVG IPC :1.50182: L2-Pf-HR :0.97732: L2-HR :0.86228: (Sim:1h51m50s) 
CPU  0 inst:  413000002 cyc:  274653489 now IPC :1.48599: AVG IPC :1.50178: L2-Pf-HR :0.97732: L2-HR :0.86228: (Sim:1h52m9s) 
CPU  0 inst:  414000001 cyc:  275326664 now IPC :1.48550: AVG IPC :1.50174: L2-Pf-HR :0.97734: L2-HR :0.86228: (Sim:1h52m29s) 
CPU  0 inst:  415000005 cyc:  275998890 now IPC :1.48760: AVG IPC :1.50171: L2-Pf-HR :0.97734: L2-HR :0.86230: (Sim:1h52m48s) 
CPU  0 inst:  416000005 cyc:  276670737 now IPC :1.48843: AVG IPC :1.50168: L2-Pf-HR :0.97735: L2-HR :0.86230: (Sim:1h53m7s) 
CPU  0 inst:  417000002 cyc:  277375271 now IPC :1.41937: AVG IPC :1.50147: L2-Pf-HR :0.97734: L2-HR :0.86231: (Sim:1h53m27s) 
CPU  0 inst:  418000003 cyc:  278037125 now IPC :1.51091: AVG IPC :1.50149: L2-Pf-HR :0.97735: L2-HR :0.86231: (Sim:1h53m46s) 
CPU  0 inst:  419000004 cyc:  278698739 now IPC :1.51146: AVG IPC :1.50151: L2-Pf-HR :0.97735: L2-HR :0.86232: (Sim:1h54m6s) 
CPU  0 inst:  420000004 cyc:  279360775 now IPC :1.51049: AVG IPC :1.50154: L2-Pf-HR :0.97733: L2-HR :0.86231: (Sim:1h54m25s) 
CPU  0 inst:  421000000 cyc:  280027404 now IPC :1.50008: AVG IPC :1.50153: L2-Pf-HR :0.97729: L2-HR :0.86229: (Sim:1h54m43s) 
CPU  0 inst:  422000003 cyc:  280690591 now IPC :1.50787: AVG IPC :1.50155: L2-Pf-HR :0.97727: L2-HR :0.86229: (Sim:1h55m2s) 
CPU  0 inst:  423000000 cyc:  281423836 now IPC :1.36380: AVG IPC :1.50119: L2-Pf-HR :0.97719: L2-HR :0.86224: (Sim:1h55m22s) 
CPU  0 inst:  424000001 cyc:  282080660 now IPC :1.52248: AVG IPC :1.50124: L2-Pf-HR :0.97721: L2-HR :0.86226: (Sim:1h55m42s) 
CPU  0 inst:  425000001 cyc:  282738351 now IPC :1.52047: AVG IPC :1.50128: L2-Pf-HR :0.97721: L2-HR :0.86225: (Sim:1h56m1s) 
CPU  0 inst:  426000000 cyc:  283397161 now IPC :1.51789: AVG IPC :1.50132: L2-Pf-HR :0.97719: L2-HR :0.86226: (Sim:1h56m21s) 
CPU  0 inst:  427000000 cyc:  284053852 now IPC :1.52279: AVG IPC :1.50137: L2-Pf-HR :0.97721: L2-HR :0.86229: (Sim:1h56m40s) 
CPU  0 inst:  428000004 cyc:  284711752 now IPC :1.51999: AVG IPC :1.50141: L2-Pf-HR :0.97722: L2-HR :0.86230: (Sim:1h57m0s) 
CPU  0 inst:  429000000 cyc:  285409796 now IPC :1.43257: AVG IPC :1.50124: L2-Pf-HR :0.97721: L2-HR :0.86231: (Sim:1h57m20s) 
CPU  0 inst:  430000000 cyc:  286072814 now IPC :1.50825: AVG IPC :1.50126: L2-Pf-HR :0.97718: L2-HR :0.86230: (Sim:1h57m39s) 
CPU  0 inst:  431000000 cyc:  286730146 now IPC :1.52130: AVG IPC :1.50131: L2-Pf-HR :0.97721: L2-HR :0.86234: (Sim:1h57m59s) 
CPU  0 inst:  432000005 cyc:  287388520 now IPC :1.51890: AVG IPC :1.50135: L2-Pf-HR :0.97723: L2-HR :0.86235: (Sim:1h58m18s) 
CPU  0 inst:  433000000 cyc:  288045838 now IPC :1.52133: AVG IPC :1.50139: L2-Pf-HR :0.97723: L2-HR :0.86237: (Sim:1h58m38s) 
CPU  0 inst:  434000005 cyc:  288703401 now IPC :1.52077: AVG IPC :1.50144: L2-Pf-HR :0.97726: L2-HR :0.86240: (Sim:1h58m50s) 
CPU  0 inst:  435000004 cyc:  289433194 now IPC :1.37025: AVG IPC :1.50111: L2-Pf-HR :0.97723: L2-HR :0.86238: (Sim:1h59m9s) 
CPU  0 inst:  436000002 cyc:  290091621 now IPC :1.51877: AVG IPC :1.50115: L2-Pf-HR :0.97726: L2-HR :0.86241: (Sim:1h59m28s) 
CPU  0 inst:  437000004 cyc:  290751375 now IPC :1.51572: AVG IPC :1.50118: L2-Pf-HR :0.97727: L2-HR :0.86241: (Sim:1h59m48s) 
CPU  0 inst:  438000001 cyc:  291411351 now IPC :1.51520: AVG IPC :1.50121: L2-Pf-HR :0.97728: L2-HR :0.86243: (Sim:2h0m7s) 
CPU  0 inst:  439000000 cyc:  292071636 now IPC :1.51450: AVG IPC :1.50124: L2-Pf-HR :0.97731: L2-HR :0.86247: (Sim:2h0m26s) 
CPU  0 inst:  440000003 cyc:  292732144 now IPC :1.51399: AVG IPC :1.50127: L2-Pf-HR :0.97730: L2-HR :0.86247: (Sim:2h0m46s) 
CPU  0 inst:  441000002 cyc:  293423878 now IPC :1.44564: AVG IPC :1.50114: L2-Pf-HR :0.97730: L2-HR :0.86249: (Sim:2h1m5s) 
CPU  0 inst:  442000002 cyc:  294073573 now IPC :1.53918: AVG IPC :1.50122: L2-Pf-HR :0.97731: L2-HR :0.86249: (Sim:2h1m24s) 
CPU  0 inst:  443000001 cyc:  294721006 now IPC :1.54456: AVG IPC :1.50132: L2-Pf-HR :0.97734: L2-HR :0.86253: (Sim:2h1m44s) 
CPU  0 inst:  444000002 cyc:  295368632 now IPC :1.54410: AVG IPC :1.50141: L2-Pf-HR :0.97733: L2-HR :0.86254: (Sim:2h2m3s) 
CPU  0 inst:  445000001 cyc:  296016390 now IPC :1.54378: AVG IPC :1.50151: L2-Pf-HR :0.97734: L2-HR :0.86255: (Sim:2h2m16s) 
CPU  0 inst:  446000000 cyc:  296665134 now IPC :1.54144: AVG IPC :1.50159: L2-Pf-HR :0.97738: L2-HR :0.86260: (Sim:2h2m27s) 
CPU  0 inst:  447000003 cyc:  297389701 now IPC :1.38014: AVG IPC :1.50130: L2-Pf-HR :0.97734: L2-HR :0.86257: (Sim:2h2m42s) 
CPU  0 inst:  448000003 cyc:  298044638 now IPC :1.52686: AVG IPC :1.50135: L2-Pf-HR :0.97737: L2-HR :0.86259: (Sim:2h3m1s) 
CPU  0 inst:  449000002 cyc:  298701342 now IPC :1.52275: AVG IPC :1.50140: L2-Pf-HR :0.97738: L2-HR :0.86260: (Sim:2h3m20s) 
CPU  0 inst:  450000001 cyc:  299358348 now IPC :1.52205: AVG IPC :1.50144: L2-Pf-HR :0.97738: L2-HR :0.86262: (Sim:2h3m40s) 
CPU  0 inst:  451000005 cyc:  300015120 now IPC :1.52260: AVG IPC :1.50149: L2-Pf-HR :0.97741: L2-HR :0.86265: (Sim:2h3m59s) 
CPU  0 inst:  452000002 cyc:  300671421 now IPC :1.52369: AVG IPC :1.50154: L2-Pf-HR :0.97742: L2-HR :0.86266: (Sim:2h4m19s) 
CPU  0 inst:  453000001 cyc:  301365743 now IPC :1.44025: AVG IPC :1.50140: L2-Pf-HR :0.97744: L2-HR :0.86270: (Sim:2h4m37s) 
CPU  0 inst:  454000000 cyc:  302022630 now IPC :1.52233: AVG IPC :1.50144: L2-Pf-HR :0.97744: L2-HR :0.86270: (Sim:2h4m57s) 
CPU  0 inst:  455000001 cyc:  302679944 now IPC :1.52134: AVG IPC :1.50149: L2-Pf-HR :0.97746: L2-HR :0.86273: (Sim:2h5m16s) 
CPU  0 inst:  456000003 cyc:  303337370 now IPC :1.52109: AVG IPC :1.50153: L2-Pf-HR :0.97747: L2-HR :0.86275: (Sim:2h5m35s) 
CPU  0 inst:  457000002 cyc:  303994254 now IPC :1.52234: AVG IPC :1.50157: L2-Pf-HR :0.97749: L2-HR :0.86278: (Sim:2h5m54s) 
CPU  0 inst:  458000000 cyc:  304650743 now IPC :1.52325: AVG IPC :1.50162: L2-Pf-HR :0.97750: L2-HR :0.86280: (Sim:2h6m13s) 
CPU  0 inst:  459000005 cyc:  305385100 now IPC :1.36174: AVG IPC :1.50128: L2-Pf-HR :0.97746: L2-HR :0.86277: (Sim:2h6m32s) 
CPU  0 inst:  460000005 cyc:  306046182 now IPC :1.51267: AVG IPC :1.50131: L2-Pf-HR :0.97747: L2-HR :0.86279: (Sim:2h6m51s) 
CPU  0 inst:  461000002 cyc:  306705822 now IPC :1.51597: AVG IPC :1.50134: L2-Pf-HR :0.97749: L2-HR :0.86280: (Sim:2h7m10s) 
CPU  0 inst:  462000001 cyc:  307365085 now IPC :1.51684: AVG IPC :1.50137: L2-Pf-HR :0.97751: L2-HR :0.86282: (Sim:2h7m29s) 
CPU  0 inst:  463000004 cyc:  308024690 now IPC :1.51606: AVG IPC :1.50141: L2-Pf-HR :0.97753: L2-HR :0.86285: (Sim:2h7m48s) 
CPU  0 inst:  464000004 cyc:  308683839 now IPC :1.51711: AVG IPC :1.50144: L2-Pf-HR :0.97754: L2-HR :0.86286: (Sim:2h8m7s) 
CPU  0 inst:  465000003 cyc:  309373848 now IPC :1.44925: AVG IPC :1.50132: L2-Pf-HR :0.97756: L2-HR :0.86289: (Sim:2h8m25s) 
CPU  0 inst:  466000003 cyc:  310020450 now IPC :1.54655: AVG IPC :1.50142: L2-Pf-HR :0.97757: L2-HR :0.86291: (Sim:2h8m44s) 
CPU  0 inst:  467000002 cyc:  310666249 now IPC :1.54847: AVG IPC :1.50152: L2-Pf-HR :0.97759: L2-HR :0.86294: (Sim:2h9m3s) 
CPU  0 inst:  468000002 cyc:  311312034 now IPC :1.54850: AVG IPC :1.50161: L2-Pf-HR :0.97760: L2-HR :0.86295: (Sim:2h9m22s) 
CPU  0 inst:  469000001 cyc:  311958103 now IPC :1.54782: AVG IPC :1.50171: L2-Pf-HR :0.97761: L2-HR :0.86297: (Sim:2h9m38s) 
CPU  0 inst:  470000001 cyc:  312602179 now IPC :1.55261: AVG IPC :1.50181: L2-Pf-HR :0.97763: L2-HR :0.86300: (Sim:2h9m53s) 
CPU  0 inst:  471000002 cyc:  313279202 now IPC :1.47706: AVG IPC :1.50176: L2-Pf-HR :0.97763: L2-HR :0.86294: (Sim:2h10m12s) 
CPU  0 inst:  472000002 cyc:  313940574 now IPC :1.51201: AVG IPC :1.50178: L2-Pf-HR :0.97760: L2-HR :0.86281: (Sim:2h10m31s) 
CPU  0 inst:  473000004 cyc:  314616119 now IPC :1.48029: AVG IPC :1.50174: L2-Pf-HR :0.97758: L2-HR :0.86267: (Sim:2h10m50s) 
CPU  0 inst:  474000000 cyc:  315279589 now IPC :1.50722: AVG IPC :1.50175: L2-Pf-HR :0.97758: L2-HR :0.86254: (Sim:2h11m9s) 
CPU  0 inst:  475000001 cyc:  316036595 now IPC :1.32099: AVG IPC :1.50131: L2-Pf-HR :0.97754: L2-HR :0.86241: (Sim:2h11m29s) 
CPU  0 inst:  476000005 cyc:  316712795 now IPC :1.47886: AVG IPC :1.50127: L2-Pf-HR :0.97754: L2-HR :0.86241: (Sim:2h11m49s) 
CPU  0 inst:  477000000 cyc:  317389291 now IPC :1.47820: AVG IPC :1.50122: L2-Pf-HR :0.97755: L2-HR :0.86239: (Sim:2h12m9s) 
CPU  0 inst:  478000001 cyc:  318064670 now IPC :1.48065: AVG IPC :1.50117: L2-Pf-HR :0.97755: L2-HR :0.86240: (Sim:2h12m28s) 
CPU  0 inst:  479000003 cyc:  318740170 now IPC :1.48039: AVG IPC :1.50113: L2-Pf-HR :0.97756: L2-HR :0.86240: (Sim:2h12m48s) 
CPU  0 inst:  480000005 cyc:  319415292 now IPC :1.48122: AVG IPC :1.50109: L2-Pf-HR :0.97756: L2-HR :0.86241: (Sim:2h13m8s) 
CPU  0 inst:  481000004 cyc:  320128742 now IPC :1.40164: AVG IPC :1.50086: L2-Pf-HR :0.97756: L2-HR :0.86242: (Sim:2h13m27s) 
CPU  0 inst:  482000000 cyc:  320805628 now IPC :1.47735: AVG IPC :1.50081: L2-Pf-HR :0.97756: L2-HR :0.86242: (Sim:2h13m46s) 
CPU  0 inst:  483000003 cyc:  321482072 now IPC :1.47832: AVG IPC :1.50077: L2-Pf-HR :0.97756: L2-HR :0.86242: (Sim:2h14m6s) 
CPU  0 inst:  484000001 cyc:  322160592 now IPC :1.47379: AVG IPC :1.50071: L2-Pf-HR :0.97754: L2-HR :0.86241: (Sim:2h14m25s) 
CPU  0 inst:  485000001 cyc:  322836732 now IPC :1.47898: AVG IPC :1.50066: L2-Pf-HR :0.97751: L2-HR :0.86240: (Sim:2h14m44s) 
CPU  0 inst:  486000000 cyc:  323514892 now IPC :1.47458: AVG IPC :1.50061: L2-Pf-HR :0.97750: L2-HR :0.86239: (Sim:2h15m2s) 
CPU  0 inst:  487000003 cyc:  324257249 now IPC :1.34706: AVG IPC :1.50026: L2-Pf-HR :0.97742: L2-HR :0.86235: (Sim:2h15m11s) 
CPU  0 inst:  488000003 cyc:  324907810 now IPC :1.53713: AVG IPC :1.50033: L2-Pf-HR :0.97744: L2-HR :0.86235: (Sim:2h15m27s) 
CPU  0 inst:  489000002 cyc:  325556966 now IPC :1.54046: AVG IPC :1.50041: L2-Pf-HR :0.97744: L2-HR :0.86236: (Sim:2h15m46s) 
CPU  0 inst:  490000002 cyc:  326208648 now IPC :1.53449: AVG IPC :1.50048: L2-Pf-HR :0.97742: L2-HR :0.86236: (Sim:2h16m5s) 
CPU  0 inst:  491000005 cyc:  326859480 now IPC :1.53650: AVG IPC :1.50055: L2-Pf-HR :0.97744: L2-HR :0.86238: (Sim:2h16m24s) 
CPU  0 inst:  492000003 cyc:  327510830 now IPC :1.53527: AVG IPC :1.50062: L2-Pf-HR :0.97742: L2-HR :0.86238: (Sim:2h16m43s) 
CPU  0 inst:  493000003 cyc:  328203693 now IPC :1.44329: AVG IPC :1.50050: L2-Pf-HR :0.97740: L2-HR :0.86238: (Sim:2h17m2s) 
CPU  0 inst:  494000001 cyc:  328859795 now IPC :1.52415: AVG IPC :1.50055: L2-Pf-HR :0.97740: L2-HR :0.86239: (Sim:2h17m21s) 
CPU  0 inst:  495000001 cyc:  329515823 now IPC :1.52433: AVG IPC :1.50059: L2-Pf-HR :0.97742: L2-HR :0.86241: (Sim:2h17m40s) 
CPU  0 inst:  496000004 cyc:  330171657 now IPC :1.52478: AVG IPC :1.50064: L2-Pf-HR :0.97743: L2-HR :0.86243: (Sim:2h17m59s) 
CPU  0 inst:  497000004 cyc:  330828160 now IPC :1.52322: AVG IPC :1.50069: L2-Pf-HR :0.97744: L2-HR :0.86245: (Sim:2h18m18s) 
CPU  0 inst:  498000004 cyc:  331483722 now IPC :1.52541: AVG IPC :1.50074: L2-Pf-HR :0.97746: L2-HR :0.86248: (Sim:2h18m37s) 
CPU  0 inst:  499000005 cyc:  332205583 now IPC :1.38531: AVG IPC :1.50048: L2-Pf-HR :0.97743: L2-HR :0.86247: (Sim:2h18m57s) 
CPU  0 inst:  500000003 cyc:  332858373 now IPC :1.53188: AVG IPC :1.50055: L2-Pf-HR :0.97745: L2-HR :0.86247: (Sim:2h19m16s) 
CPU  0 inst:  501000004 cyc:  333512093 now IPC :1.52971: AVG IPC :1.50060: L2-Pf-HR :0.97747: L2-HR :0.86249: (Sim:2h19m33s) 
CPU  0 inst:  502000001 cyc:  334164712 now IPC :1.53228: AVG IPC :1.50066: L2-Pf-HR :0.97746: L2-HR :0.86250: (Sim:2h19m52s) 
CPU  0 inst:  503000003 cyc:  334817284 now IPC :1.53240: AVG IPC :1.50073: L2-Pf-HR :0.97748: L2-HR :0.86251: (Sim:2h20m5s) 
CPU  0 inst:  504000004 cyc:  335469084 now IPC :1.53421: AVG IPC :1.50079: L2-Pf-HR :0.97750: L2-HR :0.86255: (Sim:2h20m23s) 
CPU  0 inst:  505000003 cyc:  336155456 now IPC :1.45693: AVG IPC :1.50070: L2-Pf-HR :0.97754: L2-HR :0.86257: (Sim:2h20m42s) 
CPU  0 inst:  506000000 cyc:  336794631 now IPC :1.56451: AVG IPC :1.50082: L2-Pf-HR :0.97755: L2-HR :0.86259: (Sim:2h21m1s) 
CPU  0 inst:  507000002 cyc:  337435037 now IPC :1.56151: AVG IPC :1.50094: L2-Pf-HR :0.97755: L2-HR :0.86261: (Sim:2h21m19s) 
CPU  0 inst:  508000001 cyc:  338075377 now IPC :1.56167: AVG IPC :1.50105: L2-Pf-HR :0.97758: L2-HR :0.86263: (Sim:2h21m38s) 
CPU  0 inst:  509000001 cyc:  338714616 now IPC :1.56436: AVG IPC :1.50117: L2-Pf-HR :0.97759: L2-HR :0.86265: (Sim:2h21m57s) 
CPU  0 inst:  510000002 cyc:  339353768 now IPC :1.56457: AVG IPC :1.50129: L2-Pf-HR :0.97760: L2-HR :0.86266: (Sim:2h22m16s) 
CPU  0 inst:  511000001 cyc:  340065480 now IPC :1.40506: AVG IPC :1.50109: L2-Pf-HR :0.97758: L2-HR :0.86267: (Sim:2h22m30s) 
CPU  0 inst:  512000000 cyc:  340723104 now IPC :1.52062: AVG IPC :1.50113: L2-Pf-HR :0.97759: L2-HR :0.86267: (Sim:2h22m48s) 
CPU  0 inst:  513000003 cyc:  341381264 now IPC :1.51939: AVG IPC :1.50117: L2-Pf-HR :0.97761: L2-HR :0.86269: (Sim:2h23m7s) 
CPU  0 inst:  514000001 cyc:  342037615 now IPC :1.52357: AVG IPC :1.50121: L2-Pf-HR :0.97762: L2-HR :0.86271: (Sim:2h23m27s) 
CPU  0 inst:  515000001 cyc:  342695136 now IPC :1.52086: AVG IPC :1.50125: L2-Pf-HR :0.97763: L2-HR :0.86272: (Sim:2h23m42s) 
CPU  0 inst:  516000005 cyc:  343352539 now IPC :1.52114: AVG IPC :1.50128: L2-Pf-HR :0.97765: L2-HR :0.86275: (Sim:2h23m59s) 
CPU  0 inst:  517000002 cyc:  344048755 now IPC :1.43633: AVG IPC :1.50115: L2-Pf-HR :0.97765: L2-HR :0.86275: (Sim:2h24m17s) 
CPU  0 inst:  518000002 cyc:  344707815 now IPC :1.51731: AVG IPC :1.50118: L2-Pf-HR :0.97766: L2-HR :0.86278: (Sim:2h24m36s) 
CPU  0 inst:  519000005 cyc:  345366708 now IPC :1.51770: AVG IPC :1.50122: L2-Pf-HR :0.97768: L2-HR :0.86280: (Sim:2h24m54s) 
CPU  0 inst:  520000005 cyc:  346024399 now IPC :1.52047: AVG IPC :1.50125: L2-Pf-HR :0.97770: L2-HR :0.86281: (Sim:2h25m12s) 
CPU  0 inst:  521000005 cyc:  346682509 now IPC :1.51950: AVG IPC :1.50129: L2-Pf-HR :0.97770: L2-HR :0.86283: (Sim:2h25m32s) 
CPU  0 inst:  522000002 cyc:  347342500 now IPC :1.51517: AVG IPC :1.50131: L2-Pf-HR :0.97772: L2-HR :0.86285: (Sim:2h25m48s) 
CPU  0 inst:  523000002 cyc:  348073642 now IPC :1.36772: AVG IPC :1.50103: L2-Pf-HR :0.97770: L2-HR :0.86285: (Sim:2h26m8s) 
CPU  0 inst:  524000005 cyc:  348732522 now IPC :1.51773: AVG IPC :1.50106: L2-Pf-HR :0.97772: L2-HR :0.86286: (Sim:2h26m27s) 
CPU  0 inst:  525000005 cyc:  349392659 now IPC :1.51484: AVG IPC :1.50109: L2-Pf-HR :0.97774: L2-HR :0.86287: (Sim:2h26m45s) 
CPU  0 inst:  526000000 cyc:  350050789 now IPC :1.51945: AVG IPC :1.50112: L2-Pf-HR :0.97775: L2-HR :0.86289: (Sim:2h27m1s) 
CPU  0 inst:  527000000 cyc:  350710192 now IPC :1.51652: AVG IPC :1.50115: L2-Pf-HR :0.97777: L2-HR :0.86290: (Sim:2h27m20s) 
CPU  0 inst:  528000002 cyc:  351373728 now IPC :1.50708: AVG IPC :1.50116: L2-Pf-HR :0.97776: L2-HR :0.86292: (Sim:2h27m38s) 
CPU  0 inst:  529000003 cyc:  352073108 now IPC :1.42984: AVG IPC :1.50102: L2-Pf-HR :0.97777: L2-HR :0.86293: (Sim:2h27m57s) 
CPU  0 inst:  530000004 cyc:  352731805 now IPC :1.51815: AVG IPC :1.50105: L2-Pf-HR :0.97777: L2-HR :0.86295: (Sim:2h28m15s) 
CPU  0 inst:  531000004 cyc:  353390935 now IPC :1.51715: AVG IPC :1.50108: L2-Pf-HR :0.97780: L2-HR :0.86297: (Sim:2h28m30s) 
CPU  0 inst:  532000000 cyc:  354052912 now IPC :1.51062: AVG IPC :1.50110: L2-Pf-HR :0.97780: L2-HR :0.86298: (Sim:2h28m43s) 
CPU  0 inst:  533000004 cyc:  354712358 now IPC :1.51643: AVG IPC :1.50113: L2-Pf-HR :0.97781: L2-HR :0.86301: (Sim:2h28m58s) 
CPU  0 inst:  534000002 cyc:  355372685 now IPC :1.51440: AVG IPC :1.50116: L2-Pf-HR :0.97783: L2-HR :0.86302: (Sim:2h29m17s) 
CPU  0 inst:  535000000 cyc:  356050506 now IPC :1.47531: AVG IPC :1.50111: L2-Pf-HR :0.97781: L2-HR :0.86299: (Sim:2h29m37s) 
CPU  0 inst:  536000003 cyc:  356707365 now IPC :1.52240: AVG IPC :1.50115: L2-Pf-HR :0.97777: L2-HR :0.86286: (Sim:2h29m54s) 
CPU  0 inst:  537000002 cyc:  357376374 now IPC :1.49475: AVG IPC :1.50113: L2-Pf-HR :0.97776: L2-HR :0.86274: (Sim:2h30m11s) 
CPU  0 inst:  538000003 cyc:  358034630 now IPC :1.51917: AVG IPC :1.50117: L2-Pf-HR :0.97775: L2-HR :0.86263: (Sim:2h30m30s) 
CPU  0 inst:  539000002 cyc:  358780374 now IPC :1.34094: AVG IPC :1.50083: L2-Pf-HR :0.97771: L2-HR :0.86250: (Sim:2h30m50s) 
CPU  0 inst:  540000000 cyc:  359441583 now IPC :1.51238: AVG IPC :1.50085: L2-Pf-HR :0.97772: L2-HR :0.86249: (Sim:2h31m9s) 
CPU  0 inst:  541000003 cyc:  360102339 now IPC :1.51342: AVG IPC :1.50088: L2-Pf-HR :0.97771: L2-HR :0.86248: (Sim:2h31m28s) 
CPU  0 inst:  542000002 cyc:  360760839 now IPC :1.51860: AVG IPC :1.50091: L2-Pf-HR :0.97771: L2-HR :0.86249: (Sim:2h31m48s) 
CPU  0 inst:  543000003 cyc:  361422584 now IPC :1.51116: AVG IPC :1.50093: L2-Pf-HR :0.97771: L2-HR :0.86250: (Sim:2h32m7s) 
CPU  0 inst:  544000000 cyc:  362082152 now IPC :1.51614: AVG IPC :1.50096: L2-Pf-HR :0.97772: L2-HR :0.86251: (Sim:2h32m27s) 
CPU  0 inst:  545000001 cyc:  362780380 now IPC :1.43220: AVG IPC :1.50082: L2-Pf-HR :0.97772: L2-HR :0.86251: (Sim:2h32m46s) 
CPU  0 inst:  546000003 cyc:  363436200 now IPC :1.52481: AVG IPC :1.50087: L2-Pf-HR :0.97772: L2-HR :0.86252: (Sim:2h33m5s) 
CPU  0 inst:  547000003 cyc:  364093545 now IPC :1.52127: AVG IPC :1.50090: L2-Pf-HR :0.97772: L2-HR :0.86251: (Sim:2h33m24s) 
CPU  0 inst:  548000005 cyc:  364751391 now IPC :1.52012: AVG IPC :1.50094: L2-Pf-HR :0.97770: L2-HR :0.86251: (Sim:2h33m37s) 
CPU  0 inst:  549000001 cyc:  365412183 now IPC :1.51333: AVG IPC :1.50096: L2-Pf-HR :0.97769: L2-HR :0.86250: (Sim:2h33m57s) 
CPU  0 inst:  550000003 cyc:  366071071 now IPC :1.51771: AVG IPC :1.50099: L2-Pf-HR :0.97766: L2-HR :0.86250: (Sim:2h34m17s) 
CPU  0 inst:  551000003 cyc:  366809691 now IPC :1.35388: AVG IPC :1.50069: L2-Pf-HR :0.97759: L2-HR :0.86245: (Sim:2h34m39s) 
CPU  0 inst:  552000000 cyc:  367464678 now IPC :1.52674: AVG IPC :1.50074: L2-Pf-HR :0.97759: L2-HR :0.86245: (Sim:2h34m59s) 
CPU  0 inst:  553000000 cyc:  368119187 now IPC :1.52786: AVG IPC :1.50079: L2-Pf-HR :0.97759: L2-HR :0.86246: (Sim:2h35m14s) 
CPU  0 inst:  554000001 cyc:  368776644 now IPC :1.52101: AVG IPC :1.50083: L2-Pf-HR :0.97759: L2-HR :0.86246: (Sim:2h35m28s) 
CPU  0 inst:  555000003 cyc:  369431286 now IPC :1.52756: AVG IPC :1.50087: L2-Pf-HR :0.97757: L2-HR :0.86247: (Sim:2h35m47s) 
CPU  0 inst:  556000001 cyc:  370085550 now IPC :1.52843: AVG IPC :1.50092: L2-Pf-HR :0.97757: L2-HR :0.86247: (Sim:2h36m2s) 
CPU  0 inst:  557000005 cyc:  370778747 now IPC :1.44260: AVG IPC :1.50081: L2-Pf-HR :0.97758: L2-HR :0.86249: (Sim:2h36m19s) 
CPU  0 inst:  558000004 cyc:  371439172 now IPC :1.51417: AVG IPC :1.50084: L2-Pf-HR :0.97759: L2-HR :0.86250: (Sim:2h36m32s) 
CPU  0 inst:  559000005 cyc:  372096659 now IPC :1.52094: AVG IPC :1.50087: L2-Pf-HR :0.97760: L2-HR :0.86252: (Sim:2h36m52s) 
CPU  0 inst:  560000002 cyc:  372753590 now IPC :1.52223: AVG IPC :1.50091: L2-Pf-HR :0.97761: L2-HR :0.86254: (Sim:2h37m11s) 
CPU  0 inst:  561000005 cyc:  373411127 now IPC :1.52083: AVG IPC :1.50094: L2-Pf-HR :0.97762: L2-HR :0.86256: (Sim:2h37m31s) 
CPU  0 inst:  562000003 cyc:  374067763 now IPC :1.52291: AVG IPC :1.50098: L2-Pf-HR :0.97762: L2-HR :0.86257: (Sim:2h37m50s) 
CPU  0 inst:  563000002 cyc:  374789848 now IPC :1.38488: AVG IPC :1.50076: L2-Pf-HR :0.97760: L2-HR :0.86256: (Sim:2h38m11s) 
CPU  0 inst:  564000002 cyc:  375432250 now IPC :1.55666: AVG IPC :1.50086: L2-Pf-HR :0.97761: L2-HR :0.86258: (Sim:2h38m25s) 
xz: 770-tot_memTraces_v5/120-subBillion_s2048_LLM_Arch/memTraces[2639000000]_FE_[OPT-350M]_[h16]_[s2048]_[d64].champsim.9.xz: Unexpected end of input
*** Reached end of trace for Core: 0 Repeating trace: 770-tot_memTraces_v5/120-subBillion_s2048_LLM_Arch/memTraces[2639000000]_FE_[OPT-350M]_[h16]_[s2048]_[d64].champsim.9.xz
CPU  0 inst:  565000000 cyc:  376328705 now IPC :1.11550: AVG IPC :1.49993: L2-Pf-HR :0.97755: L2-HR :0.86247: (Sim:2h38m45s) 
CPU  0 inst:  566000003 cyc:  377003369 now IPC :1.48222: AVG IPC :1.49990: L2-Pf-HR :0.97754: L2-HR :0.86246: (Sim:2h39m5s) 
CPU  0 inst:  567000005 cyc:  377681208 now IPC :1.47528: AVG IPC :1.49986: L2-Pf-HR :0.97752: L2-HR :0.86244: (Sim:2h39m26s) 
CPU  0 inst:  568000001 cyc:  378357676 now IPC :1.47826: AVG IPC :1.49982: L2-Pf-HR :0.97749: L2-HR :0.86243: (Sim:2h39m40s) 
CPU  0 inst:  569000002 cyc:  379031855 now IPC :1.48329: AVG IPC :1.49979: L2-Pf-HR :0.97747: L2-HR :0.86242: (Sim:2h39m56s) 
CPU  0 inst:  570000003 cyc:  379707741 now IPC :1.47954: AVG IPC :1.49975: L2-Pf-HR :0.97744: L2-HR :0.86240: (Sim:2h40m16s) 
CPU  0 inst:  571000005 cyc:  380420988 now IPC :1.40204: AVG IPC :1.49957: L2-Pf-HR :0.97741: L2-HR :0.86239: (Sim:2h40m35s) 
CPU  0 inst:  572000001 cyc:  381098796 now IPC :1.47534: AVG IPC :1.49953: L2-Pf-HR :0.97738: L2-HR :0.86236: (Sim:2h40m51s) 
CPU  0 inst:  573000000 cyc:  381774803 now IPC :1.47927: AVG IPC :1.49949: L2-Pf-HR :0.97735: L2-HR :0.86235: (Sim:2h41m11s) 
CPU  0 inst:  574000000 cyc:  382450936 now IPC :1.47900: AVG IPC :1.49946: L2-Pf-HR :0.97732: L2-HR :0.86233: (Sim:2h41m28s) 
CPU  0 inst:  575000005 cyc:  383123091 now IPC :1.48776: AVG IPC :1.49943: L2-Pf-HR :0.97729: L2-HR :0.86232: (Sim:2h41m44s) 
CPU  0 inst:  576000001 cyc:  383799131 now IPC :1.47920: AVG IPC :1.49940: L2-Pf-HR :0.97724: L2-HR :0.86228: (Sim:2h42m3s) 
CPU  0 inst:  577000000 cyc:  384529163 now IPC :1.36980: AVG IPC :1.49915: L2-Pf-HR :0.97718: L2-HR :0.86225: (Sim:2h42m22s) 
CPU  0 inst:  578000000 cyc:  385181344 now IPC :1.53332: AVG IPC :1.49921: L2-Pf-HR :0.97717: L2-HR :0.86224: (Sim:2h42m41s) 
CPU  0 inst:  579000002 cyc:  385834170 now IPC :1.53180: AVG IPC :1.49927: L2-Pf-HR :0.97717: L2-HR :0.86225: (Sim:2h43m0s) 
CPU  0 inst:  580000003 cyc:  386486270 now IPC :1.53351: AVG IPC :1.49932: L2-Pf-HR :0.97717: L2-HR :0.86226: (Sim:2h43m20s) 
CPU  0 inst:  581000003 cyc:  387140209 now IPC :1.52919: AVG IPC :1.49937: L2-Pf-HR :0.97716: L2-HR :0.86226: (Sim:2h43m39s) 
CPU  0 inst:  582000001 cyc:  387792224 now IPC :1.53370: AVG IPC :1.49943: L2-Pf-HR :0.97718: L2-HR :0.86229: (Sim:2h43m57s) 
CPU  0 inst:  583000003 cyc:  388473781 now IPC :1.46723: AVG IPC :1.49938: L2-Pf-HR :0.97721: L2-HR :0.86231: (Sim:2h44m16s) 
CPU  0 inst:  584000002 cyc:  389113433 now IPC :1.56335: AVG IPC :1.49948: L2-Pf-HR :0.97720: L2-HR :0.86231: (Sim:2h44m35s) 
CPU  0 inst:  585000000 cyc:  389752846 now IPC :1.56393: AVG IPC :1.49959: L2-Pf-HR :0.97720: L2-HR :0.86232: (Sim:2h44m52s) 
CPU  0 inst:  586000002 cyc:  390393579 now IPC :1.56072: AVG IPC :1.49969: L2-Pf-HR :0.97722: L2-HR :0.86234: (Sim:2h45m3s) 
CPU  0 inst:  587000001 cyc:  391031910 now IPC :1.56658: AVG IPC :1.49980: L2-Pf-HR :0.97722: L2-HR :0.86236: (Sim:2h45m23s) 
CPU  0 inst:  588000002 cyc:  391671235 now IPC :1.56415: AVG IPC :1.49990: L2-Pf-HR :0.97724: L2-HR :0.86237: (Sim:2h45m42s) 
CPU  0 inst:  589000002 cyc:  392396898 now IPC :1.37805: AVG IPC :1.49968: L2-Pf-HR :0.97723: L2-HR :0.86237: (Sim:2h46m2s) 
CPU  0 inst:  590000001 cyc:  393049901 now IPC :1.53138: AVG IPC :1.49973: L2-Pf-HR :0.97724: L2-HR :0.86238: (Sim:2h46m21s) 
CPU  0 inst:  591000000 cyc:  393704519 now IPC :1.52761: AVG IPC :1.49978: L2-Pf-HR :0.97725: L2-HR :0.86238: (Sim:2h46m39s) 
CPU  0 inst:  592000000 cyc:  394357350 now IPC :1.53179: AVG IPC :1.49983: L2-Pf-HR :0.97727: L2-HR :0.86241: (Sim:2h46m53s) 
CPU  0 inst:  593000000 cyc:  395011000 now IPC :1.52987: AVG IPC :1.49988: L2-Pf-HR :0.97728: L2-HR :0.86242: (Sim:2h47m12s) 
CPU  0 inst:  594000000 cyc:  395663600 now IPC :1.53233: AVG IPC :1.49993: L2-Pf-HR :0.97728: L2-HR :0.86243: (Sim:2h47m32s) 
CPU  0 inst:  595000000 cyc:  396360453 now IPC :1.43502: AVG IPC :1.49982: L2-Pf-HR :0.97727: L2-HR :0.86243: (Sim:2h47m51s) 
CPU  0 inst:  596000002 cyc:  397020556 now IPC :1.51492: AVG IPC :1.49984: L2-Pf-HR :0.97729: L2-HR :0.86245: (Sim:2h48m10s) 
CPU  0 inst:  597000000 cyc:  397680104 now IPC :1.51619: AVG IPC :1.49987: L2-Pf-HR :0.97730: L2-HR :0.86248: (Sim:2h48m29s) 
CPU  0 inst:  598000000 cyc:  398339358 now IPC :1.51687: AVG IPC :1.49990: L2-Pf-HR :0.97730: L2-HR :0.86248: (Sim:2h48m49s) 
CPU  0 inst:  599000001 cyc:  398998114 now IPC :1.51801: AVG IPC :1.49993: L2-Pf-HR :0.97731: L2-HR :0.86251: (Sim:2h49m8s) 
CPU  0 inst:  600000001 cyc:  399657473 now IPC :1.51662: AVG IPC :1.49996: L2-Pf-HR :0.97733: L2-HR :0.86252: (Sim:2h49m24s) 
CPU  0 inst:  601000003 cyc:  400383182 now IPC :1.37797: AVG IPC :1.49973: L2-Pf-HR :0.97731: L2-HR :0.86252: (Sim:2h49m36s) 
CPU  0 inst:  602000000 cyc:  401042292 now IPC :1.51719: AVG IPC :1.49976: L2-Pf-HR :0.97732: L2-HR :0.86253: (Sim:2h49m52s) 
CPU  0 inst:  603000004 cyc:  401700858 now IPC :1.51846: AVG IPC :1.49979: L2-Pf-HR :0.97733: L2-HR :0.86253: (Sim:2h50m11s) 
CPU  0 inst:  604000002 cyc:  402358402 now IPC :1.52081: AVG IPC :1.49983: L2-Pf-HR :0.97734: L2-HR :0.86255: (Sim:2h50m30s) 
CPU  0 inst:  605000001 cyc:  403018226 now IPC :1.51555: AVG IPC :1.49985: L2-Pf-HR :0.97736: L2-HR :0.86257: (Sim:2h50m50s) 
CPU  0 inst:  606000002 cyc:  403677199 now IPC :1.51751: AVG IPC :1.49988: L2-Pf-HR :0.97737: L2-HR :0.86259: (Sim:2h51m9s) 
CPU  0 inst:  607000002 cyc:  404372961 now IPC :1.43727: AVG IPC :1.49977: L2-Pf-HR :0.97738: L2-HR :0.86259: (Sim:2h51m28s) 
CPU  0 inst:  608000002 cyc:  405029835 now IPC :1.52236: AVG IPC :1.49981: L2-Pf-HR :0.97738: L2-HR :0.86261: (Sim:2h51m47s) 
CPU  0 inst:  609000005 cyc:  405686744 now IPC :1.52229: AVG IPC :1.49985: L2-Pf-HR :0.97740: L2-HR :0.86263: (Sim:2h52m6s) 
CPU  0 inst:  610000002 cyc:  406343430 now IPC :1.52279: AVG IPC :1.49989: L2-Pf-HR :0.97740: L2-HR :0.86263: (Sim:2h52m25s) 
CPU  0 inst:  611000000 cyc:  406999929 now IPC :1.52323: AVG IPC :1.49992: L2-Pf-HR :0.97741: L2-HR :0.86266: (Sim:2h52m41s) 
CPU  0 inst:  612000002 cyc:  407658476 now IPC :1.51850: AVG IPC :1.49995: L2-Pf-HR :0.97744: L2-HR :0.86268: (Sim:2h53m0s) 
CPU  0 inst:  613000002 cyc:  408390842 now IPC :1.36544: AVG IPC :1.49971: L2-Pf-HR :0.97740: L2-HR :0.86267: (Sim:2h53m20s) 
CPU  0 inst:  614000005 cyc:  409049339 now IPC :1.51861: AVG IPC :1.49974: L2-Pf-HR :0.97742: L2-HR :0.86269: (Sim:2h53m39s) 
CPU  0 inst:  615000003 cyc:  409709412 now IPC :1.51498: AVG IPC :1.49977: L2-Pf-HR :0.97743: L2-HR :0.86269: (Sim:2h53m58s) 
CPU  0 inst:  616000005 cyc:  410369388 now IPC :1.51521: AVG IPC :1.49979: L2-Pf-HR :0.97744: L2-HR :0.86271: (Sim:2h54m17s) 
CPU  0 inst:  617000005 cyc:  411028964 now IPC :1.51613: AVG IPC :1.49982: L2-Pf-HR :0.97746: L2-HR :0.86272: (Sim:2h54m37s) 
CPU  0 inst:  618000000 cyc:  411687863 now IPC :1.51768: AVG IPC :1.49985: L2-Pf-HR :0.97746: L2-HR :0.86274: (Sim:2h54m56s) 
CPU  0 inst:  619000000 cyc:  412383349 now IPC :1.43784: AVG IPC :1.49974: L2-Pf-HR :0.97747: L2-HR :0.86275: (Sim:2h55m15s) 
CPU  0 inst:  620000001 cyc:  413040502 now IPC :1.52172: AVG IPC :1.49978: L2-Pf-HR :0.97748: L2-HR :0.86276: (Sim:2h55m32s) 
CPU  0 inst:  621000001 cyc:  413696508 now IPC :1.52438: AVG IPC :1.49982: L2-Pf-HR :0.97749: L2-HR :0.86278: (Sim:2h55m42s) 
[...]
CPU  0 inst: 2514000003 cyc: 1680449984 now IPC :1.46285: AVG IPC :1.49571: L2-Pf-HR :0.97774: L2-HR :0.86251: (Sim:7h48m59s) 
CPU  0 inst: 2515000002 cyc: 1681110452 now IPC :1.51408: AVG IPC :1.49572: L2-Pf-HR :0.97774: L2-HR :0.86250: (Sim:7h49m8s) 
CPU  0 inst: 2516000002 cyc: 1681769996 now IPC :1.51620: AVG IPC :1.49572: L2-Pf-HR :0.97774: L2-HR :0.86250: (Sim:7h49m17s) 
CPU  0 inst: 2517000005 cyc: 1682430741 now IPC :1.51345: AVG IPC :1.49573: L2-Pf-HR :0.97774: L2-HR :0.86250: (Sim:7h49m27s) 
CPU  0 inst: 2518000000 cyc: 1683090297 now IPC :1.51616: AVG IPC :1.49574: L2-Pf-HR :0.97774: L2-HR :0.86251: (Sim:7h49m38s) 
CPU  0 inst: 2519000002 cyc: 1683777788 now IPC :1.45457: AVG IPC :1.49572: L2-Pf-HR :0.97774: L2-HR :0.86251: (Sim:7h49m48s) 
CPU  0 inst: 2520000002 cyc: 1684446527 now IPC :1.49535: AVG IPC :1.49572: L2-Pf-HR :0.97774: L2-HR :0.86251: (Sim:7h49m58s) 
CPU  0 inst: 2521000004 cyc: 1685104844 now IPC :1.51903: AVG IPC :1.49573: L2-Pf-HR :0.97774: L2-HR :0.86251: (Sim:7h50m7s) 
CPU  0 inst: 2522000001 cyc: 1685761214 now IPC :1.52353: AVG IPC :1.49574: L2-Pf-HR :0.97774: L2-HR :0.86251: (Sim:7h50m16s) 
CPU  0 inst: 2523000001 cyc: 1686420961 now IPC :1.51573: AVG IPC :1.49575: L2-Pf-HR :0.97774: L2-HR :0.86250: (Sim:7h50m27s) 
CPU  0 inst: 2524000000 cyc: 1687078007 now IPC :1.52196: AVG IPC :1.49576: L2-Pf-HR :0.97773: L2-HR :0.86250: (Sim:7h50m37s) 
CPU  0 inst: 2525000001 cyc: 1687744327 now IPC :1.50078: AVG IPC :1.49576: L2-Pf-HR :0.97773: L2-HR :0.86250: (Sim:7h50m48s) 
CPU  0 inst: 2526000001 cyc: 1688474280 now IPC :1.36995: AVG IPC :1.49571: L2-Pf-HR :0.97772: L2-HR :0.86249: (Sim:7h50m59s) 
CPU  0 inst: 2527000001 cyc: 1689129307 now IPC :1.52665: AVG IPC :1.49572: L2-Pf-HR :0.97772: L2-HR :0.86249: (Sim:7h51m9s) 
CPU  0 inst: 2528000000 cyc: 1689785979 now IPC :1.52283: AVG IPC :1.49573: L2-Pf-HR :0.97772: L2-HR :0.86249: (Sim:7h51m20s) 
CPU  0 inst: 2529000000 cyc: 1690441394 now IPC :1.52575: AVG IPC :1.49574: L2-Pf-HR :0.97771: L2-HR :0.86249: (Sim:7h51m30s) 
CPU  0 inst: 2530000005 cyc: 1691096033 now IPC :1.52757: AVG IPC :1.49575: L2-Pf-HR :0.97771: L2-HR :0.86249: (Sim:7h51m41s) 
CPU  0 inst: 2531000000 cyc: 1691755635 now IPC :1.51606: AVG IPC :1.49576: L2-Pf-HR :0.97772: L2-HR :0.86250: (Sim:7h51m51s) 
CPU  0 inst: 2532000000 cyc: 1692448167 now IPC :1.44398: AVG IPC :1.49574: L2-Pf-HR :0.97772: L2-HR :0.86250: (Sim:7h52m1s) 
CPU  0 inst: 2533000005 cyc: 1693106523 now IPC :1.51894: AVG IPC :1.49575: L2-Pf-HR :0.97772: L2-HR :0.86250: (Sim:7h52m11s) 
CPU  0 inst: 2534000005 cyc: 1693763357 now IPC :1.52245: AVG IPC :1.49576: L2-Pf-HR :0.97772: L2-HR :0.86251: (Sim:7h52m21s) 
CPU  0 inst: 2535000005 cyc: 1694420781 now IPC :1.52109: AVG IPC :1.49577: L2-Pf-HR :0.97772: L2-HR :0.86251: (Sim:7h52m31s) 
CPU  0 inst: 2536000001 cyc: 1695078416 now IPC :1.52059: AVG IPC :1.49578: L2-Pf-HR :0.97772: L2-HR :0.86252: (Sim:7h52m41s) 
CPU  0 inst: 2537000000 cyc: 1695736774 now IPC :1.51893: AVG IPC :1.49579: L2-Pf-HR :0.97773: L2-HR :0.86252: (Sim:7h52m50s) 
CPU  0 inst: 2538000002 cyc: 1696446876 now IPC :1.40825: AVG IPC :1.49575: L2-Pf-HR :0.97772: L2-HR :0.86252: (Sim:7h52m59s) 
xz: 770-tot_memTraces_v5/120-subBillion_s2048_LLM_Arch/memTraces[2639000000]_FE_[OPT-350M]_[h16]_[s2048]_[d64].champsim.9.xz: Unexpected end of input
*** Reached end of trace for Core: 0 Repeating trace: 770-tot_memTraces_v5/120-subBillion_s2048_LLM_Arch/memTraces[2639000000]_FE_[OPT-350M]_[h16]_[s2048]_[d64].champsim.9.xz
CPU  0 inst: 2539000001 cyc: 1697309275 now IPC :1.15955: AVG IPC :1.49558: L2-Pf-HR :0.97771: L2-HR :0.86249: (Sim:7h53m9s) 
CPU  0 inst: 2540000003 cyc: 1697983593 now IPC :1.48298: AVG IPC :1.49558: L2-Pf-HR :0.97771: L2-HR :0.86249: (Sim:7h53m20s) 
CPU  0 inst: 2541000000 cyc: 1698659592 now IPC :1.47929: AVG IPC :1.49557: L2-Pf-HR :0.97771: L2-HR :0.86249: (Sim:7h53m29s) 
CPU  0 inst: 2542000000 cyc: 1699337540 now IPC :1.47504: AVG IPC :1.49556: L2-Pf-HR :0.97770: L2-HR :0.86248: (Sim:7h53m40s) 
CPU  0 inst: 2543000002 cyc: 1700010845 now IPC :1.48521: AVG IPC :1.49556: L2-Pf-HR :0.97769: L2-HR :0.86248: (Sim:7h53m48s) 
CPU  0 inst: 2544000005 cyc: 1700687367 now IPC :1.47815: AVG IPC :1.49555: L2-Pf-HR :0.97769: L2-HR :0.86248: (Sim:7h53m58s) 
CPU  0 inst: 2545000005 cyc: 1701400526 now IPC :1.40221: AVG IPC :1.49551: L2-Pf-HR :0.97768: L2-HR :0.86248: (Sim:7h54m7s) 
CPU  0 inst: 2546000002 cyc: 1702079471 now IPC :1.47287: AVG IPC :1.49550: L2-Pf-HR :0.97767: L2-HR :0.86247: (Sim:7h54m16s) 
CPU  0 inst: 2547000000 cyc: 1702755266 now IPC :1.47974: AVG IPC :1.49550: L2-Pf-HR :0.97767: L2-HR :0.86247: (Sim:7h54m26s) 
CPU  0 inst: 2548000004 cyc: 1703433264 now IPC :1.47494: AVG IPC :1.49549: L2-Pf-HR :0.97766: L2-HR :0.86246: (Sim:7h54m36s) 
CPU  0 inst: 2549000004 cyc: 1704107494 now IPC :1.48317: AVG IPC :1.49548: L2-Pf-HR :0.97765: L2-HR :0.86246: (Sim:7h54m47s) 
CPU  0 inst: 2550000002 cyc: 1704782120 now IPC :1.48230: AVG IPC :1.49548: L2-Pf-HR :0.97764: L2-HR :0.86245: (Sim:7h54m55s) 
CPU  0 inst: 2551000005 cyc: 1705518289 now IPC :1.35839: AVG IPC :1.49542: L2-Pf-HR :0.97763: L2-HR :0.86244: (Sim:7h55m5s) 
CPU  0 inst: 2552000004 cyc: 1706170736 now IPC :1.53269: AVG IPC :1.49543: L2-Pf-HR :0.97762: L2-HR :0.86244: (Sim:7h55m15s) 
CPU  0 inst: 2553000001 cyc: 1706823360 now IPC :1.53227: AVG IPC :1.49545: L2-Pf-HR :0.97762: L2-HR :0.86244: (Sim:7h55m26s) 
CPU  0 inst: 2554000003 cyc: 1707475597 now IPC :1.53319: AVG IPC :1.49546: L2-Pf-HR :0.97762: L2-HR :0.86244: (Sim:7h55m35s) 
CPU  0 inst: 2555000003 cyc: 1708129999 now IPC :1.52811: AVG IPC :1.49547: L2-Pf-HR :0.97762: L2-HR :0.86244: (Sim:7h55m44s) 
CPU  0 inst: 2556000000 cyc: 1708782021 now IPC :1.53369: AVG IPC :1.49549: L2-Pf-HR :0.97762: L2-HR :0.86245: (Sim:7h55m54s) 
CPU  0 inst: 2557000000 cyc: 1709467174 now IPC :1.45953: AVG IPC :1.49547: L2-Pf-HR :0.97763: L2-HR :0.86245: (Sim:7h56m3s) 
CPU  0 inst: 2558000005 cyc: 1710107625 now IPC :1.56141: AVG IPC :1.49550: L2-Pf-HR :0.97763: L2-HR :0.86246: (Sim:7h56m12s) 
CPU  0 inst: 2559000001 cyc: 1710746780 now IPC :1.56456: AVG IPC :1.49552: L2-Pf-HR :0.97763: L2-HR :0.86246: (Sim:7h56m22s) 
CPU  0 inst: 2560000001 cyc: 1711386748 now IPC :1.56258: AVG IPC :1.49555: L2-Pf-HR :0.97763: L2-HR :0.86246: (Sim:7h56m31s) 
CPU  0 inst: 2561000002 cyc: 1712025650 now IPC :1.56519: AVG IPC :1.49558: L2-Pf-HR :0.97763: L2-HR :0.86247: (Sim:7h56m40s) 
CPU  0 inst: 2562000004 cyc: 1712664500 now IPC :1.56532: AVG IPC :1.49560: L2-Pf-HR :0.97763: L2-HR :0.86247: (Sim:7h56m50s) 
CPU  0 inst: 2563000000 cyc: 1713387142 now IPC :1.38381: AVG IPC :1.49555: L2-Pf-HR :0.97763: L2-HR :0.86247: (Sim:7h57m1s) 
CPU  0 inst: 2564000001 cyc: 1714041062 now IPC :1.52924: AVG IPC :1.49557: L2-Pf-HR :0.97763: L2-HR :0.86247: (Sim:7h57m11s) 
CPU  0 inst: 2565000001 cyc: 1714695190 now IPC :1.52875: AVG IPC :1.49558: L2-Pf-HR :0.97764: L2-HR :0.86248: (Sim:7h57m20s) 
CPU  0 inst: 2566000004 cyc: 1715348514 now IPC :1.53064: AVG IPC :1.49559: L2-Pf-HR :0.97764: L2-HR :0.86248: (Sim:7h57m30s) 
CPU  0 inst: 2567000002 cyc: 1716002248 now IPC :1.52967: AVG IPC :1.49561: L2-Pf-HR :0.97764: L2-HR :0.86248: (Sim:7h57m39s) 
CPU  0 inst: 2568000003 cyc: 1716654286 now IPC :1.53365: AVG IPC :1.49562: L2-Pf-HR :0.97764: L2-HR :0.86249: (Sim:7h57m49s) 
CPU  0 inst: 2569000001 cyc: 1717349856 now IPC :1.43767: AVG IPC :1.49560: L2-Pf-HR :0.97764: L2-HR :0.86249: (Sim:7h57m58s) 
CPU  0 inst: 2570000005 cyc: 1718009397 now IPC :1.51621: AVG IPC :1.49561: L2-Pf-HR :0.97764: L2-HR :0.86249: (Sim:7h58m8s) 
CPU  0 inst: 2571000005 cyc: 1718668131 now IPC :1.51806: AVG IPC :1.49561: L2-Pf-HR :0.97765: L2-HR :0.86250: (Sim:7h58m17s) 
CPU  0 inst: 2572000003 cyc: 1719328038 now IPC :1.51536: AVG IPC :1.49562: L2-Pf-HR :0.97765: L2-HR :0.86250: (Sim:7h58m27s) 
CPU  0 inst: 2573000000 cyc: 1719987065 now IPC :1.51738: AVG IPC :1.49563: L2-Pf-HR :0.97765: L2-HR :0.86250: (Sim:7h58m38s) 
CPU  0 inst: 2574000000 cyc: 1720646142 now IPC :1.51727: AVG IPC :1.49564: L2-Pf-HR :0.97765: L2-HR :0.86251: (Sim:7h58m46s) 
CPU  0 inst: 2575000004 cyc: 1721370681 now IPC :1.38019: AVG IPC :1.49559: L2-Pf-HR :0.97765: L2-HR :0.86250: (Sim:7h58m55s) 
CPU  0 inst: 2576000005 cyc: 1722029164 now IPC :1.51864: AVG IPC :1.49560: L2-Pf-HR :0.97765: L2-HR :0.86251: (Sim:7h59m5s) 
CPU  0 inst: 2577000004 cyc: 1722688329 now IPC :1.51707: AVG IPC :1.49561: L2-Pf-HR :0.97765: L2-HR :0.86251: (Sim:7h59m16s) 
CPU  0 inst: 2578000003 cyc: 1723345956 now IPC :1.52062: AVG IPC :1.49562: L2-Pf-HR :0.97765: L2-HR :0.86251: (Sim:7h59m25s) 
CPU  0 inst: 2579000002 cyc: 1724005395 now IPC :1.51644: AVG IPC :1.49562: L2-Pf-HR :0.97766: L2-HR :0.86252: (Sim:7h59m35s) 
CPU  0 inst: 2580000003 cyc: 1724664811 now IPC :1.51649: AVG IPC :1.49563: L2-Pf-HR :0.97766: L2-HR :0.86252: (Sim:7h59m45s) 
CPU  0 inst: 2581000000 cyc: 1725360854 now IPC :1.43669: AVG IPC :1.49561: L2-Pf-HR :0.97766: L2-HR :0.86252: (Sim:7h59m55s) 
CPU  0 inst: 2582000002 cyc: 1726017456 now IPC :1.52300: AVG IPC :1.49562: L2-Pf-HR :0.97766: L2-HR :0.86252: (Sim:8h0m5s) 
CPU  0 inst: 2583000002 cyc: 1726675007 now IPC :1.52079: AVG IPC :1.49563: L2-Pf-HR :0.97767: L2-HR :0.86253: (Sim:8h0m15s) 
CPU  0 inst: 2584000002 cyc: 1727332119 now IPC :1.52181: AVG IPC :1.49564: L2-Pf-HR :0.97767: L2-HR :0.86253: (Sim:8h0m24s) 
CPU  0 inst: 2585000002 cyc: 1727988104 now IPC :1.52443: AVG IPC :1.49565: L2-Pf-HR :0.97767: L2-HR :0.86254: (Sim:8h0m34s) 
CPU  0 inst: 2586000000 cyc: 1728646930 now IPC :1.51785: AVG IPC :1.49566: L2-Pf-HR :0.97767: L2-HR :0.86254: (Sim:8h0m44s) 
CPU  0 inst: 2587000002 cyc: 1729379645 now IPC :1.36479: AVG IPC :1.49560: L2-Pf-HR :0.97767: L2-HR :0.86254: (Sim:8h0m53s) 
CPU  0 inst: 2588000002 cyc: 1730038022 now IPC :1.51889: AVG IPC :1.49561: L2-Pf-HR :0.97767: L2-HR :0.86254: (Sim:8h1m3s) 
CPU  0 inst: 2589000002 cyc: 1730698287 now IPC :1.51454: AVG IPC :1.49562: L2-Pf-HR :0.97768: L2-HR :0.86254: (Sim:8h1m12s) 
CPU  0 inst: 2590000000 cyc: 1731358636 now IPC :1.51435: AVG IPC :1.49563: L2-Pf-HR :0.97768: L2-HR :0.86255: (Sim:8h1m22s) 
CPU  0 inst: 2591000005 cyc: 1732019371 now IPC :1.51347: AVG IPC :1.49563: L2-Pf-HR :0.97768: L2-HR :0.86255: (Sim:8h1m33s) 
CPU  0 inst: 2592000002 cyc: 1732678281 now IPC :1.51765: AVG IPC :1.49564: L2-Pf-HR :0.97768: L2-HR :0.86256: (Sim:8h1m42s) 
CPU  0 inst: 2593000000 cyc: 1733374506 now IPC :1.43631: AVG IPC :1.49562: L2-Pf-HR :0.97768: L2-HR :0.86256: (Sim:8h1m50s) 
CPU  0 inst: 2594000000 cyc: 1734031743 now IPC :1.52152: AVG IPC :1.49563: L2-Pf-HR :0.97769: L2-HR :0.86256: (Sim:8h2m0s) 
CPU  0 inst: 2595000000 cyc: 1734688089 now IPC :1.52359: AVG IPC :1.49564: L2-Pf-HR :0.97769: L2-HR :0.86257: (Sim:8h2m10s) 
CPU  0 inst: 2596000004 cyc: 1735346280 now IPC :1.51932: AVG IPC :1.49565: L2-Pf-HR :0.97769: L2-HR :0.86257: (Sim:8h2m19s) 
CPU  0 inst: 2597000004 cyc: 1736003351 now IPC :1.52191: AVG IPC :1.49566: L2-Pf-HR :0.97769: L2-HR :0.86257: (Sim:8h2m29s) 
CPU  0 inst: 2598000004 cyc: 1736660236 now IPC :1.52234: AVG IPC :1.49567: L2-Pf-HR :0.97770: L2-HR :0.86258: (Sim:8h2m39s) 
CPU  0 inst: 2599000001 cyc: 1737341086 now IPC :1.46875: AVG IPC :1.49566: L2-Pf-HR :0.97769: L2-HR :0.86257: (Sim:8h2m50s) 
CPU  0 inst: 2600000005 cyc: 1738002461 now IPC :1.51201: AVG IPC :1.49566: L2-Pf-HR :0.97769: L2-HR :0.86254: (Sim:8h2m57s) 
CPU  0 inst: 2601000000 cyc: 1738675757 now IPC :1.48522: AVG IPC :1.49566: L2-Pf-HR :0.97768: L2-HR :0.86252: (Sim:8h3m7s) 
CPU  0 inst: 2602000003 cyc: 1739334208 now IPC :1.51872: AVG IPC :1.49567: L2-Pf-HR :0.97768: L2-HR :0.86250: (Sim:8h3m15s) 
CPU  0 inst: 2603000000 cyc: 1740082817 now IPC :1.33581: AVG IPC :1.49560: L2-Pf-HR :0.97768: L2-HR :0.86247: (Sim:8h3m26s) 
CPU  0 inst: 2604000002 cyc: 1740752616 now IPC :1.49299: AVG IPC :1.49560: L2-Pf-HR :0.97768: L2-HR :0.86247: (Sim:8h3m36s) 
CPU  0 inst: 2605000003 cyc: 1741426141 now IPC :1.48473: AVG IPC :1.49559: L2-Pf-HR :0.97768: L2-HR :0.86247: (Sim:8h3m46s) 
CPU  0 inst: 2606000004 cyc: 1742097992 now IPC :1.48843: AVG IPC :1.49559: L2-Pf-HR :0.97768: L2-HR :0.86247: (Sim:8h3m56s) 
CPU  0 inst: 2607000000 cyc: 1742771034 now IPC :1.48579: AVG IPC :1.49559: L2-Pf-HR :0.97768: L2-HR :0.86247: (Sim:8h4m6s) 
CPU  0 inst: 2608000002 cyc: 1743442299 now IPC :1.48973: AVG IPC :1.49558: L2-Pf-HR :0.97768: L2-HR :0.86247: (Sim:8h4m15s) 
CPU  0 inst: 2609000005 cyc: 1744155120 now IPC :1.40288: AVG IPC :1.49555: L2-Pf-HR :0.97768: L2-HR :0.86247: (Sim:8h4m25s) 
CPU  0 inst: 2610000004 cyc: 1744830295 now IPC :1.48110: AVG IPC :1.49554: L2-Pf-HR :0.97768: L2-HR :0.86247: (Sim:8h4m35s) 
CPU  0 inst: 2611000003 cyc: 1745504677 now IPC :1.48284: AVG IPC :1.49554: L2-Pf-HR :0.97768: L2-HR :0.86247: (Sim:8h4m45s) 
CPU  0 inst: 2612000001 cyc: 1746179459 now IPC :1.48196: AVG IPC :1.49553: L2-Pf-HR :0.97767: L2-HR :0.86247: (Sim:8h4m55s) 
CPU  0 inst: 2613000004 cyc: 1746854982 now IPC :1.48034: AVG IPC :1.49552: L2-Pf-HR :0.97767: L2-HR :0.86247: (Sim:8h5m5s) 
CPU  0 inst: 2614000005 cyc: 1747530820 now IPC :1.47965: AVG IPC :1.49552: L2-Pf-HR :0.97767: L2-HR :0.86247: (Sim:8h5m15s) 
CPU  0 inst: 2615000005 cyc: 1748277847 now IPC :1.33864: AVG IPC :1.49545: L2-Pf-HR :0.97765: L2-HR :0.86246: (Sim:8h5m26s) 
CPU  0 inst: 2616000004 cyc: 1748936725 now IPC :1.51773: AVG IPC :1.49546: L2-Pf-HR :0.97765: L2-HR :0.86246: (Sim:8h5m37s) 
CPU  0 inst: 2617000004 cyc: 1749595184 now IPC :1.51870: AVG IPC :1.49547: L2-Pf-HR :0.97765: L2-HR :0.86246: (Sim:8h5m46s) 
CPU  0 inst: 2618000005 cyc: 1750253544 now IPC :1.51893: AVG IPC :1.49548: L2-Pf-HR :0.97765: L2-HR :0.86246: (Sim:8h5m54s) 
CPU  0 inst: 2619000000 cyc: 1750911661 now IPC :1.51948: AVG IPC :1.49549: L2-Pf-HR :0.97765: L2-HR :0.86246: (Sim:8h6m4s) 
CPU  0 inst: 2620000003 cyc: 1751570430 now IPC :1.51799: AVG IPC :1.49549: L2-Pf-HR :0.97765: L2-HR :0.86246: (Sim:8h6m15s) 
CPU  0 inst: 2621000002 cyc: 1752266255 now IPC :1.43714: AVG IPC :1.49547: L2-Pf-HR :0.97765: L2-HR :0.86247: (Sim:8h6m24s) 
CPU  0 inst: 2622000002 cyc: 1752927011 now IPC :1.51342: AVG IPC :1.49548: L2-Pf-HR :0.97765: L2-HR :0.86247: (Sim:8h6m33s) 
CPU  0 inst: 2623000002 cyc: 1753585129 now IPC :1.51948: AVG IPC :1.49549: L2-Pf-HR :0.97765: L2-HR :0.86247: (Sim:8h6m42s) 
CPU  0 inst: 2624000004 cyc: 1754242668 now IPC :1.52083: AVG IPC :1.49550: L2-Pf-HR :0.97765: L2-HR :0.86247: (Sim:8h6m53s) 
CPU  0 inst: 2625000001 cyc: 1754902426 now IPC :1.51570: AVG IPC :1.49550: L2-Pf-HR :0.97765: L2-HR :0.86247: (Sim:8h7m4s) 
CPU  0 inst: 2626000001 cyc: 1755560568 now IPC :1.51943: AVG IPC :1.49551: L2-Pf-HR :0.97765: L2-HR :0.86248: (Sim:8h7m15s) 
CPU  0 inst: 2627000001 cyc: 1756291013 now IPC :1.36903: AVG IPC :1.49546: L2-Pf-HR :0.97765: L2-HR :0.86248: (Sim:8h7m26s) 
CPU  0 inst: 2628000002 cyc: 1756943930 now IPC :1.53159: AVG IPC :1.49547: L2-Pf-HR :0.97765: L2-HR :0.86248: (Sim:8h7m35s) 
CPU  0 inst: 2629000002 cyc: 1757596694 now IPC :1.53195: AVG IPC :1.49549: L2-Pf-HR :0.97765: L2-HR :0.86248: (Sim:8h7m45s) 
CPU  0 inst: 2630000002 cyc: 1758251533 now IPC :1.52709: AVG IPC :1.49550: L2-Pf-HR :0.97765: L2-HR :0.86248: (Sim:8h7m55s) 
CPU  0 inst: 2631000005 cyc: 1758903822 now IPC :1.53307: AVG IPC :1.49551: L2-Pf-HR :0.97766: L2-HR :0.86249: (Sim:8h8m4s) 
CPU  0 inst: 2632000002 cyc: 1759558140 now IPC :1.52830: AVG IPC :1.49553: L2-Pf-HR :0.97766: L2-HR :0.86249: (Sim:8h8m14s) 
CPU  0 inst: 2633000000 cyc: 1760251447 now IPC :1.44236: AVG IPC :1.49550: L2-Pf-HR :0.97766: L2-HR :0.86249: (Sim:8h8m24s) 
CPU  0 inst: 2634000000 cyc: 1760909537 now IPC :1.51955: AVG IPC :1.49551: L2-Pf-HR :0.97766: L2-HR :0.86250: (Sim:8h8m32s) 
CPU  0 inst: 2635000000 cyc: 1761567930 now IPC :1.51885: AVG IPC :1.49552: L2-Pf-HR :0.97766: L2-HR :0.86250: (Sim:8h8m42s) 
CPU  0 inst: 2636000001 cyc: 1762226894 now IPC :1.51754: AVG IPC :1.49553: L2-Pf-HR :0.97767: L2-HR :0.86251: (Sim:8h8m51s) 
Finished CPU 0 instr: 2634000000 cyc: 1761247802 AVG IPC: 1.49553 (Sim time: 8h8m51s)

ChampSim completed all CPUs

[ROI Statistics]
Core_0_instructions 2634000000
Core_0_cycles 1761247802
Core_0_IPC 1.49553

Core_0_branch_prediction_accuracy 99.93271
Core_0_branch_MPKI 0.00941
Core_0_average_ROB_occupancy_at_mispredict 569.73841

Core_0_L1D_total_access 656088555
Core_0_L1D_total_hit 607941047 L1D_total_Hit Ratio: 0.92661
Core_0_L1D_total_miss 48147508
Core_0_L1D_loads 590196483
Core_0_L1D_load_hit 572492684 L1D_load_Hit Ratio: 0.97000
Core_0_L1D_load_miss 17703799
Core_0_L1D_RFOs 23915091
Core_0_L1D_RFO_hit 23912003 L1D_RFO_Hit Ratio: 0.99987
Core_0_L1D_RFO_miss 3088
Core_0_L1D_prefetches 41976981
Core_0_L1D_prefetch_hit 11536360 L1D_prefetch_Hit Ratio: 0.27483
Core_0_L1D_prefetch_miss 30440621
Core_0_L1D_writebacks 0
Core_0_L1D_writeback_hit 0 L1D_writeback_Hit Ratio: -nan
Core_0_L1D_writeback_miss 0
Core_0_L1D_prefetch_requested 51525347
Core_0_L1D_prefetch_issued 49575253
Core_0_L1D_prefetch_useful 30389222 L1D_Useful Ratio: 0.61299
Core_0_L1D_prefetch_useless 78503
Core_0_L1D_prefetch_late 1340835
Core_0_L1D_average_miss_latency 24497173.49088

Core_0_L1I_total_access 320898299
Core_0_L1I_total_hit 320894146 L1I_total_Hit Ratio: 0.99999
Core_0_L1I_total_miss 4153
Core_0_L1I_loads 320898299
Core_0_L1I_load_hit 320894146 L1I_load_Hit Ratio: 0.99999
Core_0_L1I_load_miss 4153
Core_0_L1I_RFOs 0
Core_0_L1I_RFO_hit 0 L1I_RFO_Hit Ratio: -nan
Core_0_L1I_RFO_miss 0
Core_0_L1I_prefetches 0
Core_0_L1I_prefetch_hit 0 L1I_prefetch_Hit Ratio: -nan
Core_0_L1I_prefetch_miss 0
Core_0_L1I_writebacks 0
Core_0_L1I_writeback_hit 0 L1I_writeback_Hit Ratio: -nan
Core_0_L1I_writeback_miss 0
Core_0_L1I_prefetch_requested 0
Core_0_L1I_prefetch_issued 0
Core_0_L1I_prefetch_useful 0 L1I_Useful Ratio: -nan
Core_0_L1I_prefetch_useless 0
Core_0_L1I_prefetch_late 0
Core_0_L1I_average_miss_latency 298.53744

Core_0_L2C_total_access 87878673
Core_0_L2C_total_hit 75795801 L2C_total_Hit Ratio: 0.86251
Core_0_L2C_total_miss 12082872
Core_0_L2C_loads 16367928
Core_0_L2C_load_hit 5545943 L2C_load_Hit Ratio: 0.33883
Core_0_L2C_load_miss 10821985
Core_0_L2C_RFOs 3054
Core_0_L2C_RFO_hit 1668 L2C_RFO_Hit Ratio: 0.54617
Core_0_L2C_RFO_miss 1386
Core_0_L2C_prefetches 56395274
Core_0_L2C_prefetch_hit 55135773 L2C_prefetch_Hit Ratio: 0.97767
Core_0_L2C_prefetch_miss 1259501
Core_0_L2C_writebacks 15112417
Core_0_L2C_writeback_hit 15112417 L2C_writeback_Hit Ratio: 1.00000
Core_0_L2C_writeback_miss 0
Core_0_L2C_prefetch_requested 45244522
Core_0_L2C_prefetch_issued 32213191
Core_0_L2C_prefetch_useful 673921 L2C_Useful Ratio: 0.02092
Core_0_L2C_prefetch_useless 590353
Core_0_L2C_prefetch_late 83052
Core_0_L2C_average_miss_latency 291.02390

Core_0_LLC_total_access 23046458
Core_0_LLC_total_hit 11350037 LLC_total_Hit Ratio: 0.49249
Core_0_LLC_total_miss 11696421
Core_0_LLC_loads 10739044
Core_0_LLC_load_hit 42884 LLC_load_Hit Ratio: 0.00399
Core_0_LLC_load_miss 10696160
Core_0_LLC_RFOs 1384
Core_0_LLC_RFO_hit 373 LLC_RFO_Hit Ratio: 0.26951
Core_0_LLC_RFO_miss 1011
Core_0_LLC_prefetches 1342444
Core_0_LLC_prefetch_hit 485779 LLC_prefetch_Hit Ratio: 0.36186
Core_0_LLC_prefetch_miss 856665
Core_0_LLC_writebacks 10963586
Core_0_LLC_writeback_hit 10821001 LLC_writeback_Hit Ratio: 0.98699
Core_0_LLC_writeback_miss 142585
Core_0_LLC_prefetch_requested 0
Core_0_LLC_prefetch_issued 0
Core_0_LLC_prefetch_useful 1001 LLC_Useful Ratio: inf
Core_0_LLC_prefetch_useless 854865
Core_0_LLC_prefetch_late 0
Core_0_LLC_average_miss_latency 260.13362

Core_0_major_page_fault 0
Core_0_minor_page_fault 20336

CPU 0 L1D berti prefetcher final stats
CPU 0 L2C berti prefetcher final stats
Channel_0_RQ_row_buffer_hit 7911690
Channel_0_RQ_row_buffer_miss 3642144
Channel_0_WQ_row_buffer_hit 4050537
Channel_0_WQ_row_buffer_miss 6763557
Channel_0_WQ_full 8621
Channel_0_dbus_congested 2941773

avg_congested_cycle 8

EzSearch AVG IPC :1.49553: L2-Pf-HR :0.97767 : L2-HR :0.86251 Uful:0.02092
     > Finished combination: TraceType=770-tot Sim:2634000000 Prefetcher=L2berti_concurso L1=berti_concurso
