TRACE: [662000000][OPT-350M]_[h16][s1024][d64] Warmup: 2000000 NumTraces: 662000000
L1:isb_ideal:L2:isb_ideal
*************************************************
   ChampSim Multicore Out-of-Order Simulator
   Last compiled: Oct 30 2024 22:13:11
*************************************************

trace_0 770-tot_memTraces_v5/130-subBillion_s1024_LLM_Arch/memTraces[662000000][OPT-350M]_[h16][s1024][d64].champsim.9.xz
L1D: Ideal ISB Prefetching
Ideal ISB Prefetching
MAIN.cc ln 751 stats print skipped
CPU  0 inst:    1000001 cyc:     498393 now IPC :2.00645: AVG IPC :2.00645: L2-Pf-HR :1.00000: L2-HR :0.87734: (Sim:0h0m20s) 
CPU  0 inst:    2000000 cyc:     981380 now IPC :2.07045: AVG IPC :2.03795: L2-Pf-HR :1.00000: L2-HR :0.91035: (Sim:0h0m42s) 

Warmup complete CPU  0 instructions:    2000001 cycles:     981381 (Simulation time: 0 hr 0 min 42 sec) 

CPU  0 inst:    3000000 cyc:    1620534 now IPC :1.56457: AVG IPC :1.56457: L2-Pf-HR :1.00000: L2-HR :0.94023: (Sim:0h0m51s) 
CPU  0 inst:    4000002 cyc:    2261077 now IPC :1.56118: AVG IPC :1.56287: L2-Pf-HR :1.00000: L2-HR :0.93940: (Sim:0h1m1s) 
CPU  0 inst:    5000003 cyc:    2900086 now IPC :1.56492: AVG IPC :1.56356: L2-Pf-HR :1.00000: L2-HR :0.93985: (Sim:0h1m10s) 
CPU  0 inst:    6000004 cyc:    3540759 now IPC :1.56086: AVG IPC :1.56288: L2-Pf-HR :1.00000: L2-HR :0.93957: (Sim:0h1m19s) 
CPU  0 inst:    7000001 cyc:    4215046 now IPC :1.48304: AVG IPC :1.54623: L2-Pf-HR :1.00000: L2-HR :0.93972: (Sim:0h1m29s) 
CPU  0 inst:    8000001 cyc:    4822571 now IPC :1.64602: AVG IPC :1.56202: L2-Pf-HR :1.00000: L2-HR :0.94191: (Sim:0h1m39s) 
CPU  0 inst:    9000003 cyc:    5428666 now IPC :1.64991: AVG IPC :1.57399: L2-Pf-HR :1.00000: L2-HR :0.94364: (Sim:0h1m49s) 
CPU  0 inst:   10000000 cyc:    6036396 now IPC :1.64546: AVG IPC :1.58259: L2-Pf-HR :1.00000: L2-HR :0.94483: (Sim:0h2m1s) 
CPU  0 inst:   11000005 cyc:    6642872 now IPC :1.64888: AVG IPC :1.58969: L2-Pf-HR :1.00000: L2-HR :0.94610: (Sim:0h2m16s) 
CPU  0 inst:   12000005 cyc:    7249480 now IPC :1.64851: AVG IPC :1.59538: L2-Pf-HR :1.00000: L2-HR :0.94679: (Sim:0h2m25s) 
CPU  0 inst:   13000004 cyc:    7892612 now IPC :1.55489: AVG IPC :1.59161: L2-Pf-HR :1.00000: L2-HR :0.94584: (Sim:0h2m43s) 
CPU  0 inst:   14000000 cyc:    8495013 now IPC :1.66002: AVG IPC :1.59710: L2-Pf-HR :1.00000: L2-HR :0.94558: (Sim:0h2m58s) 
CPU  0 inst:   15000005 cyc:    9098181 now IPC :1.65792: AVG IPC :1.60162: L2-Pf-HR :1.00000: L2-HR :0.94607: (Sim:0h3m16s) 
CPU  0 inst:   16000000 cyc:    9701259 now IPC :1.65815: AVG IPC :1.60553: L2-Pf-HR :1.00000: L2-HR :0.94657: (Sim:0h3m34s) 
CPU  0 inst:   17000002 cyc:   10381727 now IPC :1.46958: AVG IPC :1.59569: L2-Pf-HR :1.00000: L2-HR :0.94566: (Sim:0h3m53s) 
CPU  0 inst:   18000000 cyc:   11000603 now IPC :1.61583: AVG IPC :1.59693: L2-Pf-HR :1.00000: L2-HR :0.94577: (Sim:0h4m12s) 
CPU  0 inst:   19000001 cyc:   11619813 now IPC :1.61496: AVG IPC :1.59798: L2-Pf-HR :1.00000: L2-HR :0.94572: (Sim:0h4m30s) 
CPU  0 inst:   20000001 cyc:   12238747 now IPC :1.61568: AVG IPC :1.59895: L2-Pf-HR :1.00000: L2-HR :0.94587: (Sim:0h4m49s) 
CPU  0 inst:   21000000 cyc:   12857835 now IPC :1.61528: AVG IPC :1.59980: L2-Pf-HR :1.00000: L2-HR :0.94590: (Sim:0h5m7s) 
CPU  0 inst:   22000004 cyc:   13476960 now IPC :1.61519: AVG IPC :1.60057: L2-Pf-HR :1.00000: L2-HR :0.94601: (Sim:0h5m26s) 
CPU  0 inst:   23000001 cyc:   14157916 now IPC :1.46852: AVG IPC :1.59374: L2-Pf-HR :1.00000: L2-HR :0.94575: (Sim:0h5m45s) 
CPU  0 inst:   24000005 cyc:   14783126 now IPC :1.59947: AVG IPC :1.59400: L2-Pf-HR :1.00000: L2-HR :0.94607: (Sim:0h6m4s) 
CPU  0 inst:   25000005 cyc:   15407925 now IPC :1.60051: AVG IPC :1.59428: L2-Pf-HR :1.00000: L2-HR :0.94634: (Sim:0h6m22s) 
CPU  0 inst:   26000002 cyc:   16031856 now IPC :1.60274: AVG IPC :1.59463: L2-Pf-HR :1.00000: L2-HR :0.94673: (Sim:0h6m41s) 
CPU  0 inst:   27000003 cyc:   16655750 now IPC :1.60284: AVG IPC :1.59496: L2-Pf-HR :1.00000: L2-HR :0.94695: (Sim:0h6m59s) 
CPU  0 inst:   28000003 cyc:   17276050 now IPC :1.61212: AVG IPC :1.59561: L2-Pf-HR :1.00000: L2-HR :0.94728: (Sim:0h7m18s) 
CPU  0 inst:   29000001 cyc:   17958701 now IPC :1.46487: AVG IPC :1.59036: L2-Pf-HR :1.00000: L2-HR :0.94684: (Sim:0h7m37s) 
CPU  0 inst:   30000002 cyc:   18606780 now IPC :1.54302: AVG IPC :1.58862: L2-Pf-HR :1.00000: L2-HR :0.94678: (Sim:0h7m55s) 
CPU  0 inst:   31000002 cyc:   19255885 now IPC :1.54058: AVG IPC :1.58691: L2-Pf-HR :1.00000: L2-HR :0.94687: (Sim:0h8m14s) 
CPU  0 inst:   32000005 cyc:   19904939 now IPC :1.54071: AVG IPC :1.58533: L2-Pf-HR :1.00000: L2-HR :0.94703: (Sim:0h8m33s) 
CPU  0 inst:   33000005 cyc:   20653171 now IPC :1.33648: AVG IPC :1.57586: L2-Pf-HR :1.00000: L2-HR :0.94667: (Sim:0h8m54s) 
CPU  0 inst:   34000003 cyc:   21329216 now IPC :1.47919: AVG IPC :1.57265: L2-Pf-HR :1.00000: L2-HR :0.94661: (Sim:0h9m13s) 
CPU  0 inst:   35000003 cyc:   22002525 now IPC :1.48520: AVG IPC :1.56985: L2-Pf-HR :1.00000: L2-HR :0.94663: (Sim:0h9m33s) 
CPU  0 inst:   36000005 cyc:   22677662 now IPC :1.48118: AVG IPC :1.56709: L2-Pf-HR :1.00000: L2-HR :0.94661: (Sim:0h9m52s) 
CPU  0 inst:   37000002 cyc:   23354760 now IPC :1.47689: AVG IPC :1.56436: L2-Pf-HR :1.00000: L2-HR :0.94665: (Sim:0h10m12s) 
CPU  0 inst:   38000001 cyc:   24035516 now IPC :1.46895: AVG IPC :1.56154: L2-Pf-HR :1.00000: L2-HR :0.94665: (Sim:0h10m31s) 
CPU  0 inst:   39000000 cyc:   24789991 now IPC :1.32542: AVG IPC :1.55406: L2-Pf-HR :1.00000: L2-HR :0.94646: (Sim:0h10m51s) 
CPU  0 inst:   40000000 cyc:   25462202 now IPC :1.48763: AVG IPC :1.55224: L2-Pf-HR :1.00000: L2-HR :0.94662: (Sim:0h11m10s) 
CPU  0 inst:   41000000 cyc:   26133444 now IPC :1.48978: AVG IPC :1.55057: L2-Pf-HR :1.00000: L2-HR :0.94680: (Sim:0h11m30s) 
CPU  0 inst:   42000003 cyc:   26804367 now IPC :1.49049: AVG IPC :1.54901: L2-Pf-HR :1.00000: L2-HR :0.94694: (Sim:0h11m49s) 
CPU  0 inst:   43000003 cyc:   27475879 now IPC :1.48918: AVG IPC :1.54749: L2-Pf-HR :1.00000: L2-HR :0.94715: (Sim:0h12m8s) 
CPU  0 inst:   44000004 cyc:   28148236 now IPC :1.48731: AVG IPC :1.54600: L2-Pf-HR :1.00000: L2-HR :0.94727: (Sim:0h12m27s) 
CPU  0 inst:   45000005 cyc:   28877316 now IPC :1.37159: AVG IPC :1.54144: L2-Pf-HR :1.00000: L2-HR :0.94706: (Sim:0h12m46s) 
CPU  0 inst:   46000002 cyc:   29549694 now IPC :1.48725: AVG IPC :1.54017: L2-Pf-HR :1.00000: L2-HR :0.94701: (Sim:0h13m5s) 
CPU  0 inst:   47000005 cyc:   30222419 now IPC :1.48650: AVG IPC :1.53893: L2-Pf-HR :1.00000: L2-HR :0.94700: (Sim:0h13m24s) 
CPU  0 inst:   48000000 cyc:   30895754 now IPC :1.48514: AVG IPC :1.53772: L2-Pf-HR :1.00000: L2-HR :0.94712: (Sim:0h13m44s) 
CPU  0 inst:   49000001 cyc:   31657800 now IPC :1.31226: AVG IPC :1.53212: L2-Pf-HR :1.00000: L2-HR :0.94686: (Sim:0h14m4s) 
CPU  0 inst:   50000000 cyc:   32339008 now IPC :1.46798: AVG IPC :1.53073: L2-Pf-HR :1.00000: L2-HR :0.94686: (Sim:0h14m23s) 
CPU  0 inst:   51000001 cyc:   33023989 now IPC :1.45990: AVG IPC :1.52921: L2-Pf-HR :1.00000: L2-HR :0.94682: (Sim:0h14m42s) 
CPU  0 inst:   52000005 cyc:   33709535 now IPC :1.45870: AVG IPC :1.52774: L2-Pf-HR :1.00000: L2-HR :0.94683: (Sim:0h15m2s) 
CPU  0 inst:   53000003 cyc:   34396006 now IPC :1.45672: AVG IPC :1.52628: L2-Pf-HR :1.00000: L2-HR :0.94682: (Sim:0h15m21s) 
CPU  0 inst:   54000000 cyc:   35082376 now IPC :1.45694: AVG IPC :1.52488: L2-Pf-HR :1.00000: L2-HR :0.94683: (Sim:0h15m40s) 
CPU  0 inst:   55000004 cyc:   35844173 now IPC :1.31269: AVG IPC :1.52025: L2-Pf-HR :1.00000: L2-HR :0.94667: (Sim:0h16m0s) 
CPU  0 inst:   56000004 cyc:   36512551 now IPC :1.49616: AVG IPC :1.51979: L2-Pf-HR :1.00000: L2-HR :0.94679: (Sim:0h16m19s) 
CPU  0 inst:   57000004 cyc:   37182375 now IPC :1.49293: AVG IPC :1.51930: L2-Pf-HR :1.00000: L2-HR :0.94687: (Sim:0h16m38s) 
CPU  0 inst:   58000004 cyc:   37848957 now IPC :1.50019: AVG IPC :1.51895: L2-Pf-HR :1.00000: L2-HR :0.94702: (Sim:0h16m57s) 
CPU  0 inst:   59000005 cyc:   38517701 now IPC :1.49534: AVG IPC :1.51853: L2-Pf-HR :1.00000: L2-HR :0.94710: (Sim:0h17m16s) 
CPU  0 inst:   60000001 cyc:   39186000 now IPC :1.49633: AVG IPC :1.51814: L2-Pf-HR :1.00000: L2-HR :0.94723: (Sim:0h17m36s) 
CPU  0 inst:   61000005 cyc:   39915397 now IPC :1.37100: AVG IPC :1.51538: L2-Pf-HR :1.00000: L2-HR :0.94712: (Sim:0h17m56s) 
CPU  0 inst:   62000000 cyc:   40584966 now IPC :1.49349: AVG IPC :1.51501: L2-Pf-HR :1.00000: L2-HR :0.94702: (Sim:0h18m15s) 
CPU  0 inst:   63000001 cyc:   41255459 now IPC :1.49144: AVG IPC :1.51462: L2-Pf-HR :1.00000: L2-HR :0.94701: (Sim:0h18m34s) 
CPU  0 inst:   64000001 cyc:   41925761 now IPC :1.49186: AVG IPC :1.51425: L2-Pf-HR :1.00000: L2-HR :0.94711: (Sim:0h18m53s) 
CPU  0 inst:   65000005 cyc:   42669992 now IPC :1.34367: AVG IPC :1.51120: L2-Pf-HR :1.00000: L2-HR :0.94692: (Sim:0h19m14s) 
CPU  0 inst:   66000002 cyc:   43347951 now IPC :1.47501: AVG IPC :1.51063: L2-Pf-HR :1.00000: L2-HR :0.94689: (Sim:0h19m33s) 
CPU  0 inst:   67000001 cyc:   44026387 now IPC :1.47398: AVG IPC :1.51005: L2-Pf-HR :1.00000: L2-HR :0.94688: (Sim:0h19m52s) 
CPU  0 inst:   68000001 cyc:   44706059 now IPC :1.47130: AVG IPC :1.50945: L2-Pf-HR :1.00000: L2-HR :0.94686: (Sim:0h20m11s) 
CPU  0 inst:   69000000 cyc:   45387626 now IPC :1.46721: AVG IPC :1.50880: L2-Pf-HR :1.00000: L2-HR :0.94686: (Sim:0h20m31s) 
CPU  0 inst:   70000001 cyc:   46072107 now IPC :1.46096: AVG IPC :1.50807: L2-Pf-HR :1.00000: L2-HR :0.94686: (Sim:0h20m50s) 
CPU  0 inst:   71000004 cyc:   46835977 now IPC :1.30913: AVG IPC :1.50476: L2-Pf-HR :1.00000: L2-HR :0.94672: (Sim:0h21m11s) 
CPU  0 inst:   72000002 cyc:   47495918 now IPC :1.51528: AVG IPC :1.50491: L2-Pf-HR :1.00000: L2-HR :0.94679: (Sim:0h21m30s) 
CPU  0 inst:   73000002 cyc:   48157005 now IPC :1.51266: AVG IPC :1.50501: L2-Pf-HR :1.00000: L2-HR :0.94689: (Sim:0h21m49s) 
CPU  0 inst:   74000002 cyc:   48817711 now IPC :1.51353: AVG IPC :1.50513: L2-Pf-HR :1.00000: L2-HR :0.94695: (Sim:0h22m8s) 
CPU  0 inst:   75000003 cyc:   49476724 now IPC :1.51742: AVG IPC :1.50530: L2-Pf-HR :1.00000: L2-HR :0.94706: (Sim:0h22m27s) 
CPU  0 inst:   76000000 cyc:   50137787 now IPC :1.51271: AVG IPC :1.50540: L2-Pf-HR :1.00000: L2-HR :0.94712: (Sim:0h22m47s) 
CPU  0 inst:   77000000 cyc:   50857383 now IPC :1.38967: AVG IPC :1.50373: L2-Pf-HR :1.00000: L2-HR :0.94708: (Sim:0h23m6s) 
CPU  0 inst:   78000001 cyc:   51509246 now IPC :1.53407: AVG IPC :1.50412: L2-Pf-HR :1.00000: L2-HR :0.94697: (Sim:0h23m25s) 
CPU  0 inst:   79000000 cyc:   52158827 now IPC :1.53945: AVG IPC :1.50457: L2-Pf-HR :1.00000: L2-HR :0.94695: (Sim:0h23m44s) 
CPU  0 inst:   80000005 cyc:   52809495 now IPC :1.53689: AVG IPC :1.50497: L2-Pf-HR :1.00000: L2-HR :0.94701: (Sim:0h24m3s) 
CPU  0 inst:   81000005 cyc:   53554910 now IPC :1.34153: AVG IPC :1.50266: L2-Pf-HR :1.00000: L2-HR :0.94687: (Sim:0h24m23s) 
CPU  0 inst:   82000000 cyc:   54242192 now IPC :1.45500: AVG IPC :1.50204: L2-Pf-HR :1.00000: L2-HR :0.94686: (Sim:0h24m42s) 
CPU  0 inst:   83000004 cyc:   54931596 now IPC :1.45053: AVG IPC :1.50138: L2-Pf-HR :1.00000: L2-HR :0.94683: (Sim:0h25m1s) 
CPU  0 inst:   84000005 cyc:   55619850 now IPC :1.45295: AVG IPC :1.50077: L2-Pf-HR :1.00000: L2-HR :0.94682: (Sim:0h25m21s) 
CPU  0 inst:   85000002 cyc:   56309951 now IPC :1.44906: AVG IPC :1.50013: L2-Pf-HR :1.00000: L2-HR :0.94681: (Sim:0h25m40s) 
CPU  0 inst:   86000001 cyc:   57000847 now IPC :1.44739: AVG IPC :1.49948: L2-Pf-HR :1.00000: L2-HR :0.94681: (Sim:0h26m0s) 
CPU  0 inst:   87000000 cyc:   57753716 now IPC :1.32825: AVG IPC :1.49721: L2-Pf-HR :1.00000: L2-HR :0.94667: (Sim:0h26m20s) 
CPU  0 inst:   88000002 cyc:   58442898 now IPC :1.45100: AVG IPC :1.49665: L2-Pf-HR :1.00000: L2-HR :0.94675: (Sim:0h26m39s) 
CPU  0 inst:   89000005 cyc:   59116520 now IPC :1.48452: AVG IPC :1.49651: L2-Pf-HR :1.00000: L2-HR :0.94679: (Sim:0h26m59s) 
CPU  0 inst:   90000004 cyc:   59788876 now IPC :1.48731: AVG IPC :1.49641: L2-Pf-HR :1.00000: L2-HR :0.94688: (Sim:0h27m18s) 
CPU  0 inst:   91000004 cyc:   60461600 now IPC :1.48649: AVG IPC :1.49630: L2-Pf-HR :1.00000: L2-HR :0.94692: (Sim:0h27m37s) 
CPU  0 inst:   92000004 cyc:   61131996 now IPC :1.49166: AVG IPC :1.49624: L2-Pf-HR :1.00000: L2-HR :0.94700: (Sim:0h27m57s) 
CPU  0 inst:   93000005 cyc:   61858101 now IPC :1.37721: AVG IPC :1.49482: L2-Pf-HR :1.00000: L2-HR :0.94698: (Sim:0h28m16s) 
CPU  0 inst:   94000001 cyc:   62510367 now IPC :1.53311: AVG IPC :1.49523: L2-Pf-HR :1.00000: L2-HR :0.94688: (Sim:0h28m35s) 
CPU  0 inst:   95000002 cyc:   63156348 now IPC :1.54803: AVG IPC :1.49578: L2-Pf-HR :1.00000: L2-HR :0.94684: (Sim:0h28m54s) 
CPU  0 inst:   96000003 cyc:   63803877 now IPC :1.54433: AVG IPC :1.49628: L2-Pf-HR :1.00000: L2-HR :0.94688: (Sim:0h29m13s) 
CPU  0 inst:   97000002 cyc:   64514974 now IPC :1.40628: AVG IPC :1.49527: L2-Pf-HR :1.00000: L2-HR :0.94678: (Sim:0h29m27s) 
CPU  0 inst:   98000003 cyc:   65225048 now IPC :1.40831: AVG IPC :1.49431: L2-Pf-HR :1.00000: L2-HR :0.94676: (Sim:0h29m46s) 
CPU  0 inst:   99000001 cyc:   65911212 now IPC :1.45737: AVG IPC :1.49392: L2-Pf-HR :1.00000: L2-HR :0.94674: (Sim:0h30m5s) 
CPU  0 inst:  100000002 cyc:   66600270 now IPC :1.45126: AVG IPC :1.49347: L2-Pf-HR :1.00000: L2-HR :0.94673: (Sim:0h30m24s) 
CPU  0 inst:  101000000 cyc:   67285666 now IPC :1.45901: AVG IPC :1.49312: L2-Pf-HR :1.00000: L2-HR :0.94672: (Sim:0h30m44s) 
CPU  0 inst:  102000003 cyc:   67974895 now IPC :1.45090: AVG IPC :1.49268: L2-Pf-HR :1.00000: L2-HR :0.94672: (Sim:0h31m3s) 
CPU  0 inst:  103000000 cyc:   68672545 now IPC :1.43338: AVG IPC :1.49207: L2-Pf-HR :0.99999: L2-HR :0.94674: (Sim:0h31m22s) 
CPU  0 inst:  104000001 cyc:   69421267 now IPC :1.33561: AVG IPC :1.49036: L2-Pf-HR :0.99999: L2-HR :0.94664: (Sim:0h31m42s) 
CPU  0 inst:  105000000 cyc:   70090786 now IPC :1.49361: AVG IPC :1.49039: L2-Pf-HR :0.99999: L2-HR :0.94670: (Sim:0h32m2s) 
CPU  0 inst:  106000002 cyc:   70761459 now IPC :1.49104: AVG IPC :1.49040: L2-Pf-HR :0.99999: L2-HR :0.94674: (Sim:0h32m22s) 
CPU  0 inst:  107000002 cyc:   71430905 now IPC :1.49377: AVG IPC :1.49043: L2-Pf-HR :0.99999: L2-HR :0.94681: (Sim:0h32m41s) 
CPU  0 inst:  108000002 cyc:   72099347 now IPC :1.49602: AVG IPC :1.49048: L2-Pf-HR :0.99999: L2-HR :0.94685: (Sim:0h33m1s) 
CPU  0 inst:  109000000 cyc:   72770933 now IPC :1.48901: AVG IPC :1.49047: L2-Pf-HR :0.99999: L2-HR :0.94693: (Sim:0h33m21s) 
CPU  0 inst:  110000001 cyc:   73494231 now IPC :1.38256: AVG IPC :1.48939: L2-Pf-HR :0.99999: L2-HR :0.94676: (Sim:0h33m41s) 
CPU  0 inst:  111000004 cyc:   74163828 now IPC :1.49344: AVG IPC :1.48943: L2-Pf-HR :0.99999: L2-HR :0.94671: (Sim:0h34m0s) 
CPU  0 inst:  112000003 cyc:   74832436 now IPC :1.49564: AVG IPC :1.48948: L2-Pf-HR :0.99999: L2-HR :0.94675: (Sim:0h34m20s) 
CPU  0 inst:  113000005 cyc:   75502423 now IPC :1.49257: AVG IPC :1.48951: L2-Pf-HR :0.99999: L2-HR :0.94680: (Sim:0h34m39s) 
CPU  0 inst:  114000002 cyc:   76277140 now IPC :1.29079: AVG IPC :1.48747: L2-Pf-HR :0.99999: L2-HR :0.94665: (Sim:0h35m0s) 
CPU  0 inst:  115000000 cyc:   76970965 now IPC :1.44128: AVG IPC :1.48705: L2-Pf-HR :0.99999: L2-HR :0.94663: (Sim:0h35m20s) 
CPU  0 inst:  116000002 cyc:   77666128 now IPC :1.43851: AVG IPC :1.48661: L2-Pf-HR :0.99999: L2-HR :0.94661: (Sim:0h35m39s) 
CPU  0 inst:  117000003 cyc:   78361043 now IPC :1.43903: AVG IPC :1.48618: L2-Pf-HR :0.99999: L2-HR :0.94661: (Sim:0h35m58s) 
CPU  0 inst:  118000001 cyc:   79058333 now IPC :1.43412: AVG IPC :1.48571: L2-Pf-HR :0.99999: L2-HR :0.94659: (Sim:0h36m18s) 
CPU  0 inst:  119000000 cyc:   79753942 now IPC :1.43759: AVG IPC :1.48529: L2-Pf-HR :0.99999: L2-HR :0.94659: (Sim:0h36m38s) 
CPU  0 inst:  120000002 cyc:   80505024 now IPC :1.33142: AVG IPC :1.48384: L2-Pf-HR :0.99999: L2-HR :0.94654: (Sim:0h36m58s) 
CPU  0 inst:  121000002 cyc:   81165898 now IPC :1.51315: AVG IPC :1.48408: L2-Pf-HR :0.99999: L2-HR :0.94656: (Sim:0h37m17s) 
CPU  0 inst:  122000002 cyc:   81825351 now IPC :1.51641: AVG IPC :1.48434: L2-Pf-HR :0.99999: L2-HR :0.94662: (Sim:0h37m37s) 
CPU  0 inst:  123000000 cyc:   82487764 now IPC :1.50963: AVG IPC :1.48455: L2-Pf-HR :0.99999: L2-HR :0.94666: (Sim:0h37m57s) 
CPU  0 inst:  124000000 cyc:   83149271 now IPC :1.51170: AVG IPC :1.48476: L2-Pf-HR :0.99999: L2-HR :0.94670: (Sim:0h38m16s) 
CPU  0 inst:  125000000 cyc:   83809270 now IPC :1.51515: AVG IPC :1.48501: L2-Pf-HR :0.99999: L2-HR :0.94675: (Sim:0h38m36s) 
CPU  0 inst:  126000001 cyc:   84520503 now IPC :1.40601: AVG IPC :1.48433: L2-Pf-HR :0.99999: L2-HR :0.94663: (Sim:0h38m55s) 
CPU  0 inst:  127000005 cyc:   85172229 now IPC :1.53439: AVG IPC :1.48472: L2-Pf-HR :0.99999: L2-HR :0.94658: (Sim:0h39m14s) 
CPU  0 inst:  128000000 cyc:   85823316 now IPC :1.53589: AVG IPC :1.48511: L2-Pf-HR :0.99999: L2-HR :0.94661: (Sim:0h39m33s) 
CPU  0 inst:  129000003 cyc:   86475359 now IPC :1.53365: AVG IPC :1.48548: L2-Pf-HR :0.99999: L2-HR :0.94663: (Sim:0h39m52s) 
CPU  0 inst:  130000000 cyc:   87232709 now IPC :1.32039: AVG IPC :1.48404: L2-Pf-HR :0.99999: L2-HR :0.94652: (Sim:0h40m12s) 
CPU  0 inst:  131000003 cyc:   87908516 now IPC :1.47972: AVG IPC :1.48400: L2-Pf-HR :0.99999: L2-HR :0.94650: (Sim:0h40m31s) 
CPU  0 inst:  132000005 cyc:   88583454 now IPC :1.48162: AVG IPC :1.48398: L2-Pf-HR :0.99999: L2-HR :0.94649: (Sim:0h40m50s) 
CPU  0 inst:  133000000 cyc:   89260278 now IPC :1.47748: AVG IPC :1.48393: L2-Pf-HR :0.99999: L2-HR :0.94648: (Sim:0h41m9s) 
CPU  0 inst:  134000004 cyc:   89936960 now IPC :1.47780: AVG IPC :1.48389: L2-Pf-HR :0.99999: L2-HR :0.94648: (Sim:0h41m28s) 
CPU  0 inst:  135000002 cyc:   90613035 now IPC :1.47912: AVG IPC :1.48385: L2-Pf-HR :0.99999: L2-HR :0.94646: (Sim:0h41m47s) 
CPU  0 inst:  136000000 cyc:   91369715 now IPC :1.32156: AVG IPC :1.48249: L2-Pf-HR :0.99999: L2-HR :0.94640: (Sim:0h42m7s) 
CPU  0 inst:  137000000 cyc:   92037888 now IPC :1.49662: AVG IPC :1.48260: L2-Pf-HR :0.99999: L2-HR :0.94645: (Sim:0h42m26s) 
CPU  0 inst:  138000004 cyc:   92703454 now IPC :1.50249: AVG IPC :1.48274: L2-Pf-HR :0.99999: L2-HR :0.94647: (Sim:0h42m45s) 
CPU  0 inst:  139000000 cyc:   93369541 now IPC :1.50130: AVG IPC :1.48287: L2-Pf-HR :0.99999: L2-HR :0.94652: (Sim:0h43m4s) 
CPU  0 inst:  140000003 cyc:   94036961 now IPC :1.49831: AVG IPC :1.48298: L2-Pf-HR :0.99999: L2-HR :0.94655: (Sim:0h43m23s) 
CPU  0 inst:  141000004 cyc:   94702325 now IPC :1.50294: AVG IPC :1.48313: L2-Pf-HR :0.99999: L2-HR :0.94659: (Sim:0h43m42s) 
CPU  0 inst:  142000003 cyc:   95429692 now IPC :1.37482: AVG IPC :1.48229: L2-Pf-HR :0.99999: L2-HR :0.94649: (Sim:0h44m2s) 
CPU  0 inst:  143000003 cyc:   96099798 now IPC :1.49230: AVG IPC :1.48236: L2-Pf-HR :0.99999: L2-HR :0.94647: (Sim:0h44m21s) 
CPU  0 inst:  144000003 cyc:   96770773 now IPC :1.49037: AVG IPC :1.48242: L2-Pf-HR :0.99999: L2-HR :0.94646: (Sim:0h44m40s) 
CPU  0 inst:  145000004 cyc:   97439321 now IPC :1.49578: AVG IPC :1.48251: L2-Pf-HR :0.99999: L2-HR :0.94649: (Sim:0h44m59s) 
CPU  0 inst:  146000003 cyc:   98195473 now IPC :1.32248: AVG IPC :1.48127: L2-Pf-HR :0.99999: L2-HR :0.94639: (Sim:0h45m19s) 
CPU  0 inst:  147000004 cyc:   98883480 now IPC :1.45347: AVG IPC :1.48107: L2-Pf-HR :0.99999: L2-HR :0.94637: (Sim:0h45m38s) 
CPU  0 inst:  148000003 cyc:   99574172 now IPC :1.44782: AVG IPC :1.48084: L2-Pf-HR :0.99999: L2-HR :0.94635: (Sim:0h45m58s) 
CPU  0 inst:  149000000 cyc:  100265030 now IPC :1.44747: AVG IPC :1.48061: L2-Pf-HR :0.99999: L2-HR :0.94635: (Sim:0h46m17s) 
CPU  0 inst:  150000003 cyc:  100953452 now IPC :1.45260: AVG IPC :1.48041: L2-Pf-HR :0.99999: L2-HR :0.94634: (Sim:0h46m36s) 
CPU  0 inst:  151000000 cyc:  101643927 now IPC :1.44827: AVG IPC :1.48019: L2-Pf-HR :0.99999: L2-HR :0.94634: (Sim:0h46m56s) 
CPU  0 inst:  152000004 cyc:  102408261 now IPC :1.30833: AVG IPC :1.47890: L2-Pf-HR :0.99998: L2-HR :0.94627: (Sim:0h47m16s) 
CPU  0 inst:  153000004 cyc:  103078725 now IPC :1.49150: AVG IPC :1.47898: L2-Pf-HR :0.99998: L2-HR :0.94629: (Sim:0h47m35s) 
CPU  0 inst:  154000002 cyc:  103745723 now IPC :1.49925: AVG IPC :1.47911: L2-Pf-HR :0.99998: L2-HR :0.94633: (Sim:0h47m54s) 
CPU  0 inst:  155000003 cyc:  104413865 now IPC :1.49669: AVG IPC :1.47923: L2-Pf-HR :0.99998: L2-HR :0.94636: (Sim:0h48m13s) 
CPU  0 inst:  156000004 cyc:  105084397 now IPC :1.49135: AVG IPC :1.47930: L2-Pf-HR :0.99998: L2-HR :0.94639: (Sim:0h48m33s) 
CPU  0 inst:  157000001 cyc:  105754287 now IPC :1.49278: AVG IPC :1.47939: L2-Pf-HR :0.99998: L2-HR :0.94642: (Sim:0h48m52s) 
CPU  0 inst:  158000000 cyc:  106467424 now IPC :1.40225: AVG IPC :1.47887: L2-Pf-HR :0.99998: L2-HR :0.94635: (Sim:0h49m12s) 
CPU  0 inst:  159000001 cyc:  107121709 now IPC :1.52839: AVG IPC :1.47917: L2-Pf-HR :0.99998: L2-HR :0.94631: (Sim:0h49m30s) 
CPU  0 inst:  160000002 cyc:  107776230 now IPC :1.52784: AVG IPC :1.47947: L2-Pf-HR :0.99998: L2-HR :0.94630: (Sim:0h49m49s) 
CPU  0 inst:  161000002 cyc:  108430279 now IPC :1.52894: AVG IPC :1.47977: L2-Pf-HR :0.99998: L2-HR :0.94633: (Sim:0h50m6s) 
CPU  0 inst:  162000000 cyc:  109187876 now IPC :1.31996: AVG IPC :1.47865: L2-Pf-HR :0.99998: L2-HR :0.94624: (Sim:0h50m26s) 
CPU  0 inst:  163000001 cyc:  109872380 now IPC :1.46091: AVG IPC :1.47854: L2-Pf-HR :0.99998: L2-HR :0.94622: (Sim:0h50m45s) 
CPU  0 inst:  164000005 cyc:  110560571 now IPC :1.45309: AVG IPC :1.47838: L2-Pf-HR :0.99998: L2-HR :0.94621: (Sim:0h51m4s) 
CPU  0 inst:  165000003 cyc:  111250273 now IPC :1.44990: AVG IPC :1.47820: L2-Pf-HR :0.99998: L2-HR :0.94620: (Sim:0h51m23s) 
CPU  0 inst:  166000004 cyc:  111938298 now IPC :1.45344: AVG IPC :1.47805: L2-Pf-HR :0.99998: L2-HR :0.94619: (Sim:0h51m42s) 
CPU  0 inst:  167000003 cyc:  112627939 now IPC :1.45003: AVG IPC :1.47788: L2-Pf-HR :0.99998: L2-HR :0.94618: (Sim:0h52m1s) 
CPU  0 inst:  168000004 cyc:  113387656 now IPC :1.31628: AVG IPC :1.47679: L2-Pf-HR :0.99998: L2-HR :0.94612: (Sim:0h52m21s) 
CPU  0 inst:  169000000 cyc:  114047684 now IPC :1.51508: AVG IPC :1.47701: L2-Pf-HR :0.99998: L2-HR :0.94616: (Sim:0h52m40s) 
CPU  0 inst:  170000000 cyc:  114708569 now IPC :1.51312: AVG IPC :1.47722: L2-Pf-HR :0.99998: L2-HR :0.94617: (Sim:0h52m59s) 
CPU  0 inst:  171000000 cyc:  115366874 now IPC :1.51905: AVG IPC :1.47746: L2-Pf-HR :0.99998: L2-HR :0.94621: (Sim:0h53m17s) 
CPU  0 inst:  172000003 cyc:  116025739 now IPC :1.51777: AVG IPC :1.47769: L2-Pf-HR :0.99998: L2-HR :0.94623: (Sim:0h53m36s) 
CPU  0 inst:  173000000 cyc:  116686249 now IPC :1.51398: AVG IPC :1.47790: L2-Pf-HR :0.99998: L2-HR :0.94626: (Sim:0h53m55s) 
CPU  0 inst:  174000004 cyc:  117406927 now IPC :1.38759: AVG IPC :1.47734: L2-Pf-HR :0.99998: L2-HR :0.94621: (Sim:0h54m15s) 
CPU  0 inst:  175000005 cyc:  118073306 now IPC :1.50065: AVG IPC :1.47747: L2-Pf-HR :0.99998: L2-HR :0.94616: (Sim:0h54m34s) 
CPU  0 inst:  176000001 cyc:  118737506 now IPC :1.50556: AVG IPC :1.47763: L2-Pf-HR :0.99998: L2-HR :0.94615: (Sim:0h54m52s) 
CPU  0 inst:  177000003 cyc:  119403642 now IPC :1.50120: AVG IPC :1.47776: L2-Pf-HR :0.99998: L2-HR :0.94617: (Sim:0h55m11s) 
CPU  0 inst:  178000003 cyc:  120161542 now IPC :1.31944: AVG IPC :1.47676: L2-Pf-HR :0.99998: L2-HR :0.94609: (Sim:0h55m31s) 
CPU  0 inst:  179000003 cyc:  120847209 now IPC :1.45843: AVG IPC :1.47665: L2-Pf-HR :0.99998: L2-HR :0.94608: (Sim:0h55m50s) 
CPU  0 inst:  180000002 cyc:  121534043 now IPC :1.45595: AVG IPC :1.47653: L2-Pf-HR :0.99998: L2-HR :0.94606: (Sim:0h56m9s) 
CPU  0 inst:  181000000 cyc:  122221630 now IPC :1.45436: AVG IPC :1.47641: L2-Pf-HR :0.99998: L2-HR :0.94606: (Sim:0h56m28s) 
CPU  0 inst:  182000001 cyc:  122909773 now IPC :1.45319: AVG IPC :1.47628: L2-Pf-HR :0.99998: L2-HR :0.94604: (Sim:0h56m47s) 
CPU  0 inst:  183000001 cyc:  123595107 now IPC :1.45914: AVG IPC :1.47618: L2-Pf-HR :0.99998: L2-HR :0.94604: (Sim:0h57m6s) 
CPU  0 inst:  184000005 cyc:  124356258 now IPC :1.31380: AVG IPC :1.47518: L2-Pf-HR :0.99998: L2-HR :0.94598: (Sim:0h57m26s) 
CPU  0 inst:  185000000 cyc:  125029480 now IPC :1.48539: AVG IPC :1.47523: L2-Pf-HR :0.99998: L2-HR :0.94599: (Sim:0h57m45s) 
CPU  0 inst:  186000004 cyc:  125701366 now IPC :1.48835: AVG IPC :1.47530: L2-Pf-HR :0.99998: L2-HR :0.94602: (Sim:0h58m4s) 
CPU  0 inst:  187000004 cyc:  126373036 now IPC :1.48883: AVG IPC :1.47538: L2-Pf-HR :0.99998: L2-HR :0.94605: (Sim:0h58m23s) 
CPU  0 inst:  188000004 cyc:  127043913 now IPC :1.49059: AVG IPC :1.47546: L2-Pf-HR :0.99998: L2-HR :0.94607: (Sim:0h58m42s) 
CPU  0 inst:  189000004 cyc:  127716827 now IPC :1.48607: AVG IPC :1.47551: L2-Pf-HR :0.99998: L2-HR :0.94610: (Sim:0h59m1s) 
CPU  0 inst:  190000003 cyc:  128448671 now IPC :1.36641: AVG IPC :1.47489: L2-Pf-HR :0.99999: L2-HR :0.94606: (Sim:0h59m20s) 
CPU  0 inst:  191000001 cyc:  129113097 now IPC :1.50506: AVG IPC :1.47504: L2-Pf-HR :0.99999: L2-HR :0.94602: (Sim:0h59m39s) 
CPU  0 inst:  192000000 cyc:  129777428 now IPC :1.50527: AVG IPC :1.47520: L2-Pf-HR :0.99999: L2-HR :0.94600: (Sim:0h59m58s) 
CPU  0 inst:  193000001 cyc:  130443846 now IPC :1.50056: AVG IPC :1.47533: L2-Pf-HR :0.99999: L2-HR :0.94601: (Sim:1h0m17s) 
CPU  0 inst:  194000002 cyc:  131201734 now IPC :1.31946: AVG IPC :1.47442: L2-Pf-HR :0.99999: L2-HR :0.94595: (Sim:1h0m37s) 
CPU  0 inst:  195000004 cyc:  131894039 now IPC :1.44445: AVG IPC :1.47427: L2-Pf-HR :0.99999: L2-HR :0.94593: (Sim:1h0m56s) 
CPU  0 inst:  196000004 cyc:  132585635 now IPC :1.44593: AVG IPC :1.47412: L2-Pf-HR :0.99999: L2-HR :0.94592: (Sim:1h1m15s) 
CPU  0 inst:  197000003 cyc:  133279642 now IPC :1.44091: AVG IPC :1.47394: L2-Pf-HR :0.99999: L2-HR :0.94590: (Sim:1h1m34s) 
CPU  0 inst:  198000004 cyc:  133971564 now IPC :1.44525: AVG IPC :1.47379: L2-Pf-HR :0.99999: L2-HR :0.94590: (Sim:1h1m54s) 
CPU  0 inst:  199000002 cyc:  134664434 now IPC :1.44327: AVG IPC :1.47363: L2-Pf-HR :0.99999: L2-HR :0.94588: (Sim:1h2m11s) 
CPU  0 inst:  200000004 cyc:  135434606 now IPC :1.29841: AVG IPC :1.47263: L2-Pf-HR :0.99998: L2-HR :0.94581: (Sim:1h2m32s) 
CPU  0 inst:  201000001 cyc:  136110708 now IPC :1.47906: AVG IPC :1.47266: L2-Pf-HR :0.99998: L2-HR :0.94585: (Sim:1h2m51s) 
CPU  0 inst:  202000002 cyc:  136785691 now IPC :1.48152: AVG IPC :1.47271: L2-Pf-HR :0.99998: L2-HR :0.94586: (Sim:1h3m10s) 
CPU  0 inst:  203000002 cyc:  137459978 now IPC :1.48305: AVG IPC :1.47276: L2-Pf-HR :0.99998: L2-HR :0.94588: (Sim:1h3m29s) 
CPU  0 inst:  204000002 cyc:  138133572 now IPC :1.48457: AVG IPC :1.47282: L2-Pf-HR :0.99998: L2-HR :0.94591: (Sim:1h3m48s) 
CPU  0 inst:  205000002 cyc:  138807474 now IPC :1.48390: AVG IPC :1.47287: L2-Pf-HR :0.99998: L2-HR :0.94593: (Sim:1h4m7s) 
CPU  0 inst:  206000004 cyc:  139540702 now IPC :1.36383: AVG IPC :1.47229: L2-Pf-HR :0.99998: L2-HR :0.94591: (Sim:1h4m28s) 
CPU  0 inst:  207000005 cyc:  140209371 now IPC :1.49551: AVG IPC :1.47241: L2-Pf-HR :0.99998: L2-HR :0.94586: (Sim:1h4m47s) 
CPU  0 inst:  208000002 cyc:  140879872 now IPC :1.49142: AVG IPC :1.47250: L2-Pf-HR :0.99998: L2-HR :0.94583: (Sim:1h5m6s) 
CPU  0 inst:  209000001 cyc:  141550840 now IPC :1.49038: AVG IPC :1.47258: L2-Pf-HR :0.99998: L2-HR :0.94584: (Sim:1h5m21s) 
CPU  0 inst:  210000003 cyc:  142297438 now IPC :1.33941: AVG IPC :1.47188: L2-Pf-HR :0.99998: L2-HR :0.94578: (Sim:1h5m40s) 
CPU  0 inst:  211000001 cyc:  142979130 now IPC :1.46694: AVG IPC :1.47185: L2-Pf-HR :0.99998: L2-HR :0.94578: (Sim:1h6m0s) 
CPU  0 inst:  212000002 cyc:  143651884 now IPC :1.48643: AVG IPC :1.47192: L2-Pf-HR :0.99998: L2-HR :0.94575: (Sim:1h6m17s) 
CPU  0 inst:  213000000 cyc:  144322786 now IPC :1.49053: AVG IPC :1.47201: L2-Pf-HR :0.99998: L2-HR :0.94575: (Sim:1h6m36s) 
CPU  0 inst:  214000004 cyc:  144997042 now IPC :1.48312: AVG IPC :1.47206: L2-Pf-HR :0.99998: L2-HR :0.94573: (Sim:1h6m57s) 
CPU  0 inst:  215000004 cyc:  145672612 now IPC :1.48023: AVG IPC :1.47210: L2-Pf-HR :0.99998: L2-HR :0.94573: (Sim:1h7m17s) 
CPU  0 inst:  216000001 cyc:  146385416 now IPC :1.40291: AVG IPC :1.47176: L2-Pf-HR :0.99998: L2-HR :0.94567: (Sim:1h7m38s) 
CPU  0 inst:  217000000 cyc:  147099159 now IPC :1.40106: AVG IPC :1.47142: L2-Pf-HR :0.99998: L2-HR :0.94568: (Sim:1h7m58s) 
CPU  0 inst:  218000005 cyc:  147769018 now IPC :1.49286: AVG IPC :1.47151: L2-Pf-HR :0.99998: L2-HR :0.94570: (Sim:1h8m18s) 
CPU  0 inst:  219000002 cyc:  148439669 now IPC :1.49108: AVG IPC :1.47160: L2-Pf-HR :0.99998: L2-HR :0.94572: (Sim:1h8m39s) 
CPU  0 inst:  220000000 cyc:  149110531 now IPC :1.49062: AVG IPC :1.47169: L2-Pf-HR :0.99998: L2-HR :0.94574: (Sim:1h8m59s) 
CPU  0 inst:  221000000 cyc:  149780465 now IPC :1.49268: AVG IPC :1.47178: L2-Pf-HR :0.99998: L2-HR :0.94576: (Sim:1h9m19s) 
CPU  0 inst:  222000003 cyc:  150470837 now IPC :1.44850: AVG IPC :1.47168: L2-Pf-HR :0.99998: L2-HR :0.94576: (Sim:1h9m39s) 
CPU  0 inst:  223000002 cyc:  151172526 now IPC :1.42513: AVG IPC :1.47146: L2-Pf-HR :0.99999: L2-HR :0.94569: (Sim:1h9m59s) 
CPU  0 inst:  224000004 cyc:  151842659 now IPC :1.49224: AVG IPC :1.47155: L2-Pf-HR :0.99999: L2-HR :0.94566: (Sim:1h10m16s) 
CPU  0 inst:  225000005 cyc:  152511124 now IPC :1.49597: AVG IPC :1.47166: L2-Pf-HR :0.99999: L2-HR :0.94568: (Sim:1h10m36s) 
CPU  0 inst:  226000000 cyc:  153192273 now IPC :1.46810: AVG IPC :1.47164: L2-Pf-HR :0.99999: L2-HR :0.94568: (Sim:1h10m56s) 
CPU  0 inst:  227000004 cyc:  153950141 now IPC :1.31950: AVG IPC :1.47089: L2-Pf-HR :0.99999: L2-HR :0.94561: (Sim:1h11m17s) 
CPU  0 inst:  228000002 cyc:  154637469 now IPC :1.45491: AVG IPC :1.47082: L2-Pf-HR :0.99999: L2-HR :0.94560: (Sim:1h11m38s) 
CPU  0 inst:  229000002 cyc:  155328626 now IPC :1.44685: AVG IPC :1.47071: L2-Pf-HR :0.99999: L2-HR :0.94558: (Sim:1h11m55s) 
CPU  0 inst:  230000004 cyc:  156018382 now IPC :1.44979: AVG IPC :1.47062: L2-Pf-HR :0.99999: L2-HR :0.94558: (Sim:1h12m13s) 
CPU  0 inst:  231000002 cyc:  156711098 now IPC :1.44359: AVG IPC :1.47050: L2-Pf-HR :0.99999: L2-HR :0.94556: (Sim:1h12m28s) 
CPU  0 inst:  232000003 cyc:  157404162 now IPC :1.44287: AVG IPC :1.47037: L2-Pf-HR :0.99998: L2-HR :0.94555: (Sim:1h12m47s) 
CPU  0 inst:  233000004 cyc:  158145651 now IPC :1.34864: AVG IPC :1.46980: L2-Pf-HR :0.99998: L2-HR :0.94552: (Sim:1h13m8s) 
CPU  0 inst:  234000004 cyc:  158798230 now IPC :1.53238: AVG IPC :1.47006: L2-Pf-HR :0.99998: L2-HR :0.94552: (Sim:1h13m28s) 
CPU  0 inst:  235000003 cyc:  159451074 now IPC :1.53176: AVG IPC :1.47031: L2-Pf-HR :0.99998: L2-HR :0.94554: (Sim:1h13m49s) 
CPU  0 inst:  236000000 cyc:  160104371 now IPC :1.53069: AVG IPC :1.47056: L2-Pf-HR :0.99998: L2-HR :0.94557: (Sim:1h14m9s) 
CPU  0 inst:  237000000 cyc:  160757921 now IPC :1.53010: AVG IPC :1.47080: L2-Pf-HR :0.99998: L2-HR :0.94558: (Sim:1h14m29s) 
CPU  0 inst:  238000004 cyc:  161409908 now IPC :1.53378: AVG IPC :1.47106: L2-Pf-HR :0.99998: L2-HR :0.94560: (Sim:1h14m49s) 
CPU  0 inst:  239000004 cyc:  162130179 now IPC :1.38837: AVG IPC :1.47069: L2-Pf-HR :0.99998: L2-HR :0.94553: (Sim:1h15m9s) 
CPU  0 inst:  240000000 cyc:  162797368 now IPC :1.49882: AVG IPC :1.47081: L2-Pf-HR :0.99998: L2-HR :0.94550: (Sim:1h15m29s) 
CPU  0 inst:  241000002 cyc:  163465082 now IPC :1.49765: AVG IPC :1.47092: L2-Pf-HR :0.99998: L2-HR :0.94550: (Sim:1h15m47s) 
CPU  0 inst:  242000003 cyc:  164130253 now IPC :1.50337: AVG IPC :1.47105: L2-Pf-HR :0.99998: L2-HR :0.94551: (Sim:1h16m5s) 
CPU  0 inst:  243000001 cyc:  164897938 now IPC :1.30262: AVG IPC :1.47026: L2-Pf-HR :0.99998: L2-HR :0.94545: (Sim:1h16m26s) 
CPU  0 inst:  244000004 cyc:  165588667 now IPC :1.44775: AVG IPC :1.47017: L2-Pf-HR :0.99998: L2-HR :0.94543: (Sim:1h16m48s) 
CPU  0 inst:  245000000 cyc:  166274424 now IPC :1.45824: AVG IPC :1.47012: L2-Pf-HR :0.99998: L2-HR :0.94542: (Sim:1h17m8s) 
CPU  0 inst:  246000003 cyc:  166961538 now IPC :1.45537: AVG IPC :1.47006: L2-Pf-HR :0.99998: L2-HR :0.94540: (Sim:1h17m29s) 
CPU  0 inst:  247000000 cyc:  167652553 now IPC :1.44714: AVG IPC :1.46996: L2-Pf-HR :0.99998: L2-HR :0.94540: (Sim:1h17m50s) 
CPU  0 inst:  248000002 cyc:  168336599 now IPC :1.46189: AVG IPC :1.46993: L2-Pf-HR :0.99998: L2-HR :0.94538: (Sim:1h18m10s) 
CPU  0 inst:  249000002 cyc:  169094180 now IPC :1.31999: AVG IPC :1.46925: L2-Pf-HR :0.99998: L2-HR :0.94534: (Sim:1h18m31s) 
CPU  0 inst:  250000002 cyc:  169765805 now IPC :1.48893: AVG IPC :1.46933: L2-Pf-HR :0.99998: L2-HR :0.94536: (Sim:1h18m52s) 
CPU  0 inst:  251000002 cyc:  170436473 now IPC :1.49105: AVG IPC :1.46942: L2-Pf-HR :0.99998: L2-HR :0.94537: (Sim:1h19m12s) 
CPU  0 inst:  252000001 cyc:  171108754 now IPC :1.48747: AVG IPC :1.46949: L2-Pf-HR :0.99998: L2-HR :0.94539: (Sim:1h19m32s) 
CPU  0 inst:  253000002 cyc:  171780978 now IPC :1.48760: AVG IPC :1.46956: L2-Pf-HR :0.99998: L2-HR :0.94541: (Sim:1h19m52s) 
CPU  0 inst:  254000002 cyc:  172451771 now IPC :1.49077: AVG IPC :1.46964: L2-Pf-HR :0.99998: L2-HR :0.94542: (Sim:1h20m12s) 
CPU  0 inst:  255000004 cyc:  173177907 now IPC :1.37716: AVG IPC :1.46925: L2-Pf-HR :0.99998: L2-HR :0.94537: (Sim:1h20m33s) 
CPU  0 inst:  256000001 cyc:  173848474 now IPC :1.49127: AVG IPC :1.46934: L2-Pf-HR :0.99998: L2-HR :0.94534: (Sim:1h20m53s) 
CPU  0 inst:  257000003 cyc:  174517587 now IPC :1.49452: AVG IPC :1.46943: L2-Pf-HR :0.99998: L2-HR :0.94533: (Sim:1h21m13s) 
CPU  0 inst:  258000005 cyc:  175186799 now IPC :1.49430: AVG IPC :1.46953: L2-Pf-HR :0.99998: L2-HR :0.94534: (Sim:1h21m34s) 
CPU  0 inst:  259000003 cyc:  178950640 now IPC :0.26569: AVG IPC :1.44407: L2-Pf-HR :0.99998: L2-HR :0.94215: (Sim:1h22m21s) 
CPU  0 inst:  260000002 cyc:  183980130 now IPC :0.19883: AVG IPC :1.40985: L2-Pf-HR :0.99998: L2-HR :0.93766: (Sim:1h23m23s) 
CPU  0 inst:  261000004 cyc:  189132411 now IPC :0.19409: AVG IPC :1.37655: L2-Pf-HR :0.99998: L2-HR :0.93325: (Sim:1h24m25s) 
CPU  0 inst:  262000001 cyc:  194283193 now IPC :0.19414: AVG IPC :1.34505: L2-Pf-HR :0.99998: L2-HR :0.92893: (Sim:1h25m28s) 
CPU  0 inst:  263000005 cyc:  199433773 now IPC :0.19415: AVG IPC :1.31518: L2-Pf-HR :0.99998: L2-HR :0.92469: (Sim:1h26m31s) 
CPU  0 inst:  264000001 cyc:  204587576 now IPC :0.19403: AVG IPC :1.28680: L2-Pf-HR :0.99998: L2-HR :0.92054: (Sim:1h27m26s) 
CPU  0 inst:  265000000 cyc:  209736281 now IPC :0.19422: AVG IPC :1.25985: L2-Pf-HR :0.99998: L2-HR :0.91647: (Sim:1h28m33s) 
CPU  0 inst:  266000005 cyc:  214890952 now IPC :0.19400: AVG IPC :1.23417: L2-Pf-HR :0.99998: L2-HR :0.91247: (Sim:1h29m39s) 
CPU  0 inst:  267000001 cyc:  220037755 now IPC :0.19429: AVG IPC :1.20973: L2-Pf-HR :0.99998: L2-HR :0.90855: (Sim:1h30m45s) 
CPU  0 inst:  268000000 cyc:  225055527 now IPC :0.19929: AVG IPC :1.18711: L2-Pf-HR :0.99998: L2-HR :0.90551: (Sim:1h31m42s) 
CPU  0 inst:  269000000 cyc:  230139313 now IPC :0.19670: AVG IPC :1.16514: L2-Pf-HR :0.99998: L2-HR :0.90491: (Sim:1h32m27s) 
CPU  0 inst:  270000000 cyc:  235222764 now IPC :0.19672: AVG IPC :1.14412: L2-Pf-HR :0.99998: L2-HR :0.90431: (Sim:1h33m12s) 
CPU  0 inst:  271000000 cyc:  240306569 now IPC :0.19670: AVG IPC :1.12399: L2-Pf-HR :0.99998: L2-HR :0.90372: (Sim:1h33m57s) 
CPU  0 inst:  272000004 cyc:  245390454 now IPC :0.19670: AVG IPC :1.10471: L2-Pf-HR :0.99998: L2-HR :0.90312: (Sim:1h34m43s) 
CPU  0 inst:  273000000 cyc:  250474371 now IPC :0.19670: AVG IPC :1.08620: L2-Pf-HR :0.99998: L2-HR :0.90253: (Sim:1h35m26s) 
CPU  0 inst:  274000002 cyc:  255544570 now IPC :0.19723: AVG IPC :1.06850: L2-Pf-HR :0.99998: L2-HR :0.90193: (Sim:1h36m9s) 
CPU  0 inst:  275000001 cyc:  260540101 now IPC :0.20018: AVG IPC :1.05179: L2-Pf-HR :0.99998: L2-HR :0.90134: (Sim:1h36m53s) 
CPU  0 inst:  276000004 cyc:  265521084 now IPC :0.20076: AVG IPC :1.03576: L2-Pf-HR :0.99998: L2-HR :0.90075: (Sim:1h37m36s) 
CPU  0 inst:  277000000 cyc:  270289188 now IPC :0.20973: AVG IPC :1.02114: L2-Pf-HR :0.99998: L2-HR :0.90016: (Sim:1h38m19s) 
CPU  0 inst:  278000000 cyc:  275002524 now IPC :0.21216: AVG IPC :1.00722: L2-Pf-HR :0.99998: L2-HR :0.89957: (Sim:1h39m1s) 
CPU  0 inst:  279000000 cyc:  279721456 now IPC :0.21191: AVG IPC :0.99376: L2-Pf-HR :0.99998: L2-HR :0.89898: (Sim:1h39m44s) 
CPU  0 inst:  280000000 cyc:  284413477 now IPC :0.21313: AVG IPC :0.98083: L2-Pf-HR :0.99998: L2-HR :0.89839: (Sim:1h40m27s) 
CPU  0 inst:  281000002 cyc:  289286450 now IPC :0.20521: AVG IPC :0.96772: L2-Pf-HR :0.99998: L2-HR :0.89781: (Sim:1h41m2s) 
CPU  0 inst:  282000005 cyc:  294002546 now IPC :0.21204: AVG IPC :0.95556: L2-Pf-HR :0.99998: L2-HR :0.89723: (Sim:1h41m44s) 
CPU  0 inst:  283000000 cyc:  298733573 now IPC :0.21137: AVG IPC :0.94374: L2-Pf-HR :0.99998: L2-HR :0.89664: (Sim:1h42m26s) 
CPU  0 inst:  284000000 cyc:  303471002 now IPC :0.21108: AVG IPC :0.93226: L2-Pf-HR :0.99998: L2-HR :0.89606: (Sim:1h43m8s) 
CPU  0 inst:  285000000 cyc:  308241257 now IPC :0.20963: AVG IPC :0.92104: L2-Pf-HR :0.99998: L2-HR :0.89548: (Sim:1h43m51s) 
CPU  0 inst:  286000000 cyc:  312844804 now IPC :0.21722: AVG IPC :0.91066: L2-Pf-HR :0.99998: L2-HR :0.89490: (Sim:1h44m32s) 
CPU  0 inst:  287000000 cyc:  317575959 now IPC :0.21136: AVG IPC :0.90020: L2-Pf-HR :0.99998: L2-HR :0.89432: (Sim:1h45m14s) 
CPU  0 inst:  288000000 cyc:  322317894 now IPC :0.21088: AVG IPC :0.89003: L2-Pf-HR :0.99998: L2-HR :0.89375: (Sim:1h45m56s) 
CPU  0 inst:  289000001 cyc:  326968863 now IPC :0.21501: AVG IPC :0.88040: L2-Pf-HR :0.99998: L2-HR :0.89317: (Sim:1h46m26s) 
CPU  0 inst:  290000001 cyc:  331719261 now IPC :0.21051: AVG IPC :0.87078: L2-Pf-HR :0.99998: L2-HR :0.89260: (Sim:1h47m7s) 
CPU  0 inst:  291000000 cyc:  336438510 now IPC :0.21190: AVG IPC :0.86151: L2-Pf-HR :0.99998: L2-HR :0.89202: (Sim:1h47m48s) 
CPU  0 inst:  292000000 cyc:  341119890 now IPC :0.21361: AVG IPC :0.85259: L2-Pf-HR :0.99998: L2-HR :0.89145: (Sim:1h48m26s) 
CPU  0 inst:  293000004 cyc:  345794714 now IPC :0.21391: AVG IPC :0.84393: L2-Pf-HR :0.99998: L2-HR :0.89088: (Sim:1h49m8s) 
CPU  0 inst:  294000000 cyc:  350570520 now IPC :0.20939: AVG IPC :0.83527: L2-Pf-HR :0.99998: L2-HR :0.89031: (Sim:1h49m49s) 
CPU  0 inst:  295000000 cyc:  355307824 now IPC :0.21109: AVG IPC :0.82692: L2-Pf-HR :0.99998: L2-HR :0.88974: (Sim:1h50m33s) 
CPU  0 inst:  296000001 cyc:  360009863 now IPC :0.21267: AVG IPC :0.81888: L2-Pf-HR :0.99998: L2-HR :0.88918: (Sim:1h51m18s) 
CPU  0 inst:  297000001 cyc:  364723402 now IPC :0.21215: AVG IPC :0.81101: L2-Pf-HR :0.99998: L2-HR :0.88861: (Sim:1h52m2s) 
CPU  0 inst:  298000000 cyc:  369300656 now IPC :0.21847: AVG IPC :0.80365: L2-Pf-HR :0.99998: L2-HR :0.88804: (Sim:1h52m40s) 
CPU  0 inst:  299000000 cyc:  374086358 now IPC :0.20896: AVG IPC :0.79602: L2-Pf-HR :0.99998: L2-HR :0.88748: (Sim:1h53m23s) 
CPU  0 inst:  300000000 cyc:  378911490 now IPC :0.20725: AVG IPC :0.78851: L2-Pf-HR :0.99998: L2-HR :0.88692: (Sim:1h54m5s) 
CPU  0 inst:  301000000 cyc:  383521380 now IPC :0.21692: AVG IPC :0.78162: L2-Pf-HR :0.99998: L2-HR :0.88636: (Sim:1h54m45s) 
CPU  0 inst:  302000000 cyc:  388190711 now IPC :0.21416: AVG IPC :0.77477: L2-Pf-HR :0.99998: L2-HR :0.88579: (Sim:1h55m18s) 
CPU  0 inst:  303000003 cyc:  392944381 now IPC :0.21036: AVG IPC :0.76793: L2-Pf-HR :0.99998: L2-HR :0.88523: (Sim:1h55m59s) 
CPU  0 inst:  304000001 cyc:  397583628 now IPC :0.21555: AVG IPC :0.76147: L2-Pf-HR :0.99998: L2-HR :0.88468: (Sim:1h56m40s) 
CPU  0 inst:  305000005 cyc:  402366523 now IPC :0.20908: AVG IPC :0.75489: L2-Pf-HR :0.99998: L2-HR :0.88412: (Sim:1h57m23s) 
CPU  0 inst:  306000000 cyc:  407131382 now IPC :0.20987: AVG IPC :0.74849: L2-Pf-HR :0.99998: L2-HR :0.88356: (Sim:1h58m6s) 
CPU  0 inst:  307000000 cyc:  411765098 now IPC :0.21581: AVG IPC :0.74248: L2-Pf-HR :0.99998: L2-HR :0.88301: (Sim:1h58m48s) 
CPU  0 inst:  308000000 cyc:  416469455 now IPC :0.21257: AVG IPC :0.73648: L2-Pf-HR :0.99998: L2-HR :0.88246: (Sim:1h59m30s) 
CPU  0 inst:  309000000 cyc:  421144875 now IPC :0.21388: AVG IPC :0.73067: L2-Pf-HR :0.99998: L2-HR :0.88190: (Sim:2h0m12s) 
CPU  0 inst:  310000004 cyc:  425821295 now IPC :0.21384: AVG IPC :0.72498: L2-Pf-HR :0.99998: L2-HR :0.88135: (Sim:2h0m54s) 
CPU  0 inst:  311000000 cyc:  430446507 now IPC :0.21621: AVG IPC :0.71950: L2-Pf-HR :0.99998: L2-HR :0.88080: (Sim:2h1m36s) 
CPU  0 inst:  312000001 cyc:  435338594 now IPC :0.20441: AVG IPC :0.71370: L2-Pf-HR :0.99998: L2-HR :0.88025: (Sim:2h2m13s) 
CPU  0 inst:  313000000 cyc:  440091357 now IPC :0.21040: AVG IPC :0.70825: L2-Pf-HR :0.99998: L2-HR :0.87970: (Sim:2h2m53s) 
CPU  0 inst:  314000004 cyc:  444850422 now IPC :0.21013: AVG IPC :0.70291: L2-Pf-HR :0.99998: L2-HR :0.87916: (Sim:2h3m34s) 
CPU  0 inst:  315000000 cyc:  449510727 now IPC :0.21458: AVG IPC :0.69784: L2-Pf-HR :0.99998: L2-HR :0.87861: (Sim:2h4m16s) 
CPU  0 inst:  316000000 cyc:  454198621 now IPC :0.21332: AVG IPC :0.69282: L2-Pf-HR :0.99998: L2-HR :0.87806: (Sim:2h4m58s) 
CPU  0 inst:  317000000 cyc:  458939789 now IPC :0.21092: AVG IPC :0.68784: L2-Pf-HR :0.99998: L2-HR :0.87752: (Sim:2h5m41s) 
CPU  0 inst:  318000005 cyc:  463626454 now IPC :0.21337: AVG IPC :0.68303: L2-Pf-HR :0.99998: L2-HR :0.87698: (Sim:2h6m23s) 
CPU  0 inst:  319000001 cyc:  468438533 now IPC :0.20781: AVG IPC :0.67814: L2-Pf-HR :0.99998: L2-HR :0.87644: (Sim:2h7m6s) 
CPU  0 inst:  320000000 cyc:  473167287 now IPC :0.21147: AVG IPC :0.67346: L2-Pf-HR :0.99998: L2-HR :0.87590: (Sim:2h7m46s) 
CPU  0 inst:  321000000 cyc:  477904328 now IPC :0.21110: AVG IPC :0.66887: L2-Pf-HR :0.99998: L2-HR :0.87536: (Sim:2h8m25s) 
CPU  0 inst:  322000000 cyc:  482533990 now IPC :0.21600: AVG IPC :0.66452: L2-Pf-HR :0.99998: L2-HR :0.87482: (Sim:2h9m2s) 
CPU  0 inst:  323000000 cyc:  487193124 now IPC :0.21463: AVG IPC :0.66021: L2-Pf-HR :0.99998: L2-HR :0.87428: (Sim:2h9m42s) 
CPU  0 inst:  324000000 cyc:  492033837 now IPC :0.20658: AVG IPC :0.65573: L2-Pf-HR :0.99998: L2-HR :0.87374: (Sim:2h10m19s) 
CPU  0 inst:  325000000 cyc:  496846470 now IPC :0.20779: AVG IPC :0.65139: L2-Pf-HR :0.99998: L2-HR :0.87321: (Sim:2h10m59s) 
CPU  0 inst:  326000002 cyc:  501529133 now IPC :0.21355: AVG IPC :0.64729: L2-Pf-HR :0.99998: L2-HR :0.87267: (Sim:2h11m42s) 
CPU  0 inst:  327000001 cyc:  506241393 now IPC :0.21221: AVG IPC :0.64323: L2-Pf-HR :0.99998: L2-HR :0.87214: (Sim:2h12m22s) 
CPU  0 inst:  328000000 cyc:  510962429 now IPC :0.21182: AVG IPC :0.63924: L2-Pf-HR :0.99998: L2-HR :0.87161: (Sim:2h13m4s) 
CPU  0 inst:  329000000 cyc:  515681429 now IPC :0.21191: AVG IPC :0.63532: L2-Pf-HR :0.99998: L2-HR :0.87108: (Sim:2h13m48s) 
CPU  0 inst:  330000000 cyc:  520412713 now IPC :0.21136: AVG IPC :0.63146: L2-Pf-HR :0.99998: L2-HR :0.87055: (Sim:2h14m31s) 
CPU  0 inst:  331000004 cyc:  525238356 now IPC :0.20723: AVG IPC :0.62755: L2-Pf-HR :0.99998: L2-HR :0.87002: (Sim:2h15m15s) 
CPU  0 inst:  332000000 cyc:  530069716 now IPC :0.20698: AVG IPC :0.62371: L2-Pf-HR :0.99998: L2-HR :0.86949: (Sim:2h15m55s) 
CPU  0 inst:  333000002 cyc:  534728879 now IPC :0.21463: AVG IPC :0.62014: L2-Pf-HR :0.99998: L2-HR :0.86896: (Sim:2h16m32s) 
CPU  0 inst:  334000000 cyc:  539445991 now IPC :0.21199: AVG IPC :0.61657: L2-Pf-HR :0.99998: L2-HR :0.86844: (Sim:2h17m14s) 
CPU  0 inst:  335000004 cyc:  544096566 now IPC :0.21503: AVG IPC :0.61313: L2-Pf-HR :0.99998: L2-HR :0.86791: (Sim:2h17m49s) 
CPU  0 inst:  336000000 cyc:  548750282 now IPC :0.21488: AVG IPC :0.60975: L2-Pf-HR :0.99998: L2-HR :0.86739: (Sim:2h18m25s) 
CPU  0 inst:  337000000 cyc:  553635458 now IPC :0.20470: AVG IPC :0.60617: L2-Pf-HR :0.99998: L2-HR :0.86687: (Sim:2h19m1s) 
CPU  0 inst:  338000000 cyc:  558218028 now IPC :0.21822: AVG IPC :0.60298: L2-Pf-HR :0.99998: L2-HR :0.86635: (Sim:2h19m42s) 
CPU  0 inst:  339000000 cyc:  562855568 now IPC :0.21563: AVG IPC :0.59978: L2-Pf-HR :0.99998: L2-HR :0.86582: (Sim:2h20m24s) 
CPU  0 inst:  340000000 cyc:  567547663 now IPC :0.21312: AVG IPC :0.59658: L2-Pf-HR :0.99998: L2-HR :0.86530: (Sim:2h21m6s) 
CPU  0 inst:  341000001 cyc:  572202592 now IPC :0.21483: AVG IPC :0.59347: L2-Pf-HR :0.99998: L2-HR :0.86479: (Sim:2h21m48s) 
CPU  0 inst:  342000001 cyc:  577037589 now IPC :0.20683: AVG IPC :0.59022: L2-Pf-HR :0.99998: L2-HR :0.86427: (Sim:2h22m29s) 
CPU  0 inst:  343000000 cyc:  581884504 now IPC :0.20632: AVG IPC :0.58702: L2-Pf-HR :0.99998: L2-HR :0.86375: (Sim:2h23m3s) 
CPU  0 inst:  344000000 cyc:  586659465 now IPC :0.20943: AVG IPC :0.58394: L2-Pf-HR :0.99998: L2-HR :0.86324: (Sim:2h23m38s) 
CPU  0 inst:  345000000 cyc:  591330166 now IPC :0.21410: AVG IPC :0.58101: L2-Pf-HR :0.99998: L2-HR :0.86272: (Sim:2h24m18s) 
CPU  0 inst:  346000000 cyc:  596022379 now IPC :0.21312: AVG IPC :0.57811: L2-Pf-HR :0.99998: L2-HR :0.86221: (Sim:2h25m0s) 
CPU  0 inst:  347000000 cyc:  600747977 now IPC :0.21161: AVG IPC :0.57522: L2-Pf-HR :0.99998: L2-HR :0.86169: (Sim:2h25m43s) 
CPU  0 inst:  348000001 cyc:  605550562 now IPC :0.20822: AVG IPC :0.57231: L2-Pf-HR :0.99998: L2-HR :0.86118: (Sim:2h26m24s) 
CPU  0 inst:  349000001 cyc:  610342062 now IPC :0.20870: AVG IPC :0.56945: L2-Pf-HR :0.99998: L2-HR :0.86067: (Sim:2h27m5s) 
CPU  0 inst:  350000000 cyc:  615019909 now IPC :0.21377: AVG IPC :0.56674: L2-Pf-HR :0.99998: L2-HR :0.86016: (Sim:2h27m46s) 
CPU  0 inst:  351000000 cyc:  619641571 now IPC :0.21637: AVG IPC :0.56412: L2-Pf-HR :0.99998: L2-HR :0.85965: (Sim:2h28m30s) 
CPU  0 inst:  352000004 cyc:  624201125 now IPC :0.21932: AVG IPC :0.56160: L2-Pf-HR :0.99998: L2-HR :0.85915: (Sim:2h29m14s) 
CPU  0 inst:  353000000 cyc:  628887915 now IPC :0.21336: AVG IPC :0.55900: L2-Pf-HR :0.99998: L2-HR :0.85864: (Sim:2h29m59s) 
CPU  0 inst:  354000000 cyc:  633741354 now IPC :0.20604: AVG IPC :0.55629: L2-Pf-HR :0.99998: L2-HR :0.85813: (Sim:2h30m44s) 
CPU  0 inst:  355000003 cyc:  638440270 now IPC :0.21282: AVG IPC :0.55376: L2-Pf-HR :0.99998: L2-HR :0.85763: (Sim:2h31m28s) 
CPU  0 inst:  356000000 cyc:  643166203 now IPC :0.21160: AVG IPC :0.55124: L2-Pf-HR :0.99998: L2-HR :0.85713: (Sim:2h32m4s) 
CPU  0 inst:  357000001 cyc:  647836409 now IPC :0.21412: AVG IPC :0.54881: L2-Pf-HR :0.99998: L2-HR :0.85662: (Sim:2h32m38s) 
CPU  0 inst:  358000000 cyc:  652506100 now IPC :0.21415: AVG IPC :0.54641: L2-Pf-HR :0.99998: L2-HR :0.85612: (Sim:2h33m18s) 
CPU  0 inst:  359000000 cyc:  657193037 now IPC :0.21336: AVG IPC :0.54403: L2-Pf-HR :0.99998: L2-HR :0.85562: (Sim:2h33m59s) 
CPU  0 inst:  360000000 cyc:  661961540 now IPC :0.20971: AVG IPC :0.54162: L2-Pf-HR :0.99998: L2-HR :0.85512: (Sim:2h34m42s) 
CPU  0 inst:  361000000 cyc:  666680167 now IPC :0.21193: AVG IPC :0.53928: L2-Pf-HR :0.99998: L2-HR :0.85462: (Sim:2h35m24s) 
CPU  0 inst:  362000000 cyc:  671355029 now IPC :0.21391: AVG IPC :0.53701: L2-Pf-HR :0.99998: L2-HR :0.85412: (Sim:2h36m0s) 
CPU  0 inst:  363000000 cyc:  675959338 now IPC :0.21719: AVG IPC :0.53483: L2-Pf-HR :0.99998: L2-HR :0.85362: (Sim:2h36m27s) 
CPU  0 inst:  364000001 cyc:  680520292 now IPC :0.21925: AVG IPC :0.53271: L2-Pf-HR :0.99998: L2-HR :0.85313: (Sim:2h36m58s) 
CPU  0 inst:  365000000 cyc:  685246848 now IPC :0.21157: AVG IPC :0.53050: L2-Pf-HR :0.99998: L2-HR :0.85263: (Sim:2h37m37s) 
CPU  0 inst:  366000000 cyc:  690049532 now IPC :0.20822: AVG IPC :0.52825: L2-Pf-HR :0.99998: L2-HR :0.85214: (Sim:2h38m16s) 
CPU  0 inst:  367000000 cyc:  694785097 now IPC :0.21117: AVG IPC :0.52609: L2-Pf-HR :0.99998: L2-HR :0.85165: (Sim:2h38m59s) 
CPU  0 inst:  368000000 cyc:  699571837 now IPC :0.20891: AVG IPC :0.52391: L2-Pf-HR :0.99998: L2-HR :0.85115: (Sim:2h39m42s) 
CPU  0 inst:  369000004 cyc:  704180612 now IPC :0.21698: AVG IPC :0.52190: L2-Pf-HR :0.99998: L2-HR :0.85066: (Sim:2h40m16s) 
CPU  0 inst:  370000000 cyc:  708922212 now IPC :0.21090: AVG IPC :0.51982: L2-Pf-HR :0.99998: L2-HR :0.85017: (Sim:2h40m44s) 
CPU  0 inst:  371000002 cyc:  713597521 now IPC :0.21389: AVG IPC :0.51781: L2-Pf-HR :0.99998: L2-HR :0.84968: (Sim:2h41m21s) 
CPU  0 inst:  372000001 cyc:  718347656 now IPC :0.21052: AVG IPC :0.51578: L2-Pf-HR :0.99998: L2-HR :0.84919: (Sim:2h41m53s) 
CPU  0 inst:  373000004 cyc:  723089902 now IPC :0.21087: AVG IPC :0.51377: L2-Pf-HR :0.99998: L2-HR :0.84871: (Sim:2h42m29s) 
CPU  0 inst:  374000000 cyc:  727820136 now IPC :0.21141: AVG IPC :0.51181: L2-Pf-HR :0.99998: L2-HR :0.84822: (Sim:2h42m57s) 
CPU  0 inst:  375000000 cyc:  732522941 now IPC :0.21264: AVG IPC :0.50988: L2-Pf-HR :0.99998: L2-HR :0.84773: (Sim:2h43m38s) 
CPU  0 inst:  376000000 cyc:  737297602 now IPC :0.20944: AVG IPC :0.50793: L2-Pf-HR :0.99998: L2-HR :0.84725: (Sim:2h44m20s) 
CPU  0 inst:  377000000 cyc:  742056052 now IPC :0.21015: AVG IPC :0.50602: L2-Pf-HR :0.99998: L2-HR :0.84676: (Sim:2h45m2s) 
CPU  0 inst:  378000002 cyc:  746854208 now IPC :0.20841: AVG IPC :0.50411: L2-Pf-HR :0.99998: L2-HR :0.84628: (Sim:2h45m45s) 
CPU  0 inst:  379000005 cyc:  751610786 now IPC :0.21024: AVG IPC :0.50225: L2-Pf-HR :0.99998: L2-HR :0.84580: (Sim:2h46m20s) 
CPU  0 inst:  380000000 cyc:  756386852 now IPC :0.20938: AVG IPC :0.50039: L2-Pf-HR :0.99998: L2-HR :0.84532: (Sim:2h46m59s) 
CPU  0 inst:  381000000 cyc:  761206262 now IPC :0.20749: AVG IPC :0.49854: L2-Pf-HR :0.99998: L2-HR :0.84484: (Sim:2h47m38s) 
CPU  0 inst:  382000000 cyc:  765992432 now IPC :0.20894: AVG IPC :0.49672: L2-Pf-HR :0.99998: L2-HR :0.84436: (Sim:2h48m19s) 
CPU  0 inst:  383000000 cyc:  770795986 now IPC :0.20818: AVG IPC :0.49492: L2-Pf-HR :0.99998: L2-HR :0.84388: (Sim:2h49m0s) 
CPU  0 inst:  384000000 cyc:  775542516 now IPC :0.21068: AVG IPC :0.49318: L2-Pf-HR :0.99998: L2-HR :0.84340: (Sim:2h49m42s) 
CPU  0 inst:  385000000 cyc:  780184513 now IPC :0.21542: AVG IPC :0.49153: L2-Pf-HR :0.99998: L2-HR :0.84292: (Sim:2h50m25s) 
CPU  0 inst:  386000001 cyc:  784878826 now IPC :0.21302: AVG IPC :0.48986: L2-Pf-HR :0.99998: L2-HR :0.84245: (Sim:2h51m4s) 
CPU  0 inst:  387000001 cyc:  789503276 now IPC :0.21624: AVG IPC :0.48826: L2-Pf-HR :0.99998: L2-HR :0.84197: (Sim:2h51m44s) 
CPU  0 inst:  388000000 cyc:  794202392 now IPC :0.21281: AVG IPC :0.48662: L2-Pf-HR :0.99998: L2-HR :0.84150: (Sim:2h52m27s) 
CPU  0 inst:  389000000 cyc:  798965311 now IPC :0.20996: AVG IPC :0.48497: L2-Pf-HR :0.99998: L2-HR :0.84102: (Sim:2h53m8s) 
CPU  0 inst:  390000004 cyc:  803729219 now IPC :0.20991: AVG IPC :0.48334: L2-Pf-HR :0.99998: L2-HR :0.84055: (Sim:2h53m51s) 
CPU  0 inst:  391000000 cyc:  808569017 now IPC :0.20662: AVG IPC :0.48168: L2-Pf-HR :0.99998: L2-HR :0.84008: (Sim:2h54m27s) 
CPU  0 inst:  392000000 cyc:  813405764 now IPC :0.20675: AVG IPC :0.48004: L2-Pf-HR :0.99998: L2-HR :0.83961: (Sim:2h55m7s) 
CPU  0 inst:  393000001 cyc:  818246405 now IPC :0.20658: AVG IPC :0.47842: L2-Pf-HR :0.99998: L2-HR :0.83914: (Sim:2h55m49s) 
CPU  0 inst:  394000001 cyc:  823036723 now IPC :0.20875: AVG IPC :0.47685: L2-Pf-HR :0.99998: L2-HR :0.83867: (Sim:2h56m33s) 
CPU  0 inst:  395000000 cyc:  827652745 now IPC :0.21664: AVG IPC :0.47540: L2-Pf-HR :0.99998: L2-HR :0.83817: (Sim:2h57m15s) 
CPU  0 inst:  396000003 cyc:  828393225 now IPC :1.35048: AVG IPC :0.47618: L2-Pf-HR :0.99998: L2-HR :0.83821: (Sim:2h57m42s) 
CPU  0 inst:  397000005 cyc:  829101852 now IPC :1.41118: AVG IPC :0.47698: L2-Pf-HR :0.99998: L2-HR :0.83827: (Sim:2h58m9s) 
CPU  0 inst:  398000001 cyc:  829817065 now IPC :1.39818: AVG IPC :0.47778: L2-Pf-HR :0.99998: L2-HR :0.83832: (Sim:2h58m36s) 
CPU  0 inst:  399000005 cyc:  830546555 now IPC :1.37083: AVG IPC :0.47856: L2-Pf-HR :0.99998: L2-HR :0.83836: (Sim:2h59m3s) 
CPU  0 inst:  400000004 cyc:  831248519 now IPC :1.42457: AVG IPC :0.47936: L2-Pf-HR :0.99998: L2-HR :0.83843: (Sim:2h59m30s) 
CPU  0 inst:  401000004 cyc:  831917936 now IPC :1.49384: AVG IPC :0.48018: L2-Pf-HR :0.99998: L2-HR :0.83853: (Sim:2h59m57s) 
CPU  0 inst:  402000004 cyc:  832587652 now IPC :1.49317: AVG IPC :0.48100: L2-Pf-HR :0.99998: L2-HR :0.83863: (Sim:3h0m24s) 
CPU  0 inst:  403000001 cyc:  833254226 now IPC :1.50020: AVG IPC :0.48181: L2-Pf-HR :0.99998: L2-HR :0.83873: (Sim:3h0m51s) 
CPU  0 inst:  404000000 cyc:  833968394 now IPC :1.40023: AVG IPC :0.48260: L2-Pf-HR :0.99997: L2-HR :0.83879: (Sim:3h1m18s) 
CPU  0 inst:  405000005 cyc:  834636601 now IPC :1.49655: AVG IPC :0.48341: L2-Pf-HR :0.99997: L2-HR :0.83888: (Sim:3h1m46s) 
CPU  0 inst:  406000001 cyc:  835303673 now IPC :1.49908: AVG IPC :0.48423: L2-Pf-HR :0.99997: L2-HR :0.83898: (Sim:3h2m12s) 
CPU  0 inst:  407000000 cyc:  835973248 now IPC :1.49348: AVG IPC :0.48503: L2-Pf-HR :0.99997: L2-HR :0.83908: (Sim:3h2m38s) 
CPU  0 inst:  408000004 cyc:  836678343 now IPC :1.41825: AVG IPC :0.48582: L2-Pf-HR :0.99996: L2-HR :0.83913: (Sim:3h3m3s) 
CPU  0 inst:  409000003 cyc:  837342112 now IPC :1.50655: AVG IPC :0.48663: L2-Pf-HR :0.99996: L2-HR :0.83920: (Sim:3h3m30s) 
CPU  0 inst:  410000003 cyc:  838004721 now IPC :1.50919: AVG IPC :0.48744: L2-Pf-HR :0.99996: L2-HR :0.83928: (Sim:3h3m56s) 
CPU  0 inst:  411000002 cyc:  838664672 now IPC :1.51526: AVG IPC :0.48825: L2-Pf-HR :0.99996: L2-HR :0.83935: (Sim:3h4m23s) 
CPU  0 inst:  412000003 cyc:  839393633 now IPC :1.37182: AVG IPC :0.48902: L2-Pf-HR :0.99995: L2-HR :0.83937: (Sim:3h4m50s) 
CPU  0 inst:  413000002 cyc:  840107152 now IPC :1.40150: AVG IPC :0.48980: L2-Pf-HR :0.99995: L2-HR :0.83943: (Sim:3h5m16s) 
CPU  0 inst:  414000005 cyc:  840817977 now IPC :1.40682: AVG IPC :0.49057: L2-Pf-HR :0.99995: L2-HR :0.83948: (Sim:3h5m43s) 
CPU  0 inst:  415000004 cyc:  841547895 now IPC :1.37002: AVG IPC :0.49134: L2-Pf-HR :0.99995: L2-HR :0.83952: (Sim:3h6m10s) 
CPU  0 inst:  416000005 cyc:  842262180 now IPC :1.40000: AVG IPC :0.49211: L2-Pf-HR :0.99995: L2-HR :0.83955: (Sim:3h6m25s) 
CPU  0 inst:  417000001 cyc:  842931545 now IPC :1.49395: AVG IPC :0.49290: L2-Pf-HR :0.99995: L2-HR :0.83965: (Sim:3h6m39s) 
CPU  0 inst:  418000005 cyc:  843611503 now IPC :1.47069: AVG IPC :0.49369: L2-Pf-HR :0.99995: L2-HR :0.83973: (Sim:3h7m4s) 
CPU  0 inst:  419000002 cyc:  844291072 now IPC :1.47152: AVG IPC :0.49448: L2-Pf-HR :0.99995: L2-HR :0.83982: (Sim:3h7m31s) 
CPU  0 inst:  420000005 cyc:  844937659 now IPC :1.54659: AVG IPC :0.49529: L2-Pf-HR :0.99995: L2-HR :0.83993: (Sim:3h7m57s) 
CPU  0 inst:  421000000 cyc:  845635975 now IPC :1.43201: AVG IPC :0.49606: L2-Pf-HR :0.99995: L2-HR :0.83999: (Sim:3h8m24s) 
CPU  0 inst:  422000005 cyc:  846315746 now IPC :1.47109: AVG IPC :0.49684: L2-Pf-HR :0.99995: L2-HR :0.84007: (Sim:3h8m51s) 
CPU  0 inst:  423000003 cyc:  846991497 now IPC :1.47983: AVG IPC :0.49763: L2-Pf-HR :0.99995: L2-HR :0.84016: (Sim:3h9m18s) 
CPU  0 inst:  424000002 cyc:  847651184 now IPC :1.51587: AVG IPC :0.49842: L2-Pf-HR :0.99994: L2-HR :0.84025: (Sim:3h9m45s) 
CPU  0 inst:  425000002 cyc:  848327087 now IPC :1.47950: AVG IPC :0.49921: L2-Pf-HR :0.99994: L2-HR :0.84032: (Sim:3h10m11s) 
CPU  0 inst:  426000005 cyc:  848998825 now IPC :1.48868: AVG IPC :0.49999: L2-Pf-HR :0.99994: L2-HR :0.84038: (Sim:3h10m38s) 
CPU  0 inst:  427000001 cyc:  849663554 now IPC :1.50437: AVG IPC :0.50078: L2-Pf-HR :0.99994: L2-HR :0.84045: (Sim:3h11m6s) 
CPU  0 inst:  428000005 cyc:  850314380 now IPC :1.53652: AVG IPC :0.50157: L2-Pf-HR :0.99994: L2-HR :0.84052: (Sim:3h11m33s) 
CPU  0 inst:  429000001 cyc:  851024121 now IPC :1.40896: AVG IPC :0.50233: L2-Pf-HR :0.99994: L2-HR :0.84055: (Sim:3h12m0s) 
CPU  0 inst:  430000005 cyc:  851715114 now IPC :1.44720: AVG IPC :0.50310: L2-Pf-HR :0.99994: L2-HR :0.84060: (Sim:3h12m27s) 
CPU  0 inst:  431000000 cyc:  852402329 now IPC :1.45514: AVG IPC :0.50386: L2-Pf-HR :0.99994: L2-HR :0.84065: (Sim:3h12m52s) 
CPU  0 inst:  432000000 cyc:  853088841 now IPC :1.45664: AVG IPC :0.50463: L2-Pf-HR :0.99994: L2-HR :0.84071: (Sim:3h13m6s) 
CPU  0 inst:  433000002 cyc:  853782778 now IPC :1.44106: AVG IPC :0.50539: L2-Pf-HR :0.99994: L2-HR :0.84074: (Sim:3h13m19s) 
CPU  0 inst:  434000002 cyc:  854428437 now IPC :1.54881: AVG IPC :0.50618: L2-Pf-HR :0.99994: L2-HR :0.84084: (Sim:3h13m46s) 
CPU  0 inst:  435000005 cyc:  855071388 now IPC :1.55533: AVG IPC :0.50697: L2-Pf-HR :0.99994: L2-HR :0.84094: (Sim:3h14m13s) 
CPU  0 inst:  436000004 cyc:  855713920 now IPC :1.55634: AVG IPC :0.50776: L2-Pf-HR :0.99994: L2-HR :0.84104: (Sim:3h14m34s) 
CPU  0 inst:  437000005 cyc:  856385562 now IPC :1.48889: AVG IPC :0.50853: L2-Pf-HR :0.99993: L2-HR :0.84109: (Sim:3h14m47s) 
CPU  0 inst:  438000000 cyc:  857029297 now IPC :1.55343: AVG IPC :0.50932: L2-Pf-HR :0.99993: L2-HR :0.84119: (Sim:3h15m1s) 
CPU  0 inst:  439000002 cyc:  857670439 now IPC :1.55972: AVG IPC :0.51010: L2-Pf-HR :0.99993: L2-HR :0.84129: (Sim:3h15m14s) 
CPU  0 inst:  440000002 cyc:  858312391 now IPC :1.55775: AVG IPC :0.51089: L2-Pf-HR :0.99993: L2-HR :0.84139: (Sim:3h15m29s) 
CPU  0 inst:  441000001 cyc:  858978174 now IPC :1.50199: AVG IPC :0.51166: L2-Pf-HR :0.99992: L2-HR :0.84145: (Sim:3h15m55s) 
CPU  0 inst:  442000005 cyc:  859620512 now IPC :1.55682: AVG IPC :0.51244: L2-Pf-HR :0.99992: L2-HR :0.84151: (Sim:3h16m16s) 
CPU  0 inst:  443000005 cyc:  860254059 now IPC :1.57841: AVG IPC :0.51322: L2-Pf-HR :0.99992: L2-HR :0.84158: (Sim:3h16m29s) 
CPU  0 inst:  444000004 cyc:  860899658 now IPC :1.54895: AVG IPC :0.51400: L2-Pf-HR :0.99992: L2-HR :0.84165: (Sim:3h16m43s) 
CPU  0 inst:  445000001 cyc:  861548308 now IPC :1.54166: AVG IPC :0.51478: L2-Pf-HR :0.99991: L2-HR :0.84171: (Sim:3h16m56s) 
CPU  0 inst:  446000002 cyc:  862247121 now IPC :1.43100: AVG IPC :0.51552: L2-Pf-HR :0.99991: L2-HR :0.84173: (Sim:3h17m8s) 
CPU  0 inst:  447000004 cyc:  862936714 now IPC :1.45013: AVG IPC :0.51627: L2-Pf-HR :0.99991: L2-HR :0.84178: (Sim:3h17m21s) 
CPU  0 inst:  448000000 cyc:  863619608 now IPC :1.46435: AVG IPC :0.51702: L2-Pf-HR :0.99991: L2-HR :0.84184: (Sim:3h17m34s) 
CPU  0 inst:  449000002 cyc:  864319117 now IPC :1.42958: AVG IPC :0.51776: L2-Pf-HR :0.99991: L2-HR :0.84187: (Sim:3h17m47s) 
CPU  0 inst:  450000004 cyc:  864983318 now IPC :1.50557: AVG IPC :0.51852: L2-Pf-HR :0.99991: L2-HR :0.84193: (Sim:3h18m0s) 
CPU  0 inst:  451000003 cyc:  865635686 now IPC :1.53288: AVG IPC :0.51928: L2-Pf-HR :0.99991: L2-HR :0.84203: (Sim:3h18m13s) 
CPU  0 inst:  452000000 cyc:  866291524 now IPC :1.52476: AVG IPC :0.52004: L2-Pf-HR :0.99991: L2-HR :0.84211: (Sim:3h18m26s) 
CPU  0 inst:  453000001 cyc:  866942358 now IPC :1.53649: AVG IPC :0.52081: L2-Pf-HR :0.99991: L2-HR :0.84219: (Sim:3h18m39s) 
CPU  0 inst:  454000005 cyc:  867590605 now IPC :1.54263: AVG IPC :0.52157: L2-Pf-HR :0.99991: L2-HR :0.84227: (Sim:3h18m52s) 
CPU  0 inst:  455000005 cyc:  868246723 now IPC :1.52412: AVG IPC :0.52233: L2-Pf-HR :0.99991: L2-HR :0.84236: (Sim:3h19m4s) 
CPU  0 inst:  456000000 cyc:  868902505 now IPC :1.52489: AVG IPC :0.52309: L2-Pf-HR :0.99991: L2-HR :0.84243: (Sim:3h19m17s) 
CPU  0 inst:  457000002 cyc:  869549444 now IPC :1.54574: AVG IPC :0.52385: L2-Pf-HR :0.99990: L2-HR :0.84252: (Sim:3h19m29s) 
CPU  0 inst:  458000000 cyc:  870197994 now IPC :1.54190: AVG IPC :0.52461: L2-Pf-HR :0.99989: L2-HR :0.84258: (Sim:3h19m42s) 
CPU  0 inst:  459000005 cyc:  870843498 now IPC :1.54918: AVG IPC :0.52537: L2-Pf-HR :0.99989: L2-HR :0.84264: (Sim:3h20m1s) 
CPU  0 inst:  460000000 cyc:  871487727 now IPC :1.55224: AVG IPC :0.52613: L2-Pf-HR :0.99989: L2-HR :0.84270: (Sim:3h20m24s) 
CPU  0 inst:  461000003 cyc:  872120939 now IPC :1.57925: AVG IPC :0.52690: L2-Pf-HR :0.99989: L2-HR :0.84277: (Sim:3h20m37s) 
CPU  0 inst:  462000005 cyc:  872799690 now IPC :1.47330: AVG IPC :0.52763: L2-Pf-HR :0.99989: L2-HR :0.84281: (Sim:3h20m50s) 
CPU  0 inst:  463000005 cyc:  873503038 now IPC :1.42177: AVG IPC :0.52835: L2-Pf-HR :0.99989: L2-HR :0.84284: (Sim:3h21m2s) 
CPU  0 inst:  464000004 cyc:  874197030 now IPC :1.44094: AVG IPC :0.52908: L2-Pf-HR :0.99989: L2-HR :0.84288: (Sim:3h21m14s) 
CPU  0 inst:  465000002 cyc:  874893939 now IPC :1.43490: AVG IPC :0.52980: L2-Pf-HR :0.99989: L2-HR :0.84293: (Sim:3h21m26s) 
CPU  0 inst:  466000004 cyc:  875603951 now IPC :1.40843: AVG IPC :0.53051: L2-Pf-HR :0.99988: L2-HR :0.84296: (Sim:3h21m38s) 
CPU  0 inst:  467000001 cyc:  876252540 now IPC :1.54180: AVG IPC :0.53126: L2-Pf-HR :0.99988: L2-HR :0.84303: (Sim:3h21m50s) 
CPU  0 inst:  468000001 cyc:  876906841 now IPC :1.52835: AVG IPC :0.53201: L2-Pf-HR :0.99988: L2-HR :0.84312: (Sim:3h22m3s) 
CPU  0 inst:  469000002 cyc:  877562303 now IPC :1.52564: AVG IPC :0.53275: L2-Pf-HR :0.99988: L2-HR :0.84322: (Sim:3h22m15s) 
CPU  0 inst:  470000001 cyc:  878229596 now IPC :1.49859: AVG IPC :0.53349: L2-Pf-HR :0.99988: L2-HR :0.84329: (Sim:3h22m27s) 
CPU  0 inst:  471000001 cyc:  878893140 now IPC :1.50706: AVG IPC :0.53422: L2-Pf-HR :0.99987: L2-HR :0.84335: (Sim:3h22m39s) 
CPU  0 inst:  472000005 cyc:  879547786 now IPC :1.52755: AVG IPC :0.53496: L2-Pf-HR :0.99987: L2-HR :0.84344: (Sim:3h22m52s) 
CPU  0 inst:  473000004 cyc:  880198841 now IPC :1.53597: AVG IPC :0.53570: L2-Pf-HR :0.99987: L2-HR :0.84353: (Sim:3h23m4s) 
CPU  0 inst:  474000000 cyc:  880853894 now IPC :1.52659: AVG IPC :0.53644: L2-Pf-HR :0.99987: L2-HR :0.84362: (Sim:3h23m19s) 
CPU  0 inst:  475000005 cyc:  881526823 now IPC :1.48605: AVG IPC :0.53717: L2-Pf-HR :0.99986: L2-HR :0.84365: (Sim:3h23m32s) 
CPU  0 inst:  476000005 cyc:  882165823 now IPC :1.56495: AVG IPC :0.53791: L2-Pf-HR :0.99986: L2-HR :0.84372: (Sim:3h23m49s) 
CPU  0 inst:  477000003 cyc:  882804666 now IPC :1.56533: AVG IPC :0.53866: L2-Pf-HR :0.99986: L2-HR :0.84379: (Sim:3h24m16s) 
CPU  0 inst:  478000000 cyc:  883458696 now IPC :1.52898: AVG IPC :0.53939: L2-Pf-HR :0.99986: L2-HR :0.84386: (Sim:3h24m43s) 
CPU  0 inst:  479000000 cyc:  884161152 now IPC :1.42358: AVG IPC :0.54009: L2-Pf-HR :0.99985: L2-HR :0.84387: (Sim:3h25m10s) 
CPU  0 inst:  480000005 cyc:  884852166 now IPC :1.44716: AVG IPC :0.54080: L2-Pf-HR :0.99985: L2-HR :0.84391: (Sim:3h25m37s) 
CPU  0 inst:  481000001 cyc:  885542659 now IPC :1.44823: AVG IPC :0.54151: L2-Pf-HR :0.99985: L2-HR :0.84396: (Sim:3h26m5s) 
CPU  0 inst:  482000002 cyc:  886231273 now IPC :1.45219: AVG IPC :0.54222: L2-Pf-HR :0.99985: L2-HR :0.84401: (Sim:3h26m32s) 
CPU  0 inst:  483000000 cyc:  886928694 now IPC :1.43385: AVG IPC :0.54292: L2-Pf-HR :0.99985: L2-HR :0.84403: (Sim:3h27m0s) 
CPU  0 inst:  484000005 cyc:  887575192 now IPC :1.54680: AVG IPC :0.54365: L2-Pf-HR :0.99985: L2-HR :0.84411: (Sim:3h27m27s) 
CPU  0 inst:  485000002 cyc:  888224549 now IPC :1.53998: AVG IPC :0.54438: L2-Pf-HR :0.99985: L2-HR :0.84420: (Sim:3h27m54s) 
CPU  0 inst:  486000005 cyc:  888885413 now IPC :1.51318: AVG IPC :0.54510: L2-Pf-HR :0.99985: L2-HR :0.84428: (Sim:3h28m9s) 
CPU  0 inst:  487000003 cyc:  889549644 now IPC :1.50550: AVG IPC :0.54582: L2-Pf-HR :0.99984: L2-HR :0.84434: (Sim:3h28m23s) 
CPU  0 inst:  488000003 cyc:  890194497 now IPC :1.55074: AVG IPC :0.54655: L2-Pf-HR :0.99984: L2-HR :0.84442: (Sim:3h28m36s) 
CPU  0 inst:  489000000 cyc:  890852319 now IPC :1.52016: AVG IPC :0.54727: L2-Pf-HR :0.99984: L2-HR :0.84450: (Sim:3h28m49s) 
CPU  0 inst:  490000001 cyc:  891511535 now IPC :1.51696: AVG IPC :0.54799: L2-Pf-HR :0.99984: L2-HR :0.84457: (Sim:3h29m2s) 
CPU  0 inst:  491000002 cyc:  892148646 now IPC :1.56959: AVG IPC :0.54872: L2-Pf-HR :0.99984: L2-HR :0.84466: (Sim:3h29m14s) 
CPU  0 inst:  492000000 cyc:  892806948 now IPC :1.51906: AVG IPC :0.54943: L2-Pf-HR :0.99983: L2-HR :0.84470: (Sim:3h29m27s) 
CPU  0 inst:  493000004 cyc:  893452291 now IPC :1.54957: AVG IPC :0.55016: L2-Pf-HR :0.99983: L2-HR :0.84475: (Sim:3h29m41s) 
CPU  0 inst:  494000002 cyc:  894099510 now IPC :1.54507: AVG IPC :0.55088: L2-Pf-HR :0.99983: L2-HR :0.84480: (Sim:3h29m54s) 
CPU  0 inst:  495000001 cyc:  894750045 now IPC :1.53719: AVG IPC :0.55160: L2-Pf-HR :0.99983: L2-HR :0.84485: (Sim:3h30m8s) 
CPU  0 inst:  496000002 cyc:  895439402 now IPC :1.45063: AVG IPC :0.55229: L2-Pf-HR :0.99983: L2-HR :0.84488: (Sim:3h30m21s) 
CPU  0 inst:  497000001 cyc:  896152400 now IPC :1.40253: AVG IPC :0.55297: L2-Pf-HR :0.99983: L2-HR :0.84491: (Sim:3h30m35s) 
CPU  0 inst:  498000005 cyc:  896847479 now IPC :1.43869: AVG IPC :0.55365: L2-Pf-HR :0.99983: L2-HR :0.84495: (Sim:3h30m49s) 
CPU  0 inst:  499000003 cyc:  897536976 now IPC :1.45033: AVG IPC :0.55434: L2-Pf-HR :0.99983: L2-HR :0.84500: (Sim:3h31m3s) 
CPU  0 inst:  500000001 cyc:  898221534 now IPC :1.46079: AVG IPC :0.55504: L2-Pf-HR :0.99982: L2-HR :0.84503: (Sim:3h31m16s) 
CPU  0 inst:  501000000 cyc:  898873595 now IPC :1.53360: AVG IPC :0.55575: L2-Pf-HR :0.99982: L2-HR :0.84511: (Sim:3h31m29s) 
CPU  0 inst:  502000000 cyc:  899526288 now IPC :1.53211: AVG IPC :0.55646: L2-Pf-HR :0.99982: L2-HR :0.84519: (Sim:3h31m42s) 
CPU  0 inst:  503000003 cyc:  900179271 now IPC :1.53144: AVG IPC :0.55716: L2-Pf-HR :0.99982: L2-HR :0.84528: (Sim:3h31m54s) 
CPU  0 inst:  504000002 cyc:  900851264 now IPC :1.48811: AVG IPC :0.55786: L2-Pf-HR :0.99981: L2-HR :0.84532: (Sim:3h32m7s) 
CPU  0 inst:  505000004 cyc:  901492624 now IPC :1.55919: AVG IPC :0.55857: L2-Pf-HR :0.99981: L2-HR :0.84540: (Sim:3h32m20s) 
CPU  0 inst:  506000002 cyc:  902149601 now IPC :1.52212: AVG IPC :0.55927: L2-Pf-HR :0.99981: L2-HR :0.84548: (Sim:3h32m33s) 
CPU  0 inst:  507000004 cyc:  902803494 now IPC :1.52931: AVG IPC :0.55998: L2-Pf-HR :0.99981: L2-HR :0.84557: (Sim:3h32m45s) 
CPU  0 inst:  508000002 cyc:  903475326 now IPC :1.48846: AVG IPC :0.56067: L2-Pf-HR :0.99981: L2-HR :0.84561: (Sim:3h32m57s) 
CPU  0 inst:  509000000 cyc:  904109652 now IPC :1.57647: AVG IPC :0.56138: L2-Pf-HR :0.99980: L2-HR :0.84567: (Sim:3h33m9s) 
CPU  0 inst:  510000002 cyc:  904756813 now IPC :1.54521: AVG IPC :0.56209: L2-Pf-HR :0.99980: L2-HR :0.84573: (Sim:3h33m23s) 
CPU  0 inst:  511000003 cyc:  905405390 now IPC :1.54184: AVG IPC :0.56279: L2-Pf-HR :0.99980: L2-HR :0.84579: (Sim:3h33m36s) 
CPU  0 inst:  512000001 cyc:  906078647 now IPC :1.48531: AVG IPC :0.56348: L2-Pf-HR :0.99980: L2-HR :0.84581: (Sim:3h33m52s) 
CPU  0 inst:  513000002 cyc:  906773699 now IPC :1.43874: AVG IPC :0.56415: L2-Pf-HR :0.99980: L2-HR :0.84585: (Sim:3h34m14s) 
CPU  0 inst:  514000004 cyc:  907458386 now IPC :1.46052: AVG IPC :0.56482: L2-Pf-HR :0.99980: L2-HR :0.84589: (Sim:3h34m27s) 
CPU  0 inst:  515000001 cyc:  908143452 now IPC :1.45971: AVG IPC :0.56550: L2-Pf-HR :0.99980: L2-HR :0.84593: (Sim:3h34m40s) 
CPU  0 inst:  516000003 cyc:  908841211 now IPC :1.43316: AVG IPC :0.56617: L2-Pf-HR :0.99980: L2-HR :0.84596: (Sim:3h34m56s) 
CPU  0 inst:  517000003 cyc:  909511563 now IPC :1.49175: AVG IPC :0.56685: L2-Pf-HR :0.99980: L2-HR :0.84601: (Sim:3h35m23s) 
CPU  0 inst:  518000002 cyc:  910152866 now IPC :1.55932: AVG IPC :0.56755: L2-Pf-HR :0.99980: L2-HR :0.84610: (Sim:3h35m43s) 
CPU  0 inst:  519000001 cyc:  910798613 now IPC :1.54859: AVG IPC :0.56825: L2-Pf-HR :0.99980: L2-HR :0.84618: (Sim:3h35m55s) 
CPU  0 inst:  520000004 cyc:  911448811 now IPC :1.53800: AVG IPC :0.56894: L2-Pf-HR :0.99979: L2-HR :0.84625: (Sim:3h36m7s) 
CPU  0 inst:  521000000 cyc:  912114451 now IPC :1.50231: AVG IPC :0.56962: L2-Pf-HR :0.99979: L2-HR :0.84630: (Sim:3h36m19s) 
CPU  0 inst:  522000005 cyc:  912761979 now IPC :1.54434: AVG IPC :0.57031: L2-Pf-HR :0.99979: L2-HR :0.84639: (Sim:3h36m32s) 
CPU  0 inst:  523000005 cyc:  913411727 now IPC :1.53906: AVG IPC :0.57100: L2-Pf-HR :0.99979: L2-HR :0.84646: (Sim:3h36m45s) 
CPU  0 inst:  524000000 cyc:  914062600 now IPC :1.53639: AVG IPC :0.57169: L2-Pf-HR :0.99978: L2-HR :0.84653: (Sim:3h36m57s) 
CPU  0 inst:  525000004 cyc:  914712448 now IPC :1.53883: AVG IPC :0.57238: L2-Pf-HR :0.99977: L2-HR :0.84658: (Sim:3h37m10s) 
CPU  0 inst:  526000000 cyc:  915358268 now IPC :1.54841: AVG IPC :0.57307: L2-Pf-HR :0.99977: L2-HR :0.84663: (Sim:3h37m22s) 
CPU  0 inst:  527000005 cyc:  916012326 now IPC :1.52892: AVG IPC :0.57375: L2-Pf-HR :0.99977: L2-HR :0.84668: (Sim:3h37m36s) 
CPU  0 inst:  528000002 cyc:  916655217 now IPC :1.55547: AVG IPC :0.57444: L2-Pf-HR :0.99977: L2-HR :0.84673: (Sim:3h37m49s) 
CPU  0 inst:  529000003 cyc:  917324912 now IPC :1.49322: AVG IPC :0.57511: L2-Pf-HR :0.99976: L2-HR :0.84676: (Sim:3h38m1s) 
CPU  0 inst:  530000003 cyc:  918025972 now IPC :1.42641: AVG IPC :0.57576: L2-Pf-HR :0.99976: L2-HR :0.84678: (Sim:3h38m13s) 
CPU  0 inst:  531000003 cyc:  918729528 now IPC :1.42135: AVG IPC :0.57641: L2-Pf-HR :0.99976: L2-HR :0.84681: (Sim:3h38m25s) 
CPU  0 inst:  532000002 cyc:  919413925 now IPC :1.46114: AVG IPC :0.57707: L2-Pf-HR :0.99977: L2-HR :0.84685: (Sim:3h38m37s) 
CPU  0 inst:  533000004 cyc:  920111653 now IPC :1.43323: AVG IPC :0.57772: L2-Pf-HR :0.99976: L2-HR :0.84687: (Sim:3h38m49s) 
CPU  0 inst:  534000004 cyc:  920760825 now IPC :1.54042: AVG IPC :0.57840: L2-Pf-HR :0.99976: L2-HR :0.84694: (Sim:3h39m1s) 
CPU  0 inst:  535000003 cyc:  921414399 now IPC :1.53005: AVG IPC :0.57908: L2-Pf-HR :0.99976: L2-HR :0.84702: (Sim:3h39m13s) 
CPU  0 inst:  536000003 cyc:  922059305 now IPC :1.55061: AVG IPC :0.57976: L2-Pf-HR :0.99976: L2-HR :0.84710: (Sim:3h39m25s) 
CPU  0 inst:  537000002 cyc:  922724786 now IPC :1.50267: AVG IPC :0.58042: L2-Pf-HR :0.99976: L2-HR :0.84715: (Sim:3h39m37s) 
CPU  0 inst:  538000003 cyc:  923372101 now IPC :1.54484: AVG IPC :0.58110: L2-Pf-HR :0.99976: L2-HR :0.84722: (Sim:3h39m49s) 
CPU  0 inst:  539000005 cyc:  924027605 now IPC :1.52555: AVG IPC :0.58177: L2-Pf-HR :0.99976: L2-HR :0.84730: (Sim:3h40m1s) 
CPU  0 inst:  540000001 cyc:  924670445 now IPC :1.55559: AVG IPC :0.58245: L2-Pf-HR :0.99976: L2-HR :0.84737: (Sim:3h40m14s) 
CPU  0 inst:  541000003 cyc:  925321756 now IPC :1.53537: AVG IPC :0.58312: L2-Pf-HR :0.99976: L2-HR :0.84744: (Sim:3h40m26s) 
CPU  0 inst:  542000002 cyc:  925974630 now IPC :1.53169: AVG IPC :0.58379: L2-Pf-HR :0.99976: L2-HR :0.84747: (Sim:3h40m40s) 
CPU  0 inst:  543000005 cyc:  926615022 now IPC :1.56155: AVG IPC :0.58446: L2-Pf-HR :0.99976: L2-HR :0.84753: (Sim:3h40m52s) 
CPU  0 inst:  544000002 cyc:  927262446 now IPC :1.54458: AVG IPC :0.58514: L2-Pf-HR :0.99976: L2-HR :0.84759: (Sim:3h41m3s) 
CPU  0 inst:  545000002 cyc:  927895903 now IPC :1.57864: AVG IPC :0.58581: L2-Pf-HR :0.99975: L2-HR :0.84764: (Sim:3h41m16s) 
CPU  0 inst:  546000002 cyc:  928601797 now IPC :1.41664: AVG IPC :0.58645: L2-Pf-HR :0.99975: L2-HR :0.84765: (Sim:3h41m28s) 
CPU  0 inst:  547000004 cyc:  929286924 now IPC :1.45959: AVG IPC :0.58709: L2-Pf-HR :0.99975: L2-HR :0.84769: (Sim:3h41m40s) 
CPU  0 inst:  548000002 cyc:  929975846 now IPC :1.45154: AVG IPC :0.58773: L2-Pf-HR :0.99975: L2-HR :0.84773: (Sim:3h41m51s) 
CPU  0 inst:  549000005 cyc:  930666138 now IPC :1.44867: AVG IPC :0.58837: L2-Pf-HR :0.99976: L2-HR :0.84776: (Sim:3h42m3s) 
CPU  0 inst:  550000005 cyc:  931356899 now IPC :1.44768: AVG IPC :0.58901: L2-Pf-HR :0.99975: L2-HR :0.84778: (Sim:3h42m15s) 
CPU  0 inst:  551000001 cyc:  932001220 now IPC :1.55202: AVG IPC :0.58968: L2-Pf-HR :0.99975: L2-HR :0.84786: (Sim:3h42m27s) 
CPU  0 inst:  552000005 cyc:  932648003 now IPC :1.54612: AVG IPC :0.59034: L2-Pf-HR :0.99975: L2-HR :0.84793: (Sim:3h42m40s) 
CPU  0 inst:  553000000 cyc:  933292959 now IPC :1.55049: AVG IPC :0.59100: L2-Pf-HR :0.99975: L2-HR :0.84801: (Sim:3h42m52s) 
CPU  0 inst:  554000003 cyc:  933969112 now IPC :1.47896: AVG IPC :0.59165: L2-Pf-HR :0.99975: L2-HR :0.84805: (Sim:3h43m4s) 
CPU  0 inst:  555000002 cyc:  934608286 now IPC :1.56452: AVG IPC :0.59231: L2-Pf-HR :0.99974: L2-HR :0.84812: (Sim:3h43m16s) 
CPU  0 inst:  556000003 cyc:  935257336 now IPC :1.54071: AVG IPC :0.59297: L2-Pf-HR :0.99974: L2-HR :0.84819: (Sim:3h43m28s) 
CPU  0 inst:  557000000 cyc:  935913276 now IPC :1.52453: AVG IPC :0.59363: L2-Pf-HR :0.99974: L2-HR :0.84826: (Sim:3h43m40s) 
CPU  0 inst:  558000000 cyc:  936578878 now IPC :1.50240: AVG IPC :0.59427: L2-Pf-HR :0.99973: L2-HR :0.84830: (Sim:3h43m52s) 
CPU  0 inst:  559000001 cyc:  937215818 now IPC :1.57001: AVG IPC :0.59494: L2-Pf-HR :0.99973: L2-HR :0.84835: (Sim:3h44m4s) 
CPU  0 inst:  560000005 cyc:  937856626 now IPC :1.56054: AVG IPC :0.59560: L2-Pf-HR :0.99973: L2-HR :0.84840: (Sim:3h44m16s) 
CPU  0 inst:  561000002 cyc:  938514225 now IPC :1.52068: AVG IPC :0.59625: L2-Pf-HR :0.99973: L2-HR :0.84844: (Sim:3h44m28s) 
CPU  0 inst:  562000005 cyc:  939154176 now IPC :1.56262: AVG IPC :0.59690: L2-Pf-HR :0.99972: L2-HR :0.84850: (Sim:3h44m40s) 
CPU  0 inst:  563000003 cyc:  939865225 now IPC :1.40637: AVG IPC :0.59752: L2-Pf-HR :0.99972: L2-HR :0.84850: (Sim:3h44m53s) 
CPU  0 inst:  564000005 cyc:  940562923 now IPC :1.43329: AVG IPC :0.59814: L2-Pf-HR :0.99972: L2-HR :0.84853: (Sim:3h45m5s) 
CPU  0 inst:  565000000 cyc:  941260391 now IPC :1.43375: AVG IPC :0.59876: L2-Pf-HR :0.99972: L2-HR :0.84855: (Sim:3h45m16s) 
CPU  0 inst:  566000005 cyc:  941958721 now IPC :1.43199: AVG IPC :0.59938: L2-Pf-HR :0.99972: L2-HR :0.84858: (Sim:3h45m28s) 
CPU  0 inst:  567000005 cyc:  942614369 now IPC :1.52521: AVG IPC :0.60002: L2-Pf-HR :0.99972: L2-HR :0.84863: (Sim:3h45m40s) 
CPU  0 inst:  568000003 cyc:  943264528 now IPC :1.53808: AVG IPC :0.60067: L2-Pf-HR :0.99972: L2-HR :0.84869: (Sim:3h45m52s) 
CPU  0 inst:  569000003 cyc:  943909771 now IPC :1.54980: AVG IPC :0.60132: L2-Pf-HR :0.99972: L2-HR :0.84876: (Sim:3h46m5s) 
CPU  0 inst:  570000000 cyc:  944554441 now IPC :1.55118: AVG IPC :0.60197: L2-Pf-HR :0.99972: L2-HR :0.84884: (Sim:3h46m17s) 
CPU  0 inst:  571000001 cyc:  945231257 now IPC :1.47751: AVG IPC :0.60259: L2-Pf-HR :0.99971: L2-HR :0.84887: (Sim:3h46m30s) 
CPU  0 inst:  572000000 cyc:  945867630 now IPC :1.57140: AVG IPC :0.60325: L2-Pf-HR :0.99971: L2-HR :0.84895: (Sim:3h46m42s) 
CPU  0 inst:  573000001 cyc:  946516587 now IPC :1.54094: AVG IPC :0.60389: L2-Pf-HR :0.99971: L2-HR :0.84902: (Sim:3h46m54s) 
CPU  0 inst:  574000000 cyc:  947162184 now IPC :1.54895: AVG IPC :0.60454: L2-Pf-HR :0.99971: L2-HR :0.84909: (Sim:3h47m6s) 
CPU  0 inst:  575000005 cyc:  947833307 now IPC :1.49005: AVG IPC :0.60516: L2-Pf-HR :0.99970: L2-HR :0.84912: (Sim:3h47m19s) 
CPU  0 inst:  576000004 cyc:  948465708 now IPC :1.58127: AVG IPC :0.60581: L2-Pf-HR :0.99970: L2-HR :0.84917: (Sim:3h47m31s) 
CPU  0 inst:  577000002 cyc:  949099160 now IPC :1.57865: AVG IPC :0.60646: L2-Pf-HR :0.99970: L2-HR :0.84923: (Sim:3h47m46s) 
CPU  0 inst:  578000000 cyc:  949746742 now IPC :1.54420: AVG IPC :0.60710: L2-Pf-HR :0.99970: L2-HR :0.84928: (Sim:3h47m59s) 
CPU  0 inst:  579000005 cyc:  950437440 now IPC :1.44782: AVG IPC :0.60772: L2-Pf-HR :0.99969: L2-HR :0.84929: (Sim:3h48m10s) 
CPU  0 inst:  580000001 cyc:  951126658 now IPC :1.45091: AVG IPC :0.60833: L2-Pf-HR :0.99969: L2-HR :0.84932: (Sim:3h48m22s) 
CPU  0 inst:  581000005 cyc:  951814638 now IPC :1.45354: AVG IPC :0.60894: L2-Pf-HR :0.99969: L2-HR :0.84935: (Sim:3h48m33s) 
CPU  0 inst:  582000002 cyc:  952502288 now IPC :1.45422: AVG IPC :0.60955: L2-Pf-HR :0.99969: L2-HR :0.84939: (Sim:3h48m45s) 
CPU  0 inst:  583000000 cyc:  953210678 now IPC :1.41165: AVG IPC :0.61015: L2-Pf-HR :0.99969: L2-HR :0.84940: (Sim:3h48m57s) 
CPU  0 inst:  584000001 cyc:  953860619 now IPC :1.53860: AVG IPC :0.61078: L2-Pf-HR :0.99969: L2-HR :0.84946: (Sim:3h49m9s) 
CPU  0 inst:  585000005 cyc:  954514844 now IPC :1.52853: AVG IPC :0.61141: L2-Pf-HR :0.99969: L2-HR :0.84953: (Sim:3h49m21s) 
CPU  0 inst:  586000005 cyc:  955166279 now IPC :1.53507: AVG IPC :0.61204: L2-Pf-HR :0.99969: L2-HR :0.84960: (Sim:3h49m33s) 
CPU  0 inst:  587000005 cyc:  955831061 now IPC :1.50425: AVG IPC :0.61266: L2-Pf-HR :0.99969: L2-HR :0.84965: (Sim:3h49m45s) 
CPU  0 inst:  588000004 cyc:  956495832 now IPC :1.50428: AVG IPC :0.61328: L2-Pf-HR :0.99969: L2-HR :0.84971: (Sim:3h49m56s) 
CPU  0 inst:  589000004 cyc:  957146066 now IPC :1.53791: AVG IPC :0.61391: L2-Pf-HR :0.99969: L2-HR :0.84978: (Sim:3h50m8s) 
CPU  0 inst:  590000003 cyc:  957798690 now IPC :1.53227: AVG IPC :0.61454: L2-Pf-HR :0.99969: L2-HR :0.84984: (Sim:3h50m19s) 
CPU  0 inst:  591000005 cyc:  958454420 now IPC :1.52502: AVG IPC :0.61516: L2-Pf-HR :0.99969: L2-HR :0.84990: (Sim:3h50m32s) 
CPU  0 inst:  592000004 cyc:  959111228 now IPC :1.52251: AVG IPC :0.61578: L2-Pf-HR :0.99969: L2-HR :0.84994: (Sim:3h50m44s) 
CPU  0 inst:  593000000 cyc:  959746904 now IPC :1.57312: AVG IPC :0.61642: L2-Pf-HR :0.99969: L2-HR :0.84999: (Sim:3h50m56s) 
CPU  0 inst:  594000004 cyc:  960398424 now IPC :1.53488: AVG IPC :0.61704: L2-Pf-HR :0.99969: L2-HR :0.85003: (Sim:3h51m9s) 
CPU  0 inst:  595000001 cyc:  961049706 now IPC :1.53543: AVG IPC :0.61766: L2-Pf-HR :0.99969: L2-HR :0.85008: (Sim:3h51m21s) 
CPU  0 inst:  596000000 cyc:  961730005 now IPC :1.46994: AVG IPC :0.61827: L2-Pf-HR :0.99969: L2-HR :0.85010: (Sim:3h51m34s) 
CPU  0 inst:  597000005 cyc:  962424414 now IPC :1.44008: AVG IPC :0.61886: L2-Pf-HR :0.99969: L2-HR :0.85012: (Sim:3h51m46s) 
CPU  0 inst:  598000001 cyc:  963126214 now IPC :1.42490: AVG IPC :0.61945: L2-Pf-HR :0.99969: L2-HR :0.85014: (Sim:3h51m58s) 
CPU  0 inst:  599000000 cyc:  963827352 now IPC :1.42625: AVG IPC :0.62004: L2-Pf-HR :0.99969: L2-HR :0.85017: (Sim:3h52m10s) 
CPU  0 inst:  600000005 cyc:  964509859 now IPC :1.46519: AVG IPC :0.62064: L2-Pf-HR :0.99969: L2-HR :0.85020: (Sim:3h52m22s) 
CPU  0 inst:  601000000 cyc:  965163782 now IPC :1.52922: AVG IPC :0.62125: L2-Pf-HR :0.99968: L2-HR :0.85025: (Sim:3h52m36s) 
CPU  0 inst:  602000000 cyc:  965818607 now IPC :1.52713: AVG IPC :0.62187: L2-Pf-HR :0.99969: L2-HR :0.85032: (Sim:3h52m48s) 
CPU  0 inst:  603000000 cyc:  966468204 now IPC :1.53942: AVG IPC :0.62248: L2-Pf-HR :0.99968: L2-HR :0.85038: (Sim:3h53m1s) 
CPU  0 inst:  604000001 cyc:  967143221 now IPC :1.48145: AVG IPC :0.62308: L2-Pf-HR :0.99968: L2-HR :0.85043: (Sim:3h53m14s) 
CPU  0 inst:  605000003 cyc:  967793455 now IPC :1.53791: AVG IPC :0.62370: L2-Pf-HR :0.99968: L2-HR :0.85048: (Sim:3h53m26s) 
CPU  0 inst:  606000003 cyc:  968443204 now IPC :1.53906: AVG IPC :0.62431: L2-Pf-HR :0.99968: L2-HR :0.85055: (Sim:3h53m39s) 
CPU  0 inst:  607000002 cyc:  969091162 now IPC :1.54331: AVG IPC :0.62493: L2-Pf-HR :0.99968: L2-HR :0.85062: (Sim:3h53m51s) 
CPU  0 inst:  608000005 cyc:  969762794 now IPC :1.48892: AVG IPC :0.62553: L2-Pf-HR :0.99967: L2-HR :0.85066: (Sim:3h54m4s) 
CPU  0 inst:  609000002 cyc:  970407744 now IPC :1.55050: AVG IPC :0.62614: L2-Pf-HR :0.99967: L2-HR :0.85070: (Sim:3h54m17s) 
CPU  0 inst:  610000001 cyc:  971040698 now IPC :1.57989: AVG IPC :0.62677: L2-Pf-HR :0.99967: L2-HR :0.85075: (Sim:3h54m29s) 
CPU  0 inst:  611000004 cyc:  971680782 now IPC :1.56230: AVG IPC :0.62738: L2-Pf-HR :0.99967: L2-HR :0.85080: (Sim:3h54m41s) 
CPU  0 inst:  612000003 cyc:  972346101 now IPC :1.50304: AVG IPC :0.62798: L2-Pf-HR :0.99966: L2-HR :0.85083: (Sim:3h54m55s) 
CPU  0 inst:  613000003 cyc:  973049645 now IPC :1.42138: AVG IPC :0.62856: L2-Pf-HR :0.99966: L2-HR :0.85084: (Sim:3h55m7s) 
CPU  0 inst:  614000005 cyc:  973731883 now IPC :1.46577: AVG IPC :0.62914: L2-Pf-HR :0.99966: L2-HR :0.85088: (Sim:3h55m20s) 
CPU  0 inst:  615000005 cyc:  974419736 now IPC :1.45380: AVG IPC :0.62973: L2-Pf-HR :0.99966: L2-HR :0.85091: (Sim:3h55m31s) 
CPU  0 inst:  616000004 cyc:  975108067 now IPC :1.45279: AVG IPC :0.63031: L2-Pf-HR :0.99966: L2-HR :0.85094: (Sim:3h55m44s) 
CPU  0 inst:  617000003 cyc:  975795642 now IPC :1.45439: AVG IPC :0.63089: L2-Pf-HR :0.99966: L2-HR :0.85096: (Sim:3h55m56s) 
CPU  0 inst:  618000003 cyc:  976437560 now IPC :1.55783: AVG IPC :0.63150: L2-Pf-HR :0.99966: L2-HR :0.85103: (Sim:3h56m7s) 
CPU  0 inst:  619000002 cyc:  977087785 now IPC :1.53793: AVG IPC :0.63210: L2-Pf-HR :0.99966: L2-HR :0.85109: (Sim:3h56m20s) 
CPU  0 inst:  620000004 cyc:  977734224 now IPC :1.54694: AVG IPC :0.63271: L2-Pf-HR :0.99966: L2-HR :0.85116: (Sim:3h56m32s) 
CPU  0 inst:  621000003 cyc:  978416457 now IPC :1.46577: AVG IPC :0.63329: L2-Pf-HR :0.99965: L2-HR :0.85119: (Sim:3h56m44s) 
CPU  0 inst:  622000000 cyc:  979054714 now IPC :1.56676: AVG IPC :0.63390: L2-Pf-HR :0.99965: L2-HR :0.85126: (Sim:3h56m56s) 
CPU  0 inst:  623000005 cyc:  979701249 now IPC :1.54671: AVG IPC :0.63450: L2-Pf-HR :0.99965: L2-HR :0.85132: (Sim:3h57m8s) 
CPU  0 inst:  624000004 cyc:  980346552 now IPC :1.54966: AVG IPC :0.63511: L2-Pf-HR :0.99965: L2-HR :0.85139: (Sim:3h57m21s) 
CPU  0 inst:  625000002 cyc:  981022637 now IPC :1.47910: AVG IPC :0.63569: L2-Pf-HR :0.99965: L2-HR :0.85141: (Sim:3h57m33s) 
CPU  0 inst:  626000004 cyc:  981654493 now IPC :1.58264: AVG IPC :0.63630: L2-Pf-HR :0.99965: L2-HR :0.85146: (Sim:3h57m46s) 
CPU  0 inst:  627000003 cyc:  982288633 now IPC :1.57694: AVG IPC :0.63691: L2-Pf-HR :0.99965: L2-HR :0.85151: (Sim:3h57m58s) 
CPU  0 inst:  628000005 cyc:  982940661 now IPC :1.53368: AVG IPC :0.63750: L2-Pf-HR :0.99965: L2-HR :0.85155: (Sim:3h58m11s) 
CPU  0 inst:  629000001 cyc:  983624745 now IPC :1.46180: AVG IPC :0.63807: L2-Pf-HR :0.99964: L2-HR :0.85157: (Sim:3h58m23s) 
CPU  0 inst:  630000002 cyc:  984312842 now IPC :1.45328: AVG IPC :0.63865: L2-Pf-HR :0.99964: L2-HR :0.85160: (Sim:3h58m36s) 
CPU  0 inst:  631000001 cyc:  985016023 now IPC :1.42211: AVG IPC :0.63921: L2-Pf-HR :0.99964: L2-HR :0.85162: (Sim:3h58m48s) 
CPU  0 inst:  632000000 cyc:  985716500 now IPC :1.42760: AVG IPC :0.63977: L2-Pf-HR :0.99964: L2-HR :0.85163: (Sim:3h59m1s) 
CPU  0 inst:  633000003 cyc:  986396522 now IPC :1.47055: AVG IPC :0.64034: L2-Pf-HR :0.99964: L2-HR :0.85167: (Sim:3h59m13s) 
CPU  0 inst:  634000000 cyc:  987066560 now IPC :1.49245: AVG IPC :0.64092: L2-Pf-HR :0.99964: L2-HR :0.85171: (Sim:3h59m25s) 
CPU  0 inst:  635000003 cyc:  987729038 now IPC :1.50949: AVG IPC :0.64150: L2-Pf-HR :0.99964: L2-HR :0.85176: (Sim:3h59m39s) 
CPU  0 inst:  636000000 cyc:  988384881 now IPC :1.52475: AVG IPC :0.64209: L2-Pf-HR :0.99964: L2-HR :0.85182: (Sim:3h59m51s) 
CPU  0 inst:  637000000 cyc:  989044272 now IPC :1.51655: AVG IPC :0.64267: L2-Pf-HR :0.99964: L2-HR :0.85187: (Sim:4h0m3s) 
CPU  0 inst:  638000004 cyc:  989704437 now IPC :1.51478: AVG IPC :0.64325: L2-Pf-HR :0.99964: L2-HR :0.85192: (Sim:4h0m15s) 
CPU  0 inst:  639000004 cyc:  990362686 now IPC :1.51918: AVG IPC :0.64384: L2-Pf-HR :0.99964: L2-HR :0.85197: (Sim:4h0m28s) 
CPU  0 inst:  640000005 cyc:  991010120 now IPC :1.54456: AVG IPC :0.64443: L2-Pf-HR :0.99964: L2-HR :0.85204: (Sim:4h0m40s) 
CPU  0 inst:  641000004 cyc:  991659107 now IPC :1.54086: AVG IPC :0.64501: L2-Pf-HR :0.99964: L2-HR :0.85210: (Sim:4h0m52s) 
CPU  0 inst:  642000001 cyc:  992327764 now IPC :1.49553: AVG IPC :0.64559: L2-Pf-HR :0.99963: L2-HR :0.85212: (Sim:4h1m4s) 
CPU  0 inst:  643000003 cyc:  992962766 now IPC :1.57480: AVG IPC :0.64618: L2-Pf-HR :0.99963: L2-HR :0.85216: (Sim:4h1m16s) 
CPU  0 inst:  644000003 cyc:  993602852 now IPC :1.56229: AVG IPC :0.64677: L2-Pf-HR :0.99963: L2-HR :0.85221: (Sim:4h1m29s) 
CPU  0 inst:  645000001 cyc:  994246248 now IPC :1.55425: AVG IPC :0.64736: L2-Pf-HR :0.99963: L2-HR :0.85226: (Sim:4h1m41s) 
CPU  0 inst:  646000004 cyc:  994946175 now IPC :1.42872: AVG IPC :0.64791: L2-Pf-HR :0.99963: L2-HR :0.85226: (Sim:4h1m53s) 
CPU  0 inst:  647000003 cyc:  995636332 now IPC :1.44894: AVG IPC :0.64847: L2-Pf-HR :0.99963: L2-HR :0.85229: (Sim:4h2m6s) 
CPU  0 inst:  648000005 cyc:  996323204 now IPC :1.45588: AVG IPC :0.64902: L2-Pf-HR :0.99963: L2-HR :0.85232: (Sim:4h2m21s) 
CPU  0 inst:  649000002 cyc:  997010212 now IPC :1.45558: AVG IPC :0.64958: L2-Pf-HR :0.99963: L2-HR :0.85235: (Sim:4h2m34s) 
CPU  0 inst:  650000001 cyc:  997725429 now IPC :1.39818: AVG IPC :0.65012: L2-Pf-HR :0.99963: L2-HR :0.85235: (Sim:4h2m46s) 
CPU  0 inst:  651000004 cyc:  998373568 now IPC :1.54288: AVG IPC :0.65070: L2-Pf-HR :0.99963: L2-HR :0.85241: (Sim:4h2m58s) 
CPU  0 inst:  652000005 cyc:  999016779 now IPC :1.55470: AVG IPC :0.65128: L2-Pf-HR :0.99963: L2-HR :0.85247: (Sim:4h3m10s) 
CPU  0 inst:  653000005 cyc:  999661612 now IPC :1.55079: AVG IPC :0.65186: L2-Pf-HR :0.99963: L2-HR :0.85253: (Sim:4h3m23s) 
CPU  0 inst:  654000004 cyc: 1000342714 now IPC :1.46821: AVG IPC :0.65242: L2-Pf-HR :0.99963: L2-HR :0.85257: (Sim:4h3m36s) 
CPU  0 inst:  655000001 cyc: 1000992579 now IPC :1.53878: AVG IPC :0.65299: L2-Pf-HR :0.99962: L2-HR :0.85262: (Sim:4h3m48s) 
CPU  0 inst:  656000001 cyc: 1001636130 now IPC :1.55388: AVG IPC :0.65357: L2-Pf-HR :0.99962: L2-HR :0.85268: (Sim:4h4m0s) 
CPU  0 inst:  657000005 cyc: 1002276555 now IPC :1.56147: AVG IPC :0.65415: L2-Pf-HR :0.99962: L2-HR :0.85275: (Sim:4h4m11s) 
CPU  0 inst:  658000002 cyc: 1002943221 now IPC :1.50000: AVG IPC :0.65472: L2-Pf-HR :0.99962: L2-HR :0.85279: (Sim:4h4m23s) 
CPU  0 inst:  659000001 cyc: 1003597194 now IPC :1.52911: AVG IPC :0.65529: L2-Pf-HR :0.99962: L2-HR :0.85282: (Sim:4h4m35s) 
Finished CPU 0 instr: 657000000 cyc: 1002615813 AVG IPC: 0.65529 (Sim time: 4h4m35s)

ChampSim completed all CPUs

[ROI Statistics]
Core_0_instructions 657000000
Core_0_cycles 1002615813
Core_0_IPC 0.65529

Core_0_branch_prediction_accuracy 99.58944
Core_0_branch_MPKI 0.11916
Core_0_average_ROB_occupancy_at_mispredict 572.47284

Core_0_L1D_total_access 205558223
Core_0_L1D_total_hit 192301610 L1D_total_Hit Ratio: 0.93551
Core_0_L1D_total_miss 13256613
Core_0_L1D_loads 187954938
Core_0_L1D_load_hit 175748525 L1D_load_Hit Ratio: 0.93506
Core_0_L1D_load_miss 12206413
Core_0_L1D_RFOs 17172062
Core_0_L1D_RFO_hit 16121862 L1D_RFO_Hit Ratio: 0.93884
Core_0_L1D_RFO_miss 1050200
Core_0_L1D_prefetches 431223
Core_0_L1D_prefetch_hit 431223 L1D_prefetch_Hit Ratio: 1.00000
Core_0_L1D_prefetch_miss 0
Core_0_L1D_writebacks 0
Core_0_L1D_writeback_hit 0 L1D_writeback_Hit Ratio: -nan
Core_0_L1D_writeback_miss 0
Core_0_L1D_prefetch_requested 64928971
Core_0_L1D_prefetch_issued 25974007
Core_0_L1D_prefetch_useful 0 L1D_Useful Ratio: 0.00000
Core_0_L1D_prefetch_useless 0
Core_0_L1D_prefetch_late 0
Core_0_L1D_average_miss_latency 144.10847

Core_0_L1I_total_access 102507430
Core_0_L1I_total_hit 102505447 L1I_total_Hit Ratio: 0.99998
Core_0_L1I_total_miss 1983
Core_0_L1I_loads 102507430
Core_0_L1I_load_hit 102505447 L1I_load_Hit Ratio: 0.99998
Core_0_L1I_load_miss 1983
Core_0_L1I_RFOs 0
Core_0_L1I_RFO_hit 0 L1I_RFO_Hit Ratio: -nan
Core_0_L1I_RFO_miss 0
Core_0_L1I_prefetches 0
Core_0_L1I_prefetch_hit 0 L1I_prefetch_Hit Ratio: -nan
Core_0_L1I_prefetch_miss 0
Core_0_L1I_writebacks 0
Core_0_L1I_writeback_hit 0 L1I_writeback_Hit Ratio: -nan
Core_0_L1I_writeback_miss 0
Core_0_L1I_prefetch_requested 0
Core_0_L1I_prefetch_issued 0
Core_0_L1I_prefetch_useful 0 L1I_Useful Ratio: -nan
Core_0_L1I_prefetch_useless 0
Core_0_L1I_prefetch_late 0
Core_0_L1I_average_miss_latency 280.59657

Core_0_L2C_total_access 37738721
Core_0_L2C_total_hit 32184232 L2C_total_Hit Ratio: 0.85282
Core_0_L2C_total_miss 5554489
Core_0_L2C_loads 12208396
Core_0_L2C_load_hit 7710932 L2C_load_Hit Ratio: 0.63161
Core_0_L2C_load_miss 4497464
Core_0_L2C_RFOs 1050200
Core_0_L2C_RFO_hit 1030 L2C_RFO_Hit Ratio: 0.00098
Core_0_L2C_RFO_miss 1049170
Core_0_L2C_prefetches 20609334
Core_0_L2C_prefetch_hit 20601485 L2C_prefetch_Hit Ratio: 0.99962
Core_0_L2C_prefetch_miss 7849
Core_0_L2C_writebacks 3870791
Core_0_L2C_writeback_hit 3870785 L2C_writeback_Hit Ratio: 1.00000
Core_0_L2C_writeback_miss 6
Core_0_L2C_prefetch_requested 17150134
Core_0_L2C_prefetch_issued 6404
Core_0_L2C_prefetch_useful 7766 L2C_Useful Ratio: 1.21268
Core_0_L2C_prefetch_useless 83
Core_0_L2C_prefetch_late 0
Core_0_L2C_average_miss_latency 298.01514

Core_0_LLC_total_access 8779278
Core_0_LLC_total_hit 3262310 LLC_total_Hit Ratio: 0.37159
Core_0_LLC_total_miss 5516968
Core_0_LLC_loads 4497464
Core_0_LLC_load_hit 57836 LLC_load_Hit Ratio: 0.01286
Core_0_LLC_load_miss 4439628
Core_0_LLC_RFOs 1049170
Core_0_LLC_RFO_hit 402 LLC_RFO_Hit Ratio: 0.00038
Core_0_LLC_RFO_miss 1048768
Core_0_LLC_prefetches 8776
Core_0_LLC_prefetch_hit 8502 LLC_prefetch_Hit Ratio: 0.96878
Core_0_LLC_prefetch_miss 274
Core_0_LLC_writebacks 3223868
Core_0_LLC_writeback_hit 3195570 LLC_writeback_Hit Ratio: 0.99122
Core_0_LLC_writeback_miss 28298
Core_0_LLC_prefetch_requested 0
Core_0_LLC_prefetch_issued 0
Core_0_LLC_prefetch_useful 23 LLC_Useful Ratio: inf
Core_0_LLC_prefetch_useless 249
Core_0_LLC_prefetch_late 0
Core_0_LLC_average_miss_latency 259.66891

Core_0_major_page_fault 0
Core_0_minor_page_fault 37887

CPU 0 L1D next line prefetcher final stats
Prefetcher final stats
Training Unit Size: 4743
Addr table size: 2354104 2354109


Triggers: 4513985
No Prediction: 2359508 52.27106
Stream end: 18509
No translation: 1351121 29.93189
Predictions: 6404 0.14187


Stream divergence: 28950 0.64134
Stream divergence -- new stream: 0
Channel_0_RQ_row_buffer_hit 3026312
Channel_0_RQ_row_buffer_miss 2462358
Channel_0_WQ_row_buffer_hit 1430611
Channel_0_WQ_row_buffer_miss 1778183
Channel_0_WQ_full 8918
Channel_0_dbus_congested 2337390

avg_congested_cycle 8

EzSearch AVG IPC :0.65529: L2-Pf-HR :0.99962 : L2-HR :0.85282 Uful:1.21268
     > Finished combination: TraceType=770-tot Sim:657000000 Prefetcher=L2isb_ideal L1=isb_ideal
