TRACE: [42000000]_FE_[OPT-350M]_[h16]_[s256]_[d64] Warmup: 2000000 NumTraces: 42000000
L1:no:L2:no
*************************************************
   ChampSim Multicore Out-of-Order Simulator
   Last compiled: Oct 31 2024 01:21:55
*************************************************

trace_0 770-tot_memTraces_v5/150-subBillion_s256_LLM_Arch/memTraces[42000000]_FE_[OPT-350M]_[h16]_[s256]_[d64].champsim.9.xz
MAIN.cc ln 751 stats print skipped
CPU  0 inst:    1000002 cyc:     499899 now IPC :2.00041: AVG IPC :2.00041: L2-Pf-HR :-nan: L2-HR :0.53737: (Sim:0h0m19s) 
CPU  0 inst:    2000000 cyc:     988079 now IPC :2.04842: AVG IPC :2.02413: L2-Pf-HR :-nan: L2-HR :0.61540: (Sim:0h0m39s) 

Warmup complete CPU  0 instructions:    2000002 cycles:     988080 (Simulation time: 0 hr 0 min 39 sec) 

CPU  0 inst:    3000003 cyc:    1617607 now IPC :1.58850: AVG IPC :1.58850: L2-Pf-HR :-nan: L2-HR :0.69902: (Sim:0h0m56s) 
CPU  0 inst:    4000003 cyc:    2243663 now IPC :1.59730: AVG IPC :1.59289: L2-Pf-HR :-nan: L2-HR :0.69847: (Sim:0h1m12s) 
CPU  0 inst:    5000005 cyc:    2868816 now IPC :1.59961: AVG IPC :1.59512: L2-Pf-HR :-nan: L2-HR :0.69696: (Sim:0h1m27s) 
CPU  0 inst:    6000000 cyc:    3496463 now IPC :1.59324: AVG IPC :1.59465: L2-Pf-HR :-nan: L2-HR :0.69751: (Sim:0h1m45s) 
CPU  0 inst:    7000002 cyc:    4122868 now IPC :1.59641: AVG IPC :1.59500: L2-Pf-HR :-nan: L2-HR :0.69809: (Sim:0h2m3s) 
CPU  0 inst:    8000003 cyc:    4751215 now IPC :1.59148: AVG IPC :1.59442: L2-Pf-HR :-nan: L2-HR :0.69713: (Sim:0h2m20s) 
CPU  0 inst:    9000005 cyc:    5376112 now IPC :1.60027: AVG IPC :1.59525: L2-Pf-HR :-nan: L2-HR :0.69814: (Sim:0h2m38s) 
CPU  0 inst:   10000005 cyc:    6002560 now IPC :1.59630: AVG IPC :1.59538: L2-Pf-HR :-nan: L2-HR :0.69843: (Sim:0h2m56s) 
CPU  0 inst:   11000005 cyc:    6625374 now IPC :1.60562: AVG IPC :1.59651: L2-Pf-HR :-nan: L2-HR :0.69844: (Sim:0h3m14s) 
CPU  0 inst:   12000001 cyc:    7249949 now IPC :1.60108: AVG IPC :1.59697: L2-Pf-HR :-nan: L2-HR :0.69838: (Sim:0h3m31s) 
CPU  0 inst:   13000005 cyc:    7875115 now IPC :1.59958: AVG IPC :1.59720: L2-Pf-HR :-nan: L2-HR :0.69859: (Sim:0h3m47s) 
CPU  0 inst:   14000004 cyc:    8500024 now IPC :1.60023: AVG IPC :1.59746: L2-Pf-HR :-nan: L2-HR :0.69902: (Sim:0h3m59s) 
CPU  0 inst:   15000000 cyc:    9128700 now IPC :1.59064: AVG IPC :1.59693: L2-Pf-HR :-nan: L2-HR :0.69840: (Sim:0h4m16s) 
CPU  0 inst:   16000002 cyc:    9749351 now IPC :1.61121: AVG IPC :1.59794: L2-Pf-HR :-nan: L2-HR :0.69865: (Sim:0h4m34s) 
CPU  0 inst:   17000002 cyc:   10408381 now IPC :1.51738: AVG IPC :1.59231: L2-Pf-HR :-nan: L2-HR :0.69826: (Sim:0h4m51s) 
CPU  0 inst:   18000000 cyc:   11999584 now IPC :0.62845: AVG IPC :1.45303: L2-Pf-HR :-nan: L2-HR :0.64321: (Sim:0h5m13s) 
CPU  0 inst:   19000000 cyc:   15172959 now IPC :0.31512: AVG IPC :1.19846: L2-Pf-HR :-nan: L2-HR :0.63108: (Sim:0h5m40s) 
CPU  0 inst:   20000000 cyc:   18384945 now IPC :0.31133: AVG IPC :1.03467: L2-Pf-HR :-nan: L2-HR :0.61681: (Sim:0h6m8s) 
CPU  0 inst:   21000000 cyc:   21604760 now IPC :0.31058: AVG IPC :0.92158: L2-Pf-HR :-nan: L2-HR :0.60326: (Sim:0h6m36s) 
CPU  0 inst:   22000000 cyc:   24902865 now IPC :0.30320: AVG IPC :0.83630: L2-Pf-HR :-nan: L2-HR :0.59096: (Sim:0h7m4s) 
CPU  0 inst:   23000000 cyc:   28226322 now IPC :0.30089: AVG IPC :0.77097: L2-Pf-HR :-nan: L2-HR :0.57973: (Sim:0h7m32s) 
CPU  0 inst:   24000000 cyc:   31579689 now IPC :0.29821: AVG IPC :0.71915: L2-Pf-HR :-nan: L2-HR :0.56944: (Sim:0h8m1s) 
CPU  0 inst:   25000000 cyc:   35230667 now IPC :0.27390: AVG IPC :0.67168: L2-Pf-HR :-nan: L2-HR :0.55997: (Sim:0h8m31s) 
CPU  0 inst:   26000001 cyc:   38407495 now IPC :0.31478: AVG IPC :0.64138: L2-Pf-HR :-nan: L2-HR :0.55110: (Sim:0h8m59s) 
CPU  0 inst:   27000000 cyc:   39085789 now IPC :1.47429: AVG IPC :0.65621: L2-Pf-HR :-nan: L2-HR :0.54954: (Sim:0h9m20s) 
CPU  0 inst:   28000004 cyc:   39708777 now IPC :1.60517: AVG IPC :0.67148: L2-Pf-HR :-nan: L2-HR :0.54851: (Sim:0h9m41s) 
CPU  0 inst:   29000003 cyc:   40314893 now IPC :1.64985: AVG IPC :0.68655: L2-Pf-HR :-nan: L2-HR :0.54803: (Sim:0h10m2s) 
CPU  0 inst:   30000003 cyc:   40944757 now IPC :1.58764: AVG IPC :0.70076: L2-Pf-HR :-nan: L2-HR :0.54815: (Sim:0h10m22s) 
CPU  0 inst:   31000005 cyc:   41599817 now IPC :1.52658: AVG IPC :0.71408: L2-Pf-HR :-nan: L2-HR :0.54687: (Sim:0h10m44s) 
CPU  0 inst:   32000003 cyc:   42215785 now IPC :1.62346: AVG IPC :0.72767: L2-Pf-HR :-nan: L2-HR :0.54579: (Sim:0h11m4s) 
CPU  0 inst:   33000002 cyc:   42802860 now IPC :1.70336: AVG IPC :0.74136: L2-Pf-HR :-nan: L2-HR :0.54461: (Sim:0h11m15s) 
CPU  0 inst:   34000003 cyc:   43418507 now IPC :1.62431: AVG IPC :0.75418: L2-Pf-HR :-nan: L2-HR :0.54349: (Sim:0h11m25s) 
CPU  0 inst:   35000005 cyc:   44007489 now IPC :1.69785: AVG IPC :0.76710: L2-Pf-HR :-nan: L2-HR :0.54305: (Sim:0h11m34s) 
CPU  0 inst:   36000000 cyc:   44578842 now IPC :1.75022: AVG IPC :0.77998: L2-Pf-HR :-nan: L2-HR :0.54227: (Sim:0h11m44s) 
CPU  0 inst:   37000000 cyc:   45197372 now IPC :1.61674: AVG IPC :0.79169: L2-Pf-HR :-nan: L2-HR :0.54142: (Sim:0h11m55s) 
CPU  0 inst:   38000001 cyc:   45772453 now IPC :1.73889: AVG IPC :0.80385: L2-Pf-HR :-nan: L2-HR :0.54055: (Sim:0h12m16s) 
CPU  0 inst:   39000005 cyc:   46358792 now IPC :1.70550: AVG IPC :0.81550: L2-Pf-HR :-nan: L2-HR :0.53975: (Sim:0h12m32s) 
Finished CPU 0 instr: 37000003 cyc: 45370712 AVG IPC: 0.81550 (Sim time: 0h12m32s)

ChampSim completed all CPUs

[ROI Statistics]
Core_0_instructions 37000003
Core_0_cycles 45370712
Core_0_IPC 0.81550

Core_0_branch_prediction_accuracy 98.43855
Core_0_branch_MPKI 0.50535
Core_0_average_ROB_occupancy_at_mispredict 336.91416

Core_0_L1D_total_access 11669210
Core_0_L1D_total_hit 11135932 L1D_total_Hit Ratio: 0.95430
Core_0_L1D_total_miss 533278
Core_0_L1D_loads 10520440
Core_0_L1D_load_hit 10053471 L1D_load_Hit Ratio: 0.95561
Core_0_L1D_load_miss 466969
Core_0_L1D_RFOs 1148770
Core_0_L1D_RFO_hit 1082461 L1D_RFO_Hit Ratio: 0.94228
Core_0_L1D_RFO_miss 66309
Core_0_L1D_prefetches 0
Core_0_L1D_prefetch_hit 0 L1D_prefetch_Hit Ratio: -nan
Core_0_L1D_prefetch_miss 0
Core_0_L1D_writebacks 0
Core_0_L1D_writeback_hit 0 L1D_writeback_Hit Ratio: -nan
Core_0_L1D_writeback_miss 0
Core_0_L1D_prefetch_requested 0
Core_0_L1D_prefetch_issued 0
Core_0_L1D_prefetch_useful 0 L1D_Useful Ratio: -nan
Core_0_L1D_prefetch_useless 0
Core_0_L1D_prefetch_late 0
Core_0_L1D_average_miss_latency 102.04986

Core_0_L1I_total_access 5282246
Core_0_L1I_total_hit 5280373 L1I_total_Hit Ratio: 0.99965
Core_0_L1I_total_miss 1873
Core_0_L1I_loads 5282246
Core_0_L1I_load_hit 5280373 L1I_load_Hit Ratio: 0.99965
Core_0_L1I_load_miss 1873
Core_0_L1I_RFOs 0
Core_0_L1I_RFO_hit 0 L1I_RFO_Hit Ratio: -nan
Core_0_L1I_RFO_miss 0
Core_0_L1I_prefetches 0
Core_0_L1I_prefetch_hit 0 L1I_prefetch_Hit Ratio: -nan
Core_0_L1I_prefetch_miss 0
Core_0_L1I_writebacks 0
Core_0_L1I_writeback_hit 0 L1I_writeback_Hit Ratio: -nan
Core_0_L1I_writeback_miss 0
Core_0_L1I_prefetch_requested 0
Core_0_L1I_prefetch_issued 0
Core_0_L1I_prefetch_useful 0 L1I_Useful Ratio: -nan
Core_0_L1I_prefetch_useless 0
Core_0_L1I_prefetch_late 0
Core_0_L1I_average_miss_latency 227.13348

Core_0_L2C_total_access 773302
Core_0_L2C_total_hit 417387 L2C_total_Hit Ratio: 0.53975
Core_0_L2C_total_miss 355915
Core_0_L2C_loads 468842
Core_0_L2C_load_hit 178663 L2C_load_Hit Ratio: 0.38107
Core_0_L2C_load_miss 290179
Core_0_L2C_RFOs 66309
Core_0_L2C_RFO_hit 578 L2C_RFO_Hit Ratio: 0.00872
Core_0_L2C_RFO_miss 65731
Core_0_L2C_prefetches 0
Core_0_L2C_prefetch_hit 0 L2C_prefetch_Hit Ratio: -nan
Core_0_L2C_prefetch_miss 0
Core_0_L2C_writebacks 238151
Core_0_L2C_writeback_hit 238146 L2C_writeback_Hit Ratio: 0.99998
Core_0_L2C_writeback_miss 5
Core_0_L2C_prefetch_requested 0
Core_0_L2C_prefetch_issued 0
Core_0_L2C_prefetch_useful 0 L2C_Useful Ratio: -nan
Core_0_L2C_prefetch_useless 0
Core_0_L2C_prefetch_late 0
Core_0_L2C_average_miss_latency 125.13568

Core_0_LLC_total_access 551532
Core_0_LLC_total_hit 351138 LLC_total_Hit Ratio: 0.63666
Core_0_LLC_total_miss 200394
Core_0_LLC_loads 290179
Core_0_LLC_load_hit 155433 LLC_load_Hit Ratio: 0.53565
Core_0_LLC_load_miss 134746
Core_0_LLC_RFOs 65731
Core_0_LLC_RFO_hit 103 LLC_RFO_Hit Ratio: 0.00157
Core_0_LLC_RFO_miss 65628
Core_0_LLC_prefetches 0
Core_0_LLC_prefetch_hit 0 LLC_prefetch_Hit Ratio: -nan
Core_0_LLC_prefetch_miss 0
Core_0_LLC_writebacks 195622
Core_0_LLC_writeback_hit 195602 LLC_writeback_Hit Ratio: 0.99990
Core_0_LLC_writeback_miss 20
Core_0_LLC_prefetch_requested 0
Core_0_LLC_prefetch_issued 0
Core_0_LLC_prefetch_useful 0 LLC_Useful Ratio: -nan
Core_0_LLC_prefetch_useless 0
Core_0_LLC_prefetch_late 0
Core_0_LLC_average_miss_latency 151.10117

Core_0_major_page_fault 0
Core_0_minor_page_fault 3913

Channel_0_RQ_row_buffer_hit 165507
Channel_0_RQ_row_buffer_miss 34866
Channel_0_WQ_row_buffer_hit 23954
Channel_0_WQ_row_buffer_miss 22989
Channel_0_WQ_full 0
Channel_0_dbus_congested 31570

avg_congested_cycle 7

EzSearch AVG IPC :0.81550: L2-Pf-HR :-nan : L2-HR :0.53975 Uful:-nan
     > Finished combination: TraceType=770-tot Sim:37000000 Prefetcher=L2no L1=no
