TRACE: [1319000000]_FE_[Pythia-70M]_[h8]_[s2048]_[d64] Warmup: 2000000 NumTraces: 1319000000
L1:next_line:L2:029-SecTOP-L2-MultiMarkovDelta_ip_stride_v4-IPStrS256
*************************************************
   ChampSim Multicore Out-of-Order Simulator
   Last compiled: Oct 30 2024 21:52:28
*************************************************

trace_0 770-tot_memTraces_v5/120-subBillion_s2048_LLM_Arch/memTraces[1319000000]_FE_[Pythia-70M]_[h8]_[s2048]_[d64].champsim.9SSize.xz
CPU 0 L1D next line prefetcher
MK1: Size: 128 TMAX: 64 TMIN: 32 MKPTHRESH: 40
MK2: Size: 256 TMAX: 32 TMIN: 16 MK2PTHRESH: 30
MK3: Size: 384 TMAX: 16 TMIN: 8 MK3PTHRESH: 25
MK4: Size: 512 TMAX: 8 TMIN: 0 MK4PTHRESH: 20
Stride Size: 256 Prefetch Degree: 15

CPU 0 L2C prefetcher
MAIN.cc ln 751 stats print skipped
CPU 0 L2C prefetcher initialized


Cache Size: 4096
number of cache lines: 65536
CPU  0 inst:    1000002 cyc:     497950 now IPC :2.00824: AVG IPC :2.00824: L2-Pf-HR :0.91096: L2-HR :0.88989: (Sim:0h0m6s) 
CPU  0 inst:    2000005 cyc:     980456 now IPC :2.07252: AVG IPC :2.03987: L2-Pf-HR :0.93952: L2-HR :0.92828: (Sim:0h0m13s) 

Warmup complete CPU  0 instructions:    2000005 cycles:     980456 (Simulation time: 0 hr 0 min 13 sec) 

CPU  0 inst:    3000004 cyc:    1465226 now IPC :2.06283: AVG IPC :2.06283: L2-Pf-HR :0.90871: L2-HR :0.92021: (Sim:0h0m19s) 
CPU  0 inst:    4000002 cyc:    1937504 now IPC :2.11739: AVG IPC :2.08976: L2-Pf-HR :0.91938: L2-HR :0.92968: (Sim:0h0m24s) 
CPU  0 inst:    5000002 cyc:    2411011 now IPC :2.11190: AVG IPC :2.09709: L2-Pf-HR :0.92456: L2-HR :0.93403: (Sim:0h0m30s) 
CPU  0 inst:    6000001 cyc:    2881973 now IPC :2.12331: AVG IPC :2.10358: L2-Pf-HR :0.93543: L2-HR :0.94286: (Sim:0h0m36s) 
CPU  0 inst:    7000002 cyc:    3431118 now IPC :1.82101: AVG IPC :2.04026: L2-Pf-HR :0.92820: L2-HR :0.93524: (Sim:0h0m42s) 
CPU  0 inst:    8000003 cyc:    3905407 now IPC :2.10842: AVG IPC :2.05132: L2-Pf-HR :0.92789: L2-HR :0.93536: (Sim:0h0m48s) 
CPU  0 inst:    9000001 cyc:    4377085 now IPC :2.12009: AVG IPC :2.06087: L2-Pf-HR :0.92823: L2-HR :0.93591: (Sim:0h0m55s) 
CPU  0 inst:   10000002 cyc:    4849567 now IPC :2.11648: AVG IPC :2.06766: L2-Pf-HR :0.92868: L2-HR :0.93645: (Sim:0h1m1s) 
CPU  0 inst:   11000004 cyc:    5321313 now IPC :2.11979: AVG IPC :2.07332: L2-Pf-HR :0.92930: L2-HR :0.93709: (Sim:0h1m7s) 
CPU  0 inst:   12000004 cyc:    5790202 now IPC :2.13270: AVG IPC :2.07911: L2-Pf-HR :0.93299: L2-HR :0.94017: (Sim:0h1m13s) 
CPU  0 inst:   13000002 cyc:    6360511 now IPC :1.75343: AVG IPC :2.04459: L2-Pf-HR :0.92984: L2-HR :0.93625: (Sim:0h1m19s) 
CPU  0 inst:   14000003 cyc:    6817315 now IPC :2.18912: AVG IPC :2.05590: L2-Pf-HR :0.92989: L2-HR :0.93674: (Sim:0h1m25s) 
CPU  0 inst:   15000000 cyc:    7270186 now IPC :2.20813: AVG IPC :2.06686: L2-Pf-HR :0.93021: L2-HR :0.93738: (Sim:0h1m31s) 
CPU  0 inst:   16000000 cyc:    7723873 now IPC :2.20416: AVG IPC :2.07610: L2-Pf-HR :0.93061: L2-HR :0.93806: (Sim:0h1m38s) 
CPU  0 inst:   17000003 cyc:    8180169 now IPC :2.19157: AVG IPC :2.08342: L2-Pf-HR :0.93122: L2-HR :0.93880: (Sim:0h1m44s) 
CPU  0 inst:   18000003 cyc:    8634454 now IPC :2.20126: AVG IPC :2.09041: L2-Pf-HR :0.93399: L2-HR :0.94130: (Sim:0h1m50s) 
CPU  0 inst:   19000002 cyc:    9164821 now IPC :1.88548: AVG IPC :2.07713: L2-Pf-HR :0.93278: L2-HR :0.94002: (Sim:0h1m57s) 
CPU  0 inst:   20000001 cyc:    9622840 now IPC :2.18331: AVG IPC :2.08276: L2-Pf-HR :0.93283: L2-HR :0.94026: (Sim:0h2m3s) 
CPU  0 inst:   21000004 cyc:   10078005 now IPC :2.19701: AVG IPC :2.08847: L2-Pf-HR :0.93312: L2-HR :0.94069: (Sim:0h2m9s) 
CPU  0 inst:   22000001 cyc:   10533632 now IPC :2.19477: AVG IPC :2.09354: L2-Pf-HR :0.93338: L2-HR :0.94109: (Sim:0h2m15s) 
CPU  0 inst:   23000005 cyc:   10988184 now IPC :2.19998: AVG IPC :2.09838: L2-Pf-HR :0.93382: L2-HR :0.94162: (Sim:0h2m22s) 
CPU  0 inst:   24000004 cyc:   11443890 now IPC :2.19440: AVG IPC :2.10256: L2-Pf-HR :0.93581: L2-HR :0.94337: (Sim:0h2m28s) 
CPU  0 inst:   25000005 cyc:   12005135 now IPC :1.78175: AVG IPC :2.08623: L2-Pf-HR :0.93468: L2-HR :0.94189: (Sim:0h2m35s) 
CPU  0 inst:   26000002 cyc:   12461424 now IPC :2.19159: AVG IPC :2.09042: L2-Pf-HR :0.93461: L2-HR :0.94200: (Sim:0h2m41s) 
CPU  0 inst:   27000005 cyc:   12919848 now IPC :2.18139: AVG IPC :2.09391: L2-Pf-HR :0.93482: L2-HR :0.94230: (Sim:0h2m48s) 
CPU  0 inst:   28000002 cyc:   13374986 now IPC :2.19713: AVG IPC :2.09770: L2-Pf-HR :0.93494: L2-HR :0.94254: (Sim:0h2m54s) 
CPU  0 inst:   29000001 cyc:   13829223 now IPC :2.20149: AVG IPC :2.10137: L2-Pf-HR :0.93522: L2-HR :0.94289: (Sim:0h3m1s) 
CPU  0 inst:   30000005 cyc:   14286640 now IPC :2.18620: AVG IPC :2.10428: L2-Pf-HR :0.93650: L2-HR :0.94403: (Sim:0h3m7s) 
CPU  0 inst:   31000005 cyc:   14830221 now IPC :1.83965: AVG IPC :2.09390: L2-Pf-HR :0.93564: L2-HR :0.94311: (Sim:0h3m14s) 
CPU  0 inst:   32000000 cyc:   15289230 now IPC :2.17860: AVG IPC :2.09662: L2-Pf-HR :0.93556: L2-HR :0.94316: (Sim:0h3m21s) 
CPU  0 inst:   33000002 cyc:   15746898 now IPC :2.18499: AVG IPC :2.09935: L2-Pf-HR :0.93568: L2-HR :0.94335: (Sim:0h3m27s) 
CPU  0 inst:   34000003 cyc:   16204938 now IPC :2.18322: AVG IPC :2.10188: L2-Pf-HR :0.93572: L2-HR :0.94348: (Sim:0h3m34s) 
CPU  0 inst:   35000003 cyc:   16660786 now IPC :2.19371: AVG IPC :2.10455: L2-Pf-HR :0.93598: L2-HR :0.94379: (Sim:0h3m41s) 
CPU  0 inst:   36000003 cyc:   17116501 now IPC :2.19435: AVG IPC :2.10708: L2-Pf-HR :0.93717: L2-HR :0.94484: (Sim:0h3m47s) 
CPU  0 inst:   37000001 cyc:   17716776 now IPC :1.66590: AVG IPC :2.09126: L2-Pf-HR :0.93642: L2-HR :0.94385: (Sim:0h3m55s) 
CPU  0 inst:   38000002 cyc:   18175077 now IPC :2.18197: AVG IPC :2.09368: L2-Pf-HR :0.93633: L2-HR :0.94386: (Sim:0h4m1s) 
CPU  0 inst:   39000001 cyc:   18631154 now IPC :2.19261: AVG IPC :2.09623: L2-Pf-HR :0.93631: L2-HR :0.94393: (Sim:0h4m8s) 
CPU  0 inst:   40000001 cyc:   19089172 now IPC :2.18332: AVG IPC :2.09844: L2-Pf-HR :0.93641: L2-HR :0.94410: (Sim:0h4m15s) 
CPU  0 inst:   41000001 cyc:   19547526 now IPC :2.18172: AVG IPC :2.10049: L2-Pf-HR :0.93665: L2-HR :0.94436: (Sim:0h4m22s) 
CPU  0 inst:   42000001 cyc:   20003307 now IPC :2.19404: AVG IPC :2.10273: L2-Pf-HR :0.93753: L2-HR :0.94515: (Sim:0h4m29s) 
CPU  0 inst:   43000002 cyc:   20552862 now IPC :1.81966: AVG IPC :2.09479: L2-Pf-HR :0.93684: L2-HR :0.94443: (Sim:0h4m36s) 
CPU  0 inst:   44000000 cyc:   21013840 now IPC :2.16930: AVG IPC :2.09650: L2-Pf-HR :0.93685: L2-HR :0.94450: (Sim:0h4m43s) 
CPU  0 inst:   45000005 cyc:   21470722 now IPC :2.18876: AVG IPC :2.09856: L2-Pf-HR :0.93691: L2-HR :0.94462: (Sim:0h4m49s) 
CPU  0 inst:   46000005 cyc:   21926518 now IPC :2.19396: AVG IPC :2.10063: L2-Pf-HR :0.93688: L2-HR :0.94467: (Sim:0h4m56s) 
CPU  0 inst:   47000005 cyc:   22385965 now IPC :2.17653: AVG IPC :2.10226: L2-Pf-HR :0.93708: L2-HR :0.94490: (Sim:0h5m3s) 
CPU  0 inst:   48000005 cyc:   22843204 now IPC :2.18704: AVG IPC :2.10404: L2-Pf-HR :0.93801: L2-HR :0.94571: (Sim:0h5m10s) 
CPU  0 inst:   49000003 cyc:   23456643 now IPC :1.63015: AVG IPC :2.09110: L2-Pf-HR :0.93736: L2-HR :0.94488: (Sim:0h5m17s) 
CPU  0 inst:   50000003 cyc:   23917321 now IPC :2.17071: AVG IPC :2.09270: L2-Pf-HR :0.93734: L2-HR :0.94493: (Sim:0h5m24s) 
CPU  0 inst:   51000000 cyc:   24375764 now IPC :2.18129: AVG IPC :2.09444: L2-Pf-HR :0.93732: L2-HR :0.94497: (Sim:0h5m31s) 
CPU  0 inst:   52000000 cyc:   24831061 now IPC :2.19637: AVG IPC :2.09638: L2-Pf-HR :0.93734: L2-HR :0.94504: (Sim:0h5m38s) 
CPU  0 inst:   53000000 cyc:   25287266 now IPC :2.19200: AVG IPC :2.09818: L2-Pf-HR :0.93744: L2-HR :0.94518: (Sim:0h5m45s) 
CPU  0 inst:   54000004 cyc:   25743653 now IPC :2.19113: AVG IPC :2.09989: L2-Pf-HR :0.93815: L2-HR :0.94581: (Sim:0h5m52s) 
CPU  0 inst:   55000002 cyc:   26292341 now IPC :1.82253: AVG IPC :2.09388: L2-Pf-HR :0.93765: L2-HR :0.94527: (Sim:0h5m59s) 
CPU  0 inst:   56000001 cyc:   26748674 now IPC :2.19138: AVG IPC :2.09560: L2-Pf-HR :0.93757: L2-HR :0.94526: (Sim:0h6m7s) 
CPU  0 inst:   57000004 cyc:   27207694 now IPC :2.17856: AVG IPC :2.09706: L2-Pf-HR :0.93762: L2-HR :0.94535: (Sim:0h6m14s) 
CPU  0 inst:   58000004 cyc:   27666587 now IPC :2.17916: AVG IPC :2.09847: L2-Pf-HR :0.93761: L2-HR :0.94539: (Sim:0h6m21s) 
CPU  0 inst:   59000004 cyc:   28124356 now IPC :2.18451: AVG IPC :2.09992: L2-Pf-HR :0.93769: L2-HR :0.94550: (Sim:0h6m28s) 
CPU  0 inst:   60000001 cyc:   28578693 now IPC :2.20100: AVG IPC :2.10158: L2-Pf-HR :0.93838: L2-HR :0.94611: (Sim:0h6m35s) 
CPU  0 inst:   61000004 cyc:   29086661 now IPC :1.96863: AVG IPC :2.09918: L2-Pf-HR :0.93780: L2-HR :0.94560: (Sim:0h6m42s) 
CPU  0 inst:   62000004 cyc:   29532110 now IPC :2.24493: AVG IPC :2.10145: L2-Pf-HR :0.93728: L2-HR :0.94523: (Sim:0h6m49s) 
CPU  0 inst:   63000000 cyc:   30010813 now IPC :2.08897: AVG IPC :2.10125: L2-Pf-HR :0.93663: L2-HR :0.94472: (Sim:0h6m56s) 
CPU  0 inst:   64000005 cyc:   30457593 now IPC :2.23825: AVG IPC :2.10333: L2-Pf-HR :0.93621: L2-HR :0.94446: (Sim:0h7m3s) 
CPU  0 inst:   65000005 cyc:   31090525 now IPC :1.57995: AVG IPC :2.09232: L2-Pf-HR :0.93549: L2-HR :0.94360: (Sim:0h7m11s) 
CPU  0 inst:   66000004 cyc:   31565558 now IPC :2.10511: AVG IPC :2.09252: L2-Pf-HR :0.93550: L2-HR :0.94360: (Sim:0h7m19s) 
CPU  0 inst:   67000004 cyc:   32039366 now IPC :2.11056: AVG IPC :2.09280: L2-Pf-HR :0.93556: L2-HR :0.94365: (Sim:0h7m26s) 
CPU  0 inst:   68000002 cyc:   32515214 now IPC :2.10151: AVG IPC :2.09293: L2-Pf-HR :0.93560: L2-HR :0.94368: (Sim:0h7m33s) 
CPU  0 inst:   69000000 cyc:   32989547 now IPC :2.10822: AVG IPC :2.09316: L2-Pf-HR :0.93575: L2-HR :0.94380: (Sim:0h7m41s) 
CPU  0 inst:   70000002 cyc:   33463738 now IPC :2.10886: AVG IPC :2.09338: L2-Pf-HR :0.93633: L2-HR :0.94427: (Sim:0h7m48s) 
CPU  0 inst:   71000005 cyc:   34025967 now IPC :1.77864: AVG IPC :2.08803: L2-Pf-HR :0.93603: L2-HR :0.94389: (Sim:0h7m55s) 
CPU  0 inst:   72000000 cyc:   34502000 now IPC :2.10068: AVG IPC :2.08821: L2-Pf-HR :0.93601: L2-HR :0.94387: (Sim:0h8m3s) 
CPU  0 inst:   73000002 cyc:   34979884 now IPC :2.09256: AVG IPC :2.08827: L2-Pf-HR :0.93600: L2-HR :0.94385: (Sim:0h8m10s) 
CPU  0 inst:   74000002 cyc:   35456859 now IPC :2.09655: AVG IPC :2.08838: L2-Pf-HR :0.93603: L2-HR :0.94387: (Sim:0h8m18s) 
CPU  0 inst:   75000000 cyc:   35934639 now IPC :2.09301: AVG IPC :2.08845: L2-Pf-HR :0.93607: L2-HR :0.94389: (Sim:0h8m25s) 
CPU  0 inst:   76000001 cyc:   36410857 now IPC :2.09988: AVG IPC :2.08860: L2-Pf-HR :0.93646: L2-HR :0.94420: (Sim:0h8m32s) 
CPU  0 inst:   77000002 cyc:   37025199 now IPC :1.62776: AVG IPC :2.08075: L2-Pf-HR :0.93608: L2-HR :0.94366: (Sim:0h8m40s) 
CPU  0 inst:   78000001 cyc:   37484217 now IPC :2.17856: AVG IPC :2.08198: L2-Pf-HR :0.93600: L2-HR :0.94364: (Sim:0h8m48s) 
CPU  0 inst:   79000000 cyc:   37942682 now IPC :2.18119: AVG IPC :2.08321: L2-Pf-HR :0.93598: L2-HR :0.94367: (Sim:0h8m55s) 
CPU  0 inst:   80000001 cyc:   38402467 now IPC :2.17493: AVG IPC :2.08433: L2-Pf-HR :0.93600: L2-HR :0.94372: (Sim:0h9m3s) 
CPU  0 inst:   81000001 cyc:   38859272 now IPC :2.18912: AVG IPC :2.08560: L2-Pf-HR :0.93605: L2-HR :0.94380: (Sim:0h9m10s) 
CPU  0 inst:   82000001 cyc:   39315608 now IPC :2.19137: AVG IPC :2.08686: L2-Pf-HR :0.93641: L2-HR :0.94413: (Sim:0h9m17s) 
CPU  0 inst:   83000000 cyc:   39863114 now IPC :1.82646: AVG IPC :2.08319: L2-Pf-HR :0.93617: L2-HR :0.94385: (Sim:0h9m24s) 
CPU  0 inst:   84000000 cyc:   40323246 now IPC :2.17329: AVG IPC :2.08424: L2-Pf-HR :0.93616: L2-HR :0.94388: (Sim:0h9m32s) 
CPU  0 inst:   85000002 cyc:   40779320 now IPC :2.19263: AVG IPC :2.08549: L2-Pf-HR :0.93617: L2-HR :0.94393: (Sim:0h9m39s) 
CPU  0 inst:   86000005 cyc:   41235517 now IPC :2.19204: AVG IPC :2.08669: L2-Pf-HR :0.93617: L2-HR :0.94396: (Sim:0h9m47s) 
CPU  0 inst:   87000000 cyc:   41696594 now IPC :2.16882: AVG IPC :2.08762: L2-Pf-HR :0.93623: L2-HR :0.94404: (Sim:0h9m54s) 
CPU  0 inst:   88000002 cyc:   42152209 now IPC :2.19484: AVG IPC :2.08881: L2-Pf-HR :0.93667: L2-HR :0.94444: (Sim:0h10m8s) 
CPU  0 inst:   89000005 cyc:   42756761 now IPC :1.65412: AVG IPC :2.08252: L2-Pf-HR :0.93644: L2-HR :0.94409: (Sim:0h10m27s) 
CPU  0 inst:   90000000 cyc:   43217641 now IPC :2.16975: AVG IPC :2.08347: L2-Pf-HR :0.93639: L2-HR :0.94407: (Sim:0h10m34s) 
CPU  0 inst:   91000000 cyc:   43675496 now IPC :2.18410: AVG IPC :2.08455: L2-Pf-HR :0.93641: L2-HR :0.94413: (Sim:0h10m42s) 
CPU  0 inst:   92000000 cyc:   44129068 now IPC :2.20472: AVG IPC :2.08581: L2-Pf-HR :0.93642: L2-HR :0.94417: (Sim:0h10m49s) 
CPU  0 inst:   93000003 cyc:   44586777 now IPC :2.18480: AVG IPC :2.08685: L2-Pf-HR :0.93649: L2-HR :0.94426: (Sim:0h10m56s) 
CPU  0 inst:   94000000 cyc:   45045247 now IPC :2.18116: AVG IPC :2.08783: L2-Pf-HR :0.93683: L2-HR :0.94457: (Sim:0h11m4s) 
CPU  0 inst:   95000004 cyc:   45590719 now IPC :1.83328: AVG IPC :2.08472: L2-Pf-HR :0.93662: L2-HR :0.94433: (Sim:0h11m11s) 
CPU  0 inst:   96000004 cyc:   46048469 now IPC :2.18460: AVG IPC :2.08574: L2-Pf-HR :0.93657: L2-HR :0.94432: (Sim:0h11m19s) 
CPU  0 inst:   97000002 cyc:   46507856 now IPC :2.17681: AVG IPC :2.08666: L2-Pf-HR :0.93661: L2-HR :0.94438: (Sim:0h11m26s) 
CPU  0 inst:   98000004 cyc:   46963488 now IPC :2.19476: AVG IPC :2.08773: L2-Pf-HR :0.93662: L2-HR :0.94442: (Sim:0h11m34s) 
CPU  0 inst:   99000004 cyc:   47419014 now IPC :2.19526: AVG IPC :2.08878: L2-Pf-HR :0.93667: L2-HR :0.94449: (Sim:0h11m43s) 
CPU  0 inst:  100000004 cyc:   47876980 now IPC :2.18357: AVG IPC :2.08971: L2-Pf-HR :0.93704: L2-HR :0.94482: (Sim:0h11m53s) 
CPU  0 inst:  101000002 cyc:   48464990 now IPC :1.70065: AVG IPC :2.08489: L2-Pf-HR :0.93683: L2-HR :0.94450: (Sim:0h12m1s) 
CPU  0 inst:  102000003 cyc:   48922467 now IPC :2.18590: AVG IPC :2.08585: L2-Pf-HR :0.93679: L2-HR :0.94450: (Sim:0h12m8s) 
CPU  0 inst:  103000005 cyc:   49379033 now IPC :2.19027: AVG IPC :2.08684: L2-Pf-HR :0.93681: L2-HR :0.94455: (Sim:0h12m16s) 
CPU  0 inst:  104000002 cyc:   49836862 now IPC :2.18422: AVG IPC :2.08775: L2-Pf-HR :0.93682: L2-HR :0.94459: (Sim:0h12m25s) 
CPU  0 inst:  105000002 cyc:   50292974 now IPC :2.19244: AVG IPC :2.08872: L2-Pf-HR :0.93688: L2-HR :0.94466: (Sim:0h12m32s) 
CPU  0 inst:  106000001 cyc:   50748339 now IPC :2.19604: AVG IPC :2.08970: L2-Pf-HR :0.93719: L2-HR :0.94494: (Sim:0h12m39s) 
CPU  0 inst:  107000000 cyc:   51296166 now IPC :1.82539: AVG IPC :2.08682: L2-Pf-HR :0.93701: L2-HR :0.94473: (Sim:0h12m47s) 
CPU  0 inst:  108000000 cyc:   51754384 now IPC :2.18237: AVG IPC :2.08769: L2-Pf-HR :0.93699: L2-HR :0.94474: (Sim:0h12m56s) 
CPU  0 inst:  109000000 cyc:   52209217 now IPC :2.19861: AVG IPC :2.08867: L2-Pf-HR :0.93702: L2-HR :0.94479: (Sim:0h13m4s) 
CPU  0 inst:  110000000 cyc:   52667396 now IPC :2.18255: AVG IPC :2.08950: L2-Pf-HR :0.93703: L2-HR :0.94483: (Sim:0h13m13s) 
CPU  0 inst:  111000003 cyc:   53125567 now IPC :2.18260: AVG IPC :2.09032: L2-Pf-HR :0.93708: L2-HR :0.94490: (Sim:0h13m25s) 
CPU  0 inst:  112000005 cyc:   53579273 now IPC :2.20407: AVG IPC :2.09130: L2-Pf-HR :0.93741: L2-HR :0.94518: (Sim:0h13m37s) 
CPU  0 inst:  113000001 cyc:   54188474 now IPC :1.64149: AVG IPC :2.08615: L2-Pf-HR :0.93721: L2-HR :0.94490: (Sim:0h13m45s) 
CPU  0 inst:  114000001 cyc:   54649038 now IPC :2.17125: AVG IPC :2.08688: L2-Pf-HR :0.93720: L2-HR :0.94491: (Sim:0h13m53s) 
CPU  0 inst:  115000004 cyc:   55105701 now IPC :2.18981: AVG IPC :2.08775: L2-Pf-HR :0.93719: L2-HR :0.94493: (Sim:0h14m0s) 
CPU  0 inst:  116000005 cyc:   55562203 now IPC :2.19057: AVG IPC :2.08861: L2-Pf-HR :0.93719: L2-HR :0.94496: (Sim:0h14m8s) 
CPU  0 inst:  117000001 cyc:   56022349 now IPC :2.17321: AVG IPC :2.08932: L2-Pf-HR :0.93725: L2-HR :0.94503: (Sim:0h14m16s) 
CPU  0 inst:  118000005 cyc:   56477779 now IPC :2.19574: AVG IPC :2.09019: L2-Pf-HR :0.93753: L2-HR :0.94528: (Sim:0h14m25s) 
CPU  0 inst:  119000001 cyc:   57022182 now IPC :1.83687: AVG IPC :2.08773: L2-Pf-HR :0.93734: L2-HR :0.94507: (Sim:0h14m32s) 
CPU  0 inst:  120000001 cyc:   57481550 now IPC :2.17690: AVG IPC :2.08845: L2-Pf-HR :0.93733: L2-HR :0.94508: (Sim:0h14m40s) 
CPU  0 inst:  121000002 cyc:   57941065 now IPC :2.17621: AVG IPC :2.08916: L2-Pf-HR :0.93736: L2-HR :0.94513: (Sim:0h14m47s) 
CPU  0 inst:  122000005 cyc:   58395648 now IPC :2.19982: AVG IPC :2.09004: L2-Pf-HR :0.93735: L2-HR :0.94514: (Sim:0h14m56s) 
CPU  0 inst:  123000002 cyc:   58852191 now IPC :2.19037: AVG IPC :2.09083: L2-Pf-HR :0.93736: L2-HR :0.94518: (Sim:0h15m5s) 
CPU  0 inst:  124000003 cyc:   59310721 now IPC :2.18088: AVG IPC :2.09154: L2-Pf-HR :0.93768: L2-HR :0.94546: (Sim:0h15m20s) 
CPU  0 inst:  125000000 cyc:   59816657 now IPC :1.97653: AVG IPC :2.09055: L2-Pf-HR :0.93747: L2-HR :0.94526: (Sim:0h15m39s) 
CPU  0 inst:  126000001 cyc:   60262499 now IPC :2.24295: AVG IPC :2.09170: L2-Pf-HR :0.93719: L2-HR :0.94506: (Sim:0h15m56s) 
CPU  0 inst:  127000002 cyc:   60740508 now IPC :2.09201: AVG IPC :2.09170: L2-Pf-HR :0.93691: L2-HR :0.94485: (Sim:0h16m13s) 
CPU  0 inst:  128000005 cyc:   61186202 now IPC :2.24370: AVG IPC :2.09282: L2-Pf-HR :0.93668: L2-HR :0.94469: (Sim:0h16m30s) 
CPU  0 inst:  129000005 cyc:   61811064 now IPC :1.60035: AVG IPC :2.08776: L2-Pf-HR :0.93635: L2-HR :0.94430: (Sim:0h16m49s) 
CPU  0 inst:  130000001 cyc:   62288333 now IPC :2.09525: AVG IPC :2.08782: L2-Pf-HR :0.93633: L2-HR :0.94429: (Sim:0h17m6s) 
CPU  0 inst:  131000004 cyc:   62761424 now IPC :2.11376: AVG IPC :2.08802: L2-Pf-HR :0.93635: L2-HR :0.94430: (Sim:0h17m24s) 
CPU  0 inst:  132000003 cyc:   63233802 now IPC :2.11695: AVG IPC :2.08824: L2-Pf-HR :0.93639: L2-HR :0.94434: (Sim:0h17m41s) 
CPU  0 inst:  133000000 cyc:   63707051 now IPC :2.11305: AVG IPC :2.08843: L2-Pf-HR :0.93643: L2-HR :0.94437: (Sim:0h17m58s) 
CPU  0 inst:  134000003 cyc:   64180181 now IPC :2.11359: AVG IPC :2.08862: L2-Pf-HR :0.93668: L2-HR :0.94457: (Sim:0h18m15s) 
CPU  0 inst:  135000002 cyc:   64747940 now IPC :1.76131: AVG IPC :2.08570: L2-Pf-HR :0.93658: L2-HR :0.94441: (Sim:0h18m33s) 
CPU  0 inst:  136000000 cyc:   65224813 now IPC :2.09699: AVG IPC :2.08579: L2-Pf-HR :0.93656: L2-HR :0.94439: (Sim:0h18m51s) 
CPU  0 inst:  137000004 cyc:   65699943 now IPC :2.10470: AVG IPC :2.08593: L2-Pf-HR :0.93659: L2-HR :0.94442: (Sim:0h19m9s) 
CPU  0 inst:  138000002 cyc:   66174269 now IPC :2.10825: AVG IPC :2.08609: L2-Pf-HR :0.93658: L2-HR :0.94441: (Sim:0h19m26s) 
CPU  0 inst:  139000000 cyc:   66651179 now IPC :2.09683: AVG IPC :2.08617: L2-Pf-HR :0.93657: L2-HR :0.94440: (Sim:0h19m44s) 
CPU  0 inst:  140000001 cyc:   67125786 now IPC :2.10701: AVG IPC :2.08631: L2-Pf-HR :0.93677: L2-HR :0.94455: (Sim:0h20m1s) 
CPU  0 inst:  141000002 cyc:   67738583 now IPC :1.63186: AVG IPC :2.08214: L2-Pf-HR :0.93659: L2-HR :0.94428: (Sim:0h20m20s) 
CPU  0 inst:  142000003 cyc:   68197077 now IPC :2.18106: AVG IPC :2.08282: L2-Pf-HR :0.93656: L2-HR :0.94428: (Sim:0h20m37s) 
CPU  0 inst:  143000005 cyc:   68657613 now IPC :2.17139: AVG IPC :2.08342: L2-Pf-HR :0.93655: L2-HR :0.94430: (Sim:0h20m54s) 
CPU  0 inst:  144000002 cyc:   69115060 now IPC :2.18604: AVG IPC :2.08411: L2-Pf-HR :0.93654: L2-HR :0.94431: (Sim:0h21m11s) 
CPU  0 inst:  145000004 cyc:   69570753 now IPC :2.19446: AVG IPC :2.08484: L2-Pf-HR :0.93657: L2-HR :0.94436: (Sim:0h21m29s) 
CPU  0 inst:  146000001 cyc:   70029126 now IPC :2.18162: AVG IPC :2.08549: L2-Pf-HR :0.93673: L2-HR :0.94451: (Sim:0h21m46s) 
CPU  0 inst:  147000003 cyc:   70572405 now IPC :1.84068: AVG IPC :2.08357: L2-Pf-HR :0.93667: L2-HR :0.94441: (Sim:0h22m3s) 
CPU  0 inst:  148000000 cyc:   71030322 now IPC :2.18380: AVG IPC :2.08423: L2-Pf-HR :0.93662: L2-HR :0.94439: (Sim:0h22m21s) 
CPU  0 inst:  149000003 cyc:   71486302 now IPC :2.19309: AVG IPC :2.08493: L2-Pf-HR :0.93664: L2-HR :0.94443: (Sim:0h22m38s) 
CPU  0 inst:  150000000 cyc:   71944101 now IPC :2.18436: AVG IPC :2.08557: L2-Pf-HR :0.93667: L2-HR :0.94447: (Sim:0h22m51s) 
CPU  0 inst:  151000002 cyc:   72400955 now IPC :2.18889: AVG IPC :2.08624: L2-Pf-HR :0.93668: L2-HR :0.94450: (Sim:0h23m8s) 
CPU  0 inst:  152000000 cyc:   72856777 now IPC :2.19383: AVG IPC :2.08692: L2-Pf-HR :0.93687: L2-HR :0.94467: (Sim:0h23m23s) 
CPU  0 inst:  153000001 cyc:   73457192 now IPC :1.66552: AVG IPC :2.08343: L2-Pf-HR :0.93680: L2-HR :0.94452: (Sim:0h23m41s) 
CPU  0 inst:  154000001 cyc:   73918768 now IPC :2.16649: AVG IPC :2.08395: L2-Pf-HR :0.93679: L2-HR :0.94453: (Sim:0h23m59s) 
CPU  0 inst:  155000001 cyc:   74372313 now IPC :2.20485: AVG IPC :2.08470: L2-Pf-HR :0.93677: L2-HR :0.94454: (Sim:0h24m16s) 
CPU  0 inst:  156000001 cyc:   74828801 now IPC :2.19064: AVG IPC :2.08535: L2-Pf-HR :0.93678: L2-HR :0.94457: (Sim:0h24m34s) 
CPU  0 inst:  157000001 cyc:   75286815 now IPC :2.18334: AVG IPC :2.08596: L2-Pf-HR :0.93682: L2-HR :0.94462: (Sim:0h24m52s) 
CPU  0 inst:  158000000 cyc:   75742109 now IPC :2.19638: AVG IPC :2.08663: L2-Pf-HR :0.93697: L2-HR :0.94475: (Sim:0h25m9s) 
CPU  0 inst:  159000002 cyc:   76284157 now IPC :1.84486: AVG IPC :2.08489: L2-Pf-HR :0.93689: L2-HR :0.94465: (Sim:0h25m28s) 
CPU  0 inst:  160000005 cyc:   76745048 now IPC :2.16972: AVG IPC :2.08541: L2-Pf-HR :0.93687: L2-HR :0.94465: (Sim:0h25m45s) 
CPU  0 inst:  161000002 cyc:   77200675 now IPC :2.19477: AVG IPC :2.08606: L2-Pf-HR :0.93690: L2-HR :0.94470: (Sim:0h26m3s) 
CPU  0 inst:  162000003 cyc:   77656611 now IPC :2.19329: AVG IPC :2.08670: L2-Pf-HR :0.93689: L2-HR :0.94470: (Sim:0h26m20s) 
CPU  0 inst:  163000002 cyc:   78113183 now IPC :2.19023: AVG IPC :2.08731: L2-Pf-HR :0.93691: L2-HR :0.94474: (Sim:0h26m38s) 
CPU  0 inst:  164000000 cyc:   78569626 now IPC :2.19085: AVG IPC :2.08792: L2-Pf-HR :0.93711: L2-HR :0.94492: (Sim:0h26m56s) 
CPU  0 inst:  165000003 cyc:   79168983 now IPC :1.66846: AVG IPC :2.08470: L2-Pf-HR :0.93700: L2-HR :0.94475: (Sim:0h27m14s) 
CPU  0 inst:  166000002 cyc:   79627936 now IPC :2.17887: AVG IPC :2.08525: L2-Pf-HR :0.93699: L2-HR :0.94476: (Sim:0h27m32s) 
CPU  0 inst:  167000003 cyc:   80087047 now IPC :2.17812: AVG IPC :2.08579: L2-Pf-HR :0.93700: L2-HR :0.94478: (Sim:0h27m50s) 
CPU  0 inst:  168000003 cyc:   80541468 now IPC :2.20060: AVG IPC :2.08645: L2-Pf-HR :0.93699: L2-HR :0.94479: (Sim:0h28m7s) 
CPU  0 inst:  169000004 cyc:   80997483 now IPC :2.19291: AVG IPC :2.08706: L2-Pf-HR :0.93702: L2-HR :0.94483: (Sim:0h28m25s) 
CPU  0 inst:  170000004 cyc:   81456353 now IPC :2.17927: AVG IPC :2.08758: L2-Pf-HR :0.93718: L2-HR :0.94497: (Sim:0h28m42s) 
CPU  0 inst:  171000004 cyc:   81999180 now IPC :1.84221: AVG IPC :2.08594: L2-Pf-HR :0.93712: L2-HR :0.94489: (Sim:0h29m0s) 
CPU  0 inst:  172000004 cyc:   82456947 now IPC :2.18452: AVG IPC :2.08649: L2-Pf-HR :0.93709: L2-HR :0.94489: (Sim:0h29m18s) 
CPU  0 inst:  173000001 cyc:   82916455 now IPC :2.17623: AVG IPC :2.08699: L2-Pf-HR :0.93711: L2-HR :0.94492: (Sim:0h29m35s) 
CPU  0 inst:  174000001 cyc:   83375056 now IPC :2.18054: AVG IPC :2.08752: L2-Pf-HR :0.93712: L2-HR :0.94494: (Sim:0h29m53s) 
CPU  0 inst:  175000001 cyc:   83831070 now IPC :2.19292: AVG IPC :2.08810: L2-Pf-HR :0.93713: L2-HR :0.94497: (Sim:0h30m10s) 
CPU  0 inst:  176000002 cyc:   84287498 now IPC :2.19093: AVG IPC :2.08866: L2-Pf-HR :0.93729: L2-HR :0.94511: (Sim:0h30m27s) 
CPU  0 inst:  177000004 cyc:   84892711 now IPC :1.65231: AVG IPC :2.08551: L2-Pf-HR :0.93722: L2-HR :0.94497: (Sim:0h30m46s) 
CPU  0 inst:  178000001 cyc:   85351409 now IPC :2.18008: AVG IPC :2.08603: L2-Pf-HR :0.93718: L2-HR :0.94496: (Sim:0h31m3s) 
CPU  0 inst:  179000002 cyc:   85806736 now IPC :2.19623: AVG IPC :2.08662: L2-Pf-HR :0.93717: L2-HR :0.94497: (Sim:0h31m20s) 
CPU  0 inst:  180000005 cyc:   86267997 now IPC :2.16798: AVG IPC :2.08706: L2-Pf-HR :0.93719: L2-HR :0.94500: (Sim:0h31m38s) 
CPU  0 inst:  181000000 cyc:   86726492 now IPC :2.18104: AVG IPC :2.08756: L2-Pf-HR :0.93723: L2-HR :0.94504: (Sim:0h31m55s) 
CPU  0 inst:  182000003 cyc:   87180770 now IPC :2.20130: AVG IPC :2.08816: L2-Pf-HR :0.93736: L2-HR :0.94517: (Sim:0h32m12s) 
CPU  0 inst:  183000003 cyc:   87725326 now IPC :1.83636: AVG IPC :2.08658: L2-Pf-HR :0.93730: L2-HR :0.94508: (Sim:0h32m30s) 
CPU  0 inst:  184000003 cyc:   88186060 now IPC :2.17045: AVG IPC :2.08702: L2-Pf-HR :0.93729: L2-HR :0.94509: (Sim:0h32m47s) 
CPU  0 inst:  185000004 cyc:   88642672 now IPC :2.19005: AVG IPC :2.08756: L2-Pf-HR :0.93730: L2-HR :0.94511: (Sim:0h33m5s) 
CPU  0 inst:  186000003 cyc:   89097553 now IPC :2.19837: AVG IPC :2.08813: L2-Pf-HR :0.93730: L2-HR :0.94513: (Sim:0h33m22s) 
CPU  0 inst:  187000001 cyc:   89557530 now IPC :2.17402: AVG IPC :2.08858: L2-Pf-HR :0.93733: L2-HR :0.94517: (Sim:0h33m39s) 
CPU  0 inst:  188000001 cyc:   90013540 now IPC :2.19293: AVG IPC :2.08911: L2-Pf-HR :0.93750: L2-HR :0.94531: (Sim:0h33m56s) 
CPU  0 inst:  189000004 cyc:   90523045 now IPC :1.96270: AVG IPC :2.08839: L2-Pf-HR :0.93745: L2-HR :0.94526: (Sim:0h34m11s) 
CPU  0 inst:  190000002 cyc:   90969927 now IPC :2.23772: AVG IPC :2.08913: L2-Pf-HR :0.93725: L2-HR :0.94512: (Sim:0h34m21s) 
CPU  0 inst:  191000005 cyc:   91446014 now IPC :2.10046: AVG IPC :2.08919: L2-Pf-HR :0.93707: L2-HR :0.94498: (Sim:0h34m29s) 
CPU  0 inst:  192000001 cyc:   91890144 now IPC :2.25158: AVG IPC :2.08999: L2-Pf-HR :0.93691: L2-HR :0.94487: (Sim:0h34m40s) 
CPU  0 inst:  193000002 cyc:   92508846 now IPC :1.61629: AVG IPC :2.08678: L2-Pf-HR :0.93667: L2-HR :0.94461: (Sim:0h34m58s) 
CPU  0 inst:  194000000 cyc:   92984633 now IPC :2.10178: AVG IPC :2.08686: L2-Pf-HR :0.93666: L2-HR :0.94459: (Sim:0h35m15s) 
CPU  0 inst:  195000004 cyc:   93458997 now IPC :2.10809: AVG IPC :2.08697: L2-Pf-HR :0.93667: L2-HR :0.94460: (Sim:0h35m33s) 
CPU  0 inst:  196000005 cyc:   93931144 now IPC :2.11799: AVG IPC :2.08713: L2-Pf-HR :0.93669: L2-HR :0.94462: (Sim:0h35m44s) 
CPU  0 inst:  197000000 cyc:   94402217 now IPC :2.12280: AVG IPC :2.08731: L2-Pf-HR :0.93672: L2-HR :0.94464: (Sim:0h35m52s) 
CPU  0 inst:  198000004 cyc:   94876211 now IPC :2.10974: AVG IPC :2.08742: L2-Pf-HR :0.93685: L2-HR :0.94474: (Sim:0h36m2s) 
CPU  0 inst:  199000005 cyc:   95438240 now IPC :1.77927: AVG IPC :2.08559: L2-Pf-HR :0.93682: L2-HR :0.94467: (Sim:0h36m11s) 
CPU  0 inst:  200000000 cyc:   95913331 now IPC :2.10485: AVG IPC :2.08568: L2-Pf-HR :0.93680: L2-HR :0.94465: (Sim:0h36m23s) 
CPU  0 inst:  201000004 cyc:   96387016 now IPC :2.11112: AVG IPC :2.08581: L2-Pf-HR :0.93680: L2-HR :0.94466: (Sim:0h36m41s) 
CPU  0 inst:  202000002 cyc:   96861656 now IPC :2.10686: AVG IPC :2.08591: L2-Pf-HR :0.93680: L2-HR :0.94465: (Sim:0h36m59s) 
CPU  0 inst:  203000003 cyc:   97339917 now IPC :2.09091: AVG IPC :2.08594: L2-Pf-HR :0.93680: L2-HR :0.94465: (Sim:0h37m17s) 
CPU  0 inst:  204000003 cyc:   97815449 now IPC :2.10291: AVG IPC :2.08602: L2-Pf-HR :0.93690: L2-HR :0.94473: (Sim:0h37m35s) 
CPU  0 inst:  205000004 cyc:   98428366 now IPC :1.63154: AVG IPC :2.08316: L2-Pf-HR :0.93684: L2-HR :0.94459: (Sim:0h37m45s) 
CPU  0 inst:  206000003 cyc:   98889632 now IPC :2.16794: AVG IPC :2.08356: L2-Pf-HR :0.93681: L2-HR :0.94458: (Sim:0h37m54s) 
CPU  0 inst:  207000003 cyc:   99345057 now IPC :2.19575: AVG IPC :2.08408: L2-Pf-HR :0.93681: L2-HR :0.94459: (Sim:0h38m7s) 
CPU  0 inst:  208000003 cyc:   99799414 now IPC :2.20091: AVG IPC :2.08462: L2-Pf-HR :0.93679: L2-HR :0.94460: (Sim:0h38m24s) 
CPU  0 inst:  209000003 cyc:  100256675 now IPC :2.18693: AVG IPC :2.08509: L2-Pf-HR :0.93680: L2-HR :0.94462: (Sim:0h38m42s) 
CPU  0 inst:  210000004 cyc:  100714517 now IPC :2.18416: AVG IPC :2.08555: L2-Pf-HR :0.93689: L2-HR :0.94470: (Sim:0h38m59s) 
CPU  0 inst:  211000001 cyc:  101253126 now IPC :1.85663: AVG IPC :2.08432: L2-Pf-HR :0.93687: L2-HR :0.94465: (Sim:0h39m17s) 
CPU  0 inst:  212000001 cyc:  101711510 now IPC :2.18158: AVG IPC :2.08476: L2-Pf-HR :0.93683: L2-HR :0.94464: (Sim:0h39m35s) 
CPU  0 inst:  213000005 cyc:  102169169 now IPC :2.18504: AVG IPC :2.08521: L2-Pf-HR :0.93685: L2-HR :0.94467: (Sim:0h39m52s) 
CPU  0 inst:  214000001 cyc:  102624434 now IPC :2.19651: AVG IPC :2.08571: L2-Pf-HR :0.93686: L2-HR :0.94469: (Sim:0h40m10s) 
CPU  0 inst:  215000001 cyc:  103077495 now IPC :2.20721: AVG IPC :2.08625: L2-Pf-HR :0.93687: L2-HR :0.94471: (Sim:0h40m27s) 
CPU  0 inst:  216000005 cyc:  103535304 now IPC :2.18433: AVG IPC :2.08669: L2-Pf-HR :0.93698: L2-HR :0.94481: (Sim:0h40m45s) 
CPU  0 inst:  217000001 cyc:  104127728 now IPC :1.68797: AVG IPC :2.08440: L2-Pf-HR :0.93695: L2-HR :0.94473: (Sim:0h41m3s) 
CPU  0 inst:  218000005 cyc:  104584914 now IPC :2.18730: AVG IPC :2.08485: L2-Pf-HR :0.93693: L2-HR :0.94472: (Sim:0h41m21s) 
CPU  0 inst:  219000005 cyc:  105041861 now IPC :2.18844: AVG IPC :2.08531: L2-Pf-HR :0.93693: L2-HR :0.94474: (Sim:0h41m38s) 
CPU  0 inst:  220000005 cyc:  105496063 now IPC :2.20166: AVG IPC :2.08581: L2-Pf-HR :0.93694: L2-HR :0.94476: (Sim:0h41m56s) 
CPU  0 inst:  221000003 cyc:  105949827 now IPC :2.20378: AVG IPC :2.08632: L2-Pf-HR :0.93695: L2-HR :0.94478: (Sim:0h42m13s) 
CPU  0 inst:  222000000 cyc:  106403413 now IPC :2.20465: AVG IPC :2.08683: L2-Pf-HR :0.93705: L2-HR :0.94488: (Sim:0h42m31s) 
CPU  0 inst:  223000000 cyc:  106946831 now IPC :1.84020: AVG IPC :2.08557: L2-Pf-HR :0.93706: L2-HR :0.94486: (Sim:0h42m43s) 
CPU  0 inst:  224000004 cyc:  107403580 now IPC :2.18939: AVG IPC :2.08601: L2-Pf-HR :0.93704: L2-HR :0.94486: (Sim:0h42m52s) 
CPU  0 inst:  225000003 cyc:  107856728 now IPC :2.20678: AVG IPC :2.08652: L2-Pf-HR :0.93704: L2-HR :0.94487: (Sim:0h43m0s) 
CPU  0 inst:  226000003 cyc:  108312507 now IPC :2.19405: AVG IPC :2.08698: L2-Pf-HR :0.93705: L2-HR :0.94489: (Sim:0h43m10s) 
CPU  0 inst:  227000001 cyc:  108767738 now IPC :2.19668: AVG IPC :2.08744: L2-Pf-HR :0.93706: L2-HR :0.94492: (Sim:0h43m19s) 
CPU  0 inst:  228000004 cyc:  109221105 now IPC :2.20573: AVG IPC :2.08794: L2-Pf-HR :0.93716: L2-HR :0.94501: (Sim:0h43m31s) 
CPU  0 inst:  229000001 cyc:  109813588 now IPC :1.68781: AVG IPC :2.08576: L2-Pf-HR :0.93715: L2-HR :0.94494: (Sim:0h43m49s) 
CPU  0 inst:  230000003 cyc:  110272738 now IPC :2.17794: AVG IPC :2.08615: L2-Pf-HR :0.93712: L2-HR :0.94493: (Sim:0h44m7s) 
CPU  0 inst:  231000000 cyc:  110726833 now IPC :2.20218: AVG IPC :2.08663: L2-Pf-HR :0.93712: L2-HR :0.94495: (Sim:0h44m25s) 
CPU  0 inst:  232000005 cyc:  111181224 now IPC :2.20076: AVG IPC :2.08710: L2-Pf-HR :0.93712: L2-HR :0.94496: (Sim:0h44m42s) 
CPU  0 inst:  233000005 cyc:  111638687 now IPC :2.18597: AVG IPC :2.08751: L2-Pf-HR :0.93714: L2-HR :0.94498: (Sim:0h45m0s) 
CPU  0 inst:  234000002 cyc:  112095107 now IPC :2.19096: AVG IPC :2.08793: L2-Pf-HR :0.93722: L2-HR :0.94506: (Sim:0h45m18s) 
CPU  0 inst:  235000002 cyc:  112633005 now IPC :1.85909: AVG IPC :2.08683: L2-Pf-HR :0.93719: L2-HR :0.94501: (Sim:0h45m36s) 
CPU  0 inst:  236000002 cyc:  113091676 now IPC :2.18021: AVG IPC :2.08721: L2-Pf-HR :0.93719: L2-HR :0.94502: (Sim:0h45m54s) 
CPU  0 inst:  237000000 cyc:  113548132 now IPC :2.19079: AVG IPC :2.08763: L2-Pf-HR :0.93719: L2-HR :0.94504: (Sim:0h46m6s) 
CPU  0 inst:  238000003 cyc:  114001073 now IPC :2.20780: AVG IPC :2.08811: L2-Pf-HR :0.93719: L2-HR :0.94505: (Sim:0h46m14s) 
CPU  0 inst:  239000003 cyc:  114455563 now IPC :2.20027: AVG IPC :2.08856: L2-Pf-HR :0.93720: L2-HR :0.94507: (Sim:0h46m22s) 
CPU  0 inst:  240000003 cyc:  114912925 now IPC :2.18645: AVG IPC :2.08896: L2-Pf-HR :0.93731: L2-HR :0.94517: (Sim:0h46m31s) 
CPU  0 inst:  241000000 cyc:  115511877 now IPC :1.66958: AVG IPC :2.08676: L2-Pf-HR :0.93729: L2-HR :0.94509: (Sim:0h46m40s) 
CPU  0 inst:  242000001 cyc:  115969333 now IPC :2.18600: AVG IPC :2.08716: L2-Pf-HR :0.93726: L2-HR :0.94508: (Sim:0h46m49s) 
CPU  0 inst:  243000000 cyc:  116425302 now IPC :2.19313: AVG IPC :2.08758: L2-Pf-HR :0.93727: L2-HR :0.94510: (Sim:0h46m58s) 
CPU  0 inst:  244000001 cyc:  116880539 now IPC :2.19666: AVG IPC :2.08801: L2-Pf-HR :0.93727: L2-HR :0.94512: (Sim:0h47m6s) 
CPU  0 inst:  245000000 cyc:  117334132 now IPC :2.20462: AVG IPC :2.08846: L2-Pf-HR :0.93728: L2-HR :0.94514: (Sim:0h47m15s) 
CPU  0 inst:  246000001 cyc:  117790163 now IPC :2.19284: AVG IPC :2.08887: L2-Pf-HR :0.93736: L2-HR :0.94521: (Sim:0h47m24s) 
CPU  0 inst:  247000001 cyc:  118332848 now IPC :1.84269: AVG IPC :2.08773: L2-Pf-HR :0.93734: L2-HR :0.94517: (Sim:0h47m32s) 
CPU  0 inst:  248000004 cyc:  118789972 now IPC :2.18760: AVG IPC :2.08812: L2-Pf-HR :0.93732: L2-HR :0.94516: (Sim:0h47m41s) 
CPU  0 inst:  249000004 cyc:  119244341 now IPC :2.20085: AVG IPC :2.08855: L2-Pf-HR :0.93733: L2-HR :0.94518: (Sim:0h47m50s) 
CPU  0 inst:  250000002 cyc:  119700824 now IPC :2.19066: AVG IPC :2.08894: L2-Pf-HR :0.93733: L2-HR :0.94520: (Sim:0h47m59s) 
CPU  0 inst:  251000005 cyc:  120154511 now IPC :2.20417: AVG IPC :2.08938: L2-Pf-HR :0.93734: L2-HR :0.94522: (Sim:0h48m9s) 
CPU  0 inst:  252000002 cyc:  120607145 now IPC :2.20928: AVG IPC :2.08983: L2-Pf-HR :0.93744: L2-HR :0.94531: (Sim:0h48m21s) 
CPU  0 inst:  253000002 cyc:  121115796 now IPC :1.96598: AVG IPC :2.08931: L2-Pf-HR :0.93745: L2-HR :0.94530: (Sim:0h48m38s) 
CPU  0 inst:  254000005 cyc:  121560582 now IPC :2.24828: AVG IPC :2.08990: L2-Pf-HR :0.93729: L2-HR :0.94519: (Sim:0h48m56s) 
CPU  0 inst:  255000005 cyc:  122033531 now IPC :2.11439: AVG IPC :2.08999: L2-Pf-HR :0.93716: L2-HR :0.94509: (Sim:0h49m13s) 
CPU  0 inst:  256000005 cyc:  122478337 now IPC :2.24817: AVG IPC :2.09057: L2-Pf-HR :0.93704: L2-HR :0.94501: (Sim:0h49m31s) 
CPU  0 inst:  257000002 cyc:  123098201 now IPC :1.61325: AVG IPC :2.08815: L2-Pf-HR :0.93686: L2-HR :0.94481: (Sim:0h49m49s) 
CPU  0 inst:  258000000 cyc:  123575901 now IPC :2.09336: AVG IPC :2.08817: L2-Pf-HR :0.93684: L2-HR :0.94479: (Sim:0h50m7s) 
CPU  0 inst:  259000004 cyc:  124047984 now IPC :2.11828: AVG IPC :2.08828: L2-Pf-HR :0.93685: L2-HR :0.94480: (Sim:0h50m25s) 
CPU  0 inst:  260000000 cyc:  124520244 now IPC :2.11747: AVG IPC :2.08840: L2-Pf-HR :0.93686: L2-HR :0.94481: (Sim:0h50m42s) 
CPU  0 inst:  261000000 cyc:  124991085 now IPC :2.12386: AVG IPC :2.08853: L2-Pf-HR :0.93688: L2-HR :0.94482: (Sim:0h51m0s) 
CPU  0 inst:  262000001 cyc:  125463565 now IPC :2.11649: AVG IPC :2.08864: L2-Pf-HR :0.93696: L2-HR :0.94489: (Sim:0h51m17s) 
CPU  0 inst:  263000005 cyc:  126023011 now IPC :1.78749: AVG IPC :2.08729: L2-Pf-HR :0.93696: L2-HR :0.94485: (Sim:0h51m35s) 
CPU  0 inst:  264000005 cyc:  126503461 now IPC :2.08138: AVG IPC :2.08727: L2-Pf-HR :0.93694: L2-HR :0.94483: (Sim:0h51m52s) 
CPU  0 inst:  265000000 cyc:  126977562 now IPC :2.10924: AVG IPC :2.08735: L2-Pf-HR :0.93695: L2-HR :0.94483: (Sim:0h52m10s) 
CPU  0 inst:  266000001 cyc:  127452439 now IPC :2.10581: AVG IPC :2.08742: L2-Pf-HR :0.93695: L2-HR :0.94483: (Sim:0h52m27s) 
CPU  0 inst:  267000003 cyc:  127927520 now IPC :2.10491: AVG IPC :2.08748: L2-Pf-HR :0.93695: L2-HR :0.94483: (Sim:0h52m45s) 
CPU  0 inst:  268000003 cyc:  128403194 now IPC :2.10228: AVG IPC :2.08754: L2-Pf-HR :0.93700: L2-HR :0.94487: (Sim:0h53m2s) 
CPU  0 inst:  269000004 cyc:  129018083 now IPC :1.62631: AVG IPC :2.08532: L2-Pf-HR :0.93699: L2-HR :0.94479: (Sim:0h53m20s) 
CPU  0 inst:  270000004 cyc:  129484614 now IPC :2.14348: AVG IPC :2.08554: L2-Pf-HR :0.93693: L2-HR :0.94476: (Sim:0h53m38s) 
CPU  0 inst:  271000004 cyc:  129939578 now IPC :2.19798: AVG IPC :2.08593: L2-Pf-HR :0.93692: L2-HR :0.94476: (Sim:0h53m55s) 
CPU  0 inst:  272000004 cyc:  130395780 now IPC :2.19201: AVG IPC :2.08631: L2-Pf-HR :0.93691: L2-HR :0.94476: (Sim:0h54m13s) 
CPU  0 inst:  273000000 cyc:  130853453 now IPC :2.18496: AVG IPC :2.08665: L2-Pf-HR :0.93691: L2-HR :0.94477: (Sim:0h54m30s) 
CPU  0 inst:  274000001 cyc:  131308808 now IPC :2.19609: AVG IPC :2.08704: L2-Pf-HR :0.93697: L2-HR :0.94483: (Sim:0h54m47s) 
CPU  0 inst:  275000005 cyc:  131844928 now IPC :1.86526: AVG IPC :2.08613: L2-Pf-HR :0.93698: L2-HR :0.94482: (Sim:0h55m4s) 
CPU  0 inst:  276000002 cyc:  132304414 now IPC :2.17634: AVG IPC :2.08644: L2-Pf-HR :0.93696: L2-HR :0.94481: (Sim:0h55m22s) 
CPU  0 inst:  277000004 cyc:  132760311 now IPC :2.19348: AVG IPC :2.08681: L2-Pf-HR :0.93696: L2-HR :0.94482: (Sim:0h55m39s) 
CPU  0 inst:  278000002 cyc:  133212669 now IPC :2.21063: AVG IPC :2.08724: L2-Pf-HR :0.93697: L2-HR :0.94484: (Sim:0h55m56s) 
CPU  0 inst:  279000000 cyc:  133670952 now IPC :2.18205: AVG IPC :2.08756: L2-Pf-HR :0.93698: L2-HR :0.94486: (Sim:0h56m14s) 
CPU  0 inst:  280000000 cyc:  134128295 now IPC :2.18654: AVG IPC :2.08790: L2-Pf-HR :0.93703: L2-HR :0.94491: (Sim:0h56m30s) 
CPU  0 inst:  281000000 cyc:  134716771 now IPC :1.69930: AVG IPC :2.08619: L2-Pf-HR :0.93705: L2-HR :0.94488: (Sim:0h56m48s) 
CPU  0 inst:  282000001 cyc:  135183101 now IPC :2.14441: AVG IPC :2.08640: L2-Pf-HR :0.93701: L2-HR :0.94485: (Sim:0h57m6s) 
CPU  0 inst:  283000003 cyc:  135639274 now IPC :2.19216: AVG IPC :2.08676: L2-Pf-HR :0.93702: L2-HR :0.94487: (Sim:0h57m22s) 
CPU  0 inst:  284000004 cyc:  136093675 now IPC :2.20070: AVG IPC :2.08714: L2-Pf-HR :0.93702: L2-HR :0.94488: (Sim:0h57m39s) 
CPU  0 inst:  285000000 cyc:  136548289 now IPC :2.19966: AVG IPC :2.08752: L2-Pf-HR :0.93703: L2-HR :0.94490: (Sim:0h57m56s) 
CPU  0 inst:  286000001 cyc:  137004162 now IPC :2.19360: AVG IPC :2.08787: L2-Pf-HR :0.93708: L2-HR :0.94495: (Sim:0h58m10s) 
CPU  0 inst:  287000004 cyc:  137543819 now IPC :1.85303: AVG IPC :2.08694: L2-Pf-HR :0.93710: L2-HR :0.94495: (Sim:0h58m28s) 
CPU  0 inst:  288000000 cyc:  138000597 now IPC :2.18924: AVG IPC :2.08728: L2-Pf-HR :0.93709: L2-HR :0.94495: (Sim:0h58m45s) 
CPU  0 inst:  289000002 cyc:  138457375 now IPC :2.18925: AVG IPC :2.08762: L2-Pf-HR :0.93709: L2-HR :0.94496: (Sim:0h59m2s) 
CPU  0 inst:  290000002 cyc:  138913541 now IPC :2.19218: AVG IPC :2.08797: L2-Pf-HR :0.93710: L2-HR :0.94498: (Sim:0h59m19s) 
CPU  0 inst:  291000005 cyc:  139368579 now IPC :2.19763: AVG IPC :2.08833: L2-Pf-HR :0.93711: L2-HR :0.94499: (Sim:0h59m32s) 
CPU  0 inst:  292000002 cyc:  139824455 now IPC :2.19357: AVG IPC :2.08868: L2-Pf-HR :0.93716: L2-HR :0.94505: (Sim:0h59m45s) 
CPU  0 inst:  293000005 cyc:  140417082 now IPC :1.68741: AVG IPC :2.08697: L2-Pf-HR :0.93719: L2-HR :0.94502: (Sim:1h0m1s) 
CPU  0 inst:  294000002 cyc:  140880980 now IPC :2.15564: AVG IPC :2.08720: L2-Pf-HR :0.93715: L2-HR :0.94500: (Sim:1h0m18s) 
CPU  0 inst:  295000001 cyc:  141334350 now IPC :2.20570: AVG IPC :2.08758: L2-Pf-HR :0.93715: L2-HR :0.94501: (Sim:1h0m36s) 
CPU  0 inst:  296000002 cyc:  141790027 now IPC :2.19454: AVG IPC :2.08793: L2-Pf-HR :0.93715: L2-HR :0.94502: (Sim:1h0m53s) 
CPU  0 inst:  297000003 cyc:  142245116 now IPC :2.19737: AVG IPC :2.08828: L2-Pf-HR :0.93717: L2-HR :0.94504: (Sim:1h1m10s) 
CPU  0 inst:  298000003 cyc:  142698816 now IPC :2.20410: AVG IPC :2.08865: L2-Pf-HR :0.93723: L2-HR :0.94510: (Sim:1h1m28s) 
CPU  0 inst:  299000000 cyc:  143240564 now IPC :1.84587: AVG IPC :2.08773: L2-Pf-HR :0.93724: L2-HR :0.94509: (Sim:1h1m45s) 
xz: 770-tot_memTraces_v5/120-subBillion_s2048_LLM_Arch/memTraces[1319000000]_FE_[Pythia-70M]_[h8]_[s2048]_[d64].champsim.9SSize.xz: Unexpected end of input
*** Reached end of trace for Core: 0 Repeating trace: 770-tot_memTraces_v5/120-subBillion_s2048_LLM_Arch/memTraces[1319000000]_FE_[Pythia-70M]_[h8]_[s2048]_[d64].champsim.9SSize.xz
CPU  0 inst:  300000004 cyc:  144071221 now IPC :1.20387: AVG IPC :2.08259: L2-Pf-HR :0.93697: L2-HR :0.94477: (Sim:1h2m3s) 
CPU  0 inst:  301000005 cyc:  144546584 now IPC :2.10366: AVG IPC :2.08266: L2-Pf-HR :0.93697: L2-HR :0.94477: (Sim:1h2m21s) 
CPU  0 inst:  302000002 cyc:  145020316 now IPC :2.11089: AVG IPC :2.08276: L2-Pf-HR :0.93698: L2-HR :0.94478: (Sim:1h2m39s) 
CPU  0 inst:  303000001 cyc:  145495078 now IPC :2.10632: AVG IPC :2.08283: L2-Pf-HR :0.93699: L2-HR :0.94479: (Sim:1h2m56s) 
CPU  0 inst:  304000005 cyc:  145966863 now IPC :2.11962: AVG IPC :2.08295: L2-Pf-HR :0.93700: L2-HR :0.94480: (Sim:1h3m14s) 
CPU  0 inst:  305000000 cyc:  146439238 now IPC :2.11695: AVG IPC :2.08306: L2-Pf-HR :0.93711: L2-HR :0.94488: (Sim:1h3m31s) 
CPU  0 inst:  306000005 cyc:  147000107 now IPC :1.78296: AVG IPC :2.08191: L2-Pf-HR :0.93706: L2-HR :0.94481: (Sim:1h3m49s) 
CPU  0 inst:  307000005 cyc:  147476896 now IPC :2.09736: AVG IPC :2.08196: L2-Pf-HR :0.93703: L2-HR :0.94479: (Sim:1h4m7s) 
CPU  0 inst:  308000000 cyc:  147953828 now IPC :2.09672: AVG IPC :2.08201: L2-Pf-HR :0.93701: L2-HR :0.94477: (Sim:1h4m24s) 
CPU  0 inst:  309000000 cyc:  148431492 now IPC :2.09352: AVG IPC :2.08205: L2-Pf-HR :0.93700: L2-HR :0.94475: (Sim:1h4m42s) 
CPU  0 inst:  310000000 cyc:  148910079 now IPC :2.08948: AVG IPC :2.08207: L2-Pf-HR :0.93698: L2-HR :0.94474: (Sim:1h4m59s) 
CPU  0 inst:  311000005 cyc:  149386402 now IPC :2.09943: AVG IPC :2.08213: L2-Pf-HR :0.93705: L2-HR :0.94479: (Sim:1h5m16s) 
CPU  0 inst:  312000004 cyc:  150008355 now IPC :1.60784: AVG IPC :2.08015: L2-Pf-HR :0.93697: L2-HR :0.94467: (Sim:1h5m35s) 
CPU  0 inst:  313000002 cyc:  150467432 now IPC :2.17828: AVG IPC :2.08045: L2-Pf-HR :0.93694: L2-HR :0.94466: (Sim:1h5m52s) 
CPU  0 inst:  314000004 cyc:  150924777 now IPC :2.18654: AVG IPC :2.08077: L2-Pf-HR :0.93693: L2-HR :0.94466: (Sim:1h6m9s) 
CPU  0 inst:  315000002 cyc:  151382988 now IPC :2.18240: AVG IPC :2.08108: L2-Pf-HR :0.93693: L2-HR :0.94467: (Sim:1h6m27s) 
CPU  0 inst:  316000000 cyc:  151836904 now IPC :2.20305: AVG IPC :2.08145: L2-Pf-HR :0.93693: L2-HR :0.94468: (Sim:1h6m44s) 
CPU  0 inst:  317000001 cyc:  152294310 now IPC :2.18624: AVG IPC :2.08177: L2-Pf-HR :0.93702: L2-HR :0.94476: (Sim:1h7m1s) 
CPU  0 inst:  318000002 cyc:  152837900 now IPC :1.83962: AVG IPC :2.08090: L2-Pf-HR :0.93699: L2-HR :0.94472: (Sim:1h7m19s) 
CPU  0 inst:  319000002 cyc:  153297424 now IPC :2.17616: AVG IPC :2.08119: L2-Pf-HR :0.93697: L2-HR :0.94471: (Sim:1h7m36s) 
CPU  0 inst:  320000002 cyc:  153754669 now IPC :2.18701: AVG IPC :2.08150: L2-Pf-HR :0.93697: L2-HR :0.94472: (Sim:1h7m53s) 
CPU  0 inst:  321000005 cyc:  154212306 now IPC :2.18514: AVG IPC :2.08181: L2-Pf-HR :0.93698: L2-HR :0.94473: (Sim:1h8m10s) 
CPU  0 inst:  322000003 cyc:  154670601 now IPC :2.18200: AVG IPC :2.08211: L2-Pf-HR :0.93699: L2-HR :0.94475: (Sim:1h8m28s) 
CPU  0 inst:  323000000 cyc:  155125040 now IPC :2.20051: AVG IPC :2.08246: L2-Pf-HR :0.93708: L2-HR :0.94483: (Sim:1h8m45s) 
CPU  0 inst:  324000000 cyc:  155723567 now IPC :1.67077: AVG IPC :2.08087: L2-Pf-HR :0.93705: L2-HR :0.94476: (Sim:1h9m3s) 
CPU  0 inst:  325000000 cyc:  156181650 now IPC :2.18301: AVG IPC :2.08117: L2-Pf-HR :0.93703: L2-HR :0.94476: (Sim:1h9m17s) 
CPU  0 inst:  326000000 cyc:  156636526 now IPC :2.19840: AVG IPC :2.08151: L2-Pf-HR :0.93703: L2-HR :0.94477: (Sim:1h9m25s) 
CPU  0 inst:  327000001 cyc:  157093659 now IPC :2.18755: AVG IPC :2.08182: L2-Pf-HR :0.93704: L2-HR :0.94478: (Sim:1h9m34s) 
CPU  0 inst:  328000000 cyc:  157551834 now IPC :2.18257: AVG IPC :2.08212: L2-Pf-HR :0.93706: L2-HR :0.94481: (Sim:1h9m42s) 
CPU  0 inst:  329000005 cyc:  158008174 now IPC :2.19136: AVG IPC :2.08243: L2-Pf-HR :0.93713: L2-HR :0.94488: (Sim:1h9m59s) 
CPU  0 inst:  330000004 cyc:  158547036 now IPC :1.85576: AVG IPC :2.08166: L2-Pf-HR :0.93709: L2-HR :0.94482: (Sim:1h10m16s) 
CPU  0 inst:  331000004 cyc:  159006914 now IPC :2.17449: AVG IPC :2.08193: L2-Pf-HR :0.93708: L2-HR :0.94482: (Sim:1h10m34s) 
CPU  0 inst:  332000000 cyc:  159464808 now IPC :2.18390: AVG IPC :2.08222: L2-Pf-HR :0.93709: L2-HR :0.94484: (Sim:1h10m51s) 
CPU  0 inst:  333000004 cyc:  159918600 now IPC :2.20366: AVG IPC :2.08257: L2-Pf-HR :0.93709: L2-HR :0.94484: (Sim:1h11m8s) 
CPU  0 inst:  334000000 cyc:  160376202 now IPC :2.18530: AVG IPC :2.08287: L2-Pf-HR :0.93711: L2-HR :0.94487: (Sim:1h11m26s) 
CPU  0 inst:  335000003 cyc:  160833252 now IPC :2.18795: AVG IPC :2.08317: L2-Pf-HR :0.93720: L2-HR :0.94495: (Sim:1h11m43s) 
CPU  0 inst:  336000005 cyc:  161430711 now IPC :1.67376: AVG IPC :2.08164: L2-Pf-HR :0.93716: L2-HR :0.94488: (Sim:1h12m1s) 
CPU  0 inst:  337000002 cyc:  161889997 now IPC :2.17729: AVG IPC :2.08192: L2-Pf-HR :0.93715: L2-HR :0.94488: (Sim:1h12m19s) 
CPU  0 inst:  338000003 cyc:  162346104 now IPC :2.19247: AVG IPC :2.08223: L2-Pf-HR :0.93715: L2-HR :0.94489: (Sim:1h12m36s) 
CPU  0 inst:  339000000 cyc:  162800946 now IPC :2.19856: AVG IPC :2.08255: L2-Pf-HR :0.93715: L2-HR :0.94490: (Sim:1h12m54s) 
CPU  0 inst:  340000003 cyc:  163255901 now IPC :2.19803: AVG IPC :2.08288: L2-Pf-HR :0.93717: L2-HR :0.94492: (Sim:1h13m11s) 
CPU  0 inst:  341000003 cyc:  163712365 now IPC :2.19075: AVG IPC :2.08318: L2-Pf-HR :0.93725: L2-HR :0.94500: (Sim:1h13m28s) 
CPU  0 inst:  342000000 cyc:  164257199 now IPC :1.83542: AVG IPC :2.08235: L2-Pf-HR :0.93721: L2-HR :0.94495: (Sim:1h13m46s) 
CPU  0 inst:  343000000 cyc:  164712041 now IPC :2.19857: AVG IPC :2.08268: L2-Pf-HR :0.93720: L2-HR :0.94495: (Sim:1h14m4s) 
CPU  0 inst:  344000000 cyc:  165170763 now IPC :2.17997: AVG IPC :2.08295: L2-Pf-HR :0.93721: L2-HR :0.94496: (Sim:1h14m21s) 
CPU  0 inst:  345000001 cyc:  165628538 now IPC :2.18448: AVG IPC :2.08323: L2-Pf-HR :0.93721: L2-HR :0.94497: (Sim:1h14m39s) 
CPU  0 inst:  346000001 cyc:  166085315 now IPC :2.18925: AVG IPC :2.08352: L2-Pf-HR :0.93722: L2-HR :0.94499: (Sim:1h14m56s) 
CPU  0 inst:  347000001 cyc:  166540228 now IPC :2.19822: AVG IPC :2.08384: L2-Pf-HR :0.93732: L2-HR :0.94507: (Sim:1h15m13s) 
CPU  0 inst:  348000004 cyc:  167147680 now IPC :1.64623: AVG IPC :2.08224: L2-Pf-HR :0.93727: L2-HR :0.94500: (Sim:1h15m32s) 
CPU  0 inst:  349000001 cyc:  167604960 now IPC :2.18684: AVG IPC :2.08253: L2-Pf-HR :0.93726: L2-HR :0.94500: (Sim:1h15m50s) 
CPU  0 inst:  350000002 cyc:  168059783 now IPC :2.19866: AVG IPC :2.08284: L2-Pf-HR :0.93726: L2-HR :0.94501: (Sim:1h16m7s) 
CPU  0 inst:  351000002 cyc:  168517820 now IPC :2.18323: AVG IPC :2.08312: L2-Pf-HR :0.93726: L2-HR :0.94502: (Sim:1h16m25s) 
CPU  0 inst:  352000001 cyc:  168974736 now IPC :2.18858: AVG IPC :2.08340: L2-Pf-HR :0.93728: L2-HR :0.94504: (Sim:1h16m42s) 
CPU  0 inst:  353000005 cyc:  169427135 now IPC :2.21045: AVG IPC :2.08375: L2-Pf-HR :0.93736: L2-HR :0.94511: (Sim:1h17m0s) 
CPU  0 inst:  354000005 cyc:  169971104 now IPC :1.83834: AVG IPC :2.08296: L2-Pf-HR :0.93732: L2-HR :0.94506: (Sim:1h17m17s) 
CPU  0 inst:  355000002 cyc:  170431237 now IPC :2.17328: AVG IPC :2.08320: L2-Pf-HR :0.93731: L2-HR :0.94506: (Sim:1h17m35s) 
CPU  0 inst:  356000005 cyc:  170888257 now IPC :2.18809: AVG IPC :2.08348: L2-Pf-HR :0.93732: L2-HR :0.94507: (Sim:1h17m53s) 
CPU  0 inst:  357000003 cyc:  171343821 now IPC :2.19508: AVG IPC :2.08378: L2-Pf-HR :0.93732: L2-HR :0.94508: (Sim:1h18m10s) 
CPU  0 inst:  358000000 cyc:  171801867 now IPC :2.18318: AVG IPC :2.08405: L2-Pf-HR :0.93733: L2-HR :0.94510: (Sim:1h18m28s) 
CPU  0 inst:  359000000 cyc:  172258329 now IPC :2.19076: AVG IPC :2.08433: L2-Pf-HR :0.93743: L2-HR :0.94519: (Sim:1h18m45s) 
CPU  0 inst:  360000004 cyc:  172764692 now IPC :1.97488: AVG IPC :2.08401: L2-Pf-HR :0.93739: L2-HR :0.94515: (Sim:1h19m3s) 
CPU  0 inst:  361000005 cyc:  173210339 now IPC :2.24393: AVG IPC :2.08442: L2-Pf-HR :0.93728: L2-HR :0.94507: (Sim:1h19m20s) 
CPU  0 inst:  362000004 cyc:  173687412 now IPC :2.09611: AVG IPC :2.08446: L2-Pf-HR :0.93719: L2-HR :0.94500: (Sim:1h19m37s) 
CPU  0 inst:  363000001 cyc:  174132178 now IPC :2.24837: AVG IPC :2.08488: L2-Pf-HR :0.93710: L2-HR :0.94494: (Sim:1h19m55s) 
CPU  0 inst:  364000000 cyc:  174753141 now IPC :1.61040: AVG IPC :2.08318: L2-Pf-HR :0.93699: L2-HR :0.94480: (Sim:1h20m13s) 
CPU  0 inst:  365000005 cyc:  175226411 now IPC :2.11297: AVG IPC :2.08326: L2-Pf-HR :0.93698: L2-HR :0.94480: (Sim:1h20m31s) 
CPU  0 inst:  366000000 cyc:  175698579 now IPC :2.11788: AVG IPC :2.08336: L2-Pf-HR :0.93699: L2-HR :0.94480: (Sim:1h20m49s) 
CPU  0 inst:  367000002 cyc:  176170731 now IPC :2.11797: AVG IPC :2.08345: L2-Pf-HR :0.93699: L2-HR :0.94481: (Sim:1h21m7s) 
CPU  0 inst:  368000002 cyc:  176642522 now IPC :2.11958: AVG IPC :2.08355: L2-Pf-HR :0.93701: L2-HR :0.94482: (Sim:1h21m24s) 
CPU  0 inst:  369000000 cyc:  177117184 now IPC :2.10676: AVG IPC :2.08361: L2-Pf-HR :0.93708: L2-HR :0.94488: (Sim:1h21m42s) 
CPU  0 inst:  370000004 cyc:  177673908 now IPC :1.79623: AVG IPC :2.08270: L2-Pf-HR :0.93706: L2-HR :0.94484: (Sim:1h22m0s) 
CPU  0 inst:  371000001 cyc:  178148902 now IPC :2.10528: AVG IPC :2.08276: L2-Pf-HR :0.93705: L2-HR :0.94483: (Sim:1h22m18s) 
CPU  0 inst:  372000005 cyc:  178624387 now IPC :2.10312: AVG IPC :2.08282: L2-Pf-HR :0.93705: L2-HR :0.94483: (Sim:1h22m36s) 
CPU  0 inst:  373000000 cyc:  179099645 now IPC :2.10411: AVG IPC :2.08288: L2-Pf-HR :0.93705: L2-HR :0.94483: (Sim:1h22m54s) 
CPU  0 inst:  374000004 cyc:  179572697 now IPC :2.11394: AVG IPC :2.08296: L2-Pf-HR :0.93705: L2-HR :0.94483: (Sim:1h23m7s) 
CPU  0 inst:  375000002 cyc:  180047047 now IPC :2.10814: AVG IPC :2.08302: L2-Pf-HR :0.93709: L2-HR :0.94486: (Sim:1h23m16s) 
CPU  0 inst:  376000002 cyc:  180660000 now IPC :1.63145: AVG IPC :2.08148: L2-Pf-HR :0.93705: L2-HR :0.94478: (Sim:1h23m26s) 
CPU  0 inst:  377000002 cyc:  181120870 now IPC :2.16981: AVG IPC :2.08171: L2-Pf-HR :0.93703: L2-HR :0.94477: (Sim:1h23m42s) 
CPU  0 inst:  378000002 cyc:  181577725 now IPC :2.18888: AVG IPC :2.08198: L2-Pf-HR :0.93703: L2-HR :0.94478: (Sim:1h24m0s) 
CPU  0 inst:  379000003 cyc:  182031201 now IPC :2.20519: AVG IPC :2.08229: L2-Pf-HR :0.93702: L2-HR :0.94478: (Sim:1h24m18s) 
CPU  0 inst:  380000003 cyc:  182488285 now IPC :2.18778: AVG IPC :2.08255: L2-Pf-HR :0.93703: L2-HR :0.94479: (Sim:1h24m36s) 
CPU  0 inst:  381000000 cyc:  182946516 now IPC :2.18230: AVG IPC :2.08281: L2-Pf-HR :0.93708: L2-HR :0.94484: (Sim:1h24m54s) 
CPU  0 inst:  382000000 cyc:  183485145 now IPC :1.85657: AVG IPC :2.08214: L2-Pf-HR :0.93706: L2-HR :0.94481: (Sim:1h25m13s) 
CPU  0 inst:  383000001 cyc:  183942548 now IPC :2.18626: AVG IPC :2.08240: L2-Pf-HR :0.93704: L2-HR :0.94480: (Sim:1h25m31s) 
CPU  0 inst:  384000000 cyc:  184400211 now IPC :2.18501: AVG IPC :2.08265: L2-Pf-HR :0.93705: L2-HR :0.94482: (Sim:1h25m49s) 
CPU  0 inst:  385000000 cyc:  184857407 now IPC :2.18725: AVG IPC :2.08291: L2-Pf-HR :0.93705: L2-HR :0.94482: (Sim:1h26m8s) 
CPU  0 inst:  386000001 cyc:  185310305 now IPC :2.20800: AVG IPC :2.08322: L2-Pf-HR :0.93705: L2-HR :0.94483: (Sim:1h26m26s) 
CPU  0 inst:  387000001 cyc:  185765916 now IPC :2.19485: AVG IPC :2.08350: L2-Pf-HR :0.93711: L2-HR :0.94489: (Sim:1h26m44s) 
CPU  0 inst:  388000001 cyc:  186364731 now IPC :1.66996: AVG IPC :2.08216: L2-Pf-HR :0.93711: L2-HR :0.94485: (Sim:1h27m3s) 
CPU  0 inst:  389000000 cyc:  186821168 now IPC :2.19088: AVG IPC :2.08243: L2-Pf-HR :0.93709: L2-HR :0.94484: (Sim:1h27m21s) 
CPU  0 inst:  390000001 cyc:  187275842 now IPC :2.19938: AVG IPC :2.08271: L2-Pf-HR :0.93709: L2-HR :0.94485: (Sim:1h27m39s) 
CPU  0 inst:  391000005 cyc:  187730896 now IPC :2.19755: AVG IPC :2.08299: L2-Pf-HR :0.93709: L2-HR :0.94486: (Sim:1h27m57s) 
CPU  0 inst:  392000005 cyc:  188186086 now IPC :2.19688: AVG IPC :2.08327: L2-Pf-HR :0.93710: L2-HR :0.94488: (Sim:1h28m15s) 
CPU  0 inst:  393000002 cyc:  188638601 now IPC :2.20986: AVG IPC :2.08358: L2-Pf-HR :0.93715: L2-HR :0.94493: (Sim:1h28m33s) 
CPU  0 inst:  394000005 cyc:  189178217 now IPC :1.85318: AVG IPC :2.08292: L2-Pf-HR :0.93714: L2-HR :0.94490: (Sim:1h28m52s) 
CPU  0 inst:  395000000 cyc:  189638140 now IPC :2.17427: AVG IPC :2.08314: L2-Pf-HR :0.93713: L2-HR :0.94490: (Sim:1h29m10s) 
CPU  0 inst:  396000004 cyc:  190090162 now IPC :2.21229: AVG IPC :2.08345: L2-Pf-HR :0.93713: L2-HR :0.94491: (Sim:1h29m28s) 
CPU  0 inst:  397000000 cyc:  190545247 now IPC :2.19738: AVG IPC :2.08372: L2-Pf-HR :0.93714: L2-HR :0.94492: (Sim:1h29m43s) 
CPU  0 inst:  398000003 cyc:  191000539 now IPC :2.19640: AVG IPC :2.08399: L2-Pf-HR :0.93714: L2-HR :0.94493: (Sim:1h30m1s) 
CPU  0 inst:  399000003 cyc:  191453517 now IPC :2.20761: AVG IPC :2.08428: L2-Pf-HR :0.93720: L2-HR :0.94499: (Sim:1h30m18s) 
CPU  0 inst:  400000003 cyc:  192037256 now IPC :1.71309: AVG IPC :2.08315: L2-Pf-HR :0.93719: L2-HR :0.94494: (Sim:1h30m37s) 
CPU  0 inst:  401000003 cyc:  192495867 now IPC :2.18050: AVG IPC :2.08338: L2-Pf-HR :0.93718: L2-HR :0.94494: (Sim:1h30m54s) 
CPU  0 inst:  402000001 cyc:  192951631 now IPC :2.19411: AVG IPC :2.08365: L2-Pf-HR :0.93718: L2-HR :0.94495: (Sim:1h31m12s) 
CPU  0 inst:  403000001 cyc:  193405756 now IPC :2.20204: AVG IPC :2.08393: L2-Pf-HR :0.93718: L2-HR :0.94496: (Sim:1h31m29s) 
CPU  0 inst:  404000001 cyc:  193863246 now IPC :2.18584: AVG IPC :2.08417: L2-Pf-HR :0.93719: L2-HR :0.94498: (Sim:1h31m47s) 
CPU  0 inst:  405000004 cyc:  194318998 now IPC :2.19418: AVG IPC :2.08443: L2-Pf-HR :0.93725: L2-HR :0.94503: (Sim:1h32m4s) 
CPU  0 inst:  406000001 cyc:  194856588 now IPC :1.86015: AVG IPC :2.08380: L2-Pf-HR :0.93723: L2-HR :0.94500: (Sim:1h32m21s) 
CPU  0 inst:  407000003 cyc:  195314361 now IPC :2.18449: AVG IPC :2.08404: L2-Pf-HR :0.93722: L2-HR :0.94500: (Sim:1h32m39s) 
CPU  0 inst:  408000005 cyc:  195771998 now IPC :2.18514: AVG IPC :2.08428: L2-Pf-HR :0.93724: L2-HR :0.94502: (Sim:1h32m56s) 
CPU  0 inst:  409000005 cyc:  196224734 now IPC :2.20879: AVG IPC :2.08457: L2-Pf-HR :0.93723: L2-HR :0.94502: (Sim:1h33m14s) 
CPU  0 inst:  410000004 cyc:  196678540 now IPC :2.20358: AVG IPC :2.08484: L2-Pf-HR :0.93724: L2-HR :0.94503: (Sim:1h33m31s) 
CPU  0 inst:  411000005 cyc:  197135913 now IPC :2.18640: AVG IPC :2.08508: L2-Pf-HR :0.93730: L2-HR :0.94509: (Sim:1h33m48s) 
CPU  0 inst:  412000002 cyc:  197740282 now IPC :1.65461: AVG IPC :2.08376: L2-Pf-HR :0.93728: L2-HR :0.94504: (Sim:1h34m6s) 
CPU  0 inst:  413000000 cyc:  198196440 now IPC :2.19222: AVG IPC :2.08401: L2-Pf-HR :0.93727: L2-HR :0.94504: (Sim:1h34m23s) 
CPU  0 inst:  414000003 cyc:  198652945 now IPC :2.19056: AVG IPC :2.08426: L2-Pf-HR :0.93727: L2-HR :0.94505: (Sim:1h34m40s) 
CPU  0 inst:  415000000 cyc:  199108406 now IPC :2.19557: AVG IPC :2.08451: L2-Pf-HR :0.93727: L2-HR :0.94506: (Sim:1h34m57s) 
CPU  0 inst:  416000003 cyc:  199562812 now IPC :2.20068: AVG IPC :2.08478: L2-Pf-HR :0.93728: L2-HR :0.94507: (Sim:1h35m14s) 
CPU  0 inst:  417000000 cyc:  200016677 now IPC :2.20329: AVG IPC :2.08505: L2-Pf-HR :0.93733: L2-HR :0.94512: (Sim:1h35m31s) 
CPU  0 inst:  418000001 cyc:  200554149 now IPC :1.86056: AVG IPC :2.08444: L2-Pf-HR :0.93732: L2-HR :0.94509: (Sim:1h35m48s) 
CPU  0 inst:  419000000 cyc:  201009346 now IPC :2.19685: AVG IPC :2.08470: L2-Pf-HR :0.93731: L2-HR :0.94509: (Sim:1h36m5s) 
CPU  0 inst:  420000004 cyc:  201462524 now IPC :2.20665: AVG IPC :2.08497: L2-Pf-HR :0.93731: L2-HR :0.94511: (Sim:1h36m22s) 
CPU  0 inst:  421000005 cyc:  201919717 now IPC :2.18726: AVG IPC :2.08521: L2-Pf-HR :0.93731: L2-HR :0.94511: (Sim:1h36m38s) 
CPU  0 inst:  422000000 cyc:  202374379 now IPC :2.19942: AVG IPC :2.08547: L2-Pf-HR :0.93732: L2-HR :0.94513: (Sim:1h36m55s) 
CPU  0 inst:  423000004 cyc:  202826355 now IPC :2.21252: AVG IPC :2.08575: L2-Pf-HR :0.93738: L2-HR :0.94518: (Sim:1h37m12s) 
CPU  0 inst:  424000002 cyc:  203331306 now IPC :1.98039: AVG IPC :2.08549: L2-Pf-HR :0.93737: L2-HR :0.94516: (Sim:1h37m29s) 
CPU  0 inst:  425000001 cyc:  203778247 now IPC :2.23743: AVG IPC :2.08582: L2-Pf-HR :0.93728: L2-HR :0.94510: (Sim:1h37m46s) 
CPU  0 inst:  426000005 cyc:  204255076 now IPC :2.09720: AVG IPC :2.08585: L2-Pf-HR :0.93720: L2-HR :0.94504: (Sim:1h38m2s) 
CPU  0 inst:  427000000 cyc:  204699891 now IPC :2.24811: AVG IPC :2.08620: L2-Pf-HR :0.93712: L2-HR :0.94499: (Sim:1h38m19s) 
CPU  0 inst:  428000001 cyc:  205315526 now IPC :1.62434: AVG IPC :2.08481: L2-Pf-HR :0.93702: L2-HR :0.94487: (Sim:1h38m37s) 
CPU  0 inst:  429000003 cyc:  205789509 now IPC :2.10978: AVG IPC :2.08487: L2-Pf-HR :0.93701: L2-HR :0.94486: (Sim:1h38m54s) 
CPU  0 inst:  430000001 cyc:  206265669 now IPC :2.10013: AVG IPC :2.08490: L2-Pf-HR :0.93701: L2-HR :0.94486: (Sim:1h39m11s) 
CPU  0 inst:  431000000 cyc:  206737187 now IPC :2.12081: AVG IPC :2.08499: L2-Pf-HR :0.93702: L2-HR :0.94487: (Sim:1h39m28s) 
CPU  0 inst:  432000002 cyc:  207208743 now IPC :2.12064: AVG IPC :2.08507: L2-Pf-HR :0.93703: L2-HR :0.94488: (Sim:1h39m45s) 
CPU  0 inst:  433000002 cyc:  207679134 now IPC :2.12589: AVG IPC :2.08516: L2-Pf-HR :0.93708: L2-HR :0.94492: (Sim:1h40m2s) 
CPU  0 inst:  434000003 cyc:  208237621 now IPC :1.79055: AVG IPC :2.08437: L2-Pf-HR :0.93708: L2-HR :0.94490: (Sim:1h40m20s) 
CPU  0 inst:  435000001 cyc:  208713933 now IPC :2.09946: AVG IPC :2.08440: L2-Pf-HR :0.93707: L2-HR :0.94489: (Sim:1h40m37s) 
CPU  0 inst:  436000002 cyc:  209188735 now IPC :2.10614: AVG IPC :2.08445: L2-Pf-HR :0.93707: L2-HR :0.94489: (Sim:1h40m54s) 
CPU  0 inst:  437000000 cyc:  209661869 now IPC :2.11356: AVG IPC :2.08452: L2-Pf-HR :0.93707: L2-HR :0.94489: (Sim:1h41m11s) 
CPU  0 inst:  438000001 cyc:  210137585 now IPC :2.10210: AVG IPC :2.08456: L2-Pf-HR :0.93707: L2-HR :0.94489: (Sim:1h41m28s) 
CPU  0 inst:  439000005 cyc:  210611593 now IPC :2.10968: AVG IPC :2.08461: L2-Pf-HR :0.93710: L2-HR :0.94491: (Sim:1h41m47s) 
CPU  0 inst:  440000004 cyc:  211220729 now IPC :1.64167: AVG IPC :2.08333: L2-Pf-HR :0.93709: L2-HR :0.94486: (Sim:1h42m6s) 
CPU  0 inst:  441000003 cyc:  211687017 now IPC :2.14460: AVG IPC :2.08347: L2-Pf-HR :0.93707: L2-HR :0.94485: (Sim:1h42m24s) 
CPU  0 inst:  442000001 cyc:  212141700 now IPC :2.19933: AVG IPC :2.08372: L2-Pf-HR :0.93706: L2-HR :0.94485: (Sim:1h42m42s) 
CPU  0 inst:  443000004 cyc:  212597467 now IPC :2.19411: AVG IPC :2.08395: L2-Pf-HR :0.93705: L2-HR :0.94485: (Sim:1h43m0s) 
CPU  0 inst:  444000001 cyc:  213054740 now IPC :2.18687: AVG IPC :2.08418: L2-Pf-HR :0.93707: L2-HR :0.94487: (Sim:1h43m18s) 
CPU  0 inst:  445000004 cyc:  213510084 now IPC :2.19615: AVG IPC :2.08442: L2-Pf-HR :0.93710: L2-HR :0.94490: (Sim:1h43m36s) 
CPU  0 inst:  446000003 cyc:  214046943 now IPC :1.86268: AVG IPC :2.08386: L2-Pf-HR :0.93710: L2-HR :0.94489: (Sim:1h43m54s) 
CPU  0 inst:  447000002 cyc:  214508394 now IPC :2.16708: AVG IPC :2.08404: L2-Pf-HR :0.93708: L2-HR :0.94488: (Sim:1h44m13s) 
CPU  0 inst:  448000002 cyc:  214965339 now IPC :2.18845: AVG IPC :2.08426: L2-Pf-HR :0.93709: L2-HR :0.94489: (Sim:1h44m31s) 
CPU  0 inst:  449000005 cyc:  215420264 now IPC :2.19817: AVG IPC :2.08450: L2-Pf-HR :0.93709: L2-HR :0.94490: (Sim:1h44m49s) 
CPU  0 inst:  450000005 cyc:  215875908 now IPC :2.19470: AVG IPC :2.08473: L2-Pf-HR :0.93709: L2-HR :0.94491: (Sim:1h45m6s) 
CPU  0 inst:  451000000 cyc:  216331771 now IPC :2.19363: AVG IPC :2.08497: L2-Pf-HR :0.93714: L2-HR :0.94495: (Sim:1h45m24s) 
CPU  0 inst:  452000002 cyc:  216926244 now IPC :1.68217: AVG IPC :2.08386: L2-Pf-HR :0.93715: L2-HR :0.94493: (Sim:1h45m43s) 
CPU  0 inst:  453000002 cyc:  217387223 now IPC :2.16930: AVG IPC :2.08404: L2-Pf-HR :0.93713: L2-HR :0.94492: (Sim:1h46m1s) 
CPU  0 inst:  454000003 cyc:  217844130 now IPC :2.18863: AVG IPC :2.08426: L2-Pf-HR :0.93714: L2-HR :0.94493: (Sim:1h46m19s) 
CPU  0 inst:  455000000 cyc:  218298542 now IPC :2.20064: AVG IPC :2.08450: L2-Pf-HR :0.93713: L2-HR :0.94494: (Sim:1h46m28s) 
CPU  0 inst:  456000000 cyc:  218752619 now IPC :2.20227: AVG IPC :2.08475: L2-Pf-HR :0.93714: L2-HR :0.94495: (Sim:1h46m37s) 
CPU  0 inst:  457000003 cyc:  219209507 now IPC :2.18873: AVG IPC :2.08497: L2-Pf-HR :0.93718: L2-HR :0.94498: (Sim:1h46m45s) 
CPU  0 inst:  458000000 cyc:  219748983 now IPC :1.85364: AVG IPC :2.08439: L2-Pf-HR :0.93718: L2-HR :0.94497: (Sim:1h46m53s) 
CPU  0 inst:  459000000 cyc:  220206199 now IPC :2.18715: AVG IPC :2.08461: L2-Pf-HR :0.93716: L2-HR :0.94496: (Sim:1h47m2s) 
CPU  0 inst:  460000000 cyc:  220663084 now IPC :2.18873: AVG IPC :2.08483: L2-Pf-HR :0.93717: L2-HR :0.94498: (Sim:1h47m11s) 
CPU  0 inst:  461000005 cyc:  221120488 now IPC :2.18626: AVG IPC :2.08504: L2-Pf-HR :0.93717: L2-HR :0.94498: (Sim:1h47m19s) 
CPU  0 inst:  462000004 cyc:  221574619 now IPC :2.20201: AVG IPC :2.08528: L2-Pf-HR :0.93717: L2-HR :0.94499: (Sim:1h47m29s) 
CPU  0 inst:  463000001 cyc:  222030138 now IPC :2.19529: AVG IPC :2.08550: L2-Pf-HR :0.93722: L2-HR :0.94503: (Sim:1h47m42s) 
CPU  0 inst:  464000000 cyc:  222621543 now IPC :1.69089: AVG IPC :2.08445: L2-Pf-HR :0.93722: L2-HR :0.94500: (Sim:1h47m51s) 
CPU  0 inst:  465000002 cyc:  223081984 now IPC :2.17184: AVG IPC :2.08463: L2-Pf-HR :0.93720: L2-HR :0.94500: (Sim:1h48m2s) 
CPU  0 inst:  466000002 cyc:  223536300 now IPC :2.20111: AVG IPC :2.08487: L2-Pf-HR :0.93720: L2-HR :0.94500: (Sim:1h48m11s) 
CPU  0 inst:  467000004 cyc:  223993208 now IPC :2.18863: AVG IPC :2.08508: L2-Pf-HR :0.93720: L2-HR :0.94501: (Sim:1h48m19s) 
CPU  0 inst:  468000002 cyc:  224450529 now IPC :2.18664: AVG IPC :2.08529: L2-Pf-HR :0.93721: L2-HR :0.94502: (Sim:1h48m28s) 
CPU  0 inst:  469000005 cyc:  224903479 now IPC :2.20776: AVG IPC :2.08554: L2-Pf-HR :0.93725: L2-HR :0.94506: (Sim:1h48m38s) 
CPU  0 inst:  470000002 cyc:  225444256 now IPC :1.84919: AVG IPC :2.08497: L2-Pf-HR :0.93725: L2-HR :0.94505: (Sim:1h48m47s) 
CPU  0 inst:  471000005 cyc:  225904707 now IPC :2.17179: AVG IPC :2.08515: L2-Pf-HR :0.93724: L2-HR :0.94505: (Sim:1h48m56s) 
CPU  0 inst:  472000000 cyc:  226361118 now IPC :2.19100: AVG IPC :2.08536: L2-Pf-HR :0.93724: L2-HR :0.94505: (Sim:1h49m9s) 
CPU  0 inst:  473000003 cyc:  226815404 now IPC :2.20126: AVG IPC :2.08559: L2-Pf-HR :0.93724: L2-HR :0.94506: (Sim:1h49m27s) 
CPU  0 inst:  474000000 cyc:  227272632 now IPC :2.18709: AVG IPC :2.08580: L2-Pf-HR :0.93725: L2-HR :0.94508: (Sim:1h49m45s) 
CPU  0 inst:  475000000 cyc:  227729239 now IPC :2.19007: AVG IPC :2.08601: L2-Pf-HR :0.93729: L2-HR :0.94511: (Sim:1h50m2s) 
CPU  0 inst:  476000000 cyc:  228330785 now IPC :1.66238: AVG IPC :2.08489: L2-Pf-HR :0.93729: L2-HR :0.94508: (Sim:1h50m21s) 
CPU  0 inst:  477000001 cyc:  228795599 now IPC :2.15140: AVG IPC :2.08502: L2-Pf-HR :0.93727: L2-HR :0.94507: (Sim:1h50m39s) 
CPU  0 inst:  478000001 cyc:  229251153 now IPC :2.19513: AVG IPC :2.08524: L2-Pf-HR :0.93727: L2-HR :0.94508: (Sim:1h50m57s) 
CPU  0 inst:  479000001 cyc:  229704945 now IPC :2.20365: AVG IPC :2.08548: L2-Pf-HR :0.93727: L2-HR :0.94508: (Sim:1h51m15s) 
CPU  0 inst:  480000004 cyc:  230160886 now IPC :2.19327: AVG IPC :2.08569: L2-Pf-HR :0.93728: L2-HR :0.94509: (Sim:1h51m33s) 
CPU  0 inst:  481000004 cyc:  230617224 now IPC :2.19136: AVG IPC :2.08590: L2-Pf-HR :0.93731: L2-HR :0.94513: (Sim:1h51m51s) 
CPU  0 inst:  482000000 cyc:  231155642 now IPC :1.85729: AVG IPC :2.08537: L2-Pf-HR :0.93731: L2-HR :0.94512: (Sim:1h52m9s) 
CPU  0 inst:  483000002 cyc:  231611866 now IPC :2.19191: AVG IPC :2.08558: L2-Pf-HR :0.93730: L2-HR :0.94511: (Sim:1h52m27s) 
CPU  0 inst:  484000005 cyc:  232071365 now IPC :2.17629: AVG IPC :2.08576: L2-Pf-HR :0.93731: L2-HR :0.94512: (Sim:1h52m45s) 
CPU  0 inst:  485000002 cyc:  232527521 now IPC :2.19223: AVG IPC :2.08597: L2-Pf-HR :0.93731: L2-HR :0.94513: (Sim:1h53m3s) 
CPU  0 inst:  486000002 cyc:  232981648 now IPC :2.20203: AVG IPC :2.08620: L2-Pf-HR :0.93732: L2-HR :0.94514: (Sim:1h53m16s) 
CPU  0 inst:  487000002 cyc:  233437836 now IPC :2.19208: AVG IPC :2.08640: L2-Pf-HR :0.93736: L2-HR :0.94518: (Sim:1h53m25s) 
CPU  0 inst:  488000001 cyc:  233945412 now IPC :1.97015: AVG IPC :2.08615: L2-Pf-HR :0.93738: L2-HR :0.94519: (Sim:1h53m33s) 
CPU  0 inst:  489000004 cyc:  234392214 now IPC :2.23813: AVG IPC :2.08644: L2-Pf-HR :0.93730: L2-HR :0.94514: (Sim:1h53m48s) 
CPU  0 inst:  490000003 cyc:  234866774 now IPC :2.10721: AVG IPC :2.08648: L2-Pf-HR :0.93724: L2-HR :0.94508: (Sim:1h54m6s) 
CPU  0 inst:  491000000 cyc:  235312373 now IPC :2.24416: AVG IPC :2.08678: L2-Pf-HR :0.93717: L2-HR :0.94504: (Sim:1h54m24s) 
CPU  0 inst:  492000002 cyc:  235923626 now IPC :1.63599: AVG IPC :2.08561: L2-Pf-HR :0.93708: L2-HR :0.94494: (Sim:1h54m43s) 
CPU  0 inst:  493000002 cyc:  236402271 now IPC :2.08923: AVG IPC :2.08562: L2-Pf-HR :0.93706: L2-HR :0.94492: (Sim:1h55m1s) 
CPU  0 inst:  494000005 cyc:  236875622 now IPC :2.11260: AVG IPC :2.08567: L2-Pf-HR :0.93707: L2-HR :0.94493: (Sim:1h55m20s) 
CPU  0 inst:  495000000 cyc:  237350812 now IPC :2.10441: AVG IPC :2.08571: L2-Pf-HR :0.93707: L2-HR :0.94493: (Sim:1h55m38s) 
CPU  0 inst:  496000000 cyc:  237821458 now IPC :2.12474: AVG IPC :2.08579: L2-Pf-HR :0.93708: L2-HR :0.94494: (Sim:1h55m56s) 
CPU  0 inst:  497000002 cyc:  238294239 now IPC :2.11515: AVG IPC :2.08585: L2-Pf-HR :0.93712: L2-HR :0.94497: (Sim:1h56m15s) 
CPU  0 inst:  498000003 cyc:  238850214 now IPC :1.79864: AVG IPC :2.08517: L2-Pf-HR :0.93713: L2-HR :0.94496: (Sim:1h56m33s) 
CPU  0 inst:  499000001 cyc:  239325978 now IPC :2.10188: AVG IPC :2.08521: L2-Pf-HR :0.93712: L2-HR :0.94495: (Sim:1h56m52s) 
CPU  0 inst:  500000003 cyc:  239799446 now IPC :2.11208: AVG IPC :2.08526: L2-Pf-HR :0.93712: L2-HR :0.94495: (Sim:1h57m10s) 
CPU  0 inst:  501000001 cyc:  240273534 now IPC :2.10931: AVG IPC :2.08531: L2-Pf-HR :0.93712: L2-HR :0.94495: (Sim:1h57m28s) 
CPU  0 inst:  502000004 cyc:  240748208 now IPC :2.10672: AVG IPC :2.08535: L2-Pf-HR :0.93711: L2-HR :0.94494: (Sim:1h57m41s) 
CPU  0 inst:  503000005 cyc:  241225639 now IPC :2.09455: AVG IPC :2.08537: L2-Pf-HR :0.93714: L2-HR :0.94496: (Sim:1h57m50s) 
CPU  0 inst:  504000000 cyc:  241821225 now IPC :1.67901: AVG IPC :2.08436: L2-Pf-HR :0.93715: L2-HR :0.94494: (Sim:1h58m0s) 
CPU  0 inst:  505000005 cyc:  242296662 now IPC :2.10334: AVG IPC :2.08440: L2-Pf-HR :0.93711: L2-HR :0.94491: (Sim:1h58m8s) 
CPU  0 inst:  506000002 cyc:  242753423 now IPC :2.18932: AVG IPC :2.08460: L2-Pf-HR :0.93711: L2-HR :0.94491: (Sim:1h58m17s) 
CPU  0 inst:  507000005 cyc:  243209583 now IPC :2.19222: AVG IPC :2.08480: L2-Pf-HR :0.93710: L2-HR :0.94492: (Sim:1h58m26s) 
CPU  0 inst:  508000002 cyc:  243663949 now IPC :2.20086: AVG IPC :2.08502: L2-Pf-HR :0.93711: L2-HR :0.94492: (Sim:1h58m34s) 
CPU  0 inst:  509000002 cyc:  244118378 now IPC :2.20056: AVG IPC :2.08524: L2-Pf-HR :0.93713: L2-HR :0.94495: (Sim:1h58m42s) 
CPU  0 inst:  510000002 cyc:  244654911 now IPC :1.86382: AVG IPC :2.08475: L2-Pf-HR :0.93714: L2-HR :0.94495: (Sim:1h58m56s) 
CPU  0 inst:  511000005 cyc:  245119087 now IPC :2.15436: AVG IPC :2.08488: L2-Pf-HR :0.93712: L2-HR :0.94493: (Sim:1h59m14s) 
CPU  0 inst:  512000000 cyc:  245572762 now IPC :2.20421: AVG IPC :2.08510: L2-Pf-HR :0.93712: L2-HR :0.94494: (Sim:1h59m31s) 
CPU  0 inst:  513000000 cyc:  246027610 now IPC :2.19854: AVG IPC :2.08531: L2-Pf-HR :0.93712: L2-HR :0.94495: (Sim:1h59m49s) 
CPU  0 inst:  514000000 cyc:  246483272 now IPC :2.19461: AVG IPC :2.08552: L2-Pf-HR :0.93713: L2-HR :0.94496: (Sim:2h0m6s) 
CPU  0 inst:  515000003 cyc:  246936998 now IPC :2.20398: AVG IPC :2.08573: L2-Pf-HR :0.93716: L2-HR :0.94499: (Sim:2h0m23s) 
CPU  0 inst:  516000000 cyc:  247517006 now IPC :1.72411: AVG IPC :2.08488: L2-Pf-HR :0.93719: L2-HR :0.94498: (Sim:2h0m41s) 
CPU  0 inst:  517000004 cyc:  247988825 now IPC :2.11947: AVG IPC :2.08495: L2-Pf-HR :0.93715: L2-HR :0.94496: (Sim:2h0m59s) 
CPU  0 inst:  518000000 cyc:  248443279 now IPC :2.20043: AVG IPC :2.08516: L2-Pf-HR :0.93716: L2-HR :0.94497: (Sim:2h1m17s) 
CPU  0 inst:  519000001 cyc:  248897131 now IPC :2.20336: AVG IPC :2.08538: L2-Pf-HR :0.93715: L2-HR :0.94498: (Sim:2h1m34s) 
CPU  0 inst:  520000001 cyc:  249353177 now IPC :2.19276: AVG IPC :2.08558: L2-Pf-HR :0.93716: L2-HR :0.94499: (Sim:2h1m51s) 
CPU  0 inst:  521000004 cyc:  249810267 now IPC :2.18776: AVG IPC :2.08576: L2-Pf-HR :0.93719: L2-HR :0.94501: (Sim:2h2m9s) 
CPU  0 inst:  522000004 cyc:  250346328 now IPC :1.86546: AVG IPC :2.08529: L2-Pf-HR :0.93721: L2-HR :0.94502: (Sim:2h2m26s) 
CPU  0 inst:  523000002 cyc:  250810280 now IPC :2.15539: AVG IPC :2.08542: L2-Pf-HR :0.93719: L2-HR :0.94501: (Sim:2h2m44s) 
CPU  0 inst:  524000005 cyc:  251267110 now IPC :2.18900: AVG IPC :2.08561: L2-Pf-HR :0.93720: L2-HR :0.94502: (Sim:2h3m1s) 
CPU  0 inst:  525000002 cyc:  251721168 now IPC :2.20236: AVG IPC :2.08582: L2-Pf-HR :0.93720: L2-HR :0.94503: (Sim:2h3m15s) 
CPU  0 inst:  526000005 cyc:  252175297 now IPC :2.20202: AVG IPC :2.08603: L2-Pf-HR :0.93720: L2-HR :0.94503: (Sim:2h3m24s) 
CPU  0 inst:  527000002 cyc:  252631883 now IPC :2.19016: AVG IPC :2.08622: L2-Pf-HR :0.93723: L2-HR :0.94506: (Sim:2h3m35s) 
CPU  0 inst:  528000005 cyc:  253217360 now IPC :1.70801: AVG IPC :2.08534: L2-Pf-HR :0.93726: L2-HR :0.94506: (Sim:2h3m53s) 
CPU  0 inst:  529000000 cyc:  253682137 now IPC :2.15156: AVG IPC :2.08546: L2-Pf-HR :0.93723: L2-HR :0.94504: (Sim:2h4m10s) 
CPU  0 inst:  530000003 cyc:  254137125 now IPC :2.19787: AVG IPC :2.08566: L2-Pf-HR :0.93723: L2-HR :0.94505: (Sim:2h4m28s) 
CPU  0 inst:  531000003 cyc:  254591957 now IPC :2.19861: AVG IPC :2.08587: L2-Pf-HR :0.93723: L2-HR :0.94506: (Sim:2h4m45s) 
CPU  0 inst:  532000003 cyc:  255046773 now IPC :2.19869: AVG IPC :2.08607: L2-Pf-HR :0.93724: L2-HR :0.94507: (Sim:2h5m3s) 
CPU  0 inst:  533000003 cyc:  255502314 now IPC :2.19519: AVG IPC :2.08626: L2-Pf-HR :0.93726: L2-HR :0.94509: (Sim:2h5m20s) 
CPU  0 inst:  534000003 cyc:  256039594 now IPC :1.86123: AVG IPC :2.08579: L2-Pf-HR :0.93728: L2-HR :0.94509: (Sim:2h5m38s) 
CPU  0 inst:  535000004 cyc:  256501332 now IPC :2.16573: AVG IPC :2.08594: L2-Pf-HR :0.93726: L2-HR :0.94508: (Sim:2h5m53s) 
CPU  0 inst:  536000000 cyc:  256955042 now IPC :2.20404: AVG IPC :2.08614: L2-Pf-HR :0.93726: L2-HR :0.94509: (Sim:2h6m11s) 
CPU  0 inst:  537000001 cyc:  257410308 now IPC :2.19652: AVG IPC :2.08634: L2-Pf-HR :0.93726: L2-HR :0.94510: (Sim:2h6m28s) 
CPU  0 inst:  538000001 cyc:  257865298 now IPC :2.19785: AVG IPC :2.08654: L2-Pf-HR :0.93727: L2-HR :0.94511: (Sim:2h6m46s) 
CPU  0 inst:  539000000 cyc:  258317078 now IPC :2.21346: AVG IPC :2.08676: L2-Pf-HR :0.93730: L2-HR :0.94513: (Sim:2h7m3s) 
CPU  0 inst:  540000005 cyc:  258907405 now IPC :1.69398: AVG IPC :2.08586: L2-Pf-HR :0.93732: L2-HR :0.94513: (Sim:2h7m21s) 
CPU  0 inst:  541000002 cyc:  259376565 now IPC :2.13146: AVG IPC :2.08594: L2-Pf-HR :0.93730: L2-HR :0.94511: (Sim:2h7m39s) 
CPU  0 inst:  542000005 cyc:  259831074 now IPC :2.20018: AVG IPC :2.08615: L2-Pf-HR :0.93730: L2-HR :0.94512: (Sim:2h7m51s) 
CPU  0 inst:  543000000 cyc:  260287288 now IPC :2.19194: AVG IPC :2.08633: L2-Pf-HR :0.93730: L2-HR :0.94512: (Sim:2h7m59s) 
CPU  0 inst:  544000002 cyc:  260744653 now IPC :2.18644: AVG IPC :2.08651: L2-Pf-HR :0.93730: L2-HR :0.94514: (Sim:2h8m15s) 
CPU  0 inst:  545000002 cyc:  261199767 now IPC :2.19725: AVG IPC :2.08670: L2-Pf-HR :0.93732: L2-HR :0.94516: (Sim:2h8m33s) 
CPU  0 inst:  546000003 cyc:  261735714 now IPC :1.86586: AVG IPC :2.08625: L2-Pf-HR :0.93733: L2-HR :0.94515: (Sim:2h8m51s) 
CPU  0 inst:  547000000 cyc:  262198794 now IPC :2.15945: AVG IPC :2.08638: L2-Pf-HR :0.93732: L2-HR :0.94515: (Sim:2h9m10s) 
CPU  0 inst:  548000000 cyc:  262654959 now IPC :2.19219: AVG IPC :2.08656: L2-Pf-HR :0.93732: L2-HR :0.94516: (Sim:2h9m28s) 
CPU  0 inst:  549000003 cyc:  263108664 now IPC :2.20408: AVG IPC :2.08677: L2-Pf-HR :0.93733: L2-HR :0.94516: (Sim:2h9m46s) 
CPU  0 inst:  550000000 cyc:  263565143 now IPC :2.19067: AVG IPC :2.08695: L2-Pf-HR :0.93733: L2-HR :0.94517: (Sim:2h10m4s) 
CPU  0 inst:  551000003 cyc:  264022324 now IPC :2.18732: AVG IPC :2.08712: L2-Pf-HR :0.93736: L2-HR :0.94520: (Sim:2h10m22s) 
CPU  0 inst:  552000004 cyc:  264532135 now IPC :1.96151: AVG IPC :2.08688: L2-Pf-HR :0.93740: L2-HR :0.94522: (Sim:2h10m40s) 
CPU  0 inst:  553000000 cyc:  264978538 now IPC :2.24012: AVG IPC :2.08714: L2-Pf-HR :0.93733: L2-HR :0.94517: (Sim:2h10m58s) 
CPU  0 inst:  554000002 cyc:  265452014 now IPC :2.11204: AVG IPC :2.08718: L2-Pf-HR :0.93726: L2-HR :0.94512: (Sim:2h11m16s) 
CPU  0 inst:  555000005 cyc:  265893777 now IPC :2.26366: AVG IPC :2.08748: L2-Pf-HR :0.93720: L2-HR :0.94508: (Sim:2h11m34s) 
CPU  0 inst:  556000000 cyc:  266494387 now IPC :1.66497: AVG IPC :2.08652: L2-Pf-HR :0.93713: L2-HR :0.94500: (Sim:2h11m52s) 
CPU  0 inst:  557000001 cyc:  266980564 now IPC :2.05687: AVG IPC :2.08647: L2-Pf-HR :0.93711: L2-HR :0.94498: (Sim:2h12m11s) 
CPU  0 inst:  558000001 cyc:  267450331 now IPC :2.12871: AVG IPC :2.08654: L2-Pf-HR :0.93711: L2-HR :0.94498: (Sim:2h12m29s) 
CPU  0 inst:  559000000 cyc:  267920228 now IPC :2.12812: AVG IPC :2.08661: L2-Pf-HR :0.93711: L2-HR :0.94499: (Sim:2h12m47s) 
CPU  0 inst:  560000004 cyc:  268391277 now IPC :2.12293: AVG IPC :2.08668: L2-Pf-HR :0.93712: L2-HR :0.94499: (Sim:2h13m6s) 
CPU  0 inst:  561000002 cyc:  268859524 now IPC :2.13562: AVG IPC :2.08676: L2-Pf-HR :0.93714: L2-HR :0.94501: (Sim:2h13m24s) 
CPU  0 inst:  562000002 cyc:  269410767 now IPC :1.81408: AVG IPC :2.08620: L2-Pf-HR :0.93717: L2-HR :0.94502: (Sim:2h13m42s) 
CPU  0 inst:  563000001 cyc:  269891180 now IPC :2.08154: AVG IPC :2.08619: L2-Pf-HR :0.93715: L2-HR :0.94500: (Sim:2h14m1s) 
CPU  0 inst:  564000002 cyc:  270362455 now IPC :2.12191: AVG IPC :2.08626: L2-Pf-HR :0.93715: L2-HR :0.94500: (Sim:2h14m19s) 
CPU  0 inst:  565000002 cyc:  270834017 now IPC :2.12061: AVG IPC :2.08632: L2-Pf-HR :0.93715: L2-HR :0.94500: (Sim:2h14m37s) 
CPU  0 inst:  566000000 cyc:  271307711 now IPC :2.11106: AVG IPC :2.08636: L2-Pf-HR :0.93714: L2-HR :0.94500: (Sim:2h14m56s) 
CPU  0 inst:  567000005 cyc:  271780494 now IPC :2.11515: AVG IPC :2.08641: L2-Pf-HR :0.93716: L2-HR :0.94500: (Sim:2h15m14s) 
CPU  0 inst:  568000001 cyc:  272319662 now IPC :1.85470: AVG IPC :2.08595: L2-Pf-HR :0.93721: L2-HR :0.94503: (Sim:2h15m33s) 
CPU  0 inst:  569000005 cyc:  272867181 now IPC :1.82643: AVG IPC :2.08543: L2-Pf-HR :0.93713: L2-HR :0.94496: (Sim:2h15m52s) 
CPU  0 inst:  570000003 cyc:  273322047 now IPC :2.19845: AVG IPC :2.08562: L2-Pf-HR :0.93713: L2-HR :0.94496: (Sim:2h16m10s) 
CPU  0 inst:  571000005 cyc:  273775373 now IPC :2.20592: AVG IPC :2.08582: L2-Pf-HR :0.93713: L2-HR :0.94497: (Sim:2h16m28s) 
CPU  0 inst:  572000001 cyc:  274229188 now IPC :2.20353: AVG IPC :2.08601: L2-Pf-HR :0.93713: L2-HR :0.94497: (Sim:2h16m46s) 
CPU  0 inst:  573000000 cyc:  274683643 now IPC :2.20044: AVG IPC :2.08620: L2-Pf-HR :0.93714: L2-HR :0.94498: (Sim:2h17m4s) 
CPU  0 inst:  574000002 cyc:  275205900 now IPC :1.91477: AVG IPC :2.08588: L2-Pf-HR :0.93717: L2-HR :0.94500: (Sim:2h17m22s) 
CPU  0 inst:  575000001 cyc:  275673662 now IPC :2.13784: AVG IPC :2.08596: L2-Pf-HR :0.93715: L2-HR :0.94499: (Sim:2h17m41s) 
CPU  0 inst:  576000001 cyc:  276125967 now IPC :2.21090: AVG IPC :2.08617: L2-Pf-HR :0.93714: L2-HR :0.94499: (Sim:2h17m59s) 
CPU  0 inst:  577000001 cyc:  276579736 now IPC :2.20376: AVG IPC :2.08636: L2-Pf-HR :0.93714: L2-HR :0.94499: (Sim:2h18m17s) 
CPU  0 inst:  578000004 cyc:  277032486 now IPC :2.20873: AVG IPC :2.08656: L2-Pf-HR :0.93715: L2-HR :0.94500: (Sim:2h18m35s) 
CPU  0 inst:  579000001 cyc:  277484511 now IPC :2.21226: AVG IPC :2.08677: L2-Pf-HR :0.93716: L2-HR :0.94502: (Sim:2h18m53s) 
CPU  0 inst:  580000002 cyc:  277995000 now IPC :1.95891: AVG IPC :2.08653: L2-Pf-HR :0.93723: L2-HR :0.94507: (Sim:2h19m11s) 
CPU  0 inst:  581000005 cyc:  278532310 now IPC :1.86113: AVG IPC :2.08610: L2-Pf-HR :0.93717: L2-HR :0.94500: (Sim:2h19m30s) 
CPU  0 inst:  582000005 cyc:  278983118 now IPC :2.21824: AVG IPC :2.08631: L2-Pf-HR :0.93717: L2-HR :0.94501: (Sim:2h19m48s) 
CPU  0 inst:  583000002 cyc:  279435148 now IPC :2.21224: AVG IPC :2.08652: L2-Pf-HR :0.93717: L2-HR :0.94502: (Sim:2h20m6s) 
CPU  0 inst:  584000005 cyc:  279888005 now IPC :2.20821: AVG IPC :2.08671: L2-Pf-HR :0.93717: L2-HR :0.94502: (Sim:2h20m23s) 
CPU  0 inst:  585000005 cyc:  280339184 now IPC :2.21642: AVG IPC :2.08692: L2-Pf-HR :0.93719: L2-HR :0.94504: (Sim:2h20m37s) 
CPU  0 inst:  586000000 cyc:  280865820 now IPC :1.89884: AVG IPC :2.08657: L2-Pf-HR :0.93722: L2-HR :0.94506: (Sim:2h20m46s) 
CPU  0 inst:  587000004 cyc:  281336047 now IPC :2.12664: AVG IPC :2.08664: L2-Pf-HR :0.93720: L2-HR :0.94505: (Sim:2h20m54s) 
CPU  0 inst:  588000003 cyc:  281788184 now IPC :2.21172: AVG IPC :2.08684: L2-Pf-HR :0.93720: L2-HR :0.94506: (Sim:2h21m3s) 
CPU  0 inst:  589000004 cyc:  282239558 now IPC :2.21546: AVG IPC :2.08704: L2-Pf-HR :0.93720: L2-HR :0.94506: (Sim:2h21m19s) 
CPU  0 inst:  590000003 cyc:  282691928 now IPC :2.21058: AVG IPC :2.08724: L2-Pf-HR :0.93721: L2-HR :0.94507: (Sim:2h21m37s) 
CPU  0 inst:  591000000 cyc:  283144442 now IPC :2.20987: AVG IPC :2.08744: L2-Pf-HR :0.93723: L2-HR :0.94509: (Sim:2h21m54s) 
CPU  0 inst:  592000004 cyc:  283668409 now IPC :1.90852: AVG IPC :2.08711: L2-Pf-HR :0.93729: L2-HR :0.94513: (Sim:2h22m12s) 
CPU  0 inst:  593000004 cyc:  284195355 now IPC :1.89773: AVG IPC :2.08675: L2-Pf-HR :0.93723: L2-HR :0.94508: (Sim:2h22m30s) 
CPU  0 inst:  594000004 cyc:  284648623 now IPC :2.20620: AVG IPC :2.08695: L2-Pf-HR :0.93723: L2-HR :0.94508: (Sim:2h22m47s) 
CPU  0 inst:  595000004 cyc:  285100403 now IPC :2.21347: AVG IPC :2.08715: L2-Pf-HR :0.93723: L2-HR :0.94509: (Sim:2h23m5s) 
CPU  0 inst:  596000001 cyc:  285551316 now IPC :2.21772: AVG IPC :2.08735: L2-Pf-HR :0.93724: L2-HR :0.94510: (Sim:2h23m22s) 
CPU  0 inst:  597000001 cyc:  286004673 now IPC :2.20577: AVG IPC :2.08754: L2-Pf-HR :0.93725: L2-HR :0.94512: (Sim:2h23m40s) 
CPU  0 inst:  598000004 cyc:  286535345 now IPC :1.88441: AVG IPC :2.08716: L2-Pf-HR :0.93728: L2-HR :0.94513: (Sim:2h23m57s) 
xz: 770-tot_memTraces_v5/120-subBillion_s2048_LLM_Arch/memTraces[1319000000]_FE_[Pythia-70M]_[h8]_[s2048]_[d64].champsim.9SSize.xz: Unexpected end of input
*** Reached end of trace for Core: 0 Repeating trace: 770-tot_memTraces_v5/120-subBillion_s2048_LLM_Arch/memTraces[1319000000]_FE_[Pythia-70M]_[h8]_[s2048]_[d64].champsim.9SSize.xz
CPU  0 inst:  599000005 cyc:  287354522 now IPC :1.22074: AVG IPC :2.08469: L2-Pf-HR :0.93714: L2-HR :0.94497: (Sim:2h24m16s) 
CPU  0 inst:  600000002 cyc:  287828805 now IPC :2.10844: AVG IPC :2.08473: L2-Pf-HR :0.93714: L2-HR :0.94496: (Sim:2h24m34s) 
CPU  0 inst:  601000004 cyc:  288300818 now IPC :2.11859: AVG IPC :2.08478: L2-Pf-HR :0.93714: L2-HR :0.94497: (Sim:2h24m48s) 
CPU  0 inst:  602000005 cyc:  288774314 now IPC :2.11195: AVG IPC :2.08483: L2-Pf-HR :0.93714: L2-HR :0.94497: (Sim:2h24m56s) 
CPU  0 inst:  603000003 cyc:  289244077 now IPC :2.12873: AVG IPC :2.08490: L2-Pf-HR :0.93715: L2-HR :0.94498: (Sim:2h25m5s) 
CPU  0 inst:  604000002 cyc:  289713762 now IPC :2.12908: AVG IPC :2.08497: L2-Pf-HR :0.93718: L2-HR :0.94501: (Sim:2h25m14s) 
CPU  0 inst:  605000001 cyc:  290268592 now IPC :1.80235: AVG IPC :2.08443: L2-Pf-HR :0.93718: L2-HR :0.94499: (Sim:2h25m23s) 
CPU  0 inst:  606000000 cyc:  290743112 now IPC :2.10739: AVG IPC :2.08446: L2-Pf-HR :0.93717: L2-HR :0.94497: (Sim:2h25m31s) 
CPU  0 inst:  607000001 cyc:  291215673 now IPC :2.11613: AVG IPC :2.08452: L2-Pf-HR :0.93715: L2-HR :0.94497: (Sim:2h25m41s) 
CPU  0 inst:  608000002 cyc:  291687792 now IPC :2.11811: AVG IPC :2.08457: L2-Pf-HR :0.93714: L2-HR :0.94496: (Sim:2h25m50s) 
CPU  0 inst:  609000005 cyc:  292161890 now IPC :2.10927: AVG IPC :2.08461: L2-Pf-HR :0.93714: L2-HR :0.94495: (Sim:2h26m3s) 
CPU  0 inst:  610000004 cyc:  292638638 now IPC :2.09754: AVG IPC :2.08463: L2-Pf-HR :0.93716: L2-HR :0.94496: (Sim:2h26m21s) 
CPU  0 inst:  611000005 cyc:  293258805 now IPC :1.61247: AVG IPC :2.08363: L2-Pf-HR :0.93714: L2-HR :0.94492: (Sim:2h26m39s) 
CPU  0 inst:  612000000 cyc:  293724507 now IPC :2.14729: AVG IPC :2.08373: L2-Pf-HR :0.93712: L2-HR :0.94491: (Sim:2h26m54s) 
CPU  0 inst:  613000000 cyc:  294176837 now IPC :2.21078: AVG IPC :2.08393: L2-Pf-HR :0.93711: L2-HR :0.94491: (Sim:2h27m7s) 
CPU  0 inst:  614000003 cyc:  294630860 now IPC :2.20254: AVG IPC :2.08411: L2-Pf-HR :0.93711: L2-HR :0.94491: (Sim:2h27m16s) 
CPU  0 inst:  615000001 cyc:  295087511 now IPC :2.18985: AVG IPC :2.08428: L2-Pf-HR :0.93711: L2-HR :0.94492: (Sim:2h27m25s) 
CPU  0 inst:  616000003 cyc:  295541777 now IPC :2.20136: AVG IPC :2.08446: L2-Pf-HR :0.93714: L2-HR :0.94494: (Sim:2h27m34s) 
CPU  0 inst:  617000003 cyc:  296079774 now IPC :1.85875: AVG IPC :2.08404: L2-Pf-HR :0.93714: L2-HR :0.94494: (Sim:2h27m42s) 
CPU  0 inst:  618000001 cyc:  296539147 now IPC :2.17688: AVG IPC :2.08419: L2-Pf-HR :0.93713: L2-HR :0.94494: (Sim:2h27m51s) 
[...]
CPU  0 inst: 1199000001 cyc:  575072630 now IPC :2.11022: AVG IPC :2.08503: L2-Pf-HR :0.93724: L2-HR :0.94505: (Sim:4h20m52s) 
CPU  0 inst: 1200000002 cyc:  575546631 now IPC :2.10970: AVG IPC :2.08505: L2-Pf-HR :0.93724: L2-HR :0.94506: (Sim:4h21m0s) 
CPU  0 inst: 1201000005 cyc:  576021839 now IPC :2.10435: AVG IPC :2.08507: L2-Pf-HR :0.93724: L2-HR :0.94506: (Sim:4h21m7s) 
CPU  0 inst: 1202000002 cyc:  576494827 now IPC :2.11421: AVG IPC :2.08509: L2-Pf-HR :0.93725: L2-HR :0.94507: (Sim:4h21m14s) 
CPU  0 inst: 1203000005 cyc:  577002776 now IPC :1.96871: AVG IPC :2.08499: L2-Pf-HR :0.93728: L2-HR :0.94508: (Sim:4h21m21s) 
CPU  0 inst: 1204000002 cyc:  577528888 now IPC :1.90073: AVG IPC :2.08482: L2-Pf-HR :0.93726: L2-HR :0.94506: (Sim:4h21m29s) 
CPU  0 inst: 1205000004 cyc:  578003154 now IPC :2.10853: AVG IPC :2.08484: L2-Pf-HR :0.93725: L2-HR :0.94506: (Sim:4h21m36s) 
CPU  0 inst: 1206000002 cyc:  578480106 now IPC :2.09664: AVG IPC :2.08485: L2-Pf-HR :0.93725: L2-HR :0.94505: (Sim:4h21m43s) 
CPU  0 inst: 1207000003 cyc:  578954875 now IPC :2.10629: AVG IPC :2.08487: L2-Pf-HR :0.93724: L2-HR :0.94505: (Sim:4h21m51s) 
CPU  0 inst: 1208000000 cyc:  579432098 now IPC :2.09545: AVG IPC :2.08488: L2-Pf-HR :0.93724: L2-HR :0.94505: (Sim:4h21m58s) 
CPU  0 inst: 1209000002 cyc:  579913726 now IPC :2.07630: AVG IPC :2.08487: L2-Pf-HR :0.93727: L2-HR :0.94507: (Sim:4h22m5s) 
CPU  0 inst: 1210000003 cyc:  580527850 now IPC :1.62834: AVG IPC :2.08439: L2-Pf-HR :0.93724: L2-HR :0.94503: (Sim:4h22m13s) 
CPU  0 inst: 1211000001 cyc:  580983103 now IPC :2.19658: AVG IPC :2.08447: L2-Pf-HR :0.93723: L2-HR :0.94502: (Sim:4h22m20s) 
CPU  0 inst: 1212000000 cyc:  581436572 now IPC :2.20522: AVG IPC :2.08457: L2-Pf-HR :0.93723: L2-HR :0.94502: (Sim:4h22m27s) 
CPU  0 inst: 1213000003 cyc:  581891552 now IPC :2.19791: AVG IPC :2.08466: L2-Pf-HR :0.93723: L2-HR :0.94503: (Sim:4h22m34s) 
CPU  0 inst: 1214000003 cyc:  582346099 now IPC :2.19999: AVG IPC :2.08475: L2-Pf-HR :0.93723: L2-HR :0.94503: (Sim:4h22m41s) 
CPU  0 inst: 1215000003 cyc:  582798212 now IPC :2.21184: AVG IPC :2.08485: L2-Pf-HR :0.93726: L2-HR :0.94506: (Sim:4h22m48s) 
CPU  0 inst: 1216000002 cyc:  583343847 now IPC :1.83273: AVG IPC :2.08461: L2-Pf-HR :0.93724: L2-HR :0.94504: (Sim:4h22m56s) 
CPU  0 inst: 1217000002 cyc:  583798808 now IPC :2.19799: AVG IPC :2.08470: L2-Pf-HR :0.93724: L2-HR :0.94504: (Sim:4h23m3s) 
CPU  0 inst: 1218000003 cyc:  584252089 now IPC :2.20614: AVG IPC :2.08479: L2-Pf-HR :0.93724: L2-HR :0.94504: (Sim:4h23m10s) 
CPU  0 inst: 1219000003 cyc:  584706145 now IPC :2.20237: AVG IPC :2.08488: L2-Pf-HR :0.93724: L2-HR :0.94504: (Sim:4h23m17s) 
CPU  0 inst: 1220000001 cyc:  585161725 now IPC :2.19500: AVG IPC :2.08497: L2-Pf-HR :0.93724: L2-HR :0.94505: (Sim:4h23m24s) 
CPU  0 inst: 1221000001 cyc:  585617018 now IPC :2.19639: AVG IPC :2.08506: L2-Pf-HR :0.93728: L2-HR :0.94508: (Sim:4h23m31s) 
CPU  0 inst: 1222000002 cyc:  586210081 now IPC :1.68616: AVG IPC :2.08465: L2-Pf-HR :0.93725: L2-HR :0.94505: (Sim:4h23m39s) 
CPU  0 inst: 1223000005 cyc:  586666190 now IPC :2.19247: AVG IPC :2.08474: L2-Pf-HR :0.93725: L2-HR :0.94505: (Sim:4h23m46s) 
CPU  0 inst: 1224000005 cyc:  587120610 now IPC :2.20061: AVG IPC :2.08483: L2-Pf-HR :0.93725: L2-HR :0.94505: (Sim:4h23m53s) 
CPU  0 inst: 1225000002 cyc:  587572681 now IPC :2.21204: AVG IPC :2.08492: L2-Pf-HR :0.93725: L2-HR :0.94506: (Sim:4h24m1s) 
CPU  0 inst: 1226000005 cyc:  588027878 now IPC :2.19686: AVG IPC :2.08501: L2-Pf-HR :0.93726: L2-HR :0.94506: (Sim:4h24m8s) 
CPU  0 inst: 1227000005 cyc:  588480976 now IPC :2.20703: AVG IPC :2.08510: L2-Pf-HR :0.93729: L2-HR :0.94509: (Sim:4h24m15s) 
CPU  0 inst: 1228000003 cyc:  589020523 now IPC :1.85340: AVG IPC :2.08489: L2-Pf-HR :0.93726: L2-HR :0.94506: (Sim:4h24m22s) 
CPU  0 inst: 1229000000 cyc:  589474924 now IPC :2.20069: AVG IPC :2.08498: L2-Pf-HR :0.93726: L2-HR :0.94506: (Sim:4h24m29s) 
CPU  0 inst: 1230000000 cyc:  589929330 now IPC :2.20068: AVG IPC :2.08507: L2-Pf-HR :0.93726: L2-HR :0.94507: (Sim:4h24m37s) 
CPU  0 inst: 1231000000 cyc:  590382768 now IPC :2.20537: AVG IPC :2.08516: L2-Pf-HR :0.93726: L2-HR :0.94507: (Sim:4h24m44s) 
CPU  0 inst: 1232000003 cyc:  590836359 now IPC :2.20464: AVG IPC :2.08526: L2-Pf-HR :0.93727: L2-HR :0.94508: (Sim:4h24m51s) 
CPU  0 inst: 1233000003 cyc:  591291523 now IPC :2.19701: AVG IPC :2.08534: L2-Pf-HR :0.93731: L2-HR :0.94511: (Sim:4h24m58s) 
CPU  0 inst: 1234000001 cyc:  591886383 now IPC :1.68106: AVG IPC :2.08493: L2-Pf-HR :0.93728: L2-HR :0.94508: (Sim:4h25m6s) 
CPU  0 inst: 1235000004 cyc:  592340903 now IPC :2.20013: AVG IPC :2.08502: L2-Pf-HR :0.93727: L2-HR :0.94508: (Sim:4h25m14s) 
CPU  0 inst: 1236000000 cyc:  592795785 now IPC :2.19836: AVG IPC :2.08511: L2-Pf-HR :0.93728: L2-HR :0.94508: (Sim:4h25m21s) 
CPU  0 inst: 1237000002 cyc:  593249287 now IPC :2.20507: AVG IPC :2.08520: L2-Pf-HR :0.93728: L2-HR :0.94508: (Sim:4h25m29s) 
CPU  0 inst: 1238000004 cyc:  593702623 now IPC :2.20587: AVG IPC :2.08529: L2-Pf-HR :0.93728: L2-HR :0.94509: (Sim:4h25m36s) 
CPU  0 inst: 1239000004 cyc:  594161363 now IPC :2.17988: AVG IPC :2.08537: L2-Pf-HR :0.93732: L2-HR :0.94512: (Sim:4h25m43s) 
CPU  0 inst: 1240000002 cyc:  594700171 now IPC :1.85594: AVG IPC :2.08516: L2-Pf-HR :0.93729: L2-HR :0.94509: (Sim:4h25m51s) 
CPU  0 inst: 1241000005 cyc:  595153938 now IPC :2.20378: AVG IPC :2.08525: L2-Pf-HR :0.93729: L2-HR :0.94510: (Sim:4h25m59s) 
CPU  0 inst: 1242000002 cyc:  595607547 now IPC :2.20454: AVG IPC :2.08534: L2-Pf-HR :0.93729: L2-HR :0.94510: (Sim:4h26m6s) 
CPU  0 inst: 1243000000 cyc:  596062805 now IPC :2.19655: AVG IPC :2.08543: L2-Pf-HR :0.93729: L2-HR :0.94510: (Sim:4h26m13s) 
CPU  0 inst: 1244000001 cyc:  596516430 now IPC :2.20447: AVG IPC :2.08552: L2-Pf-HR :0.93730: L2-HR :0.94511: (Sim:4h26m21s) 
CPU  0 inst: 1245000003 cyc:  596971283 now IPC :2.19852: AVG IPC :2.08560: L2-Pf-HR :0.93734: L2-HR :0.94514: (Sim:4h26m28s) 
CPU  0 inst: 1246000003 cyc:  597575987 now IPC :1.65370: AVG IPC :2.08516: L2-Pf-HR :0.93731: L2-HR :0.94511: (Sim:4h26m36s) 
CPU  0 inst: 1247000000 cyc:  598031170 now IPC :2.19691: AVG IPC :2.08525: L2-Pf-HR :0.93731: L2-HR :0.94511: (Sim:4h26m44s) 
CPU  0 inst: 1248000003 cyc:  598483838 now IPC :2.20913: AVG IPC :2.08534: L2-Pf-HR :0.93731: L2-HR :0.94511: (Sim:4h26m51s) 
CPU  0 inst: 1249000000 cyc:  598938168 now IPC :2.20104: AVG IPC :2.08543: L2-Pf-HR :0.93731: L2-HR :0.94512: (Sim:4h26m59s) 
CPU  0 inst: 1250000004 cyc:  599396304 now IPC :2.18277: AVG IPC :2.08551: L2-Pf-HR :0.93731: L2-HR :0.94512: (Sim:4h27m6s) 
CPU  0 inst: 1251000001 cyc:  599860234 now IPC :2.15549: AVG IPC :2.08556: L2-Pf-HR :0.93734: L2-HR :0.94515: (Sim:4h27m14s) 
CPU  0 inst: 1252000001 cyc:  600391939 now IPC :1.88074: AVG IPC :2.08538: L2-Pf-HR :0.93732: L2-HR :0.94512: (Sim:4h27m21s) 
CPU  0 inst: 1253000004 cyc:  600848286 now IPC :2.19132: AVG IPC :2.08546: L2-Pf-HR :0.93732: L2-HR :0.94513: (Sim:4h27m28s) 
CPU  0 inst: 1254000002 cyc:  601302927 now IPC :2.19953: AVG IPC :2.08555: L2-Pf-HR :0.93732: L2-HR :0.94513: (Sim:4h27m36s) 
CPU  0 inst: 1255000000 cyc:  601756019 now IPC :2.20705: AVG IPC :2.08564: L2-Pf-HR :0.93732: L2-HR :0.94513: (Sim:4h27m43s) 
CPU  0 inst: 1256000005 cyc:  602209898 now IPC :2.20324: AVG IPC :2.08573: L2-Pf-HR :0.93733: L2-HR :0.94514: (Sim:4h27m51s) 
CPU  0 inst: 1257000000 cyc:  602669218 now IPC :2.17712: AVG IPC :2.08580: L2-Pf-HR :0.93736: L2-HR :0.94517: (Sim:4h27m58s) 
CPU  0 inst: 1258000005 cyc:  603166559 now IPC :2.01070: AVG IPC :2.08573: L2-Pf-HR :0.93732: L2-HR :0.94514: (Sim:4h28m5s) 
CPU  0 inst: 1259000000 cyc:  603607950 now IPC :2.26555: AVG IPC :2.08587: L2-Pf-HR :0.93730: L2-HR :0.94513: (Sim:4h28m12s) 
CPU  0 inst: 1260000005 cyc:  604083273 now IPC :2.10384: AVG IPC :2.08588: L2-Pf-HR :0.93727: L2-HR :0.94510: (Sim:4h28m19s) 
CPU  0 inst: 1261000003 cyc:  604526199 now IPC :2.25771: AVG IPC :2.08601: L2-Pf-HR :0.93725: L2-HR :0.94509: (Sim:4h28m26s) 
CPU  0 inst: 1262000002 cyc:  605159188 now IPC :1.57980: AVG IPC :2.08548: L2-Pf-HR :0.93722: L2-HR :0.94505: (Sim:4h28m34s) 
CPU  0 inst: 1263000004 cyc:  605633873 now IPC :2.10666: AVG IPC :2.08549: L2-Pf-HR :0.93722: L2-HR :0.94505: (Sim:4h28m41s) 
CPU  0 inst: 1264000000 cyc:  606104726 now IPC :2.12380: AVG IPC :2.08552: L2-Pf-HR :0.93722: L2-HR :0.94505: (Sim:4h28m48s) 
CPU  0 inst: 1265000003 cyc:  606574838 now IPC :2.12716: AVG IPC :2.08555: L2-Pf-HR :0.93722: L2-HR :0.94505: (Sim:4h28m56s) 
CPU  0 inst: 1266000001 cyc:  607045027 now IPC :2.12680: AVG IPC :2.08559: L2-Pf-HR :0.93723: L2-HR :0.94506: (Sim:4h29m3s) 
CPU  0 inst: 1267000002 cyc:  607514812 now IPC :2.12864: AVG IPC :2.08562: L2-Pf-HR :0.93726: L2-HR :0.94508: (Sim:4h29m10s) 
CPU  0 inst: 1268000000 cyc:  608077877 now IPC :1.77599: AVG IPC :2.08533: L2-Pf-HR :0.93724: L2-HR :0.94506: (Sim:4h29m18s) 
CPU  0 inst: 1269000000 cyc:  608549213 now IPC :2.12163: AVG IPC :2.08536: L2-Pf-HR :0.93724: L2-HR :0.94506: (Sim:4h29m25s) 
CPU  0 inst: 1270000002 cyc:  609028022 now IPC :2.08852: AVG IPC :2.08536: L2-Pf-HR :0.93724: L2-HR :0.94506: (Sim:4h29m32s) 
CPU  0 inst: 1271000003 cyc:  609502691 now IPC :2.10673: AVG IPC :2.08538: L2-Pf-HR :0.93723: L2-HR :0.94505: (Sim:4h29m39s) 
CPU  0 inst: 1272000002 cyc:  609977456 now IPC :2.10630: AVG IPC :2.08540: L2-Pf-HR :0.93724: L2-HR :0.94506: (Sim:4h29m47s) 
CPU  0 inst: 1273000005 cyc:  610450743 now IPC :2.11289: AVG IPC :2.08542: L2-Pf-HR :0.93726: L2-HR :0.94508: (Sim:4h29m54s) 
CPU  0 inst: 1274000004 cyc:  611066360 now IPC :1.62438: AVG IPC :2.08495: L2-Pf-HR :0.93723: L2-HR :0.94504: (Sim:4h30m2s) 
CPU  0 inst: 1275000000 cyc:  611525888 now IPC :2.17614: AVG IPC :2.08502: L2-Pf-HR :0.93723: L2-HR :0.94504: (Sim:4h30m9s) 
CPU  0 inst: 1276000000 cyc:  611984127 now IPC :2.18227: AVG IPC :2.08509: L2-Pf-HR :0.93722: L2-HR :0.94504: (Sim:4h30m16s) 
CPU  0 inst: 1277000001 cyc:  612442180 now IPC :2.18316: AVG IPC :2.08517: L2-Pf-HR :0.93722: L2-HR :0.94504: (Sim:4h30m23s) 
CPU  0 inst: 1278000001 cyc:  612898650 now IPC :2.19072: AVG IPC :2.08525: L2-Pf-HR :0.93723: L2-HR :0.94504: (Sim:4h30m31s) 
CPU  0 inst: 1279000002 cyc:  613356312 now IPC :2.18502: AVG IPC :2.08532: L2-Pf-HR :0.93725: L2-HR :0.94507: (Sim:4h30m38s) 
CPU  0 inst: 1280000002 cyc:  613899859 now IPC :1.83977: AVG IPC :2.08510: L2-Pf-HR :0.93723: L2-HR :0.94504: (Sim:4h30m45s) 
CPU  0 inst: 1281000003 cyc:  614356661 now IPC :2.18913: AVG IPC :2.08518: L2-Pf-HR :0.93723: L2-HR :0.94504: (Sim:4h30m52s) 
CPU  0 inst: 1282000002 cyc:  614813821 now IPC :2.18742: AVG IPC :2.08526: L2-Pf-HR :0.93723: L2-HR :0.94505: (Sim:4h30m59s) 
CPU  0 inst: 1283000001 cyc:  615273512 now IPC :2.17537: AVG IPC :2.08532: L2-Pf-HR :0.93723: L2-HR :0.94505: (Sim:4h31m7s) 
CPU  0 inst: 1284000002 cyc:  615730607 now IPC :2.18773: AVG IPC :2.08540: L2-Pf-HR :0.93723: L2-HR :0.94505: (Sim:4h31m14s) 
CPU  0 inst: 1285000002 cyc:  616184170 now IPC :2.20477: AVG IPC :2.08549: L2-Pf-HR :0.93727: L2-HR :0.94508: (Sim:4h31m21s) 
CPU  0 inst: 1286000000 cyc:  616791162 now IPC :1.64746: AVG IPC :2.08506: L2-Pf-HR :0.93724: L2-HR :0.94505: (Sim:4h31m28s) 
CPU  0 inst: 1287000000 cyc:  617248230 now IPC :2.18786: AVG IPC :2.08513: L2-Pf-HR :0.93724: L2-HR :0.94505: (Sim:4h31m36s) 
CPU  0 inst: 1288000003 cyc:  617703541 now IPC :2.19631: AVG IPC :2.08521: L2-Pf-HR :0.93724: L2-HR :0.94506: (Sim:4h31m43s) 
CPU  0 inst: 1289000000 cyc:  618161260 now IPC :2.18474: AVG IPC :2.08529: L2-Pf-HR :0.93724: L2-HR :0.94506: (Sim:4h31m50s) 
CPU  0 inst: 1290000000 cyc:  618620391 now IPC :2.17803: AVG IPC :2.08536: L2-Pf-HR :0.93725: L2-HR :0.94507: (Sim:4h31m57s) 
CPU  0 inst: 1291000001 cyc:  619075308 now IPC :2.19821: AVG IPC :2.08544: L2-Pf-HR :0.93728: L2-HR :0.94509: (Sim:4h32m4s) 
CPU  0 inst: 1292000001 cyc:  619622004 now IPC :1.82917: AVG IPC :2.08521: L2-Pf-HR :0.93725: L2-HR :0.94507: (Sim:4h32m11s) 
CPU  0 inst: 1293000004 cyc:  620081798 now IPC :2.17489: AVG IPC :2.08528: L2-Pf-HR :0.93725: L2-HR :0.94507: (Sim:4h32m19s) 
CPU  0 inst: 1294000000 cyc:  620539078 now IPC :2.18684: AVG IPC :2.08536: L2-Pf-HR :0.93725: L2-HR :0.94507: (Sim:4h32m26s) 
CPU  0 inst: 1295000005 cyc:  620994647 now IPC :2.19507: AVG IPC :2.08544: L2-Pf-HR :0.93725: L2-HR :0.94507: (Sim:4h32m33s) 
CPU  0 inst: 1296000004 cyc:  621453755 now IPC :2.17813: AVG IPC :2.08550: L2-Pf-HR :0.93726: L2-HR :0.94508: (Sim:4h32m40s) 
CPU  0 inst: 1297000002 cyc:  621908917 now IPC :2.19702: AVG IPC :2.08559: L2-Pf-HR :0.93729: L2-HR :0.94511: (Sim:4h32m47s) 
CPU  0 inst: 1298000005 cyc:  622495367 now IPC :1.70518: AVG IPC :2.08523: L2-Pf-HR :0.93727: L2-HR :0.94508: (Sim:4h32m55s) 
CPU  0 inst: 1299000002 cyc:  622954363 now IPC :2.17866: AVG IPC :2.08530: L2-Pf-HR :0.93727: L2-HR :0.94508: (Sim:4h33m2s) 
CPU  0 inst: 1300000005 cyc:  623413557 now IPC :2.17774: AVG IPC :2.08536: L2-Pf-HR :0.93727: L2-HR :0.94508: (Sim:4h33m9s) 
CPU  0 inst: 1301000005 cyc:  623870553 now IPC :2.18820: AVG IPC :2.08544: L2-Pf-HR :0.93727: L2-HR :0.94508: (Sim:4h33m16s) 
CPU  0 inst: 1302000003 cyc:  624326562 now IPC :2.19293: AVG IPC :2.08552: L2-Pf-HR :0.93727: L2-HR :0.94509: (Sim:4h33m24s) 
CPU  0 inst: 1303000003 cyc:  624785132 now IPC :2.18069: AVG IPC :2.08559: L2-Pf-HR :0.93730: L2-HR :0.94512: (Sim:4h33m31s) 
CPU  0 inst: 1304000000 cyc:  625327474 now IPC :1.84385: AVG IPC :2.08538: L2-Pf-HR :0.93728: L2-HR :0.94509: (Sim:4h33m38s) 
CPU  0 inst: 1305000004 cyc:  625783202 now IPC :2.19430: AVG IPC :2.08546: L2-Pf-HR :0.93728: L2-HR :0.94510: (Sim:4h33m45s) 
CPU  0 inst: 1306000003 cyc:  626240945 now IPC :2.18463: AVG IPC :2.08553: L2-Pf-HR :0.93728: L2-HR :0.94510: (Sim:4h33m52s) 
CPU  0 inst: 1307000003 cyc:  626698915 now IPC :2.18355: AVG IPC :2.08560: L2-Pf-HR :0.93728: L2-HR :0.94510: (Sim:4h33m59s) 
CPU  0 inst: 1308000001 cyc:  627154969 now IPC :2.19272: AVG IPC :2.08568: L2-Pf-HR :0.93729: L2-HR :0.94511: (Sim:4h34m7s) 
CPU  0 inst: 1309000001 cyc:  627612234 now IPC :2.18692: AVG IPC :2.08575: L2-Pf-HR :0.93732: L2-HR :0.94514: (Sim:4h34m14s) 
CPU  0 inst: 1310000001 cyc:  628218177 now IPC :1.65032: AVG IPC :2.08533: L2-Pf-HR :0.93730: L2-HR :0.94511: (Sim:4h34m21s) 
CPU  0 inst: 1311000002 cyc:  628675501 now IPC :2.18664: AVG IPC :2.08541: L2-Pf-HR :0.93730: L2-HR :0.94511: (Sim:4h34m29s) 
CPU  0 inst: 1312000001 cyc:  629131987 now IPC :2.19065: AVG IPC :2.08548: L2-Pf-HR :0.93729: L2-HR :0.94511: (Sim:4h34m36s) 
CPU  0 inst: 1313000001 cyc:  629592071 now IPC :2.17352: AVG IPC :2.08555: L2-Pf-HR :0.93730: L2-HR :0.94511: (Sim:4h34m43s) 
CPU  0 inst: 1314000005 cyc:  630047852 now IPC :2.19404: AVG IPC :2.08563: L2-Pf-HR :0.93730: L2-HR :0.94512: (Sim:4h34m50s) 
CPU  0 inst: 1315000005 cyc:  630502440 now IPC :2.19979: AVG IPC :2.08571: L2-Pf-HR :0.93733: L2-HR :0.94515: (Sim:4h34m57s) 
CPU  0 inst: 1316000002 cyc:  631050028 now IPC :1.82618: AVG IPC :2.08548: L2-Pf-HR :0.93731: L2-HR :0.94512: (Sim:4h35m5s) 
Finished CPU 0 instr: 1314000003 cyc: 630069573 AVG IPC: 2.08548 (Sim time: 4h35m5s)

ChampSim completed all CPUs

[ROI Statistics]
Core_0_instructions 1314000003
Core_0_cycles 630069573
Core_0_IPC 2.08548

Core_0_branch_prediction_accuracy 99.93053
Core_0_branch_MPKI 0.00971
Core_0_average_ROB_occupancy_at_mispredict 551.43110

Core_0_L1D_total_access 663273709
Core_0_L1D_total_hit 631414228 L1D_total_Hit Ratio: 0.95197
Core_0_L1D_total_miss 31859481
Core_0_L1D_loads 293698863
Core_0_L1D_load_hit 277843320 L1D_load_Hit Ratio: 0.94601
Core_0_L1D_load_miss 15855543
Core_0_L1D_RFOs 11882500
Core_0_L1D_RFO_hit 11877974 L1D_RFO_Hit Ratio: 0.99962
Core_0_L1D_RFO_miss 4526
Core_0_L1D_prefetches 357692346
Core_0_L1D_prefetch_hit 341692934 L1D_prefetch_Hit Ratio: 0.95527
Core_0_L1D_prefetch_miss 15999412
Core_0_L1D_writebacks 0
Core_0_L1D_writeback_hit 0 L1D_writeback_Hit Ratio: -nan
Core_0_L1D_writeback_miss 0
Core_0_L1D_prefetch_requested 884958135
Core_0_L1D_prefetch_issued 466325716
Core_0_L1D_prefetch_useful 8304322 L1D_Useful Ratio: 0.01781
Core_0_L1D_prefetch_useless 7716715
Core_0_L1D_prefetch_late 1070347
Core_0_L1D_average_miss_latency 10609311.61556

Core_0_L1I_total_access 150582728
Core_0_L1I_total_hit 150580248 L1I_total_Hit Ratio: 0.99998
Core_0_L1I_total_miss 2480
Core_0_L1I_loads 150582728
Core_0_L1I_load_hit 150580248 L1I_load_Hit Ratio: 0.99998
Core_0_L1I_load_miss 2480
Core_0_L1I_RFOs 0
Core_0_L1I_RFO_hit 0 L1I_RFO_Hit Ratio: -nan
Core_0_L1I_RFO_miss 0
Core_0_L1I_prefetches 0
Core_0_L1I_prefetch_hit 0 L1I_prefetch_Hit Ratio: -nan
Core_0_L1I_prefetch_miss 0
Core_0_L1I_writebacks 0
Core_0_L1I_writeback_hit 0 L1I_writeback_Hit Ratio: -nan
Core_0_L1I_writeback_miss 0
Core_0_L1I_prefetch_requested 0
Core_0_L1I_prefetch_issued 0
Core_0_L1I_prefetch_useful 0 L1I_Useful Ratio: -nan
Core_0_L1I_prefetch_useless 0
Core_0_L1I_prefetch_late 0
Core_0_L1I_average_miss_latency 377.34234

Core_0_L2C_total_access 113277951
Core_0_L2C_total_hit 107061393 L2C_total_Hit Ratio: 0.94512
Core_0_L2C_total_miss 6216558
Core_0_L2C_loads 14789296
Core_0_L2C_load_hit 14274320 L2C_load_Hit Ratio: 0.96518
Core_0_L2C_load_miss 514976
Core_0_L2C_RFOs 4513
Core_0_L2C_RFO_hit 4168 L2C_RFO_Hit Ratio: 0.92355
Core_0_L2C_RFO_miss 345
Core_0_L2C_prefetches 90940137
Core_0_L2C_prefetch_hit 85238900 L2C_prefetch_Hit Ratio: 0.93731
Core_0_L2C_prefetch_miss 5701237
Core_0_L2C_writebacks 7544005
Core_0_L2C_writeback_hit 7544005 L2C_writeback_Hit Ratio: 1.00000
Core_0_L2C_writeback_miss 0
Core_0_L2C_prefetch_requested 216997577
Core_0_L2C_prefetch_issued 103796855
Core_0_L2C_prefetch_useful 5371008 L2C_Useful Ratio: 0.05175
Core_0_L2C_prefetch_useless 339686
Core_0_L2C_prefetch_late 64212
Core_0_L2C_average_miss_latency 242.05875

Core_0_LLC_total_access 11693255
Core_0_LLC_total_hit 5836016 LLC_total_Hit Ratio: 0.49909
Core_0_LLC_total_miss 5857239
Core_0_LLC_loads 450773
Core_0_LLC_load_hit 62733 LLC_load_Hit Ratio: 0.13917
Core_0_LLC_load_miss 388040
Core_0_LLC_RFOs 345
Core_0_LLC_RFO_hit 0 LLC_RFO_Hit Ratio: 0.00000
Core_0_LLC_RFO_miss 345
Core_0_LLC_prefetches 5771499
Core_0_LLC_prefetch_hit 372154 LLC_prefetch_Hit Ratio: 0.06448
Core_0_LLC_prefetch_miss 5399345
Core_0_LLC_writebacks 5470638
Core_0_LLC_writeback_hit 5401129 LLC_writeback_Hit Ratio: 0.98729
Core_0_LLC_writeback_miss 69509
Core_0_LLC_prefetch_requested 0
Core_0_LLC_prefetch_issued 0
Core_0_LLC_prefetch_useful 11028 LLC_Useful Ratio: inf
Core_0_LLC_prefetch_useless 5285215
Core_0_LLC_prefetch_late 982
Core_0_LLC_average_miss_latency 215.40019

Core_0_major_page_fault 0
Core_0_minor_page_fault 21513

CPU 0 L1D next line prefetcher final stats
CPU 0 L2C PC-based stride prefetcher final stats
Stride Degree: 15
MK1  MARKOV_LRU_SIZE: 128
MK1  MARKOV_PREDICTION_PERCENTTHRESHOLD: 40.00000
MK1  OUTLIERS_THRESHOLD_Max: 64
MK1  OUTLIERS_THRESHOLD_Min: 32
MK2  MARKOV_LRU_SIZE: 256
MK2  MARKOV_PREDICTION_PERCENTTHRESHOLD: 30.00000
MK2  OUTLIERS_THRESHOLD_Max: 32
MK2  OUTLIERS_THRESHOLD_Min: 16
MK3  MARKOV_LRU_SIZE: 384
MK3  MARKOV_PREDICTION_PERCENTTHRESHOLD: 25.00000
MK3  OUTLIERS_THRESHOLD_Max: 16
MK3  OUTLIERS_THRESHOLD_Min: 8
MK4  MARKOV_LRU_SIZE: 512
MK4  MARKOV_PREDICTION_PERCENTTHRESHOLD: 20.00000
MK4  OUTLIERS_THRESHOLD_Max: 8
MK4  OUTLIERS_THRESHOLD_Min: 0
IPStride Degree/Access Ratio: 5.17403
MK1 IPDEltaMarkov  Degree/Access Ratio: 0.35283
MK2 IPDEltaMarkov  Degree/Access Ratio: 0.04661
MK3 IPDEltaMarkov  Degree/Access Ratio: 0.50232
MK4 IPDEltaMarkov  Degree/Access Ratio: 0.91106
Channel_0_RQ_row_buffer_hit 2020205
Channel_0_RQ_row_buffer_miss 3767523
Channel_0_WQ_row_buffer_hit 643341
Channel_0_WQ_row_buffer_miss 4695917
Channel_0_WQ_full 3213
Channel_0_dbus_congested 6460944

avg_congested_cycle 8

EzSearch AVG IPC :2.08548: L2-Pf-HR :0.93731 : L2-HR :0.94512 Uful:0.05175
     > Finished combination: TraceType=770-tot Sim:1314000000 Prefetcher=L2029-SecTOP-L2-MultiMarkovDelta_ip_stride_v4-IPStrS256 L1=next_line
