TRACE: [125000000][OPT-125M]_[h12][s512][d64] Warmup: 2000000 NumTraces: 125000000
L1:isb_ideal:L2:isb_ideal
*************************************************
   ChampSim Multicore Out-of-Order Simulator
   Last compiled: Oct 30 2024 23:40:56
*************************************************

trace_0 770-tot_memTraces_v5/140-subBillion_s512_LLM_Arch/memTraces[125000000][OPT-125M]_[h12][s512][d64].champsim.9.xz
L1D: Ideal ISB Prefetching
Ideal ISB Prefetching
MAIN.cc ln 751 stats print skipped
CPU  0 inst:    1000001 cyc:     498742 now IPC :2.00505: AVG IPC :2.00505: L2-Pf-HR :1.00000: L2-HR :0.87866: (Sim:0h0m21s) 
CPU  0 inst:    2000000 cyc:     981674 now IPC :2.07068: AVG IPC :2.03734: L2-Pf-HR :1.00000: L2-HR :0.91210: (Sim:0h0m42s) 

Warmup complete CPU  0 instructions:    2000003 cycles:     981675 (Simulation time: 0 hr 0 min 42 sec) 

CPU  0 inst:    3000001 cyc:    1610988 now IPC :1.58903: AVG IPC :1.58903: L2-Pf-HR :1.00000: L2-HR :0.94122: (Sim:0h1m0s) 
CPU  0 inst:    4000000 cyc:    2215546 now IPC :1.65410: AVG IPC :1.62091: L2-Pf-HR :1.00000: L2-HR :0.92341: (Sim:0h1m18s) 
CPU  0 inst:    5000000 cyc:    2860809 now IPC :1.54976: AVG IPC :1.59648: L2-Pf-HR :1.00000: L2-HR :0.92294: (Sim:0h1m31s) 
CPU  0 inst:    6000004 cyc:    3471749 now IPC :1.63683: AVG IPC :1.60638: L2-Pf-HR :1.00000: L2-HR :0.93063: (Sim:0h1m41s) 
CPU  0 inst:    7000005 cyc:    4083123 now IPC :1.63566: AVG IPC :1.61215: L2-Pf-HR :1.00000: L2-HR :0.93450: (Sim:0h1m52s) 
CPU  0 inst:    8000005 cyc:    4686720 now IPC :1.65673: AVG IPC :1.61941: L2-Pf-HR :1.00000: L2-HR :0.93132: (Sim:0h2m2s) 
CPU  0 inst:    9000004 cyc:    5325101 now IPC :1.56646: AVG IPC :1.61163: L2-Pf-HR :1.00000: L2-HR :0.92908: (Sim:0h2m13s) 
CPU  0 inst:   10000001 cyc:    5934376 now IPC :1.64129: AVG IPC :1.61528: L2-Pf-HR :1.00000: L2-HR :0.93193: (Sim:0h2m22s) 
CPU  0 inst:   11000005 cyc:    6543715 now IPC :1.64113: AVG IPC :1.61811: L2-Pf-HR :1.00000: L2-HR :0.93394: (Sim:0h2m31s) 
CPU  0 inst:   12000005 cyc:    7147574 now IPC :1.65602: AVG IPC :1.62182: L2-Pf-HR :1.00000: L2-HR :0.93268: (Sim:0h2m39s) 
CPU  0 inst:   13000002 cyc:    7780465 now IPC :1.58005: AVG IPC :1.61793: L2-Pf-HR :1.00000: L2-HR :0.93067: (Sim:0h2m58s) 
CPU  0 inst:   14000005 cyc:    8388465 now IPC :1.64474: AVG IPC :1.62014: L2-Pf-HR :1.00000: L2-HR :0.93225: (Sim:0h3m17s) 
CPU  0 inst:   15000001 cyc:    8996231 now IPC :1.64536: AVG IPC :1.62205: L2-Pf-HR :1.00000: L2-HR :0.93380: (Sim:0h3m36s) 
CPU  0 inst:   16000000 cyc:    9603918 now IPC :1.64558: AVG IPC :1.62371: L2-Pf-HR :1.00000: L2-HR :0.93325: (Sim:0h3m54s) 
CPU  0 inst:   17000000 cyc:   10234031 now IPC :1.58702: AVG IPC :1.62121: L2-Pf-HR :1.00000: L2-HR :0.93122: (Sim:0h4m9s) 
CPU  0 inst:   18000001 cyc:   10845193 now IPC :1.63623: AVG IPC :1.62214: L2-Pf-HR :1.00000: L2-HR :0.93254: (Sim:0h4m22s) 
CPU  0 inst:   19000004 cyc:   11455765 now IPC :1.63781: AVG IPC :1.62305: L2-Pf-HR :1.00000: L2-HR :0.93345: (Sim:0h4m36s) 
CPU  0 inst:   20000000 cyc:   12065700 now IPC :1.63951: AVG IPC :1.62396: L2-Pf-HR :1.00000: L2-HR :0.93353: (Sim:0h4m55s) 
CPU  0 inst:   21000005 cyc:   12699730 now IPC :1.57722: AVG IPC :1.62143: L2-Pf-HR :1.00000: L2-HR :0.93168: (Sim:0h5m14s) 
CPU  0 inst:   22000004 cyc:   13323624 now IPC :1.60283: AVG IPC :1.62049: L2-Pf-HR :1.00000: L2-HR :0.93256: (Sim:0h5m33s) 
CPU  0 inst:   23000003 cyc:   13944721 now IPC :1.61005: AVG IPC :1.61999: L2-Pf-HR :1.00000: L2-HR :0.93346: (Sim:0h5m52s) 
CPU  0 inst:   24000004 cyc:   14570083 now IPC :1.59908: AVG IPC :1.61903: L2-Pf-HR :1.00000: L2-HR :0.93369: (Sim:0h6m11s) 
CPU  0 inst:   25000003 cyc:   15229000 now IPC :1.51764: AVG IPC :1.61434: L2-Pf-HR :1.00000: L2-HR :0.93188: (Sim:0h6m30s) 
CPU  0 inst:   26000002 cyc:   15869387 now IPC :1.56155: AVG IPC :1.61207: L2-Pf-HR :1.00000: L2-HR :0.93266: (Sim:0h6m49s) 
CPU  0 inst:   27000003 cyc:   16509864 now IPC :1.56134: AVG IPC :1.60998: L2-Pf-HR :1.00000: L2-HR :0.93338: (Sim:0h7m8s) 
CPU  0 inst:   28000001 cyc:   17156090 now IPC :1.54744: AVG IPC :1.60748: L2-Pf-HR :1.00000: L2-HR :0.93379: (Sim:0h7m27s) 
CPU  0 inst:   29000002 cyc:   17829193 now IPC :1.48566: AVG IPC :1.60261: L2-Pf-HR :1.00000: L2-HR :0.93204: (Sim:0h7m46s) 
CPU  0 inst:   30000000 cyc:   18494347 now IPC :1.50341: AVG IPC :1.59884: L2-Pf-HR :1.00000: L2-HR :0.93273: (Sim:0h8m5s) 
CPU  0 inst:   31000001 cyc:   19152967 now IPC :1.51833: AVG IPC :1.59592: L2-Pf-HR :1.00000: L2-HR :0.93330: (Sim:0h8m24s) 
CPU  0 inst:   32000003 cyc:   19815939 now IPC :1.50836: AVG IPC :1.59284: L2-Pf-HR :1.00000: L2-HR :0.93388: (Sim:0h8m43s) 
CPU  0 inst:   33000003 cyc:   20483952 now IPC :1.49698: AVG IPC :1.58956: L2-Pf-HR :1.00000: L2-HR :0.93237: (Sim:0h9m2s) 
CPU  0 inst:   34000004 cyc:   21196811 now IPC :1.40280: AVG IPC :1.58297: L2-Pf-HR :1.00000: L2-HR :0.93271: (Sim:0h9m22s) 
CPU  0 inst:   35000005 cyc:   21876003 now IPC :1.47234: AVG IPC :1.57938: L2-Pf-HR :1.00000: L2-HR :0.93332: (Sim:0h9m41s) 
CPU  0 inst:   36000000 cyc:   22549407 now IPC :1.48499: AVG IPC :1.57643: L2-Pf-HR :1.00000: L2-HR :0.93375: (Sim:0h10m1s) 
CPU  0 inst:   37000005 cyc:   23196524 now IPC :1.54532: AVG IPC :1.57552: L2-Pf-HR :1.00000: L2-HR :0.93288: (Sim:0h10m20s) 
CPU  0 inst:   38000004 cyc:   23913248 now IPC :1.39524: AVG IPC :1.56989: L2-Pf-HR :1.00000: L2-HR :0.93276: (Sim:0h10m40s) 
CPU  0 inst:   39000002 cyc:   24583193 now IPC :1.49266: AVG IPC :1.56770: L2-Pf-HR :1.00000: L2-HR :0.93320: (Sim:0h10m59s) 
CPU  0 inst:   40000000 cyc:   25251027 now IPC :1.49738: AVG IPC :1.56576: L2-Pf-HR :1.00000: L2-HR :0.93368: (Sim:0h11m19s) 
CPU  0 inst:   41000003 cyc:   25910299 now IPC :1.51683: AVG IPC :1.56447: L2-Pf-HR :1.00000: L2-HR :0.93302: (Sim:0h11m36s) 
CPU  0 inst:   42000002 cyc:   26633059 now IPC :1.38358: AVG IPC :1.55937: L2-Pf-HR :1.00000: L2-HR :0.93275: (Sim:0h11m51s) 
CPU  0 inst:   43000000 cyc:   27308297 now IPC :1.48096: AVG IPC :1.55736: L2-Pf-HR :1.00000: L2-HR :0.93319: (Sim:0h12m11s) 
CPU  0 inst:   44000001 cyc:   27982138 now IPC :1.48403: AVG IPC :1.55553: L2-Pf-HR :1.00000: L2-HR :0.93359: (Sim:0h12m30s) 
CPU  0 inst:   45000001 cyc:   28641884 now IPC :1.51573: AVG IPC :1.55458: L2-Pf-HR :1.00000: L2-HR :0.93314: (Sim:0h12m49s) 
CPU  0 inst:   46000002 cyc:   29348436 now IPC :1.41533: AVG IPC :1.55111: L2-Pf-HR :1.00000: L2-HR :0.93277: (Sim:0h13m3s) 
CPU  0 inst:   47000004 cyc:   30012605 now IPC :1.50564: AVG IPC :1.55007: L2-Pf-HR :1.00000: L2-HR :0.93318: (Sim:0h13m21s) 
CPU  0 inst:   48000005 cyc:   30683720 now IPC :1.49006: AVG IPC :1.54871: L2-Pf-HR :1.00000: L2-HR :0.93352: (Sim:0h13m41s) 
CPU  0 inst:   49000004 cyc:   31349088 now IPC :1.50293: AVG IPC :1.54771: L2-Pf-HR :1.00000: L2-HR :0.93325: (Sim:0h13m59s) 
CPU  0 inst:   50000001 cyc:   34249281 now IPC :0.34480: AVG IPC :1.44284: L2-Pf-HR :1.00000: L2-HR :0.91838: (Sim:0h14m38s) 
CPU  0 inst:   51000003 cyc:   38975370 now IPC :0.21159: AVG IPC :1.28969: L2-Pf-HR :1.00000: L2-HR :0.89430: (Sim:0h15m37s) 
CPU  0 inst:   52000000 cyc:   43813034 now IPC :0.20671: AVG IPC :1.16737: L2-Pf-HR :1.00000: L2-HR :0.88648: (Sim:0h16m23s) 
CPU  0 inst:   53000000 cyc:   48697546 now IPC :0.20473: AVG IPC :1.06883: L2-Pf-HR :1.00000: L2-HR :0.88306: (Sim:0h17m4s) 
CPU  0 inst:   54000000 cyc:   53581198 now IPC :0.20476: AVG IPC :0.98860: L2-Pf-HR :1.00000: L2-HR :0.87968: (Sim:0h17m45s) 
CPU  0 inst:   55000001 cyc:   58471453 now IPC :0.20449: AVG IPC :0.92190: L2-Pf-HR :1.00000: L2-HR :0.87634: (Sim:0h18m27s) 
CPU  0 inst:   56000002 cyc:   63357518 now IPC :0.20466: AVG IPC :0.86572: L2-Pf-HR :1.00000: L2-HR :0.87304: (Sim:0h19m7s) 
CPU  0 inst:   57000000 cyc:   68239902 now IPC :0.20482: AVG IPC :0.81774: L2-Pf-HR :1.00000: L2-HR :0.86978: (Sim:0h19m45s) 
CPU  0 inst:   58000000 cyc:   73078116 now IPC :0.20669: AVG IPC :0.77674: L2-Pf-HR :1.00000: L2-HR :0.86656: (Sim:0h20m16s) 
CPU  0 inst:   59000000 cyc:   77916764 now IPC :0.20667: AVG IPC :0.74088: L2-Pf-HR :1.00000: L2-HR :0.86337: (Sim:0h20m55s) 
CPU  0 inst:   60000000 cyc:   82621732 now IPC :0.21254: AVG IPC :0.71044: L2-Pf-HR :1.00000: L2-HR :0.86023: (Sim:0h21m33s) 
CPU  0 inst:   61000004 cyc:   87220079 now IPC :0.21747: AVG IPC :0.68415: L2-Pf-HR :1.00000: L2-HR :0.85712: (Sim:0h22m10s) 
CPU  0 inst:   62000000 cyc:   91802928 now IPC :0.21820: AVG IPC :0.66064: L2-Pf-HR :1.00000: L2-HR :0.85405: (Sim:0h22m43s) 
CPU  0 inst:   63000000 cyc:   96421297 now IPC :0.21653: AVG IPC :0.63915: L2-Pf-HR :1.00000: L2-HR :0.85102: (Sim:0h23m10s) 
CPU  0 inst:   64000005 cyc:  100949265 now IPC :0.22085: AVG IPC :0.62020: L2-Pf-HR :1.00000: L2-HR :0.84802: (Sim:0h23m48s) 
CPU  0 inst:   65000002 cyc:  105524042 now IPC :0.21859: AVG IPC :0.60263: L2-Pf-HR :1.00000: L2-HR :0.84505: (Sim:0h24m25s) 
CPU  0 inst:   66000000 cyc:  110092963 now IPC :0.21887: AVG IPC :0.58656: L2-Pf-HR :1.00000: L2-HR :0.84212: (Sim:0h24m54s) 
CPU  0 inst:   67000000 cyc:  114594555 now IPC :0.22214: AVG IPC :0.57212: L2-Pf-HR :1.00000: L2-HR :0.83922: (Sim:0h25m20s) 
CPU  0 inst:   68000000 cyc:  119196462 now IPC :0.21730: AVG IPC :0.55831: L2-Pf-HR :1.00000: L2-HR :0.83635: (Sim:0h25m43s) 
CPU  0 inst:   69000004 cyc:  123796611 now IPC :0.21739: AVG IPC :0.54554: L2-Pf-HR :1.00000: L2-HR :0.83352: (Sim:0h26m21s) 
CPU  0 inst:   70000000 cyc:  128370777 now IPC :0.21862: AVG IPC :0.53380: L2-Pf-HR :1.00000: L2-HR :0.83072: (Sim:0h26m59s) 
CPU  0 inst:   71000000 cyc:  132915341 now IPC :0.22004: AVG IPC :0.52299: L2-Pf-HR :1.00000: L2-HR :0.82795: (Sim:0h27m37s) 
CPU  0 inst:   72000000 cyc:  137482066 now IPC :0.21898: AVG IPC :0.51282: L2-Pf-HR :1.00000: L2-HR :0.82521: (Sim:0h28m15s) 
CPU  0 inst:   73000000 cyc:  142072664 now IPC :0.21784: AVG IPC :0.50322: L2-Pf-HR :1.00000: L2-HR :0.82250: (Sim:0h28m54s) 
CPU  0 inst:   74000001 cyc:  146625535 now IPC :0.21964: AVG IPC :0.49436: L2-Pf-HR :1.00000: L2-HR :0.81982: (Sim:0h29m32s) 
CPU  0 inst:   75000002 cyc:  151183525 now IPC :0.21940: AVG IPC :0.48601: L2-Pf-HR :1.00000: L2-HR :0.81717: (Sim:0h30m7s) 
CPU  0 inst:   76000000 cyc:  153429748 now IPC :0.44519: AVG IPC :0.48541: L2-Pf-HR :1.00000: L2-HR :0.81575: (Sim:0h30m27s) 
CPU  0 inst:   77000002 cyc:  154129329 now IPC :1.42943: AVG IPC :0.48972: L2-Pf-HR :1.00000: L2-HR :0.81560: (Sim:0h30m40s) 
CPU  0 inst:   78000004 cyc:  154827001 now IPC :1.43334: AVG IPC :0.49400: L2-Pf-HR :1.00000: L2-HR :0.81550: (Sim:0h31m5s) 
CPU  0 inst:   79000000 cyc:  155474329 now IPC :1.54481: AVG IPC :0.49841: L2-Pf-HR :1.00000: L2-HR :0.81576: (Sim:0h31m29s) 
CPU  0 inst:   80000005 cyc:  156190350 now IPC :1.39661: AVG IPC :0.50255: L2-Pf-HR :1.00000: L2-HR :0.81549: (Sim:0h31m55s) 
CPU  0 inst:   81000000 cyc:  156879788 now IPC :1.45045: AVG IPC :0.50674: L2-Pf-HR :1.00000: L2-HR :0.81540: (Sim:0h32m20s) 
CPU  0 inst:   82000001 cyc:  157577278 now IPC :1.43371: AVG IPC :0.51087: L2-Pf-HR :1.00000: L2-HR :0.81525: (Sim:0h32m44s) 
CPU  0 inst:   83000003 cyc:  158225930 now IPC :1.54166: AVG IPC :0.51512: L2-Pf-HR :1.00000: L2-HR :0.81554: (Sim:0h33m8s) 
CPU  0 inst:   84000004 cyc:  158941311 now IPC :1.39786: AVG IPC :0.51912: L2-Pf-HR :1.00000: L2-HR :0.81536: (Sim:0h33m32s) 
CPU  0 inst:   85000005 cyc:  159632557 now IPC :1.44666: AVG IPC :0.52316: L2-Pf-HR :1.00000: L2-HR :0.81528: (Sim:0h33m56s) 
CPU  0 inst:   86000001 cyc:  160334630 now IPC :1.42435: AVG IPC :0.52713: L2-Pf-HR :1.00000: L2-HR :0.81502: (Sim:0h34m20s) 
CPU  0 inst:   87000002 cyc:  160991511 now IPC :1.52235: AVG IPC :0.53122: L2-Pf-HR :1.00000: L2-HR :0.81532: (Sim:0h34m44s) 
CPU  0 inst:   88000002 cyc:  161674470 now IPC :1.46422: AVG IPC :0.53518: L2-Pf-HR :1.00000: L2-HR :0.81529: (Sim:0h35m8s) 
CPU  0 inst:   89000000 cyc:  162375942 now IPC :1.42557: AVG IPC :0.53905: L2-Pf-HR :1.00000: L2-HR :0.81515: (Sim:0h35m32s) 
CPU  0 inst:   90000001 cyc:  163057255 now IPC :1.46776: AVG IPC :0.54296: L2-Pf-HR :1.00000: L2-HR :0.81507: (Sim:0h35m57s) 
CPU  0 inst:   91000004 cyc:  163757692 now IPC :1.42768: AVG IPC :0.54676: L2-Pf-HR :1.00000: L2-HR :0.81511: (Sim:0h36m21s) 
CPU  0 inst:   92000000 cyc:  164413108 now IPC :1.52574: AVG IPC :0.55069: L2-Pf-HR :1.00000: L2-HR :0.81531: (Sim:0h36m46s) 
CPU  0 inst:   93000002 cyc:  165132433 now IPC :1.39020: AVG IPC :0.55437: L2-Pf-HR :1.00000: L2-HR :0.81505: (Sim:0h37m11s) 
CPU  0 inst:   94000004 cyc:  165817514 now IPC :1.45968: AVG IPC :0.55813: L2-Pf-HR :1.00000: L2-HR :0.81497: (Sim:0h37m36s) 
CPU  0 inst:   95000002 cyc:  166521635 now IPC :1.42021: AVG IPC :0.56180: L2-Pf-HR :1.00000: L2-HR :0.81489: (Sim:0h38m1s) 
CPU  0 inst:   96000001 cyc:  167170420 now IPC :1.54134: AVG IPC :0.56562: L2-Pf-HR :1.00000: L2-HR :0.81514: (Sim:0h38m26s) 
CPU  0 inst:   97000001 cyc:  167881997 now IPC :1.40533: AVG IPC :0.56920: L2-Pf-HR :1.00000: L2-HR :0.81496: (Sim:0h38m50s) 
CPU  0 inst:   98000005 cyc:  168568282 now IPC :1.45713: AVG IPC :0.57284: L2-Pf-HR :1.00000: L2-HR :0.81488: (Sim:0h39m15s) 
CPU  0 inst:   99000002 cyc:  169283122 now IPC :1.39891: AVG IPC :0.57635: L2-Pf-HR :1.00000: L2-HR :0.81471: (Sim:0h39m39s) 
CPU  0 inst:  100000002 cyc:  169927046 now IPC :1.55298: AVG IPC :0.58007: L2-Pf-HR :1.00000: L2-HR :0.81497: (Sim:0h40m3s) 
CPU  0 inst:  101000003 cyc:  170616001 now IPC :1.45148: AVG IPC :0.58361: L2-Pf-HR :1.00000: L2-HR :0.81488: (Sim:0h40m27s) 
CPU  0 inst:  102000004 cyc:  171294697 now IPC :1.47342: AVG IPC :0.58715: L2-Pf-HR :1.00000: L2-HR :0.81481: (Sim:0h40m52s) 
CPU  0 inst:  103000004 cyc:  171992840 now IPC :1.43237: AVG IPC :0.59060: L2-Pf-HR :1.00000: L2-HR :0.81458: (Sim:0h41m16s) 
CPU  0 inst:  104000005 cyc:  172632620 now IPC :1.56304: AVG IPC :0.59423: L2-Pf-HR :1.00000: L2-HR :0.81483: (Sim:0h41m40s) 
CPU  0 inst:  105000001 cyc:  173296696 now IPC :1.50585: AVG IPC :0.59774: L2-Pf-HR :1.00000: L2-HR :0.81477: (Sim:0h42m4s) 
CPU  0 inst:  106000003 cyc:  173970167 now IPC :1.48485: AVG IPC :0.60120: L2-Pf-HR :1.00000: L2-HR :0.81468: (Sim:0h42m28s) 
CPU  0 inst:  107000000 cyc:  174660000 now IPC :1.44962: AVG IPC :0.60457: L2-Pf-HR :1.00000: L2-HR :0.81440: (Sim:0h42m53s) 
CPU  0 inst:  108000004 cyc:  175287096 now IPC :1.59466: AVG IPC :0.60813: L2-Pf-HR :1.00000: L2-HR :0.81466: (Sim:0h43m16s) 
CPU  0 inst:  109000003 cyc:  175936432 now IPC :1.54003: AVG IPC :0.61159: L2-Pf-HR :1.00000: L2-HR :0.81466: (Sim:0h43m40s) 
CPU  0 inst:  110000001 cyc:  176624846 now IPC :1.45261: AVG IPC :0.61488: L2-Pf-HR :1.00000: L2-HR :0.81454: (Sim:0h44m5s) 
CPU  0 inst:  111000000 cyc:  177303547 now IPC :1.47340: AVG IPC :0.61819: L2-Pf-HR :1.00000: L2-HR :0.81431: (Sim:0h44m29s) 
CPU  0 inst:  112000004 cyc:  177936830 now IPC :1.57908: AVG IPC :0.62163: L2-Pf-HR :1.00000: L2-HR :0.81453: (Sim:0h44m44s) 
CPU  0 inst:  113000001 cyc:  178574164 now IPC :1.56903: AVG IPC :0.62503: L2-Pf-HR :1.00000: L2-HR :0.81467: (Sim:0h45m5s) 
CPU  0 inst:  114000003 cyc:  179269938 now IPC :1.43725: AVG IPC :0.62820: L2-Pf-HR :1.00000: L2-HR :0.81443: (Sim:0h45m30s) 
CPU  0 inst:  115000000 cyc:  179934806 now IPC :1.50405: AVG IPC :0.63145: L2-Pf-HR :1.00000: L2-HR :0.81438: (Sim:0h45m55s) 
CPU  0 inst:  116000002 cyc:  180593470 now IPC :1.51823: AVG IPC :0.63470: L2-Pf-HR :1.00000: L2-HR :0.81444: (Sim:0h46m20s) 
CPU  0 inst:  117000005 cyc:  181218661 now IPC :1.59952: AVG IPC :0.63805: L2-Pf-HR :1.00000: L2-HR :0.81470: (Sim:0h46m41s) 
CPU  0 inst:  118000001 cyc:  181915351 now IPC :1.43535: AVG IPC :0.64112: L2-Pf-HR :1.00000: L2-HR :0.81441: (Sim:0h47m6s) 
CPU  0 inst:  119000004 cyc:  182575441 now IPC :1.51495: AVG IPC :0.64430: L2-Pf-HR :1.00000: L2-HR :0.81440: (Sim:0h47m31s) 
CPU  0 inst:  120000004 cyc:  183236429 now IPC :1.51289: AVG IPC :0.64745: L2-Pf-HR :1.00000: L2-HR :0.81440: (Sim:0h47m55s) 
CPU  0 inst:  121000003 cyc:  183858463 now IPC :1.60763: AVG IPC :0.65071: L2-Pf-HR :1.00000: L2-HR :0.81463: (Sim:0h48m19s) 
CPU  0 inst:  122000003 cyc:  184562525 now IPC :1.42033: AVG IPC :0.65366: L2-Pf-HR :1.00000: L2-HR :0.81436: (Sim:0h48m44s) 
Finished CPU 0 instr: 120000000 cyc: 183580850 AVG IPC: 0.65366 (Sim time: 0h48m44s)

ChampSim completed all CPUs

[ROI Statistics]
Core_0_instructions 120000000
Core_0_cycles 183580850
Core_0_IPC 0.65366

Core_0_branch_prediction_accuracy 99.19469
Core_0_branch_MPKI 0.24154
Core_0_average_ROB_occupancy_at_mispredict 445.20017

Core_0_L1D_total_access 37880582
Core_0_L1D_total_hit 35721157 L1D_total_Hit Ratio: 0.94299
Core_0_L1D_total_miss 2159425
Core_0_L1D_loads 34163443
Core_0_L1D_load_hit 32202321 L1D_load_Hit Ratio: 0.94260
Core_0_L1D_load_miss 1961122
Core_0_L1D_RFOs 3245412
Core_0_L1D_RFO_hit 3047109 L1D_RFO_Hit Ratio: 0.93890
Core_0_L1D_RFO_miss 198303
Core_0_L1D_prefetches 471727
Core_0_L1D_prefetch_hit 471727 L1D_prefetch_Hit Ratio: 1.00000
Core_0_L1D_prefetch_miss 0
Core_0_L1D_writebacks 0
Core_0_L1D_writeback_hit 0 L1D_writeback_Hit Ratio: -nan
Core_0_L1D_writeback_miss 0
Core_0_L1D_prefetch_requested 10465921
Core_0_L1D_prefetch_issued 4220378
Core_0_L1D_prefetch_useful 0 L1D_Useful Ratio: 0.00000
Core_0_L1D_prefetch_useless 0
Core_0_L1D_prefetch_late 0
Core_0_L1D_average_miss_latency 160.76440

Core_0_L1I_total_access 18118795
Core_0_L1I_total_hit 18116836 L1I_total_Hit Ratio: 0.99989
Core_0_L1I_total_miss 1959
Core_0_L1I_loads 18118795
Core_0_L1I_load_hit 18116836 L1I_load_Hit Ratio: 0.99989
Core_0_L1I_load_miss 1959
Core_0_L1I_RFOs 0
Core_0_L1I_RFO_hit 0 L1I_RFO_Hit Ratio: -nan
Core_0_L1I_RFO_miss 0
Core_0_L1I_prefetches 0
Core_0_L1I_prefetch_hit 0 L1I_prefetch_Hit Ratio: -nan
Core_0_L1I_prefetch_miss 0
Core_0_L1I_writebacks 0
Core_0_L1I_writeback_hit 0 L1I_writeback_Hit Ratio: -nan
Core_0_L1I_writeback_miss 0
Core_0_L1I_prefetch_requested 0
Core_0_L1I_prefetch_issued 0
Core_0_L1I_prefetch_useful 0 L1I_Useful Ratio: -nan
Core_0_L1I_prefetch_useless 0
Core_0_L1I_prefetch_late 0
Core_0_L1I_average_miss_latency 280.98213

Core_0_L2C_total_access 5703867
Core_0_L2C_total_hit 4645021 L2C_total_Hit Ratio: 0.81436
Core_0_L2C_total_miss 1058846
Core_0_L2C_loads 1963081
Core_0_L2C_load_hit 1101049 L2C_load_Hit Ratio: 0.56088
Core_0_L2C_load_miss 862032
Core_0_L2C_RFOs 198303
Core_0_L2C_RFO_hit 1504 L2C_RFO_Hit Ratio: 0.00758
Core_0_L2C_RFO_miss 196799
Core_0_L2C_prefetches 2798423
Core_0_L2C_prefetch_hit 2798413 L2C_prefetch_Hit Ratio: 1.00000
Core_0_L2C_prefetch_miss 10
Core_0_L2C_writebacks 744060
Core_0_L2C_writeback_hit 744055 L2C_writeback_Hit Ratio: 0.99999
Core_0_L2C_writeback_miss 5
Core_0_L2C_prefetch_requested 3131680
Core_0_L2C_prefetch_issued 12
Core_0_L2C_prefetch_useful 8 L2C_Useful Ratio: 0.66667
Core_0_L2C_prefetch_useless 1
Core_0_L2C_prefetch_late 0
Core_0_L2C_average_miss_latency 288.65361

Core_0_LLC_total_access 1669080
Core_0_LLC_total_hit 606597 LLC_total_Hit Ratio: 0.36343
Core_0_LLC_total_miss 1062483
Core_0_LLC_loads 862032
Core_0_LLC_load_hit 3 LLC_load_Hit Ratio: 0.00000
Core_0_LLC_load_miss 862029
Core_0_LLC_RFOs 196799
Core_0_LLC_RFO_hit 1 LLC_RFO_Hit Ratio: 0.00001
Core_0_LLC_RFO_miss 196798
Core_0_LLC_prefetches 10
Core_0_LLC_prefetch_hit 0 LLC_prefetch_Hit Ratio: 0.00000
Core_0_LLC_prefetch_miss 10
Core_0_LLC_writebacks 610239
Core_0_LLC_writeback_hit 606593 LLC_writeback_Hit Ratio: 0.99403
Core_0_LLC_writeback_miss 3646
Core_0_LLC_prefetch_requested 0
Core_0_LLC_prefetch_issued 0
Core_0_LLC_prefetch_useful 0 LLC_Useful Ratio: -nan
Core_0_LLC_prefetch_useless 10
Core_0_LLC_prefetch_late 0
Core_0_LLC_average_miss_latency 247.71714

Core_0_major_page_fault 0
Core_0_minor_page_fault 8629

CPU 0 L1D next line prefetcher final stats
Prefetcher final stats
Training Unit Size: 4659
Addr table size: 480490 480490


Triggers: 878541
No Prediction: 485123 55.21916
Stream end: 3338
No translation: 271951 30.95484
Predictions: 12 0.00137


Stream divergence: 2 0.00023
Stream divergence -- new stream: 0
Channel_0_RQ_row_buffer_hit 565742
Channel_0_RQ_row_buffer_miss 493095
Channel_0_WQ_row_buffer_hit 287015
Channel_0_WQ_row_buffer_miss 317333
Channel_0_WQ_full 2184
Channel_0_dbus_congested 450518

avg_congested_cycle 8

EzSearch AVG IPC :0.65366: L2-Pf-HR :1.00000 : L2-HR :0.81436 Uful:0.66667
     > Finished combination: TraceType=770-tot Sim:120000000 Prefetcher=L2isb_ideal L1=isb_ideal
