TRACE: [167000000][OPT-350M]_[h16][s512][d64] Warmup: 2000000 NumTraces: 167000000
L1:berti_concurso:L2:berti_concurso
*************************************************
   ChampSim Multicore Out-of-Order Simulator
   Last compiled: Oct 30 2024 23:50:27
*************************************************

trace_0 770-tot_memTraces_v5/140-subBillion_s512_LLM_Arch/memTraces[167000000][OPT-350M]_[h16][s512][d64].champsim.9.xz
CPU 0 L1D Berti prefetcher
CPU 0 L2C Berti prefetcher
MAIN.cc ln 751 stats print skipped
CPU  0 inst:    1000000 cyc:     498056 now IPC :2.00781: AVG IPC :2.00781: L2-Pf-HR :0.76309: L2-HR :0.72678: (Sim:0h0m10s) 
CPU  0 inst:    2000002 cyc:     980276 now IPC :2.07375: AVG IPC :2.04024: L2-Pf-HR :0.81819: L2-HR :0.78881: (Sim:0h0m20s) 

Warmup complete CPU  0 instructions:    2000002 cycles:     980276 (Simulation time: 0 hr 0 min 20 sec) 

CPU  0 inst:    3000000 cyc:    1583194 now IPC :1.65860: AVG IPC :1.65860: L2-Pf-HR :0.91802: L2-HR :0.85705: (Sim:0h0m29s) 
CPU  0 inst:    4000001 cyc:    2176723 now IPC :1.68484: AVG IPC :1.67162: L2-Pf-HR :0.90584: L2-HR :0.83400: (Sim:0h0m39s) 
CPU  0 inst:    5000002 cyc:    2805576 now IPC :1.59020: AVG IPC :1.64357: L2-Pf-HR :0.90944: L2-HR :0.82839: (Sim:0h0m52s) 
CPU  0 inst:    6000000 cyc:    3400493 now IPC :1.68090: AVG IPC :1.65274: L2-Pf-HR :0.92159: L2-HR :0.83952: (Sim:0h1m10s) 
CPU  0 inst:    7000004 cyc:    3995865 now IPC :1.67963: AVG IPC :1.65805: L2-Pf-HR :0.92911: L2-HR :0.84531: (Sim:0h1m24s) 
CPU  0 inst:    8000003 cyc:    4588289 now IPC :1.68798: AVG IPC :1.66297: L2-Pf-HR :0.92674: L2-HR :0.84199: (Sim:0h1m33s) 
CPU  0 inst:    9000000 cyc:    5214270 now IPC :1.59749: AVG IPC :1.65328: L2-Pf-HR :0.92452: L2-HR :0.83781: (Sim:0h1m42s) 
CPU  0 inst:   10000004 cyc:    5806992 now IPC :1.68714: AVG IPC :1.65744: L2-Pf-HR :0.92804: L2-HR :0.84140: (Sim:0h1m51s) 
CPU  0 inst:   11000003 cyc:    6402199 now IPC :1.68009: AVG IPC :1.65993: L2-Pf-HR :0.93112: L2-HR :0.84403: (Sim:0h2m10s) 
CPU  0 inst:   12000000 cyc:    6992679 now IPC :1.69353: AVG IPC :1.66323: L2-Pf-HR :0.93053: L2-HR :0.84313: (Sim:0h2m30s) 
CPU  0 inst:   13000001 cyc:    7613720 now IPC :1.61020: AVG IPC :1.65826: L2-Pf-HR :0.92842: L2-HR :0.83974: (Sim:0h2m40s) 
CPU  0 inst:   14000002 cyc:    8206560 now IPC :1.68680: AVG IPC :1.66060: L2-Pf-HR :0.93058: L2-HR :0.84164: (Sim:0h2m51s) 
CPU  0 inst:   15000000 cyc:    8799027 now IPC :1.68785: AVG IPC :1.66267: L2-Pf-HR :0.93274: L2-HR :0.84400: (Sim:0h3m10s) 
CPU  0 inst:   16000000 cyc:    9393482 now IPC :1.68221: AVG IPC :1.66405: L2-Pf-HR :0.93208: L2-HR :0.84377: (Sim:0h3m29s) 
CPU  0 inst:   17000002 cyc:   10015830 now IPC :1.60682: AVG IPC :1.66011: L2-Pf-HR :0.92918: L2-HR :0.84041: (Sim:0h3m48s) 
CPU  0 inst:   18000004 cyc:   10609422 now IPC :1.68466: AVG IPC :1.66162: L2-Pf-HR :0.93064: L2-HR :0.84242: (Sim:0h4m7s) 
CPU  0 inst:   19000002 cyc:   11203393 now IPC :1.68358: AVG IPC :1.66290: L2-Pf-HR :0.93226: L2-HR :0.84373: (Sim:0h4m27s) 
CPU  0 inst:   20000000 cyc:   11796473 now IPC :1.68611: AVG IPC :1.66417: L2-Pf-HR :0.93262: L2-HR :0.84435: (Sim:0h4m47s) 
CPU  0 inst:   21000001 cyc:   12419375 now IPC :1.60539: AVG IPC :1.66097: L2-Pf-HR :0.93024: L2-HR :0.84142: (Sim:0h5m6s) 
CPU  0 inst:   22000003 cyc:   13025124 now IPC :1.65085: AVG IPC :1.66046: L2-Pf-HR :0.93138: L2-HR :0.84254: (Sim:0h5m26s) 
CPU  0 inst:   23000000 cyc:   13629727 now IPC :1.65397: AVG IPC :1.66015: L2-Pf-HR :0.93256: L2-HR :0.84384: (Sim:0h5m45s) 
CPU  0 inst:   24000000 cyc:   14238286 now IPC :1.64323: AVG IPC :1.65937: L2-Pf-HR :0.93271: L2-HR :0.84444: (Sim:0h6m5s) 
CPU  0 inst:   25000005 cyc:   14886661 now IPC :1.54233: AVG IPC :1.65392: L2-Pf-HR :0.93069: L2-HR :0.84177: (Sim:0h6m25s) 
CPU  0 inst:   26000000 cyc:   15513992 now IPC :1.59405: AVG IPC :1.65133: L2-Pf-HR :0.93161: L2-HR :0.84274: (Sim:0h6m45s) 
CPU  0 inst:   27000002 cyc:   16141959 now IPC :1.59244: AVG IPC :1.64889: L2-Pf-HR :0.93252: L2-HR :0.84377: (Sim:0h7m5s) 
CPU  0 inst:   28000000 cyc:   16773501 now IPC :1.58342: AVG IPC :1.64628: L2-Pf-HR :0.93306: L2-HR :0.84460: (Sim:0h7m24s) 
CPU  0 inst:   29000005 cyc:   17440181 now IPC :1.49998: AVG IPC :1.64035: L2-Pf-HR :0.93068: L2-HR :0.84212: (Sim:0h7m41s) 
CPU  0 inst:   30000004 cyc:   18094696 now IPC :1.52785: AVG IPC :1.63605: L2-Pf-HR :0.93158: L2-HR :0.84297: (Sim:0h8m1s) 
CPU  0 inst:   31000000 cyc:   18736942 now IPC :1.55703: AVG IPC :1.63319: L2-Pf-HR :0.93228: L2-HR :0.84370: (Sim:0h8m19s) 
CPU  0 inst:   32000001 cyc:   19387971 now IPC :1.53603: AVG IPC :1.62975: L2-Pf-HR :0.93302: L2-HR :0.84477: (Sim:0h8m35s) 
CPU  0 inst:   33000002 cyc:   20046270 now IPC :1.51907: AVG IPC :1.62593: L2-Pf-HR :0.93156: L2-HR :0.84268: (Sim:0h8m51s) 
CPU  0 inst:   34000003 cyc:   20746382 now IPC :1.42834: AVG IPC :1.61893: L2-Pf-HR :0.93195: L2-HR :0.84291: (Sim:0h9m11s) 
CPU  0 inst:   35000004 cyc:   21410115 now IPC :1.50663: AVG IPC :1.61528: L2-Pf-HR :0.93257: L2-HR :0.84383: (Sim:0h9m30s) 
CPU  0 inst:   36000004 cyc:   22066070 now IPC :1.52449: AVG IPC :1.61246: L2-Pf-HR :0.93309: L2-HR :0.84441: (Sim:0h9m50s) 
CPU  0 inst:   37000003 cyc:   22704401 now IPC :1.56658: AVG IPC :1.61111: L2-Pf-HR :0.93233: L2-HR :0.84343: (Sim:0h10m9s) 
CPU  0 inst:   38000000 cyc:   23413552 now IPC :1.41013: AVG IPC :1.60476: L2-Pf-HR :0.93213: L2-HR :0.84308: (Sim:0h10m27s) 
CPU  0 inst:   39000004 cyc:   24063955 now IPC :1.53751: AVG IPC :1.60286: L2-Pf-HR :0.93275: L2-HR :0.84366: (Sim:0h10m47s) 
CPU  0 inst:   40000004 cyc:   24720655 now IPC :1.52277: AVG IPC :1.60065: L2-Pf-HR :0.93339: L2-HR :0.84440: (Sim:0h11m7s) 
CPU  0 inst:   41000005 cyc:   25370973 now IPC :1.53771: AVG IPC :1.59897: L2-Pf-HR :0.93278: L2-HR :0.84364: (Sim:0h11m27s) 
CPU  0 inst:   42000001 cyc:   26080934 now IPC :1.40852: AVG IPC :1.59358: L2-Pf-HR :0.93247: L2-HR :0.84306: (Sim:0h11m47s) 
CPU  0 inst:   43000005 cyc:   26734581 now IPC :1.52988: AVG IPC :1.59197: L2-Pf-HR :0.93297: L2-HR :0.84367: (Sim:0h12m6s) 
CPU  0 inst:   44000004 cyc:   27391615 now IPC :1.52199: AVG IPC :1.59023: L2-Pf-HR :0.93354: L2-HR :0.84424: (Sim:0h12m25s) 
CPU  0 inst:   45000000 cyc:   28035457 now IPC :1.55317: AVG IPC :1.58934: L2-Pf-HR :0.93318: L2-HR :0.84380: (Sim:0h12m44s) 
CPU  0 inst:   46000002 cyc:   28729901 now IPC :1.44000: AVG IPC :1.58561: L2-Pf-HR :0.93263: L2-HR :0.84306: (Sim:0h13m4s) 
CPU  0 inst:   47000000 cyc:   29380441 now IPC :1.53718: AVG IPC :1.58450: L2-Pf-HR :0.93314: L2-HR :0.84366: (Sim:0h13m24s) 
CPU  0 inst:   48000004 cyc:   30036584 now IPC :1.52406: AVG IPC :1.58313: L2-Pf-HR :0.93360: L2-HR :0.84412: (Sim:0h13m44s) 
CPU  0 inst:   49000004 cyc:   30690450 now IPC :1.52937: AVG IPC :1.58195: L2-Pf-HR :0.93341: L2-HR :0.84394: (Sim:0h14m3s) 
CPU  0 inst:   50000001 cyc:   31381606 now IPC :1.44685: AVG IPC :1.57888: L2-Pf-HR :0.93281: L2-HR :0.84320: (Sim:0h14m23s) 
CPU  0 inst:   51000005 cyc:   32035546 now IPC :1.52920: AVG IPC :1.57783: L2-Pf-HR :0.93329: L2-HR :0.84361: (Sim:0h14m43s) 
CPU  0 inst:   52000002 cyc:   32686588 now IPC :1.53599: AVG IPC :1.57697: L2-Pf-HR :0.93374: L2-HR :0.84424: (Sim:0h15m2s) 
CPU  0 inst:   53000004 cyc:   33335072 now IPC :1.54206: AVG IPC :1.57627: L2-Pf-HR :0.93365: L2-HR :0.84414: (Sim:0h15m22s) 
CPU  0 inst:   54000005 cyc:   34021746 now IPC :1.45630: AVG IPC :1.57378: L2-Pf-HR :0.93295: L2-HR :0.84318: (Sim:0h15m41s) 
CPU  0 inst:   55000001 cyc:   34675924 now IPC :1.52863: AVG IPC :1.57290: L2-Pf-HR :0.93341: L2-HR :0.84372: (Sim:0h16m1s) 
CPU  0 inst:   56000001 cyc:   35322978 now IPC :1.54547: AVG IPC :1.57239: L2-Pf-HR :0.93383: L2-HR :0.84409: (Sim:0h16m20s) 
CPU  0 inst:   57000001 cyc:   35974642 now IPC :1.53453: AVG IPC :1.57168: L2-Pf-HR :0.93375: L2-HR :0.84429: (Sim:0h16m39s) 
CPU  0 inst:   58000000 cyc:   36669800 now IPC :1.43852: AVG IPC :1.56909: L2-Pf-HR :0.93293: L2-HR :0.84332: (Sim:0h16m59s) 
CPU  0 inst:   59000004 cyc:   37320583 now IPC :1.53662: AVG IPC :1.56851: L2-Pf-HR :0.93338: L2-HR :0.84370: (Sim:0h17m18s) 
CPU  0 inst:   60000005 cyc:   37974048 now IPC :1.53031: AVG IPC :1.56783: L2-Pf-HR :0.93376: L2-HR :0.84417: (Sim:0h17m37s) 
CPU  0 inst:   61000005 cyc:   38632631 now IPC :1.51841: AVG IPC :1.56697: L2-Pf-HR :0.93393: L2-HR :0.84438: (Sim:0h17m57s) 
CPU  0 inst:   62000002 cyc:   39324151 now IPC :1.44609: AVG IPC :1.56479: L2-Pf-HR :0.93313: L2-HR :0.84338: (Sim:0h18m16s) 
CPU  0 inst:   63000003 cyc:   39984760 now IPC :1.51376: AVG IPC :1.56392: L2-Pf-HR :0.93348: L2-HR :0.84370: (Sim:0h18m36s) 
CPU  0 inst:   64000003 cyc:   40641266 now IPC :1.52322: AVG IPC :1.56325: L2-Pf-HR :0.93388: L2-HR :0.84411: (Sim:0h18m57s) 
CPU  0 inst:   65000000 cyc:   41295993 now IPC :1.52735: AVG IPC :1.56267: L2-Pf-HR :0.93415: L2-HR :0.84442: (Sim:0h19m17s) 
CPU  0 inst:   66000001 cyc:   42494036 now IPC :0.83470: AVG IPC :1.54166: L2-Pf-HR :0.93077: L2-HR :0.83958: (Sim:0h19m34s) 
CPU  0 inst:   67000000 cyc:   46926174 now IPC :0.22562: AVG IPC :1.41471: L2-Pf-HR :0.89833: L2-HR :0.80804: (Sim:0h20m13s) 
CPU  0 inst:   68000000 cyc:   51900269 now IPC :0.20104: AVG IPC :1.29615: L2-Pf-HR :0.86912: L2-HR :0.78245: (Sim:0h21m6s) 
CPU  0 inst:   69000000 cyc:   55527498 now IPC :0.27569: AVG IPC :1.22829: L2-Pf-HR :0.85742: L2-HR :0.77363: (Sim:0h21m43s) 
CPU  0 inst:   70000000 cyc:   58688060 now IPC :0.31640: AVG IPC :1.17835: L2-Pf-HR :0.85195: L2-HR :0.76983: (Sim:0h22m16s) 
CPU  0 inst:   71000002 cyc:   61850067 now IPC :0.31626: AVG IPC :1.13357: L2-Pf-HR :0.84662: L2-HR :0.76611: (Sim:0h22m49s) 
CPU  0 inst:   72000004 cyc:   65010545 now IPC :0.31641: AVG IPC :1.09323: L2-Pf-HR :0.84143: L2-HR :0.76245: (Sim:0h23m21s) 
CPU  0 inst:   73000003 cyc:   68170821 now IPC :0.31643: AVG IPC :1.05670: L2-Pf-HR :0.83646: L2-HR :0.75887: (Sim:0h23m39s) 
CPU  0 inst:   74000000 cyc:   71330667 now IPC :0.31647: AVG IPC :1.02345: L2-Pf-HR :0.83163: L2-HR :0.75535: (Sim:0h23m57s) 
CPU  0 inst:   75000005 cyc:   74490646 now IPC :0.31646: AVG IPC :0.99306: L2-Pf-HR :0.82670: L2-HR :0.75188: (Sim:0h24m15s) 
CPU  0 inst:   76000000 cyc:   77650092 now IPC :0.31651: AVG IPC :0.96518: L2-Pf-HR :0.82189: L2-HR :0.74850: (Sim:0h24m49s) 
CPU  0 inst:   77000000 cyc:   80807948 now IPC :0.31667: AVG IPC :0.93952: L2-Pf-HR :0.81719: L2-HR :0.74524: (Sim:0h25m21s) 
CPU  0 inst:   78000000 cyc:   83964620 now IPC :0.31679: AVG IPC :0.91584: L2-Pf-HR :0.81259: L2-HR :0.74204: (Sim:0h25m40s) 
CPU  0 inst:   79000000 cyc:   87119572 now IPC :0.31696: AVG IPC :0.89390: L2-Pf-HR :0.80814: L2-HR :0.73888: (Sim:0h26m2s) 
CPU  0 inst:   80000004 cyc:   90276397 now IPC :0.31678: AVG IPC :0.87350: L2-Pf-HR :0.80380: L2-HR :0.73580: (Sim:0h26m35s) 
CPU  0 inst:   81000004 cyc:   93433460 now IPC :0.31675: AVG IPC :0.85449: L2-Pf-HR :0.79969: L2-HR :0.73277: (Sim:0h27m7s) 
CPU  0 inst:   82000000 cyc:   96588600 now IPC :0.31694: AVG IPC :0.83675: L2-Pf-HR :0.79584: L2-HR :0.72980: (Sim:0h27m40s) 
CPU  0 inst:   83000005 cyc:   99743118 now IPC :0.31701: AVG IPC :0.82015: L2-Pf-HR :0.79202: L2-HR :0.72686: (Sim:0h28m13s) 
CPU  0 inst:   84000001 cyc:  102899353 now IPC :0.31683: AVG IPC :0.80456: L2-Pf-HR :0.78826: L2-HR :0.72399: (Sim:0h28m45s) 
CPU  0 inst:   85000005 cyc:  106054772 now IPC :0.31692: AVG IPC :0.78992: L2-Pf-HR :0.78452: L2-HR :0.72114: (Sim:0h29m19s) 
CPU  0 inst:   86000000 cyc:  109211740 now IPC :0.31676: AVG IPC :0.77611: L2-Pf-HR :0.78087: L2-HR :0.71836: (Sim:0h29m53s) 
CPU  0 inst:   87000002 cyc:  112368303 now IPC :0.31680: AVG IPC :0.76310: L2-Pf-HR :0.77731: L2-HR :0.71566: (Sim:0h30m17s) 
CPU  0 inst:   88000004 cyc:  115524085 now IPC :0.31688: AVG IPC :0.75080: L2-Pf-HR :0.77378: L2-HR :0.71299: (Sim:0h30m49s) 
CPU  0 inst:   89000004 cyc:  118681655 now IPC :0.31670: AVG IPC :0.73916: L2-Pf-HR :0.77027: L2-HR :0.71036: (Sim:0h31m21s) 
CPU  0 inst:   90000000 cyc:  121837761 now IPC :0.31684: AVG IPC :0.72813: L2-Pf-HR :0.76680: L2-HR :0.70775: (Sim:0h31m43s) 
CPU  0 inst:   91000003 cyc:  124993730 now IPC :0.31686: AVG IPC :0.71766: L2-Pf-HR :0.76344: L2-HR :0.70523: (Sim:0h32m2s) 
CPU  0 inst:   92000002 cyc:  128151200 now IPC :0.31671: AVG IPC :0.70771: L2-Pf-HR :0.76009: L2-HR :0.70274: (Sim:0h32m32s) 
CPU  0 inst:   93000003 cyc:  131306336 now IPC :0.31694: AVG IPC :0.69825: L2-Pf-HR :0.75677: L2-HR :0.70027: (Sim:0h33m5s) 
CPU  0 inst:   94000002 cyc:  134461149 now IPC :0.31698: AVG IPC :0.68924: L2-Pf-HR :0.75347: L2-HR :0.69783: (Sim:0h33m39s) 
CPU  0 inst:   95000002 cyc:  137616065 now IPC :0.31697: AVG IPC :0.68064: L2-Pf-HR :0.75024: L2-HR :0.69545: (Sim:0h34m10s) 
CPU  0 inst:   96000004 cyc:  140772601 now IPC :0.31680: AVG IPC :0.67243: L2-Pf-HR :0.74708: L2-HR :0.69311: (Sim:0h34m42s) 
CPU  0 inst:   97000004 cyc:  143928040 now IPC :0.31691: AVG IPC :0.66458: L2-Pf-HR :0.74399: L2-HR :0.69084: (Sim:0h35m15s) 
CPU  0 inst:   98000000 cyc:  147084735 now IPC :0.31679: AVG IPC :0.65706: L2-Pf-HR :0.74090: L2-HR :0.68859: (Sim:0h35m44s) 
CPU  0 inst:   99000003 cyc:  150241286 now IPC :0.31680: AVG IPC :0.64987: L2-Pf-HR :0.73783: L2-HR :0.68634: (Sim:0h36m16s) 
CPU  0 inst:  100000002 cyc:  153397386 now IPC :0.31685: AVG IPC :0.64297: L2-Pf-HR :0.73483: L2-HR :0.68416: (Sim:0h36m49s) 
CPU  0 inst:  101000002 cyc:  155213143 now IPC :0.55073: AVG IPC :0.64189: L2-Pf-HR :0.73284: L2-HR :0.68301: (Sim:0h37m15s) 
CPU  0 inst:  102000003 cyc:  155768236 now IPC :1.80150: AVG IPC :0.64605: L2-Pf-HR :0.73281: L2-HR :0.68345: (Sim:0h37m37s) 
CPU  0 inst:  103000005 cyc:  156359482 now IPC :1.69135: AVG IPC :0.65002: L2-Pf-HR :0.73270: L2-HR :0.68384: (Sim:0h37m59s) 
CPU  0 inst:  104000002 cyc:  156893725 now IPC :1.87180: AVG IPC :0.65421: L2-Pf-HR :0.73337: L2-HR :0.68471: (Sim:0h38m21s) 
CPU  0 inst:  105000002 cyc:  157486251 now IPC :1.68769: AVG IPC :0.65812: L2-Pf-HR :0.73337: L2-HR :0.68514: (Sim:0h38m44s) 
CPU  0 inst:  106000005 cyc:  158056911 now IPC :1.75236: AVG IPC :0.66210: L2-Pf-HR :0.73324: L2-HR :0.68547: (Sim:0h39m6s) 
CPU  0 inst:  107000005 cyc:  158635449 now IPC :1.72849: AVG IPC :0.66601: L2-Pf-HR :0.73302: L2-HR :0.68579: (Sim:0h39m28s) 
CPU  0 inst:  108000004 cyc:  159168888 now IPC :1.87463: AVG IPC :0.67009: L2-Pf-HR :0.73369: L2-HR :0.68664: (Sim:0h39m50s) 
CPU  0 inst:  109000004 cyc:  159750828 now IPC :1.71839: AVG IPC :0.67393: L2-Pf-HR :0.73390: L2-HR :0.68720: (Sim:0h40m12s) 
CPU  0 inst:  110000004 cyc:  160319992 now IPC :1.75696: AVG IPC :0.67780: L2-Pf-HR :0.73364: L2-HR :0.68748: (Sim:0h40m34s) 
CPU  0 inst:  111000003 cyc:  160906295 now IPC :1.70560: AVG IPC :0.68157: L2-Pf-HR :0.73343: L2-HR :0.68777: (Sim:0h40m47s) 
CPU  0 inst:  112000005 cyc:  161442873 now IPC :1.86367: AVG IPC :0.68552: L2-Pf-HR :0.73403: L2-HR :0.68858: (Sim:0h41m0s) 
CPU  0 inst:  113000002 cyc:  162013291 now IPC :1.75310: AVG IPC :0.68930: L2-Pf-HR :0.73437: L2-HR :0.68920: (Sim:0h41m19s) 
CPU  0 inst:  114000002 cyc:  162588920 now IPC :1.73723: AVG IPC :0.69303: L2-Pf-HR :0.73399: L2-HR :0.68936: (Sim:0h41m42s) 
CPU  0 inst:  115000000 cyc:  163152733 now IPC :1.77363: AVG IPC :0.69679: L2-Pf-HR :0.73396: L2-HR :0.68977: (Sim:0h42m5s) 
CPU  0 inst:  116000001 cyc:  163709115 now IPC :1.79733: AVG IPC :0.70055: L2-Pf-HR :0.73433: L2-HR :0.69041: (Sim:0h42m28s) 
CPU  0 inst:  117000005 cyc:  164244315 now IPC :1.86847: AVG IPC :0.70438: L2-Pf-HR :0.73486: L2-HR :0.69118: (Sim:0h42m50s) 
CPU  0 inst:  118000003 cyc:  164856343 now IPC :1.63391: AVG IPC :0.70785: L2-Pf-HR :0.73437: L2-HR :0.69124: (Sim:0h43m12s) 
CPU  0 inst:  119000000 cyc:  165419640 now IPC :1.77526: AVG IPC :0.71151: L2-Pf-HR :0.73429: L2-HR :0.69159: (Sim:0h43m34s) 
CPU  0 inst:  120000004 cyc:  165991077 now IPC :1.74998: AVG IPC :0.71510: L2-Pf-HR :0.73459: L2-HR :0.69214: (Sim:0h43m57s) 
CPU  0 inst:  121000003 cyc:  166525023 now IPC :1.87285: AVG IPC :0.71884: L2-Pf-HR :0.73518: L2-HR :0.69291: (Sim:0h44m19s) 
CPU  0 inst:  122000002 cyc:  167128592 now IPC :1.65681: AVG IPC :0.72225: L2-Pf-HR :0.73483: L2-HR :0.69305: (Sim:0h44m41s) 
CPU  0 inst:  123000000 cyc:  167684765 now IPC :1.79800: AVG IPC :0.72584: L2-Pf-HR :0.73474: L2-HR :0.69338: (Sim:0h45m3s) 
CPU  0 inst:  124000000 cyc:  168251211 now IPC :1.76539: AVG IPC :0.72936: L2-Pf-HR :0.73489: L2-HR :0.69380: (Sim:0h45m25s) 
CPU  0 inst:  125000002 cyc:  168788143 now IPC :1.86244: AVG IPC :0.73298: L2-Pf-HR :0.73535: L2-HR :0.69450: (Sim:0h45m47s) 
CPU  0 inst:  126000002 cyc:  169360657 now IPC :1.74668: AVG IPC :0.73643: L2-Pf-HR :0.73514: L2-HR :0.69472: (Sim:0h46m10s) 
CPU  0 inst:  127000001 cyc:  169905769 now IPC :1.83448: AVG IPC :0.73997: L2-Pf-HR :0.73506: L2-HR :0.69503: (Sim:0h46m32s) 
CPU  0 inst:  128000000 cyc:  170465961 now IPC :1.78510: AVG IPC :0.74343: L2-Pf-HR :0.73507: L2-HR :0.69537: (Sim:0h46m54s) 
CPU  0 inst:  129000000 cyc:  170991785 now IPC :1.90178: AVG IPC :0.74701: L2-Pf-HR :0.73554: L2-HR :0.69604: (Sim:0h47m17s) 
CPU  0 inst:  130000001 cyc:  171552926 now IPC :1.78209: AVG IPC :0.75041: L2-Pf-HR :0.73548: L2-HR :0.69635: (Sim:0h47m39s) 
CPU  0 inst:  131000003 cyc:  172094891 now IPC :1.84514: AVG IPC :0.75388: L2-Pf-HR :0.73546: L2-HR :0.69666: (Sim:0h48m1s) 
CPU  0 inst:  132000002 cyc:  172655804 now IPC :1.78281: AVG IPC :0.75724: L2-Pf-HR :0.73522: L2-HR :0.69687: (Sim:0h48m24s) 
CPU  0 inst:  133000002 cyc:  173177924 now IPC :1.91527: AVG IPC :0.76075: L2-Pf-HR :0.73567: L2-HR :0.69753: (Sim:0h48m45s) 
CPU  0 inst:  134000000 cyc:  173723288 now IPC :1.83363: AVG IPC :0.76414: L2-Pf-HR :0.73590: L2-HR :0.69800: (Sim:0h49m7s) 
CPU  0 inst:  135000002 cyc:  174268128 now IPC :1.83540: AVG IPC :0.76751: L2-Pf-HR :0.73583: L2-HR :0.69826: (Sim:0h49m22s) 
CPU  0 inst:  136000000 cyc:  174828790 now IPC :1.78360: AVG IPC :0.77079: L2-Pf-HR :0.73560: L2-HR :0.69843: (Sim:0h49m42s) 
CPU  0 inst:  137000000 cyc:  175356030 now IPC :1.89667: AVG IPC :0.77419: L2-Pf-HR :0.73595: L2-HR :0.69901: (Sim:0h50m0s) 
CPU  0 inst:  138000001 cyc:  175876348 now IPC :1.92190: AVG IPC :0.77760: L2-Pf-HR :0.73645: L2-HR :0.69968: (Sim:0h50m21s) 
CPU  0 inst:  139000001 cyc:  176441532 now IPC :1.76934: AVG IPC :0.78080: L2-Pf-HR :0.73614: L2-HR :0.69978: (Sim:0h50m44s) 
CPU  0 inst:  140000004 cyc:  176988679 now IPC :1.82767: AVG IPC :0.78405: L2-Pf-HR :0.73590: L2-HR :0.69995: (Sim:0h51m5s) 
CPU  0 inst:  141000003 cyc:  177526811 now IPC :1.85828: AVG IPC :0.78733: L2-Pf-HR :0.73614: L2-HR :0.70041: (Sim:0h51m27s) 
CPU  0 inst:  142000005 cyc:  178053535 now IPC :1.89853: AVG IPC :0.79063: L2-Pf-HR :0.73664: L2-HR :0.70107: (Sim:0h51m50s) 
CPU  0 inst:  143000005 cyc:  178622331 now IPC :1.75810: AVG IPC :0.79373: L2-Pf-HR :0.73643: L2-HR :0.70121: (Sim:0h52m12s) 
CPU  0 inst:  144000004 cyc:  179169142 now IPC :1.82878: AVG IPC :0.79691: L2-Pf-HR :0.73628: L2-HR :0.70141: (Sim:0h52m34s) 
CPU  0 inst:  145000003 cyc:  179715337 now IPC :1.83085: AVG IPC :0.80007: L2-Pf-HR :0.73636: L2-HR :0.70177: (Sim:0h52m56s) 
CPU  0 inst:  146000003 cyc:  180233553 now IPC :1.92970: AVG IPC :0.80333: L2-Pf-HR :0.73688: L2-HR :0.70242: (Sim:0h53m19s) 
CPU  0 inst:  147000005 cyc:  180792672 now IPC :1.78853: AVG IPC :0.80640: L2-Pf-HR :0.73679: L2-HR :0.70263: (Sim:0h53m41s) 
CPU  0 inst:  148000003 cyc:  181341616 now IPC :1.82168: AVG IPC :0.80949: L2-Pf-HR :0.73657: L2-HR :0.70279: (Sim:0h54m4s) 
CPU  0 inst:  149000000 cyc:  181890925 now IPC :1.82046: AVG IPC :0.81256: L2-Pf-HR :0.73655: L2-HR :0.70308: (Sim:0h54m26s) 
CPU  0 inst:  150000001 cyc:  182416619 now IPC :1.90225: AVG IPC :0.81571: L2-Pf-HR :0.73698: L2-HR :0.70368: (Sim:0h54m49s) 
CPU  0 inst:  151000001 cyc:  182982917 now IPC :1.76585: AVG IPC :0.81867: L2-Pf-HR :0.73681: L2-HR :0.70383: (Sim:0h55m12s) 
CPU  0 inst:  152000002 cyc:  183526460 now IPC :1.83978: AVG IPC :0.82171: L2-Pf-HR :0.73669: L2-HR :0.70403: (Sim:0h55m35s) 
CPU  0 inst:  153000002 cyc:  184080926 now IPC :1.80354: AVG IPC :0.82468: L2-Pf-HR :0.73671: L2-HR :0.70430: (Sim:0h55m58s) 
CPU  0 inst:  154000002 cyc:  184605008 now IPC :1.90810: AVG IPC :0.82778: L2-Pf-HR :0.73714: L2-HR :0.70488: (Sim:0h56m21s) 
CPU  0 inst:  155000002 cyc:  185169055 now IPC :1.77290: AVG IPC :0.83067: L2-Pf-HR :0.73710: L2-HR :0.70511: (Sim:0h56m44s) 
CPU  0 inst:  156000001 cyc:  185715487 now IPC :1.83005: AVG IPC :0.83363: L2-Pf-HR :0.73702: L2-HR :0.70531: (Sim:0h57m5s) 
CPU  0 inst:  157000004 cyc:  186271429 now IPC :1.79875: AVG IPC :0.83652: L2-Pf-HR :0.73693: L2-HR :0.70552: (Sim:0h57m27s) 
CPU  0 inst:  158000000 cyc:  186792035 now IPC :1.92083: AVG IPC :0.83956: L2-Pf-HR :0.73736: L2-HR :0.70609: (Sim:0h57m49s) 
CPU  0 inst:  159000001 cyc:  187341604 now IPC :1.81961: AVG IPC :0.84245: L2-Pf-HR :0.73747: L2-HR :0.70642: (Sim:0h58m11s) 
CPU  0 inst:  160000002 cyc:  187887641 now IPC :1.83138: AVG IPC :0.84534: L2-Pf-HR :0.73732: L2-HR :0.70658: (Sim:0h58m25s) 
CPU  0 inst:  161000001 cyc:  188429551 now IPC :1.84532: AVG IPC :0.84823: L2-Pf-HR :0.73724: L2-HR :0.70680: (Sim:0h58m44s) 
CPU  0 inst:  162000001 cyc:  188970800 now IPC :1.84758: AVG IPC :0.85111: L2-Pf-HR :0.73749: L2-HR :0.70721: (Sim:0h58m58s) 
CPU  0 inst:  163000005 cyc:  189500029 now IPC :1.88955: AVG IPC :0.85402: L2-Pf-HR :0.73780: L2-HR :0.70771: (Sim:0h59m19s) 
CPU  0 inst:  164000000 cyc:  190073162 now IPC :1.74479: AVG IPC :0.85672: L2-Pf-HR :0.73756: L2-HR :0.70777: (Sim:0h59m41s) 
Finished CPU 0 instr: 162000004 cyc: 189092887 AVG IPC: 0.85672 (Sim time: 0h59m41s)

ChampSim completed all CPUs

[ROI Statistics]
Core_0_instructions 162000004
Core_0_cycles 189092887
Core_0_IPC 0.85672

Core_0_branch_prediction_accuracy 99.21038
Core_0_branch_MPKI 0.23475
Core_0_average_ROB_occupancy_at_mispredict 448.87283

Core_0_L1D_total_access 54999629
Core_0_L1D_total_hit 52068346 L1D_total_Hit Ratio: 0.94670
Core_0_L1D_total_miss 2931283
Core_0_L1D_loads 47079964
Core_0_L1D_load_hit 46062955 L1D_load_Hit Ratio: 0.97840
Core_0_L1D_load_miss 1017009
Core_0_L1D_RFOs 4363406
Core_0_L1D_RFO_hit 4117837 L1D_RFO_Hit Ratio: 0.94372
Core_0_L1D_RFO_miss 245569
Core_0_L1D_prefetches 3556259
Core_0_L1D_prefetch_hit 1887554 L1D_prefetch_Hit Ratio: 0.53077
Core_0_L1D_prefetch_miss 1668705
Core_0_L1D_writebacks 0
Core_0_L1D_writeback_hit 0 L1D_writeback_Hit Ratio: -nan
Core_0_L1D_writeback_miss 0
Core_0_L1D_prefetch_requested 4702715
Core_0_L1D_prefetch_issued 4129496
Core_0_L1D_prefetch_useful 1675291 L1D_Useful Ratio: 0.40569
Core_0_L1D_prefetch_useless 20720
Core_0_L1D_prefetch_late 218604
Core_0_L1D_average_miss_latency 4860300.84675

Core_0_L1I_total_access 25000426
Core_0_L1I_total_hit 24998462 L1I_total_Hit Ratio: 0.99992
Core_0_L1I_total_miss 1964
Core_0_L1I_loads 25000426
Core_0_L1I_load_hit 24998462 L1I_load_Hit Ratio: 0.99992
Core_0_L1I_load_miss 1964
Core_0_L1I_RFOs 0
Core_0_L1I_RFO_hit 0 L1I_RFO_Hit Ratio: -nan
Core_0_L1I_RFO_miss 0
Core_0_L1I_prefetches 0
Core_0_L1I_prefetch_hit 0 L1I_prefetch_Hit Ratio: -nan
Core_0_L1I_prefetch_miss 0
Core_0_L1I_writebacks 0
Core_0_L1I_writeback_hit 0 L1I_writeback_Hit Ratio: -nan
Core_0_L1I_writeback_miss 0
Core_0_L1I_prefetch_requested 0
Core_0_L1I_prefetch_issued 0
Core_0_L1I_prefetch_useful 0 L1I_Useful Ratio: -nan
Core_0_L1I_prefetch_useless 0
Core_0_L1I_prefetch_late 0
Core_0_L1I_average_miss_latency 274.62067

Core_0_L2C_total_access 4866278
Core_0_L2C_total_hit 3444198 L2C_total_Hit Ratio: 0.70777
Core_0_L2C_total_miss 1422080
Core_0_L2C_loads 801607
Core_0_L2C_load_hit 364047 L2C_load_Hit Ratio: 0.45415
Core_0_L2C_load_miss 437560
Core_0_L2C_RFOs 245567
Core_0_L2C_RFO_hit 2193 L2C_RFO_Hit Ratio: 0.00893
Core_0_L2C_RFO_miss 243374
Core_0_L2C_prefetches 2824086
Core_0_L2C_prefetch_hit 2082945 L2C_prefetch_Hit Ratio: 0.73756
Core_0_L2C_prefetch_miss 741141
Core_0_L2C_writebacks 995018
Core_0_L2C_writeback_hit 995013 L2C_writeback_Hit Ratio: 0.99999
Core_0_L2C_writeback_miss 5
Core_0_L2C_prefetch_requested 1901310
Core_0_L2C_prefetch_issued 1479120
Core_0_L2C_prefetch_useful 108040 L2C_Useful Ratio: 0.07304
Core_0_L2C_prefetch_useless 597316
Core_0_L2C_prefetch_late 123168
Core_0_L2C_average_miss_latency 327.84645

Core_0_LLC_total_access 2237159
Core_0_LLC_total_hit 811471 LLC_total_Hit Ratio: 0.36272
Core_0_LLC_total_miss 1425688
Core_0_LLC_loads 314475
Core_0_LLC_load_hit 3 LLC_load_Hit Ratio: 0.00001
Core_0_LLC_load_miss 314472
Core_0_LLC_RFOs 243373
Core_0_LLC_RFO_hit 0 LLC_RFO_Hit Ratio: 0.00000
Core_0_LLC_RFO_miss 243373
Core_0_LLC_prefetches 864227
Core_0_LLC_prefetch_hit 35 LLC_prefetch_Hit Ratio: 0.00004
Core_0_LLC_prefetch_miss 864192
Core_0_LLC_writebacks 815084
Core_0_LLC_writeback_hit 811433 LLC_writeback_Hit Ratio: 0.99552
Core_0_LLC_writeback_miss 3651
Core_0_LLC_prefetch_requested 0
Core_0_LLC_prefetch_issued 0
Core_0_LLC_prefetch_useful 1 LLC_Useful Ratio: inf
Core_0_LLC_prefetch_useless 760099
Core_0_LLC_prefetch_late 0
Core_0_LLC_average_miss_latency 319.60206

Core_0_major_page_fault 0
Core_0_minor_page_fault 11197

CPU 0 L1D berti prefetcher final stats
CPU 0 L2C berti prefetcher final stats
Channel_0_RQ_row_buffer_hit 812881
Channel_0_RQ_row_buffer_miss 609156
Channel_0_WQ_row_buffer_hit 338840
Channel_0_WQ_row_buffer_miss 470577
Channel_0_WQ_full 2457
Channel_0_dbus_congested 922507

avg_congested_cycle 8

EzSearch AVG IPC :0.85672: L2-Pf-HR :0.73756 : L2-HR :0.70777 Uful:0.07304
     > Finished combination: TraceType=770-tot Sim:162000000 Prefetcher=L2berti_concurso L1=berti_concurso
