TRACE: [167000000][OPT-350M]_[h16][s512][d64] Warmup: 2000000 NumTraces: 167000000
L1:ipcp:L2:ipcp
*************************************************
   ChampSim Multicore Out-of-Order Simulator
   Last compiled: Oct 30 2024 23:53:52
*************************************************

trace_0 770-tot_memTraces_v5/140-subBillion_s512_LLM_Arch/memTraces[167000000][OPT-350M]_[h16][s512][d64].champsim.9.xz
MAIN.cc ln 751 stats print skipped
CPU  0 inst:    1000000 cyc:     498765 now IPC :2.00495: AVG IPC :2.00495: L2-Pf-HR :0.88215: L2-HR :0.80994: (Sim:0h0m20s) 
CPU  0 inst:    2000002 cyc:     981810 now IPC :2.07020: AVG IPC :2.03706: L2-Pf-HR :0.92694: L2-HR :0.85554: (Sim:0h0m42s) 

Warmup complete CPU  0 instructions:    2000002 cycles:     981810 (Simulation time: 0 hr 0 min 42 sec) 

CPU  0 inst:    3000000 cyc:    1596782 now IPC :1.62609: AVG IPC :1.62609: L2-Pf-HR :0.96220: L2-HR :0.87886: (Sim:0h1m1s) 
CPU  0 inst:    4000001 cyc:    2182661 now IPC :1.70684: AVG IPC :1.66548: L2-Pf-HR :0.95401: L2-HR :0.85826: (Sim:0h1m19s) 
CPU  0 inst:    5000002 cyc:    2804867 now IPC :1.60719: AVG IPC :1.64559: L2-Pf-HR :0.95149: L2-HR :0.85895: (Sim:0h1m37s) 
CPU  0 inst:    6000000 cyc:    3404335 now IPC :1.66814: AVG IPC :1.65117: L2-Pf-HR :0.96072: L2-HR :0.86855: (Sim:0h1m55s) 
CPU  0 inst:    7000004 cyc:    4003031 now IPC :1.67030: AVG IPC :1.65496: L2-Pf-HR :0.96602: L2-HR :0.87349: (Sim:0h2m14s) 
CPU  0 inst:    8000003 cyc:    4594274 now IPC :1.69135: AVG IPC :1.66092: L2-Pf-HR :0.96588: L2-HR :0.87014: (Sim:0h2m32s) 
CPU  0 inst:    9000000 cyc:    5207794 now IPC :1.62993: AVG IPC :1.65642: L2-Pf-HR :0.96256: L2-HR :0.86770: (Sim:0h2m50s) 
CPU  0 inst:   10000004 cyc:    5806250 now IPC :1.67097: AVG IPC :1.65822: L2-Pf-HR :0.96578: L2-HR :0.87120: (Sim:0h3m9s) 
CPU  0 inst:   11000003 cyc:    6405383 now IPC :1.66908: AVG IPC :1.65942: L2-Pf-HR :0.96806: L2-HR :0.87364: (Sim:0h3m27s) 
CPU  0 inst:   12000000 cyc:    6991560 now IPC :1.70596: AVG IPC :1.66396: L2-Pf-HR :0.96758: L2-HR :0.87241: (Sim:0h3m46s) 
CPU  0 inst:   13000004 cyc:    7596206 now IPC :1.65387: AVG IPC :1.66304: L2-Pf-HR :0.96470: L2-HR :0.87026: (Sim:0h4m4s) 
CPU  0 inst:   14000002 cyc:    8193485 now IPC :1.67426: AVG IPC :1.66397: L2-Pf-HR :0.96661: L2-HR :0.87199: (Sim:0h4m22s) 
CPU  0 inst:   15000000 cyc:    8790088 now IPC :1.67615: AVG IPC :1.66490: L2-Pf-HR :0.96823: L2-HR :0.87402: (Sim:0h4m40s) 
CPU  0 inst:   16000000 cyc:    9387697 now IPC :1.67333: AVG IPC :1.66550: L2-Pf-HR :0.96845: L2-HR :0.87350: (Sim:0h4m59s) 
CPU  0 inst:   17000002 cyc:    9990755 now IPC :1.65822: AVG IPC :1.66501: L2-Pf-HR :0.96583: L2-HR :0.87108: (Sim:0h5m18s) 
CPU  0 inst:   18000002 cyc:   10590748 now IPC :1.66669: AVG IPC :1.66512: L2-Pf-HR :0.96706: L2-HR :0.87261: (Sim:0h5m36s) 
CPU  0 inst:   19000002 cyc:   11189528 now IPC :1.67006: AVG IPC :1.66541: L2-Pf-HR :0.96826: L2-HR :0.87372: (Sim:0h5m55s) 
CPU  0 inst:   20000000 cyc:   11785810 now IPC :1.67706: AVG IPC :1.66605: L2-Pf-HR :0.96840: L2-HR :0.87399: (Sim:0h6m11s) 
CPU  0 inst:   21000001 cyc:   12400897 now IPC :1.62579: AVG IPC :1.66388: L2-Pf-HR :0.96691: L2-HR :0.87181: (Sim:0h6m24s) 
CPU  0 inst:   22000000 cyc:   13013688 now IPC :1.63188: AVG IPC :1.66225: L2-Pf-HR :0.96793: L2-HR :0.87272: (Sim:0h6m43s) 
CPU  0 inst:   23000000 cyc:   13622402 now IPC :1.64281: AVG IPC :1.66131: L2-Pf-HR :0.96882: L2-HR :0.87384: (Sim:0h7m1s) 
CPU  0 inst:   24000000 cyc:   14234146 now IPC :1.63467: AVG IPC :1.66008: L2-Pf-HR :0.96924: L2-HR :0.87424: (Sim:0h7m20s) 
CPU  0 inst:   25000005 cyc:   14871077 now IPC :1.57004: AVG IPC :1.65596: L2-Pf-HR :0.96776: L2-HR :0.87210: (Sim:0h7m38s) 
CPU  0 inst:   26000000 cyc:   15505631 now IPC :1.57590: AVG IPC :1.65246: L2-Pf-HR :0.96852: L2-HR :0.87293: (Sim:0h7m57s) 
CPU  0 inst:   27000002 cyc:   16138853 now IPC :1.57923: AVG IPC :1.64940: L2-Pf-HR :0.96918: L2-HR :0.87384: (Sim:0h8m15s) 
CPU  0 inst:   28000000 cyc:   16777046 now IPC :1.56692: AVG IPC :1.64607: L2-Pf-HR :0.96949: L2-HR :0.87437: (Sim:0h8m34s) 
CPU  0 inst:   29000004 cyc:   17429146 now IPC :1.53351: AVG IPC :1.64160: L2-Pf-HR :0.96788: L2-HR :0.87241: (Sim:0h8m52s) 
CPU  0 inst:   30000004 cyc:   18082582 now IPC :1.53037: AVG IPC :1.63735: L2-Pf-HR :0.96841: L2-HR :0.87313: (Sim:0h9m11s) 
CPU  0 inst:   31000000 cyc:   18728352 now IPC :1.54853: AVG IPC :1.63412: L2-Pf-HR :0.96898: L2-HR :0.87384: (Sim:0h9m30s) 
CPU  0 inst:   32000001 cyc:   19383835 now IPC :1.52559: AVG IPC :1.63026: L2-Pf-HR :0.96940: L2-HR :0.87466: (Sim:0h9m49s) 
CPU  0 inst:   33000002 cyc:   20035177 now IPC :1.53529: AVG IPC :1.62701: L2-Pf-HR :0.96861: L2-HR :0.87293: (Sim:0h10m7s) 
CPU  0 inst:   34000003 cyc:   20730072 now IPC :1.43907: AVG IPC :1.62040: L2-Pf-HR :0.96855: L2-HR :0.87320: (Sim:0h10m26s) 
CPU  0 inst:   35000004 cyc:   21388585 now IPC :1.51857: AVG IPC :1.61711: L2-Pf-HR :0.96895: L2-HR :0.87403: (Sim:0h10m45s) 
CPU  0 inst:   36000004 cyc:   22047865 now IPC :1.51681: AVG IPC :1.61397: L2-Pf-HR :0.96940: L2-HR :0.87455: (Sim:0h11m4s) 
CPU  0 inst:   37000003 cyc:   22672697 now IPC :1.60043: AVG IPC :1.61358: L2-Pf-HR :0.96886: L2-HR :0.87355: (Sim:0h11m22s) 
CPU  0 inst:   38000003 cyc:   23382170 now IPC :1.40950: AVG IPC :1.60712: L2-Pf-HR :0.96835: L2-HR :0.87343: (Sim:0h11m41s) 
CPU  0 inst:   39000004 cyc:   24036914 now IPC :1.52732: AVG IPC :1.60485: L2-Pf-HR :0.96879: L2-HR :0.87392: (Sim:0h12m0s) 
CPU  0 inst:   40000002 cyc:   24694095 now IPC :1.52165: AVG IPC :1.60254: L2-Pf-HR :0.96922: L2-HR :0.87455: (Sim:0h12m19s) 
CPU  0 inst:   41000005 cyc:   25336794 now IPC :1.55594: AVG IPC :1.60132: L2-Pf-HR :0.96896: L2-HR :0.87382: (Sim:0h12m38s) 
CPU  0 inst:   42000001 cyc:   26045587 now IPC :1.41084: AVG IPC :1.59593: L2-Pf-HR :0.96831: L2-HR :0.87343: (Sim:0h12m57s) 
CPU  0 inst:   43000005 cyc:   26702824 now IPC :1.52153: AVG IPC :1.59403: L2-Pf-HR :0.96870: L2-HR :0.87398: (Sim:0h13m15s) 
CPU  0 inst:   44000004 cyc:   27364299 now IPC :1.51177: AVG IPC :1.59197: L2-Pf-HR :0.96911: L2-HR :0.87447: (Sim:0h13m34s) 
CPU  0 inst:   45000000 cyc:   28006291 now IPC :1.55765: AVG IPC :1.59115: L2-Pf-HR :0.96899: L2-HR :0.87397: (Sim:0h13m53s) 
CPU  0 inst:   46000002 cyc:   28691181 now IPC :1.46009: AVG IPC :1.58791: L2-Pf-HR :0.96837: L2-HR :0.87352: (Sim:0h14m12s) 
CPU  0 inst:   47000000 cyc:   29345165 now IPC :1.52909: AVG IPC :1.58655: L2-Pf-HR :0.96871: L2-HR :0.87399: (Sim:0h14m31s) 
CPU  0 inst:   48000004 cyc:   30000251 now IPC :1.52652: AVG IPC :1.58520: L2-Pf-HR :0.96900: L2-HR :0.87439: (Sim:0h14m49s) 
CPU  0 inst:   49000004 cyc:   30652616 now IPC :1.53288: AVG IPC :1.58405: L2-Pf-HR :0.96892: L2-HR :0.87413: (Sim:0h15m8s) 
CPU  0 inst:   50000003 cyc:   31328509 now IPC :1.47952: AVG IPC :1.58172: L2-Pf-HR :0.96826: L2-HR :0.87365: (Sim:0h15m27s) 
CPU  0 inst:   51000005 cyc:   31982263 now IPC :1.52963: AVG IPC :1.58062: L2-Pf-HR :0.96852: L2-HR :0.87396: (Sim:0h15m46s) 
CPU  0 inst:   52000002 cyc:   32632538 now IPC :1.53781: AVG IPC :1.57974: L2-Pf-HR :0.96881: L2-HR :0.87449: (Sim:0h16m5s) 
CPU  0 inst:   53000004 cyc:   33287384 now IPC :1.52708: AVG IPC :1.57868: L2-Pf-HR :0.96887: L2-HR :0.87431: (Sim:0h16m25s) 
CPU  0 inst:   54000005 cyc:   33958617 now IPC :1.48980: AVG IPC :1.57687: L2-Pf-HR :0.96810: L2-HR :0.87363: (Sim:0h16m42s) 
CPU  0 inst:   55000001 cyc:   34611938 now IPC :1.53063: AVG IPC :1.57597: L2-Pf-HR :0.96838: L2-HR :0.87408: (Sim:0h16m54s) 
CPU  0 inst:   56000001 cyc:   35260109 now IPC :1.54280: AVG IPC :1.57534: L2-Pf-HR :0.96861: L2-HR :0.87440: (Sim:0h17m5s) 
CPU  0 inst:   57000001 cyc:   35914701 now IPC :1.52767: AVG IPC :1.57445: L2-Pf-HR :0.96872: L2-HR :0.87447: (Sim:0h17m14s) 
CPU  0 inst:   58000000 cyc:   36598740 now IPC :1.46190: AVG IPC :1.57229: L2-Pf-HR :0.96816: L2-HR :0.87374: (Sim:0h17m30s) 
CPU  0 inst:   59000004 cyc:   37255470 now IPC :1.52270: AVG IPC :1.57139: L2-Pf-HR :0.96841: L2-HR :0.87403: (Sim:0h17m47s) 
CPU  0 inst:   60000005 cyc:   37910949 now IPC :1.52560: AVG IPC :1.57058: L2-Pf-HR :0.96867: L2-HR :0.87444: (Sim:0h18m7s) 
CPU  0 inst:   61000005 cyc:   38572400 now IPC :1.51183: AVG IPC :1.56954: L2-Pf-HR :0.96877: L2-HR :0.87458: (Sim:0h18m26s) 
CPU  0 inst:   62000002 cyc:   39254657 now IPC :1.46572: AVG IPC :1.56769: L2-Pf-HR :0.96816: L2-HR :0.87377: (Sim:0h18m42s) 
CPU  0 inst:   63000003 cyc:   39912958 now IPC :1.51906: AVG IPC :1.56687: L2-Pf-HR :0.96838: L2-HR :0.87407: (Sim:0h19m2s) 
CPU  0 inst:   64000002 cyc:   40571952 now IPC :1.51746: AVG IPC :1.56605: L2-Pf-HR :0.96865: L2-HR :0.87441: (Sim:0h19m22s) 
CPU  0 inst:   65000000 cyc:   41232398 now IPC :1.51413: AVG IPC :1.56519: L2-Pf-HR :0.96879: L2-HR :0.87463: (Sim:0h19m43s) 
CPU  0 inst:   66000004 cyc:   42397193 now IPC :0.85852: AVG IPC :1.54532: L2-Pf-HR :0.96575: L2-HR :0.87023: (Sim:0h20m4s) 
CPU  0 inst:   67000003 cyc:   46853662 now IPC :0.22439: AVG IPC :1.41699: L2-Pf-HR :0.94576: L2-HR :0.84062: (Sim:0h20m51s) 
CPU  0 inst:   68000002 cyc:   51849923 now IPC :0.20015: AVG IPC :1.29747: L2-Pf-HR :0.92707: L2-HR :0.81541: (Sim:0h21m42s) 
CPU  0 inst:   69000000 cyc:   55481273 now IPC :0.27538: AVG IPC :1.22937: L2-Pf-HR :0.91807: L2-HR :0.80668: (Sim:0h22m19s) 
CPU  0 inst:   70000000 cyc:   58655268 now IPC :0.31506: AVG IPC :1.17905: L2-Pf-HR :0.91246: L2-HR :0.80308: (Sim:0h22m54s) 
CPU  0 inst:   71000002 cyc:   61828947 now IPC :0.31509: AVG IPC :1.13399: L2-Pf-HR :0.90694: L2-HR :0.79955: (Sim:0h23m28s) 
CPU  0 inst:   72000004 cyc:   65001253 now IPC :0.31523: AVG IPC :1.09342: L2-Pf-HR :0.90150: L2-HR :0.79607: (Sim:0h24m2s) 
CPU  0 inst:   73000003 cyc:   68175945 now IPC :0.31499: AVG IPC :1.05664: L2-Pf-HR :0.89614: L2-HR :0.79265: (Sim:0h24m36s) 
CPU  0 inst:   74000000 cyc:   71348275 now IPC :0.31522: AVG IPC :1.02321: L2-Pf-HR :0.89084: L2-HR :0.78929: (Sim:0h25m10s) 
CPU  0 inst:   75000005 cyc:   74519816 now IPC :0.31531: AVG IPC :0.99268: L2-Pf-HR :0.88561: L2-HR :0.78597: (Sim:0h25m43s) 
CPU  0 inst:   76000000 cyc:   77691780 now IPC :0.31526: AVG IPC :0.96467: L2-Pf-HR :0.88046: L2-HR :0.78272: (Sim:0h26m15s) 
CPU  0 inst:   77000000 cyc:   80861978 now IPC :0.31544: AVG IPC :0.93891: L2-Pf-HR :0.87539: L2-HR :0.77952: (Sim:0h26m48s) 
CPU  0 inst:   78000000 cyc:   84029596 now IPC :0.31569: AVG IPC :0.91514: L2-Pf-HR :0.87040: L2-HR :0.77636: (Sim:0h27m20s) 
CPU  0 inst:   79000000 cyc:   87196132 now IPC :0.31580: AVG IPC :0.89312: L2-Pf-HR :0.86546: L2-HR :0.77326: (Sim:0h27m53s) 
CPU  0 inst:   80000004 cyc:   90365162 now IPC :0.31556: AVG IPC :0.87265: L2-Pf-HR :0.86057: L2-HR :0.77021: (Sim:0h28m21s) 
CPU  0 inst:   81000004 cyc:   93533099 now IPC :0.31566: AVG IPC :0.85358: L2-Pf-HR :0.85576: L2-HR :0.76721: (Sim:0h28m54s) 
CPU  0 inst:   82000000 cyc:   96699464 now IPC :0.31582: AVG IPC :0.83579: L2-Pf-HR :0.85101: L2-HR :0.76425: (Sim:0h29m25s) 
CPU  0 inst:   83000005 cyc:   99865315 now IPC :0.31587: AVG IPC :0.81915: L2-Pf-HR :0.84634: L2-HR :0.76133: (Sim:0h29m57s) 
CPU  0 inst:   84000001 cyc:  103032056 now IPC :0.31578: AVG IPC :0.80353: L2-Pf-HR :0.84172: L2-HR :0.75846: (Sim:0h30m25s) 
CPU  0 inst:   85000005 cyc:  106200317 now IPC :0.31563: AVG IPC :0.78883: L2-Pf-HR :0.83715: L2-HR :0.75564: (Sim:0h30m58s) 
CPU  0 inst:   86000000 cyc:  109366581 now IPC :0.31583: AVG IPC :0.77502: L2-Pf-HR :0.83263: L2-HR :0.75285: (Sim:0h31m27s) 
CPU  0 inst:   87000002 cyc:  112532974 now IPC :0.31582: AVG IPC :0.76198: L2-Pf-HR :0.82819: L2-HR :0.75011: (Sim:0h31m58s) 
CPU  0 inst:   88000004 cyc:  115699668 now IPC :0.31579: AVG IPC :0.74967: L2-Pf-HR :0.82380: L2-HR :0.74742: (Sim:0h32m30s) 
CPU  0 inst:   89000004 cyc:  118868476 now IPC :0.31558: AVG IPC :0.73800: L2-Pf-HR :0.81946: L2-HR :0.74476: (Sim:0h32m50s) 
CPU  0 inst:   90000000 cyc:  122035623 now IPC :0.31574: AVG IPC :0.72695: L2-Pf-HR :0.81518: L2-HR :0.74214: (Sim:0h33m17s) 
CPU  0 inst:   91000003 cyc:  125202201 now IPC :0.31580: AVG IPC :0.71647: L2-Pf-HR :0.81095: L2-HR :0.73956: (Sim:0h33m41s) 
CPU  0 inst:   92000002 cyc:  128368819 now IPC :0.31579: AVG IPC :0.70651: L2-Pf-HR :0.80679: L2-HR :0.73701: (Sim:0h34m9s) 
CPU  0 inst:   93000003 cyc:  131535022 now IPC :0.31584: AVG IPC :0.69703: L2-Pf-HR :0.80269: L2-HR :0.73450: (Sim:0h34m32s) 
CPU  0 inst:   94000002 cyc:  134702048 now IPC :0.31575: AVG IPC :0.68800: L2-Pf-HR :0.79862: L2-HR :0.73202: (Sim:0h35m2s) 
CPU  0 inst:   95000002 cyc:  137868193 now IPC :0.31584: AVG IPC :0.67940: L2-Pf-HR :0.79458: L2-HR :0.72958: (Sim:0h35m34s) 
CPU  0 inst:   96000004 cyc:  141035431 now IPC :0.31573: AVG IPC :0.67117: L2-Pf-HR :0.79061: L2-HR :0.72718: (Sim:0h36m7s) 
CPU  0 inst:   97000004 cyc:  144201084 now IPC :0.31589: AVG IPC :0.66332: L2-Pf-HR :0.78668: L2-HR :0.72481: (Sim:0h36m40s) 
CPU  0 inst:   98000000 cyc:  147368214 now IPC :0.31574: AVG IPC :0.65580: L2-Pf-HR :0.78279: L2-HR :0.72248: (Sim:0h37m13s) 
CPU  0 inst:   99000003 cyc:  150535700 now IPC :0.31571: AVG IPC :0.64860: L2-Pf-HR :0.77897: L2-HR :0.72016: (Sim:0h37m44s) 
CPU  0 inst:  100000002 cyc:  153703389 now IPC :0.31569: AVG IPC :0.64169: L2-Pf-HR :0.77520: L2-HR :0.71790: (Sim:0h38m18s) 
CPU  0 inst:  101000002 cyc:  155522589 now IPC :0.54969: AVG IPC :0.64061: L2-Pf-HR :0.77453: L2-HR :0.71777: (Sim:0h38m44s) 
CPU  0 inst:  102000003 cyc:  156100889 now IPC :1.72921: AVG IPC :0.64467: L2-Pf-HR :0.77730: L2-HR :0.72001: (Sim:0h39m6s) 
CPU  0 inst:  103000005 cyc:  156682032 now IPC :1.72075: AVG IPC :0.64868: L2-Pf-HR :0.78028: L2-HR :0.72237: (Sim:0h39m25s) 
CPU  0 inst:  104000002 cyc:  157193309 now IPC :1.95588: AVG IPC :0.65296: L2-Pf-HR :0.78469: L2-HR :0.72565: (Sim:0h39m44s) 
CPU  0 inst:  105000002 cyc:  157771242 now IPC :1.73030: AVG IPC :0.65693: L2-Pf-HR :0.78776: L2-HR :0.72812: (Sim:0h40m6s) 
CPU  0 inst:  106000005 cyc:  158370886 now IPC :1.66766: AVG IPC :0.66078: L2-Pf-HR :0.78985: L2-HR :0.73001: (Sim:0h40m29s) 
CPU  0 inst:  107000005 cyc:  158939188 now IPC :1.75963: AVG IPC :0.66474: L2-Pf-HR :0.79207: L2-HR :0.73202: (Sim:0h40m52s) 
CPU  0 inst:  108000004 cyc:  159450516 now IPC :1.95569: AVG IPC :0.66890: L2-Pf-HR :0.79581: L2-HR :0.73497: (Sim:0h41m15s) 
CPU  0 inst:  109000004 cyc:  160012155 now IPC :1.78050: AVG IPC :0.67283: L2-Pf-HR :0.79868: L2-HR :0.73741: (Sim:0h41m37s) 
CPU  0 inst:  110000004 cyc:  160606448 now IPC :1.68267: AVG IPC :0.67659: L2-Pf-HR :0.80024: L2-HR :0.73903: (Sim:0h41m58s) 
CPU  0 inst:  111000001 cyc:  161196822 now IPC :1.69384: AVG IPC :0.68034: L2-Pf-HR :0.80197: L2-HR :0.74075: (Sim:0h42m20s) 
CPU  0 inst:  112000005 cyc:  161710743 now IPC :1.94583: AVG IPC :0.68438: L2-Pf-HR :0.80522: L2-HR :0.74346: (Sim:0h42m41s) 
CPU  0 inst:  113000002 cyc:  162259292 now IPC :1.82299: AVG IPC :0.68825: L2-Pf-HR :0.80786: L2-HR :0.74578: (Sim:0h42m56s) 
CPU  0 inst:  114000003 cyc:  162847872 now IPC :1.69901: AVG IPC :0.69193: L2-Pf-HR :0.80911: L2-HR :0.74722: (Sim:0h43m13s) 
CPU  0 inst:  115000000 cyc:  163443893 now IPC :1.67779: AVG IPC :0.69555: L2-Pf-HR :0.81055: L2-HR :0.74876: (Sim:0h43m32s) 
CPU  0 inst:  116000001 cyc:  163972352 now IPC :1.89230: AVG IPC :0.69943: L2-Pf-HR :0.81313: L2-HR :0.75107: (Sim:0h43m47s) 
CPU  0 inst:  117000005 cyc:  164484996 now IPC :1.95068: AVG IPC :0.70335: L2-Pf-HR :0.81585: L2-HR :0.75350: (Sim:0h44m6s) 
CPU  0 inst:  118000003 cyc:  165098402 now IPC :1.63024: AVG IPC :0.70681: L2-Pf-HR :0.81680: L2-HR :0.75473: (Sim:0h44m29s) 
CPU  0 inst:  119000000 cyc:  165692227 now IPC :1.68399: AVG IPC :0.71034: L2-Pf-HR :0.81803: L2-HR :0.75615: (Sim:0h44m52s) 
CPU  0 inst:  120000004 cyc:  166242503 now IPC :1.81728: AVG IPC :0.71402: L2-Pf-HR :0.82003: L2-HR :0.75807: (Sim:0h45m15s) 
CPU  0 inst:  121000003 cyc:  166754395 now IPC :1.95354: AVG IPC :0.71785: L2-Pf-HR :0.82249: L2-HR :0.76035: (Sim:0h45m34s) 
CPU  0 inst:  122000002 cyc:  167349657 now IPC :1.67993: AVG IPC :0.72129: L2-Pf-HR :0.82349: L2-HR :0.76162: (Sim:0h45m56s) 
CPU  0 inst:  123000000 cyc:  167932031 now IPC :1.71711: AVG IPC :0.72477: L2-Pf-HR :0.82452: L2-HR :0.76289: (Sim:0h46m18s) 
CPU  0 inst:  124000000 cyc:  168476187 now IPC :1.83771: AVG IPC :0.72838: L2-Pf-HR :0.82609: L2-HR :0.76453: (Sim:0h46m39s) 
CPU  0 inst:  125000002 cyc:  168988263 now IPC :1.95284: AVG IPC :0.73211: L2-Pf-HR :0.82825: L2-HR :0.76661: (Sim:0h46m58s) 
CPU  0 inst:  126000002 cyc:  169551444 now IPC :1.77563: AVG IPC :0.73560: L2-Pf-HR :0.82938: L2-HR :0.76795: (Sim:0h47m21s) 
CPU  0 inst:  127000001 cyc:  170101870 now IPC :1.81677: AVG IPC :0.73912: L2-Pf-HR :0.83031: L2-HR :0.76916: (Sim:0h47m43s) 
CPU  0 inst:  128000000 cyc:  170649961 now IPC :1.82451: AVG IPC :0.74263: L2-Pf-HR :0.83148: L2-HR :0.77052: (Sim:0h48m5s) 
CPU  0 inst:  129000005 cyc:  171159944 now IPC :1.96086: AVG IPC :0.74628: L2-Pf-HR :0.83343: L2-HR :0.77245: (Sim:0h48m26s) 
CPU  0 inst:  130000001 cyc:  171703513 now IPC :1.83969: AVG IPC :0.74976: L2-Pf-HR :0.83469: L2-HR :0.77388: (Sim:0h48m48s) 
CPU  0 inst:  131000003 cyc:  172249904 now IPC :1.83019: AVG IPC :0.75321: L2-Pf-HR :0.83552: L2-HR :0.77499: (Sim:0h49m9s) 
CPU  0 inst:  132000002 cyc:  172800799 now IPC :1.81523: AVG IPC :0.75661: L2-Pf-HR :0.83632: L2-HR :0.77609: (Sim:0h49m31s) 
CPU  0 inst:  133000002 cyc:  173310216 now IPC :1.96303: AVG IPC :0.76018: L2-Pf-HR :0.83811: L2-HR :0.77790: (Sim:0h49m52s) 
CPU  0 inst:  134000000 cyc:  173839719 now IPC :1.88856: AVG IPC :0.76363: L2-Pf-HR :0.83946: L2-HR :0.77938: (Sim:0h50m13s) 
CPU  0 inst:  135000002 cyc:  174388991 now IPC :1.82060: AVG IPC :0.76698: L2-Pf-HR :0.84015: L2-HR :0.78038: (Sim:0h50m35s) 
CPU  0 inst:  136000002 cyc:  174945253 now IPC :1.79771: AVG IPC :0.77028: L2-Pf-HR :0.84071: L2-HR :0.78128: (Sim:0h50m57s) 
CPU  0 inst:  137000000 cyc:  175456082 now IPC :1.95760: AVG IPC :0.77375: L2-Pf-HR :0.84227: L2-HR :0.78293: (Sim:0h51m18s) 
CPU  0 inst:  138000001 cyc:  175964605 now IPC :1.96648: AVG IPC :0.77722: L2-Pf-HR :0.84388: L2-HR :0.78460: (Sim:0h51m40s) 
CPU  0 inst:  139000001 cyc:  176523516 now IPC :1.78919: AVG IPC :0.78044: L2-Pf-HR :0.84431: L2-HR :0.78539: (Sim:0h52m1s) 
CPU  0 inst:  140000004 cyc:  177073602 now IPC :1.81790: AVG IPC :0.78368: L2-Pf-HR :0.84475: L2-HR :0.78619: (Sim:0h52m23s) 
CPU  0 inst:  141000003 cyc:  177595420 now IPC :1.91638: AVG IPC :0.78703: L2-Pf-HR :0.84604: L2-HR :0.78761: (Sim:0h52m44s) 
CPU  0 inst:  142000005 cyc:  178104881 now IPC :1.96286: AVG IPC :0.79041: L2-Pf-HR :0.84752: L2-HR :0.78919: (Sim:0h52m59s) 
CPU  0 inst:  143000005 cyc:  178665824 now IPC :1.78271: AVG IPC :0.79354: L2-Pf-HR :0.84805: L2-HR :0.79003: (Sim:0h53m20s) 
CPU  0 inst:  144000004 cyc:  179217763 now IPC :1.81179: AVG IPC :0.79670: L2-Pf-HR :0.84846: L2-HR :0.79079: (Sim:0h53m42s) 
CPU  0 inst:  145000003 cyc:  179752495 now IPC :1.87009: AVG IPC :0.79991: L2-Pf-HR :0.84939: L2-HR :0.79193: (Sim:0h54m3s) 
CPU  0 inst:  146000003 cyc:  180261413 now IPC :1.96495: AVG IPC :0.80321: L2-Pf-HR :0.85076: L2-HR :0.79342: (Sim:0h54m17s) 
CPU  0 inst:  147000004 cyc:  180809971 now IPC :1.82296: AVG IPC :0.80633: L2-Pf-HR :0.85134: L2-HR :0.79428: (Sim:0h54m39s) 
CPU  0 inst:  148000003 cyc:  181364356 now IPC :1.80380: AVG IPC :0.80939: L2-Pf-HR :0.85169: L2-HR :0.79497: (Sim:0h55m1s) 
CPU  0 inst:  149000000 cyc:  181899198 now IPC :1.86971: AVG IPC :0.81253: L2-Pf-HR :0.85244: L2-HR :0.79596: (Sim:0h55m23s) 
CPU  0 inst:  150000005 cyc:  182408693 now IPC :1.96274: AVG IPC :0.81576: L2-Pf-HR :0.85370: L2-HR :0.79735: (Sim:0h55m45s) 
CPU  0 inst:  151000001 cyc:  182957383 now IPC :1.82252: AVG IPC :0.81879: L2-Pf-HR :0.85426: L2-HR :0.79818: (Sim:0h56m7s) 
CPU  0 inst:  152000002 cyc:  183504317 now IPC :1.82838: AVG IPC :0.82182: L2-Pf-HR :0.85460: L2-HR :0.79886: (Sim:0h56m30s) 
CPU  0 inst:  153000002 cyc:  184047942 now IPC :1.83950: AVG IPC :0.82484: L2-Pf-HR :0.85520: L2-HR :0.79970: (Sim:0h56m53s) 
CPU  0 inst:  154000002 cyc:  184556998 now IPC :1.96442: AVG IPC :0.82800: L2-Pf-HR :0.85638: L2-HR :0.80103: (Sim:0h57m15s) 
CPU  0 inst:  155000002 cyc:  185101840 now IPC :1.83539: AVG IPC :0.83098: L2-Pf-HR :0.85703: L2-HR :0.80193: (Sim:0h57m38s) 
CPU  0 inst:  156000001 cyc:  185651222 now IPC :1.82023: AVG IPC :0.83392: L2-Pf-HR :0.85737: L2-HR :0.80258: (Sim:0h58m0s) 
CPU  0 inst:  157000004 cyc:  186200671 now IPC :1.82001: AVG IPC :0.83685: L2-Pf-HR :0.85776: L2-HR :0.80326: (Sim:0h58m23s) 
CPU  0 inst:  158000000 cyc:  186709690 now IPC :1.96456: AVG IPC :0.83994: L2-Pf-HR :0.85888: L2-HR :0.80452: (Sim:0h58m45s) 
CPU  0 inst:  159000001 cyc:  187238037 now IPC :1.89270: AVG IPC :0.84292: L2-Pf-HR :0.85966: L2-HR :0.80551: (Sim:0h59m6s) 
CPU  0 inst:  160000002 cyc:  187785233 now IPC :1.82750: AVG IPC :0.84581: L2-Pf-HR :0.85994: L2-HR :0.80610: (Sim:0h59m28s) 
CPU  0 inst:  161000001 cyc:  188330305 now IPC :1.83462: AVG IPC :0.84869: L2-Pf-HR :0.86027: L2-HR :0.80672: (Sim:0h59m48s) 
CPU  0 inst:  162000002 cyc:  188850460 now IPC :1.92251: AVG IPC :0.85166: L2-Pf-HR :0.86117: L2-HR :0.80780: (Sim:1h0m8s) 
CPU  0 inst:  163000005 cyc:  189360647 now IPC :1.96007: AVG IPC :0.85466: L2-Pf-HR :0.86215: L2-HR :0.80895: (Sim:1h0m30s) 
CPU  0 inst:  164000000 cyc:  189927653 now IPC :1.76364: AVG IPC :0.85739: L2-Pf-HR :0.86229: L2-HR :0.80940: (Sim:1h0m53s) 
Finished CPU 0 instr: 162000004 cyc: 188945844 AVG IPC: 0.85739 (Sim time: 1h0m53s)

ChampSim completed all CPUs

[ROI Statistics]
Core_0_instructions 162000004
Core_0_cycles 188945844
Core_0_IPC 0.85739

Core_0_branch_prediction_accuracy 99.21038
Core_0_branch_MPKI 0.23475
Core_0_average_ROB_occupancy_at_mispredict 448.85645

Core_0_L1D_total_access 83432381
Core_0_L1D_total_hit 80334920 L1D_total_Hit Ratio: 0.96287
Core_0_L1D_total_miss 3097461
Core_0_L1D_loads 47094471
Core_0_L1D_load_hit 45962569 L1D_load_Hit Ratio: 0.97597
Core_0_L1D_load_miss 1131902
Core_0_L1D_RFOs 4394008
Core_0_L1D_RFO_hit 4179583 L1D_RFO_Hit Ratio: 0.95120
Core_0_L1D_RFO_miss 214425
Core_0_L1D_prefetches 31943902
Core_0_L1D_prefetch_hit 30192768 L1D_prefetch_Hit Ratio: 0.94518
Core_0_L1D_prefetch_miss 1751134
Core_0_L1D_writebacks 0
Core_0_L1D_writeback_hit 0 L1D_writeback_Hit Ratio: -nan
Core_0_L1D_writeback_miss 0
Core_0_L1D_prefetch_requested 88896430
Core_0_L1D_prefetch_issued 44476430
Core_0_L1D_prefetch_useful 1636904 L1D_Useful Ratio: 0.03680
Core_0_L1D_prefetch_useless 130396
Core_0_L1D_prefetch_late 162751
Core_0_L1D_average_miss_latency 3404766.47972

Core_0_L1I_total_access 24820892
Core_0_L1I_total_hit 24818928 L1I_total_Hit Ratio: 0.99992
Core_0_L1I_total_miss 1964
Core_0_L1I_loads 24820892
Core_0_L1I_load_hit 24818928 L1I_load_Hit Ratio: 0.99992
Core_0_L1I_load_miss 1964
Core_0_L1I_RFOs 0
Core_0_L1I_RFO_hit 0 L1I_RFO_Hit Ratio: -nan
Core_0_L1I_RFO_miss 0
Core_0_L1I_prefetches 0
Core_0_L1I_prefetch_hit 0 L1I_prefetch_Hit Ratio: -nan
Core_0_L1I_prefetch_miss 0
Core_0_L1I_writebacks 0
Core_0_L1I_writeback_hit 0 L1I_writeback_Hit Ratio: -nan
Core_0_L1I_writeback_miss 0
Core_0_L1I_prefetch_requested 0
Core_0_L1I_prefetch_issued 0
Core_0_L1I_prefetch_useful 0 L1I_Useful Ratio: -nan
Core_0_L1I_prefetch_useless 0
Core_0_L1I_prefetch_late 0
Core_0_L1I_average_miss_latency 263.67108

Core_0_L2C_total_access 7470596
Core_0_L2C_total_hit 6046701 L2C_total_Hit Ratio: 0.80940
Core_0_L2C_total_miss 1423895
Core_0_L2C_loads 971200
Core_0_L2C_load_hit 473101 L2C_load_Hit Ratio: 0.48713
Core_0_L2C_load_miss 498099
Core_0_L2C_RFOs 214419
Core_0_L2C_RFO_hit 17139 L2C_RFO_Hit Ratio: 0.07993
Core_0_L2C_RFO_miss 197280
Core_0_L2C_prefetches 5290104
Core_0_L2C_prefetch_hit 4561593 L2C_prefetch_Hit Ratio: 0.86229
Core_0_L2C_prefetch_miss 728511
Core_0_L2C_writebacks 994873
Core_0_L2C_writeback_hit 994868 L2C_writeback_Hit Ratio: 0.99999
Core_0_L2C_writeback_miss 5
Core_0_L2C_prefetch_requested 6798437
Core_0_L2C_prefetch_issued 6578290
Core_0_L2C_prefetch_useful 80115 L2C_Useful Ratio: 0.01218
Core_0_L2C_prefetch_useless 602510
Core_0_L2C_prefetch_late 185239
Core_0_L2C_average_miss_latency 316.99957

Core_0_LLC_total_access 2239234
Core_0_LLC_total_hit 811730 LLC_total_Hit Ratio: 0.36250
Core_0_LLC_total_miss 1427504
Core_0_LLC_loads 312932
Core_0_LLC_load_hit 1 LLC_load_Hit Ratio: 0.00000
Core_0_LLC_load_miss 312931
Core_0_LLC_RFOs 197279
Core_0_LLC_RFO_hit 0 LLC_RFO_Hit Ratio: 0.00000
Core_0_LLC_RFO_miss 197279
Core_0_LLC_prefetches 913679
Core_0_LLC_prefetch_hit 44 LLC_prefetch_Hit Ratio: 0.00005
Core_0_LLC_prefetch_miss 913635
Core_0_LLC_writebacks 815344
Core_0_LLC_writeback_hit 811685 LLC_writeback_Hit Ratio: 0.99551
Core_0_LLC_writeback_miss 3659
Core_0_LLC_prefetch_requested 0
Core_0_LLC_prefetch_issued 0
Core_0_LLC_prefetch_useful 1 LLC_Useful Ratio: inf
Core_0_LLC_prefetch_useless 802745
Core_0_LLC_prefetch_late 0
Core_0_LLC_average_miss_latency 293.22187

Core_0_major_page_fault 0
Core_0_minor_page_fault 11197


Channel_0_RQ_row_buffer_hit 754554
Channel_0_RQ_row_buffer_miss 669291
Channel_0_WQ_row_buffer_hit 294879
Channel_0_WQ_row_buffer_miss 514409
Channel_0_WQ_full 2730
Channel_0_dbus_congested 1139505

avg_congested_cycle 8

EzSearch AVG IPC :0.85739: L2-Pf-HR :0.86229 : L2-HR :0.80940 Uful:0.01218
     > Finished combination: TraceType=770-tot Sim:162000000 Prefetcher=L2ipcp L1=ipcp
