TRACE: [167000000][OPT-350M]_[h16][s512][d64] Warmup: 2000000 NumTraces: 167000000
L1:bingo_dpc3:L2:bingo_dpc3
*************************************************
   ChampSim Multicore Out-of-Order Simulator
   Last compiled: Oct 27 2024 04:07:08
*************************************************

trace_0 770-tot_memTraces_v3/memTraces[167000000][OPT-350M]_[h16][s512][d64].champsim.xz
Bingo PHT WAYS: 16 and PHT_SIZE: 16384
Bingo2 PHT WAYS: 16 and PHT_SIZE: 16384
MAIN.cc ln 751 stats print skipped
CPU  0 inst:    1000000 cyc:     499220 now IPC :2.00312: AVG IPC :2.00312: L2-Pf-HR :0.71949: L2-HR :0.65756: (Sim:0h0m8s) 
CPU  0 inst:    2000002 cyc:     981643 now IPC :2.07287: AVG IPC :2.03740: L2-Pf-HR :0.76944: L2-HR :0.72252: (Sim:0h0m17s) 

Warmup complete CPU  0 instructions:    2000002 cycles:     981643 (Simulation time: 0 hr 0 min 17 sec) 

CPU  0 inst:    3000000 cyc:    1603998 now IPC :1.60680: AVG IPC :1.60680: L2-Pf-HR :0.90880: L2-HR :0.81227: (Sim:0h0m24s) 
CPU  0 inst:    4000001 cyc:    2213328 now IPC :1.64115: AVG IPC :1.62379: L2-Pf-HR :0.87787: L2-HR :0.80433: (Sim:0h0m32s) 
CPU  0 inst:    5000002 cyc:    2830792 now IPC :1.61953: AVG IPC :1.62237: L2-Pf-HR :0.85242: L2-HR :0.80280: (Sim:0h0m39s) 
CPU  0 inst:    6000000 cyc:    3376182 now IPC :1.83355: AVG IPC :1.67047: L2-Pf-HR :0.86268: L2-HR :0.82008: (Sim:0h0m47s) 
CPU  0 inst:    7000004 cyc:    3946398 now IPC :1.75373: AVG IPC :1.68648: L2-Pf-HR :0.87510: L2-HR :0.82862: (Sim:0h0m54s) 
CPU  0 inst:    8000003 cyc:    4550704 now IPC :1.65479: AVG IPC :1.68111: L2-Pf-HR :0.87240: L2-HR :0.82554: (Sim:0h1m2s) 
CPU  0 inst:    9000000 cyc:    5202111 now IPC :1.53513: AVG IPC :1.65858: L2-Pf-HR :0.86535: L2-HR :0.82101: (Sim:0h1m9s) 
CPU  0 inst:   10000004 cyc:    5818742 now IPC :1.62172: AVG IPC :1.65388: L2-Pf-HR :0.86910: L2-HR :0.82332: (Sim:0h1m17s) 
CPU  0 inst:   11000003 cyc:    6412449 now IPC :1.68433: AVG IPC :1.65721: L2-Pf-HR :0.87444: L2-HR :0.82848: (Sim:0h1m25s) 
CPU  0 inst:   12000001 cyc:    7068137 now IPC :1.52511: AVG IPC :1.64298: L2-Pf-HR :0.87403: L2-HR :0.82795: (Sim:0h1m33s) 
CPU  0 inst:   13000004 cyc:    7779382 now IPC :1.40599: AVG IPC :1.61819: L2-Pf-HR :0.86964: L2-HR :0.82437: (Sim:0h1m41s) 
CPU  0 inst:   14000002 cyc:    8430183 now IPC :1.53656: AVG IPC :1.61105: L2-Pf-HR :0.87437: L2-HR :0.82639: (Sim:0h1m49s) 
CPU  0 inst:   15000000 cyc:    9066340 now IPC :1.57194: AVG IPC :1.60798: L2-Pf-HR :0.87576: L2-HR :0.82819: (Sim:0h1m57s) 
CPU  0 inst:   16000004 cyc:    9724137 now IPC :1.52023: AVG IPC :1.60137: L2-Pf-HR :0.87662: L2-HR :0.82864: (Sim:0h2m5s) 
CPU  0 inst:   17000002 cyc:   10438607 now IPC :1.39964: AVG IPC :1.58613: L2-Pf-HR :0.87089: L2-HR :0.82469: (Sim:0h2m13s) 
CPU  0 inst:   18000004 cyc:   11075797 now IPC :1.56939: AVG IPC :1.58508: L2-Pf-HR :0.87400: L2-HR :0.82705: (Sim:0h2m21s) 
CPU  0 inst:   19000003 cyc:   11690512 now IPC :1.62677: AVG IPC :1.58747: L2-Pf-HR :0.87468: L2-HR :0.82849: (Sim:0h2m28s) 
CPU  0 inst:   20000001 cyc:   12328008 now IPC :1.56863: AVG IPC :1.58641: L2-Pf-HR :0.87597: L2-HR :0.82976: (Sim:0h2m36s) 
CPU  0 inst:   21000005 cyc:   13036011 now IPC :1.41243: AVG IPC :1.57619: L2-Pf-HR :0.87077: L2-HR :0.82639: (Sim:0h2m44s) 
CPU  0 inst:   22000003 cyc:   13654184 now IPC :1.61767: AVG IPC :1.57822: L2-Pf-HR :0.87251: L2-HR :0.82816: (Sim:0h2m52s) 
CPU  0 inst:   23000000 cyc:   14273661 now IPC :1.61426: AVG IPC :1.57990: L2-Pf-HR :0.87455: L2-HR :0.83006: (Sim:0h3m0s) 
CPU  0 inst:   24000000 cyc:   14923951 now IPC :1.53778: AVG IPC :1.57793: L2-Pf-HR :0.87581: L2-HR :0.83068: (Sim:0h3m7s) 
CPU  0 inst:   25000005 cyc:   15643115 now IPC :1.39051: AVG IPC :1.56874: L2-Pf-HR :0.87163: L2-HR :0.82768: (Sim:0h3m15s) 
CPU  0 inst:   26000005 cyc:   16272369 now IPC :1.58918: AVG IPC :1.56958: L2-Pf-HR :0.87375: L2-HR :0.82941: (Sim:0h3m23s) 
CPU  0 inst:   27000002 cyc:   16902049 now IPC :1.58810: AVG IPC :1.57031: L2-Pf-HR :0.87389: L2-HR :0.82984: (Sim:0h3m31s) 
CPU  0 inst:   28000000 cyc:   17552353 now IPC :1.53774: AVG IPC :1.56903: L2-Pf-HR :0.87550: L2-HR :0.83097: (Sim:0h3m39s) 
CPU  0 inst:   29000005 cyc:   18279618 now IPC :1.37502: AVG IPC :1.56088: L2-Pf-HR :0.87159: L2-HR :0.82814: (Sim:0h3m46s) 
CPU  0 inst:   30000004 cyc:   18926059 now IPC :1.54693: AVG IPC :1.56037: L2-Pf-HR :0.87220: L2-HR :0.82883: (Sim:0h3m54s) 
CPU  0 inst:   31000000 cyc:   19530752 now IPC :1.65373: AVG IPC :1.56342: L2-Pf-HR :0.87349: L2-HR :0.83022: (Sim:0h4m2s) 
CPU  0 inst:   32000001 cyc:   20166490 now IPC :1.57298: AVG IPC :1.56373: L2-Pf-HR :0.87453: L2-HR :0.83133: (Sim:0h4m10s) 
CPU  0 inst:   33000003 cyc:   20857593 now IPC :1.44697: AVG IPC :1.55967: L2-Pf-HR :0.87234: L2-HR :0.82955: (Sim:0h4m18s) 
CPU  0 inst:   34000005 cyc:   21540507 now IPC :1.46432: AVG IPC :1.55651: L2-Pf-HR :0.87231: L2-HR :0.82943: (Sim:0h4m26s) 
CPU  0 inst:   35000004 cyc:   22176405 now IPC :1.57258: AVG IPC :1.55699: L2-Pf-HR :0.87247: L2-HR :0.82988: (Sim:0h4m33s) 
CPU  0 inst:   36000004 cyc:   22807884 now IPC :1.58358: AVG IPC :1.55776: L2-Pf-HR :0.87440: L2-HR :0.83098: (Sim:0h4m41s) 
CPU  0 inst:   37000005 cyc:   23482011 now IPC :1.48340: AVG IPC :1.55553: L2-Pf-HR :0.87334: L2-HR :0.83012: (Sim:0h4m49s) 
CPU  0 inst:   38000005 cyc:   24182078 now IPC :1.42843: AVG IPC :1.55170: L2-Pf-HR :0.87229: L2-HR :0.82953: (Sim:0h4m57s) 
CPU  0 inst:   39000004 cyc:   24820826 now IPC :1.56556: AVG IPC :1.55207: L2-Pf-HR :0.87294: L2-HR :0.82978: (Sim:0h5m5s) 
CPU  0 inst:   40000002 cyc:   25447322 now IPC :1.59618: AVG IPC :1.55320: L2-Pf-HR :0.87438: L2-HR :0.83079: (Sim:0h5m13s) 
CPU  0 inst:   41000005 cyc:   26113474 now IPC :1.50116: AVG IPC :1.55182: L2-Pf-HR :0.87377: L2-HR :0.83015: (Sim:0h5m21s) 
CPU  0 inst:   42000001 cyc:   26821234 now IPC :1.41290: AVG IPC :1.54801: L2-Pf-HR :0.87262: L2-HR :0.82938: (Sim:0h5m29s) 
CPU  0 inst:   43000005 cyc:   27436759 now IPC :1.62464: AVG IPC :1.54979: L2-Pf-HR :0.87242: L2-HR :0.82982: (Sim:0h5m37s) 
CPU  0 inst:   44000002 cyc:   28072481 now IPC :1.57301: AVG IPC :1.55034: L2-Pf-HR :0.87405: L2-HR :0.83074: (Sim:0h5m45s) 
CPU  0 inst:   45000000 cyc:   28743864 now IPC :1.48946: AVG IPC :1.54887: L2-Pf-HR :0.87365: L2-HR :0.83028: (Sim:0h5m52s) 
CPU  0 inst:   46000004 cyc:   29444679 now IPC :1.42692: AVG IPC :1.54586: L2-Pf-HR :0.87223: L2-HR :0.82946: (Sim:0h6m0s) 
CPU  0 inst:   47000000 cyc:   30081440 now IPC :1.57044: AVG IPC :1.54640: L2-Pf-HR :0.87323: L2-HR :0.83006: (Sim:0h6m8s) 
CPU  0 inst:   48000004 cyc:   30706454 now IPC :1.59997: AVG IPC :1.54753: L2-Pf-HR :0.87386: L2-HR :0.83065: (Sim:0h6m16s) 
CPU  0 inst:   49000002 cyc:   31378004 now IPC :1.48909: AVG IPC :1.54624: L2-Pf-HR :0.87349: L2-HR :0.83026: (Sim:0h6m24s) 
CPU  0 inst:   50000003 cyc:   32096572 now IPC :1.39166: AVG IPC :1.54267: L2-Pf-HR :0.87206: L2-HR :0.82926: (Sim:0h6m32s) 
CPU  0 inst:   51000005 cyc:   32735102 now IPC :1.56610: AVG IPC :1.54314: L2-Pf-HR :0.87265: L2-HR :0.82968: (Sim:0h6m40s) 
CPU  0 inst:   52000002 cyc:   33363622 now IPC :1.59103: AVG IPC :1.54407: L2-Pf-HR :0.87362: L2-HR :0.83039: (Sim:0h6m48s) 
CPU  0 inst:   53000004 cyc:   34024126 now IPC :1.51400: AVG IPC :1.54347: L2-Pf-HR :0.87368: L2-HR :0.83035: (Sim:0h6m56s) 
CPU  0 inst:   54000005 cyc:   34743834 now IPC :1.38945: AVG IPC :1.54018: L2-Pf-HR :0.87192: L2-HR :0.82911: (Sim:0h7m4s) 
CPU  0 inst:   55000001 cyc:   35364689 now IPC :1.61068: AVG IPC :1.54146: L2-Pf-HR :0.87260: L2-HR :0.82981: (Sim:0h7m12s) 
CPU  0 inst:   56000001 cyc:   35994205 now IPC :1.58852: AVG IPC :1.54230: L2-Pf-HR :0.87357: L2-HR :0.83048: (Sim:0h7m19s) 
CPU  0 inst:   57000004 cyc:   36656769 now IPC :1.50929: AVG IPC :1.54169: L2-Pf-HR :0.87385: L2-HR :0.83062: (Sim:0h7m27s) 
CPU  0 inst:   58000004 cyc:   37387359 now IPC :1.36876: AVG IPC :1.53822: L2-Pf-HR :0.87258: L2-HR :0.82961: (Sim:0h7m35s) 
CPU  0 inst:   59000004 cyc:   38039232 now IPC :1.53404: AVG IPC :1.53815: L2-Pf-HR :0.87347: L2-HR :0.82984: (Sim:0h7m43s) 
CPU  0 inst:   60000005 cyc:   38675370 now IPC :1.57199: AVG IPC :1.53872: L2-Pf-HR :0.87427: L2-HR :0.83034: (Sim:0h7m51s) 
CPU  0 inst:   61000002 cyc:   39331275 now IPC :1.52461: AVG IPC :1.53848: L2-Pf-HR :0.87464: L2-HR :0.83049: (Sim:0h7m59s) 
CPU  0 inst:   62000001 cyc:   40053688 now IPC :1.38425: AVG IPC :1.53562: L2-Pf-HR :0.87295: L2-HR :0.82926: (Sim:0h8m8s) 
CPU  0 inst:   63000003 cyc:   40690512 now IPC :1.57030: AVG IPC :1.53618: L2-Pf-HR :0.87421: L2-HR :0.82990: (Sim:0h8m16s) 
CPU  0 inst:   64000003 cyc:   41328915 now IPC :1.56641: AVG IPC :1.53666: L2-Pf-HR :0.87442: L2-HR :0.83013: (Sim:0h8m24s) 
CPU  0 inst:   65000000 cyc:   41986320 now IPC :1.52113: AVG IPC :1.53641: L2-Pf-HR :0.87505: L2-HR :0.83054: (Sim:0h8m32s) 
CPU  0 inst:   66000004 cyc:   43276893 now IPC :0.77485: AVG IPC :1.51317: L2-Pf-HR :0.87227: L2-HR :0.82561: (Sim:0h8m43s) 
CPU  0 inst:   67000003 cyc:   48498687 now IPC :0.19150: AVG IPC :1.36793: L2-Pf-HR :0.84712: L2-HR :0.79433: (Sim:0h9m33s) 
CPU  0 inst:   68000005 cyc:   53929026 now IPC :0.18415: AVG IPC :1.24652: L2-Pf-HR :0.82415: L2-HR :0.76926: (Sim:0h10m24s) 
CPU  0 inst:   69000000 cyc:   58063301 now IPC :0.24188: AVG IPC :1.17376: L2-Pf-HR :0.81296: L2-HR :0.76021: (Sim:0h11m1s) 
CPU  0 inst:   70000000 cyc:   61658683 now IPC :0.27813: AVG IPC :1.12069: L2-Pf-HR :0.80512: L2-HR :0.75612: (Sim:0h11m34s) 
CPU  0 inst:   71000002 cyc:   65254505 now IPC :0.27810: AVG IPC :1.07355: L2-Pf-HR :0.79743: L2-HR :0.75210: (Sim:0h11m59s) 
CPU  0 inst:   72000004 cyc:   68848968 now IPC :0.27821: AVG IPC :1.03142: L2-Pf-HR :0.78988: L2-HR :0.74816: (Sim:0h12m14s) 
CPU  0 inst:   73000003 cyc:   72444883 now IPC :0.27809: AVG IPC :0.99352: L2-Pf-HR :0.78246: L2-HR :0.74429: (Sim:0h12m31s) 
CPU  0 inst:   74000000 cyc:   76039481 now IPC :0.27819: AVG IPC :0.95926: L2-Pf-HR :0.77519: L2-HR :0.74049: (Sim:0h12m47s) 
CPU  0 inst:   75000005 cyc:   79633706 now IPC :0.27823: AVG IPC :0.92814: L2-Pf-HR :0.76804: L2-HR :0.73677: (Sim:0h13m2s) 
CPU  0 inst:   76000000 cyc:   83228096 now IPC :0.27821: AVG IPC :0.89973: L2-Pf-HR :0.76102: L2-HR :0.73310: (Sim:0h13m18s) 
CPU  0 inst:   77000000 cyc:   86824444 now IPC :0.27806: AVG IPC :0.87369: L2-Pf-HR :0.75414: L2-HR :0.72951: (Sim:0h13m33s) 
CPU  0 inst:   78000000 cyc:   90420034 now IPC :0.27812: AVG IPC :0.84975: L2-Pf-HR :0.74738: L2-HR :0.72599: (Sim:0h13m48s) 
CPU  0 inst:   79000000 cyc:   94014987 now IPC :0.27817: AVG IPC :0.82766: L2-Pf-HR :0.74074: L2-HR :0.72252: (Sim:0h14m4s) 
CPU  0 inst:   80000004 cyc:   97610875 now IPC :0.27810: AVG IPC :0.80721: L2-Pf-HR :0.73422: L2-HR :0.71912: (Sim:0h14m19s) 
CPU  0 inst:   81000004 cyc:  101205488 now IPC :0.27819: AVG IPC :0.78824: L2-Pf-HR :0.72782: L2-HR :0.71577: (Sim:0h14m34s) 
CPU  0 inst:   82000000 cyc:  104801615 now IPC :0.27808: AVG IPC :0.77056: L2-Pf-HR :0.72152: L2-HR :0.71248: (Sim:0h15m4s) 
CPU  0 inst:   83000005 cyc:  108397124 now IPC :0.27813: AVG IPC :0.75408: L2-Pf-HR :0.71532: L2-HR :0.70925: (Sim:0h15m36s) 
CPU  0 inst:   84000001 cyc:  111990290 now IPC :0.27830: AVG IPC :0.73868: L2-Pf-HR :0.70924: L2-HR :0.70607: (Sim:0h16m6s) 
CPU  0 inst:   85000005 cyc:  115585184 now IPC :0.27817: AVG IPC :0.72424: L2-Pf-HR :0.70325: L2-HR :0.70294: (Sim:0h16m39s) 
CPU  0 inst:   86000000 cyc:  119180948 now IPC :0.27810: AVG IPC :0.71066: L2-Pf-HR :0.69737: L2-HR :0.69987: (Sim:0h17m12s) 
CPU  0 inst:   87000002 cyc:  122776401 now IPC :0.27813: AVG IPC :0.69790: L2-Pf-HR :0.69159: L2-HR :0.69685: (Sim:0h17m45s) 
CPU  0 inst:   88000004 cyc:  126371376 now IPC :0.27817: AVG IPC :0.68586: L2-Pf-HR :0.68590: L2-HR :0.69387: (Sim:0h18m18s) 
CPU  0 inst:   89000004 cyc:  129967167 now IPC :0.27810: AVG IPC :0.67449: L2-Pf-HR :0.68031: L2-HR :0.69095: (Sim:0h18m50s) 
CPU  0 inst:   90000000 cyc:  133561939 now IPC :0.27818: AVG IPC :0.66375: L2-Pf-HR :0.67480: L2-HR :0.68807: (Sim:0h19m24s) 
CPU  0 inst:   91000003 cyc:  137158244 now IPC :0.27806: AVG IPC :0.65356: L2-Pf-HR :0.66939: L2-HR :0.68524: (Sim:0h19m57s) 
CPU  0 inst:   92000002 cyc:  140753960 now IPC :0.27811: AVG IPC :0.64390: L2-Pf-HR :0.66405: L2-HR :0.68245: (Sim:0h20m30s) 
CPU  0 inst:   93000003 cyc:  144347636 now IPC :0.27827: AVG IPC :0.63474: L2-Pf-HR :0.65881: L2-HR :0.67971: (Sim:0h21m3s) 
CPU  0 inst:   94000002 cyc:  147942045 now IPC :0.27821: AVG IPC :0.62602: L2-Pf-HR :0.65364: L2-HR :0.67701: (Sim:0h21m36s) 
CPU  0 inst:   95000002 cyc:  151537565 now IPC :0.27812: AVG IPC :0.61771: L2-Pf-HR :0.64855: L2-HR :0.67435: (Sim:0h22m9s) 
CPU  0 inst:   96000004 cyc:  155132783 now IPC :0.27815: AVG IPC :0.60979: L2-Pf-HR :0.64354: L2-HR :0.67173: (Sim:0h22m42s) 
CPU  0 inst:   97000004 cyc:  158727691 now IPC :0.27817: AVG IPC :0.60223: L2-Pf-HR :0.63861: L2-HR :0.66916: (Sim:0h23m15s) 
CPU  0 inst:   98000000 cyc:  162323521 now IPC :0.27810: AVG IPC :0.59501: L2-Pf-HR :0.63376: L2-HR :0.66662: (Sim:0h23m48s) 
CPU  0 inst:   99000003 cyc:  165918475 now IPC :0.27817: AVG IPC :0.58810: L2-Pf-HR :0.62898: L2-HR :0.66412: (Sim:0h24m21s) 
CPU  0 inst:  100000002 cyc:  169514560 now IPC :0.27808: AVG IPC :0.58149: L2-Pf-HR :0.62428: L2-HR :0.66165: (Sim:0h24m54s) 
CPU  0 inst:  101000003 cyc:  171559688 now IPC :0.48897: AVG IPC :0.58038: L2-Pf-HR :0.62482: L2-HR :0.66317: (Sim:0h25m20s) 
CPU  0 inst:  102000004 cyc:  172147033 now IPC :1.70258: AVG IPC :0.58423: L2-Pf-HR :0.63036: L2-HR :0.66881: (Sim:0h25m41s) 
CPU  0 inst:  103000000 cyc:  172778292 now IPC :1.58413: AVG IPC :0.58790: L2-Pf-HR :0.63526: L2-HR :0.67396: (Sim:0h26m3s) 
CPU  0 inst:  104000003 cyc:  173327754 now IPC :1.81997: AVG IPC :0.59183: L2-Pf-HR :0.64094: L2-HR :0.67950: (Sim:0h26m23s) 
CPU  0 inst:  105000001 cyc:  173925848 now IPC :1.67197: AVG IPC :0.59557: L2-Pf-HR :0.64587: L2-HR :0.68458: (Sim:0h26m44s) 
CPU  0 inst:  106000000 cyc:  174514271 now IPC :1.69946: AVG IPC :0.59931: L2-Pf-HR :0.65038: L2-HR :0.68928: (Sim:0h26m59s) 
CPU  0 inst:  107000000 cyc:  175118968 now IPC :1.65372: AVG IPC :0.60297: L2-Pf-HR :0.65466: L2-HR :0.69381: (Sim:0h27m9s) 
CPU  0 inst:  108000005 cyc:  175664710 now IPC :1.83238: AVG IPC :0.60681: L2-Pf-HR :0.65958: L2-HR :0.69859: (Sim:0h27m18s) 
CPU  0 inst:  109000000 cyc:  176245540 now IPC :1.72167: AVG IPC :0.61051: L2-Pf-HR :0.66388: L2-HR :0.70298: (Sim:0h27m27s) 
CPU  0 inst:  110000001 cyc:  176831044 now IPC :1.70793: AVG IPC :0.61416: L2-Pf-HR :0.66767: L2-HR :0.70699: (Sim:0h27m37s) 
CPU  0 inst:  111000002 cyc:  177414665 now IPC :1.71344: AVG IPC :0.61780: L2-Pf-HR :0.67136: L2-HR :0.71087: (Sim:0h27m46s) 
CPU  0 inst:  112000000 cyc:  177958021 now IPC :1.84041: AVG IPC :0.62155: L2-Pf-HR :0.67553: L2-HR :0.71500: (Sim:0h27m55s) 
CPU  0 inst:  113000000 cyc:  178512509 now IPC :1.80347: AVG IPC :0.62524: L2-Pf-HR :0.67930: L2-HR :0.71882: (Sim:0h28m4s) 
CPU  0 inst:  114000001 cyc:  179093630 now IPC :1.72081: AVG IPC :0.62882: L2-Pf-HR :0.68260: L2-HR :0.72230: (Sim:0h28m14s) 
CPU  0 inst:  115000000 cyc:  179656250 now IPC :1.77740: AVG IPC :0.63243: L2-Pf-HR :0.68605: L2-HR :0.72584: (Sim:0h28m23s) 
CPU  0 inst:  116000003 cyc:  180206615 now IPC :1.81698: AVG IPC :0.63607: L2-Pf-HR :0.68946: L2-HR :0.72929: (Sim:0h28m32s) 
CPU  0 inst:  117000004 cyc:  180746391 now IPC :1.85262: AVG IPC :0.63972: L2-Pf-HR :0.69307: L2-HR :0.73282: (Sim:0h28m42s) 
CPU  0 inst:  118000004 cyc:  181341572 now IPC :1.68016: AVG IPC :0.64316: L2-Pf-HR :0.69567: L2-HR :0.73572: (Sim:0h28m51s) 
CPU  0 inst:  119000005 cyc:  181910109 now IPC :1.75890: AVG IPC :0.64666: L2-Pf-HR :0.69864: L2-HR :0.73877: (Sim:0h29m0s) 
CPU  0 inst:  120000005 cyc:  182472104 now IPC :1.77938: AVG IPC :0.65017: L2-Pf-HR :0.70154: L2-HR :0.74176: (Sim:0h29m9s) 
CPU  0 inst:  121000000 cyc:  183010172 now IPC :1.85849: AVG IPC :0.65374: L2-Pf-HR :0.70469: L2-HR :0.74484: (Sim:0h29m19s) 
CPU  0 inst:  122000005 cyc:  183595627 now IPC :1.70808: AVG IPC :0.65712: L2-Pf-HR :0.70699: L2-HR :0.74742: (Sim:0h29m28s) 
CPU  0 inst:  123000001 cyc:  184171088 now IPC :1.73773: AVG IPC :0.66052: L2-Pf-HR :0.70956: L2-HR :0.75008: (Sim:0h29m37s) 
CPU  0 inst:  124000002 cyc:  184737042 now IPC :1.76693: AVG IPC :0.66393: L2-Pf-HR :0.71212: L2-HR :0.75275: (Sim:0h29m47s) 
CPU  0 inst:  125000004 cyc:  185276460 now IPC :1.85385: AVG IPC :0.66741: L2-Pf-HR :0.71491: L2-HR :0.75551: (Sim:0h29m56s) 
CPU  0 inst:  126000005 cyc:  185848063 now IPC :1.74947: AVG IPC :0.67075: L2-Pf-HR :0.71712: L2-HR :0.75790: (Sim:0h30m5s) 
CPU  0 inst:  127000002 cyc:  186421086 now IPC :1.74513: AVG IPC :0.67407: L2-Pf-HR :0.71942: L2-HR :0.76028: (Sim:0h30m14s) 
CPU  0 inst:  128000001 cyc:  186993660 now IPC :1.74650: AVG IPC :0.67738: L2-Pf-HR :0.72158: L2-HR :0.76257: (Sim:0h30m24s) 
CPU  0 inst:  129000000 cyc:  187536834 now IPC :1.84103: AVG IPC :0.68076: L2-Pf-HR :0.72407: L2-HR :0.76503: (Sim:0h30m33s) 
CPU  0 inst:  130000002 cyc:  188104748 now IPC :1.76083: AVG IPC :0.68404: L2-Pf-HR :0.72620: L2-HR :0.76726: (Sim:0h30m42s) 
CPU  0 inst:  131000004 cyc:  188676560 now IPC :1.74883: AVG IPC :0.68729: L2-Pf-HR :0.72826: L2-HR :0.76939: (Sim:0h30m51s) 
CPU  0 inst:  132000001 cyc:  189255228 now IPC :1.72810: AVG IPC :0.69048: L2-Pf-HR :0.73001: L2-HR :0.77136: (Sim:0h31m1s) 
CPU  0 inst:  133000005 cyc:  189797433 now IPC :1.84433: AVG IPC :0.69380: L2-Pf-HR :0.73225: L2-HR :0.77357: (Sim:0h31m10s) 
CPU  0 inst:  134000003 cyc:  190350128 now IPC :1.80931: AVG IPC :0.69705: L2-Pf-HR :0.73430: L2-HR :0.77564: (Sim:0h31m19s) 
CPU  0 inst:  135000004 cyc:  190928040 now IPC :1.73037: AVG IPC :0.70020: L2-Pf-HR :0.73613: L2-HR :0.77755: (Sim:0h31m29s) 
CPU  0 inst:  136000002 cyc:  191520437 now IPC :1.68805: AVG IPC :0.70327: L2-Pf-HR :0.73759: L2-HR :0.77925: (Sim:0h31m38s) 
CPU  0 inst:  137000001 cyc:  192061529 now IPC :1.84811: AVG IPC :0.70651: L2-Pf-HR :0.73968: L2-HR :0.78131: (Sim:0h31m48s) 
CPU  0 inst:  138000000 cyc:  192594275 now IPC :1.87707: AVG IPC :0.70977: L2-Pf-HR :0.74183: L2-HR :0.78338: (Sim:0h31m57s) 
CPU  0 inst:  139000005 cyc:  193179991 now IPC :1.70732: AVG IPC :0.71281: L2-Pf-HR :0.74328: L2-HR :0.78498: (Sim:0h32m7s) 
CPU  0 inst:  140000004 cyc:  193760840 now IPC :1.72162: AVG IPC :0.71584: L2-Pf-HR :0.74475: L2-HR :0.78661: (Sim:0h32m16s) 
CPU  0 inst:  141000005 cyc:  194316921 now IPC :1.79830: AVG IPC :0.71896: L2-Pf-HR :0.74639: L2-HR :0.78832: (Sim:0h32m26s) 
CPU  0 inst:  142000000 cyc:  194853716 now IPC :1.86290: AVG IPC :0.72213: L2-Pf-HR :0.74829: L2-HR :0.79016: (Sim:0h32m35s) 
CPU  0 inst:  143000000 cyc:  195433759 now IPC :1.72401: AVG IPC :0.72511: L2-Pf-HR :0.74969: L2-HR :0.79168: (Sim:0h32m44s) 
CPU  0 inst:  144000005 cyc:  196013954 now IPC :1.72357: AVG IPC :0.72808: L2-Pf-HR :0.75106: L2-HR :0.79316: (Sim:0h32m54s) 
CPU  0 inst:  145000004 cyc:  196573981 now IPC :1.78563: AVG IPC :0.73111: L2-Pf-HR :0.75248: L2-HR :0.79469: (Sim:0h33m3s) 
CPU  0 inst:  146000004 cyc:  197110825 now IPC :1.86274: AVG IPC :0.73421: L2-Pf-HR :0.75421: L2-HR :0.79637: (Sim:0h33m12s) 
CPU  0 inst:  147000000 cyc:  197686787 now IPC :1.73622: AVG IPC :0.73714: L2-Pf-HR :0.75548: L2-HR :0.79777: (Sim:0h33m22s) 
CPU  0 inst:  148000004 cyc:  198265652 now IPC :1.72753: AVG IPC :0.74005: L2-Pf-HR :0.75671: L2-HR :0.79912: (Sim:0h33m31s) 
CPU  0 inst:  149000001 cyc:  198828970 now IPC :1.77519: AVG IPC :0.74300: L2-Pf-HR :0.75802: L2-HR :0.80052: (Sim:0h33m40s) 
CPU  0 inst:  150000000 cyc:  199366157 now IPC :1.86155: AVG IPC :0.74603: L2-Pf-HR :0.75959: L2-HR :0.80205: (Sim:0h33m50s) 
CPU  0 inst:  151000005 cyc:  199939072 now IPC :1.74547: AVG IPC :0.74890: L2-Pf-HR :0.76072: L2-HR :0.80332: (Sim:0h33m59s) 
CPU  0 inst:  152000002 cyc:  200521685 now IPC :1.71640: AVG IPC :0.75173: L2-Pf-HR :0.76191: L2-HR :0.80458: (Sim:0h34m9s) 
CPU  0 inst:  153000002 cyc:  201091575 now IPC :1.75472: AVG IPC :0.75459: L2-Pf-HR :0.76311: L2-HR :0.80586: (Sim:0h34m18s) 
CPU  0 inst:  154000003 cyc:  201632041 now IPC :1.85026: AVG IPC :0.75754: L2-Pf-HR :0.76456: L2-HR :0.80728: (Sim:0h34m28s) 
CPU  0 inst:  155000002 cyc:  202202529 now IPC :1.75288: AVG IPC :0.76036: L2-Pf-HR :0.76562: L2-HR :0.80845: (Sim:0h34m49s) 
CPU  0 inst:  156000003 cyc:  202770900 now IPC :1.75942: AVG IPC :0.76317: L2-Pf-HR :0.76675: L2-HR :0.80965: (Sim:0h35m10s) 
CPU  0 inst:  157000005 cyc:  203346504 now IPC :1.73731: AVG IPC :0.76594: L2-Pf-HR :0.76779: L2-HR :0.81079: (Sim:0h35m30s) 
CPU  0 inst:  158000000 cyc:  203886523 now IPC :1.85178: AVG IPC :0.76883: L2-Pf-HR :0.76913: L2-HR :0.81211: (Sim:0h35m50s) 
CPU  0 inst:  159000004 cyc:  204454694 now IPC :1.76004: AVG IPC :0.77160: L2-Pf-HR :0.77018: L2-HR :0.81324: (Sim:0h36m10s) 
CPU  0 inst:  160000003 cyc:  205027142 now IPC :1.74688: AVG IPC :0.77434: L2-Pf-HR :0.77120: L2-HR :0.81434: (Sim:0h36m31s) 
CPU  0 inst:  161000000 cyc:  205595323 now IPC :1.76000: AVG IPC :0.77707: L2-Pf-HR :0.77229: L2-HR :0.81548: (Sim:0h36m51s) 
CPU  0 inst:  162000001 cyc:  206149979 now IPC :1.80292: AVG IPC :0.77985: L2-Pf-HR :0.77333: L2-HR :0.81656: (Sim:0h37m11s) 
CPU  0 inst:  163000002 cyc:  206694097 now IPC :1.83784: AVG IPC :0.78265: L2-Pf-HR :0.77447: L2-HR :0.81772: (Sim:0h37m31s) 
CPU  0 inst:  164000001 cyc:  207283152 now IPC :1.69763: AVG IPC :0.78526: L2-Pf-HR :0.77529: L2-HR :0.81864: (Sim:0h37m51s) 
Finished CPU 0 instr: 162000005 cyc: 206301510 AVG IPC: 0.78526 (Sim time: 0h37m51s)

ChampSim completed all CPUs

[ROI Statistics]
Core_0_instructions 162000005
Core_0_cycles 206301510
Core_0_IPC 0.78526

Core_0_branch_prediction_accuracy 99.21038
Core_0_branch_MPKI 0.23475
Core_0_average_ROB_occupancy_at_mispredict 452.42065

Core_0_L1D_total_access 48584385
Core_0_L1D_total_hit 42371913 L1D_total_Hit Ratio: 0.87213
Core_0_L1D_total_miss 6212472
Core_0_L1D_loads 40791521
Core_0_L1D_load_hit 37378621 L1D_load_Hit Ratio: 0.91633
Core_0_L1D_load_miss 3412900
Core_0_L1D_RFOs 4425411
Core_0_L1D_RFO_hit 4278010 L1D_RFO_Hit Ratio: 0.96669
Core_0_L1D_RFO_miss 147401
Core_0_L1D_prefetches 3367453
Core_0_L1D_prefetch_hit 715282 L1D_prefetch_Hit Ratio: 0.21241
Core_0_L1D_prefetch_miss 2652171
Core_0_L1D_writebacks 0
Core_0_L1D_writeback_hit 0 L1D_writeback_Hit Ratio: -nan
Core_0_L1D_writeback_miss 0
Core_0_L1D_prefetch_requested 5302044
Core_0_L1D_prefetch_issued 5302044
Core_0_L1D_prefetch_useful 2624074 L1D_Useful Ratio: 0.49492
Core_0_L1D_prefetch_useless 55250
Core_0_L1D_prefetch_late 476297
Core_0_L1D_average_miss_latency 11142849.32768

Core_0_L1I_total_access 23040913
Core_0_L1I_total_hit 23035898 L1I_total_Hit Ratio: 0.99978
Core_0_L1I_total_miss 5015
Core_0_L1I_loads 23040913
Core_0_L1I_load_hit 23035898 L1I_load_Hit Ratio: 0.99978
Core_0_L1I_load_miss 5015
Core_0_L1I_RFOs 0
Core_0_L1I_RFO_hit 0 L1I_RFO_Hit Ratio: -nan
Core_0_L1I_RFO_miss 0
Core_0_L1I_prefetches 0
Core_0_L1I_prefetch_hit 0 L1I_prefetch_Hit Ratio: -nan
Core_0_L1I_prefetch_miss 0
Core_0_L1I_writebacks 0
Core_0_L1I_writeback_hit 0 L1I_writeback_Hit Ratio: -nan
Core_0_L1I_writeback_miss 0
Core_0_L1I_prefetch_requested 0
Core_0_L1I_prefetch_issued 0
Core_0_L1I_prefetch_useful 0 L1I_Useful Ratio: -nan
Core_0_L1I_prefetch_useless 0
Core_0_L1I_prefetch_late 0
Core_0_L1I_average_miss_latency 246.08116

Core_0_L2C_total_access 7944247
Core_0_L2C_total_hit 6503493 L2C_total_Hit Ratio: 0.81864
Core_0_L2C_total_miss 1440754
Core_0_L2C_loads 2943226
Core_0_L2C_load_hit 2508358 L2C_load_Hit Ratio: 0.85225
Core_0_L2C_load_miss 434868
Core_0_L2C_RFOs 147401
Core_0_L2C_RFO_hit 7255 L2C_RFO_Hit Ratio: 0.04922
Core_0_L2C_RFO_miss 140146
Core_0_L2C_prefetches 3852761
Core_0_L2C_prefetch_hit 2987026 L2C_prefetch_Hit Ratio: 0.77529
Core_0_L2C_prefetch_miss 865735
Core_0_L2C_writebacks 1000859
Core_0_L2C_writeback_hit 1000854 L2C_writeback_Hit Ratio: 1.00000
Core_0_L2C_writeback_miss 5
Core_0_L2C_prefetch_requested 1164378
Core_0_L2C_prefetch_issued 1164378
Core_0_L2C_prefetch_useful 239696 L2C_Useful Ratio: 0.20586
Core_0_L2C_prefetch_useless 625478
Core_0_L2C_prefetch_late 174318
Core_0_L2C_average_miss_latency 403.99692

Core_0_LLC_total_access 2268491
Core_0_LLC_total_hit 840839 LLC_total_Hit Ratio: 0.37066
Core_0_LLC_total_miss 1427652
Core_0_LLC_loads 260569
Core_0_LLC_load_hit 4060 LLC_load_Hit Ratio: 0.01558
Core_0_LLC_load_miss 256509
Core_0_LLC_RFOs 140146
Core_0_LLC_RFO_hit 221 LLC_RFO_Hit Ratio: 0.00158
Core_0_LLC_RFO_miss 139925
Core_0_LLC_prefetches 1040034
Core_0_LLC_prefetch_hit 13111 LLC_prefetch_Hit Ratio: 0.01261
Core_0_LLC_prefetch_miss 1026923
Core_0_LLC_writebacks 827742
Core_0_LLC_writeback_hit 823447 LLC_writeback_Hit Ratio: 0.99481
Core_0_LLC_writeback_miss 4295
Core_0_LLC_prefetch_requested 0
Core_0_LLC_prefetch_issued 0
Core_0_LLC_prefetch_useful 1804 LLC_Useful Ratio: inf
Core_0_LLC_prefetch_useless 989697
Core_0_LLC_prefetch_late 0
Core_0_LLC_average_miss_latency 412.35673

Core_0_major_page_fault 0
Core_0_minor_page_fault 11197

[Bingo] PHT Access: 832813
[Bingo] PHT Hit PC+Addr: 406104
[Bingo] PHT Hit PC+Offs: 403208
[Bingo] PHT Miss: 23501
[Bingo] Prefetch PC+Addr: 0
[Bingo] Prefetch PC+Offs: 0
[Bingo] Useful PC+Addr: 0
[Bingo] Useful PC+Offs: 0
[Bingo] Useless PC+Addr: 0
[Bingo] Useless PC+Offs: 0
[Bingo] L1 Prefetch per Region: 8.17038
[Bingo] L2 Prefetch per Region: 0.28230
[Bingo] L3 Prefetch per Region: 0.00000
[Bingo] No Prefetch per Region: 23.54732
[Bingo] Number of Voters Mean: 13.49665
[Bingo] Number of Voters SD: 4.74217
PHT read accesses: 10310910
PHT write accesses: 793168
AT read accesses: 38570597
AT write accesses: 38570595
FT read accesses: 8219929
FT write accesses: 832813
PS read accesses: 4115469
PS write accesses: 809312
PHT tag read accesses: 29437581
PHT tag write accesses: 1199272
AT tag read accesses: 790962864
AT tag write accesses: 39363763
FT tag read accesses: 198969860
FT tag write accesses: 5359113
PS tag read accesses: 692921798
PS tag write accesses: 4906795
[Bingo2] PHT Access: 198219
[Bingo2] PHT Hit PC+Addr: 10604
[Bingo2] PHT Hit PC+Offs: 178582
[Bingo2] PHT Miss: 9033
[Bingo2] Prefetch PC+Addr: 0
[Bingo2] Prefetch PC+Offs: 0
[Bingo2] Useful PC+Addr: 0
[Bingo2] Useful PC+Offs: 0
[Bingo2] Useless PC+Addr: 0
[Bingo2] Useless PC+Offs: 0
[Bingo2] L1 Prefetch per Region: 0.00000
[Bingo2] L2 Prefetch per Region: 9.28606
[Bingo2] L3 Prefetch per Region: 0.00000
[Bingo2] No Prefetch per Region: 22.71394
[Bingo2] Number of Voters Mean: 15.50730
[Bingo2] Number of Voters SD: 1.98314
PHT read accesses: 2939773
PHT write accesses: 146127
AT read accesses: 2740945
AT write accesses: 2886729
FT read accesses: 447569
FT write accesses: 198219
PS read accesses: 476307
PS write accesses: 189186
PHT tag read accesses: 7657995
PHT tag write accesses: 156731
AT tag read accesses: 77083846
AT tag write accesses: 2887072
FT tag read accesses: 35972898
FT tag write accesses: 495256
PS tag read accesses: 53453199
PS tag write accesses: 649386
Channel_0_RQ_row_buffer_hit 779120
Channel_0_RQ_row_buffer_miss 644237
Channel_0_WQ_row_buffer_hit 333717
Channel_0_WQ_row_buffer_miss 484635
Channel_0_WQ_full 1429
Channel_0_dbus_congested 1522309

avg_congested_cycle 11

EzSearch AVG IPC :0.78526: L2-Pf-HR :0.77529 : L2-HR :0.81864 Uful:0.20586
     > Finished combination: TraceType=770-tot Sim:162000000 Prefetcher=L2bingo_dpc3 L1=bingo_dpc3
