TRACE: [1183000000][GPT-Neo-1_3B]_[h16][s1024][d128] Warmup: 2000000 NumTraces: 1183000000
L1:bingo_dpc3:L2:bingo_dpc3
*************************************************
   ChampSim Multicore Out-of-Order Simulator
   Last compiled: Oct 27 2024 09:23:44
*************************************************

trace_0 770-tot_memTraces_v3/memTraces[1183000000][GPT-Neo-1_3B]_[h16][s1024][d128].champsim.xz
Bingo PHT WAYS: 16 and PHT_SIZE: 16384
Bingo2 PHT WAYS: 16 and PHT_SIZE: 16384
MAIN.cc ln 751 stats print skipped
CPU  0 inst:    1000001 cyc:     499687 now IPC :2.00125: AVG IPC :2.00125: L2-Pf-HR :0.70214: L2-HR :0.64263: (Sim:0h0m18s) 
CPU  0 inst:    2000002 cyc:     985417 now IPC :2.05876: AVG IPC :2.02960: L2-Pf-HR :0.79436: L2-HR :0.72858: (Sim:0h0m37s) 

Warmup complete CPU  0 instructions:    2000002 cycles:     985417 (Simulation time: 0 hr 0 min 37 sec) 

CPU  0 inst:    3000000 cyc:    1547409 now IPC :1.77938: AVG IPC :1.77938: L2-Pf-HR :0.90256: L2-HR :0.80602: (Sim:0h0m52s) 
CPU  0 inst:    4000000 cyc:    2105806 now IPC :1.79084: AVG IPC :1.78509: L2-Pf-HR :0.90522: L2-HR :0.80805: (Sim:0h1m8s) 
CPU  0 inst:    5000004 cyc:    2667700 now IPC :1.77970: AVG IPC :1.78329: L2-Pf-HR :0.90582: L2-HR :0.81266: (Sim:0h1m23s) 
CPU  0 inst:    6000001 cyc:    3231253 now IPC :1.77445: AVG IPC :1.78107: L2-Pf-HR :0.90835: L2-HR :0.81657: (Sim:0h1m39s) 
CPU  0 inst:    7000002 cyc:    3794908 now IPC :1.77414: AVG IPC :1.77968: L2-Pf-HR :0.90805: L2-HR :0.81554: (Sim:0h1m53s) 
CPU  0 inst:    8000005 cyc:    4354300 now IPC :1.78766: AVG IPC :1.78101: L2-Pf-HR :0.90605: L2-HR :0.81375: (Sim:0h2m9s) 
CPU  0 inst:    9000002 cyc:    4910274 now IPC :1.79864: AVG IPC :1.78350: L2-Pf-HR :0.90508: L2-HR :0.81237: (Sim:0h2m24s) 
CPU  0 inst:   10000000 cyc:    5468749 now IPC :1.79059: AVG IPC :1.78439: L2-Pf-HR :0.90400: L2-HR :0.81140: (Sim:0h2m40s) 
CPU  0 inst:   11000003 cyc:    6033721 now IPC :1.77000: AVG IPC :1.78278: L2-Pf-HR :0.90272: L2-HR :0.81010: (Sim:0h2m55s) 
CPU  0 inst:   12000004 cyc:    6595922 now IPC :1.77873: AVG IPC :1.78237: L2-Pf-HR :0.90281: L2-HR :0.81044: (Sim:0h3m11s) 
CPU  0 inst:   13000000 cyc:    7255775 now IPC :1.51548: AVG IPC :1.75429: L2-Pf-HR :0.89427: L2-HR :0.80646: (Sim:0h3m27s) 
CPU  0 inst:   14000002 cyc:    7822120 now IPC :1.76571: AVG IPC :1.75523: L2-Pf-HR :0.89654: L2-HR :0.80692: (Sim:0h3m43s) 
CPU  0 inst:   15000002 cyc:    8385494 now IPC :1.77502: AVG IPC :1.75674: L2-Pf-HR :0.89902: L2-HR :0.80772: (Sim:0h3m58s) 
CPU  0 inst:   16000001 cyc:    8950087 now IPC :1.77119: AVG IPC :1.75776: L2-Pf-HR :0.90094: L2-HR :0.80829: (Sim:0h4m13s) 
CPU  0 inst:   17000001 cyc:    9512444 now IPC :1.77823: AVG IPC :1.75911: L2-Pf-HR :0.90290: L2-HR :0.80948: (Sim:0h4m28s) 
CPU  0 inst:   18000001 cyc:   10080900 now IPC :1.75915: AVG IPC :1.75911: L2-Pf-HR :0.90542: L2-HR :0.81148: (Sim:0h4m42s) 
CPU  0 inst:   19000000 cyc:   10648794 now IPC :1.76089: AVG IPC :1.75922: L2-Pf-HR :0.90713: L2-HR :0.81222: (Sim:0h4m57s) 
CPU  0 inst:   20000005 cyc:   11208170 now IPC :1.78772: AVG IPC :1.76078: L2-Pf-HR :0.90819: L2-HR :0.81235: (Sim:0h5m11s) 
CPU  0 inst:   21000005 cyc:   11769063 now IPC :1.78287: AVG IPC :1.76193: L2-Pf-HR :0.90947: L2-HR :0.81271: (Sim:0h5m27s) 
CPU  0 inst:   22000001 cyc:   12327578 now IPC :1.79046: AVG IPC :1.76333: L2-Pf-HR :0.91044: L2-HR :0.81298: (Sim:0h5m41s) 
CPU  0 inst:   23000002 cyc:   12884909 now IPC :1.79427: AVG IPC :1.76478: L2-Pf-HR :0.91120: L2-HR :0.81303: (Sim:0h5m56s) 
CPU  0 inst:   24000002 cyc:   13534338 now IPC :1.53981: AVG IPC :1.75314: L2-Pf-HR :0.90811: L2-HR :0.81227: (Sim:0h6m13s) 
CPU  0 inst:   25000001 cyc:   14106075 now IPC :1.74905: AVG IPC :1.75296: L2-Pf-HR :0.90877: L2-HR :0.81345: (Sim:0h6m27s) 
CPU  0 inst:   26000004 cyc:   14673237 now IPC :1.76317: AVG IPC :1.75338: L2-Pf-HR :0.90937: L2-HR :0.81444: (Sim:0h6m42s) 
CPU  0 inst:   27000003 cyc:   15241582 now IPC :1.75949: AVG IPC :1.75363: L2-Pf-HR :0.91005: L2-HR :0.81553: (Sim:0h6m58s) 
CPU  0 inst:   28000000 cyc:   15812061 now IPC :1.75291: AVG IPC :1.75360: L2-Pf-HR :0.91103: L2-HR :0.81727: (Sim:0h7m13s) 
CPU  0 inst:   29000003 cyc:   16380062 now IPC :1.76057: AVG IPC :1.75386: L2-Pf-HR :0.91168: L2-HR :0.81841: (Sim:0h7m27s) 
CPU  0 inst:   30000001 cyc:   16949259 now IPC :1.75686: AVG IPC :1.75396: L2-Pf-HR :0.91222: L2-HR :0.81925: (Sim:0h7m34s) 
CPU  0 inst:   31000005 cyc:   17518082 now IPC :1.75802: AVG IPC :1.75410: L2-Pf-HR :0.91270: L2-HR :0.81992: (Sim:0h7m42s) 
CPU  0 inst:   32000004 cyc:   18236628 now IPC :1.39170: AVG IPC :1.73901: L2-Pf-HR :0.90699: L2-HR :0.81697: (Sim:0h7m49s) 
CPU  0 inst:   33000001 cyc:   18840132 now IPC :1.65698: AVG IPC :1.73624: L2-Pf-HR :0.90668: L2-HR :0.81645: (Sim:0h7m58s) 
CPU  0 inst:   34000003 cyc:   19439122 now IPC :1.66948: AVG IPC :1.73407: L2-Pf-HR :0.90627: L2-HR :0.81599: (Sim:0h8m6s) 
CPU  0 inst:   35000002 cyc:   20029429 now IPC :1.69403: AVG IPC :1.73283: L2-Pf-HR :0.90617: L2-HR :0.81567: (Sim:0h8m16s) 
CPU  0 inst:   36000003 cyc:   20627698 now IPC :1.67149: AVG IPC :1.73096: L2-Pf-HR :0.90604: L2-HR :0.81540: (Sim:0h8m26s) 
CPU  0 inst:   37000003 cyc:   21222326 now IPC :1.68172: AVG IPC :1.72951: L2-Pf-HR :0.90613: L2-HR :0.81562: (Sim:0h8m33s) 
CPU  0 inst:   38000004 cyc:   21790689 now IPC :1.75944: AVG IPC :1.73033: L2-Pf-HR :0.90545: L2-HR :0.81544: (Sim:0h8m41s) 
CPU  0 inst:   39000004 cyc:   22389383 now IPC :1.67030: AVG IPC :1.72865: L2-Pf-HR :0.90521: L2-HR :0.81517: (Sim:0h8m53s) 
CPU  0 inst:   40000003 cyc:   22978467 now IPC :1.69755: AVG IPC :1.72782: L2-Pf-HR :0.90517: L2-HR :0.81493: (Sim:0h9m10s) 
CPU  0 inst:   41000002 cyc:   23576699 now IPC :1.67159: AVG IPC :1.72633: L2-Pf-HR :0.90498: L2-HR :0.81469: (Sim:0h9m27s) 
CPU  0 inst:   42000004 cyc:   24169649 now IPC :1.68649: AVG IPC :1.72531: L2-Pf-HR :0.90482: L2-HR :0.81441: (Sim:0h9m44s) 
CPU  0 inst:   43000000 cyc:   24769266 now IPC :1.66772: AVG IPC :1.72386: L2-Pf-HR :0.90436: L2-HR :0.81400: (Sim:0h10m1s) 
CPU  0 inst:   44000003 cyc:   25476227 now IPC :1.41451: AVG IPC :1.71493: L2-Pf-HR :0.90217: L2-HR :0.81321: (Sim:0h10m18s) 
CPU  0 inst:   45000002 cyc:   26044809 now IPC :1.75876: AVG IPC :1.71592: L2-Pf-HR :0.90263: L2-HR :0.81312: (Sim:0h10m35s) 
CPU  0 inst:   46000005 cyc:   26610107 now IPC :1.76898: AVG IPC :1.71709: L2-Pf-HR :0.90318: L2-HR :0.81321: (Sim:0h10m52s) 
CPU  0 inst:   47000001 cyc:   27173594 now IPC :1.77466: AVG IPC :1.71833: L2-Pf-HR :0.90371: L2-HR :0.81330: (Sim:0h11m8s) 
CPU  0 inst:   48000001 cyc:   27737888 now IPC :1.77213: AVG IPC :1.71947: L2-Pf-HR :0.90421: L2-HR :0.81334: (Sim:0h11m25s) 
CPU  0 inst:   49000001 cyc:   28304567 now IPC :1.76467: AVG IPC :1.72040: L2-Pf-HR :0.90500: L2-HR :0.81398: (Sim:0h11m42s) 
CPU  0 inst:   50000001 cyc:   28847827 now IPC :1.84074: AVG IPC :1.72275: L2-Pf-HR :0.90521: L2-HR :0.81406: (Sim:0h11m59s) 
CPU  0 inst:   51000002 cyc:   29412419 now IPC :1.77119: AVG IPC :1.72371: L2-Pf-HR :0.90569: L2-HR :0.81413: (Sim:0h12m15s) 
CPU  0 inst:   52000002 cyc:   29973966 now IPC :1.78079: AVG IPC :1.72482: L2-Pf-HR :0.90616: L2-HR :0.81421: (Sim:0h12m32s) 
CPU  0 inst:   53000005 cyc:   30536838 now IPC :1.77661: AVG IPC :1.72581: L2-Pf-HR :0.90655: L2-HR :0.81425: (Sim:0h12m49s) 
CPU  0 inst:   54000002 cyc:   31098253 now IPC :1.78121: AVG IPC :1.72684: L2-Pf-HR :0.90694: L2-HR :0.81426: (Sim:0h13m5s) 
CPU  0 inst:   55000004 cyc:   31647490 now IPC :1.82071: AVG IPC :1.72852: L2-Pf-HR :0.90719: L2-HR :0.81435: (Sim:0h13m22s) 
CPU  0 inst:   56000004 cyc:   32322202 now IPC :1.48211: AVG IPC :1.72321: L2-Pf-HR :0.90612: L2-HR :0.81409: (Sim:0h13m39s) 
CPU  0 inst:   57000000 cyc:   32887781 now IPC :1.76809: AVG IPC :1.72401: L2-Pf-HR :0.90642: L2-HR :0.81450: (Sim:0h13m56s) 
CPU  0 inst:   58000002 cyc:   33455264 now IPC :1.76217: AVG IPC :1.72468: L2-Pf-HR :0.90675: L2-HR :0.81496: (Sim:0h14m12s) 
CPU  0 inst:   59000005 cyc:   34025067 now IPC :1.75500: AVG IPC :1.72520: L2-Pf-HR :0.90721: L2-HR :0.81564: (Sim:0h14m29s) 
CPU  0 inst:   60000004 cyc:   34576469 now IPC :1.81356: AVG IPC :1.72665: L2-Pf-HR :0.90739: L2-HR :0.81623: (Sim:0h14m46s) 
CPU  0 inst:   61000002 cyc:   35145340 now IPC :1.75786: AVG IPC :1.72717: L2-Pf-HR :0.90768: L2-HR :0.81668: (Sim:0h15m2s) 
CPU  0 inst:   62000003 cyc:   35716084 now IPC :1.75210: AVG IPC :1.72758: L2-Pf-HR :0.90798: L2-HR :0.81711: (Sim:0h15m19s) 
CPU  0 inst:   63000000 cyc:   36271692 now IPC :1.79982: AVG IPC :1.72872: L2-Pf-HR :0.90801: L2-HR :0.81744: (Sim:0h15m36s) 
CPU  0 inst:   64000003 cyc:   37011932 now IPC :1.35092: AVG IPC :1.72095: L2-Pf-HR :0.90545: L2-HR :0.81582: (Sim:0h15m54s) 
CPU  0 inst:   65000001 cyc:   37601354 now IPC :1.69657: AVG IPC :1.72056: L2-Pf-HR :0.90524: L2-HR :0.81556: (Sim:0h16m11s) 
CPU  0 inst:   66000003 cyc:   38183155 now IPC :1.71880: AVG IPC :1.72053: L2-Pf-HR :0.90518: L2-HR :0.81539: (Sim:0h16m28s) 
CPU  0 inst:   67000003 cyc:   38773673 now IPC :1.69343: AVG IPC :1.72011: L2-Pf-HR :0.90508: L2-HR :0.81523: (Sim:0h16m45s) 
CPU  0 inst:   68000001 cyc:   39356677 now IPC :1.71525: AVG IPC :1.72004: L2-Pf-HR :0.90498: L2-HR :0.81511: (Sim:0h17m2s) 
CPU  0 inst:   69000004 cyc:   39941285 now IPC :1.71055: AVG IPC :1.71990: L2-Pf-HR :0.90496: L2-HR :0.81530: (Sim:0h17m19s) 
CPU  0 inst:   70000000 cyc:   40509248 now IPC :1.76067: AVG IPC :1.72048: L2-Pf-HR :0.90477: L2-HR :0.81512: (Sim:0h17m36s) 
CPU  0 inst:   71000005 cyc:   41090184 now IPC :1.72137: AVG IPC :1.72049: L2-Pf-HR :0.90473: L2-HR :0.81497: (Sim:0h17m53s) 
CPU  0 inst:   72000001 cyc:   41677977 now IPC :1.70127: AVG IPC :1.72022: L2-Pf-HR :0.90462: L2-HR :0.81483: (Sim:0h18m10s) 
CPU  0 inst:   73000004 cyc:   42257064 now IPC :1.72686: AVG IPC :1.72031: L2-Pf-HR :0.90452: L2-HR :0.81467: (Sim:0h18m27s) 
CPU  0 inst:   74000001 cyc:   42840251 now IPC :1.71471: AVG IPC :1.72023: L2-Pf-HR :0.90443: L2-HR :0.81454: (Sim:0h18m44s) 
CPU  0 inst:   75000002 cyc:   43410188 now IPC :1.75458: AVG IPC :1.72069: L2-Pf-HR :0.90425: L2-HR :0.81444: (Sim:0h19m1s) 
CPU  0 inst:   76000001 cyc:   44127596 now IPC :1.39391: AVG IPC :1.71526: L2-Pf-HR :0.90312: L2-HR :0.81386: (Sim:0h19m18s) 
CPU  0 inst:   77000002 cyc:   44706402 now IPC :1.72770: AVG IPC :1.71542: L2-Pf-HR :0.90342: L2-HR :0.81386: (Sim:0h19m35s) 
CPU  0 inst:   78000004 cyc:   45276959 now IPC :1.75268: AVG IPC :1.71590: L2-Pf-HR :0.90371: L2-HR :0.81388: (Sim:0h19m52s) 
CPU  0 inst:   79000000 cyc:   45851161 now IPC :1.74154: AVG IPC :1.71623: L2-Pf-HR :0.90400: L2-HR :0.81390: (Sim:0h20m9s) 
CPU  0 inst:   80000001 cyc:   46422429 now IPC :1.75049: AVG IPC :1.71666: L2-Pf-HR :0.90437: L2-HR :0.81407: (Sim:0h20m26s) 
CPU  0 inst:   81000005 cyc:   46997277 now IPC :1.73960: AVG IPC :1.71695: L2-Pf-HR :0.90455: L2-HR :0.81427: (Sim:0h20m43s) 
CPU  0 inst:   82000000 cyc:   47547803 now IPC :1.81644: AVG IPC :1.71812: L2-Pf-HR :0.90490: L2-HR :0.81438: (Sim:0h20m59s) 
CPU  0 inst:   83000000 cyc:   48117512 now IPC :1.75528: AVG IPC :1.71857: L2-Pf-HR :0.90521: L2-HR :0.81443: (Sim:0h21m16s) 
CPU  0 inst:   84000000 cyc:   48687842 now IPC :1.75337: AVG IPC :1.71899: L2-Pf-HR :0.90548: L2-HR :0.81447: (Sim:0h21m33s) 
CPU  0 inst:   85000002 cyc:   49257420 now IPC :1.75569: AVG IPC :1.71942: L2-Pf-HR :0.90576: L2-HR :0.81450: (Sim:0h21m50s) 
CPU  0 inst:   86000004 cyc:   49824703 now IPC :1.76279: AVG IPC :1.71993: L2-Pf-HR :0.90597: L2-HR :0.81452: (Sim:0h22m7s) 
CPU  0 inst:   87000002 cyc:   50443917 now IPC :1.61495: AVG IPC :1.71861: L2-Pf-HR :0.90522: L2-HR :0.81425: (Sim:0h22m24s) 
CPU  0 inst:   88000000 cyc:   51032096 now IPC :1.70016: AVG IPC :1.71840: L2-Pf-HR :0.90542: L2-HR :0.81449: (Sim:0h22m40s) 
CPU  0 inst:   89000003 cyc:   51598010 now IPC :1.76706: AVG IPC :1.71894: L2-Pf-HR :0.90564: L2-HR :0.81476: (Sim:0h22m57s) 
CPU  0 inst:   90000003 cyc:   52165899 now IPC :1.76091: AVG IPC :1.71941: L2-Pf-HR :0.90588: L2-HR :0.81510: (Sim:0h23m14s) 
CPU  0 inst:   91000004 cyc:   52715089 now IPC :1.82087: AVG IPC :1.72048: L2-Pf-HR :0.90607: L2-HR :0.81567: (Sim:0h23m30s) 
CPU  0 inst:   92000003 cyc:   53283180 now IPC :1.76028: AVG IPC :1.72091: L2-Pf-HR :0.90632: L2-HR :0.81596: (Sim:0h23m47s) 
CPU  0 inst:   93000002 cyc:   53851285 now IPC :1.76024: AVG IPC :1.72134: L2-Pf-HR :0.90654: L2-HR :0.81622: (Sim:0h24m4s) 
CPU  0 inst:   94000001 cyc:   54420511 now IPC :1.75677: AVG IPC :1.72171: L2-Pf-HR :0.90671: L2-HR :0.81648: (Sim:0h24m21s) 
CPU  0 inst:   95000002 cyc:   55120051 now IPC :1.42951: AVG IPC :1.71794: L2-Pf-HR :0.90502: L2-HR :0.81565: (Sim:0h24m38s) 
CPU  0 inst:   96000004 cyc:   55734158 now IPC :1.62838: AVG IPC :1.71693: L2-Pf-HR :0.90488: L2-HR :0.81546: (Sim:0h24m55s) 
CPU  0 inst:   97000003 cyc:   56322117 now IPC :1.70080: AVG IPC :1.71676: L2-Pf-HR :0.90486: L2-HR :0.81533: (Sim:0h25m13s) 
CPU  0 inst:   98000005 cyc:   56915889 now IPC :1.68415: AVG IPC :1.71642: L2-Pf-HR :0.90479: L2-HR :0.81523: (Sim:0h25m30s) 
CPU  0 inst:   99000003 cyc:   57504635 now IPC :1.69852: AVG IPC :1.71623: L2-Pf-HR :0.90475: L2-HR :0.81512: (Sim:0h25m47s) 
CPU  0 inst:  100000002 cyc:   58093206 now IPC :1.69903: AVG IPC :1.71605: L2-Pf-HR :0.90473: L2-HR :0.81521: (Sim:0h26m4s) 
CPU  0 inst:  101000002 cyc:   58662725 now IPC :1.75587: AVG IPC :1.71645: L2-Pf-HR :0.90447: L2-HR :0.81514: (Sim:0h26m21s) 
CPU  0 inst:  102000000 cyc:   59250451 now IPC :1.70147: AVG IPC :1.71630: L2-Pf-HR :0.90451: L2-HR :0.81511: (Sim:0h26m38s) 
CPU  0 inst:  103000003 cyc:   59836721 now IPC :1.70570: AVG IPC :1.71619: L2-Pf-HR :0.90446: L2-HR :0.81501: (Sim:0h26m55s) 
CPU  0 inst:  104000005 cyc:   60427442 now IPC :1.69285: AVG IPC :1.71596: L2-Pf-HR :0.90440: L2-HR :0.81490: (Sim:0h27m12s) 
CPU  0 inst:  105000003 cyc:   61024852 now IPC :1.67389: AVG IPC :1.71554: L2-Pf-HR :0.90434: L2-HR :0.81481: (Sim:0h27m29s) 
CPU  0 inst:  106000002 cyc:   61621812 now IPC :1.67515: AVG IPC :1.71514: L2-Pf-HR :0.90422: L2-HR :0.81467: (Sim:0h27m46s) 
CPU  0 inst:  107000005 cyc:   62325499 now IPC :1.42109: AVG IPC :1.71177: L2-Pf-HR :0.90322: L2-HR :0.81429: (Sim:0h28m4s) 
CPU  0 inst:  108000002 cyc:   62916036 now IPC :1.69337: AVG IPC :1.71159: L2-Pf-HR :0.90345: L2-HR :0.81429: (Sim:0h28m20s) 
CPU  0 inst:  109000001 cyc:   63491160 now IPC :1.73875: AVG IPC :1.71184: L2-Pf-HR :0.90364: L2-HR :0.81429: (Sim:0h28m37s) 
CPU  0 inst:  110000000 cyc:   64066473 now IPC :1.73818: AVG IPC :1.71208: L2-Pf-HR :0.90388: L2-HR :0.81431: (Sim:0h28m54s) 
CPU  0 inst:  111000004 cyc:   64639623 now IPC :1.74475: AVG IPC :1.71238: L2-Pf-HR :0.90411: L2-HR :0.81435: (Sim:0h29m11s) 
CPU  0 inst:  112000000 cyc:   65211852 now IPC :1.74755: AVG IPC :1.71269: L2-Pf-HR :0.90438: L2-HR :0.81454: (Sim:0h29m28s) 
CPU  0 inst:  113000004 cyc:   65759121 now IPC :1.82726: AVG IPC :1.71366: L2-Pf-HR :0.90450: L2-HR :0.81459: (Sim:0h29m44s) 
CPU  0 inst:  114000005 cyc:   66332361 now IPC :1.74447: AVG IPC :1.71393: L2-Pf-HR :0.90474: L2-HR :0.81464: (Sim:0h30m1s) 
CPU  0 inst:  115000004 cyc:   66902553 now IPC :1.75379: AVG IPC :1.71427: L2-Pf-HR :0.90491: L2-HR :0.81464: (Sim:0h30m18s) 
CPU  0 inst:  116000001 cyc:   67474108 now IPC :1.74961: AVG IPC :1.71458: L2-Pf-HR :0.90513: L2-HR :0.81468: (Sim:0h30m35s) 
CPU  0 inst:  117000005 cyc:   68046271 now IPC :1.74776: AVG IPC :1.71486: L2-Pf-HR :0.90536: L2-HR :0.81471: (Sim:0h30m52s) 
CPU  0 inst:  118000000 cyc:   68615880 now IPC :1.75558: AVG IPC :1.71520: L2-Pf-HR :0.90542: L2-HR :0.81463: (Sim:0h31m8s) 
CPU  0 inst:  119000000 cyc:   69269410 now IPC :1.53015: AVG IPC :1.71343: L2-Pf-HR :0.90492: L2-HR :0.81455: (Sim:0h31m26s) 
CPU  0 inst:  120000004 cyc:   69833853 now IPC :1.77167: AVG IPC :1.71391: L2-Pf-HR :0.90507: L2-HR :0.81475: (Sim:0h31m42s) 
CPU  0 inst:  121000002 cyc:   70400000 now IPC :1.76632: AVG IPC :1.71434: L2-Pf-HR :0.90524: L2-HR :0.81495: (Sim:0h31m59s) 
CPU  0 inst:  122000001 cyc:   70969838 now IPC :1.75488: AVG IPC :1.71467: L2-Pf-HR :0.90544: L2-HR :0.81524: (Sim:0h32m15s) 
CPU  0 inst:  123000004 cyc:   71521351 now IPC :1.81320: AVG IPC :1.71544: L2-Pf-HR :0.90556: L2-HR :0.81560: (Sim:0h32m32s) 
CPU  0 inst:  124000004 cyc:   72091136 now IPC :1.75505: AVG IPC :1.71576: L2-Pf-HR :0.90573: L2-HR :0.81583: (Sim:0h32m49s) 
CPU  0 inst:  125000002 cyc:   72662236 now IPC :1.75100: AVG IPC :1.71604: L2-Pf-HR :0.90591: L2-HR :0.81604: (Sim:0h33m6s) 
CPU  0 inst:  126000004 cyc:   73231426 now IPC :1.75689: AVG IPC :1.71636: L2-Pf-HR :0.90594: L2-HR :0.81616: (Sim:0h33m22s) 
CPU  0 inst:  127000002 cyc:   73968682 now IPC :1.35638: AVG IPC :1.71272: L2-Pf-HR :0.90467: L2-HR :0.81546: (Sim:0h33m40s) 
CPU  0 inst:  128000001 cyc:   74552704 now IPC :1.71226: AVG IPC :1.71272: L2-Pf-HR :0.90464: L2-HR :0.81536: (Sim:0h33m57s) 
CPU  0 inst:  129000003 cyc:   75144018 now IPC :1.69115: AVG IPC :1.71255: L2-Pf-HR :0.90457: L2-HR :0.81527: (Sim:0h34m14s) 
CPU  0 inst:  130000002 cyc:   75725779 now IPC :1.71892: AVG IPC :1.71260: L2-Pf-HR :0.90454: L2-HR :0.81518: (Sim:0h34m31s) 
CPU  0 inst:  131000004 cyc:   76316161 now IPC :1.69382: AVG IPC :1.71245: L2-Pf-HR :0.90451: L2-HR :0.81512: (Sim:0h34m38s) 
CPU  0 inst:  132000003 cyc:   76905023 now IPC :1.69819: AVG IPC :1.71234: L2-Pf-HR :0.90447: L2-HR :0.81521: (Sim:0h34m46s) 
CPU  0 inst:  133000000 cyc:   77466257 now IPC :1.78178: AVG IPC :1.71285: L2-Pf-HR :0.90436: L2-HR :0.81514: (Sim:0h34m53s) 
CPU  0 inst:  134000003 cyc:   78056404 now IPC :1.69450: AVG IPC :1.71271: L2-Pf-HR :0.90433: L2-HR :0.81508: (Sim:0h35m0s) 
CPU  0 inst:  135000000 cyc:   78641166 now IPC :1.71009: AVG IPC :1.71269: L2-Pf-HR :0.90429: L2-HR :0.81501: (Sim:0h35m8s) 
CPU  0 inst:  136000000 cyc:   79230240 now IPC :1.69758: AVG IPC :1.71257: L2-Pf-HR :0.90427: L2-HR :0.81496: (Sim:0h35m15s) 
CPU  0 inst:  137000002 cyc:   79817150 now IPC :1.70384: AVG IPC :1.71251: L2-Pf-HR :0.90420: L2-HR :0.81488: (Sim:0h35m24s) 
CPU  0 inst:  138000003 cyc:   80381489 now IPC :1.77199: AVG IPC :1.71293: L2-Pf-HR :0.90414: L2-HR :0.81483: (Sim:0h35m33s) 
CPU  0 inst:  139000005 cyc:   81097717 now IPC :1.39621: AVG IPC :1.71010: L2-Pf-HR :0.90352: L2-HR :0.81453: (Sim:0h35m42s) 
CPU  0 inst:  140000001 cyc:   81670435 now IPC :1.74605: AVG IPC :1.71035: L2-Pf-HR :0.90363: L2-HR :0.81449: (Sim:0h35m49s) 
CPU  0 inst:  141000000 cyc:   82242205 now IPC :1.74895: AVG IPC :1.71063: L2-Pf-HR :0.90381: L2-HR :0.81451: (Sim:0h35m57s) 
CPU  0 inst:  142000000 cyc:   82813375 now IPC :1.75079: AVG IPC :1.71091: L2-Pf-HR :0.90398: L2-HR :0.81454: (Sim:0h36m4s) 
CPU  0 inst:  143000003 cyc:   83385303 now IPC :1.74848: AVG IPC :1.71117: L2-Pf-HR :0.90413: L2-HR :0.81456: (Sim:0h36m11s) 
CPU  0 inst:  144000002 cyc:   83957234 now IPC :1.74846: AVG IPC :1.71142: L2-Pf-HR :0.90432: L2-HR :0.81475: (Sim:0h36m19s) 
CPU  0 inst:  145000000 cyc:   84503800 now IPC :1.82960: AVG IPC :1.71220: L2-Pf-HR :0.90450: L2-HR :0.81479: (Sim:0h36m26s) 
CPU  0 inst:  146000001 cyc:   85073364 now IPC :1.75573: AVG IPC :1.71249: L2-Pf-HR :0.90463: L2-HR :0.81478: (Sim:0h36m35s) 
CPU  0 inst:  147000005 cyc:   85641704 now IPC :1.75952: AVG IPC :1.71281: L2-Pf-HR :0.90480: L2-HR :0.81481: (Sim:0h36m44s) 
CPU  0 inst:  148000005 cyc:   86209995 now IPC :1.75966: AVG IPC :1.71312: L2-Pf-HR :0.90496: L2-HR :0.81483: (Sim:0h36m51s) 
CPU  0 inst:  149000001 cyc:   86778890 now IPC :1.75779: AVG IPC :1.71342: L2-Pf-HR :0.90506: L2-HR :0.81480: (Sim:0h37m0s) 
CPU  0 inst:  150000000 cyc:   87341935 now IPC :1.77606: AVG IPC :1.71383: L2-Pf-HR :0.90519: L2-HR :0.81492: (Sim:0h37m11s) 
CPU  0 inst:  151000005 cyc:   88006107 now IPC :1.50564: AVG IPC :1.71224: L2-Pf-HR :0.90475: L2-HR :0.81478: (Sim:0h37m18s) 
CPU  0 inst:  152000002 cyc:   88574062 now IPC :1.76070: AVG IPC :1.71255: L2-Pf-HR :0.90487: L2-HR :0.81496: (Sim:0h37m26s) 
CPU  0 inst:  153000000 cyc:   89144113 now IPC :1.75423: AVG IPC :1.71282: L2-Pf-HR :0.90502: L2-HR :0.81514: (Sim:0h37m33s) 
CPU  0 inst:  154000004 cyc:   89709667 now IPC :1.76818: AVG IPC :1.71317: L2-Pf-HR :0.90513: L2-HR :0.81541: (Sim:0h37m41s) 
CPU  0 inst:  155000005 cyc:   90268117 now IPC :1.79067: AVG IPC :1.71366: L2-Pf-HR :0.90528: L2-HR :0.81562: (Sim:0h37m48s) 
CPU  0 inst:  156000005 cyc:   90839124 now IPC :1.75129: AVG IPC :1.71390: L2-Pf-HR :0.90540: L2-HR :0.81582: (Sim:0h37m55s) 
CPU  0 inst:  157000000 cyc:   91410717 now IPC :1.74949: AVG IPC :1.71412: L2-Pf-HR :0.90553: L2-HR :0.81597: (Sim:0h38m3s) 
CPU  0 inst:  158000000 cyc:   92075949 now IPC :1.50323: AVG IPC :1.71258: L2-Pf-HR :0.90454: L2-HR :0.81550: (Sim:0h38m11s) 
CPU  0 inst:  159000000 cyc:   92703016 now IPC :1.59473: AVG IPC :1.71178: L2-Pf-HR :0.90452: L2-HR :0.81540: (Sim:0h38m18s) 
CPU  0 inst:  160000005 cyc:   93300277 now IPC :1.67432: AVG IPC :1.71153: L2-Pf-HR :0.90447: L2-HR :0.81531: (Sim:0h38m26s) 
CPU  0 inst:  161000005 cyc:   93890687 now IPC :1.69374: AVG IPC :1.71142: L2-Pf-HR :0.90444: L2-HR :0.81524: (Sim:0h38m33s) 
CPU  0 inst:  162000001 cyc:   94486295 now IPC :1.67895: AVG IPC :1.71121: L2-Pf-HR :0.90440: L2-HR :0.81517: (Sim:0h38m41s) 
CPU  0 inst:  163000003 cyc:   95081762 now IPC :1.67936: AVG IPC :1.71101: L2-Pf-HR :0.90438: L2-HR :0.81519: (Sim:0h38m48s) 
CPU  0 inst:  164000005 cyc:   95643913 now IPC :1.77889: AVG IPC :1.71142: L2-Pf-HR :0.90427: L2-HR :0.81518: (Sim:0h38m56s) 
CPU  0 inst:  165000004 cyc:   96233647 now IPC :1.69568: AVG IPC :1.71132: L2-Pf-HR :0.90427: L2-HR :0.81517: (Sim:0h39m4s) 
CPU  0 inst:  166000001 cyc:   96823522 now IPC :1.69527: AVG IPC :1.71122: L2-Pf-HR :0.90424: L2-HR :0.81510: (Sim:0h39m14s) 
CPU  0 inst:  167000001 cyc:   97419787 now IPC :1.67711: AVG IPC :1.71101: L2-Pf-HR :0.90418: L2-HR :0.81503: (Sim:0h39m21s) 
CPU  0 inst:  168000001 cyc:   98014237 now IPC :1.68223: AVG IPC :1.71083: L2-Pf-HR :0.90412: L2-HR :0.81496: (Sim:0h39m30s) 
CPU  0 inst:  169000005 cyc:   98602423 now IPC :1.70015: AVG IPC :1.71077: L2-Pf-HR :0.90410: L2-HR :0.81490: (Sim:0h39m38s) 
CPU  0 inst:  170000003 cyc:   99289211 now IPC :1.45605: AVG IPC :1.70899: L2-Pf-HR :0.90349: L2-HR :0.81466: (Sim:0h39m46s) 
CPU  0 inst:  171000003 cyc:   99893154 now IPC :1.65579: AVG IPC :1.70866: L2-Pf-HR :0.90359: L2-HR :0.81462: (Sim:0h39m53s) 
CPU  0 inst:  172000004 cyc:  100462556 now IPC :1.75623: AVG IPC :1.70894: L2-Pf-HR :0.90374: L2-HR :0.81464: (Sim:0h40m1s) 
CPU  0 inst:  173000005 cyc:  101031591 now IPC :1.75736: AVG IPC :1.70921: L2-Pf-HR :0.90387: L2-HR :0.81465: (Sim:0h40m8s) 
CPU  0 inst:  174000002 cyc:  101600415 now IPC :1.75801: AVG IPC :1.70949: L2-Pf-HR :0.90399: L2-HR :0.81465: (Sim:0h40m16s) 
CPU  0 inst:  175000003 cyc:  102168229 now IPC :1.76114: AVG IPC :1.70978: L2-Pf-HR :0.90419: L2-HR :0.81478: (Sim:0h40m23s) 
CPU  0 inst:  176000000 cyc:  102711802 now IPC :1.83967: AVG IPC :1.71047: L2-Pf-HR :0.90425: L2-HR :0.81482: (Sim:0h40m30s) 
CPU  0 inst:  177000005 cyc:  103282152 now IPC :1.75332: AVG IPC :1.71071: L2-Pf-HR :0.90439: L2-HR :0.81484: (Sim:0h40m38s) 
CPU  0 inst:  178000005 cyc:  103848997 now IPC :1.76415: AVG IPC :1.71100: L2-Pf-HR :0.90453: L2-HR :0.81487: (Sim:0h40m45s) 
CPU  0 inst:  179000004 cyc:  104416151 now IPC :1.76319: AVG IPC :1.71129: L2-Pf-HR :0.90467: L2-HR :0.81488: (Sim:0h40m53s) 
CPU  0 inst:  180000002 cyc:  104981738 now IPC :1.76807: AVG IPC :1.71160: L2-Pf-HR :0.90479: L2-HR :0.81488: (Sim:0h41m0s) 
CPU  0 inst:  181000000 cyc:  105538555 now IPC :1.79592: AVG IPC :1.71205: L2-Pf-HR :0.90480: L2-HR :0.81487: (Sim:0h41m8s) 
CPU  0 inst:  182000004 cyc:  106189553 now IPC :1.53611: AVG IPC :1.71096: L2-Pf-HR :0.90452: L2-HR :0.81483: (Sim:0h41m15s) 
CPU  0 inst:  183000000 cyc:  106753675 now IPC :1.77266: AVG IPC :1.71129: L2-Pf-HR :0.90463: L2-HR :0.81497: (Sim:0h41m22s) 
CPU  0 inst:  184000001 cyc:  107318162 now IPC :1.77152: AVG IPC :1.71161: L2-Pf-HR :0.90473: L2-HR :0.81510: (Sim:0h41m30s) 
CPU  0 inst:  185000004 cyc:  107883643 now IPC :1.76841: AVG IPC :1.71191: L2-Pf-HR :0.90487: L2-HR :0.81530: (Sim:0h41m37s) 
CPU  0 inst:  186000002 cyc:  108430493 now IPC :1.82865: AVG IPC :1.71250: L2-Pf-HR :0.90495: L2-HR :0.81554: (Sim:0h41m44s) 
CPU  0 inst:  187000001 cyc:  108996905 now IPC :1.76550: AVG IPC :1.71278: L2-Pf-HR :0.90507: L2-HR :0.81567: (Sim:0h41m52s) 
CPU  0 inst:  188000004 cyc:  109564283 now IPC :1.76250: AVG IPC :1.71304: L2-Pf-HR :0.90519: L2-HR :0.81581: (Sim:0h41m59s) 
CPU  0 inst:  189000001 cyc:  110131103 now IPC :1.76422: AVG IPC :1.71331: L2-Pf-HR :0.90528: L2-HR :0.81594: (Sim:0h42m6s) 
CPU  0 inst:  190000002 cyc:  110860295 now IPC :1.37138: AVG IPC :1.71104: L2-Pf-HR :0.90442: L2-HR :0.81547: (Sim:0h42m14s) 
CPU  0 inst:  191000002 cyc:  111459164 now IPC :1.66981: AVG IPC :1.71081: L2-Pf-HR :0.90437: L2-HR :0.81539: (Sim:0h42m22s) 
CPU  0 inst:  192000000 cyc:  112049271 now IPC :1.69460: AVG IPC :1.71073: L2-Pf-HR :0.90435: L2-HR :0.81533: (Sim:0h42m29s) 
CPU  0 inst:  193000003 cyc:  112644584 now IPC :1.67979: AVG IPC :1.71056: L2-Pf-HR :0.90433: L2-HR :0.81528: (Sim:0h42m37s) 
CPU  0 inst:  194000004 cyc:  113241475 now IPC :1.67535: AVG IPC :1.71038: L2-Pf-HR :0.90428: L2-HR :0.81521: (Sim:0h42m44s) 
CPU  0 inst:  195000000 cyc:  113830388 now IPC :1.69804: AVG IPC :1.71031: L2-Pf-HR :0.90433: L2-HR :0.81532: (Sim:0h42m52s) 
CPU  0 inst:  196000000 cyc:  114400562 now IPC :1.75385: AVG IPC :1.71053: L2-Pf-HR :0.90422: L2-HR :0.81526: (Sim:0h42m59s) 
CPU  0 inst:  197000002 cyc:  114991138 now IPC :1.69327: AVG IPC :1.71044: L2-Pf-HR :0.90420: L2-HR :0.81520: (Sim:0h43m7s) 
CPU  0 inst:  198000005 cyc:  115584442 now IPC :1.68548: AVG IPC :1.71031: L2-Pf-HR :0.90418: L2-HR :0.81516: (Sim:0h43m14s) 
CPU  0 inst:  199000002 cyc:  116181239 now IPC :1.67561: AVG IPC :1.71013: L2-Pf-HR :0.90414: L2-HR :0.81509: (Sim:0h43m22s) 
CPU  0 inst:  200000005 cyc:  116773746 now IPC :1.68775: AVG IPC :1.71002: L2-Pf-HR :0.90413: L2-HR :0.81505: (Sim:0h43m29s) 
CPU  0 inst:  201000001 cyc:  117362378 now IPC :1.69885: AVG IPC :1.70996: L2-Pf-HR :0.90405: L2-HR :0.81498: (Sim:0h43m37s) 
CPU  0 inst:  202000004 cyc:  118079512 now IPC :1.39444: AVG IPC :1.70803: L2-Pf-HR :0.90360: L2-HR :0.81479: (Sim:0h43m45s) 
CPU  0 inst:  203000004 cyc:  118657545 now IPC :1.73001: AVG IPC :1.70814: L2-Pf-HR :0.90371: L2-HR :0.81478: (Sim:0h43m52s) 
CPU  0 inst:  204000004 cyc:  119229352 now IPC :1.74884: AVG IPC :1.70833: L2-Pf-HR :0.90382: L2-HR :0.81479: (Sim:0h43m59s) 
CPU  0 inst:  205000003 cyc:  119802233 now IPC :1.74556: AVG IPC :1.70851: L2-Pf-HR :0.90393: L2-HR :0.81479: (Sim:0h44m7s) 
CPU  0 inst:  206000005 cyc:  120373304 now IPC :1.75110: AVG IPC :1.70872: L2-Pf-HR :0.90406: L2-HR :0.81482: (Sim:0h44m14s) 
CPU  0 inst:  207000003 cyc:  120945295 now IPC :1.74828: AVG IPC :1.70890: L2-Pf-HR :0.90422: L2-HR :0.81496: (Sim:0h44m22s) 
CPU  0 inst:  208000004 cyc:  121495362 now IPC :1.81796: AVG IPC :1.70940: L2-Pf-HR :0.90428: L2-HR :0.81496: (Sim:0h44m29s) 
CPU  0 inst:  209000005 cyc:  122065509 now IPC :1.75394: AVG IPC :1.70961: L2-Pf-HR :0.90441: L2-HR :0.81498: (Sim:0h44m36s) 
CPU  0 inst:  210000001 cyc:  122634775 now IPC :1.75664: AVG IPC :1.70983: L2-Pf-HR :0.90452: L2-HR :0.81499: (Sim:0h44m44s) 
CPU  0 inst:  211000000 cyc:  123203021 now IPC :1.75980: AVG IPC :1.71006: L2-Pf-HR :0.90463: L2-HR :0.81500: (Sim:0h44m51s) 
CPU  0 inst:  212000004 cyc:  123769847 now IPC :1.76422: AVG IPC :1.71031: L2-Pf-HR :0.90475: L2-HR :0.81501: (Sim:0h44m58s) 
CPU  0 inst:  213000002 cyc:  124324433 now IPC :1.80314: AVG IPC :1.71073: L2-Pf-HR :0.90480: L2-HR :0.81503: (Sim:0h45m6s) 
CPU  0 inst:  214000004 cyc:  124994692 now IPC :1.49196: AVG IPC :1.70955: L2-Pf-HR :0.90454: L2-HR :0.81497: (Sim:0h45m13s) 
CPU  0 inst:  215000000 cyc:  125562862 now IPC :1.76003: AVG IPC :1.70978: L2-Pf-HR :0.90463: L2-HR :0.81507: (Sim:0h45m21s) 
CPU  0 inst:  216000005 cyc:  126131548 now IPC :1.75845: AVG IPC :1.71000: L2-Pf-HR :0.90474: L2-HR :0.81518: (Sim:0h45m28s) 
CPU  0 inst:  217000001 cyc:  126702719 now IPC :1.75078: AVG IPC :1.71019: L2-Pf-HR :0.90483: L2-HR :0.81535: (Sim:0h45m35s) 
CPU  0 inst:  218000000 cyc:  127252739 now IPC :1.81811: AVG IPC :1.71066: L2-Pf-HR :0.90492: L2-HR :0.81552: (Sim:0h45m43s) 
CPU  0 inst:  219000004 cyc:  127824003 now IPC :1.75051: AVG IPC :1.71084: L2-Pf-HR :0.90501: L2-HR :0.81563: (Sim:0h45m50s) 
CPU  0 inst:  220000002 cyc:  128395726 now IPC :1.74910: AVG IPC :1.71101: L2-Pf-HR :0.90511: L2-HR :0.81572: (Sim:0h45m57s) 
CPU  0 inst:  221000000 cyc:  128962137 now IPC :1.76550: AVG IPC :1.71125: L2-Pf-HR :0.90518: L2-HR :0.81587: (Sim:0h46m5s) 
CPU  0 inst:  222000003 cyc:  129689671 now IPC :1.37451: AVG IPC :1.70935: L2-Pf-HR :0.90439: L2-HR :0.81534: (Sim:0h46m12s) 
CPU  0 inst:  223000000 cyc:  130273718 now IPC :1.71219: AVG IPC :1.70936: L2-Pf-HR :0.90437: L2-HR :0.81528: (Sim:0h46m20s) 
CPU  0 inst:  224000004 cyc:  130863376 now IPC :1.69591: AVG IPC :1.70930: L2-Pf-HR :0.90434: L2-HR :0.81523: (Sim:0h46m27s) 
CPU  0 inst:  225000003 cyc:  131454315 now IPC :1.69222: AVG IPC :1.70922: L2-Pf-HR :0.90429: L2-HR :0.81516: (Sim:0h46m35s) 
CPU  0 inst:  226000002 cyc:  132036309 now IPC :1.71823: AVG IPC :1.70926: L2-Pf-HR :0.90430: L2-HR :0.81518: (Sim:0h46m42s) 
CPU  0 inst:  227000000 cyc:  132624475 now IPC :1.70020: AVG IPC :1.70922: L2-Pf-HR :0.90423: L2-HR :0.81517: (Sim:0h46m50s) 
CPU  0 inst:  228000004 cyc:  133189211 now IPC :1.77075: AVG IPC :1.70948: L2-Pf-HR :0.90423: L2-HR :0.81514: (Sim:0h46m57s) 
CPU  0 inst:  229000000 cyc:  133775742 now IPC :1.70493: AVG IPC :1.70946: L2-Pf-HR :0.90419: L2-HR :0.81509: (Sim:0h47m5s) 
CPU  0 inst:  230000005 cyc:  134363821 now IPC :1.70046: AVG IPC :1.70942: L2-Pf-HR :0.90414: L2-HR :0.81503: (Sim:0h47m12s) 
CPU  0 inst:  231000003 cyc:  134946356 now IPC :1.71663: AVG IPC :1.70945: L2-Pf-HR :0.90413: L2-HR :0.81500: (Sim:0h47m20s) 
CPU  0 inst:  232000000 cyc:  135534980 now IPC :1.69887: AVG IPC :1.70941: L2-Pf-HR :0.90410: L2-HR :0.81495: (Sim:0h47m27s) 
CPU  0 inst:  233000000 cyc:  136150927 now IPC :1.62352: AVG IPC :1.70902: L2-Pf-HR :0.90395: L2-HR :0.81489: (Sim:0h47m35s) 
CPU  0 inst:  234000001 cyc:  136831750 now IPC :1.46881: AVG IPC :1.70781: L2-Pf-HR :0.90373: L2-HR :0.81474: (Sim:0h47m42s) 
CPU  0 inst:  235000003 cyc:  137406725 now IPC :1.73921: AVG IPC :1.70794: L2-Pf-HR :0.90381: L2-HR :0.81474: (Sim:0h47m50s) 
CPU  0 inst:  236000003 cyc:  137976406 now IPC :1.75537: AVG IPC :1.70814: L2-Pf-HR :0.90390: L2-HR :0.81474: (Sim:0h47m57s) 
CPU  0 inst:  237000000 cyc:  138548873 now IPC :1.74682: AVG IPC :1.70830: L2-Pf-HR :0.90401: L2-HR :0.81475: (Sim:0h48m4s) 
CPU  0 inst:  238000005 cyc:  139120038 now IPC :1.75082: AVG IPC :1.70848: L2-Pf-HR :0.90413: L2-HR :0.81482: (Sim:0h48m12s) 
CPU  0 inst:  239000000 cyc:  139672993 now IPC :1.80846: AVG IPC :1.70888: L2-Pf-HR :0.90418: L2-HR :0.81486: (Sim:0h48m19s) 
CPU  0 inst:  240000002 cyc:  140239725 now IPC :1.76451: AVG IPC :1.70910: L2-Pf-HR :0.90431: L2-HR :0.81490: (Sim:0h48m28s) 
CPU  0 inst:  241000001 cyc:  140809025 now IPC :1.75654: AVG IPC :1.70930: L2-Pf-HR :0.90440: L2-HR :0.81491: (Sim:0h48m45s) 
CPU  0 inst:  242000003 cyc:  141377984 now IPC :1.75760: AVG IPC :1.70949: L2-Pf-HR :0.90450: L2-HR :0.81492: (Sim:0h49m2s) 
CPU  0 inst:  243000004 cyc:  141945097 now IPC :1.76332: AVG IPC :1.70971: L2-Pf-HR :0.90460: L2-HR :0.81493: (Sim:0h49m18s) 
CPU  0 inst:  244000003 cyc:  142513150 now IPC :1.76040: AVG IPC :1.70991: L2-Pf-HR :0.90468: L2-HR :0.81493: (Sim:0h49m35s) 
CPU  0 inst:  245000003 cyc:  143168778 now IPC :1.52526: AVG IPC :1.70906: L2-Pf-HR :0.90441: L2-HR :0.81484: (Sim:0h49m53s) 
CPU  0 inst:  246000003 cyc:  143731036 now IPC :1.77854: AVG IPC :1.70933: L2-Pf-HR :0.90448: L2-HR :0.81493: (Sim:0h50m9s) 
CPU  0 inst:  247000005 cyc:  144294911 now IPC :1.77345: AVG IPC :1.70959: L2-Pf-HR :0.90456: L2-HR :0.81504: (Sim:0h50m26s) 
CPU  0 inst:  248000003 cyc:  144861337 now IPC :1.76545: AVG IPC :1.70981: L2-Pf-HR :0.90466: L2-HR :0.81516: (Sim:0h50m43s) 
CPU  0 inst:  249000001 cyc:  145410441 now IPC :1.82114: AVG IPC :1.71023: L2-Pf-HR :0.90473: L2-HR :0.81534: (Sim:0h51m0s) 
CPU  0 inst:  250000000 cyc:  145978036 now IPC :1.76182: AVG IPC :1.71043: L2-Pf-HR :0.90482: L2-HR :0.81546: (Sim:0h51m17s) 
CPU  0 inst:  251000002 cyc:  146547187 now IPC :1.75701: AVG IPC :1.71061: L2-Pf-HR :0.90490: L2-HR :0.81559: (Sim:0h51m33s) 
CPU  0 inst:  252000002 cyc:  147116605 now IPC :1.75618: AVG IPC :1.71079: L2-Pf-HR :0.90498: L2-HR :0.81567: (Sim:0h51m50s) 
CPU  0 inst:  253000003 cyc:  147843071 now IPC :1.37653: AVG IPC :1.70914: L2-Pf-HR :0.90430: L2-HR :0.81534: (Sim:0h52m8s) 
CPU  0 inst:  254000002 cyc:  148426358 now IPC :1.71442: AVG IPC :1.70916: L2-Pf-HR :0.90429: L2-HR :0.81528: (Sim:0h52m25s) 
CPU  0 inst:  255000002 cyc:  149017520 now IPC :1.69158: AVG IPC :1.70909: L2-Pf-HR :0.90426: L2-HR :0.81523: (Sim:0h52m43s) 
CPU  0 inst:  256000000 cyc:  149602956 now IPC :1.70813: AVG IPC :1.70908: L2-Pf-HR :0.90424: L2-HR :0.81519: (Sim:0h53m0s) 
CPU  0 inst:  257000004 cyc:  150193860 now IPC :1.69233: AVG IPC :1.70902: L2-Pf-HR :0.90422: L2-HR :0.81515: (Sim:0h53m17s) 
CPU  0 inst:  258000001 cyc:  150784619 now IPC :1.69273: AVG IPC :1.70895: L2-Pf-HR :0.90422: L2-HR :0.81520: (Sim:0h53m34s) 
CPU  0 inst:  259000003 cyc:  151345119 now IPC :1.78412: AVG IPC :1.70923: L2-Pf-HR :0.90415: L2-HR :0.81517: (Sim:0h53m51s) 
CPU  0 inst:  260000000 cyc:  151935685 now IPC :1.69329: AVG IPC :1.70917: L2-Pf-HR :0.90414: L2-HR :0.81514: (Sim:0h54m9s) 
CPU  0 inst:  261000004 cyc:  152528120 now IPC :1.68796: AVG IPC :1.70909: L2-Pf-HR :0.90410: L2-HR :0.81508: (Sim:0h54m26s) 
CPU  0 inst:  262000005 cyc:  153112390 now IPC :1.71154: AVG IPC :1.70910: L2-Pf-HR :0.90409: L2-HR :0.81505: (Sim:0h54m43s) 
CPU  0 inst:  263000001 cyc:  153697373 now IPC :1.70944: AVG IPC :1.70910: L2-Pf-HR :0.90405: L2-HR :0.81501: (Sim:0h55m0s) 
CPU  0 inst:  264000003 cyc:  154279573 now IPC :1.71763: AVG IPC :1.70913: L2-Pf-HR :0.90400: L2-HR :0.81494: (Sim:0h55m17s) 
CPU  0 inst:  265000000 cyc:  154991746 now IPC :1.40415: AVG IPC :1.70772: L2-Pf-HR :0.90366: L2-HR :0.81482: (Sim:0h55m35s) 
CPU  0 inst:  266000003 cyc:  155570825 now IPC :1.72689: AVG IPC :1.70779: L2-Pf-HR :0.90374: L2-HR :0.81481: (Sim:0h55m51s) 
CPU  0 inst:  267000003 cyc:  156141458 now IPC :1.75244: AVG IPC :1.70796: L2-Pf-HR :0.90382: L2-HR :0.81481: (Sim:0h56m8s) 
CPU  0 inst:  268000002 cyc:  156714554 now IPC :1.74491: AVG IPC :1.70809: L2-Pf-HR :0.90391: L2-HR :0.81482: (Sim:0h56m24s) 
CPU  0 inst:  269000003 cyc:  157285146 now IPC :1.75257: AVG IPC :1.70826: L2-Pf-HR :0.90400: L2-HR :0.81483: (Sim:0h56m41s) 
CPU  0 inst:  270000002 cyc:  157856129 now IPC :1.75136: AVG IPC :1.70841: L2-Pf-HR :0.90414: L2-HR :0.81494: (Sim:0h56m57s) 
CPU  0 inst:  271000001 cyc:  158402606 now IPC :1.82990: AVG IPC :1.70884: L2-Pf-HR :0.90418: L2-HR :0.81494: (Sim:0h57m14s) 
CPU  0 inst:  272000002 cyc:  158973365 now IPC :1.75205: AVG IPC :1.70899: L2-Pf-HR :0.90426: L2-HR :0.81495: (Sim:0h57m30s) 
CPU  0 inst:  273000002 cyc:  159541880 now IPC :1.75897: AVG IPC :1.70917: L2-Pf-HR :0.90436: L2-HR :0.81496: (Sim:0h57m47s) 
CPU  0 inst:  274000003 cyc:  160110080 now IPC :1.75995: AVG IPC :1.70935: L2-Pf-HR :0.90445: L2-HR :0.81497: (Sim:0h58m3s) 
CPU  0 inst:  275000000 cyc:  160677973 now IPC :1.76089: AVG IPC :1.70953: L2-Pf-HR :0.90452: L2-HR :0.81496: (Sim:0h58m19s) 
CPU  0 inst:  276000005 cyc:  161231917 now IPC :1.80525: AVG IPC :1.70987: L2-Pf-HR :0.90458: L2-HR :0.81498: (Sim:0h58m36s) 
CPU  0 inst:  277000002 cyc:  161892520 now IPC :1.51376: AVG IPC :1.70906: L2-Pf-HR :0.90437: L2-HR :0.81492: (Sim:0h58m53s) 
CPU  0 inst:  278000005 cyc:  162460740 now IPC :1.75989: AVG IPC :1.70924: L2-Pf-HR :0.90444: L2-HR :0.81500: (Sim:0h59m9s) 
CPU  0 inst:  279000005 cyc:  163029803 now IPC :1.75727: AVG IPC :1.70941: L2-Pf-HR :0.90451: L2-HR :0.81510: (Sim:0h59m26s) 
CPU  0 inst:  280000005 cyc:  163600662 now IPC :1.75175: AVG IPC :1.70956: L2-Pf-HR :0.90461: L2-HR :0.81525: (Sim:0h59m42s) 
CPU  0 inst:  281000004 cyc:  164151853 now IPC :1.81425: AVG IPC :1.70991: L2-Pf-HR :0.90466: L2-HR :0.81537: (Sim:0h59m58s) 
CPU  0 inst:  282000002 cyc:  164722614 now IPC :1.75204: AVG IPC :1.71006: L2-Pf-HR :0.90474: L2-HR :0.81546: (Sim:1h0m15s) 
CPU  0 inst:  283000002 cyc:  165293804 now IPC :1.75073: AVG IPC :1.71020: L2-Pf-HR :0.90481: L2-HR :0.81555: (Sim:1h0m31s) 
CPU  0 inst:  284000000 cyc:  165844833 now IPC :1.81478: AVG IPC :1.71055: L2-Pf-HR :0.90482: L2-HR :0.81566: (Sim:1h0m47s) 
CPU  0 inst:  285000003 cyc:  166591444 now IPC :1.33939: AVG IPC :1.70888: L2-Pf-HR :0.90424: L2-HR :0.81529: (Sim:1h1m5s) 
CPU  0 inst:  286000002 cyc:  167188351 now IPC :1.67530: AVG IPC :1.70875: L2-Pf-HR :0.90421: L2-HR :0.81524: (Sim:1h1m22s) 
CPU  0 inst:  287000002 cyc:  167779363 now IPC :1.69201: AVG IPC :1.70870: L2-Pf-HR :0.90419: L2-HR :0.81519: (Sim:1h1m39s) 
CPU  0 inst:  288000000 cyc:  168376187 now IPC :1.67553: AVG IPC :1.70858: L2-Pf-HR :0.90418: L2-HR :0.81516: (Sim:1h1m56s) 
CPU  0 inst:  289000005 cyc:  168975174 now IPC :1.66949: AVG IPC :1.70844: L2-Pf-HR :0.90416: L2-HR :0.81514: (Sim:1h2m12s) 
CPU  0 inst:  290000004 cyc:  169568313 now IPC :1.68594: AVG IPC :1.70836: L2-Pf-HR :0.90413: L2-HR :0.81516: (Sim:1h2m29s) 
CPU  0 inst:  291000001 cyc:  170137522 now IPC :1.75682: AVG IPC :1.70852: L2-Pf-HR :0.90410: L2-HR :0.81513: (Sim:1h2m46s) 
CPU  0 inst:  292000001 cyc:  170728801 now IPC :1.69125: AVG IPC :1.70846: L2-Pf-HR :0.90409: L2-HR :0.81509: (Sim:1h3m2s) 
CPU  0 inst:  293000002 cyc:  171326316 now IPC :1.67360: AVG IPC :1.70834: L2-Pf-HR :0.90406: L2-HR :0.81506: (Sim:1h3m19s) 
CPU  0 inst:  294000000 cyc:  171921358 now IPC :1.68055: AVG IPC :1.70824: L2-Pf-HR :0.90403: L2-HR :0.81502: (Sim:1h3m36s) 
CPU  0 inst:  295000003 cyc:  172512135 now IPC :1.69269: AVG IPC :1.70819: L2-Pf-HR :0.90402: L2-HR :0.81499: (Sim:1h3m53s) 
CPU  0 inst:  296000004 cyc:  173098343 now IPC :1.70588: AVG IPC :1.70818: L2-Pf-HR :0.90400: L2-HR :0.81499: (Sim:1h4m10s) 
CPU  0 inst:  297000001 cyc:  173798094 now IPC :1.42908: AVG IPC :1.70705: L2-Pf-HR :0.90370: L2-HR :0.81483: (Sim:1h4m27s) 
CPU  0 inst:  298000003 cyc:  174369556 now IPC :1.74990: AVG IPC :1.70719: L2-Pf-HR :0.90377: L2-HR :0.81482: (Sim:1h4m43s) 
CPU  0 inst:  299000003 cyc:  174940697 now IPC :1.75088: AVG IPC :1.70734: L2-Pf-HR :0.90385: L2-HR :0.81483: (Sim:1h5m0s) 
CPU  0 inst:  300000003 cyc:  175512376 now IPC :1.74923: AVG IPC :1.70747: L2-Pf-HR :0.90391: L2-HR :0.81482: (Sim:1h5m16s) 
CPU  0 inst:  301000002 cyc:  176084728 now IPC :1.74717: AVG IPC :1.70760: L2-Pf-HR :0.90401: L2-HR :0.81487: (Sim:1h5m33s) 
CPU  0 inst:  302000000 cyc:  176651860 now IPC :1.76325: AVG IPC :1.70778: L2-Pf-HR :0.90406: L2-HR :0.81493: (Sim:1h5m49s) 
CPU  0 inst:  303000002 cyc:  177205223 now IPC :1.80714: AVG IPC :1.70809: L2-Pf-HR :0.90415: L2-HR :0.81494: (Sim:1h6m6s) 
CPU  0 inst:  304000000 cyc:  177773666 now IPC :1.75919: AVG IPC :1.70826: L2-Pf-HR :0.90423: L2-HR :0.81495: (Sim:1h6m22s) 
CPU  0 inst:  305000001 cyc:  178341692 now IPC :1.76048: AVG IPC :1.70843: L2-Pf-HR :0.90431: L2-HR :0.81496: (Sim:1h6m39s) 
CPU  0 inst:  306000000 cyc:  178909615 now IPC :1.76080: AVG IPC :1.70859: L2-Pf-HR :0.90438: L2-HR :0.81496: (Sim:1h6m55s) 
CPU  0 inst:  307000003 cyc:  179476009 now IPC :1.76556: AVG IPC :1.70877: L2-Pf-HR :0.90446: L2-HR :0.81497: (Sim:1h7m11s) 
CPU  0 inst:  308000000 cyc:  180124253 now IPC :1.54262: AVG IPC :1.70817: L2-Pf-HR :0.90425: L2-HR :0.81488: (Sim:1h7m28s) 
CPU  0 inst:  309000002 cyc:  180703728 now IPC :1.72570: AVG IPC :1.70823: L2-Pf-HR :0.90430: L2-HR :0.81494: (Sim:1h7m45s) 
CPU  0 inst:  310000001 cyc:  181271222 now IPC :1.76213: AVG IPC :1.70840: L2-Pf-HR :0.90436: L2-HR :0.81500: (Sim:1h8m1s) 
CPU  0 inst:  311000005 cyc:  181839584 now IPC :1.75945: AVG IPC :1.70856: L2-Pf-HR :0.90443: L2-HR :0.81508: (Sim:1h8m18s) 
CPU  0 inst:  312000001 cyc:  182389990 now IPC :1.81683: AVG IPC :1.70889: L2-Pf-HR :0.90448: L2-HR :0.81522: (Sim:1h8m34s) 
CPU  0 inst:  313000004 cyc:  182959650 now IPC :1.75544: AVG IPC :1.70903: L2-Pf-HR :0.90455: L2-HR :0.81530: (Sim:1h8m50s) 
CPU  0 inst:  314000002 cyc:  183529224 now IPC :1.75569: AVG IPC :1.70918: L2-Pf-HR :0.90462: L2-HR :0.81537: (Sim:1h9m7s) 
CPU  0 inst:  315000005 cyc:  184096554 now IPC :1.76265: AVG IPC :1.70934: L2-Pf-HR :0.90466: L2-HR :0.81544: (Sim:1h9m23s) 
CPU  0 inst:  316000000 cyc:  184793341 now IPC :1.43515: AVG IPC :1.70831: L2-Pf-HR :0.90419: L2-HR :0.81518: (Sim:1h9m41s) 
CPU  0 inst:  317000005 cyc:  185395311 now IPC :1.66122: AVG IPC :1.70815: L2-Pf-HR :0.90417: L2-HR :0.81513: (Sim:1h9m58s) 
CPU  0 inst:  318000004 cyc:  185982448 now IPC :1.70318: AVG IPC :1.70814: L2-Pf-HR :0.90415: L2-HR :0.81509: (Sim:1h10m14s) 
CPU  0 inst:  319000000 cyc:  186576513 now IPC :1.68331: AVG IPC :1.70806: L2-Pf-HR :0.90413: L2-HR :0.81506: (Sim:1h10m31s) 
CPU  0 inst:  320000001 cyc:  187171605 now IPC :1.68041: AVG IPC :1.70797: L2-Pf-HR :0.90411: L2-HR :0.81502: (Sim:1h10m48s) 
CPU  0 inst:  321000001 cyc:  187759488 now IPC :1.70102: AVG IPC :1.70795: L2-Pf-HR :0.90413: L2-HR :0.81505: (Sim:1h11m4s) 
CPU  0 inst:  322000004 cyc:  188322413 now IPC :1.77644: AVG IPC :1.70815: L2-Pf-HR :0.90406: L2-HR :0.81504: (Sim:1h11m21s) 
CPU  0 inst:  323000002 cyc:  188909822 now IPC :1.70239: AVG IPC :1.70813: L2-Pf-HR :0.90406: L2-HR :0.81501: (Sim:1h11m38s) 
CPU  0 inst:  324000002 cyc:  189504718 now IPC :1.68097: AVG IPC :1.70805: L2-Pf-HR :0.90404: L2-HR :0.81498: (Sim:1h11m55s) 
CPU  0 inst:  325000000 cyc:  190098344 now IPC :1.68456: AVG IPC :1.70797: L2-Pf-HR :0.90401: L2-HR :0.81495: (Sim:1h12m12s) 
CPU  0 inst:  326000002 cyc:  190686629 now IPC :1.69986: AVG IPC :1.70795: L2-Pf-HR :0.90400: L2-HR :0.81492: (Sim:1h12m28s) 
CPU  0 inst:  327000001 cyc:  191279973 now IPC :1.68536: AVG IPC :1.70788: L2-Pf-HR :0.90395: L2-HR :0.81486: (Sim:1h12m45s) 
CPU  0 inst:  328000001 cyc:  191987761 now IPC :1.41285: AVG IPC :1.70679: L2-Pf-HR :0.90365: L2-HR :0.81474: (Sim:1h13m2s) 
CPU  0 inst:  329000000 cyc:  192565340 now IPC :1.73136: AVG IPC :1.70686: L2-Pf-HR :0.90372: L2-HR :0.81474: (Sim:1h13m19s) 
CPU  0 inst:  330000005 cyc:  193138711 now IPC :1.74408: AVG IPC :1.70697: L2-Pf-HR :0.90379: L2-HR :0.81474: (Sim:1h13m36s) 
CPU  0 inst:  331000002 cyc:  193711705 now IPC :1.74521: AVG IPC :1.70708: L2-Pf-HR :0.90385: L2-HR :0.81474: (Sim:1h13m52s) 
CPU  0 inst:  332000004 cyc:  194285389 now IPC :1.74312: AVG IPC :1.70719: L2-Pf-HR :0.90393: L2-HR :0.81475: (Sim:1h14m0s) 
CPU  0 inst:  333000003 cyc:  194857257 now IPC :1.74865: AVG IPC :1.70731: L2-Pf-HR :0.90404: L2-HR :0.81483: (Sim:1h14m8s) 
CPU  0 inst:  334000000 cyc:  195403046 now IPC :1.83220: AVG IPC :1.70766: L2-Pf-HR :0.90406: L2-HR :0.81484: (Sim:1h14m16s) 
CPU  0 inst:  335000002 cyc:  195974330 now IPC :1.75045: AVG IPC :1.70779: L2-Pf-HR :0.90415: L2-HR :0.81485: (Sim:1h14m23s) 
CPU  0 inst:  336000001 cyc:  196544181 now IPC :1.75484: AVG IPC :1.70793: L2-Pf-HR :0.90422: L2-HR :0.81486: (Sim:1h14m31s) 
CPU  0 inst:  337000003 cyc:  197113422 now IPC :1.75673: AVG IPC :1.70807: L2-Pf-HR :0.90428: L2-HR :0.81486: (Sim:1h14m38s) 
CPU  0 inst:  338000000 cyc:  197681559 now IPC :1.76013: AVG IPC :1.70822: L2-Pf-HR :0.90436: L2-HR :0.81487: (Sim:1h14m46s) 
CPU  0 inst:  339000002 cyc:  198244440 now IPC :1.77658: AVG IPC :1.70841: L2-Pf-HR :0.90440: L2-HR :0.81487: (Sim:1h14m53s) 
CPU  0 inst:  340000001 cyc:  198908480 now IPC :1.50593: AVG IPC :1.70773: L2-Pf-HR :0.90422: L2-HR :0.81482: (Sim:1h15m1s) 
CPU  0 inst:  341000005 cyc:  199475585 now IPC :1.76335: AVG IPC :1.70789: L2-Pf-HR :0.90427: L2-HR :0.81489: (Sim:1h15m9s) 
CPU  0 inst:  342000004 cyc:  200043338 now IPC :1.76133: AVG IPC :1.70805: L2-Pf-HR :0.90433: L2-HR :0.81496: (Sim:1h15m16s) 
CPU  0 inst:  343000002 cyc:  200613885 now IPC :1.75270: AVG IPC :1.70817: L2-Pf-HR :0.90441: L2-HR :0.81505: (Sim:1h15m24s) 
CPU  0 inst:  344000003 cyc:  201163288 now IPC :1.82016: AVG IPC :1.70848: L2-Pf-HR :0.90445: L2-HR :0.81516: (Sim:1h15m31s) 
CPU  0 inst:  345000003 cyc:  201732720 now IPC :1.75614: AVG IPC :1.70862: L2-Pf-HR :0.90451: L2-HR :0.81524: (Sim:1h15m39s) 
CPU  0 inst:  346000001 cyc:  202304033 now IPC :1.75035: AVG IPC :1.70873: L2-Pf-HR :0.90457: L2-HR :0.81531: (Sim:1h15m46s) 
CPU  0 inst:  347000003 cyc:  202868509 now IPC :1.77156: AVG IPC :1.70891: L2-Pf-HR :0.90459: L2-HR :0.81536: (Sim:1h15m54s) 
CPU  0 inst:  348000001 cyc:  203603679 now IPC :1.36023: AVG IPC :1.70764: L2-Pf-HR :0.90413: L2-HR :0.81508: (Sim:1h16m2s) 
CPU  0 inst:  349000000 cyc:  204191983 now IPC :1.69980: AVG IPC :1.70762: L2-Pf-HR :0.90411: L2-HR :0.81504: (Sim:1h16m10s) 
CPU  0 inst:  350000002 cyc:  204780210 now IPC :1.70003: AVG IPC :1.70760: L2-Pf-HR :0.90409: L2-HR :0.81501: (Sim:1h16m17s) 
CPU  0 inst:  351000004 cyc:  205374649 now IPC :1.68226: AVG IPC :1.70753: L2-Pf-HR :0.90407: L2-HR :0.81498: (Sim:1h16m25s) 
CPU  0 inst:  352000005 cyc:  205963650 now IPC :1.69779: AVG IPC :1.70750: L2-Pf-HR :0.90408: L2-HR :0.81496: (Sim:1h16m33s) 
CPU  0 inst:  353000003 cyc:  206561408 now IPC :1.67291: AVG IPC :1.70740: L2-Pf-HR :0.90408: L2-HR :0.81500: (Sim:1h16m40s) 
CPU  0 inst:  354000001 cyc:  207122560 now IPC :1.78204: AVG IPC :1.70760: L2-Pf-HR :0.90404: L2-HR :0.81497: (Sim:1h16m48s) 
CPU  0 inst:  355000002 cyc:  207719087 now IPC :1.67637: AVG IPC :1.70751: L2-Pf-HR :0.90403: L2-HR :0.81494: (Sim:1h16m55s) 
CPU  0 inst:  356000000 cyc:  208311663 now IPC :1.68754: AVG IPC :1.70745: L2-Pf-HR :0.90400: L2-HR :0.81491: (Sim:1h17m3s) 
CPU  0 inst:  357000000 cyc:  208895848 now IPC :1.71179: AVG IPC :1.70747: L2-Pf-HR :0.90400: L2-HR :0.81488: (Sim:1h17m10s) 
CPU  0 inst:  358000003 cyc:  209492956 now IPC :1.67474: AVG IPC :1.70737: L2-Pf-HR :0.90398: L2-HR :0.81486: (Sim:1h17m18s) 
CPU  0 inst:  359000005 cyc:  210064130 now IPC :1.75078: AVG IPC :1.70749: L2-Pf-HR :0.90393: L2-HR :0.81482: (Sim:1h17m25s) 
CPU  0 inst:  360000002 cyc:  210768254 now IPC :1.42020: AVG IPC :1.70653: L2-Pf-HR :0.90370: L2-HR :0.81471: (Sim:1h17m33s) 
CPU  0 inst:  361000000 cyc:  211332085 now IPC :1.77358: AVG IPC :1.70671: L2-Pf-HR :0.90376: L2-HR :0.81471: (Sim:1h17m41s) 
CPU  0 inst:  362000004 cyc:  211893529 now IPC :1.78113: AVG IPC :1.70690: L2-Pf-HR :0.90381: L2-HR :0.81471: (Sim:1h17m48s) 
CPU  0 inst:  363000001 cyc:  212456915 now IPC :1.77498: AVG IPC :1.70709: L2-Pf-HR :0.90389: L2-HR :0.81472: (Sim:1h18m4s) 
CPU  0 inst:  364000000 cyc:  213019872 now IPC :1.77633: AVG IPC :1.70727: L2-Pf-HR :0.90396: L2-HR :0.81474: (Sim:1h18m16s) 
CPU  0 inst:  365000001 cyc:  213585299 now IPC :1.76858: AVG IPC :1.70743: L2-Pf-HR :0.90401: L2-HR :0.81478: (Sim:1h18m24s) 
CPU  0 inst:  366000004 cyc:  214122577 now IPC :1.86124: AVG IPC :1.70782: L2-Pf-HR :0.90409: L2-HR :0.81481: (Sim:1h18m31s) 
CPU  0 inst:  367000001 cyc:  214683421 now IPC :1.78302: AVG IPC :1.70802: L2-Pf-HR :0.90415: L2-HR :0.81481: (Sim:1h18m38s) 
CPU  0 inst:  368000003 cyc:  215244494 now IPC :1.78230: AVG IPC :1.70821: L2-Pf-HR :0.90421: L2-HR :0.81482: (Sim:1h18m46s) 
CPU  0 inst:  369000005 cyc:  215805291 now IPC :1.78318: AVG IPC :1.70841: L2-Pf-HR :0.90428: L2-HR :0.81483: (Sim:1h18m53s) 
CPU  0 inst:  370000003 cyc:  216364637 now IPC :1.78780: AVG IPC :1.70861: L2-Pf-HR :0.90433: L2-HR :0.81482: (Sim:1h19m1s) 
CPU  0 inst:  371000005 cyc:  216941683 now IPC :1.73297: AVG IPC :1.70868: L2-Pf-HR :0.90434: L2-HR :0.81485: (Sim:1h19m8s) 
CPU  0 inst:  372000004 cyc:  217579719 now IPC :1.56731: AVG IPC :1.70826: L2-Pf-HR :0.90421: L2-HR :0.81481: (Sim:1h19m16s) 
CPU  0 inst:  373000005 cyc:  218144263 now IPC :1.77134: AVG IPC :1.70843: L2-Pf-HR :0.90426: L2-HR :0.81487: (Sim:1h19m23s) 
CPU  0 inst:  374000005 cyc:  218710193 now IPC :1.76700: AVG IPC :1.70858: L2-Pf-HR :0.90431: L2-HR :0.81494: (Sim:1h19m31s) 
CPU  0 inst:  375000000 cyc:  219264683 now IPC :1.80345: AVG IPC :1.70882: L2-Pf-HR :0.90436: L2-HR :0.81505: (Sim:1h19m39s) 
CPU  0 inst:  376000001 cyc:  219827424 now IPC :1.77702: AVG IPC :1.70900: L2-Pf-HR :0.90442: L2-HR :0.81512: (Sim:1h19m46s) 
CPU  0 inst:  377000005 cyc:  220395682 now IPC :1.75977: AVG IPC :1.70913: L2-Pf-HR :0.90448: L2-HR :0.81519: (Sim:1h19m53s) 
CPU  0 inst:  378000001 cyc:  220964484 now IPC :1.75807: AVG IPC :1.70925: L2-Pf-HR :0.90453: L2-HR :0.81524: (Sim:1h20m1s) 
CPU  0 inst:  379000005 cyc:  221644485 now IPC :1.47059: AVG IPC :1.70852: L2-Pf-HR :0.90412: L2-HR :0.81504: (Sim:1h20m9s) 
CPU  0 inst:  380000004 cyc:  222266330 now IPC :1.60812: AVG IPC :1.70824: L2-Pf-HR :0.90410: L2-HR :0.81500: (Sim:1h20m17s) 
CPU  0 inst:  381000001 cyc:  222864061 now IPC :1.67299: AVG IPC :1.70814: L2-Pf-HR :0.90408: L2-HR :0.81497: (Sim:1h20m24s) 
CPU  0 inst:  382000002 cyc:  223462063 now IPC :1.67224: AVG IPC :1.70804: L2-Pf-HR :0.90406: L2-HR :0.81494: (Sim:1h20m32s) 
CPU  0 inst:  383000002 cyc:  224054641 now IPC :1.68754: AVG IPC :1.70799: L2-Pf-HR :0.90406: L2-HR :0.81492: (Sim:1h20m40s) 
CPU  0 inst:  384000000 cyc:  224652169 now IPC :1.67356: AVG IPC :1.70790: L2-Pf-HR :0.90407: L2-HR :0.81494: (Sim:1h20m47s) 
CPU  0 inst:  385000001 cyc:  225217930 now IPC :1.76753: AVG IPC :1.70805: L2-Pf-HR :0.90403: L2-HR :0.81492: (Sim:1h20m55s) 
CPU  0 inst:  386000005 cyc:  225816371 now IPC :1.67102: AVG IPC :1.70795: L2-Pf-HR :0.90402: L2-HR :0.81490: (Sim:1h21m3s) 
CPU  0 inst:  387000001 cyc:  226413128 now IPC :1.67572: AVG IPC :1.70786: L2-Pf-HR :0.90400: L2-HR :0.81487: (Sim:1h21m10s) 
CPU  0 inst:  388000000 cyc:  227005603 now IPC :1.68783: AVG IPC :1.70781: L2-Pf-HR :0.90399: L2-HR :0.81485: (Sim:1h21m18s) 
CPU  0 inst:  389000004 cyc:  227605053 now IPC :1.66820: AVG IPC :1.70771: L2-Pf-HR :0.90398: L2-HR :0.81482: (Sim:1h21m26s) 
CPU  0 inst:  390000001 cyc:  228194097 now IPC :1.69766: AVG IPC :1.70768: L2-Pf-HR :0.90397: L2-HR :0.81479: (Sim:1h21m33s) 
CPU  0 inst:  391000000 cyc:  228879578 now IPC :1.45883: AVG IPC :1.70693: L2-Pf-HR :0.90369: L2-HR :0.81469: (Sim:1h21m41s) 
CPU  0 inst:  392000002 cyc:  229477398 now IPC :1.67275: AVG IPC :1.70684: L2-Pf-HR :0.90375: L2-HR :0.81468: (Sim:1h21m49s) 
CPU  0 inst:  393000001 cyc:  230049726 now IPC :1.74725: AVG IPC :1.70694: L2-Pf-HR :0.90380: L2-HR :0.81468: (Sim:1h21m56s) 
CPU  0 inst:  394000005 cyc:  230620453 now IPC :1.75216: AVG IPC :1.70706: L2-Pf-HR :0.90386: L2-HR :0.81469: (Sim:1h22m3s) 
CPU  0 inst:  395000000 cyc:  231191850 now IPC :1.75009: AVG IPC :1.70716: L2-Pf-HR :0.90392: L2-HR :0.81469: (Sim:1h22m11s) 
CPU  0 inst:  396000001 cyc:  231763677 now IPC :1.74878: AVG IPC :1.70727: L2-Pf-HR :0.90401: L2-HR :0.81475: (Sim:1h22m18s) 
CPU  0 inst:  397000000 cyc:  232310169 now IPC :1.82985: AVG IPC :1.70756: L2-Pf-HR :0.90405: L2-HR :0.81477: (Sim:1h22m26s) 
CPU  0 inst:  398000003 cyc:  232882129 now IPC :1.74838: AVG IPC :1.70766: L2-Pf-HR :0.90411: L2-HR :0.81479: (Sim:1h22m33s) 
CPU  0 inst:  399000000 cyc:  233453037 now IPC :1.75159: AVG IPC :1.70776: L2-Pf-HR :0.90417: L2-HR :0.81479: (Sim:1h22m41s) 
CPU  0 inst:  400000003 cyc:  234023033 now IPC :1.75440: AVG IPC :1.70788: L2-Pf-HR :0.90423: L2-HR :0.81480: (Sim:1h22m48s) 
CPU  0 inst:  401000000 cyc:  234592851 now IPC :1.75494: AVG IPC :1.70799: L2-Pf-HR :0.90429: L2-HR :0.81481: (Sim:1h22m56s) 
CPU  0 inst:  402000004 cyc:  235161781 now IPC :1.75769: AVG IPC :1.70811: L2-Pf-HR :0.90432: L2-HR :0.81479: (Sim:1h23m3s) 
CPU  0 inst:  403000005 cyc:  235821897 now IPC :1.51489: AVG IPC :1.70757: L2-Pf-HR :0.90417: L2-HR :0.81477: (Sim:1h23m11s) 
CPU  0 inst:  404000005 cyc:  236387021 now IPC :1.76952: AVG IPC :1.70772: L2-Pf-HR :0.90422: L2-HR :0.81482: (Sim:1h23m19s) 
CPU  0 inst:  405000001 cyc:  236954500 now IPC :1.76217: AVG IPC :1.70785: L2-Pf-HR :0.90427: L2-HR :0.81488: (Sim:1h23m26s) 
CPU  0 inst:  406000005 cyc:  237524302 now IPC :1.75500: AVG IPC :1.70796: L2-Pf-HR :0.90434: L2-HR :0.81497: (Sim:1h23m33s) 
CPU  0 inst:  407000003 cyc:  238074776 now IPC :1.81661: AVG IPC :1.70822: L2-Pf-HR :0.90438: L2-HR :0.81509: (Sim:1h23m41s) 
CPU  0 inst:  408000002 cyc:  238643991 now IPC :1.75680: AVG IPC :1.70833: L2-Pf-HR :0.90443: L2-HR :0.81515: (Sim:1h23m48s) 
CPU  0 inst:  409000003 cyc:  239214213 now IPC :1.75370: AVG IPC :1.70844: L2-Pf-HR :0.90449: L2-HR :0.81522: (Sim:1h23m56s) 
CPU  0 inst:  410000002 cyc:  239781207 now IPC :1.76369: AVG IPC :1.70857: L2-Pf-HR :0.90450: L2-HR :0.81527: (Sim:1h24m3s) 
CPU  0 inst:  411000002 cyc:  240509465 now IPC :1.37314: AVG IPC :1.70755: L2-Pf-HR :0.90412: L2-HR :0.81506: (Sim:1h24m12s) 
CPU  0 inst:  412000005 cyc:  241103886 now IPC :1.68231: AVG IPC :1.70749: L2-Pf-HR :0.90410: L2-HR :0.81503: (Sim:1h24m19s) 
CPU  0 inst:  413000005 cyc:  241700361 now IPC :1.67652: AVG IPC :1.70741: L2-Pf-HR :0.90409: L2-HR :0.81499: (Sim:1h24m27s) 
CPU  0 inst:  414000001 cyc:  242289711 now IPC :1.69678: AVG IPC :1.70739: L2-Pf-HR :0.90409: L2-HR :0.81497: (Sim:1h24m35s) 
CPU  0 inst:  415000002 cyc:  242882375 now IPC :1.68730: AVG IPC :1.70734: L2-Pf-HR :0.90407: L2-HR :0.81495: (Sim:1h24m42s) 
CPU  0 inst:  416000004 cyc:  243472014 now IPC :1.69596: AVG IPC :1.70731: L2-Pf-HR :0.90410: L2-HR :0.81499: (Sim:1h24m50s) 
CPU  0 inst:  417000003 cyc:  244041468 now IPC :1.75607: AVG IPC :1.70743: L2-Pf-HR :0.90405: L2-HR :0.81497: (Sim:1h24m58s) 
CPU  0 inst:  418000001 cyc:  244633846 now IPC :1.68811: AVG IPC :1.70738: L2-Pf-HR :0.90403: L2-HR :0.81494: (Sim:1h25m5s) 
CPU  0 inst:  419000002 cyc:  245224918 now IPC :1.69184: AVG IPC :1.70734: L2-Pf-HR :0.90403: L2-HR :0.81492: (Sim:1h25m13s) 
CPU  0 inst:  420000000 cyc:  245821211 now IPC :1.67702: AVG IPC :1.70727: L2-Pf-HR :0.90401: L2-HR :0.81490: (Sim:1h25m21s) 
CPU  0 inst:  421000000 cyc:  246413960 now IPC :1.68705: AVG IPC :1.70722: L2-Pf-HR :0.90400: L2-HR :0.81487: (Sim:1h25m28s) 
CPU  0 inst:  422000001 cyc:  246989237 now IPC :1.73829: AVG IPC :1.70729: L2-Pf-HR :0.90396: L2-HR :0.81485: (Sim:1h25m36s) 
CPU  0 inst:  423000002 cyc:  247706178 now IPC :1.39482: AVG IPC :1.70638: L2-Pf-HR :0.90374: L2-HR :0.81474: (Sim:1h25m44s) 
CPU  0 inst:  424000005 cyc:  248280407 now IPC :1.74147: AVG IPC :1.70646: L2-Pf-HR :0.90379: L2-HR :0.81474: (Sim:1h25m52s) 
CPU  0 inst:  425000005 cyc:  248848180 now IPC :1.76127: AVG IPC :1.70659: L2-Pf-HR :0.90385: L2-HR :0.81474: (Sim:1h25m59s) 
CPU  0 inst:  426000005 cyc:  249417202 now IPC :1.75740: AVG IPC :1.70671: L2-Pf-HR :0.90390: L2-HR :0.81475: (Sim:1h26m7s) 
CPU  0 inst:  427000001 cyc:  249983650 now IPC :1.76538: AVG IPC :1.70684: L2-Pf-HR :0.90396: L2-HR :0.81476: (Sim:1h26m14s) 
CPU  0 inst:  428000003 cyc:  250553093 now IPC :1.75611: AVG IPC :1.70695: L2-Pf-HR :0.90403: L2-HR :0.81481: (Sim:1h26m22s) 
CPU  0 inst:  429000005 cyc:  251097067 now IPC :1.83833: AVG IPC :1.70724: L2-Pf-HR :0.90407: L2-HR :0.81482: (Sim:1h26m30s) 
CPU  0 inst:  430000000 cyc:  251661919 now IPC :1.77037: AVG IPC :1.70738: L2-Pf-HR :0.90412: L2-HR :0.81482: (Sim:1h26m37s) 
CPU  0 inst:  431000005 cyc:  252227956 now IPC :1.76668: AVG IPC :1.70751: L2-Pf-HR :0.90418: L2-HR :0.81483: (Sim:1h26m45s) 
CPU  0 inst:  432000004 cyc:  252794442 now IPC :1.76527: AVG IPC :1.70764: L2-Pf-HR :0.90424: L2-HR :0.81483: (Sim:1h26m52s) 
CPU  0 inst:  433000004 cyc:  253358948 now IPC :1.77146: AVG IPC :1.70779: L2-Pf-HR :0.90429: L2-HR :0.81483: (Sim:1h27m0s) 
CPU  0 inst:  434000003 cyc:  253918451 now IPC :1.78730: AVG IPC :1.70796: L2-Pf-HR :0.90433: L2-HR :0.81485: (Sim:1h27m7s) 
CPU  0 inst:  435000004 cyc:  254574708 now IPC :1.52379: AVG IPC :1.70749: L2-Pf-HR :0.90419: L2-HR :0.81481: (Sim:1h27m15s) 
CPU  0 inst:  436000002 cyc:  255133779 now IPC :1.78868: AVG IPC :1.70766: L2-Pf-HR :0.90424: L2-HR :0.81487: (Sim:1h27m23s) 
CPU  0 inst:  437000001 cyc:  255694267 now IPC :1.78416: AVG IPC :1.70783: L2-Pf-HR :0.90429: L2-HR :0.81492: (Sim:1h27m30s) 
CPU  0 inst:  438000001 cyc:  256258881 now IPC :1.77112: AVG IPC :1.70797: L2-Pf-HR :0.90432: L2-HR :0.81500: (Sim:1h27m38s) 
CPU  0 inst:  439000001 cyc:  256803928 now IPC :1.83470: AVG IPC :1.70824: L2-Pf-HR :0.90438: L2-HR :0.81510: (Sim:1h27m45s) 
CPU  0 inst:  440000003 cyc:  257367119 now IPC :1.77560: AVG IPC :1.70839: L2-Pf-HR :0.90443: L2-HR :0.81516: (Sim:1h27m53s) 
CPU  0 inst:  441000004 cyc:  257929265 now IPC :1.77890: AVG IPC :1.70854: L2-Pf-HR :0.90447: L2-HR :0.81521: (Sim:1h28m0s) 
CPU  0 inst:  442000003 cyc:  258526054 now IPC :1.67563: AVG IPC :1.70847: L2-Pf-HR :0.90436: L2-HR :0.81523: (Sim:1h28m8s) 
CPU  0 inst:  443000005 cyc:  259210184 now IPC :1.46171: AVG IPC :1.70781: L2-Pf-HR :0.90409: L2-HR :0.81502: (Sim:1h28m16s) 
CPU  0 inst:  444000000 cyc:  259809270 now IPC :1.66920: AVG IPC :1.70773: L2-Pf-HR :0.90407: L2-HR :0.81498: (Sim:1h28m24s) 
CPU  0 inst:  445000002 cyc:  260397064 now IPC :1.70128: AVG IPC :1.70771: L2-Pf-HR :0.90407: L2-HR :0.81497: (Sim:1h28m32s) 
CPU  0 inst:  446000001 cyc:  260990205 now IPC :1.68594: AVG IPC :1.70766: L2-Pf-HR :0.90406: L2-HR :0.81494: (Sim:1h28m39s) 
CPU  0 inst:  447000000 cyc:  261581311 now IPC :1.69174: AVG IPC :1.70762: L2-Pf-HR :0.90406: L2-HR :0.81494: (Sim:1h28m47s) 
CPU  0 inst:  448000005 cyc:  262168415 now IPC :1.70328: AVG IPC :1.70762: L2-Pf-HR :0.90402: L2-HR :0.81493: (Sim:1h28m55s) 
CPU  0 inst:  449000004 cyc:  262750130 now IPC :1.71905: AVG IPC :1.70764: L2-Pf-HR :0.90401: L2-HR :0.81492: (Sim:1h29m2s) 
CPU  0 inst:  450000004 cyc:  263341613 now IPC :1.69067: AVG IPC :1.70760: L2-Pf-HR :0.90400: L2-HR :0.81490: (Sim:1h29m10s) 
CPU  0 inst:  451000003 cyc:  263936168 now IPC :1.68193: AVG IPC :1.70754: L2-Pf-HR :0.90398: L2-HR :0.81488: (Sim:1h29m18s) 
CPU  0 inst:  452000001 cyc:  264523828 now IPC :1.70166: AVG IPC :1.70753: L2-Pf-HR :0.90398: L2-HR :0.81486: (Sim:1h29m25s) 
CPU  0 inst:  453000004 cyc:  265119625 now IPC :1.67843: AVG IPC :1.70747: L2-Pf-HR :0.90396: L2-HR :0.81483: (Sim:1h29m33s) 
CPU  0 inst:  454000003 cyc:  265796396 now IPC :1.47760: AVG IPC :1.70688: L2-Pf-HR :0.90371: L2-HR :0.81473: (Sim:1h29m41s) 
CPU  0 inst:  455000005 cyc:  266412803 now IPC :1.62231: AVG IPC :1.70668: L2-Pf-HR :0.90375: L2-HR :0.81472: (Sim:1h29m49s) 
CPU  0 inst:  456000005 cyc:  266986348 now IPC :1.74354: AVG IPC :1.70676: L2-Pf-HR :0.90381: L2-HR :0.81473: (Sim:1h29m56s) 
CPU  0 inst:  457000001 cyc:  267558062 now IPC :1.74912: AVG IPC :1.70685: L2-Pf-HR :0.90385: L2-HR :0.81473: (Sim:1h30m4s) 
CPU  0 inst:  458000001 cyc:  268128959 now IPC :1.75163: AVG IPC :1.70695: L2-Pf-HR :0.90391: L2-HR :0.81473: (Sim:1h30m12s) 
CPU  0 inst:  459000004 cyc:  268698690 now IPC :1.75522: AVG IPC :1.70705: L2-Pf-HR :0.90398: L2-HR :0.81478: (Sim:1h30m19s) 
CPU  0 inst:  460000000 cyc:  269244622 now IPC :1.83172: AVG IPC :1.70730: L2-Pf-HR :0.90400: L2-HR :0.81479: (Sim:1h30m27s) 
CPU  0 inst:  461000005 cyc:  269819114 now IPC :1.74068: AVG IPC :1.70738: L2-Pf-HR :0.90406: L2-HR :0.81481: (Sim:1h30m34s) 
CPU  0 inst:  462000005 cyc:  270387668 now IPC :1.75885: AVG IPC :1.70748: L2-Pf-HR :0.90412: L2-HR :0.81482: (Sim:1h30m42s) 
CPU  0 inst:  463000005 cyc:  270955753 now IPC :1.76030: AVG IPC :1.70759: L2-Pf-HR :0.90417: L2-HR :0.81482: (Sim:1h30m49s) 
CPU  0 inst:  464000005 cyc:  271521843 now IPC :1.76650: AVG IPC :1.70772: L2-Pf-HR :0.90422: L2-HR :0.81483: (Sim:1h30m57s) 
CPU  0 inst:  465000005 cyc:  272079025 now IPC :1.79475: AVG IPC :1.70790: L2-Pf-HR :0.90423: L2-HR :0.81483: (Sim:1h31m4s) 
CPU  0 inst:  466000005 cyc:  272741621 now IPC :1.50922: AVG IPC :1.70741: L2-Pf-HR :0.90410: L2-HR :0.81479: (Sim:1h31m12s) 
CPU  0 inst:  467000004 cyc:  273306645 now IPC :1.76983: AVG IPC :1.70754: L2-Pf-HR :0.90414: L2-HR :0.81483: (Sim:1h31m20s) 
CPU  0 inst:  468000000 cyc:  273873086 now IPC :1.76540: AVG IPC :1.70766: L2-Pf-HR :0.90419: L2-HR :0.81490: (Sim:1h31m27s) 
CPU  0 inst:  469000003 cyc:  274439506 now IPC :1.76548: AVG IPC :1.70778: L2-Pf-HR :0.90424: L2-HR :0.81497: (Sim:1h31m35s) 
CPU  0 inst:  470000003 cyc:  274987609 now IPC :1.82447: AVG IPC :1.70802: L2-Pf-HR :0.90428: L2-HR :0.81507: (Sim:1h31m42s) 
CPU  0 inst:  471000000 cyc:  275555116 now IPC :1.76209: AVG IPC :1.70813: L2-Pf-HR :0.90432: L2-HR :0.81513: (Sim:1h31m50s) 
CPU  0 inst:  472000004 cyc:  276121580 now IPC :1.76534: AVG IPC :1.70825: L2-Pf-HR :0.90437: L2-HR :0.81520: (Sim:1h31m57s) 
CPU  0 inst:  473000001 cyc:  276688730 now IPC :1.76320: AVG IPC :1.70836: L2-Pf-HR :0.90442: L2-HR :0.81525: (Sim:1h32m5s) 
CPU  0 inst:  474000000 cyc:  277418342 now IPC :1.37059: AVG IPC :1.70747: L2-Pf-HR :0.90408: L2-HR :0.81507: (Sim:1h32m13s) 
CPU  0 inst:  475000005 cyc:  278018244 now IPC :1.66695: AVG IPC :1.70738: L2-Pf-HR :0.90406: L2-HR :0.81503: (Sim:1h32m21s) 
CPU  0 inst:  476000005 cyc:  278606779 now IPC :1.69913: AVG IPC :1.70736: L2-Pf-HR :0.90406: L2-HR :0.81501: (Sim:1h32m29s) 
CPU  0 inst:  477000001 cyc:  279204896 now IPC :1.67191: AVG IPC :1.70729: L2-Pf-HR :0.90404: L2-HR :0.81498: (Sim:1h32m36s) 
CPU  0 inst:  478000000 cyc:  279798044 now IPC :1.68592: AVG IPC :1.70724: L2-Pf-HR :0.90403: L2-HR :0.81496: (Sim:1h32m44s) 
CPU  0 inst:  479000002 cyc:  280398092 now IPC :1.66654: AVG IPC :1.70715: L2-Pf-HR :0.90404: L2-HR :0.81500: (Sim:1h33m0s) 
CPU  0 inst:  480000004 cyc:  280966769 now IPC :1.75847: AVG IPC :1.70726: L2-Pf-HR :0.90398: L2-HR :0.81497: (Sim:1h33m17s) 
CPU  0 inst:  481000000 cyc:  281561088 now IPC :1.68259: AVG IPC :1.70720: L2-Pf-HR :0.90398: L2-HR :0.81496: (Sim:1h33m33s) 
CPU  0 inst:  482000005 cyc:  282160498 now IPC :1.66832: AVG IPC :1.70712: L2-Pf-HR :0.90396: L2-HR :0.81493: (Sim:1h33m44s) 
CPU  0 inst:  483000001 cyc:  282751582 now IPC :1.69180: AVG IPC :1.70709: L2-Pf-HR :0.90395: L2-HR :0.81491: (Sim:1h33m52s) 
CPU  0 inst:  484000002 cyc:  283346039 now IPC :1.68221: AVG IPC :1.70704: L2-Pf-HR :0.90394: L2-HR :0.81489: (Sim:1h33m59s) 
CPU  0 inst:  485000002 cyc:  283939008 now IPC :1.68643: AVG IPC :1.70699: L2-Pf-HR :0.90390: L2-HR :0.81485: (Sim:1h34m7s) 
CPU  0 inst:  486000004 cyc:  284649504 now IPC :1.40747: AVG IPC :1.70624: L2-Pf-HR :0.90373: L2-HR :0.81478: (Sim:1h34m15s) 
CPU  0 inst:  487000005 cyc:  285229024 now IPC :1.72557: AVG IPC :1.70628: L2-Pf-HR :0.90378: L2-HR :0.81478: (Sim:1h34m23s) 
CPU  0 inst:  488000004 cyc:  285801362 now IPC :1.74722: AVG IPC :1.70637: L2-Pf-HR :0.90381: L2-HR :0.81478: (Sim:1h34m30s) 
CPU  0 inst:  489000004 cyc:  286375174 now IPC :1.74273: AVG IPC :1.70644: L2-Pf-HR :0.90387: L2-HR :0.81478: (Sim:1h34m38s) 
CPU  0 inst:  490000002 cyc:  286947018 now IPC :1.74873: AVG IPC :1.70652: L2-Pf-HR :0.90392: L2-HR :0.81479: (Sim:1h34m46s) 
CPU  0 inst:  491000003 cyc:  287520415 now IPC :1.74399: AVG IPC :1.70660: L2-Pf-HR :0.90398: L2-HR :0.81484: (Sim:1h34m53s) 
CPU  0 inst:  492000003 cyc:  288069604 now IPC :1.82087: AVG IPC :1.70682: L2-Pf-HR :0.90401: L2-HR :0.81485: (Sim:1h35m1s) 
CPU  0 inst:  493000000 cyc:  288642148 now IPC :1.74659: AVG IPC :1.70690: L2-Pf-HR :0.90407: L2-HR :0.81486: (Sim:1h35m9s) 
CPU  0 inst:  494000001 cyc:  289214526 now IPC :1.74710: AVG IPC :1.70698: L2-Pf-HR :0.90411: L2-HR :0.81486: (Sim:1h35m26s) 
CPU  0 inst:  495000000 cyc:  289783725 now IPC :1.75685: AVG IPC :1.70707: L2-Pf-HR :0.90417: L2-HR :0.81488: (Sim:1h35m42s) 
CPU  0 inst:  496000003 cyc:  290354028 now IPC :1.75346: AVG IPC :1.70717: L2-Pf-HR :0.90422: L2-HR :0.81488: (Sim:1h35m59s) 
CPU  0 inst:  497000004 cyc:  290905278 now IPC :1.81406: AVG IPC :1.70737: L2-Pf-HR :0.90424: L2-HR :0.81489: (Sim:1h36m15s) 
CPU  0 inst:  498000000 cyc:  291584236 now IPC :1.47284: AVG IPC :1.70682: L2-Pf-HR :0.90412: L2-HR :0.81487: (Sim:1h36m32s) 
CPU  0 inst:  499000004 cyc:  292151432 now IPC :1.76307: AVG IPC :1.70693: L2-Pf-HR :0.90415: L2-HR :0.81491: (Sim:1h36m49s) 
CPU  0 inst:  500000000 cyc:  292720187 now IPC :1.75822: AVG IPC :1.70703: L2-Pf-HR :0.90419: L2-HR :0.81495: (Sim:1h37m5s) 
CPU  0 inst:  501000005 cyc:  293290604 now IPC :1.75311: AVG IPC :1.70712: L2-Pf-HR :0.90424: L2-HR :0.81503: (Sim:1h37m22s) 
CPU  0 inst:  502000005 cyc:  293840698 now IPC :1.81787: AVG IPC :1.70733: L2-Pf-HR :0.90428: L2-HR :0.81510: (Sim:1h37m39s) 
CPU  0 inst:  503000001 cyc:  294412652 now IPC :1.74839: AVG IPC :1.70741: L2-Pf-HR :0.90432: L2-HR :0.81515: (Sim:1h37m55s) 
CPU  0 inst:  504000003 cyc:  294983488 now IPC :1.75182: AVG IPC :1.70749: L2-Pf-HR :0.90436: L2-HR :0.81520: (Sim:1h38m12s) 
CPU  0 inst:  505000004 cyc:  295543291 now IPC :1.78634: AVG IPC :1.70764: L2-Pf-HR :0.90439: L2-HR :0.81526: (Sim:1h38m29s) 
CPU  0 inst:  506000001 cyc:  300425069 now IPC :0.20484: AVG IPC :1.68314: L2-Pf-HR :0.90112: L2-HR :0.81021: (Sim:1h39m15s) 
CPU  0 inst:  507000000 cyc:  305858561 now IPC :0.18404: AVG IPC :1.65643: L2-Pf-HR :0.89730: L2-HR :0.80477: (Sim:1h40m6s) 
CPU  0 inst:  508000002 cyc:  311293344 now IPC :0.18400: AVG IPC :1.63064: L2-Pf-HR :0.89351: L2-HR :0.79955: (Sim:1h40m57s) 
CPU  0 inst:  509000001 cyc:  316729122 now IPC :0.18397: AVG IPC :1.60573: L2-Pf-HR :0.88978: L2-HR :0.79453: (Sim:1h41m48s) 
CPU  0 inst:  510000000 cyc:  322165191 now IPC :0.18396: AVG IPC :1.58167: L2-Pf-HR :0.88608: L2-HR :0.78970: (Sim:1h42m39s) 
CPU  0 inst:  511000004 cyc:  327602122 now IPC :0.18393: AVG IPC :1.55840: L2-Pf-HR :0.88243: L2-HR :0.78505: (Sim:1h43m30s) 
CPU  0 inst:  512000004 cyc:  333038705 now IPC :0.18394: AVG IPC :1.53590: L2-Pf-HR :0.87884: L2-HR :0.78058: (Sim:1h44m21s) 
CPU  0 inst:  513000002 cyc:  338474922 now IPC :0.18395: AVG IPC :1.51412: L2-Pf-HR :0.87529: L2-HR :0.77626: (Sim:1h45m12s) 
CPU  0 inst:  514000001 cyc:  343912201 now IPC :0.18392: AVG IPC :1.49303: L2-Pf-HR :0.87177: L2-HR :0.77210: (Sim:1h46m3s) 
CPU  0 inst:  515000001 cyc:  348686939 now IPC :0.20944: AVG IPC :1.47540: L2-Pf-HR :0.86937: L2-HR :0.76941: (Sim:1h46m48s) 
CPU  0 inst:  516000004 cyc:  352417850 now IPC :0.26803: AVG IPC :1.46259: L2-Pf-HR :0.86831: L2-HR :0.76864: (Sim:1h47m24s) 
CPU  0 inst:  517000004 cyc:  356147924 now IPC :0.26809: AVG IPC :1.45004: L2-Pf-HR :0.86725: L2-HR :0.76786: (Sim:1h48m1s) 
CPU  0 inst:  518000000 cyc:  359877012 now IPC :0.26816: AVG IPC :1.43776: L2-Pf-HR :0.86619: L2-HR :0.76709: (Sim:1h48m37s) 
CPU  0 inst:  519000003 cyc:  363603820 now IPC :0.26833: AVG IPC :1.42574: L2-Pf-HR :0.86513: L2-HR :0.76632: (Sim:1h49m14s) 
CPU  0 inst:  520000002 cyc:  367330161 now IPC :0.26836: AVG IPC :1.41397: L2-Pf-HR :0.86407: L2-HR :0.76555: (Sim:1h49m50s) 
CPU  0 inst:  521000000 cyc:  371056321 now IPC :0.26837: AVG IPC :1.40243: L2-Pf-HR :0.86301: L2-HR :0.76478: (Sim:1h50m26s) 
CPU  0 inst:  522000005 cyc:  374785937 now IPC :0.26813: AVG IPC :1.39112: L2-Pf-HR :0.86197: L2-HR :0.76402: (Sim:1h51m3s) 
CPU  0 inst:  523000005 cyc:  378516697 now IPC :0.26804: AVG IPC :1.38002: L2-Pf-HR :0.86092: L2-HR :0.76326: (Sim:1h51m39s) 
CPU  0 inst:  524000002 cyc:  382244306 now IPC :0.26827: AVG IPC :1.36915: L2-Pf-HR :0.85987: L2-HR :0.76251: (Sim:1h52m16s) 
CPU  0 inst:  525000000 cyc:  385971403 now IPC :0.26830: AVG IPC :1.35849: L2-Pf-HR :0.85883: L2-HR :0.76175: (Sim:1h52m52s) 
CPU  0 inst:  526000000 cyc:  389698727 now IPC :0.26829: AVG IPC :1.34804: L2-Pf-HR :0.85778: L2-HR :0.76100: (Sim:1h53m28s) 
CPU  0 inst:  527000000 cyc:  393425143 now IPC :0.26835: AVG IPC :1.33779: L2-Pf-HR :0.85674: L2-HR :0.76025: (Sim:1h54m5s) 
CPU  0 inst:  528000002 cyc:  397153183 now IPC :0.26824: AVG IPC :1.32772: L2-Pf-HR :0.85571: L2-HR :0.75950: (Sim:1h54m41s) 
CPU  0 inst:  529000000 cyc:  400881746 now IPC :0.26820: AVG IPC :1.31784: L2-Pf-HR :0.85468: L2-HR :0.75876: (Sim:1h55m18s) 
CPU  0 inst:  530000001 cyc:  404612983 now IPC :0.26801: AVG IPC :1.30814: L2-Pf-HR :0.85365: L2-HR :0.75802: (Sim:1h55m54s) 
CPU  0 inst:  531000000 cyc:  408341396 now IPC :0.26821: AVG IPC :1.29862: L2-Pf-HR :0.85262: L2-HR :0.75728: (Sim:1h56m30s) 
CPU  0 inst:  532000002 cyc:  412068002 now IPC :0.26834: AVG IPC :1.28928: L2-Pf-HR :0.85159: L2-HR :0.75655: (Sim:1h57m7s) 
CPU  0 inst:  533000004 cyc:  415794427 now IPC :0.26835: AVG IPC :1.28011: L2-Pf-HR :0.85057: L2-HR :0.75581: (Sim:1h57m43s) 
CPU  0 inst:  534000004 cyc:  419520971 now IPC :0.26835: AVG IPC :1.27110: L2-Pf-HR :0.84955: L2-HR :0.75508: (Sim:1h58m19s) 
CPU  0 inst:  535000000 cyc:  423248395 now IPC :0.26828: AVG IPC :1.26225: L2-Pf-HR :0.84853: L2-HR :0.75435: (Sim:1h58m56s) 
CPU  0 inst:  536000005 cyc:  426974714 now IPC :0.26836: AVG IPC :1.25355: L2-Pf-HR :0.84751: L2-HR :0.75363: (Sim:1h59m32s) 
CPU  0 inst:  537000005 cyc:  430702998 now IPC :0.26822: AVG IPC :1.24500: L2-Pf-HR :0.84650: L2-HR :0.75291: (Sim:2h0m8s) 
CPU  0 inst:  538000004 cyc:  434431451 now IPC :0.26821: AVG IPC :1.23660: L2-Pf-HR :0.84549: L2-HR :0.75219: (Sim:2h0m45s) 
CPU  0 inst:  539000000 cyc:  438158048 now IPC :0.26834: AVG IPC :1.22835: L2-Pf-HR :0.84448: L2-HR :0.75147: (Sim:2h1m21s) 
CPU  0 inst:  540000003 cyc:  441886044 now IPC :0.26824: AVG IPC :1.22023: L2-Pf-HR :0.84347: L2-HR :0.75075: (Sim:2h1m57s) 
CPU  0 inst:  541000002 cyc:  445613313 now IPC :0.26829: AVG IPC :1.21225: L2-Pf-HR :0.84247: L2-HR :0.75004: (Sim:2h2m34s) 
CPU  0 inst:  542000000 cyc:  449340550 now IPC :0.26829: AVG IPC :1.20440: L2-Pf-HR :0.84147: L2-HR :0.74933: (Sim:2h3m10s) 
CPU  0 inst:  543000000 cyc:  453068008 now IPC :0.26828: AVG IPC :1.19668: L2-Pf-HR :0.84046: L2-HR :0.74862: (Sim:2h3m46s) 
CPU  0 inst:  544000002 cyc:  456796650 now IPC :0.26819: AVG IPC :1.18909: L2-Pf-HR :0.83947: L2-HR :0.74791: (Sim:2h4m23s) 
CPU  0 inst:  545000001 cyc:  460527687 now IPC :0.26802: AVG IPC :1.18161: L2-Pf-HR :0.83848: L2-HR :0.74721: (Sim:2h4m59s) 
CPU  0 inst:  546000000 cyc:  464256088 now IPC :0.26821: AVG IPC :1.17426: L2-Pf-HR :0.83749: L2-HR :0.74651: (Sim:2h5m35s) 
CPU  0 inst:  547000000 cyc:  467983768 now IPC :0.26826: AVG IPC :1.16703: L2-Pf-HR :0.83650: L2-HR :0.74581: (Sim:2h6m12s) 
CPU  0 inst:  548000000 cyc:  471709398 now IPC :0.26841: AVG IPC :1.15992: L2-Pf-HR :0.83551: L2-HR :0.74511: (Sim:2h6m48s) 
CPU  0 inst:  549000002 cyc:  475435825 now IPC :0.26835: AVG IPC :1.15291: L2-Pf-HR :0.83452: L2-HR :0.74442: (Sim:2h7m24s) 
CPU  0 inst:  550000004 cyc:  479163271 now IPC :0.26828: AVG IPC :1.14602: L2-Pf-HR :0.83354: L2-HR :0.74373: (Sim:2h8m0s) 
CPU  0 inst:  551000002 cyc:  482890157 now IPC :0.26832: AVG IPC :1.13923: L2-Pf-HR :0.83256: L2-HR :0.74304: (Sim:2h8m36s) 
CPU  0 inst:  552000000 cyc:  486619226 now IPC :0.26816: AVG IPC :1.13254: L2-Pf-HR :0.83158: L2-HR :0.74235: (Sim:2h9m12s) 
CPU  0 inst:  553000000 cyc:  490348484 now IPC :0.26815: AVG IPC :1.12595: L2-Pf-HR :0.83061: L2-HR :0.74167: (Sim:2h9m48s) 
CPU  0 inst:  554000004 cyc:  494075914 now IPC :0.26828: AVG IPC :1.11947: L2-Pf-HR :0.82963: L2-HR :0.74098: (Sim:2h10m24s) 
CPU  0 inst:  555000004 cyc:  497803196 now IPC :0.26829: AVG IPC :1.11308: L2-Pf-HR :0.82866: L2-HR :0.74030: (Sim:2h11m0s) 
CPU  0 inst:  556000000 cyc:  501529489 now IPC :0.26836: AVG IPC :1.10680: L2-Pf-HR :0.82769: L2-HR :0.73962: (Sim:2h11m36s) 
CPU  0 inst:  557000003 cyc:  505256786 now IPC :0.26829: AVG IPC :1.10060: L2-Pf-HR :0.82672: L2-HR :0.73895: (Sim:2h12m12s) 
CPU  0 inst:  558000002 cyc:  508984378 now IPC :0.26827: AVG IPC :1.09449: L2-Pf-HR :0.82576: L2-HR :0.73827: (Sim:2h12m48s) 
CPU  0 inst:  559000001 cyc:  512713691 now IPC :0.26815: AVG IPC :1.08847: L2-Pf-HR :0.82480: L2-HR :0.73760: (Sim:2h13m24s) 
CPU  0 inst:  560000001 cyc:  516444621 now IPC :0.26803: AVG IPC :1.08253: L2-Pf-HR :0.82384: L2-HR :0.73693: (Sim:2h14m0s) 
CPU  0 inst:  561000003 cyc:  520171180 now IPC :0.26834: AVG IPC :1.07669: L2-Pf-HR :0.82288: L2-HR :0.73627: (Sim:2h14m36s) 
CPU  0 inst:  562000002 cyc:  523898354 now IPC :0.26830: AVG IPC :1.07092: L2-Pf-HR :0.82192: L2-HR :0.73560: (Sim:2h15m13s) 
CPU  0 inst:  563000000 cyc:  527625821 now IPC :0.26828: AVG IPC :1.06524: L2-Pf-HR :0.82097: L2-HR :0.73494: (Sim:2h15m51s) 
CPU  0 inst:  564000000 cyc:  531353120 now IPC :0.26829: AVG IPC :1.05964: L2-Pf-HR :0.82002: L2-HR :0.73428: (Sim:2h16m30s) 
CPU  0 inst:  565000000 cyc:  535079779 now IPC :0.26834: AVG IPC :1.05412: L2-Pf-HR :0.81907: L2-HR :0.73362: (Sim:2h17m7s) 
CPU  0 inst:  566000001 cyc:  538808279 now IPC :0.26820: AVG IPC :1.04867: L2-Pf-HR :0.81812: L2-HR :0.73297: (Sim:2h17m41s) 
CPU  0 inst:  567000001 cyc:  542538025 now IPC :0.26811: AVG IPC :1.04330: L2-Pf-HR :0.81718: L2-HR :0.73231: (Sim:2h18m15s) 
CPU  0 inst:  568000000 cyc:  546268007 now IPC :0.26810: AVG IPC :1.03799: L2-Pf-HR :0.81624: L2-HR :0.73166: (Sim:2h18m51s) 
CPU  0 inst:  569000000 cyc:  549996579 now IPC :0.26820: AVG IPC :1.03277: L2-Pf-HR :0.81530: L2-HR :0.73101: (Sim:2h19m26s) 
CPU  0 inst:  570000002 cyc:  553723810 now IPC :0.26830: AVG IPC :1.02761: L2-Pf-HR :0.81436: L2-HR :0.73036: (Sim:2h20m1s) 
CPU  0 inst:  571000004 cyc:  557451293 now IPC :0.26828: AVG IPC :1.02252: L2-Pf-HR :0.81342: L2-HR :0.72972: (Sim:2h20m36s) 
CPU  0 inst:  572000004 cyc:  561178200 now IPC :0.26832: AVG IPC :1.01751: L2-Pf-HR :0.81248: L2-HR :0.72907: (Sim:2h21m12s) 
CPU  0 inst:  573000000 cyc:  564905542 now IPC :0.26829: AVG IPC :1.01255: L2-Pf-HR :0.81155: L2-HR :0.72843: (Sim:2h21m45s) 
CPU  0 inst:  574000000 cyc:  568634395 now IPC :0.26818: AVG IPC :1.00767: L2-Pf-HR :0.81063: L2-HR :0.72779: (Sim:2h22m21s) 
CPU  0 inst:  575000001 cyc:  572364336 now IPC :0.26810: AVG IPC :1.00284: L2-Pf-HR :0.80970: L2-HR :0.72716: (Sim:2h22m56s) 
CPU  0 inst:  576000004 cyc:  576091500 now IPC :0.26830: AVG IPC :0.99808: L2-Pf-HR :0.80877: L2-HR :0.72652: (Sim:2h23m32s) 
CPU  0 inst:  577000000 cyc:  579820428 now IPC :0.26817: AVG IPC :0.99337: L2-Pf-HR :0.80785: L2-HR :0.72589: (Sim:2h24m6s) 
CPU  0 inst:  578000003 cyc:  583546602 now IPC :0.26837: AVG IPC :0.98874: L2-Pf-HR :0.80693: L2-HR :0.72526: (Sim:2h24m42s) 
CPU  0 inst:  579000002 cyc:  587274195 now IPC :0.26827: AVG IPC :0.98416: L2-Pf-HR :0.80601: L2-HR :0.72463: (Sim:2h25m18s) 
CPU  0 inst:  580000000 cyc:  591001814 now IPC :0.26827: AVG IPC :0.97963: L2-Pf-HR :0.80509: L2-HR :0.72400: (Sim:2h25m52s) 
CPU  0 inst:  581000000 cyc:  594729877 now IPC :0.26824: AVG IPC :0.97517: L2-Pf-HR :0.80418: L2-HR :0.72338: (Sim:2h26m27s) 
CPU  0 inst:  582000005 cyc:  598460004 now IPC :0.26809: AVG IPC :0.97075: L2-Pf-HR :0.80327: L2-HR :0.72276: (Sim:2h27m2s) 
CPU  0 inst:  583000002 cyc:  602189330 now IPC :0.26814: AVG IPC :0.96639: L2-Pf-HR :0.80236: L2-HR :0.72213: (Sim:2h27m37s) 
CPU  0 inst:  584000000 cyc:  605916148 now IPC :0.26832: AVG IPC :0.96209: L2-Pf-HR :0.80145: L2-HR :0.72152: (Sim:2h28m11s) 
CPU  0 inst:  585000000 cyc:  609644551 now IPC :0.26821: AVG IPC :0.95784: L2-Pf-HR :0.80054: L2-HR :0.72090: (Sim:2h28m47s) 
CPU  0 inst:  586000000 cyc:  613371167 now IPC :0.26834: AVG IPC :0.95365: L2-Pf-HR :0.79963: L2-HR :0.72028: (Sim:2h29m22s) 
CPU  0 inst:  587000002 cyc:  617098128 now IPC :0.26832: AVG IPC :0.94950: L2-Pf-HR :0.79873: L2-HR :0.71967: (Sim:2h29m41s) 
CPU  0 inst:  588000004 cyc:  620825088 now IPC :0.26832: AVG IPC :0.94541: L2-Pf-HR :0.79783: L2-HR :0.71906: (Sim:2h29m57s) 
CPU  0 inst:  589000002 cyc:  624552841 now IPC :0.26826: AVG IPC :0.94136: L2-Pf-HR :0.79693: L2-HR :0.71845: (Sim:2h30m12s) 
CPU  0 inst:  590000001 cyc:  628282763 now IPC :0.26810: AVG IPC :0.93735: L2-Pf-HR :0.79604: L2-HR :0.71784: (Sim:2h30m28s) 
CPU  0 inst:  591000002 cyc:  632009784 now IPC :0.26831: AVG IPC :0.93340: L2-Pf-HR :0.79514: L2-HR :0.71724: (Sim:2h30m44s) 
CPU  0 inst:  592000004 cyc:  635737355 now IPC :0.26827: AVG IPC :0.92950: L2-Pf-HR :0.79425: L2-HR :0.71663: (Sim:2h30m59s) 
CPU  0 inst:  593000004 cyc:  639463980 now IPC :0.26834: AVG IPC :0.92564: L2-Pf-HR :0.79336: L2-HR :0.71603: (Sim:2h31m15s) 
CPU  0 inst:  594000000 cyc:  643190708 now IPC :0.26833: AVG IPC :0.92182: L2-Pf-HR :0.79247: L2-HR :0.71543: (Sim:2h31m31s) 
CPU  0 inst:  595000003 cyc:  646918037 now IPC :0.26829: AVG IPC :0.91805: L2-Pf-HR :0.79158: L2-HR :0.71483: (Sim:2h31m47s) 
CPU  0 inst:  596000002 cyc:  650646669 now IPC :0.26819: AVG IPC :0.91432: L2-Pf-HR :0.79070: L2-HR :0.71424: (Sim:2h32m2s) 
CPU  0 inst:  597000003 cyc:  654376193 now IPC :0.26813: AVG IPC :0.91063: L2-Pf-HR :0.78982: L2-HR :0.71365: (Sim:2h32m18s) 
CPU  0 inst:  598000000 cyc:  658104820 now IPC :0.26819: AVG IPC :0.90699: L2-Pf-HR :0.78894: L2-HR :0.71305: (Sim:2h32m34s) 
CPU  0 inst:  599000003 cyc:  661832761 now IPC :0.26825: AVG IPC :0.90339: L2-Pf-HR :0.78806: L2-HR :0.71246: (Sim:2h32m50s) 
CPU  0 inst:  600000002 cyc:  665560499 now IPC :0.26826: AVG IPC :0.89982: L2-Pf-HR :0.78718: L2-HR :0.71188: (Sim:2h33m6s) 
CPU  0 inst:  601000000 cyc:  669287881 now IPC :0.26828: AVG IPC :0.89630: L2-Pf-HR :0.78630: L2-HR :0.71129: (Sim:2h33m22s) 
CPU  0 inst:  602000000 cyc:  673015817 now IPC :0.26824: AVG IPC :0.89282: L2-Pf-HR :0.78543: L2-HR :0.71070: (Sim:2h33m38s) 
CPU  0 inst:  603000001 cyc:  676743731 now IPC :0.26825: AVG IPC :0.88937: L2-Pf-HR :0.78456: L2-HR :0.71012: (Sim:2h33m53s) 
CPU  0 inst:  604000005 cyc:  680473635 now IPC :0.26810: AVG IPC :0.88596: L2-Pf-HR :0.78370: L2-HR :0.70954: (Sim:2h34m9s) 
CPU  0 inst:  605000001 cyc:  684202620 now IPC :0.26817: AVG IPC :0.88259: L2-Pf-HR :0.78283: L2-HR :0.70896: (Sim:2h34m25s) 
CPU  0 inst:  606000000 cyc:  687928523 now IPC :0.26839: AVG IPC :0.87926: L2-Pf-HR :0.78197: L2-HR :0.70838: (Sim:2h34m41s) 
CPU  0 inst:  607000000 cyc:  691654807 now IPC :0.26836: AVG IPC :0.87596: L2-Pf-HR :0.78110: L2-HR :0.70781: (Sim:2h34m56s) 
CPU  0 inst:  608000002 cyc:  695383476 now IPC :0.26819: AVG IPC :0.87270: L2-Pf-HR :0.78024: L2-HR :0.70723: (Sim:2h35m12s) 
CPU  0 inst:  609000004 cyc:  699111160 now IPC :0.26826: AVG IPC :0.86947: L2-Pf-HR :0.77938: L2-HR :0.70666: (Sim:2h35m28s) 
CPU  0 inst:  610000004 cyc:  702839528 now IPC :0.26821: AVG IPC :0.86628: L2-Pf-HR :0.77852: L2-HR :0.70609: (Sim:2h35m43s) 
CPU  0 inst:  611000001 cyc:  706567084 now IPC :0.26827: AVG IPC :0.86312: L2-Pf-HR :0.77767: L2-HR :0.70552: (Sim:2h35m59s) 
CPU  0 inst:  612000001 cyc:  710297770 now IPC :0.26805: AVG IPC :0.85999: L2-Pf-HR :0.77682: L2-HR :0.70495: (Sim:2h36m15s) 
CPU  0 inst:  613000004 cyc:  714027085 now IPC :0.26815: AVG IPC :0.85689: L2-Pf-HR :0.77597: L2-HR :0.70439: (Sim:2h36m31s) 
CPU  0 inst:  614000004 cyc:  717754442 now IPC :0.26829: AVG IPC :0.85383: L2-Pf-HR :0.77511: L2-HR :0.70382: (Sim:2h36m46s) 
CPU  0 inst:  615000000 cyc:  721481870 now IPC :0.26828: AVG IPC :0.85080: L2-Pf-HR :0.77427: L2-HR :0.70326: (Sim:2h37m2s) 
CPU  0 inst:  616000003 cyc:  725208615 now IPC :0.26833: AVG IPC :0.84780: L2-Pf-HR :0.77342: L2-HR :0.70270: (Sim:2h37m18s) 
CPU  0 inst:  617000002 cyc:  728935132 now IPC :0.26835: AVG IPC :0.84484: L2-Pf-HR :0.77257: L2-HR :0.70214: (Sim:2h37m34s) 
CPU  0 inst:  618000000 cyc:  732661910 now IPC :0.26833: AVG IPC :0.84190: L2-Pf-HR :0.77173: L2-HR :0.70159: (Sim:2h37m50s) 
CPU  0 inst:  619000005 cyc:  736390850 now IPC :0.26817: AVG IPC :0.83899: L2-Pf-HR :0.77089: L2-HR :0.70103: (Sim:2h38m5s) 
CPU  0 inst:  620000005 cyc:  740121326 now IPC :0.26806: AVG IPC :0.83611: L2-Pf-HR :0.77006: L2-HR :0.70048: (Sim:2h38m21s) 
CPU  0 inst:  621000002 cyc:  743848677 now IPC :0.26829: AVG IPC :0.83326: L2-Pf-HR :0.76922: L2-HR :0.69993: (Sim:2h38m37s) 
CPU  0 inst:  622000000 cyc:  747575911 now IPC :0.26829: AVG IPC :0.83044: L2-Pf-HR :0.76838: L2-HR :0.69938: (Sim:2h38m54s) 
CPU  0 inst:  623000000 cyc:  751304259 now IPC :0.26822: AVG IPC :0.82765: L2-Pf-HR :0.76755: L2-HR :0.69883: (Sim:2h39m13s) 
CPU  0 inst:  624000000 cyc:  755031640 now IPC :0.26828: AVG IPC :0.82488: L2-Pf-HR :0.76672: L2-HR :0.69828: (Sim:2h39m29s) 
CPU  0 inst:  625000002 cyc:  758759141 now IPC :0.26828: AVG IPC :0.82215: L2-Pf-HR :0.76589: L2-HR :0.69773: (Sim:2h39m45s) 
CPU  0 inst:  626000000 cyc:  762485973 now IPC :0.26832: AVG IPC :0.81943: L2-Pf-HR :0.76506: L2-HR :0.69719: (Sim:2h40m0s) 
[...]
CPU  0 inst: 1071000002 cyc: 1037991040 now IPC :2.28929: AVG IPC :1.03085: L2-Pf-HR :0.81254: L2-HR :0.76435: (Sim:3h51m56s) 
CPU  0 inst: 1072000003 cyc: 1038514505 now IPC :1.91035: AVG IPC :1.03130: L2-Pf-HR :0.81258: L2-HR :0.76448: (Sim:3h52m4s) 
CPU  0 inst: 1073000004 cyc: 1038941803 now IPC :2.34029: AVG IPC :1.03184: L2-Pf-HR :0.81271: L2-HR :0.76461: (Sim:3h52m11s) 
CPU  0 inst: 1074000002 cyc: 1039512652 now IPC :1.75177: AVG IPC :1.03223: L2-Pf-HR :0.81267: L2-HR :0.76465: (Sim:3h52m19s) 
CPU  0 inst: 1075000003 cyc: 1039973085 now IPC :2.17187: AVG IPC :1.03274: L2-Pf-HR :0.81280: L2-HR :0.76477: (Sim:3h52m28s) 
CPU  0 inst: 1076000001 cyc: 1040543264 now IPC :1.75383: AVG IPC :1.03313: L2-Pf-HR :0.81277: L2-HR :0.76486: (Sim:3h52m36s) 
CPU  0 inst: 1077000000 cyc: 1040982688 now IPC :2.27570: AVG IPC :1.03366: L2-Pf-HR :0.81289: L2-HR :0.76497: (Sim:3h52m43s) 
CPU  0 inst: 1078000001 cyc: 1041467522 now IPC :2.06256: AVG IPC :1.03414: L2-Pf-HR :0.81298: L2-HR :0.76510: (Sim:3h52m51s) 
CPU  0 inst: 1079000000 cyc: 1041924601 now IPC :2.18780: AVG IPC :1.03464: L2-Pf-HR :0.81307: L2-HR :0.76522: (Sim:3h52m58s) 
CPU  0 inst: 1080000002 cyc: 1042440809 now IPC :1.93721: AVG IPC :1.03509: L2-Pf-HR :0.81320: L2-HR :0.76535: (Sim:3h53m6s) 
CPU  0 inst: 1081000001 cyc: 1042952768 now IPC :1.95328: AVG IPC :1.03554: L2-Pf-HR :0.81335: L2-HR :0.76551: (Sim:3h53m14s) 
CPU  0 inst: 1082000002 cyc: 1043601058 now IPC :1.54252: AVG IPC :1.03586: L2-Pf-HR :0.81326: L2-HR :0.76554: (Sim:3h53m25s) 
CPU  0 inst: 1083000000 cyc: 1044070267 now IPC :2.13124: AVG IPC :1.03635: L2-Pf-HR :0.81332: L2-HR :0.76563: (Sim:3h53m42s) 
CPU  0 inst: 1084000000 cyc: 1044527713 now IPC :2.18605: AVG IPC :1.03685: L2-Pf-HR :0.81343: L2-HR :0.76577: (Sim:3h53m58s) 
CPU  0 inst: 1085000002 cyc: 1045124774 now IPC :1.67487: AVG IPC :1.03722: L2-Pf-HR :0.81341: L2-HR :0.76581: (Sim:3h54m15s) 
CPU  0 inst: 1086000003 cyc: 1045597861 now IPC :2.11378: AVG IPC :1.03771: L2-Pf-HR :0.81350: L2-HR :0.76590: (Sim:3h54m32s) 
CPU  0 inst: 1087000005 cyc: 1046163113 now IPC :1.76913: AVG IPC :1.03810: L2-Pf-HR :0.81350: L2-HR :0.76596: (Sim:3h54m49s) 
CPU  0 inst: 1088000000 cyc: 1046604975 now IPC :2.26314: AVG IPC :1.03862: L2-Pf-HR :0.81363: L2-HR :0.76609: (Sim:3h55m5s) 
CPU  0 inst: 1089000002 cyc: 1047199139 now IPC :1.68304: AVG IPC :1.03898: L2-Pf-HR :0.81355: L2-HR :0.76612: (Sim:3h55m27s) 
CPU  0 inst: 1090000003 cyc: 1047650884 now IPC :2.21364: AVG IPC :1.03949: L2-Pf-HR :0.81368: L2-HR :0.76625: (Sim:3h55m45s) 
CPU  0 inst: 1091000004 cyc: 1048214449 now IPC :1.77442: AVG IPC :1.03989: L2-Pf-HR :0.81369: L2-HR :0.76632: (Sim:3h56m3s) 
CPU  0 inst: 1092000005 cyc: 1048651077 now IPC :2.29028: AVG IPC :1.04041: L2-Pf-HR :0.81381: L2-HR :0.76645: (Sim:3h56m19s) 
CPU  0 inst: 1093000001 cyc: 1049162149 now IPC :1.95666: AVG IPC :1.04086: L2-Pf-HR :0.81389: L2-HR :0.76656: (Sim:3h56m36s) 
CPU  0 inst: 1094000004 cyc: 1049593055 now IPC :2.32070: AVG IPC :1.04138: L2-Pf-HR :0.81402: L2-HR :0.76670: (Sim:3h56m52s) 
CPU  0 inst: 1095000005 cyc: 1050192170 now IPC :1.66913: AVG IPC :1.04174: L2-Pf-HR :0.81400: L2-HR :0.76674: (Sim:3h57m12s) 
CPU  0 inst: 1096000003 cyc: 1050643330 now IPC :2.21650: AVG IPC :1.04224: L2-Pf-HR :0.81413: L2-HR :0.76687: (Sim:3h57m30s) 
CPU  0 inst: 1097000005 cyc: 1051214718 now IPC :1.75013: AVG IPC :1.04263: L2-Pf-HR :0.81421: L2-HR :0.76694: (Sim:3h57m50s) 
CPU  0 inst: 1098000000 cyc: 1051665127 now IPC :2.22019: AVG IPC :1.04313: L2-Pf-HR :0.81432: L2-HR :0.76706: (Sim:3h58m6s) 
CPU  0 inst: 1099000004 cyc: 1052108707 now IPC :2.25439: AVG IPC :1.04365: L2-Pf-HR :0.81445: L2-HR :0.76718: (Sim:3h58m22s) 
CPU  0 inst: 1100000002 cyc: 1052617260 now IPC :1.96636: AVG IPC :1.04409: L2-Pf-HR :0.81455: L2-HR :0.76728: (Sim:3h58m39s) 
CPU  0 inst: 1101000000 cyc: 1053189355 now IPC :1.74796: AVG IPC :1.04447: L2-Pf-HR :0.81454: L2-HR :0.76733: (Sim:3h58m57s) 
CPU  0 inst: 1102000001 cyc: 1053644196 now IPC :2.19857: AVG IPC :1.04497: L2-Pf-HR :0.81466: L2-HR :0.76745: (Sim:3h59m16s) 
CPU  0 inst: 1103000000 cyc: 1054111448 now IPC :2.14017: AVG IPC :1.04546: L2-Pf-HR :0.81480: L2-HR :0.76758: (Sim:3h59m34s) 
CPU  0 inst: 1104000002 cyc: 1054671323 now IPC :1.78612: AVG IPC :1.04585: L2-Pf-HR :0.81479: L2-HR :0.76765: (Sim:3h59m51s) 
CPU  0 inst: 1105000003 cyc: 1055106926 now IPC :2.29567: AVG IPC :1.04637: L2-Pf-HR :0.81491: L2-HR :0.76776: (Sim:4h0m7s) 
CPU  0 inst: 1106000000 cyc: 1055618798 now IPC :1.95361: AVG IPC :1.04681: L2-Pf-HR :0.81500: L2-HR :0.76788: (Sim:4h0m24s) 
CPU  0 inst: 1107000003 cyc: 1056058548 now IPC :2.27403: AVG IPC :1.04732: L2-Pf-HR :0.81514: L2-HR :0.76801: (Sim:4h0m40s) 
CPU  0 inst: 1108000004 cyc: 1056640508 now IPC :1.71833: AVG IPC :1.04769: L2-Pf-HR :0.81511: L2-HR :0.76804: (Sim:4h1m1s) 
CPU  0 inst: 1109000005 cyc: 1057090874 now IPC :2.22042: AVG IPC :1.04819: L2-Pf-HR :0.81524: L2-HR :0.76817: (Sim:4h1m19s) 
CPU  0 inst: 1110000003 cyc: 1057664245 now IPC :1.74407: AVG IPC :1.04857: L2-Pf-HR :0.81527: L2-HR :0.76825: (Sim:4h1m31s) 
CPU  0 inst: 1111000004 cyc: 1058101618 now IPC :2.28638: AVG IPC :1.04908: L2-Pf-HR :0.81539: L2-HR :0.76837: (Sim:4h1m38s) 
CPU  0 inst: 1112000000 cyc: 1058612951 now IPC :1.95566: AVG IPC :1.04952: L2-Pf-HR :0.81547: L2-HR :0.76849: (Sim:4h1m46s) 
CPU  0 inst: 1113000002 cyc: 1059044625 now IPC :2.31657: AVG IPC :1.05004: L2-Pf-HR :0.81560: L2-HR :0.76862: (Sim:4h1m53s) 
CPU  0 inst: 1114000002 cyc: 1059572701 now IPC :1.89367: AVG IPC :1.05046: L2-Pf-HR :0.81572: L2-HR :0.76875: (Sim:4h2m0s) 
CPU  0 inst: 1115000003 cyc: 1060078814 now IPC :1.97585: AVG IPC :1.05090: L2-Pf-HR :0.81587: L2-HR :0.76890: (Sim:4h2m8s) 
CPU  0 inst: 1116000002 cyc: 1060719111 now IPC :1.56177: AVG IPC :1.05121: L2-Pf-HR :0.81577: L2-HR :0.76891: (Sim:4h2m17s) 
CPU  0 inst: 1117000001 cyc: 1061188908 now IPC :2.12858: AVG IPC :1.05168: L2-Pf-HR :0.81586: L2-HR :0.76902: (Sim:4h2m25s) 
CPU  0 inst: 1118000002 cyc: 1061722044 now IPC :1.87570: AVG IPC :1.05210: L2-Pf-HR :0.81592: L2-HR :0.76911: (Sim:4h2m32s) 
CPU  0 inst: 1119000003 cyc: 1062262152 now IPC :1.85148: AVG IPC :1.05251: L2-Pf-HR :0.81591: L2-HR :0.76915: (Sim:4h2m40s) 
CPU  0 inst: 1120000003 cyc: 1062726208 now IPC :2.15491: AVG IPC :1.05299: L2-Pf-HR :0.81599: L2-HR :0.76923: (Sim:4h2m47s) 
CPU  0 inst: 1121000002 cyc: 1063288008 now IPC :1.77999: AVG IPC :1.05337: L2-Pf-HR :0.81600: L2-HR :0.76929: (Sim:4h2m54s) 
CPU  0 inst: 1122000000 cyc: 1063845944 now IPC :1.79232: AVG IPC :1.05376: L2-Pf-HR :0.81599: L2-HR :0.76935: (Sim:4h3m2s) 
CPU  0 inst: 1123000000 cyc: 1064305631 now IPC :2.17539: AVG IPC :1.05424: L2-Pf-HR :0.81609: L2-HR :0.76945: (Sim:4h3m10s) 
CPU  0 inst: 1124000000 cyc: 1064756241 now IPC :2.21921: AVG IPC :1.05474: L2-Pf-HR :0.81622: L2-HR :0.76957: (Sim:4h3m18s) 
CPU  0 inst: 1125000000 cyc: 1065327879 now IPC :1.74936: AVG IPC :1.05511: L2-Pf-HR :0.81622: L2-HR :0.76964: (Sim:4h3m26s) 
CPU  0 inst: 1126000000 cyc: 1065760814 now IPC :2.30982: AVG IPC :1.05562: L2-Pf-HR :0.81634: L2-HR :0.76976: (Sim:4h3m33s) 
CPU  0 inst: 1127000000 cyc: 1066276592 now IPC :1.93882: AVG IPC :1.05605: L2-Pf-HR :0.81641: L2-HR :0.76987: (Sim:4h3m41s) 
CPU  0 inst: 1128000000 cyc: 1066703479 now IPC :2.34254: AVG IPC :1.05656: L2-Pf-HR :0.81654: L2-HR :0.77000: (Sim:4h3m48s) 
CPU  0 inst: 1129000005 cyc: 1067304986 now IPC :1.66250: AVG IPC :1.05691: L2-Pf-HR :0.81657: L2-HR :0.77002: (Sim:4h3m57s) 
CPU  0 inst: 1130000004 cyc: 1067764001 now IPC :2.17858: AVG IPC :1.05739: L2-Pf-HR :0.81670: L2-HR :0.77015: (Sim:4h4m5s) 
CPU  0 inst: 1131000005 cyc: 1068344716 now IPC :1.72202: AVG IPC :1.05775: L2-Pf-HR :0.81674: L2-HR :0.77021: (Sim:4h4m13s) 
CPU  0 inst: 1132000001 cyc: 1068789729 now IPC :2.24712: AVG IPC :1.05825: L2-Pf-HR :0.81686: L2-HR :0.77033: (Sim:4h4m26s) 
CPU  0 inst: 1133000003 cyc: 1069269747 now IPC :2.08326: AVG IPC :1.05871: L2-Pf-HR :0.81698: L2-HR :0.77044: (Sim:4h4m42s) 
CPU  0 inst: 1134000003 cyc: 1069736834 now IPC :2.14093: AVG IPC :1.05918: L2-Pf-HR :0.81707: L2-HR :0.77055: (Sim:4h4m57s) 
CPU  0 inst: 1135000005 cyc: 1070309692 now IPC :1.74564: AVG IPC :1.05955: L2-Pf-HR :0.81704: L2-HR :0.77059: (Sim:4h5m13s) 
CPU  0 inst: 1136000000 cyc: 1070769584 now IPC :2.17441: AVG IPC :1.06003: L2-Pf-HR :0.81718: L2-HR :0.77072: (Sim:4h5m32s) 
CPU  0 inst: 1137000002 cyc: 1071311490 now IPC :1.84534: AVG IPC :1.06042: L2-Pf-HR :0.81727: L2-HR :0.77083: (Sim:4h5m49s) 
CPU  0 inst: 1138000003 cyc: 1071790945 now IPC :2.08570: AVG IPC :1.06088: L2-Pf-HR :0.81731: L2-HR :0.77091: (Sim:4h6m5s) 
CPU  0 inst: 1139000002 cyc: 1072225571 now IPC :2.30083: AVG IPC :1.06139: L2-Pf-HR :0.81742: L2-HR :0.77102: (Sim:4h6m21s) 
CPU  0 inst: 1140000000 cyc: 1072741008 now IPC :1.94010: AVG IPC :1.06181: L2-Pf-HR :0.81749: L2-HR :0.77114: (Sim:4h6m37s) 
CPU  0 inst: 1141000000 cyc: 1073282710 now IPC :1.84603: AVG IPC :1.06221: L2-Pf-HR :0.81749: L2-HR :0.77121: (Sim:4h6m54s) 
CPU  0 inst: 1142000000 cyc: 1073764457 now IPC :2.07578: AVG IPC :1.06266: L2-Pf-HR :0.81758: L2-HR :0.77130: (Sim:4h7m3s) 
CPU  0 inst: 1143000001 cyc: 1074213964 now IPC :2.22466: AVG IPC :1.06315: L2-Pf-HR :0.81770: L2-HR :0.77142: (Sim:4h7m11s) 
CPU  0 inst: 1144000003 cyc: 1074788085 now IPC :1.74180: AVG IPC :1.06351: L2-Pf-HR :0.81768: L2-HR :0.77150: (Sim:4h7m19s) 
CPU  0 inst: 1145000003 cyc: 1075228683 now IPC :2.26964: AVG IPC :1.06400: L2-Pf-HR :0.81780: L2-HR :0.77161: (Sim:4h7m26s) 
CPU  0 inst: 1146000002 cyc: 1075745402 now IPC :1.93529: AVG IPC :1.06442: L2-Pf-HR :0.81784: L2-HR :0.77172: (Sim:4h7m33s) 
CPU  0 inst: 1147000004 cyc: 1076173967 now IPC :2.33337: AVG IPC :1.06493: L2-Pf-HR :0.81797: L2-HR :0.77184: (Sim:4h7m40s) 
CPU  0 inst: 1148000000 cyc: 1076706576 now IPC :1.87754: AVG IPC :1.06533: L2-Pf-HR :0.81810: L2-HR :0.77197: (Sim:4h7m48s) 
CPU  0 inst: 1149000001 cyc: 1077238148 now IPC :1.88121: AVG IPC :1.06573: L2-Pf-HR :0.81823: L2-HR :0.77211: (Sim:4h7m56s) 
CPU  0 inst: 1150000000 cyc: 1077871012 now IPC :1.58012: AVG IPC :1.06604: L2-Pf-HR :0.81813: L2-HR :0.77210: (Sim:4h8m4s) 
CPU  0 inst: 1151000002 cyc: 1078325934 now IPC :2.19818: AVG IPC :1.06652: L2-Pf-HR :0.81824: L2-HR :0.77221: (Sim:4h8m12s) 
CPU  0 inst: 1152000004 cyc: 1078927295 now IPC :1.66290: AVG IPC :1.06685: L2-Pf-HR :0.81823: L2-HR :0.77226: (Sim:4h8m21s) 
CPU  0 inst: 1153000005 cyc: 1079411493 now IPC :2.06527: AVG IPC :1.06730: L2-Pf-HR :0.81830: L2-HR :0.77233: (Sim:4h8m28s) 
CPU  0 inst: 1154000001 cyc: 1079872483 now IPC :2.16924: AVG IPC :1.06777: L2-Pf-HR :0.81838: L2-HR :0.77242: (Sim:4h8m35s) 
CPU  0 inst: 1155000003 cyc: 1080422888 now IPC :1.81685: AVG IPC :1.06815: L2-Pf-HR :0.81839: L2-HR :0.77248: (Sim:4h8m42s) 
CPU  0 inst: 1156000005 cyc: 1080994711 now IPC :1.74880: AVG IPC :1.06851: L2-Pf-HR :0.81835: L2-HR :0.77251: (Sim:4h8m50s) 
CPU  0 inst: 1157000003 cyc: 1081450102 now IPC :2.19591: AVG IPC :1.06898: L2-Pf-HR :0.81847: L2-HR :0.77263: (Sim:4h8m58s) 
CPU  0 inst: 1158000002 cyc: 1081915050 now IPC :2.15078: AVG IPC :1.06945: L2-Pf-HR :0.81860: L2-HR :0.77276: (Sim:4h9m7s) 
CPU  0 inst: 1159000003 cyc: 1082475233 now IPC :1.78513: AVG IPC :1.06982: L2-Pf-HR :0.81858: L2-HR :0.77281: (Sim:4h9m14s) 
CPU  0 inst: 1160000001 cyc: 1082911589 now IPC :2.29170: AVG IPC :1.07031: L2-Pf-HR :0.81869: L2-HR :0.77292: (Sim:4h9m21s) 
CPU  0 inst: 1161000000 cyc: 1083433294 now IPC :1.91679: AVG IPC :1.07072: L2-Pf-HR :0.81874: L2-HR :0.77302: (Sim:4h9m29s) 
CPU  0 inst: 1162000005 cyc: 1083871894 now IPC :2.27999: AVG IPC :1.07121: L2-Pf-HR :0.81887: L2-HR :0.77315: (Sim:4h9m36s) 
CPU  0 inst: 1163000003 cyc: 1084462680 now IPC :1.69266: AVG IPC :1.07155: L2-Pf-HR :0.81883: L2-HR :0.77316: (Sim:4h9m45s) 
CPU  0 inst: 1164000000 cyc: 1084913420 now IPC :2.21857: AVG IPC :1.07203: L2-Pf-HR :0.81896: L2-HR :0.77328: (Sim:4h9m53s) 
CPU  0 inst: 1165000004 cyc: 1085494505 now IPC :1.72093: AVG IPC :1.07237: L2-Pf-HR :0.81894: L2-HR :0.77336: (Sim:4h10m1s) 
CPU  0 inst: 1166000003 cyc: 1085936169 now IPC :2.26416: AVG IPC :1.07286: L2-Pf-HR :0.81904: L2-HR :0.77346: (Sim:4h10m8s) 
CPU  0 inst: 1167000005 cyc: 1086456873 now IPC :1.92048: AVG IPC :1.07327: L2-Pf-HR :0.81909: L2-HR :0.77356: (Sim:4h10m16s) 
CPU  0 inst: 1168000002 cyc: 1086891437 now IPC :2.30115: AVG IPC :1.07376: L2-Pf-HR :0.81920: L2-HR :0.77368: (Sim:4h10m22s) 
CPU  0 inst: 1169000003 cyc: 1087482414 now IPC :1.69211: AVG IPC :1.07409: L2-Pf-HR :0.81914: L2-HR :0.77370: (Sim:4h10m32s) 
CPU  0 inst: 1170000002 cyc: 1087931765 now IPC :2.22543: AVG IPC :1.07457: L2-Pf-HR :0.81926: L2-HR :0.77382: (Sim:4h10m41s) 
CPU  0 inst: 1171000005 cyc: 1088512475 now IPC :1.72204: AVG IPC :1.07492: L2-Pf-HR :0.81924: L2-HR :0.77389: (Sim:4h10m50s) 
CPU  0 inst: 1172000002 cyc: 1088953896 now IPC :2.26540: AVG IPC :1.07540: L2-Pf-HR :0.81934: L2-HR :0.77399: (Sim:4h10m57s) 
CPU  0 inst: 1173000000 cyc: 1089390728 now IPC :2.28921: AVG IPC :1.07589: L2-Pf-HR :0.81945: L2-HR :0.77411: (Sim:4h11m4s) 
CPU  0 inst: 1174000000 cyc: 1089899752 now IPC :1.96454: AVG IPC :1.07630: L2-Pf-HR :0.81949: L2-HR :0.77421: (Sim:4h11m12s) 
CPU  0 inst: 1175000000 cyc: 1090470818 now IPC :1.75111: AVG IPC :1.07666: L2-Pf-HR :0.81944: L2-HR :0.77425: (Sim:4h11m20s) 
CPU  0 inst: 1176000003 cyc: 1090924670 now IPC :2.20337: AVG IPC :1.07712: L2-Pf-HR :0.81954: L2-HR :0.77435: (Sim:4h11m28s) 
CPU  0 inst: 1177000005 cyc: 1091378331 now IPC :2.20429: AVG IPC :1.07759: L2-Pf-HR :0.81966: L2-HR :0.77448: (Sim:4h11m36s) 
CPU  0 inst: 1178000003 cyc: 1091932828 now IPC :1.80343: AVG IPC :1.07796: L2-Pf-HR :0.81963: L2-HR :0.77452: (Sim:4h11m43s) 
CPU  0 inst: 1179000004 cyc: 1092362393 now IPC :2.32794: AVG IPC :1.07845: L2-Pf-HR :0.81974: L2-HR :0.77463: (Sim:4h11m50s) 
CPU  0 inst: 1180000000 cyc: 1092883156 now IPC :1.92025: AVG IPC :1.07886: L2-Pf-HR :0.81979: L2-HR :0.77473: (Sim:4h11m58s) 
Finished CPU 0 instr: 1178000003 cyc: 1091897740 AVG IPC: 1.07886 (Sim time: 4h11m58s)

ChampSim completed all CPUs

[ROI Statistics]
Core_0_instructions 1178000003
Core_0_cycles 1091897740
Core_0_IPC 1.07886

Core_0_branch_prediction_accuracy 98.59145
Core_0_branch_MPKI 0.33782
Core_0_average_ROB_occupancy_at_mispredict 616.76613

Core_0_L1D_total_access 288900689
Core_0_L1D_total_hit 266634819 L1D_total_Hit Ratio: 0.92293
Core_0_L1D_total_miss 22265870
Core_0_L1D_loads 246881578
Core_0_L1D_load_hit 240548605 L1D_load_Hit Ratio: 0.97435
Core_0_L1D_load_miss 6332973
Core_0_L1D_RFOs 23023173
Core_0_L1D_RFO_hit 22110071 L1D_RFO_Hit Ratio: 0.96034
Core_0_L1D_RFO_miss 913102
Core_0_L1D_prefetches 18995938
Core_0_L1D_prefetch_hit 3976143 L1D_prefetch_Hit Ratio: 0.20932
Core_0_L1D_prefetch_miss 15019795
Core_0_L1D_writebacks 0
Core_0_L1D_writeback_hit 0 L1D_writeback_Hit Ratio: -nan
Core_0_L1D_writeback_miss 0
Core_0_L1D_prefetch_requested 21663620
Core_0_L1D_prefetch_issued 21663620
Core_0_L1D_prefetch_useful 14953208 L1D_Useful Ratio: 0.69025
Core_0_L1D_prefetch_useless 93220
Core_0_L1D_prefetch_late 1163073
Core_0_L1D_average_miss_latency 32528557.20214

Core_0_L1I_total_access 153571670
Core_0_L1I_total_hit 153566797 L1I_total_Hit Ratio: 0.99997
Core_0_L1I_total_miss 4873
Core_0_L1I_loads 153571670
Core_0_L1I_load_hit 153566797 L1I_load_Hit Ratio: 0.99997
Core_0_L1I_load_miss 4873
Core_0_L1I_RFOs 0
Core_0_L1I_RFO_hit 0 L1I_RFO_Hit Ratio: -nan
Core_0_L1I_RFO_miss 0
Core_0_L1I_prefetches 0
Core_0_L1I_prefetch_hit 0 L1I_prefetch_Hit Ratio: -nan
Core_0_L1I_prefetch_miss 0
Core_0_L1I_writebacks 0
Core_0_L1I_writeback_hit 0 L1I_writeback_Hit Ratio: -nan
Core_0_L1I_writeback_miss 0
Core_0_L1I_prefetch_requested 0
Core_0_L1I_prefetch_issued 0
Core_0_L1I_prefetch_useful 0 L1I_Useful Ratio: -nan
Core_0_L1I_prefetch_useless 0
Core_0_L1I_prefetch_late 0
Core_0_L1I_average_miss_latency 256.36405

Core_0_L2C_total_access 32061480
Core_0_L2C_total_hit 24838977 L2C_total_Hit Ratio: 0.77473
Core_0_L2C_total_miss 7222503
Core_0_L2C_loads 5175185
Core_0_L2C_load_hit 2341870 L2C_load_Hit Ratio: 0.45252
Core_0_L2C_load_miss 2833315
Core_0_L2C_RFOs 913040
Core_0_L2C_RFO_hit 122654 L2C_RFO_Hit Ratio: 0.13434
Core_0_L2C_RFO_miss 790386
Core_0_L2C_prefetches 19969040
Core_0_L2C_prefetch_hit 16370464 L2C_prefetch_Hit Ratio: 0.81979
Core_0_L2C_prefetch_miss 3598576
Core_0_L2C_writebacks 6004215
Core_0_L2C_writeback_hit 6003989 L2C_writeback_Hit Ratio: 0.99996
Core_0_L2C_writeback_miss 226
Core_0_L2C_prefetch_requested 7768391
Core_0_L2C_prefetch_issued 7768391
Core_0_L2C_prefetch_useful 841362 L2C_Useful Ratio: 0.10831
Core_0_L2C_prefetch_useless 2758791
Core_0_L2C_prefetch_late 954354
Core_0_L2C_average_miss_latency 349.82402

Core_0_LLC_total_access 11466811
Core_0_LLC_total_hit 5321009 LLC_total_Hit Ratio: 0.46404
Core_0_LLC_total_miss 6145802
Core_0_LLC_loads 1879013
Core_0_LLC_load_hit 366201 LLC_load_Hit Ratio: 0.19489
Core_0_LLC_load_miss 1512812
Core_0_LLC_RFOs 790386
Core_0_LLC_RFO_hit 2454 LLC_RFO_Hit Ratio: 0.00310
Core_0_LLC_RFO_miss 787932
Core_0_LLC_prefetches 4552823
Core_0_LLC_prefetch_hit 782607 LLC_prefetch_Hit Ratio: 0.17189
Core_0_LLC_prefetch_miss 3770216
Core_0_LLC_writebacks 4244589
Core_0_LLC_writeback_hit 4169747 LLC_writeback_Hit Ratio: 0.98237
Core_0_LLC_writeback_miss 74842
Core_0_LLC_prefetch_requested 0
Core_0_LLC_prefetch_issued 0
Core_0_LLC_prefetch_useful 36763 LLC_Useful Ratio: inf
Core_0_LLC_prefetch_useless 3704347
Core_0_LLC_prefetch_late 0
Core_0_LLC_average_miss_latency 409.06058

Core_0_major_page_fault 0
Core_0_minor_page_fault 42073

[Bingo] PHT Access: 1813449
[Bingo] PHT Hit PC+Addr: 227461
[Bingo] PHT Hit PC+Offs: 1524697
[Bingo] PHT Miss: 61291
[Bingo] Prefetch PC+Addr: 0
[Bingo] Prefetch PC+Offs: 0
[Bingo] Useful PC+Addr: 0
[Bingo] Useful PC+Offs: 0
[Bingo] Useless PC+Addr: 0
[Bingo] Useless PC+Offs: 0
[Bingo] L1 Prefetch per Region: 14.41865
[Bingo] L2 Prefetch per Region: 0.15859
[Bingo] L3 Prefetch per Region: 0.00000
[Bingo] No Prefetch per Region: 17.42277
[Bingo] Number of Voters Mean: 15.83744
[Bingo] Number of Voters SD: 1.40005
PHT read accesses: 26495152
PHT write accesses: 1748783
AT read accesses: 237468365
AT write accesses: 237468369
FT read accesses: 26795134
FT write accesses: 1813449
PS read accesses: 11371558
PS write accesses: 1752158
PHT tag read accesses: 79413981
PHT tag write accesses: 1976244
AT tag read accesses: 4389466442
AT tag write accesses: 239217152
FT tag read accesses: 644217958
FT tag write accesses: 16117670
PS tag read accesses: 4032962784
PS tag write accesses: 13113881
[Bingo2] PHT Access: 1428625
[Bingo2] PHT Hit PC+Addr: 75991
[Bingo2] PHT Hit PC+Offs: 1307070
[Bingo2] PHT Miss: 45564
[Bingo2] Prefetch PC+Addr: 0
[Bingo2] Prefetch PC+Offs: 0
[Bingo2] Useful PC+Addr: 0
[Bingo2] Useful PC+Offs: 0
[Bingo2] Useless PC+Addr: 0
[Bingo2] Useless PC+Offs: 0
[Bingo2] L1 Prefetch per Region: 0.00000
[Bingo2] L2 Prefetch per Region: 8.00824
[Bingo2] L3 Prefetch per Region: 0.00000
[Bingo2] No Prefetch per Region: 23.99176
[Bingo2] Number of Voters Mean: 15.78238
[Bingo2] Number of Voters SD: 1.22698
PHT read accesses: 21612223
PHT write accesses: 984545
AT read accesses: 3734143
AT write accesses: 4705679
FT read accesses: 3021014
FT write accesses: 1428625
PS read accesses: 3153228
PS write accesses: 1383061
PHT tag read accesses: 53292604
PHT tag write accesses: 1060536
AT tag read accesses: 245413195
AT tag write accesses: 4718682
FT tag read accesses: 207561383
FT tag write accesses: 3439680
PS tag read accesses: 129707769
PS tag write accesses: 4468108
Channel_0_RQ_row_buffer_hit 3596869
Channel_0_RQ_row_buffer_miss 2473391
Channel_0_WQ_row_buffer_hit 1244229
Channel_0_WQ_row_buffer_miss 2293980
Channel_0_WQ_full 1238
Channel_0_dbus_congested 5641999

avg_congested_cycle 11

EzSearch AVG IPC :1.07886: L2-Pf-HR :0.81979 : L2-HR :0.77473 Uful:0.10831
     > Finished combination: TraceType=770-tot Sim:1178000000 Prefetcher=L2bingo_dpc3 L1=bingo_dpc3
