TRACE: [2366000000][OPT-6_7B]_[h32][s1024][d128] Warmup: 2000000 NumTraces: 2366000000
L1:ipcp:L2:ipcp
*************************************************
   ChampSim Multicore Out-of-Order Simulator
   Last compiled: Oct 27 2024 04:01:01
*************************************************

trace_0 770-tot_memTraces_v3/memTraces[2366000000][OPT-6_7B]_[h32][s1024][d128].champsim.xz
MAIN.cc ln 751 stats print skipped
CPU  0 inst:    1000000 cyc:     499712 now IPC :2.00115: AVG IPC :2.00115: L2-Pf-HR :0.83912: L2-HR :0.80620: (Sim:0h0m8s) 
CPU  0 inst:    2000002 cyc:     985522 now IPC :2.05842: AVG IPC :2.02938: L2-Pf-HR :0.89677: L2-HR :0.85673: (Sim:0h0m17s) 

Warmup complete CPU  0 instructions:    2000002 cycles:     985522 (Simulation time: 0 hr 0 min 17 sec) 

CPU  0 inst:    3000001 cyc:    1557198 now IPC :1.74924: AVG IPC :1.74924: L2-Pf-HR :0.94290: L2-HR :0.88686: (Sim:0h0m24s) 
CPU  0 inst:    4000003 cyc:    2123740 now IPC :1.76510: AVG IPC :1.75713: L2-Pf-HR :0.94648: L2-HR :0.89021: (Sim:0h0m31s) 
CPU  0 inst:    5000001 cyc:    2692308 now IPC :1.75880: AVG IPC :1.75769: L2-Pf-HR :0.94683: L2-HR :0.89088: (Sim:0h0m38s) 
CPU  0 inst:    6000003 cyc:    3256680 now IPC :1.77188: AVG IPC :1.76122: L2-Pf-HR :0.94763: L2-HR :0.89216: (Sim:0h0m45s) 
CPU  0 inst:    7000005 cyc:    3818737 now IPC :1.77918: AVG IPC :1.76478: L2-Pf-HR :0.94842: L2-HR :0.89327: (Sim:0h0m52s) 
CPU  0 inst:    8000002 cyc:    4387196 now IPC :1.75914: AVG IPC :1.76384: L2-Pf-HR :0.94848: L2-HR :0.89323: (Sim:0h0m59s) 
CPU  0 inst:    9000005 cyc:    4950468 now IPC :1.77535: AVG IPC :1.76547: L2-Pf-HR :0.94810: L2-HR :0.89236: (Sim:0h1m6s) 
CPU  0 inst:   10000000 cyc:    5518117 now IPC :1.76164: AVG IPC :1.76499: L2-Pf-HR :0.94760: L2-HR :0.89143: (Sim:0h1m13s) 
CPU  0 inst:   11000000 cyc:    6089768 now IPC :1.74932: AVG IPC :1.76324: L2-Pf-HR :0.94702: L2-HR :0.89028: (Sim:0h1m20s) 
CPU  0 inst:   12000002 cyc:    6664846 now IPC :1.73890: AVG IPC :1.76077: L2-Pf-HR :0.94754: L2-HR :0.89062: (Sim:0h1m27s) 
CPU  0 inst:   13000002 cyc:    7335958 now IPC :1.49006: AVG IPC :1.73216: L2-Pf-HR :0.94400: L2-HR :0.88807: (Sim:0h1m35s) 
CPU  0 inst:   14000005 cyc:    7918976 now IPC :1.71522: AVG IPC :1.73074: L2-Pf-HR :0.94512: L2-HR :0.88901: (Sim:0h1m42s) 
CPU  0 inst:   15000002 cyc:    8495900 now IPC :1.73333: AVG IPC :1.73094: L2-Pf-HR :0.94637: L2-HR :0.89027: (Sim:0h1m49s) 
CPU  0 inst:   16000002 cyc:    9073374 now IPC :1.73168: AVG IPC :1.73099: L2-Pf-HR :0.94736: L2-HR :0.89115: (Sim:0h1m56s) 
CPU  0 inst:   17000000 cyc:    9655201 now IPC :1.71872: AVG IPC :1.73017: L2-Pf-HR :0.94837: L2-HR :0.89224: (Sim:0h2m4s) 
CPU  0 inst:   18000001 cyc:   10235602 now IPC :1.72295: AVG IPC :1.72971: L2-Pf-HR :0.94963: L2-HR :0.89366: (Sim:0h2m11s) 
CPU  0 inst:   19000004 cyc:   10813795 now IPC :1.72953: AVG IPC :1.72970: L2-Pf-HR :0.95074: L2-HR :0.89493: (Sim:0h2m18s) 
CPU  0 inst:   20000002 cyc:   11393062 now IPC :1.72632: AVG IPC :1.72952: L2-Pf-HR :0.95143: L2-HR :0.89568: (Sim:0h2m25s) 
CPU  0 inst:   21000000 cyc:   11962573 now IPC :1.75589: AVG IPC :1.73088: L2-Pf-HR :0.95196: L2-HR :0.89623: (Sim:0h2m32s) 
CPU  0 inst:   22000004 cyc:   12536207 now IPC :1.74328: AVG IPC :1.73150: L2-Pf-HR :0.95237: L2-HR :0.89661: (Sim:0h2m40s) 
CPU  0 inst:   23000001 cyc:   13110267 now IPC :1.74197: AVG IPC :1.73200: L2-Pf-HR :0.95273: L2-HR :0.89690: (Sim:0h2m47s) 
CPU  0 inst:   24000000 cyc:   13781845 now IPC :1.48903: AVG IPC :1.71924: L2-Pf-HR :0.95168: L2-HR :0.89619: (Sim:0h2m54s) 
CPU  0 inst:   25000005 cyc:   14355689 now IPC :1.74264: AVG IPC :1.72025: L2-Pf-HR :0.95185: L2-HR :0.89707: (Sim:0h3m2s) 
CPU  0 inst:   26000002 cyc:   14925211 now IPC :1.75585: AVG IPC :1.72170: L2-Pf-HR :0.95205: L2-HR :0.89779: (Sim:0h3m9s) 
CPU  0 inst:   27000005 cyc:   15497702 now IPC :1.74676: AVG IPC :1.72269: L2-Pf-HR :0.95236: L2-HR :0.89854: (Sim:0h3m16s) 
CPU  0 inst:   28000003 cyc:   16070074 now IPC :1.74711: AVG IPC :1.72362: L2-Pf-HR :0.95285: L2-HR :0.89957: (Sim:0h3m23s) 
CPU  0 inst:   29000005 cyc:   16642512 now IPC :1.74692: AVG IPC :1.72447: L2-Pf-HR :0.95328: L2-HR :0.90056: (Sim:0h3m31s) 
CPU  0 inst:   30000000 cyc:   17215347 now IPC :1.74569: AVG IPC :1.72522: L2-Pf-HR :0.95350: L2-HR :0.90113: (Sim:0h3m38s) 
CPU  0 inst:   31000004 cyc:   17789291 now IPC :1.74234: AVG IPC :1.72580: L2-Pf-HR :0.95377: L2-HR :0.90171: (Sim:0h3m45s) 
CPU  0 inst:   32000005 cyc:   18527909 now IPC :1.35388: AVG IPC :1.71014: L2-Pf-HR :0.95146: L2-HR :0.89966: (Sim:0h3m53s) 
CPU  0 inst:   33000004 cyc:   19130408 now IPC :1.65975: AVG IPC :1.70847: L2-Pf-HR :0.95132: L2-HR :0.89938: (Sim:0h4m1s) 
CPU  0 inst:   34000000 cyc:   19731137 now IPC :1.66464: AVG IPC :1.70707: L2-Pf-HR :0.95103: L2-HR :0.89884: (Sim:0h4m8s) 
CPU  0 inst:   35000005 cyc:   20321874 now IPC :1.69281: AVG IPC :1.70663: L2-Pf-HR :0.95085: L2-HR :0.89845: (Sim:0h4m15s) 
CPU  0 inst:   36000001 cyc:   20923684 now IPC :1.66165: AVG IPC :1.70527: L2-Pf-HR :0.95064: L2-HR :0.89804: (Sim:0h4m23s) 
CPU  0 inst:   37000005 cyc:   21520611 now IPC :1.67525: AVG IPC :1.70440: L2-Pf-HR :0.95058: L2-HR :0.89788: (Sim:0h4m30s) 
CPU  0 inst:   38000002 cyc:   22114300 now IPC :1.68438: AVG IPC :1.70384: L2-Pf-HR :0.95058: L2-HR :0.89786: (Sim:0h4m38s) 
CPU  0 inst:   39000000 cyc:   22709820 now IPC :1.67920: AVG IPC :1.70316: L2-Pf-HR :0.95056: L2-HR :0.89779: (Sim:0h4m45s) 
CPU  0 inst:   40000001 cyc:   23301266 now IPC :1.69077: AVG IPC :1.70283: L2-Pf-HR :0.95047: L2-HR :0.89759: (Sim:0h4m52s) 
CPU  0 inst:   41000004 cyc:   23897876 now IPC :1.67614: AVG IPC :1.70214: L2-Pf-HR :0.95034: L2-HR :0.89727: (Sim:0h5m0s) 
CPU  0 inst:   42000003 cyc:   24490672 now IPC :1.68692: AVG IPC :1.70175: L2-Pf-HR :0.95015: L2-HR :0.89697: (Sim:0h5m7s) 
CPU  0 inst:   43000003 cyc:   25082109 now IPC :1.69080: AVG IPC :1.70149: L2-Pf-HR :0.95002: L2-HR :0.89669: (Sim:0h5m15s) 
CPU  0 inst:   44000004 cyc:   25815653 now IPC :1.36325: AVG IPC :1.69149: L2-Pf-HR :0.94900: L2-HR :0.89580: (Sim:0h5m22s) 
CPU  0 inst:   45000001 cyc:   26388543 now IPC :1.74553: AVG IPC :1.69271: L2-Pf-HR :0.94924: L2-HR :0.89593: (Sim:0h5m30s) 
CPU  0 inst:   46000005 cyc:   26958617 now IPC :1.75417: AVG IPC :1.69406: L2-Pf-HR :0.94950: L2-HR :0.89615: (Sim:0h5m37s) 
CPU  0 inst:   47000002 cyc:   27526236 now IPC :1.76174: AVG IPC :1.69551: L2-Pf-HR :0.94973: L2-HR :0.89631: (Sim:0h5m44s) 
CPU  0 inst:   48000000 cyc:   28092648 now IPC :1.76550: AVG IPC :1.69697: L2-Pf-HR :0.94997: L2-HR :0.89649: (Sim:0h5m51s) 
CPU  0 inst:   49000002 cyc:   28663365 now IPC :1.75219: AVG IPC :1.69811: L2-Pf-HR :0.95035: L2-HR :0.89688: (Sim:0h5m59s) 
CPU  0 inst:   50000003 cyc:   29231224 now IPC :1.76100: AVG IPC :1.69937: L2-Pf-HR :0.95074: L2-HR :0.89728: (Sim:0h6m6s) 
CPU  0 inst:   51000005 cyc:   29796216 now IPC :1.76994: AVG IPC :1.70076: L2-Pf-HR :0.95111: L2-HR :0.89766: (Sim:0h6m13s) 
CPU  0 inst:   52000004 cyc:   30361488 now IPC :1.76906: AVG IPC :1.70207: L2-Pf-HR :0.95139: L2-HR :0.89790: (Sim:0h6m20s) 
CPU  0 inst:   53000005 cyc:   30925103 now IPC :1.77426: AVG IPC :1.70343: L2-Pf-HR :0.95158: L2-HR :0.89803: (Sim:0h6m27s) 
CPU  0 inst:   54000005 cyc:   31487904 now IPC :1.77683: AVG IPC :1.70478: L2-Pf-HR :0.95175: L2-HR :0.89815: (Sim:0h6m35s) 
CPU  0 inst:   55000002 cyc:   32047882 now IPC :1.78578: AVG IPC :1.70625: L2-Pf-HR :0.95194: L2-HR :0.89830: (Sim:0h6m42s) 
CPU  0 inst:   56000004 cyc:   32713191 now IPC :1.50306: AVG IPC :1.70198: L2-Pf-HR :0.95152: L2-HR :0.89803: (Sim:0h6m49s) 
CPU  0 inst:   57000002 cyc:   33280609 now IPC :1.76237: AVG IPC :1.70305: L2-Pf-HR :0.95160: L2-HR :0.89838: (Sim:0h6m59s) 
CPU  0 inst:   58000002 cyc:   33846753 now IPC :1.76634: AVG IPC :1.70414: L2-Pf-HR :0.95169: L2-HR :0.89871: (Sim:0h7m7s) 
CPU  0 inst:   59000002 cyc:   34411838 now IPC :1.76965: AVG IPC :1.70524: L2-Pf-HR :0.95186: L2-HR :0.89914: (Sim:0h7m14s) 
CPU  0 inst:   60000001 cyc:   34980917 now IPC :1.75722: AVG IPC :1.70611: L2-Pf-HR :0.95211: L2-HR :0.89962: (Sim:0h7m21s) 
CPU  0 inst:   61000002 cyc:   35550271 now IPC :1.75638: AVG IPC :1.70694: L2-Pf-HR :0.95230: L2-HR :0.90005: (Sim:0h7m28s) 
CPU  0 inst:   62000004 cyc:   36117874 now IPC :1.76180: AVG IPC :1.70783: L2-Pf-HR :0.95240: L2-HR :0.90038: (Sim:0h7m35s) 
CPU  0 inst:   63000004 cyc:   36688818 now IPC :1.75149: AVG IPC :1.70853: L2-Pf-HR :0.95254: L2-HR :0.90066: (Sim:0h7m43s) 
CPU  0 inst:   64000003 cyc:   37443353 now IPC :1.32532: AVG IPC :1.70059: L2-Pf-HR :0.95140: L2-HR :0.89951: (Sim:0h7m50s) 
CPU  0 inst:   65000000 cyc:   38051256 now IPC :1.64499: AVG IPC :1.69968: L2-Pf-HR :0.95134: L2-HR :0.89934: (Sim:0h7m58s) 
CPU  0 inst:   66000000 cyc:   38645522 now IPC :1.68275: AVG IPC :1.69942: L2-Pf-HR :0.95130: L2-HR :0.89925: (Sim:0h8m5s) 
CPU  0 inst:   67000005 cyc:   39246972 now IPC :1.66266: AVG IPC :1.69884: L2-Pf-HR :0.95121: L2-HR :0.89910: (Sim:0h8m12s) 
CPU  0 inst:   68000005 cyc:   39842643 now IPC :1.67878: AVG IPC :1.69853: L2-Pf-HR :0.95112: L2-HR :0.89890: (Sim:0h8m21s) 
CPU  0 inst:   69000001 cyc:   40439618 now IPC :1.67511: AVG IPC :1.69818: L2-Pf-HR :0.95109: L2-HR :0.89885: (Sim:0h8m29s) 
CPU  0 inst:   70000001 cyc:   41039432 now IPC :1.66718: AVG IPC :1.69771: L2-Pf-HR :0.95109: L2-HR :0.89878: (Sim:0h8m36s) 
CPU  0 inst:   71000002 cyc:   41634171 now IPC :1.68141: AVG IPC :1.69747: L2-Pf-HR :0.95109: L2-HR :0.89872: (Sim:0h8m44s) 
CPU  0 inst:   72000004 cyc:   42233040 now IPC :1.66982: AVG IPC :1.69707: L2-Pf-HR :0.95100: L2-HR :0.89856: (Sim:0h8m52s) 
CPU  0 inst:   73000000 cyc:   42823798 now IPC :1.69273: AVG IPC :1.69701: L2-Pf-HR :0.95088: L2-HR :0.89835: (Sim:0h8m59s) 
CPU  0 inst:   74000004 cyc:   43416848 now IPC :1.68621: AVG IPC :1.69686: L2-Pf-HR :0.95078: L2-HR :0.89813: (Sim:0h9m7s) 
CPU  0 inst:   75000002 cyc:   44007366 now IPC :1.69343: AVG IPC :1.69681: L2-Pf-HR :0.95071: L2-HR :0.89798: (Sim:0h9m14s) 
CPU  0 inst:   76000003 cyc:   44724888 now IPC :1.39369: AVG IPC :1.69184: L2-Pf-HR :0.95018: L2-HR :0.89752: (Sim:0h9m22s) 
CPU  0 inst:   77000004 cyc:   45301827 now IPC :1.73329: AVG IPC :1.69238: L2-Pf-HR :0.95030: L2-HR :0.89761: (Sim:0h9m29s) 
CPU  0 inst:   78000002 cyc:   45871277 now IPC :1.75608: AVG IPC :1.69319: L2-Pf-HR :0.95038: L2-HR :0.89764: (Sim:0h9m37s) 
CPU  0 inst:   79000000 cyc:   46445863 now IPC :1.74038: AVG IPC :1.69378: L2-Pf-HR :0.95050: L2-HR :0.89772: (Sim:0h9m44s) 
CPU  0 inst:   80000000 cyc:   47023471 now IPC :1.73128: AVG IPC :1.69425: L2-Pf-HR :0.95067: L2-HR :0.89786: (Sim:0h9m51s) 
CPU  0 inst:   81000001 cyc:   47601950 now IPC :1.72867: AVG IPC :1.69468: L2-Pf-HR :0.95088: L2-HR :0.89807: (Sim:0h9m59s) 
CPU  0 inst:   82000005 cyc:   48179266 now IPC :1.73216: AVG IPC :1.69514: L2-Pf-HR :0.95108: L2-HR :0.89828: (Sim:0h10m6s) 
CPU  0 inst:   83000002 cyc:   48752948 now IPC :1.74312: AVG IPC :1.69572: L2-Pf-HR :0.95128: L2-HR :0.89848: (Sim:0h10m13s) 
CPU  0 inst:   84000005 cyc:   49327972 now IPC :1.73906: AVG IPC :1.69623: L2-Pf-HR :0.95140: L2-HR :0.89857: (Sim:0h10m21s) 
CPU  0 inst:   85000005 cyc:   49903343 now IPC :1.73801: AVG IPC :1.69672: L2-Pf-HR :0.95154: L2-HR :0.89866: (Sim:0h10m28s) 
CPU  0 inst:   86000002 cyc:   50478820 now IPC :1.73768: AVG IPC :1.69720: L2-Pf-HR :0.95167: L2-HR :0.89876: (Sim:0h10m35s) 
CPU  0 inst:   87000000 cyc:   51132063 now IPC :1.53082: AVG IPC :1.69503: L2-Pf-HR :0.95141: L2-HR :0.89851: (Sim:0h10m43s) 
CPU  0 inst:   88000004 cyc:   51726258 now IPC :1.68296: AVG IPC :1.69489: L2-Pf-HR :0.95148: L2-HR :0.89870: (Sim:0h10m50s) 
CPU  0 inst:   89000000 cyc:   52295807 now IPC :1.75577: AVG IPC :1.69557: L2-Pf-HR :0.95152: L2-HR :0.89889: (Sim:0h10m57s) 
CPU  0 inst:   90000001 cyc:   52866025 now IPC :1.75372: AVG IPC :1.69621: L2-Pf-HR :0.95160: L2-HR :0.89910: (Sim:0h11m4s) 
CPU  0 inst:   91000005 cyc:   53435640 now IPC :1.75558: AVG IPC :1.69685: L2-Pf-HR :0.95175: L2-HR :0.89943: (Sim:0h11m12s) 
CPU  0 inst:   92000001 cyc:   54006900 now IPC :1.75051: AVG IPC :1.69743: L2-Pf-HR :0.95191: L2-HR :0.89973: (Sim:0h11m19s) 
CPU  0 inst:   93000002 cyc:   54578503 now IPC :1.74947: AVG IPC :1.69798: L2-Pf-HR :0.95201: L2-HR :0.89992: (Sim:0h11m26s) 
CPU  0 inst:   94000001 cyc:   55149295 now IPC :1.75195: AVG IPC :1.69855: L2-Pf-HR :0.95207: L2-HR :0.90011: (Sim:0h11m34s) 
CPU  0 inst:   95000002 cyc:   55853149 now IPC :1.42075: AVG IPC :1.69499: L2-Pf-HR :0.95138: L2-HR :0.89951: (Sim:0h11m41s) 
CPU  0 inst:   96000004 cyc:   56474516 now IPC :1.60936: AVG IPC :1.69403: L2-Pf-HR :0.95130: L2-HR :0.89939: (Sim:0h11m49s) 
CPU  0 inst:   97000000 cyc:   57068282 now IPC :1.68416: AVG IPC :1.69393: L2-Pf-HR :0.95127: L2-HR :0.89932: (Sim:0h11m57s) 
CPU  0 inst:   98000001 cyc:   57669602 now IPC :1.66301: AVG IPC :1.69360: L2-Pf-HR :0.95123: L2-HR :0.89922: (Sim:0h12m4s) 
CPU  0 inst:   99000000 cyc:   58267905 now IPC :1.67139: AVG IPC :1.69337: L2-Pf-HR :0.95118: L2-HR :0.89914: (Sim:0h12m12s) 
CPU  0 inst:  100000003 cyc:   58866313 now IPC :1.67111: AVG IPC :1.69314: L2-Pf-HR :0.95118: L2-HR :0.89914: (Sim:0h12m19s) 
CPU  0 inst:  101000002 cyc:   59465062 now IPC :1.67015: AVG IPC :1.69290: L2-Pf-HR :0.95116: L2-HR :0.89911: (Sim:0h12m26s) 
CPU  0 inst:  102000003 cyc:   60059756 now IPC :1.68154: AVG IPC :1.69279: L2-Pf-HR :0.95119: L2-HR :0.89909: (Sim:0h12m34s) 
CPU  0 inst:  103000000 cyc:   60658785 now IPC :1.66936: AVG IPC :1.69255: L2-Pf-HR :0.95114: L2-HR :0.89897: (Sim:0h12m41s) 
CPU  0 inst:  104000001 cyc:   61252885 now IPC :1.68322: AVG IPC :1.69246: L2-Pf-HR :0.95105: L2-HR :0.89883: (Sim:0h12m49s) 
CPU  0 inst:  105000005 cyc:   61850579 now IPC :1.67310: AVG IPC :1.69227: L2-Pf-HR :0.95097: L2-HR :0.89868: (Sim:0h12m56s) 
CPU  0 inst:  106000005 cyc:   62449244 now IPC :1.67038: AVG IPC :1.69206: L2-Pf-HR :0.95088: L2-HR :0.89853: (Sim:0h13m4s) 
CPU  0 inst:  107000002 cyc:   63161535 now IPC :1.40392: AVG IPC :1.68875: L2-Pf-HR :0.95047: L2-HR :0.89813: (Sim:0h13m12s) 
CPU  0 inst:  108000004 cyc:   63754677 now IPC :1.68594: AVG IPC :1.68873: L2-Pf-HR :0.95055: L2-HR :0.89817: (Sim:0h13m19s) 
CPU  0 inst:  109000005 cyc:   64332609 now IPC :1.73031: AVG IPC :1.68911: L2-Pf-HR :0.95063: L2-HR :0.89820: (Sim:0h13m26s) 
CPU  0 inst:  110000005 cyc:   64907632 now IPC :1.73906: AVG IPC :1.68956: L2-Pf-HR :0.95071: L2-HR :0.89823: (Sim:0h13m34s) 
CPU  0 inst:  111000001 cyc:   65485937 now IPC :1.72918: AVG IPC :1.68991: L2-Pf-HR :0.95081: L2-HR :0.89828: (Sim:0h13m41s) 
CPU  0 inst:  112000001 cyc:   66064538 now IPC :1.72831: AVG IPC :1.69025: L2-Pf-HR :0.95092: L2-HR :0.89837: (Sim:0h13m49s) 
CPU  0 inst:  113000002 cyc:   66640783 now IPC :1.73537: AVG IPC :1.69065: L2-Pf-HR :0.95109: L2-HR :0.89852: (Sim:0h13m56s) 
CPU  0 inst:  114000003 cyc:   67216298 now IPC :1.73758: AVG IPC :1.69106: L2-Pf-HR :0.95125: L2-HR :0.89867: (Sim:0h14m4s) 
CPU  0 inst:  115000003 cyc:   67793904 now IPC :1.73128: AVG IPC :1.69140: L2-Pf-HR :0.95135: L2-HR :0.89874: (Sim:0h14m11s) 
CPU  0 inst:  116000004 cyc:   68370053 now IPC :1.73566: AVG IPC :1.69178: L2-Pf-HR :0.95145: L2-HR :0.89879: (Sim:0h14m18s) 
CPU  0 inst:  117000001 cyc:   68946017 now IPC :1.73621: AVG IPC :1.69216: L2-Pf-HR :0.95154: L2-HR :0.89884: (Sim:0h14m26s) 
CPU  0 inst:  118000001 cyc:   69521377 now IPC :1.73804: AVG IPC :1.69254: L2-Pf-HR :0.95162: L2-HR :0.89887: (Sim:0h14m34s) 
CPU  0 inst:  119000003 cyc:   70198203 now IPC :1.47749: AVG IPC :1.69044: L2-Pf-HR :0.95140: L2-HR :0.89873: (Sim:0h14m42s) 
CPU  0 inst:  120000003 cyc:   70765381 now IPC :1.76311: AVG IPC :1.69103: L2-Pf-HR :0.95145: L2-HR :0.89888: (Sim:0h14m51s) 
CPU  0 inst:  121000000 cyc:   71334705 now IPC :1.75646: AVG IPC :1.69156: L2-Pf-HR :0.95149: L2-HR :0.89903: (Sim:0h15m2s) 
CPU  0 inst:  122000004 cyc:   71908639 now IPC :1.74237: AVG IPC :1.69197: L2-Pf-HR :0.95159: L2-HR :0.89922: (Sim:0h15m9s) 
CPU  0 inst:  123000003 cyc:   72482536 now IPC :1.74247: AVG IPC :1.69238: L2-Pf-HR :0.95170: L2-HR :0.89947: (Sim:0h15m16s) 
CPU  0 inst:  124000003 cyc:   73057504 now IPC :1.73923: AVG IPC :1.69275: L2-Pf-HR :0.95179: L2-HR :0.89966: (Sim:0h15m24s) 
CPU  0 inst:  125000000 cyc:   73633944 now IPC :1.73478: AVG IPC :1.69309: L2-Pf-HR :0.95186: L2-HR :0.89981: (Sim:0h15m32s) 
CPU  0 inst:  126000001 cyc:   74209296 now IPC :1.73807: AVG IPC :1.69344: L2-Pf-HR :0.95192: L2-HR :0.89995: (Sim:0h15m40s) 
CPU  0 inst:  127000003 cyc:   74955841 now IPC :1.33951: AVG IPC :1.68987: L2-Pf-HR :0.95135: L2-HR :0.89941: (Sim:0h15m48s) 
CPU  0 inst:  128000002 cyc:   75546210 now IPC :1.69385: AVG IPC :1.68990: L2-Pf-HR :0.95134: L2-HR :0.89938: (Sim:0h15m55s) 
CPU  0 inst:  129000005 cyc:   76146215 now IPC :1.66666: AVG IPC :1.68971: L2-Pf-HR :0.95131: L2-HR :0.89930: (Sim:0h16m3s) 
CPU  0 inst:  130000001 cyc:   76733830 now IPC :1.70179: AVG IPC :1.68981: L2-Pf-HR :0.95125: L2-HR :0.89919: (Sim:0h16m10s) 
CPU  0 inst:  131000002 cyc:   77325014 now IPC :1.69152: AVG IPC :1.68982: L2-Pf-HR :0.95118: L2-HR :0.89907: (Sim:0h16m18s) 
CPU  0 inst:  132000000 cyc:   77920086 now IPC :1.68047: AVG IPC :1.68975: L2-Pf-HR :0.95115: L2-HR :0.89903: (Sim:0h16m25s) 
CPU  0 inst:  133000002 cyc:   78507730 now IPC :1.70171: AVG IPC :1.68984: L2-Pf-HR :0.95118: L2-HR :0.89902: (Sim:0h16m35s) 
CPU  0 inst:  134000004 cyc:   79102847 now IPC :1.68035: AVG IPC :1.68977: L2-Pf-HR :0.95116: L2-HR :0.89899: (Sim:0h16m45s) 
CPU  0 inst:  135000004 cyc:   79691764 now IPC :1.69803: AVG IPC :1.68983: L2-Pf-HR :0.95113: L2-HR :0.89890: (Sim:0h16m53s) 
CPU  0 inst:  136000000 cyc:   80282320 now IPC :1.69331: AVG IPC :1.68985: L2-Pf-HR :0.95107: L2-HR :0.89879: (Sim:0h17m7s) 
CPU  0 inst:  137000001 cyc:   80875057 now IPC :1.68709: AVG IPC :1.68983: L2-Pf-HR :0.95101: L2-HR :0.89868: (Sim:0h17m24s) 
CPU  0 inst:  138000001 cyc:   81463809 now IPC :1.69851: AVG IPC :1.68990: L2-Pf-HR :0.95099: L2-HR :0.89861: (Sim:0h17m40s) 
CPU  0 inst:  139000002 cyc:   82186660 now IPC :1.38341: AVG IPC :1.68717: L2-Pf-HR :0.95071: L2-HR :0.89836: (Sim:0h17m58s) 
CPU  0 inst:  140000004 cyc:   82762663 now IPC :1.73611: AVG IPC :1.68751: L2-Pf-HR :0.95076: L2-HR :0.89838: (Sim:0h18m14s) 
CPU  0 inst:  141000001 cyc:   83336436 now IPC :1.74284: AVG IPC :1.68790: L2-Pf-HR :0.95083: L2-HR :0.89841: (Sim:0h18m30s) 
CPU  0 inst:  142000001 cyc:   83907331 now IPC :1.75164: AVG IPC :1.68834: L2-Pf-HR :0.95089: L2-HR :0.89844: (Sim:0h18m47s) 
CPU  0 inst:  143000003 cyc:   84478031 now IPC :1.75224: AVG IPC :1.68877: L2-Pf-HR :0.95095: L2-HR :0.89847: (Sim:0h19m3s) 
CPU  0 inst:  144000000 cyc:   85048238 now IPC :1.75374: AVG IPC :1.68921: L2-Pf-HR :0.95107: L2-HR :0.89859: (Sim:0h19m19s) 
CPU  0 inst:  145000003 cyc:   85617756 now IPC :1.75588: AVG IPC :1.68966: L2-Pf-HR :0.95120: L2-HR :0.89872: (Sim:0h19m35s) 
CPU  0 inst:  146000002 cyc:   86186242 now IPC :1.75906: AVG IPC :1.69013: L2-Pf-HR :0.95130: L2-HR :0.89882: (Sim:0h19m48s) 
CPU  0 inst:  147000004 cyc:   86756563 now IPC :1.75340: AVG IPC :1.69055: L2-Pf-HR :0.95139: L2-HR :0.89887: (Sim:0h19m56s) 
CPU  0 inst:  148000002 cyc:   87325475 now IPC :1.75774: AVG IPC :1.69099: L2-Pf-HR :0.95145: L2-HR :0.89891: (Sim:0h20m3s) 
CPU  0 inst:  149000002 cyc:   87895051 now IPC :1.75569: AVG IPC :1.69141: L2-Pf-HR :0.95152: L2-HR :0.89895: (Sim:0h20m11s) 
CPU  0 inst:  150000005 cyc:   88475211 now IPC :1.72367: AVG IPC :1.69163: L2-Pf-HR :0.95162: L2-HR :0.89904: (Sim:0h20m19s) 
CPU  0 inst:  151000003 cyc:   89130527 now IPC :1.52598: AVG IPC :1.69040: L2-Pf-HR :0.95142: L2-HR :0.89893: (Sim:0h20m27s) 
CPU  0 inst:  152000002 cyc:   89693154 now IPC :1.77737: AVG IPC :1.69095: L2-Pf-HR :0.95146: L2-HR :0.89906: (Sim:0h20m34s) 
CPU  0 inst:  153000003 cyc:   90251971 now IPC :1.78950: AVG IPC :1.69157: L2-Pf-HR :0.95148: L2-HR :0.89917: (Sim:0h20m42s) 
CPU  0 inst:  154000000 cyc:   90817119 now IPC :1.76944: AVG IPC :1.69205: L2-Pf-HR :0.95157: L2-HR :0.89933: (Sim:0h20m51s) 
CPU  0 inst:  155000000 cyc:   91381653 now IPC :1.77137: AVG IPC :1.69255: L2-Pf-HR :0.95166: L2-HR :0.89951: (Sim:0h21m7s) 
CPU  0 inst:  156000004 cyc:   91947885 now IPC :1.76607: AVG IPC :1.69301: L2-Pf-HR :0.95172: L2-HR :0.89966: (Sim:0h21m24s) 
CPU  0 inst:  157000000 cyc:   92513395 now IPC :1.76831: AVG IPC :1.69347: L2-Pf-HR :0.95177: L2-HR :0.89979: (Sim:0h21m40s) 
CPU  0 inst:  158000000 cyc:   93201326 now IPC :1.45363: AVG IPC :1.69168: L2-Pf-HR :0.95136: L2-HR :0.89945: (Sim:0h21m57s) 
CPU  0 inst:  159000003 cyc:   93831336 now IPC :1.58728: AVG IPC :1.69098: L2-Pf-HR :0.95134: L2-HR :0.89940: (Sim:0h22m14s) 
CPU  0 inst:  160000003 cyc:   94435154 now IPC :1.65613: AVG IPC :1.69075: L2-Pf-HR :0.95131: L2-HR :0.89934: (Sim:0h22m31s) 
CPU  0 inst:  161000003 cyc:   95033271 now IPC :1.67191: AVG IPC :1.69063: L2-Pf-HR :0.95129: L2-HR :0.89930: (Sim:0h22m48s) 
CPU  0 inst:  162000004 cyc:   95631467 now IPC :1.67169: AVG IPC :1.69051: L2-Pf-HR :0.95127: L2-HR :0.89926: (Sim:0h23m5s) 
CPU  0 inst:  163000000 cyc:   96230243 now IPC :1.67007: AVG IPC :1.69038: L2-Pf-HR :0.95123: L2-HR :0.89918: (Sim:0h23m22s) 
CPU  0 inst:  164000005 cyc:   96822429 now IPC :1.68867: AVG IPC :1.69037: L2-Pf-HR :0.95124: L2-HR :0.89917: (Sim:0h23m39s) 
CPU  0 inst:  165000001 cyc:   97418094 now IPC :1.67879: AVG IPC :1.69030: L2-Pf-HR :0.95124: L2-HR :0.89914: (Sim:0h23m55s) 
CPU  0 inst:  166000003 cyc:   98013903 now IPC :1.67839: AVG IPC :1.69023: L2-Pf-HR :0.95122: L2-HR :0.89908: (Sim:0h24m12s) 
CPU  0 inst:  167000002 cyc:   98607194 now IPC :1.68551: AVG IPC :1.69020: L2-Pf-HR :0.95117: L2-HR :0.89899: (Sim:0h24m29s) 
CPU  0 inst:  168000001 cyc:   99205614 now IPC :1.67107: AVG IPC :1.69008: L2-Pf-HR :0.95112: L2-HR :0.89889: (Sim:0h24m46s) 
CPU  0 inst:  169000002 cyc:   99801785 now IPC :1.67737: AVG IPC :1.69001: L2-Pf-HR :0.95109: L2-HR :0.89881: (Sim:0h25m3s) 
CPU  0 inst:  170000005 cyc:  100497870 now IPC :1.43661: AVG IPC :1.68823: L2-Pf-HR :0.95082: L2-HR :0.89854: (Sim:0h25m20s) 
CPU  0 inst:  171000004 cyc:  101108691 now IPC :1.63714: AVG IPC :1.68792: L2-Pf-HR :0.95087: L2-HR :0.89855: (Sim:0h25m37s) 
CPU  0 inst:  172000000 cyc:  101685600 now IPC :1.73337: AVG IPC :1.68818: L2-Pf-HR :0.95093: L2-HR :0.89858: (Sim:0h25m54s) 
CPU  0 inst:  173000001 cyc:  102258452 now IPC :1.74565: AVG IPC :1.68851: L2-Pf-HR :0.95097: L2-HR :0.89860: (Sim:0h26m10s) 
CPU  0 inst:  174000003 cyc:  102831577 now IPC :1.74482: AVG IPC :1.68882: L2-Pf-HR :0.95101: L2-HR :0.89861: (Sim:0h26m27s) 
CPU  0 inst:  175000005 cyc:  103406948 now IPC :1.73801: AVG IPC :1.68910: L2-Pf-HR :0.95109: L2-HR :0.89867: (Sim:0h26m43s) 
CPU  0 inst:  176000002 cyc:  103981606 now IPC :1.74016: AVG IPC :1.68938: L2-Pf-HR :0.95118: L2-HR :0.89875: (Sim:0h27m0s) 
CPU  0 inst:  177000000 cyc:  104556209 now IPC :1.74033: AVG IPC :1.68967: L2-Pf-HR :0.95127: L2-HR :0.89883: (Sim:0h27m16s) 
CPU  0 inst:  178000002 cyc:  105127245 now IPC :1.75121: AVG IPC :1.69000: L2-Pf-HR :0.95134: L2-HR :0.89889: (Sim:0h27m33s) 
CPU  0 inst:  179000002 cyc:  105697291 now IPC :1.75424: AVG IPC :1.69035: L2-Pf-HR :0.95140: L2-HR :0.89892: (Sim:0h27m49s) 
CPU  0 inst:  180000000 cyc:  106268295 now IPC :1.75130: AVG IPC :1.69068: L2-Pf-HR :0.95144: L2-HR :0.89893: (Sim:0h28m6s) 
CPU  0 inst:  181000003 cyc:  106838232 now IPC :1.75459: AVG IPC :1.69103: L2-Pf-HR :0.95150: L2-HR :0.89896: (Sim:0h28m22s) 
CPU  0 inst:  182000002 cyc:  107508785 now IPC :1.49130: AVG IPC :1.68977: L2-Pf-HR :0.95137: L2-HR :0.89887: (Sim:0h28m39s) 
CPU  0 inst:  183000001 cyc:  108078360 now IPC :1.75569: AVG IPC :1.69012: L2-Pf-HR :0.95140: L2-HR :0.89897: (Sim:0h28m56s) 
CPU  0 inst:  184000005 cyc:  108651927 now IPC :1.74348: AVG IPC :1.69041: L2-Pf-HR :0.95143: L2-HR :0.89906: (Sim:0h29m12s) 
CPU  0 inst:  185000003 cyc:  109223654 now IPC :1.74908: AVG IPC :1.69072: L2-Pf-HR :0.95148: L2-HR :0.89919: (Sim:0h29m28s) 
CPU  0 inst:  186000002 cyc:  109792924 now IPC :1.75663: AVG IPC :1.69106: L2-Pf-HR :0.95155: L2-HR :0.89934: (Sim:0h29m45s) 
CPU  0 inst:  187000001 cyc:  110364758 now IPC :1.74876: AVG IPC :1.69136: L2-Pf-HR :0.95162: L2-HR :0.89947: (Sim:0h30m1s) 
CPU  0 inst:  188000002 cyc:  110936418 now IPC :1.74929: AVG IPC :1.69166: L2-Pf-HR :0.95167: L2-HR :0.89958: (Sim:0h30m18s) 
CPU  0 inst:  189000004 cyc:  111508208 now IPC :1.74890: AVG IPC :1.69196: L2-Pf-HR :0.95172: L2-HR :0.89970: (Sim:0h30m29s) 
CPU  0 inst:  190000003 cyc:  112247225 now IPC :1.35315: AVG IPC :1.68971: L2-Pf-HR :0.95136: L2-HR :0.89936: (Sim:0h30m37s) 
CPU  0 inst:  191000005 cyc:  112853964 now IPC :1.64816: AVG IPC :1.68948: L2-Pf-HR :0.95133: L2-HR :0.89929: (Sim:0h30m44s) 
CPU  0 inst:  192000003 cyc:  113450139 now IPC :1.67736: AVG IPC :1.68942: L2-Pf-HR :0.95129: L2-HR :0.89920: (Sim:0h30m52s) 
CPU  0 inst:  193000000 cyc:  114045668 now IPC :1.67917: AVG IPC :1.68937: L2-Pf-HR :0.95124: L2-HR :0.89912: (Sim:0h30m59s) 
CPU  0 inst:  194000000 cyc:  114644999 now IPC :1.66853: AVG IPC :1.68926: L2-Pf-HR :0.95119: L2-HR :0.89903: (Sim:0h31m7s) 
CPU  0 inst:  195000005 cyc:  115245742 now IPC :1.66461: AVG IPC :1.68913: L2-Pf-HR :0.95120: L2-HR :0.89901: (Sim:0h31m15s) 
CPU  0 inst:  196000002 cyc:  115849854 now IPC :1.65532: AVG IPC :1.68895: L2-Pf-HR :0.95120: L2-HR :0.89899: (Sim:0h31m22s) 
CPU  0 inst:  197000001 cyc:  116444324 now IPC :1.68217: AVG IPC :1.68891: L2-Pf-HR :0.95120: L2-HR :0.89898: (Sim:0h31m30s) 
CPU  0 inst:  198000001 cyc:  117038984 now IPC :1.68163: AVG IPC :1.68888: L2-Pf-HR :0.95115: L2-HR :0.89890: (Sim:0h31m38s) 
CPU  0 inst:  199000000 cyc:  117632441 now IPC :1.68504: AVG IPC :1.68886: L2-Pf-HR :0.95109: L2-HR :0.89881: (Sim:0h31m46s) 
CPU  0 inst:  200000001 cyc:  118230479 now IPC :1.67214: AVG IPC :1.68877: L2-Pf-HR :0.95106: L2-HR :0.89875: (Sim:0h31m53s) 
CPU  0 inst:  201000003 cyc:  118829197 now IPC :1.67024: AVG IPC :1.68868: L2-Pf-HR :0.95103: L2-HR :0.89868: (Sim:0h32m1s) 
CPU  0 inst:  202000003 cyc:  119557524 now IPC :1.37301: AVG IPC :1.68674: L2-Pf-HR :0.95082: L2-HR :0.89849: (Sim:0h32m9s) 
CPU  0 inst:  203000000 cyc:  120142166 now IPC :1.71044: AVG IPC :1.68686: L2-Pf-HR :0.95087: L2-HR :0.89851: (Sim:0h32m23s) 
CPU  0 inst:  204000001 cyc:  120719273 now IPC :1.73278: AVG IPC :1.68708: L2-Pf-HR :0.95091: L2-HR :0.89854: (Sim:0h32m40s) 
CPU  0 inst:  205000002 cyc:  121295344 now IPC :1.73590: AVG IPC :1.68731: L2-Pf-HR :0.95095: L2-HR :0.89856: (Sim:0h32m57s) 
CPU  0 inst:  206000002 cyc:  121870701 now IPC :1.73805: AVG IPC :1.68755: L2-Pf-HR :0.95099: L2-HR :0.89860: (Sim:0h33m15s) 
CPU  0 inst:  207000000 cyc:  122448443 now IPC :1.73087: AVG IPC :1.68776: L2-Pf-HR :0.95107: L2-HR :0.89868: (Sim:0h33m32s) 
CPU  0 inst:  208000004 cyc:  123025017 now IPC :1.73439: AVG IPC :1.68798: L2-Pf-HR :0.95114: L2-HR :0.89876: (Sim:0h33m49s) 
CPU  0 inst:  209000002 cyc:  123602527 now IPC :1.73157: AVG IPC :1.68818: L2-Pf-HR :0.95123: L2-HR :0.89884: (Sim:0h34m6s) 
CPU  0 inst:  210000001 cyc:  124179741 now IPC :1.73246: AVG IPC :1.68839: L2-Pf-HR :0.95129: L2-HR :0.89887: (Sim:0h34m23s) 
CPU  0 inst:  211000001 cyc:  124753892 now IPC :1.74170: AVG IPC :1.68864: L2-Pf-HR :0.95133: L2-HR :0.89890: (Sim:0h34m40s) 
CPU  0 inst:  212000004 cyc:  125330036 now IPC :1.73568: AVG IPC :1.68886: L2-Pf-HR :0.95138: L2-HR :0.89892: (Sim:0h34m57s) 
CPU  0 inst:  213000001 cyc:  125905770 now IPC :1.73691: AVG IPC :1.68908: L2-Pf-HR :0.95142: L2-HR :0.89894: (Sim:0h35m13s) 
CPU  0 inst:  214000005 cyc:  126577805 now IPC :1.48802: AVG IPC :1.68800: L2-Pf-HR :0.95130: L2-HR :0.89888: (Sim:0h35m30s) 
CPU  0 inst:  215000004 cyc:  127152662 now IPC :1.73956: AVG IPC :1.68824: L2-Pf-HR :0.95132: L2-HR :0.89895: (Sim:0h35m46s) 
CPU  0 inst:  216000005 cyc:  127725518 now IPC :1.74564: AVG IPC :1.68850: L2-Pf-HR :0.95134: L2-HR :0.89902: (Sim:0h36m3s) 
CPU  0 inst:  217000001 cyc:  128300192 now IPC :1.74011: AVG IPC :1.68873: L2-Pf-HR :0.95140: L2-HR :0.89913: (Sim:0h36m19s) 
CPU  0 inst:  218000002 cyc:  128876711 now IPC :1.73455: AVG IPC :1.68894: L2-Pf-HR :0.95146: L2-HR :0.89926: (Sim:0h36m36s) 
CPU  0 inst:  219000001 cyc:  129453979 now IPC :1.73230: AVG IPC :1.68913: L2-Pf-HR :0.95151: L2-HR :0.89935: (Sim:0h36m52s) 
CPU  0 inst:  220000003 cyc:  130030739 now IPC :1.73383: AVG IPC :1.68933: L2-Pf-HR :0.95154: L2-HR :0.89943: (Sim:0h37m9s) 
CPU  0 inst:  221000002 cyc:  130616206 now IPC :1.70804: AVG IPC :1.68941: L2-Pf-HR :0.95159: L2-HR :0.89953: (Sim:0h37m25s) 
CPU  0 inst:  222000001 cyc:  131372580 now IPC :1.32210: AVG IPC :1.68728: L2-Pf-HR :0.95126: L2-HR :0.89916: (Sim:0h37m42s) 
CPU  0 inst:  223000003 cyc:  131967302 now IPC :1.68146: AVG IPC :1.68726: L2-Pf-HR :0.95125: L2-HR :0.89913: (Sim:0h37m59s) 
CPU  0 inst:  224000001 cyc:  132567667 now IPC :1.66565: AVG IPC :1.68716: L2-Pf-HR :0.95121: L2-HR :0.89909: (Sim:0h38m16s) 
CPU  0 inst:  225000000 cyc:  133166543 now IPC :1.66979: AVG IPC :1.68708: L2-Pf-HR :0.95118: L2-HR :0.89905: (Sim:0h38m33s) 
CPU  0 inst:  226000003 cyc:  133759718 now IPC :1.68585: AVG IPC :1.68707: L2-Pf-HR :0.95118: L2-HR :0.89905: (Sim:0h38m49s) 
CPU  0 inst:  227000004 cyc:  134360525 now IPC :1.66443: AVG IPC :1.68697: L2-Pf-HR :0.95120: L2-HR :0.89906: (Sim:0h39m6s) 
CPU  0 inst:  228000001 cyc:  134959181 now IPC :1.67040: AVG IPC :1.68690: L2-Pf-HR :0.95122: L2-HR :0.89908: (Sim:0h39m23s) 
CPU  0 inst:  229000002 cyc:  135565503 now IPC :1.64929: AVG IPC :1.68673: L2-Pf-HR :0.95123: L2-HR :0.89909: (Sim:0h39m40s) 
CPU  0 inst:  230000005 cyc:  136166120 now IPC :1.66496: AVG IPC :1.68663: L2-Pf-HR :0.95122: L2-HR :0.89905: (Sim:0h39m57s) 
CPU  0 inst:  231000004 cyc:  136759825 now IPC :1.68434: AVG IPC :1.68662: L2-Pf-HR :0.95119: L2-HR :0.89899: (Sim:0h40m13s) 
CPU  0 inst:  232000000 cyc:  137359235 now IPC :1.66830: AVG IPC :1.68654: L2-Pf-HR :0.95115: L2-HR :0.89892: (Sim:0h40m30s) 
CPU  0 inst:  233000003 cyc:  137987158 now IPC :1.59256: AVG IPC :1.68611: L2-Pf-HR :0.95110: L2-HR :0.89886: (Sim:0h40m47s) 
CPU  0 inst:  234000001 cyc:  138653293 now IPC :1.50119: AVG IPC :1.68522: L2-Pf-HR :0.95098: L2-HR :0.89875: (Sim:0h41m4s) 
CPU  0 inst:  235000001 cyc:  139222344 now IPC :1.75731: AVG IPC :1.68551: L2-Pf-HR :0.95101: L2-HR :0.89877: (Sim:0h41m20s) 
CPU  0 inst:  236000000 cyc:  139789531 now IPC :1.76309: AVG IPC :1.68583: L2-Pf-HR :0.95105: L2-HR :0.89878: (Sim:0h41m37s) 
CPU  0 inst:  237000000 cyc:  140355615 now IPC :1.76652: AVG IPC :1.68616: L2-Pf-HR :0.95109: L2-HR :0.89881: (Sim:0h41m53s) 
CPU  0 inst:  238000000 cyc:  140922681 now IPC :1.76346: AVG IPC :1.68647: L2-Pf-HR :0.95114: L2-HR :0.89885: (Sim:0h42m10s) 
CPU  0 inst:  239000002 cyc:  141491633 now IPC :1.75762: AVG IPC :1.68676: L2-Pf-HR :0.95121: L2-HR :0.89892: (Sim:0h42m26s) 
CPU  0 inst:  240000001 cyc:  142061751 now IPC :1.75402: AVG IPC :1.68703: L2-Pf-HR :0.95128: L2-HR :0.89899: (Sim:0h42m43s) 
CPU  0 inst:  241000005 cyc:  142629469 now IPC :1.76144: AVG IPC :1.68733: L2-Pf-HR :0.95134: L2-HR :0.89904: (Sim:0h42m59s) 
CPU  0 inst:  242000002 cyc:  143195249 now IPC :1.76747: AVG IPC :1.68765: L2-Pf-HR :0.95138: L2-HR :0.89907: (Sim:0h43m15s) 
CPU  0 inst:  243000004 cyc:  143760129 now IPC :1.77029: AVG IPC :1.68798: L2-Pf-HR :0.95142: L2-HR :0.89909: (Sim:0h43m32s) 
CPU  0 inst:  244000004 cyc:  144325396 now IPC :1.76908: AVG IPC :1.68830: L2-Pf-HR :0.95146: L2-HR :0.89911: (Sim:0h43m48s) 
CPU  0 inst:  245000005 cyc:  145001269 now IPC :1.47957: AVG IPC :1.68732: L2-Pf-HR :0.95138: L2-HR :0.89903: (Sim:0h44m5s) 
CPU  0 inst:  246000000 cyc:  145569743 now IPC :1.75909: AVG IPC :1.68760: L2-Pf-HR :0.95140: L2-HR :0.89911: (Sim:0h44m21s) 
CPU  0 inst:  247000002 cyc:  146135387 now IPC :1.76790: AVG IPC :1.68791: L2-Pf-HR :0.95141: L2-HR :0.89918: (Sim:0h44m37s) 
CPU  0 inst:  248000000 cyc:  146709105 now IPC :1.74301: AVG IPC :1.68813: L2-Pf-HR :0.95144: L2-HR :0.89925: (Sim:0h44m53s) 
CPU  0 inst:  249000004 cyc:  147280603 now IPC :1.74979: AVG IPC :1.68837: L2-Pf-HR :0.95149: L2-HR :0.89936: (Sim:0h45m9s) 
CPU  0 inst:  250000003 cyc:  147849493 now IPC :1.75781: AVG IPC :1.68864: L2-Pf-HR :0.95154: L2-HR :0.89947: (Sim:0h45m26s) 
CPU  0 inst:  251000002 cyc:  148424226 now IPC :1.73994: AVG IPC :1.68884: L2-Pf-HR :0.95158: L2-HR :0.89956: (Sim:0h45m42s) 
CPU  0 inst:  252000003 cyc:  148999009 now IPC :1.73979: AVG IPC :1.68904: L2-Pf-HR :0.95160: L2-HR :0.89963: (Sim:0h45m58s) 
CPU  0 inst:  253000000 cyc:  149749652 now IPC :1.33219: AVG IPC :1.68723: L2-Pf-HR :0.95133: L2-HR :0.89938: (Sim:0h46m16s) 
CPU  0 inst:  254000005 cyc:  150349136 now IPC :1.66811: AVG IPC :1.68716: L2-Pf-HR :0.95132: L2-HR :0.89935: (Sim:0h46m32s) 
CPU  0 inst:  255000000 cyc:  150944362 now IPC :1.68003: AVG IPC :1.68713: L2-Pf-HR :0.95130: L2-HR :0.89932: (Sim:0h46m49s) 
CPU  0 inst:  256000002 cyc:  151544822 now IPC :1.66539: AVG IPC :1.68704: L2-Pf-HR :0.95129: L2-HR :0.89928: (Sim:0h47m6s) 
CPU  0 inst:  257000002 cyc:  152153916 now IPC :1.64178: AVG IPC :1.68686: L2-Pf-HR :0.95127: L2-HR :0.89926: (Sim:0h47m22s) 
CPU  0 inst:  258000004 cyc:  152764545 now IPC :1.63766: AVG IPC :1.68666: L2-Pf-HR :0.95128: L2-HR :0.89926: (Sim:0h47m39s) 
CPU  0 inst:  259000000 cyc:  153355671 now IPC :1.69168: AVG IPC :1.68668: L2-Pf-HR :0.95128: L2-HR :0.89925: (Sim:0h47m56s) 
CPU  0 inst:  260000004 cyc:  153958404 now IPC :1.65912: AVG IPC :1.68657: L2-Pf-HR :0.95128: L2-HR :0.89923: (Sim:0h48m12s) 
CPU  0 inst:  261000003 cyc:  154558138 now IPC :1.66740: AVG IPC :1.68650: L2-Pf-HR :0.95125: L2-HR :0.89918: (Sim:0h48m29s) 
CPU  0 inst:  262000003 cyc:  155160087 now IPC :1.66127: AVG IPC :1.68640: L2-Pf-HR :0.95124: L2-HR :0.89913: (Sim:0h48m46s) 
CPU  0 inst:  263000000 cyc:  155762981 now IPC :1.65866: AVG IPC :1.68629: L2-Pf-HR :0.95121: L2-HR :0.89907: (Sim:0h49m2s) 
CPU  0 inst:  264000000 cyc:  156350252 now IPC :1.70279: AVG IPC :1.68635: L2-Pf-HR :0.95117: L2-HR :0.89901: (Sim:0h49m19s) 
CPU  0 inst:  265000004 cyc:  157072616 now IPC :1.38435: AVG IPC :1.68496: L2-Pf-HR :0.95102: L2-HR :0.89887: (Sim:0h49m36s) 
CPU  0 inst:  266000002 cyc:  157653817 now IPC :1.72057: AVG IPC :1.68509: L2-Pf-HR :0.95104: L2-HR :0.89888: (Sim:0h49m52s) 
CPU  0 inst:  267000000 cyc:  158226305 now IPC :1.74676: AVG IPC :1.68531: L2-Pf-HR :0.95108: L2-HR :0.89890: (Sim:0h50m9s) 
CPU  0 inst:  268000005 cyc:  158797298 now IPC :1.75134: AVG IPC :1.68555: L2-Pf-HR :0.95111: L2-HR :0.89892: (Sim:0h50m25s) 
CPU  0 inst:  269000003 cyc:  159370201 now IPC :1.74549: AVG IPC :1.68577: L2-Pf-HR :0.95114: L2-HR :0.89893: (Sim:0h50m41s) 
CPU  0 inst:  270000002 cyc:  159948116 now IPC :1.73036: AVG IPC :1.68593: L2-Pf-HR :0.95120: L2-HR :0.89899: (Sim:0h50m58s) 
CPU  0 inst:  271000005 cyc:  160522934 now IPC :1.73969: AVG IPC :1.68612: L2-Pf-HR :0.95126: L2-HR :0.89906: (Sim:0h51m14s) 
CPU  0 inst:  272000004 cyc:  161099773 now IPC :1.73358: AVG IPC :1.68630: L2-Pf-HR :0.95132: L2-HR :0.89912: (Sim:0h51m30s) 
CPU  0 inst:  273000005 cyc:  161675367 now IPC :1.73734: AVG IPC :1.68648: L2-Pf-HR :0.95137: L2-HR :0.89916: (Sim:0h51m47s) 
CPU  0 inst:  274000004 cyc:  162248342 now IPC :1.74528: AVG IPC :1.68669: L2-Pf-HR :0.95140: L2-HR :0.89917: (Sim:0h52m3s) 
CPU  0 inst:  275000005 cyc:  162823518 now IPC :1.73860: AVG IPC :1.68687: L2-Pf-HR :0.95143: L2-HR :0.89918: (Sim:0h52m19s) 
CPU  0 inst:  276000000 cyc:  163396102 now IPC :1.74646: AVG IPC :1.68708: L2-Pf-HR :0.95147: L2-HR :0.89921: (Sim:0h52m36s) 
CPU  0 inst:  277000001 cyc:  164062433 now IPC :1.50076: AVG IPC :1.68632: L2-Pf-HR :0.95138: L2-HR :0.89916: (Sim:0h52m53s) 
CPU  0 inst:  278000002 cyc:  164628074 now IPC :1.76791: AVG IPC :1.68660: L2-Pf-HR :0.95140: L2-HR :0.89922: (Sim:0h53m9s) 
CPU  0 inst:  279000002 cyc:  165195174 now IPC :1.76336: AVG IPC :1.68687: L2-Pf-HR :0.95143: L2-HR :0.89929: (Sim:0h53m25s) 
CPU  0 inst:  280000000 cyc:  165761276 now IPC :1.76646: AVG IPC :1.68714: L2-Pf-HR :0.95147: L2-HR :0.89938: (Sim:0h53m41s) 
CPU  0 inst:  281000005 cyc:  166330038 now IPC :1.75821: AVG IPC :1.68739: L2-Pf-HR :0.95153: L2-HR :0.89948: (Sim:0h53m58s) 
CPU  0 inst:  282000001 cyc:  166898439 now IPC :1.75931: AVG IPC :1.68763: L2-Pf-HR :0.95156: L2-HR :0.89955: (Sim:0h54m14s) 
CPU  0 inst:  283000002 cyc:  167464066 now IPC :1.76795: AVG IPC :1.68791: L2-Pf-HR :0.95159: L2-HR :0.89963: (Sim:0h54m30s) 
CPU  0 inst:  284000003 cyc:  168033078 now IPC :1.75743: AVG IPC :1.68814: L2-Pf-HR :0.95162: L2-HR :0.89970: (Sim:0h54m37s) 
CPU  0 inst:  285000004 cyc:  168783533 now IPC :1.33253: AVG IPC :1.68655: L2-Pf-HR :0.95137: L2-HR :0.89944: (Sim:0h54m46s) 
CPU  0 inst:  286000003 cyc:  169383408 now IPC :1.66701: AVG IPC :1.68648: L2-Pf-HR :0.95135: L2-HR :0.89942: (Sim:0h54m53s) 
CPU  0 inst:  287000001 cyc:  169977781 now IPC :1.68244: AVG IPC :1.68647: L2-Pf-HR :0.95133: L2-HR :0.89937: (Sim:0h55m1s) 
CPU  0 inst:  288000003 cyc:  170579098 now IPC :1.66302: AVG IPC :1.68638: L2-Pf-HR :0.95129: L2-HR :0.89931: (Sim:0h55m9s) 
CPU  0 inst:  289000003 cyc:  171179419 now IPC :1.66578: AVG IPC :1.68631: L2-Pf-HR :0.95127: L2-HR :0.89926: (Sim:0h55m17s) 
CPU  0 inst:  290000001 cyc:  171773003 now IPC :1.68468: AVG IPC :1.68631: L2-Pf-HR :0.95127: L2-HR :0.89925: (Sim:0h55m24s) 
CPU  0 inst:  291000003 cyc:  172373275 now IPC :1.66591: AVG IPC :1.68623: L2-Pf-HR :0.95126: L2-HR :0.89923: (Sim:0h55m32s) 
CPU  0 inst:  292000005 cyc:  172962645 now IPC :1.69673: AVG IPC :1.68627: L2-Pf-HR :0.95126: L2-HR :0.89921: (Sim:0h55m40s) 
CPU  0 inst:  293000005 cyc:  173565351 now IPC :1.65918: AVG IPC :1.68618: L2-Pf-HR :0.95124: L2-HR :0.89916: (Sim:0h55m47s) 
CPU  0 inst:  294000001 cyc:  174164204 now IPC :1.66985: AVG IPC :1.68612: L2-Pf-HR :0.95121: L2-HR :0.89911: (Sim:0h55m55s) 
CPU  0 inst:  295000000 cyc:  174756676 now IPC :1.68784: AVG IPC :1.68613: L2-Pf-HR :0.95117: L2-HR :0.89905: (Sim:0h56m3s) 
CPU  0 inst:  296000004 cyc:  175361029 now IPC :1.65467: AVG IPC :1.68602: L2-Pf-HR :0.95117: L2-HR :0.89903: (Sim:0h56m10s) 
CPU  0 inst:  297000001 cyc:  176072073 now IPC :1.40638: AVG IPC :1.68488: L2-Pf-HR :0.95103: L2-HR :0.89890: (Sim:0h56m20s) 
CPU  0 inst:  298000003 cyc:  176643254 now IPC :1.75076: AVG IPC :1.68510: L2-Pf-HR :0.95106: L2-HR :0.89891: (Sim:0h56m29s) 
CPU  0 inst:  299000000 cyc:  177213769 now IPC :1.75280: AVG IPC :1.68531: L2-Pf-HR :0.95110: L2-HR :0.89893: (Sim:0h56m38s) 
CPU  0 inst:  300000000 cyc:  177781121 now IPC :1.76257: AVG IPC :1.68556: L2-Pf-HR :0.95112: L2-HR :0.89894: (Sim:0h56m45s) 
CPU  0 inst:  301000005 cyc:  178351252 now IPC :1.75399: AVG IPC :1.68578: L2-Pf-HR :0.95116: L2-HR :0.89897: (Sim:0h56m53s) 
CPU  0 inst:  302000000 cyc:  178920401 now IPC :1.75700: AVG IPC :1.68601: L2-Pf-HR :0.95122: L2-HR :0.89902: (Sim:0h57m0s) 
CPU  0 inst:  303000000 cyc:  179489162 now IPC :1.75821: AVG IPC :1.68624: L2-Pf-HR :0.95127: L2-HR :0.89907: (Sim:0h57m8s) 
CPU  0 inst:  304000004 cyc:  180057051 now IPC :1.76091: AVG IPC :1.68648: L2-Pf-HR :0.95133: L2-HR :0.89912: (Sim:0h57m15s) 
CPU  0 inst:  305000003 cyc:  180623397 now IPC :1.76570: AVG IPC :1.68673: L2-Pf-HR :0.95136: L2-HR :0.89914: (Sim:0h57m23s) 
CPU  0 inst:  306000000 cyc:  181187676 now IPC :1.77217: AVG IPC :1.68699: L2-Pf-HR :0.95139: L2-HR :0.89915: (Sim:0h57m30s) 
CPU  0 inst:  307000000 cyc:  181753633 now IPC :1.76692: AVG IPC :1.68724: L2-Pf-HR :0.95142: L2-HR :0.89917: (Sim:0h57m38s) 
CPU  0 inst:  308000004 cyc:  182415583 now IPC :1.51069: AVG IPC :1.68660: L2-Pf-HR :0.95135: L2-HR :0.89910: (Sim:0h57m46s) 
CPU  0 inst:  309000005 cyc:  183004408 now IPC :1.69830: AVG IPC :1.68664: L2-Pf-HR :0.95137: L2-HR :0.89916: (Sim:0h57m53s) 
CPU  0 inst:  310000003 cyc:  183574565 now IPC :1.75390: AVG IPC :1.68685: L2-Pf-HR :0.95138: L2-HR :0.89921: (Sim:0h58m1s) 
CPU  0 inst:  311000002 cyc:  184144699 now IPC :1.75397: AVG IPC :1.68706: L2-Pf-HR :0.95141: L2-HR :0.89927: (Sim:0h58m8s) 
CPU  0 inst:  312000000 cyc:  184715867 now IPC :1.75079: AVG IPC :1.68726: L2-Pf-HR :0.95145: L2-HR :0.89936: (Sim:0h58m15s) 
CPU  0 inst:  313000001 cyc:  185288886 now IPC :1.74514: AVG IPC :1.68744: L2-Pf-HR :0.95150: L2-HR :0.89945: (Sim:0h58m23s) 
CPU  0 inst:  314000003 cyc:  185861926 now IPC :1.74508: AVG IPC :1.68761: L2-Pf-HR :0.95152: L2-HR :0.89950: (Sim:0h58m30s) 
CPU  0 inst:  315000002 cyc:  186435389 now IPC :1.74379: AVG IPC :1.68779: L2-Pf-HR :0.95155: L2-HR :0.89955: (Sim:0h58m38s) 
CPU  0 inst:  316000000 cyc:  187162339 now IPC :1.37561: AVG IPC :1.68657: L2-Pf-HR :0.95134: L2-HR :0.89937: (Sim:0h58m46s) 
CPU  0 inst:  317000003 cyc:  187767963 now IPC :1.65119: AVG IPC :1.68645: L2-Pf-HR :0.95133: L2-HR :0.89934: (Sim:0h58m54s) 
CPU  0 inst:  318000001 cyc:  188363474 now IPC :1.67923: AVG IPC :1.68643: L2-Pf-HR :0.95132: L2-HR :0.89931: (Sim:0h59m1s) 
CPU  0 inst:  319000002 cyc:  188963905 now IPC :1.66547: AVG IPC :1.68636: L2-Pf-HR :0.95131: L2-HR :0.89929: (Sim:0h59m10s) 
CPU  0 inst:  320000005 cyc:  189565793 now IPC :1.66144: AVG IPC :1.68628: L2-Pf-HR :0.95129: L2-HR :0.89926: (Sim:0h59m26s) 
CPU  0 inst:  321000000 cyc:  190157699 now IPC :1.68945: AVG IPC :1.68629: L2-Pf-HR :0.95128: L2-HR :0.89924: (Sim:0h59m43s) 
CPU  0 inst:  322000000 cyc:  190755931 now IPC :1.67159: AVG IPC :1.68625: L2-Pf-HR :0.95128: L2-HR :0.89922: (Sim:0h59m59s) 
CPU  0 inst:  323000002 cyc:  191345781 now IPC :1.69535: AVG IPC :1.68628: L2-Pf-HR :0.95129: L2-HR :0.89921: (Sim:1h0m15s) 
CPU  0 inst:  324000000 cyc:  191950061 now IPC :1.65486: AVG IPC :1.68618: L2-Pf-HR :0.95128: L2-HR :0.89918: (Sim:1h0m31s) 
CPU  0 inst:  325000003 cyc:  192548961 now IPC :1.66973: AVG IPC :1.68613: L2-Pf-HR :0.95125: L2-HR :0.89913: (Sim:1h0m47s) 
CPU  0 inst:  326000001 cyc:  193136351 now IPC :1.70244: AVG IPC :1.68618: L2-Pf-HR :0.95124: L2-HR :0.89909: (Sim:1h1m3s) 
CPU  0 inst:  327000001 cyc:  193730970 now IPC :1.68175: AVG IPC :1.68616: L2-Pf-HR :0.95121: L2-HR :0.89903: (Sim:1h1m19s) 
CPU  0 inst:  328000002 cyc:  194454323 now IPC :1.38245: AVG IPC :1.68503: L2-Pf-HR :0.95107: L2-HR :0.89890: (Sim:1h1m36s) 
CPU  0 inst:  329000002 cyc:  195031315 now IPC :1.73313: AVG IPC :1.68517: L2-Pf-HR :0.95109: L2-HR :0.89891: (Sim:1h1m46s) 
CPU  0 inst:  330000003 cyc:  195599281 now IPC :1.76067: AVG IPC :1.68539: L2-Pf-HR :0.95111: L2-HR :0.89892: (Sim:1h1m53s) 
CPU  0 inst:  331000005 cyc:  196171427 now IPC :1.74781: AVG IPC :1.68557: L2-Pf-HR :0.95113: L2-HR :0.89892: (Sim:1h2m2s) 
CPU  0 inst:  332000001 cyc:  196741629 now IPC :1.75376: AVG IPC :1.68577: L2-Pf-HR :0.95116: L2-HR :0.89894: (Sim:1h2m12s) 
CPU  0 inst:  333000004 cyc:  197316850 now IPC :1.73847: AVG IPC :1.68593: L2-Pf-HR :0.95120: L2-HR :0.89898: (Sim:1h2m26s) 
CPU  0 inst:  334000004 cyc:  197890394 now IPC :1.74355: AVG IPC :1.68609: L2-Pf-HR :0.95125: L2-HR :0.89902: (Sim:1h2m43s) 
CPU  0 inst:  335000000 cyc:  198460230 now IPC :1.75488: AVG IPC :1.68629: L2-Pf-HR :0.95130: L2-HR :0.89907: (Sim:1h3m0s) 
CPU  0 inst:  336000004 cyc:  199033496 now IPC :1.74440: AVG IPC :1.68646: L2-Pf-HR :0.95133: L2-HR :0.89910: (Sim:1h3m16s) 
CPU  0 inst:  337000000 cyc:  199602236 now IPC :1.75827: AVG IPC :1.68667: L2-Pf-HR :0.95136: L2-HR :0.89911: (Sim:1h3m33s) 
CPU  0 inst:  338000004 cyc:  200172167 now IPC :1.75461: AVG IPC :1.68686: L2-Pf-HR :0.95139: L2-HR :0.89912: (Sim:1h3m50s) 
CPU  0 inst:  339000000 cyc:  200742632 now IPC :1.75295: AVG IPC :1.68705: L2-Pf-HR :0.95141: L2-HR :0.89914: (Sim:1h4m6s) 
CPU  0 inst:  340000001 cyc:  201421318 now IPC :1.47344: AVG IPC :1.68633: L2-Pf-HR :0.95134: L2-HR :0.89909: (Sim:1h4m23s) 
CPU  0 inst:  341000003 cyc:  201991801 now IPC :1.75290: AVG IPC :1.68651: L2-Pf-HR :0.95135: L2-HR :0.89914: (Sim:1h4m40s) 
CPU  0 inst:  342000001 cyc:  202565375 now IPC :1.74345: AVG IPC :1.68668: L2-Pf-HR :0.95137: L2-HR :0.89920: (Sim:1h4m57s) 
CPU  0 inst:  343000005 cyc:  203141938 now IPC :1.73442: AVG IPC :1.68681: L2-Pf-HR :0.95140: L2-HR :0.89926: (Sim:1h5m13s) 
CPU  0 inst:  344000001 cyc:  203716685 now IPC :1.73989: AVG IPC :1.68696: L2-Pf-HR :0.95144: L2-HR :0.89934: (Sim:1h5m30s) 
CPU  0 inst:  345000000 cyc:  204290827 now IPC :1.74173: AVG IPC :1.68712: L2-Pf-HR :0.95147: L2-HR :0.89942: (Sim:1h5m47s) 
CPU  0 inst:  346000004 cyc:  204865465 now IPC :1.74023: AVG IPC :1.68727: L2-Pf-HR :0.95150: L2-HR :0.89948: (Sim:1h6m3s) 
CPU  0 inst:  347000003 cyc:  205441746 now IPC :1.73526: AVG IPC :1.68740: L2-Pf-HR :0.95153: L2-HR :0.89953: (Sim:1h6m14s) 
CPU  0 inst:  348000001 cyc:  206201023 now IPC :1.31704: AVG IPC :1.68603: L2-Pf-HR :0.95133: L2-HR :0.89933: (Sim:1h6m22s) 
CPU  0 inst:  349000003 cyc:  206797770 now IPC :1.67576: AVG IPC :1.68600: L2-Pf-HR :0.95131: L2-HR :0.89929: (Sim:1h6m30s) 
CPU  0 inst:  350000005 cyc:  207400093 now IPC :1.66024: AVG IPC :1.68593: L2-Pf-HR :0.95129: L2-HR :0.89925: (Sim:1h6m37s) 
CPU  0 inst:  351000003 cyc:  208000772 now IPC :1.66478: AVG IPC :1.68587: L2-Pf-HR :0.95126: L2-HR :0.89920: (Sim:1h6m45s) 
CPU  0 inst:  352000000 cyc:  208597571 now IPC :1.67560: AVG IPC :1.68584: L2-Pf-HR :0.95125: L2-HR :0.89917: (Sim:1h6m52s) 
CPU  0 inst:  353000000 cyc:  209203993 now IPC :1.64902: AVG IPC :1.68573: L2-Pf-HR :0.95125: L2-HR :0.89916: (Sim:1h7m0s) 
CPU  0 inst:  354000000 cyc:  209799150 now IPC :1.68023: AVG IPC :1.68571: L2-Pf-HR :0.95125: L2-HR :0.89915: (Sim:1h7m7s) 
CPU  0 inst:  355000003 cyc:  210402199 now IPC :1.65824: AVG IPC :1.68563: L2-Pf-HR :0.95125: L2-HR :0.89914: (Sim:1h7m15s) 
CPU  0 inst:  356000001 cyc:  211005280 now IPC :1.65815: AVG IPC :1.68556: L2-Pf-HR :0.95123: L2-HR :0.89910: (Sim:1h7m22s) 
CPU  0 inst:  357000004 cyc:  211598132 now IPC :1.68677: AVG IPC :1.68556: L2-Pf-HR :0.95122: L2-HR :0.89907: (Sim:1h7m30s) 
CPU  0 inst:  358000003 cyc:  212205635 now IPC :1.64608: AVG IPC :1.68545: L2-Pf-HR :0.95120: L2-HR :0.89903: (Sim:1h7m37s) 
CPU  0 inst:  359000004 cyc:  212793843 now IPC :1.70008: AVG IPC :1.68549: L2-Pf-HR :0.95118: L2-HR :0.89899: (Sim:1h7m45s) 
CPU  0 inst:  360000005 cyc:  213522264 now IPC :1.37283: AVG IPC :1.68441: L2-Pf-HR :0.95108: L2-HR :0.89890: (Sim:1h7m53s) 
CPU  0 inst:  361000003 cyc:  214099758 now IPC :1.73162: AVG IPC :1.68454: L2-Pf-HR :0.95109: L2-HR :0.89891: (Sim:1h8m0s) 
CPU  0 inst:  362000004 cyc:  214676071 now IPC :1.73517: AVG IPC :1.68468: L2-Pf-HR :0.95111: L2-HR :0.89891: (Sim:1h8m8s) 
CPU  0 inst:  363000004 cyc:  215250808 now IPC :1.73993: AVG IPC :1.68483: L2-Pf-HR :0.95114: L2-HR :0.89892: (Sim:1h8m15s) 
CPU  0 inst:  364000004 cyc:  215825296 now IPC :1.74068: AVG IPC :1.68498: L2-Pf-HR :0.95116: L2-HR :0.89894: (Sim:1h8m22s) 
CPU  0 inst:  365000000 cyc:  216403167 now IPC :1.73048: AVG IPC :1.68510: L2-Pf-HR :0.95121: L2-HR :0.89897: (Sim:1h8m30s) 
CPU  0 inst:  366000001 cyc:  216974898 now IPC :1.74908: AVG IPC :1.68527: L2-Pf-HR :0.95126: L2-HR :0.89902: (Sim:1h8m37s) 
CPU  0 inst:  367000001 cyc:  217550018 now IPC :1.73877: AVG IPC :1.68541: L2-Pf-HR :0.95130: L2-HR :0.89905: (Sim:1h8m45s) 
CPU  0 inst:  368000005 cyc:  218123386 now IPC :1.74409: AVG IPC :1.68557: L2-Pf-HR :0.95132: L2-HR :0.89906: (Sim:1h8m52s) 
CPU  0 inst:  369000002 cyc:  218697748 now IPC :1.74106: AVG IPC :1.68571: L2-Pf-HR :0.95135: L2-HR :0.89908: (Sim:1h8m59s) 
CPU  0 inst:  370000003 cyc:  219273253 now IPC :1.73761: AVG IPC :1.68585: L2-Pf-HR :0.95138: L2-HR :0.89909: (Sim:1h9m7s) 
CPU  0 inst:  371000002 cyc:  219871813 now IPC :1.67067: AVG IPC :1.68581: L2-Pf-HR :0.95140: L2-HR :0.89910: (Sim:1h9m14s) 
CPU  0 inst:  372000002 cyc:  220518168 now IPC :1.54714: AVG IPC :1.68540: L2-Pf-HR :0.95134: L2-HR :0.89908: (Sim:1h9m22s) 
CPU  0 inst:  373000000 cyc:  221084418 now IPC :1.76600: AVG IPC :1.68561: L2-Pf-HR :0.95135: L2-HR :0.89912: (Sim:1h9m29s) 
CPU  0 inst:  374000004 cyc:  221656829 now IPC :1.74700: AVG IPC :1.68577: L2-Pf-HR :0.95136: L2-HR :0.89917: (Sim:1h9m36s) 
CPU  0 inst:  375000002 cyc:  222234077 now IPC :1.73235: AVG IPC :1.68589: L2-Pf-HR :0.95140: L2-HR :0.89924: (Sim:1h9m44s) 
CPU  0 inst:  376000005 cyc:  222810006 now IPC :1.73633: AVG IPC :1.68602: L2-Pf-HR :0.95144: L2-HR :0.89931: (Sim:1h9m51s) 
CPU  0 inst:  377000003 cyc:  223385962 now IPC :1.73624: AVG IPC :1.68615: L2-Pf-HR :0.95146: L2-HR :0.89936: (Sim:1h9m58s) 
CPU  0 inst:  378000002 cyc:  223957796 now IPC :1.74876: AVG IPC :1.68631: L2-Pf-HR :0.95148: L2-HR :0.89942: (Sim:1h10m6s) 
CPU  0 inst:  379000002 cyc:  224665127 now IPC :1.41377: AVG IPC :1.68545: L2-Pf-HR :0.95131: L2-HR :0.89927: (Sim:1h10m13s) 
CPU  0 inst:  380000004 cyc:  225293144 now IPC :1.59232: AVG IPC :1.68519: L2-Pf-HR :0.95131: L2-HR :0.89925: (Sim:1h10m21s) 
CPU  0 inst:  381000004 cyc:  225892139 now IPC :1.66946: AVG IPC :1.68514: L2-Pf-HR :0.95128: L2-HR :0.89923: (Sim:1h10m28s) 
CPU  0 inst:  382000000 cyc:  226498086 now IPC :1.65030: AVG IPC :1.68505: L2-Pf-HR :0.95127: L2-HR :0.89921: (Sim:1h10m36s) 
CPU  0 inst:  383000005 cyc:  227092121 now IPC :1.68341: AVG IPC :1.68505: L2-Pf-HR :0.95125: L2-HR :0.89917: (Sim:1h10m44s) 
CPU  0 inst:  384000001 cyc:  227689000 now IPC :1.67537: AVG IPC :1.68502: L2-Pf-HR :0.95124: L2-HR :0.89915: (Sim:1h10m51s) 
CPU  0 inst:  385000003 cyc:  228281960 now IPC :1.68646: AVG IPC :1.68502: L2-Pf-HR :0.95124: L2-HR :0.89914: (Sim:1h10m59s) 
CPU  0 inst:  386000002 cyc:  228887494 now IPC :1.65143: AVG IPC :1.68493: L2-Pf-HR :0.95124: L2-HR :0.89913: (Sim:1h11m7s) 
CPU  0 inst:  387000003 cyc:  229487622 now IPC :1.66631: AVG IPC :1.68489: L2-Pf-HR :0.95123: L2-HR :0.89911: (Sim:1h11m14s) 
CPU  0 inst:  388000004 cyc:  230079858 now IPC :1.68852: AVG IPC :1.68490: L2-Pf-HR :0.95122: L2-HR :0.89908: (Sim:1h11m22s) 
CPU  0 inst:  389000002 cyc:  230674874 now IPC :1.68062: AVG IPC :1.68488: L2-Pf-HR :0.95120: L2-HR :0.89903: (Sim:1h11m29s) 
CPU  0 inst:  390000001 cyc:  231261956 now IPC :1.70334: AVG IPC :1.68493: L2-Pf-HR :0.95117: L2-HR :0.89900: (Sim:1h11m37s) 
CPU  0 inst:  391000003 cyc:  231965644 now IPC :1.42109: AVG IPC :1.68413: L2-Pf-HR :0.95105: L2-HR :0.89889: (Sim:1h11m45s) 
CPU  0 inst:  392000003 cyc:  232556880 now IPC :1.69137: AVG IPC :1.68415: L2-Pf-HR :0.95107: L2-HR :0.89890: (Sim:1h11m52s) 
CPU  0 inst:  393000001 cyc:  233126408 now IPC :1.75584: AVG IPC :1.68432: L2-Pf-HR :0.95109: L2-HR :0.89891: (Sim:1h11m59s) 
CPU  0 inst:  394000002 cyc:  233697379 now IPC :1.75140: AVG IPC :1.68449: L2-Pf-HR :0.95111: L2-HR :0.89892: (Sim:1h12m7s) 
CPU  0 inst:  395000000 cyc:  234266936 now IPC :1.75575: AVG IPC :1.68466: L2-Pf-HR :0.95114: L2-HR :0.89894: (Sim:1h12m14s) 
CPU  0 inst:  396000001 cyc:  234839459 now IPC :1.74666: AVG IPC :1.68481: L2-Pf-HR :0.95117: L2-HR :0.89897: (Sim:1h12m22s) 
CPU  0 inst:  397000001 cyc:  235408154 now IPC :1.75841: AVG IPC :1.68499: L2-Pf-HR :0.95121: L2-HR :0.89901: (Sim:1h12m29s) 
CPU  0 inst:  398000003 cyc:  235976211 now IPC :1.76039: AVG IPC :1.68517: L2-Pf-HR :0.95125: L2-HR :0.89905: (Sim:1h12m37s) 
CPU  0 inst:  399000004 cyc:  236545285 now IPC :1.75724: AVG IPC :1.68535: L2-Pf-HR :0.95129: L2-HR :0.89908: (Sim:1h12m44s) 
CPU  0 inst:  400000002 cyc:  237114718 now IPC :1.75613: AVG IPC :1.68552: L2-Pf-HR :0.95131: L2-HR :0.89910: (Sim:1h12m52s) 
CPU  0 inst:  401000003 cyc:  237682121 now IPC :1.76242: AVG IPC :1.68570: L2-Pf-HR :0.95133: L2-HR :0.89911: (Sim:1h12m59s) 
CPU  0 inst:  402000005 cyc:  238249254 now IPC :1.76326: AVG IPC :1.68589: L2-Pf-HR :0.95136: L2-HR :0.89912: (Sim:1h13m6s) 
CPU  0 inst:  403000001 cyc:  238918359 now IPC :1.49453: AVG IPC :1.68535: L2-Pf-HR :0.95131: L2-HR :0.89909: (Sim:1h13m14s) 
CPU  0 inst:  404000002 cyc:  239477708 now IPC :1.78779: AVG IPC :1.68559: L2-Pf-HR :0.95132: L2-HR :0.89914: (Sim:1h13m22s) 
CPU  0 inst:  405000004 cyc:  240043678 now IPC :1.76688: AVG IPC :1.68578: L2-Pf-HR :0.95134: L2-HR :0.89917: (Sim:1h13m29s) 
CPU  0 inst:  406000004 cyc:  240607731 now IPC :1.77288: AVG IPC :1.68599: L2-Pf-HR :0.95136: L2-HR :0.89923: (Sim:1h13m37s) 
CPU  0 inst:  407000005 cyc:  241172904 now IPC :1.76937: AVG IPC :1.68618: L2-Pf-HR :0.95139: L2-HR :0.89930: (Sim:1h13m44s) 
CPU  0 inst:  408000005 cyc:  241738891 now IPC :1.76683: AVG IPC :1.68637: L2-Pf-HR :0.95143: L2-HR :0.89936: (Sim:1h13m52s) 
CPU  0 inst:  409000004 cyc:  242305540 now IPC :1.76476: AVG IPC :1.68656: L2-Pf-HR :0.95145: L2-HR :0.89941: (Sim:1h13m59s) 
CPU  0 inst:  410000005 cyc:  242870129 now IPC :1.77120: AVG IPC :1.68675: L2-Pf-HR :0.95147: L2-HR :0.89946: (Sim:1h14m7s) 
CPU  0 inst:  411000004 cyc:  243610757 now IPC :1.35020: AVG IPC :1.68573: L2-Pf-HR :0.95130: L2-HR :0.89930: (Sim:1h14m15s) 
CPU  0 inst:  412000000 cyc:  244215799 now IPC :1.65277: AVG IPC :1.68565: L2-Pf-HR :0.95129: L2-HR :0.89928: (Sim:1h14m29s) 
CPU  0 inst:  413000001 cyc:  244822976 now IPC :1.64697: AVG IPC :1.68555: L2-Pf-HR :0.95128: L2-HR :0.89926: (Sim:1h14m46s) 
CPU  0 inst:  414000001 cyc:  245424543 now IPC :1.66233: AVG IPC :1.68549: L2-Pf-HR :0.95128: L2-HR :0.89925: (Sim:1h15m3s) 
CPU  0 inst:  415000003 cyc:  246031028 now IPC :1.64885: AVG IPC :1.68540: L2-Pf-HR :0.95127: L2-HR :0.89923: (Sim:1h15m20s) 
CPU  0 inst:  416000005 cyc:  246628386 now IPC :1.67404: AVG IPC :1.68537: L2-Pf-HR :0.95127: L2-HR :0.89923: (Sim:1h15m36s) 
CPU  0 inst:  417000001 cyc:  247235754 now IPC :1.64644: AVG IPC :1.68528: L2-Pf-HR :0.95128: L2-HR :0.89923: (Sim:1h15m54s) 
CPU  0 inst:  418000000 cyc:  247839991 now IPC :1.65498: AVG IPC :1.68520: L2-Pf-HR :0.95127: L2-HR :0.89921: (Sim:1h16m11s) 
CPU  0 inst:  419000004 cyc:  248438158 now IPC :1.67178: AVG IPC :1.68517: L2-Pf-HR :0.95127: L2-HR :0.89919: (Sim:1h16m28s) 
CPU  0 inst:  420000004 cyc:  249044475 now IPC :1.64930: AVG IPC :1.68508: L2-Pf-HR :0.95125: L2-HR :0.89915: (Sim:1h16m45s) 
CPU  0 inst:  421000005 cyc:  249640684 now IPC :1.67727: AVG IPC :1.68506: L2-Pf-HR :0.95124: L2-HR :0.89912: (Sim:1h17m2s) 
CPU  0 inst:  422000005 cyc:  250242733 now IPC :1.66099: AVG IPC :1.68501: L2-Pf-HR :0.95122: L2-HR :0.89908: (Sim:1h17m18s) 
CPU  0 inst:  423000003 cyc:  250974930 now IPC :1.36575: AVG IPC :1.68407: L2-Pf-HR :0.95112: L2-HR :0.89899: (Sim:1h17m36s) 
CPU  0 inst:  424000005 cyc:  251553239 now IPC :1.72918: AVG IPC :1.68418: L2-Pf-HR :0.95114: L2-HR :0.89900: (Sim:1h17m53s) 
CPU  0 inst:  425000005 cyc:  252131812 now IPC :1.72839: AVG IPC :1.68428: L2-Pf-HR :0.95117: L2-HR :0.89901: (Sim:1h18m9s) 
CPU  0 inst:  426000004 cyc:  252709124 now IPC :1.73216: AVG IPC :1.68439: L2-Pf-HR :0.95119: L2-HR :0.89902: (Sim:1h18m26s) 
CPU  0 inst:  427000001 cyc:  253287033 now IPC :1.73037: AVG IPC :1.68449: L2-Pf-HR :0.95121: L2-HR :0.89904: (Sim:1h18m43s) 
CPU  0 inst:  428000001 cyc:  253863466 now IPC :1.73481: AVG IPC :1.68461: L2-Pf-HR :0.95125: L2-HR :0.89907: (Sim:1h19m0s) 
CPU  0 inst:  429000004 cyc:  254437878 now IPC :1.74092: AVG IPC :1.68473: L2-Pf-HR :0.95129: L2-HR :0.89911: (Sim:1h19m16s) 
CPU  0 inst:  430000005 cyc:  255014985 now IPC :1.73278: AVG IPC :1.68484: L2-Pf-HR :0.95133: L2-HR :0.89914: (Sim:1h19m33s) 
CPU  0 inst:  431000003 cyc:  255589523 now IPC :1.74053: AVG IPC :1.68497: L2-Pf-HR :0.95135: L2-HR :0.89917: (Sim:1h19m50s) 
CPU  0 inst:  432000000 cyc:  256163753 now IPC :1.74146: AVG IPC :1.68510: L2-Pf-HR :0.95137: L2-HR :0.89917: (Sim:1h20m7s) 
CPU  0 inst:  433000001 cyc:  256737434 now IPC :1.74313: AVG IPC :1.68523: L2-Pf-HR :0.95140: L2-HR :0.89919: (Sim:1h20m23s) 
CPU  0 inst:  434000003 cyc:  257316529 now IPC :1.72684: AVG IPC :1.68532: L2-Pf-HR :0.95142: L2-HR :0.89920: (Sim:1h20m40s) 
CPU  0 inst:  435000003 cyc:  257966678 now IPC :1.53811: AVG IPC :1.68495: L2-Pf-HR :0.95136: L2-HR :0.89917: (Sim:1h20m57s) 
CPU  0 inst:  436000000 cyc:  258527269 now IPC :1.78383: AVG IPC :1.68516: L2-Pf-HR :0.95137: L2-HR :0.89921: (Sim:1h21m13s) 
CPU  0 inst:  437000004 cyc:  259091522 now IPC :1.77226: AVG IPC :1.68535: L2-Pf-HR :0.95139: L2-HR :0.89925: (Sim:1h21m30s) 
CPU  0 inst:  438000000 cyc:  259656223 now IPC :1.77084: AVG IPC :1.68554: L2-Pf-HR :0.95142: L2-HR :0.89931: (Sim:1h21m46s) 
CPU  0 inst:  439000003 cyc:  260220293 now IPC :1.77283: AVG IPC :1.68573: L2-Pf-HR :0.95145: L2-HR :0.89937: (Sim:1h22m3s) 
CPU  0 inst:  440000003 cyc:  260784411 now IPC :1.77268: AVG IPC :1.68592: L2-Pf-HR :0.95147: L2-HR :0.89943: (Sim:1h22m19s) 
CPU  0 inst:  441000004 cyc:  261350538 now IPC :1.76639: AVG IPC :1.68609: L2-Pf-HR :0.95149: L2-HR :0.89947: (Sim:1h22m36s) 
CPU  0 inst:  442000000 cyc:  261978172 now IPC :1.59328: AVG IPC :1.68587: L2-Pf-HR :0.95146: L2-HR :0.89947: (Sim:1h22m53s) 
CPU  0 inst:  443000002 cyc:  262674687 now IPC :1.43572: AVG IPC :1.68521: L2-Pf-HR :0.95134: L2-HR :0.89934: (Sim:1h23m11s) 
CPU  0 inst:  444000001 cyc:  263279708 now IPC :1.65283: AVG IPC :1.68513: L2-Pf-HR :0.95133: L2-HR :0.89932: (Sim:1h23m27s) 
CPU  0 inst:  445000003 cyc:  263872325 now IPC :1.68743: AVG IPC :1.68514: L2-Pf-HR :0.95132: L2-HR :0.89929: (Sim:1h23m44s) 
CPU  0 inst:  446000005 cyc:  264470669 now IPC :1.67128: AVG IPC :1.68510: L2-Pf-HR :0.95130: L2-HR :0.89925: (Sim:1h24m1s) 
CPU  0 inst:  447000002 cyc:  265064128 now IPC :1.68503: AVG IPC :1.68510: L2-Pf-HR :0.95129: L2-HR :0.89924: (Sim:1h24m18s) 
CPU  0 inst:  448000003 cyc:  265670895 now IPC :1.64808: AVG IPC :1.68502: L2-Pf-HR :0.95129: L2-HR :0.89923: (Sim:1h24m35s) 
CPU  0 inst:  449000000 cyc:  266271965 now IPC :1.66369: AVG IPC :1.68497: L2-Pf-HR :0.95129: L2-HR :0.89922: (Sim:1h24m52s) 
CPU  0 inst:  450000000 cyc:  266866124 now IPC :1.68305: AVG IPC :1.68497: L2-Pf-HR :0.95129: L2-HR :0.89921: (Sim:1h25m9s) 
CPU  0 inst:  451000005 cyc:  267466669 now IPC :1.66516: AVG IPC :1.68492: L2-Pf-HR :0.95127: L2-HR :0.89917: (Sim:1h25m26s) 
CPU  0 inst:  452000004 cyc:  268052550 now IPC :1.70683: AVG IPC :1.68497: L2-Pf-HR :0.95124: L2-HR :0.89914: (Sim:1h25m43s) 
CPU  0 inst:  453000002 cyc:  268655629 now IPC :1.65815: AVG IPC :1.68491: L2-Pf-HR :0.95123: L2-HR :0.89911: (Sim:1h26m0s) 
CPU  0 inst:  454000002 cyc:  269354484 now IPC :1.43091: AVG IPC :1.68425: L2-Pf-HR :0.95113: L2-HR :0.89901: (Sim:1h26m18s) 
CPU  0 inst:  455000002 cyc:  269975959 now IPC :1.60908: AVG IPC :1.68407: L2-Pf-HR :0.95115: L2-HR :0.89902: (Sim:1h26m35s) 
CPU  0 inst:  456000005 cyc:  270557955 now IPC :1.71823: AVG IPC :1.68415: L2-Pf-HR :0.95117: L2-HR :0.89903: (Sim:1h26m51s) 
CPU  0 inst:  457000002 cyc:  271137881 now IPC :1.72435: AVG IPC :1.68423: L2-Pf-HR :0.95118: L2-HR :0.89904: (Sim:1h27m8s) 
CPU  0 inst:  458000000 cyc:  271712586 now IPC :1.74002: AVG IPC :1.68435: L2-Pf-HR :0.95120: L2-HR :0.89905: (Sim:1h27m25s) 
CPU  0 inst:  459000004 cyc:  272289464 now IPC :1.73348: AVG IPC :1.68446: L2-Pf-HR :0.95124: L2-HR :0.89907: (Sim:1h27m42s) 
CPU  0 inst:  460000000 cyc:  272866822 now IPC :1.73202: AVG IPC :1.68456: L2-Pf-HR :0.95127: L2-HR :0.89910: (Sim:1h27m58s) 
CPU  0 inst:  461000000 cyc:  273440069 now IPC :1.74445: AVG IPC :1.68468: L2-Pf-HR :0.95131: L2-HR :0.89915: (Sim:1h28m15s) 
CPU  0 inst:  462000002 cyc:  274014466 now IPC :1.74096: AVG IPC :1.68480: L2-Pf-HR :0.95134: L2-HR :0.89917: (Sim:1h28m32s) 
CPU  0 inst:  463000004 cyc:  274589259 now IPC :1.73976: AVG IPC :1.68492: L2-Pf-HR :0.95136: L2-HR :0.89918: (Sim:1h28m48s) 
CPU  0 inst:  464000002 cyc:  275161240 now IPC :1.74831: AVG IPC :1.68505: L2-Pf-HR :0.95138: L2-HR :0.89920: (Sim:1h29m5s) 
CPU  0 inst:  465000002 cyc:  275734007 now IPC :1.74591: AVG IPC :1.68518: L2-Pf-HR :0.95140: L2-HR :0.89921: (Sim:1h29m21s) 
CPU  0 inst:  466000003 cyc:  276409032 now IPC :1.48143: AVG IPC :1.68468: L2-Pf-HR :0.95135: L2-HR :0.89917: (Sim:1h29m39s) 
CPU  0 inst:  467000001 cyc:  276979073 now IPC :1.75426: AVG IPC :1.68482: L2-Pf-HR :0.95137: L2-HR :0.89921: (Sim:1h29m55s) 
CPU  0 inst:  468000003 cyc:  277546840 now IPC :1.76129: AVG IPC :1.68498: L2-Pf-HR :0.95137: L2-HR :0.89925: (Sim:1h30m12s) 
CPU  0 inst:  469000003 cyc:  278115428 now IPC :1.75874: AVG IPC :1.68513: L2-Pf-HR :0.95139: L2-HR :0.89929: (Sim:1h30m29s) 
CPU  0 inst:  470000000 cyc:  278691102 now IPC :1.73709: AVG IPC :1.68524: L2-Pf-HR :0.95142: L2-HR :0.89935: (Sim:1h30m45s) 
CPU  0 inst:  471000004 cyc:  279266071 now IPC :1.73923: AVG IPC :1.68535: L2-Pf-HR :0.95145: L2-HR :0.89941: (Sim:1h31m2s) 
CPU  0 inst:  472000000 cyc:  279838392 now IPC :1.74726: AVG IPC :1.68548: L2-Pf-HR :0.95147: L2-HR :0.89945: (Sim:1h31m19s) 
CPU  0 inst:  473000001 cyc:  280410359 now IPC :1.74835: AVG IPC :1.68561: L2-Pf-HR :0.95149: L2-HR :0.89949: (Sim:1h31m35s) 
CPU  0 inst:  474000000 cyc:  281149637 now IPC :1.35267: AVG IPC :1.68473: L2-Pf-HR :0.95134: L2-HR :0.89936: (Sim:1h31m53s) 
CPU  0 inst:  475000000 cyc:  281755517 now IPC :1.65049: AVG IPC :1.68465: L2-Pf-HR :0.95133: L2-HR :0.89933: (Sim:1h32m10s) 
CPU  0 inst:  476000002 cyc:  282355657 now IPC :1.66628: AVG IPC :1.68461: L2-Pf-HR :0.95133: L2-HR :0.89932: (Sim:1h32m27s) 
CPU  0 inst:  477000004 cyc:  282955655 now IPC :1.66668: AVG IPC :1.68458: L2-Pf-HR :0.95131: L2-HR :0.89930: (Sim:1h32m44s) 
CPU  0 inst:  478000004 cyc:  283551810 now IPC :1.67742: AVG IPC :1.68456: L2-Pf-HR :0.95131: L2-HR :0.89928: (Sim:1h33m1s) 
CPU  0 inst:  479000001 cyc:  284157507 now IPC :1.65099: AVG IPC :1.68449: L2-Pf-HR :0.95130: L2-HR :0.89926: (Sim:1h33m18s) 
CPU  0 inst:  480000000 cyc:  284758060 now IPC :1.66513: AVG IPC :1.68445: L2-Pf-HR :0.95130: L2-HR :0.89925: (Sim:1h33m35s) 
CPU  0 inst:  481000000 cyc:  285352610 now IPC :1.68194: AVG IPC :1.68444: L2-Pf-HR :0.95130: L2-HR :0.89924: (Sim:1h33m52s) 
CPU  0 inst:  482000002 cyc:  285958019 now IPC :1.65178: AVG IPC :1.68437: L2-Pf-HR :0.95129: L2-HR :0.89922: (Sim:1h34m9s) 
CPU  0 inst:  483000001 cyc:  286550732 now IPC :1.68716: AVG IPC :1.68438: L2-Pf-HR :0.95128: L2-HR :0.89919: (Sim:1h34m26s) 
CPU  0 inst:  484000003 cyc:  287154919 now IPC :1.65512: AVG IPC :1.68432: L2-Pf-HR :0.95126: L2-HR :0.89916: (Sim:1h34m43s) 
CPU  0 inst:  485000005 cyc:  287757060 now IPC :1.66074: AVG IPC :1.68427: L2-Pf-HR :0.95124: L2-HR :0.89912: (Sim:1h35m0s) 
CPU  0 inst:  486000001 cyc:  288480919 now IPC :1.38148: AVG IPC :1.68351: L2-Pf-HR :0.95116: L2-HR :0.89904: (Sim:1h35m18s) 
CPU  0 inst:  487000004 cyc:  289059767 now IPC :1.72757: AVG IPC :1.68359: L2-Pf-HR :0.95118: L2-HR :0.89905: (Sim:1h35m34s) 
CPU  0 inst:  488000001 cyc:  289639704 now IPC :1.72432: AVG IPC :1.68368: L2-Pf-HR :0.95119: L2-HR :0.89906: (Sim:1h35m51s) 
CPU  0 inst:  489000002 cyc:  290216710 now IPC :1.73309: AVG IPC :1.68377: L2-Pf-HR :0.95121: L2-HR :0.89907: (Sim:1h36m8s) 
CPU  0 inst:  490000004 cyc:  290794111 now IPC :1.73190: AVG IPC :1.68387: L2-Pf-HR :0.95123: L2-HR :0.89908: (Sim:1h36m24s) 
CPU  0 inst:  491000005 cyc:  291373794 now IPC :1.72508: AVG IPC :1.68395: L2-Pf-HR :0.95126: L2-HR :0.89911: (Sim:1h36m41s) 
CPU  0 inst:  492000003 cyc:  291952778 now IPC :1.72716: AVG IPC :1.68404: L2-Pf-HR :0.95130: L2-HR :0.89914: (Sim:1h36m58s) 
CPU  0 inst:  493000000 cyc:  292530724 now IPC :1.73026: AVG IPC :1.68413: L2-Pf-HR :0.95133: L2-HR :0.89918: (Sim:1h37m15s) 
CPU  0 inst:  494000005 cyc:  293107683 now IPC :1.73323: AVG IPC :1.68423: L2-Pf-HR :0.95135: L2-HR :0.89919: (Sim:1h37m31s) 
CPU  0 inst:  495000004 cyc:  293682219 now IPC :1.74053: AVG IPC :1.68434: L2-Pf-HR :0.95137: L2-HR :0.89920: (Sim:1h37m48s) 
CPU  0 inst:  496000000 cyc:  294252616 now IPC :1.75316: AVG IPC :1.68447: L2-Pf-HR :0.95139: L2-HR :0.89921: (Sim:1h38m4s) 
CPU  0 inst:  497000001 cyc:  294826536 now IPC :1.74240: AVG IPC :1.68458: L2-Pf-HR :0.95141: L2-HR :0.89922: (Sim:1h38m21s) 
CPU  0 inst:  498000000 cyc:  295500607 now IPC :1.48352: AVG IPC :1.68412: L2-Pf-HR :0.95136: L2-HR :0.89920: (Sim:1h38m38s) 
CPU  0 inst:  499000005 cyc:  296066706 now IPC :1.76648: AVG IPC :1.68428: L2-Pf-HR :0.95137: L2-HR :0.89923: (Sim:1h38m55s) 
CPU  0 inst:  500000003 cyc:  296633097 now IPC :1.76556: AVG IPC :1.68444: L2-Pf-HR :0.95138: L2-HR :0.89926: (Sim:1h39m12s) 
CPU  0 inst:  501000002 cyc:  297197382 now IPC :1.77215: AVG IPC :1.68461: L2-Pf-HR :0.95141: L2-HR :0.89931: (Sim:1h39m28s) 
CPU  0 inst:  502000002 cyc:  297760946 now IPC :1.77442: AVG IPC :1.68478: L2-Pf-HR :0.95144: L2-HR :0.89937: (Sim:1h39m45s) 
CPU  0 inst:  503000002 cyc:  298327098 now IPC :1.76631: AVG IPC :1.68493: L2-Pf-HR :0.95146: L2-HR :0.89941: (Sim:1h40m2s) 
CPU  0 inst:  504000002 cyc:  298892401 now IPC :1.76896: AVG IPC :1.68509: L2-Pf-HR :0.95147: L2-HR :0.89945: (Sim:1h40m18s) 
CPU  0 inst:  505000004 cyc:  299463523 now IPC :1.75094: AVG IPC :1.68522: L2-Pf-HR :0.95150: L2-HR :0.89950: (Sim:1h40m34s) 
CPU  0 inst:  506000000 cyc:  300211450 now IPC :1.33702: AVG IPC :1.68435: L2-Pf-HR :0.95135: L2-HR :0.89934: (Sim:1h40m52s) 
CPU  0 inst:  507000004 cyc:  300803587 now IPC :1.68881: AVG IPC :1.68435: L2-Pf-HR :0.95133: L2-HR :0.89931: (Sim:1h41m8s) 
CPU  0 inst:  508000001 cyc:  301400726 now IPC :1.67465: AVG IPC :1.68434: L2-Pf-HR :0.95132: L2-HR :0.89927: (Sim:1h41m25s) 
CPU  0 inst:  509000004 cyc:  301989713 now IPC :1.69784: AVG IPC :1.68436: L2-Pf-HR :0.95130: L2-HR :0.89925: (Sim:1h41m42s) 
CPU  0 inst:  510000001 cyc:  302595071 now IPC :1.65191: AVG IPC :1.68430: L2-Pf-HR :0.95129: L2-HR :0.89922: (Sim:1h41m58s) 
CPU  0 inst:  511000003 cyc:  303195649 now IPC :1.66507: AVG IPC :1.68426: L2-Pf-HR :0.95129: L2-HR :0.89921: (Sim:1h42m15s) 
CPU  0 inst:  512000004 cyc:  303788350 now IPC :1.68719: AVG IPC :1.68426: L2-Pf-HR :0.95129: L2-HR :0.89920: (Sim:1h42m32s) 
CPU  0 inst:  513000001 cyc:  304388487 now IPC :1.66628: AVG IPC :1.68423: L2-Pf-HR :0.95129: L2-HR :0.89919: (Sim:1h42m48s) 
CPU  0 inst:  514000002 cyc:  304980999 now IPC :1.68773: AVG IPC :1.68424: L2-Pf-HR :0.95128: L2-HR :0.89916: (Sim:1h43m5s) 
CPU  0 inst:  515000002 cyc:  305581935 now IPC :1.66407: AVG IPC :1.68420: L2-Pf-HR :0.95126: L2-HR :0.89913: (Sim:1h43m21s) 
CPU  0 inst:  516000000 cyc:  306185758 now IPC :1.65611: AVG IPC :1.68414: L2-Pf-HR :0.95125: L2-HR :0.89910: (Sim:1h43m38s) 
CPU  0 inst:  517000001 cyc:  306783480 now IPC :1.67302: AVG IPC :1.68412: L2-Pf-HR :0.95124: L2-HR :0.89909: (Sim:1h43m55s) 
CPU  0 inst:  518000005 cyc:  307495115 now IPC :1.40522: AVG IPC :1.68347: L2-Pf-HR :0.95116: L2-HR :0.89901: (Sim:1h44m12s) 
CPU  0 inst:  519000001 cyc:  308074368 now IPC :1.72635: AVG IPC :1.68355: L2-Pf-HR :0.95118: L2-HR :0.89902: (Sim:1h44m29s) 
CPU  0 inst:  520000004 cyc:  308650988 now IPC :1.73425: AVG IPC :1.68365: L2-Pf-HR :0.95119: L2-HR :0.89903: (Sim:1h44m45s) 
CPU  0 inst:  521000004 cyc:  309226139 now IPC :1.73867: AVG IPC :1.68375: L2-Pf-HR :0.95120: L2-HR :0.89904: (Sim:1h45m1s) 
CPU  0 inst:  522000000 cyc:  309801931 now IPC :1.73673: AVG IPC :1.68385: L2-Pf-HR :0.95123: L2-HR :0.89906: (Sim:1h45m18s) 
CPU  0 inst:  523000005 cyc:  310382754 now IPC :1.72170: AVG IPC :1.68392: L2-Pf-HR :0.95126: L2-HR :0.89909: (Sim:1h45m34s) 
CPU  0 inst:  524000000 cyc:  310960144 now IPC :1.73192: AVG IPC :1.68401: L2-Pf-HR :0.95130: L2-HR :0.89913: (Sim:1h45m51s) 
CPU  0 inst:  525000002 cyc:  311537131 now IPC :1.73314: AVG IPC :1.68410: L2-Pf-HR :0.95133: L2-HR :0.89915: (Sim:1h46m7s) 
CPU  0 inst:  526000000 cyc:  312111681 now IPC :1.74049: AVG IPC :1.68420: L2-Pf-HR :0.95135: L2-HR :0.89917: (Sim:1h46m23s) 
CPU  0 inst:  527000004 cyc:  312685977 now IPC :1.74127: AVG IPC :1.68431: L2-Pf-HR :0.95137: L2-HR :0.89918: (Sim:1h46m39s) 
CPU  0 inst:  528000001 cyc:  313261122 now IPC :1.73869: AVG IPC :1.68441: L2-Pf-HR :0.95139: L2-HR :0.89918: (Sim:1h46m56s) 
CPU  0 inst:  529000002 cyc:  313925355 now IPC :1.50550: AVG IPC :1.68403: L2-Pf-HR :0.95134: L2-HR :0.89914: (Sim:1h47m13s) 
CPU  0 inst:  530000001 cyc:  314498286 now IPC :1.74541: AVG IPC :1.68414: L2-Pf-HR :0.95136: L2-HR :0.89918: (Sim:1h47m29s) 
CPU  0 inst:  531000005 cyc:  315064682 now IPC :1.76556: AVG IPC :1.68429: L2-Pf-HR :0.95136: L2-HR :0.89921: (Sim:1h47m45s) 
CPU  0 inst:  532000001 cyc:  315638859 now IPC :1.74162: AVG IPC :1.68439: L2-Pf-HR :0.95138: L2-HR :0.89924: (Sim:1h48m2s) 
CPU  0 inst:  533000005 cyc:  316211731 now IPC :1.74560: AVG IPC :1.68450: L2-Pf-HR :0.95141: L2-HR :0.89929: (Sim:1h48m18s) 
CPU  0 inst:  534000004 cyc:  316783916 now IPC :1.74768: AVG IPC :1.68462: L2-Pf-HR :0.95143: L2-HR :0.89934: (Sim:1h48m34s) 
CPU  0 inst:  535000002 cyc:  317355257 now IPC :1.75026: AVG IPC :1.68474: L2-Pf-HR :0.95145: L2-HR :0.89938: (Sim:1h48m51s) 
CPU  0 inst:  536000000 cyc:  317928026 now IPC :1.74590: AVG IPC :1.68485: L2-Pf-HR :0.95146: L2-HR :0.89941: (Sim:1h49m7s) 
CPU  0 inst:  537000003 cyc:  318659245 now IPC :1.36758: AVG IPC :1.68412: L2-Pf-HR :0.95133: L2-HR :0.89930: (Sim:1h49m24s) 
CPU  0 inst:  538000003 cyc:  319264653 now IPC :1.65178: AVG IPC :1.68406: L2-Pf-HR :0.95133: L2-HR :0.89928: (Sim:1h49m41s) 
CPU  0 inst:  539000000 cyc:  319864987 now IPC :1.66573: AVG IPC :1.68402: L2-Pf-HR :0.95132: L2-HR :0.89926: (Sim:1h49m58s) 
CPU  0 inst:  540000004 cyc:  320460036 now IPC :1.68054: AVG IPC :1.68402: L2-Pf-HR :0.95131: L2-HR :0.89924: (Sim:1h50m14s) 
CPU  0 inst:  541000005 cyc:  321055234 now IPC :1.68011: AVG IPC :1.68401: L2-Pf-HR :0.95129: L2-HR :0.89921: (Sim:1h50m31s) 
CPU  0 inst:  542000002 cyc:  321648266 now IPC :1.68624: AVG IPC :1.68401: L2-Pf-HR :0.95128: L2-HR :0.89920: (Sim:1h50m48s) 
CPU  0 inst:  543000004 cyc:  322247672 now IPC :1.66832: AVG IPC :1.68398: L2-Pf-HR :0.95128: L2-HR :0.89919: (Sim:1h51m4s) 
CPU  0 inst:  544000005 cyc:  322852063 now IPC :1.65456: AVG IPC :1.68393: L2-Pf-HR :0.95128: L2-HR :0.89918: (Sim:1h51m21s) 
CPU  0 inst:  545000002 cyc:  323446092 now IPC :1.68341: AVG IPC :1.68393: L2-Pf-HR :0.95127: L2-HR :0.89916: (Sim:1h51m37s) 
CPU  0 inst:  546000005 cyc:  324052378 now IPC :1.64939: AVG IPC :1.68386: L2-Pf-HR :0.95126: L2-HR :0.89913: (Sim:1h51m54s) 
CPU  0 inst:  547000000 cyc:  324653476 now IPC :1.66361: AVG IPC :1.68382: L2-Pf-HR :0.95124: L2-HR :0.89910: (Sim:1h52m11s) 
CPU  0 inst:  548000005 cyc:  325240953 now IPC :1.70220: AVG IPC :1.68386: L2-Pf-HR :0.95123: L2-HR :0.89907: (Sim:1h52m28s) 
CPU  0 inst:  549000005 cyc:  325968271 now IPC :1.37491: AVG IPC :1.68317: L2-Pf-HR :0.95115: L2-HR :0.89900: (Sim:1h52m45s) 
CPU  0 inst:  550000000 cyc:  326549751 now IPC :1.71974: AVG IPC :1.68323: L2-Pf-HR :0.95116: L2-HR :0.89900: (Sim:1h53m1s) 
CPU  0 inst:  551000000 cyc:  327129089 now IPC :1.72611: AVG IPC :1.68331: L2-Pf-HR :0.95118: L2-HR :0.89901: (Sim:1h53m18s) 
CPU  0 inst:  552000003 cyc:  327707753 now IPC :1.72812: AVG IPC :1.68339: L2-Pf-HR :0.95119: L2-HR :0.89902: (Sim:1h53m34s) 
CPU  0 inst:  553000000 cyc:  328286687 now IPC :1.72731: AVG IPC :1.68346: L2-Pf-HR :0.95121: L2-HR :0.89902: (Sim:1h53m51s) 
CPU  0 inst:  554000002 cyc:  328867908 now IPC :1.72052: AVG IPC :1.68353: L2-Pf-HR :0.95124: L2-HR :0.89905: (Sim:1h54m7s) 
CPU  0 inst:  555000002 cyc:  329447868 now IPC :1.72426: AVG IPC :1.68360: L2-Pf-HR :0.95127: L2-HR :0.89908: (Sim:1h54m24s) 
CPU  0 inst:  556000004 cyc:  330026712 now IPC :1.72758: AVG IPC :1.68368: L2-Pf-HR :0.95130: L2-HR :0.89911: (Sim:1h54m40s) 
CPU  0 inst:  557000004 cyc:  330604350 now IPC :1.73119: AVG IPC :1.68376: L2-Pf-HR :0.95132: L2-HR :0.89913: (Sim:1h54m56s) 
CPU  0 inst:  558000001 cyc:  331179611 now IPC :1.73834: AVG IPC :1.68386: L2-Pf-HR :0.95134: L2-HR :0.89914: (Sim:1h55m13s) 
CPU  0 inst:  559000004 cyc:  331754802 now IPC :1.73856: AVG IPC :1.68395: L2-Pf-HR :0.95136: L2-HR :0.89915: (Sim:1h55m29s) 
CPU  0 inst:  560000003 cyc:  332333067 now IPC :1.72931: AVG IPC :1.68403: L2-Pf-HR :0.95138: L2-HR :0.89916: (Sim:1h55m45s) 
CPU  0 inst:  561000000 cyc:  333004630 now IPC :1.48906: AVG IPC :1.68364: L2-Pf-HR :0.95133: L2-HR :0.89912: (Sim:1h56m2s) 
CPU  0 inst:  562000000 cyc:  333571506 now IPC :1.76405: AVG IPC :1.68378: L2-Pf-HR :0.95133: L2-HR :0.89913: (Sim:1h56m19s) 
CPU  0 inst:  563000005 cyc:  334132940 now IPC :1.78116: AVG IPC :1.68394: L2-Pf-HR :0.95133: L2-HR :0.89915: (Sim:1h56m35s) 
CPU  0 inst:  564000000 cyc:  334705510 now IPC :1.74650: AVG IPC :1.68405: L2-Pf-HR :0.95134: L2-HR :0.89917: (Sim:1h56m51s) 
CPU  0 inst:  565000003 cyc:  335279194 now IPC :1.74313: AVG IPC :1.68415: L2-Pf-HR :0.95136: L2-HR :0.89921: (Sim:1h57m7s) 
CPU  0 inst:  566000001 cyc:  335852194 now IPC :1.74520: AVG IPC :1.68425: L2-Pf-HR :0.95137: L2-HR :0.89923: (Sim:1h57m23s) 
CPU  0 inst:  567000002 cyc:  336424030 now IPC :1.74875: AVG IPC :1.68436: L2-Pf-HR :0.95138: L2-HR :0.89925: (Sim:1h57m40s) 
CPU  0 inst:  568000003 cyc:  336995846 now IPC :1.74882: AVG IPC :1.68447: L2-Pf-HR :0.95138: L2-HR :0.89927: (Sim:1h57m56s) 
CPU  0 inst:  569000004 cyc:  337742580 now IPC :1.33917: AVG IPC :1.68371: L2-Pf-HR :0.95125: L2-HR :0.89913: (Sim:1h58m14s) 
CPU  0 inst:  570000001 cyc:  338337051 now IPC :1.68216: AVG IPC :1.68370: L2-Pf-HR :0.95123: L2-HR :0.89909: (Sim:1h58m30s) 
CPU  0 inst:  571000003 cyc:  338923063 now IPC :1.70645: AVG IPC :1.68374: L2-Pf-HR :0.95121: L2-HR :0.89906: (Sim:1h58m47s) 
CPU  0 inst:  572000001 cyc:  339521182 now IPC :1.67190: AVG IPC :1.68372: L2-Pf-HR :0.95120: L2-HR :0.89904: (Sim:1h59m4s) 
CPU  0 inst:  573000001 cyc:  340116649 now IPC :1.67935: AVG IPC :1.68371: L2-Pf-HR :0.95119: L2-HR :0.89902: (Sim:1h59m20s) 
CPU  0 inst:  574000002 cyc:  340716198 now IPC :1.66792: AVG IPC :1.68369: L2-Pf-HR :0.95119: L2-HR :0.89901: (Sim:1h59m37s) 
CPU  0 inst:  575000002 cyc:  341312807 now IPC :1.67614: AVG IPC :1.68367: L2-Pf-HR :0.95119: L2-HR :0.89900: (Sim:1h59m53s) 
CPU  0 inst:  576000002 cyc:  341905682 now IPC :1.68670: AVG IPC :1.68368: L2-Pf-HR :0.95119: L2-HR :0.89899: (Sim:2h0m10s) 
CPU  0 inst:  577000000 cyc:  342510120 now IPC :1.65443: AVG IPC :1.68363: L2-Pf-HR :0.95118: L2-HR :0.89897: (Sim:2h0m26s) 
CPU  0 inst:  578000005 cyc:  343104887 now IPC :1.68134: AVG IPC :1.68362: L2-Pf-HR :0.95117: L2-HR :0.89895: (Sim:2h0m44s) 
CPU  0 inst:  579000004 cyc:  343702456 now IPC :1.67345: AVG IPC :1.68361: L2-Pf-HR :0.95116: L2-HR :0.89892: (Sim:2h1m1s) 
CPU  0 inst:  580000005 cyc:  344304165 now IPC :1.66193: AVG IPC :1.68357: L2-Pf-HR :0.95115: L2-HR :0.89890: (Sim:2h1m18s) 
CPU  0 inst:  581000003 cyc:  345021325 now IPC :1.39439: AVG IPC :1.68296: L2-Pf-HR :0.95108: L2-HR :0.89883: (Sim:2h1m36s) 
CPU  0 inst:  582000004 cyc:  345600524 now IPC :1.72652: AVG IPC :1.68304: L2-Pf-HR :0.95109: L2-HR :0.89883: (Sim:2h1m53s) 
CPU  0 inst:  583000004 cyc:  346176310 now IPC :1.73676: AVG IPC :1.68313: L2-Pf-HR :0.95110: L2-HR :0.89884: (Sim:2h2m10s) 
CPU  0 inst:  584000003 cyc:  346752022 now IPC :1.73698: AVG IPC :1.68322: L2-Pf-HR :0.95112: L2-HR :0.89884: (Sim:2h2m26s) 
CPU  0 inst:  585000000 cyc:  347328564 now IPC :1.73447: AVG IPC :1.68330: L2-Pf-HR :0.95114: L2-HR :0.89886: (Sim:2h2m43s) 
CPU  0 inst:  586000000 cyc:  347906915 now IPC :1.72905: AVG IPC :1.68338: L2-Pf-HR :0.95116: L2-HR :0.89888: (Sim:2h3m0s) 
CPU  0 inst:  587000001 cyc:  348483200 now IPC :1.73525: AVG IPC :1.68346: L2-Pf-HR :0.95119: L2-HR :0.89891: (Sim:2h3m16s) 
CPU  0 inst:  588000004 cyc:  349060839 now IPC :1.73119: AVG IPC :1.68354: L2-Pf-HR :0.95122: L2-HR :0.89893: (Sim:2h3m33s) 
CPU  0 inst:  589000004 cyc:  349636743 now IPC :1.73640: AVG IPC :1.68363: L2-Pf-HR :0.95124: L2-HR :0.89894: (Sim:2h3m50s) 
CPU  0 inst:  590000002 cyc:  350212533 now IPC :1.73674: AVG IPC :1.68372: L2-Pf-HR :0.95126: L2-HR :0.89895: (Sim:2h4m7s) 
CPU  0 inst:  591000004 cyc:  350788556 now IPC :1.73605: AVG IPC :1.68380: L2-Pf-HR :0.95128: L2-HR :0.89896: (Sim:2h4m24s) 
CPU  0 inst:  592000004 cyc:  351438683 now IPC :1.53816: AVG IPC :1.68353: L2-Pf-HR :0.95124: L2-HR :0.89893: (Sim:2h4m41s) 
CPU  0 inst:  593000003 cyc:  352028685 now IPC :1.69491: AVG IPC :1.68355: L2-Pf-HR :0.95124: L2-HR :0.89895: (Sim:2h4m58s) 
CPU  0 inst:  594000002 cyc:  352597163 now IPC :1.75908: AVG IPC :1.68368: L2-Pf-HR :0.95125: L2-HR :0.89898: (Sim:2h5m15s) 
CPU  0 inst:  595000000 cyc:  353165330 now IPC :1.76004: AVG IPC :1.68380: L2-Pf-HR :0.95126: L2-HR :0.89901: (Sim:2h5m32s) 
CPU  0 inst:  596000000 cyc:  353739404 now IPC :1.74194: AVG IPC :1.68389: L2-Pf-HR :0.95128: L2-HR :0.89905: (Sim:2h5m49s) 
CPU  0 inst:  597000002 cyc:  354312035 now IPC :1.74633: AVG IPC :1.68399: L2-Pf-HR :0.95130: L2-HR :0.89910: (Sim:2h6m6s) 
CPU  0 inst:  598000005 cyc:  354884132 now IPC :1.74796: AVG IPC :1.68410: L2-Pf-HR :0.95132: L2-HR :0.89913: (Sim:2h6m23s) 
CPU  0 inst:  599000003 cyc:  355458732 now IPC :1.74034: AVG IPC :1.68419: L2-Pf-HR :0.95133: L2-HR :0.89916: (Sim:2h6m39s) 
CPU  0 inst:  600000001 cyc:  356169910 now IPC :1.40611: AVG IPC :1.68363: L2-Pf-HR :0.95123: L2-HR :0.89907: (Sim:2h6m57s) 
CPU  0 inst:  601000005 cyc:  356793461 now IPC :1.60372: AVG IPC :1.68349: L2-Pf-HR :0.95122: L2-HR :0.89906: (Sim:2h7m14s) 
CPU  0 inst:  602000005 cyc:  357389827 now IPC :1.67682: AVG IPC :1.68348: L2-Pf-HR :0.95121: L2-HR :0.89904: (Sim:2h7m31s) 
CPU  0 inst:  603000001 cyc:  357991274 now IPC :1.66265: AVG IPC :1.68345: L2-Pf-HR :0.95120: L2-HR :0.89902: (Sim:2h7m49s) 
CPU  0 inst:  604000001 cyc:  358580335 now IPC :1.69762: AVG IPC :1.68347: L2-Pf-HR :0.95119: L2-HR :0.89899: (Sim:2h8m6s) 
CPU  0 inst:  605000003 cyc:  359178832 now IPC :1.67086: AVG IPC :1.68345: L2-Pf-HR :0.95118: L2-HR :0.89898: (Sim:2h8m23s) 
CPU  0 inst:  606000001 cyc:  359780766 now IPC :1.66131: AVG IPC :1.68341: L2-Pf-HR :0.95118: L2-HR :0.89897: (Sim:2h8m40s) 
CPU  0 inst:  607000005 cyc:  360374081 now IPC :1.68545: AVG IPC :1.68341: L2-Pf-HR :0.95118: L2-HR :0.89897: (Sim:2h8m57s) 
CPU  0 inst:  608000001 cyc:  360976140 now IPC :1.66096: AVG IPC :1.68338: L2-Pf-HR :0.95117: L2-HR :0.89896: (Sim:2h9m14s) 
CPU  0 inst:  609000000 cyc:  361567378 now IPC :1.69136: AVG IPC :1.68339: L2-Pf-HR :0.95115: L2-HR :0.89893: (Sim:2h9m31s) 
CPU  0 inst:  610000000 cyc:  362161329 now IPC :1.68364: AVG IPC :1.68339: L2-Pf-HR :0.95114: L2-HR :0.89891: (Sim:2h9m48s) 
CPU  0 inst:  611000005 cyc:  362758322 now IPC :1.67507: AVG IPC :1.68338: L2-Pf-HR :0.95113: L2-HR :0.89888: (Sim:2h10m5s) 
CPU  0 inst:  612000004 cyc:  363470759 now IPC :1.40363: AVG IPC :1.68283: L2-Pf-HR :0.95105: L2-HR :0.89881: (Sim:2h10m23s) 
CPU  0 inst:  613000004 cyc:  364064008 now IPC :1.68563: AVG IPC :1.68283: L2-Pf-HR :0.95107: L2-HR :0.89882: (Sim:2h10m40s) 
CPU  0 inst:  614000004 cyc:  364643817 now IPC :1.72471: AVG IPC :1.68290: L2-Pf-HR :0.95108: L2-HR :0.89882: (Sim:2h10m57s) 
CPU  0 inst:  615000005 cyc:  365223104 now IPC :1.72626: AVG IPC :1.68297: L2-Pf-HR :0.95109: L2-HR :0.89883: (Sim:2h11m14s) 
CPU  0 inst:  616000005 cyc:  365800043 now IPC :1.73329: AVG IPC :1.68305: L2-Pf-HR :0.95111: L2-HR :0.89883: (Sim:2h11m31s) 
CPU  0 inst:  617000002 cyc:  366380302 now IPC :1.72336: AVG IPC :1.68311: L2-Pf-HR :0.95113: L2-HR :0.89885: (Sim:2h11m48s) 
CPU  0 inst:  618000005 cyc:  366956803 now IPC :1.73461: AVG IPC :1.68319: L2-Pf-HR :0.95115: L2-HR :0.89888: (Sim:2h12m5s) 
CPU  0 inst:  619000002 cyc:  367532488 now IPC :1.73706: AVG IPC :1.68328: L2-Pf-HR :0.95118: L2-HR :0.89891: (Sim:2h12m22s) 
CPU  0 inst:  620000005 cyc:  368105620 now IPC :1.74480: AVG IPC :1.68337: L2-Pf-HR :0.95120: L2-HR :0.89892: (Sim:2h12m39s) 
CPU  0 inst:  621000003 cyc:  368681596 now IPC :1.73618: AVG IPC :1.68346: L2-Pf-HR :0.95122: L2-HR :0.89893: (Sim:2h12m56s) 
CPU  0 inst:  622000004 cyc:  369255893 now IPC :1.74126: AVG IPC :1.68355: L2-Pf-HR :0.95124: L2-HR :0.89894: (Sim:2h13m12s) 
CPU  0 inst:  623000003 cyc:  369831512 now IPC :1.73726: AVG IPC :1.68363: L2-Pf-HR :0.95125: L2-HR :0.89895: (Sim:2h13m29s) 
CPU  0 inst:  624000005 cyc:  370501580 now IPC :1.49239: AVG IPC :1.68328: L2-Pf-HR :0.95122: L2-HR :0.89892: (Sim:2h13m47s) 
CPU  0 inst:  625000000 cyc:  371066654 now IPC :1.76967: AVG IPC :1.68341: L2-Pf-HR :0.95122: L2-HR :0.89895: (Sim:2h14m3s) 
CPU  0 inst:  626000005 cyc:  371634895 now IPC :1.75983: AVG IPC :1.68353: L2-Pf-HR :0.95123: L2-HR :0.89898: (Sim:2h14m20s) 
CPU  0 inst:  627000005 cyc:  372208728 now IPC :1.74267: AVG IPC :1.68362: L2-Pf-HR :0.95125: L2-HR :0.89901: (Sim:2h14m37s) 
[...]
CPU  0 inst: 2239000000 cyc: 2151982843 now IPC :2.12169: AVG IPC :1.03998: L2-Pf-HR :0.89458: L2-HR :0.85162: (Sim:10h5m48s) 
CPU  0 inst: 2240000000 cyc: 2152619179 now IPC :1.57150: AVG IPC :1.04014: L2-Pf-HR :0.89455: L2-HR :0.85162: (Sim:10h5m55s) 
CPU  0 inst: 2241000005 cyc: 2153074406 now IPC :2.19672: AVG IPC :1.04038: L2-Pf-HR :0.89459: L2-HR :0.85166: (Sim:10h6m2s) 
CPU  0 inst: 2242000000 cyc: 2153557503 now IPC :2.06997: AVG IPC :1.04062: L2-Pf-HR :0.89463: L2-HR :0.85171: (Sim:10h6m8s) 
CPU  0 inst: 2243000001 cyc: 2154082733 now IPC :1.90393: AVG IPC :1.04083: L2-Pf-HR :0.89464: L2-HR :0.85173: (Sim:10h6m15s) 
CPU  0 inst: 2244000005 cyc: 2154691477 now IPC :1.64273: AVG IPC :1.04100: L2-Pf-HR :0.89461: L2-HR :0.85173: (Sim:10h6m23s) 
CPU  0 inst: 2245000000 cyc: 2155174499 now IPC :2.07029: AVG IPC :1.04123: L2-Pf-HR :0.89465: L2-HR :0.85177: (Sim:10h6m31s) 
CPU  0 inst: 2246000000 cyc: 2155717256 now IPC :1.84245: AVG IPC :1.04143: L2-Pf-HR :0.89468: L2-HR :0.85181: (Sim:10h6m38s) 
CPU  0 inst: 2247000003 cyc: 2156248346 now IPC :1.88293: AVG IPC :1.04164: L2-Pf-HR :0.89467: L2-HR :0.85182: (Sim:10h6m45s) 
CPU  0 inst: 2248000002 cyc: 2156694043 now IPC :2.24367: AVG IPC :1.04188: L2-Pf-HR :0.89470: L2-HR :0.85186: (Sim:10h6m51s) 
CPU  0 inst: 2249000001 cyc: 2157239734 now IPC :1.83254: AVG IPC :1.04208: L2-Pf-HR :0.89471: L2-HR :0.85189: (Sim:10h6m58s) 
CPU  0 inst: 2250000003 cyc: 2157796837 now IPC :1.79500: AVG IPC :1.04228: L2-Pf-HR :0.89471: L2-HR :0.85191: (Sim:10h7m5s) 
CPU  0 inst: 2251000003 cyc: 2158329179 now IPC :1.87849: AVG IPC :1.04249: L2-Pf-HR :0.89471: L2-HR :0.85192: (Sim:10h7m13s) 
CPU  0 inst: 2252000003 cyc: 2158790701 now IPC :2.16674: AVG IPC :1.04273: L2-Pf-HR :0.89474: L2-HR :0.85196: (Sim:10h7m20s) 
CPU  0 inst: 2253000004 cyc: 2159397967 now IPC :1.64673: AVG IPC :1.04290: L2-Pf-HR :0.89471: L2-HR :0.85196: (Sim:10h7m27s) 
CPU  0 inst: 2254000005 cyc: 2159833491 now IPC :2.29609: AVG IPC :1.04315: L2-Pf-HR :0.89474: L2-HR :0.85201: (Sim:10h7m34s) 
CPU  0 inst: 2255000002 cyc: 2160368714 now IPC :1.86837: AVG IPC :1.04335: L2-Pf-HR :0.89475: L2-HR :0.85203: (Sim:10h7m41s) 
CPU  0 inst: 2256000004 cyc: 2160804642 now IPC :2.29396: AVG IPC :1.04361: L2-Pf-HR :0.89478: L2-HR :0.85208: (Sim:10h7m47s) 
CPU  0 inst: 2257000005 cyc: 2161394286 now IPC :1.69594: AVG IPC :1.04378: L2-Pf-HR :0.89477: L2-HR :0.85208: (Sim:10h7m55s) 
CPU  0 inst: 2258000005 cyc: 2161846085 now IPC :2.21337: AVG IPC :1.04403: L2-Pf-HR :0.89479: L2-HR :0.85212: (Sim:10h8m2s) 
CPU  0 inst: 2259000001 cyc: 2162420580 now IPC :1.74065: AVG IPC :1.04421: L2-Pf-HR :0.89478: L2-HR :0.85214: (Sim:10h8m10s) 
CPU  0 inst: 2260000000 cyc: 2162855722 now IPC :2.29810: AVG IPC :1.04447: L2-Pf-HR :0.89481: L2-HR :0.85218: (Sim:10h8m16s) 
CPU  0 inst: 2261000003 cyc: 2163316377 now IPC :2.17083: AVG IPC :1.04471: L2-Pf-HR :0.89486: L2-HR :0.85223: (Sim:10h8m23s) 
CPU  0 inst: 2262000002 cyc: 2163807408 now IPC :2.03653: AVG IPC :1.04493: L2-Pf-HR :0.89486: L2-HR :0.85226: (Sim:10h8m29s) 
CPU  0 inst: 2263000004 cyc: 2164325179 now IPC :1.93136: AVG IPC :1.04514: L2-Pf-HR :0.89490: L2-HR :0.85229: (Sim:10h8m36s) 
CPU  0 inst: 2264000003 cyc: 2164841130 now IPC :1.93817: AVG IPC :1.04536: L2-Pf-HR :0.89493: L2-HR :0.85233: (Sim:10h8m43s) 
CPU  0 inst: 2265000002 cyc: 2165507555 now IPC :1.50054: AVG IPC :1.04550: L2-Pf-HR :0.89491: L2-HR :0.85233: (Sim:10h8m51s) 
CPU  0 inst: 2266000001 cyc: 2166012314 now IPC :1.98114: AVG IPC :1.04571: L2-Pf-HR :0.89493: L2-HR :0.85236: (Sim:10h8m59s) 
CPU  0 inst: 2267000003 cyc: 2166510415 now IPC :2.00763: AVG IPC :1.04594: L2-Pf-HR :0.89496: L2-HR :0.85240: (Sim:10h9m6s) 
CPU  0 inst: 2268000000 cyc: 2167142210 now IPC :1.58279: AVG IPC :1.04609: L2-Pf-HR :0.89493: L2-HR :0.85240: (Sim:10h9m13s) 
CPU  0 inst: 2269000003 cyc: 2167606936 now IPC :2.15181: AVG IPC :1.04633: L2-Pf-HR :0.89496: L2-HR :0.85244: (Sim:10h9m19s) 
CPU  0 inst: 2270000003 cyc: 2168200199 now IPC :1.68559: AVG IPC :1.04650: L2-Pf-HR :0.89497: L2-HR :0.85246: (Sim:10h9m26s) 
CPU  0 inst: 2271000000 cyc: 2168679339 now IPC :2.08707: AVG IPC :1.04673: L2-Pf-HR :0.89500: L2-HR :0.85251: (Sim:10h9m33s) 
CPU  0 inst: 2272000004 cyc: 2169301779 now IPC :1.60659: AVG IPC :1.04690: L2-Pf-HR :0.89497: L2-HR :0.85250: (Sim:10h9m41s) 
CPU  0 inst: 2273000000 cyc: 2169785763 now IPC :2.06618: AVG IPC :1.04712: L2-Pf-HR :0.89500: L2-HR :0.85253: (Sim:10h9m49s) 
CPU  0 inst: 2274000000 cyc: 2170400591 now IPC :1.62647: AVG IPC :1.04729: L2-Pf-HR :0.89497: L2-HR :0.85254: (Sim:10h9m56s) 
CPU  0 inst: 2275000002 cyc: 2170850104 now IPC :2.22463: AVG IPC :1.04753: L2-Pf-HR :0.89501: L2-HR :0.85258: (Sim:10h10m2s) 
CPU  0 inst: 2276000002 cyc: 2171399374 now IPC :1.82060: AVG IPC :1.04773: L2-Pf-HR :0.89502: L2-HR :0.85260: (Sim:10h10m9s) 
CPU  0 inst: 2277000004 cyc: 2171852333 now IPC :2.20771: AVG IPC :1.04797: L2-Pf-HR :0.89505: L2-HR :0.85265: (Sim:10h10m15s) 
CPU  0 inst: 2278000001 cyc: 2172489028 now IPC :1.57061: AVG IPC :1.04812: L2-Pf-HR :0.89502: L2-HR :0.85264: (Sim:10h10m23s) 
CPU  0 inst: 2279000000 cyc: 2172956027 now IPC :2.14133: AVG IPC :1.04836: L2-Pf-HR :0.89506: L2-HR :0.85268: (Sim:10h10m31s) 
CPU  0 inst: 2280000002 cyc: 2173574189 now IPC :1.61770: AVG IPC :1.04852: L2-Pf-HR :0.89504: L2-HR :0.85269: (Sim:10h10m38s) 
CPU  0 inst: 2281000005 cyc: 2174022796 now IPC :2.22913: AVG IPC :1.04876: L2-Pf-HR :0.89507: L2-HR :0.85272: (Sim:10h10m45s) 
CPU  0 inst: 2282000001 cyc: 2174470939 now IPC :2.23142: AVG IPC :1.04901: L2-Pf-HR :0.89511: L2-HR :0.85276: (Sim:10h10m51s) 
CPU  0 inst: 2283000005 cyc: 2175014222 now IPC :1.84067: AVG IPC :1.04920: L2-Pf-HR :0.89511: L2-HR :0.85279: (Sim:10h10m58s) 
CPU  0 inst: 2284000000 cyc: 2175612541 now IPC :1.67134: AVG IPC :1.04938: L2-Pf-HR :0.89509: L2-HR :0.85279: (Sim:10h11m5s) 
CPU  0 inst: 2285000005 cyc: 2176088237 now IPC :2.10219: AVG IPC :1.04961: L2-Pf-HR :0.89511: L2-HR :0.85282: (Sim:10h11m13s) 
CPU  0 inst: 2286000003 cyc: 2176559945 now IPC :2.11995: AVG IPC :1.04984: L2-Pf-HR :0.89514: L2-HR :0.85286: (Sim:10h11m20s) 
CPU  0 inst: 2287000002 cyc: 2177151054 now IPC :1.69173: AVG IPC :1.05001: L2-Pf-HR :0.89511: L2-HR :0.85286: (Sim:10h11m27s) 
CPU  0 inst: 2288000000 cyc: 2177587796 now IPC :2.28968: AVG IPC :1.05026: L2-Pf-HR :0.89514: L2-HR :0.85290: (Sim:10h11m33s) 
CPU  0 inst: 2289000004 cyc: 2178125251 now IPC :1.86063: AVG IPC :1.05046: L2-Pf-HR :0.89515: L2-HR :0.85292: (Sim:10h11m40s) 
CPU  0 inst: 2290000000 cyc: 2178567389 now IPC :2.26173: AVG IPC :1.05071: L2-Pf-HR :0.89518: L2-HR :0.85297: (Sim:10h11m47s) 
CPU  0 inst: 2291000000 cyc: 2179161413 now IPC :1.68343: AVG IPC :1.05088: L2-Pf-HR :0.89517: L2-HR :0.85297: (Sim:10h11m55s) 
CPU  0 inst: 2292000002 cyc: 2179623531 now IPC :2.16395: AVG IPC :1.05112: L2-Pf-HR :0.89519: L2-HR :0.85301: (Sim:10h12m2s) 
CPU  0 inst: 2293000002 cyc: 2180196391 now IPC :1.74563: AVG IPC :1.05130: L2-Pf-HR :0.89518: L2-HR :0.85301: (Sim:10h12m9s) 
CPU  0 inst: 2294000002 cyc: 2180632747 now IPC :2.29171: AVG IPC :1.05155: L2-Pf-HR :0.89521: L2-HR :0.85306: (Sim:10h12m16s) 
CPU  0 inst: 2295000000 cyc: 2181157427 now IPC :1.90592: AVG IPC :1.05175: L2-Pf-HR :0.89522: L2-HR :0.85309: (Sim:10h12m22s) 
CPU  0 inst: 2296000005 cyc: 2181594255 now IPC :2.28924: AVG IPC :1.05200: L2-Pf-HR :0.89525: L2-HR :0.85313: (Sim:10h12m29s) 
CPU  0 inst: 2297000003 cyc: 2182118052 now IPC :1.90913: AVG IPC :1.05221: L2-Pf-HR :0.89528: L2-HR :0.85317: (Sim:10h12m36s) 
CPU  0 inst: 2298000003 cyc: 2182637669 now IPC :1.92449: AVG IPC :1.05241: L2-Pf-HR :0.89532: L2-HR :0.85320: (Sim:10h12m43s) 
CPU  0 inst: 2299000000 cyc: 2183324812 now IPC :1.45530: AVG IPC :1.05254: L2-Pf-HR :0.89529: L2-HR :0.85319: (Sim:10h12m51s) 
CPU  0 inst: 2300000005 cyc: 2183833275 now IPC :1.96672: AVG IPC :1.05275: L2-Pf-HR :0.89531: L2-HR :0.85322: (Sim:10h12m59s) 
CPU  0 inst: 2301000000 cyc: 2184349220 now IPC :1.93818: AVG IPC :1.05296: L2-Pf-HR :0.89535: L2-HR :0.85327: (Sim:10h13m6s) 
CPU  0 inst: 2302000002 cyc: 2184959644 now IPC :1.63821: AVG IPC :1.05313: L2-Pf-HR :0.89532: L2-HR :0.85327: (Sim:10h13m13s) 
CPU  0 inst: 2303000002 cyc: 2185430995 now IPC :2.12156: AVG IPC :1.05336: L2-Pf-HR :0.89535: L2-HR :0.85331: (Sim:10h13m19s) 
CPU  0 inst: 2304000005 cyc: 2186012830 now IPC :1.71871: AVG IPC :1.05353: L2-Pf-HR :0.89535: L2-HR :0.85333: (Sim:10h13m26s) 
CPU  0 inst: 2305000002 cyc: 2186565358 now IPC :1.80986: AVG IPC :1.05373: L2-Pf-HR :0.89536: L2-HR :0.85336: (Sim:10h13m33s) 
CPU  0 inst: 2306000004 cyc: 2187122542 now IPC :1.79474: AVG IPC :1.05391: L2-Pf-HR :0.89536: L2-HR :0.85336: (Sim:10h13m41s) 
CPU  0 inst: 2307000003 cyc: 2187588342 now IPC :2.14684: AVG IPC :1.05415: L2-Pf-HR :0.89539: L2-HR :0.85340: (Sim:10h13m48s) 
CPU  0 inst: 2308000001 cyc: 2188194056 now IPC :1.65094: AVG IPC :1.05431: L2-Pf-HR :0.89538: L2-HR :0.85341: (Sim:10h13m55s) 
CPU  0 inst: 2309000002 cyc: 2188639681 now IPC :2.24404: AVG IPC :1.05455: L2-Pf-HR :0.89541: L2-HR :0.85345: (Sim:10h14m2s) 
CPU  0 inst: 2310000000 cyc: 2189188943 now IPC :1.82062: AVG IPC :1.05475: L2-Pf-HR :0.89542: L2-HR :0.85348: (Sim:10h14m8s) 
CPU  0 inst: 2311000001 cyc: 2189642507 now IPC :2.20476: AVG IPC :1.05498: L2-Pf-HR :0.89546: L2-HR :0.85352: (Sim:10h14m14s) 
CPU  0 inst: 2312000001 cyc: 2190273317 now IPC :1.58526: AVG IPC :1.05514: L2-Pf-HR :0.89543: L2-HR :0.85351: (Sim:10h14m22s) 
CPU  0 inst: 2313000002 cyc: 2190742378 now IPC :2.13192: AVG IPC :1.05537: L2-Pf-HR :0.89546: L2-HR :0.85355: (Sim:10h14m29s) 
CPU  0 inst: 2314000000 cyc: 2191363095 now IPC :1.61104: AVG IPC :1.05553: L2-Pf-HR :0.89544: L2-HR :0.85355: (Sim:10h14m37s) 
CPU  0 inst: 2315000004 cyc: 2191812123 now IPC :2.22704: AVG IPC :1.05577: L2-Pf-HR :0.89547: L2-HR :0.85359: (Sim:10h14m43s) 
CPU  0 inst: 2316000000 cyc: 2192277847 now IPC :2.14719: AVG IPC :1.05600: L2-Pf-HR :0.89551: L2-HR :0.85364: (Sim:10h14m49s) 
CPU  0 inst: 2317000002 cyc: 2192801065 now IPC :1.91125: AVG IPC :1.05620: L2-Pf-HR :0.89551: L2-HR :0.85366: (Sim:10h14m56s) 
CPU  0 inst: 2318000000 cyc: 2193411387 now IPC :1.63848: AVG IPC :1.05636: L2-Pf-HR :0.89548: L2-HR :0.85365: (Sim:10h15m3s) 
CPU  0 inst: 2319000001 cyc: 2193888861 now IPC :2.09436: AVG IPC :1.05659: L2-Pf-HR :0.89551: L2-HR :0.85369: (Sim:10h15m11s) 
CPU  0 inst: 2320000000 cyc: 2194395007 now IPC :1.97571: AVG IPC :1.05680: L2-Pf-HR :0.89554: L2-HR :0.85373: (Sim:10h15m18s) 
CPU  0 inst: 2321000003 cyc: 2194933625 now IPC :1.85661: AVG IPC :1.05700: L2-Pf-HR :0.89552: L2-HR :0.85374: (Sim:10h15m25s) 
CPU  0 inst: 2322000003 cyc: 2195372163 now IPC :2.28030: AVG IPC :1.05724: L2-Pf-HR :0.89555: L2-HR :0.85378: (Sim:10h15m31s) 
CPU  0 inst: 2323000001 cyc: 2195903284 now IPC :1.88281: AVG IPC :1.05744: L2-Pf-HR :0.89556: L2-HR :0.85380: (Sim:10h15m37s) 
CPU  0 inst: 2324000003 cyc: 2196411509 now IPC :1.96764: AVG IPC :1.05765: L2-Pf-HR :0.89558: L2-HR :0.85383: (Sim:10h15m44s) 
CPU  0 inst: 2325000004 cyc: 2196951615 now IPC :1.85149: AVG IPC :1.05785: L2-Pf-HR :0.89557: L2-HR :0.85384: (Sim:10h15m52s) 
CPU  0 inst: 2326000000 cyc: 2197408835 now IPC :2.18712: AVG IPC :1.05808: L2-Pf-HR :0.89560: L2-HR :0.85388: (Sim:10h15m59s) 
CPU  0 inst: 2327000000 cyc: 2197980074 now IPC :1.75058: AVG IPC :1.05826: L2-Pf-HR :0.89560: L2-HR :0.85389: (Sim:10h16m6s) 
CPU  0 inst: 2328000003 cyc: 2198422852 now IPC :2.25847: AVG IPC :1.05851: L2-Pf-HR :0.89562: L2-HR :0.85393: (Sim:10h16m12s) 
CPU  0 inst: 2329000004 cyc: 2198950409 now IPC :1.89553: AVG IPC :1.05871: L2-Pf-HR :0.89564: L2-HR :0.85396: (Sim:10h16m19s) 
CPU  0 inst: 2330000004 cyc: 2199389088 now IPC :2.27957: AVG IPC :1.05895: L2-Pf-HR :0.89567: L2-HR :0.85401: (Sim:10h16m25s) 
CPU  0 inst: 2331000001 cyc: 2199918897 now IPC :1.88747: AVG IPC :1.05915: L2-Pf-HR :0.89571: L2-HR :0.85404: (Sim:10h16m32s) 
CPU  0 inst: 2332000001 cyc: 2200466821 now IPC :1.82507: AVG IPC :1.05934: L2-Pf-HR :0.89574: L2-HR :0.85407: (Sim:10h16m39s) 
CPU  0 inst: 2333000001 cyc: 2201123140 now IPC :1.52365: AVG IPC :1.05948: L2-Pf-HR :0.89570: L2-HR :0.85406: (Sim:10h16m47s) 
CPU  0 inst: 2334000000 cyc: 2201609652 now IPC :2.05545: AVG IPC :1.05970: L2-Pf-HR :0.89573: L2-HR :0.85410: (Sim:10h16m54s) 
CPU  0 inst: 2335000000 cyc: 2202254989 now IPC :1.54958: AVG IPC :1.05984: L2-Pf-HR :0.89571: L2-HR :0.85410: (Sim:10h17m1s) 
CPU  0 inst: 2336000004 cyc: 2202740521 now IPC :2.05960: AVG IPC :1.06006: L2-Pf-HR :0.89573: L2-HR :0.85414: (Sim:10h17m7s) 
CPU  0 inst: 2337000000 cyc: 2203214743 now IPC :2.10871: AVG IPC :1.06029: L2-Pf-HR :0.89576: L2-HR :0.85418: (Sim:10h17m14s) 
CPU  0 inst: 2338000003 cyc: 2203798858 now IPC :1.71200: AVG IPC :1.06046: L2-Pf-HR :0.89577: L2-HR :0.85420: (Sim:10h17m20s) 
CPU  0 inst: 2339000004 cyc: 2204418156 now IPC :1.61473: AVG IPC :1.06062: L2-Pf-HR :0.89576: L2-HR :0.85420: (Sim:10h17m28s) 
CPU  0 inst: 2340000002 cyc: 2204892094 now IPC :2.10998: AVG IPC :1.06084: L2-Pf-HR :0.89578: L2-HR :0.85424: (Sim:10h17m35s) 
CPU  0 inst: 2341000003 cyc: 2205361219 now IPC :2.13163: AVG IPC :1.06107: L2-Pf-HR :0.89582: L2-HR :0.85428: (Sim:10h17m42s) 
CPU  0 inst: 2342000000 cyc: 2205973780 now IPC :1.63249: AVG IPC :1.06123: L2-Pf-HR :0.89580: L2-HR :0.85428: (Sim:10h17m49s) 
CPU  0 inst: 2343000005 cyc: 2206421369 now IPC :2.23420: AVG IPC :1.06147: L2-Pf-HR :0.89583: L2-HR :0.85432: (Sim:10h17m55s) 
CPU  0 inst: 2344000001 cyc: 2206972436 now IPC :1.81465: AVG IPC :1.06166: L2-Pf-HR :0.89584: L2-HR :0.85434: (Sim:10h18m2s) 
CPU  0 inst: 2345000003 cyc: 2207424573 now IPC :2.21172: AVG IPC :1.06189: L2-Pf-HR :0.89588: L2-HR :0.85439: (Sim:10h18m8s) 
CPU  0 inst: 2346000001 cyc: 2208045367 now IPC :1.61084: AVG IPC :1.06205: L2-Pf-HR :0.89585: L2-HR :0.85438: (Sim:10h18m16s) 
CPU  0 inst: 2347000003 cyc: 2208520675 now IPC :2.10390: AVG IPC :1.06227: L2-Pf-HR :0.89588: L2-HR :0.85441: (Sim:10h18m24s) 
CPU  0 inst: 2348000001 cyc: 2209138627 now IPC :1.61825: AVG IPC :1.06243: L2-Pf-HR :0.89586: L2-HR :0.85442: (Sim:10h18m30s) 
CPU  0 inst: 2349000002 cyc: 2209582313 now IPC :2.25385: AVG IPC :1.06267: L2-Pf-HR :0.89589: L2-HR :0.85446: (Sim:10h18m36s) 
CPU  0 inst: 2350000004 cyc: 2210122395 now IPC :1.85157: AVG IPC :1.06286: L2-Pf-HR :0.89590: L2-HR :0.85448: (Sim:10h18m43s) 
CPU  0 inst: 2351000003 cyc: 2210577274 now IPC :2.19838: AVG IPC :1.06309: L2-Pf-HR :0.89593: L2-HR :0.85452: (Sim:10h18m49s) 
CPU  0 inst: 2352000005 cyc: 2211205624 now IPC :1.59147: AVG IPC :1.06324: L2-Pf-HR :0.89591: L2-HR :0.85451: (Sim:10h18m57s) 
CPU  0 inst: 2353000004 cyc: 2211669115 now IPC :2.15754: AVG IPC :1.06347: L2-Pf-HR :0.89593: L2-HR :0.85455: (Sim:10h19m4s) 
CPU  0 inst: 2354000003 cyc: 2212292978 now IPC :1.60291: AVG IPC :1.06362: L2-Pf-HR :0.89592: L2-HR :0.85455: (Sim:10h19m11s) 
CPU  0 inst: 2355000001 cyc: 2212732288 now IPC :2.27629: AVG IPC :1.06387: L2-Pf-HR :0.89594: L2-HR :0.85458: (Sim:10h19m17s) 
CPU  0 inst: 2356000004 cyc: 2213170620 now IPC :2.28138: AVG IPC :1.06411: L2-Pf-HR :0.89597: L2-HR :0.85463: (Sim:10h19m23s) 
CPU  0 inst: 2357000003 cyc: 2213709406 now IPC :1.85602: AVG IPC :1.06430: L2-Pf-HR :0.89597: L2-HR :0.85465: (Sim:10h19m29s) 
CPU  0 inst: 2358000001 cyc: 2214284129 now IPC :1.73997: AVG IPC :1.06447: L2-Pf-HR :0.89597: L2-HR :0.85466: (Sim:10h19m36s) 
CPU  0 inst: 2359000003 cyc: 2214738554 now IPC :2.20059: AVG IPC :1.06471: L2-Pf-HR :0.89599: L2-HR :0.85469: (Sim:10h19m43s) 
CPU  0 inst: 2360000001 cyc: 2215198987 now IPC :2.17186: AVG IPC :1.06494: L2-Pf-HR :0.89602: L2-HR :0.85473: (Sim:10h19m50s) 
CPU  0 inst: 2361000000 cyc: 2215761756 now IPC :1.77693: AVG IPC :1.06512: L2-Pf-HR :0.89601: L2-HR :0.85473: (Sim:10h19m57s) 
CPU  0 inst: 2362000003 cyc: 2216197942 now IPC :2.29261: AVG IPC :1.06536: L2-Pf-HR :0.89603: L2-HR :0.85477: (Sim:10h20m3s) 
CPU  0 inst: 2363000000 cyc: 2216722123 now IPC :1.90773: AVG IPC :1.06556: L2-Pf-HR :0.89605: L2-HR :0.85480: (Sim:10h20m9s) 
Finished CPU 0 instr: 2361000005 cyc: 2215736603 AVG IPC: 1.06556 (Sim time: 10h20m9s)

ChampSim completed all CPUs

[ROI Statistics]
Core_0_instructions 2361000005
Core_0_cycles 2215736603
Core_0_IPC 1.06556

Core_0_branch_prediction_accuracy 98.59504
Core_0_branch_MPKI 0.33667
Core_0_average_ROB_occupancy_at_mispredict 618.19523

Core_0_L1D_total_access 1061137768
Core_0_L1D_total_hit 1016102942 L1D_total_Hit Ratio: 0.95756
Core_0_L1D_total_miss 45034826
Core_0_L1D_loads 497714970
Core_0_L1D_load_hit 477779614 L1D_load_Hit Ratio: 0.95995
Core_0_L1D_load_miss 19935356
Core_0_L1D_RFOs 46035039
Core_0_L1D_RFO_hit 43876152 L1D_RFO_Hit Ratio: 0.95310
Core_0_L1D_RFO_miss 2158887
Core_0_L1D_prefetches 517387759
Core_0_L1D_prefetch_hit 494447176 L1D_prefetch_Hit Ratio: 0.95566
Core_0_L1D_prefetch_miss 22940583
Core_0_L1D_writebacks 0
Core_0_L1D_writeback_hit 0 L1D_writeback_Hit Ratio: -nan
Core_0_L1D_writeback_miss 0
Core_0_L1D_prefetch_requested 1476548197
Core_0_L1D_prefetch_issued 735720418
Core_0_L1D_prefetch_useful 22389258 L1D_Useful Ratio: 0.03043
Core_0_L1D_prefetch_useless 568081
Core_0_L1D_prefetch_late 3260568
Core_0_L1D_average_miss_latency 86567500.60099

Core_0_L1I_total_access 308780470
Core_0_L1I_total_hit 308775559 L1I_total_Hit Ratio: 0.99998
Core_0_L1I_total_miss 4911
Core_0_L1I_loads 308780470
Core_0_L1I_load_hit 308775559 L1I_load_Hit Ratio: 0.99998
Core_0_L1I_load_miss 4911
Core_0_L1I_RFOs 0
Core_0_L1I_RFO_hit 0 L1I_RFO_Hit Ratio: -nan
Core_0_L1I_RFO_miss 0
Core_0_L1I_prefetches 0
Core_0_L1I_prefetch_hit 0 L1I_prefetch_Hit Ratio: -nan
Core_0_L1I_prefetch_miss 0
Core_0_L1I_writebacks 0
Core_0_L1I_writeback_hit 0 L1I_writeback_Hit Ratio: -nan
Core_0_L1I_writeback_miss 0
Core_0_L1I_prefetch_requested 0
Core_0_L1I_prefetch_issued 0
Core_0_L1I_prefetch_useful 0 L1I_Useful Ratio: -nan
Core_0_L1I_prefetch_useless 0
Core_0_L1I_prefetch_late 0
Core_0_L1I_average_miss_latency 305.12360

Core_0_L2C_total_access 105867998
Core_0_L2C_total_hit 90495847 L2C_total_Hit Ratio: 0.85480
Core_0_L2C_total_miss 15372151
Core_0_L2C_loads 16679716
Core_0_L2C_load_hit 10889592 L2C_load_Hit Ratio: 0.65286
Core_0_L2C_load_miss 5790124
Core_0_L2C_RFOs 2158879
Core_0_L2C_RFO_hit 373064 L2C_RFO_Hit Ratio: 0.17280
Core_0_L2C_RFO_miss 1785815
Core_0_L2C_prefetches 74993842
Core_0_L2C_prefetch_hit 67197974 L2C_prefetch_Hit Ratio: 0.89605
Core_0_L2C_prefetch_miss 7795868
Core_0_L2C_writebacks 12035561
Core_0_L2C_writeback_hit 12035217 L2C_writeback_Hit Ratio: 0.99997
Core_0_L2C_writeback_miss 344
Core_0_L2C_prefetch_requested 101847183
Core_0_L2C_prefetch_issued 100826469
Core_0_L2C_prefetch_useful 2138697 L2C_Useful Ratio: 0.02121
Core_0_L2C_prefetch_useless 5661894
Core_0_L2C_prefetch_late 1927135
Core_0_L2C_average_miss_latency 314.59580

Core_0_LLC_total_access 24044368
Core_0_LLC_total_hit 11024039 LLC_total_Hit Ratio: 0.45849
Core_0_LLC_total_miss 13020329
Core_0_LLC_loads 3863066
Core_0_LLC_load_hit 795143 LLC_load_Hit Ratio: 0.20583
Core_0_LLC_load_miss 3067923
Core_0_LLC_RFOs 1785812
Core_0_LLC_RFO_hit 8549 LLC_RFO_Hit Ratio: 0.00479
Core_0_LLC_RFO_miss 1777263
Core_0_LLC_prefetches 9722788
Core_0_LLC_prefetch_hit 1726509 LLC_prefetch_Hit Ratio: 0.17757
Core_0_LLC_prefetch_miss 7996279
Core_0_LLC_writebacks 8672702
Core_0_LLC_writeback_hit 8493838 LLC_writeback_Hit Ratio: 0.97938
Core_0_LLC_writeback_miss 178864
Core_0_LLC_prefetch_requested 0
Core_0_LLC_prefetch_issued 0
Core_0_LLC_prefetch_useful 127896 LLC_Useful Ratio: inf
Core_0_LLC_prefetch_useless 7844194
Core_0_LLC_prefetch_late 0
Core_0_LLC_average_miss_latency 335.18061

Core_0_major_page_fault 0
Core_0_minor_page_fault 83038


Channel_0_RQ_row_buffer_hit 7152350
Channel_0_RQ_row_buffer_miss 5687704
Channel_0_WQ_row_buffer_hit 2134702
Channel_0_WQ_row_buffer_miss 5044462
Channel_0_WQ_full 739
Channel_0_dbus_congested 11240442

avg_congested_cycle 11

EzSearch AVG IPC :1.06556: L2-Pf-HR :0.89605 : L2-HR :0.85480 Uful:0.02121
     > Finished combination: TraceType=770-tot Sim:2361000000 Prefetcher=L2ipcp L1=ipcp
