TRACE: [662000000][OPT-350M]_[h16][s1024][d64] Warmup: 2000000 NumTraces: 662000000
L1:no:L2:no
*************************************************
   ChampSim Multicore Out-of-Order Simulator
   Last compiled: Oct 27 2024 10:42:57
*************************************************

trace_0 770-tot_memTraces_v3/memTraces[662000000][OPT-350M]_[h16][s1024][d64].champsim.xz
MAIN.cc ln 751 stats print skipped
CPU  0 inst:    1000001 cyc:     500604 now IPC :1.99759: AVG IPC :1.99759: L2-Pf-HR :-nan: L2-HR :0.63359: (Sim:0h0m18s) 
CPU  0 inst:    2000000 cyc:     984941 now IPC :2.06468: AVG IPC :2.03058: L2-Pf-HR :-nan: L2-HR :0.68966: (Sim:0h0m39s) 

Warmup complete CPU  0 instructions:    2000001 cycles:     984942 (Simulation time: 0 hr 0 min 39 sec) 

CPU  0 inst:    3000000 cyc:    1639791 now IPC :1.52707: AVG IPC :1.52707: L2-Pf-HR :-nan: L2-HR :0.73395: (Sim:0h0m56s) 
CPU  0 inst:    4000002 cyc:    2294222 now IPC :1.52805: AVG IPC :1.52756: L2-Pf-HR :-nan: L2-HR :0.73392: (Sim:0h1m14s) 
CPU  0 inst:    5000003 cyc:    2948709 now IPC :1.52792: AVG IPC :1.52768: L2-Pf-HR :-nan: L2-HR :0.73333: (Sim:0h1m31s) 
CPU  0 inst:    6000004 cyc:    3604346 now IPC :1.52524: AVG IPC :1.52707: L2-Pf-HR :-nan: L2-HR :0.73322: (Sim:0h1m48s) 
CPU  0 inst:    7000001 cyc:    4322365 now IPC :1.39272: AVG IPC :1.49816: L2-Pf-HR :-nan: L2-HR :0.73261: (Sim:0h2m6s) 
CPU  0 inst:    8000001 cyc:    4980653 now IPC :1.51909: AVG IPC :1.50161: L2-Pf-HR :-nan: L2-HR :0.73449: (Sim:0h2m23s) 
CPU  0 inst:    9000003 cyc:    5637817 now IPC :1.52169: AVG IPC :1.50445: L2-Pf-HR :-nan: L2-HR :0.73588: (Sim:0h2m40s) 
CPU  0 inst:   10000000 cyc:    6296461 now IPC :1.51827: AVG IPC :1.50616: L2-Pf-HR :-nan: L2-HR :0.73686: (Sim:0h2m58s) 
CPU  0 inst:   11000002 cyc:    6952727 now IPC :1.52378: AVG IPC :1.50810: L2-Pf-HR :-nan: L2-HR :0.73751: (Sim:0h3m16s) 
CPU  0 inst:   12000002 cyc:    7605521 now IPC :1.53188: AVG IPC :1.51044: L2-Pf-HR :-nan: L2-HR :0.73818: (Sim:0h3m33s) 
CPU  0 inst:   13000004 cyc:    8337386 now IPC :1.36637: AVG IPC :1.49610: L2-Pf-HR :-nan: L2-HR :0.74154: (Sim:0h3m51s) 
CPU  0 inst:   14000000 cyc:    9009980 now IPC :1.48678: AVG IPC :1.49532: L2-Pf-HR :-nan: L2-HR :0.74594: (Sim:0h4m9s) 
CPU  0 inst:   15000000 cyc:    9682881 now IPC :1.48610: AVG IPC :1.49461: L2-Pf-HR :-nan: L2-HR :0.75031: (Sim:0h4m26s) 
CPU  0 inst:   16000000 cyc:   10355167 now IPC :1.48746: AVG IPC :1.49409: L2-Pf-HR :-nan: L2-HR :0.75405: (Sim:0h4m44s) 
CPU  0 inst:   17000005 cyc:   11160826 now IPC :1.24123: AVG IPC :1.47407: L2-Pf-HR :-nan: L2-HR :0.75086: (Sim:0h4m59s) 
CPU  0 inst:   18000000 cyc:   11882609 now IPC :1.38545: AVG IPC :1.46820: L2-Pf-HR :-nan: L2-HR :0.74969: (Sim:0h5m7s) 
CPU  0 inst:   19000001 cyc:   12606733 now IPC :1.38098: AVG IPC :1.46277: L2-Pf-HR :-nan: L2-HR :0.74867: (Sim:0h5m15s) 
CPU  0 inst:   20000001 cyc:   13328897 now IPC :1.38473: AVG IPC :1.45820: L2-Pf-HR :-nan: L2-HR :0.74786: (Sim:0h5m23s) 
CPU  0 inst:   21000000 cyc:   14053084 now IPC :1.38086: AVG IPC :1.45392: L2-Pf-HR :-nan: L2-HR :0.74700: (Sim:0h5m31s) 
CPU  0 inst:   22000004 cyc:   14776438 now IPC :1.38245: AVG IPC :1.45017: L2-Pf-HR :-nan: L2-HR :0.74627: (Sim:0h5m39s) 
CPU  0 inst:   23000005 cyc:   15562118 now IPC :1.27278: AVG IPC :1.44061: L2-Pf-HR :-nan: L2-HR :0.74538: (Sim:0h5m48s) 
CPU  0 inst:   24000005 cyc:   16236495 now IPC :1.48285: AVG IPC :1.44248: L2-Pf-HR :-nan: L2-HR :0.74534: (Sim:0h5m55s) 
CPU  0 inst:   25000005 cyc:   16908023 now IPC :1.48914: AVG IPC :1.44444: L2-Pf-HR :-nan: L2-HR :0.74528: (Sim:0h6m3s) 
CPU  0 inst:   26000002 cyc:   17579957 now IPC :1.48824: AVG IPC :1.44622: L2-Pf-HR :-nan: L2-HR :0.74523: (Sim:0h6m11s) 
CPU  0 inst:   27000003 cyc:   18255034 now IPC :1.48131: AVG IPC :1.44759: L2-Pf-HR :-nan: L2-HR :0.74514: (Sim:0h6m19s) 
CPU  0 inst:   28000003 cyc:   18925582 now IPC :1.49132: AVG IPC :1.44922: L2-Pf-HR :-nan: L2-HR :0.74509: (Sim:0h6m27s) 
CPU  0 inst:   29000001 cyc:   19668131 now IPC :1.34671: AVG IPC :1.44515: L2-Pf-HR :-nan: L2-HR :0.74580: (Sim:0h6m35s) 
CPU  0 inst:   30000005 cyc:   20351638 now IPC :1.46305: AVG IPC :1.44578: L2-Pf-HR :-nan: L2-HR :0.74768: (Sim:0h6m43s) 
CPU  0 inst:   31000002 cyc:   21034834 now IPC :1.46370: AVG IPC :1.44639: L2-Pf-HR :-nan: L2-HR :0.74952: (Sim:0h6m51s) 
CPU  0 inst:   32000005 cyc:   21718958 now IPC :1.46173: AVG IPC :1.44690: L2-Pf-HR :-nan: L2-HR :0.75104: (Sim:0h6m59s) 
CPU  0 inst:   33000005 cyc:   22514155 now IPC :1.25755: AVG IPC :1.43990: L2-Pf-HR :-nan: L2-HR :0.75000: (Sim:0h7m7s) 
CPU  0 inst:   34000000 cyc:   23226086 now IPC :1.40462: AVG IPC :1.43877: L2-Pf-HR :-nan: L2-HR :0.74943: (Sim:0h7m15s) 
CPU  0 inst:   35000003 cyc:   23934620 now IPC :1.41137: AVG IPC :1.43793: L2-Pf-HR :-nan: L2-HR :0.74896: (Sim:0h7m23s) 
CPU  0 inst:   36000005 cyc:   24642109 now IPC :1.41345: AVG IPC :1.43720: L2-Pf-HR :-nan: L2-HR :0.74851: (Sim:0h7m31s) 
CPU  0 inst:   37000002 cyc:   25354124 now IPC :1.40446: AVG IPC :1.43624: L2-Pf-HR :-nan: L2-HR :0.74803: (Sim:0h7m40s) 
CPU  0 inst:   38000001 cyc:   26066306 now IPC :1.40413: AVG IPC :1.43533: L2-Pf-HR :-nan: L2-HR :0.74759: (Sim:0h7m48s) 
CPU  0 inst:   39000000 cyc:   26857317 now IPC :1.26420: AVG IPC :1.43010: L2-Pf-HR :-nan: L2-HR :0.74699: (Sim:0h7m56s) 
CPU  0 inst:   40000000 cyc:   27547648 now IPC :1.44858: AVG IPC :1.43058: L2-Pf-HR :-nan: L2-HR :0.74691: (Sim:0h8m4s) 
CPU  0 inst:   41000000 cyc:   28235605 now IPC :1.45358: AVG IPC :1.43116: L2-Pf-HR :-nan: L2-HR :0.74682: (Sim:0h8m12s) 
CPU  0 inst:   42000003 cyc:   28922438 now IPC :1.45596: AVG IPC :1.43177: L2-Pf-HR :-nan: L2-HR :0.74676: (Sim:0h8m20s) 
CPU  0 inst:   43000003 cyc:   29611295 now IPC :1.45168: AVG IPC :1.43225: L2-Pf-HR :-nan: L2-HR :0.74667: (Sim:0h8m28s) 
CPU  0 inst:   44000004 cyc:   30298555 now IPC :1.45505: AVG IPC :1.43278: L2-Pf-HR :-nan: L2-HR :0.74659: (Sim:0h8m36s) 
CPU  0 inst:   45000005 cyc:   31050592 now IPC :1.32972: AVG IPC :1.43020: L2-Pf-HR :-nan: L2-HR :0.74680: (Sim:0h8m44s) 
CPU  0 inst:   46000002 cyc:   31736363 now IPC :1.45821: AVG IPC :1.43083: L2-Pf-HR :-nan: L2-HR :0.74803: (Sim:0h8m52s) 
CPU  0 inst:   47000003 cyc:   32423789 now IPC :1.45470: AVG IPC :1.43135: L2-Pf-HR :-nan: L2-HR :0.74914: (Sim:0h9m0s) 
CPU  0 inst:   48000000 cyc:   33110950 now IPC :1.45526: AVG IPC :1.43186: L2-Pf-HR :-nan: L2-HR :0.75027: (Sim:0h9m8s) 
CPU  0 inst:   49000001 cyc:   33902953 now IPC :1.26262: AVG IPC :1.42779: L2-Pf-HR :-nan: L2-HR :0.74976: (Sim:0h9m20s) 
CPU  0 inst:   50000000 cyc:   34619551 now IPC :1.39548: AVG IPC :1.42710: L2-Pf-HR :-nan: L2-HR :0.74941: (Sim:0h9m38s) 
CPU  0 inst:   51000001 cyc:   35332801 now IPC :1.40203: AVG IPC :1.42658: L2-Pf-HR :-nan: L2-HR :0.74909: (Sim:0h9m56s) 
CPU  0 inst:   52000005 cyc:   36046396 now IPC :1.40136: AVG IPC :1.42607: L2-Pf-HR :-nan: L2-HR :0.74878: (Sim:0h10m15s) 
CPU  0 inst:   53000003 cyc:   36764204 now IPC :1.39313: AVG IPC :1.42541: L2-Pf-HR :-nan: L2-HR :0.74844: (Sim:0h10m32s) 
CPU  0 inst:   54000000 cyc:   37477158 now IPC :1.40261: AVG IPC :1.42496: L2-Pf-HR :-nan: L2-HR :0.74811: (Sim:0h10m51s) 
CPU  0 inst:   55000004 cyc:   38261285 now IPC :1.27531: AVG IPC :1.42181: L2-Pf-HR :-nan: L2-HR :0.74764: (Sim:0h11m9s) 
CPU  0 inst:   56000004 cyc:   38941459 now IPC :1.47021: AVG IPC :1.42268: L2-Pf-HR :-nan: L2-HR :0.74758: (Sim:0h11m27s) 
CPU  0 inst:   57000004 cyc:   39621091 now IPC :1.47138: AVG IPC :1.42354: L2-Pf-HR :-nan: L2-HR :0.74751: (Sim:0h11m44s) 
CPU  0 inst:   58000004 cyc:   40297697 now IPC :1.47796: AVG IPC :1.42447: L2-Pf-HR :-nan: L2-HR :0.74746: (Sim:0h12m2s) 
CPU  0 inst:   59000005 cyc:   40977161 now IPC :1.47175: AVG IPC :1.42528: L2-Pf-HR :-nan: L2-HR :0.74739: (Sim:0h12m20s) 
CPU  0 inst:   60000001 cyc:   41654328 now IPC :1.47673: AVG IPC :1.42613: L2-Pf-HR :-nan: L2-HR :0.74733: (Sim:0h12m38s) 
CPU  0 inst:   61000002 cyc:   42403589 now IPC :1.33465: AVG IPC :1.42448: L2-Pf-HR :-nan: L2-HR :0.74740: (Sim:0h12m56s) 
CPU  0 inst:   62000000 cyc:   43090354 now IPC :1.45610: AVG IPC :1.42499: L2-Pf-HR :-nan: L2-HR :0.74822: (Sim:0h13m14s) 
CPU  0 inst:   63000001 cyc:   43777316 now IPC :1.45569: AVG IPC :1.42549: L2-Pf-HR :-nan: L2-HR :0.74901: (Sim:0h13m31s) 
CPU  0 inst:   64000001 cyc:   44463140 now IPC :1.45810: AVG IPC :1.42600: L2-Pf-HR :-nan: L2-HR :0.74988: (Sim:0h13m49s) 
CPU  0 inst:   65000005 cyc:   45236664 now IPC :1.29279: AVG IPC :1.42367: L2-Pf-HR :-nan: L2-HR :0.74964: (Sim:0h14m7s) 
CPU  0 inst:   66000002 cyc:   45934918 now IPC :1.43214: AVG IPC :1.42380: L2-Pf-HR :-nan: L2-HR :0.74938: (Sim:0h14m25s) 
CPU  0 inst:   67000001 cyc:   46628186 now IPC :1.44244: AVG IPC :1.42409: L2-Pf-HR :-nan: L2-HR :0.74911: (Sim:0h14m44s) 
CPU  0 inst:   68000001 cyc:   47326240 now IPC :1.43255: AVG IPC :1.42422: L2-Pf-HR :-nan: L2-HR :0.74888: (Sim:0h15m2s) 
CPU  0 inst:   69000000 cyc:   48022586 now IPC :1.43607: AVG IPC :1.42439: L2-Pf-HR :-nan: L2-HR :0.74862: (Sim:0h15m21s) 
CPU  0 inst:   70000001 cyc:   48713461 now IPC :1.44744: AVG IPC :1.42472: L2-Pf-HR :-nan: L2-HR :0.74837: (Sim:0h15m39s) 
CPU  0 inst:   71000004 cyc:   49500417 now IPC :1.27072: AVG IPC :1.42223: L2-Pf-HR :-nan: L2-HR :0.74798: (Sim:0h15m58s) 
CPU  0 inst:   72000002 cyc:   50191159 now IPC :1.44772: AVG IPC :1.42258: L2-Pf-HR :-nan: L2-HR :0.74793: (Sim:0h16m16s) 
CPU  0 inst:   73000005 cyc:   50881521 now IPC :1.44852: AVG IPC :1.42294: L2-Pf-HR :-nan: L2-HR :0.74786: (Sim:0h16m34s) 
CPU  0 inst:   74000002 cyc:   51572272 now IPC :1.44770: AVG IPC :1.42328: L2-Pf-HR :-nan: L2-HR :0.74781: (Sim:0h16m53s) 
CPU  0 inst:   75000003 cyc:   52259842 now IPC :1.45440: AVG IPC :1.42370: L2-Pf-HR :-nan: L2-HR :0.74777: (Sim:0h17m11s) 
CPU  0 inst:   76000000 cyc:   52948690 now IPC :1.45169: AVG IPC :1.42407: L2-Pf-HR :-nan: L2-HR :0.74772: (Sim:0h17m29s) 
CPU  0 inst:   77000000 cyc:   53698663 now IPC :1.33338: AVG IPC :1.42278: L2-Pf-HR :-nan: L2-HR :0.74768: (Sim:0h17m47s) 
CPU  0 inst:   78000003 cyc:   54386004 now IPC :1.45489: AVG IPC :1.42319: L2-Pf-HR :-nan: L2-HR :0.74827: (Sim:0h18m5s) 
CPU  0 inst:   79000000 cyc:   55072924 now IPC :1.45577: AVG IPC :1.42361: L2-Pf-HR :-nan: L2-HR :0.74901: (Sim:0h18m24s) 
CPU  0 inst:   80000005 cyc:   55760848 now IPC :1.45366: AVG IPC :1.42398: L2-Pf-HR :-nan: L2-HR :0.74966: (Sim:0h18m42s) 
CPU  0 inst:   81000005 cyc:   56545809 now IPC :1.27395: AVG IPC :1.42186: L2-Pf-HR :-nan: L2-HR :0.74959: (Sim:0h19m1s) 
CPU  0 inst:   82000000 cyc:   57247856 now IPC :1.42440: AVG IPC :1.42190: L2-Pf-HR :-nan: L2-HR :0.74937: (Sim:0h19m19s) 
CPU  0 inst:   83000001 cyc:   57951217 now IPC :1.42175: AVG IPC :1.42189: L2-Pf-HR :-nan: L2-HR :0.74919: (Sim:0h19m37s) 
CPU  0 inst:   84000005 cyc:   58654650 now IPC :1.42161: AVG IPC :1.42189: L2-Pf-HR :-nan: L2-HR :0.74899: (Sim:0h19m56s) 
CPU  0 inst:   85000002 cyc:   59355530 now IPC :1.42677: AVG IPC :1.42195: L2-Pf-HR :-nan: L2-HR :0.74878: (Sim:0h20m14s) 
CPU  0 inst:   86000001 cyc:   60059135 now IPC :1.42125: AVG IPC :1.42194: L2-Pf-HR :-nan: L2-HR :0.74858: (Sim:0h20m32s) 
CPU  0 inst:   87000000 cyc:   60838730 now IPC :1.28272: AVG IPC :1.42013: L2-Pf-HR :-nan: L2-HR :0.74824: (Sim:0h20m51s) 
CPU  0 inst:   88000002 cyc:   61545196 now IPC :1.41550: AVG IPC :1.42007: L2-Pf-HR :-nan: L2-HR :0.74818: (Sim:0h21m10s) 
CPU  0 inst:   89000005 cyc:   62237877 now IPC :1.44367: AVG IPC :1.42034: L2-Pf-HR :-nan: L2-HR :0.74812: (Sim:0h21m28s) 
CPU  0 inst:   90000004 cyc:   62928506 now IPC :1.44795: AVG IPC :1.42065: L2-Pf-HR :-nan: L2-HR :0.74809: (Sim:0h21m41s) 
CPU  0 inst:   91000004 cyc:   63618474 now IPC :1.44934: AVG IPC :1.42096: L2-Pf-HR :-nan: L2-HR :0.74805: (Sim:0h21m49s) 
CPU  0 inst:   92000004 cyc:   64305824 now IPC :1.45486: AVG IPC :1.42133: L2-Pf-HR :-nan: L2-HR :0.74800: (Sim:0h21m57s) 
CPU  0 inst:   93000005 cyc:   65056964 now IPC :1.33131: AVG IPC :1.42028: L2-Pf-HR :-nan: L2-HR :0.74784: (Sim:0h22m6s) 
CPU  0 inst:   94000001 cyc:   65750070 now IPC :1.44278: AVG IPC :1.42052: L2-Pf-HR :-nan: L2-HR :0.74841: (Sim:0h22m14s) 
CPU  0 inst:   95000002 cyc:   66438658 now IPC :1.45225: AVG IPC :1.42085: L2-Pf-HR :-nan: L2-HR :0.74897: (Sim:0h22m32s) 
CPU  0 inst:   96000003 cyc:   67128037 now IPC :1.45058: AVG IPC :1.42116: L2-Pf-HR :-nan: L2-HR :0.74948: (Sim:0h22m50s) 
CPU  0 inst:   97000002 cyc:   67880690 now IPC :1.32863: AVG IPC :1.42012: L2-Pf-HR :-nan: L2-HR :0.74959: (Sim:0h23m8s) 
CPU  0 inst:   98000003 cyc:   68614846 now IPC :1.36211: AVG IPC :1.41949: L2-Pf-HR :-nan: L2-HR :0.74939: (Sim:0h23m26s) 
CPU  0 inst:   99000001 cyc:   69323446 now IPC :1.41123: AVG IPC :1.41940: L2-Pf-HR :-nan: L2-HR :0.74925: (Sim:0h23m45s) 
CPU  0 inst:  100000004 cyc:   70034747 now IPC :1.40588: AVG IPC :1.41927: L2-Pf-HR :-nan: L2-HR :0.74908: (Sim:0h24m3s) 
CPU  0 inst:  101000000 cyc:   70748452 now IPC :1.40113: AVG IPC :1.41908: L2-Pf-HR :-nan: L2-HR :0.74891: (Sim:0h24m21s) 
CPU  0 inst:  102000003 cyc:   71462264 now IPC :1.40093: AVG IPC :1.41890: L2-Pf-HR :-nan: L2-HR :0.74873: (Sim:0h24m40s) 
CPU  0 inst:  103000000 cyc:   72180276 now IPC :1.39273: AVG IPC :1.41863: L2-Pf-HR :-nan: L2-HR :0.74863: (Sim:0h24m58s) 
CPU  0 inst:  104000001 cyc:   72949319 now IPC :1.30032: AVG IPC :1.41737: L2-Pf-HR :-nan: L2-HR :0.74838: (Sim:0h25m17s) 
CPU  0 inst:  105000000 cyc:   73643416 now IPC :1.44072: AVG IPC :1.41759: L2-Pf-HR :-nan: L2-HR :0.74833: (Sim:0h25m35s) 
CPU  0 inst:  106000002 cyc:   74337525 now IPC :1.44070: AVG IPC :1.41781: L2-Pf-HR :-nan: L2-HR :0.74830: (Sim:0h25m53s) 
CPU  0 inst:  107000002 cyc:   75028065 now IPC :1.44814: AVG IPC :1.41809: L2-Pf-HR :-nan: L2-HR :0.74827: (Sim:0h26m11s) 
CPU  0 inst:  108000002 cyc:   75718649 now IPC :1.44805: AVG IPC :1.41837: L2-Pf-HR :-nan: L2-HR :0.74823: (Sim:0h26m28s) 
CPU  0 inst:  109000000 cyc:   76415455 now IPC :1.43512: AVG IPC :1.41852: L2-Pf-HR :-nan: L2-HR :0.74824: (Sim:0h26m46s) 
CPU  0 inst:  110000001 cyc:   77160504 now IPC :1.34219: AVG IPC :1.41778: L2-Pf-HR :-nan: L2-HR :0.74851: (Sim:0h27m5s) 
CPU  0 inst:  111000004 cyc:   77847620 now IPC :1.45536: AVG IPC :1.41811: L2-Pf-HR :-nan: L2-HR :0.74894: (Sim:0h27m23s) 
CPU  0 inst:  112000000 cyc:   78533664 now IPC :1.45763: AVG IPC :1.41846: L2-Pf-HR :-nan: L2-HR :0.74943: (Sim:0h27m41s) 
CPU  0 inst:  113000005 cyc:   79222988 now IPC :1.45070: AVG IPC :1.41875: L2-Pf-HR :-nan: L2-HR :0.74993: (Sim:0h27m59s) 
CPU  0 inst:  114000002 cyc:   80016983 now IPC :1.25945: AVG IPC :1.41715: L2-Pf-HR :-nan: L2-HR :0.74942: (Sim:0h28m17s) 
CPU  0 inst:  115000003 cyc:   80727740 now IPC :1.40695: AVG IPC :1.41706: L2-Pf-HR :-nan: L2-HR :0.74928: (Sim:0h28m36s) 
CPU  0 inst:  116000002 cyc:   81444302 now IPC :1.39555: AVG IPC :1.41686: L2-Pf-HR :-nan: L2-HR :0.74914: (Sim:0h28m54s) 
CPU  0 inst:  117000003 cyc:   82159079 now IPC :1.39904: AVG IPC :1.41671: L2-Pf-HR :-nan: L2-HR :0.74899: (Sim:0h29m12s) 
CPU  0 inst:  118000001 cyc:   82873819 now IPC :1.39911: AVG IPC :1.41655: L2-Pf-HR :-nan: L2-HR :0.74884: (Sim:0h29m31s) 
CPU  0 inst:  119000005 cyc:   83586257 now IPC :1.40364: AVG IPC :1.41644: L2-Pf-HR :-nan: L2-HR :0.74870: (Sim:0h29m49s) 
CPU  0 inst:  120000002 cyc:   84360718 now IPC :1.29122: AVG IPC :1.41528: L2-Pf-HR :-nan: L2-HR :0.74852: (Sim:0h30m8s) 
CPU  0 inst:  121000002 cyc:   85040341 now IPC :1.47140: AVG IPC :1.41573: L2-Pf-HR :-nan: L2-HR :0.74847: (Sim:0h30m25s) 
CPU  0 inst:  122000002 cyc:   85717417 now IPC :1.47694: AVG IPC :1.41622: L2-Pf-HR :-nan: L2-HR :0.74844: (Sim:0h30m43s) 
CPU  0 inst:  123000000 cyc:   86395685 now IPC :1.47434: AVG IPC :1.41668: L2-Pf-HR :-nan: L2-HR :0.74841: (Sim:0h31m1s) 
CPU  0 inst:  124000000 cyc:   87073485 now IPC :1.47536: AVG IPC :1.41715: L2-Pf-HR :-nan: L2-HR :0.74838: (Sim:0h31m19s) 
CPU  0 inst:  125000000 cyc:   87750252 now IPC :1.47761: AVG IPC :1.41762: L2-Pf-HR :-nan: L2-HR :0.74835: (Sim:0h31m37s) 
CPU  0 inst:  126000005 cyc:   88501851 now IPC :1.33050: AVG IPC :1.41687: L2-Pf-HR :-nan: L2-HR :0.74856: (Sim:0h31m55s) 
CPU  0 inst:  127000005 cyc:   89187838 now IPC :1.45775: AVG IPC :1.41719: L2-Pf-HR :-nan: L2-HR :0.74896: (Sim:0h32m13s) 
CPU  0 inst:  128000000 cyc:   89872919 now IPC :1.45967: AVG IPC :1.41751: L2-Pf-HR :-nan: L2-HR :0.74938: (Sim:0h32m31s) 
CPU  0 inst:  129000003 cyc:   90559063 now IPC :1.45742: AVG IPC :1.41782: L2-Pf-HR :-nan: L2-HR :0.74976: (Sim:0h32m49s) 
CPU  0 inst:  130000000 cyc:   91346624 now IPC :1.26974: AVG IPC :1.41653: L2-Pf-HR :-nan: L2-HR :0.74941: (Sim:0h33m8s) 
CPU  0 inst:  131000003 cyc:   92051059 now IPC :1.41958: AVG IPC :1.41655: L2-Pf-HR :-nan: L2-HR :0.74928: (Sim:0h33m26s) 
CPU  0 inst:  132000005 cyc:   92759576 now IPC :1.41140: AVG IPC :1.41651: L2-Pf-HR :-nan: L2-HR :0.74915: (Sim:0h33m44s) 
CPU  0 inst:  133000000 cyc:   93466439 now IPC :1.41469: AVG IPC :1.41650: L2-Pf-HR :-nan: L2-HR :0.74903: (Sim:0h34m2s) 
CPU  0 inst:  134000004 cyc:   94177228 now IPC :1.40689: AVG IPC :1.41643: L2-Pf-HR :-nan: L2-HR :0.74890: (Sim:0h34m20s) 
CPU  0 inst:  135000002 cyc:   94885920 now IPC :1.41105: AVG IPC :1.41639: L2-Pf-HR :-nan: L2-HR :0.74877: (Sim:0h34m39s) 
CPU  0 inst:  136000000 cyc:   95667406 now IPC :1.27961: AVG IPC :1.41526: L2-Pf-HR :-nan: L2-HR :0.74859: (Sim:0h34m57s) 
CPU  0 inst:  137000000 cyc:   96359857 now IPC :1.44415: AVG IPC :1.41547: L2-Pf-HR :-nan: L2-HR :0.74855: (Sim:0h35m15s) 
CPU  0 inst:  138000004 cyc:   97049457 now IPC :1.45012: AVG IPC :1.41572: L2-Pf-HR :-nan: L2-HR :0.74852: (Sim:0h35m33s) 
CPU  0 inst:  139000000 cyc:   97738937 now IPC :1.45036: AVG IPC :1.41596: L2-Pf-HR :-nan: L2-HR :0.74850: (Sim:0h35m51s) 
CPU  0 inst:  140000003 cyc:   98431814 now IPC :1.44326: AVG IPC :1.41616: L2-Pf-HR :-nan: L2-HR :0.74847: (Sim:0h36m9s) 
CPU  0 inst:  141000004 cyc:   99120681 now IPC :1.45166: AVG IPC :1.41641: L2-Pf-HR :-nan: L2-HR :0.74844: (Sim:0h36m27s) 
CPU  0 inst:  142000003 cyc:   99869470 now IPC :1.33549: AVG IPC :1.41579: L2-Pf-HR :-nan: L2-HR :0.74855: (Sim:0h36m45s) 
CPU  0 inst:  143000000 cyc:  100554743 now IPC :1.45927: AVG IPC :1.41609: L2-Pf-HR :-nan: L2-HR :0.74892: (Sim:0h37m3s) 
CPU  0 inst:  144000003 cyc:  101241480 now IPC :1.45617: AVG IPC :1.41637: L2-Pf-HR :-nan: L2-HR :0.74926: (Sim:0h37m21s) 
CPU  0 inst:  145000004 cyc:  101926348 now IPC :1.46014: AVG IPC :1.41666: L2-Pf-HR :-nan: L2-HR :0.74962: (Sim:0h37m39s) 
CPU  0 inst:  146000003 cyc:  102716241 now IPC :1.26599: AVG IPC :1.41549: L2-Pf-HR :-nan: L2-HR :0.74938: (Sim:0h37m58s) 
CPU  0 inst:  147000004 cyc:  103429861 now IPC :1.40131: AVG IPC :1.41539: L2-Pf-HR :-nan: L2-HR :0.74928: (Sim:0h38m16s) 
CPU  0 inst:  148000003 cyc:  104143113 now IPC :1.40203: AVG IPC :1.41530: L2-Pf-HR :-nan: L2-HR :0.74918: (Sim:0h38m34s) 
CPU  0 inst:  149000000 cyc:  104855445 now IPC :1.40384: AVG IPC :1.41522: L2-Pf-HR :-nan: L2-HR :0.74907: (Sim:0h38m52s) 
CPU  0 inst:  150000003 cyc:  105572113 now IPC :1.39535: AVG IPC :1.41509: L2-Pf-HR :-nan: L2-HR :0.74895: (Sim:0h39m11s) 
CPU  0 inst:  151000005 cyc:  106284536 now IPC :1.40366: AVG IPC :1.41501: L2-Pf-HR :-nan: L2-HR :0.74884: (Sim:0h39m29s) 
CPU  0 inst:  152000004 cyc:  107073908 now IPC :1.26683: AVG IPC :1.41391: L2-Pf-HR :-nan: L2-HR :0.74867: (Sim:0h39m48s) 
CPU  0 inst:  153000004 cyc:  107771446 now IPC :1.43361: AVG IPC :1.41404: L2-Pf-HR :-nan: L2-HR :0.74863: (Sim:0h40m6s) 
CPU  0 inst:  154000002 cyc:  108463305 now IPC :1.44538: AVG IPC :1.41424: L2-Pf-HR :-nan: L2-HR :0.74861: (Sim:0h40m24s) 
CPU  0 inst:  155000003 cyc:  109155469 now IPC :1.44475: AVG IPC :1.41443: L2-Pf-HR :-nan: L2-HR :0.74859: (Sim:0h40m41s) 
CPU  0 inst:  156000004 cyc:  109851247 now IPC :1.43724: AVG IPC :1.41458: L2-Pf-HR :-nan: L2-HR :0.74856: (Sim:0h40m59s) 
CPU  0 inst:  157000001 cyc:  110543414 now IPC :1.44473: AVG IPC :1.41477: L2-Pf-HR :-nan: L2-HR :0.74853: (Sim:0h41m17s) 
CPU  0 inst:  158000000 cyc:  111299947 now IPC :1.32182: AVG IPC :1.41413: L2-Pf-HR :-nan: L2-HR :0.74860: (Sim:0h41m35s) 
CPU  0 inst:  159000001 cyc:  111993059 now IPC :1.44277: AVG IPC :1.41431: L2-Pf-HR :-nan: L2-HR :0.74890: (Sim:0h41m52s) 
CPU  0 inst:  160000002 cyc:  112685770 now IPC :1.44360: AVG IPC :1.41449: L2-Pf-HR :-nan: L2-HR :0.74920: (Sim:0h42m10s) 
CPU  0 inst:  161000002 cyc:  113376868 now IPC :1.44697: AVG IPC :1.41469: L2-Pf-HR :-nan: L2-HR :0.74952: (Sim:0h42m27s) 
CPU  0 inst:  162000000 cyc:  114160700 now IPC :1.27578: AVG IPC :1.41373: L2-Pf-HR :-nan: L2-HR :0.74937: (Sim:0h42m45s) 
CPU  0 inst:  163000001 cyc:  114857985 now IPC :1.43414: AVG IPC :1.41386: L2-Pf-HR :-nan: L2-HR :0.74927: (Sim:0h43m3s) 
CPU  0 inst:  164000005 cyc:  115548737 now IPC :1.44770: AVG IPC :1.41406: L2-Pf-HR :-nan: L2-HR :0.74918: (Sim:0h43m21s) 
CPU  0 inst:  165000003 cyc:  116244856 now IPC :1.43653: AVG IPC :1.41420: L2-Pf-HR :-nan: L2-HR :0.74909: (Sim:0h43m38s) 
CPU  0 inst:  166000004 cyc:  116941446 now IPC :1.43557: AVG IPC :1.41432: L2-Pf-HR :-nan: L2-HR :0.74898: (Sim:0h43m56s) 
CPU  0 inst:  167000003 cyc:  117632614 now IPC :1.44682: AVG IPC :1.41452: L2-Pf-HR :-nan: L2-HR :0.74887: (Sim:0h44m14s) 
CPU  0 inst:  168000004 cyc:  118419528 now IPC :1.27079: AVG IPC :1.41355: L2-Pf-HR :-nan: L2-HR :0.74872: (Sim:0h44m32s) 
CPU  0 inst:  169000000 cyc:  119111401 now IPC :1.44535: AVG IPC :1.41374: L2-Pf-HR :-nan: L2-HR :0.74869: (Sim:0h44m50s) 
CPU  0 inst:  170000003 cyc:  119801599 now IPC :1.44886: AVG IPC :1.41394: L2-Pf-HR :-nan: L2-HR :0.74867: (Sim:0h45m7s) 
CPU  0 inst:  171000000 cyc:  120489589 now IPC :1.45351: AVG IPC :1.41417: L2-Pf-HR :-nan: L2-HR :0.74865: (Sim:0h45m25s) 
CPU  0 inst:  172000003 cyc:  121179498 now IPC :1.44947: AVG IPC :1.41437: L2-Pf-HR :-nan: L2-HR :0.74863: (Sim:0h45m42s) 
CPU  0 inst:  173000000 cyc:  121868582 now IPC :1.45120: AVG IPC :1.41458: L2-Pf-HR :-nan: L2-HR :0.74860: (Sim:0h45m59s) 
CPU  0 inst:  174000004 cyc:  122619760 now IPC :1.33125: AVG IPC :1.41407: L2-Pf-HR :-nan: L2-HR :0.74863: (Sim:0h46m17s) 
CPU  0 inst:  175000001 cyc:  123305212 now IPC :1.45889: AVG IPC :1.41432: L2-Pf-HR :-nan: L2-HR :0.74889: (Sim:0h46m35s) 
CPU  0 inst:  176000001 cyc:  123988922 now IPC :1.46261: AVG IPC :1.41459: L2-Pf-HR :-nan: L2-HR :0.74921: (Sim:0h46m52s) 
CPU  0 inst:  177000003 cyc:  124673425 now IPC :1.46092: AVG IPC :1.41484: L2-Pf-HR :-nan: L2-HR :0.74951: (Sim:0h47m10s) 
CPU  0 inst:  178000003 cyc:  125453092 now IPC :1.28260: AVG IPC :1.41402: L2-Pf-HR :-nan: L2-HR :0.74945: (Sim:0h47m28s) 
CPU  0 inst:  179000003 cyc:  126164025 now IPC :1.40660: AVG IPC :1.41397: L2-Pf-HR :-nan: L2-HR :0.74937: (Sim:0h47m46s) 
CPU  0 inst:  180000002 cyc:  126871000 now IPC :1.41448: AVG IPC :1.41398: L2-Pf-HR :-nan: L2-HR :0.74928: (Sim:0h48m3s) 
CPU  0 inst:  181000003 cyc:  127580468 now IPC :1.40951: AVG IPC :1.41395: L2-Pf-HR :-nan: L2-HR :0.74919: (Sim:0h48m21s) 
CPU  0 inst:  182000001 cyc:  128295537 now IPC :1.39846: AVG IPC :1.41387: L2-Pf-HR :-nan: L2-HR :0.74909: (Sim:0h48m39s) 
CPU  0 inst:  183000001 cyc:  129006643 now IPC :1.40626: AVG IPC :1.41382: L2-Pf-HR :-nan: L2-HR :0.74899: (Sim:0h48m57s) 
CPU  0 inst:  184000005 cyc:  129804485 now IPC :1.25339: AVG IPC :1.41283: L2-Pf-HR :-nan: L2-HR :0.74884: (Sim:0h49m15s) 
CPU  0 inst:  185000000 cyc:  130495707 now IPC :1.44671: AVG IPC :1.41301: L2-Pf-HR :-nan: L2-HR :0.74881: (Sim:0h49m33s) 
CPU  0 inst:  186000004 cyc:  131183556 now IPC :1.45381: AVG IPC :1.41323: L2-Pf-HR :-nan: L2-HR :0.74879: (Sim:0h49m52s) 
CPU  0 inst:  187000004 cyc:  131871442 now IPC :1.45373: AVG IPC :1.41344: L2-Pf-HR :-nan: L2-HR :0.74877: (Sim:0h50m10s) 
CPU  0 inst:  188000004 cyc:  132558766 now IPC :1.45492: AVG IPC :1.41366: L2-Pf-HR :-nan: L2-HR :0.74875: (Sim:0h50m29s) 
CPU  0 inst:  189000004 cyc:  133245789 now IPC :1.45556: AVG IPC :1.41387: L2-Pf-HR :-nan: L2-HR :0.74872: (Sim:0h50m48s) 
CPU  0 inst:  190000003 cyc:  133995841 now IPC :1.33324: AVG IPC :1.41342: L2-Pf-HR :-nan: L2-HR :0.74869: (Sim:0h51m7s) 
CPU  0 inst:  191000002 cyc:  134666109 now IPC :1.49194: AVG IPC :1.41381: L2-Pf-HR :-nan: L2-HR :0.74896: (Sim:0h51m25s) 
CPU  0 inst:  192000000 cyc:  135336713 now IPC :1.49119: AVG IPC :1.41420: L2-Pf-HR :-nan: L2-HR :0.74924: (Sim:0h51m44s) 
CPU  0 inst:  193000001 cyc:  136007429 now IPC :1.49095: AVG IPC :1.41458: L2-Pf-HR :-nan: L2-HR :0.74949: (Sim:0h52m2s) 
CPU  0 inst:  194000002 cyc:  136777876 now IPC :1.29795: AVG IPC :1.41392: L2-Pf-HR :-nan: L2-HR :0.74948: (Sim:0h52m21s) 
CPU  0 inst:  195000004 cyc:  137483034 now IPC :1.41812: AVG IPC :1.41394: L2-Pf-HR :-nan: L2-HR :0.74940: (Sim:0h52m40s) 
CPU  0 inst:  196000004 cyc:  138190730 now IPC :1.41304: AVG IPC :1.41393: L2-Pf-HR :-nan: L2-HR :0.74932: (Sim:0h52m59s) 
CPU  0 inst:  197000003 cyc:  138898638 now IPC :1.41261: AVG IPC :1.41393: L2-Pf-HR :-nan: L2-HR :0.74923: (Sim:0h53m18s) 
CPU  0 inst:  198000004 cyc:  139605515 now IPC :1.41467: AVG IPC :1.41393: L2-Pf-HR :-nan: L2-HR :0.74914: (Sim:0h53m37s) 
CPU  0 inst:  199000002 cyc:  140315258 now IPC :1.40896: AVG IPC :1.41391: L2-Pf-HR :-nan: L2-HR :0.74905: (Sim:0h53m56s) 
CPU  0 inst:  200000004 cyc:  141111962 now IPC :1.25517: AVG IPC :1.41300: L2-Pf-HR :-nan: L2-HR :0.74890: (Sim:0h54m15s) 
CPU  0 inst:  201000001 cyc:  141809393 now IPC :1.43383: AVG IPC :1.41311: L2-Pf-HR :-nan: L2-HR :0.74888: (Sim:0h54m34s) 
CPU  0 inst:  202000002 cyc:  142505744 now IPC :1.43606: AVG IPC :1.41322: L2-Pf-HR :-nan: L2-HR :0.74886: (Sim:0h54m52s) 
CPU  0 inst:  203000002 cyc:  143201461 now IPC :1.43737: AVG IPC :1.41334: L2-Pf-HR :-nan: L2-HR :0.74884: (Sim:0h55m11s) 
CPU  0 inst:  204000002 cyc:  143895382 now IPC :1.44109: AVG IPC :1.41347: L2-Pf-HR :-nan: L2-HR :0.74882: (Sim:0h55m30s) 
CPU  0 inst:  205000002 cyc:  144588881 now IPC :1.44196: AVG IPC :1.41361: L2-Pf-HR :-nan: L2-HR :0.74880: (Sim:0h55m48s) 
CPU  0 inst:  206000004 cyc:  145345386 now IPC :1.32187: AVG IPC :1.41313: L2-Pf-HR :-nan: L2-HR :0.74874: (Sim:0h56m7s) 
CPU  0 inst:  207000005 cyc:  146021920 now IPC :1.47812: AVG IPC :1.41343: L2-Pf-HR :-nan: L2-HR :0.74898: (Sim:0h56m26s) 
CPU  0 inst:  208000002 cyc:  146699066 now IPC :1.47678: AVG IPC :1.41373: L2-Pf-HR :-nan: L2-HR :0.74921: (Sim:0h56m44s) 
CPU  0 inst:  209000001 cyc:  147375672 now IPC :1.47796: AVG IPC :1.41402: L2-Pf-HR :-nan: L2-HR :0.74947: (Sim:0h57m3s) 
CPU  0 inst:  210000003 cyc:  148139591 now IPC :1.30904: AVG IPC :1.41348: L2-Pf-HR :-nan: L2-HR :0.74948: (Sim:0h57m22s) 
CPU  0 inst:  211000001 cyc:  148857741 now IPC :1.39246: AVG IPC :1.41338: L2-Pf-HR :-nan: L2-HR :0.74941: (Sim:0h57m41s) 
CPU  0 inst:  212000002 cyc:  149565636 now IPC :1.41264: AVG IPC :1.41337: L2-Pf-HR :-nan: L2-HR :0.74934: (Sim:0h58m0s) 
CPU  0 inst:  213000000 cyc:  150273287 now IPC :1.41312: AVG IPC :1.41337: L2-Pf-HR :-nan: L2-HR :0.74926: (Sim:0h58m18s) 
CPU  0 inst:  214000004 cyc:  150979183 now IPC :1.41664: AVG IPC :1.41339: L2-Pf-HR :-nan: L2-HR :0.74917: (Sim:0h58m37s) 
CPU  0 inst:  215000004 cyc:  151685620 now IPC :1.41555: AVG IPC :1.41340: L2-Pf-HR :-nan: L2-HR :0.74909: (Sim:0h58m56s) 
CPU  0 inst:  216000001 cyc:  152439607 now IPC :1.32628: AVG IPC :1.41296: L2-Pf-HR :-nan: L2-HR :0.74898: (Sim:0h59m16s) 
CPU  0 inst:  217000000 cyc:  153175589 now IPC :1.35873: AVG IPC :1.41270: L2-Pf-HR :-nan: L2-HR :0.74892: (Sim:0h59m34s) 
CPU  0 inst:  218000005 cyc:  153864955 now IPC :1.45062: AVG IPC :1.41287: L2-Pf-HR :-nan: L2-HR :0.74890: (Sim:0h59m53s) 
CPU  0 inst:  219000002 cyc:  154555767 now IPC :1.44757: AVG IPC :1.41303: L2-Pf-HR :-nan: L2-HR :0.74889: (Sim:1h0m12s) 
CPU  0 inst:  220000000 cyc:  155244330 now IPC :1.45230: AVG IPC :1.41320: L2-Pf-HR :-nan: L2-HR :0.74887: (Sim:1h0m30s) 
CPU  0 inst:  221000000 cyc:  155932421 now IPC :1.45330: AVG IPC :1.41338: L2-Pf-HR :-nan: L2-HR :0.74884: (Sim:1h0m49s) 
CPU  0 inst:  222000003 cyc:  156649106 now IPC :1.39532: AVG IPC :1.41330: L2-Pf-HR :-nan: L2-HR :0.74880: (Sim:1h1m8s) 
CPU  0 inst:  223000000 cyc:  157370042 now IPC :1.38708: AVG IPC :1.41318: L2-Pf-HR :-nan: L2-HR :0.74898: (Sim:1h1m26s) 
CPU  0 inst:  224000000 cyc:  158057123 now IPC :1.45543: AVG IPC :1.41336: L2-Pf-HR :-nan: L2-HR :0.74921: (Sim:1h1m45s) 
CPU  0 inst:  225000005 cyc:  158744809 now IPC :1.45416: AVG IPC :1.41354: L2-Pf-HR :-nan: L2-HR :0.74944: (Sim:1h2m3s) 
CPU  0 inst:  226000002 cyc:  159449648 now IPC :1.41876: AVG IPC :1.41356: L2-Pf-HR :-nan: L2-HR :0.74965: (Sim:1h2m22s) 
CPU  0 inst:  227000001 cyc:  160238122 now IPC :1.26827: AVG IPC :1.41284: L2-Pf-HR :-nan: L2-HR :0.74941: (Sim:1h2m42s) 
CPU  0 inst:  228000002 cyc:  160959414 now IPC :1.38640: AVG IPC :1.41273: L2-Pf-HR :-nan: L2-HR :0.74933: (Sim:1h3m0s) 
CPU  0 inst:  229000002 cyc:  161681766 now IPC :1.38437: AVG IPC :1.41260: L2-Pf-HR :-nan: L2-HR :0.74926: (Sim:1h3m19s) 
CPU  0 inst:  230000002 cyc:  162400269 now IPC :1.39178: AVG IPC :1.41251: L2-Pf-HR :-nan: L2-HR :0.74918: (Sim:1h3m38s) 
CPU  0 inst:  231000002 cyc:  163123807 now IPC :1.38210: AVG IPC :1.41237: L2-Pf-HR :-nan: L2-HR :0.74910: (Sim:1h3m57s) 
CPU  0 inst:  232000003 cyc:  163849488 now IPC :1.37802: AVG IPC :1.41222: L2-Pf-HR :-nan: L2-HR :0.74902: (Sim:1h4m16s) 
CPU  0 inst:  233000004 cyc:  164634702 now IPC :1.27354: AVG IPC :1.41155: L2-Pf-HR :-nan: L2-HR :0.74894: (Sim:1h4m35s) 
CPU  0 inst:  234000004 cyc:  165327167 now IPC :1.44412: AVG IPC :1.41169: L2-Pf-HR :-nan: L2-HR :0.74892: (Sim:1h4m54s) 
CPU  0 inst:  235000003 cyc:  166020342 now IPC :1.44264: AVG IPC :1.41182: L2-Pf-HR :-nan: L2-HR :0.74891: (Sim:1h5m13s) 
CPU  0 inst:  236000000 cyc:  166712987 now IPC :1.44374: AVG IPC :1.41195: L2-Pf-HR :-nan: L2-HR :0.74889: (Sim:1h5m31s) 
CPU  0 inst:  237000000 cyc:  167405466 now IPC :1.44409: AVG IPC :1.41209: L2-Pf-HR :-nan: L2-HR :0.74886: (Sim:1h5m50s) 
CPU  0 inst:  238000004 cyc:  168096686 now IPC :1.44672: AVG IPC :1.41223: L2-Pf-HR :-nan: L2-HR :0.74883: (Sim:1h6m8s) 
CPU  0 inst:  239000001 cyc:  168840201 now IPC :1.34496: AVG IPC :1.41193: L2-Pf-HR :-nan: L2-HR :0.74895: (Sim:1h6m27s) 
CPU  0 inst:  240000000 cyc:  169518136 now IPC :1.47507: AVG IPC :1.41218: L2-Pf-HR :-nan: L2-HR :0.74917: (Sim:1h6m46s) 
CPU  0 inst:  241000002 cyc:  170197975 now IPC :1.47094: AVG IPC :1.41242: L2-Pf-HR :-nan: L2-HR :0.74938: (Sim:1h7m4s) 
CPU  0 inst:  242000003 cyc:  170877181 now IPC :1.47231: AVG IPC :1.41266: L2-Pf-HR :-nan: L2-HR :0.74960: (Sim:1h7m23s) 
CPU  0 inst:  243000001 cyc:  171675627 now IPC :1.25243: AVG IPC :1.41191: L2-Pf-HR :-nan: L2-HR :0.74943: (Sim:1h7m42s) 
CPU  0 inst:  244000004 cyc:  172391223 now IPC :1.39744: AVG IPC :1.41185: L2-Pf-HR :-nan: L2-HR :0.74936: (Sim:1h8m1s) 
CPU  0 inst:  245000000 cyc:  173100849 now IPC :1.40919: AVG IPC :1.41184: L2-Pf-HR :-nan: L2-HR :0.74929: (Sim:1h8m20s) 
CPU  0 inst:  246000003 cyc:  173813025 now IPC :1.40415: AVG IPC :1.41181: L2-Pf-HR :-nan: L2-HR :0.74922: (Sim:1h8m39s) 
CPU  0 inst:  247000000 cyc:  174530446 now IPC :1.39388: AVG IPC :1.41173: L2-Pf-HR :-nan: L2-HR :0.74914: (Sim:1h8m58s) 
CPU  0 inst:  248000002 cyc:  175241039 now IPC :1.40728: AVG IPC :1.41172: L2-Pf-HR :-nan: L2-HR :0.74907: (Sim:1h9m17s) 
CPU  0 inst:  249000002 cyc:  176030783 now IPC :1.26623: AVG IPC :1.41106: L2-Pf-HR :-nan: L2-HR :0.74899: (Sim:1h9m36s) 
CPU  0 inst:  250000002 cyc:  176720725 now IPC :1.44940: AVG IPC :1.41121: L2-Pf-HR :-nan: L2-HR :0.74897: (Sim:1h9m55s) 
CPU  0 inst:  251000002 cyc:  177408187 now IPC :1.45463: AVG IPC :1.41138: L2-Pf-HR :-nan: L2-HR :0.74896: (Sim:1h10m13s) 
CPU  0 inst:  252000001 cyc:  178095800 now IPC :1.45430: AVG IPC :1.41155: L2-Pf-HR :-nan: L2-HR :0.74894: (Sim:1h10m30s) 
CPU  0 inst:  253000001 cyc:  178784892 now IPC :1.45118: AVG IPC :1.41170: L2-Pf-HR :-nan: L2-HR :0.74892: (Sim:1h10m48s) 
CPU  0 inst:  254000002 cyc:  179472374 now IPC :1.45458: AVG IPC :1.41186: L2-Pf-HR :-nan: L2-HR :0.74889: (Sim:1h11m0s) 
CPU  0 inst:  255000004 cyc:  180220863 now IPC :1.33603: AVG IPC :1.41155: L2-Pf-HR :-nan: L2-HR :0.74898: (Sim:1h11m8s) 
CPU  0 inst:  256000001 cyc:  180908048 now IPC :1.45521: AVG IPC :1.41171: L2-Pf-HR :-nan: L2-HR :0.74917: (Sim:1h11m16s) 
CPU  0 inst:  257000003 cyc:  181595393 now IPC :1.45488: AVG IPC :1.41188: L2-Pf-HR :-nan: L2-HR :0.74937: (Sim:1h11m32s) 
CPU  0 inst:  258000005 cyc:  182281918 now IPC :1.45661: AVG IPC :1.41205: L2-Pf-HR :-nan: L2-HR :0.74958: (Sim:1h11m50s) 
CPU  0 inst:  259000002 cyc:  186396907 now IPC :0.24301: AVG IPC :1.38610: L2-Pf-HR :-nan: L2-HR :0.74386: (Sim:1h12m35s) 
CPU  0 inst:  260000002 cyc:  191875196 now IPC :0.18254: AVG IPC :1.35156: L2-Pf-HR :-nan: L2-HR :0.73618: (Sim:1h13m33s) 
CPU  0 inst:  261000004 cyc:  197351280 now IPC :0.18261: AVG IPC :1.31896: L2-Pf-HR :-nan: L2-HR :0.72898: (Sim:1h14m32s) 
CPU  0 inst:  262000003 cyc:  202826380 now IPC :0.18264: AVG IPC :1.28814: L2-Pf-HR :-nan: L2-HR :0.72220: (Sim:1h15m30s) 
CPU  0 inst:  263000005 cyc:  208303736 now IPC :0.18257: AVG IPC :1.25893: L2-Pf-HR :-nan: L2-HR :0.71581: (Sim:1h16m29s) 
CPU  0 inst:  264000001 cyc:  213780936 now IPC :0.18257: AVG IPC :1.23123: L2-Pf-HR :-nan: L2-HR :0.70978: (Sim:1h17m27s) 
CPU  0 inst:  265000003 cyc:  219258715 now IPC :0.18256: AVG IPC :1.20491: L2-Pf-HR :-nan: L2-HR :0.70407: (Sim:1h18m26s) 
CPU  0 inst:  266000004 cyc:  224737104 now IPC :0.18254: AVG IPC :1.17988: L2-Pf-HR :-nan: L2-HR :0.69867: (Sim:1h19m24s) 
CPU  0 inst:  267000001 cyc:  230216975 now IPC :0.18249: AVG IPC :1.15603: L2-Pf-HR :-nan: L2-HR :0.69355: (Sim:1h20m23s) 
CPU  0 inst:  268000000 cyc:  235648033 now IPC :0.18413: AVG IPC :1.13354: L2-Pf-HR :-nan: L2-HR :0.68958: (Sim:1h21m17s) 
CPU  0 inst:  269000000 cyc:  241357571 now IPC :0.17515: AVG IPC :1.11078: L2-Pf-HR :-nan: L2-HR :0.68858: (Sim:1h22m3s) 
CPU  0 inst:  270000000 cyc:  247066908 now IPC :0.17515: AVG IPC :1.08907: L2-Pf-HR :-nan: L2-HR :0.68758: (Sim:1h22m50s) 
CPU  0 inst:  271000000 cyc:  252593493 now IPC :0.18094: AVG IPC :1.06912: L2-Pf-HR :-nan: L2-HR :0.68659: (Sim:1h23m35s) 
CPU  0 inst:  272000004 cyc:  257938474 now IPC :0.18709: AVG IPC :1.05077: L2-Pf-HR :-nan: L2-HR :0.68561: (Sim:1h24m20s) 
CPU  0 inst:  273000000 cyc:  263321493 now IPC :0.18577: AVG IPC :1.03302: L2-Pf-HR :-nan: L2-HR :0.68463: (Sim:1h25m5s) 
CPU  0 inst:  274000002 cyc:  268736750 now IPC :0.18466: AVG IPC :1.01587: L2-Pf-HR :-nan: L2-HR :0.68366: (Sim:1h25m50s) 
CPU  0 inst:  275000001 cyc:  274166597 now IPC :0.18417: AVG IPC :0.99934: L2-Pf-HR :-nan: L2-HR :0.68269: (Sim:1h26m36s) 
CPU  0 inst:  276000004 cyc:  279448754 now IPC :0.18932: AVG IPC :0.98397: L2-Pf-HR :-nan: L2-HR :0.68173: (Sim:1h27m20s) 
CPU  0 inst:  277000000 cyc:  284882183 now IPC :0.18405: AVG IPC :0.96866: L2-Pf-HR :-nan: L2-HR :0.68077: (Sim:1h28m5s) 
CPU  0 inst:  278000000 cyc:  290189209 now IPC :0.18843: AVG IPC :0.95434: L2-Pf-HR :-nan: L2-HR :0.67982: (Sim:1h28m50s) 
CPU  0 inst:  279000000 cyc:  295568856 now IPC :0.18589: AVG IPC :0.94031: L2-Pf-HR :-nan: L2-HR :0.67888: (Sim:1h29m35s) 
CPU  0 inst:  280000000 cyc:  300904824 now IPC :0.18741: AVG IPC :0.92691: L2-Pf-HR :-nan: L2-HR :0.67794: (Sim:1h30m20s) 
CPU  0 inst:  281000002 cyc:  306263118 now IPC :0.18663: AVG IPC :0.91392: L2-Pf-HR :-nan: L2-HR :0.67700: (Sim:1h31m5s) 
CPU  0 inst:  282000000 cyc:  311721806 now IPC :0.18319: AVG IPC :0.90108: L2-Pf-HR :-nan: L2-HR :0.67607: (Sim:1h31m50s) 
CPU  0 inst:  283000000 cyc:  317020246 now IPC :0.18873: AVG IPC :0.88914: L2-Pf-HR :-nan: L2-HR :0.67515: (Sim:1h32m35s) 
CPU  0 inst:  284000000 cyc:  322208105 now IPC :0.19276: AVG IPC :0.87789: L2-Pf-HR :-nan: L2-HR :0.67422: (Sim:1h33m19s) 
CPU  0 inst:  285000000 cyc:  327526182 now IPC :0.18804: AVG IPC :0.86666: L2-Pf-HR :-nan: L2-HR :0.67331: (Sim:1h34m4s) 
CPU  0 inst:  286000000 cyc:  332910388 now IPC :0.18573: AVG IPC :0.85561: L2-Pf-HR :-nan: L2-HR :0.67240: (Sim:1h34m49s) 
CPU  0 inst:  287000000 cyc:  338339116 now IPC :0.18421: AVG IPC :0.84481: L2-Pf-HR :-nan: L2-HR :0.67149: (Sim:1h35m34s) 
CPU  0 inst:  288000000 cyc:  343777258 now IPC :0.18389: AVG IPC :0.83432: L2-Pf-HR :-nan: L2-HR :0.67059: (Sim:1h36m20s) 
CPU  0 inst:  289000001 cyc:  349135546 now IPC :0.18663: AVG IPC :0.82436: L2-Pf-HR :-nan: L2-HR :0.66970: (Sim:1h37m5s) 
CPU  0 inst:  290000001 cyc:  354633093 now IPC :0.18190: AVG IPC :0.81437: L2-Pf-HR :-nan: L2-HR :0.66880: (Sim:1h37m50s) 
CPU  0 inst:  291000000 cyc:  359995972 now IPC :0.18647: AVG IPC :0.80499: L2-Pf-HR :-nan: L2-HR :0.66792: (Sim:1h38m35s) 
CPU  0 inst:  292000000 cyc:  365376367 now IPC :0.18586: AVG IPC :0.79585: L2-Pf-HR :-nan: L2-HR :0.66703: (Sim:1h39m20s) 
CPU  0 inst:  293000004 cyc:  370715663 now IPC :0.18729: AVG IPC :0.78706: L2-Pf-HR :-nan: L2-HR :0.66616: (Sim:1h40m5s) 
CPU  0 inst:  294000000 cyc:  376095005 now IPC :0.18590: AVG IPC :0.77844: L2-Pf-HR :-nan: L2-HR :0.66528: (Sim:1h40m50s) 
CPU  0 inst:  295000000 cyc:  381307685 now IPC :0.19184: AVG IPC :0.77040: L2-Pf-HR :-nan: L2-HR :0.66442: (Sim:1h41m34s) 
CPU  0 inst:  296000001 cyc:  386615101 now IPC :0.18842: AVG IPC :0.76239: L2-Pf-HR :-nan: L2-HR :0.66355: (Sim:1h42m19s) 
CPU  0 inst:  297000001 cyc:  391927954 now IPC :0.18822: AVG IPC :0.75459: L2-Pf-HR :-nan: L2-HR :0.66269: (Sim:1h43m4s) 
CPU  0 inst:  298000000 cyc:  397143153 now IPC :0.19175: AVG IPC :0.74718: L2-Pf-HR :-nan: L2-HR :0.66184: (Sim:1h43m48s) 
CPU  0 inst:  299000000 cyc:  402444947 now IPC :0.18862: AVG IPC :0.73980: L2-Pf-HR :-nan: L2-HR :0.66099: (Sim:1h44m33s) 
CPU  0 inst:  300000000 cyc:  407807121 now IPC :0.18649: AVG IPC :0.73251: L2-Pf-HR :-nan: L2-HR :0.66014: (Sim:1h45m18s) 
CPU  0 inst:  301000000 cyc:  413126226 now IPC :0.18800: AVG IPC :0.72548: L2-Pf-HR :-nan: L2-HR :0.65930: (Sim:1h46m3s) 
CPU  0 inst:  302000000 cyc:  418509936 now IPC :0.18575: AVG IPC :0.71852: L2-Pf-HR :-nan: L2-HR :0.65846: (Sim:1h46m48s) 
CPU  0 inst:  303000003 cyc:  423850795 now IPC :0.18724: AVG IPC :0.71181: L2-Pf-HR :-nan: L2-HR :0.65763: (Sim:1h47m33s) 
CPU  0 inst:  304000001 cyc:  429169464 now IPC :0.18802: AVG IPC :0.70530: L2-Pf-HR :-nan: L2-HR :0.65680: (Sim:1h48m18s) 
CPU  0 inst:  305000005 cyc:  434606157 now IPC :0.18394: AVG IPC :0.69877: L2-Pf-HR :-nan: L2-HR :0.65598: (Sim:1h49m3s) 
CPU  0 inst:  306000000 cyc:  439957802 now IPC :0.18686: AVG IPC :0.69253: L2-Pf-HR :-nan: L2-HR :0.65516: (Sim:1h49m48s) 
CPU  0 inst:  307000000 cyc:  445221307 now IPC :0.18999: AVG IPC :0.68657: L2-Pf-HR :-nan: L2-HR :0.65434: (Sim:1h50m32s) 
CPU  0 inst:  308000000 cyc:  450538873 now IPC :0.18806: AVG IPC :0.68067: L2-Pf-HR :-nan: L2-HR :0.65353: (Sim:1h51m17s) 
CPU  0 inst:  309000000 cyc:  455850578 now IPC :0.18826: AVG IPC :0.67492: L2-Pf-HR :-nan: L2-HR :0.65272: (Sim:1h52m1s) 
CPU  0 inst:  310000004 cyc:  461180585 now IPC :0.18762: AVG IPC :0.66928: L2-Pf-HR :-nan: L2-HR :0.65192: (Sim:1h52m46s) 
CPU  0 inst:  311000000 cyc:  466518461 now IPC :0.18734: AVG IPC :0.66375: L2-Pf-HR :-nan: L2-HR :0.65112: (Sim:1h53m31s) 
CPU  0 inst:  312000001 cyc:  471856598 now IPC :0.18733: AVG IPC :0.65835: L2-Pf-HR :-nan: L2-HR :0.65032: (Sim:1h54m16s) 
CPU  0 inst:  313000000 cyc:  477047755 now IPC :0.19264: AVG IPC :0.65328: L2-Pf-HR :-nan: L2-HR :0.64953: (Sim:1h54m41s) 
CPU  0 inst:  314000004 cyc:  482343417 now IPC :0.18883: AVG IPC :0.64817: L2-Pf-HR :-nan: L2-HR :0.64874: (Sim:1h55m1s) 
CPU  0 inst:  315000000 cyc:  487711537 now IPC :0.18628: AVG IPC :0.64307: L2-Pf-HR :-nan: L2-HR :0.64796: (Sim:1h55m20s) 
CPU  0 inst:  316000000 cyc:  493045417 now IPC :0.18748: AVG IPC :0.63813: L2-Pf-HR :-nan: L2-HR :0.64718: (Sim:1h55m39s) 
CPU  0 inst:  317000000 cyc:  498435784 now IPC :0.18552: AVG IPC :0.63323: L2-Pf-HR :-nan: L2-HR :0.64640: (Sim:1h55m59s) 
CPU  0 inst:  318000005 cyc:  503842999 now IPC :0.18494: AVG IPC :0.62841: L2-Pf-HR :-nan: L2-HR :0.64563: (Sim:1h56m18s) 
CPU  0 inst:  319000000 cyc:  509296547 now IPC :0.18337: AVG IPC :0.62363: L2-Pf-HR :-nan: L2-HR :0.64486: (Sim:1h56m38s) 
CPU  0 inst:  320000000 cyc:  514551672 now IPC :0.19029: AVG IPC :0.61920: L2-Pf-HR :-nan: L2-HR :0.64410: (Sim:1h56m57s) 
CPU  0 inst:  321000000 cyc:  519891164 now IPC :0.18728: AVG IPC :0.61475: L2-Pf-HR :-nan: L2-HR :0.64333: (Sim:1h57m16s) 
CPU  0 inst:  322000000 cyc:  525286228 now IPC :0.18535: AVG IPC :0.61034: L2-Pf-HR :-nan: L2-HR :0.64258: (Sim:1h57m36s) 
CPU  0 inst:  323000000 cyc:  530560107 now IPC :0.18961: AVG IPC :0.60615: L2-Pf-HR :-nan: L2-HR :0.64182: (Sim:1h57m55s) 
CPU  0 inst:  324000000 cyc:  535944146 now IPC :0.18573: AVG IPC :0.60192: L2-Pf-HR :-nan: L2-HR :0.64107: (Sim:1h58m14s) 
CPU  0 inst:  325000000 cyc:  541275822 now IPC :0.18756: AVG IPC :0.59783: L2-Pf-HR :-nan: L2-HR :0.64033: (Sim:1h58m34s) 
CPU  0 inst:  326000002 cyc:  546600890 now IPC :0.18779: AVG IPC :0.59382: L2-Pf-HR :-nan: L2-HR :0.63958: (Sim:1h58m54s) 
CPU  0 inst:  327000001 cyc:  551927624 now IPC :0.18773: AVG IPC :0.58990: L2-Pf-HR :-nan: L2-HR :0.63885: (Sim:1h59m13s) 
CPU  0 inst:  328000000 cyc:  557389951 now IPC :0.18307: AVG IPC :0.58590: L2-Pf-HR :-nan: L2-HR :0.63811: (Sim:1h59m34s) 
CPU  0 inst:  329000000 cyc:  562714995 now IPC :0.18779: AVG IPC :0.58213: L2-Pf-HR :-nan: L2-HR :0.63738: (Sim:2h0m1s) 
CPU  0 inst:  330000000 cyc:  568044405 now IPC :0.18764: AVG IPC :0.57842: L2-Pf-HR :-nan: L2-HR :0.63665: (Sim:2h0m46s) 
CPU  0 inst:  331000004 cyc:  573357408 now IPC :0.18822: AVG IPC :0.57480: L2-Pf-HR :-nan: L2-HR :0.63592: (Sim:2h1m30s) 
CPU  0 inst:  332000000 cyc:  578718729 now IPC :0.18652: AVG IPC :0.57120: L2-Pf-HR :-nan: L2-HR :0.63520: (Sim:2h2m15s) 
CPU  0 inst:  333000002 cyc:  584053864 now IPC :0.18744: AVG IPC :0.56769: L2-Pf-HR :-nan: L2-HR :0.63448: (Sim:2h2m59s) 
CPU  0 inst:  334000000 cyc:  589319603 now IPC :0.18991: AVG IPC :0.56430: L2-Pf-HR :-nan: L2-HR :0.63377: (Sim:2h3m44s) 
CPU  0 inst:  335000004 cyc:  594595840 now IPC :0.18953: AVG IPC :0.56097: L2-Pf-HR :-nan: L2-HR :0.63306: (Sim:2h4m28s) 
CPU  0 inst:  336000000 cyc:  600009145 now IPC :0.18473: AVG IPC :0.55757: L2-Pf-HR :-nan: L2-HR :0.63235: (Sim:2h5m13s) 
CPU  0 inst:  337000000 cyc:  605327382 now IPC :0.18803: AVG IPC :0.55432: L2-Pf-HR :-nan: L2-HR :0.63164: (Sim:2h5m58s) 
CPU  0 inst:  338000000 cyc:  610657619 now IPC :0.18761: AVG IPC :0.55112: L2-Pf-HR :-nan: L2-HR :0.63094: (Sim:2h6m43s) 
CPU  0 inst:  339000000 cyc:  615898275 now IPC :0.19082: AVG IPC :0.54804: L2-Pf-HR :-nan: L2-HR :0.63024: (Sim:2h7m27s) 
CPU  0 inst:  340000000 cyc:  621212062 now IPC :0.18819: AVG IPC :0.54496: L2-Pf-HR :-nan: L2-HR :0.62955: (Sim:2h8m12s) 
CPU  0 inst:  341000001 cyc:  626518330 now IPC :0.18846: AVG IPC :0.54194: L2-Pf-HR :-nan: L2-HR :0.62886: (Sim:2h8m56s) 
CPU  0 inst:  342000001 cyc:  631792545 now IPC :0.18960: AVG IPC :0.53899: L2-Pf-HR :-nan: L2-HR :0.62817: (Sim:2h9m41s) 
CPU  0 inst:  343000000 cyc:  637145059 now IPC :0.18683: AVG IPC :0.53603: L2-Pf-HR :-nan: L2-HR :0.62749: (Sim:2h10m25s) 
CPU  0 inst:  344000000 cyc:  642646055 now IPC :0.18179: AVG IPC :0.53299: L2-Pf-HR :-nan: L2-HR :0.62680: (Sim:2h11m11s) 
CPU  0 inst:  345000000 cyc:  647950089 now IPC :0.18854: AVG IPC :0.53017: L2-Pf-HR :-nan: L2-HR :0.62612: (Sim:2h11m55s) 
CPU  0 inst:  346000000 cyc:  653330016 now IPC :0.18588: AVG IPC :0.52733: L2-Pf-HR :-nan: L2-HR :0.62545: (Sim:2h12m40s) 
CPU  0 inst:  347000000 cyc:  658720265 now IPC :0.18552: AVG IPC :0.52453: L2-Pf-HR :-nan: L2-HR :0.62477: (Sim:2h13m25s) 
CPU  0 inst:  348000001 cyc:  664027823 now IPC :0.18841: AVG IPC :0.52184: L2-Pf-HR :-nan: L2-HR :0.62411: (Sim:2h14m10s) 
CPU  0 inst:  349000001 cyc:  669461107 now IPC :0.18405: AVG IPC :0.51909: L2-Pf-HR :-nan: L2-HR :0.62344: (Sim:2h14m55s) 
CPU  0 inst:  350000000 cyc:  674891666 now IPC :0.18414: AVG IPC :0.51639: L2-Pf-HR :-nan: L2-HR :0.62278: (Sim:2h15m40s) 
CPU  0 inst:  351000000 cyc:  680414510 now IPC :0.18107: AVG IPC :0.51367: L2-Pf-HR :-nan: L2-HR :0.62212: (Sim:2h16m25s) 
CPU  0 inst:  352000004 cyc:  685853468 now IPC :0.18386: AVG IPC :0.51105: L2-Pf-HR :-nan: L2-HR :0.62146: (Sim:2h17m10s) 
CPU  0 inst:  353000000 cyc:  691154691 now IPC :0.18863: AVG IPC :0.50857: L2-Pf-HR :-nan: L2-HR :0.62080: (Sim:2h17m55s) 
CPU  0 inst:  354000000 cyc:  696451889 now IPC :0.18878: AVG IPC :0.50613: L2-Pf-HR :-nan: L2-HR :0.62015: (Sim:2h18m39s) 
CPU  0 inst:  355000003 cyc:  701742291 now IPC :0.18902: AVG IPC :0.50374: L2-Pf-HR :-nan: L2-HR :0.61950: (Sim:2h19m24s) 
CPU  0 inst:  356000000 cyc:  707054089 now IPC :0.18826: AVG IPC :0.50137: L2-Pf-HR :-nan: L2-HR :0.61886: (Sim:2h20m8s) 
CPU  0 inst:  357000001 cyc:  712493422 now IPC :0.18385: AVG IPC :0.49894: L2-Pf-HR :-nan: L2-HR :0.61822: (Sim:2h20m53s) 
CPU  0 inst:  358000000 cyc:  717887402 now IPC :0.18539: AVG IPC :0.49658: L2-Pf-HR :-nan: L2-HR :0.61758: (Sim:2h21m38s) 
CPU  0 inst:  359000000 cyc:  723271186 now IPC :0.18574: AVG IPC :0.49426: L2-Pf-HR :-nan: L2-HR :0.61694: (Sim:2h22m23s) 
CPU  0 inst:  360000000 cyc:  728677783 now IPC :0.18496: AVG IPC :0.49197: L2-Pf-HR :-nan: L2-HR :0.61631: (Sim:2h23m8s) 
CPU  0 inst:  361000000 cyc:  733979357 now IPC :0.18862: AVG IPC :0.48977: L2-Pf-HR :-nan: L2-HR :0.61567: (Sim:2h23m53s) 
CPU  0 inst:  362000000 cyc:  739386348 now IPC :0.18495: AVG IPC :0.48754: L2-Pf-HR :-nan: L2-HR :0.61505: (Sim:2h24m38s) 
CPU  0 inst:  363000000 cyc:  744824967 now IPC :0.18387: AVG IPC :0.48532: L2-Pf-HR :-nan: L2-HR :0.61442: (Sim:2h25m23s) 
CPU  0 inst:  364000001 cyc:  750161200 now IPC :0.18740: AVG IPC :0.48320: L2-Pf-HR :-nan: L2-HR :0.61380: (Sim:2h26m7s) 
CPU  0 inst:  365000000 cyc:  755646680 now IPC :0.18230: AVG IPC :0.48101: L2-Pf-HR :-nan: L2-HR :0.61318: (Sim:2h26m53s) 
CPU  0 inst:  366000000 cyc:  760930749 now IPC :0.18925: AVG IPC :0.47898: L2-Pf-HR :-nan: L2-HR :0.61256: (Sim:2h27m37s) 
CPU  0 inst:  367000000 cyc:  766210256 now IPC :0.18941: AVG IPC :0.47698: L2-Pf-HR :-nan: L2-HR :0.61195: (Sim:2h28m22s) 
CPU  0 inst:  368000000 cyc:  771649862 now IPC :0.18384: AVG IPC :0.47491: L2-Pf-HR :-nan: L2-HR :0.61133: (Sim:2h29m7s) 
CPU  0 inst:  369000004 cyc:  776935224 now IPC :0.18920: AVG IPC :0.47297: L2-Pf-HR :-nan: L2-HR :0.61072: (Sim:2h29m45s) 
CPU  0 inst:  370000000 cyc:  782313294 now IPC :0.18594: AVG IPC :0.47099: L2-Pf-HR :-nan: L2-HR :0.61012: (Sim:2h30m27s) 
CPU  0 inst:  371000002 cyc:  787575500 now IPC :0.19003: AVG IPC :0.46911: L2-Pf-HR :-nan: L2-HR :0.60951: (Sim:2h31m8s) 
CPU  0 inst:  372000001 cyc:  792868399 now IPC :0.18893: AVG IPC :0.46724: L2-Pf-HR :-nan: L2-HR :0.60891: (Sim:2h31m49s) 
CPU  0 inst:  373000004 cyc:  798248297 now IPC :0.18588: AVG IPC :0.46534: L2-Pf-HR :-nan: L2-HR :0.60831: (Sim:2h32m31s) 
CPU  0 inst:  374000000 cyc:  803612418 now IPC :0.18642: AVG IPC :0.46348: L2-Pf-HR :-nan: L2-HR :0.60772: (Sim:2h33m13s) 
CPU  0 inst:  375000000 cyc:  808985731 now IPC :0.18610: AVG IPC :0.46163: L2-Pf-HR :-nan: L2-HR :0.60712: (Sim:2h33m55s) 
CPU  0 inst:  376000000 cyc:  814253393 now IPC :0.18984: AVG IPC :0.45987: L2-Pf-HR :-nan: L2-HR :0.60653: (Sim:2h34m37s) 
CPU  0 inst:  377000000 cyc:  819554990 now IPC :0.18862: AVG IPC :0.45812: L2-Pf-HR :-nan: L2-HR :0.60594: (Sim:2h35m19s) 
CPU  0 inst:  378000002 cyc:  824985773 now IPC :0.18414: AVG IPC :0.45631: L2-Pf-HR :-nan: L2-HR :0.60536: (Sim:2h36m1s) 
CPU  0 inst:  379000000 cyc:  830378160 now IPC :0.18545: AVG IPC :0.45455: L2-Pf-HR :-nan: L2-HR :0.60478: (Sim:2h36m43s) 
CPU  0 inst:  380000000 cyc:  835671943 now IPC :0.18890: AVG IPC :0.45286: L2-Pf-HR :-nan: L2-HR :0.60420: (Sim:2h37m25s) 
CPU  0 inst:  381000000 cyc:  840986496 now IPC :0.18816: AVG IPC :0.45119: L2-Pf-HR :-nan: L2-HR :0.60362: (Sim:2h38m6s) 
CPU  0 inst:  382000000 cyc:  846360575 now IPC :0.18608: AVG IPC :0.44950: L2-Pf-HR :-nan: L2-HR :0.60304: (Sim:2h38m48s) 
CPU  0 inst:  383000000 cyc:  851741207 now IPC :0.18585: AVG IPC :0.44784: L2-Pf-HR :-nan: L2-HR :0.60247: (Sim:2h39m30s) 
CPU  0 inst:  384000000 cyc:  857049005 now IPC :0.18840: AVG IPC :0.44623: L2-Pf-HR :-nan: L2-HR :0.60190: (Sim:2h40m12s) 
CPU  0 inst:  385000000 cyc:  862449518 now IPC :0.18517: AVG IPC :0.44459: L2-Pf-HR :-nan: L2-HR :0.60133: (Sim:2h40m54s) 
CPU  0 inst:  386000001 cyc:  867769979 now IPC :0.18795: AVG IPC :0.44302: L2-Pf-HR :-nan: L2-HR :0.60076: (Sim:2h41m36s) 
CPU  0 inst:  387000001 cyc:  873136067 now IPC :0.18636: AVG IPC :0.44144: L2-Pf-HR :-nan: L2-HR :0.60020: (Sim:2h42m18s) 
CPU  0 inst:  388000000 cyc:  878514756 now IPC :0.18592: AVG IPC :0.43987: L2-Pf-HR :-nan: L2-HR :0.59964: (Sim:2h43m0s) 
CPU  0 inst:  389000000 cyc:  883916234 now IPC :0.18513: AVG IPC :0.43831: L2-Pf-HR :-nan: L2-HR :0.59908: (Sim:2h43m42s) 
CPU  0 inst:  390000004 cyc:  889305232 now IPC :0.18556: AVG IPC :0.43678: L2-Pf-HR :-nan: L2-HR :0.59852: (Sim:2h44m24s) 
CPU  0 inst:  391000000 cyc:  894695139 now IPC :0.18553: AVG IPC :0.43526: L2-Pf-HR :-nan: L2-HR :0.59797: (Sim:2h45m6s) 
CPU  0 inst:  392000000 cyc:  899793191 now IPC :0.19615: AVG IPC :0.43391: L2-Pf-HR :-nan: L2-HR :0.59741: (Sim:2h45m47s) 
CPU  0 inst:  393000001 cyc:  905059005 now IPC :0.18990: AVG IPC :0.43249: L2-Pf-HR :-nan: L2-HR :0.59686: (Sim:2h46m29s) 
CPU  0 inst:  394000001 cyc:  910319056 now IPC :0.19011: AVG IPC :0.43108: L2-Pf-HR :-nan: L2-HR :0.59632: (Sim:2h47m10s) 
CPU  0 inst:  395000000 cyc:  915569463 now IPC :0.19046: AVG IPC :0.42970: L2-Pf-HR :-nan: L2-HR :0.59574: (Sim:2h47m32s) 
CPU  0 inst:  396000004 cyc:  916332202 now IPC :1.31107: AVG IPC :0.43044: L2-Pf-HR :-nan: L2-HR :0.59755: (Sim:2h47m42s) 
CPU  0 inst:  397000000 cyc:  917062761 now IPC :1.36881: AVG IPC :0.43119: L2-Pf-HR :-nan: L2-HR :0.59938: (Sim:2h47m51s) 
CPU  0 inst:  398000002 cyc:  917789300 now IPC :1.37639: AVG IPC :0.43194: L2-Pf-HR :-nan: L2-HR :0.60119: (Sim:2h48m4s) 
CPU  0 inst:  399000000 cyc:  918524356 now IPC :1.36044: AVG IPC :0.43268: L2-Pf-HR :-nan: L2-HR :0.60295: (Sim:2h48m22s) 
CPU  0 inst:  400000005 cyc:  919253025 now IPC :1.37237: AVG IPC :0.43342: L2-Pf-HR :-nan: L2-HR :0.60469: (Sim:2h48m44s) 
CPU  0 inst:  401000000 cyc:  919937714 now IPC :1.46051: AVG IPC :0.43419: L2-Pf-HR :-nan: L2-HR :0.60648: (Sim:2h49m6s) 
CPU  0 inst:  402000001 cyc:  920617523 now IPC :1.47100: AVG IPC :0.43496: L2-Pf-HR :-nan: L2-HR :0.60824: (Sim:2h49m27s) 
CPU  0 inst:  403000002 cyc:  921290891 now IPC :1.48507: AVG IPC :0.43572: L2-Pf-HR :-nan: L2-HR :0.60999: (Sim:2h49m47s) 
CPU  0 inst:  404000001 cyc:  922019422 now IPC :1.37262: AVG IPC :0.43647: L2-Pf-HR :-nan: L2-HR :0.61164: (Sim:2h50m8s) 
CPU  0 inst:  405000000 cyc:  922705196 now IPC :1.45820: AVG IPC :0.43723: L2-Pf-HR :-nan: L2-HR :0.61335: (Sim:2h50m30s) 
CPU  0 inst:  406000002 cyc:  923385631 now IPC :1.46965: AVG IPC :0.43799: L2-Pf-HR :-nan: L2-HR :0.61504: (Sim:2h50m51s) 
CPU  0 inst:  407000001 cyc:  924061025 now IPC :1.48062: AVG IPC :0.43875: L2-Pf-HR :-nan: L2-HR :0.61672: (Sim:2h51m12s) 
CPU  0 inst:  408000005 cyc:  924780387 now IPC :1.39013: AVG IPC :0.43949: L2-Pf-HR :-nan: L2-HR :0.61829: (Sim:2h51m33s) 
CPU  0 inst:  409000003 cyc:  925466871 now IPC :1.45670: AVG IPC :0.44025: L2-Pf-HR :-nan: L2-HR :0.61993: (Sim:2h51m54s) 
CPU  0 inst:  410000004 cyc:  926144037 now IPC :1.47674: AVG IPC :0.44101: L2-Pf-HR :-nan: L2-HR :0.62156: (Sim:2h52m15s) 
CPU  0 inst:  411000003 cyc:  926821326 now IPC :1.47647: AVG IPC :0.44176: L2-Pf-HR :-nan: L2-HR :0.62316: (Sim:2h52m37s) 
CPU  0 inst:  412000004 cyc:  927541750 now IPC :1.38807: AVG IPC :0.44250: L2-Pf-HR :-nan: L2-HR :0.62465: (Sim:2h52m58s) 
CPU  0 inst:  413000002 cyc:  928241017 now IPC :1.43007: AVG IPC :0.44324: L2-Pf-HR :-nan: L2-HR :0.62620: (Sim:2h53m18s) 
CPU  0 inst:  414000000 cyc:  928940628 now IPC :1.42936: AVG IPC :0.44399: L2-Pf-HR :-nan: L2-HR :0.62772: (Sim:2h53m38s) 
CPU  0 inst:  415000004 cyc:  929666934 now IPC :1.37684: AVG IPC :0.44472: L2-Pf-HR :-nan: L2-HR :0.62921: (Sim:2h54m0s) 
CPU  0 inst:  416000004 cyc:  930397482 now IPC :1.36884: AVG IPC :0.44544: L2-Pf-HR :-nan: L2-HR :0.63065: (Sim:2h54m22s) 
CPU  0 inst:  417000002 cyc:  931061703 now IPC :1.50552: AVG IPC :0.44620: L2-Pf-HR :-nan: L2-HR :0.63217: (Sim:2h54m43s) 
CPU  0 inst:  418000005 cyc:  931735337 now IPC :1.48449: AVG IPC :0.44695: L2-Pf-HR :-nan: L2-HR :0.63364: (Sim:2h55m3s) 
CPU  0 inst:  419000002 cyc:  932426877 now IPC :1.44604: AVG IPC :0.44769: L2-Pf-HR :-nan: L2-HR :0.63509: (Sim:2h55m19s) 
CPU  0 inst:  420000005 cyc:  933099772 now IPC :1.48612: AVG IPC :0.44844: L2-Pf-HR :-nan: L2-HR :0.63659: (Sim:2h55m29s) 
CPU  0 inst:  421000000 cyc:  933792457 now IPC :1.44365: AVG IPC :0.44918: L2-Pf-HR :-nan: L2-HR :0.63798: (Sim:2h55m39s) 
CPU  0 inst:  422000005 cyc:  934467088 now IPC :1.48230: AVG IPC :0.44993: L2-Pf-HR :-nan: L2-HR :0.63939: (Sim:2h55m49s) 
CPU  0 inst:  423000004 cyc:  935152830 now IPC :1.45827: AVG IPC :0.45067: L2-Pf-HR :-nan: L2-HR :0.64080: (Sim:2h56m1s) 
CPU  0 inst:  424000003 cyc:  935843973 now IPC :1.44688: AVG IPC :0.45140: L2-Pf-HR :-nan: L2-HR :0.64220: (Sim:2h56m10s) 
CPU  0 inst:  425000002 cyc:  936524022 now IPC :1.47048: AVG IPC :0.45215: L2-Pf-HR :-nan: L2-HR :0.64357: (Sim:2h56m20s) 
CPU  0 inst:  426000005 cyc:  937200373 now IPC :1.47853: AVG IPC :0.45289: L2-Pf-HR :-nan: L2-HR :0.64493: (Sim:2h56m31s) 
CPU  0 inst:  427000000 cyc:  937867268 now IPC :1.49948: AVG IPC :0.45363: L2-Pf-HR :-nan: L2-HR :0.64630: (Sim:2h56m52s) 
CPU  0 inst:  428000000 cyc:  938545462 now IPC :1.47450: AVG IPC :0.45437: L2-Pf-HR :-nan: L2-HR :0.64767: (Sim:2h57m12s) 
CPU  0 inst:  429000001 cyc:  939273767 now IPC :1.37305: AVG IPC :0.45508: L2-Pf-HR :-nan: L2-HR :0.64891: (Sim:2h57m34s) 
CPU  0 inst:  430000000 cyc:  939975753 now IPC :1.42453: AVG IPC :0.45581: L2-Pf-HR :-nan: L2-HR :0.65021: (Sim:2h57m55s) 
CPU  0 inst:  431000000 cyc:  940683362 now IPC :1.41321: AVG IPC :0.45653: L2-Pf-HR :-nan: L2-HR :0.65151: (Sim:2h58m17s) 
CPU  0 inst:  432000001 cyc:  941386308 now IPC :1.42259: AVG IPC :0.45725: L2-Pf-HR :-nan: L2-HR :0.65279: (Sim:2h58m37s) 
CPU  0 inst:  433000003 cyc:  942106223 now IPC :1.38906: AVG IPC :0.45796: L2-Pf-HR :-nan: L2-HR :0.65399: (Sim:2h58m58s) 
CPU  0 inst:  434000002 cyc:  942768281 now IPC :1.51044: AVG IPC :0.45870: L2-Pf-HR :-nan: L2-HR :0.65528: (Sim:2h59m8s) 
CPU  0 inst:  435000000 cyc:  943433943 now IPC :1.50226: AVG IPC :0.45944: L2-Pf-HR :-nan: L2-HR :0.65655: (Sim:2h59m17s) 
CPU  0 inst:  436000002 cyc:  944103189 now IPC :1.49422: AVG IPC :0.46018: L2-Pf-HR :-nan: L2-HR :0.65781: (Sim:2h59m32s) 
CPU  0 inst:  437000002 cyc:  944804933 now IPC :1.42502: AVG IPC :0.46089: L2-Pf-HR :-nan: L2-HR :0.65899: (Sim:2h59m54s) 
CPU  0 inst:  438000004 cyc:  945467450 now IPC :1.50940: AVG IPC :0.46163: L2-Pf-HR :-nan: L2-HR :0.66024: (Sim:3h0m16s) 
CPU  0 inst:  439000003 cyc:  946130448 now IPC :1.50830: AVG IPC :0.46236: L2-Pf-HR :-nan: L2-HR :0.66146: (Sim:3h0m37s) 
CPU  0 inst:  440000003 cyc:  946802824 now IPC :1.48726: AVG IPC :0.46309: L2-Pf-HR :-nan: L2-HR :0.66268: (Sim:3h0m59s) 
CPU  0 inst:  441000002 cyc:  947498745 now IPC :1.43694: AVG IPC :0.46381: L2-Pf-HR :-nan: L2-HR :0.66383: (Sim:3h1m19s) 
CPU  0 inst:  442000000 cyc:  948167874 now IPC :1.49448: AVG IPC :0.46454: L2-Pf-HR :-nan: L2-HR :0.66502: (Sim:3h1m39s) 
CPU  0 inst:  443000001 cyc:  948830680 now IPC :1.50874: AVG IPC :0.46527: L2-Pf-HR :-nan: L2-HR :0.66620: (Sim:3h2m1s) 
CPU  0 inst:  444000005 cyc:  949497165 now IPC :1.50041: AVG IPC :0.46599: L2-Pf-HR :-nan: L2-HR :0.66737: (Sim:3h2m22s) 
CPU  0 inst:  445000001 cyc:  950176668 now IPC :1.47166: AVG IPC :0.46671: L2-Pf-HR :-nan: L2-HR :0.66852: (Sim:3h2m44s) 
CPU  0 inst:  446000003 cyc:  950902245 now IPC :1.37822: AVG IPC :0.46741: L2-Pf-HR :-nan: L2-HR :0.66960: (Sim:3h3m4s) 
CPU  0 inst:  447000005 cyc:  951602952 now IPC :1.42713: AVG IPC :0.46812: L2-Pf-HR :-nan: L2-HR :0.67071: (Sim:3h3m24s) 
CPU  0 inst:  448000002 cyc:  952312417 now IPC :1.40951: AVG IPC :0.46882: L2-Pf-HR :-nan: L2-HR :0.67182: (Sim:3h3m46s) 
CPU  0 inst:  449000005 cyc:  953029674 now IPC :1.39420: AVG IPC :0.46952: L2-Pf-HR :-nan: L2-HR :0.67289: (Sim:3h4m7s) 
CPU  0 inst:  450000005 cyc:  953724046 now IPC :1.44015: AVG IPC :0.47022: L2-Pf-HR :-nan: L2-HR :0.67396: (Sim:3h4m29s) 
CPU  0 inst:  451000004 cyc:  954385013 now IPC :1.51293: AVG IPC :0.47095: L2-Pf-HR :-nan: L2-HR :0.67506: (Sim:3h4m50s) 
CPU  0 inst:  452000000 cyc:  955063703 now IPC :1.47342: AVG IPC :0.47166: L2-Pf-HR :-nan: L2-HR :0.67614: (Sim:3h5m12s) 
CPU  0 inst:  453000001 cyc:  955738070 now IPC :1.48287: AVG IPC :0.47237: L2-Pf-HR :-nan: L2-HR :0.67721: (Sim:3h5m33s) 
CPU  0 inst:  454000000 cyc:  956420602 now IPC :1.46513: AVG IPC :0.47308: L2-Pf-HR :-nan: L2-HR :0.67826: (Sim:3h5m54s) 
CPU  0 inst:  455000005 cyc:  957097214 now IPC :1.47796: AVG IPC :0.47379: L2-Pf-HR :-nan: L2-HR :0.67932: (Sim:3h6m16s) 
CPU  0 inst:  456000000 cyc:  957771086 now IPC :1.48395: AVG IPC :0.47451: L2-Pf-HR :-nan: L2-HR :0.68036: (Sim:3h6m38s) 
CPU  0 inst:  457000004 cyc:  958445646 now IPC :1.48245: AVG IPC :0.47522: L2-Pf-HR :-nan: L2-HR :0.68140: (Sim:3h6m59s) 
CPU  0 inst:  458000000 cyc:  959122207 now IPC :1.47806: AVG IPC :0.47592: L2-Pf-HR :-nan: L2-HR :0.68241: (Sim:3h7m19s) 
CPU  0 inst:  459000003 cyc:  959799789 now IPC :1.47584: AVG IPC :0.47663: L2-Pf-HR :-nan: L2-HR :0.68343: (Sim:3h7m39s) 
CPU  0 inst:  460000000 cyc:  960467428 now IPC :1.49781: AVG IPC :0.47734: L2-Pf-HR :-nan: L2-HR :0.68444: (Sim:3h8m1s) 
CPU  0 inst:  461000004 cyc:  961134503 now IPC :1.49909: AVG IPC :0.47805: L2-Pf-HR :-nan: L2-HR :0.68545: (Sim:3h8m23s) 
CPU  0 inst:  462000005 cyc:  961832039 now IPC :1.43362: AVG IPC :0.47874: L2-Pf-HR :-nan: L2-HR :0.68641: (Sim:3h8m44s) 
CPU  0 inst:  463000005 cyc:  962544339 now IPC :1.40390: AVG IPC :0.47943: L2-Pf-HR :-nan: L2-HR :0.68736: (Sim:3h8m56s) 
CPU  0 inst:  464000005 cyc:  963249499 now IPC :1.41812: AVG IPC :0.48012: L2-Pf-HR :-nan: L2-HR :0.68833: (Sim:3h9m5s) 
CPU  0 inst:  465000002 cyc:  963957587 now IPC :1.41225: AVG IPC :0.48080: L2-Pf-HR :-nan: L2-HR :0.68929: (Sim:3h9m14s) 
CPU  0 inst:  466000005 cyc:  964686144 now IPC :1.37258: AVG IPC :0.48148: L2-Pf-HR :-nan: L2-HR :0.69019: (Sim:3h9m23s) 
CPU  0 inst:  467000003 cyc:  965358423 now IPC :1.48747: AVG IPC :0.48218: L2-Pf-HR :-nan: L2-HR :0.69115: (Sim:3h9m33s) 
CPU  0 inst:  468000002 cyc:  966019317 now IPC :1.51310: AVG IPC :0.48288: L2-Pf-HR :-nan: L2-HR :0.69211: (Sim:3h9m42s) 
CPU  0 inst:  469000003 cyc:  966694685 now IPC :1.48068: AVG IPC :0.48358: L2-Pf-HR :-nan: L2-HR :0.69306: (Sim:3h9m51s) 
CPU  0 inst:  470000002 cyc:  967380430 now IPC :1.45827: AVG IPC :0.48427: L2-Pf-HR :-nan: L2-HR :0.69400: (Sim:3h10m0s) 
CPU  0 inst:  471000002 cyc:  968067503 now IPC :1.45545: AVG IPC :0.48496: L2-Pf-HR :-nan: L2-HR :0.69490: (Sim:3h10m9s) 
CPU  0 inst:  472000000 cyc:  968733534 now IPC :1.50143: AVG IPC :0.48566: L2-Pf-HR :-nan: L2-HR :0.69583: (Sim:3h10m18s) 
CPU  0 inst:  473000005 cyc:  969403798 now IPC :1.49196: AVG IPC :0.48636: L2-Pf-HR :-nan: L2-HR :0.69675: (Sim:3h10m27s) 
CPU  0 inst:  474000000 cyc:  970079813 now IPC :1.47925: AVG IPC :0.48705: L2-Pf-HR :-nan: L2-HR :0.69768: (Sim:3h10m37s) 
CPU  0 inst:  475000000 cyc:  970776382 now IPC :1.43561: AVG IPC :0.48773: L2-Pf-HR :-nan: L2-HR :0.69853: (Sim:3h10m46s) 
CPU  0 inst:  476000003 cyc:  971439684 now IPC :1.50761: AVG IPC :0.48843: L2-Pf-HR :-nan: L2-HR :0.69943: (Sim:3h10m55s) 
CPU  0 inst:  477000004 cyc:  972102697 now IPC :1.50827: AVG IPC :0.48913: L2-Pf-HR :-nan: L2-HR :0.70033: (Sim:3h11m4s) 
CPU  0 inst:  478000001 cyc:  972777857 now IPC :1.48113: AVG IPC :0.48982: L2-Pf-HR :-nan: L2-HR :0.70122: (Sim:3h11m13s) 
CPU  0 inst:  479000002 cyc:  973506192 now IPC :1.37300: AVG IPC :0.49048: L2-Pf-HR :-nan: L2-HR :0.70202: (Sim:3h11m22s) 
CPU  0 inst:  480000000 cyc:  974203508 now IPC :1.43407: AVG IPC :0.49115: L2-Pf-HR :-nan: L2-HR :0.70288: (Sim:3h11m31s) 
CPU  0 inst:  481000005 cyc:  974907882 now IPC :1.41971: AVG IPC :0.49183: L2-Pf-HR :-nan: L2-HR :0.70372: (Sim:3h11m41s) 
CPU  0 inst:  482000002 cyc:  975617725 now IPC :1.40876: AVG IPC :0.49249: L2-Pf-HR :-nan: L2-HR :0.70456: (Sim:3h11m50s) 
CPU  0 inst:  483000001 cyc:  976342705 now IPC :1.37935: AVG IPC :0.49315: L2-Pf-HR :-nan: L2-HR :0.70534: (Sim:3h11m59s) 
CPU  0 inst:  484000000 cyc:  977002493 now IPC :1.51564: AVG IPC :0.49384: L2-Pf-HR :-nan: L2-HR :0.70620: (Sim:3h12m8s) 
CPU  0 inst:  485000002 cyc:  977663778 now IPC :1.51221: AVG IPC :0.49453: L2-Pf-HR :-nan: L2-HR :0.70704: (Sim:3h12m17s) 
CPU  0 inst:  486000005 cyc:  978353809 now IPC :1.44921: AVG IPC :0.49521: L2-Pf-HR :-nan: L2-HR :0.70786: (Sim:3h12m26s) 
CPU  0 inst:  487000004 cyc:  979044935 now IPC :1.44691: AVG IPC :0.49588: L2-Pf-HR :-nan: L2-HR :0.70865: (Sim:3h12m35s) 
CPU  0 inst:  488000003 cyc:  979709082 now IPC :1.50569: AVG IPC :0.49656: L2-Pf-HR :-nan: L2-HR :0.70949: (Sim:3h12m44s) 
CPU  0 inst:  489000001 cyc:  980379778 now IPC :1.49099: AVG IPC :0.49725: L2-Pf-HR :-nan: L2-HR :0.71029: (Sim:3h12m54s) 
CPU  0 inst:  490000001 cyc:  981066681 now IPC :1.45581: AVG IPC :0.49792: L2-Pf-HR :-nan: L2-HR :0.71108: (Sim:3h13m3s) 
CPU  0 inst:  491000004 cyc:  981724140 now IPC :1.52101: AVG IPC :0.49860: L2-Pf-HR :-nan: L2-HR :0.71191: (Sim:3h13m12s) 
CPU  0 inst:  492000000 cyc:  982421656 now IPC :1.43365: AVG IPC :0.49927: L2-Pf-HR :-nan: L2-HR :0.71267: (Sim:3h13m21s) 
CPU  0 inst:  493000004 cyc:  983093109 now IPC :1.48931: AVG IPC :0.49994: L2-Pf-HR :-nan: L2-HR :0.71345: (Sim:3h13m30s) 
CPU  0 inst:  494000002 cyc:  983770347 now IPC :1.47658: AVG IPC :0.50062: L2-Pf-HR :-nan: L2-HR :0.71422: (Sim:3h13m39s) 
CPU  0 inst:  495000004 cyc:  984444696 now IPC :1.48291: AVG IPC :0.50129: L2-Pf-HR :-nan: L2-HR :0.71499: (Sim:3h13m48s) 
CPU  0 inst:  496000003 cyc:  985159759 now IPC :1.39848: AVG IPC :0.50194: L2-Pf-HR :-nan: L2-HR :0.71572: (Sim:3h13m57s) 
CPU  0 inst:  497000004 cyc:  985871444 now IPC :1.40512: AVG IPC :0.50260: L2-Pf-HR :-nan: L2-HR :0.71646: (Sim:3h14m6s) 
CPU  0 inst:  498000000 cyc:  986581525 now IPC :1.40828: AVG IPC :0.50325: L2-Pf-HR :-nan: L2-HR :0.71720: (Sim:3h14m16s) 
CPU  0 inst:  499000004 cyc:  987283549 now IPC :1.42446: AVG IPC :0.50390: L2-Pf-HR :-nan: L2-HR :0.71795: (Sim:3h14m25s) 
CPU  0 inst:  500000003 cyc:  987999526 now IPC :1.39669: AVG IPC :0.50455: L2-Pf-HR :-nan: L2-HR :0.71864: (Sim:3h14m34s) 
CPU  0 inst:  501000002 cyc:  988660371 now IPC :1.51321: AVG IPC :0.50523: L2-Pf-HR :-nan: L2-HR :0.71939: (Sim:3h14m43s) 
CPU  0 inst:  502000002 cyc:  989329925 now IPC :1.49353: AVG IPC :0.50590: L2-Pf-HR :-nan: L2-HR :0.72014: (Sim:3h14m51s) 
CPU  0 inst:  503000004 cyc:  989997787 now IPC :1.49732: AVG IPC :0.50657: L2-Pf-HR :-nan: L2-HR :0.72088: (Sim:3h15m0s) 
CPU  0 inst:  504000003 cyc:  990701726 now IPC :1.42058: AVG IPC :0.50722: L2-Pf-HR :-nan: L2-HR :0.72157: (Sim:3h15m9s) 
CPU  0 inst:  505000005 cyc:  991365365 now IPC :1.50685: AVG IPC :0.50789: L2-Pf-HR :-nan: L2-HR :0.72231: (Sim:3h15m18s) 
CPU  0 inst:  506000003 cyc:  992033359 now IPC :1.49702: AVG IPC :0.50855: L2-Pf-HR :-nan: L2-HR :0.72303: (Sim:3h15m27s) 
CPU  0 inst:  507000005 cyc:  992706163 now IPC :1.48632: AVG IPC :0.50922: L2-Pf-HR :-nan: L2-HR :0.72375: (Sim:3h15m36s) 
CPU  0 inst:  508000003 cyc:  993410406 now IPC :1.41996: AVG IPC :0.50986: L2-Pf-HR :-nan: L2-HR :0.72442: (Sim:3h15m45s) 
CPU  0 inst:  509000001 cyc:  994078177 now IPC :1.49752: AVG IPC :0.51053: L2-Pf-HR :-nan: L2-HR :0.72514: (Sim:3h15m54s) 
CPU  0 inst:  510000000 cyc:  994740141 now IPC :1.51065: AVG IPC :0.51119: L2-Pf-HR :-nan: L2-HR :0.72584: (Sim:3h16m2s) 
CPU  0 inst:  511000004 cyc:  995409928 now IPC :1.49302: AVG IPC :0.51185: L2-Pf-HR :-nan: L2-HR :0.72654: (Sim:3h16m11s) 
CPU  0 inst:  512000002 cyc:  996119997 now IPC :1.40831: AVG IPC :0.51249: L2-Pf-HR :-nan: L2-HR :0.72719: (Sim:3h16m20s) 
CPU  0 inst:  513000003 cyc:  996832266 now IPC :1.40397: AVG IPC :0.51313: L2-Pf-HR :-nan: L2-HR :0.72786: (Sim:3h16m29s) 
CPU  0 inst:  514000005 cyc:  997530683 now IPC :1.43181: AVG IPC :0.51377: L2-Pf-HR :-nan: L2-HR :0.72852: (Sim:3h16m37s) 
CPU  0 inst:  515000002 cyc:  998237646 now IPC :1.41450: AVG IPC :0.51441: L2-Pf-HR :-nan: L2-HR :0.72919: (Sim:3h16m46s) 
CPU  0 inst:  516000004 cyc:  998960953 now IPC :1.38254: AVG IPC :0.51504: L2-Pf-HR :-nan: L2-HR :0.72982: (Sim:3h16m55s) 
CPU  0 inst:  517000004 cyc:  999654160 now IPC :1.44257: AVG IPC :0.51569: L2-Pf-HR :-nan: L2-HR :0.73046: (Sim:3h17m4s) 
CPU  0 inst:  518000004 cyc: 1000314364 now IPC :1.51468: AVG IPC :0.51635: L2-Pf-HR :-nan: L2-HR :0.73113: (Sim:3h17m13s) 
CPU  0 inst:  519000001 cyc: 1000994290 now IPC :1.47074: AVG IPC :0.51700: L2-Pf-HR :-nan: L2-HR :0.73180: (Sim:3h17m22s) 
CPU  0 inst:  520000004 cyc: 1001675005 now IPC :1.46905: AVG IPC :0.51764: L2-Pf-HR :-nan: L2-HR :0.73245: (Sim:3h17m31s) 
CPU  0 inst:  521000000 cyc: 1002373515 now IPC :1.43161: AVG IPC :0.51828: L2-Pf-HR :-nan: L2-HR :0.73307: (Sim:3h17m40s) 
CPU  0 inst:  522000001 cyc: 1003036566 now IPC :1.50818: AVG IPC :0.51894: L2-Pf-HR :-nan: L2-HR :0.73373: (Sim:3h17m48s) 
CPU  0 inst:  523000005 cyc: 1003721197 now IPC :1.46065: AVG IPC :0.51958: L2-Pf-HR :-nan: L2-HR :0.73436: (Sim:3h17m57s) 
CPU  0 inst:  524000001 cyc: 1004402941 now IPC :1.46682: AVG IPC :0.52022: L2-Pf-HR :-nan: L2-HR :0.73499: (Sim:3h18m6s) 
CPU  0 inst:  525000005 cyc: 1005086750 now IPC :1.46240: AVG IPC :0.52086: L2-Pf-HR :-nan: L2-HR :0.73561: (Sim:3h18m15s) 
CPU  0 inst:  526000000 cyc: 1005763009 now IPC :1.47872: AVG IPC :0.52151: L2-Pf-HR :-nan: L2-HR :0.73624: (Sim:3h18m24s) 
CPU  0 inst:  527000005 cyc: 1006444847 now IPC :1.46663: AVG IPC :0.52215: L2-Pf-HR :-nan: L2-HR :0.73686: (Sim:3h18m33s) 
CPU  0 inst:  528000003 cyc: 1007124498 now IPC :1.47134: AVG IPC :0.52279: L2-Pf-HR :-nan: L2-HR :0.73748: (Sim:3h18m41s) 
CPU  0 inst:  529000003 cyc: 1007820669 now IPC :1.43643: AVG IPC :0.52342: L2-Pf-HR :-nan: L2-HR :0.73807: (Sim:3h18m50s) 
CPU  0 inst:  530000003 cyc: 1008531206 now IPC :1.40739: AVG IPC :0.52405: L2-Pf-HR :-nan: L2-HR :0.73865: (Sim:3h18m59s) 
CPU  0 inst:  531000004 cyc: 1009247298 now IPC :1.39647: AVG IPC :0.52467: L2-Pf-HR :-nan: L2-HR :0.73923: (Sim:3h19m8s) 
CPU  0 inst:  532000003 cyc: 1009954356 now IPC :1.41431: AVG IPC :0.52529: L2-Pf-HR :-nan: L2-HR :0.73983: (Sim:3h19m17s) 
CPU  0 inst:  533000004 cyc: 1010672951 now IPC :1.39161: AVG IPC :0.52591: L2-Pf-HR :-nan: L2-HR :0.74037: (Sim:3h19m26s) 
CPU  0 inst:  534000005 cyc: 1011336979 now IPC :1.50596: AVG IPC :0.52655: L2-Pf-HR :-nan: L2-HR :0.74097: (Sim:3h19m34s) 
CPU  0 inst:  535000004 cyc: 1011998278 now IPC :1.51217: AVG IPC :0.52719: L2-Pf-HR :-nan: L2-HR :0.74158: (Sim:3h19m43s) 
CPU  0 inst:  536000003 cyc: 1012672025 now IPC :1.48424: AVG IPC :0.52783: L2-Pf-HR :-nan: L2-HR :0.74217: (Sim:3h19m52s) 
CPU  0 inst:  537000005 cyc: 1013361509 now IPC :1.45036: AVG IPC :0.52846: L2-Pf-HR :-nan: L2-HR :0.74273: (Sim:3h20m0s) 
CPU  0 inst:  538000004 cyc: 1014028856 now IPC :1.49847: AVG IPC :0.52910: L2-Pf-HR :-nan: L2-HR :0.74332: (Sim:3h20m9s) 
CPU  0 inst:  539000000 cyc: 1014687995 now IPC :1.51712: AVG IPC :0.52974: L2-Pf-HR :-nan: L2-HR :0.74390: (Sim:3h20m18s) 
CPU  0 inst:  540000002 cyc: 1015361881 now IPC :1.48393: AVG IPC :0.53037: L2-Pf-HR :-nan: L2-HR :0.74448: (Sim:3h20m27s) 
CPU  0 inst:  541000003 cyc: 1016041334 now IPC :1.47177: AVG IPC :0.53100: L2-Pf-HR :-nan: L2-HR :0.74505: (Sim:3h20m36s) 
CPU  0 inst:  542000000 cyc: 1016725394 now IPC :1.46186: AVG IPC :0.53163: L2-Pf-HR :-nan: L2-HR :0.74560: (Sim:3h20m44s) 
CPU  0 inst:  543000001 cyc: 1017383789 now IPC :1.51885: AVG IPC :0.53227: L2-Pf-HR :-nan: L2-HR :0.74617: (Sim:3h20m53s) 
CPU  0 inst:  544000005 cyc: 1018048861 now IPC :1.50360: AVG IPC :0.53291: L2-Pf-HR :-nan: L2-HR :0.74674: (Sim:3h21m2s) 
CPU  0 inst:  545000001 cyc: 1018714520 now IPC :1.50226: AVG IPC :0.53354: L2-Pf-HR :-nan: L2-HR :0.74731: (Sim:3h21m11s) 
CPU  0 inst:  546000000 cyc: 1019444615 now IPC :1.36968: AVG IPC :0.53414: L2-Pf-HR :-nan: L2-HR :0.74780: (Sim:3h21m19s) 
CPU  0 inst:  547000005 cyc: 1020139835 now IPC :1.43840: AVG IPC :0.53476: L2-Pf-HR :-nan: L2-HR :0.74834: (Sim:3h21m28s) 
CPU  0 inst:  548000003 cyc: 1020847929 now IPC :1.41224: AVG IPC :0.53537: L2-Pf-HR :-nan: L2-HR :0.74888: (Sim:3h21m37s) 
CPU  0 inst:  549000000 cyc: 1021552994 now IPC :1.41830: AVG IPC :0.53598: L2-Pf-HR :-nan: L2-HR :0.74941: (Sim:3h21m45s) 
CPU  0 inst:  550000000 cyc: 1022273691 now IPC :1.38755: AVG IPC :0.53658: L2-Pf-HR :-nan: L2-HR :0.74990: (Sim:3h21m54s) 
CPU  0 inst:  551000002 cyc: 1022930951 now IPC :1.52147: AVG IPC :0.53721: L2-Pf-HR :-nan: L2-HR :0.75045: (Sim:3h22m3s) 
CPU  0 inst:  552000001 cyc: 1023590987 now IPC :1.51507: AVG IPC :0.53784: L2-Pf-HR :-nan: L2-HR :0.75099: (Sim:3h22m11s) 
CPU  0 inst:  553000000 cyc: 1024263192 now IPC :1.48764: AVG IPC :0.53847: L2-Pf-HR :-nan: L2-HR :0.75153: (Sim:3h22m20s) 
CPU  0 inst:  554000001 cyc: 1024967884 now IPC :1.41906: AVG IPC :0.53907: L2-Pf-HR :-nan: L2-HR :0.75202: (Sim:3h22m29s) 
CPU  0 inst:  555000003 cyc: 1025625841 now IPC :1.51986: AVG IPC :0.53970: L2-Pf-HR :-nan: L2-HR :0.75256: (Sim:3h22m37s) 
CPU  0 inst:  556000004 cyc: 1026281161 now IPC :1.52597: AVG IPC :0.54033: L2-Pf-HR :-nan: L2-HR :0.75309: (Sim:3h22m46s) 
CPU  0 inst:  557000000 cyc: 1026968213 now IPC :1.45549: AVG IPC :0.54094: L2-Pf-HR :-nan: L2-HR :0.75361: (Sim:3h22m55s) 
CPU  0 inst:  558000001 cyc: 1027658680 now IPC :1.44830: AVG IPC :0.54155: L2-Pf-HR :-nan: L2-HR :0.75410: (Sim:3h23m4s) 
CPU  0 inst:  559000002 cyc: 1028323373 now IPC :1.50446: AVG IPC :0.54218: L2-Pf-HR :-nan: L2-HR :0.75463: (Sim:3h23m13s) 
CPU  0 inst:  560000005 cyc: 1028983837 now IPC :1.51409: AVG IPC :0.54280: L2-Pf-HR :-nan: L2-HR :0.75514: (Sim:3h23m21s) 
CPU  0 inst:  561000003 cyc: 1029664057 now IPC :1.47011: AVG IPC :0.54342: L2-Pf-HR :-nan: L2-HR :0.75563: (Sim:3h23m30s) 
CPU  0 inst:  562000005 cyc: 1030327095 now IPC :1.50821: AVG IPC :0.54404: L2-Pf-HR :-nan: L2-HR :0.75616: (Sim:3h23m39s) 
CPU  0 inst:  563000003 cyc: 1031056917 now IPC :1.37019: AVG IPC :0.54462: L2-Pf-HR :-nan: L2-HR :0.75661: (Sim:3h23m48s) 
CPU  0 inst:  564000005 cyc: 1031779131 now IPC :1.38463: AVG IPC :0.54521: L2-Pf-HR :-nan: L2-HR :0.75708: (Sim:3h23m57s) 
CPU  0 inst:  565000001 cyc: 1032498861 now IPC :1.38940: AVG IPC :0.54580: L2-Pf-HR :-nan: L2-HR :0.75755: (Sim:3h24m5s) 
CPU  0 inst:  566000000 cyc: 1033208138 now IPC :1.40989: AVG IPC :0.54639: L2-Pf-HR :-nan: L2-HR :0.75802: (Sim:3h24m14s) 
CPU  0 inst:  567000005 cyc: 1033894123 now IPC :1.45777: AVG IPC :0.54700: L2-Pf-HR :-nan: L2-HR :0.75849: (Sim:3h24m23s) 
CPU  0 inst:  568000004 cyc: 1034566592 now IPC :1.48706: AVG IPC :0.54761: L2-Pf-HR :-nan: L2-HR :0.75898: (Sim:3h24m32s) 
CPU  0 inst:  569000004 cyc: 1035235673 now IPC :1.49459: AVG IPC :0.54822: L2-Pf-HR :-nan: L2-HR :0.75947: (Sim:3h24m40s) 
CPU  0 inst:  570000000 cyc: 1035892720 now IPC :1.52196: AVG IPC :0.54884: L2-Pf-HR :-nan: L2-HR :0.75996: (Sim:3h24m49s) 
CPU  0 inst:  571000001 cyc: 1036595781 now IPC :1.42235: AVG IPC :0.54943: L2-Pf-HR :-nan: L2-HR :0.76040: (Sim:3h24m58s) 
CPU  0 inst:  572000001 cyc: 1037260805 now IPC :1.50371: AVG IPC :0.55005: L2-Pf-HR :-nan: L2-HR :0.76089: (Sim:3h25m7s) 
CPU  0 inst:  573000002 cyc: 1037928104 now IPC :1.49858: AVG IPC :0.55066: L2-Pf-HR :-nan: L2-HR :0.76137: (Sim:3h25m16s) 
CPU  0 inst:  574000005 cyc: 1038587102 now IPC :1.51746: AVG IPC :0.55127: L2-Pf-HR :-nan: L2-HR :0.76185: (Sim:3h25m24s) 
CPU  0 inst:  575000000 cyc: 1039288149 now IPC :1.42643: AVG IPC :0.55186: L2-Pf-HR :-nan: L2-HR :0.76228: (Sim:3h25m33s) 
CPU  0 inst:  576000005 cyc: 1039955006 now IPC :1.49958: AVG IPC :0.55247: L2-Pf-HR :-nan: L2-HR :0.76276: (Sim:3h25m42s) 
CPU  0 inst:  577000004 cyc: 1040617282 now IPC :1.50994: AVG IPC :0.55308: L2-Pf-HR :-nan: L2-HR :0.76323: (Sim:3h25m51s) 
CPU  0 inst:  578000000 cyc: 1041277792 now IPC :1.51398: AVG IPC :0.55369: L2-Pf-HR :-nan: L2-HR :0.76370: (Sim:3h25m59s) 
CPU  0 inst:  579000001 cyc: 1041992229 now IPC :1.39970: AVG IPC :0.55427: L2-Pf-HR :-nan: L2-HR :0.76411: (Sim:3h26m8s) 
CPU  0 inst:  580000002 cyc: 1042698561 now IPC :1.41577: AVG IPC :0.55485: L2-Pf-HR :-nan: L2-HR :0.76456: (Sim:3h26m17s) 
CPU  0 inst:  581000000 cyc: 1043403503 now IPC :1.41855: AVG IPC :0.55544: L2-Pf-HR :-nan: L2-HR :0.76500: (Sim:3h26m26s) 
CPU  0 inst:  582000003 cyc: 1044113769 now IPC :1.40793: AVG IPC :0.55602: L2-Pf-HR :-nan: L2-HR :0.76544: (Sim:3h26m34s) 
CPU  0 inst:  583000001 cyc: 1044841508 now IPC :1.37412: AVG IPC :0.55659: L2-Pf-HR :-nan: L2-HR :0.76584: (Sim:3h26m43s) 
CPU  0 inst:  584000002 cyc: 1045516538 now IPC :1.48142: AVG IPC :0.55719: L2-Pf-HR :-nan: L2-HR :0.76629: (Sim:3h26m52s) 
CPU  0 inst:  585000003 cyc: 1046176235 now IPC :1.51585: AVG IPC :0.55779: L2-Pf-HR :-nan: L2-HR :0.76674: (Sim:3h27m0s) 
CPU  0 inst:  586000005 cyc: 1046849254 now IPC :1.48585: AVG IPC :0.55839: L2-Pf-HR :-nan: L2-HR :0.76719: (Sim:3h27m9s) 
CPU  0 inst:  587000004 cyc: 1047536726 now IPC :1.45460: AVG IPC :0.55898: L2-Pf-HR :-nan: L2-HR :0.76762: (Sim:3h27m17s) 
CPU  0 inst:  588000004 cyc: 1048228276 now IPC :1.44603: AVG IPC :0.55956: L2-Pf-HR :-nan: L2-HR :0.76804: (Sim:3h27m26s) 
CPU  0 inst:  589000000 cyc: 1048887315 now IPC :1.51735: AVG IPC :0.56017: L2-Pf-HR :-nan: L2-HR :0.76848: (Sim:3h27m35s) 
CPU  0 inst:  590000004 cyc: 1049559523 now IPC :1.48764: AVG IPC :0.56076: L2-Pf-HR :-nan: L2-HR :0.76892: (Sim:3h27m43s) 
CPU  0 inst:  591000005 cyc: 1050240799 now IPC :1.46784: AVG IPC :0.56135: L2-Pf-HR :-nan: L2-HR :0.76935: (Sim:3h27m52s) 
CPU  0 inst:  592000004 cyc: 1050939845 now IPC :1.43052: AVG IPC :0.56193: L2-Pf-HR :-nan: L2-HR :0.76976: (Sim:3h28m1s) 
CPU  0 inst:  593000001 cyc: 1051607203 now IPC :1.49844: AVG IPC :0.56252: L2-Pf-HR :-nan: L2-HR :0.77019: (Sim:3h28m9s) 
CPU  0 inst:  594000004 cyc: 1052277435 now IPC :1.49203: AVG IPC :0.56312: L2-Pf-HR :-nan: L2-HR :0.77061: (Sim:3h28m18s) 
CPU  0 inst:  595000001 cyc: 1052956865 now IPC :1.47182: AVG IPC :0.56370: L2-Pf-HR :-nan: L2-HR :0.77103: (Sim:3h28m27s) 
CPU  0 inst:  596000001 cyc: 1053662178 now IPC :1.41781: AVG IPC :0.56428: L2-Pf-HR :-nan: L2-HR :0.77142: (Sim:3h28m35s) 
CPU  0 inst:  597000000 cyc: 1054372382 now IPC :1.40804: AVG IPC :0.56484: L2-Pf-HR :-nan: L2-HR :0.77181: (Sim:3h28m44s) 
CPU  0 inst:  598000001 cyc: 1055096539 now IPC :1.38092: AVG IPC :0.56541: L2-Pf-HR :-nan: L2-HR :0.77220: (Sim:3h28m53s) 
CPU  0 inst:  599000005 cyc: 1055808897 now IPC :1.40379: AVG IPC :0.56597: L2-Pf-HR :-nan: L2-HR :0.77260: (Sim:3h29m1s) 
CPU  0 inst:  600000005 cyc: 1056510123 now IPC :1.42607: AVG IPC :0.56654: L2-Pf-HR :-nan: L2-HR :0.77298: (Sim:3h29m10s) 
CPU  0 inst:  601000000 cyc: 1057183220 now IPC :1.48566: AVG IPC :0.56713: L2-Pf-HR :-nan: L2-HR :0.77338: (Sim:3h29m19s) 
CPU  0 inst:  602000001 cyc: 1057857092 now IPC :1.48396: AVG IPC :0.56771: L2-Pf-HR :-nan: L2-HR :0.77379: (Sim:3h29m28s) 
CPU  0 inst:  603000005 cyc: 1058528840 now IPC :1.48866: AVG IPC :0.56830: L2-Pf-HR :-nan: L2-HR :0.77420: (Sim:3h29m36s) 
CPU  0 inst:  604000002 cyc: 1059219425 now IPC :1.44804: AVG IPC :0.56887: L2-Pf-HR :-nan: L2-HR :0.77458: (Sim:3h29m45s) 
CPU  0 inst:  605000004 cyc: 1059889477 now IPC :1.49242: AVG IPC :0.56946: L2-Pf-HR :-nan: L2-HR :0.77498: (Sim:3h29m54s) 
CPU  0 inst:  606000004 cyc: 1060561232 now IPC :1.48864: AVG IPC :0.57004: L2-Pf-HR :-nan: L2-HR :0.77538: (Sim:3h30m2s) 
CPU  0 inst:  607000001 cyc: 1061231982 now IPC :1.49086: AVG IPC :0.57062: L2-Pf-HR :-nan: L2-HR :0.77578: (Sim:3h30m11s) 
CPU  0 inst:  608000003 cyc: 1061918888 now IPC :1.45581: AVG IPC :0.57119: L2-Pf-HR :-nan: L2-HR :0.77615: (Sim:3h30m20s) 
CPU  0 inst:  609000003 cyc: 1062594713 now IPC :1.47967: AVG IPC :0.57177: L2-Pf-HR :-nan: L2-HR :0.77655: (Sim:3h30m29s) 
CPU  0 inst:  610000002 cyc: 1063258306 now IPC :1.50695: AVG IPC :0.57236: L2-Pf-HR :-nan: L2-HR :0.77694: (Sim:3h30m37s) 
CPU  0 inst:  611000005 cyc: 1063924441 now IPC :1.50120: AVG IPC :0.57294: L2-Pf-HR :-nan: L2-HR :0.77733: (Sim:3h30m46s) 
CPU  0 inst:  612000003 cyc: 1064599229 now IPC :1.48194: AVG IPC :0.57352: L2-Pf-HR :-nan: L2-HR :0.77772: (Sim:3h30m55s) 
CPU  0 inst:  613000005 cyc: 1065329309 now IPC :1.36972: AVG IPC :0.57406: L2-Pf-HR :-nan: L2-HR :0.77806: (Sim:3h31m3s) 
CPU  0 inst:  614000000 cyc: 1066025300 now IPC :1.43679: AVG IPC :0.57463: L2-Pf-HR :-nan: L2-HR :0.77843: (Sim:3h31m12s) 
CPU  0 inst:  615000000 cyc: 1066737572 now IPC :1.40396: AVG IPC :0.57518: L2-Pf-HR :-nan: L2-HR :0.77880: (Sim:3h31m21s) 
CPU  0 inst:  616000005 cyc: 1067437577 now IPC :1.42857: AVG IPC :0.57574: L2-Pf-HR :-nan: L2-HR :0.77917: (Sim:3h31m29s) 
CPU  0 inst:  617000001 cyc: 1068155063 now IPC :1.39375: AVG IPC :0.57629: L2-Pf-HR :-nan: L2-HR :0.77951: (Sim:3h31m38s) 
CPU  0 inst:  618000004 cyc: 1068811526 now IPC :1.52332: AVG IPC :0.57687: L2-Pf-HR :-nan: L2-HR :0.77989: (Sim:3h31m46s) 
CPU  0 inst:  619000003 cyc: 1069482719 now IPC :1.48988: AVG IPC :0.57745: L2-Pf-HR :-nan: L2-HR :0.78027: (Sim:3h31m55s) 
CPU  0 inst:  620000005 cyc: 1070147316 now IPC :1.50467: AVG IPC :0.57802: L2-Pf-HR :-nan: L2-HR :0.78065: (Sim:3h32m3s) 
CPU  0 inst:  621000005 cyc: 1070859659 now IPC :1.40382: AVG IPC :0.57857: L2-Pf-HR :-nan: L2-HR :0.78098: (Sim:3h32m11s) 
CPU  0 inst:  622000001 cyc: 1071520493 now IPC :1.51323: AVG IPC :0.57915: L2-Pf-HR :-nan: L2-HR :0.78136: (Sim:3h32m20s) 
CPU  0 inst:  623000000 cyc: 1072186532 now IPC :1.50141: AVG IPC :0.57972: L2-Pf-HR :-nan: L2-HR :0.78173: (Sim:3h32m28s) 
CPU  0 inst:  624000005 cyc: 1072856039 now IPC :1.49364: AVG IPC :0.58029: L2-Pf-HR :-nan: L2-HR :0.78210: (Sim:3h32m36s) 
CPU  0 inst:  625000002 cyc: 1073556143 now IPC :1.42835: AVG IPC :0.58085: L2-Pf-HR :-nan: L2-HR :0.78243: (Sim:3h32m44s) 
CPU  0 inst:  626000005 cyc: 1074223545 now IPC :1.49835: AVG IPC :0.58142: L2-Pf-HR :-nan: L2-HR :0.78280: (Sim:3h32m53s) 
CPU  0 inst:  627000004 cyc: 1074884061 now IPC :1.51397: AVG IPC :0.58199: L2-Pf-HR :-nan: L2-HR :0.78316: (Sim:3h33m1s) 
CPU  0 inst:  628000005 cyc: 1075558642 now IPC :1.48240: AVG IPC :0.58256: L2-Pf-HR :-nan: L2-HR :0.78352: (Sim:3h33m9s) 
CPU  0 inst:  629000002 cyc: 1076257912 now IPC :1.43006: AVG IPC :0.58311: L2-Pf-HR :-nan: L2-HR :0.78384: (Sim:3h33m17s) 
CPU  0 inst:  630000004 cyc: 1076955451 now IPC :1.43361: AVG IPC :0.58366: L2-Pf-HR :-nan: L2-HR :0.78419: (Sim:3h33m26s) 
CPU  0 inst:  631000001 cyc: 1077673591 now IPC :1.39248: AVG IPC :0.58420: L2-Pf-HR :-nan: L2-HR :0.78452: (Sim:3h33m34s) 
CPU  0 inst:  632000000 cyc: 1078393707 now IPC :1.38866: AVG IPC :0.58474: L2-Pf-HR :-nan: L2-HR :0.78484: (Sim:3h33m42s) 
CPU  0 inst:  633000003 cyc: 1079088216 now IPC :1.43987: AVG IPC :0.58529: L2-Pf-HR :-nan: L2-HR :0.78519: (Sim:3h33m50s) 
CPU  0 inst:  634000000 cyc: 1079779421 now IPC :1.44674: AVG IPC :0.58584: L2-Pf-HR :-nan: L2-HR :0.78551: (Sim:3h33m59s) 
CPU  0 inst:  635000003 cyc: 1080459726 now IPC :1.46993: AVG IPC :0.58640: L2-Pf-HR :-nan: L2-HR :0.78585: (Sim:3h34m7s) 
CPU  0 inst:  636000001 cyc: 1081138770 now IPC :1.47266: AVG IPC :0.58695: L2-Pf-HR :-nan: L2-HR :0.78619: (Sim:3h34m15s) 
CPU  0 inst:  637000001 cyc: 1081814330 now IPC :1.48025: AVG IPC :0.58751: L2-Pf-HR :-nan: L2-HR :0.78653: (Sim:3h34m24s) 
CPU  0 inst:  638000004 cyc: 1082495687 now IPC :1.46766: AVG IPC :0.58807: L2-Pf-HR :-nan: L2-HR :0.78686: (Sim:3h34m32s) 
CPU  0 inst:  639000001 cyc: 1083172662 now IPC :1.47715: AVG IPC :0.58862: L2-Pf-HR :-nan: L2-HR :0.78720: (Sim:3h34m41s) 
CPU  0 inst:  640000000 cyc: 1083839340 now IPC :1.49997: AVG IPC :0.58918: L2-Pf-HR :-nan: L2-HR :0.78754: (Sim:3h34m49s) 
CPU  0 inst:  641000005 cyc: 1084502223 now IPC :1.50857: AVG IPC :0.58975: L2-Pf-HR :-nan: L2-HR :0.78788: (Sim:3h34m57s) 
CPU  0 inst:  642000005 cyc: 1085206288 now IPC :1.42032: AVG IPC :0.59029: L2-Pf-HR :-nan: L2-HR :0.78819: (Sim:3h35m6s) 
CPU  0 inst:  643000004 cyc: 1085872085 now IPC :1.50196: AVG IPC :0.59084: L2-Pf-HR :-nan: L2-HR :0.78852: (Sim:3h35m14s) 
CPU  0 inst:  644000005 cyc: 1086533306 now IPC :1.51236: AVG IPC :0.59141: L2-Pf-HR :-nan: L2-HR :0.78886: (Sim:3h35m23s) 
CPU  0 inst:  645000002 cyc: 1087198183 now IPC :1.50403: AVG IPC :0.59196: L2-Pf-HR :-nan: L2-HR :0.78920: (Sim:3h35m31s) 
CPU  0 inst:  646000005 cyc: 1087926377 now IPC :1.37326: AVG IPC :0.59249: L2-Pf-HR :-nan: L2-HR :0.78948: (Sim:3h35m40s) 
CPU  0 inst:  647000004 cyc: 1088626811 now IPC :1.42768: AVG IPC :0.59303: L2-Pf-HR :-nan: L2-HR :0.78980: (Sim:3h35m48s) 
CPU  0 inst:  648000000 cyc: 1089329841 now IPC :1.42241: AVG IPC :0.59356: L2-Pf-HR :-nan: L2-HR :0.79011: (Sim:3h35m56s) 
CPU  0 inst:  649000003 cyc: 1090035088 now IPC :1.41795: AVG IPC :0.59410: L2-Pf-HR :-nan: L2-HR :0.79043: (Sim:3h36m5s) 
CPU  0 inst:  650000001 cyc: 1090770913 now IPC :1.35902: AVG IPC :0.59461: L2-Pf-HR :-nan: L2-HR :0.79070: (Sim:3h36m13s) 
CPU  0 inst:  651000005 cyc: 1091436110 now IPC :1.50332: AVG IPC :0.59517: L2-Pf-HR :-nan: L2-HR :0.79103: (Sim:3h36m21s) 
CPU  0 inst:  652000000 cyc: 1092094632 now IPC :1.51854: AVG IPC :0.59572: L2-Pf-HR :-nan: L2-HR :0.79136: (Sim:3h36m29s) 
CPU  0 inst:  653000000 cyc: 1092764778 now IPC :1.49221: AVG IPC :0.59627: L2-Pf-HR :-nan: L2-HR :0.79168: (Sim:3h36m38s) 
CPU  0 inst:  654000004 cyc: 1093470988 now IPC :1.41602: AVG IPC :0.59680: L2-Pf-HR :-nan: L2-HR :0.79197: (Sim:3h36m46s) 
CPU  0 inst:  655000002 cyc: 1094140208 now IPC :1.49427: AVG IPC :0.59735: L2-Pf-HR :-nan: L2-HR :0.79229: (Sim:3h36m54s) 
CPU  0 inst:  656000002 cyc: 1094800196 now IPC :1.51518: AVG IPC :0.59791: L2-Pf-HR :-nan: L2-HR :0.79261: (Sim:3h37m3s) 
CPU  0 inst:  657000003 cyc: 1095468908 now IPC :1.49541: AVG IPC :0.59846: L2-Pf-HR :-nan: L2-HR :0.79293: (Sim:3h37m11s) 
CPU  0 inst:  658000002 cyc: 1096158607 now IPC :1.44991: AVG IPC :0.59899: L2-Pf-HR :-nan: L2-HR :0.79323: (Sim:3h37m19s) 
CPU  0 inst:  659000001 cyc: 1096846917 now IPC :1.45283: AVG IPC :0.59953: L2-Pf-HR :-nan: L2-HR :0.79353: (Sim:3h37m28s) 
Finished CPU 0 instr: 657000000 cyc: 1095861975 AVG IPC: 0.59953 (Sim time: 3h37m28s)

ChampSim completed all CPUs

[ROI Statistics]
Core_0_instructions 657000000
Core_0_cycles 1095861975
Core_0_IPC 0.59953

Core_0_branch_prediction_accuracy 99.58944
Core_0_branch_MPKI 0.11916
Core_0_average_ROB_occupancy_at_mispredict 573.82373

Core_0_L1D_total_access 179750609
Core_0_L1D_total_hit 153927556 L1D_total_Hit Ratio: 0.85634
Core_0_L1D_total_miss 25823053
Core_0_L1D_loads 162581299
Core_0_L1D_load_hit 137889956 L1D_load_Hit Ratio: 0.84813
Core_0_L1D_load_miss 24691343
Core_0_L1D_RFOs 17169310
Core_0_L1D_RFO_hit 16037600 L1D_RFO_Hit Ratio: 0.93409
Core_0_L1D_RFO_miss 1131710
Core_0_L1D_prefetches 0
Core_0_L1D_prefetch_hit 0 L1D_prefetch_Hit Ratio: -nan
Core_0_L1D_prefetch_miss 0
Core_0_L1D_writebacks 0
Core_0_L1D_writeback_hit 0 L1D_writeback_Hit Ratio: -nan
Core_0_L1D_writeback_miss 0
Core_0_L1D_prefetch_requested 0
Core_0_L1D_prefetch_issued 0
Core_0_L1D_prefetch_useful 0 L1D_Useful Ratio: -nan
Core_0_L1D_prefetch_useless 0
Core_0_L1D_prefetch_late 0
Core_0_L1D_average_miss_latency 89.75767

Core_0_L1I_total_access 96657223
Core_0_L1I_total_hit 96652213 L1I_total_Hit Ratio: 0.99995
Core_0_L1I_total_miss 5010
Core_0_L1I_loads 96657223
Core_0_L1I_load_hit 96652213 L1I_load_Hit Ratio: 0.99995
Core_0_L1I_load_miss 5010
Core_0_L1I_RFOs 0
Core_0_L1I_RFO_hit 0 L1I_RFO_Hit Ratio: -nan
Core_0_L1I_RFO_miss 0
Core_0_L1I_prefetches 0
Core_0_L1I_prefetch_hit 0 L1I_prefetch_Hit Ratio: -nan
Core_0_L1I_prefetch_miss 0
Core_0_L1I_writebacks 0
Core_0_L1I_writeback_hit 0 L1I_writeback_Hit Ratio: -nan
Core_0_L1I_writeback_miss 0
Core_0_L1I_prefetch_requested 0
Core_0_L1I_prefetch_issued 0
Core_0_L1I_prefetch_useful 0 L1I_Useful Ratio: -nan
Core_0_L1I_prefetch_useless 0
Core_0_L1I_prefetch_late 0
Core_0_L1I_average_miss_latency 284.04072

Core_0_L2C_total_access 29721109
Core_0_L2C_total_hit 23584506 L2C_total_Hit Ratio: 0.79353
Core_0_L2C_total_miss 6136603
Core_0_L2C_loads 24696330
Core_0_L2C_load_hit 19610967 L2C_load_Hit Ratio: 0.79408
Core_0_L2C_load_miss 5085363
Core_0_L2C_RFOs 1131710
Core_0_L2C_RFO_hit 82268 L2C_RFO_Hit Ratio: 0.07269
Core_0_L2C_RFO_miss 1049442
Core_0_L2C_prefetches 0
Core_0_L2C_prefetch_hit 0 L2C_prefetch_Hit Ratio: -nan
Core_0_L2C_prefetch_miss 0
Core_0_L2C_writebacks 3893069
Core_0_L2C_writeback_hit 3891271 L2C_writeback_Hit Ratio: 0.99954
Core_0_L2C_writeback_miss 1798
Core_0_L2C_prefetch_requested 0
Core_0_L2C_prefetch_issued 0
Core_0_L2C_prefetch_useful 0 L2C_Useful Ratio: -nan
Core_0_L2C_prefetch_useless 0
Core_0_L2C_prefetch_late 0
Core_0_L2C_average_miss_latency 313.92707

Core_0_LLC_total_access 9779315
Core_0_LLC_total_hit 4167812 LLC_total_Hit Ratio: 0.42619
Core_0_LLC_total_miss 5611503
Core_0_LLC_loads 5085360
Core_0_LLC_load_hit 535441 LLC_load_Hit Ratio: 0.10529
Core_0_LLC_load_miss 4549919
Core_0_LLC_RFOs 1049442
Core_0_LLC_RFO_hit 250 LLC_RFO_Hit Ratio: 0.00024
Core_0_LLC_RFO_miss 1049192
Core_0_LLC_prefetches 0
Core_0_LLC_prefetch_hit 0 LLC_prefetch_Hit Ratio: -nan
Core_0_LLC_prefetch_miss 0
Core_0_LLC_writebacks 3644513
Core_0_LLC_writeback_hit 3632121 LLC_writeback_Hit Ratio: 0.99660
Core_0_LLC_writeback_miss 12392
Core_0_LLC_prefetch_requested 0
Core_0_LLC_prefetch_issued 0
Core_0_LLC_prefetch_useful 0 LLC_Useful Ratio: -nan
Core_0_LLC_prefetch_useless 0
Core_0_LLC_prefetch_late 0
Core_0_LLC_average_miss_latency 288.50315

Core_0_major_page_fault 0
Core_0_minor_page_fault 37887

Channel_0_RQ_row_buffer_hit 3151976
Channel_0_RQ_row_buffer_miss 2447130
Channel_0_WQ_row_buffer_hit 1224437
Channel_0_WQ_row_buffer_miss 2041741
Channel_0_WQ_full 137
Channel_0_dbus_congested 2412323

avg_congested_cycle 11

EzSearch AVG IPC :0.59953: L2-Pf-HR :-nan : L2-HR :0.79353 Uful:-nan
     > Finished combination: TraceType=770-tot Sim:657000000 Prefetcher=L2no L1=no
