TRACE: [21000000]_FE_[Pythia-70M]_[h8]_[s256]_[d64] Warmup: 2000000 NumTraces: 21000000
L1:next_line:L2:029-SecTOP-L2-MultiMarkovDelta_ip_stride_v4-IPStrS256
*************************************************
   ChampSim Multicore Out-of-Order Simulator
   Last compiled: Oct 27 2024 13:42:10
*************************************************

trace_0 770-tot_memTraces_v3/memTraces[21000000]_FE_[Pythia-70M]_[h8]_[s256]_[d64].champsim.xz
CPU 0 L1D next line prefetcher
MK1: Size: 128 TMAX: 64 TMIN: 32 MKPTHRESH: 40
MK2: Size: 256 TMAX: 32 TMIN: 16 MK2PTHRESH: 30
MK3: Size: 384 TMAX: 16 TMIN: 8 MK3PTHRESH: 25
MK4: Size: 512 TMAX: 8 TMIN: 0 MK4PTHRESH: 20
Stride Size: 256 Prefetch Degree: 15

CPU 0 L2C prefetcher
MAIN.cc ln 751 stats print skipped
CPU 0 L2C prefetcher initialized


Cache Size: 1280
number of cache lines: 20480
CPU  0 inst:    1000001 cyc:     500634 now IPC :1.99747: AVG IPC :1.99747: L2-Pf-HR :0.92634: L2-HR :0.90929: (Sim:0h0m18s) 
CPU  0 inst:    2000003 cyc:     988296 now IPC :2.05060: AVG IPC :2.02369: L2-Pf-HR :0.94594: L2-HR :0.93586: (Sim:0h0m38s) 

Warmup complete CPU  0 instructions:    2000003 cycles:     988296 (Simulation time: 0 hr 0 min 38 sec) 

CPU  0 inst:    3000002 cyc:    1511347 now IPC :1.91186: AVG IPC :1.91186: L2-Pf-HR :0.94565: L2-HR :0.94259: (Sim:0h0m54s) 
CPU  0 inst:    4000001 cyc:    2028653 now IPC :1.93309: AVG IPC :1.92242: L2-Pf-HR :0.94688: L2-HR :0.94362: (Sim:0h1m10s) 
CPU  0 inst:    5000000 cyc:    2547581 now IPC :1.92705: AVG IPC :1.92396: L2-Pf-HR :0.94811: L2-HR :0.94452: (Sim:0h1m26s) 
CPU  0 inst:    6000005 cyc:    3068123 now IPC :1.92108: AVG IPC :1.92324: L2-Pf-HR :0.94890: L2-HR :0.94504: (Sim:0h1m42s) 
CPU  0 inst:    7000004 cyc:    3586829 now IPC :1.92787: AVG IPC :1.92416: L2-Pf-HR :0.94929: L2-HR :0.94542: (Sim:0h1m50s) 
CPU  0 inst:    8000002 cyc:    4113377 now IPC :1.89916: AVG IPC :1.91995: L2-Pf-HR :0.94947: L2-HR :0.94540: (Sim:0h1m58s) 
CPU  0 inst:    9000000 cyc:    5341919 now IPC :0.81397: AVG IPC :1.60786: L2-Pf-HR :0.92370: L2-HR :0.90392: (Sim:0h2m7s) 
CPU  0 inst:   10000000 cyc:    8715180 now IPC :0.29645: AVG IPC :1.03535: L2-Pf-HR :0.91268: L2-HR :0.89632: (Sim:0h2m22s) 
CPU  0 inst:   11000000 cyc:   12096143 now IPC :0.29577: AVG IPC :0.81024: L2-Pf-HR :0.90199: L2-HR :0.88844: (Sim:0h2m36s) 
CPU  0 inst:   12000000 cyc:   15482410 now IPC :0.29531: AVG IPC :0.68994: L2-Pf-HR :0.89203: L2-HR :0.88087: (Sim:0h2m50s) 
CPU  0 inst:   13000000 cyc:   18874340 now IPC :0.29482: AVG IPC :0.61500: L2-Pf-HR :0.88237: L2-HR :0.87346: (Sim:0h3m6s) 
CPU  0 inst:   14000001 cyc:   19777813 now IPC :1.10684: AVG IPC :0.63865: L2-Pf-HR :0.89399: L2-HR :0.88613: (Sim:0h3m16s) 
CPU  0 inst:   15000005 cyc:   20408267 now IPC :1.58616: AVG IPC :0.66941: L2-Pf-HR :0.90460: L2-HR :0.89811: (Sim:0h3m26s) 
CPU  0 inst:   16000004 cyc:   21053086 now IPC :1.55082: AVG IPC :0.69774: L2-Pf-HR :0.91276: L2-HR :0.90728: (Sim:0h3m37s) 
CPU  0 inst:   17000000 cyc:   21663239 now IPC :1.63893: AVG IPC :0.72552: L2-Pf-HR :0.91919: L2-HR :0.91450: (Sim:0h3m46s) 
CPU  0 inst:   18000000 cyc:   22274889 now IPC :1.63492: AVG IPC :0.75165: L2-Pf-HR :0.92464: L2-HR :0.92054: (Sim:0h3m57s) 
Finished CPU 0 instr: 16000003 cyc: 21286594 AVG IPC: 0.75165 (Sim time: 0h3m57s)

ChampSim completed all CPUs

[ROI Statistics]
Core_0_instructions 16000003
Core_0_cycles 21286594
Core_0_IPC 0.75165

Core_0_branch_prediction_accuracy 98.24556
Core_0_branch_MPKI 0.63131
Core_0_average_ROB_occupancy_at_mispredict 321.31522

Core_0_L1D_total_access 10592544
Core_0_L1D_total_hit 9876829 L1D_total_Hit Ratio: 0.93243
Core_0_L1D_total_miss 715715
Core_0_L1D_loads 3977628
Core_0_L1D_load_hit 3614871 L1D_load_Hit Ratio: 0.90880
Core_0_L1D_load_miss 362757
Core_0_L1D_RFOs 563013
Core_0_L1D_RFO_hit 537565 L1D_RFO_Hit Ratio: 0.95480
Core_0_L1D_RFO_miss 25448
Core_0_L1D_prefetches 6051903
Core_0_L1D_prefetch_hit 5724393 L1D_prefetch_Hit Ratio: 0.94588
Core_0_L1D_prefetch_miss 327510
Core_0_L1D_writebacks 0
Core_0_L1D_writeback_hit 0 L1D_writeback_Hit Ratio: -nan
Core_0_L1D_writeback_miss 0
Core_0_L1D_prefetch_requested 14294676
Core_0_L1D_prefetch_issued 7677412
Core_0_L1D_prefetch_useful 188058 L1D_Useful Ratio: 0.02449
Core_0_L1D_prefetch_useless 161319
Core_0_L1D_prefetch_late 25219
Core_0_L1D_average_miss_latency 200106.59172

Core_0_L1I_total_access 2267467
Core_0_L1I_total_hit 2262760 L1I_total_Hit Ratio: 0.99792
Core_0_L1I_total_miss 4707
Core_0_L1I_loads 2267467
Core_0_L1I_load_hit 2262760 L1I_load_Hit Ratio: 0.99792
Core_0_L1I_load_miss 4707
Core_0_L1I_RFOs 0
Core_0_L1I_RFO_hit 0 L1I_RFO_Hit Ratio: -nan
Core_0_L1I_RFO_miss 0
Core_0_L1I_prefetches 0
Core_0_L1I_prefetch_hit 0 L1I_prefetch_Hit Ratio: -nan
Core_0_L1I_prefetch_miss 0
Core_0_L1I_writebacks 0
Core_0_L1I_writeback_hit 0 L1I_writeback_Hit Ratio: -nan
Core_0_L1I_writeback_miss 0
Core_0_L1I_prefetch_requested 0
Core_0_L1I_prefetch_issued 0
Core_0_L1I_prefetch_useful 0 L1I_Useful Ratio: -nan
Core_0_L1I_prefetch_useless 0
Core_0_L1I_prefetch_late 0
Core_0_L1I_average_miss_latency 262.79159

Core_0_L2C_total_access 2203223
Core_0_L2C_total_hit 2028164 L2C_total_Hit Ratio: 0.92054
Core_0_L2C_total_miss 175059
Core_0_L2C_loads 344217
Core_0_L2C_load_hit 307074 L2C_load_Hit Ratio: 0.89209
Core_0_L2C_load_miss 37143
Core_0_L2C_RFOs 25444
Core_0_L2C_RFO_hit 17266 L2C_RFO_Hit Ratio: 0.67859
Core_0_L2C_RFO_miss 8178
Core_0_L2C_prefetches 1721397
Core_0_L2C_prefetch_hit 1591670 L2C_prefetch_Hit Ratio: 0.92464
Core_0_L2C_prefetch_miss 129727
Core_0_L2C_writebacks 112165
Core_0_L2C_writeback_hit 112154 L2C_writeback_Hit Ratio: 0.99990
Core_0_L2C_writeback_miss 11
Core_0_L2C_prefetch_requested 5782966
Core_0_L2C_prefetch_issued 2304694
Core_0_L2C_prefetch_useful 58493 L2C_Useful Ratio: 0.02538
Core_0_L2C_prefetch_useless 74322
Core_0_L2C_prefetch_late 13045
Core_0_L2C_average_miss_latency 251.33647

Core_0_LLC_total_access 278445
Core_0_LLC_total_hit 142117 LLC_total_Hit Ratio: 0.51040
Core_0_LLC_total_miss 136328
Core_0_LLC_loads 24116
Core_0_LLC_load_hit 7828 LLC_load_Hit Ratio: 0.32460
Core_0_LLC_load_miss 16288
Core_0_LLC_RFOs 8178
Core_0_LLC_RFO_hit 2 LLC_RFO_Hit Ratio: 0.00024
Core_0_LLC_RFO_miss 8176
Core_0_LLC_prefetches 144504
Core_0_LLC_prefetch_hit 33714 LLC_prefetch_Hit Ratio: 0.23331
Core_0_LLC_prefetch_miss 110790
Core_0_LLC_writebacks 101647
Core_0_LLC_writeback_hit 100573 LLC_writeback_Hit Ratio: 0.98943
Core_0_LLC_writeback_miss 1074
Core_0_LLC_prefetch_requested 0
Core_0_LLC_prefetch_issued 0
Core_0_LLC_prefetch_useful 5799 LLC_Useful Ratio: inf
Core_0_LLC_prefetch_useless 78938
Core_0_LLC_prefetch_late 324
Core_0_LLC_average_miss_latency 272.47211

Core_0_major_page_fault 0
Core_0_minor_page_fault 2382

CPU 0 L1D next line prefetcher final stats
CPU 0 L2C PC-based stride prefetcher final stats
Stride Degree: 15
MK1  MARKOV_LRU_SIZE: 128
MK1  MARKOV_PREDICTION_PERCENTTHRESHOLD: 40.00000
MK1  OUTLIERS_THRESHOLD_Max: 64
MK1  OUTLIERS_THRESHOLD_Min: 32
MK2  MARKOV_LRU_SIZE: 256
MK2  MARKOV_PREDICTION_PERCENTTHRESHOLD: 30.00000
MK2  OUTLIERS_THRESHOLD_Max: 32
MK2  OUTLIERS_THRESHOLD_Min: 16
MK3  MARKOV_LRU_SIZE: 384
MK3  MARKOV_PREDICTION_PERCENTTHRESHOLD: 25.00000
MK3  OUTLIERS_THRESHOLD_Max: 16
MK3  OUTLIERS_THRESHOLD_Min: 8
MK4  MARKOV_LRU_SIZE: 512
MK4  MARKOV_PREDICTION_PERCENTTHRESHOLD: 20.00000
MK4  OUTLIERS_THRESHOLD_Max: 8
MK4  OUTLIERS_THRESHOLD_Min: 0
IPStride Degree/Access Ratio: 4.47924
MK1 IPDEltaMarkov  Degree/Access Ratio: 0.39990
MK2 IPDEltaMarkov  Degree/Access Ratio: 0.74772
MK3 IPDEltaMarkov  Degree/Access Ratio: 1.14657
MK4 IPDEltaMarkov  Degree/Access Ratio: 1.46824
Channel_0_RQ_row_buffer_hit 83131
Channel_0_RQ_row_buffer_miss 52103
Channel_0_WQ_row_buffer_hit 25049
Channel_0_WQ_row_buffer_miss 41469
Channel_0_WQ_full 224
Channel_0_dbus_congested 142543

avg_congested_cycle 10

EzSearch AVG IPC :0.75165: L2-Pf-HR :0.92464 : L2-HR :0.92054 Uful:0.02538
     > Finished combination: TraceType=770-tot Sim:16000000 Prefetcher=L2029-SecTOP-L2-MultiMarkovDelta_ip_stride_v4-IPStrS256 L1=next_line
