TRACE: [2366000000][OPT-6_7B]_[h32][s1024][d128] Warmup: 2000000 NumTraces: 2366000000
L1:next_line:L2:no
*************************************************
   ChampSim Multicore Out-of-Order Simulator
   Last compiled: Oct 22 2024 11:25:28
*************************************************

trace_0 770-tot_memTraces_v3/memTraces[2366000000][OPT-6_7B]_[h32][s1024][d128].champsim.xz
CPU 0 L1D next line prefetcher
MAIN.cc ln 751 stats print skipped
CPU  0 inst:    1000002 cyc:     506024 now IPC :1.97619: AVG IPC :1.97619: L2-Pf-HR :0.45108: L2-HR :0.55689: (Sim:0h0m4s) 
CPU  0 inst:    2000000 cyc:     997047 now IPC :2.03656: AVG IPC :2.00592: L2-Pf-HR :0.57336: L2-HR :0.64861: (Sim:0h0m8s) 

Warmup complete CPU  0 instructions:    2000004 cycles:     997048 (Simulation time: 0 hr 0 min 8 sec) 

CPU  0 inst:    3000001 cyc:    1572271 now IPC :1.73845: AVG IPC :1.73845: L2-Pf-HR :0.70106: L2-HR :0.73860: (Sim:0h0m12s) 
CPU  0 inst:    4000005 cyc:    2135276 now IPC :1.77619: AVG IPC :1.75712: L2-Pf-HR :0.70743: L2-HR :0.74185: (Sim:0h0m17s) 
CPU  0 inst:    5000005 cyc:    2707430 now IPC :1.74778: AVG IPC :1.75399: L2-Pf-HR :0.70342: L2-HR :0.74419: (Sim:0h0m21s) 
CPU  0 inst:    6000001 cyc:    3279680 now IPC :1.74748: AVG IPC :1.75236: L2-Pf-HR :0.71056: L2-HR :0.74770: (Sim:0h0m25s) 
CPU  0 inst:    7000005 cyc:    3849615 now IPC :1.75459: AVG IPC :1.75281: L2-Pf-HR :0.71658: L2-HR :0.75102: (Sim:0h0m30s) 
CPU  0 inst:    8000000 cyc:    4421158 now IPC :1.74964: AVG IPC :1.75228: L2-Pf-HR :0.71721: L2-HR :0.75070: (Sim:0h0m34s) 
CPU  0 inst:    9000005 cyc:    4990100 now IPC :1.75766: AVG IPC :1.75305: L2-Pf-HR :0.71727: L2-HR :0.74982: (Sim:0h0m39s) 
CPU  0 inst:   10000000 cyc:    5560898 now IPC :1.75192: AVG IPC :1.75291: L2-Pf-HR :0.71620: L2-HR :0.74941: (Sim:0h0m45s) 
CPU  0 inst:   11000003 cyc:    6135482 now IPC :1.74039: AVG IPC :1.75151: L2-Pf-HR :0.71440: L2-HR :0.74832: (Sim:0h0m49s) 
CPU  0 inst:   12000002 cyc:    6713471 now IPC :1.73013: AVG IPC :1.74935: L2-Pf-HR :0.72352: L2-HR :0.75069: (Sim:0h0m54s) 
CPU  0 inst:   13000003 cyc:    7387828 now IPC :1.48290: AVG IPC :1.72123: L2-Pf-HR :0.71049: L2-HR :0.74607: (Sim:0h0m59s) 
CPU  0 inst:   14000005 cyc:    7946003 now IPC :1.79156: AVG IPC :1.72688: L2-Pf-HR :0.71078: L2-HR :0.74621: (Sim:0h1m3s) 
CPU  0 inst:   15000005 cyc:    8502322 now IPC :1.79753: AVG IPC :1.73212: L2-Pf-HR :0.71214: L2-HR :0.74641: (Sim:0h1m8s) 
CPU  0 inst:   16000000 cyc:    9046308 now IPC :1.83827: AVG IPC :1.73929: L2-Pf-HR :0.71261: L2-HR :0.74634: (Sim:0h1m13s) 
CPU  0 inst:   17000000 cyc:    9604077 now IPC :1.79286: AVG IPC :1.74276: L2-Pf-HR :0.71344: L2-HR :0.74664: (Sim:0h1m20s) 
CPU  0 inst:   18000001 cyc:   10162052 now IPC :1.79220: AVG IPC :1.74577: L2-Pf-HR :0.71611: L2-HR :0.74794: (Sim:0h1m27s) 
CPU  0 inst:   19000001 cyc:   10716340 now IPC :1.80412: AVG IPC :1.74910: L2-Pf-HR :0.71818: L2-HR :0.74878: (Sim:0h1m34s) 
CPU  0 inst:   20000000 cyc:   11274865 now IPC :1.79043: AVG IPC :1.75134: L2-Pf-HR :0.71901: L2-HR :0.74897: (Sim:0h1m41s) 
CPU  0 inst:   21000000 cyc:   11824503 now IPC :1.81938: AVG IPC :1.75480: L2-Pf-HR :0.71933: L2-HR :0.74896: (Sim:0h1m48s) 
CPU  0 inst:   22000001 cyc:   12364872 now IPC :1.85059: AVG IPC :1.75935: L2-Pf-HR :0.71933: L2-HR :0.74875: (Sim:0h1m55s) 
CPU  0 inst:   23000005 cyc:   12915331 now IPC :1.81667: AVG IPC :1.76200: L2-Pf-HR :0.71955: L2-HR :0.74865: (Sim:0h1m59s) 
CPU  0 inst:   24000000 cyc:   13574661 now IPC :1.51668: AVG IPC :1.74914: L2-Pf-HR :0.72082: L2-HR :0.74838: (Sim:0h2m4s) 
CPU  0 inst:   25000002 cyc:   14115190 now IPC :1.85004: AVG IPC :1.75330: L2-Pf-HR :0.72205: L2-HR :0.75153: (Sim:0h2m9s) 
CPU  0 inst:   26000003 cyc:   14651325 now IPC :1.86520: AVG IPC :1.75769: L2-Pf-HR :0.72303: L2-HR :0.75437: (Sim:0h2m13s) 
CPU  0 inst:   27000005 cyc:   15191448 now IPC :1.85143: AVG IPC :1.76126: L2-Pf-HR :0.72422: L2-HR :0.75720: (Sim:0h2m18s) 
CPU  0 inst:   28000003 cyc:   15728795 now IPC :1.86099: AVG IPC :1.76490: L2-Pf-HR :0.72617: L2-HR :0.76036: (Sim:0h2m23s) 
CPU  0 inst:   29000005 cyc:   16263016 now IPC :1.87189: AVG IPC :1.76864: L2-Pf-HR :0.72793: L2-HR :0.76320: (Sim:0h2m28s) 
CPU  0 inst:   30000000 cyc:   16800022 now IPC :1.86217: AVG IPC :1.77182: L2-Pf-HR :0.72887: L2-HR :0.76560: (Sim:0h2m32s) 
CPU  0 inst:   31000002 cyc:   17339841 now IPC :1.85248: AVG IPC :1.77448: L2-Pf-HR :0.72975: L2-HR :0.76771: (Sim:0h2m36s) 
CPU  0 inst:   32000000 cyc:   18072452 now IPC :1.36498: AVG IPC :1.75691: L2-Pf-HR :0.72620: L2-HR :0.76539: (Sim:0h2m41s) 
CPU  0 inst:   33000001 cyc:   18657877 now IPC :1.70816: AVG IPC :1.75530: L2-Pf-HR :0.72485: L2-HR :0.76452: (Sim:0h2m45s) 
CPU  0 inst:   34000003 cyc:   19243907 now IPC :1.70640: AVG IPC :1.75373: L2-Pf-HR :0.72423: L2-HR :0.76356: (Sim:0h2m50s) 
CPU  0 inst:   35000000 cyc:   19818016 now IPC :1.74182: AVG IPC :1.75336: L2-Pf-HR :0.72357: L2-HR :0.76272: (Sim:0h2m56s) 
CPU  0 inst:   36000001 cyc:   20406045 now IPC :1.70060: AVG IPC :1.75176: L2-Pf-HR :0.72291: L2-HR :0.76192: (Sim:0h3m3s) 
CPU  0 inst:   37000000 cyc:   20986766 now IPC :1.72200: AVG IPC :1.75090: L2-Pf-HR :0.72297: L2-HR :0.76139: (Sim:0h3m10s) 
CPU  0 inst:   38000004 cyc:   21569543 now IPC :1.71593: AVG IPC :1.74991: L2-Pf-HR :0.72294: L2-HR :0.76108: (Sim:0h3m17s) 
CPU  0 inst:   39000000 cyc:   22152630 now IPC :1.71500: AVG IPC :1.74895: L2-Pf-HR :0.72327: L2-HR :0.76077: (Sim:0h3m24s) 
CPU  0 inst:   40000000 cyc:   22737052 now IPC :1.71109: AVG IPC :1.74793: L2-Pf-HR :0.72300: L2-HR :0.76020: (Sim:0h3m31s) 
CPU  0 inst:   41000002 cyc:   23321463 now IPC :1.71113: AVG IPC :1.74697: L2-Pf-HR :0.72271: L2-HR :0.75968: (Sim:0h3m38s) 
CPU  0 inst:   42000001 cyc:   23900581 now IPC :1.72676: AVG IPC :1.74646: L2-Pf-HR :0.72235: L2-HR :0.75908: (Sim:0h3m45s) 
CPU  0 inst:   43000002 cyc:   24476491 now IPC :1.73638: AVG IPC :1.74621: L2-Pf-HR :0.72217: L2-HR :0.75868: (Sim:0h3m52s) 
CPU  0 inst:   44000000 cyc:   25213192 now IPC :1.35740: AVG IPC :1.73438: L2-Pf-HR :0.72076: L2-HR :0.75753: (Sim:0h4m0s) 
CPU  0 inst:   45000000 cyc:   25769850 now IPC :1.79644: AVG IPC :1.73577: L2-Pf-HR :0.72082: L2-HR :0.75746: (Sim:0h4m6s) 
CPU  0 inst:   46000005 cyc:   26326024 now IPC :1.79801: AVG IPC :1.73714: L2-Pf-HR :0.72136: L2-HR :0.75746: (Sim:0h4m13s) 
CPU  0 inst:   47000002 cyc:   26872926 now IPC :1.82848: AVG IPC :1.73907: L2-Pf-HR :0.72165: L2-HR :0.75731: (Sim:0h4m20s) 
CPU  0 inst:   48000000 cyc:   27418857 now IPC :1.83173: AVG IPC :1.74099: L2-Pf-HR :0.72187: L2-HR :0.75721: (Sim:0h4m27s) 
CPU  0 inst:   49000002 cyc:   27978245 now IPC :1.78767: AVG IPC :1.74195: L2-Pf-HR :0.72276: L2-HR :0.75750: (Sim:0h4m34s) 
CPU  0 inst:   50000001 cyc:   28531225 now IPC :1.80838: AVG IPC :1.74329: L2-Pf-HR :0.72347: L2-HR :0.75765: (Sim:0h4m41s) 
CPU  0 inst:   51000003 cyc:   29076669 now IPC :1.83337: AVG IPC :1.74504: L2-Pf-HR :0.72423: L2-HR :0.75780: (Sim:0h4m48s) 
CPU  0 inst:   52000003 cyc:   29623645 now IPC :1.82823: AVG IPC :1.74663: L2-Pf-HR :0.72456: L2-HR :0.75775: (Sim:0h4m53s) 
CPU  0 inst:   53000003 cyc:   30160460 now IPC :1.86284: AVG IPC :1.74877: L2-Pf-HR :0.72479: L2-HR :0.75758: (Sim:0h4m57s) 
CPU  0 inst:   54000003 cyc:   30702921 now IPC :1.84345: AVG IPC :1.75050: L2-Pf-HR :0.72495: L2-HR :0.75749: (Sim:0h5m2s) 
CPU  0 inst:   55000002 cyc:   31242583 now IPC :1.85301: AVG IPC :1.75232: L2-Pf-HR :0.72589: L2-HR :0.75765: (Sim:0h5m6s) 
CPU  0 inst:   56000000 cyc:   31902847 now IPC :1.51454: AVG IPC :1.74724: L2-Pf-HR :0.72574: L2-HR :0.75768: (Sim:0h5m11s) 
CPU  0 inst:   57000002 cyc:   32441550 now IPC :1.85631: AVG IPC :1.74911: L2-Pf-HR :0.72620: L2-HR :0.75904: (Sim:0h5m15s) 
CPU  0 inst:   58000001 cyc:   32975775 now IPC :1.87187: AVG IPC :1.75116: L2-Pf-HR :0.72666: L2-HR :0.76028: (Sim:0h5m19s) 
CPU  0 inst:   59000003 cyc:   33512403 now IPC :1.86349: AVG IPC :1.75302: L2-Pf-HR :0.72735: L2-HR :0.76165: (Sim:0h5m23s) 
CPU  0 inst:   60000001 cyc:   34052501 now IPC :1.85151: AVG IPC :1.75463: L2-Pf-HR :0.72835: L2-HR :0.76307: (Sim:0h5m27s) 
CPU  0 inst:   61000001 cyc:   34586664 now IPC :1.87209: AVG IPC :1.75650: L2-Pf-HR :0.72885: L2-HR :0.76432: (Sim:0h5m32s) 
CPU  0 inst:   62000004 cyc:   35120207 now IPC :1.87427: AVG IPC :1.75834: L2-Pf-HR :0.72936: L2-HR :0.76553: (Sim:0h5m36s) 
CPU  0 inst:   63000003 cyc:   35656453 now IPC :1.86481: AVG IPC :1.75998: L2-Pf-HR :0.73004: L2-HR :0.76674: (Sim:0h5m40s) 
CPU  0 inst:   64000000 cyc:   36414812 now IPC :1.31863: AVG IPC :1.75053: L2-Pf-HR :0.72737: L2-HR :0.76480: (Sim:0h5m44s) 
CPU  0 inst:   65000005 cyc:   36999139 now IPC :1.71138: AVG IPC :1.74990: L2-Pf-HR :0.72667: L2-HR :0.76427: (Sim:0h5m49s) 
CPU  0 inst:   66000001 cyc:   37576855 now IPC :1.73095: AVG IPC :1.74960: L2-Pf-HR :0.72632: L2-HR :0.76385: (Sim:0h5m53s) 
CPU  0 inst:   67000000 cyc:   38163486 now IPC :1.70465: AVG IPC :1.74889: L2-Pf-HR :0.72589: L2-HR :0.76345: (Sim:0h5m57s) 
CPU  0 inst:   68000002 cyc:   38739881 now IPC :1.73492: AVG IPC :1.74868: L2-Pf-HR :0.72551: L2-HR :0.76303: (Sim:0h6m1s) 
CPU  0 inst:   69000001 cyc:   39323814 now IPC :1.71252: AVG IPC :1.74813: L2-Pf-HR :0.72562: L2-HR :0.76285: (Sim:0h6m6s) 
CPU  0 inst:   70000003 cyc:   39907723 now IPC :1.71260: AVG IPC :1.74759: L2-Pf-HR :0.72562: L2-HR :0.76261: (Sim:0h6m10s) 
CPU  0 inst:   71000002 cyc:   40487662 now IPC :1.72432: AVG IPC :1.74725: L2-Pf-HR :0.72558: L2-HR :0.76236: (Sim:0h6m14s) 
CPU  0 inst:   72000000 cyc:   41079172 now IPC :1.69059: AVG IPC :1.74641: L2-Pf-HR :0.72528: L2-HR :0.76204: (Sim:0h6m18s) 
CPU  0 inst:   73000000 cyc:   41656076 now IPC :1.73339: AVG IPC :1.74623: L2-Pf-HR :0.72494: L2-HR :0.76167: (Sim:0h6m22s) 
CPU  0 inst:   74000002 cyc:   42230797 now IPC :1.73998: AVG IPC :1.74614: L2-Pf-HR :0.72464: L2-HR :0.76133: (Sim:0h6m27s) 
CPU  0 inst:   75000000 cyc:   42800762 now IPC :1.75449: AVG IPC :1.74626: L2-Pf-HR :0.72521: L2-HR :0.76122: (Sim:0h6m31s) 
CPU  0 inst:   76000002 cyc:   43526733 now IPC :1.37747: AVG IPC :1.73996: L2-Pf-HR :0.72383: L2-HR :0.76048: (Sim:0h6m35s) 
CPU  0 inst:   77000002 cyc:   44081680 now IPC :1.80197: AVG IPC :1.74076: L2-Pf-HR :0.72390: L2-HR :0.76046: (Sim:0h6m39s) 
CPU  0 inst:   78000002 cyc:   44633432 now IPC :1.81241: AVG IPC :1.74167: L2-Pf-HR :0.72396: L2-HR :0.76034: (Sim:0h6m43s) 
CPU  0 inst:   79000004 cyc:   45181760 now IPC :1.82373: AVG IPC :1.74268: L2-Pf-HR :0.72404: L2-HR :0.76026: (Sim:0h6m48s) 
CPU  0 inst:   80000000 cyc:   45733412 now IPC :1.81273: AVG IPC :1.74355: L2-Pf-HR :0.72422: L2-HR :0.76025: (Sim:0h6m52s) 
CPU  0 inst:   81000001 cyc:   46290180 now IPC :1.79608: AVG IPC :1.74419: L2-Pf-HR :0.72457: L2-HR :0.76031: (Sim:0h6m56s) 
CPU  0 inst:   82000003 cyc:   46839842 now IPC :1.81930: AVG IPC :1.74509: L2-Pf-HR :0.72506: L2-HR :0.76041: (Sim:0h7m0s) 
CPU  0 inst:   83000003 cyc:   47387871 now IPC :1.82472: AVG IPC :1.74603: L2-Pf-HR :0.72538: L2-HR :0.76041: (Sim:0h7m4s) 
CPU  0 inst:   84000003 cyc:   47935674 now IPC :1.82547: AVG IPC :1.74696: L2-Pf-HR :0.72549: L2-HR :0.76025: (Sim:0h7m8s) 
CPU  0 inst:   85000002 cyc:   48480368 now IPC :1.83589: AVG IPC :1.74798: L2-Pf-HR :0.72554: L2-HR :0.76020: (Sim:0h7m12s) 
CPU  0 inst:   86000005 cyc:   49031800 now IPC :1.81347: AVG IPC :1.74873: L2-Pf-HR :0.72570: L2-HR :0.76015: (Sim:0h7m16s) 
CPU  0 inst:   87000003 cyc:   49661202 now IPC :1.58881: AVG IPC :1.74667: L2-Pf-HR :0.72601: L2-HR :0.75991: (Sim:0h7m21s) 
CPU  0 inst:   88000000 cyc:   50233721 now IPC :1.74666: AVG IPC :1.74667: L2-Pf-HR :0.72616: L2-HR :0.76052: (Sim:0h7m25s) 
CPU  0 inst:   89000000 cyc:   50773503 now IPC :1.85260: AVG IPC :1.74781: L2-Pf-HR :0.72646: L2-HR :0.76125: (Sim:0h7m29s) 
CPU  0 inst:   90000001 cyc:   51305374 now IPC :1.88016: AVG IPC :1.74921: L2-Pf-HR :0.72677: L2-HR :0.76205: (Sim:0h7m33s) 
CPU  0 inst:   91000000 cyc:   51841147 now IPC :1.86646: AVG IPC :1.75045: L2-Pf-HR :0.72729: L2-HR :0.76291: (Sim:0h7m37s) 
CPU  0 inst:   92000001 cyc:   52379711 now IPC :1.85679: AVG IPC :1.75156: L2-Pf-HR :0.72784: L2-HR :0.76378: (Sim:0h7m41s) 
CPU  0 inst:   93000002 cyc:   52920192 now IPC :1.85021: AVG IPC :1.75259: L2-Pf-HR :0.72814: L2-HR :0.76448: (Sim:0h7m45s) 
CPU  0 inst:   94000001 cyc:   53454468 now IPC :1.87169: AVG IPC :1.75380: L2-Pf-HR :0.72842: L2-HR :0.76519: (Sim:0h7m49s) 
CPU  0 inst:   95000005 cyc:   54152279 now IPC :1.43306: AVG IPC :1.74959: L2-Pf-HR :0.72747: L2-HR :0.76465: (Sim:0h7m54s) 
CPU  0 inst:   96000000 cyc:   54761854 now IPC :1.64048: AVG IPC :1.74836: L2-Pf-HR :0.72689: L2-HR :0.76418: (Sim:0h7m58s) 
CPU  0 inst:   97000000 cyc:   55342537 now IPC :1.72211: AVG IPC :1.74808: L2-Pf-HR :0.72658: L2-HR :0.76385: (Sim:0h8m2s) 
CPU  0 inst:   98000001 cyc:   55929719 now IPC :1.70305: AVG IPC :1.74759: L2-Pf-HR :0.72621: L2-HR :0.76350: (Sim:0h8m6s) 
CPU  0 inst:   99000000 cyc:   56503999 now IPC :1.74131: AVG IPC :1.74753: L2-Pf-HR :0.72579: L2-HR :0.76317: (Sim:0h8m10s) 
CPU  0 inst:  100000000 cyc:   57093026 now IPC :1.69772: AVG IPC :1.74701: L2-Pf-HR :0.72556: L2-HR :0.76293: (Sim:0h8m15s) 
CPU  0 inst:  101000002 cyc:   57680079 now IPC :1.70343: AVG IPC :1.74655: L2-Pf-HR :0.72545: L2-HR :0.76269: (Sim:0h8m19s) 
CPU  0 inst:  102000003 cyc:   58256784 now IPC :1.73399: AVG IPC :1.74643: L2-Pf-HR :0.72560: L2-HR :0.76255: (Sim:0h8m23s) 
CPU  0 inst:  103000000 cyc:   58850810 now IPC :1.68342: AVG IPC :1.74578: L2-Pf-HR :0.72538: L2-HR :0.76226: (Sim:0h8m27s) 
CPU  0 inst:  104000000 cyc:   59425524 now IPC :1.74000: AVG IPC :1.74572: L2-Pf-HR :0.72506: L2-HR :0.76195: (Sim:0h8m32s) 
CPU  0 inst:  105000004 cyc:   60005689 now IPC :1.72365: AVG IPC :1.74551: L2-Pf-HR :0.72479: L2-HR :0.76169: (Sim:0h8m36s) 
CPU  0 inst:  106000002 cyc:   60597294 now IPC :1.69031: AVG IPC :1.74496: L2-Pf-HR :0.72453: L2-HR :0.76137: (Sim:0h8m40s) 
CPU  0 inst:  107000004 cyc:   61307033 now IPC :1.40897: AVG IPC :1.74101: L2-Pf-HR :0.72402: L2-HR :0.76091: (Sim:0h8m44s) 
CPU  0 inst:  108000002 cyc:   61877950 now IPC :1.75156: AVG IPC :1.74110: L2-Pf-HR :0.72386: L2-HR :0.76078: (Sim:0h8m49s) 
CPU  0 inst:  109000002 cyc:   62437077 now IPC :1.78850: AVG IPC :1.74154: L2-Pf-HR :0.72381: L2-HR :0.76063: (Sim:0h8m53s) 
CPU  0 inst:  110000000 cyc:   62990436 now IPC :1.80714: AVG IPC :1.74212: L2-Pf-HR :0.72380: L2-HR :0.76051: (Sim:0h8m57s) 
CPU  0 inst:  111000001 cyc:   63545782 now IPC :1.80068: AVG IPC :1.74264: L2-Pf-HR :0.72377: L2-HR :0.76042: (Sim:0h9m1s) 
CPU  0 inst:  112000000 cyc:   64102932 now IPC :1.79485: AVG IPC :1.74310: L2-Pf-HR :0.72384: L2-HR :0.76033: (Sim:0h9m5s) 
CPU  0 inst:  113000004 cyc:   64654308 now IPC :1.81365: AVG IPC :1.74371: L2-Pf-HR :0.72406: L2-HR :0.76034: (Sim:0h9m9s) 
CPU  0 inst:  114000003 cyc:   65204095 now IPC :1.81888: AVG IPC :1.74436: L2-Pf-HR :0.72434: L2-HR :0.76034: (Sim:0h9m13s) 
CPU  0 inst:  115000002 cyc:   65754642 now IPC :1.81637: AVG IPC :1.74497: L2-Pf-HR :0.72432: L2-HR :0.76016: (Sim:0h9m17s) 
CPU  0 inst:  116000002 cyc:   66301121 now IPC :1.82990: AVG IPC :1.74568: L2-Pf-HR :0.72431: L2-HR :0.76006: (Sim:0h9m22s) 
CPU  0 inst:  117000002 cyc:   66847123 now IPC :1.83150: AVG IPC :1.74639: L2-Pf-HR :0.72426: L2-HR :0.75995: (Sim:0h9m28s) 
CPU  0 inst:  118000004 cyc:   67394359 now IPC :1.82737: AVG IPC :1.74706: L2-Pf-HR :0.72437: L2-HR :0.75985: (Sim:0h9m35s) 
CPU  0 inst:  119000003 cyc:   68060434 now IPC :1.50133: AVG IPC :1.74462: L2-Pf-HR :0.72447: L2-HR :0.75983: (Sim:0h9m42s) 
CPU  0 inst:  120000000 cyc:   68598677 now IPC :1.85789: AVG IPC :1.74552: L2-Pf-HR :0.72470: L2-HR :0.76040: (Sim:0h9m49s) 
CPU  0 inst:  121000003 cyc:   69137594 now IPC :1.85558: AVG IPC :1.74639: L2-Pf-HR :0.72494: L2-HR :0.76095: (Sim:0h9m56s) 
CPU  0 inst:  122000001 cyc:   69676608 now IPC :1.85524: AVG IPC :1.74724: L2-Pf-HR :0.72523: L2-HR :0.76156: (Sim:0h10m3s) 
CPU  0 inst:  123000000 cyc:   70214395 now IPC :1.85947: AVG IPC :1.74812: L2-Pf-HR :0.72569: L2-HR :0.76226: (Sim:0h10m10s) 
CPU  0 inst:  124000004 cyc:   70753219 now IPC :1.85590: AVG IPC :1.74895: L2-Pf-HR :0.72598: L2-HR :0.76285: (Sim:0h10m17s) 
CPU  0 inst:  125000000 cyc:   71292115 now IPC :1.85564: AVG IPC :1.74977: L2-Pf-HR :0.72622: L2-HR :0.76343: (Sim:0h10m24s) 
CPU  0 inst:  126000001 cyc:   71834028 now IPC :1.84532: AVG IPC :1.75050: L2-Pf-HR :0.72653: L2-HR :0.76399: (Sim:0h10m31s) 
CPU  0 inst:  127000003 cyc:   72579842 now IPC :1.34082: AVG IPC :1.74623: L2-Pf-HR :0.72551: L2-HR :0.76320: (Sim:0h10m38s) 
CPU  0 inst:  128000000 cyc:   73154633 now IPC :1.73976: AVG IPC :1.74618: L2-Pf-HR :0.72537: L2-HR :0.76306: (Sim:0h10m45s) 
CPU  0 inst:  129000001 cyc:   73741768 now IPC :1.70319: AVG IPC :1.74583: L2-Pf-HR :0.72526: L2-HR :0.76287: (Sim:0h10m51s) 
CPU  0 inst:  130000001 cyc:   74314196 now IPC :1.74694: AVG IPC :1.74584: L2-Pf-HR :0.72508: L2-HR :0.76269: (Sim:0h10m55s) 
CPU  0 inst:  131000004 cyc:   74898168 now IPC :1.71242: AVG IPC :1.74558: L2-Pf-HR :0.72497: L2-HR :0.76254: (Sim:0h10m59s) 
CPU  0 inst:  132000001 cyc:   75484925 now IPC :1.70428: AVG IPC :1.74525: L2-Pf-HR :0.72495: L2-HR :0.76244: (Sim:0h11m3s) 
CPU  0 inst:  133000003 cyc:   76062075 now IPC :1.73266: AVG IPC :1.74515: L2-Pf-HR :0.72511: L2-HR :0.76241: (Sim:0h11m7s) 
CPU  0 inst:  134000004 cyc:   76649504 now IPC :1.70234: AVG IPC :1.74482: L2-Pf-HR :0.72517: L2-HR :0.76231: (Sim:0h11m11s) 
CPU  0 inst:  135000004 cyc:   77227872 now IPC :1.72900: AVG IPC :1.74470: L2-Pf-HR :0.72510: L2-HR :0.76213: (Sim:0h11m16s) 
CPU  0 inst:  136000000 cyc:   77808370 now IPC :1.72265: AVG IPC :1.74453: L2-Pf-HR :0.72496: L2-HR :0.76198: (Sim:0h11m20s) 
CPU  0 inst:  137000002 cyc:   78393537 now IPC :1.70892: AVG IPC :1.74427: L2-Pf-HR :0.72475: L2-HR :0.76179: (Sim:0h11m24s) 
CPU  0 inst:  138000004 cyc:   78966154 now IPC :1.74637: AVG IPC :1.74428: L2-Pf-HR :0.72496: L2-HR :0.76175: (Sim:0h11m28s) 
CPU  0 inst:  139000002 cyc:   79695686 now IPC :1.37074: AVG IPC :1.74082: L2-Pf-HR :0.72438: L2-HR :0.76137: (Sim:0h11m32s) 
CPU  0 inst:  140000001 cyc:   80253932 now IPC :1.79132: AVG IPC :1.74117: L2-Pf-HR :0.72438: L2-HR :0.76132: (Sim:0h11m36s) 
CPU  0 inst:  141000000 cyc:   80811309 now IPC :1.79412: AVG IPC :1.74154: L2-Pf-HR :0.72449: L2-HR :0.76129: (Sim:0h11m41s) 
CPU  0 inst:  142000004 cyc:   81360009 now IPC :1.82250: AVG IPC :1.74210: L2-Pf-HR :0.72456: L2-HR :0.76125: (Sim:0h11m45s) 
CPU  0 inst:  143000003 cyc:   81908085 now IPC :1.82456: AVG IPC :1.74265: L2-Pf-HR :0.72458: L2-HR :0.76117: (Sim:0h11m49s) 
CPU  0 inst:  144000000 cyc:   82463358 now IPC :1.80091: AVG IPC :1.74305: L2-Pf-HR :0.72490: L2-HR :0.76124: (Sim:0h11m54s) 
CPU  0 inst:  145000000 cyc:   83010212 now IPC :1.82864: AVG IPC :1.74362: L2-Pf-HR :0.72523: L2-HR :0.76128: (Sim:0h11m58s) 
CPU  0 inst:  146000004 cyc:   83561383 now IPC :1.81433: AVG IPC :1.74409: L2-Pf-HR :0.72542: L2-HR :0.76126: (Sim:0h12m2s) 
CPU  0 inst:  147000004 cyc:   84110846 now IPC :1.81996: AVG IPC :1.74460: L2-Pf-HR :0.72553: L2-HR :0.76121: (Sim:0h12m6s) 
CPU  0 inst:  148000004 cyc:   84652298 now IPC :1.84689: AVG IPC :1.74526: L2-Pf-HR :0.72556: L2-HR :0.76115: (Sim:0h12m11s) 
CPU  0 inst:  149000001 cyc:   85197407 now IPC :1.83449: AVG IPC :1.74584: L2-Pf-HR :0.72560: L2-HR :0.76109: (Sim:0h12m15s) 
CPU  0 inst:  150000005 cyc:   85750180 now IPC :1.80907: AVG IPC :1.74625: L2-Pf-HR :0.72630: L2-HR :0.76120: (Sim:0h12m19s) 
CPU  0 inst:  151000002 cyc:   86393353 now IPC :1.55479: AVG IPC :1.74481: L2-Pf-HR :0.72588: L2-HR :0.76128: (Sim:0h12m24s) 
CPU  0 inst:  152000000 cyc:   86924852 now IPC :1.88147: AVG IPC :1.74565: L2-Pf-HR :0.72607: L2-HR :0.76174: (Sim:0h12m28s) 
CPU  0 inst:  153000003 cyc:   87458079 now IPC :1.87538: AVG IPC :1.74645: L2-Pf-HR :0.72625: L2-HR :0.76218: (Sim:0h12m32s) 
CPU  0 inst:  154000005 cyc:   87996889 now IPC :1.85595: AVG IPC :1.74713: L2-Pf-HR :0.72657: L2-HR :0.76269: (Sim:0h12m37s) 
CPU  0 inst:  155000000 cyc:   88534104 now IPC :1.86144: AVG IPC :1.74783: L2-Pf-HR :0.72693: L2-HR :0.76322: (Sim:0h12m41s) 
CPU  0 inst:  156000003 cyc:   89067073 now IPC :1.87629: AVG IPC :1.74861: L2-Pf-HR :0.72713: L2-HR :0.76369: (Sim:0h12m45s) 
CPU  0 inst:  157000000 cyc:   89600866 now IPC :1.87338: AVG IPC :1.74936: L2-Pf-HR :0.72732: L2-HR :0.76416: (Sim:0h12m49s) 
CPU  0 inst:  158000005 cyc:   90275634 now IPC :1.48200: AVG IPC :1.74734: L2-Pf-HR :0.72685: L2-HR :0.76397: (Sim:0h12m54s) 
CPU  0 inst:  159000001 cyc:   90900438 now IPC :1.60050: AVG IPC :1.74632: L2-Pf-HR :0.72646: L2-HR :0.76372: (Sim:0h12m58s) 
CPU  0 inst:  160000000 cyc:   91490766 now IPC :1.69397: AVG IPC :1.74598: L2-Pf-HR :0.72619: L2-HR :0.76351: (Sim:0h13m3s) 
CPU  0 inst:  161000002 cyc:   92068890 now IPC :1.72974: AVG IPC :1.74587: L2-Pf-HR :0.72605: L2-HR :0.76330: (Sim:0h13m7s) 
CPU  0 inst:  162000004 cyc:   92647358 now IPC :1.72871: AVG IPC :1.74577: L2-Pf-HR :0.72587: L2-HR :0.76310: (Sim:0h13m11s) 
CPU  0 inst:  163000000 cyc:   93233703 now IPC :1.70547: AVG IPC :1.74551: L2-Pf-HR :0.72569: L2-HR :0.76293: (Sim:0h13m16s) 
CPU  0 inst:  164000002 cyc:   93814634 now IPC :1.72138: AVG IPC :1.74536: L2-Pf-HR :0.72567: L2-HR :0.76283: (Sim:0h13m20s) 
CPU  0 inst:  165000002 cyc:   94404297 now IPC :1.69588: AVG IPC :1.74505: L2-Pf-HR :0.72566: L2-HR :0.76273: (Sim:0h13m24s) 
CPU  0 inst:  166000000 cyc:   94982018 now IPC :1.73094: AVG IPC :1.74496: L2-Pf-HR :0.72555: L2-HR :0.76258: (Sim:0h13m29s) 
CPU  0 inst:  167000002 cyc:   95561903 now IPC :1.72448: AVG IPC :1.74483: L2-Pf-HR :0.72544: L2-HR :0.76240: (Sim:0h13m33s) 
CPU  0 inst:  168000000 cyc:   96148519 now IPC :1.70469: AVG IPC :1.74459: L2-Pf-HR :0.72524: L2-HR :0.76222: (Sim:0h13m37s) 
CPU  0 inst:  169000000 cyc:   96731514 now IPC :1.71528: AVG IPC :1.74441: L2-Pf-HR :0.72511: L2-HR :0.76208: (Sim:0h13m41s) 
CPU  0 inst:  170000002 cyc:   97425690 now IPC :1.44056: AVG IPC :1.74222: L2-Pf-HR :0.72481: L2-HR :0.76181: (Sim:0h13m46s) 
CPU  0 inst:  171000004 cyc:   98020140 now IPC :1.68223: AVG IPC :1.74185: L2-Pf-HR :0.72467: L2-HR :0.76170: (Sim:0h13m50s) 
CPU  0 inst:  172000001 cyc:   98582791 now IPC :1.77730: AVG IPC :1.74206: L2-Pf-HR :0.72472: L2-HR :0.76167: (Sim:0h13m54s) 
CPU  0 inst:  173000001 cyc:   99137306 now IPC :1.80338: AVG IPC :1.74240: L2-Pf-HR :0.72477: L2-HR :0.76162: (Sim:0h13m58s) 
CPU  0 inst:  174000000 cyc:   99680830 now IPC :1.83984: AVG IPC :1.74294: L2-Pf-HR :0.72476: L2-HR :0.76154: (Sim:0h14m2s) 
CPU  0 inst:  175000004 cyc:  100232111 now IPC :1.81396: AVG IPC :1.74334: L2-Pf-HR :0.72490: L2-HR :0.76156: (Sim:0h14m6s) 
CPU  0 inst:  176000000 cyc:  100784435 now IPC :1.81052: AVG IPC :1.74371: L2-Pf-HR :0.72508: L2-HR :0.76157: (Sim:0h14m10s) 
CPU  0 inst:  177000002 cyc:  101331997 now IPC :1.82628: AVG IPC :1.74416: L2-Pf-HR :0.72526: L2-HR :0.76157: (Sim:0h14m14s) 
CPU  0 inst:  178000001 cyc:  101884417 now IPC :1.81021: AVG IPC :1.74452: L2-Pf-HR :0.72535: L2-HR :0.76154: (Sim:0h14m18s) 
CPU  0 inst:  179000002 cyc:  102429333 now IPC :1.83515: AVG IPC :1.74501: L2-Pf-HR :0.72536: L2-HR :0.76147: (Sim:0h14m23s) 
CPU  0 inst:  180000000 cyc:  102970044 now IPC :1.84941: AVG IPC :1.74556: L2-Pf-HR :0.72537: L2-HR :0.76141: (Sim:0h14m27s) 
CPU  0 inst:  181000004 cyc:  103512340 now IPC :1.84402: AVG IPC :1.74608: L2-Pf-HR :0.72549: L2-HR :0.76139: (Sim:0h14m31s) 
CPU  0 inst:  182000002 cyc:  104171918 now IPC :1.51612: AVG IPC :1.74461: L2-Pf-HR :0.72550: L2-HR :0.76130: (Sim:0h14m35s) 
CPU  0 inst:  183000001 cyc:  104707181 now IPC :1.86824: AVG IPC :1.74525: L2-Pf-HR :0.72567: L2-HR :0.76169: (Sim:0h14m39s) 
CPU  0 inst:  184000000 cyc:  105239914 now IPC :1.87711: AVG IPC :1.74592: L2-Pf-HR :0.72581: L2-HR :0.76207: (Sim:0h14m43s) 
CPU  0 inst:  185000001 cyc:  105773552 now IPC :1.87393: AVG IPC :1.74657: L2-Pf-HR :0.72601: L2-HR :0.76247: (Sim:0h14m47s) 
CPU  0 inst:  186000005 cyc:  106311606 now IPC :1.85856: AVG IPC :1.74715: L2-Pf-HR :0.72630: L2-HR :0.76292: (Sim:0h14m51s) 
CPU  0 inst:  187000003 cyc:  106851477 now IPC :1.85229: AVG IPC :1.74768: L2-Pf-HR :0.72652: L2-HR :0.76332: (Sim:0h14m55s) 
CPU  0 inst:  188000002 cyc:  107386404 now IPC :1.86941: AVG IPC :1.74830: L2-Pf-HR :0.72670: L2-HR :0.76372: (Sim:0h14m59s) 
CPU  0 inst:  189000004 cyc:  107921365 now IPC :1.86930: AVG IPC :1.74890: L2-Pf-HR :0.72688: L2-HR :0.76411: (Sim:0h15m3s) 
CPU  0 inst:  190000000 cyc:  108658773 now IPC :1.35610: AVG IPC :1.74621: L2-Pf-HR :0.72627: L2-HR :0.76368: (Sim:0h15m8s) 
CPU  0 inst:  191000002 cyc:  109248049 now IPC :1.69700: AVG IPC :1.74594: L2-Pf-HR :0.72605: L2-HR :0.76355: (Sim:0h15m12s) 
CPU  0 inst:  192000000 cyc:  109828677 now IPC :1.72227: AVG IPC :1.74582: L2-Pf-HR :0.72599: L2-HR :0.76343: (Sim:0h15m16s) 
CPU  0 inst:  193000005 cyc:  110408952 now IPC :1.72333: AVG IPC :1.74570: L2-Pf-HR :0.72588: L2-HR :0.76331: (Sim:0h15m20s) 
CPU  0 inst:  194000003 cyc:  110989356 now IPC :1.72293: AVG IPC :1.74558: L2-Pf-HR :0.72580: L2-HR :0.76316: (Sim:0h15m25s) 
CPU  0 inst:  195000005 cyc:  111576563 now IPC :1.70298: AVG IPC :1.74535: L2-Pf-HR :0.72583: L2-HR :0.76313: (Sim:0h15m29s) 
CPU  0 inst:  196000000 cyc:  112170258 now IPC :1.68436: AVG IPC :1.74502: L2-Pf-HR :0.72583: L2-HR :0.76307: (Sim:0h15m33s) 
CPU  0 inst:  197000001 cyc:  112749517 now IPC :1.72635: AVG IPC :1.74493: L2-Pf-HR :0.72587: L2-HR :0.76301: (Sim:0h15m37s) 
CPU  0 inst:  198000001 cyc:  113339562 now IPC :1.69479: AVG IPC :1.74466: L2-Pf-HR :0.72580: L2-HR :0.76291: (Sim:0h15m41s) 
CPU  0 inst:  199000003 cyc:  113922001 now IPC :1.71692: AVG IPC :1.74452: L2-Pf-HR :0.72574: L2-HR :0.76277: (Sim:0h15m46s) 
CPU  0 inst:  200000000 cyc:  114502879 now IPC :1.72153: AVG IPC :1.74440: L2-Pf-HR :0.72571: L2-HR :0.76270: (Sim:0h15m50s) 
CPU  0 inst:  201000003 cyc:  115085545 now IPC :1.71625: AVG IPC :1.74426: L2-Pf-HR :0.72573: L2-HR :0.76262: (Sim:0h15m54s) 
CPU  0 inst:  202000001 cyc:  115814445 now IPC :1.37193: AVG IPC :1.74190: L2-Pf-HR :0.72538: L2-HR :0.76233: (Sim:0h15m58s) 
CPU  0 inst:  203000001 cyc:  116374082 now IPC :1.78687: AVG IPC :1.74211: L2-Pf-HR :0.72541: L2-HR :0.76233: (Sim:0h16m3s) 
CPU  0 inst:  204000001 cyc:  116937490 now IPC :1.77491: AVG IPC :1.74227: L2-Pf-HR :0.72549: L2-HR :0.76230: (Sim:0h16m7s) 
CPU  0 inst:  205000003 cyc:  117485084 now IPC :1.82617: AVG IPC :1.74267: L2-Pf-HR :0.72552: L2-HR :0.76225: (Sim:0h16m11s) 
CPU  0 inst:  206000003 cyc:  118030348 now IPC :1.83397: AVG IPC :1.74309: L2-Pf-HR :0.72559: L2-HR :0.76222: (Sim:0h16m15s) 
CPU  0 inst:  207000000 cyc:  118588231 now IPC :1.79249: AVG IPC :1.74333: L2-Pf-HR :0.72576: L2-HR :0.76226: (Sim:0h16m19s) 
CPU  0 inst:  208000000 cyc:  119140669 now IPC :1.81016: AVG IPC :1.74364: L2-Pf-HR :0.72595: L2-HR :0.76228: (Sim:0h16m23s) 
CPU  0 inst:  209000005 cyc:  119694975 now IPC :1.80407: AVG IPC :1.74392: L2-Pf-HR :0.72611: L2-HR :0.76230: (Sim:0h16m27s) 
CPU  0 inst:  210000002 cyc:  120246339 now IPC :1.81368: AVG IPC :1.74425: L2-Pf-HR :0.72617: L2-HR :0.76226: (Sim:0h16m31s) 
CPU  0 inst:  211000004 cyc:  120788162 now IPC :1.84562: AVG IPC :1.74470: L2-Pf-HR :0.72622: L2-HR :0.76222: (Sim:0h16m35s) 
CPU  0 inst:  212000003 cyc:  121332625 now IPC :1.83667: AVG IPC :1.74512: L2-Pf-HR :0.72630: L2-HR :0.76220: (Sim:0h16m40s) 
CPU  0 inst:  213000001 cyc:  121872787 now IPC :1.85129: AVG IPC :1.74559: L2-Pf-HR :0.72660: L2-HR :0.76222: (Sim:0h16m44s) 
CPU  0 inst:  214000000 cyc:  122539423 now IPC :1.50007: AVG IPC :1.74425: L2-Pf-HR :0.72647: L2-HR :0.76225: (Sim:0h16m48s) 
CPU  0 inst:  215000003 cyc:  123085087 now IPC :1.83264: AVG IPC :1.74464: L2-Pf-HR :0.72659: L2-HR :0.76255: (Sim:0h16m52s) 
CPU  0 inst:  216000000 cyc:  123626471 now IPC :1.84711: AVG IPC :1.74510: L2-Pf-HR :0.72671: L2-HR :0.76284: (Sim:0h16m56s) 
CPU  0 inst:  217000004 cyc:  124168518 now IPC :1.84487: AVG IPC :1.74553: L2-Pf-HR :0.72690: L2-HR :0.76317: (Sim:0h17m0s) 
CPU  0 inst:  218000002 cyc:  124707055 now IPC :1.85688: AVG IPC :1.74602: L2-Pf-HR :0.72716: L2-HR :0.76354: (Sim:0h17m5s) 
CPU  0 inst:  219000001 cyc:  125248645 now IPC :1.84641: AVG IPC :1.74646: L2-Pf-HR :0.72728: L2-HR :0.76384: (Sim:0h17m9s) 
CPU  0 inst:  220000000 cyc:  125789345 now IPC :1.84945: AVG IPC :1.74690: L2-Pf-HR :0.72739: L2-HR :0.76414: (Sim:0h17m13s) 
CPU  0 inst:  221000001 cyc:  126338428 now IPC :1.82122: AVG IPC :1.74723: L2-Pf-HR :0.72782: L2-HR :0.76450: (Sim:0h17m17s) 
CPU  0 inst:  222000001 cyc:  127097345 now IPC :1.31767: AVG IPC :1.74464: L2-Pf-HR :0.72681: L2-HR :0.76385: (Sim:0h17m21s) 
CPU  0 inst:  223000000 cyc:  127671095 now IPC :1.74292: AVG IPC :1.74464: L2-Pf-HR :0.72661: L2-HR :0.76370: (Sim:0h17m25s) 
CPU  0 inst:  224000000 cyc:  128255632 now IPC :1.71076: AVG IPC :1.74448: L2-Pf-HR :0.72647: L2-HR :0.76356: (Sim:0h17m30s) 
CPU  0 inst:  225000001 cyc:  128834920 now IPC :1.72626: AVG IPC :1.74440: L2-Pf-HR :0.72628: L2-HR :0.76339: (Sim:0h17m34s) 
CPU  0 inst:  226000000 cyc:  129415518 now IPC :1.72236: AVG IPC :1.74430: L2-Pf-HR :0.72618: L2-HR :0.76329: (Sim:0h17m38s) 
CPU  0 inst:  227000004 cyc:  130005691 now IPC :1.69443: AVG IPC :1.74407: L2-Pf-HR :0.72619: L2-HR :0.76321: (Sim:0h17m42s) 
CPU  0 inst:  228000001 cyc:  130587741 now IPC :1.71806: AVG IPC :1.74395: L2-Pf-HR :0.72618: L2-HR :0.76314: (Sim:0h17m46s) 
CPU  0 inst:  229000002 cyc:  131177454 now IPC :1.69574: AVG IPC :1.74373: L2-Pf-HR :0.72609: L2-HR :0.76303: (Sim:0h17m51s) 
CPU  0 inst:  230000005 cyc:  131766718 now IPC :1.69704: AVG IPC :1.74352: L2-Pf-HR :0.72594: L2-HR :0.76287: (Sim:0h17m55s) 
CPU  0 inst:  231000001 cyc:  132342574 now IPC :1.73654: AVG IPC :1.74349: L2-Pf-HR :0.72583: L2-HR :0.76277: (Sim:0h17m59s) 
CPU  0 inst:  232000000 cyc:  132939448 now IPC :1.67539: AVG IPC :1.74318: L2-Pf-HR :0.72573: L2-HR :0.76264: (Sim:0h18m3s) 
CPU  0 inst:  233000000 cyc:  133560951 now IPC :1.60900: AVG IPC :1.74256: L2-Pf-HR :0.72594: L2-HR :0.76257: (Sim:0h18m8s) 
CPU  0 inst:  234000004 cyc:  134232850 now IPC :1.48832: AVG IPC :1.74127: L2-Pf-HR :0.72551: L2-HR :0.76236: (Sim:0h18m12s) 
CPU  0 inst:  235000003 cyc:  134792622 now IPC :1.78644: AVG IPC :1.74146: L2-Pf-HR :0.72554: L2-HR :0.76233: (Sim:0h18m17s) 
CPU  0 inst:  236000000 cyc:  135342321 now IPC :1.81917: AVG IPC :1.74178: L2-Pf-HR :0.72558: L2-HR :0.76229: (Sim:0h18m21s) 
CPU  0 inst:  237000000 cyc:  135881261 now IPC :1.85549: AVG IPC :1.74223: L2-Pf-HR :0.72560: L2-HR :0.76225: (Sim:0h18m25s) 
CPU  0 inst:  238000000 cyc:  136428797 now IPC :1.82636: AVG IPC :1.74258: L2-Pf-HR :0.72566: L2-HR :0.76222: (Sim:0h18m30s) 
CPU  0 inst:  239000005 cyc:  136984950 now IPC :1.79808: AVG IPC :1.74280: L2-Pf-HR :0.72580: L2-HR :0.76225: (Sim:0h18m34s) 
CPU  0 inst:  240000000 cyc:  137532610 now IPC :1.82594: AVG IPC :1.74314: L2-Pf-HR :0.72597: L2-HR :0.76228: (Sim:0h18m38s) 
CPU  0 inst:  241000005 cyc:  138083419 now IPC :1.81552: AVG IPC :1.74343: L2-Pf-HR :0.72604: L2-HR :0.76225: (Sim:0h18m43s) 
CPU  0 inst:  242000004 cyc:  138624790 now IPC :1.84716: AVG IPC :1.74383: L2-Pf-HR :0.72607: L2-HR :0.76220: (Sim:0h18m47s) 
CPU  0 inst:  243000001 cyc:  139159762 now IPC :1.86925: AVG IPC :1.74432: L2-Pf-HR :0.72611: L2-HR :0.76217: (Sim:0h18m51s) 
CPU  0 inst:  244000001 cyc:  139700482 now IPC :1.84939: AVG IPC :1.74473: L2-Pf-HR :0.72616: L2-HR :0.76212: (Sim:0h18m56s) 
CPU  0 inst:  245000001 cyc:  140368589 now IPC :1.49677: AVG IPC :1.74354: L2-Pf-HR :0.72623: L2-HR :0.76203: (Sim:0h19m0s) 
CPU  0 inst:  246000003 cyc:  140902329 now IPC :1.87358: AVG IPC :1.74404: L2-Pf-HR :0.72632: L2-HR :0.76230: (Sim:0h19m5s) 
CPU  0 inst:  247000002 cyc:  141436930 now IPC :1.87055: AVG IPC :1.74452: L2-Pf-HR :0.72644: L2-HR :0.76258: (Sim:0h19m9s) 
CPU  0 inst:  248000000 cyc:  141971967 now IPC :1.86903: AVG IPC :1.74499: L2-Pf-HR :0.72655: L2-HR :0.76285: (Sim:0h19m13s) 
CPU  0 inst:  249000004 cyc:  142510715 now IPC :1.85616: AVG IPC :1.74541: L2-Pf-HR :0.72675: L2-HR :0.76317: (Sim:0h19m17s) 
CPU  0 inst:  250000000 cyc:  143044519 now IPC :1.87334: AVG IPC :1.74590: L2-Pf-HR :0.72693: L2-HR :0.76347: (Sim:0h19m22s) 
CPU  0 inst:  251000001 cyc:  143578063 now IPC :1.87426: AVG IPC :1.74638: L2-Pf-HR :0.72706: L2-HR :0.76376: (Sim:0h19m26s) 
CPU  0 inst:  252000003 cyc:  144116060 now IPC :1.85875: AVG IPC :1.74680: L2-Pf-HR :0.72717: L2-HR :0.76403: (Sim:0h19m30s) 
CPU  0 inst:  253000000 cyc:  144864227 now IPC :1.33660: AVG IPC :1.74466: L2-Pf-HR :0.72671: L2-HR :0.76374: (Sim:0h19m35s) 
CPU  0 inst:  254000005 cyc:  145438972 now IPC :1.73991: AVG IPC :1.74465: L2-Pf-HR :0.72660: L2-HR :0.76365: (Sim:0h19m40s) 
CPU  0 inst:  255000001 cyc:  146023466 now IPC :1.71087: AVG IPC :1.74451: L2-Pf-HR :0.72652: L2-HR :0.76355: (Sim:0h19m44s) 
CPU  0 inst:  256000000 cyc:  146599424 now IPC :1.73624: AVG IPC :1.74448: L2-Pf-HR :0.72643: L2-HR :0.76343: (Sim:0h19m48s) 
CPU  0 inst:  257000005 cyc:  147186452 now IPC :1.70350: AVG IPC :1.74431: L2-Pf-HR :0.72633: L2-HR :0.76334: (Sim:0h19m53s) 
CPU  0 inst:  258000004 cyc:  147781398 now IPC :1.68082: AVG IPC :1.74406: L2-Pf-HR :0.72632: L2-HR :0.76328: (Sim:0h19m57s) 
CPU  0 inst:  259000000 cyc:  148358798 now IPC :1.73189: AVG IPC :1.74401: L2-Pf-HR :0.72637: L2-HR :0.76324: (Sim:0h20m2s) 
CPU  0 inst:  260000002 cyc:  148944375 now IPC :1.70772: AVG IPC :1.74386: L2-Pf-HR :0.72645: L2-HR :0.76319: (Sim:0h20m6s) 
CPU  0 inst:  261000003 cyc:  149534190 now IPC :1.69545: AVG IPC :1.74367: L2-Pf-HR :0.72637: L2-HR :0.76307: (Sim:0h20m11s) 
CPU  0 inst:  262000000 cyc:  150115906 now IPC :1.71905: AVG IPC :1.74358: L2-Pf-HR :0.72632: L2-HR :0.76300: (Sim:0h20m15s) 
CPU  0 inst:  263000005 cyc:  150707022 now IPC :1.69172: AVG IPC :1.74337: L2-Pf-HR :0.72625: L2-HR :0.76291: (Sim:0h20m19s) 
CPU  0 inst:  264000000 cyc:  151281214 now IPC :1.74157: AVG IPC :1.74336: L2-Pf-HR :0.72625: L2-HR :0.76284: (Sim:0h20m23s) 
CPU  0 inst:  265000000 cyc:  152006038 now IPC :1.37965: AVG IPC :1.74162: L2-Pf-HR :0.72604: L2-HR :0.76265: (Sim:0h20m27s) 
CPU  0 inst:  266000000 cyc:  152569248 now IPC :1.77554: AVG IPC :1.74174: L2-Pf-HR :0.72606: L2-HR :0.76263: (Sim:0h20m32s) 
CPU  0 inst:  267000000 cyc:  153123167 now IPC :1.80532: AVG IPC :1.74198: L2-Pf-HR :0.72612: L2-HR :0.76261: (Sim:0h20m36s) 
CPU  0 inst:  268000003 cyc:  153671519 now IPC :1.82365: AVG IPC :1.74227: L2-Pf-HR :0.72617: L2-HR :0.76259: (Sim:0h20m40s) 
CPU  0 inst:  269000001 cyc:  154219563 now IPC :1.82467: AVG IPC :1.74256: L2-Pf-HR :0.72620: L2-HR :0.76256: (Sim:0h20m44s) 
CPU  0 inst:  270000005 cyc:  154778021 now IPC :1.79065: AVG IPC :1.74274: L2-Pf-HR :0.72633: L2-HR :0.76258: (Sim:0h20m48s) 
CPU  0 inst:  271000005 cyc:  155329951 now IPC :1.81182: AVG IPC :1.74299: L2-Pf-HR :0.72646: L2-HR :0.76261: (Sim:0h20m52s) 
CPU  0 inst:  272000000 cyc:  155880838 now IPC :1.81525: AVG IPC :1.74324: L2-Pf-HR :0.72658: L2-HR :0.76262: (Sim:0h20m56s) 
CPU  0 inst:  273000005 cyc:  156429484 now IPC :1.82268: AVG IPC :1.74352: L2-Pf-HR :0.72665: L2-HR :0.76260: (Sim:0h21m1s) 
CPU  0 inst:  274000001 cyc:  156971257 now IPC :1.84578: AVG IPC :1.74388: L2-Pf-HR :0.72669: L2-HR :0.76257: (Sim:0h21m5s) 
CPU  0 inst:  275000002 cyc:  157516081 now IPC :1.83546: AVG IPC :1.74420: L2-Pf-HR :0.72670: L2-HR :0.76252: (Sim:0h21m9s) 
CPU  0 inst:  276000000 cyc:  158058475 now IPC :1.84367: AVG IPC :1.74454: L2-Pf-HR :0.72690: L2-HR :0.76255: (Sim:0h21m14s) 
CPU  0 inst:  277000005 cyc:  158718955 now IPC :1.51406: AVG IPC :1.74358: L2-Pf-HR :0.72684: L2-HR :0.76256: (Sim:0h21m18s) 
CPU  0 inst:  278000002 cyc:  159256851 now IPC :1.85909: AVG IPC :1.74397: L2-Pf-HR :0.72693: L2-HR :0.76279: (Sim:0h21m23s) 
CPU  0 inst:  279000005 cyc:  159789753 now IPC :1.87652: AVG IPC :1.74441: L2-Pf-HR :0.72703: L2-HR :0.76304: (Sim:0h21m27s) 
CPU  0 inst:  280000000 cyc:  160322961 now IPC :1.87543: AVG IPC :1.74485: L2-Pf-HR :0.72718: L2-HR :0.76331: (Sim:0h21m31s) 
CPU  0 inst:  281000005 cyc:  160859372 now IPC :1.86425: AVG IPC :1.74525: L2-Pf-HR :0.72738: L2-HR :0.76361: (Sim:0h21m35s) 
CPU  0 inst:  282000000 cyc:  161396499 now IPC :1.86175: AVG IPC :1.74564: L2-Pf-HR :0.72748: L2-HR :0.76386: (Sim:0h21m40s) 
CPU  0 inst:  283000005 cyc:  161928433 now IPC :1.87994: AVG IPC :1.74609: L2-Pf-HR :0.72759: L2-HR :0.76412: (Sim:0h21m44s) 
CPU  0 inst:  284000005 cyc:  162458601 now IPC :1.88619: AVG IPC :1.74655: L2-Pf-HR :0.72779: L2-HR :0.76443: (Sim:0h21m48s) 
CPU  0 inst:  285000004 cyc:  163219381 now IPC :1.31444: AVG IPC :1.74452: L2-Pf-HR :0.72720: L2-HR :0.76398: (Sim:0h21m53s) 
CPU  0 inst:  286000003 cyc:  163803110 now IPC :1.71312: AVG IPC :1.74441: L2-Pf-HR :0.72707: L2-HR :0.76386: (Sim:0h21m58s) 
CPU  0 inst:  287000004 cyc:  164376884 now IPC :1.74285: AVG IPC :1.74440: L2-Pf-HR :0.72699: L2-HR :0.76374: (Sim:0h22m2s) 
CPU  0 inst:  288000000 cyc:  164962722 now IPC :1.70695: AVG IPC :1.74427: L2-Pf-HR :0.72686: L2-HR :0.76364: (Sim:0h22m6s) 
CPU  0 inst:  289000003 cyc:  165550563 now IPC :1.70115: AVG IPC :1.74411: L2-Pf-HR :0.72672: L2-HR :0.76354: (Sim:0h22m11s) 
CPU  0 inst:  290000004 cyc:  166132778 now IPC :1.71758: AVG IPC :1.74402: L2-Pf-HR :0.72671: L2-HR :0.76349: (Sim:0h22m15s) 
CPU  0 inst:  291000004 cyc:  166716765 now IPC :1.71237: AVG IPC :1.74391: L2-Pf-HR :0.72671: L2-HR :0.76343: (Sim:0h22m20s) 
CPU  0 inst:  292000004 cyc:  167290614 now IPC :1.74262: AVG IPC :1.74390: L2-Pf-HR :0.72667: L2-HR :0.76333: (Sim:0h22m24s) 
CPU  0 inst:  293000005 cyc:  167881540 now IPC :1.69226: AVG IPC :1.74372: L2-Pf-HR :0.72659: L2-HR :0.76324: (Sim:0h22m29s) 
CPU  0 inst:  294000001 cyc:  168466961 now IPC :1.70817: AVG IPC :1.74360: L2-Pf-HR :0.72646: L2-HR :0.76313: (Sim:0h22m33s) 
CPU  0 inst:  295000000 cyc:  169046957 now IPC :1.72415: AVG IPC :1.74353: L2-Pf-HR :0.72635: L2-HR :0.76303: (Sim:0h22m37s) 
CPU  0 inst:  296000000 cyc:  169631330 now IPC :1.71124: AVG IPC :1.74342: L2-Pf-HR :0.72653: L2-HR :0.76301: (Sim:0h22m42s) 
CPU  0 inst:  297000002 cyc:  170353327 now IPC :1.38505: AVG IPC :1.74189: L2-Pf-HR :0.72610: L2-HR :0.76279: (Sim:0h22m46s) 
CPU  0 inst:  298000003 cyc:  170908056 now IPC :1.80268: AVG IPC :1.74209: L2-Pf-HR :0.72612: L2-HR :0.76278: (Sim:0h22m51s) 
CPU  0 inst:  299000004 cyc:  171459781 now IPC :1.81250: AVG IPC :1.74232: L2-Pf-HR :0.72615: L2-HR :0.76275: (Sim:0h22m55s) 
CPU  0 inst:  300000000 cyc:  172006371 now IPC :1.82952: AVG IPC :1.74260: L2-Pf-HR :0.72617: L2-HR :0.76271: (Sim:0h22m59s) 
CPU  0 inst:  301000005 cyc:  172560158 now IPC :1.80576: AVG IPC :1.74280: L2-Pf-HR :0.72623: L2-HR :0.76270: (Sim:0h23m4s) 
CPU  0 inst:  302000005 cyc:  173113918 now IPC :1.80584: AVG IPC :1.74300: L2-Pf-HR :0.72634: L2-HR :0.76272: (Sim:0h23m8s) 
CPU  0 inst:  303000004 cyc:  173667733 now IPC :1.80566: AVG IPC :1.74320: L2-Pf-HR :0.72647: L2-HR :0.76272: (Sim:0h23m13s) 
CPU  0 inst:  304000000 cyc:  174214485 now IPC :1.82898: AVG IPC :1.74347: L2-Pf-HR :0.72655: L2-HR :0.76272: (Sim:0h23m17s) 
CPU  0 inst:  305000003 cyc:  174759232 now IPC :1.83572: AVG IPC :1.74376: L2-Pf-HR :0.72661: L2-HR :0.76269: (Sim:0h23m21s) 
CPU  0 inst:  306000000 cyc:  175296316 now IPC :1.86190: AVG IPC :1.74413: L2-Pf-HR :0.72660: L2-HR :0.76264: (Sim:0h23m25s) 
CPU  0 inst:  307000003 cyc:  175842698 now IPC :1.83023: AVG IPC :1.74440: L2-Pf-HR :0.72666: L2-HR :0.76262: (Sim:0h23m30s) 
CPU  0 inst:  308000000 cyc:  176490056 now IPC :1.54474: AVG IPC :1.74366: L2-Pf-HR :0.72672: L2-HR :0.76255: (Sim:0h23m34s) 
CPU  0 inst:  309000000 cyc:  177051975 now IPC :1.77962: AVG IPC :1.74377: L2-Pf-HR :0.72677: L2-HR :0.76272: (Sim:0h23m39s) 
CPU  0 inst:  310000001 cyc:  177592934 now IPC :1.84857: AVG IPC :1.74409: L2-Pf-HR :0.72684: L2-HR :0.76291: (Sim:0h23m43s) 
CPU  0 inst:  311000002 cyc:  178130735 now IPC :1.85943: AVG IPC :1.74445: L2-Pf-HR :0.72693: L2-HR :0.76312: (Sim:0h23m47s) 
CPU  0 inst:  312000000 cyc:  178668616 now IPC :1.85914: AVG IPC :1.74479: L2-Pf-HR :0.72710: L2-HR :0.76337: (Sim:0h23m52s) 
CPU  0 inst:  313000002 cyc:  179206378 now IPC :1.85956: AVG IPC :1.74514: L2-Pf-HR :0.72724: L2-HR :0.76361: (Sim:0h23m56s) 
CPU  0 inst:  314000000 cyc:  179745703 now IPC :1.85417: AVG IPC :1.74547: L2-Pf-HR :0.72734: L2-HR :0.76382: (Sim:0h24m0s) 
CPU  0 inst:  315000004 cyc:  180285630 now IPC :1.85211: AVG IPC :1.74579: L2-Pf-HR :0.72741: L2-HR :0.76402: (Sim:0h24m4s) 
CPU  0 inst:  316000001 cyc:  181004024 now IPC :1.39199: AVG IPC :1.74438: L2-Pf-HR :0.72712: L2-HR :0.76384: (Sim:0h24m9s) 
CPU  0 inst:  317000005 cyc:  181604726 now IPC :1.66473: AVG IPC :1.74411: L2-Pf-HR :0.72699: L2-HR :0.76374: (Sim:0h24m14s) 
CPU  0 inst:  318000001 cyc:  182179861 now IPC :1.73872: AVG IPC :1.74409: L2-Pf-HR :0.72692: L2-HR :0.76364: (Sim:0h24m18s) 
CPU  0 inst:  319000005 cyc:  182763807 now IPC :1.71249: AVG IPC :1.74399: L2-Pf-HR :0.72686: L2-HR :0.76356: (Sim:0h24m23s) 
CPU  0 inst:  320000000 cyc:  183347016 now IPC :1.71464: AVG IPC :1.74390: L2-Pf-HR :0.72675: L2-HR :0.76347: (Sim:0h24m27s) 
CPU  0 inst:  321000000 cyc:  183923952 now IPC :1.73329: AVG IPC :1.74387: L2-Pf-HR :0.72672: L2-HR :0.76342: (Sim:0h24m31s) 
CPU  0 inst:  322000000 cyc:  184510698 now IPC :1.70431: AVG IPC :1.74374: L2-Pf-HR :0.72671: L2-HR :0.76338: (Sim:0h24m36s) 
CPU  0 inst:  323000005 cyc:  185088489 now IPC :1.73074: AVG IPC :1.74370: L2-Pf-HR :0.72674: L2-HR :0.76333: (Sim:0h24m40s) 
CPU  0 inst:  324000005 cyc:  185680284 now IPC :1.68977: AVG IPC :1.74353: L2-Pf-HR :0.72670: L2-HR :0.76325: (Sim:0h24m45s) 
CPU  0 inst:  325000003 cyc:  186265551 now IPC :1.70862: AVG IPC :1.74342: L2-Pf-HR :0.72664: L2-HR :0.76317: (Sim:0h24m49s) 
CPU  0 inst:  326000001 cyc:  186837066 now IPC :1.74973: AVG IPC :1.74344: L2-Pf-HR :0.72657: L2-HR :0.76310: (Sim:0h24m54s) 
CPU  0 inst:  327000001 cyc:  187421575 now IPC :1.71084: AVG IPC :1.74333: L2-Pf-HR :0.72651: L2-HR :0.76303: (Sim:0h24m58s) 
CPU  0 inst:  328000000 cyc:  188148270 now IPC :1.37609: AVG IPC :1.74191: L2-Pf-HR :0.72628: L2-HR :0.76286: (Sim:0h25m3s) 
CPU  0 inst:  329000003 cyc:  188704619 now IPC :1.79744: AVG IPC :1.74207: L2-Pf-HR :0.72628: L2-HR :0.76285: (Sim:0h25m7s) 
CPU  0 inst:  330000003 cyc:  189264257 now IPC :1.78687: AVG IPC :1.74220: L2-Pf-HR :0.72632: L2-HR :0.76283: (Sim:0h25m11s) 
CPU  0 inst:  331000001 cyc:  189809992 now IPC :1.83239: AVG IPC :1.74247: L2-Pf-HR :0.72633: L2-HR :0.76279: (Sim:0h25m16s) 
CPU  0 inst:  332000001 cyc:  190359945 now IPC :1.81834: AVG IPC :1.74269: L2-Pf-HR :0.72635: L2-HR :0.76277: (Sim:0h25m20s) 
CPU  0 inst:  333000004 cyc:  190918025 now IPC :1.79186: AVG IPC :1.74283: L2-Pf-HR :0.72643: L2-HR :0.76278: (Sim:0h25m24s) 
CPU  0 inst:  334000004 cyc:  191470455 now IPC :1.81018: AVG IPC :1.74303: L2-Pf-HR :0.72653: L2-HR :0.76278: (Sim:0h25m29s) 
CPU  0 inst:  335000004 cyc:  192018211 now IPC :1.82563: AVG IPC :1.74326: L2-Pf-HR :0.72666: L2-HR :0.76280: (Sim:0h25m33s) 
CPU  0 inst:  336000000 cyc:  192565105 now IPC :1.82850: AVG IPC :1.74351: L2-Pf-HR :0.72670: L2-HR :0.76278: (Sim:0h25m37s) 
CPU  0 inst:  337000000 cyc:  193108444 now IPC :1.84047: AVG IPC :1.74378: L2-Pf-HR :0.72673: L2-HR :0.76275: (Sim:0h25m42s) 
CPU  0 inst:  338000003 cyc:  193654040 now IPC :1.83286: AVG IPC :1.74403: L2-Pf-HR :0.72675: L2-HR :0.76273: (Sim:0h25m46s) 
CPU  0 inst:  339000005 cyc:  194199540 now IPC :1.83318: AVG IPC :1.74428: L2-Pf-HR :0.72684: L2-HR :0.76272: (Sim:0h25m50s) 
CPU  0 inst:  340000004 cyc:  194865966 now IPC :1.50054: AVG IPC :1.74345: L2-Pf-HR :0.72686: L2-HR :0.76271: (Sim:0h25m55s) 
CPU  0 inst:  341000003 cyc:  195402865 now IPC :1.86255: AVG IPC :1.74378: L2-Pf-HR :0.72694: L2-HR :0.76291: (Sim:0h25m59s) 
CPU  0 inst:  342000004 cyc:  195940091 now IPC :1.86142: AVG IPC :1.74410: L2-Pf-HR :0.72701: L2-HR :0.76311: (Sim:0h26m4s) 
CPU  0 inst:  343000003 cyc:  196481039 now IPC :1.84860: AVG IPC :1.74439: L2-Pf-HR :0.72712: L2-HR :0.76332: (Sim:0h26m8s) 
CPU  0 inst:  344000000 cyc:  197020098 now IPC :1.85508: AVG IPC :1.74469: L2-Pf-HR :0.72728: L2-HR :0.76356: (Sim:0h26m12s) 
CPU  0 inst:  345000000 cyc:  197556426 now IPC :1.86453: AVG IPC :1.74502: L2-Pf-HR :0.72738: L2-HR :0.76377: (Sim:0h26m16s) 
CPU  0 inst:  346000004 cyc:  198093224 now IPC :1.86291: AVG IPC :1.74534: L2-Pf-HR :0.72746: L2-HR :0.76398: (Sim:0h26m21s) 
CPU  0 inst:  347000002 cyc:  198634366 now IPC :1.84794: AVG IPC :1.74562: L2-Pf-HR :0.72759: L2-HR :0.76420: (Sim:0h26m25s) 
CPU  0 inst:  348000001 cyc:  199392407 now IPC :1.31919: AVG IPC :1.74399: L2-Pf-HR :0.72717: L2-HR :0.76389: (Sim:0h26m30s) 
CPU  0 inst:  349000000 cyc:  199968755 now IPC :1.73506: AVG IPC :1.74397: L2-Pf-HR :0.72708: L2-HR :0.76381: (Sim:0h26m34s) 
CPU  0 inst:  350000005 cyc:  200562605 now IPC :1.68394: AVG IPC :1.74379: L2-Pf-HR :0.72702: L2-HR :0.76374: (Sim:0h26m39s) 
CPU  0 inst:  351000002 cyc:  201148003 now IPC :1.70823: AVG IPC :1.74368: L2-Pf-HR :0.72694: L2-HR :0.76365: (Sim:0h26m43s) 
CPU  0 inst:  352000000 cyc:  201724071 now IPC :1.73590: AVG IPC :1.74366: L2-Pf-HR :0.72692: L2-HR :0.76359: (Sim:0h26m48s) 
CPU  0 inst:  353000005 cyc:  202314632 now IPC :1.69331: AVG IPC :1.74351: L2-Pf-HR :0.72690: L2-HR :0.76356: (Sim:0h26m52s) 
CPU  0 inst:  354000000 cyc:  202895678 now IPC :1.72103: AVG IPC :1.74345: L2-Pf-HR :0.72693: L2-HR :0.76352: (Sim:0h26m57s) 
CPU  0 inst:  355000001 cyc:  203487359 now IPC :1.69010: AVG IPC :1.74329: L2-Pf-HR :0.72693: L2-HR :0.76348: (Sim:0h27m1s) 
CPU  0 inst:  356000001 cyc:  204082460 now IPC :1.68039: AVG IPC :1.74311: L2-Pf-HR :0.72687: L2-HR :0.76340: (Sim:0h27m5s) 
CPU  0 inst:  357000004 cyc:  204656169 now IPC :1.74305: AVG IPC :1.74311: L2-Pf-HR :0.72682: L2-HR :0.76333: (Sim:0h27m10s) 
CPU  0 inst:  358000003 cyc:  205245477 now IPC :1.69690: AVG IPC :1.74298: L2-Pf-HR :0.72676: L2-HR :0.76327: (Sim:0h27m14s) 
CPU  0 inst:  359000003 cyc:  205811820 now IPC :1.76571: AVG IPC :1.74304: L2-Pf-HR :0.72683: L2-HR :0.76323: (Sim:0h27m19s) 
CPU  0 inst:  360000000 cyc:  206550828 now IPC :1.35316: AVG IPC :1.74164: L2-Pf-HR :0.72657: L2-HR :0.76308: (Sim:0h27m23s) 
CPU  0 inst:  361000000 cyc:  207108790 now IPC :1.79224: AVG IPC :1.74177: L2-Pf-HR :0.72656: L2-HR :0.76305: (Sim:0h27m28s) 
CPU  0 inst:  362000005 cyc:  207665868 now IPC :1.79509: AVG IPC :1.74192: L2-Pf-HR :0.72657: L2-HR :0.76302: (Sim:0h27m32s) 
CPU  0 inst:  363000002 cyc:  208214402 now IPC :1.82304: AVG IPC :1.74213: L2-Pf-HR :0.72658: L2-HR :0.76300: (Sim:0h27m37s) 
CPU  0 inst:  364000002 cyc:  208765776 now IPC :1.81365: AVG IPC :1.74232: L2-Pf-HR :0.72659: L2-HR :0.76297: (Sim:0h27m41s) 
CPU  0 inst:  365000000 cyc:  209321837 now IPC :1.79836: AVG IPC :1.74247: L2-Pf-HR :0.72665: L2-HR :0.76297: (Sim:0h27m45s) 
CPU  0 inst:  366000001 cyc:  209869018 now IPC :1.82755: AVG IPC :1.74269: L2-Pf-HR :0.72676: L2-HR :0.76298: (Sim:0h27m50s) 
CPU  0 inst:  367000001 cyc:  210416963 now IPC :1.82500: AVG IPC :1.74291: L2-Pf-HR :0.72681: L2-HR :0.76297: (Sim:0h27m54s) 
CPU  0 inst:  368000000 cyc:  210962874 now IPC :1.83180: AVG IPC :1.74314: L2-Pf-HR :0.72681: L2-HR :0.76292: (Sim:0h27m58s) 
CPU  0 inst:  369000003 cyc:  211507562 now IPC :1.83592: AVG IPC :1.74338: L2-Pf-HR :0.72684: L2-HR :0.76291: (Sim:0h28m2s) 
CPU  0 inst:  370000001 cyc:  212056161 now IPC :1.82282: AVG IPC :1.74359: L2-Pf-HR :0.72684: L2-HR :0.76288: (Sim:0h28m7s) 
CPU  0 inst:  371000002 cyc:  212627804 now IPC :1.74935: AVG IPC :1.74360: L2-Pf-HR :0.72710: L2-HR :0.76289: (Sim:0h28m11s) 
CPU  0 inst:  372000005 cyc:  213251925 now IPC :1.60226: AVG IPC :1.74319: L2-Pf-HR :0.72692: L2-HR :0.76293: (Sim:0h28m16s) 
CPU  0 inst:  373000000 cyc:  213788862 now IPC :1.86241: AVG IPC :1.74349: L2-Pf-HR :0.72699: L2-HR :0.76311: (Sim:0h28m20s) 
CPU  0 inst:  374000004 cyc:  214322982 now IPC :1.87225: AVG IPC :1.74381: L2-Pf-HR :0.72706: L2-HR :0.76328: (Sim:0h28m24s) 
CPU  0 inst:  375000000 cyc:  214863278 now IPC :1.85083: AVG IPC :1.74408: L2-Pf-HR :0.72718: L2-HR :0.76349: (Sim:0h28m29s) 
CPU  0 inst:  376000000 cyc:  215406147 now IPC :1.84206: AVG IPC :1.74433: L2-Pf-HR :0.72732: L2-HR :0.76369: (Sim:0h28m33s) 
CPU  0 inst:  377000005 cyc:  215944257 now IPC :1.85837: AVG IPC :1.74461: L2-Pf-HR :0.72739: L2-HR :0.76387: (Sim:0h28m37s) 
CPU  0 inst:  378000002 cyc:  216482510 now IPC :1.85786: AVG IPC :1.74490: L2-Pf-HR :0.72747: L2-HR :0.76406: (Sim:0h28m41s) 
CPU  0 inst:  379000004 cyc:  217171434 now IPC :1.45154: AVG IPC :1.74396: L2-Pf-HR :0.72725: L2-HR :0.76395: (Sim:0h28m46s) 
CPU  0 inst:  380000002 cyc:  217781356 now IPC :1.63955: AVG IPC :1.74367: L2-Pf-HR :0.72715: L2-HR :0.76387: (Sim:0h28m51s) 
CPU  0 inst:  381000001 cyc:  218371370 now IPC :1.69487: AVG IPC :1.74354: L2-Pf-HR :0.72707: L2-HR :0.76381: (Sim:0h28m55s) 
CPU  0 inst:  382000002 cyc:  218962568 now IPC :1.69148: AVG IPC :1.74339: L2-Pf-HR :0.72701: L2-HR :0.76375: (Sim:0h28m59s) 
CPU  0 inst:  383000005 cyc:  219534456 now IPC :1.74860: AVG IPC :1.74341: L2-Pf-HR :0.72698: L2-HR :0.76370: (Sim:0h29m4s) 
CPU  0 inst:  384000000 cyc:  220119189 now IPC :1.71017: AVG IPC :1.74332: L2-Pf-HR :0.72696: L2-HR :0.76366: (Sim:0h29m8s) 
CPU  0 inst:  385000000 cyc:  220702334 now IPC :1.71484: AVG IPC :1.74324: L2-Pf-HR :0.72701: L2-HR :0.76363: (Sim:0h29m13s) 
CPU  0 inst:  386000002 cyc:  221293967 now IPC :1.69024: AVG IPC :1.74310: L2-Pf-HR :0.72701: L2-HR :0.76361: (Sim:0h29m17s) 
CPU  0 inst:  387000003 cyc:  221884493 now IPC :1.69341: AVG IPC :1.74297: L2-Pf-HR :0.72698: L2-HR :0.76356: (Sim:0h29m22s) 
CPU  0 inst:  388000003 cyc:  222460111 now IPC :1.73726: AVG IPC :1.74295: L2-Pf-HR :0.72696: L2-HR :0.76352: (Sim:0h29m26s) 
CPU  0 inst:  389000005 cyc:  223034851 now IPC :1.73992: AVG IPC :1.74295: L2-Pf-HR :0.72691: L2-HR :0.76347: (Sim:0h29m30s) 
CPU  0 inst:  390000001 cyc:  223615005 now IPC :1.72367: AVG IPC :1.74290: L2-Pf-HR :0.72690: L2-HR :0.76342: (Sim:0h29m35s) 
CPU  0 inst:  391000003 cyc:  224322032 now IPC :1.41438: AVG IPC :1.74186: L2-Pf-HR :0.72678: L2-HR :0.76330: (Sim:0h29m40s) 
CPU  0 inst:  392000000 cyc:  224905704 now IPC :1.71329: AVG IPC :1.74178: L2-Pf-HR :0.72676: L2-HR :0.76327: (Sim:0h29m44s) 
CPU  0 inst:  393000001 cyc:  225465656 now IPC :1.78587: AVG IPC :1.74189: L2-Pf-HR :0.72679: L2-HR :0.76325: (Sim:0h29m48s) 
CPU  0 inst:  394000002 cyc:  226021609 now IPC :1.79871: AVG IPC :1.74203: L2-Pf-HR :0.72682: L2-HR :0.76323: (Sim:0h29m53s) 
CPU  0 inst:  395000002 cyc:  226567016 now IPC :1.83349: AVG IPC :1.74225: L2-Pf-HR :0.72684: L2-HR :0.76321: (Sim:0h29m57s) 
CPU  0 inst:  396000001 cyc:  227120385 now IPC :1.80711: AVG IPC :1.74241: L2-Pf-HR :0.72689: L2-HR :0.76321: (Sim:0h30m1s) 
CPU  0 inst:  397000004 cyc:  227670365 now IPC :1.81825: AVG IPC :1.74260: L2-Pf-HR :0.72699: L2-HR :0.76323: (Sim:0h30m6s) 
CPU  0 inst:  398000000 cyc:  228216051 now IPC :1.83255: AVG IPC :1.74281: L2-Pf-HR :0.72708: L2-HR :0.76323: (Sim:0h30m10s) 
CPU  0 inst:  399000003 cyc:  228764756 now IPC :1.82248: AVG IPC :1.74300: L2-Pf-HR :0.72711: L2-HR :0.76321: (Sim:0h30m14s) 
CPU  0 inst:  400000000 cyc:  229310470 now IPC :1.83246: AVG IPC :1.74322: L2-Pf-HR :0.72713: L2-HR :0.76318: (Sim:0h30m19s) 
CPU  0 inst:  401000000 cyc:  229853897 now IPC :1.84017: AVG IPC :1.74345: L2-Pf-HR :0.72714: L2-HR :0.76315: (Sim:0h30m23s) 
CPU  0 inst:  402000003 cyc:  230398476 now IPC :1.83629: AVG IPC :1.74367: L2-Pf-HR :0.72720: L2-HR :0.76314: (Sim:0h30m27s) 
CPU  0 inst:  403000002 cyc:  231057063 now IPC :1.51840: AVG IPC :1.74302: L2-Pf-HR :0.72722: L2-HR :0.76312: (Sim:0h30m32s) 
CPU  0 inst:  404000002 cyc:  231590489 now IPC :1.87467: AVG IPC :1.74333: L2-Pf-HR :0.72729: L2-HR :0.76329: (Sim:0h30m36s) 
CPU  0 inst:  405000004 cyc:  232126321 now IPC :1.86626: AVG IPC :1.74361: L2-Pf-HR :0.72736: L2-HR :0.76345: (Sim:0h30m40s) 
CPU  0 inst:  406000002 cyc:  232660651 now IPC :1.87150: AVG IPC :1.74391: L2-Pf-HR :0.72744: L2-HR :0.76362: (Sim:0h30m45s) 
CPU  0 inst:  407000001 cyc:  233195157 now IPC :1.87088: AVG IPC :1.74420: L2-Pf-HR :0.72757: L2-HR :0.76383: (Sim:0h30m49s) 
CPU  0 inst:  408000000 cyc:  233731978 now IPC :1.86282: AVG IPC :1.74447: L2-Pf-HR :0.72766: L2-HR :0.76401: (Sim:0h30m53s) 
CPU  0 inst:  409000001 cyc:  234268943 now IPC :1.86232: AVG IPC :1.74475: L2-Pf-HR :0.72774: L2-HR :0.76418: (Sim:0h30m57s) 
CPU  0 inst:  410000001 cyc:  234802995 now IPC :1.87248: AVG IPC :1.74504: L2-Pf-HR :0.72783: L2-HR :0.76437: (Sim:0h31m2s) 
CPU  0 inst:  411000004 cyc:  235543354 now IPC :1.35070: AVG IPC :1.74379: L2-Pf-HR :0.72751: L2-HR :0.76415: (Sim:0h31m7s) 
CPU  0 inst:  412000000 cyc:  236131085 now IPC :1.70145: AVG IPC :1.74369: L2-Pf-HR :0.72744: L2-HR :0.76409: (Sim:0h31m11s) 
CPU  0 inst:  413000002 cyc:  236724114 now IPC :1.68626: AVG IPC :1.74354: L2-Pf-HR :0.72737: L2-HR :0.76402: (Sim:0h31m15s) 
CPU  0 inst:  414000001 cyc:  237299025 now IPC :1.73940: AVG IPC :1.74353: L2-Pf-HR :0.72732: L2-HR :0.76397: (Sim:0h31m20s) 
CPU  0 inst:  415000003 cyc:  237886179 now IPC :1.70313: AVG IPC :1.74343: L2-Pf-HR :0.72727: L2-HR :0.76391: (Sim:0h31m24s) 
CPU  0 inst:  416000000 cyc:  238465130 now IPC :1.72726: AVG IPC :1.74339: L2-Pf-HR :0.72728: L2-HR :0.76387: (Sim:0h31m29s) 
CPU  0 inst:  417000001 cyc:  239060397 now IPC :1.67992: AVG IPC :1.74323: L2-Pf-HR :0.72732: L2-HR :0.76385: (Sim:0h31m33s) 
CPU  0 inst:  418000003 cyc:  239656004 now IPC :1.67896: AVG IPC :1.74307: L2-Pf-HR :0.72731: L2-HR :0.76381: (Sim:0h31m38s) 
CPU  0 inst:  419000004 cyc:  240239884 now IPC :1.71268: AVG IPC :1.74300: L2-Pf-HR :0.72728: L2-HR :0.76377: (Sim:0h31m42s) 
CPU  0 inst:  420000001 cyc:  240823387 now IPC :1.71378: AVG IPC :1.74293: L2-Pf-HR :0.72723: L2-HR :0.76371: (Sim:0h31m46s) 
CPU  0 inst:  421000003 cyc:  241402318 now IPC :1.72732: AVG IPC :1.74289: L2-Pf-HR :0.72719: L2-HR :0.76365: (Sim:0h31m51s) 
CPU  0 inst:  422000005 cyc:  241985990 now IPC :1.71329: AVG IPC :1.74282: L2-Pf-HR :0.72724: L2-HR :0.76362: (Sim:0h31m55s) 
CPU  0 inst:  423000003 cyc:  242721122 now IPC :1.36030: AVG IPC :1.74166: L2-Pf-HR :0.72705: L2-HR :0.76349: (Sim:0h32m0s) 
CPU  0 inst:  424000000 cyc:  243273521 now IPC :1.81028: AVG IPC :1.74181: L2-Pf-HR :0.72705: L2-HR :0.76347: (Sim:0h32m4s) 
CPU  0 inst:  425000002 cyc:  243830156 now IPC :1.79651: AVG IPC :1.74194: L2-Pf-HR :0.72709: L2-HR :0.76346: (Sim:0h32m9s) 
CPU  0 inst:  426000005 cyc:  244381612 now IPC :1.81339: AVG IPC :1.74210: L2-Pf-HR :0.72710: L2-HR :0.76344: (Sim:0h32m13s) 
CPU  0 inst:  427000001 cyc:  244934284 now IPC :1.80938: AVG IPC :1.74225: L2-Pf-HR :0.72712: L2-HR :0.76343: (Sim:0h32m17s) 
CPU  0 inst:  428000002 cyc:  245485356 now IPC :1.81465: AVG IPC :1.74241: L2-Pf-HR :0.72721: L2-HR :0.76345: (Sim:0h32m22s) 
CPU  0 inst:  429000000 cyc:  246038670 now IPC :1.80729: AVG IPC :1.74256: L2-Pf-HR :0.72730: L2-HR :0.76345: (Sim:0h32m26s) 
CPU  0 inst:  430000004 cyc:  246590691 now IPC :1.81153: AVG IPC :1.74272: L2-Pf-HR :0.72735: L2-HR :0.76345: (Sim:0h32m30s) 
CPU  0 inst:  431000000 cyc:  247142327 now IPC :1.81278: AVG IPC :1.74287: L2-Pf-HR :0.72739: L2-HR :0.76344: (Sim:0h32m35s) 
CPU  0 inst:  432000000 cyc:  247685875 now IPC :1.83976: AVG IPC :1.74309: L2-Pf-HR :0.72740: L2-HR :0.76342: (Sim:0h32m39s) 
CPU  0 inst:  433000002 cyc:  248232158 now IPC :1.83056: AVG IPC :1.74328: L2-Pf-HR :0.72742: L2-HR :0.76340: (Sim:0h32m43s) 
CPU  0 inst:  434000003 cyc:  248780176 now IPC :1.82476: AVG IPC :1.74346: L2-Pf-HR :0.72761: L2-HR :0.76342: (Sim:0h32m48s) 
CPU  0 inst:  435000004 cyc:  249424460 now IPC :1.55211: AVG IPC :1.74296: L2-Pf-HR :0.72750: L2-HR :0.76344: (Sim:0h32m52s) 
CPU  0 inst:  436000003 cyc:  249956471 now IPC :1.87966: AVG IPC :1.74326: L2-Pf-HR :0.72756: L2-HR :0.76359: (Sim:0h32m56s) 
CPU  0 inst:  437000000 cyc:  250489985 now IPC :1.87436: AVG IPC :1.74354: L2-Pf-HR :0.72762: L2-HR :0.76374: (Sim:0h33m1s) 
CPU  0 inst:  438000000 cyc:  251030131 now IPC :1.85135: AVG IPC :1.74377: L2-Pf-HR :0.72772: L2-HR :0.76392: (Sim:0h33m5s) 
CPU  0 inst:  439000002 cyc:  251561945 now IPC :1.88036: AVG IPC :1.74406: L2-Pf-HR :0.72784: L2-HR :0.76410: (Sim:0h33m9s) 
CPU  0 inst:  440000000 cyc:  252094698 now IPC :1.87704: AVG IPC :1.74434: L2-Pf-HR :0.72791: L2-HR :0.76427: (Sim:0h33m14s) 
CPU  0 inst:  441000004 cyc:  252630756 now IPC :1.86548: AVG IPC :1.74460: L2-Pf-HR :0.72797: L2-HR :0.76443: (Sim:0h33m18s) 
CPU  0 inst:  442000005 cyc:  253237297 now IPC :1.64869: AVG IPC :1.74437: L2-Pf-HR :0.72805: L2-HR :0.76456: (Sim:0h33m22s) 
CPU  0 inst:  443000000 cyc:  253933891 now IPC :1.43555: AVG IPC :1.74352: L2-Pf-HR :0.72772: L2-HR :0.76431: (Sim:0h33m27s) 
CPU  0 inst:  444000000 cyc:  254521376 now IPC :1.70217: AVG IPC :1.74342: L2-Pf-HR :0.72765: L2-HR :0.76424: (Sim:0h33m31s) 
CPU  0 inst:  445000000 cyc:  255095447 now IPC :1.74194: AVG IPC :1.74342: L2-Pf-HR :0.72763: L2-HR :0.76420: (Sim:0h33m36s) 
CPU  0 inst:  446000000 cyc:  255674137 now IPC :1.72804: AVG IPC :1.74338: L2-Pf-HR :0.72757: L2-HR :0.76414: (Sim:0h33m40s) 
CPU  0 inst:  447000002 cyc:  256252098 now IPC :1.73022: AVG IPC :1.74335: L2-Pf-HR :0.72755: L2-HR :0.76410: (Sim:0h33m45s) 
CPU  0 inst:  448000000 cyc:  256848473 now IPC :1.67679: AVG IPC :1.74320: L2-Pf-HR :0.72758: L2-HR :0.76408: (Sim:0h33m49s) 
CPU  0 inst:  449000005 cyc:  257439037 now IPC :1.69331: AVG IPC :1.74308: L2-Pf-HR :0.72760: L2-HR :0.76405: (Sim:0h33m54s) 
CPU  0 inst:  450000001 cyc:  258018480 now IPC :1.72579: AVG IPC :1.74305: L2-Pf-HR :0.72761: L2-HR :0.76402: (Sim:0h33m58s) 
CPU  0 inst:  451000003 cyc:  258604358 now IPC :1.70684: AVG IPC :1.74296: L2-Pf-HR :0.72757: L2-HR :0.76396: (Sim:0h34m2s) 
CPU  0 inst:  452000001 cyc:  259180706 now IPC :1.73506: AVG IPC :1.74295: L2-Pf-HR :0.72753: L2-HR :0.76391: (Sim:0h34m7s) 
CPU  0 inst:  453000001 cyc:  259774499 now IPC :1.68409: AVG IPC :1.74281: L2-Pf-HR :0.72750: L2-HR :0.76387: (Sim:0h34m11s) 
CPU  0 inst:  454000000 cyc:  260466238 now IPC :1.44563: AVG IPC :1.74202: L2-Pf-HR :0.72740: L2-HR :0.76377: (Sim:0h34m16s) 
CPU  0 inst:  455000002 cyc:  261078340 now IPC :1.63372: AVG IPC :1.74176: L2-Pf-HR :0.72737: L2-HR :0.76373: (Sim:0h34m20s) 
CPU  0 inst:  456000000 cyc:  261644131 now IPC :1.76743: AVG IPC :1.74182: L2-Pf-HR :0.72740: L2-HR :0.76373: (Sim:0h34m25s) 
CPU  0 inst:  457000005 cyc:  262204147 now IPC :1.78567: AVG IPC :1.74191: L2-Pf-HR :0.72742: L2-HR :0.76370: (Sim:0h34m29s) 
CPU  0 inst:  458000005 cyc:  262747822 now IPC :1.83933: AVG IPC :1.74212: L2-Pf-HR :0.72742: L2-HR :0.76368: (Sim:0h34m34s) 
CPU  0 inst:  459000005 cyc:  263298981 now IPC :1.81436: AVG IPC :1.74227: L2-Pf-HR :0.72746: L2-HR :0.76368: (Sim:0h34m38s) 
CPU  0 inst:  460000003 cyc:  263855093 now IPC :1.79820: AVG IPC :1.74239: L2-Pf-HR :0.72752: L2-HR :0.76368: (Sim:0h34m42s) 
CPU  0 inst:  461000000 cyc:  264406861 now IPC :1.81235: AVG IPC :1.74253: L2-Pf-HR :0.72762: L2-HR :0.76370: (Sim:0h34m47s) 
CPU  0 inst:  462000002 cyc:  264960557 now IPC :1.80605: AVG IPC :1.74267: L2-Pf-HR :0.72767: L2-HR :0.76369: (Sim:0h34m51s) 
CPU  0 inst:  463000003 cyc:  265507706 now IPC :1.82766: AVG IPC :1.74284: L2-Pf-HR :0.72768: L2-HR :0.76366: (Sim:0h34m55s) 
CPU  0 inst:  464000000 cyc:  266046601 now IPC :1.85564: AVG IPC :1.74307: L2-Pf-HR :0.72770: L2-HR :0.76365: (Sim:0h34m59s) 
CPU  0 inst:  465000002 cyc:  266593555 now IPC :1.82831: AVG IPC :1.74325: L2-Pf-HR :0.72776: L2-HR :0.76364: (Sim:0h35m4s) 
CPU  0 inst:  466000005 cyc:  267256832 now IPC :1.50767: AVG IPC :1.74266: L2-Pf-HR :0.72777: L2-HR :0.76359: (Sim:0h35m8s) 
CPU  0 inst:  467000001 cyc:  267795635 now IPC :1.85596: AVG IPC :1.74289: L2-Pf-HR :0.72782: L2-HR :0.76373: (Sim:0h35m13s) 
CPU  0 inst:  468000005 cyc:  268329622 now IPC :1.87271: AVG IPC :1.74315: L2-Pf-HR :0.72787: L2-HR :0.76388: (Sim:0h35m17s) 
CPU  0 inst:  469000004 cyc:  268864029 now IPC :1.87123: AVG IPC :1.74340: L2-Pf-HR :0.72794: L2-HR :0.76403: (Sim:0h35m21s) 
CPU  0 inst:  470000002 cyc:  269405643 now IPC :1.84633: AVG IPC :1.74361: L2-Pf-HR :0.72804: L2-HR :0.76419: (Sim:0h35m25s) 
CPU  0 inst:  471000001 cyc:  269945467 now IPC :1.85245: AVG IPC :1.74383: L2-Pf-HR :0.72813: L2-HR :0.76435: (Sim:0h35m30s) 
CPU  0 inst:  472000000 cyc:  270482011 now IPC :1.86378: AVG IPC :1.74407: L2-Pf-HR :0.72819: L2-HR :0.76450: (Sim:0h35m34s) 
CPU  0 inst:  473000000 cyc:  271017881 now IPC :1.86612: AVG IPC :1.74431: L2-Pf-HR :0.72825: L2-HR :0.76465: (Sim:0h35m38s) 
CPU  0 inst:  474000001 cyc:  271758211 now IPC :1.35075: AVG IPC :1.74323: L2-Pf-HR :0.72800: L2-HR :0.76448: (Sim:0h35m43s) 
CPU  0 inst:  475000002 cyc:  272350207 now IPC :1.68920: AVG IPC :1.74312: L2-Pf-HR :0.72789: L2-HR :0.76441: (Sim:0h35m47s) 
CPU  0 inst:  476000005 cyc:  272926663 now IPC :1.73474: AVG IPC :1.74310: L2-Pf-HR :0.72786: L2-HR :0.76436: (Sim:0h35m52s) 
CPU  0 inst:  477000004 cyc:  273510230 now IPC :1.71360: AVG IPC :1.74303: L2-Pf-HR :0.72781: L2-HR :0.76429: (Sim:0h35m56s) 
CPU  0 inst:  478000003 cyc:  274086020 now IPC :1.73674: AVG IPC :1.74302: L2-Pf-HR :0.72774: L2-HR :0.76423: (Sim:0h36m1s) 
CPU  0 inst:  479000005 cyc:  274681327 now IPC :1.67981: AVG IPC :1.74288: L2-Pf-HR :0.72771: L2-HR :0.76420: (Sim:0h36m5s) 
CPU  0 inst:  480000000 cyc:  275275120 now IPC :1.68408: AVG IPC :1.74276: L2-Pf-HR :0.72768: L2-HR :0.76415: (Sim:0h36m10s) 
CPU  0 inst:  481000000 cyc:  275855391 now IPC :1.72333: AVG IPC :1.74272: L2-Pf-HR :0.72771: L2-HR :0.76413: (Sim:0h36m14s) 
CPU  0 inst:  482000000 cyc:  276444462 now IPC :1.69759: AVG IPC :1.74262: L2-Pf-HR :0.72766: L2-HR :0.76407: (Sim:0h36m18s) 
CPU  0 inst:  483000000 cyc:  277020109 now IPC :1.73718: AVG IPC :1.74261: L2-Pf-HR :0.72763: L2-HR :0.76401: (Sim:0h36m23s) 
CPU  0 inst:  484000003 cyc:  277612600 now IPC :1.68779: AVG IPC :1.74249: L2-Pf-HR :0.72756: L2-HR :0.76395: (Sim:0h36m27s) 
CPU  0 inst:  485000002 cyc:  278207218 now IPC :1.68175: AVG IPC :1.74236: L2-Pf-HR :0.72752: L2-HR :0.76390: (Sim:0h36m32s) 
CPU  0 inst:  486000001 cyc:  278934608 now IPC :1.37478: AVG IPC :1.74140: L2-Pf-HR :0.72737: L2-HR :0.76379: (Sim:0h36m36s) 
CPU  0 inst:  487000005 cyc:  279495382 now IPC :1.78326: AVG IPC :1.74148: L2-Pf-HR :0.72736: L2-HR :0.76378: (Sim:0h36m41s) 
CPU  0 inst:  488000000 cyc:  280053539 now IPC :1.79160: AVG IPC :1.74158: L2-Pf-HR :0.72737: L2-HR :0.76375: (Sim:0h36m45s) 
CPU  0 inst:  489000001 cyc:  280598660 now IPC :1.83446: AVG IPC :1.74176: L2-Pf-HR :0.72739: L2-HR :0.76374: (Sim:0h36m49s) 
CPU  0 inst:  490000000 cyc:  281148536 now IPC :1.81859: AVG IPC :1.74191: L2-Pf-HR :0.72740: L2-HR :0.76372: (Sim:0h36m54s) 
CPU  0 inst:  491000002 cyc:  281706999 now IPC :1.79063: AVG IPC :1.74201: L2-Pf-HR :0.72744: L2-HR :0.76372: (Sim:0h36m58s) 
CPU  0 inst:  492000000 cyc:  282262363 now IPC :1.80062: AVG IPC :1.74213: L2-Pf-HR :0.72753: L2-HR :0.76373: (Sim:0h37m2s) 
CPU  0 inst:  493000000 cyc:  282814758 now IPC :1.81030: AVG IPC :1.74226: L2-Pf-HR :0.72759: L2-HR :0.76373: (Sim:0h37m7s) 
CPU  0 inst:  494000002 cyc:  283367628 now IPC :1.80875: AVG IPC :1.74239: L2-Pf-HR :0.72760: L2-HR :0.76371: (Sim:0h37m11s) 
CPU  0 inst:  495000004 cyc:  283908063 now IPC :1.85037: AVG IPC :1.74260: L2-Pf-HR :0.72762: L2-HR :0.76370: (Sim:0h37m15s) 
CPU  0 inst:  496000000 cyc:  284454308 now IPC :1.83067: AVG IPC :1.74277: L2-Pf-HR :0.72763: L2-HR :0.76367: (Sim:0h37m20s) 
CPU  0 inst:  497000001 cyc:  284992387 now IPC :1.85847: AVG IPC :1.74299: L2-Pf-HR :0.72773: L2-HR :0.76368: (Sim:0h37m24s) 
CPU  0 inst:  498000002 cyc:  285663533 now IPC :1.48999: AVG IPC :1.74239: L2-Pf-HR :0.72768: L2-HR :0.76369: (Sim:0h37m29s) 
CPU  0 inst:  499000001 cyc:  286206281 now IPC :1.84247: AVG IPC :1.74258: L2-Pf-HR :0.72774: L2-HR :0.76382: (Sim:0h37m33s) 
CPU  0 inst:  500000002 cyc:  286739923 now IPC :1.87392: AVG IPC :1.74283: L2-Pf-HR :0.72778: L2-HR :0.76395: (Sim:0h37m37s) 
CPU  0 inst:  501000005 cyc:  287276058 now IPC :1.86521: AVG IPC :1.74305: L2-Pf-HR :0.72787: L2-HR :0.76410: (Sim:0h37m41s) 
CPU  0 inst:  502000002 cyc:  287809266 now IPC :1.87544: AVG IPC :1.74330: L2-Pf-HR :0.72797: L2-HR :0.76426: (Sim:0h37m46s) 
CPU  0 inst:  503000002 cyc:  288346921 now IPC :1.85993: AVG IPC :1.74352: L2-Pf-HR :0.72804: L2-HR :0.76440: (Sim:0h37m50s) 
CPU  0 inst:  504000000 cyc:  288882122 now IPC :1.86845: AVG IPC :1.74375: L2-Pf-HR :0.72809: L2-HR :0.76454: (Sim:0h37m54s) 
CPU  0 inst:  505000000 cyc:  289418672 now IPC :1.86376: AVG IPC :1.74397: L2-Pf-HR :0.72824: L2-HR :0.76472: (Sim:0h37m58s) 
CPU  0 inst:  506000003 cyc:  290172336 now IPC :1.32686: AVG IPC :1.74289: L2-Pf-HR :0.72783: L2-HR :0.76443: (Sim:0h38m3s) 
CPU  0 inst:  507000004 cyc:  290748066 now IPC :1.73693: AVG IPC :1.74288: L2-Pf-HR :0.72775: L2-HR :0.76438: (Sim:0h38m8s) 
CPU  0 inst:  508000000 cyc:  291333629 now IPC :1.70775: AVG IPC :1.74280: L2-Pf-HR :0.72768: L2-HR :0.76430: (Sim:0h38m12s) 
CPU  0 inst:  509000005 cyc:  291905136 now IPC :1.74977: AVG IPC :1.74282: L2-Pf-HR :0.72761: L2-HR :0.76424: (Sim:0h38m17s) 
CPU  0 inst:  510000004 cyc:  292492351 now IPC :1.70295: AVG IPC :1.74274: L2-Pf-HR :0.72756: L2-HR :0.76418: (Sim:0h38m21s) 
CPU  0 inst:  511000001 cyc:  293083207 now IPC :1.69245: AVG IPC :1.74264: L2-Pf-HR :0.72751: L2-HR :0.76413: (Sim:0h38m25s) 
CPU  0 inst:  512000000 cyc:  293662545 now IPC :1.72611: AVG IPC :1.74260: L2-Pf-HR :0.72752: L2-HR :0.76410: (Sim:0h38m30s) 
CPU  0 inst:  513000003 cyc:  294251750 now IPC :1.69721: AVG IPC :1.74251: L2-Pf-HR :0.72747: L2-HR :0.76404: (Sim:0h38m34s) 
CPU  0 inst:  514000003 cyc:  294828870 now IPC :1.73274: AVG IPC :1.74249: L2-Pf-HR :0.72743: L2-HR :0.76398: (Sim:0h38m39s) 
CPU  0 inst:  515000002 cyc:  295412433 now IPC :1.71361: AVG IPC :1.74244: L2-Pf-HR :0.72737: L2-HR :0.76392: (Sim:0h38m43s) 
CPU  0 inst:  516000000 cyc:  296005602 now IPC :1.68586: AVG IPC :1.74232: L2-Pf-HR :0.72730: L2-HR :0.76385: (Sim:0h38m48s) 
CPU  0 inst:  517000001 cyc:  296588351 now IPC :1.71601: AVG IPC :1.74227: L2-Pf-HR :0.72743: L2-HR :0.76385: (Sim:0h38m52s) 
CPU  0 inst:  518000005 cyc:  297300133 now IPC :1.40493: AVG IPC :1.74146: L2-Pf-HR :0.72716: L2-HR :0.76373: (Sim:0h38m57s) 
CPU  0 inst:  519000005 cyc:  297863146 now IPC :1.77616: AVG IPC :1.74153: L2-Pf-HR :0.72716: L2-HR :0.76371: (Sim:0h39m1s) 
CPU  0 inst:  520000000 cyc:  298420121 now IPC :1.79540: AVG IPC :1.74163: L2-Pf-HR :0.72719: L2-HR :0.76370: (Sim:0h39m5s) 
CPU  0 inst:  521000004 cyc:  298967244 now IPC :1.82775: AVG IPC :1.74178: L2-Pf-HR :0.72721: L2-HR :0.76368: (Sim:0h39m10s) 
CPU  0 inst:  522000003 cyc:  299523124 now IPC :1.79895: AVG IPC :1.74189: L2-Pf-HR :0.72723: L2-HR :0.76367: (Sim:0h39m14s) 
CPU  0 inst:  523000004 cyc:  300085566 now IPC :1.77796: AVG IPC :1.74196: L2-Pf-HR :0.72731: L2-HR :0.76369: (Sim:0h39m18s) 
CPU  0 inst:  524000003 cyc:  300638235 now IPC :1.80940: AVG IPC :1.74208: L2-Pf-HR :0.72739: L2-HR :0.76369: (Sim:0h39m23s) 
CPU  0 inst:  525000001 cyc:  301188840 now IPC :1.81618: AVG IPC :1.74222: L2-Pf-HR :0.72742: L2-HR :0.76368: (Sim:0h39m27s) 
CPU  0 inst:  526000005 cyc:  301733002 now IPC :1.83770: AVG IPC :1.74239: L2-Pf-HR :0.72745: L2-HR :0.76366: (Sim:0h39m31s) 
CPU  0 inst:  527000005 cyc:  302273955 now IPC :1.84859: AVG IPC :1.74258: L2-Pf-HR :0.72746: L2-HR :0.76364: (Sim:0h39m36s) 
CPU  0 inst:  528000000 cyc:  302820733 now IPC :1.82889: AVG IPC :1.74274: L2-Pf-HR :0.72748: L2-HR :0.76361: (Sim:0h39m40s) 
CPU  0 inst:  529000004 cyc:  303471475 now IPC :1.53671: AVG IPC :1.74230: L2-Pf-HR :0.72751: L2-HR :0.76357: (Sim:0h39m44s) 
CPU  0 inst:  530000000 cyc:  304010809 now IPC :1.85413: AVG IPC :1.74250: L2-Pf-HR :0.72756: L2-HR :0.76369: (Sim:0h39m49s) 
CPU  0 inst:  531000003 cyc:  304544293 now IPC :1.87448: AVG IPC :1.74273: L2-Pf-HR :0.72760: L2-HR :0.76380: (Sim:0h39m53s) 
CPU  0 inst:  532000001 cyc:  305081466 now IPC :1.86159: AVG IPC :1.74294: L2-Pf-HR :0.72766: L2-HR :0.76392: (Sim:0h39m57s) 
CPU  0 inst:  533000000 cyc:  305617033 now IPC :1.86718: AVG IPC :1.74316: L2-Pf-HR :0.72774: L2-HR :0.76406: (Sim:0h40m2s) 
CPU  0 inst:  534000004 cyc:  306151474 now IPC :1.87112: AVG IPC :1.74338: L2-Pf-HR :0.72783: L2-HR :0.76420: (Sim:0h40m6s) 
CPU  0 inst:  535000005 cyc:  306687334 now IPC :1.86616: AVG IPC :1.74359: L2-Pf-HR :0.72788: L2-HR :0.76432: (Sim:0h40m10s) 
CPU  0 inst:  536000000 cyc:  307228002 now IPC :1.84955: AVG IPC :1.74378: L2-Pf-HR :0.72793: L2-HR :0.76445: (Sim:0h40m14s) 
CPU  0 inst:  537000001 cyc:  307959637 now IPC :1.36680: AVG IPC :1.74288: L2-Pf-HR :0.72772: L2-HR :0.76432: (Sim:0h40m19s) 
CPU  0 inst:  538000005 cyc:  308544287 now IPC :1.71043: AVG IPC :1.74282: L2-Pf-HR :0.72763: L2-HR :0.76427: (Sim:0h40m23s) 
CPU  0 inst:  539000001 cyc:  309129527 now IPC :1.70869: AVG IPC :1.74276: L2-Pf-HR :0.72757: L2-HR :0.76421: (Sim:0h40m28s) 
CPU  0 inst:  540000004 cyc:  309703722 now IPC :1.74157: AVG IPC :1.74275: L2-Pf-HR :0.72751: L2-HR :0.76414: (Sim:0h40m32s) 
CPU  0 inst:  541000000 cyc:  310287031 now IPC :1.71435: AVG IPC :1.74270: L2-Pf-HR :0.72743: L2-HR :0.76409: (Sim:0h40m37s) 
CPU  0 inst:  542000002 cyc:  310865302 now IPC :1.72930: AVG IPC :1.74268: L2-Pf-HR :0.72741: L2-HR :0.76405: (Sim:0h40m41s) 
CPU  0 inst:  543000001 cyc:  311451384 now IPC :1.70624: AVG IPC :1.74261: L2-Pf-HR :0.72741: L2-HR :0.76402: (Sim:0h40m46s) 
CPU  0 inst:  544000000 cyc:  312040221 now IPC :1.69826: AVG IPC :1.74252: L2-Pf-HR :0.72740: L2-HR :0.76399: (Sim:0h40m50s) 
CPU  0 inst:  545000002 cyc:  312624810 now IPC :1.71061: AVG IPC :1.74246: L2-Pf-HR :0.72736: L2-HR :0.76393: (Sim:0h40m54s) 
CPU  0 inst:  546000002 cyc:  313217307 now IPC :1.68777: AVG IPC :1.74236: L2-Pf-HR :0.72730: L2-HR :0.76388: (Sim:0h40m59s) 
CPU  0 inst:  547000000 cyc:  313802203 now IPC :1.70970: AVG IPC :1.74230: L2-Pf-HR :0.72723: L2-HR :0.76382: (Sim:0h41m3s) 
CPU  0 inst:  548000002 cyc:  314379232 now IPC :1.73302: AVG IPC :1.74228: L2-Pf-HR :0.72722: L2-HR :0.76378: (Sim:0h41m8s) 
CPU  0 inst:  549000005 cyc:  315105176 now IPC :1.37752: AVG IPC :1.74144: L2-Pf-HR :0.72710: L2-HR :0.76368: (Sim:0h41m13s) 
CPU  0 inst:  550000001 cyc:  315664940 now IPC :1.78646: AVG IPC :1.74152: L2-Pf-HR :0.72709: L2-HR :0.76367: (Sim:0h41m17s) 
CPU  0 inst:  551000000 cyc:  316222849 now IPC :1.79241: AVG IPC :1.74161: L2-Pf-HR :0.72711: L2-HR :0.76366: (Sim:0h41m21s) 
CPU  0 inst:  552000000 cyc:  316771688 now IPC :1.82203: AVG IPC :1.74175: L2-Pf-HR :0.72713: L2-HR :0.76364: (Sim:0h41m26s) 
CPU  0 inst:  553000003 cyc:  317325444 now IPC :1.80585: AVG IPC :1.74186: L2-Pf-HR :0.72713: L2-HR :0.76362: (Sim:0h41m30s) 
CPU  0 inst:  554000003 cyc:  317884969 now IPC :1.78723: AVG IPC :1.74194: L2-Pf-HR :0.72719: L2-HR :0.76364: (Sim:0h41m34s) 
CPU  0 inst:  555000000 cyc:  318439060 now IPC :1.80475: AVG IPC :1.74205: L2-Pf-HR :0.72725: L2-HR :0.76364: (Sim:0h41m39s) 
CPU  0 inst:  556000000 cyc:  318991790 now IPC :1.80920: AVG IPC :1.74217: L2-Pf-HR :0.72730: L2-HR :0.76364: (Sim:0h41m43s) 
CPU  0 inst:  557000005 cyc:  319541762 now IPC :1.81828: AVG IPC :1.74230: L2-Pf-HR :0.72733: L2-HR :0.76363: (Sim:0h41m47s) 
CPU  0 inst:  558000005 cyc:  320085099 now IPC :1.84048: AVG IPC :1.74247: L2-Pf-HR :0.72734: L2-HR :0.76361: (Sim:0h41m51s) 
CPU  0 inst:  559000001 cyc:  320633937 now IPC :1.82202: AVG IPC :1.74260: L2-Pf-HR :0.72735: L2-HR :0.76359: (Sim:0h41m56s) 
CPU  0 inst:  560000000 cyc:  321182119 now IPC :1.82421: AVG IPC :1.74274: L2-Pf-HR :0.72742: L2-HR :0.76360: (Sim:0h42m0s) 
CPU  0 inst:  561000003 cyc:  321844031 now IPC :1.51078: AVG IPC :1.74226: L2-Pf-HR :0.72741: L2-HR :0.76359: (Sim:0h42m5s) 
CPU  0 inst:  562000001 cyc:  322379866 now IPC :1.86624: AVG IPC :1.74247: L2-Pf-HR :0.72745: L2-HR :0.76369: (Sim:0h42m9s) 
CPU  0 inst:  563000002 cyc:  322915021 now IPC :1.86862: AVG IPC :1.74268: L2-Pf-HR :0.72750: L2-HR :0.76380: (Sim:0h42m13s) 
CPU  0 inst:  564000005 cyc:  323452638 now IPC :1.86007: AVG IPC :1.74288: L2-Pf-HR :0.72756: L2-HR :0.76392: (Sim:0h42m17s) 
CPU  0 inst:  565000000 cyc:  323995663 now IPC :1.84153: AVG IPC :1.74304: L2-Pf-HR :0.72765: L2-HR :0.76405: (Sim:0h42m22s) 
CPU  0 inst:  566000001 cyc:  324533763 now IPC :1.85839: AVG IPC :1.74323: L2-Pf-HR :0.72770: L2-HR :0.76416: (Sim:0h42m26s) 
CPU  0 inst:  567000000 cyc:  325069346 now IPC :1.86712: AVG IPC :1.74344: L2-Pf-HR :0.72775: L2-HR :0.76428: (Sim:0h42m30s) 
CPU  0 inst:  568000000 cyc:  325610000 now IPC :1.84961: AVG IPC :1.74361: L2-Pf-HR :0.72783: L2-HR :0.76440: (Sim:0h42m34s) 
CPU  0 inst:  569000005 cyc:  326366688 now IPC :1.32156: AVG IPC :1.74263: L2-Pf-HR :0.72756: L2-HR :0.76420: (Sim:0h42m39s) 
CPU  0 inst:  570000004 cyc:  326948646 now IPC :1.71834: AVG IPC :1.74259: L2-Pf-HR :0.72751: L2-HR :0.76416: (Sim:0h42m43s) 
CPU  0 inst:  571000000 cyc:  327524441 now IPC :1.73672: AVG IPC :1.74258: L2-Pf-HR :0.72746: L2-HR :0.76411: (Sim:0h42m47s) 
CPU  0 inst:  572000002 cyc:  328106448 now IPC :1.71820: AVG IPC :1.74254: L2-Pf-HR :0.72741: L2-HR :0.76407: (Sim:0h42m51s) 
CPU  0 inst:  573000001 cyc:  328687285 now IPC :1.72165: AVG IPC :1.74250: L2-Pf-HR :0.72737: L2-HR :0.76403: (Sim:0h42m55s) 
CPU  0 inst:  574000002 cyc:  329275819 now IPC :1.69914: AVG IPC :1.74242: L2-Pf-HR :0.72737: L2-HR :0.76401: (Sim:0h43m0s) 
CPU  0 inst:  575000005 cyc:  329857139 now IPC :1.72023: AVG IPC :1.74238: L2-Pf-HR :0.72738: L2-HR :0.76399: (Sim:0h43m4s) 
CPU  0 inst:  576000000 cyc:  330438384 now IPC :1.72044: AVG IPC :1.74234: L2-Pf-HR :0.72737: L2-HR :0.76396: (Sim:0h43m8s) 
CPU  0 inst:  577000000 cyc:  331031492 now IPC :1.68603: AVG IPC :1.74224: L2-Pf-HR :0.72732: L2-HR :0.76392: (Sim:0h43m12s) 
CPU  0 inst:  578000004 cyc:  331606048 now IPC :1.74048: AVG IPC :1.74224: L2-Pf-HR :0.72728: L2-HR :0.76388: (Sim:0h43m16s) 
CPU  0 inst:  579000005 cyc:  332190857 now IPC :1.70996: AVG IPC :1.74218: L2-Pf-HR :0.72723: L2-HR :0.76385: (Sim:0h43m20s) 
CPU  0 inst:  580000001 cyc:  332768661 now IPC :1.73068: AVG IPC :1.74216: L2-Pf-HR :0.72731: L2-HR :0.76383: (Sim:0h43m25s) 
CPU  0 inst:  581000003 cyc:  333494087 now IPC :1.37850: AVG IPC :1.74137: L2-Pf-HR :0.72712: L2-HR :0.76373: (Sim:0h43m29s) 
CPU  0 inst:  582000004 cyc:  334048346 now IPC :1.80421: AVG IPC :1.74147: L2-Pf-HR :0.72712: L2-HR :0.76371: (Sim:0h43m33s) 
CPU  0 inst:  583000004 cyc:  334602562 now IPC :1.80435: AVG IPC :1.74158: L2-Pf-HR :0.72713: L2-HR :0.76369: (Sim:0h43m37s) 
CPU  0 inst:  584000000 cyc:  335151082 now IPC :1.82308: AVG IPC :1.74171: L2-Pf-HR :0.72712: L2-HR :0.76367: (Sim:0h43m41s) 
CPU  0 inst:  585000003 cyc:  335707947 now IPC :1.79577: AVG IPC :1.74180: L2-Pf-HR :0.72713: L2-HR :0.76367: (Sim:0h43m45s) 
CPU  0 inst:  586000000 cyc:  336269020 now IPC :1.78229: AVG IPC :1.74187: L2-Pf-HR :0.72717: L2-HR :0.76367: (Sim:0h43m50s) 
CPU  0 inst:  587000001 cyc:  336816494 now IPC :1.82657: AVG IPC :1.74201: L2-Pf-HR :0.72722: L2-HR :0.76367: (Sim:0h43m54s) 
CPU  0 inst:  588000004 cyc:  337367522 now IPC :1.81480: AVG IPC :1.74213: L2-Pf-HR :0.72725: L2-HR :0.76366: (Sim:0h43m58s) 
CPU  0 inst:  589000002 cyc:  337910716 now IPC :1.84096: AVG IPC :1.74229: L2-Pf-HR :0.72725: L2-HR :0.76363: (Sim:0h44m2s) 
CPU  0 inst:  590000001 cyc:  338456634 now IPC :1.83178: AVG IPC :1.74243: L2-Pf-HR :0.72724: L2-HR :0.76361: (Sim:0h44m6s) 
CPU  0 inst:  591000003 cyc:  339006776 now IPC :1.81772: AVG IPC :1.74255: L2-Pf-HR :0.72724: L2-HR :0.76359: (Sim:0h44m10s) 
CPU  0 inst:  592000000 cyc:  339633653 now IPC :1.59520: AVG IPC :1.74228: L2-Pf-HR :0.72727: L2-HR :0.76355: (Sim:0h44m14s) 
CPU  0 inst:  593000003 cyc:  340208601 now IPC :1.73929: AVG IPC :1.74228: L2-Pf-HR :0.72729: L2-HR :0.76363: (Sim:0h44m18s) 
CPU  0 inst:  594000005 cyc:  340748018 now IPC :1.85386: AVG IPC :1.74245: L2-Pf-HR :0.72733: L2-HR :0.76374: (Sim:0h44m22s) 
CPU  0 inst:  595000000 cyc:  341284087 now IPC :1.86542: AVG IPC :1.74265: L2-Pf-HR :0.72738: L2-HR :0.76384: (Sim:0h44m26s) 
CPU  0 inst:  596000002 cyc:  341825105 now IPC :1.84837: AVG IPC :1.74281: L2-Pf-HR :0.72746: L2-HR :0.76398: (Sim:0h44m30s) 
CPU  0 inst:  597000002 cyc:  342365485 now IPC :1.85055: AVG IPC :1.74298: L2-Pf-HR :0.72755: L2-HR :0.76410: (Sim:0h44m34s) 
CPU  0 inst:  598000002 cyc:  342905279 now IPC :1.85256: AVG IPC :1.74316: L2-Pf-HR :0.72759: L2-HR :0.76421: (Sim:0h44m38s) 
CPU  0 inst:  599000003 cyc:  343442759 now IPC :1.86054: AVG IPC :1.74334: L2-Pf-HR :0.72764: L2-HR :0.76433: (Sim:0h44m42s) 
CPU  0 inst:  600000000 cyc:  344144424 now IPC :1.42518: AVG IPC :1.74269: L2-Pf-HR :0.72750: L2-HR :0.76425: (Sim:0h44m47s) 
CPU  0 inst:  601000000 cyc:  344751870 now IPC :1.64624: AVG IPC :1.74252: L2-Pf-HR :0.72743: L2-HR :0.76419: (Sim:0h44m51s) 
CPU  0 inst:  602000005 cyc:  345331362 now IPC :1.72566: AVG IPC :1.74249: L2-Pf-HR :0.72740: L2-HR :0.76415: (Sim:0h44m55s) 
CPU  0 inst:  603000002 cyc:  345920036 now IPC :1.69873: AVG IPC :1.74242: L2-Pf-HR :0.72736: L2-HR :0.76411: (Sim:0h45m0s) 
CPU  0 inst:  604000000 cyc:  346494540 now IPC :1.74063: AVG IPC :1.74241: L2-Pf-HR :0.72732: L2-HR :0.76406: (Sim:0h45m4s) 
CPU  0 inst:  605000002 cyc:  347079776 now IPC :1.70872: AVG IPC :1.74236: L2-Pf-HR :0.72730: L2-HR :0.76404: (Sim:0h45m8s) 
CPU  0 inst:  606000001 cyc:  347671368 now IPC :1.69035: AVG IPC :1.74227: L2-Pf-HR :0.72731: L2-HR :0.76401: (Sim:0h45m12s) 
CPU  0 inst:  607000003 cyc:  348250541 now IPC :1.72660: AVG IPC :1.74224: L2-Pf-HR :0.72733: L2-HR :0.76399: (Sim:0h45m16s) 
CPU  0 inst:  608000000 cyc:  348842346 now IPC :1.68974: AVG IPC :1.74215: L2-Pf-HR :0.72732: L2-HR :0.76396: (Sim:0h45m21s) 
CPU  0 inst:  609000004 cyc:  349419637 now IPC :1.73224: AVG IPC :1.74214: L2-Pf-HR :0.72727: L2-HR :0.76391: (Sim:0h45m25s) 
CPU  0 inst:  610000000 cyc:  350003867 now IPC :1.71165: AVG IPC :1.74209: L2-Pf-HR :0.72724: L2-HR :0.76387: (Sim:0h45m29s) 
CPU  0 inst:  611000002 cyc:  350590001 now IPC :1.70610: AVG IPC :1.74203: L2-Pf-HR :0.72722: L2-HR :0.76383: (Sim:0h45m34s) 
CPU  0 inst:  612000004 cyc:  351305021 now IPC :1.39857: AVG IPC :1.74132: L2-Pf-HR :0.72712: L2-HR :0.76375: (Sim:0h45m38s) 
CPU  0 inst:  613000004 cyc:  351876078 now IPC :1.75114: AVG IPC :1.74134: L2-Pf-HR :0.72713: L2-HR :0.76373: (Sim:0h45m43s) 
CPU  0 inst:  614000004 cyc:  352435644 now IPC :1.78710: AVG IPC :1.74141: L2-Pf-HR :0.72714: L2-HR :0.76372: (Sim:0h45m47s) 
CPU  0 inst:  615000003 cyc:  352987853 now IPC :1.81091: AVG IPC :1.74152: L2-Pf-HR :0.72715: L2-HR :0.76370: (Sim:0h45m51s) 
CPU  0 inst:  616000000 cyc:  353539685 now IPC :1.81214: AVG IPC :1.74163: L2-Pf-HR :0.72716: L2-HR :0.76369: (Sim:0h45m56s) 
CPU  0 inst:  617000004 cyc:  354103306 now IPC :1.77425: AVG IPC :1.74169: L2-Pf-HR :0.72720: L2-HR :0.76369: (Sim:0h46m0s) 
CPU  0 inst:  618000002 cyc:  354654100 now IPC :1.81556: AVG IPC :1.74180: L2-Pf-HR :0.72726: L2-HR :0.76369: (Sim:0h46m4s) 
CPU  0 inst:  619000002 cyc:  355202309 now IPC :1.82412: AVG IPC :1.74193: L2-Pf-HR :0.72732: L2-HR :0.76370: (Sim:0h46m8s) 
CPU  0 inst:  620000002 cyc:  355749481 now IPC :1.82758: AVG IPC :1.74206: L2-Pf-HR :0.72734: L2-HR :0.76368: (Sim:0h46m12s) 
CPU  0 inst:  621000004 cyc:  356297835 now IPC :1.82364: AVG IPC :1.74219: L2-Pf-HR :0.72736: L2-HR :0.76366: (Sim:0h46m17s) 
CPU  0 inst:  622000004 cyc:  356842665 now IPC :1.83543: AVG IPC :1.74233: L2-Pf-HR :0.72737: L2-HR :0.76365: (Sim:0h46m21s) 
CPU  0 inst:  623000003 cyc:  357392330 now IPC :1.81929: AVG IPC :1.74245: L2-Pf-HR :0.72741: L2-HR :0.76364: (Sim:0h46m25s) 
CPU  0 inst:  624000000 cyc:  358045631 now IPC :1.53068: AVG IPC :1.74206: L2-Pf-HR :0.72741: L2-HR :0.76363: (Sim:0h46m29s) 
CPU  0 inst:  625000001 cyc:  358579431 now IPC :1.87336: AVG IPC :1.74226: L2-Pf-HR :0.72746: L2-HR :0.76374: (Sim:0h46m34s) 
CPU  0 inst:  626000001 cyc:  359117471 now IPC :1.85860: AVG IPC :1.74243: L2-Pf-HR :0.72750: L2-HR :0.76384: (Sim:0h46m38s) 
CPU  0 inst:  627000003 cyc:  359657842 now IPC :1.85058: AVG IPC :1.74259: L2-Pf-HR :0.72755: L2-HR :0.76395: (Sim:0h46m42s) 
[...]
CPU  0 inst: 2238000001 cyc: 2195354229 now IPC :1.51961: AVG IPC :1.01898: L2-Pf-HR :0.65803: L2-HR :0.73199: (Sim:2h58m43s) 
CPU  0 inst: 2239000000 cyc: 2195831169 now IPC :2.09670: AVG IPC :1.01921: L2-Pf-HR :0.65812: L2-HR :0.73206: (Sim:2h58m47s) 
CPU  0 inst: 2240000000 cyc: 2196469385 now IPC :1.56687: AVG IPC :1.01937: L2-Pf-HR :0.65814: L2-HR :0.73209: (Sim:2h58m52s) 
CPU  0 inst: 2241000005 cyc: 2196931839 now IPC :2.16239: AVG IPC :1.01961: L2-Pf-HR :0.65824: L2-HR :0.73216: (Sim:2h58m55s) 
CPU  0 inst: 2242000001 cyc: 2197419846 now IPC :2.04914: AVG IPC :1.01984: L2-Pf-HR :0.65838: L2-HR :0.73224: (Sim:2h58m59s) 
CPU  0 inst: 2243000002 cyc: 2197955391 now IPC :1.86726: AVG IPC :1.02005: L2-Pf-HR :0.65841: L2-HR :0.73229: (Sim:2h59m3s) 
CPU  0 inst: 2244000002 cyc: 2198595827 now IPC :1.56144: AVG IPC :1.02020: L2-Pf-HR :0.65842: L2-HR :0.73230: (Sim:2h59m7s) 
CPU  0 inst: 2245000003 cyc: 2199096765 now IPC :1.99626: AVG IPC :1.02043: L2-Pf-HR :0.65850: L2-HR :0.73237: (Sim:2h59m11s) 
CPU  0 inst: 2246000000 cyc: 2199641764 now IPC :1.83486: AVG IPC :1.02063: L2-Pf-HR :0.65861: L2-HR :0.73244: (Sim:2h59m15s) 
CPU  0 inst: 2247000003 cyc: 2200197328 now IPC :1.79998: AVG IPC :1.02083: L2-Pf-HR :0.65862: L2-HR :0.73246: (Sim:2h59m19s) 
CPU  0 inst: 2248000000 cyc: 2200660740 now IPC :2.15790: AVG IPC :1.02107: L2-Pf-HR :0.65871: L2-HR :0.73253: (Sim:2h59m23s) 
CPU  0 inst: 2249000001 cyc: 2201228197 now IPC :1.76225: AVG IPC :1.02126: L2-Pf-HR :0.65879: L2-HR :0.73259: (Sim:2h59m26s) 
CPU  0 inst: 2250000004 cyc: 2201798749 now IPC :1.75269: AVG IPC :1.02145: L2-Pf-HR :0.65884: L2-HR :0.73263: (Sim:2h59m30s) 
CPU  0 inst: 2251000000 cyc: 2202359404 now IPC :1.78362: AVG IPC :1.02164: L2-Pf-HR :0.65888: L2-HR :0.73266: (Sim:2h59m35s) 
CPU  0 inst: 2252000000 cyc: 2202843100 now IPC :2.06741: AVG IPC :1.02187: L2-Pf-HR :0.65898: L2-HR :0.73274: (Sim:2h59m39s) 
CPU  0 inst: 2253000001 cyc: 2203473878 now IPC :1.58535: AVG IPC :1.02203: L2-Pf-HR :0.65899: L2-HR :0.73276: (Sim:2h59m43s) 
CPU  0 inst: 2254000002 cyc: 2203929985 now IPC :2.19247: AVG IPC :1.02227: L2-Pf-HR :0.65908: L2-HR :0.73283: (Sim:2h59m46s) 
CPU  0 inst: 2255000002 cyc: 2204493860 now IPC :1.77344: AVG IPC :1.02247: L2-Pf-HR :0.65916: L2-HR :0.73289: (Sim:2h59m50s) 
CPU  0 inst: 2256000000 cyc: 2204951626 now IPC :2.18452: AVG IPC :1.02271: L2-Pf-HR :0.65926: L2-HR :0.73296: (Sim:2h59m54s) 
CPU  0 inst: 2257000005 cyc: 2205597778 now IPC :1.54763: AVG IPC :1.02286: L2-Pf-HR :0.65926: L2-HR :0.73297: (Sim:2h59m58s) 
CPU  0 inst: 2258000002 cyc: 2206079038 now IPC :2.07787: AVG IPC :1.02309: L2-Pf-HR :0.65935: L2-HR :0.73304: (Sim:3h0m2s) 
CPU  0 inst: 2259000002 cyc: 2206705421 now IPC :1.59647: AVG IPC :1.02325: L2-Pf-HR :0.65937: L2-HR :0.73307: (Sim:3h0m7s) 
CPU  0 inst: 2260000001 cyc: 2207174026 now IPC :2.13399: AVG IPC :1.02349: L2-Pf-HR :0.65946: L2-HR :0.73313: (Sim:3h0m10s) 
CPU  0 inst: 2261000004 cyc: 2207656709 now IPC :2.07176: AVG IPC :1.02372: L2-Pf-HR :0.65960: L2-HR :0.73322: (Sim:3h0m14s) 
CPU  0 inst: 2262000002 cyc: 2208193055 now IPC :1.86446: AVG IPC :1.02392: L2-Pf-HR :0.65963: L2-HR :0.73326: (Sim:3h0m17s) 
CPU  0 inst: 2263000005 cyc: 2208743303 now IPC :1.81737: AVG IPC :1.02412: L2-Pf-HR :0.65976: L2-HR :0.73333: (Sim:3h0m21s) 
CPU  0 inst: 2264000000 cyc: 2209289678 now IPC :1.83024: AVG IPC :1.02432: L2-Pf-HR :0.65992: L2-HR :0.73343: (Sim:3h0m25s) 
CPU  0 inst: 2265000002 cyc: 2209989891 now IPC :1.42814: AVG IPC :1.02445: L2-Pf-HR :0.65996: L2-HR :0.73347: (Sim:3h0m30s) 
CPU  0 inst: 2266000002 cyc: 2210542996 now IPC :1.80797: AVG IPC :1.02464: L2-Pf-HR :0.66001: L2-HR :0.73350: (Sim:3h0m34s) 
CPU  0 inst: 2267000004 cyc: 2211087237 now IPC :1.83742: AVG IPC :1.02485: L2-Pf-HR :0.66009: L2-HR :0.73356: (Sim:3h0m38s) 
CPU  0 inst: 2268000003 cyc: 2211769315 now IPC :1.46611: AVG IPC :1.02498: L2-Pf-HR :0.66006: L2-HR :0.73356: (Sim:3h0m42s) 
CPU  0 inst: 2269000000 cyc: 2212273601 now IPC :1.98300: AVG IPC :1.02520: L2-Pf-HR :0.66014: L2-HR :0.73361: (Sim:3h0m45s) 
CPU  0 inst: 2270000003 cyc: 2212909281 now IPC :1.57312: AVG IPC :1.02536: L2-Pf-HR :0.66018: L2-HR :0.73365: (Sim:3h0m49s) 
CPU  0 inst: 2271000005 cyc: 2213425904 now IPC :1.93565: AVG IPC :1.02557: L2-Pf-HR :0.66027: L2-HR :0.73371: (Sim:3h0m53s) 
CPU  0 inst: 2272000000 cyc: 2214071319 now IPC :1.54938: AVG IPC :1.02572: L2-Pf-HR :0.66025: L2-HR :0.73371: (Sim:3h0m57s) 
CPU  0 inst: 2273000005 cyc: 2214563317 now IPC :2.03254: AVG IPC :1.02595: L2-Pf-HR :0.66034: L2-HR :0.73377: (Sim:3h1m2s) 
CPU  0 inst: 2274000000 cyc: 2215201583 now IPC :1.56674: AVG IPC :1.02610: L2-Pf-HR :0.66036: L2-HR :0.73380: (Sim:3h1m6s) 
CPU  0 inst: 2275000003 cyc: 2215660803 now IPC :2.17761: AVG IPC :1.02634: L2-Pf-HR :0.66045: L2-HR :0.73386: (Sim:3h1m9s) 
CPU  0 inst: 2276000002 cyc: 2216224927 now IPC :1.77266: AVG IPC :1.02653: L2-Pf-HR :0.66052: L2-HR :0.73392: (Sim:3h1m13s) 
CPU  0 inst: 2277000004 cyc: 2216687937 now IPC :2.15978: AVG IPC :1.02677: L2-Pf-HR :0.66061: L2-HR :0.73399: (Sim:3h1m17s) 
CPU  0 inst: 2278000002 cyc: 2217337421 now IPC :1.53968: AVG IPC :1.02692: L2-Pf-HR :0.66061: L2-HR :0.73400: (Sim:3h1m21s) 
CPU  0 inst: 2279000004 cyc: 2217820803 now IPC :2.06876: AVG IPC :1.02715: L2-Pf-HR :0.66070: L2-HR :0.73406: (Sim:3h1m25s) 
CPU  0 inst: 2280000000 cyc: 2218455662 now IPC :1.57515: AVG IPC :1.02730: L2-Pf-HR :0.66073: L2-HR :0.73409: (Sim:3h1m30s) 
CPU  0 inst: 2281000001 cyc: 2218929061 now IPC :2.11239: AVG IPC :1.02753: L2-Pf-HR :0.66080: L2-HR :0.73415: (Sim:3h1m33s) 
CPU  0 inst: 2282000001 cyc: 2219395154 now IPC :2.14549: AVG IPC :1.02777: L2-Pf-HR :0.66091: L2-HR :0.73422: (Sim:3h1m37s) 
CPU  0 inst: 2283000004 cyc: 2219967616 now IPC :1.74685: AVG IPC :1.02795: L2-Pf-HR :0.66096: L2-HR :0.73427: (Sim:3h1m40s) 
CPU  0 inst: 2284000000 cyc: 2220602345 now IPC :1.57547: AVG IPC :1.02811: L2-Pf-HR :0.66098: L2-HR :0.73429: (Sim:3h1m45s) 
CPU  0 inst: 2285000003 cyc: 2221101370 now IPC :2.00391: AVG IPC :1.02833: L2-Pf-HR :0.66105: L2-HR :0.73435: (Sim:3h1m49s) 
CPU  0 inst: 2286000001 cyc: 2221595121 now IPC :2.02531: AVG IPC :1.02855: L2-Pf-HR :0.66117: L2-HR :0.73442: (Sim:3h1m53s) 
CPU  0 inst: 2287000002 cyc: 2222221637 now IPC :1.59613: AVG IPC :1.02871: L2-Pf-HR :0.66116: L2-HR :0.73444: (Sim:3h1m57s) 
CPU  0 inst: 2288000000 cyc: 2222679384 now IPC :2.18461: AVG IPC :1.02895: L2-Pf-HR :0.66126: L2-HR :0.73451: (Sim:3h2m0s) 
CPU  0 inst: 2289000003 cyc: 2223251934 now IPC :1.74658: AVG IPC :1.02913: L2-Pf-HR :0.66133: L2-HR :0.73456: (Sim:3h2m4s) 
CPU  0 inst: 2290000002 cyc: 2223717568 now IPC :2.14761: AVG IPC :1.02937: L2-Pf-HR :0.66144: L2-HR :0.73463: (Sim:3h2m8s) 
CPU  0 inst: 2291000003 cyc: 2224362334 now IPC :1.55095: AVG IPC :1.02952: L2-Pf-HR :0.66142: L2-HR :0.73464: (Sim:3h2m12s) 
CPU  0 inst: 2292000002 cyc: 2224857604 now IPC :2.01910: AVG IPC :1.02974: L2-Pf-HR :0.66151: L2-HR :0.73470: (Sim:3h2m17s) 
CPU  0 inst: 2293000005 cyc: 2225481902 now IPC :1.60180: AVG IPC :1.02990: L2-Pf-HR :0.66153: L2-HR :0.73473: (Sim:3h2m21s) 
CPU  0 inst: 2294000002 cyc: 2225944790 now IPC :2.16034: AVG IPC :1.03014: L2-Pf-HR :0.66162: L2-HR :0.73479: (Sim:3h2m24s) 
CPU  0 inst: 2295000000 cyc: 2226502542 now IPC :1.79291: AVG IPC :1.03033: L2-Pf-HR :0.66169: L2-HR :0.73485: (Sim:3h2m28s) 
CPU  0 inst: 2296000000 cyc: 2226969931 now IPC :2.13955: AVG IPC :1.03056: L2-Pf-HR :0.66179: L2-HR :0.73492: (Sim:3h2m32s) 
CPU  0 inst: 2297000002 cyc: 2227529687 now IPC :1.78650: AVG IPC :1.03075: L2-Pf-HR :0.66192: L2-HR :0.73499: (Sim:3h2m36s) 
CPU  0 inst: 2298000001 cyc: 2228077272 now IPC :1.82620: AVG IPC :1.03095: L2-Pf-HR :0.66208: L2-HR :0.73509: (Sim:3h2m40s) 
CPU  0 inst: 2299000002 cyc: 2228803386 now IPC :1.37720: AVG IPC :1.03106: L2-Pf-HR :0.66210: L2-HR :0.73510: (Sim:3h2m44s) 
CPU  0 inst: 2300000005 cyc: 2229356659 now IPC :1.80743: AVG IPC :1.03125: L2-Pf-HR :0.66215: L2-HR :0.73514: (Sim:3h2m48s) 
CPU  0 inst: 2301000003 cyc: 2229905769 now IPC :1.82113: AVG IPC :1.03145: L2-Pf-HR :0.66226: L2-HR :0.73520: (Sim:3h2m52s) 
CPU  0 inst: 2302000004 cyc: 2230561059 now IPC :1.52604: AVG IPC :1.03159: L2-Pf-HR :0.66221: L2-HR :0.73520: (Sim:3h2m56s) 
CPU  0 inst: 2303000004 cyc: 2231067675 now IPC :1.97388: AVG IPC :1.03181: L2-Pf-HR :0.66228: L2-HR :0.73525: (Sim:3h3m0s) 
CPU  0 inst: 2304000000 cyc: 2231694269 now IPC :1.59592: AVG IPC :1.03196: L2-Pf-HR :0.66233: L2-HR :0.73529: (Sim:3h3m4s) 
CPU  0 inst: 2305000002 cyc: 2232287119 now IPC :1.68677: AVG IPC :1.03214: L2-Pf-HR :0.66237: L2-HR :0.73532: (Sim:3h3m7s) 
CPU  0 inst: 2306000001 cyc: 2232861372 now IPC :1.74139: AVG IPC :1.03232: L2-Pf-HR :0.66239: L2-HR :0.73534: (Sim:3h3m12s) 
CPU  0 inst: 2307000000 cyc: 2233341726 now IPC :2.08180: AVG IPC :1.03255: L2-Pf-HR :0.66248: L2-HR :0.73541: (Sim:3h3m16s) 
CPU  0 inst: 2308000002 cyc: 2233974266 now IPC :1.58093: AVG IPC :1.03270: L2-Pf-HR :0.66250: L2-HR :0.73543: (Sim:3h3m20s) 
CPU  0 inst: 2309000004 cyc: 2234432005 now IPC :2.18466: AVG IPC :1.03294: L2-Pf-HR :0.66258: L2-HR :0.73550: (Sim:3h3m24s) 
CPU  0 inst: 2310000000 cyc: 2235000350 now IPC :1.75949: AVG IPC :1.03312: L2-Pf-HR :0.66265: L2-HR :0.73555: (Sim:3h3m27s) 
CPU  0 inst: 2311000005 cyc: 2235458289 now IPC :2.18371: AVG IPC :1.03336: L2-Pf-HR :0.66275: L2-HR :0.73562: (Sim:3h3m31s) 
CPU  0 inst: 2312000000 cyc: 2236116084 now IPC :1.52022: AVG IPC :1.03350: L2-Pf-HR :0.66274: L2-HR :0.73563: (Sim:3h3m36s) 
CPU  0 inst: 2313000002 cyc: 2236599127 now IPC :2.07021: AVG IPC :1.03373: L2-Pf-HR :0.66283: L2-HR :0.73570: (Sim:3h3m40s) 
CPU  0 inst: 2314000000 cyc: 2237242660 now IPC :1.55392: AVG IPC :1.03388: L2-Pf-HR :0.66285: L2-HR :0.73572: (Sim:3h3m44s) 
CPU  0 inst: 2315000000 cyc: 2237708842 now IPC :2.14508: AVG IPC :1.03411: L2-Pf-HR :0.66293: L2-HR :0.73579: (Sim:3h3m47s) 
CPU  0 inst: 2316000000 cyc: 2238189377 now IPC :2.08101: AVG IPC :1.03433: L2-Pf-HR :0.66307: L2-HR :0.73587: (Sim:3h3m51s) 
CPU  0 inst: 2317000002 cyc: 2238742057 now IPC :1.80937: AVG IPC :1.03452: L2-Pf-HR :0.66310: L2-HR :0.73591: (Sim:3h3m55s) 
CPU  0 inst: 2318000004 cyc: 2239389229 now IPC :1.54519: AVG IPC :1.03467: L2-Pf-HR :0.66310: L2-HR :0.73592: (Sim:3h3m59s) 
CPU  0 inst: 2319000001 cyc: 2239890688 now IPC :1.99417: AVG IPC :1.03489: L2-Pf-HR :0.66318: L2-HR :0.73598: (Sim:3h4m3s) 
CPU  0 inst: 2320000000 cyc: 2240417930 now IPC :1.89666: AVG IPC :1.03509: L2-Pf-HR :0.66330: L2-HR :0.73605: (Sim:3h4m7s) 
CPU  0 inst: 2321000002 cyc: 2240994553 now IPC :1.73424: AVG IPC :1.03527: L2-Pf-HR :0.66329: L2-HR :0.73607: (Sim:3h4m11s) 
CPU  0 inst: 2322000005 cyc: 2241452115 now IPC :2.18550: AVG IPC :1.03550: L2-Pf-HR :0.66338: L2-HR :0.73613: (Sim:3h4m15s) 
CPU  0 inst: 2323000000 cyc: 2242021751 now IPC :1.75550: AVG IPC :1.03569: L2-Pf-HR :0.66345: L2-HR :0.73619: (Sim:3h4m19s) 
CPU  0 inst: 2324000002 cyc: 2242557288 now IPC :1.86729: AVG IPC :1.03589: L2-Pf-HR :0.66352: L2-HR :0.73624: (Sim:3h4m22s) 
CPU  0 inst: 2325000002 cyc: 2243137492 now IPC :1.72353: AVG IPC :1.03606: L2-Pf-HR :0.66354: L2-HR :0.73626: (Sim:3h4m27s) 
CPU  0 inst: 2326000000 cyc: 2243620214 now IPC :2.07158: AVG IPC :1.03629: L2-Pf-HR :0.66363: L2-HR :0.73633: (Sim:3h4m31s) 
CPU  0 inst: 2327000001 cyc: 2244236812 now IPC :1.62180: AVG IPC :1.03645: L2-Pf-HR :0.66365: L2-HR :0.73635: (Sim:3h4m35s) 
CPU  0 inst: 2328000000 cyc: 2244697834 now IPC :2.16909: AVG IPC :1.03668: L2-Pf-HR :0.66374: L2-HR :0.73642: (Sim:3h4m39s) 
CPU  0 inst: 2329000000 cyc: 2245260872 now IPC :1.77608: AVG IPC :1.03687: L2-Pf-HR :0.66381: L2-HR :0.73647: (Sim:3h4m42s) 
CPU  0 inst: 2330000004 cyc: 2245725457 now IPC :2.15247: AVG IPC :1.03710: L2-Pf-HR :0.66391: L2-HR :0.73654: (Sim:3h4m46s) 
CPU  0 inst: 2331000003 cyc: 2246294411 now IPC :1.75761: AVG IPC :1.03728: L2-Pf-HR :0.66405: L2-HR :0.73663: (Sim:3h4m50s) 
CPU  0 inst: 2332000004 cyc: 2246874995 now IPC :1.72241: AVG IPC :1.03746: L2-Pf-HR :0.66420: L2-HR :0.73671: (Sim:3h4m54s) 
CPU  0 inst: 2333000002 cyc: 2247582910 now IPC :1.41260: AVG IPC :1.03757: L2-Pf-HR :0.66420: L2-HR :0.73672: (Sim:3h4m59s) 
CPU  0 inst: 2334000000 cyc: 2248115855 now IPC :1.87636: AVG IPC :1.03777: L2-Pf-HR :0.66426: L2-HR :0.73676: (Sim:3h5m3s) 
CPU  0 inst: 2335000000 cyc: 2248802459 now IPC :1.45644: AVG IPC :1.03790: L2-Pf-HR :0.66426: L2-HR :0.73678: (Sim:3h5m7s) 
CPU  0 inst: 2336000000 cyc: 2249333445 now IPC :1.88329: AVG IPC :1.03810: L2-Pf-HR :0.66431: L2-HR :0.73681: (Sim:3h5m11s) 
CPU  0 inst: 2337000000 cyc: 2249843031 now IPC :1.96238: AVG IPC :1.03831: L2-Pf-HR :0.66439: L2-HR :0.73687: (Sim:3h5m14s) 
CPU  0 inst: 2338000001 cyc: 2250469892 now IPC :1.59525: AVG IPC :1.03847: L2-Pf-HR :0.66442: L2-HR :0.73690: (Sim:3h5m18s) 
CPU  0 inst: 2339000002 cyc: 2251133683 now IPC :1.50650: AVG IPC :1.03860: L2-Pf-HR :0.66442: L2-HR :0.73690: (Sim:3h5m22s) 
CPU  0 inst: 2340000002 cyc: 2251625591 now IPC :2.03290: AVG IPC :1.03882: L2-Pf-HR :0.66449: L2-HR :0.73695: (Sim:3h5m26s) 
CPU  0 inst: 2341000003 cyc: 2252111254 now IPC :2.05904: AVG IPC :1.03904: L2-Pf-HR :0.66460: L2-HR :0.73703: (Sim:3h5m30s) 
CPU  0 inst: 2342000005 cyc: 2252738847 now IPC :1.59339: AVG IPC :1.03920: L2-Pf-HR :0.66459: L2-HR :0.73704: (Sim:3h5m35s) 
CPU  0 inst: 2343000005 cyc: 2253198530 now IPC :2.17541: AVG IPC :1.03943: L2-Pf-HR :0.66468: L2-HR :0.73711: (Sim:3h5m38s) 
CPU  0 inst: 2344000000 cyc: 2253769621 now IPC :1.75103: AVG IPC :1.03961: L2-Pf-HR :0.66475: L2-HR :0.73716: (Sim:3h5m42s) 
CPU  0 inst: 2345000000 cyc: 2254232293 now IPC :2.16136: AVG IPC :1.03984: L2-Pf-HR :0.66485: L2-HR :0.73724: (Sim:3h5m45s) 
CPU  0 inst: 2346000002 cyc: 2254884699 now IPC :1.53279: AVG IPC :1.03998: L2-Pf-HR :0.66483: L2-HR :0.73724: (Sim:3h5m50s) 
CPU  0 inst: 2347000000 cyc: 2255380444 now IPC :2.01716: AVG IPC :1.04020: L2-Pf-HR :0.66492: L2-HR :0.73730: (Sim:3h5m54s) 
CPU  0 inst: 2348000001 cyc: 2256024615 now IPC :1.55238: AVG IPC :1.04034: L2-Pf-HR :0.66493: L2-HR :0.73732: (Sim:3h5m58s) 
CPU  0 inst: 2349000001 cyc: 2256488623 now IPC :2.15514: AVG IPC :1.04057: L2-Pf-HR :0.66502: L2-HR :0.73739: (Sim:3h6m2s) 
CPU  0 inst: 2350000002 cyc: 2257054907 now IPC :1.76590: AVG IPC :1.04075: L2-Pf-HR :0.66509: L2-HR :0.73744: (Sim:3h6m6s) 
CPU  0 inst: 2351000000 cyc: 2257523423 now IPC :2.13439: AVG IPC :1.04098: L2-Pf-HR :0.66518: L2-HR :0.73750: (Sim:3h6m9s) 
CPU  0 inst: 2352000000 cyc: 2258183589 now IPC :1.51477: AVG IPC :1.04112: L2-Pf-HR :0.66517: L2-HR :0.73751: (Sim:3h6m14s) 
CPU  0 inst: 2353000002 cyc: 2258668878 now IPC :2.06063: AVG IPC :1.04134: L2-Pf-HR :0.66526: L2-HR :0.73757: (Sim:3h6m18s) 
CPU  0 inst: 2354000000 cyc: 2259308884 now IPC :1.56248: AVG IPC :1.04149: L2-Pf-HR :0.66529: L2-HR :0.73760: (Sim:3h6m22s) 
CPU  0 inst: 2355000004 cyc: 2259782618 now IPC :2.11090: AVG IPC :1.04171: L2-Pf-HR :0.66536: L2-HR :0.73765: (Sim:3h6m26s) 
CPU  0 inst: 2356000002 cyc: 2260244741 now IPC :2.16392: AVG IPC :1.04194: L2-Pf-HR :0.66546: L2-HR :0.73772: (Sim:3h6m29s) 
CPU  0 inst: 2357000003 cyc: 2260813347 now IPC :1.75869: AVG IPC :1.04212: L2-Pf-HR :0.66552: L2-HR :0.73777: (Sim:3h6m33s) 
CPU  0 inst: 2358000001 cyc: 2261432336 now IPC :1.61553: AVG IPC :1.04228: L2-Pf-HR :0.66553: L2-HR :0.73779: (Sim:3h6m37s) 
CPU  0 inst: 2359000003 cyc: 2261928557 now IPC :2.01524: AVG IPC :1.04249: L2-Pf-HR :0.66560: L2-HR :0.73784: (Sim:3h6m41s) 
CPU  0 inst: 2360000000 cyc: 2262415746 now IPC :2.05259: AVG IPC :1.04271: L2-Pf-HR :0.66570: L2-HR :0.73792: (Sim:3h6m45s) 
CPU  0 inst: 2361000005 cyc: 2263036517 now IPC :1.61091: AVG IPC :1.04286: L2-Pf-HR :0.66570: L2-HR :0.73793: (Sim:3h6m49s) 
CPU  0 inst: 2362000002 cyc: 2263499809 now IPC :2.15846: AVG IPC :1.04309: L2-Pf-HR :0.66579: L2-HR :0.73800: (Sim:3h6m53s) 
CPU  0 inst: 2363000000 cyc: 2264064674 now IPC :1.77033: AVG IPC :1.04327: L2-Pf-HR :0.66585: L2-HR :0.73805: (Sim:3h6m57s) 
Finished CPU 0 instr: 2361000002 cyc: 2263067627 AVG IPC: 1.04327 (Sim time: 3h6m57s)

ChampSim completed all CPUs

[ROI Statistics]
Core_0_instructions 2361000002
Core_0_cycles 2263067627
Core_0_IPC 1.04327

Core_0_branch_prediction_accuracy 98.59504
Core_0_branch_MPKI 0.33667
Core_0_average_ROB_occupancy_at_mispredict 502.29427

Core_0_L1D_total_access 1241964230
Core_0_L1D_total_hit 1193407647 L1D_total_Hit Ratio: 0.96090
Core_0_L1D_total_miss 48556583
Core_0_L1D_loads 492795538
Core_0_L1D_load_hit 463834699 L1D_load_Hit Ratio: 0.94123
Core_0_L1D_load_miss 28960839
Core_0_L1D_RFOs 45874994
Core_0_L1D_RFO_hit 43533136 L1D_RFO_Hit Ratio: 0.94895
Core_0_L1D_RFO_miss 2341858
Core_0_L1D_prefetches 703293698
Core_0_L1D_prefetch_hit 686039812 L1D_prefetch_Hit Ratio: 0.97547
Core_0_L1D_prefetch_miss 17253886
Core_0_L1D_writebacks 0
Core_0_L1D_writeback_hit 0 L1D_writeback_Hit Ratio: -nan
Core_0_L1D_writeback_miss 0
Core_0_L1D_prefetch_requested 1489870602
Core_0_L1D_prefetch_issued 863262251
Core_0_L1D_prefetch_useful 13195619 L1D_Useful Ratio: 0.01529
Core_0_L1D_prefetch_useless 4074616
Core_0_L1D_prefetch_late 4483200
Core_0_L1D_average_miss_latency 119344985.70847

Core_0_L1I_total_access 311460996
Core_0_L1I_total_hit 311456086 L1I_total_Hit Ratio: 0.99998
Core_0_L1I_total_miss 4910
Core_0_L1I_loads 311460996
Core_0_L1I_load_hit 311456086 L1I_load_Hit Ratio: 0.99998
Core_0_L1I_load_miss 4910
Core_0_L1I_RFOs 0
Core_0_L1I_RFO_hit 0 L1I_RFO_Hit Ratio: -nan
Core_0_L1I_RFO_miss 0
Core_0_L1I_prefetches 0
Core_0_L1I_prefetch_hit 0 L1I_prefetch_Hit Ratio: -nan
Core_0_L1I_prefetch_miss 0
Core_0_L1I_writebacks 0
Core_0_L1I_writeback_hit 0 L1I_writeback_Hit Ratio: -nan
Core_0_L1I_writeback_miss 0
Core_0_L1I_prefetch_requested 0
Core_0_L1I_prefetch_issued 0
Core_0_L1I_prefetch_useful 0 L1I_Useful Ratio: -nan
Core_0_L1I_prefetch_useless 0
Core_0_L1I_prefetch_late 0
Core_0_L1I_average_miss_latency 300.53747

Core_0_L2C_total_access 60596933
Core_0_L2C_total_hit 44723539 L2C_total_Hit Ratio: 0.73805
Core_0_L2C_total_miss 15873394
Core_0_L2C_loads 24483115
Core_0_L2C_load_hit 17886775 L2C_load_Hit Ratio: 0.73058
Core_0_L2C_load_miss 6596340
Core_0_L2C_RFOs 2341745
Core_0_L2C_RFO_hit 330746 L2C_RFO_Hit Ratio: 0.14124
Core_0_L2C_RFO_miss 2010999
Core_0_L2C_prefetches 21736520
Core_0_L2C_prefetch_hit 14473289 L2C_prefetch_Hit Ratio: 0.66585
Core_0_L2C_prefetch_miss 7263231
Core_0_L2C_writebacks 12035553
Core_0_L2C_writeback_hit 12032729 L2C_writeback_Hit Ratio: 0.99977
Core_0_L2C_writeback_miss 2824
Core_0_L2C_prefetch_requested 0
Core_0_L2C_prefetch_issued 0
Core_0_L2C_prefetch_useful 1427125 L2C_Useful Ratio: inf
Core_0_L2C_prefetch_useless 5839688
Core_0_L2C_prefetch_late 0
Core_0_L2C_average_miss_latency 268.67603

Core_0_LLC_total_access 24476251
Core_0_LLC_total_hit 11756710 LLC_total_Hit Ratio: 0.48033
Core_0_LLC_total_miss 12719541
Core_0_LLC_loads 6596134
Core_0_LLC_load_hit 2348650 LLC_load_Hit Ratio: 0.35606
Core_0_LLC_load_miss 4247484
Core_0_LLC_RFOs 2010999
Core_0_LLC_RFO_hit 7146 LLC_RFO_Hit Ratio: 0.00355
Core_0_LLC_RFO_miss 2003853
Core_0_LLC_prefetches 7263190
Core_0_LLC_prefetch_hit 979269 LLC_prefetch_Hit Ratio: 0.13483
Core_0_LLC_prefetch_miss 6283921
Core_0_LLC_writebacks 8605928
Core_0_LLC_writeback_hit 8421645 LLC_writeback_Hit Ratio: 0.97859
Core_0_LLC_writeback_miss 184283
Core_0_LLC_prefetch_requested 0
Core_0_LLC_prefetch_issued 0
Core_0_LLC_prefetch_useful 948797 LLC_Useful Ratio: inf
Core_0_LLC_prefetch_useless 5319709
Core_0_LLC_prefetch_late 0
Core_0_LLC_average_miss_latency 272.15145

Core_0_major_page_fault 0
Core_0_minor_page_fault 83038

CPU 0 L1D next line prefetcher final stats
Channel_0_RQ_row_buffer_hit 6217813
Channel_0_RQ_row_buffer_miss 6316361
Channel_0_WQ_row_buffer_hit 2301953
Channel_0_WQ_row_buffer_miss 4850569
Channel_0_WQ_full 62
Channel_0_dbus_congested 9867189

avg_congested_cycle 10

EzSearch AVG IPC :1.04327: L2-Pf-HR :0.66585 : L2-HR :0.73805 Uful:inf
     > Finished combination: TraceType=770-tot Sim:2361000000 Prefetcher=L2no L1=next_line
