TRACE: [125000000][OPT-125M]_[h12][s512][d64] Warmup: 2000000 NumTraces: 125000000
L1:bingo_dpc3_PHT1k:L2:bingo_dpc3_PHT1k
*************************************************
   ChampSim Multicore Out-of-Order Simulator
   Last compiled: Oct 27 2024 06:19:06
*************************************************

trace_0 770-tot_memTraces_v3/memTraces[125000000][OPT-125M]_[h12][s512][d64].champsim.xz
Bingo PHT WAYS: 16 and PHT_SIZE: 1024
Bingo2 PHT WAYS: 16 and PHT_SIZE: 1024
MAIN.cc ln 751 stats print skipped
CPU  0 inst:    1000001 cyc:     499367 now IPC :2.00254: AVG IPC :2.00254: L2-Pf-HR :0.71944: L2-HR :0.65652: (Sim:0h0m20s) 
CPU  0 inst:    2000000 cyc:     981781 now IPC :2.07291: AVG IPC :2.03711: L2-Pf-HR :0.76956: L2-HR :0.72149: (Sim:0h0m41s) 

Warmup complete CPU  0 instructions:    2000003 cycles:     981782 (Simulation time: 0 hr 0 min 41 sec) 

CPU  0 inst:    3000001 cyc:    1604512 now IPC :1.60583: AVG IPC :1.60583: L2-Pf-HR :0.90957: L2-HR :0.80849: (Sim:0h0m59s) 
CPU  0 inst:    4000004 cyc:    2216259 now IPC :1.63467: AVG IPC :1.62012: L2-Pf-HR :0.88505: L2-HR :0.79904: (Sim:0h1m16s) 
CPU  0 inst:    5000001 cyc:    2841672 now IPC :1.59894: AVG IPC :1.61300: L2-Pf-HR :0.85115: L2-HR :0.79730: (Sim:0h1m33s) 
CPU  0 inst:    6000004 cyc:    3390710 now IPC :1.82137: AVG IPC :1.66049: L2-Pf-HR :0.86399: L2-HR :0.81620: (Sim:0h1m50s) 
CPU  0 inst:    7000005 cyc:    3947743 now IPC :1.79523: AVG IPC :1.68579: L2-Pf-HR :0.87305: L2-HR :0.82514: (Sim:0h2m7s) 
CPU  0 inst:    8000005 cyc:    4546161 now IPC :1.67107: AVG IPC :1.68332: L2-Pf-HR :0.87279: L2-HR :0.82340: (Sim:0h2m23s) 
CPU  0 inst:    9000000 cyc:    5200558 now IPC :1.52812: AVG IPC :1.65925: L2-Pf-HR :0.86079: L2-HR :0.81750: (Sim:0h2m40s) 
CPU  0 inst:   10000001 cyc:    5795805 now IPC :1.67998: AVG IPC :1.66181: L2-Pf-HR :0.86728: L2-HR :0.82360: (Sim:0h2m58s) 
CPU  0 inst:   11000005 cyc:    6395493 now IPC :1.66754: AVG IPC :1.66245: L2-Pf-HR :0.87386: L2-HR :0.82890: (Sim:0h3m15s) 
CPU  0 inst:   12000005 cyc:    7048380 now IPC :1.53166: AVG IPC :1.64837: L2-Pf-HR :0.87384: L2-HR :0.82768: (Sim:0h3m31s) 
CPU  0 inst:   13000002 cyc:    7761798 now IPC :1.40170: AVG IPC :1.62241: L2-Pf-HR :0.86571: L2-HR :0.82272: (Sim:0h3m50s) 
CPU  0 inst:   14000005 cyc:    8372346 now IPC :1.63788: AVG IPC :1.62369: L2-Pf-HR :0.86935: L2-HR :0.82622: (Sim:0h4m7s) 
CPU  0 inst:   15000001 cyc:    8985670 now IPC :1.63045: AVG IPC :1.62421: L2-Pf-HR :0.87286: L2-HR :0.82915: (Sim:0h4m24s) 
CPU  0 inst:   16000005 cyc:    9636552 now IPC :1.53638: AVG IPC :1.61761: L2-Pf-HR :0.87411: L2-HR :0.82937: (Sim:0h4m42s) 
CPU  0 inst:   17000000 cyc:   10359486 now IPC :1.38325: AVG IPC :1.59954: L2-Pf-HR :0.86923: L2-HR :0.82546: (Sim:0h4m59s) 
CPU  0 inst:   18000001 cyc:   10963043 now IPC :1.65685: AVG IPC :1.60300: L2-Pf-HR :0.87080: L2-HR :0.82791: (Sim:0h5m16s) 
CPU  0 inst:   19000002 cyc:   11574485 now IPC :1.63548: AVG IPC :1.60488: L2-Pf-HR :0.87191: L2-HR :0.82907: (Sim:0h5m34s) 
CPU  0 inst:   20000002 cyc:   12206376 now IPC :1.58255: AVG IPC :1.60362: L2-Pf-HR :0.87353: L2-HR :0.83000: (Sim:0h5m51s) 
CPU  0 inst:   21000004 cyc:   12934225 now IPC :1.37391: AVG IPC :1.58963: L2-Pf-HR :0.86834: L2-HR :0.82640: (Sim:0h6m8s) 
CPU  0 inst:   22000005 cyc:   13535754 now IPC :1.66243: AVG IPC :1.59312: L2-Pf-HR :0.87024: L2-HR :0.82850: (Sim:0h6m26s) 
CPU  0 inst:   23000001 cyc:   14153420 now IPC :1.61899: AVG IPC :1.59433: L2-Pf-HR :0.87172: L2-HR :0.83001: (Sim:0h6m43s) 
CPU  0 inst:   24000004 cyc:   14804950 now IPC :1.53485: AVG IPC :1.59153: L2-Pf-HR :0.87372: L2-HR :0.83059: (Sim:0h7m1s) 
CPU  0 inst:   25000003 cyc:   15519535 now IPC :1.39941: AVG IPC :1.58209: L2-Pf-HR :0.86980: L2-HR :0.82762: (Sim:0h7m19s) 
CPU  0 inst:   26000004 cyc:   16143314 now IPC :1.60313: AVG IPC :1.58295: L2-Pf-HR :0.87050: L2-HR :0.82862: (Sim:0h7m36s) 
CPU  0 inst:   27000000 cyc:   16766725 now IPC :1.60407: AVG IPC :1.58379: L2-Pf-HR :0.87163: L2-HR :0.82955: (Sim:0h7m54s) 
CPU  0 inst:   28000001 cyc:   17387768 now IPC :1.61020: AVG IPC :1.58479: L2-Pf-HR :0.87410: L2-HR :0.83110: (Sim:0h8m12s) 
CPU  0 inst:   29000000 cyc:   18109377 now IPC :1.38579: AVG IPC :1.57640: L2-Pf-HR :0.87059: L2-HR :0.82847: (Sim:0h8m30s) 
CPU  0 inst:   30000000 cyc:   18734492 now IPC :1.59971: AVG IPC :1.57722: L2-Pf-HR :0.87088: L2-HR :0.82908: (Sim:0h8m48s) 
CPU  0 inst:   31000003 cyc:   19345690 now IPC :1.63614: AVG IPC :1.57918: L2-Pf-HR :0.87230: L2-HR :0.83040: (Sim:0h9m5s) 
CPU  0 inst:   32000001 cyc:   19998129 now IPC :1.53271: AVG IPC :1.57759: L2-Pf-HR :0.87446: L2-HR :0.83133: (Sim:0h9m23s) 
CPU  0 inst:   33000003 cyc:   20681464 now IPC :1.46341: AVG IPC :1.57363: L2-Pf-HR :0.87261: L2-HR :0.82967: (Sim:0h9m41s) 
CPU  0 inst:   34000005 cyc:   21326474 now IPC :1.55037: AVG IPC :1.57289: L2-Pf-HR :0.87109: L2-HR :0.82916: (Sim:0h9m59s) 
CPU  0 inst:   35000004 cyc:   21935737 now IPC :1.64133: AVG IPC :1.57488: L2-Pf-HR :0.87186: L2-HR :0.83020: (Sim:0h10m17s) 
CPU  0 inst:   36000004 cyc:   22519928 now IPC :1.71177: AVG IPC :1.57859: L2-Pf-HR :0.87293: L2-HR :0.83136: (Sim:0h10m34s) 
CPU  0 inst:   37000000 cyc:   23188884 now IPC :1.49486: AVG IPC :1.57607: L2-Pf-HR :0.87261: L2-HR :0.83061: (Sim:0h10m52s) 
CPU  0 inst:   38000003 cyc:   23893373 now IPC :1.41947: AVG IPC :1.57126: L2-Pf-HR :0.87089: L2-HR :0.82971: (Sim:0h11m11s) 
CPU  0 inst:   39000001 cyc:   24505193 now IPC :1.63446: AVG IPC :1.57290: L2-Pf-HR :0.87114: L2-HR :0.83020: (Sim:0h11m28s) 
CPU  0 inst:   40000000 cyc:   25104340 now IPC :1.66904: AVG IPC :1.57529: L2-Pf-HR :0.87268: L2-HR :0.83146: (Sim:0h11m46s) 
CPU  0 inst:   41000003 cyc:   25772544 now IPC :1.49655: AVG IPC :1.57317: L2-Pf-HR :0.87228: L2-HR :0.83074: (Sim:0h12m4s) 
CPU  0 inst:   42000001 cyc:   26458383 now IPC :1.45807: AVG IPC :1.57007: L2-Pf-HR :0.87054: L2-HR :0.82980: (Sim:0h12m22s) 
CPU  0 inst:   43000000 cyc:   27068526 now IPC :1.63896: AVG IPC :1.57168: L2-Pf-HR :0.87117: L2-HR :0.83065: (Sim:0h12m39s) 
CPU  0 inst:   44000004 cyc:   27688168 now IPC :1.61384: AVG IPC :1.57266: L2-Pf-HR :0.87222: L2-HR :0.83131: (Sim:0h12m57s) 
CPU  0 inst:   45000000 cyc:   28346413 now IPC :1.51919: AVG IPC :1.57137: L2-Pf-HR :0.87205: L2-HR :0.83089: (Sim:0h13m15s) 
CPU  0 inst:   46000001 cyc:   29055772 now IPC :1.40972: AVG IPC :1.56729: L2-Pf-HR :0.87071: L2-HR :0.83010: (Sim:0h13m33s) 
CPU  0 inst:   47000000 cyc:   29664476 now IPC :1.64283: AVG IPC :1.56889: L2-Pf-HR :0.87094: L2-HR :0.83058: (Sim:0h13m51s) 
CPU  0 inst:   48000002 cyc:   30295207 now IPC :1.58547: AVG IPC :1.56925: L2-Pf-HR :0.87215: L2-HR :0.83128: (Sim:0h14m9s) 
CPU  0 inst:   49000000 cyc:   30952802 now IPC :1.52069: AVG IPC :1.56818: L2-Pf-HR :0.87242: L2-HR :0.83110: (Sim:0h14m27s) 
CPU  0 inst:   50000001 cyc:   34165604 now IPC :0.31126: AVG IPC :1.44649: L2-Pf-HR :0.85393: L2-HR :0.80533: (Sim:0h14m46s) 
CPU  0 inst:   51000001 cyc:   39594884 now IPC :0.18419: AVG IPC :1.26900: L2-Pf-HR :0.82160: L2-HR :0.76969: (Sim:0h15m9s) 
CPU  0 inst:   52000000 cyc:   43677183 now IPC :0.24496: AVG IPC :1.17109: L2-Pf-HR :0.80676: L2-HR :0.75818: (Sim:0h15m26s) 
CPU  0 inst:   53000000 cyc:   47272077 now IPC :0.27817: AVG IPC :1.10174: L2-Pf-HR :0.79594: L2-HR :0.75269: (Sim:0h15m42s) 
CPU  0 inst:   54000000 cyc:   50865689 now IPC :0.27827: AVG IPC :1.04242: L2-Pf-HR :0.78542: L2-HR :0.74735: (Sim:0h15m57s) 
CPU  0 inst:   55000001 cyc:   54459569 now IPC :0.27825: AVG IPC :0.99107: L2-Pf-HR :0.77515: L2-HR :0.74214: (Sim:0h16m13s) 
CPU  0 inst:   56000000 cyc:   58053821 now IPC :0.27822: AVG IPC :0.94617: L2-Pf-HR :0.76514: L2-HR :0.73706: (Sim:0h16m41s) 
CPU  0 inst:   57000000 cyc:   61648019 now IPC :0.27823: AVG IPC :0.90660: L2-Pf-HR :0.75541: L2-HR :0.73210: (Sim:0h17m13s) 
CPU  0 inst:   58000000 cyc:   65243495 now IPC :0.27813: AVG IPC :0.87144: L2-Pf-HR :0.74591: L2-HR :0.72727: (Sim:0h17m45s) 
CPU  0 inst:   59000000 cyc:   68838637 now IPC :0.27815: AVG IPC :0.84000: L2-Pf-HR :0.73665: L2-HR :0.72255: (Sim:0h18m16s) 
CPU  0 inst:   60000000 cyc:   72432365 now IPC :0.27826: AVG IPC :0.81175: L2-Pf-HR :0.72762: L2-HR :0.71795: (Sim:0h18m48s) 
CPU  0 inst:   61000004 cyc:   76027472 now IPC :0.27816: AVG IPC :0.78619: L2-Pf-HR :0.71881: L2-HR :0.71345: (Sim:0h19m20s) 
CPU  0 inst:   62000000 cyc:   79622868 now IPC :0.27813: AVG IPC :0.76296: L2-Pf-HR :0.71020: L2-HR :0.70906: (Sim:0h19m52s) 
CPU  0 inst:   63000000 cyc:   83216875 now IPC :0.27824: AVG IPC :0.74178: L2-Pf-HR :0.70180: L2-HR :0.70476: (Sim:0h20m23s) 
CPU  0 inst:   64000001 cyc:   86810535 now IPC :0.27827: AVG IPC :0.72237: L2-Pf-HR :0.69360: L2-HR :0.70056: (Sim:0h20m54s) 
CPU  0 inst:   65000002 cyc:   90404306 now IPC :0.27826: AVG IPC :0.70452: L2-Pf-HR :0.68558: L2-HR :0.69645: (Sim:0h21m26s) 
CPU  0 inst:   66000000 cyc:   93998346 now IPC :0.27824: AVG IPC :0.68805: L2-Pf-HR :0.67773: L2-HR :0.69244: (Sim:0h21m58s) 
CPU  0 inst:   67000000 cyc:   97593684 now IPC :0.27814: AVG IPC :0.67279: L2-Pf-HR :0.67009: L2-HR :0.68852: (Sim:0h22m30s) 
CPU  0 inst:   68000000 cyc:  101188809 now IPC :0.27815: AVG IPC :0.65864: L2-Pf-HR :0.66260: L2-HR :0.68468: (Sim:0h23m1s) 
CPU  0 inst:   69000004 cyc:  104782546 now IPC :0.27826: AVG IPC :0.64547: L2-Pf-HR :0.65528: L2-HR :0.68092: (Sim:0h23m33s) 
CPU  0 inst:   70000000 cyc:  108377794 now IPC :0.27814: AVG IPC :0.63317: L2-Pf-HR :0.64813: L2-HR :0.67724: (Sim:0h24m5s) 
CPU  0 inst:   71000000 cyc:  111973332 now IPC :0.27812: AVG IPC :0.62167: L2-Pf-HR :0.64113: L2-HR :0.67364: (Sim:0h24m37s) 
CPU  0 inst:   72000000 cyc:  115567398 now IPC :0.27824: AVG IPC :0.61090: L2-Pf-HR :0.63428: L2-HR :0.67012: (Sim:0h25m9s) 
CPU  0 inst:   73000000 cyc:  119161984 now IPC :0.27820: AVG IPC :0.60078: L2-Pf-HR :0.62757: L2-HR :0.66666: (Sim:0h25m40s) 
CPU  0 inst:   74000001 cyc:  122755195 now IPC :0.27830: AVG IPC :0.59126: L2-Pf-HR :0.62100: L2-HR :0.66327: (Sim:0h26m12s) 
CPU  0 inst:   75000002 cyc:  126349154 now IPC :0.27824: AVG IPC :0.58229: L2-Pf-HR :0.61456: L2-HR :0.65996: (Sim:0h26m44s) 
CPU  0 inst:   76000001 cyc:  128231112 now IPC :0.53136: AVG IPC :0.58154: L2-Pf-HR :0.61616: L2-HR :0.66258: (Sim:0h27m8s) 
CPU  0 inst:   77000005 cyc:  128815664 now IPC :1.71072: AVG IPC :0.58670: L2-Pf-HR :0.62323: L2-HR :0.67007: (Sim:0h27m28s) 
CPU  0 inst:   78000000 cyc:  129430428 now IPC :1.62663: AVG IPC :0.59168: L2-Pf-HR :0.63019: L2-HR :0.67711: (Sim:0h27m48s) 
CPU  0 inst:   79000000 cyc:  129973025 now IPC :1.84299: AVG IPC :0.59694: L2-Pf-HR :0.63763: L2-HR :0.68432: (Sim:0h28m8s) 
CPU  0 inst:   80000000 cyc:  130588124 now IPC :1.62575: AVG IPC :0.60182: L2-Pf-HR :0.64310: L2-HR :0.69049: (Sim:0h28m29s) 
CPU  0 inst:   81000002 cyc:  131172423 now IPC :1.71146: AVG IPC :0.60680: L2-Pf-HR :0.64888: L2-HR :0.69657: (Sim:0h28m49s) 
CPU  0 inst:   82000002 cyc:  131774744 now IPC :1.66024: AVG IPC :0.61165: L2-Pf-HR :0.65426: L2-HR :0.70238: (Sim:0h29m9s) 
CPU  0 inst:   83000003 cyc:  132320313 now IPC :1.83295: AVG IPC :0.61673: L2-Pf-HR :0.66038: L2-HR :0.70830: (Sim:0h29m29s) 
CPU  0 inst:   84000001 cyc:  132932519 now IPC :1.63343: AVG IPC :0.62144: L2-Pf-HR :0.66506: L2-HR :0.71342: (Sim:0h29m50s) 
CPU  0 inst:   85000000 cyc:  133501939 now IPC :1.75617: AVG IPC :0.62632: L2-Pf-HR :0.66979: L2-HR :0.71842: (Sim:0h30m10s) 
CPU  0 inst:   86000005 cyc:  134090575 now IPC :1.69885: AVG IPC :0.63106: L2-Pf-HR :0.67411: L2-HR :0.72314: (Sim:0h30m30s) 
CPU  0 inst:   87000004 cyc:  134631304 now IPC :1.84935: AVG IPC :0.63599: L2-Pf-HR :0.67917: L2-HR :0.72804: (Sim:0h30m50s) 
CPU  0 inst:   88000001 cyc:  135197978 now IPC :1.76468: AVG IPC :0.64076: L2-Pf-HR :0.68323: L2-HR :0.73236: (Sim:0h31m10s) 
CPU  0 inst:   89000005 cyc:  135769318 now IPC :1.75028: AVG IPC :0.64546: L2-Pf-HR :0.68710: L2-HR :0.73652: (Sim:0h31m31s) 
CPU  0 inst:   90000002 cyc:  136338866 now IPC :1.75577: AVG IPC :0.65013: L2-Pf-HR :0.69096: L2-HR :0.74061: (Sim:0h31m51s) 
CPU  0 inst:   91000003 cyc:  136895026 now IPC :1.79805: AVG IPC :0.65483: L2-Pf-HR :0.69477: L2-HR :0.74451: (Sim:0h32m11s) 
CPU  0 inst:   92000001 cyc:  137433822 now IPC :1.85599: AVG IPC :0.65957: L2-Pf-HR :0.69888: L2-HR :0.74854: (Sim:0h32m31s) 
CPU  0 inst:   93000000 cyc:  138027192 now IPC :1.68529: AVG IPC :0.66401: L2-Pf-HR :0.70183: L2-HR :0.75185: (Sim:0h32m51s) 
CPU  0 inst:   94000005 cyc:  138596534 now IPC :1.75642: AVG IPC :0.66853: L2-Pf-HR :0.70507: L2-HR :0.75531: (Sim:0h33m11s) 
CPU  0 inst:   95000005 cyc:  139160638 now IPC :1.77272: AVG IPC :0.67304: L2-Pf-HR :0.70805: L2-HR :0.75853: (Sim:0h33m31s) 
CPU  0 inst:   96000003 cyc:  139698605 now IPC :1.85885: AVG IPC :0.67764: L2-Pf-HR :0.71167: L2-HR :0.76201: (Sim:0h33m51s) 
CPU  0 inst:   97000003 cyc:  140279405 now IPC :1.72176: AVG IPC :0.68199: L2-Pf-HR :0.71423: L2-HR :0.76492: (Sim:0h34m11s) 
CPU  0 inst:   98000000 cyc:  140853560 now IPC :1.74168: AVG IPC :0.68634: L2-Pf-HR :0.71703: L2-HR :0.76784: (Sim:0h34m31s) 
CPU  0 inst:   99000005 cyc:  141424122 now IPC :1.75267: AVG IPC :0.69067: L2-Pf-HR :0.71951: L2-HR :0.77060: (Sim:0h34m50s) 
CPU  0 inst:  100000004 cyc:  141961655 now IPC :1.86035: AVG IPC :0.69513: L2-Pf-HR :0.72271: L2-HR :0.77363: (Sim:0h35m10s) 
CPU  0 inst:  101000004 cyc:  142541144 now IPC :1.72566: AVG IPC :0.69935: L2-Pf-HR :0.72509: L2-HR :0.77622: (Sim:0h35m30s) 
CPU  0 inst:  102000005 cyc:  143112277 now IPC :1.75091: AVG IPC :0.70358: L2-Pf-HR :0.72749: L2-HR :0.77876: (Sim:0h35m50s) 
CPU  0 inst:  103000001 cyc:  143698314 now IPC :1.70637: AVG IPC :0.70770: L2-Pf-HR :0.72950: L2-HR :0.78107: (Sim:0h36m11s) 
CPU  0 inst:  104000002 cyc:  144234109 now IPC :1.86639: AVG IPC :0.71203: L2-Pf-HR :0.73227: L2-HR :0.78370: (Sim:0h36m31s) 
CPU  0 inst:  105000002 cyc:  144804297 now IPC :1.75381: AVG IPC :0.71616: L2-Pf-HR :0.73446: L2-HR :0.78603: (Sim:0h36m51s) 
CPU  0 inst:  106000003 cyc:  145375162 now IPC :1.75173: AVG IPC :0.72025: L2-Pf-HR :0.73652: L2-HR :0.78823: (Sim:0h37m11s) 
CPU  0 inst:  107000003 cyc:  145961875 now IPC :1.70441: AVG IPC :0.72424: L2-Pf-HR :0.73826: L2-HR :0.79026: (Sim:0h37m31s) 
CPU  0 inst:  108000005 cyc:  146498401 now IPC :1.86385: AVG IPC :0.72844: L2-Pf-HR :0.74080: L2-HR :0.79263: (Sim:0h37m51s) 
CPU  0 inst:  109000003 cyc:  147061679 now IPC :1.77532: AVG IPC :0.73248: L2-Pf-HR :0.74284: L2-HR :0.79476: (Sim:0h38m11s) 
CPU  0 inst:  110000002 cyc:  147637143 now IPC :1.73773: AVG IPC :0.73642: L2-Pf-HR :0.74456: L2-HR :0.79665: (Sim:0h38m31s) 
CPU  0 inst:  111000000 cyc:  148221078 now IPC :1.71252: AVG IPC :0.74029: L2-Pf-HR :0.74611: L2-HR :0.79845: (Sim:0h38m51s) 
CPU  0 inst:  112000003 cyc:  148764508 now IPC :1.84017: AVG IPC :0.74434: L2-Pf-HR :0.74835: L2-HR :0.80058: (Sim:0h39m11s) 
CPU  0 inst:  113000000 cyc:  149319632 now IPC :1.80139: AVG IPC :0.74829: L2-Pf-HR :0.75025: L2-HR :0.80248: (Sim:0h39m31s) 
CPU  0 inst:  114000001 cyc:  149900121 now IPC :1.72269: AVG IPC :0.75209: L2-Pf-HR :0.75173: L2-HR :0.80415: (Sim:0h39m52s) 
CPU  0 inst:  115000000 cyc:  150470660 now IPC :1.75273: AVG IPC :0.75591: L2-Pf-HR :0.75337: L2-HR :0.80591: (Sim:0h40m12s) 
CPU  0 inst:  116000000 cyc:  151023942 now IPC :1.80740: AVG IPC :0.75979: L2-Pf-HR :0.75510: L2-HR :0.80765: (Sim:0h40m32s) 
CPU  0 inst:  117000005 cyc:  151564037 now IPC :1.85154: AVG IPC :0.76370: L2-Pf-HR :0.75707: L2-HR :0.80951: (Sim:0h40m51s) 
CPU  0 inst:  118000005 cyc:  152162650 now IPC :1.67053: AVG IPC :0.76729: L2-Pf-HR :0.75812: L2-HR :0.81085: (Sim:0h41m11s) 
CPU  0 inst:  119000005 cyc:  152731868 now IPC :1.75680: AVG IPC :0.77100: L2-Pf-HR :0.75960: L2-HR :0.81242: (Sim:0h41m31s) 
CPU  0 inst:  120000002 cyc:  153292427 now IPC :1.78393: AVG IPC :0.77473: L2-Pf-HR :0.76110: L2-HR :0.81396: (Sim:0h41m51s) 
CPU  0 inst:  121000001 cyc:  153833187 now IPC :1.84925: AVG IPC :0.77853: L2-Pf-HR :0.76292: L2-HR :0.81564: (Sim:0h42m11s) 
CPU  0 inst:  122000002 cyc:  154417922 now IPC :1.71018: AVG IPC :0.78208: L2-Pf-HR :0.76393: L2-HR :0.81689: (Sim:0h42m31s) 
Finished CPU 0 instr: 120000005 cyc: 153436141 AVG IPC: 0.78208 (Sim time: 0h42m31s)

ChampSim completed all CPUs

[ROI Statistics]
Core_0_instructions 120000005
Core_0_cycles 153436141
Core_0_IPC 0.78208

Core_0_branch_prediction_accuracy 99.19469
Core_0_branch_MPKI 0.24154
Core_0_average_ROB_occupancy_at_mispredict 446.58723

Core_0_L1D_total_access 35815400
Core_0_L1D_total_hit 31238825 L1D_total_Hit Ratio: 0.87222
Core_0_L1D_total_miss 4576575
Core_0_L1D_loads 30198608
Core_0_L1D_load_hit 27589140 L1D_load_Hit Ratio: 0.91359
Core_0_L1D_load_miss 2609468
Core_0_L1D_RFOs 3309017
Core_0_L1D_RFO_hit 3198173 L1D_RFO_Hit Ratio: 0.96650
Core_0_L1D_RFO_miss 110844
Core_0_L1D_prefetches 2307775
Core_0_L1D_prefetch_hit 451512 L1D_prefetch_Hit Ratio: 0.19565
Core_0_L1D_prefetch_miss 1856263
Core_0_L1D_writebacks 0
Core_0_L1D_writeback_hit 0 L1D_writeback_Hit Ratio: -nan
Core_0_L1D_writeback_miss 0
Core_0_L1D_prefetch_requested 3656959
Core_0_L1D_prefetch_issued 3656959
Core_0_L1D_prefetch_useful 1847396 L1D_Useful Ratio: 0.50517
Core_0_L1D_prefetch_useless 35697
Core_0_L1D_prefetch_late 329256
Core_0_L1D_average_miss_latency 7794690.63171

Core_0_L1I_total_access 17118893
Core_0_L1I_total_hit 17113957 L1I_total_Hit Ratio: 0.99971
Core_0_L1I_total_miss 4936
Core_0_L1I_loads 17118893
Core_0_L1I_load_hit 17113957 L1I_load_Hit Ratio: 0.99971
Core_0_L1I_load_miss 4936
Core_0_L1I_RFOs 0
Core_0_L1I_RFO_hit 0 L1I_RFO_Hit Ratio: -nan
Core_0_L1I_RFO_miss 0
Core_0_L1I_prefetches 0
Core_0_L1I_prefetch_hit 0 L1I_prefetch_Hit Ratio: -nan
Core_0_L1I_prefetch_miss 0
Core_0_L1I_writebacks 0
Core_0_L1I_writeback_hit 0 L1I_writeback_Hit Ratio: -nan
Core_0_L1I_writeback_miss 0
Core_0_L1I_prefetch_requested 0
Core_0_L1I_prefetch_issued 0
Core_0_L1I_prefetch_useful 0 L1I_Useful Ratio: -nan
Core_0_L1I_prefetch_useless 0
Core_0_L1I_prefetch_late 0
Core_0_L1I_average_miss_latency 265.81037

Core_0_L2C_total_access 5845939
Core_0_L2C_total_hit 4775492 L2C_total_Hit Ratio: 0.81689
Core_0_L2C_total_miss 1070447
Core_0_L2C_loads 2286807
Core_0_L2C_load_hit 1959674 L2C_load_Hit Ratio: 0.85695
Core_0_L2C_load_miss 327133
Core_0_L2C_RFOs 110844
Core_0_L2C_RFO_hit 5378 L2C_RFO_Hit Ratio: 0.04852
Core_0_L2C_RFO_miss 105466
Core_0_L2C_prefetches 2701899
Core_0_L2C_prefetch_hit 2064056 L2C_prefetch_Hit Ratio: 0.76393
Core_0_L2C_prefetch_miss 637843
Core_0_L2C_writebacks 746389
Core_0_L2C_writeback_hit 746384 L2C_writeback_Hit Ratio: 0.99999
Core_0_L2C_writeback_miss 5
Core_0_L2C_prefetch_requested 775587
Core_0_L2C_prefetch_issued 775587
Core_0_L2C_prefetch_useful 187338 L2C_Useful Ratio: 0.24154
Core_0_L2C_prefetch_useless 450260
Core_0_L2C_prefetch_late 130739
Core_0_L2C_average_miss_latency 404.54157

Core_0_LLC_total_access 1688056
Core_0_LLC_total_hit 622512 LLC_total_Hit Ratio: 0.36877
Core_0_LLC_total_miss 1065544
Core_0_LLC_loads 196410
Core_0_LLC_load_hit 2770 LLC_load_Hit Ratio: 0.01410
Core_0_LLC_load_miss 193640
Core_0_LLC_RFOs 105466
Core_0_LLC_RFO_hit 281 LLC_RFO_Hit Ratio: 0.00266
Core_0_LLC_RFO_miss 105185
Core_0_LLC_prefetches 768566
Core_0_LLC_prefetch_hit 5677 LLC_prefetch_Hit Ratio: 0.00739
Core_0_LLC_prefetch_miss 762889
Core_0_LLC_writebacks 617614
Core_0_LLC_writeback_hit 613784 LLC_writeback_Hit Ratio: 0.99380
Core_0_LLC_writeback_miss 3830
Core_0_LLC_prefetch_requested 0
Core_0_LLC_prefetch_issued 0
Core_0_LLC_prefetch_useful 1101 LLC_Useful Ratio: inf
Core_0_LLC_prefetch_useless 726592
Core_0_LLC_prefetch_late 0
Core_0_LLC_average_miss_latency 411.58284

Core_0_major_page_fault 0
Core_0_minor_page_fault 8629

[Bingo] PHT Access: 612326
[Bingo] PHT Hit PC+Addr: 201981
[Bingo] PHT Hit PC+Offs: 333040
[Bingo] PHT Miss: 77305
[Bingo] Prefetch PC+Addr: 0
[Bingo] Prefetch PC+Offs: 0
[Bingo] Useful PC+Addr: 0
[Bingo] Useful PC+Offs: 0
[Bingo] Useless PC+Addr: 0
[Bingo] Useless PC+Offs: 0
[Bingo] L1 Prefetch per Region: 8.37343
[Bingo] L2 Prefetch per Region: 0.33848
[Bingo] L3 Prefetch per Region: 0.00000
[Bingo] No Prefetch per Region: 23.28810
[Bingo] Number of Voters Mean: 9.37946
[Bingo] Number of Voters SD: 6.30458
PHT read accesses: 8447154
PHT write accesses: 583055
AT read accesses: 28549597
AT write accesses: 28549593
FT read accesses: 6116948
FT write accesses: 612326
PS read accesses: 2783870
PS write accesses: 535021
PHT tag read accesses: 24089050
PHT tag write accesses: 785036
AT tag read accesses: 585343462
AT tag write accesses: 29132648
FT tag read accesses: 147010102
FT tag write accesses: 3976898
PS tag read accesses: 510633927
PS tag write accesses: 3309313
[Bingo2] PHT Access: 147492
[Bingo2] PHT Hit PC+Addr: 3528
[Bingo2] PHT Hit PC+Offs: 117872
[Bingo2] PHT Miss: 26092
[Bingo2] Prefetch PC+Addr: 0
[Bingo2] Prefetch PC+Offs: 0
[Bingo2] Useful PC+Addr: 0
[Bingo2] Useful PC+Offs: 0
[Bingo2] Useless PC+Addr: 0
[Bingo2] Useless PC+Offs: 0
[Bingo2] L1 Prefetch per Region: 0.00000
[Bingo2] L2 Prefetch per Region: 9.18492
[Bingo2] L3 Prefetch per Region: 0.00000
[Bingo2] No Prefetch per Region: 22.81508
[Bingo2] Number of Voters Mean: 12.26789
[Bingo2] Number of Voters SD: 5.20111
PHT read accesses: 2329506
PHT write accesses: 109203
AT read accesses: 2136425
AT write accesses: 2245322
FT read accesses: 334240
FT write accesses: 147492
PS read accesses: 319910
PS write accesses: 121400
PHT tag read accesses: 5792886
PHT tag write accesses: 112731
AT tag read accesses: 58883729
AT tag write accesses: 2245628
FT tag read accesses: 26725950
FT tag write accesses: 369333
PS tag read accesses: 40855236
PS tag write accesses: 436840
Channel_0_RQ_row_buffer_hit 575103
Channel_0_RQ_row_buffer_miss 486611
Channel_0_WQ_row_buffer_hit 243241
Channel_0_WQ_row_buffer_miss 369386
Channel_0_WQ_full 854
Channel_0_dbus_congested 1141460

avg_congested_cycle 11

EzSearch AVG IPC :0.78208: L2-Pf-HR :0.76393 : L2-HR :0.81689 Uful:0.24154
     > Finished combination: TraceType=770-tot Sim:120000000 Prefetcher=L2bingo_dpc3_PHT1k L1=bingo_dpc3_PHT1k
