TRACE: [125000000][OPT-125M]_[h12][s512][d64] Warmup: 2000000 NumTraces: 125000000
L1:isb_ideal:L2:isb_ideal
*************************************************
   ChampSim Multicore Out-of-Order Simulator
   Last compiled: Oct 27 2024 06:10:35
*************************************************

trace_0 770-tot_memTraces_v3/memTraces[125000000][OPT-125M]_[h12][s512][d64].champsim.xz
L1D: Ideal ISB Prefetching
Ideal ISB Prefetching
MAIN.cc ln 751 stats print skipped
CPU  0 inst:    1000001 cyc:     500102 now IPC :1.99959: AVG IPC :1.99959: L2-Pf-HR :1.00000: L2-HR :0.88293: (Sim:0h0m18s) 
CPU  0 inst:    2000000 cyc:     983344 now IPC :2.06935: AVG IPC :2.03388: L2-Pf-HR :1.00000: L2-HR :0.91450: (Sim:0h0m38s) 

Warmup complete CPU  0 instructions:    2000003 cycles:     983345 (Simulation time: 0 hr 0 min 38 sec) 

CPU  0 inst:    3000001 cyc:    1627035 now IPC :1.55354: AVG IPC :1.55354: L2-Pf-HR :1.00000: L2-HR :0.94953: (Sim:0h0m56s) 
CPU  0 inst:    4000004 cyc:    2251553 now IPC :1.60124: AVG IPC :1.57703: L2-Pf-HR :0.99939: L2-HR :0.93562: (Sim:0h1m14s) 
CPU  0 inst:    5000000 cyc:    2916594 now IPC :1.50366: AVG IPC :1.55179: L2-Pf-HR :0.99956: L2-HR :0.93416: (Sim:0h1m32s) 
CPU  0 inst:    6000004 cyc:    3540955 now IPC :1.60164: AVG IPC :1.56396: L2-Pf-HR :0.99969: L2-HR :0.94037: (Sim:0h1m50s) 
CPU  0 inst:    7000005 cyc:    4166845 now IPC :1.59773: AVG IPC :1.57060: L2-Pf-HR :0.99966: L2-HR :0.94339: (Sim:0h2m6s) 
CPU  0 inst:    8000005 cyc:    4787481 now IPC :1.61125: AVG IPC :1.57723: L2-Pf-HR :0.99901: L2-HR :0.94044: (Sim:0h2m24s) 
CPU  0 inst:    9000004 cyc:    5473411 now IPC :1.45787: AVG IPC :1.55900: L2-Pf-HR :0.99913: L2-HR :0.93836: (Sim:0h2m43s) 
CPU  0 inst:   10000001 cyc:    6136587 now IPC :1.50789: AVG IPC :1.55242: L2-Pf-HR :0.99926: L2-HR :0.94069: (Sim:0h3m0s) 
CPU  0 inst:   11000005 cyc:    6800622 now IPC :1.50595: AVG IPC :1.54712: L2-Pf-HR :0.99936: L2-HR :0.94233: (Sim:0h3m18s) 
CPU  0 inst:   12000005 cyc:    7476449 now IPC :1.47967: AVG IPC :1.54010: L2-Pf-HR :0.99885: L2-HR :0.94098: (Sim:0h3m37s) 
CPU  0 inst:   13000002 cyc:    8210745 now IPC :1.36184: AVG IPC :1.52199: L2-Pf-HR :0.99892: L2-HR :0.93915: (Sim:0h3m55s) 
CPU  0 inst:   14000005 cyc:    8895607 now IPC :1.46015: AVG IPC :1.51663: L2-Pf-HR :0.99903: L2-HR :0.94041: (Sim:0h4m14s) 
CPU  0 inst:   15000001 cyc:    9578001 now IPC :1.46542: AVG IPC :1.51257: L2-Pf-HR :0.99912: L2-HR :0.94166: (Sim:0h4m31s) 
CPU  0 inst:   16000005 cyc:   10270350 now IPC :1.44436: AVG IPC :1.50748: L2-Pf-HR :0.99877: L2-HR :0.94096: (Sim:0h4m50s) 
CPU  0 inst:   17000000 cyc:   11007466 now IPC :1.35663: AVG IPC :1.49639: L2-Pf-HR :0.99882: L2-HR :0.93913: (Sim:0h5m9s) 
CPU  0 inst:   18000001 cyc:   11692621 now IPC :1.45953: AVG IPC :1.49403: L2-Pf-HR :0.99891: L2-HR :0.94018: (Sim:0h5m27s) 
CPU  0 inst:   19000004 cyc:   12375644 now IPC :1.46408: AVG IPC :1.49224: L2-Pf-HR :0.99898: L2-HR :0.94089: (Sim:0h5m45s) 
CPU  0 inst:   20000002 cyc:   13065825 now IPC :1.44889: AVG IPC :1.48976: L2-Pf-HR :0.99875: L2-HR :0.94073: (Sim:0h6m4s) 
CPU  0 inst:   21000005 cyc:   13802086 now IPC :1.35822: AVG IPC :1.48221: L2-Pf-HR :0.99878: L2-HR :0.93905: (Sim:0h6m22s) 
CPU  0 inst:   22000004 cyc:   14490074 now IPC :1.45351: AVG IPC :1.48074: L2-Pf-HR :0.99885: L2-HR :0.93974: (Sim:0h6m41s) 
CPU  0 inst:   23000002 cyc:   15172729 now IPC :1.46487: AVG IPC :1.47998: L2-Pf-HR :0.99892: L2-HR :0.94044: (Sim:0h6m59s) 
CPU  0 inst:   24000004 cyc:   15862433 now IPC :1.44990: AVG IPC :1.47859: L2-Pf-HR :0.99876: L2-HR :0.94049: (Sim:0h7m17s) 
CPU  0 inst:   25000003 cyc:   16584437 now IPC :1.38503: AVG IPC :1.47426: L2-Pf-HR :0.99875: L2-HR :0.93884: (Sim:0h7m36s) 
CPU  0 inst:   26000005 cyc:   17272070 now IPC :1.45427: AVG IPC :1.47341: L2-Pf-HR :0.99881: L2-HR :0.93944: (Sim:0h7m51s) 
CPU  0 inst:   27000003 cyc:   17958231 now IPC :1.45738: AVG IPC :1.47276: L2-Pf-HR :0.99886: L2-HR :0.93997: (Sim:0h8m0s) 
CPU  0 inst:   28000001 cyc:   18649697 now IPC :1.44620: AVG IPC :1.47172: L2-Pf-HR :0.99878: L2-HR :0.94021: (Sim:0h8m8s) 
CPU  0 inst:   29000000 cyc:   19376936 now IPC :1.37506: AVG IPC :1.46790: L2-Pf-HR :0.99879: L2-HR :0.93864: (Sim:0h8m17s) 
CPU  0 inst:   30000000 cyc:   20065980 now IPC :1.45129: AVG IPC :1.46730: L2-Pf-HR :0.99884: L2-HR :0.93915: (Sim:0h8m30s) 
CPU  0 inst:   31000001 cyc:   20750629 now IPC :1.46060: AVG IPC :1.46707: L2-Pf-HR :0.99888: L2-HR :0.93956: (Sim:0h8m40s) 
CPU  0 inst:   32000002 cyc:   21442811 now IPC :1.44471: AVG IPC :1.46631: L2-Pf-HR :0.99884: L2-HR :0.93995: (Sim:0h8m48s) 
CPU  0 inst:   33000003 cyc:   22134681 now IPC :1.44536: AVG IPC :1.46563: L2-Pf-HR :0.99877: L2-HR :0.93857: (Sim:0h8m57s) 
CPU  0 inst:   34000004 cyc:   22847210 now IPC :1.40345: AVG IPC :1.46360: L2-Pf-HR :0.99882: L2-HR :0.93877: (Sim:0h9m6s) 
CPU  0 inst:   35000005 cyc:   23530342 now IPC :1.46385: AVG IPC :1.46361: L2-Pf-HR :0.99886: L2-HR :0.93923: (Sim:0h9m14s) 
CPU  0 inst:   36000004 cyc:   24219125 now IPC :1.45183: AVG IPC :1.46326: L2-Pf-HR :0.99880: L2-HR :0.93946: (Sim:0h9m23s) 
CPU  0 inst:   37000000 cyc:   24898151 now IPC :1.47269: AVG IPC :1.46353: L2-Pf-HR :0.99878: L2-HR :0.93869: (Sim:0h9m31s) 
CPU  0 inst:   38000004 cyc:   25643843 now IPC :1.34104: AVG IPC :1.45982: L2-Pf-HR :0.99881: L2-HR :0.93847: (Sim:0h9m40s) 
CPU  0 inst:   39000002 cyc:   26328295 now IPC :1.46102: AVG IPC :1.45986: L2-Pf-HR :0.99885: L2-HR :0.93877: (Sim:0h9m48s) 
CPU  0 inst:   40000000 cyc:   27011155 now IPC :1.46443: AVG IPC :1.45998: L2-Pf-HR :0.99883: L2-HR :0.93907: (Sim:0h9m57s) 
CPU  0 inst:   41000003 cyc:   27691684 now IPC :1.46945: AVG IPC :1.46022: L2-Pf-HR :0.99873: L2-HR :0.93842: (Sim:0h10m7s) 
CPU  0 inst:   42000002 cyc:   28424248 now IPC :1.36507: AVG IPC :1.45768: L2-Pf-HR :0.99876: L2-HR :0.93807: (Sim:0h10m16s) 
CPU  0 inst:   43000000 cyc:   29116018 now IPC :1.44556: AVG IPC :1.45738: L2-Pf-HR :0.99880: L2-HR :0.93838: (Sim:0h10m26s) 
CPU  0 inst:   44000001 cyc:   29803780 now IPC :1.45399: AVG IPC :1.45730: L2-Pf-HR :0.99882: L2-HR :0.93865: (Sim:0h10m35s) 
CPU  0 inst:   45000000 cyc:   30489335 now IPC :1.45867: AVG IPC :1.45733: L2-Pf-HR :0.99872: L2-HR :0.93818: (Sim:0h10m44s) 
CPU  0 inst:   46000002 cyc:   31235742 now IPC :1.33975: AVG IPC :1.45443: L2-Pf-HR :0.99874: L2-HR :0.93775: (Sim:0h10m52s) 
CPU  0 inst:   47000004 cyc:   31920210 now IPC :1.46099: AVG IPC :1.45458: L2-Pf-HR :0.99877: L2-HR :0.93804: (Sim:0h11m1s) 
CPU  0 inst:   48000005 cyc:   32605764 now IPC :1.45868: AVG IPC :1.45466: L2-Pf-HR :0.99880: L2-HR :0.93827: (Sim:0h11m10s) 
CPU  0 inst:   49000000 cyc:   33290938 now IPC :1.45948: AVG IPC :1.45477: L2-Pf-HR :0.99874: L2-HR :0.93795: (Sim:0h11m18s) 
CPU  0 inst:   50000001 cyc:   36549907 now IPC :0.30685: AVG IPC :1.34958: L2-Pf-HR :0.99874: L2-HR :0.92408: (Sim:0h11m37s) 
CPU  0 inst:   51000001 cyc:   42029945 now IPC :0.18248: AVG IPC :1.19377: L2-Pf-HR :0.99874: L2-HR :0.90168: (Sim:0h12m8s) 
CPU  0 inst:   52000000 cyc:   47410907 now IPC :0.18584: AVG IPC :1.07695: L2-Pf-HR :0.99874: L2-HR :0.89421: (Sim:0h12m29s) 
CPU  0 inst:   53000000 cyc:   52890287 now IPC :0.18250: AVG IPC :0.98253: L2-Pf-HR :0.99874: L2-HR :0.89102: (Sim:0h12m49s) 
CPU  0 inst:   54000000 cyc:   58361180 now IPC :0.18279: AVG IPC :0.90627: L2-Pf-HR :0.99874: L2-HR :0.88786: (Sim:0h13m9s) 
CPU  0 inst:   55000001 cyc:   63644029 now IPC :0.18929: AVG IPC :0.84583: L2-Pf-HR :0.99874: L2-HR :0.88474: (Sim:0h13m28s) 
CPU  0 inst:   56000000 cyc:   68835327 now IPC :0.19263: AVG IPC :0.79585: L2-Pf-HR :0.99874: L2-HR :0.88165: (Sim:0h13m47s) 
CPU  0 inst:   57000000 cyc:   73960811 now IPC :0.19510: AVG IPC :0.75366: L2-Pf-HR :0.99874: L2-HR :0.87860: (Sim:0h14m6s) 
CPU  0 inst:   58000000 cyc:   79185382 now IPC :0.19140: AVG IPC :0.71609: L2-Pf-HR :0.99874: L2-HR :0.87558: (Sim:0h14m25s) 
CPU  0 inst:   59000000 cyc:   84330279 now IPC :0.19437: AVG IPC :0.68389: L2-Pf-HR :0.99874: L2-HR :0.87260: (Sim:0h14m45s) 
CPU  0 inst:   60000000 cyc:   89497432 now IPC :0.19353: AVG IPC :0.65526: L2-Pf-HR :0.99874: L2-HR :0.86965: (Sim:0h15m4s) 
CPU  0 inst:   61000004 cyc:   94738917 now IPC :0.19079: AVG IPC :0.62930: L2-Pf-HR :0.99874: L2-HR :0.86673: (Sim:0h15m23s) 
CPU  0 inst:   62000000 cyc:   99819997 now IPC :0.19681: AVG IPC :0.60706: L2-Pf-HR :0.99874: L2-HR :0.86384: (Sim:0h15m42s) 
CPU  0 inst:   63000000 cyc:  104921152 now IPC :0.19603: AVG IPC :0.58689: L2-Pf-HR :0.99874: L2-HR :0.86099: (Sim:0h16m1s) 
CPU  0 inst:   64000001 cyc:  109953544 now IPC :0.19871: AVG IPC :0.56896: L2-Pf-HR :0.99874: L2-HR :0.85816: (Sim:0h16m20s) 
CPU  0 inst:   65000002 cyc:  115179898 now IPC :0.19134: AVG IPC :0.55168: L2-Pf-HR :0.99874: L2-HR :0.85536: (Sim:0h16m39s) 
CPU  0 inst:   66000000 cyc:  120426371 now IPC :0.19060: AVG IPC :0.53582: L2-Pf-HR :0.99874: L2-HR :0.85259: (Sim:0h16m59s) 
CPU  0 inst:   67000000 cyc:  125656044 now IPC :0.19122: AVG IPC :0.52137: L2-Pf-HR :0.99874: L2-HR :0.84986: (Sim:0h17m18s) 
CPU  0 inst:   68000000 cyc:  130801499 now IPC :0.19435: AVG IPC :0.50840: L2-Pf-HR :0.99874: L2-HR :0.84715: (Sim:0h17m37s) 
CPU  0 inst:   69000004 cyc:  135924368 now IPC :0.19520: AVG IPC :0.49651: L2-Pf-HR :0.99874: L2-HR :0.84447: (Sim:0h17m56s) 
CPU  0 inst:   70000000 cyc:  141103496 now IPC :0.19308: AVG IPC :0.48530: L2-Pf-HR :0.99874: L2-HR :0.84182: (Sim:0h18m15s) 
CPU  0 inst:   71000000 cyc:  146174651 now IPC :0.19719: AVG IPC :0.47524: L2-Pf-HR :0.99874: L2-HR :0.83919: (Sim:0h18m34s) 
CPU  0 inst:   72000000 cyc:  151237348 now IPC :0.19752: AVG IPC :0.46588: L2-Pf-HR :0.99874: L2-HR :0.83659: (Sim:0h18m53s) 
CPU  0 inst:   73000000 cyc:  156388491 now IPC :0.19413: AVG IPC :0.45687: L2-Pf-HR :0.99874: L2-HR :0.83402: (Sim:0h19m12s) 
CPU  0 inst:   74000001 cyc:  161642586 now IPC :0.19033: AVG IPC :0.44815: L2-Pf-HR :0.99874: L2-HR :0.83148: (Sim:0h19m31s) 
CPU  0 inst:   75000002 cyc:  166937151 now IPC :0.18887: AVG IPC :0.43988: L2-Pf-HR :0.99874: L2-HR :0.82895: (Sim:0h19m51s) 
CPU  0 inst:   76000001 cyc:  169374731 now IPC :0.41024: AVG IPC :0.43945: L2-Pf-HR :0.99875: L2-HR :0.82915: (Sim:0h20m6s) 
CPU  0 inst:   77000003 cyc:  170093589 now IPC :1.39110: AVG IPC :0.44350: L2-Pf-HR :0.99876: L2-HR :0.83161: (Sim:0h20m20s) 
CPU  0 inst:   78000005 cyc:  170808587 now IPC :1.39861: AVG IPC :0.44752: L2-Pf-HR :0.99877: L2-HR :0.83407: (Sim:0h20m33s) 
CPU  0 inst:   79000000 cyc:  171471570 now IPC :1.50833: AVG IPC :0.45164: L2-Pf-HR :0.99879: L2-HR :0.83661: (Sim:0h20m47s) 
CPU  0 inst:   80000000 cyc:  172219547 now IPC :1.33694: AVG IPC :0.45551: L2-Pf-HR :0.99879: L2-HR :0.83866: (Sim:0h21m1s) 
CPU  0 inst:   81000002 cyc:  172930902 now IPC :1.40577: AVG IPC :0.45944: L2-Pf-HR :0.99880: L2-HR :0.84080: (Sim:0h21m14s) 
CPU  0 inst:   82000002 cyc:  173654747 now IPC :1.38151: AVG IPC :0.46331: L2-Pf-HR :0.99881: L2-HR :0.84285: (Sim:0h21m28s) 
CPU  0 inst:   83000004 cyc:  174319966 now IPC :1.50327: AVG IPC :0.46730: L2-Pf-HR :0.99882: L2-HR :0.84504: (Sim:0h21m42s) 
CPU  0 inst:   84000005 cyc:  175061938 now IPC :1.34776: AVG IPC :0.47105: L2-Pf-HR :0.99883: L2-HR :0.84682: (Sim:0h21m55s) 
CPU  0 inst:   85000000 cyc:  175752732 now IPC :1.44760: AVG IPC :0.47491: L2-Pf-HR :0.99885: L2-HR :0.84868: (Sim:0h22m9s) 
CPU  0 inst:   86000004 cyc:  176454400 now IPC :1.42518: AVG IPC :0.47871: L2-Pf-HR :0.99885: L2-HR :0.85043: (Sim:0h22m23s) 
CPU  0 inst:   87000002 cyc:  177104494 now IPC :1.53824: AVG IPC :0.48262: L2-Pf-HR :0.99887: L2-HR :0.85234: (Sim:0h22m41s) 
CPU  0 inst:   88000002 cyc:  177779152 now IPC :1.48223: AVG IPC :0.48644: L2-Pf-HR :0.99886: L2-HR :0.85396: (Sim:0h22m54s) 
CPU  0 inst:   89000001 cyc:  178472600 now IPC :1.44207: AVG IPC :0.49017: L2-Pf-HR :0.99888: L2-HR :0.85555: (Sim:0h23m10s) 
CPU  0 inst:   90000001 cyc:  179143375 now IPC :1.49081: AVG IPC :0.49394: L2-Pf-HR :0.99889: L2-HR :0.85718: (Sim:0h23m24s) 
CPU  0 inst:   91000004 cyc:  179822297 now IPC :1.47293: AVG IPC :0.49765: L2-Pf-HR :0.99890: L2-HR :0.85867: (Sim:0h23m38s) 
CPU  0 inst:   92000001 cyc:  180463717 now IPC :1.55904: AVG IPC :0.50145: L2-Pf-HR :0.99890: L2-HR :0.86030: (Sim:0h23m52s) 
CPU  0 inst:   93000002 cyc:  181169467 now IPC :1.41693: AVG IPC :0.50503: L2-Pf-HR :0.99891: L2-HR :0.86158: (Sim:0h24m5s) 
CPU  0 inst:   94000005 cyc:  181844747 now IPC :1.48087: AVG IPC :0.50868: L2-Pf-HR :0.99892: L2-HR :0.86300: (Sim:0h24m19s) 
CPU  0 inst:   95000002 cyc:  182534990 now IPC :1.44876: AVG IPC :0.51225: L2-Pf-HR :0.99893: L2-HR :0.86424: (Sim:0h24m32s) 
CPU  0 inst:   96000001 cyc:  183171555 now IPC :1.57093: AVG IPC :0.51595: L2-Pf-HR :0.99894: L2-HR :0.86570: (Sim:0h24m45s) 
CPU  0 inst:   97000000 cyc:  183866570 now IPC :1.43882: AVG IPC :0.51946: L2-Pf-HR :0.99894: L2-HR :0.86689: (Sim:0h24m59s) 
CPU  0 inst:   98000000 cyc:  184551819 now IPC :1.45932: AVG IPC :0.52297: L2-Pf-HR :0.99895: L2-HR :0.86811: (Sim:0h25m12s) 
CPU  0 inst:   99000003 cyc:  185249684 now IPC :1.43295: AVG IPC :0.52641: L2-Pf-HR :0.99896: L2-HR :0.86920: (Sim:0h25m26s) 
CPU  0 inst:  100000002 cyc:  185887118 now IPC :1.56879: AVG IPC :0.53001: L2-Pf-HR :0.99897: L2-HR :0.87052: (Sim:0h25m39s) 
CPU  0 inst:  101000004 cyc:  186569028 now IPC :1.46647: AVG IPC :0.53345: L2-Pf-HR :0.99898: L2-HR :0.87163: (Sim:0h25m52s) 
CPU  0 inst:  102000005 cyc:  187253616 now IPC :1.46073: AVG IPC :0.53685: L2-Pf-HR :0.99899: L2-HR :0.87272: (Sim:0h26m6s) 
CPU  0 inst:  103000005 cyc:  187968058 now IPC :1.39969: AVG IPC :0.54015: L2-Pf-HR :0.99899: L2-HR :0.87365: (Sim:0h26m20s) 
CPU  0 inst:  104000000 cyc:  188611831 now IPC :1.55333: AVG IPC :0.54363: L2-Pf-HR :0.99899: L2-HR :0.87482: (Sim:0h26m35s) 
CPU  0 inst:  105000002 cyc:  189284106 now IPC :1.48749: AVG IPC :0.54700: L2-Pf-HR :0.99900: L2-HR :0.87584: (Sim:0h26m48s) 
CPU  0 inst:  106000003 cyc:  189966984 now IPC :1.46439: AVG IPC :0.55031: L2-Pf-HR :0.99901: L2-HR :0.87680: (Sim:0h27m2s) 
CPU  0 inst:  107000001 cyc:  190682885 now IPC :1.39684: AVG IPC :0.55351: L2-Pf-HR :0.99902: L2-HR :0.87764: (Sim:0h27m15s) 
CPU  0 inst:  108000005 cyc:  191324108 now IPC :1.55953: AVG IPC :0.55690: L2-Pf-HR :0.99902: L2-HR :0.87872: (Sim:0h27m29s) 
CPU  0 inst:  109000003 cyc:  191990197 now IPC :1.50130: AVG IPC :0.56019: L2-Pf-HR :0.99903: L2-HR :0.87968: (Sim:0h27m42s) 
CPU  0 inst:  110000001 cyc:  192680843 now IPC :1.44792: AVG IPC :0.56339: L2-Pf-HR :0.99904: L2-HR :0.88050: (Sim:0h27m55s) 
CPU  0 inst:  111000000 cyc:  193378535 now IPC :1.43330: AVG IPC :0.56654: L2-Pf-HR :0.99905: L2-HR :0.88128: (Sim:0h28m9s) 
CPU  0 inst:  112000005 cyc:  194031091 now IPC :1.53244: AVG IPC :0.56981: L2-Pf-HR :0.99906: L2-HR :0.88225: (Sim:0h28m22s) 
CPU  0 inst:  113000001 cyc:  194675473 now IPC :1.55187: AVG IPC :0.57307: L2-Pf-HR :0.99907: L2-HR :0.88317: (Sim:0h28m36s) 
CPU  0 inst:  114000003 cyc:  195386191 now IPC :1.40703: AVG IPC :0.57612: L2-Pf-HR :0.99908: L2-HR :0.88386: (Sim:0h28m49s) 
CPU  0 inst:  115000001 cyc:  196061741 now IPC :1.48027: AVG IPC :0.57925: L2-Pf-HR :0.99908: L2-HR :0.88467: (Sim:0h29m3s) 
CPU  0 inst:  116000003 cyc:  196729498 now IPC :1.49755: AVG IPC :0.58239: L2-Pf-HR :0.99909: L2-HR :0.88545: (Sim:0h29m16s) 
CPU  0 inst:  117000005 cyc:  197366727 now IPC :1.56930: AVG IPC :0.58559: L2-Pf-HR :0.99909: L2-HR :0.88634: (Sim:0h29m30s) 
CPU  0 inst:  118000001 cyc:  198086630 now IPC :1.38907: AVG IPC :0.58852: L2-Pf-HR :0.99910: L2-HR :0.88691: (Sim:0h29m44s) 
CPU  0 inst:  119000005 cyc:  198762602 now IPC :1.47936: AVG IPC :0.59157: L2-Pf-HR :0.99911: L2-HR :0.88764: (Sim:0h30m0s) 
CPU  0 inst:  120000005 cyc:  199435015 now IPC :1.48718: AVG IPC :0.59460: L2-Pf-HR :0.99911: L2-HR :0.88835: (Sim:0h30m14s) 
CPU  0 inst:  121000004 cyc:  200074987 now IPC :1.56257: AVG IPC :0.59771: L2-Pf-HR :0.99912: L2-HR :0.88916: (Sim:0h30m39s) 
CPU  0 inst:  122000004 cyc:  200788408 now IPC :1.40170: AVG IPC :0.60059: L2-Pf-HR :0.99913: L2-HR :0.88971: (Sim:0h31m3s) 
Finished CPU 0 instr: 120000001 cyc: 199805063 AVG IPC: 0.60059 (Sim time: 0h31m3s)

ChampSim completed all CPUs

[ROI Statistics]
Core_0_instructions 120000001
Core_0_cycles 199805063
Core_0_IPC 0.60059

Core_0_branch_prediction_accuracy 99.19469
Core_0_branch_MPKI 0.24154
Core_0_average_ROB_occupancy_at_mispredict 448.21366

Core_0_L1D_total_access 33023006
Core_0_L1D_total_hit 28464251 L1D_total_Hit Ratio: 0.86195
Core_0_L1D_total_miss 4558755
Core_0_L1D_loads 29602426
Core_0_L1D_load_hit 25242179 L1D_load_Hit Ratio: 0.85271
Core_0_L1D_load_miss 4360247
Core_0_L1D_RFOs 3259014
Core_0_L1D_RFO_hit 3060506 L1D_RFO_Hit Ratio: 0.93909
Core_0_L1D_RFO_miss 198508
Core_0_L1D_prefetches 161566
Core_0_L1D_prefetch_hit 161566 L1D_prefetch_Hit Ratio: 1.00000
Core_0_L1D_prefetch_miss 0
Core_0_L1D_writebacks 0
Core_0_L1D_writeback_hit 0 L1D_writeback_Hit Ratio: -nan
Core_0_L1D_writeback_miss 0
Core_0_L1D_prefetch_requested 19921788
Core_0_L1D_prefetch_issued 5368748
Core_0_L1D_prefetch_useful 0 L1D_Useful Ratio: 0.00000
Core_0_L1D_prefetch_useless 0
Core_0_L1D_prefetch_late 0
Core_0_L1D_average_miss_latency 92.04721

Core_0_L1I_total_access 17063741
Core_0_L1I_total_hit 17058807 L1I_total_Hit Ratio: 0.99971
Core_0_L1I_total_miss 4934
Core_0_L1I_loads 17063741
Core_0_L1I_load_hit 17058807 L1I_load_Hit Ratio: 0.99971
Core_0_L1I_load_miss 4934
Core_0_L1I_RFOs 0
Core_0_L1I_RFO_hit 0 L1I_RFO_Hit Ratio: -nan
Core_0_L1I_RFO_miss 0
Core_0_L1I_prefetches 0
Core_0_L1I_prefetch_hit 0 L1I_prefetch_Hit Ratio: -nan
Core_0_L1I_prefetch_miss 0
Core_0_L1I_writebacks 0
Core_0_L1I_writeback_hit 0 L1I_writeback_Hit Ratio: -nan
Core_0_L1I_writeback_miss 0
Core_0_L1I_prefetch_requested 0
Core_0_L1I_prefetch_issued 0
Core_0_L1I_prefetch_useful 0 L1I_Useful Ratio: -nan
Core_0_L1I_prefetch_useless 0
Core_0_L1I_prefetch_late 0
Core_0_L1I_average_miss_latency 274.84070

Core_0_L2C_total_access 9696494
Core_0_L2C_total_hit 8627060 L2C_total_Hit Ratio: 0.88971
Core_0_L2C_total_miss 1069434
Core_0_L2C_loads 4365181
Core_0_L2C_load_hit 3496650 L2C_load_Hit Ratio: 0.80103
Core_0_L2C_load_miss 868531
Core_0_L2C_RFOs 198508
Core_0_L2C_RFO_hit 1441 L2C_RFO_Hit Ratio: 0.00726
Core_0_L2C_RFO_miss 197067
Core_0_L2C_prefetches 4386414
Core_0_L2C_prefetch_hit 4382583 L2C_prefetch_Hit Ratio: 0.99913
Core_0_L2C_prefetch_miss 3831
Core_0_L2C_writebacks 746391
Core_0_L2C_writeback_hit 746386 L2C_writeback_Hit Ratio: 0.99999
Core_0_L2C_writeback_miss 5
Core_0_L2C_prefetch_requested 3157133
Core_0_L2C_prefetch_issued 4101
Core_0_L2C_prefetch_useful 3797 L2C_Useful Ratio: 0.92587
Core_0_L2C_prefetch_useless 33
Core_0_L2C_prefetch_late 20
Core_0_L2C_average_miss_latency 328.72118

Core_0_LLC_total_access 1688193
Core_0_LLC_total_hit 623206 LLC_total_Hit Ratio: 0.36916
Core_0_LLC_total_miss 1064987
Core_0_LLC_loads 868511
Core_0_LLC_load_hit 4272 LLC_load_Hit Ratio: 0.00492
Core_0_LLC_load_miss 864239
Core_0_LLC_RFOs 197067
Core_0_LLC_RFO_hit 267 LLC_RFO_Hit Ratio: 0.00135
Core_0_LLC_RFO_miss 196800
Core_0_LLC_prefetches 5199
Core_0_LLC_prefetch_hit 5088 LLC_prefetch_Hit Ratio: 0.97865
Core_0_LLC_prefetch_miss 111
Core_0_LLC_writebacks 617416
Core_0_LLC_writeback_hit 613579 LLC_writeback_Hit Ratio: 0.99379
Core_0_LLC_writeback_miss 3837
Core_0_LLC_prefetch_requested 0
Core_0_LLC_prefetch_issued 0
Core_0_LLC_prefetch_useful 5 LLC_Useful Ratio: inf
Core_0_LLC_prefetch_useless 105
Core_0_LLC_prefetch_late 0
Core_0_LLC_average_miss_latency 279.79020

Core_0_major_page_fault 0
Core_0_minor_page_fault 8629

CPU 0 L1D next line prefetcher final stats
Prefetcher final stats
Training Unit Size: 4788
Addr table size: 480515 480516


Triggers: 885040
No Prediction: 487889 55.12621
Stream end: 4017
No translation: 898461 101.51643
Predictions: 4101 0.46337


Stream divergence: 2542 0.28722
Stream divergence -- new stream: 0
Channel_0_RQ_row_buffer_hit 586170
Channel_0_RQ_row_buffer_miss 474980
Channel_0_WQ_row_buffer_hit 283288
Channel_0_WQ_row_buffer_miss 329325
Channel_0_WQ_full 387
Channel_0_dbus_congested 484218

avg_congested_cycle 11

EzSearch AVG IPC :0.60059: L2-Pf-HR :0.99913 : L2-HR :0.88971 Uful:0.92587
     > Finished combination: TraceType=770-tot Sim:120000000 Prefetcher=L2isb_ideal L1=isb_ideal
