TRACE: [662000000][OPT-350M]_[h16][s1024][d64] Warmup: 2000000 NumTraces: 662000000
L1:bingo_dpc3:L2:bingo_dpc3
*************************************************
   ChampSim Multicore Out-of-Order Simulator
   Last compiled: Oct 27 2024 10:00:54
*************************************************

trace_0 770-tot_memTraces_v3/memTraces[662000000][OPT-350M]_[h16][s1024][d64].champsim.xz
Bingo PHT WAYS: 16 and PHT_SIZE: 16384
Bingo2 PHT WAYS: 16 and PHT_SIZE: 16384
MAIN.cc ln 751 stats print skipped
CPU  0 inst:    1000001 cyc:     499831 now IPC :2.00068: AVG IPC :2.00068: L2-Pf-HR :0.70708: L2-HR :0.65014: (Sim:0h0m19s) 
CPU  0 inst:    2000000 cyc:     983294 now IPC :2.06841: AVG IPC :2.03398: L2-Pf-HR :0.75426: L2-HR :0.70708: (Sim:0h0m40s) 

Warmup complete CPU  0 instructions:    2000001 cycles:     983295 (Simulation time: 0 hr 0 min 40 sec) 

CPU  0 inst:    3000000 cyc:    1614376 now IPC :1.58458: AVG IPC :1.58458: L2-Pf-HR :0.91767: L2-HR :0.77164: (Sim:0h0m58s) 
CPU  0 inst:    4000002 cyc:    2222198 now IPC :1.64522: AVG IPC :1.61433: L2-Pf-HR :0.90564: L2-HR :0.77288: (Sim:0h1m15s) 
CPU  0 inst:    5000000 cyc:    2819283 now IPC :1.67480: AVG IPC :1.63400: L2-Pf-HR :0.90071: L2-HR :0.77467: (Sim:0h1m31s) 
CPU  0 inst:    6000004 cyc:    3441575 now IPC :1.60697: AVG IPC :1.62716: L2-Pf-HR :0.90157: L2-HR :0.77292: (Sim:0h1m49s) 
CPU  0 inst:    7000001 cyc:    4135251 now IPC :1.44159: AVG IPC :1.58632: L2-Pf-HR :0.89870: L2-HR :0.77027: (Sim:0h2m7s) 
CPU  0 inst:    8000002 cyc:    4777388 now IPC :1.55730: AVG IPC :1.58141: L2-Pf-HR :0.90343: L2-HR :0.76936: (Sim:0h2m25s) 
CPU  0 inst:    9000003 cyc:    5419908 now IPC :1.55637: AVG IPC :1.57778: L2-Pf-HR :0.90629: L2-HR :0.76848: (Sim:0h2m43s) 
CPU  0 inst:   10000000 cyc:    6064664 now IPC :1.55097: AVG IPC :1.57438: L2-Pf-HR :0.90888: L2-HR :0.76747: (Sim:0h2m59s) 
CPU  0 inst:   11000002 cyc:    6705384 now IPC :1.56075: AVG IPC :1.57285: L2-Pf-HR :0.91094: L2-HR :0.76696: (Sim:0h3m16s) 
CPU  0 inst:   12000005 cyc:    7338292 now IPC :1.58001: AVG IPC :1.57357: L2-Pf-HR :0.91162: L2-HR :0.76650: (Sim:0h3m34s) 
CPU  0 inst:   13000004 cyc:    8050228 now IPC :1.40462: AVG IPC :1.55655: L2-Pf-HR :0.90971: L2-HR :0.76957: (Sim:0h3m52s) 
CPU  0 inst:   14000000 cyc:    8710473 now IPC :1.51458: AVG IPC :1.55296: L2-Pf-HR :0.91084: L2-HR :0.77252: (Sim:0h4m10s) 
CPU  0 inst:   15000005 cyc:    9351884 now IPC :1.55907: AVG IPC :1.55343: L2-Pf-HR :0.90869: L2-HR :0.77575: (Sim:0h4m28s) 
CPU  0 inst:   16000000 cyc:    9987613 now IPC :1.57299: AVG IPC :1.55481: L2-Pf-HR :0.90694: L2-HR :0.77926: (Sim:0h4m45s) 
CPU  0 inst:   17000001 cyc:   10753859 now IPC :1.30507: AVG IPC :1.53522: L2-Pf-HR :0.90108: L2-HR :0.77735: (Sim:0h5m3s) 
CPU  0 inst:   18000000 cyc:   11435961 now IPC :1.46605: AVG IPC :1.53071: L2-Pf-HR :0.89937: L2-HR :0.77661: (Sim:0h5m21s) 
CPU  0 inst:   19000005 cyc:   12106547 now IPC :1.49124: AVG IPC :1.52833: L2-Pf-HR :0.89757: L2-HR :0.77619: (Sim:0h5m40s) 
CPU  0 inst:   20000001 cyc:   12768521 now IPC :1.51063: AVG IPC :1.52734: L2-Pf-HR :0.89567: L2-HR :0.77480: (Sim:0h5m58s) 
CPU  0 inst:   21000003 cyc:   13455386 now IPC :1.45589: AVG IPC :1.52340: L2-Pf-HR :0.89454: L2-HR :0.77399: (Sim:0h6m17s) 
CPU  0 inst:   22000002 cyc:   14139476 now IPC :1.46179: AVG IPC :1.52020: L2-Pf-HR :0.89319: L2-HR :0.77349: (Sim:0h6m34s) 
CPU  0 inst:   23000001 cyc:   14892142 now IPC :1.32861: AVG IPC :1.50983: L2-Pf-HR :0.89228: L2-HR :0.77316: (Sim:0h6m51s) 
CPU  0 inst:   24000005 cyc:   15549054 now IPC :1.52228: AVG IPC :1.51039: L2-Pf-HR :0.89387: L2-HR :0.77272: (Sim:0h7m9s) 
CPU  0 inst:   25000005 cyc:   16205458 now IPC :1.52345: AVG IPC :1.51096: L2-Pf-HR :0.89509: L2-HR :0.77221: (Sim:0h7m27s) 
CPU  0 inst:   26000004 cyc:   16835171 now IPC :1.58802: AVG IPC :1.51402: L2-Pf-HR :0.89532: L2-HR :0.77126: (Sim:0h7m46s) 
CPU  0 inst:   27000003 cyc:   17490200 now IPC :1.52665: AVG IPC :1.51452: L2-Pf-HR :0.89635: L2-HR :0.77098: (Sim:0h8m4s) 
CPU  0 inst:   28000003 cyc:   18145162 now IPC :1.52681: AVG IPC :1.51499: L2-Pf-HR :0.89736: L2-HR :0.77063: (Sim:0h8m21s) 
CPU  0 inst:   29000003 cyc:   18859525 now IPC :1.39985: AVG IPC :1.51039: L2-Pf-HR :0.89702: L2-HR :0.77133: (Sim:0h8m38s) 
CPU  0 inst:   30000005 cyc:   19530163 now IPC :1.49112: AVG IPC :1.50969: L2-Pf-HR :0.89788: L2-HR :0.77264: (Sim:0h8m56s) 
CPU  0 inst:   31000002 cyc:   20171836 now IPC :1.55842: AVG IPC :1.51132: L2-Pf-HR :0.89775: L2-HR :0.77421: (Sim:0h9m14s) 
CPU  0 inst:   32000005 cyc:   20824969 now IPC :1.53109: AVG IPC :1.51197: L2-Pf-HR :0.89735: L2-HR :0.77538: (Sim:0h9m32s) 
CPU  0 inst:   33000000 cyc:   21573194 now IPC :1.33649: AVG IPC :1.50559: L2-Pf-HR :0.89461: L2-HR :0.77493: (Sim:0h9m51s) 
CPU  0 inst:   34000004 cyc:   22241680 now IPC :1.49592: AVG IPC :1.50529: L2-Pf-HR :0.89379: L2-HR :0.77471: (Sim:0h10m9s) 
CPU  0 inst:   35000003 cyc:   22918051 now IPC :1.47848: AVG IPC :1.50446: L2-Pf-HR :0.89325: L2-HR :0.77435: (Sim:0h10m28s) 
CPU  0 inst:   36000005 cyc:   23561773 now IPC :1.55347: AVG IPC :1.50586: L2-Pf-HR :0.89210: L2-HR :0.77368: (Sim:0h10m46s) 
CPU  0 inst:   37000003 cyc:   24242558 now IPC :1.46889: AVG IPC :1.50478: L2-Pf-HR :0.89190: L2-HR :0.77325: (Sim:0h11m4s) 
CPU  0 inst:   38000003 cyc:   24927504 now IPC :1.45997: AVG IPC :1.50350: L2-Pf-HR :0.89170: L2-HR :0.77276: (Sim:0h11m22s) 
CPU  0 inst:   39000003 cyc:   25684994 now IPC :1.32015: AVG IPC :1.49787: L2-Pf-HR :0.89081: L2-HR :0.77246: (Sim:0h11m41s) 
CPU  0 inst:   40000003 cyc:   26357424 now IPC :1.48714: AVG IPC :1.49759: L2-Pf-HR :0.89173: L2-HR :0.77219: (Sim:0h12m0s) 
CPU  0 inst:   41000003 cyc:   27029055 now IPC :1.48891: AVG IPC :1.49736: L2-Pf-HR :0.89250: L2-HR :0.77189: (Sim:0h12m18s) 
CPU  0 inst:   42000001 cyc:   27671629 now IPC :1.55624: AVG IPC :1.49878: L2-Pf-HR :0.89262: L2-HR :0.77126: (Sim:0h12m36s) 
CPU  0 inst:   43000003 cyc:   28342824 now IPC :1.48988: AVG IPC :1.49856: L2-Pf-HR :0.89335: L2-HR :0.77097: (Sim:0h12m54s) 
CPU  0 inst:   44000001 cyc:   29010534 now IPC :1.49765: AVG IPC :1.49854: L2-Pf-HR :0.89402: L2-HR :0.77075: (Sim:0h13m12s) 
CPU  0 inst:   45000005 cyc:   29733188 now IPC :1.38379: AVG IPC :1.49566: L2-Pf-HR :0.89367: L2-HR :0.77098: (Sim:0h13m30s) 
CPU  0 inst:   46000002 cyc:   30406016 now IPC :1.48626: AVG IPC :1.49544: L2-Pf-HR :0.89426: L2-HR :0.77189: (Sim:0h13m49s) 
CPU  0 inst:   47000003 cyc:   31048837 now IPC :1.55564: AVG IPC :1.49673: L2-Pf-HR :0.89401: L2-HR :0.77277: (Sim:0h14m7s) 
CPU  0 inst:   48000000 cyc:   31698863 now IPC :1.53840: AVG IPC :1.49761: L2-Pf-HR :0.89382: L2-HR :0.77386: (Sim:0h14m24s) 
CPU  0 inst:   49000001 cyc:   32445147 now IPC :1.33997: AVG IPC :1.49387: L2-Pf-HR :0.89201: L2-HR :0.77368: (Sim:0h14m43s) 
CPU  0 inst:   50000005 cyc:   33109319 now IPC :1.50564: AVG IPC :1.49412: L2-Pf-HR :0.89166: L2-HR :0.77360: (Sim:0h15m2s) 
CPU  0 inst:   51000004 cyc:   33784622 now IPC :1.48082: AVG IPC :1.49384: L2-Pf-HR :0.89142: L2-HR :0.77337: (Sim:0h15m21s) 
CPU  0 inst:   52000004 cyc:   34435154 now IPC :1.53720: AVG IPC :1.49469: L2-Pf-HR :0.89089: L2-HR :0.77290: (Sim:0h15m39s) 
CPU  0 inst:   53000003 cyc:   35110619 now IPC :1.48046: AVG IPC :1.49440: L2-Pf-HR :0.89046: L2-HR :0.77261: (Sim:0h15m58s) 
CPU  0 inst:   54000000 cyc:   35780711 now IPC :1.49233: AVG IPC :1.49436: L2-Pf-HR :0.89016: L2-HR :0.77250: (Sim:0h16m16s) 
CPU  0 inst:   55000005 cyc:   36525968 now IPC :1.34183: AVG IPC :1.49117: L2-Pf-HR :0.88937: L2-HR :0.77227: (Sim:0h16m35s) 
CPU  0 inst:   56000001 cyc:   37189446 now IPC :1.50720: AVG IPC :1.49146: L2-Pf-HR :0.89003: L2-HR :0.77209: (Sim:0h16m54s) 
CPU  0 inst:   57000001 cyc:   37853342 now IPC :1.50626: AVG IPC :1.49173: L2-Pf-HR :0.89064: L2-HR :0.77188: (Sim:0h17m12s) 
CPU  0 inst:   58000001 cyc:   38486395 now IPC :1.57965: AVG IPC :1.49321: L2-Pf-HR :0.89083: L2-HR :0.77149: (Sim:0h17m30s) 
CPU  0 inst:   59000005 cyc:   39149397 now IPC :1.50830: AVG IPC :1.49347: L2-Pf-HR :0.89146: L2-HR :0.77137: (Sim:0h17m48s) 
CPU  0 inst:   60000001 cyc:   39810247 now IPC :1.51320: AVG IPC :1.49381: L2-Pf-HR :0.89207: L2-HR :0.77125: (Sim:0h18m7s) 
CPU  0 inst:   61000005 cyc:   40527658 now IPC :1.39391: AVG IPC :1.49200: L2-Pf-HR :0.89191: L2-HR :0.77135: (Sim:0h18m25s) 
CPU  0 inst:   62000000 cyc:   41201451 now IPC :1.48413: AVG IPC :1.49186: L2-Pf-HR :0.89242: L2-HR :0.77194: (Sim:0h18m44s) 
CPU  0 inst:   63000001 cyc:   41847085 now IPC :1.54887: AVG IPC :1.49276: L2-Pf-HR :0.89225: L2-HR :0.77252: (Sim:0h19m2s) 
CPU  0 inst:   64000003 cyc:   42495563 now IPC :1.54208: AVG IPC :1.49353: L2-Pf-HR :0.89236: L2-HR :0.77338: (Sim:0h19m20s) 
CPU  0 inst:   65000000 cyc:   43224615 now IPC :1.37164: AVG IPC :1.49143: L2-Pf-HR :0.89112: L2-HR :0.77335: (Sim:0h19m39s) 
CPU  0 inst:   66000002 cyc:   43881166 now IPC :1.52311: AVG IPC :1.49192: L2-Pf-HR :0.89087: L2-HR :0.77327: (Sim:0h19m57s) 
CPU  0 inst:   67000001 cyc:   44540604 now IPC :1.51644: AVG IPC :1.49229: L2-Pf-HR :0.89064: L2-HR :0.77313: (Sim:0h20m16s) 
CPU  0 inst:   68000001 cyc:   45181772 now IPC :1.55965: AVG IPC :1.49326: L2-Pf-HR :0.89011: L2-HR :0.77271: (Sim:0h20m35s) 
CPU  0 inst:   69000002 cyc:   45836528 now IPC :1.52729: AVG IPC :1.49376: L2-Pf-HR :0.88988: L2-HR :0.77269: (Sim:0h20m53s) 
CPU  0 inst:   70000001 cyc:   46498974 now IPC :1.50956: AVG IPC :1.49399: L2-Pf-HR :0.88974: L2-HR :0.77248: (Sim:0h21m11s) 
CPU  0 inst:   71000004 cyc:   47253389 now IPC :1.32553: AVG IPC :1.49124: L2-Pf-HR :0.88925: L2-HR :0.77231: (Sim:0h21m31s) 
CPU  0 inst:   72000003 cyc:   47928367 now IPC :1.48153: AVG IPC :1.49110: L2-Pf-HR :0.88976: L2-HR :0.77216: (Sim:0h21m49s) 
CPU  0 inst:   73000003 cyc:   48602859 now IPC :1.48260: AVG IPC :1.49098: L2-Pf-HR :0.89021: L2-HR :0.77200: (Sim:0h22m8s) 
CPU  0 inst:   74000004 cyc:   49247989 now IPC :1.55008: AVG IPC :1.49177: L2-Pf-HR :0.89037: L2-HR :0.77168: (Sim:0h22m26s) 
CPU  0 inst:   75000003 cyc:   49920601 now IPC :1.48674: AVG IPC :1.49170: L2-Pf-HR :0.89083: L2-HR :0.77152: (Sim:0h22m44s) 
CPU  0 inst:   76000000 cyc:   50590404 now IPC :1.49297: AVG IPC :1.49172: L2-Pf-HR :0.89119: L2-HR :0.77138: (Sim:0h23m3s) 
CPU  0 inst:   77000002 cyc:   51307829 now IPC :1.39388: AVG IPC :1.49033: L2-Pf-HR :0.89108: L2-HR :0.77136: (Sim:0h23m22s) 
CPU  0 inst:   78000004 cyc:   51982107 now IPC :1.48307: AVG IPC :1.49023: L2-Pf-HR :0.89142: L2-HR :0.77178: (Sim:0h23m40s) 
CPU  0 inst:   79000000 cyc:   52630362 now IPC :1.54260: AVG IPC :1.49089: L2-Pf-HR :0.89160: L2-HR :0.77238: (Sim:0h23m58s) 
CPU  0 inst:   80000000 cyc:   53277429 now IPC :1.54544: AVG IPC :1.49156: L2-Pf-HR :0.89139: L2-HR :0.77296: (Sim:0h24m16s) 
CPU  0 inst:   81000005 cyc:   54017666 now IPC :1.35093: AVG IPC :1.48960: L2-Pf-HR :0.89034: L2-HR :0.77307: (Sim:0h24m36s) 
CPU  0 inst:   82000005 cyc:   54677482 now IPC :1.51557: AVG IPC :1.48992: L2-Pf-HR :0.89010: L2-HR :0.77300: (Sim:0h24m53s) 
CPU  0 inst:   83000001 cyc:   55342200 now IPC :1.50439: AVG IPC :1.49010: L2-Pf-HR :0.88992: L2-HR :0.77288: (Sim:0h25m12s) 
CPU  0 inst:   84000000 cyc:   55981395 now IPC :1.56447: AVG IPC :1.49096: L2-Pf-HR :0.88958: L2-HR :0.77267: (Sim:0h25m31s) 
CPU  0 inst:   85000002 cyc:   56649109 now IPC :1.49765: AVG IPC :1.49104: L2-Pf-HR :0.88942: L2-HR :0.77249: (Sim:0h25m49s) 
CPU  0 inst:   86000001 cyc:   57313197 now IPC :1.50582: AVG IPC :1.49122: L2-Pf-HR :0.88929: L2-HR :0.77241: (Sim:0h26m8s) 
CPU  0 inst:   87000003 cyc:   58046693 now IPC :1.36334: AVG IPC :1.48957: L2-Pf-HR :0.88865: L2-HR :0.77227: (Sim:0h26m27s) 
CPU  0 inst:   88000002 cyc:   58738704 now IPC :1.44506: AVG IPC :1.48904: L2-Pf-HR :0.88905: L2-HR :0.77213: (Sim:0h26m45s) 
CPU  0 inst:   89000005 cyc:   59415411 now IPC :1.47775: AVG IPC :1.48891: L2-Pf-HR :0.88944: L2-HR :0.77201: (Sim:0h27m4s) 
CPU  0 inst:   90000001 cyc:   60059221 now IPC :1.55325: AVG IPC :1.48961: L2-Pf-HR :0.88957: L2-HR :0.77176: (Sim:0h27m22s) 
CPU  0 inst:   91000001 cyc:   60734041 now IPC :1.48188: AVG IPC :1.48952: L2-Pf-HR :0.88996: L2-HR :0.77161: (Sim:0h27m40s) 
CPU  0 inst:   92000001 cyc:   61406741 now IPC :1.48655: AVG IPC :1.48949: L2-Pf-HR :0.89034: L2-HR :0.77149: (Sim:0h27m59s) 
CPU  0 inst:   93000005 cyc:   62126391 now IPC :1.38957: AVG IPC :1.48831: L2-Pf-HR :0.89025: L2-HR :0.77138: (Sim:0h28m18s) 
CPU  0 inst:   94000000 cyc:   62806013 now IPC :1.47140: AVG IPC :1.48813: L2-Pf-HR :0.89054: L2-HR :0.77177: (Sim:0h28m36s) 
CPU  0 inst:   95000001 cyc:   63460735 now IPC :1.52737: AVG IPC :1.48854: L2-Pf-HR :0.89072: L2-HR :0.77221: (Sim:0h28m54s) 
CPU  0 inst:   96000002 cyc:   64109148 now IPC :1.54223: AVG IPC :1.48909: L2-Pf-HR :0.89048: L2-HR :0.77262: (Sim:0h29m13s) 
CPU  0 inst:   97000002 cyc:   64812413 now IPC :1.42194: AVG IPC :1.48835: L2-Pf-HR :0.88991: L2-HR :0.77291: (Sim:0h29m32s) 
CPU  0 inst:   98000000 cyc:   65505930 now IPC :1.44192: AVG IPC :1.48785: L2-Pf-HR :0.88976: L2-HR :0.77283: (Sim:0h29m50s) 
CPU  0 inst:   99000003 cyc:   66177369 now IPC :1.48934: AVG IPC :1.48787: L2-Pf-HR :0.88969: L2-HR :0.77276: (Sim:0h30m8s) 
CPU  0 inst:  100000002 cyc:   66831414 now IPC :1.52895: AVG IPC :1.48827: L2-Pf-HR :0.88924: L2-HR :0.77256: (Sim:0h30m27s) 
CPU  0 inst:  101000001 cyc:   67492170 now IPC :1.51342: AVG IPC :1.48852: L2-Pf-HR :0.88915: L2-HR :0.77247: (Sim:0h30m46s) 
CPU  0 inst:  102000003 cyc:   68163811 now IPC :1.48889: AVG IPC :1.48853: L2-Pf-HR :0.88893: L2-HR :0.77239: (Sim:0h31m4s) 
CPU  0 inst:  103000000 cyc:   68838471 now IPC :1.48222: AVG IPC :1.48846: L2-Pf-HR :0.88889: L2-HR :0.77238: (Sim:0h31m23s) 
CPU  0 inst:  104000001 cyc:   69593285 now IPC :1.32483: AVG IPC :1.48666: L2-Pf-HR :0.88877: L2-HR :0.77218: (Sim:0h31m42s) 
CPU  0 inst:  105000000 cyc:   70271681 now IPC :1.47406: AVG IPC :1.48654: L2-Pf-HR :0.88911: L2-HR :0.77209: (Sim:0h32m1s) 
CPU  0 inst:  106000005 cyc:   70947822 now IPC :1.47899: AVG IPC :1.48647: L2-Pf-HR :0.88923: L2-HR :0.77188: (Sim:0h32m19s) 
CPU  0 inst:  107000005 cyc:   71594405 now IPC :1.54659: AVG IPC :1.48702: L2-Pf-HR :0.88958: L2-HR :0.77177: (Sim:0h32m37s) 
CPU  0 inst:  108000003 cyc:   72270075 now IPC :1.48001: AVG IPC :1.48695: L2-Pf-HR :0.88992: L2-HR :0.77169: (Sim:0h32m55s) 
CPU  0 inst:  109000000 cyc:   72935782 now IPC :1.50216: AVG IPC :1.48709: L2-Pf-HR :0.89020: L2-HR :0.77169: (Sim:0h33m14s) 
CPU  0 inst:  110000001 cyc:   73668299 now IPC :1.36516: AVG IPC :1.48586: L2-Pf-HR :0.89010: L2-HR :0.77191: (Sim:0h33m33s) 
CPU  0 inst:  111000004 cyc:   74342276 now IPC :1.48373: AVG IPC :1.48584: L2-Pf-HR :0.89028: L2-HR :0.77217: (Sim:0h33m51s) 
CPU  0 inst:  112000001 cyc:   74979251 now IPC :1.56992: AVG IPC :1.48657: L2-Pf-HR :0.89032: L2-HR :0.77267: (Sim:0h34m9s) 
CPU  0 inst:  113000000 cyc:   75621345 now IPC :1.55740: AVG IPC :1.48718: L2-Pf-HR :0.89026: L2-HR :0.77318: (Sim:0h34m27s) 
CPU  0 inst:  114000002 cyc:   76376448 now IPC :1.32433: AVG IPC :1.48555: L2-Pf-HR :0.88944: L2-HR :0.77282: (Sim:0h34m47s) 
CPU  0 inst:  115000003 cyc:   77044340 now IPC :1.49725: AVG IPC :1.48565: L2-Pf-HR :0.88936: L2-HR :0.77280: (Sim:0h35m5s) 
CPU  0 inst:  116000002 cyc:   77723143 now IPC :1.47318: AVG IPC :1.48554: L2-Pf-HR :0.88920: L2-HR :0.77268: (Sim:0h35m23s) 
CPU  0 inst:  117000000 cyc:   78370916 now IPC :1.54375: AVG IPC :1.48603: L2-Pf-HR :0.88885: L2-HR :0.77249: (Sim:0h35m42s) 
CPU  0 inst:  118000000 cyc:   79046744 now IPC :1.47967: AVG IPC :1.48597: L2-Pf-HR :0.88885: L2-HR :0.77248: (Sim:0h36m1s) 
CPU  0 inst:  119000005 cyc:   79708562 now IPC :1.51100: AVG IPC :1.48618: L2-Pf-HR :0.88866: L2-HR :0.77243: (Sim:0h36m19s) 
CPU  0 inst:  120000003 cyc:   80469023 now IPC :1.31499: AVG IPC :1.48454: L2-Pf-HR :0.88858: L2-HR :0.77229: (Sim:0h36m38s) 
CPU  0 inst:  121000005 cyc:   81132523 now IPC :1.50716: AVG IPC :1.48473: L2-Pf-HR :0.88887: L2-HR :0.77220: (Sim:0h36m57s) 
CPU  0 inst:  122000002 cyc:   81794211 now IPC :1.51128: AVG IPC :1.48495: L2-Pf-HR :0.88914: L2-HR :0.77211: (Sim:0h37m15s) 
CPU  0 inst:  123000000 cyc:   82429404 now IPC :1.57432: AVG IPC :1.48564: L2-Pf-HR :0.88928: L2-HR :0.77193: (Sim:0h37m34s) 
CPU  0 inst:  124000002 cyc:   83090879 now IPC :1.51178: AVG IPC :1.48586: L2-Pf-HR :0.88959: L2-HR :0.77186: (Sim:0h37m52s) 
CPU  0 inst:  125000002 cyc:   83738435 now IPC :1.54427: AVG IPC :1.48631: L2-Pf-HR :0.88981: L2-HR :0.77180: (Sim:0h38m10s) 
CPU  0 inst:  126000005 cyc:   84476231 now IPC :1.35539: AVG IPC :1.48516: L2-Pf-HR :0.88977: L2-HR :0.77196: (Sim:0h38m29s) 
CPU  0 inst:  127000005 cyc:   85149277 now IPC :1.48578: AVG IPC :1.48516: L2-Pf-HR :0.89003: L2-HR :0.77226: (Sim:0h38m47s) 
CPU  0 inst:  128000000 cyc:   85777714 now IPC :1.59124: AVG IPC :1.48595: L2-Pf-HR :0.88991: L2-HR :0.77263: (Sim:0h39m5s) 
CPU  0 inst:  129000003 cyc:   86425751 now IPC :1.54313: AVG IPC :1.48638: L2-Pf-HR :0.88988: L2-HR :0.77298: (Sim:0h39m24s) 
CPU  0 inst:  130000000 cyc:   87166604 now IPC :1.34979: AVG IPC :1.48521: L2-Pf-HR :0.88926: L2-HR :0.77280: (Sim:0h39m43s) 
CPU  0 inst:  131000003 cyc:   87832563 now IPC :1.50160: AVG IPC :1.48533: L2-Pf-HR :0.88912: L2-HR :0.77273: (Sim:0h40m1s) 
CPU  0 inst:  132000005 cyc:   88495605 now IPC :1.50820: AVG IPC :1.48551: L2-Pf-HR :0.88901: L2-HR :0.77268: (Sim:0h40m20s) 
CPU  0 inst:  133000001 cyc:   89126785 now IPC :1.58433: AVG IPC :1.48621: L2-Pf-HR :0.88867: L2-HR :0.77256: (Sim:0h40m38s) 
CPU  0 inst:  134000000 cyc:   89798065 now IPC :1.48969: AVG IPC :1.48624: L2-Pf-HR :0.88849: L2-HR :0.77246: (Sim:0h40m57s) 
CPU  0 inst:  135000002 cyc:   90464826 now IPC :1.49979: AVG IPC :1.48634: L2-Pf-HR :0.88831: L2-HR :0.77240: (Sim:0h41m16s) 
CPU  0 inst:  136000003 cyc:   91217061 now IPC :1.32937: AVG IPC :1.48503: L2-Pf-HR :0.88823: L2-HR :0.77234: (Sim:0h41m35s) 
CPU  0 inst:  137000005 cyc:   91891238 now IPC :1.48329: AVG IPC :1.48502: L2-Pf-HR :0.88849: L2-HR :0.77226: (Sim:0h41m53s) 
CPU  0 inst:  138000001 cyc:   92565805 now IPC :1.48243: AVG IPC :1.48500: L2-Pf-HR :0.88875: L2-HR :0.77219: (Sim:0h42m12s) 
CPU  0 inst:  139000000 cyc:   93210568 now IPC :1.55096: AVG IPC :1.48546: L2-Pf-HR :0.88886: L2-HR :0.77203: (Sim:0h42m30s) 
CPU  0 inst:  140000003 cyc:   93885393 now IPC :1.48187: AVG IPC :1.48543: L2-Pf-HR :0.88914: L2-HR :0.77197: (Sim:0h42m48s) 
CPU  0 inst:  141000005 cyc:   94559659 now IPC :1.48310: AVG IPC :1.48542: L2-Pf-HR :0.88934: L2-HR :0.77188: (Sim:0h43m7s) 
CPU  0 inst:  142000003 cyc:   95279679 now IPC :1.38885: AVG IPC :1.48468: L2-Pf-HR :0.88933: L2-HR :0.77203: (Sim:0h43m26s) 
CPU  0 inst:  143000000 cyc:   95952161 now IPC :1.48702: AVG IPC :1.48470: L2-Pf-HR :0.88954: L2-HR :0.77230: (Sim:0h43m44s) 
CPU  0 inst:  144000003 cyc:   96592576 now IPC :1.56149: AVG IPC :1.48521: L2-Pf-HR :0.88952: L2-HR :0.77259: (Sim:0h44m2s) 
CPU  0 inst:  145000004 cyc:   97248904 now IPC :1.52363: AVG IPC :1.48547: L2-Pf-HR :0.88957: L2-HR :0.77290: (Sim:0h44m21s) 
CPU  0 inst:  146000003 cyc:   97990733 now IPC :1.34802: AVG IPC :1.48442: L2-Pf-HR :0.88903: L2-HR :0.77281: (Sim:0h44m40s) 
CPU  0 inst:  147000000 cyc:   98662911 now IPC :1.48770: AVG IPC :1.48444: L2-Pf-HR :0.88889: L2-HR :0.77275: (Sim:0h44m58s) 
CPU  0 inst:  148000003 cyc:   99342520 now IPC :1.47144: AVG IPC :1.48435: L2-Pf-HR :0.88881: L2-HR :0.77271: (Sim:0h45m17s) 
CPU  0 inst:  149000000 cyc:   99978249 now IPC :1.57299: AVG IPC :1.48492: L2-Pf-HR :0.88847: L2-HR :0.77258: (Sim:0h45m35s) 
CPU  0 inst:  150000003 cyc:  100654229 now IPC :1.47934: AVG IPC :1.48489: L2-Pf-HR :0.88841: L2-HR :0.77256: (Sim:0h45m54s) 
CPU  0 inst:  151000005 cyc:  101335463 now IPC :1.46793: AVG IPC :1.48477: L2-Pf-HR :0.88829: L2-HR :0.77247: (Sim:0h46m13s) 
CPU  0 inst:  152000005 cyc:  102090875 now IPC :1.32378: AVG IPC :1.48357: L2-Pf-HR :0.88809: L2-HR :0.77240: (Sim:0h46m31s) 
CPU  0 inst:  153000000 cyc:  102770067 now IPC :1.47233: AVG IPC :1.48349: L2-Pf-HR :0.88833: L2-HR :0.77233: (Sim:0h46m50s) 
CPU  0 inst:  154000005 cyc:  103446612 now IPC :1.47811: AVG IPC :1.48346: L2-Pf-HR :0.88857: L2-HR :0.77227: (Sim:0h47m9s) 
CPU  0 inst:  155000003 cyc:  104094311 now IPC :1.54392: AVG IPC :1.48384: L2-Pf-HR :0.88866: L2-HR :0.77212: (Sim:0h47m27s) 
CPU  0 inst:  156000004 cyc:  104769259 now IPC :1.48160: AVG IPC :1.48382: L2-Pf-HR :0.88888: L2-HR :0.77205: (Sim:0h47m46s) 
CPU  0 inst:  157000001 cyc:  105445917 now IPC :1.47785: AVG IPC :1.48378: L2-Pf-HR :0.88913: L2-HR :0.77200: (Sim:0h48m4s) 
CPU  0 inst:  158000000 cyc:  106173000 now IPC :1.37536: AVG IPC :1.48303: L2-Pf-HR :0.88905: L2-HR :0.77206: (Sim:0h48m23s) 
CPU  0 inst:  159000003 cyc:  106851979 now IPC :1.47280: AVG IPC :1.48297: L2-Pf-HR :0.88924: L2-HR :0.77228: (Sim:0h48m41s) 
CPU  0 inst:  160000002 cyc:  107496877 now IPC :1.55063: AVG IPC :1.48338: L2-Pf-HR :0.88919: L2-HR :0.77253: (Sim:0h49m0s) 
CPU  0 inst:  161000002 cyc:  108141854 now IPC :1.55044: AVG IPC :1.48378: L2-Pf-HR :0.88909: L2-HR :0.77286: (Sim:0h49m17s) 
CPU  0 inst:  162000000 cyc:  108885056 now IPC :1.34553: AVG IPC :1.48283: L2-Pf-HR :0.88868: L2-HR :0.77282: (Sim:0h49m37s) 
CPU  0 inst:  163000004 cyc:  109550982 now IPC :1.50167: AVG IPC :1.48295: L2-Pf-HR :0.88871: L2-HR :0.77285: (Sim:0h49m55s) 
CPU  0 inst:  164000004 cyc:  110199004 now IPC :1.54316: AVG IPC :1.48330: L2-Pf-HR :0.88871: L2-HR :0.77289: (Sim:0h50m14s) 
CPU  0 inst:  165000003 cyc:  110840311 now IPC :1.55931: AVG IPC :1.48375: L2-Pf-HR :0.88859: L2-HR :0.77275: (Sim:0h50m32s) 
CPU  0 inst:  166000005 cyc:  111508754 now IPC :1.49602: AVG IPC :1.48382: L2-Pf-HR :0.88856: L2-HR :0.77262: (Sim:0h50m51s) 
CPU  0 inst:  167000003 cyc:  112162130 now IPC :1.53051: AVG IPC :1.48410: L2-Pf-HR :0.88848: L2-HR :0.77260: (Sim:0h51m9s) 
CPU  0 inst:  168000004 cyc:  112914474 now IPC :1.32918: AVG IPC :1.48305: L2-Pf-HR :0.88824: L2-HR :0.77253: (Sim:0h51m28s) 
CPU  0 inst:  169000001 cyc:  113588778 now IPC :1.48301: AVG IPC :1.48305: L2-Pf-HR :0.88846: L2-HR :0.77248: (Sim:0h51m47s) 
CPU  0 inst:  170000001 cyc:  114263669 now IPC :1.48172: AVG IPC :1.48305: L2-Pf-HR :0.88869: L2-HR :0.77243: (Sim:0h52m5s) 
CPU  0 inst:  171000002 cyc:  114907315 now IPC :1.55365: AVG IPC :1.48344: L2-Pf-HR :0.88879: L2-HR :0.77231: (Sim:0h52m24s) 
CPU  0 inst:  172000003 cyc:  115580510 now IPC :1.48546: AVG IPC :1.48346: L2-Pf-HR :0.88901: L2-HR :0.77226: (Sim:0h52m42s) 
CPU  0 inst:  173000005 cyc:  116253963 now IPC :1.48489: AVG IPC :1.48347: L2-Pf-HR :0.88924: L2-HR :0.77222: (Sim:0h53m0s) 
CPU  0 inst:  174000001 cyc:  116975213 now IPC :1.38648: AVG IPC :1.48286: L2-Pf-HR :0.88920: L2-HR :0.77226: (Sim:0h53m19s) 
CPU  0 inst:  175000002 cyc:  117647167 now IPC :1.48820: AVG IPC :1.48289: L2-Pf-HR :0.88936: L2-HR :0.77243: (Sim:0h53m38s) 
CPU  0 inst:  176000001 cyc:  118286489 now IPC :1.56416: AVG IPC :1.48334: L2-Pf-HR :0.88937: L2-HR :0.77270: (Sim:0h53m56s) 
CPU  0 inst:  177000000 cyc:  118930100 now IPC :1.55373: AVG IPC :1.48372: L2-Pf-HR :0.88936: L2-HR :0.77299: (Sim:0h54m15s) 
CPU  0 inst:  178000003 cyc:  119662549 now IPC :1.36529: AVG IPC :1.48299: L2-Pf-HR :0.88902: L2-HR :0.77301: (Sim:0h54m33s) 
CPU  0 inst:  179000003 cyc:  120331297 now IPC :1.49533: AVG IPC :1.48306: L2-Pf-HR :0.88899: L2-HR :0.77297: (Sim:0h54m52s) 
CPU  0 inst:  180000004 cyc:  120993439 now IPC :1.51025: AVG IPC :1.48321: L2-Pf-HR :0.88885: L2-HR :0.77294: (Sim:0h55m11s) 
CPU  0 inst:  181000000 cyc:  121638755 now IPC :1.54962: AVG IPC :1.48356: L2-Pf-HR :0.88863: L2-HR :0.77280: (Sim:0h55m29s) 
CPU  0 inst:  182000004 cyc:  122314210 now IPC :1.48049: AVG IPC :1.48355: L2-Pf-HR :0.88857: L2-HR :0.77274: (Sim:0h55m48s) 
CPU  0 inst:  183000001 cyc:  122987720 now IPC :1.48475: AVG IPC :1.48355: L2-Pf-HR :0.88849: L2-HR :0.77268: (Sim:0h56m6s) 
CPU  0 inst:  184000005 cyc:  123751614 now IPC :1.30909: AVG IPC :1.48247: L2-Pf-HR :0.88828: L2-HR :0.77259: (Sim:0h56m26s) 
CPU  0 inst:  185000000 cyc:  124426312 now IPC :1.48214: AVG IPC :1.48247: L2-Pf-HR :0.88848: L2-HR :0.77254: (Sim:0h56m44s) 
CPU  0 inst:  186000003 cyc:  125098112 now IPC :1.48854: AVG IPC :1.48250: L2-Pf-HR :0.88867: L2-HR :0.77248: (Sim:0h57m2s) 
CPU  0 inst:  187000000 cyc:  125742004 now IPC :1.55305: AVG IPC :1.48286: L2-Pf-HR :0.88876: L2-HR :0.77237: (Sim:0h57m21s) 
CPU  0 inst:  188000003 cyc:  126413671 now IPC :1.48884: AVG IPC :1.48289: L2-Pf-HR :0.88895: L2-HR :0.77231: (Sim:0h57m40s) 
CPU  0 inst:  189000001 cyc:  127084448 now IPC :1.49081: AVG IPC :1.48294: L2-Pf-HR :0.88915: L2-HR :0.77226: (Sim:0h57m58s) 
CPU  0 inst:  190000003 cyc:  127803214 now IPC :1.39128: AVG IPC :1.48242: L2-Pf-HR :0.88911: L2-HR :0.77224: (Sim:0h58m16s) 
CPU  0 inst:  191000000 cyc:  128460742 now IPC :1.52084: AVG IPC :1.48262: L2-Pf-HR :0.88927: L2-HR :0.77244: (Sim:0h58m35s) 
CPU  0 inst:  192000001 cyc:  129096472 now IPC :1.57300: AVG IPC :1.48306: L2-Pf-HR :0.88935: L2-HR :0.77267: (Sim:0h58m53s) 
CPU  0 inst:  193000000 cyc:  129724809 now IPC :1.59150: AVG IPC :1.48359: L2-Pf-HR :0.88927: L2-HR :0.77290: (Sim:0h59m11s) 
CPU  0 inst:  194000002 cyc:  130452125 now IPC :1.37492: AVG IPC :1.48298: L2-Pf-HR :0.88892: L2-HR :0.77296: (Sim:0h59m30s) 
CPU  0 inst:  195000004 cyc:  131121003 now IPC :1.49504: AVG IPC :1.48304: L2-Pf-HR :0.88883: L2-HR :0.77293: (Sim:0h59m49s) 
CPU  0 inst:  196000004 cyc:  131787375 now IPC :1.50066: AVG IPC :1.48313: L2-Pf-HR :0.88877: L2-HR :0.77290: (Sim:1h0m7s) 
CPU  0 inst:  197000003 cyc:  132431668 now IPC :1.55209: AVG IPC :1.48347: L2-Pf-HR :0.88860: L2-HR :0.77279: (Sim:1h0m26s) 
CPU  0 inst:  198000001 cyc:  133107754 now IPC :1.47910: AVG IPC :1.48345: L2-Pf-HR :0.88858: L2-HR :0.77270: (Sim:1h0m45s) 
CPU  0 inst:  199000004 cyc:  133776033 now IPC :1.49639: AVG IPC :1.48351: L2-Pf-HR :0.88852: L2-HR :0.77265: (Sim:1h1m3s) 
CPU  0 inst:  200000000 cyc:  134530076 now IPC :1.32618: AVG IPC :1.48263: L2-Pf-HR :0.88823: L2-HR :0.77257: (Sim:1h1m22s) 
CPU  0 inst:  201000001 cyc:  135211852 now IPC :1.46676: AVG IPC :1.48255: L2-Pf-HR :0.88842: L2-HR :0.77252: (Sim:1h1m41s) 
CPU  0 inst:  202000004 cyc:  135892234 now IPC :1.46977: AVG IPC :1.48248: L2-Pf-HR :0.88860: L2-HR :0.77248: (Sim:1h1m59s) 
CPU  0 inst:  203000004 cyc:  136540770 now IPC :1.54193: AVG IPC :1.48277: L2-Pf-HR :0.88867: L2-HR :0.77237: (Sim:1h2m18s) 
CPU  0 inst:  204000001 cyc:  137219311 now IPC :1.47375: AVG IPC :1.48272: L2-Pf-HR :0.88885: L2-HR :0.77232: (Sim:1h2m36s) 
CPU  0 inst:  205000004 cyc:  137897821 now IPC :1.47382: AVG IPC :1.48268: L2-Pf-HR :0.88902: L2-HR :0.77226: (Sim:1h2m55s) 
CPU  0 inst:  206000004 cyc:  138622868 now IPC :1.37922: AVG IPC :1.48213: L2-Pf-HR :0.88899: L2-HR :0.77223: (Sim:1h3m13s) 
CPU  0 inst:  207000005 cyc:  139286403 now IPC :1.50708: AVG IPC :1.48225: L2-Pf-HR :0.88913: L2-HR :0.77241: (Sim:1h3m32s) 
CPU  0 inst:  208000002 cyc:  139930535 now IPC :1.55247: AVG IPC :1.48258: L2-Pf-HR :0.88918: L2-HR :0.77257: (Sim:1h3m49s) 
CPU  0 inst:  209000001 cyc:  140566140 now IPC :1.57330: AVG IPC :1.48299: L2-Pf-HR :0.88913: L2-HR :0.77282: (Sim:1h3m58s) 
CPU  0 inst:  210000002 cyc:  141290879 now IPC :1.37981: AVG IPC :1.48246: L2-Pf-HR :0.88877: L2-HR :0.77288: (Sim:1h4m6s) 
CPU  0 inst:  211000001 cyc:  141967813 now IPC :1.47725: AVG IPC :1.48243: L2-Pf-HR :0.88876: L2-HR :0.77285: (Sim:1h4m14s) 
CPU  0 inst:  212000005 cyc:  142634918 now IPC :1.49902: AVG IPC :1.48251: L2-Pf-HR :0.88870: L2-HR :0.77282: (Sim:1h4m23s) 
CPU  0 inst:  213000001 cyc:  143274755 now IPC :1.56289: AVG IPC :1.48287: L2-Pf-HR :0.88845: L2-HR :0.77271: (Sim:1h4m31s) 
CPU  0 inst:  214000004 cyc:  143935309 now IPC :1.51389: AVG IPC :1.48302: L2-Pf-HR :0.88842: L2-HR :0.77268: (Sim:1h4m40s) 
CPU  0 inst:  215000004 cyc:  144603018 now IPC :1.49766: AVG IPC :1.48308: L2-Pf-HR :0.88831: L2-HR :0.77261: (Sim:1h4m48s) 
CPU  0 inst:  216000001 cyc:  145313208 now IPC :1.40807: AVG IPC :1.48271: L2-Pf-HR :0.88817: L2-HR :0.77259: (Sim:1h4m57s) 
CPU  0 inst:  217000001 cyc:  146033450 now IPC :1.38842: AVG IPC :1.48225: L2-Pf-HR :0.88825: L2-HR :0.77251: (Sim:1h5m6s) 
CPU  0 inst:  218000005 cyc:  146707132 now IPC :1.48439: AVG IPC :1.48226: L2-Pf-HR :0.88841: L2-HR :0.77247: (Sim:1h5m14s) 
CPU  0 inst:  219000001 cyc:  147368865 now IPC :1.51118: AVG IPC :1.48239: L2-Pf-HR :0.88848: L2-HR :0.77237: (Sim:1h5m23s) 
CPU  0 inst:  220000001 cyc:  148024901 now IPC :1.52431: AVG IPC :1.48257: L2-Pf-HR :0.88866: L2-HR :0.77232: (Sim:1h5m31s) 
CPU  0 inst:  221000003 cyc:  148696287 now IPC :1.48946: AVG IPC :1.48260: L2-Pf-HR :0.88880: L2-HR :0.77228: (Sim:1h5m39s) 
CPU  0 inst:  222000005 cyc:  149380564 now IPC :1.46140: AVG IPC :1.48251: L2-Pf-HR :0.88885: L2-HR :0.77226: (Sim:1h5m48s) 
CPU  0 inst:  223000000 cyc:  150089086 now IPC :1.41138: AVG IPC :1.48217: L2-Pf-HR :0.88892: L2-HR :0.77238: (Sim:1h5m56s) 
CPU  0 inst:  224000000 cyc:  150754296 now IPC :1.50328: AVG IPC :1.48226: L2-Pf-HR :0.88901: L2-HR :0.77256: (Sim:1h6m5s) 
CPU  0 inst:  225000005 cyc:  151396607 now IPC :1.55689: AVG IPC :1.48258: L2-Pf-HR :0.88904: L2-HR :0.77279: (Sim:1h6m13s) 
CPU  0 inst:  226000002 cyc:  152046443 now IPC :1.53885: AVG IPC :1.48282: L2-Pf-HR :0.88896: L2-HR :0.77302: (Sim:1h6m21s) 
CPU  0 inst:  227000001 cyc:  152803810 now IPC :1.32036: AVG IPC :1.48201: L2-Pf-HR :0.88866: L2-HR :0.77290: (Sim:1h6m30s) 
CPU  0 inst:  228000002 cyc:  153480347 now IPC :1.47812: AVG IPC :1.48200: L2-Pf-HR :0.88868: L2-HR :0.77295: (Sim:1h6m38s) 
CPU  0 inst:  229000002 cyc:  154165466 now IPC :1.45960: AVG IPC :1.48190: L2-Pf-HR :0.88861: L2-HR :0.77292: (Sim:1h6m47s) 
CPU  0 inst:  230000002 cyc:  154818493 now IPC :1.53133: AVG IPC :1.48211: L2-Pf-HR :0.88854: L2-HR :0.77284: (Sim:1h6m55s) 
CPU  0 inst:  231000002 cyc:  155507832 now IPC :1.45067: AVG IPC :1.48197: L2-Pf-HR :0.88854: L2-HR :0.77280: (Sim:1h7m4s) 
CPU  0 inst:  232000003 cyc:  156186241 now IPC :1.47404: AVG IPC :1.48193: L2-Pf-HR :0.88848: L2-HR :0.77274: (Sim:1h7m12s) 
CPU  0 inst:  233000003 cyc:  156956896 now IPC :1.29760: AVG IPC :1.48102: L2-Pf-HR :0.88844: L2-HR :0.77267: (Sim:1h7m21s) 
CPU  0 inst:  234000003 cyc:  157634428 now IPC :1.47594: AVG IPC :1.48100: L2-Pf-HR :0.88860: L2-HR :0.77263: (Sim:1h7m30s) 
CPU  0 inst:  235000003 cyc:  158311167 now IPC :1.47767: AVG IPC :1.48098: L2-Pf-HR :0.88871: L2-HR :0.77257: (Sim:1h7m43s) 
CPU  0 inst:  236000000 cyc:  158957257 now IPC :1.54777: AVG IPC :1.48126: L2-Pf-HR :0.88881: L2-HR :0.77249: (Sim:1h8m1s) 
CPU  0 inst:  237000000 cyc:  159634142 now IPC :1.47736: AVG IPC :1.48124: L2-Pf-HR :0.88896: L2-HR :0.77244: (Sim:1h8m19s) 
CPU  0 inst:  238000000 cyc:  160293507 now IPC :1.51661: AVG IPC :1.48139: L2-Pf-HR :0.88906: L2-HR :0.77240: (Sim:1h8m32s) 
CPU  0 inst:  239000001 cyc:  161024643 now IPC :1.36774: AVG IPC :1.48087: L2-Pf-HR :0.88906: L2-HR :0.77250: (Sim:1h8m41s) 
CPU  0 inst:  240000000 cyc:  161689532 now IPC :1.50401: AVG IPC :1.48096: L2-Pf-HR :0.88920: L2-HR :0.77266: (Sim:1h8m49s) 
CPU  0 inst:  241000003 cyc:  162315270 now IPC :1.59812: AVG IPC :1.48142: L2-Pf-HR :0.88914: L2-HR :0.77284: (Sim:1h8m57s) 
CPU  0 inst:  242000000 cyc:  162947449 now IPC :1.58183: AVG IPC :1.48181: L2-Pf-HR :0.88911: L2-HR :0.77307: (Sim:1h9m5s) 
CPU  0 inst:  243000005 cyc:  163707759 now IPC :1.31526: AVG IPC :1.48103: L2-Pf-HR :0.88884: L2-HR :0.77296: (Sim:1h9m14s) 
CPU  0 inst:  244000004 cyc:  164388807 now IPC :1.46832: AVG IPC :1.48098: L2-Pf-HR :0.88884: L2-HR :0.77293: (Sim:1h9m22s) 
CPU  0 inst:  245000003 cyc:  165054502 now IPC :1.50219: AVG IPC :1.48106: L2-Pf-HR :0.88876: L2-HR :0.77289: (Sim:1h9m31s) 
CPU  0 inst:  246000003 cyc:  165711125 now IPC :1.52294: AVG IPC :1.48123: L2-Pf-HR :0.88864: L2-HR :0.77278: (Sim:1h9m39s) 
CPU  0 inst:  247000000 cyc:  166385149 now IPC :1.48362: AVG IPC :1.48124: L2-Pf-HR :0.88853: L2-HR :0.77274: (Sim:1h9m50s) 
CPU  0 inst:  248000005 cyc:  167051703 now IPC :1.50026: AVG IPC :1.48132: L2-Pf-HR :0.88843: L2-HR :0.77271: (Sim:1h10m8s) 
CPU  0 inst:  249000004 cyc:  167812541 now IPC :1.31434: AVG IPC :1.48056: L2-Pf-HR :0.88840: L2-HR :0.77268: (Sim:1h10m27s) 
CPU  0 inst:  250000001 cyc:  168485443 now IPC :1.48610: AVG IPC :1.48058: L2-Pf-HR :0.88855: L2-HR :0.77264: (Sim:1h10m45s) 
CPU  0 inst:  251000001 cyc:  169157809 now IPC :1.48729: AVG IPC :1.48060: L2-Pf-HR :0.88869: L2-HR :0.77260: (Sim:1h11m3s) 
CPU  0 inst:  252000001 cyc:  169801215 now IPC :1.55423: AVG IPC :1.48089: L2-Pf-HR :0.88875: L2-HR :0.77251: (Sim:1h11m21s) 
CPU  0 inst:  253000002 cyc:  170472906 now IPC :1.48878: AVG IPC :1.48092: L2-Pf-HR :0.88889: L2-HR :0.77247: (Sim:1h11m39s) 
CPU  0 inst:  254000001 cyc:  171144462 now IPC :1.48908: AVG IPC :1.48095: L2-Pf-HR :0.88898: L2-HR :0.77241: (Sim:1h11m57s) 
CPU  0 inst:  255000001 cyc:  171864538 now IPC :1.38874: AVG IPC :1.48056: L2-Pf-HR :0.88900: L2-HR :0.77251: (Sim:1h12m14s) 
CPU  0 inst:  256000001 cyc:  172538417 now IPC :1.48395: AVG IPC :1.48057: L2-Pf-HR :0.88914: L2-HR :0.77265: (Sim:1h12m22s) 
CPU  0 inst:  257000001 cyc:  173181358 now IPC :1.55535: AVG IPC :1.48085: L2-Pf-HR :0.88914: L2-HR :0.77282: (Sim:1h12m30s) 
CPU  0 inst:  258000005 cyc:  173822362 now IPC :1.56006: AVG IPC :1.48115: L2-Pf-HR :0.88911: L2-HR :0.77302: (Sim:1h12m39s) 
CPU  0 inst:  259000003 cyc:  177864550 now IPC :0.24739: AVG IPC :1.45295: L2-Pf-HR :0.88433: L2-HR :0.76778: (Sim:1h12m57s) 
CPU  0 inst:  260000005 cyc:  183292116 now IPC :0.18425: AVG IPC :1.41518: L2-Pf-HR :0.87729: L2-HR :0.76078: (Sim:1h13m21s) 
CPU  0 inst:  261000001 cyc:  188716117 now IPC :0.18437: AVG IPC :1.37962: L2-Pf-HR :0.87040: L2-HR :0.75419: (Sim:1h14m11s) 
CPU  0 inst:  262000003 cyc:  194139128 now IPC :0.18440: AVG IPC :1.34606: L2-Pf-HR :0.86369: L2-HR :0.74799: (Sim:1h15m1s) 
CPU  0 inst:  263000000 cyc:  199562304 now IPC :0.18439: AVG IPC :1.31434: L2-Pf-HR :0.85713: L2-HR :0.74214: (Sim:1h15m51s) 
CPU  0 inst:  264000004 cyc:  204988276 now IPC :0.18430: AVG IPC :1.28428: L2-Pf-HR :0.85073: L2-HR :0.73661: (Sim:1h16m41s) 
CPU  0 inst:  265000003 cyc:  210416360 now IPC :0.18423: AVG IPC :1.25577: L2-Pf-HR :0.84448: L2-HR :0.73137: (Sim:1h17m31s) 
CPU  0 inst:  266000004 cyc:  215841959 now IPC :0.18431: AVG IPC :1.22871: L2-Pf-HR :0.83837: L2-HR :0.72641: (Sim:1h18m21s) 
CPU  0 inst:  267000001 cyc:  221267856 now IPC :0.18430: AVG IPC :1.20299: L2-Pf-HR :0.83239: L2-HR :0.72170: (Sim:1h19m11s) 
CPU  0 inst:  268000000 cyc:  226341672 now IPC :0.19709: AVG IPC :1.18034: L2-Pf-HR :0.82764: L2-HR :0.71803: (Sim:1h19m57s) 
CPU  0 inst:  269000000 cyc:  230071369 now IPC :0.26812: AVG IPC :1.16549: L2-Pf-HR :0.82578: L2-HR :0.71705: (Sim:1h20m34s) 
CPU  0 inst:  270000000 cyc:  233801164 now IPC :0.26811: AVG IPC :1.15111: L2-Pf-HR :0.82392: L2-HR :0.71608: (Sim:1h21m10s) 
CPU  0 inst:  271000000 cyc:  237530315 now IPC :0.26816: AVG IPC :1.13719: L2-Pf-HR :0.82208: L2-HR :0.71511: (Sim:1h21m46s) 
CPU  0 inst:  272000004 cyc:  241257311 now IPC :0.26831: AVG IPC :1.12372: L2-Pf-HR :0.82023: L2-HR :0.71415: (Sim:1h22m21s) 
CPU  0 inst:  273000000 cyc:  244985038 now IPC :0.26826: AVG IPC :1.11065: L2-Pf-HR :0.81840: L2-HR :0.71319: (Sim:1h22m57s) 
CPU  0 inst:  274000002 cyc:  248714334 now IPC :0.26815: AVG IPC :1.09797: L2-Pf-HR :0.81659: L2-HR :0.71224: (Sim:1h23m33s) 
CPU  0 inst:  275000001 cyc:  252444784 now IPC :0.26806: AVG IPC :1.08565: L2-Pf-HR :0.81477: L2-HR :0.71130: (Sim:1h24m9s) 
CPU  0 inst:  276000004 cyc:  256172132 now IPC :0.26829: AVG IPC :1.07371: L2-Pf-HR :0.81296: L2-HR :0.71036: (Sim:1h24m44s) 
CPU  0 inst:  277000000 cyc:  259900196 now IPC :0.26823: AVG IPC :1.06212: L2-Pf-HR :0.81116: L2-HR :0.70942: (Sim:1h25m20s) 
CPU  0 inst:  278000000 cyc:  263626984 now IPC :0.26833: AVG IPC :1.05085: L2-Pf-HR :0.80937: L2-HR :0.70848: (Sim:1h25m56s) 
CPU  0 inst:  279000000 cyc:  267355074 now IPC :0.26823: AVG IPC :1.03990: L2-Pf-HR :0.80758: L2-HR :0.70756: (Sim:1h26m31s) 
CPU  0 inst:  280000000 cyc:  271082318 now IPC :0.26829: AVG IPC :1.02925: L2-Pf-HR :0.80580: L2-HR :0.70663: (Sim:1h27m7s) 
CPU  0 inst:  281000002 cyc:  274810764 now IPC :0.26821: AVG IPC :1.01889: L2-Pf-HR :0.80404: L2-HR :0.70571: (Sim:1h27m43s) 
CPU  0 inst:  282000000 cyc:  278541839 now IPC :0.26802: AVG IPC :1.00880: L2-Pf-HR :0.80228: L2-HR :0.70480: (Sim:1h28m18s) 
CPU  0 inst:  283000000 cyc:  282270006 now IPC :0.26823: AVG IPC :0.99898: L2-Pf-HR :0.80053: L2-HR :0.70389: (Sim:1h28m56s) 
CPU  0 inst:  284000000 cyc:  285996397 now IPC :0.26836: AVG IPC :0.98943: L2-Pf-HR :0.79879: L2-HR :0.70299: (Sim:1h29m33s) 
CPU  0 inst:  285000000 cyc:  289722919 now IPC :0.26835: AVG IPC :0.98012: L2-Pf-HR :0.79705: L2-HR :0.70209: (Sim:1h30m11s) 
CPU  0 inst:  286000000 cyc:  293450153 now IPC :0.26830: AVG IPC :0.97105: L2-Pf-HR :0.79531: L2-HR :0.70119: (Sim:1h30m49s) 
CPU  0 inst:  287000000 cyc:  297177934 now IPC :0.26826: AVG IPC :0.96221: L2-Pf-HR :0.79359: L2-HR :0.70030: (Sim:1h31m26s) 
CPU  0 inst:  288000000 cyc:  300905512 now IPC :0.26827: AVG IPC :0.95358: L2-Pf-HR :0.79188: L2-HR :0.69941: (Sim:1h32m4s) 
CPU  0 inst:  289000001 cyc:  304633958 now IPC :0.26821: AVG IPC :0.94517: L2-Pf-HR :0.79017: L2-HR :0.69853: (Sim:1h32m41s) 
CPU  0 inst:  290000001 cyc:  308365318 now IPC :0.26800: AVG IPC :0.93694: L2-Pf-HR :0.78847: L2-HR :0.69765: (Sim:1h33m19s) 
CPU  0 inst:  291000000 cyc:  312092750 now IPC :0.26828: AVG IPC :0.92893: L2-Pf-HR :0.78678: L2-HR :0.69677: (Sim:1h33m57s) 
CPU  0 inst:  292000000 cyc:  315820650 now IPC :0.26825: AVG IPC :0.92111: L2-Pf-HR :0.78509: L2-HR :0.69590: (Sim:1h34m35s) 
CPU  0 inst:  293000004 cyc:  319548021 now IPC :0.26829: AVG IPC :0.91347: L2-Pf-HR :0.78341: L2-HR :0.69503: (Sim:1h35m13s) 
CPU  0 inst:  294000000 cyc:  323275789 now IPC :0.26826: AVG IPC :0.90601: L2-Pf-HR :0.78173: L2-HR :0.69417: (Sim:1h35m50s) 
CPU  0 inst:  295000000 cyc:  327001908 now IPC :0.26838: AVG IPC :0.89872: L2-Pf-HR :0.78007: L2-HR :0.69331: (Sim:1h36m28s) 
CPU  0 inst:  296000001 cyc:  330729347 now IPC :0.26828: AVG IPC :0.89160: L2-Pf-HR :0.77841: L2-HR :0.69246: (Sim:1h37m6s) 
CPU  0 inst:  297000001 cyc:  334458820 now IPC :0.26813: AVG IPC :0.88462: L2-Pf-HR :0.77677: L2-HR :0.69161: (Sim:1h37m43s) 
CPU  0 inst:  298000000 cyc:  338186564 now IPC :0.26826: AVG IPC :0.87781: L2-Pf-HR :0.77512: L2-HR :0.69076: (Sim:1h38m21s) 
CPU  0 inst:  299000000 cyc:  341913612 now IPC :0.26831: AVG IPC :0.87115: L2-Pf-HR :0.77349: L2-HR :0.68992: (Sim:1h38m58s) 
CPU  0 inst:  300000000 cyc:  345640890 now IPC :0.26829: AVG IPC :0.86463: L2-Pf-HR :0.77186: L2-HR :0.68908: (Sim:1h39m36s) 
CPU  0 inst:  301000000 cyc:  349368297 now IPC :0.26828: AVG IPC :0.85825: L2-Pf-HR :0.77023: L2-HR :0.68824: (Sim:1h40m13s) 
CPU  0 inst:  302000000 cyc:  353095782 now IPC :0.26828: AVG IPC :0.85200: L2-Pf-HR :0.76862: L2-HR :0.68741: (Sim:1h40m51s) 
CPU  0 inst:  303000000 cyc:  356823003 now IPC :0.26830: AVG IPC :0.84589: L2-Pf-HR :0.76700: L2-HR :0.68658: (Sim:1h41m28s) 
CPU  0 inst:  304000001 cyc:  360551087 now IPC :0.26823: AVG IPC :0.83990: L2-Pf-HR :0.76541: L2-HR :0.68576: (Sim:1h42m6s) 
CPU  0 inst:  305000005 cyc:  364281511 now IPC :0.26807: AVG IPC :0.83403: L2-Pf-HR :0.76381: L2-HR :0.68494: (Sim:1h42m43s) 
CPU  0 inst:  306000000 cyc:  368009159 now IPC :0.26826: AVG IPC :0.82828: L2-Pf-HR :0.76223: L2-HR :0.68413: (Sim:1h43m21s) 
CPU  0 inst:  307000000 cyc:  371735594 now IPC :0.26835: AVG IPC :0.82265: L2-Pf-HR :0.76064: L2-HR :0.68332: (Sim:1h43m58s) 
CPU  0 inst:  308000000 cyc:  375462723 now IPC :0.26830: AVG IPC :0.81713: L2-Pf-HR :0.75906: L2-HR :0.68251: (Sim:1h44m34s) 
CPU  0 inst:  309000000 cyc:  379189724 now IPC :0.26831: AVG IPC :0.81173: L2-Pf-HR :0.75749: L2-HR :0.68171: (Sim:1h45m9s) 
CPU  0 inst:  310000004 cyc:  382916771 now IPC :0.26831: AVG IPC :0.80642: L2-Pf-HR :0.75593: L2-HR :0.68091: (Sim:1h45m45s) 
CPU  0 inst:  311000000 cyc:  386645407 now IPC :0.26819: AVG IPC :0.80122: L2-Pf-HR :0.75438: L2-HR :0.68011: (Sim:1h46m21s) 
CPU  0 inst:  312000001 cyc:  390375386 now IPC :0.26810: AVG IPC :0.79611: L2-Pf-HR :0.75283: L2-HR :0.67932: (Sim:1h46m56s) 
CPU  0 inst:  313000000 cyc:  394101623 now IPC :0.26837: AVG IPC :0.79111: L2-Pf-HR :0.75129: L2-HR :0.67853: (Sim:1h47m32s) 
CPU  0 inst:  314000004 cyc:  397828701 now IPC :0.26831: AVG IPC :0.78620: L2-Pf-HR :0.74975: L2-HR :0.67774: (Sim:1h48m7s) 
CPU  0 inst:  315000000 cyc:  401555918 now IPC :0.26830: AVG IPC :0.78138: L2-Pf-HR :0.74822: L2-HR :0.67696: (Sim:1h48m43s) 
CPU  0 inst:  316000000 cyc:  405282856 now IPC :0.26832: AVG IPC :0.77665: L2-Pf-HR :0.74669: L2-HR :0.67618: (Sim:1h49m18s) 
CPU  0 inst:  317000000 cyc:  409010878 now IPC :0.26824: AVG IPC :0.77201: L2-Pf-HR :0.74518: L2-HR :0.67540: (Sim:1h49m54s) 
CPU  0 inst:  318000005 cyc:  412738809 now IPC :0.26825: AVG IPC :0.76745: L2-Pf-HR :0.74366: L2-HR :0.67463: (Sim:1h50m30s) 
CPU  0 inst:  319000000 cyc:  416468512 now IPC :0.26812: AVG IPC :0.76296: L2-Pf-HR :0.74217: L2-HR :0.67387: (Sim:1h51m6s) 
CPU  0 inst:  320000000 cyc:  420197659 now IPC :0.26816: AVG IPC :0.75856: L2-Pf-HR :0.74067: L2-HR :0.67310: (Sim:1h51m41s) 
CPU  0 inst:  321000000 cyc:  423924263 now IPC :0.26834: AVG IPC :0.75424: L2-Pf-HR :0.73917: L2-HR :0.67234: (Sim:1h52m17s) 
CPU  0 inst:  322000000 cyc:  427651602 now IPC :0.26829: AVG IPC :0.75000: L2-Pf-HR :0.73768: L2-HR :0.67158: (Sim:1h52m40s) 
CPU  0 inst:  323000000 cyc:  431378178 now IPC :0.26834: AVG IPC :0.74583: L2-Pf-HR :0.73620: L2-HR :0.67083: (Sim:1h52m56s) 
CPU  0 inst:  324000000 cyc:  435105780 now IPC :0.26827: AVG IPC :0.74173: L2-Pf-HR :0.73472: L2-HR :0.67008: (Sim:1h53m12s) 
CPU  0 inst:  325000000 cyc:  438833270 now IPC :0.26828: AVG IPC :0.73770: L2-Pf-HR :0.73325: L2-HR :0.66933: (Sim:1h53m28s) 
CPU  0 inst:  326000002 cyc:  442561572 now IPC :0.26822: AVG IPC :0.73373: L2-Pf-HR :0.73179: L2-HR :0.66858: (Sim:1h53m44s) 
CPU  0 inst:  327000001 cyc:  446291688 now IPC :0.26809: AVG IPC :0.72983: L2-Pf-HR :0.73034: L2-HR :0.66784: (Sim:1h54m0s) 
CPU  0 inst:  328000000 cyc:  450020586 now IPC :0.26818: AVG IPC :0.72600: L2-Pf-HR :0.72888: L2-HR :0.66711: (Sim:1h54m16s) 
CPU  0 inst:  329000000 cyc:  453747403 now IPC :0.26833: AVG IPC :0.72223: L2-Pf-HR :0.72744: L2-HR :0.66637: (Sim:1h54m32s) 
CPU  0 inst:  330000000 cyc:  457474630 now IPC :0.26830: AVG IPC :0.71852: L2-Pf-HR :0.72599: L2-HR :0.66564: (Sim:1h54m48s) 
CPU  0 inst:  331000004 cyc:  461201482 now IPC :0.26832: AVG IPC :0.71488: L2-Pf-HR :0.72456: L2-HR :0.66491: (Sim:1h55m4s) 
CPU  0 inst:  332000000 cyc:  464928602 now IPC :0.26830: AVG IPC :0.71129: L2-Pf-HR :0.72313: L2-HR :0.66418: (Sim:1h55m20s) 
CPU  0 inst:  333000002 cyc:  468656489 now IPC :0.26825: AVG IPC :0.70776: L2-Pf-HR :0.72171: L2-HR :0.66346: (Sim:1h55m36s) 
CPU  0 inst:  334000000 cyc:  472385019 now IPC :0.26820: AVG IPC :0.70428: L2-Pf-HR :0.72029: L2-HR :0.66275: (Sim:1h55m52s) 
CPU  0 inst:  335000004 cyc:  476113972 now IPC :0.26817: AVG IPC :0.70086: L2-Pf-HR :0.71888: L2-HR :0.66203: (Sim:1h56m8s) 
CPU  0 inst:  336000000 cyc:  479842245 now IPC :0.26822: AVG IPC :0.69749: L2-Pf-HR :0.71747: L2-HR :0.66132: (Sim:1h56m25s) 
CPU  0 inst:  337000000 cyc:  483569120 now IPC :0.26832: AVG IPC :0.69418: L2-Pf-HR :0.71607: L2-HR :0.66061: (Sim:1h56m41s) 
CPU  0 inst:  338000000 cyc:  487296353 now IPC :0.26830: AVG IPC :0.69091: L2-Pf-HR :0.71467: L2-HR :0.65990: (Sim:1h56m57s) 
CPU  0 inst:  339000000 cyc:  491022625 now IPC :0.26836: AVG IPC :0.68770: L2-Pf-HR :0.71328: L2-HR :0.65920: (Sim:1h57m13s) 
CPU  0 inst:  340000000 cyc:  494749123 now IPC :0.26835: AVG IPC :0.68454: L2-Pf-HR :0.71189: L2-HR :0.65850: (Sim:1h57m29s) 
CPU  0 inst:  341000001 cyc:  498476820 now IPC :0.26826: AVG IPC :0.68142: L2-Pf-HR :0.71051: L2-HR :0.65780: (Sim:1h57m45s) 
CPU  0 inst:  342000001 cyc:  502207069 now IPC :0.26808: AVG IPC :0.67834: L2-Pf-HR :0.70914: L2-HR :0.65711: (Sim:1h58m1s) 
CPU  0 inst:  343000000 cyc:  505935020 now IPC :0.26824: AVG IPC :0.67531: L2-Pf-HR :0.70777: L2-HR :0.65642: (Sim:1h58m17s) 
CPU  0 inst:  344000000 cyc:  509663770 now IPC :0.26819: AVG IPC :0.67233: L2-Pf-HR :0.70641: L2-HR :0.65573: (Sim:1h58m33s) 
CPU  0 inst:  345000000 cyc:  513391064 now IPC :0.26829: AVG IPC :0.66939: L2-Pf-HR :0.70505: L2-HR :0.65504: (Sim:1h58m49s) 
CPU  0 inst:  346000000 cyc:  517118632 now IPC :0.26827: AVG IPC :0.66649: L2-Pf-HR :0.70369: L2-HR :0.65436: (Sim:1h59m5s) 
CPU  0 inst:  347000000 cyc:  520846142 now IPC :0.26828: AVG IPC :0.66364: L2-Pf-HR :0.70234: L2-HR :0.65368: (Sim:1h59m21s) 
CPU  0 inst:  348000001 cyc:  524572997 now IPC :0.26832: AVG IPC :0.66082: L2-Pf-HR :0.70100: L2-HR :0.65300: (Sim:1h59m37s) 
CPU  0 inst:  349000001 cyc:  528303269 now IPC :0.26808: AVG IPC :0.65804: L2-Pf-HR :0.69966: L2-HR :0.65233: (Sim:1h59m52s) 
CPU  0 inst:  350000000 cyc:  532032773 now IPC :0.26813: AVG IPC :0.65531: L2-Pf-HR :0.69833: L2-HR :0.65166: (Sim:2h0m8s) 
CPU  0 inst:  351000000 cyc:  535761499 now IPC :0.26819: AVG IPC :0.65261: L2-Pf-HR :0.69700: L2-HR :0.65099: (Sim:2h0m25s) 
CPU  0 inst:  352000004 cyc:  539489635 now IPC :0.26823: AVG IPC :0.64995: L2-Pf-HR :0.69568: L2-HR :0.65032: (Sim:2h0m41s) 
CPU  0 inst:  353000000 cyc:  543216492 now IPC :0.26832: AVG IPC :0.64732: L2-Pf-HR :0.69436: L2-HR :0.64966: (Sim:2h0m57s) 
CPU  0 inst:  354000000 cyc:  546943473 now IPC :0.26831: AVG IPC :0.64474: L2-Pf-HR :0.69304: L2-HR :0.64900: (Sim:2h1m13s) 
CPU  0 inst:  355000000 cyc:  550670800 now IPC :0.26829: AVG IPC :0.64218: L2-Pf-HR :0.69173: L2-HR :0.64834: (Sim:2h1m29s) 
CPU  0 inst:  356000000 cyc:  554398785 now IPC :0.26824: AVG IPC :0.63966: L2-Pf-HR :0.69043: L2-HR :0.64769: (Sim:2h1m45s) 
CPU  0 inst:  357000001 cyc:  558129528 now IPC :0.26804: AVG IPC :0.63718: L2-Pf-HR :0.68914: L2-HR :0.64704: (Sim:2h2m1s) 
CPU  0 inst:  358000000 cyc:  561857054 now IPC :0.26827: AVG IPC :0.63472: L2-Pf-HR :0.68784: L2-HR :0.64639: (Sim:2h2m17s) 
CPU  0 inst:  359000000 cyc:  565584437 now IPC :0.26828: AVG IPC :0.63230: L2-Pf-HR :0.68656: L2-HR :0.64574: (Sim:2h2m50s) 
CPU  0 inst:  360000000 cyc:  569312282 now IPC :0.26825: AVG IPC :0.62992: L2-Pf-HR :0.68527: L2-HR :0.64510: (Sim:2h3m28s) 
CPU  0 inst:  361000000 cyc:  573039241 now IPC :0.26832: AVG IPC :0.62756: L2-Pf-HR :0.68399: L2-HR :0.64446: (Sim:2h4m5s) 
CPU  0 inst:  362000000 cyc:  576766962 now IPC :0.26826: AVG IPC :0.62523: L2-Pf-HR :0.68271: L2-HR :0.64382: (Sim:2h4m42s) 
CPU  0 inst:  363000000 cyc:  580495613 now IPC :0.26819: AVG IPC :0.62294: L2-Pf-HR :0.68144: L2-HR :0.64318: (Sim:2h5m20s) 
CPU  0 inst:  364000001 cyc:  584225230 now IPC :0.26812: AVG IPC :0.62067: L2-Pf-HR :0.68019: L2-HR :0.64255: (Sim:2h5m57s) 
CPU  0 inst:  365000000 cyc:  587954871 now IPC :0.26812: AVG IPC :0.61843: L2-Pf-HR :0.67893: L2-HR :0.64192: (Sim:2h6m35s) 
CPU  0 inst:  366000000 cyc:  591681646 now IPC :0.26833: AVG IPC :0.61622: L2-Pf-HR :0.67767: L2-HR :0.64129: (Sim:2h7m12s) 
CPU  0 inst:  367000000 cyc:  595408213 now IPC :0.26834: AVG IPC :0.61404: L2-Pf-HR :0.67642: L2-HR :0.64067: (Sim:2h7m49s) 
CPU  0 inst:  368000000 cyc:  599136014 now IPC :0.26825: AVG IPC :0.61188: L2-Pf-HR :0.67517: L2-HR :0.64004: (Sim:2h8m27s) 
CPU  0 inst:  369000004 cyc:  602862705 now IPC :0.26834: AVG IPC :0.60976: L2-Pf-HR :0.67393: L2-HR :0.63942: (Sim:2h9m4s) 
CPU  0 inst:  370000000 cyc:  606590589 now IPC :0.26825: AVG IPC :0.60765: L2-Pf-HR :0.67269: L2-HR :0.63880: (Sim:2h9m42s) 
CPU  0 inst:  371000002 cyc:  610319206 now IPC :0.26820: AVG IPC :0.60558: L2-Pf-HR :0.67146: L2-HR :0.63819: (Sim:2h10m19s) 
CPU  0 inst:  372000001 cyc:  614049238 now IPC :0.26809: AVG IPC :0.60352: L2-Pf-HR :0.67023: L2-HR :0.63758: (Sim:2h10m57s) 
CPU  0 inst:  373000004 cyc:  617776673 now IPC :0.26828: AVG IPC :0.60150: L2-Pf-HR :0.66901: L2-HR :0.63697: (Sim:2h11m34s) 
CPU  0 inst:  374000000 cyc:  621504319 now IPC :0.26826: AVG IPC :0.59950: L2-Pf-HR :0.66779: L2-HR :0.63636: (Sim:2h12m12s) 
CPU  0 inst:  375000000 cyc:  625231701 now IPC :0.26828: AVG IPC :0.59752: L2-Pf-HR :0.66658: L2-HR :0.63575: (Sim:2h12m49s) 
CPU  0 inst:  376000000 cyc:  628958479 now IPC :0.26833: AVG IPC :0.59556: L2-Pf-HR :0.66537: L2-HR :0.63515: (Sim:2h13m18s) 
CPU  0 inst:  377000000 cyc:  632685292 now IPC :0.26833: AVG IPC :0.59363: L2-Pf-HR :0.66416: L2-HR :0.63455: (Sim:2h13m34s) 
CPU  0 inst:  378000002 cyc:  636413966 now IPC :0.26819: AVG IPC :0.59172: L2-Pf-HR :0.66296: L2-HR :0.63395: (Sim:2h13m50s) 
CPU  0 inst:  379000000 cyc:  640143822 now IPC :0.26811: AVG IPC :0.58984: L2-Pf-HR :0.66177: L2-HR :0.63336: (Sim:2h14m6s) 
CPU  0 inst:  380000000 cyc:  643872517 now IPC :0.26819: AVG IPC :0.58797: L2-Pf-HR :0.66057: L2-HR :0.63276: (Sim:2h14m21s) 
CPU  0 inst:  381000000 cyc:  647599633 now IPC :0.26830: AVG IPC :0.58613: L2-Pf-HR :0.65938: L2-HR :0.63217: (Sim:2h14m37s) 
CPU  0 inst:  382000000 cyc:  651327140 now IPC :0.26828: AVG IPC :0.58431: L2-Pf-HR :0.65820: L2-HR :0.63158: (Sim:2h14m53s) 
CPU  0 inst:  383000000 cyc:  655054947 now IPC :0.26825: AVG IPC :0.58250: L2-Pf-HR :0.65702: L2-HR :0.63099: (Sim:2h15m9s) 
CPU  0 inst:  384000000 cyc:  658781929 now IPC :0.26831: AVG IPC :0.58072: L2-Pf-HR :0.65584: L2-HR :0.63041: (Sim:2h15m25s) 
CPU  0 inst:  385000000 cyc:  662509473 now IPC :0.26827: AVG IPC :0.57896: L2-Pf-HR :0.65467: L2-HR :0.62983: (Sim:2h15m41s) 
CPU  0 inst:  386000001 cyc:  666237700 now IPC :0.26822: AVG IPC :0.57722: L2-Pf-HR :0.65351: L2-HR :0.62925: (Sim:2h15m57s) 
CPU  0 inst:  387000001 cyc:  669968368 now IPC :0.26805: AVG IPC :0.57550: L2-Pf-HR :0.65234: L2-HR :0.62867: (Sim:2h16m13s) 
CPU  0 inst:  388000000 cyc:  673696381 now IPC :0.26824: AVG IPC :0.57380: L2-Pf-HR :0.65118: L2-HR :0.62810: (Sim:2h16m29s) 
CPU  0 inst:  389000000 cyc:  677424266 now IPC :0.26825: AVG IPC :0.57211: L2-Pf-HR :0.65003: L2-HR :0.62752: (Sim:2h16m45s) 
CPU  0 inst:  390000004 cyc:  681151757 now IPC :0.26828: AVG IPC :0.57045: L2-Pf-HR :0.64888: L2-HR :0.62695: (Sim:2h17m1s) 
CPU  0 inst:  391000000 cyc:  684879346 now IPC :0.26827: AVG IPC :0.56880: L2-Pf-HR :0.64773: L2-HR :0.62638: (Sim:2h17m17s) 
CPU  0 inst:  392000000 cyc:  688604661 now IPC :0.26843: AVG IPC :0.56717: L2-Pf-HR :0.64659: L2-HR :0.62582: (Sim:2h17m33s) 
CPU  0 inst:  393000001 cyc:  692332022 now IPC :0.26829: AVG IPC :0.56556: L2-Pf-HR :0.64545: L2-HR :0.62525: (Sim:2h17m49s) 
CPU  0 inst:  394000001 cyc:  696060966 now IPC :0.26817: AVG IPC :0.56397: L2-Pf-HR :0.64432: L2-HR :0.62469: (Sim:2h18m5s) 
CPU  0 inst:  395000000 cyc:  699750225 now IPC :0.27106: AVG IPC :0.56242: L2-Pf-HR :0.64318: L2-HR :0.62410: (Sim:2h18m20s) 
CPU  0 inst:  396000004 cyc:  700378076 now IPC :1.59274: AVG IPC :0.56334: L2-Pf-HR :0.64453: L2-HR :0.62577: (Sim:2h18m30s) 
CPU  0 inst:  397000000 cyc:  700972642 now IPC :1.68189: AVG IPC :0.56429: L2-Pf-HR :0.64599: L2-HR :0.62750: (Sim:2h18m39s) 
CPU  0 inst:  398000002 cyc:  701563541 now IPC :1.69234: AVG IPC :0.56525: L2-Pf-HR :0.64744: L2-HR :0.62921: (Sim:2h18m49s) 
CPU  0 inst:  399000000 cyc:  702165329 now IPC :1.66171: AVG IPC :0.56619: L2-Pf-HR :0.64882: L2-HR :0.63088: (Sim:2h18m58s) 
CPU  0 inst:  400000000 cyc:  702785529 now IPC :1.61238: AVG IPC :0.56711: L2-Pf-HR :0.65017: L2-HR :0.63248: (Sim:2h19m8s) 
CPU  0 inst:  401000000 cyc:  703358466 now IPC :1.74539: AVG IPC :0.56807: L2-Pf-HR :0.65159: L2-HR :0.63413: (Sim:2h19m17s) 
CPU  0 inst:  402000001 cyc:  703930382 now IPC :1.74851: AVG IPC :0.56903: L2-Pf-HR :0.65301: L2-HR :0.63577: (Sim:2h19m26s) 
CPU  0 inst:  403000002 cyc:  704496887 now IPC :1.76521: AVG IPC :0.57000: L2-Pf-HR :0.65444: L2-HR :0.63740: (Sim:2h19m36s) 
CPU  0 inst:  404000001 cyc:  705108390 now IPC :1.63531: AVG IPC :0.57092: L2-Pf-HR :0.65573: L2-HR :0.63894: (Sim:2h19m45s) 
CPU  0 inst:  405000002 cyc:  705668387 now IPC :1.78573: AVG IPC :0.57189: L2-Pf-HR :0.65713: L2-HR :0.64056: (Sim:2h19m54s) 
CPU  0 inst:  406000002 cyc:  706226698 now IPC :1.79112: AVG IPC :0.57285: L2-Pf-HR :0.65851: L2-HR :0.64216: (Sim:2h20m4s) 
CPU  0 inst:  407000003 cyc:  706783834 now IPC :1.79490: AVG IPC :0.57382: L2-Pf-HR :0.65992: L2-HR :0.64375: (Sim:2h20m13s) 
CPU  0 inst:  408000005 cyc:  707375950 now IPC :1.68886: AVG IPC :0.57475: L2-Pf-HR :0.66118: L2-HR :0.64526: (Sim:2h20m23s) 
CPU  0 inst:  409000003 cyc:  707948879 now IPC :1.74541: AVG IPC :0.57570: L2-Pf-HR :0.66250: L2-HR :0.64679: (Sim:2h20m32s) 
CPU  0 inst:  410000003 cyc:  708516526 now IPC :1.76166: AVG IPC :0.57665: L2-Pf-HR :0.66381: L2-HR :0.64829: (Sim:2h20m41s) 
CPU  0 inst:  411000003 cyc:  709087678 now IPC :1.75085: AVG IPC :0.57760: L2-Pf-HR :0.66510: L2-HR :0.64978: (Sim:2h20m51s) 
CPU  0 inst:  412000002 cyc:  709684658 now IPC :1.67510: AVG IPC :0.57852: L2-Pf-HR :0.66620: L2-HR :0.65120: (Sim:2h21m0s) 
CPU  0 inst:  413000002 cyc:  710265640 now IPC :1.72122: AVG IPC :0.57946: L2-Pf-HR :0.66741: L2-HR :0.65266: (Sim:2h21m10s) 
CPU  0 inst:  414000000 cyc:  710849397 now IPC :1.71304: AVG IPC :0.58039: L2-Pf-HR :0.66862: L2-HR :0.65410: (Sim:2h21m20s) 
CPU  0 inst:  415000002 cyc:  711446959 now IPC :1.67347: AVG IPC :0.58131: L2-Pf-HR :0.66976: L2-HR :0.65550: (Sim:2h21m42s) 
CPU  0 inst:  416000005 cyc:  712038723 now IPC :1.68987: AVG IPC :0.58223: L2-Pf-HR :0.67086: L2-HR :0.65689: (Sim:2h22m4s) 
CPU  0 inst:  417000002 cyc:  712600841 now IPC :1.77898: AVG IPC :0.58318: L2-Pf-HR :0.67208: L2-HR :0.65831: (Sim:2h22m26s) 
CPU  0 inst:  418000002 cyc:  713167279 now IPC :1.76542: AVG IPC :0.58412: L2-Pf-HR :0.67324: L2-HR :0.65968: (Sim:2h22m47s) 
CPU  0 inst:  419000000 cyc:  713746563 now IPC :1.72627: AVG IPC :0.58505: L2-Pf-HR :0.67439: L2-HR :0.66104: (Sim:2h23m8s) 
CPU  0 inst:  420000001 cyc:  714312143 now IPC :1.76810: AVG IPC :0.58599: L2-Pf-HR :0.67562: L2-HR :0.66243: (Sim:2h23m29s) 
CPU  0 inst:  421000003 cyc:  714877934 now IPC :1.76744: AVG IPC :0.58692: L2-Pf-HR :0.67671: L2-HR :0.66377: (Sim:2h23m49s) 
CPU  0 inst:  422000002 cyc:  715428802 now IPC :1.81532: AVG IPC :0.58787: L2-Pf-HR :0.67786: L2-HR :0.66512: (Sim:2h24m10s) 
CPU  0 inst:  423000003 cyc:  715994582 now IPC :1.76747: AVG IPC :0.58880: L2-Pf-HR :0.67900: L2-HR :0.66647: (Sim:2h24m30s) 
CPU  0 inst:  424000003 cyc:  716557445 now IPC :1.77663: AVG IPC :0.58974: L2-Pf-HR :0.68013: L2-HR :0.66779: (Sim:2h24m51s) 
CPU  0 inst:  425000002 cyc:  717132508 now IPC :1.73894: AVG IPC :0.59066: L2-Pf-HR :0.68124: L2-HR :0.66909: (Sim:2h25m11s) 
CPU  0 inst:  426000005 cyc:  717701894 now IPC :1.75628: AVG IPC :0.59159: L2-Pf-HR :0.68230: L2-HR :0.67035: (Sim:2h25m32s) 
CPU  0 inst:  427000000 cyc:  718268115 now IPC :1.76609: AVG IPC :0.59251: L2-Pf-HR :0.68338: L2-HR :0.67162: (Sim:2h25m52s) 
CPU  0 inst:  428000003 cyc:  718835320 now IPC :1.76304: AVG IPC :0.59344: L2-Pf-HR :0.68448: L2-HR :0.67288: (Sim:2h26m13s) 
CPU  0 inst:  429000004 cyc:  719431736 now IPC :1.67668: AVG IPC :0.59434: L2-Pf-HR :0.68536: L2-HR :0.67407: (Sim:2h26m32s) 
CPU  0 inst:  430000002 cyc:  720013263 now IPC :1.71961: AVG IPC :0.59525: L2-Pf-HR :0.68637: L2-HR :0.67530: (Sim:2h26m42s) 
CPU  0 inst:  431000000 cyc:  720601375 now IPC :1.70035: AVG IPC :0.59615: L2-Pf-HR :0.68738: L2-HR :0.67652: (Sim:2h26m51s) 
CPU  0 inst:  432000005 cyc:  721186705 now IPC :1.70845: AVG IPC :0.59705: L2-Pf-HR :0.68839: L2-HR :0.67773: (Sim:2h27m1s) 
CPU  0 inst:  433000003 cyc:  721775001 now IPC :1.69982: AVG IPC :0.59795: L2-Pf-HR :0.68926: L2-HR :0.67888: (Sim:2h27m10s) 
CPU  0 inst:  434000002 cyc:  722338021 now IPC :1.77613: AVG IPC :0.59887: L2-Pf-HR :0.69030: L2-HR :0.68008: (Sim:2h27m20s) 
CPU  0 inst:  435000000 cyc:  722900976 now IPC :1.77634: AVG IPC :0.59979: L2-Pf-HR :0.69130: L2-HR :0.68126: (Sim:2h27m29s) 
CPU  0 inst:  436000005 cyc:  723469487 now IPC :1.75899: AVG IPC :0.60070: L2-Pf-HR :0.69230: L2-HR :0.68243: (Sim:2h27m38s) 
CPU  0 inst:  437000001 cyc:  724049520 now IPC :1.72403: AVG IPC :0.60160: L2-Pf-HR :0.69320: L2-HR :0.68357: (Sim:2h27m48s) 
CPU  0 inst:  438000000 cyc:  724598121 now IPC :1.82282: AVG IPC :0.60253: L2-Pf-HR :0.69421: L2-HR :0.68474: (Sim:2h27m58s) 
CPU  0 inst:  439000003 cyc:  725147953 now IPC :1.81874: AVG IPC :0.60345: L2-Pf-HR :0.69520: L2-HR :0.68590: (Sim:2h28m7s) 
CPU  0 inst:  440000003 cyc:  725706748 now IPC :1.78957: AVG IPC :0.60437: L2-Pf-HR :0.69619: L2-HR :0.68706: (Sim:2h28m16s) 
CPU  0 inst:  441000002 cyc:  726279676 now IPC :1.74542: AVG IPC :0.60527: L2-Pf-HR :0.69711: L2-HR :0.68817: (Sim:2h28m26s) 
CPU  0 inst:  442000000 cyc:  726845737 now IPC :1.76659: AVG IPC :0.60618: L2-Pf-HR :0.69805: L2-HR :0.68928: (Sim:2h28m35s) 
CPU  0 inst:  443000001 cyc:  727405126 now IPC :1.78767: AVG IPC :0.60709: L2-Pf-HR :0.69898: L2-HR :0.69038: (Sim:2h28m45s) 
CPU  0 inst:  444000001 cyc:  727970465 now IPC :1.76885: AVG IPC :0.60799: L2-Pf-HR :0.69990: L2-HR :0.69146: (Sim:2h28m54s) 
CPU  0 inst:  445000001 cyc:  728539650 now IPC :1.75690: AVG IPC :0.60889: L2-Pf-HR :0.70079: L2-HR :0.69253: (Sim:2h29m3s) 
CPU  0 inst:  446000003 cyc:  729134792 now IPC :1.68027: AVG IPC :0.60976: L2-Pf-HR :0.70156: L2-HR :0.69356: (Sim:2h29m13s) 
CPU  0 inst:  447000005 cyc:  729719157 now IPC :1.71126: AVG IPC :0.61065: L2-Pf-HR :0.70242: L2-HR :0.69461: (Sim:2h29m23s) 
CPU  0 inst:  448000002 cyc:  730306728 now IPC :1.70192: AVG IPC :0.61153: L2-Pf-HR :0.70326: L2-HR :0.69565: (Sim:2h29m35s) 
CPU  0 inst:  449000004 cyc:  730898466 now IPC :1.68994: AVG IPC :0.61240: L2-Pf-HR :0.70406: L2-HR :0.69666: (Sim:2h29m55s) 
CPU  0 inst:  450000002 cyc:  731474234 now IPC :1.73681: AVG IPC :0.61329: L2-Pf-HR :0.70486: L2-HR :0.69767: (Sim:2h30m15s) 
CPU  0 inst:  451000004 cyc:  732035234 now IPC :1.78253: AVG IPC :0.61418: L2-Pf-HR :0.70572: L2-HR :0.69870: (Sim:2h30m36s) 
CPU  0 inst:  452000000 cyc:  732609407 now IPC :1.74163: AVG IPC :0.61507: L2-Pf-HR :0.70654: L2-HR :0.69970: (Sim:2h30m56s) 
CPU  0 inst:  453000003 cyc:  733174712 now IPC :1.76896: AVG IPC :0.61596: L2-Pf-HR :0.70738: L2-HR :0.70069: (Sim:2h31m16s) 
CPU  0 inst:  454000000 cyc:  733742731 now IPC :1.76050: AVG IPC :0.61685: L2-Pf-HR :0.70820: L2-HR :0.70170: (Sim:2h31m37s) 
CPU  0 inst:  455000000 cyc:  734297279 now IPC :1.80327: AVG IPC :0.61774: L2-Pf-HR :0.70903: L2-HR :0.70269: (Sim:2h31m57s) 
CPU  0 inst:  456000005 cyc:  734853495 now IPC :1.79787: AVG IPC :0.61864: L2-Pf-HR :0.70984: L2-HR :0.70368: (Sim:2h32m15s) 
CPU  0 inst:  457000004 cyc:  735406887 now IPC :1.80704: AVG IPC :0.61953: L2-Pf-HR :0.71068: L2-HR :0.70467: (Sim:2h32m24s) 
CPU  0 inst:  458000000 cyc:  735976527 now IPC :1.75549: AVG IPC :0.62041: L2-Pf-HR :0.71149: L2-HR :0.70564: (Sim:2h32m34s) 
CPU  0 inst:  459000005 cyc:  736545105 now IPC :1.75878: AVG IPC :0.62129: L2-Pf-HR :0.71228: L2-HR :0.70658: (Sim:2h32m43s) 
CPU  0 inst:  460000000 cyc:  737110780 now IPC :1.76779: AVG IPC :0.62217: L2-Pf-HR :0.71304: L2-HR :0.70751: (Sim:2h32m53s) 
CPU  0 inst:  461000000 cyc:  737675236 now IPC :1.77162: AVG IPC :0.62306: L2-Pf-HR :0.71383: L2-HR :0.70845: (Sim:2h33m14s) 
CPU  0 inst:  462000003 cyc:  738261260 now IPC :1.70642: AVG IPC :0.62392: L2-Pf-HR :0.71453: L2-HR :0.70935: (Sim:2h33m36s) 
CPU  0 inst:  463000005 cyc:  738849934 now IPC :1.69874: AVG IPC :0.62477: L2-Pf-HR :0.71522: L2-HR :0.71025: (Sim:2h33m58s) 
CPU  0 inst:  464000005 cyc:  739433947 now IPC :1.71229: AVG IPC :0.62563: L2-Pf-HR :0.71595: L2-HR :0.71115: (Sim:2h34m20s) 
CPU  0 inst:  465000002 cyc:  740021956 now IPC :1.70065: AVG IPC :0.62649: L2-Pf-HR :0.71668: L2-HR :0.71206: (Sim:2h34m42s) 
CPU  0 inst:  466000000 cyc:  740622622 now IPC :1.66482: AVG IPC :0.62733: L2-Pf-HR :0.71731: L2-HR :0.71291: (Sim:2h35m4s) 
CPU  0 inst:  467000003 cyc:  741183338 now IPC :1.78344: AVG IPC :0.62821: L2-Pf-HR :0.71806: L2-HR :0.71381: (Sim:2h35m26s) 
CPU  0 inst:  468000000 cyc:  741746146 now IPC :1.77680: AVG IPC :0.62908: L2-Pf-HR :0.71881: L2-HR :0.71470: (Sim:2h35m48s) 
CPU  0 inst:  469000003 cyc:  742316409 now IPC :1.75358: AVG IPC :0.62995: L2-Pf-HR :0.71955: L2-HR :0.71559: (Sim:2h36m10s) 
CPU  0 inst:  470000002 cyc:  742889312 now IPC :1.74549: AVG IPC :0.63081: L2-Pf-HR :0.72026: L2-HR :0.71645: (Sim:2h36m29s) 
CPU  0 inst:  471000002 cyc:  743454180 now IPC :1.77033: AVG IPC :0.63167: L2-Pf-HR :0.72096: L2-HR :0.71732: (Sim:2h36m38s) 
CPU  0 inst:  472000000 cyc:  744006160 now IPC :1.81166: AVG IPC :0.63255: L2-Pf-HR :0.72169: L2-HR :0.71820: (Sim:2h36m48s) 
CPU  0 inst:  473000005 cyc:  744562836 now IPC :1.79639: AVG IPC :0.63342: L2-Pf-HR :0.72243: L2-HR :0.71907: (Sim:2h36m57s) 
CPU  0 inst:  474000000 cyc:  745118836 now IPC :1.79855: AVG IPC :0.63429: L2-Pf-HR :0.72317: L2-HR :0.71994: (Sim:2h37m13s) 
CPU  0 inst:  475000004 cyc:  745698492 now IPC :1.72517: AVG IPC :0.63514: L2-Pf-HR :0.72382: L2-HR :0.72075: (Sim:2h37m35s) 
CPU  0 inst:  476000004 cyc:  746264337 now IPC :1.76727: AVG IPC :0.63600: L2-Pf-HR :0.72451: L2-HR :0.72158: (Sim:2h37m56s) 
CPU  0 inst:  477000005 cyc:  746826873 now IPC :1.77767: AVG IPC :0.63686: L2-Pf-HR :0.72520: L2-HR :0.72241: (Sim:2h38m17s) 
CPU  0 inst:  478000001 cyc:  747396235 now IPC :1.75634: AVG IPC :0.63772: L2-Pf-HR :0.72590: L2-HR :0.72323: (Sim:2h38m39s) 
CPU  0 inst:  479000002 cyc:  747993779 now IPC :1.67352: AVG IPC :0.63855: L2-Pf-HR :0.72645: L2-HR :0.72400: (Sim:2h39m0s) 
CPU  0 inst:  480000000 cyc:  748576661 now IPC :1.71561: AVG IPC :0.63939: L2-Pf-HR :0.72708: L2-HR :0.72479: (Sim:2h39m21s) 
CPU  0 inst:  481000003 cyc:  749160141 now IPC :1.71386: AVG IPC :0.64022: L2-Pf-HR :0.72770: L2-HR :0.72559: (Sim:2h39m42s) 
CPU  0 inst:  482000002 cyc:  749750249 now IPC :1.69460: AVG IPC :0.64105: L2-Pf-HR :0.72832: L2-HR :0.72637: (Sim:2h40m4s) 
CPU  0 inst:  483000004 cyc:  750343781 now IPC :1.68483: AVG IPC :0.64188: L2-Pf-HR :0.72887: L2-HR :0.72712: (Sim:2h40m25s) 
CPU  0 inst:  484000003 cyc:  750903841 now IPC :1.78552: AVG IPC :0.64273: L2-Pf-HR :0.72953: L2-HR :0.72792: (Sim:2h40m46s) 
CPU  0 inst:  485000002 cyc:  751465617 now IPC :1.78007: AVG IPC :0.64359: L2-Pf-HR :0.73018: L2-HR :0.72869: (Sim:2h41m8s) 
CPU  0 inst:  486000001 cyc:  752039979 now IPC :1.74106: AVG IPC :0.64443: L2-Pf-HR :0.73080: L2-HR :0.72945: (Sim:2h41m29s) 
CPU  0 inst:  487000004 cyc:  752613707 now IPC :1.74299: AVG IPC :0.64526: L2-Pf-HR :0.73139: L2-HR :0.73021: (Sim:2h41m51s) 
CPU  0 inst:  488000003 cyc:  753165043 now IPC :1.81377: AVG IPC :0.64612: L2-Pf-HR :0.73205: L2-HR :0.73099: (Sim:2h42m12s) 
CPU  0 inst:  489000001 cyc:  753717188 now IPC :1.81111: AVG IPC :0.64697: L2-Pf-HR :0.73267: L2-HR :0.73175: (Sim:2h42m33s) 
CPU  0 inst:  490000001 cyc:  754277831 now IPC :1.78367: AVG IPC :0.64782: L2-Pf-HR :0.73328: L2-HR :0.73251: (Sim:2h42m54s) 
CPU  0 inst:  491000002 cyc:  754828800 now IPC :1.81499: AVG IPC :0.64867: L2-Pf-HR :0.73395: L2-HR :0.73329: (Sim:2h43m16s) 
CPU  0 inst:  492000000 cyc:  755412623 now IPC :1.71284: AVG IPC :0.64950: L2-Pf-HR :0.73452: L2-HR :0.73400: (Sim:2h43m37s) 
CPU  0 inst:  493000002 cyc:  755979859 now IPC :1.76294: AVG IPC :0.65033: L2-Pf-HR :0.73511: L2-HR :0.73472: (Sim:2h43m58s) 
CPU  0 inst:  494000004 cyc:  756550369 now IPC :1.75282: AVG IPC :0.65117: L2-Pf-HR :0.73569: L2-HR :0.73543: (Sim:2h44m20s) 
CPU  0 inst:  495000004 cyc:  757122382 now IPC :1.74821: AVG IPC :0.65200: L2-Pf-HR :0.73627: L2-HR :0.73614: (Sim:2h44m41s) 
CPU  0 inst:  496000002 cyc:  757711898 now IPC :1.69630: AVG IPC :0.65281: L2-Pf-HR :0.73679: L2-HR :0.73684: (Sim:2h45m2s) 
CPU  0 inst:  497000002 cyc:  758301151 now IPC :1.69706: AVG IPC :0.65362: L2-Pf-HR :0.73731: L2-HR :0.73753: (Sim:2h45m24s) 
CPU  0 inst:  498000000 cyc:  758890946 now IPC :1.69550: AVG IPC :0.65443: L2-Pf-HR :0.73787: L2-HR :0.73823: (Sim:2h45m45s) 
CPU  0 inst:  499000005 cyc:  759475212 now IPC :1.71156: AVG IPC :0.65525: L2-Pf-HR :0.73842: L2-HR :0.73893: (Sim:2h46m6s) 
CPU  0 inst:  500000003 cyc:  760061577 now IPC :1.70542: AVG IPC :0.65606: L2-Pf-HR :0.73891: L2-HR :0.73959: (Sim:2h46m28s) 
CPU  0 inst:  501000001 cyc:  760622161 now IPC :1.78385: AVG IPC :0.65689: L2-Pf-HR :0.73949: L2-HR :0.74028: (Sim:2h46m49s) 
CPU  0 inst:  502000003 cyc:  761188063 now IPC :1.76709: AVG IPC :0.65772: L2-Pf-HR :0.74007: L2-HR :0.74098: (Sim:2h47m10s) 
CPU  0 inst:  503000004 cyc:  761755270 now IPC :1.76303: AVG IPC :0.65854: L2-Pf-HR :0.74064: L2-HR :0.74166: (Sim:2h47m32s) 
CPU  0 inst:  504000005 cyc:  762330336 now IPC :1.73893: AVG IPC :0.65936: L2-Pf-HR :0.74113: L2-HR :0.74232: (Sim:2h47m53s) 
CPU  0 inst:  505000004 cyc:  762879917 now IPC :1.81957: AVG IPC :0.66019: L2-Pf-HR :0.74171: L2-HR :0.74301: (Sim:2h48m14s) 
CPU  0 inst:  506000003 cyc:  763435149 now IPC :1.80105: AVG IPC :0.66103: L2-Pf-HR :0.74227: L2-HR :0.74369: (Sim:2h48m36s) 
CPU  0 inst:  507000005 cyc:  763991200 now IPC :1.79840: AVG IPC :0.66185: L2-Pf-HR :0.74284: L2-HR :0.74437: (Sim:2h48m57s) 
CPU  0 inst:  508000003 cyc:  764571026 now IPC :1.72465: AVG IPC :0.66266: L2-Pf-HR :0.74334: L2-HR :0.74501: (Sim:2h49m18s) 
CPU  0 inst:  509000001 cyc:  765137340 now IPC :1.76580: AVG IPC :0.66348: L2-Pf-HR :0.74390: L2-HR :0.74567: (Sim:2h49m40s) 
CPU  0 inst:  510000002 cyc:  765696468 now IPC :1.78850: AVG IPC :0.66430: L2-Pf-HR :0.74444: L2-HR :0.74632: (Sim:2h50m2s) 
CPU  0 inst:  511000002 cyc:  766264789 now IPC :1.75957: AVG IPC :0.66511: L2-Pf-HR :0.74497: L2-HR :0.74697: (Sim:2h50m23s) 
CPU  0 inst:  512000002 cyc:  766853296 now IPC :1.69922: AVG IPC :0.66591: L2-Pf-HR :0.74543: L2-HR :0.74757: (Sim:2h50m45s) 
CPU  0 inst:  513000003 cyc:  767437832 now IPC :1.71076: AVG IPC :0.66671: L2-Pf-HR :0.74590: L2-HR :0.74820: (Sim:2h51m7s) 
CPU  0 inst:  514000005 cyc:  768021509 now IPC :1.71328: AVG IPC :0.66750: L2-Pf-HR :0.74639: L2-HR :0.74883: (Sim:2h51m28s) 
CPU  0 inst:  515000003 cyc:  768609087 now IPC :1.70190: AVG IPC :0.66829: L2-Pf-HR :0.74688: L2-HR :0.74945: (Sim:2h51m50s) 
CPU  0 inst:  516000004 cyc:  769202860 now IPC :1.68415: AVG IPC :0.66908: L2-Pf-HR :0.74732: L2-HR :0.75004: (Sim:2h52m12s) 
CPU  0 inst:  517000001 cyc:  769776594 now IPC :1.74296: AVG IPC :0.66988: L2-Pf-HR :0.74779: L2-HR :0.75065: (Sim:2h52m34s) 
CPU  0 inst:  518000003 cyc:  770336317 now IPC :1.78660: AVG IPC :0.67069: L2-Pf-HR :0.74830: L2-HR :0.75127: (Sim:2h52m55s) 
CPU  0 inst:  519000003 cyc:  770907645 now IPC :1.75031: AVG IPC :0.67149: L2-Pf-HR :0.74880: L2-HR :0.75188: (Sim:2h53m17s) 
CPU  0 inst:  520000002 cyc:  771476945 now IPC :1.75654: AVG IPC :0.67230: L2-Pf-HR :0.74929: L2-HR :0.75248: (Sim:2h53m39s) 
CPU  0 inst:  521000000 cyc:  772044743 now IPC :1.76119: AVG IPC :0.67310: L2-Pf-HR :0.74976: L2-HR :0.75308: (Sim:2h54m1s) 
CPU  0 inst:  522000001 cyc:  772595776 now IPC :1.81478: AVG IPC :0.67391: L2-Pf-HR :0.75027: L2-HR :0.75370: (Sim:2h54m22s) 
CPU  0 inst:  523000003 cyc:  773157732 now IPC :1.77950: AVG IPC :0.67472: L2-Pf-HR :0.75074: L2-HR :0.75430: (Sim:2h54m44s) 
CPU  0 inst:  524000001 cyc:  773716912 now IPC :1.78833: AVG IPC :0.67552: L2-Pf-HR :0.75123: L2-HR :0.75489: (Sim:2h55m6s) 
CPU  0 inst:  525000005 cyc:  774290320 now IPC :1.74397: AVG IPC :0.67632: L2-Pf-HR :0.75170: L2-HR :0.75548: (Sim:2h55m27s) 
CPU  0 inst:  526000000 cyc:  774858679 now IPC :1.75944: AVG IPC :0.67711: L2-Pf-HR :0.75217: L2-HR :0.75606: (Sim:2h55m49s) 
CPU  0 inst:  527000003 cyc:  775431728 now IPC :1.74506: AVG IPC :0.67790: L2-Pf-HR :0.75262: L2-HR :0.75662: (Sim:2h56m11s) 
CPU  0 inst:  528000002 cyc:  776002713 now IPC :1.75136: AVG IPC :0.67869: L2-Pf-HR :0.75309: L2-HR :0.75719: (Sim:2h56m33s) 
CPU  0 inst:  529000005 cyc:  776586777 now IPC :1.71215: AVG IPC :0.67947: L2-Pf-HR :0.75351: L2-HR :0.75775: (Sim:2h56m54s) 
CPU  0 inst:  530000005 cyc:  777175007 now IPC :1.70002: AVG IPC :0.68024: L2-Pf-HR :0.75391: L2-HR :0.75830: (Sim:2h57m16s) 
CPU  0 inst:  531000004 cyc:  777764653 now IPC :1.69593: AVG IPC :0.68102: L2-Pf-HR :0.75433: L2-HR :0.75885: (Sim:2h57m38s) 
CPU  0 inst:  532000003 cyc:  778352155 now IPC :1.70212: AVG IPC :0.68179: L2-Pf-HR :0.75476: L2-HR :0.75940: (Sim:2h57m59s) 
CPU  0 inst:  533000003 cyc:  778941722 now IPC :1.69616: AVG IPC :0.68256: L2-Pf-HR :0.75513: L2-HR :0.75992: (Sim:2h58m21s) 
CPU  0 inst:  534000005 cyc:  779504095 now IPC :1.77818: AVG IPC :0.68335: L2-Pf-HR :0.75559: L2-HR :0.76048: (Sim:2h58m43s) 
CPU  0 inst:  535000005 cyc:  780066264 now IPC :1.77882: AVG IPC :0.68414: L2-Pf-HR :0.75604: L2-HR :0.76103: (Sim:2h59m5s) 
CPU  0 inst:  536000001 cyc:  780637551 now IPC :1.75043: AVG IPC :0.68492: L2-Pf-HR :0.75650: L2-HR :0.76158: (Sim:2h59m26s) 
CPU  0 inst:  537000001 cyc:  781215296 now IPC :1.73087: AVG IPC :0.68569: L2-Pf-HR :0.75689: L2-HR :0.76210: (Sim:2h59m48s) 
CPU  0 inst:  538000002 cyc:  781764988 now IPC :1.81920: AVG IPC :0.68649: L2-Pf-HR :0.75735: L2-HR :0.76266: (Sim:3h0m10s) 
CPU  0 inst:  539000000 cyc:  782315766 now IPC :1.81561: AVG IPC :0.68729: L2-Pf-HR :0.75780: L2-HR :0.76322: (Sim:3h0m31s) 
CPU  0 inst:  540000003 cyc:  782873345 now IPC :1.79347: AVG IPC :0.68808: L2-Pf-HR :0.75825: L2-HR :0.76376: (Sim:3h0m53s) 
CPU  0 inst:  541000003 cyc:  783432518 now IPC :1.78836: AVG IPC :0.68886: L2-Pf-HR :0.75868: L2-HR :0.76430: (Sim:3h1m15s) 
CPU  0 inst:  542000000 cyc:  784010516 now IPC :1.73010: AVG IPC :0.68963: L2-Pf-HR :0.75910: L2-HR :0.76481: (Sim:3h1m37s) 
CPU  0 inst:  543000001 cyc:  784572025 now IPC :1.78092: AVG IPC :0.69041: L2-Pf-HR :0.75953: L2-HR :0.76534: (Sim:3h1m58s) 
CPU  0 inst:  544000003 cyc:  785137572 now IPC :1.76820: AVG IPC :0.69119: L2-Pf-HR :0.75996: L2-HR :0.76586: (Sim:3h2m20s) 
CPU  0 inst:  545000005 cyc:  785701804 now IPC :1.77232: AVG IPC :0.69197: L2-Pf-HR :0.76039: L2-HR :0.76638: (Sim:3h2m42s) 
CPU  0 inst:  546000002 cyc:  786298521 now IPC :1.67583: AVG IPC :0.69272: L2-Pf-HR :0.76070: L2-HR :0.76685: (Sim:3h3m4s) 
CPU  0 inst:  547000000 cyc:  786880999 now IPC :1.71680: AVG IPC :0.69347: L2-Pf-HR :0.76109: L2-HR :0.76736: (Sim:3h3m25s) 
CPU  0 inst:  548000003 cyc:  787467695 now IPC :1.70447: AVG IPC :0.69423: L2-Pf-HR :0.76148: L2-HR :0.76786: (Sim:3h3m47s) 
CPU  0 inst:  549000001 cyc:  788053242 now IPC :1.70780: AVG IPC :0.69498: L2-Pf-HR :0.76186: L2-HR :0.76836: (Sim:3h4m9s) 
CPU  0 inst:  550000000 cyc:  788643177 now IPC :1.69510: AVG IPC :0.69573: L2-Pf-HR :0.76218: L2-HR :0.76882: (Sim:3h4m27s) 
CPU  0 inst:  551000002 cyc:  789201565 now IPC :1.79087: AVG IPC :0.69651: L2-Pf-HR :0.76260: L2-HR :0.76933: (Sim:3h4m37s) 
CPU  0 inst:  552000000 cyc:  789765554 now IPC :1.77308: AVG IPC :0.69728: L2-Pf-HR :0.76302: L2-HR :0.76983: (Sim:3h4m46s) 
CPU  0 inst:  553000000 cyc:  790335107 now IPC :1.75576: AVG IPC :0.69804: L2-Pf-HR :0.76342: L2-HR :0.77032: (Sim:3h4m56s) 
CPU  0 inst:  554000005 cyc:  790917311 now IPC :1.71762: AVG IPC :0.69879: L2-Pf-HR :0.76377: L2-HR :0.77079: (Sim:3h5m5s) 
CPU  0 inst:  555000003 cyc:  791465445 now IPC :1.82437: AVG IPC :0.69957: L2-Pf-HR :0.76419: L2-HR :0.77130: (Sim:3h5m15s) 
CPU  0 inst:  556000005 cyc:  792012957 now IPC :1.82645: AVG IPC :0.70035: L2-Pf-HR :0.76459: L2-HR :0.77180: (Sim:3h5m24s) 
CPU  0 inst:  557000002 cyc:  792573897 now IPC :1.78272: AVG IPC :0.70112: L2-Pf-HR :0.76499: L2-HR :0.77228: (Sim:3h5m34s) 
CPU  0 inst:  558000001 cyc:  793147934 now IPC :1.74205: AVG IPC :0.70187: L2-Pf-HR :0.76536: L2-HR :0.77275: (Sim:3h5m44s) 
CPU  0 inst:  559000002 cyc:  793711905 now IPC :1.77314: AVG IPC :0.70264: L2-Pf-HR :0.76576: L2-HR :0.77324: (Sim:3h5m53s) 
CPU  0 inst:  560000005 cyc:  794274436 now IPC :1.77769: AVG IPC :0.70340: L2-Pf-HR :0.76614: L2-HR :0.77371: (Sim:3h6m3s) 
CPU  0 inst:  561000003 cyc:  794844380 now IPC :1.75455: AVG IPC :0.70415: L2-Pf-HR :0.76650: L2-HR :0.77416: (Sim:3h6m12s) 
CPU  0 inst:  562000005 cyc:  795408741 now IPC :1.77192: AVG IPC :0.70491: L2-Pf-HR :0.76690: L2-HR :0.77464: (Sim:3h6m22s) 
CPU  0 inst:  563000003 cyc:  796007278 now IPC :1.67074: AVG IPC :0.70564: L2-Pf-HR :0.76718: L2-HR :0.77507: (Sim:3h6m32s) 
CPU  0 inst:  564000005 cyc:  796598873 now IPC :1.69035: AVG IPC :0.70637: L2-Pf-HR :0.76750: L2-HR :0.77551: (Sim:3h6m41s) 
CPU  0 inst:  565000001 cyc:  797191766 now IPC :1.68664: AVG IPC :0.70710: L2-Pf-HR :0.76784: L2-HR :0.77596: (Sim:3h6m51s) 
CPU  0 inst:  566000000 cyc:  797783460 now IPC :1.69006: AVG IPC :0.70783: L2-Pf-HR :0.76815: L2-HR :0.77639: (Sim:3h7m0s) 
CPU  0 inst:  567000003 cyc:  798355174 now IPC :1.74913: AVG IPC :0.70858: L2-Pf-HR :0.76850: L2-HR :0.77684: (Sim:3h7m10s) 
CPU  0 inst:  568000004 cyc:  798919842 now IPC :1.77095: AVG IPC :0.70933: L2-Pf-HR :0.76887: L2-HR :0.77730: (Sim:3h7m20s) 
CPU  0 inst:  569000004 cyc:  799487624 now IPC :1.76124: AVG IPC :0.71008: L2-Pf-HR :0.76924: L2-HR :0.77775: (Sim:3h7m29s) 
CPU  0 inst:  570000004 cyc:  800048376 now IPC :1.78332: AVG IPC :0.71083: L2-Pf-HR :0.76962: L2-HR :0.77821: (Sim:3h7m39s) 
CPU  0 inst:  571000001 cyc:  800621005 now IPC :1.74633: AVG IPC :0.71157: L2-Pf-HR :0.76992: L2-HR :0.77863: (Sim:3h7m49s) 
CPU  0 inst:  572000003 cyc:  801173529 now IPC :1.80988: AVG IPC :0.71233: L2-Pf-HR :0.77030: L2-HR :0.77909: (Sim:3h7m58s) 
CPU  0 inst:  573000004 cyc:  801730029 now IPC :1.79695: AVG IPC :0.71308: L2-Pf-HR :0.77067: L2-HR :0.77954: (Sim:3h8m8s) 
CPU  0 inst:  574000000 cyc:  802281320 now IPC :1.81392: AVG IPC :0.71384: L2-Pf-HR :0.77105: L2-HR :0.77999: (Sim:3h8m17s) 
CPU  0 inst:  575000000 cyc:  802858918 now IPC :1.73131: AVG IPC :0.71457: L2-Pf-HR :0.77136: L2-HR :0.78040: (Sim:3h8m27s) 
CPU  0 inst:  576000005 cyc:  803423101 now IPC :1.77248: AVG IPC :0.71532: L2-Pf-HR :0.77172: L2-HR :0.78084: (Sim:3h8m36s) 
CPU  0 inst:  577000003 cyc:  803984823 now IPC :1.78024: AVG IPC :0.71606: L2-Pf-HR :0.77208: L2-HR :0.78127: (Sim:3h8m46s) 
CPU  0 inst:  578000000 cyc:  804548901 now IPC :1.77280: AVG IPC :0.71681: L2-Pf-HR :0.77243: L2-HR :0.78170: (Sim:3h8m56s) 
CPU  0 inst:  579000001 cyc:  805138414 now IPC :1.69632: AVG IPC :0.71752: L2-Pf-HR :0.77270: L2-HR :0.78209: (Sim:3h9m6s) 
CPU  0 inst:  580000002 cyc:  805722022 now IPC :1.71348: AVG IPC :0.71825: L2-Pf-HR :0.77301: L2-HR :0.78250: (Sim:3h9m15s) 
CPU  0 inst:  581000004 cyc:  806308098 now IPC :1.70627: AVG IPC :0.71896: L2-Pf-HR :0.77332: L2-HR :0.78292: (Sim:3h9m25s) 
CPU  0 inst:  582000003 cyc:  806893750 now IPC :1.70750: AVG IPC :0.71968: L2-Pf-HR :0.77364: L2-HR :0.78333: (Sim:3h9m34s) 
CPU  0 inst:  583000002 cyc:  807491267 now IPC :1.67359: AVG IPC :0.72039: L2-Pf-HR :0.77389: L2-HR :0.78370: (Sim:3h9m44s) 
CPU  0 inst:  584000002 cyc:  808056707 now IPC :1.76853: AVG IPC :0.72112: L2-Pf-HR :0.77424: L2-HR :0.78413: (Sim:3h9m54s) 
CPU  0 inst:  585000003 cyc:  808617244 now IPC :1.78401: AVG IPC :0.72186: L2-Pf-HR :0.77457: L2-HR :0.78454: (Sim:3h10m3s) 
CPU  0 inst:  586000005 cyc:  809185087 now IPC :1.76105: AVG IPC :0.72259: L2-Pf-HR :0.77491: L2-HR :0.78495: (Sim:3h10m13s) 
CPU  0 inst:  587000005 cyc:  809758679 now IPC :1.74340: AVG IPC :0.72332: L2-Pf-HR :0.77523: L2-HR :0.78535: (Sim:3h10m23s) 
CPU  0 inst:  588000002 cyc:  810323593 now IPC :1.77018: AVG IPC :0.72405: L2-Pf-HR :0.77553: L2-HR :0.78575: (Sim:3h10m32s) 
CPU  0 inst:  589000004 cyc:  810871955 now IPC :1.82362: AVG IPC :0.72479: L2-Pf-HR :0.77587: L2-HR :0.78617: (Sim:3h10m42s) 
CPU  0 inst:  590000002 cyc:  811428985 now IPC :1.79523: AVG IPC :0.72553: L2-Pf-HR :0.77621: L2-HR :0.78658: (Sim:3h10m52s) 
CPU  0 inst:  591000002 cyc:  811986206 now IPC :1.79462: AVG IPC :0.72626: L2-Pf-HR :0.77654: L2-HR :0.78698: (Sim:3h11m1s) 
CPU  0 inst:  592000004 cyc:  812567387 now IPC :1.72064: AVG IPC :0.72697: L2-Pf-HR :0.77683: L2-HR :0.78737: (Sim:3h11m11s) 
CPU  0 inst:  593000000 cyc:  813133431 now IPC :1.76664: AVG IPC :0.72770: L2-Pf-HR :0.77716: L2-HR :0.78776: (Sim:3h11m21s) 
CPU  0 inst:  594000004 cyc:  813697450 now IPC :1.77300: AVG IPC :0.72842: L2-Pf-HR :0.77747: L2-HR :0.78815: (Sim:3h11m30s) 
CPU  0 inst:  595000000 cyc:  814266755 now IPC :1.75652: AVG IPC :0.72914: L2-Pf-HR :0.77778: L2-HR :0.78853: (Sim:3h11m40s) 
CPU  0 inst:  596000001 cyc:  814855934 now IPC :1.69728: AVG IPC :0.72984: L2-Pf-HR :0.77804: L2-HR :0.78890: (Sim:3h11m50s) 
CPU  0 inst:  597000001 cyc:  815442370 now IPC :1.70522: AVG IPC :0.73055: L2-Pf-HR :0.77831: L2-HR :0.78927: (Sim:3h11m59s) 
CPU  0 inst:  598000002 cyc:  816035717 now IPC :1.68536: AVG IPC :0.73124: L2-Pf-HR :0.77857: L2-HR :0.78963: (Sim:3h12m9s) 
CPU  0 inst:  599000004 cyc:  816623169 now IPC :1.70227: AVG IPC :0.73194: L2-Pf-HR :0.77884: L2-HR :0.79000: (Sim:3h12m19s) 
CPU  0 inst:  600000001 cyc:  817206694 now IPC :1.71372: AVG IPC :0.73264: L2-Pf-HR :0.77910: L2-HR :0.79036: (Sim:3h12m29s) 
CPU  0 inst:  601000004 cyc:  817773763 now IPC :1.76346: AVG IPC :0.73336: L2-Pf-HR :0.77939: L2-HR :0.79073: (Sim:3h12m38s) 
CPU  0 inst:  602000001 cyc:  818340657 now IPC :1.76399: AVG IPC :0.73407: L2-Pf-HR :0.77970: L2-HR :0.79111: (Sim:3h12m48s) 
CPU  0 inst:  603000002 cyc:  818912020 now IPC :1.75020: AVG IPC :0.73478: L2-Pf-HR :0.78001: L2-HR :0.79149: (Sim:3h12m58s) 
CPU  0 inst:  604000002 cyc:  819486235 now IPC :1.74151: AVG IPC :0.73549: L2-Pf-HR :0.78028: L2-HR :0.79184: (Sim:3h13m10s) 
CPU  0 inst:  605000003 cyc:  820038225 now IPC :1.81163: AVG IPC :0.73621: L2-Pf-HR :0.78058: L2-HR :0.79222: (Sim:3h13m32s) 
CPU  0 inst:  606000000 cyc:  820591527 now IPC :1.80733: AVG IPC :0.73694: L2-Pf-HR :0.78089: L2-HR :0.79260: (Sim:3h13m53s) 
CPU  0 inst:  607000001 cyc:  821149868 now IPC :1.79102: AVG IPC :0.73766: L2-Pf-HR :0.78120: L2-HR :0.79298: (Sim:3h14m15s) 
CPU  0 inst:  608000002 cyc:  821718682 now IPC :1.75805: AVG IPC :0.73836: L2-Pf-HR :0.78147: L2-HR :0.79333: (Sim:3h14m37s) 
CPU  0 inst:  609000003 cyc:  822289135 now IPC :1.75299: AVG IPC :0.73907: L2-Pf-HR :0.78176: L2-HR :0.79369: (Sim:3h14m59s) 
CPU  0 inst:  610000002 cyc:  822851673 now IPC :1.77766: AVG IPC :0.73978: L2-Pf-HR :0.78206: L2-HR :0.79406: (Sim:3h15m20s) 
CPU  0 inst:  611000005 cyc:  823419651 now IPC :1.76064: AVG IPC :0.74048: L2-Pf-HR :0.78236: L2-HR :0.79441: (Sim:3h15m42s) 
CPU  0 inst:  612000005 cyc:  823989871 now IPC :1.75371: AVG IPC :0.74118: L2-Pf-HR :0.78263: L2-HR :0.79476: (Sim:3h16m4s) 
CPU  0 inst:  613000005 cyc:  824586038 now IPC :1.67738: AVG IPC :0.74186: L2-Pf-HR :0.78284: L2-HR :0.79509: (Sim:3h16m26s) 
CPU  0 inst:  614000000 cyc:  825169058 now IPC :1.71520: AVG IPC :0.74255: L2-Pf-HR :0.78310: L2-HR :0.79543: (Sim:3h16m47s) 
CPU  0 inst:  615000000 cyc:  825756956 now IPC :1.70098: AVG IPC :0.74323: L2-Pf-HR :0.78336: L2-HR :0.79578: (Sim:3h17m9s) 
CPU  0 inst:  616000001 cyc:  826340906 now IPC :1.71248: AVG IPC :0.74392: L2-Pf-HR :0.78362: L2-HR :0.79612: (Sim:3h17m31s) 
CPU  0 inst:  617000005 cyc:  826926278 now IPC :1.70832: AVG IPC :0.74460: L2-Pf-HR :0.78384: L2-HR :0.79644: (Sim:3h17m53s) 
CPU  0 inst:  618000003 cyc:  827486719 now IPC :1.78431: AVG IPC :0.74531: L2-Pf-HR :0.78413: L2-HR :0.79680: (Sim:3h18m14s) 
CPU  0 inst:  619000004 cyc:  828053683 now IPC :1.76378: AVG IPC :0.74601: L2-Pf-HR :0.78441: L2-HR :0.79714: (Sim:3h18m36s) 
CPU  0 inst:  620000004 cyc:  828617994 now IPC :1.77207: AVG IPC :0.74671: L2-Pf-HR :0.78470: L2-HR :0.79749: (Sim:3h18m49s) 
CPU  0 inst:  621000005 cyc:  829195344 now IPC :1.73205: AVG IPC :0.74739: L2-Pf-HR :0.78493: L2-HR :0.79781: (Sim:3h18m59s) 
CPU  0 inst:  622000001 cyc:  829744163 now IPC :1.82209: AVG IPC :0.74810: L2-Pf-HR :0.78521: L2-HR :0.79817: (Sim:3h19m8s) 
CPU  0 inst:  623000004 cyc:  830296375 now IPC :1.81090: AVG IPC :0.74881: L2-Pf-HR :0.78550: L2-HR :0.79851: (Sim:3h19m18s) 
CPU  0 inst:  624000003 cyc:  830851432 now IPC :1.80161: AVG IPC :0.74952: L2-Pf-HR :0.78578: L2-HR :0.79886: (Sim:3h19m28s) 
CPU  0 inst:  625000000 cyc:  831428698 now IPC :1.73230: AVG IPC :0.75020: L2-Pf-HR :0.78602: L2-HR :0.79918: (Sim:3h19m37s) 
CPU  0 inst:  626000001 cyc:  831992945 now IPC :1.77228: AVG IPC :0.75089: L2-Pf-HR :0.78630: L2-HR :0.79952: (Sim:3h19m47s) 
CPU  0 inst:  627000003 cyc:  832554904 now IPC :1.77949: AVG IPC :0.75159: L2-Pf-HR :0.78657: L2-HR :0.79985: (Sim:3h19m56s) 
CPU  0 inst:  628000001 cyc:  833125994 now IPC :1.75103: AVG IPC :0.75227: L2-Pf-HR :0.78683: L2-HR :0.80017: (Sim:3h20m6s) 
CPU  0 inst:  629000002 cyc:  833709627 now IPC :1.71341: AVG IPC :0.75295: L2-Pf-HR :0.78706: L2-HR :0.80048: (Sim:3h20m16s) 
CPU  0 inst:  630000001 cyc:  834292850 now IPC :1.71461: AVG IPC :0.75362: L2-Pf-HR :0.78729: L2-HR :0.80080: (Sim:3h20m25s) 
CPU  0 inst:  631000001 cyc:  834883964 now IPC :1.69172: AVG IPC :0.75429: L2-Pf-HR :0.78751: L2-HR :0.80111: (Sim:3h20m35s) 
CPU  0 inst:  632000000 cyc:  835476833 now IPC :1.68671: AVG IPC :0.75495: L2-Pf-HR :0.78772: L2-HR :0.80141: (Sim:3h20m44s) 
CPU  0 inst:  633000003 cyc:  836057882 now IPC :1.72103: AVG IPC :0.75562: L2-Pf-HR :0.78797: L2-HR :0.80174: (Sim:3h20m54s) 
CPU  0 inst:  634000000 cyc:  836635398 now IPC :1.73155: AVG IPC :0.75630: L2-Pf-HR :0.78818: L2-HR :0.80204: (Sim:3h21m4s) 
CPU  0 inst:  635000001 cyc:  837203597 now IPC :1.75995: AVG IPC :0.75698: L2-Pf-HR :0.78843: L2-HR :0.80235: (Sim:3h21m13s) 
CPU  0 inst:  636000001 cyc:  837776305 now IPC :1.74609: AVG IPC :0.75765: L2-Pf-HR :0.78868: L2-HR :0.80266: (Sim:3h21m23s) 
CPU  0 inst:  637000002 cyc:  838345891 now IPC :1.75566: AVG IPC :0.75833: L2-Pf-HR :0.78893: L2-HR :0.80297: (Sim:3h21m33s) 
CPU  0 inst:  638000005 cyc:  838906475 now IPC :1.78386: AVG IPC :0.75902: L2-Pf-HR :0.78918: L2-HR :0.80329: (Sim:3h21m42s) 
CPU  0 inst:  639000001 cyc:  839460974 now IPC :1.80342: AVG IPC :0.75971: L2-Pf-HR :0.78943: L2-HR :0.80361: (Sim:3h21m52s) 
CPU  0 inst:  640000000 cyc:  840017246 now IPC :1.79768: AVG IPC :0.76040: L2-Pf-HR :0.78968: L2-HR :0.80393: (Sim:3h22m2s) 
CPU  0 inst:  641000005 cyc:  840568665 now IPC :1.81351: AVG IPC :0.76109: L2-Pf-HR :0.78995: L2-HR :0.80425: (Sim:3h22m12s) 
CPU  0 inst:  642000005 cyc:  841154695 now IPC :1.70640: AVG IPC :0.76175: L2-Pf-HR :0.79016: L2-HR :0.80454: (Sim:3h22m21s) 
CPU  0 inst:  643000003 cyc:  841719848 now IPC :1.76943: AVG IPC :0.76243: L2-Pf-HR :0.79042: L2-HR :0.80485: (Sim:3h22m31s) 
CPU  0 inst:  644000005 cyc:  842283897 now IPC :1.77290: AVG IPC :0.76310: L2-Pf-HR :0.79067: L2-HR :0.80515: (Sim:3h22m41s) 
CPU  0 inst:  645000002 cyc:  842848397 now IPC :1.77147: AVG IPC :0.76378: L2-Pf-HR :0.79092: L2-HR :0.80546: (Sim:3h22m51s) 
CPU  0 inst:  646000001 cyc:  843446532 now IPC :1.67186: AVG IPC :0.76443: L2-Pf-HR :0.79109: L2-HR :0.80573: (Sim:3h23m1s) 
CPU  0 inst:  647000004 cyc:  844032196 now IPC :1.70747: AVG IPC :0.76508: L2-Pf-HR :0.79131: L2-HR :0.80602: (Sim:3h23m10s) 
CPU  0 inst:  648000004 cyc:  844616395 now IPC :1.71175: AVG IPC :0.76574: L2-Pf-HR :0.79153: L2-HR :0.80632: (Sim:3h23m20s) 
CPU  0 inst:  649000003 cyc:  845201815 now IPC :1.70817: AVG IPC :0.76639: L2-Pf-HR :0.79174: L2-HR :0.80661: (Sim:3h23m29s) 
CPU  0 inst:  650000001 cyc:  845799234 now IPC :1.67386: AVG IPC :0.76703: L2-Pf-HR :0.79191: L2-HR :0.80687: (Sim:3h23m39s) 
CPU  0 inst:  651000000 cyc:  846363861 now IPC :1.77108: AVG IPC :0.76770: L2-Pf-HR :0.79216: L2-HR :0.80718: (Sim:3h23m49s) 
CPU  0 inst:  652000001 cyc:  846922595 now IPC :1.78976: AVG IPC :0.76838: L2-Pf-HR :0.79241: L2-HR :0.80747: (Sim:3h23m58s) 
CPU  0 inst:  653000000 cyc:  847492784 now IPC :1.75380: AVG IPC :0.76904: L2-Pf-HR :0.79265: L2-HR :0.80777: (Sim:3h24m8s) 
CPU  0 inst:  654000004 cyc:  848074719 now IPC :1.71841: AVG IPC :0.76969: L2-Pf-HR :0.79284: L2-HR :0.80804: (Sim:3h24m17s) 
CPU  0 inst:  655000002 cyc:  848627055 now IPC :1.81049: AVG IPC :0.77037: L2-Pf-HR :0.79308: L2-HR :0.80835: (Sim:3h24m27s) 
CPU  0 inst:  656000003 cyc:  849175058 now IPC :1.82481: AVG IPC :0.77105: L2-Pf-HR :0.79332: L2-HR :0.80864: (Sim:3h24m37s) 
CPU  0 inst:  657000001 cyc:  849734363 now IPC :1.78793: AVG IPC :0.77172: L2-Pf-HR :0.79357: L2-HR :0.80894: (Sim:3h24m54s) 
CPU  0 inst:  658000001 cyc:  850295553 now IPC :1.78193: AVG IPC :0.77239: L2-Pf-HR :0.79379: L2-HR :0.80923: (Sim:3h25m16s) 
CPU  0 inst:  659000003 cyc:  850873599 now IPC :1.72997: AVG IPC :0.77304: L2-Pf-HR :0.79401: L2-HR :0.80951: (Sim:3h25m36s) 
Finished CPU 0 instr: 657000002 cyc: 849890304 AVG IPC: 0.77304 (Sim time: 3h25m36s)

ChampSim completed all CPUs

[ROI Statistics]
Core_0_instructions 657000002
Core_0_cycles 849890304
Core_0_IPC 0.77304

Core_0_branch_prediction_accuracy 99.58944
Core_0_branch_MPKI 0.11916
Core_0_average_ROB_occupancy_at_mispredict 572.34427

Core_0_L1D_total_access 196828202
Core_0_L1D_total_hit 170882526 L1D_total_Hit Ratio: 0.86818
Core_0_L1D_total_miss 25945676
Core_0_L1D_loads 165876633
Core_0_L1D_load_hit 151656112 L1D_load_Hit Ratio: 0.91427
Core_0_L1D_load_miss 14220521
Core_0_L1D_RFOs 17296970
Core_0_L1D_RFO_hit 16416378 L1D_RFO_Hit Ratio: 0.94909
Core_0_L1D_RFO_miss 880592
Core_0_L1D_prefetches 13654599
Core_0_L1D_prefetch_hit 2810036 L1D_prefetch_Hit Ratio: 0.20579
Core_0_L1D_prefetch_miss 10844563
Core_0_L1D_writebacks 0
Core_0_L1D_writeback_hit 0 L1D_writeback_Hit Ratio: -nan
Core_0_L1D_writeback_miss 0
Core_0_L1D_prefetch_requested 21805976
Core_0_L1D_prefetch_issued 21805976
Core_0_L1D_prefetch_useful 10659446 L1D_Useful Ratio: 0.48883
Core_0_L1D_prefetch_useless 211999
Core_0_L1D_prefetch_late 1878052
Core_0_L1D_average_miss_latency 46303694.56051

Core_0_L1I_total_access 96884984
Core_0_L1I_total_hit 96879974 L1I_total_Hit Ratio: 0.99995
Core_0_L1I_total_miss 5010
Core_0_L1I_loads 96884984
Core_0_L1I_load_hit 96879974 L1I_load_Hit Ratio: 0.99995
Core_0_L1I_load_miss 5010
Core_0_L1I_RFOs 0
Core_0_L1I_RFO_hit 0 L1I_RFO_Hit Ratio: -nan
Core_0_L1I_RFO_miss 0
Core_0_L1I_prefetches 0
Core_0_L1I_prefetch_hit 0 L1I_prefetch_Hit Ratio: -nan
Core_0_L1I_prefetch_miss 0
Core_0_L1I_writebacks 0
Core_0_L1I_writeback_hit 0 L1I_writeback_Hit Ratio: -nan
Core_0_L1I_writeback_miss 0
Core_0_L1I_prefetch_requested 0
Core_0_L1I_prefetch_issued 0
Core_0_L1I_prefetch_useful 0 L1I_Useful Ratio: -nan
Core_0_L1I_prefetch_useless 0
Core_0_L1I_prefetch_late 0
Core_0_L1I_average_miss_latency 252.99521

Core_0_L2C_total_access 32295454
Core_0_L2C_total_hit 26143358 L2C_total_Hit Ratio: 0.80951
Core_0_L2C_total_miss 6152096
Core_0_L2C_loads 12349161
Core_0_L2C_load_hit 10109098 L2C_load_Hit Ratio: 0.81861
Core_0_L2C_load_miss 2240063
Core_0_L2C_RFOs 880588
Core_0_L2C_RFO_hit 95555 L2C_RFO_Hit Ratio: 0.10851
Core_0_L2C_RFO_miss 785033
Core_0_L2C_prefetches 15172635
Core_0_L2C_prefetch_hit 12047250 L2C_prefetch_Hit Ratio: 0.79401
Core_0_L2C_prefetch_miss 3125385
Core_0_L2C_writebacks 3893070
Core_0_L2C_writeback_hit 3891455 L2C_writeback_Hit Ratio: 0.99959
Core_0_L2C_writeback_miss 1615
Core_0_L2C_prefetch_requested 3830471
Core_0_L2C_prefetch_issued 3830471
Core_0_L2C_prefetch_useful 935853 L2C_Useful Ratio: 0.24432
Core_0_L2C_prefetch_useless 2191353
Core_0_L2C_prefetch_late 681701
Core_0_L2C_average_miss_latency 370.95644

Core_0_LLC_total_access 9794635
Core_0_LLC_total_hit 4181996 LLC_total_Hit Ratio: 0.42697
Core_0_LLC_total_miss 5612639
Core_0_LLC_loads 1558383
Core_0_LLC_load_hit 289234 LLC_load_Hit Ratio: 0.18560
Core_0_LLC_load_miss 1269149
Core_0_LLC_RFOs 785033
Core_0_LLC_RFO_hit 59 LLC_RFO_Hit Ratio: 0.00008
Core_0_LLC_RFO_miss 784974
Core_0_LLC_prefetches 3807060
Core_0_LLC_prefetch_hit 261063 LLC_prefetch_Hit Ratio: 0.06857
Core_0_LLC_prefetch_miss 3545997
Core_0_LLC_writebacks 3644159
Core_0_LLC_writeback_hit 3631640 LLC_writeback_Hit Ratio: 0.99656
Core_0_LLC_writeback_miss 12519
Core_0_LLC_prefetch_requested 0
Core_0_LLC_prefetch_issued 0
Core_0_LLC_prefetch_useful 43415 LLC_Useful Ratio: inf
Core_0_LLC_prefetch_useless 3468638
Core_0_LLC_prefetch_late 0
Core_0_LLC_average_miss_latency 408.81319

Core_0_major_page_fault 0
Core_0_minor_page_fault 37887

[Bingo] PHT Access: 3640409
[Bingo] PHT Hit PC+Addr: 1789995
[Bingo] PHT Hit PC+Offs: 1719075
[Bingo] PHT Miss: 131339
[Bingo] Prefetch PC+Addr: 0
[Bingo] Prefetch PC+Offs: 0
[Bingo] Useful PC+Addr: 0
[Bingo] Useful PC+Offs: 0
[Bingo] Useless PC+Addr: 0
[Bingo] Useless PC+Offs: 0
[Bingo] L1 Prefetch per Region: 7.71439
[Bingo] L2 Prefetch per Region: 0.33064
[Bingo] L3 Prefetch per Region: 0.00000
[Bingo] No Prefetch per Region: 23.95497
[Bingo] Number of Voters Mean: 13.73787
[Bingo] Number of Voters SD: 4.27747
PHT read accesses: 45334529
PHT write accesses: 3442656
AT read accesses: 156633491
AT write accesses: 156633499
FT read accesses: 34480358
FT write accesses: 3640409
PS read accesses: 16940782
PS write accesses: 3509070
PHT tag read accesses: 128089692
PHT tag write accesses: 5232651
AT tag read accesses: 3235527843
AT tag write accesses: 160076155
FT tag read accesses: 838565216
FT tag write accesses: 22700726
PS tag read accesses: 2817256863
PS tag write accesses: 20382157
[Bingo2] PHT Access: 968929
[Bingo2] PHT Hit PC+Addr: 39972
[Bingo2] PHT Hit PC+Offs: 893044
[Bingo2] PHT Miss: 35913
[Bingo2] Prefetch PC+Addr: 0
[Bingo2] Prefetch PC+Offs: 0
[Bingo2] Useful PC+Addr: 0
[Bingo2] Useful PC+Offs: 0
[Bingo2] Useless PC+Addr: 0
[Bingo2] Useless PC+Offs: 0
[Bingo2] L1 Prefetch per Region: 0.00000
[Bingo2] L2 Prefetch per Region: 5.79173
[Bingo2] L3 Prefetch per Region: 0.00000
[Bingo2] No Prefetch per Region: 26.20827
[Bingo2] Number of Voters Mean: 15.45541
[Bingo2] Number of Voters SD: 2.31897
PHT read accesses: 14495593
PHT write accesses: 761644
AT read accesses: 11249254
AT write accesses: 12009404
FT read accesses: 2582527
FT write accesses: 968929
PS read accesses: 2222198
PS write accesses: 933016
PHT tag read accesses: 39288486
PHT tag write accesses: 801616
AT tag read accesses: 332443688
AT tag write accesses: 12010910
FT tag read accesses: 164756556
FT tag write accesses: 2657316
PS tag read accesses: 232048831
PS tag write accesses: 3148740
Channel_0_RQ_row_buffer_hit 3286602
Channel_0_RQ_row_buffer_miss 2313495
Channel_0_WQ_row_buffer_hit 1146063
Channel_0_WQ_row_buffer_miss 2120332
Channel_0_WQ_full 0
Channel_0_dbus_congested 5253937

avg_congested_cycle 11

EzSearch AVG IPC :0.77304: L2-Pf-HR :0.79401 : L2-HR :0.80951 Uful:0.24432
     > Finished combination: TraceType=770-tot Sim:657000000 Prefetcher=L2bingo_dpc3 L1=bingo_dpc3
