TRACE: [496000000][OPT-125M]_[h12][s1024][d64] Warmup: 2000000 NumTraces: 496000000
L1:next_line:L2:029-SecTOP-L2-MultiMarkovDelta_ip_stride_v4-MK2-P30
*************************************************
   ChampSim Multicore Out-of-Order Simulator
   Last compiled: Oct 27 2024 04:57:21
*************************************************

trace_0 770-tot_memTraces_v3/memTraces[496000000][OPT-125M]_[h12][s1024][d64].champsim.xz
CPU 0 L1D next line prefetcher
MK1: Size: 128 TMAX: 64 TMIN: 32 MKPTHRESH: 40
MK2: Size: 256 TMAX: 32 TMIN: 16 MK2PTHRESH: 30
MK3: Size: 384 TMAX: 16 TMIN: 8 MK3PTHRESH: 25
MK4: Size: 512 TMAX: 8 TMIN: 0 MK4PTHRESH: 20
Stride Size: 512 Prefetch Degree: 15

CPU 0 L2C prefetcher
MAIN.cc ln 751 stats print skipped
CPU 0 L2C prefetcher initialized


Cache Size: 1280
number of cache lines: 20480
CPU  0 inst:    1000002 cyc:     500269 now IPC :1.99893: AVG IPC :1.99893: L2-Pf-HR :0.87468: L2-HR :0.84697: (Sim:0h0m21s) 
CPU  0 inst:    2000000 cyc:     984437 now IPC :2.06539: AVG IPC :2.03162: L2-Pf-HR :0.90286: L2-HR :0.87931: (Sim:0h0m43s) 

Warmup complete CPU  0 instructions:    2000002 cycles:     984438 (Simulation time: 0 hr 0 min 43 sec) 

CPU  0 inst:    3000002 cyc:    1474312 now IPC :2.04134: AVG IPC :2.04134: L2-Pf-HR :0.88896: L2-HR :0.85820: (Sim:0h1m1s) 
CPU  0 inst:    4000000 cyc:    1959803 now IPC :2.05977: AVG IPC :2.05051: L2-Pf-HR :0.88502: L2-HR :0.85511: (Sim:0h1m19s) 
CPU  0 inst:    5000005 cyc:    2447506 now IPC :2.05044: AVG IPC :2.05049: L2-Pf-HR :0.88098: L2-HR :0.85172: (Sim:0h1m37s) 
CPU  0 inst:    6000005 cyc:    2931809 now IPC :2.06482: AVG IPC :2.05405: L2-Pf-HR :0.88494: L2-HR :0.85449: (Sim:0h1m54s) 
CPU  0 inst:    7000005 cyc:    3526753 now IPC :1.68083: AVG IPC :1.96671: L2-Pf-HR :0.87880: L2-HR :0.84958: (Sim:0h2m13s) 
CPU  0 inst:    8000001 cyc:    3998843 now IPC :2.11823: AVG IPC :1.99044: L2-Pf-HR :0.87828: L2-HR :0.84939: (Sim:0h2m30s) 
CPU  0 inst:    9000005 cyc:    4471284 now IPC :2.11667: AVG IPC :2.00755: L2-Pf-HR :0.87899: L2-HR :0.85030: (Sim:0h2m48s) 
CPU  0 inst:   10000002 cyc:    4940196 now IPC :2.13259: AVG IPC :2.02237: L2-Pf-HR :0.87955: L2-HR :0.85113: (Sim:0h3m6s) 
CPU  0 inst:   11000003 cyc:    5408742 now IPC :2.13426: AVG IPC :2.03422: L2-Pf-HR :0.88008: L2-HR :0.85174: (Sim:0h3m23s) 
CPU  0 inst:   12000002 cyc:    5880084 now IPC :2.12160: AVG IPC :2.04263: L2-Pf-HR :0.88335: L2-HR :0.85457: (Sim:0h3m41s) 
CPU  0 inst:   13000005 cyc:    6452535 now IPC :1.74688: AVG IPC :2.01167: L2-Pf-HR :0.88462: L2-HR :0.85846: (Sim:0h3m59s) 
CPU  0 inst:   14000005 cyc:    6910427 now IPC :2.18392: AVG IPC :2.02498: L2-Pf-HR :0.88955: L2-HR :0.86644: (Sim:0h4m17s) 
CPU  0 inst:   15000004 cyc:    7367059 now IPC :2.18994: AVG IPC :2.03678: L2-Pf-HR :0.89401: L2-HR :0.87345: (Sim:0h4m34s) 
CPU  0 inst:   16000004 cyc:    7821747 now IPC :2.19931: AVG IPC :2.04759: L2-Pf-HR :0.89953: L2-HR :0.88077: (Sim:0h4m52s) 
CPU  0 inst:   17000004 cyc:    8471963 now IPC :1.53795: AVG IPC :2.00333: L2-Pf-HR :0.89775: L2-HR :0.87869: (Sim:0h5m11s) 
CPU  0 inst:   18000000 cyc:    8960970 now IPC :2.04495: AVG IPC :2.00588: L2-Pf-HR :0.89646: L2-HR :0.87688: (Sim:0h5m29s) 
CPU  0 inst:   19000000 cyc:    9453135 now IPC :2.03184: AVG IPC :2.00739: L2-Pf-HR :0.89538: L2-HR :0.87532: (Sim:0h5m47s) 
CPU  0 inst:   20000003 cyc:    9945361 now IPC :2.03159: AVG IPC :2.00872: L2-Pf-HR :0.89461: L2-HR :0.87411: (Sim:0h6m6s) 
CPU  0 inst:   21000001 cyc:   10439820 now IPC :2.02241: AVG IPC :2.00944: L2-Pf-HR :0.89383: L2-HR :0.87292: (Sim:0h6m23s) 
CPU  0 inst:   22000000 cyc:   10931525 now IPC :2.03374: AVG IPC :2.01064: L2-Pf-HR :0.89403: L2-HR :0.87256: (Sim:0h6m40s) 
CPU  0 inst:   23000000 cyc:   11568438 now IPC :1.57007: AVG IPC :1.98413: L2-Pf-HR :0.89255: L2-HR :0.87089: (Sim:0h6m59s) 
CPU  0 inst:   24000000 cyc:   12041416 now IPC :2.11426: AVG IPC :1.98969: L2-Pf-HR :0.89204: L2-HR :0.87017: (Sim:0h7m16s) 
CPU  0 inst:   25000000 cyc:   12517485 now IPC :2.10054: AVG IPC :1.99427: L2-Pf-HR :0.89174: L2-HR :0.86970: (Sim:0h7m33s) 
CPU  0 inst:   26000004 cyc:   12988583 now IPC :2.12271: AVG IPC :1.99931: L2-Pf-HR :0.89126: L2-HR :0.86908: (Sim:0h7m50s) 
CPU  0 inst:   27000004 cyc:   13458306 now IPC :2.12891: AVG IPC :2.00419: L2-Pf-HR :0.89071: L2-HR :0.86841: (Sim:0h8m8s) 
CPU  0 inst:   28000001 cyc:   13927118 now IPC :2.13304: AVG IPC :2.00886: L2-Pf-HR :0.89120: L2-HR :0.86861: (Sim:0h8m25s) 
CPU  0 inst:   29000005 cyc:   14497141 now IPC :1.75432: AVG IPC :1.99812: L2-Pf-HR :0.89136: L2-HR :0.86937: (Sim:0h8m42s) 
CPU  0 inst:   30000002 cyc:   14957341 now IPC :2.17296: AVG IPC :2.00388: L2-Pf-HR :0.89308: L2-HR :0.87224: (Sim:0h9m0s) 
CPU  0 inst:   31000003 cyc:   15414253 now IPC :2.18861: AVG IPC :2.00973: L2-Pf-HR :0.89488: L2-HR :0.87509: (Sim:0h9m17s) 
CPU  0 inst:   32000004 cyc:   15868590 now IPC :2.20101: AVG IPC :2.01557: L2-Pf-HR :0.89725: L2-HR :0.87830: (Sim:0h9m33s) 
CPU  0 inst:   33000000 cyc:   16523175 now IPC :1.52768: AVG IPC :1.99501: L2-Pf-HR :0.89695: L2-HR :0.87801: (Sim:0h9m52s) 
CPU  0 inst:   34000005 cyc:   17015022 now IPC :2.03316: AVG IPC :1.99618: L2-Pf-HR :0.89634: L2-HR :0.87715: (Sim:0h10m9s) 
CPU  0 inst:   35000005 cyc:   17507576 now IPC :2.03023: AVG IPC :1.99720: L2-Pf-HR :0.89576: L2-HR :0.87637: (Sim:0h10m27s) 
CPU  0 inst:   36000005 cyc:   18000776 now IPC :2.02758: AVG IPC :1.99808: L2-Pf-HR :0.89529: L2-HR :0.87569: (Sim:0h10m44s) 
CPU  0 inst:   37000001 cyc:   18493722 now IPC :2.02861: AVG IPC :1.99894: L2-Pf-HR :0.89489: L2-HR :0.87508: (Sim:0h11m2s) 
CPU  0 inst:   38000004 cyc:   18984059 now IPC :2.03942: AVG IPC :2.00004: L2-Pf-HR :0.89490: L2-HR :0.87482: (Sim:0h11m19s) 
CPU  0 inst:   39000004 cyc:   19604989 now IPC :1.61049: AVG IPC :1.98705: L2-Pf-HR :0.89425: L2-HR :0.87399: (Sim:0h11m37s) 
CPU  0 inst:   40000001 cyc:   20078279 now IPC :2.11286: AVG IPC :1.99017: L2-Pf-HR :0.89389: L2-HR :0.87350: (Sim:0h11m54s) 
CPU  0 inst:   41000001 cyc:   20551143 now IPC :2.11477: AVG IPC :1.99318: L2-Pf-HR :0.89369: L2-HR :0.87312: (Sim:0h12m12s) 
CPU  0 inst:   42000004 cyc:   21028396 now IPC :2.09533: AVG IPC :1.99561: L2-Pf-HR :0.89351: L2-HR :0.87279: (Sim:0h12m29s) 
CPU  0 inst:   43000005 cyc:   21498927 now IPC :2.12526: AVG IPC :1.99859: L2-Pf-HR :0.89327: L2-HR :0.87243: (Sim:0h12m46s) 
CPU  0 inst:   44000000 cyc:   21968913 now IPC :2.12771: AVG IPC :2.00148: L2-Pf-HR :0.89340: L2-HR :0.87237: (Sim:0h13m3s) 
CPU  0 inst:   45000004 cyc:   22543054 now IPC :1.74174: AVG IPC :1.99456: L2-Pf-HR :0.89343: L2-HR :0.87257: (Sim:0h13m21s) 
CPU  0 inst:   46000000 cyc:   23003132 now IPC :2.17354: AVG IPC :1.99830: L2-Pf-HR :0.89444: L2-HR :0.87428: (Sim:0h13m38s) 
CPU  0 inst:   47000000 cyc:   23458135 now IPC :2.19779: AVG IPC :2.00234: L2-Pf-HR :0.89553: L2-HR :0.87604: (Sim:0h13m55s) 
CPU  0 inst:   48000002 cyc:   23916478 now IPC :2.18178: AVG IPC :2.00593: L2-Pf-HR :0.89695: L2-HR :0.87801: (Sim:0h14m12s) 
CPU  0 inst:   49000003 cyc:   24564582 now IPC :1.54296: AVG IPC :1.99320: L2-Pf-HR :0.89718: L2-HR :0.87829: (Sim:0h14m30s) 
CPU  0 inst:   50000004 cyc:   25058289 now IPC :2.02549: AVG IPC :1.99386: L2-Pf-HR :0.89668: L2-HR :0.87763: (Sim:0h14m48s) 
CPU  0 inst:   51000000 cyc:   25547593 now IPC :2.04371: AVG IPC :1.99486: L2-Pf-HR :0.89632: L2-HR :0.87713: (Sim:0h15m5s) 
CPU  0 inst:   52000000 cyc:   26035943 now IPC :2.04771: AVG IPC :1.99589: L2-Pf-HR :0.89600: L2-HR :0.87665: (Sim:0h15m23s) 
CPU  0 inst:   53000000 cyc:   26529365 now IPC :2.02666: AVG IPC :1.99648: L2-Pf-HR :0.89568: L2-HR :0.87618: (Sim:0h15m40s) 
CPU  0 inst:   54000002 cyc:   27022208 now IPC :2.02905: AVG IPC :1.99710: L2-Pf-HR :0.89555: L2-HR :0.87586: (Sim:0h15m58s) 
CPU  0 inst:   55000001 cyc:   27656362 now IPC :1.57690: AVG IPC :1.98711: L2-Pf-HR :0.89524: L2-HR :0.87536: (Sim:0h16m16s) 
CPU  0 inst:   56000000 cyc:   28135992 now IPC :2.08494: AVG IPC :1.98884: L2-Pf-HR :0.89487: L2-HR :0.87489: (Sim:0h16m33s) 
CPU  0 inst:   57000003 cyc:   28608317 now IPC :2.11719: AVG IPC :1.99103: L2-Pf-HR :0.89461: L2-HR :0.87453: (Sim:0h16m51s) 
CPU  0 inst:   58000005 cyc:   29080095 now IPC :2.11965: AVG IPC :1.99319: L2-Pf-HR :0.89437: L2-HR :0.87418: (Sim:0h17m8s) 
CPU  0 inst:   59000002 cyc:   29554600 now IPC :2.10745: AVG IPC :1.99509: L2-Pf-HR :0.89416: L2-HR :0.87389: (Sim:0h17m25s) 
CPU  0 inst:   60000003 cyc:   30021869 now IPC :2.14010: AVG IPC :1.99742: L2-Pf-HR :0.89408: L2-HR :0.87370: (Sim:0h17m42s) 
CPU  0 inst:   61000003 cyc:   30590550 now IPC :1.75846: AVG IPC :1.99283: L2-Pf-HR :0.89412: L2-HR :0.87375: (Sim:0h18m0s) 
CPU  0 inst:   62000000 cyc:   31054918 now IPC :2.15346: AVG IPC :1.99531: L2-Pf-HR :0.89478: L2-HR :0.87492: (Sim:0h18m17s) 
CPU  0 inst:   63000005 cyc:   31511034 now IPC :2.19244: AVG IPC :1.99826: L2-Pf-HR :0.89557: L2-HR :0.87619: (Sim:0h18m34s) 
CPU  0 inst:   64000005 cyc:   31964129 now IPC :2.20704: AVG IPC :2.00131: L2-Pf-HR :0.89655: L2-HR :0.87760: (Sim:0h18m51s) 
CPU  0 inst:   65000000 cyc:   32582518 now IPC :1.61710: AVG IPC :1.99379: L2-Pf-HR :0.89694: L2-HR :0.87810: (Sim:0h19m9s) 
CPU  0 inst:   66000003 cyc:   33084422 now IPC :1.99242: AVG IPC :1.99377: L2-Pf-HR :0.89663: L2-HR :0.87766: (Sim:0h19m27s) 
CPU  0 inst:   67000005 cyc:   33572218 now IPC :2.05004: AVG IPC :1.99461: L2-Pf-HR :0.89636: L2-HR :0.87724: (Sim:0h19m44s) 
CPU  0 inst:   68000000 cyc:   34066652 now IPC :2.02250: AVG IPC :1.99503: L2-Pf-HR :0.89611: L2-HR :0.87687: (Sim:0h20m2s) 
CPU  0 inst:   69000000 cyc:   34560552 now IPC :2.02470: AVG IPC :1.99547: L2-Pf-HR :0.89593: L2-HR :0.87655: (Sim:0h20m19s) 
CPU  0 inst:   70000001 cyc:   35054093 now IPC :2.02618: AVG IPC :1.99591: L2-Pf-HR :0.89582: L2-HR :0.87629: (Sim:0h20m36s) 
CPU  0 inst:   71000003 cyc:   35676550 now IPC :1.60654: AVG IPC :1.98892: L2-Pf-HR :0.89568: L2-HR :0.87597: (Sim:0h20m55s) 
CPU  0 inst:   72000003 cyc:   36167591 now IPC :2.03649: AVG IPC :1.98959: L2-Pf-HR :0.89540: L2-HR :0.87559: (Sim:0h21m12s) 
CPU  0 inst:   73000004 cyc:   36640236 now IPC :2.11575: AVG IPC :1.99126: L2-Pf-HR :0.89521: L2-HR :0.87529: (Sim:0h21m29s) 
CPU  0 inst:   74000005 cyc:   37112834 now IPC :2.11597: AVG IPC :1.99289: L2-Pf-HR :0.89507: L2-HR :0.87504: (Sim:0h21m47s) 
CPU  0 inst:   75000001 cyc:   37585361 now IPC :2.11627: AVG IPC :1.99449: L2-Pf-HR :0.89496: L2-HR :0.87483: (Sim:0h22m4s) 
CPU  0 inst:   76000005 cyc:   38058141 now IPC :2.11516: AVG IPC :1.99602: L2-Pf-HR :0.89490: L2-HR :0.87466: (Sim:0h22m21s) 
CPU  0 inst:   77000001 cyc:   38626345 now IPC :1.75992: AVG IPC :1.99246: L2-Pf-HR :0.89493: L2-HR :0.87461: (Sim:0h22m39s) 
CPU  0 inst:   78000002 cyc:   39101422 now IPC :2.10492: AVG IPC :1.99386: L2-Pf-HR :0.89537: L2-HR :0.87545: (Sim:0h22m56s) 
CPU  0 inst:   79000000 cyc:   39555489 now IPC :2.20231: AVG IPC :1.99632: L2-Pf-HR :0.89597: L2-HR :0.87643: (Sim:0h23m13s) 
CPU  0 inst:   80000000 cyc:   40011061 now IPC :2.19504: AVG IPC :1.99864: L2-Pf-HR :0.89670: L2-HR :0.87751: (Sim:0h23m30s) 
CPU  0 inst:   81000004 cyc:   40626009 now IPC :1.62616: AVG IPC :1.99286: L2-Pf-HR :0.89721: L2-HR :0.87817: (Sim:0h23m48s) 
CPU  0 inst:   82000000 cyc:   41130749 now IPC :1.98121: AVG IPC :1.99271: L2-Pf-HR :0.89687: L2-HR :0.87774: (Sim:0h24m5s) 
CPU  0 inst:   83000004 cyc:   41620717 now IPC :2.04096: AVG IPC :1.99329: L2-Pf-HR :0.89658: L2-HR :0.87736: (Sim:0h24m23s) 
CPU  0 inst:   84000000 cyc:   42108943 now IPC :2.04822: AVG IPC :1.99394: L2-Pf-HR :0.89629: L2-HR :0.87698: (Sim:0h24m40s) 
CPU  0 inst:   85000001 cyc:   42602744 now IPC :2.02511: AVG IPC :1.99431: L2-Pf-HR :0.89606: L2-HR :0.87665: (Sim:0h24m58s) 
CPU  0 inst:   86000002 cyc:   43096344 now IPC :2.02593: AVG IPC :1.99469: L2-Pf-HR :0.89587: L2-HR :0.87637: (Sim:0h25m15s) 
CPU  0 inst:   87000002 cyc:   43689675 now IPC :1.68540: AVG IPC :1.99039: L2-Pf-HR :0.89583: L2-HR :0.87616: (Sim:0h25m33s) 
CPU  0 inst:   88000001 cyc:   44218225 now IPC :1.89197: AVG IPC :1.98918: L2-Pf-HR :0.89554: L2-HR :0.87579: (Sim:0h25m51s) 
CPU  0 inst:   89000001 cyc:   44693024 now IPC :2.10615: AVG IPC :1.99046: L2-Pf-HR :0.89534: L2-HR :0.87552: (Sim:0h26m8s) 
CPU  0 inst:   90000002 cyc:   45165216 now IPC :2.11778: AVG IPC :1.99182: L2-Pf-HR :0.89517: L2-HR :0.87526: (Sim:0h26m25s) 
CPU  0 inst:   91000000 cyc:   45636836 now IPC :2.12035: AVG IPC :1.99317: L2-Pf-HR :0.89505: L2-HR :0.87505: (Sim:0h26m43s) 
CPU  0 inst:   92000005 cyc:   46107709 now IPC :2.12373: AVG IPC :1.99454: L2-Pf-HR :0.89497: L2-HR :0.87489: (Sim:0h27m0s) 
CPU  0 inst:   93000001 cyc:   46660453 now IPC :1.80915: AVG IPC :1.99229: L2-Pf-HR :0.89501: L2-HR :0.87477: (Sim:0h27m17s) 
CPU  0 inst:   94000005 cyc:   47145669 now IPC :2.06095: AVG IPC :1.99301: L2-Pf-HR :0.89530: L2-HR :0.87539: (Sim:0h27m35s) 
CPU  0 inst:   95000001 cyc:   47602636 now IPC :2.18833: AVG IPC :1.99493: L2-Pf-HR :0.89578: L2-HR :0.87619: (Sim:0h27m52s) 
CPU  0 inst:   96000004 cyc:   48060709 now IPC :2.18306: AVG IPC :1.99676: L2-Pf-HR :0.89633: L2-HR :0.87703: (Sim:0h28m9s) 
CPU  0 inst:   97000001 cyc:   48613424 now IPC :1.80925: AVG IPC :1.99458: L2-Pf-HR :0.89696: L2-HR :0.87781: (Sim:0h28m26s) 
CPU  0 inst:   98000000 cyc:   49179569 now IPC :1.76633: AVG IPC :1.99190: L2-Pf-HR :0.89668: L2-HR :0.87745: (Sim:0h28m44s) 
CPU  0 inst:   99000000 cyc:   49669180 now IPC :2.04244: AVG IPC :1.99241: L2-Pf-HR :0.89653: L2-HR :0.87719: (Sim:0h29m2s) 
CPU  0 inst:  100000000 cyc:   50158466 now IPC :2.04379: AVG IPC :1.99292: L2-Pf-HR :0.89639: L2-HR :0.87695: (Sim:0h29m19s) 
CPU  0 inst:  101000000 cyc:   50648733 now IPC :2.03970: AVG IPC :1.99338: L2-Pf-HR :0.89627: L2-HR :0.87673: (Sim:0h29m37s) 
CPU  0 inst:  102000002 cyc:   51142072 now IPC :2.02701: AVG IPC :1.99371: L2-Pf-HR :0.89620: L2-HR :0.87655: (Sim:0h29m54s) 
CPU  0 inst:  103000005 cyc:   51635745 now IPC :2.02564: AVG IPC :1.99403: L2-Pf-HR :0.89633: L2-HR :0.87654: (Sim:0h30m12s) 
CPU  0 inst:  104000005 cyc:   52265034 now IPC :1.58909: AVG IPC :1.98906: L2-Pf-HR :0.89598: L2-HR :0.87613: (Sim:0h30m30s) 
CPU  0 inst:  105000002 cyc:   52737978 now IPC :2.11441: AVG IPC :1.99020: L2-Pf-HR :0.89587: L2-HR :0.87594: (Sim:0h30m47s) 
CPU  0 inst:  106000000 cyc:   53210637 now IPC :2.11569: AVG IPC :1.99134: L2-Pf-HR :0.89575: L2-HR :0.87576: (Sim:0h31m5s) 
CPU  0 inst:  107000000 cyc:   53679571 now IPC :2.13250: AVG IPC :1.99259: L2-Pf-HR :0.89563: L2-HR :0.87559: (Sim:0h31m22s) 
CPU  0 inst:  108000000 cyc:   54152274 now IPC :2.11549: AVG IPC :1.99369: L2-Pf-HR :0.89557: L2-HR :0.87546: (Sim:0h31m39s) 
CPU  0 inst:  109000001 cyc:   54626893 now IPC :2.10696: AVG IPC :1.99469: L2-Pf-HR :0.89573: L2-HR :0.87552: (Sim:0h31m56s) 
CPU  0 inst:  110000000 cyc:   55193265 now IPC :1.76562: AVG IPC :1.99230: L2-Pf-HR :0.89582: L2-HR :0.87583: (Sim:0h32m14s) 
CPU  0 inst:  111000003 cyc:   55654336 now IPC :2.16887: AVG IPC :1.99378: L2-Pf-HR :0.89623: L2-HR :0.87651: (Sim:0h32m31s) 
CPU  0 inst:  112000005 cyc:   56110866 now IPC :2.19044: AVG IPC :1.99541: L2-Pf-HR :0.89668: L2-HR :0.87721: (Sim:0h32m48s) 
CPU  0 inst:  113000003 cyc:   56568370 now IPC :2.18577: AVG IPC :1.99698: L2-Pf-HR :0.89740: L2-HR :0.87811: (Sim:0h33m5s) 
CPU  0 inst:  114000001 cyc:   57223221 now IPC :1.52706: AVG IPC :1.99151: L2-Pf-HR :0.89704: L2-HR :0.87768: (Sim:0h33m23s) 
CPU  0 inst:  115000004 cyc:   57715147 now IPC :2.03283: AVG IPC :1.99187: L2-Pf-HR :0.89684: L2-HR :0.87742: (Sim:0h33m41s) 
CPU  0 inst:  116000001 cyc:   58207413 now IPC :2.03142: AVG IPC :1.99221: L2-Pf-HR :0.89669: L2-HR :0.87719: (Sim:0h33m58s) 
CPU  0 inst:  117000004 cyc:   58699385 now IPC :2.03264: AVG IPC :1.99255: L2-Pf-HR :0.89651: L2-HR :0.87694: (Sim:0h34m16s) 
CPU  0 inst:  118000005 cyc:   59191455 now IPC :2.03223: AVG IPC :1.99289: L2-Pf-HR :0.89636: L2-HR :0.87673: (Sim:0h34m33s) 
CPU  0 inst:  119000002 cyc:   59682316 now IPC :2.03723: AVG IPC :1.99326: L2-Pf-HR :0.89647: L2-HR :0.87671: (Sim:0h34m51s) 
CPU  0 inst:  120000000 cyc:   60311454 now IPC :1.58947: AVG IPC :1.98898: L2-Pf-HR :0.89613: L2-HR :0.87633: (Sim:0h35m9s) 
CPU  0 inst:  121000000 cyc:   60786368 now IPC :2.10564: AVG IPC :1.98990: L2-Pf-HR :0.89600: L2-HR :0.87614: (Sim:0h35m27s) 
CPU  0 inst:  122000001 cyc:   61260566 now IPC :2.10883: AVG IPC :1.99084: L2-Pf-HR :0.89585: L2-HR :0.87594: (Sim:0h35m44s) 
CPU  0 inst:  123000003 cyc:   61734090 now IPC :2.11183: AVG IPC :1.99178: L2-Pf-HR :0.89572: L2-HR :0.87577: (Sim:0h36m1s) 
CPU  0 inst:  124000002 cyc:   62206274 now IPC :2.11782: AVG IPC :1.99275: L2-Pf-HR :0.89562: L2-HR :0.87561: (Sim:0h36m18s) 
CPU  0 inst:  125000005 cyc:   62676726 now IPC :2.12562: AVG IPC :1.99377: L2-Pf-HR :0.89575: L2-HR :0.87564: (Sim:0h36m35s) 
CPU  0 inst:  126000005 cyc:   63249087 now IPC :1.74715: AVG IPC :1.99150: L2-Pf-HR :0.89577: L2-HR :0.87584: (Sim:0h36m53s) 
CPU  0 inst:  127000001 cyc:   63708910 now IPC :2.17474: AVG IPC :1.99284: L2-Pf-HR :0.89612: L2-HR :0.87641: (Sim:0h37m11s) 
CPU  0 inst:  128000005 cyc:   64166119 now IPC :2.18719: AVG IPC :1.99425: L2-Pf-HR :0.89649: L2-HR :0.87700: (Sim:0h37m28s) 
CPU  0 inst:  129000005 cyc:   64621095 now IPC :2.19792: AVG IPC :1.99571: L2-Pf-HR :0.89709: L2-HR :0.87778: (Sim:0h37m44s) 
CPU  0 inst:  130000004 cyc:   65282642 now IPC :1.51161: AVG IPC :1.99072: L2-Pf-HR :0.89692: L2-HR :0.87755: (Sim:0h38m3s) 
CPU  0 inst:  131000002 cyc:   65774694 now IPC :2.03230: AVG IPC :1.99104: L2-Pf-HR :0.89681: L2-HR :0.87738: (Sim:0h38m21s) 
CPU  0 inst:  132000003 cyc:   66268344 now IPC :2.02573: AVG IPC :1.99130: L2-Pf-HR :0.89670: L2-HR :0.87718: (Sim:0h38m38s) 
CPU  0 inst:  133000002 cyc:   66761126 now IPC :2.02929: AVG IPC :1.99159: L2-Pf-HR :0.89660: L2-HR :0.87701: (Sim:0h38m56s) 
CPU  0 inst:  134000003 cyc:   67252983 now IPC :2.03311: AVG IPC :1.99190: L2-Pf-HR :0.89648: L2-HR :0.87682: (Sim:0h39m13s) 
CPU  0 inst:  135000003 cyc:   67745863 now IPC :2.02889: AVG IPC :1.99217: L2-Pf-HR :0.89655: L2-HR :0.87679: (Sim:0h39m31s) 
CPU  0 inst:  136000003 cyc:   68368619 now IPC :1.60577: AVG IPC :1.98860: L2-Pf-HR :0.89630: L2-HR :0.87649: (Sim:0h39m49s) 
CPU  0 inst:  137000001 cyc:   68840853 now IPC :2.11759: AVG IPC :1.98950: L2-Pf-HR :0.89617: L2-HR :0.87632: (Sim:0h40m6s) 
CPU  0 inst:  138000005 cyc:   69314981 now IPC :2.10914: AVG IPC :1.99033: L2-Pf-HR :0.89605: L2-HR :0.87616: (Sim:0h40m24s) 
CPU  0 inst:  139000005 cyc:   69786741 now IPC :2.11972: AVG IPC :1.99121: L2-Pf-HR :0.89590: L2-HR :0.87598: (Sim:0h40m41s) 
CPU  0 inst:  140000002 cyc:   70258748 now IPC :2.11861: AVG IPC :1.99208: L2-Pf-HR :0.89580: L2-HR :0.87584: (Sim:0h40m58s) 
CPU  0 inst:  141000005 cyc:   70728295 now IPC :2.12972: AVG IPC :1.99301: L2-Pf-HR :0.89584: L2-HR :0.87582: (Sim:0h41m15s) 
CPU  0 inst:  142000004 cyc:   71302284 now IPC :1.74219: AVG IPC :1.99096: L2-Pf-HR :0.89586: L2-HR :0.87593: (Sim:0h41m33s) 
CPU  0 inst:  143000004 cyc:   71761035 now IPC :2.17983: AVG IPC :1.99218: L2-Pf-HR :0.89615: L2-HR :0.87642: (Sim:0h41m50s) 
CPU  0 inst:  144000005 cyc:   72219684 now IPC :2.18032: AVG IPC :1.99340: L2-Pf-HR :0.89648: L2-HR :0.87694: (Sim:0h42m7s) 
CPU  0 inst:  145000000 cyc:   72674116 now IPC :2.20054: AVG IPC :1.99471: L2-Pf-HR :0.89696: L2-HR :0.87758: (Sim:0h42m24s) 
CPU  0 inst:  146000001 cyc:   73324337 now IPC :1.53794: AVG IPC :1.99060: L2-Pf-HR :0.89689: L2-HR :0.87749: (Sim:0h42m43s) 
CPU  0 inst:  147000002 cyc:   73815383 now IPC :2.03647: AVG IPC :1.99091: L2-Pf-HR :0.89679: L2-HR :0.87733: (Sim:0h43m0s) 
CPU  0 inst:  148000000 cyc:   74308880 now IPC :2.02635: AVG IPC :1.99115: L2-Pf-HR :0.89670: L2-HR :0.87718: (Sim:0h43m18s) 
CPU  0 inst:  149000004 cyc:   74800913 now IPC :2.03239: AVG IPC :1.99143: L2-Pf-HR :0.89659: L2-HR :0.87701: (Sim:0h43m35s) 
CPU  0 inst:  150000005 cyc:   75292174 now IPC :2.03558: AVG IPC :1.99172: L2-Pf-HR :0.89650: L2-HR :0.87686: (Sim:0h43m53s) 
CPU  0 inst:  151000003 cyc:   75781129 now IPC :2.04517: AVG IPC :1.99207: L2-Pf-HR :0.89653: L2-HR :0.87680: (Sim:0h44m10s) 
CPU  0 inst:  152000000 cyc:   76416203 now IPC :1.57461: AVG IPC :1.98855: L2-Pf-HR :0.89637: L2-HR :0.87659: (Sim:0h44m29s) 
CPU  0 inst:  153000004 cyc:   76894751 now IPC :2.08966: AVG IPC :1.98919: L2-Pf-HR :0.89627: L2-HR :0.87645: (Sim:0h44m46s) 
CPU  0 inst:  154000003 cyc:   77366144 now IPC :2.12137: AVG IPC :1.99001: L2-Pf-HR :0.89620: L2-HR :0.87633: (Sim:0h45m4s) 
CPU  0 inst:  155000003 cyc:   77839438 now IPC :2.11285: AVG IPC :1.99076: L2-Pf-HR :0.89615: L2-HR :0.87622: (Sim:0h45m21s) 
CPU  0 inst:  156000003 cyc:   78309756 now IPC :2.12622: AVG IPC :1.99159: L2-Pf-HR :0.89607: L2-HR :0.87610: (Sim:0h45m38s) 
CPU  0 inst:  157000003 cyc:   78779950 now IPC :2.12678: AVG IPC :1.99240: L2-Pf-HR :0.89609: L2-HR :0.87606: (Sim:0h45m55s) 
CPU  0 inst:  158000000 cyc:   79351833 now IPC :1.74860: AVG IPC :1.99062: L2-Pf-HR :0.89610: L2-HR :0.87611: (Sim:0h46m13s) 
CPU  0 inst:  159000002 cyc:   79812758 now IPC :2.16955: AVG IPC :1.99167: L2-Pf-HR :0.89637: L2-HR :0.87657: (Sim:0h46m30s) 
CPU  0 inst:  160000000 cyc:   80267285 now IPC :2.20008: AVG IPC :1.99286: L2-Pf-HR :0.89667: L2-HR :0.87706: (Sim:0h46m47s) 
CPU  0 inst:  161000000 cyc:   80724211 now IPC :2.18854: AVG IPC :1.99399: L2-Pf-HR :0.89707: L2-HR :0.87762: (Sim:0h47m4s) 
CPU  0 inst:  162000005 cyc:   81365890 now IPC :1.55842: AVG IPC :1.99051: L2-Pf-HR :0.89712: L2-HR :0.87769: (Sim:0h47m23s) 
CPU  0 inst:  163000001 cyc:   81865334 now IPC :2.00222: AVG IPC :1.99058: L2-Pf-HR :0.89702: L2-HR :0.87754: (Sim:0h47m40s) 
CPU  0 inst:  164000002 cyc:   82355809 now IPC :2.03884: AVG IPC :1.99087: L2-Pf-HR :0.89694: L2-HR :0.87741: (Sim:0h47m58s) 
CPU  0 inst:  165000001 cyc:   82844004 now IPC :2.04836: AVG IPC :1.99121: L2-Pf-HR :0.89685: L2-HR :0.87726: (Sim:0h48m15s) 
CPU  0 inst:  166000002 cyc:   83331878 now IPC :2.04971: AVG IPC :1.99156: L2-Pf-HR :0.89675: L2-HR :0.87711: (Sim:0h48m33s) 
CPU  0 inst:  167000000 cyc:   83823240 now IPC :2.03516: AVG IPC :1.99182: L2-Pf-HR :0.89674: L2-HR :0.87703: (Sim:0h48m50s) 
CPU  0 inst:  168000003 cyc:   84465201 now IPC :1.55773: AVG IPC :1.98848: L2-Pf-HR :0.89664: L2-HR :0.87687: (Sim:0h49m8s) 
CPU  0 inst:  169000004 cyc:   84941757 now IPC :2.09839: AVG IPC :1.98911: L2-Pf-HR :0.89654: L2-HR :0.87673: (Sim:0h49m26s) 
CPU  0 inst:  170000004 cyc:   85415963 now IPC :2.10879: AVG IPC :1.98978: L2-Pf-HR :0.89646: L2-HR :0.87660: (Sim:0h49m43s) 
CPU  0 inst:  171000004 cyc:   85888401 now IPC :2.11668: AVG IPC :1.99048: L2-Pf-HR :0.89640: L2-HR :0.87649: (Sim:0h50m0s) 
CPU  0 inst:  172000004 cyc:   86360221 now IPC :2.11945: AVG IPC :1.99120: L2-Pf-HR :0.89633: L2-HR :0.87637: (Sim:0h50m17s) 
CPU  0 inst:  173000004 cyc:   86828479 now IPC :2.13557: AVG IPC :1.99198: L2-Pf-HR :0.89629: L2-HR :0.87629: (Sim:0h50m34s) 
CPU  0 inst:  174000001 cyc:   87399597 now IPC :1.75095: AVG IPC :1.99039: L2-Pf-HR :0.89630: L2-HR :0.87630: (Sim:0h50m52s) 
CPU  0 inst:  175000005 cyc:   87860365 now IPC :2.17030: AVG IPC :1.99135: L2-Pf-HR :0.89652: L2-HR :0.87669: (Sim:0h51m9s) 
CPU  0 inst:  176000001 cyc:   88318578 now IPC :2.18238: AVG IPC :1.99235: L2-Pf-HR :0.89679: L2-HR :0.87713: (Sim:0h51m26s) 
CPU  0 inst:  177000001 cyc:   88775558 now IPC :2.18828: AVG IPC :1.99337: L2-Pf-HR :0.89712: L2-HR :0.87762: (Sim:0h51m43s) 
CPU  0 inst:  178000001 cyc:   89407090 now IPC :1.58345: AVG IPC :1.99044: L2-Pf-HR :0.89724: L2-HR :0.87777: (Sim:0h52m1s) 
CPU  0 inst:  179000005 cyc:   89905689 now IPC :2.00563: AVG IPC :1.99053: L2-Pf-HR :0.89712: L2-HR :0.87761: (Sim:0h52m19s) 
CPU  0 inst:  180000000 cyc:   90396274 now IPC :2.03837: AVG IPC :1.99079: L2-Pf-HR :0.89702: L2-HR :0.87747: (Sim:0h52m37s) 
CPU  0 inst:  181000004 cyc:   90887246 now IPC :2.03678: AVG IPC :1.99104: L2-Pf-HR :0.89693: L2-HR :0.87733: (Sim:0h52m54s) 
CPU  0 inst:  182000005 cyc:   91380053 now IPC :2.02919: AVG IPC :1.99125: L2-Pf-HR :0.89684: L2-HR :0.87719: (Sim:0h53m12s) 
CPU  0 inst:  183000003 cyc:   91868831 now IPC :2.04591: AVG IPC :1.99154: L2-Pf-HR :0.89678: L2-HR :0.87707: (Sim:0h53m29s) 
CPU  0 inst:  184000004 cyc:   92502078 now IPC :1.57916: AVG IPC :1.98869: L2-Pf-HR :0.89672: L2-HR :0.87695: (Sim:0h53m47s) 
CPU  0 inst:  185000005 cyc:   92992652 now IPC :2.03843: AVG IPC :1.98895: L2-Pf-HR :0.89662: L2-HR :0.87682: (Sim:0h54m5s) 
CPU  0 inst:  186000005 cyc:   93460785 now IPC :2.13615: AVG IPC :1.98970: L2-Pf-HR :0.89655: L2-HR :0.87671: (Sim:0h54m22s) 
CPU  0 inst:  187000005 cyc:   93931647 now IPC :2.12376: AVG IPC :1.99038: L2-Pf-HR :0.89650: L2-HR :0.87661: (Sim:0h54m39s) 
CPU  0 inst:  188000005 cyc:   94405645 now IPC :2.10971: AVG IPC :1.99098: L2-Pf-HR :0.89645: L2-HR :0.87653: (Sim:0h54m57s) 
CPU  0 inst:  189000002 cyc:   94879850 now IPC :2.10879: AVG IPC :1.99158: L2-Pf-HR :0.89643: L2-HR :0.87646: (Sim:0h55m14s) 
CPU  0 inst:  190000002 cyc:   95451131 now IPC :1.75045: AVG IPC :1.99012: L2-Pf-HR :0.89642: L2-HR :0.87643: (Sim:0h55m32s) 
CPU  0 inst:  191000003 cyc:   95920637 now IPC :2.12990: AVG IPC :1.99081: L2-Pf-HR :0.89660: L2-HR :0.87677: (Sim:0h55m49s) 
CPU  0 inst:  192000005 cyc:   96379418 now IPC :2.17969: AVG IPC :1.99172: L2-Pf-HR :0.89684: L2-HR :0.87716: (Sim:0h56m6s) 
CPU  0 inst:  193000001 cyc:   96836655 now IPC :2.18704: AVG IPC :1.99265: L2-Pf-HR :0.89711: L2-HR :0.87757: (Sim:0h56m23s) 
CPU  0 inst:  194000004 cyc:   98688989 now IPC :0.53986: AVG IPC :1.96511: L2-Pf-HR :0.89679: L2-HR :0.87680: (Sim:0h56m48s) 
CPU  0 inst:  195000000 cyc:  103958072 now IPC :0.18979: AVG IPC :1.87427: L2-Pf-HR :0.89460: L2-HR :0.87266: (Sim:0h57m41s) 
CPU  0 inst:  196000005 cyc:  109369564 now IPC :0.18479: AVG IPC :1.78991: L2-Pf-HR :0.89240: L2-HR :0.86861: (Sim:0h58m19s) 
CPU  0 inst:  197000001 cyc:  114775319 now IPC :0.18499: AVG IPC :1.71367: L2-Pf-HR :0.89022: L2-HR :0.86466: (Sim:0h58m44s) 
CPU  0 inst:  198000004 cyc:  120182434 now IPC :0.18494: AVG IPC :1.64432: L2-Pf-HR :0.88806: L2-HR :0.86081: (Sim:0h59m9s) 
CPU  0 inst:  199000002 cyc:  125590583 now IPC :0.18491: AVG IPC :1.58098: L2-Pf-HR :0.88591: L2-HR :0.85704: (Sim:0h59m35s) 
CPU  0 inst:  200000001 cyc:  130994236 now IPC :0.18506: AVG IPC :1.52296: L2-Pf-HR :0.88376: L2-HR :0.85335: (Sim:1h0m0s) 
CPU  0 inst:  201000000 cyc:  136129985 now IPC :0.19471: AVG IPC :1.47249: L2-Pf-HR :0.88189: L2-HR :0.85018: (Sim:1h0m24s) 
CPU  0 inst:  202000000 cyc:  139828318 now IPC :0.27039: AVG IPC :1.44047: L2-Pf-HR :0.88183: L2-HR :0.84997: (Sim:1h0m41s) 
CPU  0 inst:  203000002 cyc:  143526736 now IPC :0.27039: AVG IPC :1.41011: L2-Pf-HR :0.88178: L2-HR :0.84977: (Sim:1h0m57s) 
CPU  0 inst:  204000005 cyc:  147226373 now IPC :0.27030: AVG IPC :1.38127: L2-Pf-HR :0.88174: L2-HR :0.84957: (Sim:1h1m14s) 
CPU  0 inst:  205000000 cyc:  150921744 now IPC :0.27061: AVG IPC :1.35390: L2-Pf-HR :0.88170: L2-HR :0.84939: (Sim:1h1m30s) 
CPU  0 inst:  206000000 cyc:  154617753 now IPC :0.27056: AVG IPC :1.32784: L2-Pf-HR :0.88167: L2-HR :0.84921: (Sim:1h1m46s) 
CPU  0 inst:  207000000 cyc:  158313660 now IPC :0.27057: AVG IPC :1.30300: L2-Pf-HR :0.88164: L2-HR :0.84903: (Sim:1h2m3s) 
CPU  0 inst:  208000004 cyc:  162009006 now IPC :0.27061: AVG IPC :1.27931: L2-Pf-HR :0.88160: L2-HR :0.84885: (Sim:1h2m19s) 
CPU  0 inst:  209000000 cyc:  165704629 now IPC :0.27059: AVG IPC :1.25668: L2-Pf-HR :0.88157: L2-HR :0.84867: (Sim:1h2m35s) 
CPU  0 inst:  210000001 cyc:  169400889 now IPC :0.27054: AVG IPC :1.23503: L2-Pf-HR :0.88153: L2-HR :0.84849: (Sim:1h2m51s) 
CPU  0 inst:  211000001 cyc:  173097707 now IPC :0.27050: AVG IPC :1.21432: L2-Pf-HR :0.88150: L2-HR :0.84831: (Sim:1h3m7s) 
CPU  0 inst:  212000004 cyc:  176795457 now IPC :0.27044: AVG IPC :1.19446: L2-Pf-HR :0.88147: L2-HR :0.84815: (Sim:1h3m24s) 
CPU  0 inst:  213000000 cyc:  180491462 now IPC :0.27056: AVG IPC :1.17544: L2-Pf-HR :0.88144: L2-HR :0.84797: (Sim:1h3m40s) 
CPU  0 inst:  214000000 cyc:  184187189 now IPC :0.27058: AVG IPC :1.15719: L2-Pf-HR :0.88141: L2-HR :0.84780: (Sim:1h4m10s) 
CPU  0 inst:  215000000 cyc:  187882638 now IPC :0.27060: AVG IPC :1.13966: L2-Pf-HR :0.88137: L2-HR :0.84763: (Sim:1h4m46s) 
CPU  0 inst:  216000000 cyc:  191577660 now IPC :0.27063: AVG IPC :1.12281: L2-Pf-HR :0.88134: L2-HR :0.84746: (Sim:1h5m13s) 
CPU  0 inst:  217000000 cyc:  195273077 now IPC :0.27061: AVG IPC :1.10660: L2-Pf-HR :0.88131: L2-HR :0.84729: (Sim:1h5m30s) 
CPU  0 inst:  218000001 cyc:  198969731 now IPC :0.27052: AVG IPC :1.09099: L2-Pf-HR :0.88128: L2-HR :0.84713: (Sim:1h5m46s) 
CPU  0 inst:  219000003 cyc:  202668662 now IPC :0.27035: AVG IPC :1.07594: L2-Pf-HR :0.88125: L2-HR :0.84696: (Sim:1h6m2s) 
CPU  0 inst:  220000000 cyc:  206364415 now IPC :0.27058: AVG IPC :1.06145: L2-Pf-HR :0.88122: L2-HR :0.84680: (Sim:1h6m18s) 
CPU  0 inst:  221000000 cyc:  210059750 now IPC :0.27061: AVG IPC :1.04747: L2-Pf-HR :0.88119: L2-HR :0.84663: (Sim:1h6m35s) 
CPU  0 inst:  222000000 cyc:  213754050 now IPC :0.27069: AVG IPC :1.03398: L2-Pf-HR :0.88116: L2-HR :0.84648: (Sim:1h6m59s) 
CPU  0 inst:  223000000 cyc:  217450203 now IPC :0.27055: AVG IPC :1.02095: L2-Pf-HR :0.88113: L2-HR :0.84632: (Sim:1h7m35s) 
CPU  0 inst:  224000000 cyc:  221146128 now IPC :0.27057: AVG IPC :1.00835: L2-Pf-HR :0.88110: L2-HR :0.84615: (Sim:1h8m10s) 
CPU  0 inst:  225000001 cyc:  224840825 now IPC :0.27066: AVG IPC :0.99617: L2-Pf-HR :0.88108: L2-HR :0.84601: (Sim:1h8m46s) 
CPU  0 inst:  226000001 cyc:  228539007 now IPC :0.27040: AVG IPC :0.98438: L2-Pf-HR :0.88105: L2-HR :0.84585: (Sim:1h9m22s) 
CPU  0 inst:  227000000 cyc:  232236922 now IPC :0.27042: AVG IPC :0.97296: L2-Pf-HR :0.88102: L2-HR :0.84569: (Sim:1h9m58s) 
CPU  0 inst:  228000000 cyc:  235932121 now IPC :0.27062: AVG IPC :0.96192: L2-Pf-HR :0.88099: L2-HR :0.84554: (Sim:1h10m34s) 
CPU  0 inst:  229000004 cyc:  239627445 now IPC :0.27061: AVG IPC :0.95121: L2-Pf-HR :0.88096: L2-HR :0.84538: (Sim:1h11m10s) 
CPU  0 inst:  230000000 cyc:  243321988 now IPC :0.27067: AVG IPC :0.94084: L2-Pf-HR :0.88094: L2-HR :0.84524: (Sim:1h11m46s) 
CPU  0 inst:  231000000 cyc:  247017135 now IPC :0.27063: AVG IPC :0.93077: L2-Pf-HR :0.88091: L2-HR :0.84509: (Sim:1h12m22s) 
CPU  0 inst:  232000000 cyc:  250713221 now IPC :0.27056: AVG IPC :0.92100: L2-Pf-HR :0.88088: L2-HR :0.84493: (Sim:1h12m58s) 
CPU  0 inst:  233000000 cyc:  254408445 now IPC :0.27062: AVG IPC :0.91152: L2-Pf-HR :0.88086: L2-HR :0.84479: (Sim:1h13m34s) 
CPU  0 inst:  234000003 cyc:  258105614 now IPC :0.27048: AVG IPC :0.90230: L2-Pf-HR :0.88084: L2-HR :0.84465: (Sim:1h14m10s) 
CPU  0 inst:  235000000 cyc:  261801704 now IPC :0.27056: AVG IPC :0.89335: L2-Pf-HR :0.88082: L2-HR :0.84450: (Sim:1h14m46s) 
CPU  0 inst:  236000000 cyc:  265497889 now IPC :0.27055: AVG IPC :0.88464: L2-Pf-HR :0.88079: L2-HR :0.84436: (Sim:1h15m22s) 
CPU  0 inst:  237000000 cyc:  269193241 now IPC :0.27061: AVG IPC :0.87618: L2-Pf-HR :0.88076: L2-HR :0.84421: (Sim:1h15m58s) 
CPU  0 inst:  238000000 cyc:  272888535 now IPC :0.27061: AVG IPC :0.86795: L2-Pf-HR :0.88073: L2-HR :0.84407: (Sim:1h16m34s) 
CPU  0 inst:  239000000 cyc:  276584145 now IPC :0.27059: AVG IPC :0.85994: L2-Pf-HR :0.88071: L2-HR :0.84392: (Sim:1h17m12s) 
CPU  0 inst:  240000000 cyc:  280279897 now IPC :0.27058: AVG IPC :0.85214: L2-Pf-HR :0.88068: L2-HR :0.84378: (Sim:1h17m50s) 
CPU  0 inst:  241000001 cyc:  283976775 now IPC :0.27050: AVG IPC :0.84455: L2-Pf-HR :0.88066: L2-HR :0.84364: (Sim:1h18m29s) 
CPU  0 inst:  242000000 cyc:  287674922 now IPC :0.27041: AVG IPC :0.83714: L2-Pf-HR :0.88063: L2-HR :0.84350: (Sim:1h19m7s) 
CPU  0 inst:  243000000 cyc:  291370854 now IPC :0.27057: AVG IPC :0.82993: L2-Pf-HR :0.88060: L2-HR :0.84336: (Sim:1h19m45s) 
CPU  0 inst:  244000000 cyc:  295066180 now IPC :0.27061: AVG IPC :0.82290: L2-Pf-HR :0.88058: L2-HR :0.84322: (Sim:1h20m23s) 
CPU  0 inst:  245000000 cyc:  298761784 now IPC :0.27059: AVG IPC :0.81605: L2-Pf-HR :0.88055: L2-HR :0.84308: (Sim:1h21m1s) 
CPU  0 inst:  246000004 cyc:  302457427 now IPC :0.27059: AVG IPC :0.80936: L2-Pf-HR :0.88053: L2-HR :0.84295: (Sim:1h21m39s) 
CPU  0 inst:  247000000 cyc:  306152721 now IPC :0.27061: AVG IPC :0.80284: L2-Pf-HR :0.88050: L2-HR :0.84281: (Sim:1h22m17s) 
CPU  0 inst:  248000002 cyc:  309849641 now IPC :0.27050: AVG IPC :0.79646: L2-Pf-HR :0.88048: L2-HR :0.84268: (Sim:1h22m55s) 
CPU  0 inst:  249000003 cyc:  313547104 now IPC :0.27046: AVG IPC :0.79024: L2-Pf-HR :0.88045: L2-HR :0.84254: (Sim:1h23m33s) 
CPU  0 inst:  250000004 cyc:  317242213 now IPC :0.27063: AVG IPC :0.78417: L2-Pf-HR :0.88043: L2-HR :0.84242: (Sim:1h24m11s) 
CPU  0 inst:  251000000 cyc:  320938700 now IPC :0.27053: AVG IPC :0.77824: L2-Pf-HR :0.88040: L2-HR :0.84228: (Sim:1h24m49s) 
CPU  0 inst:  252000000 cyc:  324633742 now IPC :0.27063: AVG IPC :0.77244: L2-Pf-HR :0.88038: L2-HR :0.84215: (Sim:1h25m27s) 
CPU  0 inst:  253000000 cyc:  328329659 now IPC :0.27057: AVG IPC :0.76677: L2-Pf-HR :0.88035: L2-HR :0.84202: (Sim:1h26m5s) 
CPU  0 inst:  254000000 cyc:  332026118 now IPC :0.27053: AVG IPC :0.76123: L2-Pf-HR :0.88033: L2-HR :0.84188: (Sim:1h26m43s) 
CPU  0 inst:  255000002 cyc:  335721623 now IPC :0.27060: AVG IPC :0.75582: L2-Pf-HR :0.88031: L2-HR :0.84176: (Sim:1h27m21s) 
CPU  0 inst:  256000001 cyc:  339420035 now IPC :0.27039: AVG IPC :0.75051: L2-Pf-HR :0.88028: L2-HR :0.84162: (Sim:1h27m59s) 
CPU  0 inst:  257000000 cyc:  343116337 now IPC :0.27054: AVG IPC :0.74533: L2-Pf-HR :0.88026: L2-HR :0.84150: (Sim:1h28m37s) 
CPU  0 inst:  258000000 cyc:  346811064 now IPC :0.27066: AVG IPC :0.74026: L2-Pf-HR :0.88024: L2-HR :0.84138: (Sim:1h29m15s) 
CPU  0 inst:  259000000 cyc:  350506146 now IPC :0.27063: AVG IPC :0.73529: L2-Pf-HR :0.88022: L2-HR :0.84125: (Sim:1h29m53s) 
CPU  0 inst:  260000000 cyc:  354200978 now IPC :0.27065: AVG IPC :0.73043: L2-Pf-HR :0.88020: L2-HR :0.84113: (Sim:1h30m31s) 
CPU  0 inst:  261000000 cyc:  357895322 now IPC :0.27068: AVG IPC :0.72567: L2-Pf-HR :0.88018: L2-HR :0.84102: (Sim:1h31m10s) 
CPU  0 inst:  262000000 cyc:  361590848 now IPC :0.27060: AVG IPC :0.72101: L2-Pf-HR :0.88016: L2-HR :0.84089: (Sim:1h31m48s) 
CPU  0 inst:  263000001 cyc:  365287808 now IPC :0.27049: AVG IPC :0.71644: L2-Pf-HR :0.88014: L2-HR :0.84077: (Sim:1h32m26s) 
CPU  0 inst:  264000003 cyc:  368986052 now IPC :0.27040: AVG IPC :0.71195: L2-Pf-HR :0.88012: L2-HR :0.84065: (Sim:1h33m4s) 
CPU  0 inst:  265000000 cyc:  372681324 now IPC :0.27062: AVG IPC :0.70757: L2-Pf-HR :0.88010: L2-HR :0.84053: (Sim:1h33m43s) 
CPU  0 inst:  266000000 cyc:  376376549 now IPC :0.27062: AVG IPC :0.70326: L2-Pf-HR :0.88007: L2-HR :0.84041: (Sim:1h34m21s) 
CPU  0 inst:  267000004 cyc:  380071559 now IPC :0.27064: AVG IPC :0.69905: L2-Pf-HR :0.88006: L2-HR :0.84030: (Sim:1h34m59s) 
CPU  0 inst:  268000000 cyc:  383766576 now IPC :0.27063: AVG IPC :0.69491: L2-Pf-HR :0.88003: L2-HR :0.84018: (Sim:1h35m37s) 
CPU  0 inst:  269000000 cyc:  387463621 now IPC :0.27049: AVG IPC :0.69085: L2-Pf-HR :0.88000: L2-HR :0.84005: (Sim:1h36m15s) 
CPU  0 inst:  270000001 cyc:  391159661 now IPC :0.27056: AVG IPC :0.68687: L2-Pf-HR :0.87999: L2-HR :0.83994: (Sim:1h36m53s) 
CPU  0 inst:  271000001 cyc:  394856939 now IPC :0.27047: AVG IPC :0.68296: L2-Pf-HR :0.87997: L2-HR :0.83983: (Sim:1h37m32s) 
CPU  0 inst:  272000000 cyc:  398554332 now IPC :0.27046: AVG IPC :0.67913: L2-Pf-HR :0.87995: L2-HR :0.83971: (Sim:1h38m10s) 
CPU  0 inst:  273000000 cyc:  402249445 now IPC :0.27063: AVG IPC :0.67536: L2-Pf-HR :0.87993: L2-HR :0.83960: (Sim:1h38m48s) 
CPU  0 inst:  274000000 cyc:  405944682 now IPC :0.27062: AVG IPC :0.67167: L2-Pf-HR :0.87991: L2-HR :0.83948: (Sim:1h39m26s) 
CPU  0 inst:  275000000 cyc:  409640018 now IPC :0.27061: AVG IPC :0.66804: L2-Pf-HR :0.87988: L2-HR :0.83937: (Sim:1h40m4s) 
CPU  0 inst:  276000000 cyc:  413333629 now IPC :0.27074: AVG IPC :0.66449: L2-Pf-HR :0.87987: L2-HR :0.83926: (Sim:1h40m42s) 
CPU  0 inst:  277000000 cyc:  417028614 now IPC :0.27064: AVG IPC :0.66099: L2-Pf-HR :0.87985: L2-HR :0.83915: (Sim:1h41m20s) 
CPU  0 inst:  278000001 cyc:  420725627 now IPC :0.27049: AVG IPC :0.65755: L2-Pf-HR :0.87983: L2-HR :0.83904: (Sim:1h41m58s) 
CPU  0 inst:  279000003 cyc:  424423313 now IPC :0.27044: AVG IPC :0.65417: L2-Pf-HR :0.87981: L2-HR :0.83893: (Sim:1h42m34s) 
CPU  0 inst:  280000000 cyc:  428118555 now IPC :0.27062: AVG IPC :0.65085: L2-Pf-HR :0.87980: L2-HR :0.83882: (Sim:1h43m9s) 
CPU  0 inst:  281000000 cyc:  431813745 now IPC :0.27062: AVG IPC :0.64759: L2-Pf-HR :0.87978: L2-HR :0.83872: (Sim:1h43m45s) 
CPU  0 inst:  282000000 cyc:  435508527 now IPC :0.27065: AVG IPC :0.64438: L2-Pf-HR :0.87976: L2-HR :0.83861: (Sim:1h44m21s) 
CPU  0 inst:  283000000 cyc:  439202379 now IPC :0.27072: AVG IPC :0.64123: L2-Pf-HR :0.87975: L2-HR :0.83851: (Sim:1h44m57s) 
CPU  0 inst:  284000004 cyc:  442898645 now IPC :0.27054: AVG IPC :0.63813: L2-Pf-HR :0.87973: L2-HR :0.83840: (Sim:1h45m33s) 
CPU  0 inst:  285000000 cyc:  446593982 now IPC :0.27061: AVG IPC :0.63509: L2-Pf-HR :0.87971: L2-HR :0.83829: (Sim:1h46m8s) 
CPU  0 inst:  286000003 cyc:  450292685 now IPC :0.27037: AVG IPC :0.63208: L2-Pf-HR :0.87969: L2-HR :0.83819: (Sim:1h46m44s) 
CPU  0 inst:  287000000 cyc:  453988727 now IPC :0.27056: AVG IPC :0.62913: L2-Pf-HR :0.87967: L2-HR :0.83809: (Sim:1h47m20s) 
CPU  0 inst:  288000004 cyc:  457683333 now IPC :0.27067: AVG IPC :0.62623: L2-Pf-HR :0.87966: L2-HR :0.83798: (Sim:1h47m56s) 
CPU  0 inst:  289000000 cyc:  461379766 now IPC :0.27053: AVG IPC :0.62338: L2-Pf-HR :0.87964: L2-HR :0.83788: (Sim:1h48m32s) 
CPU  0 inst:  290000000 cyc:  465074831 now IPC :0.27063: AVG IPC :0.62057: L2-Pf-HR :0.87962: L2-HR :0.83778: (Sim:1h49m7s) 
CPU  0 inst:  291000000 cyc:  468770484 now IPC :0.27059: AVG IPC :0.61780: L2-Pf-HR :0.87960: L2-HR :0.83768: (Sim:1h49m43s) 
CPU  0 inst:  292000000 cyc:  472466105 now IPC :0.27059: AVG IPC :0.61508: L2-Pf-HR :0.87958: L2-HR :0.83757: (Sim:1h50m19s) 
CPU  0 inst:  293000001 cyc:  476162639 now IPC :0.27052: AVG IPC :0.61240: L2-Pf-HR :0.87957: L2-HR :0.83747: (Sim:1h50m55s) 
CPU  0 inst:  294000001 cyc:  479860290 now IPC :0.27044: AVG IPC :0.60976: L2-Pf-HR :0.87955: L2-HR :0.83738: (Sim:1h51m31s) 
CPU  0 inst:  295000000 cyc:  483555648 now IPC :0.27061: AVG IPC :0.60716: L2-Pf-HR :0.87954: L2-HR :0.83728: (Sim:1h52m7s) 
CPU  0 inst:  296000000 cyc:  487250695 now IPC :0.27063: AVG IPC :0.60461: L2-Pf-HR :0.87952: L2-HR :0.83718: (Sim:1h52m42s) 
CPU  0 inst:  297000001 cyc:  488837435 now IPC :0.63022: AVG IPC :0.60469: L2-Pf-HR :0.87976: L2-HR :0.83763: (Sim:1h53m8s) 
CPU  0 inst:  298000001 cyc:  489476959 now IPC :1.56366: AVG IPC :0.60595: L2-Pf-HR :0.88026: L2-HR :0.83848: (Sim:1h53m31s) 
CPU  0 inst:  299000004 cyc:  490109094 now IPC :1.58195: AVG IPC :0.60721: L2-Pf-HR :0.88074: L2-HR :0.83931: (Sim:1h53m53s) 
CPU  0 inst:  300000000 cyc:  490716751 now IPC :1.64566: AVG IPC :0.60850: L2-Pf-HR :0.88119: L2-HR :0.84010: (Sim:1h54m15s) 
CPU  0 inst:  301000001 cyc:  491317969 now IPC :1.66329: AVG IPC :0.60979: L2-Pf-HR :0.88164: L2-HR :0.84088: (Sim:1h54m37s) 
CPU  0 inst:  302000003 cyc:  491880352 now IPC :1.77815: AVG IPC :0.61113: L2-Pf-HR :0.88212: L2-HR :0.84170: (Sim:1h54m59s) 
CPU  0 inst:  303000001 cyc:  492441055 now IPC :1.78347: AVG IPC :0.61247: L2-Pf-HR :0.88258: L2-HR :0.84248: (Sim:1h55m21s) 
CPU  0 inst:  304000000 cyc:  493004989 now IPC :1.77326: AVG IPC :0.61380: L2-Pf-HR :0.88302: L2-HR :0.84325: (Sim:1h55m43s) 
CPU  0 inst:  305000003 cyc:  493578112 now IPC :1.74483: AVG IPC :0.61511: L2-Pf-HR :0.88350: L2-HR :0.84405: (Sim:1h56m5s) 
CPU  0 inst:  306000000 cyc:  494142271 now IPC :1.77254: AVG IPC :0.61644: L2-Pf-HR :0.88399: L2-HR :0.84484: (Sim:1h56m27s) 
CPU  0 inst:  307000005 cyc:  494700082 now IPC :1.79273: AVG IPC :0.61776: L2-Pf-HR :0.88446: L2-HR :0.84561: (Sim:1h56m49s) 
CPU  0 inst:  308000001 cyc:  495261238 now IPC :1.78203: AVG IPC :0.61909: L2-Pf-HR :0.88493: L2-HR :0.84639: (Sim:1h57m11s) 
CPU  0 inst:  309000001 cyc:  495833412 now IPC :1.74772: AVG IPC :0.62039: L2-Pf-HR :0.88542: L2-HR :0.84716: (Sim:1h57m33s) 
CPU  0 inst:  310000002 cyc:  496409761 now IPC :1.73506: AVG IPC :0.62169: L2-Pf-HR :0.88590: L2-HR :0.84792: (Sim:1h57m55s) 
CPU  0 inst:  311000002 cyc:  496981678 now IPC :1.74851: AVG IPC :0.62299: L2-Pf-HR :0.88638: L2-HR :0.84867: (Sim:1h58m17s) 
CPU  0 inst:  312000005 cyc:  497554306 now IPC :1.74634: AVG IPC :0.62428: L2-Pf-HR :0.88686: L2-HR :0.84943: (Sim:1h58m38s) 
CPU  0 inst:  313000003 cyc:  498149788 now IPC :1.67931: AVG IPC :0.62555: L2-Pf-HR :0.88731: L2-HR :0.85015: (Sim:1h59m0s) 
CPU  0 inst:  314000000 cyc:  498749186 now IPC :1.66834: AVG IPC :0.62680: L2-Pf-HR :0.88767: L2-HR :0.85079: (Sim:1h59m22s) 
CPU  0 inst:  315000002 cyc:  499340139 now IPC :1.69219: AVG IPC :0.62807: L2-Pf-HR :0.88805: L2-HR :0.85145: (Sim:1h59m44s) 
CPU  0 inst:  316000000 cyc:  499935264 now IPC :1.68032: AVG IPC :0.62932: L2-Pf-HR :0.88842: L2-HR :0.85210: (Sim:2h0m5s) 
CPU  0 inst:  317000000 cyc:  500539938 now IPC :1.65378: AVG IPC :0.63056: L2-Pf-HR :0.88878: L2-HR :0.85273: (Sim:2h0m27s) 
CPU  0 inst:  318000002 cyc:  501112878 now IPC :1.74539: AVG IPC :0.63184: L2-Pf-HR :0.88916: L2-HR :0.85337: (Sim:2h0m49s) 
CPU  0 inst:  319000004 cyc:  501669472 now IPC :1.79665: AVG IPC :0.63313: L2-Pf-HR :0.88953: L2-HR :0.85402: (Sim:2h1m11s) 
CPU  0 inst:  320000002 cyc:  502229014 now IPC :1.78717: AVG IPC :0.63442: L2-Pf-HR :0.88990: L2-HR :0.85465: (Sim:2h1m33s) 
CPU  0 inst:  321000002 cyc:  502784985 now IPC :1.79865: AVG IPC :0.63571: L2-Pf-HR :0.89028: L2-HR :0.85529: (Sim:2h1m54s) 
CPU  0 inst:  322000004 cyc:  503362822 now IPC :1.73060: AVG IPC :0.63697: L2-Pf-HR :0.89063: L2-HR :0.85590: (Sim:2h2m16s) 
CPU  0 inst:  323000002 cyc:  503915312 now IPC :1.80998: AVG IPC :0.63826: L2-Pf-HR :0.89104: L2-HR :0.85655: (Sim:2h2m37s) 
CPU  0 inst:  324000001 cyc:  504469470 now IPC :1.80454: AVG IPC :0.63954: L2-Pf-HR :0.89143: L2-HR :0.85719: (Sim:2h2m58s) 
CPU  0 inst:  325000003 cyc:  505025600 now IPC :1.79814: AVG IPC :0.64082: L2-Pf-HR :0.89183: L2-HR :0.85783: (Sim:2h3m20s) 
CPU  0 inst:  326000001 cyc:  505608693 now IPC :1.71499: AVG IPC :0.64206: L2-Pf-HR :0.89220: L2-HR :0.85843: (Sim:2h3m42s) 
CPU  0 inst:  327000005 cyc:  506176774 now IPC :1.76032: AVG IPC :0.64332: L2-Pf-HR :0.89261: L2-HR :0.85906: (Sim:2h4m3s) 
CPU  0 inst:  328000003 cyc:  506744692 now IPC :1.76081: AVG IPC :0.64457: L2-Pf-HR :0.89301: L2-HR :0.85968: (Sim:2h4m25s) 
CPU  0 inst:  329000005 cyc:  507318581 now IPC :1.74250: AVG IPC :0.64582: L2-Pf-HR :0.89340: L2-HR :0.86029: (Sim:2h4m47s) 
CPU  0 inst:  330000000 cyc:  507924643 now IPC :1.64999: AVG IPC :0.64702: L2-Pf-HR :0.89372: L2-HR :0.86084: (Sim:2h5m8s) 
CPU  0 inst:  331000000 cyc:  508521835 now IPC :1.67450: AVG IPC :0.64823: L2-Pf-HR :0.89403: L2-HR :0.86137: (Sim:2h5m30s) 
CPU  0 inst:  332000002 cyc:  509117338 now IPC :1.67926: AVG IPC :0.64944: L2-Pf-HR :0.89434: L2-HR :0.86191: (Sim:2h5m52s) 
CPU  0 inst:  333000000 cyc:  509714356 now IPC :1.67499: AVG IPC :0.65064: L2-Pf-HR :0.89464: L2-HR :0.86243: (Sim:2h6m14s) 
CPU  0 inst:  334000001 cyc:  510321217 now IPC :1.64783: AVG IPC :0.65183: L2-Pf-HR :0.89490: L2-HR :0.86293: (Sim:2h6m36s) 
CPU  0 inst:  335000004 cyc:  510880836 now IPC :1.78694: AVG IPC :0.65307: L2-Pf-HR :0.89522: L2-HR :0.86346: (Sim:2h6m59s) 
CPU  0 inst:  336000003 cyc:  511437878 now IPC :1.79519: AVG IPC :0.65432: L2-Pf-HR :0.89553: L2-HR :0.86399: (Sim:2h7m23s) 
CPU  0 inst:  337000000 cyc:  511995674 now IPC :1.79276: AVG IPC :0.65556: L2-Pf-HR :0.89581: L2-HR :0.86449: (Sim:2h7m46s) 
CPU  0 inst:  338000005 cyc:  512563516 now IPC :1.76106: AVG IPC :0.65679: L2-Pf-HR :0.89611: L2-HR :0.86501: (Sim:2h8m10s) 
CPU  0 inst:  339000001 cyc:  513128615 now IPC :1.76959: AVG IPC :0.65802: L2-Pf-HR :0.89642: L2-HR :0.86552: (Sim:2h8m34s) 
CPU  0 inst:  340000002 cyc:  513688006 now IPC :1.78766: AVG IPC :0.65925: L2-Pf-HR :0.89673: L2-HR :0.86603: (Sim:2h8m57s) 
CPU  0 inst:  341000002 cyc:  514245939 now IPC :1.79233: AVG IPC :0.66048: L2-Pf-HR :0.89704: L2-HR :0.86654: (Sim:2h9m21s) 
CPU  0 inst:  342000005 cyc:  514809990 now IPC :1.77289: AVG IPC :0.66170: L2-Pf-HR :0.89735: L2-HR :0.86705: (Sim:2h9m44s) 
CPU  0 inst:  343000004 cyc:  515387289 now IPC :1.73220: AVG IPC :0.66290: L2-Pf-HR :0.89769: L2-HR :0.86758: (Sim:2h10m8s) 
CPU  0 inst:  344000005 cyc:  515963178 now IPC :1.73645: AVG IPC :0.66411: L2-Pf-HR :0.89801: L2-HR :0.86809: (Sim:2h10m31s) 
CPU  0 inst:  345000001 cyc:  516537981 now IPC :1.73972: AVG IPC :0.66530: L2-Pf-HR :0.89834: L2-HR :0.86860: (Sim:2h10m55s) 
CPU  0 inst:  346000002 cyc:  517108806 now IPC :1.75185: AVG IPC :0.66651: L2-Pf-HR :0.89868: L2-HR :0.86911: (Sim:2h11m18s) 
CPU  0 inst:  347000000 cyc:  517716623 now IPC :1.64523: AVG IPC :0.66766: L2-Pf-HR :0.89894: L2-HR :0.86956: (Sim:2h11m42s) 
CPU  0 inst:  348000000 cyc:  518315481 now IPC :1.66984: AVG IPC :0.66882: L2-Pf-HR :0.89918: L2-HR :0.86999: (Sim:2h12m5s) 
CPU  0 inst:  349000001 cyc:  518907441 now IPC :1.68931: AVG IPC :0.66998: L2-Pf-HR :0.89942: L2-HR :0.87043: (Sim:2h12m29s) 
CPU  0 inst:  350000003 cyc:  519501360 now IPC :1.68373: AVG IPC :0.67114: L2-Pf-HR :0.89967: L2-HR :0.87087: (Sim:2h12m52s) 
CPU  0 inst:  351000000 cyc:  520093463 now IPC :1.68889: AVG IPC :0.67231: L2-Pf-HR :0.89990: L2-HR :0.87128: (Sim:2h13m16s) 
CPU  0 inst:  352000005 cyc:  520649740 now IPC :1.79767: AVG IPC :0.67351: L2-Pf-HR :0.90015: L2-HR :0.87172: (Sim:2h13m39s) 
CPU  0 inst:  353000005 cyc:  521204291 now IPC :1.80326: AVG IPC :0.67471: L2-Pf-HR :0.90040: L2-HR :0.87216: (Sim:2h14m3s) 
CPU  0 inst:  354000004 cyc:  521764149 now IPC :1.78617: AVG IPC :0.67591: L2-Pf-HR :0.90065: L2-HR :0.87259: (Sim:2h14m26s) 
CPU  0 inst:  355000001 cyc:  522339102 now IPC :1.73927: AVG IPC :0.67708: L2-Pf-HR :0.90088: L2-HR :0.87300: (Sim:2h14m50s) 
CPU  0 inst:  356000005 cyc:  522892123 now IPC :1.80826: AVG IPC :0.67828: L2-Pf-HR :0.90116: L2-HR :0.87346: (Sim:2h15m13s) 
CPU  0 inst:  357000003 cyc:  523445226 now IPC :1.80798: AVG IPC :0.67948: L2-Pf-HR :0.90144: L2-HR :0.87391: (Sim:2h15m37s) 
CPU  0 inst:  358000004 cyc:  524003133 now IPC :1.79242: AVG IPC :0.68066: L2-Pf-HR :0.90172: L2-HR :0.87435: (Sim:2h16m0s) 
CPU  0 inst:  359000005 cyc:  524579240 now IPC :1.73579: AVG IPC :0.68182: L2-Pf-HR :0.90197: L2-HR :0.87477: (Sim:2h16m24s) 
CPU  0 inst:  360000000 cyc:  525151324 now IPC :1.74799: AVG IPC :0.68299: L2-Pf-HR :0.90226: L2-HR :0.87521: (Sim:2h16m47s) 
CPU  0 inst:  361000005 cyc:  525718496 now IPC :1.76314: AVG IPC :0.68416: L2-Pf-HR :0.90255: L2-HR :0.87566: (Sim:2h17m11s) 
CPU  0 inst:  362000005 cyc:  526290133 now IPC :1.74936: AVG IPC :0.68532: L2-Pf-HR :0.90284: L2-HR :0.87609: (Sim:2h17m34s) 
CPU  0 inst:  363000003 cyc:  526871668 now IPC :1.71958: AVG IPC :0.68646: L2-Pf-HR :0.90311: L2-HR :0.87651: (Sim:2h17m58s) 
CPU  0 inst:  364000003 cyc:  527479182 now IPC :1.64605: AVG IPC :0.68757: L2-Pf-HR :0.90331: L2-HR :0.87688: (Sim:2h18m21s) 
CPU  0 inst:  365000003 cyc:  528073989 now IPC :1.68122: AVG IPC :0.68869: L2-Pf-HR :0.90352: L2-HR :0.87725: (Sim:2h18m45s) 
CPU  0 inst:  366000002 cyc:  528666971 now IPC :1.68639: AVG IPC :0.68981: L2-Pf-HR :0.90373: L2-HR :0.87763: (Sim:2h19m8s) 
CPU  0 inst:  367000003 cyc:  529266207 now IPC :1.66879: AVG IPC :0.69092: L2-Pf-HR :0.90393: L2-HR :0.87799: (Sim:2h19m32s) 
CPU  0 inst:  368000002 cyc:  529850458 now IPC :1.71159: AVG IPC :0.69205: L2-Pf-HR :0.90413: L2-HR :0.87834: (Sim:2h19m55s) 
CPU  0 inst:  369000005 cyc:  530405926 now IPC :1.80029: AVG IPC :0.69321: L2-Pf-HR :0.90435: L2-HR :0.87872: (Sim:2h20m19s) 
CPU  0 inst:  370000000 cyc:  530964553 now IPC :1.79009: AVG IPC :0.69437: L2-Pf-HR :0.90456: L2-HR :0.87909: (Sim:2h20m42s) 
CPU  0 inst:  371000000 cyc:  531526395 now IPC :1.77986: AVG IPC :0.69552: L2-Pf-HR :0.90477: L2-HR :0.87945: (Sim:2h21m6s) 
CPU  0 inst:  372000003 cyc:  532096842 now IPC :1.75302: AVG IPC :0.69665: L2-Pf-HR :0.90499: L2-HR :0.87982: (Sim:2h21m29s) 
CPU  0 inst:  373000003 cyc:  532650462 now IPC :1.80629: AVG IPC :0.69781: L2-Pf-HR :0.90523: L2-HR :0.88021: (Sim:2h21m53s) 
CPU  0 inst:  374000000 cyc:  533208040 now IPC :1.79347: AVG IPC :0.69895: L2-Pf-HR :0.90546: L2-HR :0.88059: (Sim:2h22m16s) 
CPU  0 inst:  375000005 cyc:  533769450 now IPC :1.78124: AVG IPC :0.70009: L2-Pf-HR :0.90569: L2-HR :0.88096: (Sim:2h22m40s) 
CPU  0 inst:  376000001 cyc:  534338835 now IPC :1.75627: AVG IPC :0.70122: L2-Pf-HR :0.90593: L2-HR :0.88134: (Sim:2h23m3s) 
CPU  0 inst:  377000004 cyc:  534914965 now IPC :1.73572: AVG IPC :0.70234: L2-Pf-HR :0.90617: L2-HR :0.88171: (Sim:2h23m27s) 
CPU  0 inst:  378000002 cyc:  535487375 now IPC :1.74700: AVG IPC :0.70346: L2-Pf-HR :0.90641: L2-HR :0.88208: (Sim:2h23m50s) 
CPU  0 inst:  379000000 cyc:  536064944 now IPC :1.73139: AVG IPC :0.70457: L2-Pf-HR :0.90665: L2-HR :0.88245: (Sim:2h24m13s) 
CPU  0 inst:  380000005 cyc:  536658041 now IPC :1.68607: AVG IPC :0.70565: L2-Pf-HR :0.90688: L2-HR :0.88280: (Sim:2h24m35s) 
CPU  0 inst:  381000002 cyc:  537254745 now IPC :1.67587: AVG IPC :0.70673: L2-Pf-HR :0.90704: L2-HR :0.88311: (Sim:2h24m58s) 
CPU  0 inst:  382000000 cyc:  537854922 now IPC :1.66617: AVG IPC :0.70781: L2-Pf-HR :0.90721: L2-HR :0.88342: (Sim:2h25m21s) 
CPU  0 inst:  383000000 cyc:  538449773 now IPC :1.68109: AVG IPC :0.70888: L2-Pf-HR :0.90739: L2-HR :0.88374: (Sim:2h25m43s) 
CPU  0 inst:  384000002 cyc:  539055787 now IPC :1.65013: AVG IPC :0.70994: L2-Pf-HR :0.90754: L2-HR :0.88403: (Sim:2h26m6s) 
CPU  0 inst:  385000003 cyc:  539616464 now IPC :1.78356: AVG IPC :0.71106: L2-Pf-HR :0.90773: L2-HR :0.88435: (Sim:2h26m29s) 
CPU  0 inst:  386000000 cyc:  540172568 now IPC :1.79822: AVG IPC :0.71218: L2-Pf-HR :0.90791: L2-HR :0.88467: (Sim:2h26m51s) 
CPU  0 inst:  387000000 cyc:  540730422 now IPC :1.79258: AVG IPC :0.71330: L2-Pf-HR :0.90810: L2-HR :0.88500: (Sim:2h27m14s) 
CPU  0 inst:  388000001 cyc:  541296109 now IPC :1.76776: AVG IPC :0.71440: L2-Pf-HR :0.90827: L2-HR :0.88530: (Sim:2h27m36s) 
CPU  0 inst:  389000001 cyc:  541861248 now IPC :1.76948: AVG IPC :0.71550: L2-Pf-HR :0.90847: L2-HR :0.88563: (Sim:2h27m59s) 
CPU  0 inst:  390000002 cyc:  542416432 now IPC :1.80121: AVG IPC :0.71662: L2-Pf-HR :0.90868: L2-HR :0.88597: (Sim:2h28m22s) 
CPU  0 inst:  391000005 cyc:  542971027 now IPC :1.80312: AVG IPC :0.71773: L2-Pf-HR :0.90889: L2-HR :0.88630: (Sim:2h28m44s) 
CPU  0 inst:  392000005 cyc:  543528578 now IPC :1.79356: AVG IPC :0.71884: L2-Pf-HR :0.90910: L2-HR :0.88663: (Sim:2h29m7s) 
CPU  0 inst:  393000004 cyc:  544111530 now IPC :1.71541: AVG IPC :0.71991: L2-Pf-HR :0.90930: L2-HR :0.88694: (Sim:2h29m29s) 
CPU  0 inst:  394000001 cyc:  544682106 now IPC :1.75261: AVG IPC :0.72099: L2-Pf-HR :0.90951: L2-HR :0.88727: (Sim:2h29m52s) 
CPU  0 inst:  395000000 cyc:  545254205 now IPC :1.74795: AVG IPC :0.72207: L2-Pf-HR :0.90973: L2-HR :0.88760: (Sim:2h30m14s) 
CPU  0 inst:  396000002 cyc:  545825488 now IPC :1.75045: AVG IPC :0.72315: L2-Pf-HR :0.90995: L2-HR :0.88793: (Sim:2h30m37s) 
CPU  0 inst:  397000004 cyc:  546432864 now IPC :1.64643: AVG IPC :0.72417: L2-Pf-HR :0.91010: L2-HR :0.88820: (Sim:2h31m0s) 
CPU  0 inst:  398000002 cyc:  547027043 now IPC :1.68299: AVG IPC :0.72522: L2-Pf-HR :0.91026: L2-HR :0.88848: (Sim:2h31m22s) 
CPU  0 inst:  399000002 cyc:  547624721 now IPC :1.67314: AVG IPC :0.72625: L2-Pf-HR :0.91041: L2-HR :0.88875: (Sim:2h31m45s) 
CPU  0 inst:  400000000 cyc:  548218025 now IPC :1.68547: AVG IPC :0.72729: L2-Pf-HR :0.91056: L2-HR :0.88902: (Sim:2h32m7s) 
CPU  0 inst:  401000003 cyc:  548825559 now IPC :1.64600: AVG IPC :0.72831: L2-Pf-HR :0.91069: L2-HR :0.88927: (Sim:2h32m30s) 
CPU  0 inst:  402000003 cyc:  549386013 now IPC :1.78427: AVG IPC :0.72939: L2-Pf-HR :0.91085: L2-HR :0.88955: (Sim:2h32m53s) 
CPU  0 inst:  403000004 cyc:  549942989 now IPC :1.79541: AVG IPC :0.73047: L2-Pf-HR :0.91102: L2-HR :0.88983: (Sim:2h33m15s) 
CPU  0 inst:  404000004 cyc:  550502434 now IPC :1.78749: AVG IPC :0.73155: L2-Pf-HR :0.91118: L2-HR :0.89011: (Sim:2h33m38s) 
CPU  0 inst:  405000002 cyc:  551079655 now IPC :1.73244: AVG IPC :0.73260: L2-Pf-HR :0.91132: L2-HR :0.89037: (Sim:2h34m1s) 
CPU  0 inst:  406000000 cyc:  551633907 now IPC :1.80423: AVG IPC :0.73368: L2-Pf-HR :0.91151: L2-HR :0.89067: (Sim:2h34m23s) 
CPU  0 inst:  407000003 cyc:  552190501 now IPC :1.79665: AVG IPC :0.73475: L2-Pf-HR :0.91169: L2-HR :0.89096: (Sim:2h34m46s) 
CPU  0 inst:  408000000 cyc:  552750718 now IPC :1.78502: AVG IPC :0.73582: L2-Pf-HR :0.91186: L2-HR :0.89124: (Sim:2h35m8s) 
CPU  0 inst:  409000000 cyc:  553314580 now IPC :1.77348: AVG IPC :0.73688: L2-Pf-HR :0.91204: L2-HR :0.89153: (Sim:2h35m31s) 
CPU  0 inst:  410000002 cyc:  553890924 now IPC :1.73508: AVG IPC :0.73792: L2-Pf-HR :0.91223: L2-HR :0.89181: (Sim:2h35m53s) 
CPU  0 inst:  411000002 cyc:  554465443 now IPC :1.74059: AVG IPC :0.73896: L2-Pf-HR :0.91241: L2-HR :0.89209: (Sim:2h36m15s) 
CPU  0 inst:  412000004 cyc:  555041921 now IPC :1.73468: AVG IPC :0.74000: L2-Pf-HR :0.91259: L2-HR :0.89236: (Sim:2h36m27s) 
CPU  0 inst:  413000000 cyc:  555618194 now IPC :1.73528: AVG IPC :0.74103: L2-Pf-HR :0.91276: L2-HR :0.89263: (Sim:2h36m38s) 
CPU  0 inst:  414000005 cyc:  556222161 now IPC :1.65573: AVG IPC :0.74202: L2-Pf-HR :0.91291: L2-HR :0.89288: (Sim:2h36m48s) 
CPU  0 inst:  415000001 cyc:  556822053 now IPC :1.66696: AVG IPC :0.74302: L2-Pf-HR :0.91302: L2-HR :0.89310: (Sim:2h36m58s) 
CPU  0 inst:  416000003 cyc:  557421753 now IPC :1.66750: AVG IPC :0.74402: L2-Pf-HR :0.91315: L2-HR :0.89334: (Sim:2h37m8s) 
CPU  0 inst:  417000003 cyc:  558018288 now IPC :1.67635: AVG IPC :0.74502: L2-Pf-HR :0.91327: L2-HR :0.89357: (Sim:2h37m19s) 
CPU  0 inst:  418000003 cyc:  558604992 now IPC :1.70444: AVG IPC :0.74603: L2-Pf-HR :0.91339: L2-HR :0.89379: (Sim:2h37m30s) 
CPU  0 inst:  419000000 cyc:  559162090 now IPC :1.79501: AVG IPC :0.74707: L2-Pf-HR :0.91353: L2-HR :0.89403: (Sim:2h37m40s) 
CPU  0 inst:  420000003 cyc:  559717664 now IPC :1.79995: AVG IPC :0.74812: L2-Pf-HR :0.91366: L2-HR :0.89427: (Sim:2h37m52s) 
CPU  0 inst:  421000004 cyc:  560273938 now IPC :1.79768: AVG IPC :0.74916: L2-Pf-HR :0.91380: L2-HR :0.89451: (Sim:2h38m2s) 
CPU  0 inst:  422000000 cyc:  560851130 now IPC :1.73252: AVG IPC :0.75018: L2-Pf-HR :0.91393: L2-HR :0.89475: (Sim:2h38m13s) 
CPU  0 inst:  423000004 cyc:  561407284 now IPC :1.79807: AVG IPC :0.75122: L2-Pf-HR :0.91409: L2-HR :0.89500: (Sim:2h38m23s) 
CPU  0 inst:  424000001 cyc:  561960234 now IPC :1.80848: AVG IPC :0.75226: L2-Pf-HR :0.91425: L2-HR :0.89526: (Sim:2h38m33s) 
CPU  0 inst:  425000001 cyc:  562517870 now IPC :1.79328: AVG IPC :0.75329: L2-Pf-HR :0.91441: L2-HR :0.89551: (Sim:2h38m44s) 
CPU  0 inst:  426000002 cyc:  563095609 now IPC :1.73089: AVG IPC :0.75430: L2-Pf-HR :0.91455: L2-HR :0.89574: (Sim:2h38m55s) 
CPU  0 inst:  427000001 cyc:  563667722 now IPC :1.74790: AVG IPC :0.75531: L2-Pf-HR :0.91472: L2-HR :0.89600: (Sim:2h39m18s) 
CPU  0 inst:  428000005 cyc:  564235057 now IPC :1.76263: AVG IPC :0.75632: L2-Pf-HR :0.91488: L2-HR :0.89625: (Sim:2h39m42s) 
CPU  0 inst:  429000004 cyc:  564808139 now IPC :1.74495: AVG IPC :0.75733: L2-Pf-HR :0.91505: L2-HR :0.89649: (Sim:2h40m4s) 
CPU  0 inst:  430000003 cyc:  565409122 now IPC :1.66394: AVG IPC :0.75829: L2-Pf-HR :0.91518: L2-HR :0.89672: (Sim:2h40m27s) 
CPU  0 inst:  431000001 cyc:  566005108 now IPC :1.67789: AVG IPC :0.75926: L2-Pf-HR :0.91530: L2-HR :0.89693: (Sim:2h40m50s) 
CPU  0 inst:  432000001 cyc:  566600333 now IPC :1.68004: AVG IPC :0.76023: L2-Pf-HR :0.91542: L2-HR :0.89714: (Sim:2h41m13s) 
CPU  0 inst:  433000004 cyc:  567198197 now IPC :1.67263: AVG IPC :0.76120: L2-Pf-HR :0.91553: L2-HR :0.89735: (Sim:2h41m36s) 
CPU  0 inst:  434000000 cyc:  567802982 now IPC :1.65347: AVG IPC :0.76215: L2-Pf-HR :0.91564: L2-HR :0.89755: (Sim:2h41m59s) 
CPU  0 inst:  435000004 cyc:  568370665 now IPC :1.76155: AVG IPC :0.76315: L2-Pf-HR :0.91576: L2-HR :0.89776: (Sim:2h42m22s) 
CPU  0 inst:  436000003 cyc:  568925328 now IPC :1.80289: AVG IPC :0.76416: L2-Pf-HR :0.91588: L2-HR :0.89797: (Sim:2h42m37s) 
CPU  0 inst:  437000005 cyc:  569481833 now IPC :1.79693: AVG IPC :0.76518: L2-Pf-HR :0.91600: L2-HR :0.89819: (Sim:2h42m57s) 
CPU  0 inst:  438000001 cyc:  570040433 now IPC :1.79018: AVG IPC :0.76618: L2-Pf-HR :0.91613: L2-HR :0.89840: (Sim:2h43m20s) 
CPU  0 inst:  439000000 cyc:  570611640 now IPC :1.75068: AVG IPC :0.76717: L2-Pf-HR :0.91625: L2-HR :0.89862: (Sim:2h43m41s) 
CPU  0 inst:  440000000 cyc:  571162022 now IPC :1.81692: AVG IPC :0.76818: L2-Pf-HR :0.91640: L2-HR :0.89884: (Sim:2h43m51s) 
CPU  0 inst:  441000003 cyc:  571716064 now IPC :1.80492: AVG IPC :0.76919: L2-Pf-HR :0.91654: L2-HR :0.89907: (Sim:2h44m1s) 
CPU  0 inst:  442000002 cyc:  572281685 now IPC :1.76797: AVG IPC :0.77018: L2-Pf-HR :0.91668: L2-HR :0.89929: (Sim:2h44m12s) 
CPU  0 inst:  443000005 cyc:  572859678 now IPC :1.73013: AVG IPC :0.77115: L2-Pf-HR :0.91682: L2-HR :0.89952: (Sim:2h44m22s) 
CPU  0 inst:  444000003 cyc:  573428698 now IPC :1.75740: AVG IPC :0.77213: L2-Pf-HR :0.91698: L2-HR :0.89975: (Sim:2h44m32s) 
CPU  0 inst:  445000002 cyc:  573999496 now IPC :1.75193: AVG IPC :0.77310: L2-Pf-HR :0.91713: L2-HR :0.89997: (Sim:2h44m42s) 
CPU  0 inst:  446000004 cyc:  574579298 now IPC :1.72473: AVG IPC :0.77407: L2-Pf-HR :0.91728: L2-HR :0.90020: (Sim:2h44m53s) 
CPU  0 inst:  447000000 cyc:  575173661 now IPC :1.68247: AVG IPC :0.77501: L2-Pf-HR :0.91741: L2-HR :0.90040: (Sim:2h45m3s) 
CPU  0 inst:  448000003 cyc:  575774801 now IPC :1.66351: AVG IPC :0.77594: L2-Pf-HR :0.91751: L2-HR :0.90058: (Sim:2h45m13s) 
CPU  0 inst:  449000002 cyc:  576380388 now IPC :1.65129: AVG IPC :0.77686: L2-Pf-HR :0.91760: L2-HR :0.90076: (Sim:2h45m23s) 
CPU  0 inst:  450000005 cyc:  576976731 now IPC :1.67689: AVG IPC :0.77779: L2-Pf-HR :0.91770: L2-HR :0.90094: (Sim:2h45m33s) 
CPU  0 inst:  451000004 cyc:  577577151 now IPC :1.66550: AVG IPC :0.77871: L2-Pf-HR :0.91779: L2-HR :0.90112: (Sim:2h45m43s) 
CPU  0 inst:  452000003 cyc:  578137534 now IPC :1.78449: AVG IPC :0.77969: L2-Pf-HR :0.91789: L2-HR :0.90131: (Sim:2h45m53s) 
CPU  0 inst:  453000001 cyc:  578696873 now IPC :1.78782: AVG IPC :0.78067: L2-Pf-HR :0.91800: L2-HR :0.90149: (Sim:2h46m3s) 
CPU  0 inst:  454000003 cyc:  579254178 now IPC :1.79435: AVG IPC :0.78164: L2-Pf-HR :0.91811: L2-HR :0.90168: (Sim:2h46m13s) 
CPU  0 inst:  455000002 cyc:  579829535 now IPC :1.73805: AVG IPC :0.78259: L2-Pf-HR :0.91820: L2-HR :0.90186: (Sim:2h46m23s) 
CPU  0 inst:  456000004 cyc:  580387447 now IPC :1.79240: AVG IPC :0.78357: L2-Pf-HR :0.91833: L2-HR :0.90207: (Sim:2h46m33s) 
CPU  0 inst:  457000001 cyc:  580944130 now IPC :1.79635: AVG IPC :0.78454: L2-Pf-HR :0.91846: L2-HR :0.90227: (Sim:2h46m43s) 
CPU  0 inst:  458000000 cyc:  581502386 now IPC :1.79129: AVG IPC :0.78551: L2-Pf-HR :0.91859: L2-HR :0.90248: (Sim:2h46m54s) 
CPU  0 inst:  459000003 cyc:  582068195 now IPC :1.76739: AVG IPC :0.78646: L2-Pf-HR :0.91871: L2-HR :0.90267: (Sim:2h47m4s) 
CPU  0 inst:  460000002 cyc:  582649458 now IPC :1.72039: AVG IPC :0.78739: L2-Pf-HR :0.91885: L2-HR :0.90287: (Sim:2h47m14s) 
CPU  0 inst:  461000004 cyc:  583219780 now IPC :1.75340: AVG IPC :0.78834: L2-Pf-HR :0.91899: L2-HR :0.90308: (Sim:2h47m24s) 
CPU  0 inst:  462000001 cyc:  583792840 now IPC :1.74501: AVG IPC :0.78928: L2-Pf-HR :0.91913: L2-HR :0.90329: (Sim:2h47m35s) 
CPU  0 inst:  463000001 cyc:  584361220 now IPC :1.75939: AVG IPC :0.79023: L2-Pf-HR :0.91927: L2-HR :0.90349: (Sim:2h47m45s) 
CPU  0 inst:  464000004 cyc:  584974231 now IPC :1.63130: AVG IPC :0.79111: L2-Pf-HR :0.91935: L2-HR :0.90365: (Sim:2h47m55s) 
CPU  0 inst:  465000001 cyc:  585568254 now IPC :1.68343: AVG IPC :0.79202: L2-Pf-HR :0.91944: L2-HR :0.90382: (Sim:2h48m5s) 
CPU  0 inst:  466000002 cyc:  586159189 now IPC :1.69224: AVG IPC :0.79293: L2-Pf-HR :0.91953: L2-HR :0.90398: (Sim:2h48m15s) 
CPU  0 inst:  467000001 cyc:  586751998 now IPC :1.68688: AVG IPC :0.79383: L2-Pf-HR :0.91962: L2-HR :0.90415: (Sim:2h48m25s) 
CPU  0 inst:  468000000 cyc:  587344535 now IPC :1.68766: AVG IPC :0.79473: L2-Pf-HR :0.91970: L2-HR :0.90430: (Sim:2h48m35s) 
CPU  0 inst:  469000005 cyc:  587902352 now IPC :1.79271: AVG IPC :0.79568: L2-Pf-HR :0.91979: L2-HR :0.90447: (Sim:2h48m45s) 
CPU  0 inst:  470000000 cyc:  588457433 now IPC :1.80153: AVG IPC :0.79663: L2-Pf-HR :0.91989: L2-HR :0.90464: (Sim:2h48m55s) 
CPU  0 inst:  471000004 cyc:  589018045 now IPC :1.78377: AVG IPC :0.79757: L2-Pf-HR :0.91999: L2-HR :0.90481: (Sim:2h49m5s) 
CPU  0 inst:  472000002 cyc:  589598367 now IPC :1.72318: AVG IPC :0.79849: L2-Pf-HR :0.92007: L2-HR :0.90496: (Sim:2h49m15s) 
CPU  0 inst:  473000002 cyc:  590153806 now IPC :1.80038: AVG IPC :0.79943: L2-Pf-HR :0.92018: L2-HR :0.90515: (Sim:2h49m25s) 
CPU  0 inst:  474000000 cyc:  590706123 now IPC :1.81055: AVG IPC :0.80038: L2-Pf-HR :0.92030: L2-HR :0.90533: (Sim:2h49m35s) 
CPU  0 inst:  475000002 cyc:  591264164 now IPC :1.79199: AVG IPC :0.80132: L2-Pf-HR :0.92041: L2-HR :0.90551: (Sim:2h49m45s) 
CPU  0 inst:  476000001 cyc:  591844548 now IPC :1.72300: AVG IPC :0.80222: L2-Pf-HR :0.92051: L2-HR :0.90568: (Sim:2h49m57s) 
CPU  0 inst:  477000000 cyc:  592415429 now IPC :1.75168: AVG IPC :0.80314: L2-Pf-HR :0.92064: L2-HR :0.90587: (Sim:2h50m7s) 
CPU  0 inst:  478000000 cyc:  592983508 now IPC :1.76032: AVG IPC :0.80406: L2-Pf-HR :0.92077: L2-HR :0.90605: (Sim:2h50m17s) 
CPU  0 inst:  479000002 cyc:  593562088 now IPC :1.72837: AVG IPC :0.80496: L2-Pf-HR :0.92089: L2-HR :0.90623: (Sim:2h50m27s) 
CPU  0 inst:  480000001 cyc:  594141313 now IPC :1.72644: AVG IPC :0.80586: L2-Pf-HR :0.92101: L2-HR :0.90641: (Sim:2h50m37s) 
CPU  0 inst:  481000000 cyc:  594750794 now IPC :1.64074: AVG IPC :0.80671: L2-Pf-HR :0.92108: L2-HR :0.90655: (Sim:2h50m47s) 
CPU  0 inst:  482000005 cyc:  595349895 now IPC :1.66918: AVG IPC :0.80758: L2-Pf-HR :0.92116: L2-HR :0.90669: (Sim:2h50m57s) 
CPU  0 inst:  483000004 cyc:  595954467 now IPC :1.65406: AVG IPC :0.80844: L2-Pf-HR :0.92123: L2-HR :0.90683: (Sim:2h51m7s) 
CPU  0 inst:  484000003 cyc:  596557702 now IPC :1.65773: AVG IPC :0.80930: L2-Pf-HR :0.92130: L2-HR :0.90697: (Sim:2h51m17s) 
CPU  0 inst:  485000001 cyc:  597124901 now IPC :1.76305: AVG IPC :0.81021: L2-Pf-HR :0.92139: L2-HR :0.90713: (Sim:2h51m27s) 
CPU  0 inst:  486000002 cyc:  597686600 now IPC :1.78031: AVG IPC :0.81112: L2-Pf-HR :0.92147: L2-HR :0.90727: (Sim:2h51m37s) 
CPU  0 inst:  487000005 cyc:  598244103 now IPC :1.79372: AVG IPC :0.81204: L2-Pf-HR :0.92155: L2-HR :0.90742: (Sim:2h51m47s) 
CPU  0 inst:  488000000 cyc:  598801673 now IPC :1.79349: AVG IPC :0.81296: L2-Pf-HR :0.92164: L2-HR :0.90758: (Sim:2h51m57s) 
CPU  0 inst:  489000003 cyc:  599377020 now IPC :1.73809: AVG IPC :0.81385: L2-Pf-HR :0.92173: L2-HR :0.90773: (Sim:2h52m8s) 
CPU  0 inst:  490000003 cyc:  599935846 now IPC :1.78947: AVG IPC :0.81476: L2-Pf-HR :0.92182: L2-HR :0.90789: (Sim:2h52m18s) 
CPU  0 inst:  491000003 cyc:  600493521 now IPC :1.79316: AVG IPC :0.81567: L2-Pf-HR :0.92193: L2-HR :0.90805: (Sim:2h52m28s) 
CPU  0 inst:  492000001 cyc:  601047976 now IPC :1.80357: AVG IPC :0.81658: L2-Pf-HR :0.92203: L2-HR :0.90822: (Sim:2h52m38s) 
CPU  0 inst:  493000004 cyc:  601637756 now IPC :1.69555: AVG IPC :0.81744: L2-Pf-HR :0.92213: L2-HR :0.90837: (Sim:2h52m48s) 
Finished CPU 0 instr: 491000002 cyc: 600653318 AVG IPC: 0.81744 (Sim time: 2h52m48s)

ChampSim completed all CPUs

[ROI Statistics]
Core_0_instructions 491000002
Core_0_cycles 600653318
Core_0_IPC 0.81744

Core_0_branch_prediction_accuracy 99.58586
Core_0_branch_MPKI 0.12051
Core_0_average_ROB_occupancy_at_mispredict 569.03564

Core_0_L1D_total_access 305947148
Core_0_L1D_total_hit 280724639 L1D_total_Hit Ratio: 0.91756
Core_0_L1D_total_miss 25222509
Core_0_L1D_loads 123152054
Core_0_L1D_load_hit 110449533 L1D_load_Hit Ratio: 0.89685
Core_0_L1D_load_miss 12702521
Core_0_L1D_RFOs 12796485
Core_0_L1D_RFO_hit 11836107 L1D_RFO_Hit Ratio: 0.92495
Core_0_L1D_RFO_miss 960378
Core_0_L1D_prefetches 169998609
Core_0_L1D_prefetch_hit 158438999 L1D_prefetch_Hit Ratio: 0.93200
Core_0_L1D_prefetch_miss 11559610
Core_0_L1D_writebacks 0
Core_0_L1D_writeback_hit 0 L1D_writeback_Hit Ratio: -nan
Core_0_L1D_writeback_miss 0
Core_0_L1D_prefetch_requested 380160426
Core_0_L1D_prefetch_issued 196065896
Core_0_L1D_prefetch_useful 5765760 L1D_Useful Ratio: 0.02941
Core_0_L1D_prefetch_useless 5815370
Core_0_L1D_prefetch_late 540919
Core_0_L1D_average_miss_latency 3754361.33226

Core_0_L1I_total_access 72014409
Core_0_L1I_total_hit 72009436 L1I_total_Hit Ratio: 0.99993
Core_0_L1I_total_miss 4973
Core_0_L1I_loads 72014409
Core_0_L1I_load_hit 72009436 L1I_load_Hit Ratio: 0.99993
Core_0_L1I_load_miss 4973
Core_0_L1I_RFOs 0
Core_0_L1I_RFO_hit 0 L1I_RFO_Hit Ratio: -nan
Core_0_L1I_RFO_miss 0
Core_0_L1I_prefetches 0
Core_0_L1I_prefetch_hit 0 L1I_prefetch_Hit Ratio: -nan
Core_0_L1I_prefetch_miss 0
Core_0_L1I_writebacks 0
Core_0_L1I_writeback_hit 0 L1I_writeback_Hit Ratio: -nan
Core_0_L1I_writeback_miss 0
Core_0_L1I_prefetch_requested 0
Core_0_L1I_prefetch_issued 0
Core_0_L1I_prefetch_useful 0 L1I_Useful Ratio: -nan
Core_0_L1I_prefetch_useless 0
Core_0_L1I_prefetch_late 0
Core_0_L1I_average_miss_latency 331.36035

Core_0_L2C_total_access 70179927
Core_0_L2C_total_hit 63749539 L2C_total_Hit Ratio: 0.90837
Core_0_L2C_total_miss 6430388
Core_0_L2C_loads 12167857
Core_0_L2C_load_hit 10705690 L2C_load_Hit Ratio: 0.87983
Core_0_L2C_load_miss 1462167
Core_0_L2C_RFOs 960342
Core_0_L2C_RFO_hit 210584 L2C_RFO_Hit Ratio: 0.21928
Core_0_L2C_RFO_miss 749758
Core_0_L2C_prefetches 54137893
Core_0_L2C_prefetch_hit 49922106 L2C_prefetch_Hit Ratio: 0.92213
Core_0_L2C_prefetch_miss 4215787
Core_0_L2C_writebacks 2913835
Core_0_L2C_writeback_hit 2911159 L2C_writeback_Hit Ratio: 0.99908
Core_0_L2C_writeback_miss 2676
Core_0_L2C_prefetch_requested 168135371
Core_0_L2C_prefetch_issued 61700979
Core_0_L2C_prefetch_useful 625051 L2C_Useful Ratio: 0.01013
Core_0_L2C_prefetch_useless 3603981
Core_0_L2C_prefetch_late 477811
Core_0_L2C_average_miss_latency 262.77217

Core_0_LLC_total_access 9262903
Core_0_LLC_total_hit 4433068 LLC_total_Hit Ratio: 0.47858
Core_0_LLC_total_miss 4829835
Core_0_LLC_loads 984365
Core_0_LLC_load_hit 673024 LLC_load_Hit Ratio: 0.68371
Core_0_LLC_load_miss 311341
Core_0_LLC_RFOs 749758
Core_0_LLC_RFO_hit 14 LLC_RFO_Hit Ratio: 0.00002
Core_0_LLC_RFO_miss 749744
Core_0_LLC_prefetches 4754476
Core_0_LLC_prefetch_hit 1001797 LLC_prefetch_Hit Ratio: 0.21071
Core_0_LLC_prefetch_miss 3752679
Core_0_LLC_writebacks 2774304
Core_0_LLC_writeback_hit 2758233 LLC_writeback_Hit Ratio: 0.99421
Core_0_LLC_writeback_miss 16071
Core_0_LLC_prefetch_requested 0
Core_0_LLC_prefetch_issued 0
Core_0_LLC_prefetch_useful 518775 LLC_Useful Ratio: inf
Core_0_LLC_prefetch_useless 3210476
Core_0_LLC_prefetch_late 1622
Core_0_LLC_average_miss_latency 335.53965

Core_0_major_page_fault 0
Core_0_minor_page_fault 28665

CPU 0 L1D next line prefetcher final stats
CPU 0 L2C PC-based stride prefetcher final stats
Stride Degree: 15
MK1  MARKOV_LRU_SIZE: 128
MK1  MARKOV_PREDICTION_PERCENTTHRESHOLD: 40.00000
MK1  OUTLIERS_THRESHOLD_Max: 64
MK1  OUTLIERS_THRESHOLD_Min: 32
MK2  MARKOV_LRU_SIZE: 256
MK2  MARKOV_PREDICTION_PERCENTTHRESHOLD: 30.00000
MK2  OUTLIERS_THRESHOLD_Max: 32
MK2  OUTLIERS_THRESHOLD_Min: 16
MK3  MARKOV_LRU_SIZE: 384
MK3  MARKOV_PREDICTION_PERCENTTHRESHOLD: 25.00000
MK3  OUTLIERS_THRESHOLD_Max: 16
MK3  OUTLIERS_THRESHOLD_Min: 8
MK4  MARKOV_LRU_SIZE: 512
MK4  MARKOV_PREDICTION_PERCENTTHRESHOLD: 20.00000
MK4  OUTLIERS_THRESHOLD_Max: 8
MK4  OUTLIERS_THRESHOLD_Min: 0
IPStride Degree/Access Ratio: 3.80775
MK1 IPDEltaMarkov  Degree/Access Ratio: 0.49945
MK2 IPDEltaMarkov  Degree/Access Ratio: 0.59338
MK3 IPDEltaMarkov  Degree/Access Ratio: 0.74013
MK4 IPDEltaMarkov  Degree/Access Ratio: 1.49600
Channel_0_RQ_row_buffer_hit 2612930
Channel_0_RQ_row_buffer_miss 2200743
Channel_0_WQ_row_buffer_hit 699576
Channel_0_WQ_row_buffer_miss 1789550
Channel_0_WQ_full 0
Channel_0_dbus_congested 4469406

avg_congested_cycle 10

EzSearch AVG IPC :0.81744: L2-Pf-HR :0.92213 : L2-HR :0.90837 Uful:0.01013
     > Finished combination: TraceType=770-tot Sim:491000000 Prefetcher=L2029-SecTOP-L2-MultiMarkovDelta_ip_stride_v4-MK2-P30 L1=next_line
