TRACE: [167000000][OPT-350M]_[h16][s512][d64] Warmup: 2000000 NumTraces: 167000000
L1:next_line:L2:029-SecTOP-L2-MultiMarkovDelta_ip_stride_v4
*************************************************
   ChampSim Multicore Out-of-Order Simulator
   Last compiled: Oct 27 2024 04:09:37
*************************************************

trace_0 770-tot_memTraces_v3/memTraces[167000000][OPT-350M]_[h16][s512][d64].champsim.xz
CPU 0 L1D next line prefetcher
MK1: Size: 128 TMAX: 64 TMIN: 32 MKPTHRESH: 40
MK2: Size: 256 TMAX: 32 TMIN: 16 MK2PTHRESH: 20
MK3: Size: 384 TMAX: 16 TMIN: 8 MK3PTHRESH: 25
MK4: Size: 512 TMAX: 8 TMIN: 0 MK4PTHRESH: 20
Stride Size: 512 Prefetch Degree: 15

CPU 0 L2C prefetcher
MAIN.cc ln 751 stats print skipped
CPU 0 L2C prefetcher initialized


Cache Size: 1280
number of cache lines: 20480
CPU  0 inst:    1000000 cyc:     499664 now IPC :2.00134: AVG IPC :2.00134: L2-Pf-HR :0.90991: L2-HR :0.89178: (Sim:0h0m19s) 
CPU  0 inst:    2000002 cyc:     982621 now IPC :2.07058: AVG IPC :2.03537: L2-Pf-HR :0.93947: L2-HR :0.92964: (Sim:0h0m40s) 

Warmup complete CPU  0 instructions:    2000002 cycles:     982621 (Simulation time: 0 hr 0 min 40 sec) 

CPU  0 inst:    3000000 cyc:    1464803 now IPC :2.07390: AVG IPC :2.07390: L2-Pf-HR :0.96289: L2-HR :0.96388: (Sim:0h0m48s) 
CPU  0 inst:    4000001 cyc:    1964305 now IPC :2.00200: AVG IPC :2.03731: L2-Pf-HR :0.94712: L2-HR :0.94961: (Sim:0h0m55s) 
CPU  0 inst:    5000002 cyc:    2516216 now IPC :1.81189: AVG IPC :1.95619: L2-Pf-HR :0.93426: L2-HR :0.93561: (Sim:0h1m3s) 
CPU  0 inst:    6000000 cyc:    2983050 now IPC :2.14208: AVG IPC :1.99957: L2-Pf-HR :0.93840: L2-HR :0.94057: (Sim:0h1m10s) 
CPU  0 inst:    7000004 cyc:    3450505 now IPC :2.13925: AVG IPC :2.02603: L2-Pf-HR :0.94581: L2-HR :0.94749: (Sim:0h1m18s) 
CPU  0 inst:    8000003 cyc:    3940739 now IPC :2.03984: AVG IPC :2.02832: L2-Pf-HR :0.94404: L2-HR :0.94595: (Sim:0h1m25s) 
CPU  0 inst:    9000000 cyc:    4490917 now IPC :1.81759: AVG IPC :1.99527: L2-Pf-HR :0.93897: L2-HR :0.94067: (Sim:0h1m33s) 
CPU  0 inst:   10000004 cyc:    4960474 now IPC :2.12968: AVG IPC :2.01114: L2-Pf-HR :0.94056: L2-HR :0.94261: (Sim:0h1m40s) 
CPU  0 inst:   11000003 cyc:    5433344 now IPC :2.11474: AVG IPC :2.02214: L2-Pf-HR :0.94424: L2-HR :0.94602: (Sim:0h1m48s) 
CPU  0 inst:   12000001 cyc:    5942975 now IPC :1.96220: AVG IPC :2.01599: L2-Pf-HR :0.94395: L2-HR :0.94579: (Sim:0h1m55s) 
CPU  0 inst:   13000001 cyc:    6517107 now IPC :1.74176: AVG IPC :1.98754: L2-Pf-HR :0.94080: L2-HR :0.94241: (Sim:0h2m3s) 
CPU  0 inst:   14000005 cyc:    6992580 now IPC :2.10318: AVG IPC :1.99669: L2-Pf-HR :0.94106: L2-HR :0.94302: (Sim:0h2m11s) 
CPU  0 inst:   15000000 cyc:    7464504 now IPC :2.11897: AVG IPC :2.00559: L2-Pf-HR :0.94304: L2-HR :0.94497: (Sim:0h2m18s) 
CPU  0 inst:   16000005 cyc:    7978998 now IPC :1.94367: AVG IPC :2.00104: L2-Pf-HR :0.94339: L2-HR :0.94520: (Sim:0h2m26s) 
CPU  0 inst:   17000002 cyc:    8559496 now IPC :1.72265: AVG IPC :1.97971: L2-Pf-HR :0.94115: L2-HR :0.94284: (Sim:0h2m34s) 
CPU  0 inst:   18000004 cyc:    9035650 now IPC :2.10017: AVG IPC :1.98683: L2-Pf-HR :0.94160: L2-HR :0.94346: (Sim:0h2m41s) 
CPU  0 inst:   19000003 cyc:    9510014 now IPC :2.10808: AVG IPC :1.99358: L2-Pf-HR :0.94292: L2-HR :0.94477: (Sim:0h2m49s) 
CPU  0 inst:   20000001 cyc:   10021612 now IPC :1.95466: AVG IPC :1.99137: L2-Pf-HR :0.94370: L2-HR :0.94540: (Sim:0h2m56s) 
CPU  0 inst:   21000005 cyc:   10597063 now IPC :1.73777: AVG IPC :1.97619: L2-Pf-HR :0.94194: L2-HR :0.94352: (Sim:0h3m4s) 
CPU  0 inst:   22000000 cyc:   11076192 now IPC :2.08711: AVG IPC :1.98146: L2-Pf-HR :0.94206: L2-HR :0.94383: (Sim:0h3m12s) 
CPU  0 inst:   23000000 cyc:   11549122 now IPC :2.11448: AVG IPC :1.98741: L2-Pf-HR :0.94299: L2-HR :0.94479: (Sim:0h3m20s) 
CPU  0 inst:   24000000 cyc:   12057367 now IPC :1.96756: AVG IPC :1.98650: L2-Pf-HR :0.94403: L2-HR :0.94563: (Sim:0h3m27s) 
CPU  0 inst:   25000002 cyc:   12631439 now IPC :1.74195: AVG IPC :1.97445: L2-Pf-HR :0.94252: L2-HR :0.94403: (Sim:0h3m35s) 
CPU  0 inst:   26000004 cyc:   13112458 now IPC :2.07892: AVG IPC :1.97859: L2-Pf-HR :0.94249: L2-HR :0.94416: (Sim:0h3m43s) 
CPU  0 inst:   27000002 cyc:   13585135 now IPC :2.11561: AVG IPC :1.98373: L2-Pf-HR :0.94306: L2-HR :0.94480: (Sim:0h3m50s) 
CPU  0 inst:   28000000 cyc:   14094242 now IPC :1.96422: AVG IPC :1.98297: L2-Pf-HR :0.94422: L2-HR :0.94574: (Sim:0h3m58s) 
CPU  0 inst:   29000005 cyc:   14655373 now IPC :1.78212: AVG IPC :1.97473: L2-Pf-HR :0.94314: L2-HR :0.94463: (Sim:0h4m6s) 
CPU  0 inst:   30000004 cyc:   15158221 now IPC :1.98867: AVG IPC :1.97523: L2-Pf-HR :0.94281: L2-HR :0.94442: (Sim:0h4m14s) 
CPU  0 inst:   31000000 cyc:   15632657 now IPC :2.10776: AVG IPC :1.97952: L2-Pf-HR :0.94325: L2-HR :0.94491: (Sim:0h4m21s) 
CPU  0 inst:   32000004 cyc:   16141518 now IPC :1.96518: AVG IPC :1.97904: L2-Pf-HR :0.94451: L2-HR :0.94596: (Sim:0h4m29s) 
CPU  0 inst:   33000001 cyc:   16648667 now IPC :1.97180: AVG IPC :1.97880: L2-Pf-HR :0.94379: L2-HR :0.94536: (Sim:0h4m36s) 
CPU  0 inst:   34000000 cyc:   17208552 now IPC :1.78608: AVG IPC :1.97215: L2-Pf-HR :0.94295: L2-HR :0.94453: (Sim:0h4m44s) 
CPU  0 inst:   35000001 cyc:   17681024 now IPC :2.11653: AVG IPC :1.97624: L2-Pf-HR :0.94323: L2-HR :0.94490: (Sim:0h4m52s) 
CPU  0 inst:   36000004 cyc:   18159217 now IPC :2.09121: AVG IPC :1.97944: L2-Pf-HR :0.94443: L2-HR :0.94598: (Sim:0h4m59s) 
CPU  0 inst:   37000005 cyc:   18661781 now IPC :1.98980: AVG IPC :1.97973: L2-Pf-HR :0.94389: L2-HR :0.94554: (Sim:0h5m7s) 
CPU  0 inst:   38000003 cyc:   19256329 now IPC :1.68195: AVG IPC :1.97004: L2-Pf-HR :0.94309: L2-HR :0.94462: (Sim:0h5m15s) 
CPU  0 inst:   39000004 cyc:   19726944 now IPC :2.12488: AVG IPC :1.97393: L2-Pf-HR :0.94336: L2-HR :0.94495: (Sim:0h5m23s) 
CPU  0 inst:   40000002 cyc:   20202466 now IPC :2.10295: AVG IPC :1.97712: L2-Pf-HR :0.94440: L2-HR :0.94590: (Sim:0h5m30s) 
CPU  0 inst:   41000005 cyc:   20711539 now IPC :1.96436: AVG IPC :1.97679: L2-Pf-HR :0.94408: L2-HR :0.94563: (Sim:0h5m39s) 
CPU  0 inst:   42000004 cyc:   21301004 now IPC :1.69645: AVG IPC :1.96866: L2-Pf-HR :0.94334: L2-HR :0.94481: (Sim:0h5m47s) 
CPU  0 inst:   43000005 cyc:   21773717 now IPC :2.11545: AVG IPC :1.97200: L2-Pf-HR :0.94351: L2-HR :0.94505: (Sim:0h5m55s) 
CPU  0 inst:   44000002 cyc:   22248384 now IPC :2.10673: AVG IPC :1.97501: L2-Pf-HR :0.94424: L2-HR :0.94575: (Sim:0h6m3s) 
CPU  0 inst:   45000002 cyc:   22753454 now IPC :1.97992: AVG IPC :1.97512: L2-Pf-HR :0.94404: L2-HR :0.94560: (Sim:0h6m10s) 
CPU  0 inst:   46000002 cyc:   23341638 now IPC :1.70015: AVG IPC :1.96789: L2-Pf-HR :0.94335: L2-HR :0.94485: (Sim:0h6m21s) 
CPU  0 inst:   47000000 cyc:   23814168 now IPC :2.11626: AVG IPC :1.97096: L2-Pf-HR :0.94352: L2-HR :0.94508: (Sim:0h6m29s) 
CPU  0 inst:   48000004 cyc:   24288104 now IPC :2.11000: AVG IPC :1.97378: L2-Pf-HR :0.94415: L2-HR :0.94568: (Sim:0h6m36s) 
CPU  0 inst:   49000002 cyc:   24796002 now IPC :1.96890: AVG IPC :1.97368: L2-Pf-HR :0.94407: L2-HR :0.94562: (Sim:0h6m44s) 
CPU  0 inst:   50000000 cyc:   25381745 now IPC :1.70723: AVG IPC :1.96728: L2-Pf-HR :0.94340: L2-HR :0.94489: (Sim:0h6m53s) 
CPU  0 inst:   51000005 cyc:   25860245 now IPC :2.08987: AVG IPC :1.96964: L2-Pf-HR :0.94348: L2-HR :0.94503: (Sim:0h7m1s) 
CPU  0 inst:   52000000 cyc:   26332843 now IPC :2.11595: AVG IPC :1.97237: L2-Pf-HR :0.94392: L2-HR :0.94547: (Sim:0h7m9s) 
CPU  0 inst:   53000004 cyc:   26843198 now IPC :1.95943: AVG IPC :1.97211: L2-Pf-HR :0.94401: L2-HR :0.94554: (Sim:0h7m16s) 
CPU  0 inst:   54000005 cyc:   27423558 now IPC :1.72307: AVG IPC :1.96665: L2-Pf-HR :0.94335: L2-HR :0.94484: (Sim:0h7m24s) 
CPU  0 inst:   55000001 cyc:   27894510 now IPC :2.12335: AVG IPC :1.96939: L2-Pf-HR :0.94342: L2-HR :0.94498: (Sim:0h7m32s) 
CPU  0 inst:   56000002 cyc:   28364836 now IPC :2.12619: AVG IPC :1.97208: L2-Pf-HR :0.94377: L2-HR :0.94534: (Sim:0h7m40s) 
CPU  0 inst:   57000004 cyc:   28875479 now IPC :1.95832: AVG IPC :1.97183: L2-Pf-HR :0.94398: L2-HR :0.94552: (Sim:0h7m47s) 
CPU  0 inst:   58000004 cyc:   29458058 now IPC :1.71651: AVG IPC :1.96661: L2-Pf-HR :0.94338: L2-HR :0.94487: (Sim:0h7m55s) 
CPU  0 inst:   59000004 cyc:   29933976 now IPC :2.10120: AVG IPC :1.96882: L2-Pf-HR :0.94333: L2-HR :0.94491: (Sim:0h8m4s) 
CPU  0 inst:   60000000 cyc:   30406426 now IPC :2.11662: AVG IPC :1.97119: L2-Pf-HR :0.94362: L2-HR :0.94522: (Sim:0h8m12s) 
CPU  0 inst:   61000002 cyc:   30921680 now IPC :1.94079: AVG IPC :1.97067: L2-Pf-HR :0.94394: L2-HR :0.94548: (Sim:0h8m20s) 
CPU  0 inst:   62000001 cyc:   31490173 now IPC :1.75903: AVG IPC :1.96673: L2-Pf-HR :0.94336: L2-HR :0.94487: (Sim:0h8m27s) 
CPU  0 inst:   63000000 cyc:   31965645 now IPC :2.10317: AVG IPC :1.96882: L2-Pf-HR :0.94327: L2-HR :0.94487: (Sim:0h8m35s) 
CPU  0 inst:   64000004 cyc:   32436622 now IPC :2.12325: AVG IPC :1.97113: L2-Pf-HR :0.94349: L2-HR :0.94512: (Sim:0h8m43s) 
CPU  0 inst:   65000000 cyc:   32951263 now IPC :1.94309: AVG IPC :1.97068: L2-Pf-HR :0.94390: L2-HR :0.94546: (Sim:0h8m52s) 
CPU  0 inst:   66000004 cyc:   34111790 now IPC :0.86168: AVG IPC :1.93183: L2-Pf-HR :0.94277: L2-HR :0.94329: (Sim:0h9m1s) 
CPU  0 inst:   67000003 cyc:   39249607 now IPC :0.19464: AVG IPC :1.69859: L2-Pf-HR :0.93679: L2-HR :0.92851: (Sim:0h9m30s) 
CPU  0 inst:   68000002 cyc:   44677390 now IPC :0.18424: AVG IPC :1.51048: L2-Pf-HR :0.93089: L2-HR :0.91470: (Sim:0h10m25s) 
CPU  0 inst:   69000000 cyc:   48734983 now IPC :0.24645: AVG IPC :1.40307: L2-Pf-HR :0.92830: L2-HR :0.90995: (Sim:0h11m4s) 
CPU  0 inst:   70000000 cyc:   52317306 now IPC :0.27915: AVG IPC :1.32464: L2-Pf-HR :0.92711: L2-HR :0.90858: (Sim:0h11m37s) 
CPU  0 inst:   71000002 cyc:   55899976 now IPC :0.27912: AVG IPC :1.25643: L2-Pf-HR :0.92595: L2-HR :0.90725: (Sim:0h12m11s) 
CPU  0 inst:   72000004 cyc:   59480584 now IPC :0.27928: AVG IPC :1.19662: L2-Pf-HR :0.92484: L2-HR :0.90597: (Sim:0h12m44s) 
CPU  0 inst:   73000003 cyc:   63062284 now IPC :0.27920: AVG IPC :1.14369: L2-Pf-HR :0.92376: L2-HR :0.90471: (Sim:0h13m17s) 
CPU  0 inst:   74000000 cyc:   66642735 now IPC :0.27929: AVG IPC :1.09656: L2-Pf-HR :0.92270: L2-HR :0.90348: (Sim:0h13m50s) 
CPU  0 inst:   75000005 cyc:   70222507 now IPC :0.27935: AVG IPC :1.05431: L2-Pf-HR :0.92165: L2-HR :0.90227: (Sim:0h14m23s) 
CPU  0 inst:   76000000 cyc:   73801978 now IPC :0.27937: AVG IPC :1.01621: L2-Pf-HR :0.92065: L2-HR :0.90110: (Sim:0h14m56s) 
CPU  0 inst:   77000000 cyc:   77384749 now IPC :0.27911: AVG IPC :0.98165: L2-Pf-HR :0.91964: L2-HR :0.89994: (Sim:0h15m30s) 
CPU  0 inst:   78000000 cyc:   80965680 now IPC :0.27926: AVG IPC :0.95020: L2-Pf-HR :0.91867: L2-HR :0.89881: (Sim:0h16m3s) 
CPU  0 inst:   79000000 cyc:   84545661 now IPC :0.27933: AVG IPC :0.92146: L2-Pf-HR :0.91772: L2-HR :0.89770: (Sim:0h16m36s) 
CPU  0 inst:   80000004 cyc:   88126478 now IPC :0.27927: AVG IPC :0.89507: L2-Pf-HR :0.91679: L2-HR :0.89661: (Sim:0h17m10s) 
CPU  0 inst:   81000004 cyc:   91707411 now IPC :0.27926: AVG IPC :0.87077: L2-Pf-HR :0.91586: L2-HR :0.89553: (Sim:0h17m43s) 
CPU  0 inst:   82000000 cyc:   95289137 now IPC :0.27919: AVG IPC :0.84830: L2-Pf-HR :0.91496: L2-HR :0.89448: (Sim:0h18m17s) 
CPU  0 inst:   83000005 cyc:   98869778 now IPC :0.27928: AVG IPC :0.82748: L2-Pf-HR :0.91408: L2-HR :0.89346: (Sim:0h18m50s) 
CPU  0 inst:   84000001 cyc:  102448569 now IPC :0.27942: AVG IPC :0.80815: L2-Pf-HR :0.91322: L2-HR :0.89245: (Sim:0h19m23s) 
CPU  0 inst:   85000005 cyc:  106028541 now IPC :0.27933: AVG IPC :0.79013: L2-Pf-HR :0.91238: L2-HR :0.89146: (Sim:0h19m57s) 
CPU  0 inst:   86000000 cyc:  109609775 now IPC :0.27923: AVG IPC :0.77329: L2-Pf-HR :0.91154: L2-HR :0.89048: (Sim:0h20m30s) 
CPU  0 inst:   87000002 cyc:  113189716 now IPC :0.27933: AVG IPC :0.75753: L2-Pf-HR :0.91073: L2-HR :0.88954: (Sim:0h20m57s) 
CPU  0 inst:   88000004 cyc:  116770629 now IPC :0.27926: AVG IPC :0.74274: L2-Pf-HR :0.90993: L2-HR :0.88860: (Sim:0h21m13s) 
CPU  0 inst:   89000004 cyc:  120351668 now IPC :0.27925: AVG IPC :0.72883: L2-Pf-HR :0.90914: L2-HR :0.88767: (Sim:0h21m29s) 
CPU  0 inst:   90000000 cyc:  123931423 now IPC :0.27935: AVG IPC :0.71575: L2-Pf-HR :0.90838: L2-HR :0.88677: (Sim:0h21m45s) 
CPU  0 inst:   91000003 cyc:  127513814 now IPC :0.27914: AVG IPC :0.70338: L2-Pf-HR :0.90762: L2-HR :0.88588: (Sim:0h22m1s) 
CPU  0 inst:   92000002 cyc:  131094793 now IPC :0.27925: AVG IPC :0.69171: L2-Pf-HR :0.90688: L2-HR :0.88501: (Sim:0h22m16s) 
CPU  0 inst:   93000003 cyc:  134674700 now IPC :0.27934: AVG IPC :0.68067: L2-Pf-HR :0.90614: L2-HR :0.88415: (Sim:0h22m32s) 
CPU  0 inst:   94000002 cyc:  138254099 now IPC :0.27938: AVG IPC :0.67020: L2-Pf-HR :0.90543: L2-HR :0.88332: (Sim:0h22m48s) 
CPU  0 inst:   95000002 cyc:  141835553 now IPC :0.27922: AVG IPC :0.66026: L2-Pf-HR :0.90472: L2-HR :0.88249: (Sim:0h23m4s) 
CPU  0 inst:   96000004 cyc:  145415491 now IPC :0.27933: AVG IPC :0.65082: L2-Pf-HR :0.90404: L2-HR :0.88167: (Sim:0h23m20s) 
CPU  0 inst:   97000004 cyc:  148995763 now IPC :0.27931: AVG IPC :0.64183: L2-Pf-HR :0.90336: L2-HR :0.88088: (Sim:0h23m54s) 
CPU  0 inst:   98000000 cyc:  152577286 now IPC :0.27921: AVG IPC :0.63327: L2-Pf-HR :0.90269: L2-HR :0.88009: (Sim:0h24m27s) 
CPU  0 inst:   99000003 cyc:  156156623 now IPC :0.27938: AVG IPC :0.62510: L2-Pf-HR :0.90204: L2-HR :0.87932: (Sim:0h25m1s) 
CPU  0 inst:  100000002 cyc:  159738222 now IPC :0.27920: AVG IPC :0.61730: L2-Pf-HR :0.90139: L2-HR :0.87855: (Sim:0h25m35s) 
CPU  0 inst:  101000003 cyc:  161811010 now IPC :0.48244: AVG IPC :0.61556: L2-Pf-HR :0.90150: L2-HR :0.87889: (Sim:0h26m3s) 
CPU  0 inst:  102000004 cyc:  162441967 now IPC :1.58490: AVG IPC :0.61935: L2-Pf-HR :0.90281: L2-HR :0.88079: (Sim:0h26m25s) 
CPU  0 inst:  103000000 cyc:  163045538 now IPC :1.65680: AVG IPC :0.62321: L2-Pf-HR :0.90425: L2-HR :0.88277: (Sim:0h26m48s) 
CPU  0 inst:  104000003 cyc:  163564027 now IPC :1.92869: AVG IPC :0.62738: L2-Pf-HR :0.90613: L2-HR :0.88510: (Sim:0h27m10s) 
CPU  0 inst:  105000003 cyc:  164166209 now IPC :1.66063: AVG IPC :0.63119: L2-Pf-HR :0.90755: L2-HR :0.88700: (Sim:0h27m32s) 
CPU  0 inst:  106000000 cyc:  164790009 now IPC :1.60307: AVG IPC :0.63489: L2-Pf-HR :0.90859: L2-HR :0.88855: (Sim:0h27m55s) 
CPU  0 inst:  107000000 cyc:  165394582 now IPC :1.65406: AVG IPC :0.63864: L2-Pf-HR :0.90972: L2-HR :0.89016: (Sim:0h28m17s) 
CPU  0 inst:  108000005 cyc:  165910617 now IPC :1.93786: AVG IPC :0.64270: L2-Pf-HR :0.91139: L2-HR :0.89221: (Sim:0h28m39s) 
CPU  0 inst:  109000000 cyc:  166482038 now IPC :1.75001: AVG IPC :0.64653: L2-Pf-HR :0.91275: L2-HR :0.89396: (Sim:0h29m1s) 
CPU  0 inst:  110000005 cyc:  167081323 now IPC :1.66866: AVG IPC :0.65022: L2-Pf-HR :0.91358: L2-HR :0.89525: (Sim:0h29m24s) 
CPU  0 inst:  111000002 cyc:  167659837 now IPC :1.72856: AVG IPC :0.65396: L2-Pf-HR :0.91444: L2-HR :0.89652: (Sim:0h29m46s) 
CPU  0 inst:  112000000 cyc:  168177562 now IPC :1.93152: AVG IPC :0.65791: L2-Pf-HR :0.91582: L2-HR :0.89824: (Sim:0h30m8s) 
CPU  0 inst:  113000000 cyc:  168714328 now IPC :1.86301: AVG IPC :0.66177: L2-Pf-HR :0.91704: L2-HR :0.89979: (Sim:0h30m30s) 
CPU  0 inst:  114000001 cyc:  169307888 now IPC :1.68475: AVG IPC :0.66538: L2-Pf-HR :0.91772: L2-HR :0.90086: (Sim:0h30m52s) 
CPU  0 inst:  115000000 cyc:  169881327 now IPC :1.74386: AVG IPC :0.66904: L2-Pf-HR :0.91846: L2-HR :0.90197: (Sim:0h31m14s) 
CPU  0 inst:  116000002 cyc:  170408989 now IPC :1.89516: AVG IPC :0.67286: L2-Pf-HR :0.91961: L2-HR :0.90342: (Sim:0h31m36s) 
CPU  0 inst:  117000004 cyc:  170925373 now IPC :1.93655: AVG IPC :0.67670: L2-Pf-HR :0.92081: L2-HR :0.90489: (Sim:0h31m58s) 
CPU  0 inst:  118000004 cyc:  171529603 now IPC :1.65500: AVG IPC :0.68016: L2-Pf-HR :0.92136: L2-HR :0.90578: (Sim:0h32m20s) 
CPU  0 inst:  119000005 cyc:  172105290 now IPC :1.73706: AVG IPC :0.68372: L2-Pf-HR :0.92197: L2-HR :0.90672: (Sim:0h32m43s) 
CPU  0 inst:  120000005 cyc:  172647955 now IPC :1.84276: AVG IPC :0.68738: L2-Pf-HR :0.92284: L2-HR :0.90787: (Sim:0h33m4s) 
CPU  0 inst:  121000004 cyc:  173165002 now IPC :1.93406: AVG IPC :0.69113: L2-Pf-HR :0.92384: L2-HR :0.90911: (Sim:0h33m26s) 
CPU  0 inst:  122000003 cyc:  173751213 now IPC :1.70587: AVG IPC :0.69457: L2-Pf-HR :0.92435: L2-HR :0.90991: (Sim:0h33m48s) 
CPU  0 inst:  123000001 cyc:  174334319 now IPC :1.71495: AVG IPC :0.69800: L2-Pf-HR :0.92486: L2-HR :0.91072: (Sim:0h34m11s) 
CPU  0 inst:  124000002 cyc:  174886409 now IPC :1.81130: AVG IPC :0.70154: L2-Pf-HR :0.92565: L2-HR :0.91175: (Sim:0h34m28s) 
CPU  0 inst:  125000003 cyc:  175402055 now IPC :1.93932: AVG IPC :0.70520: L2-Pf-HR :0.92667: L2-HR :0.91298: (Sim:0h34m38s) 
CPU  0 inst:  126000005 cyc:  175970456 now IPC :1.75932: AVG IPC :0.70862: L2-Pf-HR :0.92727: L2-HR :0.91382: (Sim:0h34m48s) 
CPU  0 inst:  127000002 cyc:  176548865 now IPC :1.72888: AVG IPC :0.71198: L2-Pf-HR :0.92771: L2-HR :0.91452: (Sim:0h34m58s) 
CPU  0 inst:  128000001 cyc:  177112167 now IPC :1.77524: AVG IPC :0.71538: L2-Pf-HR :0.92829: L2-HR :0.91534: (Sim:0h35m8s) 
CPU  0 inst:  129000000 cyc:  177629158 now IPC :1.93427: AVG IPC :0.71895: L2-Pf-HR :0.92920: L2-HR :0.91643: (Sim:0h35m18s) 
CPU  0 inst:  130000002 cyc:  178195370 now IPC :1.76613: AVG IPC :0.72230: L2-Pf-HR :0.92984: L2-HR :0.91727: (Sim:0h35m28s) 
CPU  0 inst:  131000004 cyc:  178779872 now IPC :1.71086: AVG IPC :0.72555: L2-Pf-HR :0.93023: L2-HR :0.91790: (Sim:0h35m40s) 
CPU  0 inst:  132000003 cyc:  179354061 now IPC :1.74159: AVG IPC :0.72882: L2-Pf-HR :0.93065: L2-HR :0.91854: (Sim:0h35m50s) 
CPU  0 inst:  133000005 cyc:  179872245 now IPC :1.92982: AVG IPC :0.73230: L2-Pf-HR :0.93143: L2-HR :0.91949: (Sim:0h36m0s) 
CPU  0 inst:  134000001 cyc:  180415421 now IPC :1.84102: AVG IPC :0.73565: L2-Pf-HR :0.93205: L2-HR :0.92028: (Sim:0h36m10s) 
CPU  0 inst:  135000003 cyc:  180999302 now IPC :1.71268: AVG IPC :0.73882: L2-Pf-HR :0.93239: L2-HR :0.92084: (Sim:0h36m20s) 
CPU  0 inst:  136000002 cyc:  181592481 now IPC :1.68583: AVG IPC :0.74193: L2-Pf-HR :0.93269: L2-HR :0.92135: (Sim:0h36m31s) 
CPU  0 inst:  137000001 cyc:  182108703 now IPC :1.93715: AVG IPC :0.74534: L2-Pf-HR :0.93347: L2-HR :0.92227: (Sim:0h36m40s) 
CPU  0 inst:  138000002 cyc:  182625668 now IPC :1.93437: AVG IPC :0.74872: L2-Pf-HR :0.93423: L2-HR :0.92317: (Sim:0h36m50s) 
CPU  0 inst:  139000002 cyc:  183223658 now IPC :1.67227: AVG IPC :0.75175: L2-Pf-HR :0.93446: L2-HR :0.92360: (Sim:0h37m1s) 
CPU  0 inst:  140000005 cyc:  183812269 now IPC :1.69892: AVG IPC :0.75480: L2-Pf-HR :0.93471: L2-HR :0.92405: (Sim:0h37m11s) 
CPU  0 inst:  141000003 cyc:  184341962 now IPC :1.88788: AVG IPC :0.75807: L2-Pf-HR :0.93528: L2-HR :0.92476: (Sim:0h37m21s) 
CPU  0 inst:  142000000 cyc:  184859521 now IPC :1.93214: AVG IPC :0.76138: L2-Pf-HR :0.93592: L2-HR :0.92553: (Sim:0h37m30s) 
CPU  0 inst:  143000000 cyc:  185445469 now IPC :1.70664: AVG IPC :0.76438: L2-Pf-HR :0.93620: L2-HR :0.92598: (Sim:0h37m40s) 
CPU  0 inst:  144000005 cyc:  186035501 now IPC :1.69483: AVG IPC :0.76735: L2-Pf-HR :0.93643: L2-HR :0.92639: (Sim:0h37m51s) 
CPU  0 inst:  145000004 cyc:  186580797 now IPC :1.83386: AVG IPC :0.77048: L2-Pf-HR :0.93691: L2-HR :0.92700: (Sim:0h38m1s) 
CPU  0 inst:  146000004 cyc:  187096755 now IPC :1.93814: AVG IPC :0.77372: L2-Pf-HR :0.93754: L2-HR :0.92775: (Sim:0h38m10s) 
CPU  0 inst:  147000000 cyc:  187670829 now IPC :1.74193: AVG IPC :0.77670: L2-Pf-HR :0.93785: L2-HR :0.92821: (Sim:0h38m21s) 
CPU  0 inst:  148000003 cyc:  188263713 now IPC :1.68668: AVG IPC :0.77958: L2-Pf-HR :0.93804: L2-HR :0.92856: (Sim:0h38m31s) 
CPU  0 inst:  149000001 cyc:  188817231 now IPC :1.80662: AVG IPC :0.78260: L2-Pf-HR :0.93840: L2-HR :0.92906: (Sim:0h38m41s) 
CPU  0 inst:  150000000 cyc:  189333396 now IPC :1.93736: AVG IPC :0.78577: L2-Pf-HR :0.93895: L2-HR :0.92971: (Sim:0h38m51s) 
CPU  0 inst:  151000005 cyc:  189902727 now IPC :1.75646: AVG IPC :0.78869: L2-Pf-HR :0.93925: L2-HR :0.93015: (Sim:0h39m1s) 
CPU  0 inst:  152000003 cyc:  190493302 now IPC :1.69326: AVG IPC :0.79151: L2-Pf-HR :0.93943: L2-HR :0.93047: (Sim:0h39m11s) 
CPU  0 inst:  153000002 cyc:  191058730 now IPC :1.76857: AVG IPC :0.79442: L2-Pf-HR :0.93972: L2-HR :0.93090: (Sim:0h39m21s) 
CPU  0 inst:  154000003 cyc:  191575362 now IPC :1.93562: AVG IPC :0.79751: L2-Pf-HR :0.94023: L2-HR :0.93151: (Sim:0h39m31s) 
CPU  0 inst:  155000003 cyc:  192137095 now IPC :1.78021: AVG IPC :0.80040: L2-Pf-HR :0.94057: L2-HR :0.93196: (Sim:0h39m41s) 
CPU  0 inst:  156000002 cyc:  192712805 now IPC :1.73698: AVG IPC :0.80321: L2-Pf-HR :0.94074: L2-HR :0.93227: (Sim:0h39m52s) 
CPU  0 inst:  157000005 cyc:  193289261 now IPC :1.73474: AVG IPC :0.80600: L2-Pf-HR :0.94096: L2-HR :0.93261: (Sim:0h40m2s) 
CPU  0 inst:  158000000 cyc:  193805977 now IPC :1.93529: AVG IPC :0.80903: L2-Pf-HR :0.94146: L2-HR :0.93320: (Sim:0h40m12s) 
CPU  0 inst:  159000002 cyc:  194362018 now IPC :1.79843: AVG IPC :0.81188: L2-Pf-HR :0.94184: L2-HR :0.93368: (Sim:0h40m22s) 
CPU  0 inst:  160000003 cyc:  194944591 now IPC :1.71652: AVG IPC :0.81459: L2-Pf-HR :0.94199: L2-HR :0.93396: (Sim:0h40m32s) 
CPU  0 inst:  161000002 cyc:  195521472 now IPC :1.73346: AVG IPC :0.81732: L2-Pf-HR :0.94217: L2-HR :0.93426: (Sim:0h40m42s) 
CPU  0 inst:  162000002 cyc:  196050757 now IPC :1.88934: AVG IPC :0.82023: L2-Pf-HR :0.94253: L2-HR :0.93471: (Sim:0h40m52s) 
CPU  0 inst:  163000000 cyc:  196568260 now IPC :1.93235: AVG IPC :0.82317: L2-Pf-HR :0.94290: L2-HR :0.93518: (Sim:0h41m2s) 
CPU  0 inst:  164000001 cyc:  197171108 now IPC :1.65879: AVG IPC :0.82574: L2-Pf-HR :0.94301: L2-HR :0.93540: (Sim:0h41m12s) 
Finished CPU 0 instr: 162000005 cyc: 196188488 AVG IPC: 0.82574 (Sim time: 0h41m12s)

ChampSim completed all CPUs

[ROI Statistics]
Core_0_instructions 162000005
Core_0_cycles 196188488
Core_0_IPC 0.82574

Core_0_branch_prediction_accuracy 99.21038
Core_0_branch_MPKI 0.23475
Core_0_average_ROB_occupancy_at_mispredict 452.38631

Core_0_L1D_total_access 101304006
Core_0_L1D_total_hit 93013420 L1D_total_Hit Ratio: 0.91816
Core_0_L1D_total_miss 8290586
Core_0_L1D_loads 40560157
Core_0_L1D_load_hit 36449462 L1D_load_Hit Ratio: 0.89865
Core_0_L1D_load_miss 4110695
Core_0_L1D_RFOs 4407698
Core_0_L1D_RFO_hit 4167645 L1D_RFO_Hit Ratio: 0.94554
Core_0_L1D_RFO_miss 240053
Core_0_L1D_prefetches 56336151
Core_0_L1D_prefetch_hit 52396313 L1D_prefetch_Hit Ratio: 0.93007
Core_0_L1D_prefetch_miss 3939838
Core_0_L1D_writebacks 0
Core_0_L1D_writeback_hit 0 L1D_writeback_Hit Ratio: -nan
Core_0_L1D_writeback_miss 0
Core_0_L1D_prefetch_requested 126768918
Core_0_L1D_prefetch_issued 65394820
Core_0_L1D_prefetch_useful 1874730 L1D_Useful Ratio: 0.02867
Core_0_L1D_prefetch_useless 2086410
Core_0_L1D_prefetch_late 161144
Core_0_L1D_average_miss_latency 1003017.15525

Core_0_L1I_total_access 22982914
Core_0_L1I_total_hit 22977899 L1I_total_Hit Ratio: 0.99978
Core_0_L1I_total_miss 5015
Core_0_L1I_loads 22982914
Core_0_L1I_load_hit 22977899 L1I_load_Hit Ratio: 0.99978
Core_0_L1I_load_miss 5015
Core_0_L1I_RFOs 0
Core_0_L1I_RFO_hit 0 L1I_RFO_Hit Ratio: -nan
Core_0_L1I_RFO_miss 0
Core_0_L1I_prefetches 0
Core_0_L1I_prefetch_hit 0 L1I_prefetch_Hit Ratio: -nan
Core_0_L1I_prefetch_miss 0
Core_0_L1I_writebacks 0
Core_0_L1I_writeback_hit 0 L1I_writeback_Hit Ratio: -nan
Core_0_L1I_writeback_miss 0
Core_0_L1I_prefetch_requested 0
Core_0_L1I_prefetch_issued 0
Core_0_L1I_prefetch_useful 0 L1I_Useful Ratio: -nan
Core_0_L1I_prefetch_useless 0
Core_0_L1I_prefetch_late 0
Core_0_L1I_average_miss_latency 322.83649

Core_0_L2C_total_access 23326543
Core_0_L2C_total_hit 21819764 L2C_total_Hit Ratio: 0.93540
Core_0_L2C_total_miss 1506779
Core_0_L2C_loads 3956344
Core_0_L2C_load_hit 3662897 L2C_load_Hit Ratio: 0.92583
Core_0_L2C_load_miss 293447
Core_0_L2C_RFOs 240051
Core_0_L2C_RFO_hit 60001 L2C_RFO_Hit Ratio: 0.24995
Core_0_L2C_RFO_miss 180050
Core_0_L2C_prefetches 18129292
Core_0_L2C_prefetch_hit 17096021 L2C_prefetch_Hit Ratio: 0.94301
Core_0_L2C_prefetch_miss 1033271
Core_0_L2C_writebacks 1000856
Core_0_L2C_writeback_hit 1000845 L2C_writeback_Hit Ratio: 0.99999
Core_0_L2C_writeback_miss 11
Core_0_L2C_prefetch_requested 62008163
Core_0_L2C_prefetch_issued 20872078
Core_0_L2C_prefetch_useful 380189 L2C_Useful Ratio: 0.01822
Core_0_L2C_prefetch_useless 655015
Core_0_L2C_prefetch_late 188016
Core_0_L2C_average_miss_latency 333.07771

Core_0_LLC_total_access 2354420
Core_0_LLC_total_hit 922028 LLC_total_Hit Ratio: 0.39162
Core_0_LLC_total_miss 1432392
Core_0_LLC_loads 105480
Core_0_LLC_load_hit 10549 LLC_load_Hit Ratio: 0.10001
Core_0_LLC_load_miss 94931
Core_0_LLC_RFOs 180050
Core_0_LLC_RFO_hit 49 LLC_RFO_Hit Ratio: 0.00027
Core_0_LLC_RFO_miss 180001
Core_0_LLC_prefetches 1227180
Core_0_LLC_prefetch_hit 73137 LLC_prefetch_Hit Ratio: 0.05960
Core_0_LLC_prefetch_miss 1154043
Core_0_LLC_writebacks 841710
Core_0_LLC_writeback_hit 838293 LLC_writeback_Hit Ratio: 0.99594
Core_0_LLC_writeback_miss 3417
Core_0_LLC_prefetch_requested 0
Core_0_LLC_prefetch_issued 0
Core_0_LLC_prefetch_useful 5632 LLC_Useful Ratio: inf
Core_0_LLC_prefetch_useless 1121942
Core_0_LLC_prefetch_late 1394
Core_0_LLC_average_miss_latency 331.61301

Core_0_major_page_fault 0
Core_0_minor_page_fault 11197

CPU 0 L1D next line prefetcher final stats
CPU 0 L2C PC-based stride prefetcher final stats
Stride Degree: 15
MK1  MARKOV_LRU_SIZE: 128
MK1  MARKOV_PREDICTION_PERCENTTHRESHOLD: 40.00000
MK1  OUTLIERS_THRESHOLD_Max: 64
MK1  OUTLIERS_THRESHOLD_Min: 32
MK2  MARKOV_LRU_SIZE: 256
MK2  MARKOV_PREDICTION_PERCENTTHRESHOLD: 20.00000
MK2  OUTLIERS_THRESHOLD_Max: 32
MK2  OUTLIERS_THRESHOLD_Min: 16
MK3  MARKOV_LRU_SIZE: 384
MK3  MARKOV_PREDICTION_PERCENTTHRESHOLD: 25.00000
MK3  OUTLIERS_THRESHOLD_Max: 16
MK3  OUTLIERS_THRESHOLD_Min: 8
MK4  MARKOV_LRU_SIZE: 512
MK4  MARKOV_PREDICTION_PERCENTTHRESHOLD: 20.00000
MK4  OUTLIERS_THRESHOLD_Max: 8
MK4  OUTLIERS_THRESHOLD_Min: 0
IPStride Degree/Access Ratio: 4.12992
MK1 IPDEltaMarkov  Degree/Access Ratio: 0.52178
MK2 IPDEltaMarkov  Degree/Access Ratio: 1.12079
MK3 IPDEltaMarkov  Degree/Access Ratio: 0.78008
MK4 IPDEltaMarkov  Degree/Access Ratio: 1.36837
Channel_0_RQ_row_buffer_hit 735711
Channel_0_RQ_row_buffer_miss 693264
Channel_0_WQ_row_buffer_hit 268880
Channel_0_WQ_row_buffer_miss 549190
Channel_0_WQ_full 197
Channel_0_dbus_congested 1493841

avg_congested_cycle 11

EzSearch AVG IPC :0.82574: L2-Pf-HR :0.94301 : L2-HR :0.93540 Uful:0.01822
     > Finished combination: TraceType=770-tot Sim:162000000 Prefetcher=L2029-SecTOP-L2-MultiMarkovDelta_ip_stride_v4 L1=next_line
