TRACE: [42000000]_FE_[OPT-350M]_[h16]_[s256]_[d64] Warmup: 2000000 NumTraces: 42000000
L1:berti:L2:berti
*************************************************
   ChampSim Multicore Out-of-Order Simulator
   Last compiled: Oct 27 2024 13:23:49
*************************************************

trace_0 770-tot_memTraces_v3/memTraces[42000000]_FE_[OPT-350M]_[h16]_[s256]_[d64].champsim.xz
CPU 0 L1D Berti prefetcher
CPU 0 L2C Berti prefetcher
MAIN.cc ln 751 stats print skipped
CPU  0 inst:    1000002 cyc:     501095 now IPC :1.99563: AVG IPC :1.99563: L2-Pf-HR :0.78553: L2-HR :0.76769: (Sim:0h0m21s) 
CPU  0 inst:    2000000 cyc:     988685 now IPC :2.05090: AVG IPC :2.02289: L2-Pf-HR :0.83090: L2-HR :0.81679: (Sim:0h0m33s) 

Warmup complete CPU  0 instructions:    2000002 cycles:     988686 (Simulation time: 0 hr 0 min 33 sec) 

CPU  0 inst:    3000003 cyc:    1554844 now IPC :1.76629: AVG IPC :1.76629: L2-Pf-HR :0.90039: L2-HR :0.86556: (Sim:0h0m42s) 
CPU  0 inst:    4000003 cyc:    2125208 now IPC :1.75327: AVG IPC :1.75976: L2-Pf-HR :0.89920: L2-HR :0.86377: (Sim:0h0m52s) 
CPU  0 inst:    5000002 cyc:    2688018 now IPC :1.77680: AVG IPC :1.76540: L2-Pf-HR :0.89778: L2-HR :0.86520: (Sim:0h1m2s) 
CPU  0 inst:    6000000 cyc:    3256664 now IPC :1.75856: AVG IPC :1.76368: L2-Pf-HR :0.89824: L2-HR :0.86471: (Sim:0h1m11s) 
CPU  0 inst:    7000002 cyc:    3818482 now IPC :1.77994: AVG IPC :1.76691: L2-Pf-HR :0.89836: L2-HR :0.86505: (Sim:0h1m20s) 
CPU  0 inst:    8000003 cyc:    4397890 now IPC :1.72590: AVG IPC :1.75994: L2-Pf-HR :0.89819: L2-HR :0.86464: (Sim:0h1m30s) 
CPU  0 inst:    9000005 cyc:    4988245 now IPC :1.69390: AVG IPC :1.75019: L2-Pf-HR :0.89875: L2-HR :0.86479: (Sim:0h1m39s) 
CPU  0 inst:   10000005 cyc:    5599548 now IPC :1.63585: AVG IPC :1.73503: L2-Pf-HR :0.90016: L2-HR :0.86605: (Sim:0h1m54s) 
CPU  0 inst:   11000002 cyc:    6215595 now IPC :1.62325: AVG IPC :1.72186: L2-Pf-HR :0.90034: L2-HR :0.86601: (Sim:0h2m15s) 
CPU  0 inst:   12000004 cyc:    6829664 now IPC :1.62848: AVG IPC :1.71204: L2-Pf-HR :0.90166: L2-HR :0.86651: (Sim:0h2m36s) 
CPU  0 inst:   13000005 cyc:    7433355 now IPC :1.65648: AVG IPC :1.70684: L2-Pf-HR :0.90218: L2-HR :0.86739: (Sim:0h2m57s) 
CPU  0 inst:   14000001 cyc:    8034288 now IPC :1.66407: AVG IPC :1.70319: L2-Pf-HR :0.90275: L2-HR :0.86788: (Sim:0h3m18s) 
CPU  0 inst:   15000000 cyc:    8637206 now IPC :1.65860: AVG IPC :1.69967: L2-Pf-HR :0.90271: L2-HR :0.86810: (Sim:0h3m39s) 
CPU  0 inst:   16000002 cyc:    9237650 now IPC :1.66544: AVG IPC :1.69718: L2-Pf-HR :0.90264: L2-HR :0.86838: (Sim:0h4m0s) 
CPU  0 inst:   17000003 cyc:    9923614 now IPC :1.45780: AVG IPC :1.67880: L2-Pf-HR :0.90261: L2-HR :0.86744: (Sim:0h4m20s) 
CPU  0 inst:   18000001 cyc:   14087104 now IPC :0.24018: AVG IPC :1.22152: L2-Pf-HR :0.84349: L2-HR :0.80207: (Sim:0h5m6s) 
CPU  0 inst:   19000000 cyc:   17471958 now IPC :0.29543: AVG IPC :1.03135: L2-Pf-HR :0.82533: L2-HR :0.79037: (Sim:0h5m38s) 
CPU  0 inst:   20000000 cyc:   20856104 now IPC :0.29550: AVG IPC :0.90601: L2-Pf-HR :0.80833: L2-HR :0.77946: (Sim:0h6m11s) 
CPU  0 inst:   21000000 cyc:   24238127 now IPC :0.29568: AVG IPC :0.81722: L2-Pf-HR :0.79228: L2-HR :0.76925: (Sim:0h6m44s) 
CPU  0 inst:   22000000 cyc:   27620493 now IPC :0.29565: AVG IPC :0.75098: L2-Pf-HR :0.77704: L2-HR :0.75967: (Sim:0h7m17s) 
CPU  0 inst:   23000000 cyc:   31003484 now IPC :0.29560: AVG IPC :0.69965: L2-Pf-HR :0.76272: L2-HR :0.75068: (Sim:0h7m50s) 
CPU  0 inst:   24000000 cyc:   34385620 now IPC :0.29567: AVG IPC :0.65874: L2-Pf-HR :0.74930: L2-HR :0.74221: (Sim:0h8m22s) 
CPU  0 inst:   25000000 cyc:   37769956 now IPC :0.29548: AVG IPC :0.62532: L2-Pf-HR :0.73672: L2-HR :0.73430: (Sim:0h8m55s) 
CPU  0 inst:   26000003 cyc:   40909806 now IPC :0.31849: AVG IPC :0.60119: L2-Pf-HR :0.72528: L2-HR :0.72744: (Sim:0h9m27s) 
CPU  0 inst:   27000004 cyc:   41527871 now IPC :1.61795: AVG IPC :0.61669: L2-Pf-HR :0.72826: L2-HR :0.73997: (Sim:0h9m55s) 
CPU  0 inst:   28000002 cyc:   42143882 now IPC :1.62334: AVG IPC :0.63175: L2-Pf-HR :0.73196: L2-HR :0.75117: (Sim:0h10m24s) 
CPU  0 inst:   29000005 cyc:   42743808 now IPC :1.66688: AVG IPC :0.64663: L2-Pf-HR :0.73573: L2-HR :0.76181: (Sim:0h10m53s) 
CPU  0 inst:   30000004 cyc:   43326530 now IPC :1.71608: AVG IPC :0.66135: L2-Pf-HR :0.73976: L2-HR :0.77119: (Sim:0h11m22s) 
CPU  0 inst:   31000004 cyc:   43945157 now IPC :1.61648: AVG IPC :0.67510: L2-Pf-HR :0.74261: L2-HR :0.77948: (Sim:0h11m50s) 
CPU  0 inst:   32000004 cyc:   44556941 now IPC :1.63456: AVG IPC :0.68857: L2-Pf-HR :0.74526: L2-HR :0.78672: (Sim:0h12m20s) 
CPU  0 inst:   33000003 cyc:   45160311 now IPC :1.65736: AVG IPC :0.70181: L2-Pf-HR :0.74800: L2-HR :0.79334: (Sim:0h12m49s) 
CPU  0 inst:   34000002 cyc:   45742208 now IPC :1.71852: AVG IPC :0.71503: L2-Pf-HR :0.75000: L2-HR :0.79928: (Sim:0h13m17s) 
CPU  0 inst:   35000000 cyc:   46328203 now IPC :1.70650: AVG IPC :0.72784: L2-Pf-HR :0.75339: L2-HR :0.80545: (Sim:0h13m46s) 
CPU  0 inst:   36000004 cyc:   46903718 now IPC :1.73758: AVG IPC :0.74050: L2-Pf-HR :0.75619: L2-HR :0.81049: (Sim:0h14m15s) 
CPU  0 inst:   37000000 cyc:   47483165 now IPC :1.72578: AVG IPC :0.75278: L2-Pf-HR :0.75816: L2-HR :0.81501: (Sim:0h14m43s) 
CPU  0 inst:   38000002 cyc:   48063169 now IPC :1.72413: AVG IPC :0.76475: L2-Pf-HR :0.75999: L2-HR :0.81912: (Sim:0h15m11s) 
CPU  0 inst:   39000003 cyc:   48636558 now IPC :1.74402: AVG IPC :0.77653: L2-Pf-HR :0.76171: L2-HR :0.82293: (Sim:0h15m40s) 
Finished CPU 0 instr: 37000001 cyc: 47647872 AVG IPC: 0.77653 (Sim time: 0h15m40s)

ChampSim completed all CPUs

[ROI Statistics]
Core_0_instructions 37000001
Core_0_cycles 47647872
Core_0_IPC 0.77653

Core_0_branch_prediction_accuracy 98.43855
Core_0_branch_MPKI 0.50535
Core_0_average_ROB_occupancy_at_mispredict 342.94138

Core_0_L1D_total_access 15758003
Core_0_L1D_total_hit 14237192 L1D_total_Hit Ratio: 0.90349
Core_0_L1D_total_miss 1520811
Core_0_L1D_loads 9247808
Core_0_L1D_load_hit 8386572 L1D_load_Hit Ratio: 0.90687
Core_0_L1D_load_miss 861236
Core_0_L1D_RFOs 1136654
Core_0_L1D_RFO_hit 1101124 L1D_RFO_Hit Ratio: 0.96874
Core_0_L1D_RFO_miss 35530
Core_0_L1D_prefetches 5373541
Core_0_L1D_prefetch_hit 4749496 L1D_prefetch_Hit Ratio: 0.88387
Core_0_L1D_prefetch_miss 624045
Core_0_L1D_writebacks 0
Core_0_L1D_writeback_hit 0 L1D_writeback_Hit Ratio: -nan
Core_0_L1D_writeback_miss 0
Core_0_L1D_prefetch_requested 6318758
Core_0_L1D_prefetch_issued 6318758
Core_0_L1D_prefetch_useful 501262 L1D_Useful Ratio: 0.07933
Core_0_L1D_prefetch_useless 155321
Core_0_L1D_prefetch_late 67029
Core_0_L1D_average_miss_latency 1370689.87022

Core_0_L1I_total_access 5042656
Core_0_L1I_total_hit 5037938 L1I_total_Hit Ratio: 0.99906
Core_0_L1I_total_miss 4718
Core_0_L1I_loads 5042656
Core_0_L1I_load_hit 5037938 L1I_load_Hit Ratio: 0.99906
Core_0_L1I_load_miss 4718
Core_0_L1I_RFOs 0
Core_0_L1I_RFO_hit 0 L1I_RFO_Hit Ratio: -nan
Core_0_L1I_RFO_miss 0
Core_0_L1I_prefetches 0
Core_0_L1I_prefetch_hit 0 L1I_prefetch_Hit Ratio: -nan
Core_0_L1I_prefetch_miss 0
Core_0_L1I_writebacks 0
Core_0_L1I_writeback_hit 0 L1I_writeback_Hit Ratio: -nan
Core_0_L1I_writeback_miss 0
Core_0_L1I_prefetch_requested 0
Core_0_L1I_prefetch_issued 0
Core_0_L1I_prefetch_useful 0 L1I_Useful Ratio: -nan
Core_0_L1I_prefetch_useless 0
Core_0_L1I_prefetch_late 0
Core_0_L1I_average_miss_latency 301.94023

Core_0_L2C_total_access 2087149
Core_0_L2C_total_hit 1717584 L2C_total_Hit Ratio: 0.82293
Core_0_L2C_total_miss 369565
Core_0_L2C_loads 799290
Core_0_L2C_load_hit 699592 L2C_load_Hit Ratio: 0.87527
Core_0_L2C_load_miss 99698
Core_0_L2C_RFOs 35528
Core_0_L2C_RFO_hit 6974 L2C_RFO_Hit Ratio: 0.19630
Core_0_L2C_RFO_miss 28554
Core_0_L2C_prefetches 1012671
Core_0_L2C_prefetch_hit 771362 L2C_prefetch_Hit Ratio: 0.76171
Core_0_L2C_prefetch_miss 241309
Core_0_L2C_writebacks 239660
Core_0_L2C_writeback_hit 239656 L2C_writeback_Hit Ratio: 0.99998
Core_0_L2C_writeback_miss 4
Core_0_L2C_prefetch_requested 573534
Core_0_L2C_prefetch_issued 454345
Core_0_L2C_prefetch_useful 97091 L2C_Useful Ratio: 0.21369
Core_0_L2C_prefetch_useless 151576
Core_0_L2C_prefetch_late 30562
Core_0_L2C_average_miss_latency 363.31515

Core_0_LLC_total_access 577661
Core_0_LLC_total_hit 207081 LLC_total_Hit Ratio: 0.35848
Core_0_LLC_total_miss 370580
Core_0_LLC_loads 69276
Core_0_LLC_load_hit 6 LLC_load_Hit Ratio: 0.00009
Core_0_LLC_load_miss 69270
Core_0_LLC_RFOs 28553
Core_0_LLC_RFO_hit 1 LLC_RFO_Hit Ratio: 0.00004
Core_0_LLC_RFO_miss 28552
Core_0_LLC_prefetches 271732
Core_0_LLC_prefetch_hit 172 LLC_prefetch_Hit Ratio: 0.00063
Core_0_LLC_prefetch_miss 271560
Core_0_LLC_writebacks 208100
Core_0_LLC_writeback_hit 206902 LLC_writeback_Hit Ratio: 0.99424
Core_0_LLC_writeback_miss 1198
Core_0_LLC_prefetch_requested 0
Core_0_LLC_prefetch_issued 0
Core_0_LLC_prefetch_useful 4 LLC_Useful Ratio: inf
Core_0_LLC_prefetch_useless 240982
Core_0_LLC_prefetch_late 0
Core_0_LLC_average_miss_latency 340.21265

Core_0_major_page_fault 0
Core_0_minor_page_fault 3913

CPU 0 L1D berti prefetcher final stats
0-> Hits: 17, Late: 5, Early: 0, Misses: 0
1-> Hits: 2, Late: 1, Early: 0, Misses: 0
3-> Hits: 5, Late: 0, Early: 0, Misses: 0
4-> Hits: 2, Late: 0, Early: 0, Misses: 0
5-> Hits: 3, Late: 1, Early: 0, Misses: 0
6-> Hits: 1, Late: 0, Early: 0, Misses: 0
7-> Hits: 2, Late: 0, Early: 0, Misses: 0
8-> Hits: 134, Late: 74, Early: 0, Misses: 0
9-> Hits: 2, Late: 0, Early: 0, Misses: 0
a-> Hits: 0, Late: 2, Early: 0, Misses: 0
b-> Hits: 5, Late: 0, Early: 0, Misses: 0
d-> Hits: 173, Late: 32, Early: 0, Misses: 0
e-> Hits: 22, Late: 0, Early: 0, Misses: 0
10-> Hits: 2, Late: 0, Early: 0, Misses: 0
11-> Hits: 0, Late: 1, Early: 0, Misses: 0
12-> Hits: 146, Late: 55, Early: 0, Misses: 0
13-> Hits: 1, Late: 0, Early: 0, Misses: 0
14-> Hits: 2, Late: 0, Early: 0, Misses: 0
16-> Hits: 12, Late: 0, Early: 0, Misses: 0
17-> Hits: 3, Late: 0, Early: 0, Misses: 0
18-> Hits: 175, Late: 25, Early: 0, Misses: 0
1a-> Hits: 173, Late: 2, Early: 0, Misses: 0
1b-> Hits: 1, Late: 0, Early: 0, Misses: 0
1c-> Hits: 21, Late: 0, Early: 0, Misses: 0
1d-> Hits: 3, Late: 1, Early: 0, Misses: 0
1e-> Hits: 3, Late: 0, Early: 0, Misses: 0
1f-> Hits: 1, Late: 0, Early: 0, Misses: 0
20-> Hits: 2, Late: 1, Early: 0, Misses: 0
21-> Hits: 175, Late: 0, Early: 0, Misses: 0
22-> Hits: 3, Late: 1, Early: 0, Misses: 0
24-> Hits: 21, Late: 0, Early: 0, Misses: 0
25-> Hits: 3, Late: 0, Early: 0, Misses: 0
27-> Hits: 161, Late: 65, Early: 0, Misses: 0
28-> Hits: 10, Late: 0, Early: 0, Misses: 0
2a-> Hits: 189, Late: 1, Early: 0, Misses: 0
2b-> Hits: 6, Late: 0, Early: 0, Misses: 0
2c-> Hits: 173, Late: 26, Early: 0, Misses: 0
2d-> Hits: 1, Late: 0, Early: 0, Misses: 0
2f-> Hits: 3, Late: 0, Early: 0, Misses: 0
30-> Hits: 7, Late: 2, Early: 0, Misses: 0
31-> Hits: 142, Late: 58, Early: 0, Misses: 0
33-> Hits: 11, Late: 0, Early: 0, Misses: 0
34-> Hits: 11, Late: 1, Early: 0, Misses: 0
35-> Hits: 5, Late: 157, Early: 0, Misses: 16
36-> Hits: 2, Late: 0, Early: 0, Misses: 0
37-> Hits: 165, Late: 30, Early: 0, Misses: 0
38-> Hits: 4, Late: 0, Early: 0, Misses: 0
39-> Hits: 2, Late: 0, Early: 0, Misses: 0
3a-> Hits: 2, Late: 0, Early: 0, Misses: 0
3c-> Hits: 2, Late: 0, Early: 0, Misses: 0
3d-> Hits: 0, Late: 29, Early: 0, Misses: 0
3e-> Hits: 2, Late: 0, Early: 0, Misses: 0
3f-> Hits: 1, Late: 0, Early: 0, Misses: 0
40-> Hits: 2, Late: 2, Early: 0, Misses: 0
43-> Hits: 2, Late: 0, Early: 0, Misses: 0
44-> Hits: 3, Late: 0, Early: 0, Misses: 0
45-> Hits: 2, Late: 0, Early: 0, Misses: 0
46-> Hits: 132, Late: 59, Early: 0, Misses: 0
47-> Hits: 2, Late: 0, Early: 0, Misses: 0
48-> Hits: 34, Late: 0, Early: 0, Misses: 0
49-> Hits: 36, Late: 0, Early: 0, Misses: 0
4a-> Hits: 31, Late: 0, Early: 0, Misses: 0
4b-> Hits: 189, Late: 23, Early: 0, Misses: 0
4d-> Hits: 31, Late: 0, Early: 0, Misses: 0
4e-> Hits: 1, Late: 0, Early: 0, Misses: 0
4f-> Hits: 29, Late: 0, Early: 0, Misses: 0
50-> Hits: 116, Late: 78, Early: 0, Misses: 0
51-> Hits: 29, Late: 0, Early: 0, Misses: 0
52-> Hits: 2, Late: 0, Early: 0, Misses: 0
53-> Hits: 32, Late: 0, Early: 0, Misses: 0
54-> Hits: 3, Late: 0, Early: 0, Misses: 0
56-> Hits: 375, Late: 25, Early: 0, Misses: 22
58-> Hits: 17, Late: 0, Early: 0, Misses: 0
5a-> Hits: 2, Late: 0, Early: 0, Misses: 0
5c-> Hits: 9, Late: 1, Early: 0, Misses: 0
5d-> Hits: 4, Late: 0, Early: 0, Misses: 0
61-> Hits: 3, Late: 0, Early: 0, Misses: 0
62-> Hits: 2, Late: 0, Early: 0, Misses: 0
63-> Hits: 0, Late: 2, Early: 0, Misses: 0
64-> Hits: 177, Late: 2, Early: 0, Misses: 0
69-> Hits: 2, Late: 0, Early: 0, Misses: 0
6a-> Hits: 2, Late: 0, Early: 0, Misses: 0
6b-> Hits: 1, Late: 13, Early: 0, Misses: 0
6f-> Hits: 1, Late: 0, Early: 0, Misses: 0
70-> Hits: 179, Late: 1, Early: 0, Misses: 0
76-> Hits: 2, Late: 1, Early: 0, Misses: 0
77-> Hits: 2, Late: 0, Early: 0, Misses: 0
78-> Hits: 178, Late: 0, Early: 0, Misses: 0
79-> Hits: 1, Late: 0, Early: 0, Misses: 0
7a-> Hits: 3, Late: 0, Early: 0, Misses: 0
7b-> Hits: 3, Late: 2, Early: 0, Misses: 0
7c-> Hits: 1, Late: 0, Early: 0, Misses: 0
7d-> Hits: 1, Late: 0, Early: 0, Misses: 0
7e-> Hits: 3, Late: 0, Early: 0, Misses: 0
7f-> Hits: 5, Late: 0, Early: 0, Misses: 0
80-> Hits: 10250, Late: 0, Early: 0, Misses: 3
81-> Hits: 1, Late: 0, Early: 0, Misses: 0
82-> Hits: 2, Late: 0, Early: 0, Misses: 0
84-> Hits: 4, Late: 1, Early: 0, Misses: 0
86-> Hits: 1, Late: 0, Early: 0, Misses: 0
88-> Hits: 1592, Late: 144, Early: 0, Misses: 16
89-> Hits: 272, Late: 1, Early: 0, Misses: 0
8a-> Hits: 2, Late: 0, Early: 0, Misses: 0
8f-> Hits: 24, Late: 0, Early: 0, Misses: 0
90-> Hits: 0, Late: 1, Early: 0, Misses: 0
91-> Hits: 2, Late: 0, Early: 0, Misses: 0
92-> Hits: 10241, Late: 0, Early: 0, Misses: 0
94-> Hits: 23, Late: 0, Early: 0, Misses: 0
95-> Hits: 1, Late: 0, Early: 0, Misses: 0
96-> Hits: 3, Late: 0, Early: 0, Misses: 0
98-> Hits: 3, Late: 0, Early: 0, Misses: 0
99-> Hits: 1, Late: 0, Early: 0, Misses: 0
9a-> Hits: 5, Late: 0, Early: 0, Misses: 0
9b-> Hits: 3, Late: 0, Early: 0, Misses: 0
9c-> Hits: 1440, Late: 0, Early: 0, Misses: 0
9d-> Hits: 258, Late: 0, Early: 0, Misses: 0
9e-> Hits: 2, Late: 0, Early: 0, Misses: 0
9f-> Hits: 4, Late: 0, Early: 0, Misses: 0
a0-> Hits: 1, Late: 0, Early: 0, Misses: 0
a1-> Hits: 5, Late: 0, Early: 0, Misses: 0
a2-> Hits: 1, Late: 0, Early: 0, Misses: 0
a3-> Hits: 3, Late: 0, Early: 0, Misses: 0
a4-> Hits: 21, Late: 0, Early: 0, Misses: 0
a5-> Hits: 4, Late: 0, Early: 0, Misses: 0
a6-> Hits: 10242, Late: 0, Early: 0, Misses: 0
a7-> Hits: 4, Late: 0, Early: 0, Misses: 0
a8-> Hits: 3, Late: 0, Early: 0, Misses: 0
a9-> Hits: 4, Late: 0, Early: 0, Misses: 0
aa-> Hits: 3, Late: 0, Early: 0, Misses: 0
ab-> Hits: 5, Late: 0, Early: 0, Misses: 0
ac-> Hits: 3, Late: 1, Early: 0, Misses: 0
ad-> Hits: 4, Late: 0, Early: 0, Misses: 0
ae-> Hits: 7, Late: 0, Early: 0, Misses: 0
af-> Hits: 3, Late: 0, Early: 0, Misses: 0
b0-> Hits: 15, Late: 6, Early: 0, Misses: 0
b1-> Hits: 2, Late: 0, Early: 0, Misses: 0
b3-> Hits: 6, Late: 0, Early: 0, Misses: 0
b4-> Hits: 4, Late: 0, Early: 0, Misses: 0
b6-> Hits: 8400, Late: 1847, Early: 0, Misses: 0
b7-> Hits: 4, Late: 1, Early: 0, Misses: 0
b8-> Hits: 2, Late: 1, Early: 0, Misses: 0
ba-> Hits: 2, Late: 0, Early: 0, Misses: 0
bb-> Hits: 72, Late: 10168, Early: 0, Misses: 0
bc-> Hits: 2, Late: 0, Early: 0, Misses: 0
bf-> Hits: 1, Late: 0, Early: 0, Misses: 0
c0-> Hits: 11, Late: 31, Early: 0, Misses: 0
c1-> Hits: 1, Late: 0, Early: 0, Misses: 0
c2-> Hits: 6, Late: 1, Early: 0, Misses: 0
c3-> Hits: 6, Late: 0, Early: 0, Misses: 0
c4-> Hits: 180, Late: 0, Early: 0, Misses: 0
c5-> Hits: 1, Late: 0, Early: 0, Misses: 0
c6-> Hits: 4, Late: 0, Early: 0, Misses: 0
c7-> Hits: 5, Late: 0, Early: 0, Misses: 0
c8-> Hits: 10, Late: 0, Early: 0, Misses: 0
c9-> Hits: 1, Late: 0, Early: 0, Misses: 0
ca-> Hits: 0, Late: 1, Early: 0, Misses: 0
cb-> Hits: 223, Late: 10192, Early: 0, Misses: 2
cc-> Hits: 1, Late: 0, Early: 0, Misses: 0
cf-> Hits: 1, Late: 0, Early: 0, Misses: 0
d0-> Hits: 466, Late: 9774, Early: 0, Misses: 0
d1-> Hits: 3, Late: 0, Early: 0, Misses: 0
d2-> Hits: 6, Late: 0, Early: 0, Misses: 0
d3-> Hits: 24, Late: 1, Early: 0, Misses: 0
d4-> Hits: 1, Late: 0, Early: 0, Misses: 0
d5-> Hits: 2, Late: 0, Early: 0, Misses: 0
d6-> Hits: 2, Late: 0, Early: 0, Misses: 0
d7-> Hits: 1, Late: 0, Early: 0, Misses: 0
d8-> Hits: 1, Late: 0, Early: 0, Misses: 0
d9-> Hits: 18, Late: 147, Early: 0, Misses: 16
db-> Hits: 2, Late: 0, Early: 0, Misses: 0
dd-> Hits: 2, Late: 0, Early: 0, Misses: 0
df-> Hits: 1, Late: 0, Early: 0, Misses: 0
e0-> Hits: 12, Late: 6, Early: 0, Misses: 0
e1-> Hits: 1, Late: 0, Early: 0, Misses: 0
ea-> Hits: 2, Late: 0, Early: 0, Misses: 0
f3-> Hits: 177, Late: 1, Early: 0, Misses: 0
f4-> Hits: 1, Late: 0, Early: 0, Misses: 0
f6-> Hits: 2, Late: 0, Early: 0, Misses: 0
f7-> Hits: 4, Late: 0, Early: 0, Misses: 0
f8-> Hits: 3, Late: 0, Early: 0, Misses: 0
fa-> Hits: 2, Late: 0, Early: 0, Misses: 0
fb-> Hits: 19, Late: 0, Early: 0, Misses: 0
fc-> Hits: 1, Late: 0, Early: 0, Misses: 0
fd-> Hits: 2, Late: 0, Early: 0, Misses: 0
fe-> Hits: 1, Late: 0, Early: 0, Misses: 0
ff-> Hits: 4, Late: 0, Early: 0, Misses: 0
100-> Hits: 10, Late: 3, Early: 0, Misses: 0
101-> Hits: 1, Late: 0, Early: 0, Misses: 0
103-> Hits: 1, Late: 0, Early: 0, Misses: 0
104-> Hits: 0, Late: 1, Early: 0, Misses: 0
106-> Hits: 1, Late: 0, Early: 0, Misses: 0
107-> Hits: 1, Late: 0, Early: 0, Misses: 0
10a-> Hits: 1, Late: 0, Early: 0, Misses: 0
10b-> Hits: 3, Late: 0, Early: 0, Misses: 0
10d-> Hits: 3, Late: 0, Early: 0, Misses: 0
10e-> Hits: 1, Late: 0, Early: 0, Misses: 0
10f-> Hits: 1, Late: 0, Early: 0, Misses: 0
110-> Hits: 1, Late: 1, Early: 0, Misses: 0
112-> Hits: 12, Late: 1, Early: 0, Misses: 0
114-> Hits: 1, Late: 0, Early: 0, Misses: 0
115-> Hits: 1, Late: 0, Early: 0, Misses: 0
116-> Hits: 1, Late: 0, Early: 0, Misses: 0
117-> Hits: 3, Late: 0, Early: 0, Misses: 0
118-> Hits: 0, Late: 1, Early: 0, Misses: 0
11a-> Hits: 4, Late: 0, Early: 0, Misses: 0
11b-> Hits: 3, Late: 0, Early: 0, Misses: 0
11c-> Hits: 3, Late: 0, Early: 0, Misses: 0
11d-> Hits: 1, Late: 0, Early: 0, Misses: 0
11e-> Hits: 2, Late: 0, Early: 0, Misses: 0
11f-> Hits: 1, Late: 0, Early: 0, Misses: 0
120-> Hits: 2, Late: 2, Early: 0, Misses: 0
121-> Hits: 1, Late: 0, Early: 0, Misses: 0
122-> Hits: 2, Late: 0, Early: 0, Misses: 0
123-> Hits: 1, Late: 0, Early: 0, Misses: 0
124-> Hits: 3, Late: 0, Early: 0, Misses: 0
125-> Hits: 1, Late: 0, Early: 0, Misses: 0
126-> Hits: 1, Late: 0, Early: 0, Misses: 0
127-> Hits: 1, Late: 0, Early: 0, Misses: 0
128-> Hits: 175, Late: 2, Early: 0, Misses: 0
129-> Hits: 1, Late: 0, Early: 0, Misses: 0
12b-> Hits: 7, Late: 0, Early: 0, Misses: 0
12c-> Hits: 5, Late: 0, Early: 0, Misses: 0
12d-> Hits: 2, Late: 0, Early: 0, Misses: 0
12f-> Hits: 1, Late: 0, Early: 0, Misses: 0
130-> Hits: 2, Late: 1, Early: 0, Misses: 0
132-> Hits: 1, Late: 0, Early: 0, Misses: 0
133-> Hits: 1, Late: 0, Early: 0, Misses: 0
134-> Hits: 0, Late: 1, Early: 0, Misses: 0
136-> Hits: 1, Late: 0, Early: 0, Misses: 0
137-> Hits: 1, Late: 0, Early: 0, Misses: 0
138-> Hits: 1, Late: 0, Early: 0, Misses: 0
13a-> Hits: 3, Late: 0, Early: 0, Misses: 0
13b-> Hits: 1, Late: 0, Early: 0, Misses: 0
13c-> Hits: 1, Late: 0, Early: 0, Misses: 0
13e-> Hits: 1, Late: 0, Early: 0, Misses: 0
13f-> Hits: 1, Late: 0, Early: 0, Misses: 0
140-> Hits: 1, Late: 3, Early: 0, Misses: 0
142-> Hits: 4, Late: 0, Early: 0, Misses: 0
143-> Hits: 1, Late: 0, Early: 0, Misses: 0
144-> Hits: 0, Late: 2, Early: 0, Misses: 0
145-> Hits: 1, Late: 0, Early: 0, Misses: 0
147-> Hits: 18, Late: 0, Early: 0, Misses: 0
148-> Hits: 2, Late: 0, Early: 0, Misses: 0
149-> Hits: 4, Late: 0, Early: 0, Misses: 0
14a-> Hits: 5, Late: 0, Early: 0, Misses: 0
14d-> Hits: 0, Late: 1, Early: 0, Misses: 0
14f-> Hits: 17, Late: 0, Early: 0, Misses: 0
154-> Hits: 16, Late: 0, Early: 0, Misses: 0
155-> Hits: 2, Late: 2, Early: 0, Misses: 0
156-> Hits: 0, Late: 1, Early: 0, Misses: 0
159-> Hits: 20, Late: 0, Early: 0, Misses: 0
15b-> Hits: 2, Late: 0, Early: 0, Misses: 0
15d-> Hits: 3, Late: 0, Early: 0, Misses: 0
15f-> Hits: 2, Late: 0, Early: 0, Misses: 0
160-> Hits: 1, Late: 0, Early: 0, Misses: 0
163-> Hits: 1, Late: 0, Early: 0, Misses: 0
164-> Hits: 177, Late: 0, Early: 0, Misses: 0
165-> Hits: 2, Late: 0, Early: 0, Misses: 0
168-> Hits: 1, Late: 0, Early: 0, Misses: 0
169-> Hits: 16, Late: 0, Early: 0, Misses: 0
16a-> Hits: 16, Late: 1, Early: 0, Misses: 0
16b-> Hits: 18, Late: 0, Early: 0, Misses: 0
16d-> Hits: 32, Late: 0, Early: 0, Misses: 0
16e-> Hits: 5, Late: 176, Early: 0, Misses: 0
16f-> Hits: 18, Late: 0, Early: 0, Misses: 0
171-> Hits: 16, Late: 0, Early: 0, Misses: 0
172-> Hits: 2, Late: 0, Early: 0, Misses: 0
176-> Hits: 17, Late: 0, Early: 0, Misses: 0
177-> Hits: 17, Late: 0, Early: 0, Misses: 0
178-> Hits: 1, Late: 0, Early: 0, Misses: 0
17a-> Hits: 0, Late: 1, Early: 0, Misses: 0
17c-> Hits: 27, Late: 1, Early: 0, Misses: 0
17d-> Hits: 2, Late: 0, Early: 0, Misses: 0
17e-> Hits: 2, Late: 0, Early: 0, Misses: 0
180-> Hits: 13, Late: 6, Early: 0, Misses: 0
181-> Hits: 9, Late: 0, Early: 0, Misses: 0
184-> Hits: 4, Late: 0, Early: 0, Misses: 0
185-> Hits: 5, Late: 0, Early: 0, Misses: 0
188-> Hits: 2, Late: 0, Early: 0, Misses: 0
189-> Hits: 3, Late: 0, Early: 0, Misses: 0
18b-> Hits: 2, Late: 0, Early: 0, Misses: 0
18c-> Hits: 3, Late: 0, Early: 0, Misses: 0
18e-> Hits: 1, Late: 0, Early: 0, Misses: 0
18f-> Hits: 1, Late: 0, Early: 0, Misses: 0
190-> Hits: 10, Late: 1, Early: 0, Misses: 0
192-> Hits: 2, Late: 0, Early: 0, Misses: 0
194-> Hits: 1, Late: 16, Early: 0, Misses: 0
195-> Hits: 3, Late: 0, Early: 0, Misses: 0
197-> Hits: 9, Late: 0, Early: 0, Misses: 0
198-> Hits: 5, Late: 0, Early: 0, Misses: 0
199-> Hits: 6, Late: 16, Early: 0, Misses: 0
19a-> Hits: 3, Late: 0, Early: 0, Misses: 0
19b-> Hits: 9, Late: 0, Early: 0, Misses: 0
19c-> Hits: 3, Late: 0, Early: 0, Misses: 0
19d-> Hits: 12, Late: 1, Early: 0, Misses: 0
19e-> Hits: 2, Late: 0, Early: 0, Misses: 0
19f-> Hits: 4, Late: 0, Early: 0, Misses: 0
1a0-> Hits: 4, Late: 0, Early: 0, Misses: 0
1a1-> Hits: 5, Late: 0, Early: 0, Misses: 0
1a2-> Hits: 8, Late: 0, Early: 0, Misses: 0
1a4-> Hits: 7, Late: 1, Early: 0, Misses: 0
1a5-> Hits: 1, Late: 0, Early: 0, Misses: 0
1a6-> Hits: 2, Late: 0, Early: 0, Misses: 0
1a7-> Hits: 4, Late: 0, Early: 0, Misses: 0
1a8-> Hits: 3, Late: 0, Early: 0, Misses: 0
1a9-> Hits: 9, Late: 0, Early: 0, Misses: 0
1ad-> Hits: 0, Late: 16, Early: 0, Misses: 0
1ae-> Hits: 2, Late: 0, Early: 0, Misses: 0
1af-> Hits: 7, Late: 0, Early: 0, Misses: 0
1b0-> Hits: 5, Late: 2, Early: 0, Misses: 0
1b1-> Hits: 5, Late: 0, Early: 0, Misses: 0
1b2-> Hits: 1, Late: 0, Early: 0, Misses: 0
1b3-> Hits: 4, Late: 0, Early: 0, Misses: 0
1b5-> Hits: 2, Late: 2, Early: 0, Misses: 0
1b6-> Hits: 2, Late: 1, Early: 0, Misses: 0
1b7-> Hits: 8, Late: 4, Early: 0, Misses: 0
1b8-> Hits: 2, Late: 2, Early: 0, Misses: 0
1b9-> Hits: 1, Late: 0, Early: 0, Misses: 0
1ba-> Hits: 3, Late: 0, Early: 0, Misses: 0
1bd-> Hits: 5, Late: 0, Early: 0, Misses: 0
1be-> Hits: 5, Late: 0, Early: 0, Misses: 0
1bf-> Hits: 7, Late: 0, Early: 0, Misses: 0
1c0-> Hits: 3, Late: 3, Early: 0, Misses: 0
1c2-> Hits: 16, Late: 2, Early: 0, Misses: 0
1c3-> Hits: 6, Late: 0, Early: 0, Misses: 0
1c4-> Hits: 3, Late: 0, Early: 0, Misses: 0
1c5-> Hits: 2, Late: 0, Early: 0, Misses: 0
1c6-> Hits: 4, Late: 0, Early: 0, Misses: 0
1c7-> Hits: 2, Late: 18, Early: 0, Misses: 0
1c8-> Hits: 3, Late: 0, Early: 0, Misses: 0
1c9-> Hits: 1, Late: 0, Early: 0, Misses: 0
1ca-> Hits: 2, Late: 0, Early: 0, Misses: 0
1cc-> Hits: 1, Late: 2, Early: 0, Misses: 0
1cd-> Hits: 8, Late: 0, Early: 0, Misses: 0
1ce-> Hits: 3, Late: 0, Early: 0, Misses: 0
1d0-> Hits: 12, Late: 1, Early: 0, Misses: 0
1d4-> Hits: 1, Late: 0, Early: 0, Misses: 0
1d6-> Hits: 6, Late: 0, Early: 0, Misses: 0
1d7-> Hits: 1, Late: 0, Early: 0, Misses: 0
1d8-> Hits: 7, Late: 0, Early: 0, Misses: 0
1da-> Hits: 3, Late: 0, Early: 0, Misses: 0
1db-> Hits: 5, Late: 1, Early: 0, Misses: 0
1de-> Hits: 10, Late: 1, Early: 0, Misses: 0
1df-> Hits: 13, Late: 0, Early: 0, Misses: 0
1e0-> Hits: 7, Late: 1, Early: 0, Misses: 0
1e1-> Hits: 8, Late: 1, Early: 0, Misses: 0
1e2-> Hits: 1, Late: 1, Early: 0, Misses: 0
1e4-> Hits: 0, Late: 1, Early: 0, Misses: 0
1e5-> Hits: 1, Late: 1, Early: 0, Misses: 0
1e8-> Hits: 0, Late: 1, Early: 0, Misses: 0
1ea-> Hits: 0, Late: 1, Early: 0, Misses: 0
1eb-> Hits: 5, Late: 0, Early: 0, Misses: 0
1ec-> Hits: 2, Late: 0, Early: 0, Misses: 0
1ef-> Hits: 19, Late: 0, Early: 0, Misses: 0
1f0-> Hits: 11, Late: 178, Early: 0, Misses: 0
1f1-> Hits: 1, Late: 1, Early: 0, Misses: 0
1f2-> Hits: 1, Late: 0, Early: 0, Misses: 0
1f4-> Hits: 1, Late: 173, Early: 0, Misses: 0
1f6-> Hits: 1, Late: 0, Early: 0, Misses: 0
1f7-> Hits: 1, Late: 15, Early: 0, Misses: 0
1f8-> Hits: 3, Late: 1, Early: 0, Misses: 0
1f9-> Hits: 2, Late: 3, Early: 0, Misses: 0
1fa-> Hits: 1, Late: 0, Early: 0, Misses: 0
1fc-> Hits: 2, Late: 16, Early: 0, Misses: 0
1fd-> Hits: 0, Late: 1, Early: 0, Misses: 0
1fe-> Hits: 19, Late: 0, Early: 0, Misses: 0
200-> Hits: 1, Late: 0, Early: 0, Misses: 0
201-> Hits: 4, Late: 0, Early: 0, Misses: 0
202-> Hits: 0, Late: 1, Early: 0, Misses: 0
203-> Hits: 12, Late: 0, Early: 0, Misses: 0
205-> Hits: 3, Late: 0, Early: 0, Misses: 0
206-> Hits: 4, Late: 1, Early: 0, Misses: 0
207-> Hits: 12, Late: 0, Early: 0, Misses: 0
208-> Hits: 24, Late: 1, Early: 0, Misses: 0
20a-> Hits: 5, Late: 0, Early: 0, Misses: 0
20c-> Hits: 5, Late: 0, Early: 0, Misses: 0
20e-> Hits: 6, Late: 0, Early: 0, Misses: 0
20f-> Hits: 13, Late: 3, Early: 0, Misses: 0
210-> Hits: 3, Late: 3, Early: 0, Misses: 0
212-> Hits: 5, Late: 0, Early: 0, Misses: 0
214-> Hits: 3, Late: 41, Early: 0, Misses: 0
216-> Hits: 3, Late: 0, Early: 0, Misses: 0
217-> Hits: 12, Late: 1, Early: 0, Misses: 0
218-> Hits: 3, Late: 0, Early: 0, Misses: 0
219-> Hits: 0, Late: 1, Early: 0, Misses: 0
21a-> Hits: 8, Late: 1, Early: 0, Misses: 0
21d-> Hits: 1, Late: 0, Early: 0, Misses: 0
21f-> Hits: 8, Late: 1, Early: 0, Misses: 0
220-> Hits: 6, Late: 4, Early: 0, Misses: 0
221-> Hits: 4, Late: 1, Early: 0, Misses: 0
224-> Hits: 2, Late: 1, Early: 0, Misses: 0
225-> Hits: 7, Late: 0, Early: 0, Misses: 0
226-> Hits: 1, Late: 0, Early: 0, Misses: 0
227-> Hits: 0, Late: 1, Early: 0, Misses: 0
228-> Hits: 1, Late: 0, Early: 0, Misses: 0
22a-> Hits: 3, Late: 0, Early: 0, Misses: 0
22b-> Hits: 6, Late: 1, Early: 0, Misses: 0
22c-> Hits: 5, Late: 0, Early: 0, Misses: 0
22d-> Hits: 3, Late: 0, Early: 0, Misses: 0
22e-> Hits: 1, Late: 0, Early: 0, Misses: 0
22f-> Hits: 3, Late: 0, Early: 0, Misses: 0
230-> Hits: 4, Late: 1, Early: 0, Misses: 0
231-> Hits: 7, Late: 0, Early: 0, Misses: 0
232-> Hits: 4, Late: 0, Early: 0, Misses: 0
233-> Hits: 4, Late: 0, Early: 0, Misses: 0
234-> Hits: 1, Late: 0, Early: 0, Misses: 0
235-> Hits: 1, Late: 0, Early: 0, Misses: 0
236-> Hits: 1, Late: 0, Early: 0, Misses: 0
23a-> Hits: 4, Late: 8, Early: 0, Misses: 0
23b-> Hits: 5, Late: 1, Early: 0, Misses: 0
23c-> Hits: 6, Late: 0, Early: 0, Misses: 0
23d-> Hits: 22, Late: 0, Early: 0, Misses: 0
23e-> Hits: 6, Late: 0, Early: 0, Misses: 0
23f-> Hits: 9, Late: 0, Early: 0, Misses: 0
240-> Hits: 11, Late: 5, Early: 0, Misses: 0
241-> Hits: 2, Late: 0, Early: 0, Misses: 0
245-> Hits: 4, Late: 0, Early: 0, Misses: 1
246-> Hits: 4, Late: 0, Early: 0, Misses: 0
247-> Hits: 1, Late: 0, Early: 0, Misses: 0
248-> Hits: 4, Late: 0, Early: 0, Misses: 0
249-> Hits: 2, Late: 0, Early: 0, Misses: 0
24a-> Hits: 1, Late: 1, Early: 0, Misses: 0
24b-> Hits: 1, Late: 0, Early: 0, Misses: 0
24d-> Hits: 2, Late: 0, Early: 0, Misses: 0
24e-> Hits: 1, Late: 0, Early: 0, Misses: 0
24f-> Hits: 6, Late: 0, Early: 0, Misses: 0
250-> Hits: 4, Late: 1, Early: 0, Misses: 0
251-> Hits: 4, Late: 0, Early: 0, Misses: 0
252-> Hits: 4, Late: 1, Early: 0, Misses: 0
253-> Hits: 1, Late: 0, Early: 0, Misses: 0
254-> Hits: 4, Late: 0, Early: 0, Misses: 0
255-> Hits: 3, Late: 1, Early: 0, Misses: 0
256-> Hits: 3, Late: 0, Early: 0, Misses: 0
258-> Hits: 4, Late: 0, Early: 0, Misses: 0
25a-> Hits: 3, Late: 0, Early: 0, Misses: 0
25c-> Hits: 1, Late: 0, Early: 0, Misses: 0
25d-> Hits: 1, Late: 0, Early: 0, Misses: 0
25e-> Hits: 1, Late: 0, Early: 0, Misses: 0
25f-> Hits: 1, Late: 2, Early: 0, Misses: 0
260-> Hits: 9, Late: 3, Early: 0, Misses: 0
261-> Hits: 1, Late: 0, Early: 0, Misses: 0
263-> Hits: 9, Late: 1, Early: 0, Misses: 0
264-> Hits: 2, Late: 0, Early: 0, Misses: 0
265-> Hits: 3, Late: 0, Early: 0, Misses: 0
266-> Hits: 4, Late: 0, Early: 0, Misses: 0
267-> Hits: 6, Late: 0, Early: 0, Misses: 0
268-> Hits: 5, Late: 0, Early: 0, Misses: 0
269-> Hits: 1, Late: 0, Early: 0, Misses: 0
26a-> Hits: 2, Late: 0, Early: 0, Misses: 0
26b-> Hits: 1, Late: 0, Early: 0, Misses: 0
26d-> Hits: 16, Late: 0, Early: 0, Misses: 0
26e-> Hits: 0, Late: 0, Early: 0, Misses: 16
270-> Hits: 17, Late: 1, Early: 0, Misses: 0
271-> Hits: 1, Late: 0, Early: 0, Misses: 0
275-> Hits: 16, Late: 0, Early: 0, Misses: 0
276-> Hits: 1, Late: 0, Early: 0, Misses: 0
277-> Hits: 1, Late: 0, Early: 0, Misses: 0
278-> Hits: 1, Late: 0, Early: 0, Misses: 0
27a-> Hits: 16, Late: 0, Early: 0, Misses: 0
27b-> Hits: 5, Late: 0, Early: 0, Misses: 0
27c-> Hits: 2, Late: 0, Early: 0, Misses: 0
27d-> Hits: 173, Late: 1, Early: 0, Misses: 0
27e-> Hits: 6, Late: 0, Early: 0, Misses: 0
27f-> Hits: 16, Late: 0, Early: 0, Misses: 0
280-> Hits: 0, Late: 2, Early: 0, Misses: 0
281-> Hits: 1, Late: 0, Early: 0, Misses: 0
282-> Hits: 5, Late: 0, Early: 0, Misses: 0
284-> Hits: 4, Late: 0, Early: 0, Misses: 0
285-> Hits: 20, Late: 1, Early: 0, Misses: 0
289-> Hits: 0, Late: 1, Early: 0, Misses: 0
28a-> Hits: 3, Late: 0, Early: 0, Misses: 0
28f-> Hits: 10, Late: 0, Early: 0, Misses: 0
290-> Hits: 1, Late: 0, Early: 0, Misses: 0
291-> Hits: 1, Late: 0, Early: 0, Misses: 0
293-> Hits: 1, Late: 0, Early: 0, Misses: 0
294-> Hits: 1, Late: 0, Early: 0, Misses: 0
297-> Hits: 1, Late: 0, Early: 0, Misses: 0
298-> Hits: 1, Late: 0, Early: 0, Misses: 0
299-> Hits: 1, Late: 0, Early: 0, Misses: 0
29a-> Hits: 1, Late: 0, Early: 0, Misses: 0
29d-> Hits: 11, Late: 2, Early: 0, Misses: 0
29e-> Hits: 2, Late: 0, Early: 0, Misses: 0
29f-> Hits: 5, Late: 0, Early: 0, Misses: 0
2a0-> Hits: 2, Late: 1, Early: 0, Misses: 0
2a1-> Hits: 2, Late: 0, Early: 0, Misses: 0
2a2-> Hits: 6, Late: 0, Early: 0, Misses: 0
2a4-> Hits: 4, Late: 0, Early: 0, Misses: 0
2a5-> Hits: 1, Late: 0, Early: 0, Misses: 0
2a6-> Hits: 3, Late: 0, Early: 0, Misses: 0
2a7-> Hits: 5, Late: 0, Early: 0, Misses: 0
2a8-> Hits: 1, Late: 0, Early: 0, Misses: 0
2a9-> Hits: 7, Late: 0, Early: 0, Misses: 0
2aa-> Hits: 5, Late: 0, Early: 0, Misses: 0
2ad-> Hits: 1, Late: 1, Early: 0, Misses: 0
2ae-> Hits: 176, Late: 0, Early: 0, Misses: 0
2af-> Hits: 1, Late: 1, Early: 0, Misses: 0
2b1-> Hits: 1, Late: 1, Early: 0, Misses: 0
2b3-> Hits: 1, Late: 1, Early: 0, Misses: 0
2b6-> Hits: 1, Late: 1, Early: 0, Misses: 0
2b7-> Hits: 0, Late: 1, Early: 0, Misses: 0
2bd-> Hits: 16, Late: 0, Early: 0, Misses: 0
2c0-> Hits: 3, Late: 1, Early: 0, Misses: 0
2c1-> Hits: 2, Late: 1, Early: 0, Misses: 0
2c3-> Hits: 1, Late: 0, Early: 0, Misses: 0
2c5-> Hits: 10, Late: 1, Early: 0, Misses: 0
2c6-> Hits: 3, Late: 0, Early: 0, Misses: 0
2c7-> Hits: 1, Late: 0, Early: 0, Misses: 0
2c8-> Hits: 2, Late: 0, Early: 0, Misses: 0
2c9-> Hits: 7, Late: 0, Early: 0, Misses: 0
2ca-> Hits: 2, Late: 0, Early: 0, Misses: 0
2cc-> Hits: 2, Late: 1, Early: 0, Misses: 0
2cd-> Hits: 1, Late: 2, Early: 0, Misses: 0
2d1-> Hits: 1, Late: 1, Early: 0, Misses: 0
2d3-> Hits: 0, Late: 1, Early: 0, Misses: 0
2d6-> Hits: 2, Late: 1, Early: 0, Misses: 0
2d8-> Hits: 1, Late: 0, Early: 0, Misses: 0
2da-> Hits: 2, Late: 0, Early: 0, Misses: 0
2db-> Hits: 3, Late: 0, Early: 0, Misses: 0
2dc-> Hits: 4, Late: 0, Early: 0, Misses: 0
2de-> Hits: 2, Late: 0, Early: 0, Misses: 0
2df-> Hits: 3, Late: 1, Early: 0, Misses: 0
2e0-> Hits: 4, Late: 1, Early: 0, Misses: 0
2e2-> Hits: 3, Late: 0, Early: 0, Misses: 0
2e4-> Hits: 2, Late: 0, Early: 0, Misses: 0
2e5-> Hits: 2, Late: 0, Early: 0, Misses: 0
2e6-> Hits: 5, Late: 1, Early: 0, Misses: 0
2e9-> Hits: 2, Late: 0, Early: 0, Misses: 0
2ea-> Hits: 1, Late: 0, Early: 0, Misses: 0
2ed-> Hits: 1, Late: 0, Early: 0, Misses: 0
2ee-> Hits: 1, Late: 0, Early: 0, Misses: 0
2ef-> Hits: 1, Late: 0, Early: 0, Misses: 0
2f0-> Hits: 1, Late: 1, Early: 0, Misses: 0
2f1-> Hits: 2, Late: 0, Early: 0, Misses: 0
2f2-> Hits: 2, Late: 0, Early: 0, Misses: 0
2f3-> Hits: 30, Late: 0, Early: 0, Misses: 0
2f4-> Hits: 10, Late: 0, Early: 0, Misses: 0
2f5-> Hits: 13, Late: 0, Early: 0, Misses: 0
2f6-> Hits: 10, Late: 0, Early: 0, Misses: 0
2f7-> Hits: 20, Late: 0, Early: 0, Misses: 0
2f8-> Hits: 10, Late: 0, Early: 0, Misses: 0
2fa-> Hits: 10, Late: 0, Early: 0, Misses: 0
2fb-> Hits: 28, Late: 1, Early: 0, Misses: 0
300-> Hits: 10233, Late: 1, Early: 0, Misses: 0
301-> Hits: 2, Late: 0, Early: 0, Misses: 0
302-> Hits: 2, Late: 0, Early: 0, Misses: 0
304-> Hits: 2908, Late: 331, Early: 0, Misses: 0
305-> Hits: 10, Late: 0, Early: 0, Misses: 0
306-> Hits: 2, Late: 0, Early: 0, Misses: 0
308-> Hits: 1, Late: 1, Early: 0, Misses: 0
309-> Hits: 1359, Late: 1561, Early: 0, Misses: 0
30a-> Hits: 2, Late: 0, Early: 0, Misses: 0
30b-> Hits: 2, Late: 0, Early: 0, Misses: 0
30c-> Hits: 1, Late: 0, Early: 0, Misses: 0
30f-> Hits: 1317, Late: 1609, Early: 0, Misses: 0
310-> Hits: 1, Late: 1, Early: 0, Misses: 0
312-> Hits: 3, Late: 0, Early: 0, Misses: 0
313-> Hits: 1, Late: 0, Early: 0, Misses: 0
314-> Hits: 1314, Late: 2021, Early: 0, Misses: 16
315-> Hits: 352, Late: 0, Early: 0, Misses: 0
316-> Hits: 3, Late: 0, Early: 0, Misses: 0
317-> Hits: 8, Late: 3, Early: 0, Misses: 0
318-> Hits: 13, Late: 1, Early: 0, Misses: 0
319-> Hits: 7, Late: 0, Early: 0, Misses: 0
31a-> Hits: 789, Late: 9803, Early: 0, Misses: 0
31b-> Hits: 5, Late: 0, Early: 0, Misses: 0
31d-> Hits: 5, Late: 0, Early: 0, Misses: 0
31f-> Hits: 425, Late: 9825, Early: 0, Misses: 0
320-> Hits: 281, Late: 0, Early: 0, Misses: 0
324-> Hits: 1, Late: 0, Early: 0, Misses: 0
325-> Hits: 284, Late: 9957, Early: 0, Misses: 0
326-> Hits: 2, Late: 0, Early: 0, Misses: 0
327-> Hits: 1, Late: 0, Early: 0, Misses: 0
32a-> Hits: 301, Late: 9939, Early: 0, Misses: 0
32c-> Hits: 1, Late: 0, Early: 0, Misses: 0
32d-> Hits: 1, Late: 0, Early: 0, Misses: 0
32f-> Hits: 1, Late: 0, Early: 0, Misses: 0
330-> Hits: 4, Late: 1, Early: 0, Misses: 0
332-> Hits: 5, Late: 0, Early: 0, Misses: 0
333-> Hits: 2, Late: 0, Early: 0, Misses: 0
334-> Hits: 10244, Late: 0, Early: 0, Misses: 0
335-> Hits: 5, Late: 0, Early: 0, Misses: 0
336-> Hits: 1, Late: 0, Early: 0, Misses: 0
338-> Hits: 4, Late: 0, Early: 0, Misses: 0
339-> Hits: 1, Late: 0, Early: 0, Misses: 0
33a-> Hits: 7, Late: 0, Early: 0, Misses: 0
33c-> Hits: 1, Late: 0, Early: 0, Misses: 0
33d-> Hits: 2, Late: 0, Early: 0, Misses: 0
33f-> Hits: 1, Late: 0, Early: 0, Misses: 0
340-> Hits: 2, Late: 2, Early: 0, Misses: 0
341-> Hits: 3, Late: 0, Early: 0, Misses: 0
344-> Hits: 3, Late: 2, Early: 0, Misses: 0
347-> Hits: 4, Late: 2, Early: 0, Misses: 0
34a-> Hits: 4, Late: 0, Early: 0, Misses: 0
34b-> Hits: 2, Late: 0, Early: 0, Misses: 0
34c-> Hits: 3, Late: 1, Early: 0, Misses: 0
34d-> Hits: 3, Late: 2, Early: 0, Misses: 0
34e-> Hits: 1, Late: 0, Early: 0, Misses: 0
34f-> Hits: 158044, Late: 5367, Early: 0, Misses: 610
350-> Hits: 197, Late: 2, Early: 0, Misses: 0
351-> Hits: 1, Late: 0, Early: 0, Misses: 0
352-> Hits: 0, Late: 1, Early: 0, Misses: 0
353-> Hits: 3, Late: 0, Early: 0, Misses: 0
355-> Hits: 0, Late: 1, Early: 0, Misses: 0
356-> Hits: 23415, Late: 0, Early: 0, Misses: 1
357-> Hits: 174, Late: 0, Early: 0, Misses: 0
358-> Hits: 4, Late: 0, Early: 0, Misses: 0
359-> Hits: 5, Late: 1, Early: 0, Misses: 0
35a-> Hits: 173, Late: 0, Early: 0, Misses: 0
35c-> Hits: 163829, Late: 1, Early: 0, Misses: 0
35d-> Hits: 18, Late: 158, Early: 0, Misses: 0
360-> Hits: 15, Late: 0, Early: 0, Misses: 0
361-> Hits: 4, Late: 0, Early: 0, Misses: 0
362-> Hits: 4, Late: 0, Early: 0, Misses: 0
363-> Hits: 9, Late: 0, Early: 0, Misses: 0
364-> Hits: 4, Late: 0, Early: 0, Misses: 0
366-> Hits: 4, Late: 1, Early: 0, Misses: 0
367-> Hits: 1, Late: 0, Early: 0, Misses: 0
368-> Hits: 6, Late: 0, Early: 0, Misses: 0
36a-> Hits: 4, Late: 0, Early: 0, Misses: 0
36c-> Hits: 9, Late: 0, Early: 0, Misses: 0
36d-> Hits: 0, Late: 1, Early: 0, Misses: 0
36e-> Hits: 0, Late: 1, Early: 0, Misses: 0
36f-> Hits: 1, Late: 0, Early: 0, Misses: 0
370-> Hits: 3, Late: 0, Early: 0, Misses: 0
372-> Hits: 29220, Late: 1, Early: 0, Misses: 1
374-> Hits: 2, Late: 0, Early: 0, Misses: 0
375-> Hits: 3, Late: 0, Early: 0, Misses: 0
376-> Hits: 4, Late: 0, Early: 0, Misses: 0
377-> Hits: 2, Late: 0, Early: 0, Misses: 0
379-> Hits: 2, Late: 1, Early: 0, Misses: 0
37a-> Hits: 7, Late: 1, Early: 0, Misses: 0
37b-> Hits: 3, Late: 0, Early: 0, Misses: 0
37d-> Hits: 3, Late: 1, Early: 0, Misses: 0
37f-> Hits: 2, Late: 2, Early: 0, Misses: 0
380-> Hits: 2, Late: 0, Early: 0, Misses: 0
382-> Hits: 1, Late: 0, Early: 0, Misses: 0
383-> Hits: 0, Late: 2, Early: 0, Misses: 0
385-> Hits: 3, Late: 2, Early: 0, Misses: 0
386-> Hits: 3, Late: 0, Early: 0, Misses: 0
387-> Hits: 18383, Late: 2, Early: 0, Misses: 3
388-> Hits: 1, Late: 0, Early: 0, Misses: 0
389-> Hits: 6, Late: 1, Early: 0, Misses: 0
38b-> Hits: 5, Late: 0, Early: 0, Misses: 0
38d-> Hits: 163827, Late: 16, Early: 0, Misses: 0
38e-> Hits: 1, Late: 0, Early: 0, Misses: 0
38f-> Hits: 3, Late: 0, Early: 0, Misses: 0
390-> Hits: 1, Late: 2, Early: 0, Misses: 0
391-> Hits: 5, Late: 0, Early: 0, Misses: 0
392-> Hits: 1, Late: 0, Early: 0, Misses: 0
393-> Hits: 2, Late: 0, Early: 0, Misses: 0
394-> Hits: 3, Late: 0, Early: 0, Misses: 0
395-> Hits: 1, Late: 0, Early: 0, Misses: 0
396-> Hits: 5, Late: 1, Early: 0, Misses: 0
398-> Hits: 1, Late: 0, Early: 0, Misses: 0
399-> Hits: 82203, Late: 0, Early: 0, Misses: 0
39a-> Hits: 1, Late: 1, Early: 0, Misses: 0
39b-> Hits: 1, Late: 0, Early: 0, Misses: 0
39c-> Hits: 1, Late: 0, Early: 0, Misses: 0
39d-> Hits: 1, Late: 0, Early: 0, Misses: 0
3a0-> Hits: 1, Late: 2, Early: 0, Misses: 0
3a2-> Hits: 1, Late: 0, Early: 0, Misses: 0
3a3-> Hits: 150681, Late: 0, Early: 0, Misses: 0
3a7-> Hits: 3, Late: 0, Early: 0, Misses: 0
3aa-> Hits: 3, Late: 0, Early: 0, Misses: 0
3ab-> Hits: 1, Late: 0, Early: 0, Misses: 0
3ac-> Hits: 28664, Late: 0, Early: 0, Misses: 0
3af-> Hits: 1, Late: 0, Early: 0, Misses: 0
3b0-> Hits: 3, Late: 0, Early: 0, Misses: 0
3b1-> Hits: 40027, Late: 6, Early: 0, Misses: 4
3b2-> Hits: 2, Late: 0, Early: 0, Misses: 0
3b3-> Hits: 1, Late: 0, Early: 0, Misses: 0
3b5-> Hits: 1, Late: 0, Early: 0, Misses: 0
3b7-> Hits: 1, Late: 0, Early: 0, Misses: 0
3b9-> Hits: 3, Late: 0, Early: 0, Misses: 0
3c0-> Hits: 12, Late: 0, Early: 0, Misses: 0
3c6-> Hits: 61059, Late: 8, Early: 0, Misses: 12
3c8-> Hits: 1, Late: 0, Early: 0, Misses: 0
3ca-> Hits: 5, Late: 0, Early: 0, Misses: 0
3cb-> Hits: 1, Late: 0, Early: 0, Misses: 0
3cd-> Hits: 6, Late: 0, Early: 0, Misses: 0
3ce-> Hits: 1, Late: 0, Early: 0, Misses: 0
3cf-> Hits: 2, Late: 0, Early: 0, Misses: 0
3d0-> Hits: 4, Late: 0, Early: 0, Misses: 0
3d5-> Hits: 1, Late: 0, Early: 0, Misses: 0
3d6-> Hits: 2, Late: 0, Early: 0, Misses: 0
3db-> Hits: 60744, Late: 14, Early: 0, Misses: 19
3dc-> Hits: 1, Late: 0, Early: 0, Misses: 0
3dd-> Hits: 4, Late: 0, Early: 0, Misses: 0
3e0-> Hits: 131080, Late: 1, Early: 0, Misses: 0
3e1-> Hits: 163825, Late: 16, Early: 0, Misses: 0
3e4-> Hits: 2, Late: 0, Early: 0, Misses: 0
3e5-> Hits: 2, Late: 0, Early: 0, Misses: 0
3e6-> Hits: 2, Late: 0, Early: 0, Misses: 0
3e8-> Hits: 3, Late: 0, Early: 0, Misses: 0
3ea-> Hits: 2, Late: 0, Early: 0, Misses: 0
3eb-> Hits: 1, Late: 0, Early: 0, Misses: 0
3ec-> Hits: 2, Late: 0, Early: 0, Misses: 0
3ed-> Hits: 1, Late: 0, Early: 0, Misses: 0
3ee-> Hits: 2, Late: 0, Early: 0, Misses: 0
3ef-> Hits: 7, Late: 0, Early: 0, Misses: 0
3f0-> Hits: 11, Late: 4, Early: 0, Misses: 0
3f5-> Hits: 1, Late: 0, Early: 0, Misses: 0
3f7-> Hits: 41361, Late: 4, Early: 0, Misses: 2
3fe-> Hits: 2, Late: 0, Early: 0, Misses: 0
3ff-> Hits: 1, Late: 0, Early: 0, Misses: 0
400-> Hits: 5, Late: 0, Early: 0, Misses: 0
401-> Hits: 4, Late: 0, Early: 0, Misses: 0
402-> Hits: 163636, Late: 0, Early: 0, Misses: 0
403-> Hits: 5, Late: 0, Early: 0, Misses: 0
404-> Hits: 16, Late: 0, Early: 0, Misses: 0
405-> Hits: 1, Late: 1, Early: 0, Misses: 0
406-> Hits: 16, Late: 0, Early: 0, Misses: 0
408-> Hits: 17, Late: 0, Early: 0, Misses: 0
40a-> Hits: 16, Late: 0, Early: 0, Misses: 0
40b-> Hits: 2, Late: 2, Early: 0, Misses: 0
40c-> Hits: 19777, Late: 0, Early: 0, Misses: 0
40d-> Hits: 1, Late: 0, Early: 0, Misses: 0
40e-> Hits: 2, Late: 0, Early: 0, Misses: 0
40f-> Hits: 0, Late: 0, Early: 0, Misses: 12
410-> Hits: 18, Late: 0, Early: 0, Misses: 0
413-> Hits: 1, Late: 0, Early: 0, Misses: 0
416-> Hits: 163837, Late: 0, Early: 0, Misses: 0
419-> Hits: 3, Late: 0, Early: 0, Misses: 0
41a-> Hits: 2, Late: 0, Early: 0, Misses: 0
41c-> Hits: 3, Late: 0, Early: 0, Misses: 0
41e-> Hits: 37966, Late: 6, Early: 0, Misses: 1
420-> Hits: 7, Late: 0, Early: 0, Misses: 0
422-> Hits: 2, Late: 0, Early: 0, Misses: 0
424-> Hits: 9, Late: 0, Early: 0, Misses: 0
426-> Hits: 2, Late: 0, Early: 0, Misses: 0
427-> Hits: 2, Late: 0, Early: 0, Misses: 0
428-> Hits: 5, Late: 2, Early: 0, Misses: 0
42a-> Hits: 2, Late: 0, Early: 0, Misses: 0
42b-> Hits: 3, Late: 0, Early: 0, Misses: 0
42c-> Hits: 2, Late: 0, Early: 0, Misses: 0
42d-> Hits: 1, Late: 0, Early: 0, Misses: 0
42e-> Hits: 163826, Late: 16, Early: 0, Misses: 0
430-> Hits: 4607, Late: 5579, Early: 0, Misses: 27947
434-> Hits: 25258, Late: 1529, Early: 0, Misses: 9040
437-> Hits: 1, Late: 0, Early: 0, Misses: 0
438-> Hits: 3, Late: 0, Early: 0, Misses: 0
439-> Hits: 1565, Late: 110, Early: 0, Misses: 552
43a-> Hits: 30148, Late: 32, Early: 0, Misses: 5
43b-> Hits: 3, Late: 1, Early: 0, Misses: 0
43f-> Hits: 1, Late: 0, Early: 0, Misses: 0
440-> Hits: 9, Late: 4, Early: 0, Misses: 0
441-> Hits: 34939, Late: 76, Early: 0, Misses: 189
443-> Hits: 7, Late: 1, Early: 0, Misses: 0
444-> Hits: 1, Late: 0, Early: 0, Misses: 0
447-> Hits: 4, Late: 0, Early: 0, Misses: 0
448-> Hits: 7, Late: 0, Early: 0, Misses: 0
44a-> Hits: 3, Late: 0, Early: 0, Misses: 0
44b-> Hits: 3, Late: 0, Early: 0, Misses: 0
44c-> Hits: 1, Late: 1, Early: 0, Misses: 0
44f-> Hits: 32211, Late: 136, Early: 0, Misses: 15
450-> Hits: 8, Late: 0, Early: 0, Misses: 0
451-> Hits: 28239, Late: 2778, Early: 0, Misses: 7113
453-> Hits: 4, Late: 0, Early: 0, Misses: 0
454-> Hits: 30, Late: 28, Early: 0, Misses: 0
455-> Hits: 33907, Late: 681, Early: 0, Misses: 1419
458-> Hits: 2, Late: 0, Early: 0, Misses: 0
459-> Hits: 10, Late: 1, Early: 0, Misses: 0
45a-> Hits: 11, Late: 0, Early: 0, Misses: 0
45b-> Hits: 26, Late: 0, Early: 0, Misses: 0
45d-> Hits: 23, Late: 0, Early: 0, Misses: 0
45f-> Hits: 3, Late: 0, Early: 0, Misses: 0
460-> Hits: 4, Late: 0, Early: 0, Misses: 0
461-> Hits: 1, Late: 0, Early: 0, Misses: 0
463-> Hits: 3, Late: 0, Early: 0, Misses: 0
464-> Hits: 26533, Late: 93, Early: 0, Misses: 18
466-> Hits: 34571, Late: 761, Early: 0, Misses: 1431
468-> Hits: 8, Late: 0, Early: 0, Misses: 0
46a-> Hits: 163828, Late: 16, Early: 0, Misses: 0
46d-> Hits: 4, Late: 0, Early: 0, Misses: 0
470-> Hits: 131249, Late: 2, Early: 0, Misses: 0
471-> Hits: 27, Late: 0, Early: 0, Misses: 0
472-> Hits: 1, Late: 0, Early: 0, Misses: 0
473-> Hits: 3, Late: 0, Early: 0, Misses: 0
475-> Hits: 4, Late: 0, Early: 0, Misses: 0
476-> Hits: 43687, Late: 0, Early: 0, Misses: 0
477-> Hits: 33996, Late: 923, Early: 0, Misses: 1284
478-> Hits: 196, Late: 0, Early: 0, Misses: 0
47a-> Hits: 1, Late: 0, Early: 0, Misses: 0
47b-> Hits: 1, Late: 0, Early: 0, Misses: 0
47c-> Hits: 3, Late: 0, Early: 0, Misses: 0
47d-> Hits: 198, Late: 0, Early: 0, Misses: 0
47e-> Hits: 4, Late: 0, Early: 0, Misses: 0
47f-> Hits: 10, Late: 0, Early: 0, Misses: 0
480-> Hits: 10, Late: 3, Early: 0, Misses: 0
481-> Hits: 1, Late: 0, Early: 0, Misses: 0
482-> Hits: 5, Late: 0, Early: 0, Misses: 0
483-> Hits: 160511, Late: 0, Early: 0, Misses: 0
484-> Hits: 2, Late: 0, Early: 0, Misses: 0
486-> Hits: 61, Late: 0, Early: 0, Misses: 0
487-> Hits: 35417, Late: 1065, Early: 0, Misses: 396
488-> Hits: 20, Late: 0, Early: 0, Misses: 0
489-> Hits: 9, Late: 0, Early: 0, Misses: 0
48a-> Hits: 1, Late: 0, Early: 0, Misses: 0
48b-> Hits: 5, Late: 0, Early: 0, Misses: 0
48d-> Hits: 9, Late: 2, Early: 0, Misses: 0
48e-> Hits: 4, Late: 0, Early: 0, Misses: 0
48f-> Hits: 5, Late: 0, Early: 0, Misses: 0
490-> Hits: 20150, Late: 4, Early: 0, Misses: 0
491-> Hits: 5, Late: 0, Early: 0, Misses: 0
493-> Hits: 56, Late: 1, Early: 0, Misses: 0
494-> Hits: 59, Late: 0, Early: 0, Misses: 0
495-> Hits: 57, Late: 0, Early: 0, Misses: 0
496-> Hits: 4, Late: 0, Early: 0, Misses: 0
497-> Hits: 60, Late: 0, Early: 0, Misses: 0
498-> Hits: 145822, Late: 1341, Early: 0, Misses: 500
499-> Hits: 57, Late: 0, Early: 0, Misses: 0
49b-> Hits: 60, Late: 0, Early: 0, Misses: 0
49d-> Hits: 234, Late: 0, Early: 0, Misses: 0
4a0-> Hits: 2, Late: 1, Early: 0, Misses: 0
4a2-> Hits: 3, Late: 0, Early: 0, Misses: 0
4a3-> Hits: 147, Late: 0, Early: 0, Misses: 0
4a5-> Hits: 16, Late: 0, Early: 0, Misses: 0
4a6-> Hits: 2, Late: 0, Early: 0, Misses: 0
4a9-> Hits: 4010, Late: 5613, Early: 0, Misses: 28509
4ab-> Hits: 4, Late: 0, Early: 0, Misses: 0
4ac-> Hits: 3, Late: 1, Early: 0, Misses: 0
4ad-> Hits: 45077, Late: 1742, Early: 0, Misses: 8330
4ae-> Hits: 5, Late: 0, Early: 0, Misses: 0
4b0-> Hits: 23, Late: 0, Early: 0, Misses: 0
4b1-> Hits: 3, Late: 0, Early: 0, Misses: 0
4b2-> Hits: 2053, Late: 113, Early: 0, Misses: 453
4b3-> Hits: 163825, Late: 18, Early: 0, Misses: 0
4b4-> Hits: 4, Late: 1, Early: 0, Misses: 0
4b7-> Hits: 15, Late: 0, Early: 0, Misses: 0
4b8-> Hits: 22, Late: 0, Early: 0, Misses: 0
4ba-> Hits: 14729, Late: 14, Early: 0, Misses: 9
4bb-> Hits: 15, Late: 0, Early: 0, Misses: 0
4be-> Hits: 1, Late: 1, Early: 0, Misses: 0
4c0-> Hits: 2, Late: 1, Early: 0, Misses: 0
4c1-> Hits: 1, Late: 0, Early: 0, Misses: 0
4c2-> Hits: 2, Late: 0, Early: 0, Misses: 0
4c4-> Hits: 2, Late: 0, Early: 0, Misses: 0
4c5-> Hits: 18, Late: 0, Early: 0, Misses: 0
4c6-> Hits: 6, Late: 0, Early: 0, Misses: 0
4c7-> Hits: 0, Late: 1, Early: 0, Misses: 0
4c8-> Hits: 2, Late: 0, Early: 0, Misses: 0
4c9-> Hits: 30338, Late: 0, Early: 0, Misses: 1
4ca-> Hits: 21392, Late: 4519, Early: 0, Misses: 12217
4cb-> Hits: 3, Late: 0, Early: 0, Misses: 0
4cc-> Hits: 1, Late: 0, Early: 0, Misses: 0
4cd-> Hits: 4, Late: 0, Early: 0, Misses: 0
4ce-> Hits: 4, Late: 2, Early: 0, Misses: 0
4cf-> Hits: 15410, Late: 92, Early: 0, Misses: 187
4d0-> Hits: 4, Late: 0, Early: 0, Misses: 0
4d1-> Hits: 27, Late: 0, Early: 0, Misses: 0
4d2-> Hits: 4, Late: 0, Early: 0, Misses: 0
4d3-> Hits: 1, Late: 0, Early: 0, Misses: 0
4d4-> Hits: 5, Late: 0, Early: 0, Misses: 0
4d5-> Hits: 1, Late: 1, Early: 0, Misses: 0
4d6-> Hits: 21, Late: 15, Early: 0, Misses: 0
4d7-> Hits: 4, Late: 0, Early: 0, Misses: 0
4da-> Hits: 1, Late: 0, Early: 0, Misses: 0
4dc-> Hits: 3, Late: 2, Early: 0, Misses: 0
4dd-> Hits: 5, Late: 0, Early: 0, Misses: 0
4de-> Hits: 28750, Late: 16, Early: 0, Misses: 12
4df-> Hits: 3, Late: 0, Early: 0, Misses: 0
4e0-> Hits: 14132, Late: 244, Early: 0, Misses: 812
4e1-> Hits: 1, Late: 0, Early: 0, Misses: 0
4e2-> Hits: 7, Late: 0, Early: 0, Misses: 0
4e4-> Hits: 503, Late: 54, Early: 0, Misses: 243
4e5-> Hits: 7, Late: 0, Early: 0, Misses: 0
4e6-> Hits: 1, Late: 0, Early: 0, Misses: 0
4e7-> Hits: 3, Late: 0, Early: 0, Misses: 0
4e8-> Hits: 6, Late: 0, Early: 0, Misses: 0
4e9-> Hits: 41, Late: 7, Early: 0, Misses: 21
4ea-> Hits: 2, Late: 0, Early: 0, Misses: 0
4eb-> Hits: 27, Late: 0, Early: 0, Misses: 0
4ec-> Hits: 1, Late: 0, Early: 0, Misses: 0
4ed-> Hits: 163837, Late: 0, Early: 0, Misses: 0
4ef-> Hits: 2, Late: 0, Early: 0, Misses: 0
4f1-> Hits: 15428, Late: 152, Early: 0, Misses: 191
4f2-> Hits: 14, Late: 0, Early: 0, Misses: 0
4f3-> Hits: 5, Late: 1, Early: 0, Misses: 0
4f6-> Hits: 1, Late: 0, Early: 0, Misses: 0
4f7-> Hits: 4, Late: 0, Early: 0, Misses: 0
4f8-> Hits: 9, Late: 16, Early: 0, Misses: 0
4f9-> Hits: 19, Late: 0, Early: 0, Misses: 0
4fa-> Hits: 15445, Late: 0, Early: 0, Misses: 0
4fb-> Hits: 16, Late: 0, Early: 0, Misses: 0
4fc-> Hits: 1, Late: 0, Early: 0, Misses: 0
4fd-> Hits: 57, Late: 0, Early: 0, Misses: 0
4fe-> Hits: 1, Late: 0, Early: 0, Misses: 0
4ff-> Hits: 29, Late: 0, Early: 0, Misses: 0
500-> Hits: 3, Late: 1, Early: 0, Misses: 0
501-> Hits: 15539, Late: 149, Early: 0, Misses: 108
502-> Hits: 2, Late: 0, Early: 0, Misses: 0
503-> Hits: 2, Late: 0, Early: 0, Misses: 0
504-> Hits: 2, Late: 18, Early: 0, Misses: 0
505-> Hits: 807, Late: 10, Early: 0, Misses: 9
506-> Hits: 6, Late: 0, Early: 0, Misses: 0
507-> Hits: 163833, Late: 0, Early: 0, Misses: 0
508-> Hits: 1, Late: 0, Early: 0, Misses: 0
509-> Hits: 1, Late: 0, Early: 0, Misses: 0
50b-> Hits: 0, Late: 1, Early: 0, Misses: 0
50c-> Hits: 1, Late: 1, Early: 0, Misses: 0
50d-> Hits: 2, Late: 0, Early: 0, Misses: 0
510-> Hits: 2, Late: 0, Early: 0, Misses: 0
511-> Hits: 1, Late: 0, Early: 0, Misses: 0
512-> Hits: 13749, Late: 187, Early: 0, Misses: 120
514-> Hits: 3, Late: 1, Early: 0, Misses: 0
515-> Hits: 1, Late: 0, Early: 0, Misses: 0
516-> Hits: 164216, Late: 316, Early: 0, Misses: 81
518-> Hits: 1, Late: 0, Early: 0, Misses: 0
519-> Hits: 2, Late: 0, Early: 0, Misses: 0
51a-> Hits: 1, Late: 0, Early: 0, Misses: 0
51b-> Hits: 4, Late: 0, Early: 0, Misses: 0
51c-> Hits: 6, Late: 0, Early: 0, Misses: 51
51d-> Hits: 29, Late: 0, Early: 0, Misses: 0
51f-> Hits: 2, Late: 0, Early: 0, Misses: 0
520-> Hits: 131073, Late: 178, Early: 0, Misses: 0
521-> Hits: 29, Late: 0, Early: 0, Misses: 0
522-> Hits: 1, Late: 0, Early: 0, Misses: 0
523-> Hits: 5028, Late: 5305, Early: 0, Misses: 27800
524-> Hits: 9, Late: 0, Early: 0, Misses: 0
527-> Hits: 27045, Late: 1411, Early: 0, Misses: 7697
528-> Hits: 131091, Late: 1, Early: 0, Misses: 0
529-> Hits: 29, Late: 0, Early: 0, Misses: 0
52a-> Hits: 1, Late: 0, Early: 0, Misses: 0
52b-> Hits: 2, Late: 0, Early: 0, Misses: 0
52c-> Hits: 2271, Late: 46, Early: 0, Misses: 393
52e-> Hits: 2, Late: 0, Early: 0, Misses: 0
530-> Hits: 8, Late: 1, Early: 0, Misses: 0
532-> Hits: 1, Late: 0, Early: 0, Misses: 0
534-> Hits: 27400, Late: 36, Early: 0, Misses: 110
535-> Hits: 1, Late: 0, Early: 0, Misses: 0
536-> Hits: 1, Late: 0, Early: 0, Misses: 0
537-> Hits: 116, Late: 131, Early: 0, Misses: 617
538-> Hits: 19, Late: 0, Early: 0, Misses: 1
539-> Hits: 1, Late: 0, Early: 0, Misses: 0
53a-> Hits: 9, Late: 0, Early: 0, Misses: 0
53b-> Hits: 516, Late: 45, Early: 0, Misses: 230
53c-> Hits: 131100, Late: 1, Early: 0, Misses: 0
53d-> Hits: 1, Late: 0, Early: 0, Misses: 0
53e-> Hits: 0, Late: 1, Early: 0, Misses: 0
53f-> Hits: 4, Late: 0, Early: 0, Misses: 0
540-> Hits: 49, Late: 6, Early: 0, Misses: 21
541-> Hits: 2, Late: 0, Early: 0, Misses: 0
544-> Hits: 24691, Late: 271, Early: 0, Misses: 973
545-> Hits: 131087, Late: 0, Early: 0, Misses: 0
547-> Hits: 0, Late: 1, Early: 0, Misses: 0
548-> Hits: 310, Late: 2, Early: 0, Misses: 0
549-> Hits: 1, Late: 0, Early: 0, Misses: 0
54a-> Hits: 1, Late: 0, Early: 0, Misses: 0
54b-> Hits: 1, Late: 0, Early: 0, Misses: 0
54c-> Hits: 1, Late: 0, Early: 0, Misses: 0
54d-> Hits: 3, Late: 26, Early: 0, Misses: 0
54e-> Hits: 131107, Late: 0, Early: 0, Misses: 16
550-> Hits: 0, Late: 2, Early: 0, Misses: 0
553-> Hits: 8, Late: 1, Early: 0, Misses: 0
554-> Hits: 2, Late: 0, Early: 0, Misses: 0
555-> Hits: 23005, Late: 3596, Early: 0, Misses: 11536
556-> Hits: 9, Late: 0, Early: 0, Misses: 0
557-> Hits: 131074, Late: 1, Early: 0, Misses: 0
558-> Hits: 696, Late: 76, Early: 0, Misses: 95
559-> Hits: 2, Late: 0, Early: 0, Misses: 0
55a-> Hits: 26173, Late: 391, Early: 0, Misses: 1035
55b-> Hits: 2, Late: 0, Early: 0, Misses: 0
55c-> Hits: 4, Late: 2, Early: 0, Misses: 0
55d-> Hits: 270, Late: 3, Early: 0, Misses: 50
55e-> Hits: 6, Late: 0, Early: 0, Misses: 0
55f-> Hits: 3, Late: 0, Early: 0, Misses: 0
560-> Hits: 131082, Late: 2, Early: 0, Misses: 0
561-> Hits: 30, Late: 0, Early: 0, Misses: 0
562-> Hits: 5, Late: 0, Early: 0, Misses: 0
563-> Hits: 3, Late: 4, Early: 0, Misses: 0
564-> Hits: 62, Late: 1, Early: 0, Misses: 0
565-> Hits: 5, Late: 0, Early: 0, Misses: 0
566-> Hits: 2, Late: 0, Early: 0, Misses: 0
567-> Hits: 2, Late: 0, Early: 0, Misses: 0
568-> Hits: 10, Late: 0, Early: 0, Misses: 0
569-> Hits: 131071, Late: 1, Early: 0, Misses: 0
56a-> Hits: 7, Late: 0, Early: 0, Misses: 51
56b-> Hits: 25997, Late: 464, Early: 0, Misses: 917
56d-> Hits: 52, Late: 0, Early: 0, Misses: 0
56e-> Hits: 265, Late: 1, Early: 0, Misses: 0
56f-> Hits: 2, Late: 0, Early: 0, Misses: 0
570-> Hits: 221, Late: 0, Early: 0, Misses: 0
572-> Hits: 131074, Late: 1, Early: 0, Misses: 0
574-> Hits: 10, Late: 1, Early: 0, Misses: 17
576-> Hits: 3, Late: 0, Early: 0, Misses: 0
577-> Hits: 26, Late: 16, Early: 0, Misses: 0
578-> Hits: 14, Late: 0, Early: 0, Misses: 0
579-> Hits: 4, Late: 0, Early: 0, Misses: 0
57a-> Hits: 7, Late: 0, Early: 0, Misses: 0
57b-> Hits: 26812, Late: 426, Early: 0, Misses: 246
57c-> Hits: 1, Late: 3, Early: 0, Misses: 0
57d-> Hits: 4, Late: 0, Early: 0, Misses: 0
57f-> Hits: 263, Late: 7, Early: 0, Misses: 0
580-> Hits: 6, Late: 2, Early: 0, Misses: 0
581-> Hits: 3, Late: 3, Early: 0, Misses: 0
582-> Hits: 2, Late: 0, Early: 0, Misses: 0
583-> Hits: 28, Late: 0, Early: 0, Misses: 0
584-> Hits: 131076, Late: 2, Early: 0, Misses: 0
586-> Hits: 1, Late: 2, Early: 0, Misses: 0
587-> Hits: 3, Late: 0, Early: 0, Misses: 0
588-> Hits: 6, Late: 1, Early: 0, Misses: 0
58b-> Hits: 3, Late: 0, Early: 0, Misses: 0
58c-> Hits: 27844, Late: 625, Early: 0, Misses: 319
58e-> Hits: 9, Late: 0, Early: 0, Misses: 0
58f-> Hits: 120, Late: 134, Early: 0, Misses: 610
590-> Hits: 17, Late: 5, Early: 0, Misses: 0
591-> Hits: 131071, Late: 2, Early: 0, Misses: 0
593-> Hits: 539, Late: 44, Early: 0, Misses: 220
594-> Hits: 1, Late: 0, Early: 0, Misses: 0
595-> Hits: 3, Late: 0, Early: 0, Misses: 0
598-> Hits: 55, Late: 6, Early: 0, Misses: 21
599-> Hits: 8, Late: 1, Early: 0, Misses: 0
59a-> Hits: 2, Late: 0, Early: 0, Misses: 0
59b-> Hits: 11, Late: 1, Early: 0, Misses: 0
59d-> Hits: 4670, Late: 5348, Early: 0, Misses: 28126
59e-> Hits: 3, Late: 1, Early: 0, Misses: 0
59f-> Hits: 3, Late: 0, Early: 0, Misses: 0
5a0-> Hits: 458, Late: 5, Early: 0, Misses: 62
5a1-> Hits: 25732, Late: 1607, Early: 0, Misses: 8295
5a2-> Hits: 7, Late: 0, Early: 0, Misses: 0
5a3-> Hits: 2, Late: 0, Early: 0, Misses: 0
5a5-> Hits: 131072, Late: 1, Early: 0, Misses: 0
5a6-> Hits: 1710, Late: 96, Early: 0, Misses: 659
5a7-> Hits: 1, Late: 0, Early: 0, Misses: 0
5a9-> Hits: 3, Late: 0, Early: 0, Misses: 0
5aa-> Hits: 11, Late: 5, Early: 0, Misses: 0
5ab-> Hits: 0, Late: 1, Early: 0, Misses: 62
5ac-> Hits: 1, Late: 0, Early: 0, Misses: 0
5ae-> Hits: 22847, Late: 27, Early: 0, Misses: 6
5af-> Hits: 8, Late: 0, Early: 0, Misses: 0
5b0-> Hits: 382, Late: 9, Early: 0, Misses: 8
5b1-> Hits: 2, Late: 0, Early: 0, Misses: 0
5b2-> Hits: 2, Late: 0, Early: 0, Misses: 0
5b4-> Hits: 0, Late: 2, Early: 0, Misses: 0
5b5-> Hits: 1, Late: 0, Early: 0, Misses: 0
5b6-> Hits: 5, Late: 0, Early: 0, Misses: 0
5b8-> Hits: 3, Late: 0, Early: 0, Misses: 0
5b9-> Hits: 0, Late: 0, Early: 0, Misses: 63
5bb-> Hits: 1, Late: 0, Early: 0, Misses: 0
5bc-> Hits: 2, Late: 0, Early: 0, Misses: 0
5bd-> Hits: 1, Late: 0, Early: 0, Misses: 0
5be-> Hits: 25855, Late: 308, Early: 0, Misses: 109
5bf-> Hits: 8, Late: 0, Early: 0, Misses: 0
5c0-> Hits: 1036, Late: 0, Early: 0, Misses: 0
5c1-> Hits: 10580, Late: 178, Early: 0, Misses: 351
5c2-> Hits: 6, Late: 0, Early: 0, Misses: 0
5c3-> Hits: 9, Late: 0, Early: 0, Misses: 0
5c4-> Hits: 8, Late: 0, Early: 0, Misses: 0
5c5-> Hits: 1, Late: 0, Early: 0, Misses: 0
5c6-> Hits: 517, Late: 10, Early: 0, Misses: 7
5c7-> Hits: 5, Late: 0, Early: 0, Misses: 0
5c8-> Hits: 7, Late: 0, Early: 0, Misses: 0
5c9-> Hits: 2, Late: 0, Early: 0, Misses: 0
5ca-> Hits: 38, Late: 0, Early: 0, Misses: 0
5cb-> Hits: 2, Late: 0, Early: 0, Misses: 0
5cc-> Hits: 51, Late: 0, Early: 0, Misses: 0
5ce-> Hits: 0, Late: 1, Early: 0, Misses: 0
5cf-> Hits: 21350, Late: 278, Early: 0, Misses: 103
5d0-> Hits: 22, Late: 20, Early: 0, Misses: 0
5d1-> Hits: 131084, Late: 1, Early: 0, Misses: 0
5d2-> Hits: 2, Late: 0, Early: 0, Misses: 0
5d5-> Hits: 3, Late: 0, Early: 0, Misses: 0
5d6-> Hits: 3, Late: 2, Early: 0, Misses: 0
5d7-> Hits: 502, Late: 29, Early: 0, Misses: 25
5d8-> Hits: 3, Late: 4, Early: 0, Misses: 0
5db-> Hits: 120103, Late: 2, Early: 0, Misses: 0
5dc-> Hits: 49, Late: 2, Early: 0, Misses: 0
5dd-> Hits: 9937, Late: 68, Early: 0, Misses: 216
5de-> Hits: 4, Late: 0, Early: 0, Misses: 0
5df-> Hits: 7, Late: 6, Early: 0, Misses: 0
5e0-> Hits: 25995, Late: 4389, Early: 0, Misses: 7745
5e1-> Hits: 5, Late: 0, Early: 0, Misses: 0
5e2-> Hits: 2, Late: 0, Early: 0, Misses: 0
5e3-> Hits: 6, Late: 0, Early: 0, Misses: 0
5e4-> Hits: 25022, Late: 390, Early: 0, Misses: 134
5e5-> Hits: 3, Late: 0, Early: 0, Misses: 0
5e6-> Hits: 2, Late: 3, Early: 0, Misses: 0
5e7-> Hits: 123, Late: 131, Early: 0, Misses: 615
5e9-> Hits: 2, Late: 0, Early: 0, Misses: 0
5ea-> Hits: 31, Late: 0, Early: 0, Misses: 0
5eb-> Hits: 537, Late: 42, Early: 0, Misses: 227
5ed-> Hits: 2, Late: 0, Early: 0, Misses: 0
5ee-> Hits: 3, Late: 0, Early: 0, Misses: 0
5f0-> Hits: 46, Late: 3, Early: 0, Misses: 18
5f1-> Hits: 1, Late: 0, Early: 0, Misses: 0
5f2-> Hits: 5, Late: 0, Early: 0, Misses: 0
5f3-> Hits: 7, Late: 0, Early: 0, Misses: 0
5f4-> Hits: 24294, Late: 423, Early: 0, Misses: 96
5f5-> Hits: 9956, Late: 97, Early: 0, Misses: 190
5f6-> Hits: 1, Late: 0, Early: 0, Misses: 0
5f7-> Hits: 6, Late: 0, Early: 0, Misses: 0
5f8-> Hits: 451, Late: 3, Early: 0, Misses: 0
5f9-> Hits: 7, Late: 0, Early: 0, Misses: 0
5fa-> Hits: 1, Late: 0, Early: 0, Misses: 0
5fb-> Hits: 6, Late: 0, Early: 0, Misses: 0
5fc-> Hits: 1, Late: 0, Early: 0, Misses: 0
5fd-> Hits: 1, Late: 0, Early: 0, Misses: 0
5fe-> Hits: 10, Late: 0, Early: 0, Misses: 63
5ff-> Hits: 4, Late: 0, Early: 0, Misses: 0
600-> Hits: 1, Late: 2, Early: 0, Misses: 0
602-> Hits: 7, Late: 0, Early: 0, Misses: 0
604-> Hits: 5, Late: 0, Early: 0, Misses: 0
605-> Hits: 24056, Late: 498, Early: 0, Misses: 102
606-> Hits: 21, Late: 0, Early: 0, Misses: 0
607-> Hits: 16, Late: 0, Early: 0, Misses: 0
608-> Hits: 488, Late: 4, Early: 0, Misses: 0
609-> Hits: 16, Late: 0, Early: 0, Misses: 0
60a-> Hits: 3, Late: 0, Early: 0, Misses: 0
60b-> Hits: 20, Late: 0, Early: 0, Misses: 0
60c-> Hits: 3, Late: 0, Early: 0, Misses: 0
60e-> Hits: 5, Late: 0, Early: 0, Misses: 0
60f-> Hits: 0, Late: 0, Early: 0, Misses: 12
610-> Hits: 2, Late: 1, Early: 0, Misses: 0
611-> Hits: 1, Late: 0, Early: 0, Misses: 0
614-> Hits: 2, Late: 0, Early: 0, Misses: 12
616-> Hits: 4820, Late: 5593, Early: 0, Misses: 27722
619-> Hits: 369, Late: 6, Early: 0, Misses: 1
61a-> Hits: 24542, Late: 1503, Early: 0, Misses: 8712
61c-> Hits: 3, Late: 0, Early: 0, Misses: 0
61d-> Hits: 16, Late: 0, Early: 0, Misses: 0
61e-> Hits: 1, Late: 0, Early: 0, Misses: 0
61f-> Hits: 2467, Late: 130, Early: 0, Misses: 826
620-> Hits: 8, Late: 1, Early: 0, Misses: 0
621-> Hits: 4, Late: 1, Early: 0, Misses: 0
622-> Hits: 0, Late: 0, Early: 0, Misses: 12
623-> Hits: 3, Late: 0, Early: 0, Misses: 0
625-> Hits: 18, Late: 3, Early: 0, Misses: 0
626-> Hits: 1, Late: 0, Early: 0, Misses: 0
627-> Hits: 25271, Late: 22, Early: 0, Misses: 13
628-> Hits: 4, Late: 1, Early: 0, Misses: 0
62a-> Hits: 451, Late: 133, Early: 0, Misses: 282
62b-> Hits: 10, Late: 0, Early: 0, Misses: 0
62c-> Hits: 1, Late: 0, Early: 0, Misses: 0
62e-> Hits: 391, Late: 13, Early: 0, Misses: 2
62f-> Hits: 3, Late: 1, Early: 0, Misses: 0
630-> Hits: 3, Late: 0, Early: 0, Misses: 0
631-> Hits: 3, Late: 0, Early: 0, Misses: 0
634-> Hits: 2, Late: 0, Early: 0, Misses: 0
635-> Hits: 1, Late: 1, Early: 0, Misses: 0
636-> Hits: 5, Late: 1, Early: 0, Misses: 0
637-> Hits: 26521, Late: 276, Early: 0, Misses: 88
638-> Hits: 3, Late: 0, Early: 0, Misses: 0
639-> Hits: 3, Late: 0, Early: 0, Misses: 0
63b-> Hits: 3, Late: 0, Early: 0, Misses: 0
63c-> Hits: 7, Late: 0, Early: 0, Misses: 0
63d-> Hits: 13, Late: 0, Early: 0, Misses: 0
63e-> Hits: 123, Late: 130, Early: 0, Misses: 613
63f-> Hits: 3, Late: 0, Early: 0, Misses: 0
640-> Hits: 6, Late: 0, Early: 0, Misses: 0
641-> Hits: 6, Late: 0, Early: 0, Misses: 0
642-> Hits: 529, Late: 39, Early: 0, Misses: 241
643-> Hits: 3, Late: 0, Early: 0, Misses: 0
644-> Hits: 2, Late: 0, Early: 0, Misses: 0
646-> Hits: 5, Late: 0, Early: 0, Misses: 0
647-> Hits: 50, Late: 1, Early: 0, Misses: 18
648-> Hits: 26025, Late: 340, Early: 0, Misses: 117
64b-> Hits: 1, Late: 0, Early: 0, Misses: 0
64c-> Hits: 2, Late: 0, Early: 0, Misses: 0
64f-> Hits: 495, Late: 1, Early: 0, Misses: 0
653-> Hits: 3, Late: 0, Early: 0, Misses: 0
654-> Hits: 4, Late: 2, Early: 0, Misses: 0
655-> Hits: 1, Late: 0, Early: 0, Misses: 0
656-> Hits: 7, Late: 1, Early: 0, Misses: 0
657-> Hits: 1, Late: 0, Early: 0, Misses: 0
658-> Hits: 33, Late: 0, Early: 0, Misses: 0
659-> Hits: 22886, Late: 311, Early: 0, Misses: 81
65a-> Hits: 2, Late: 0, Early: 0, Misses: 0
65b-> Hits: 2, Late: 0, Early: 0, Misses: 0
65c-> Hits: 3, Late: 0, Early: 0, Misses: 0
65d-> Hits: 54, Late: 0, Early: 0, Misses: 0
65e-> Hits: 7, Late: 0, Early: 0, Misses: 0
65f-> Hits: 538, Late: 4, Early: 0, Misses: 2
660-> Hits: 2, Late: 2, Early: 0, Misses: 0
662-> Hits: 9, Late: 0, Early: 0, Misses: 0
666-> Hits: 29, Late: 0, Early: 0, Misses: 0
667-> Hits: 32, Late: 0, Early: 0, Misses: 0
668-> Hits: 39, Late: 1, Early: 0, Misses: 0
669-> Hits: 29555, Late: 4045, Early: 0, Misses: 4508
66a-> Hits: 29, Late: 0, Early: 0, Misses: 0
66c-> Hits: 39, Late: 0, Early: 0, Misses: 0
66d-> Hits: 1, Late: 0, Early: 0, Misses: 0
66e-> Hits: 23429, Late: 427, Early: 0, Misses: 40
66f-> Hits: 1, Late: 0, Early: 0, Misses: 0
670-> Hits: 618, Late: 6, Early: 0, Misses: 2
671-> Hits: 51, Late: 0, Early: 0, Misses: 0
672-> Hits: 45, Late: 0, Early: 0, Misses: 0
674-> Hits: 45, Late: 0, Early: 0, Misses: 0
678-> Hits: 1, Late: 0, Early: 0, Misses: 0
679-> Hits: 6, Late: 0, Early: 0, Misses: 0
67a-> Hits: 4, Late: 0, Early: 0, Misses: 0
67b-> Hits: 10, Late: 0, Early: 0, Misses: 0
67c-> Hits: 1, Late: 0, Early: 0, Misses: 0
67d-> Hits: 2, Late: 0, Early: 0, Misses: 0
67f-> Hits: 22325, Late: 545, Early: 0, Misses: 42
680-> Hits: 13, Late: 17, Early: 0, Misses: 0
681-> Hits: 491, Late: 23, Early: 0, Misses: 12
683-> Hits: 180, Late: 1, Early: 0, Misses: 0
685-> Hits: 4, Late: 0, Early: 0, Misses: 0
686-> Hits: 10, Late: 0, Early: 0, Misses: 0
688-> Hits: 1, Late: 0, Early: 0, Misses: 0
689-> Hits: 9, Late: 0, Early: 0, Misses: 0
68a-> Hits: 17, Late: 0, Early: 0, Misses: 0
68c-> Hits: 2, Late: 0, Early: 0, Misses: 0
68d-> Hits: 5, Late: 0, Early: 0, Misses: 0
690-> Hits: 4403, Late: 5604, Early: 0, Misses: 28128
691-> Hits: 117, Late: 138, Early: 0, Misses: 609
693-> Hits: 1, Late: 0, Early: 0, Misses: 0
694-> Hits: 23342, Late: 1783, Early: 0, Misses: 9341
695-> Hits: 504, Late: 39, Early: 0, Misses: 239
698-> Hits: 2, Late: 1, Early: 0, Misses: 0
699-> Hits: 2628, Late: 170, Early: 0, Misses: 678
69a-> Hits: 67, Late: 3, Early: 0, Misses: 20
69c-> Hits: 3, Late: 0, Early: 0, Misses: 0
69f-> Hits: 1, Late: 0, Early: 0, Misses: 0
6a0-> Hits: 3, Late: 0, Early: 0, Misses: 0
6a1-> Hits: 22484, Late: 18, Early: 0, Misses: 0
6a2-> Hits: 414, Late: 3, Early: 0, Misses: 0
6a3-> Hits: 6, Late: 0, Early: 0, Misses: 0
6a4-> Hits: 10, Late: 1, Early: 0, Misses: 0
6a5-> Hits: 2, Late: 0, Early: 0, Misses: 0
6a6-> Hits: 1, Late: 0, Early: 0, Misses: 0
6a7-> Hits: 8, Late: 0, Early: 0, Misses: 0
6ac-> Hits: 2, Late: 0, Early: 0, Misses: 0
6ad-> Hits: 5, Late: 0, Early: 0, Misses: 0
6ae-> Hits: 1, Late: 0, Early: 0, Misses: 0
6af-> Hits: 2, Late: 0, Early: 0, Misses: 0
6b0-> Hits: 1, Late: 0, Early: 0, Misses: 0
6b1-> Hits: 20696, Late: 190, Early: 0, Misses: 3
6b2-> Hits: 386, Late: 3, Early: 0, Misses: 0
6b3-> Hits: 3, Late: 0, Early: 0, Misses: 0
6b4-> Hits: 10, Late: 1, Early: 0, Misses: 0
6b5-> Hits: 1, Late: 16, Early: 0, Misses: 0
6b6-> Hits: 3, Late: 0, Early: 0, Misses: 0
6b7-> Hits: 9, Late: 1, Early: 0, Misses: 0
6b9-> Hits: 2, Late: 0, Early: 0, Misses: 0
6ba-> Hits: 6, Late: 0, Early: 0, Misses: 0
6bb-> Hits: 2, Late: 0, Early: 0, Misses: 0
6bc-> Hits: 2, Late: 0, Early: 0, Misses: 0
6bd-> Hits: 1, Late: 0, Early: 0, Misses: 0
6be-> Hits: 1, Late: 0, Early: 0, Misses: 0
6bf-> Hits: 1, Late: 0, Early: 0, Misses: 0
6c0-> Hits: 3, Late: 2, Early: 0, Misses: 0
6c2-> Hits: 21188, Late: 205, Early: 0, Misses: 17
6c3-> Hits: 389, Late: 5, Early: 0, Misses: 0
6c4-> Hits: 9, Late: 0, Early: 0, Misses: 0
6c5-> Hits: 1, Late: 0, Early: 0, Misses: 0
6c7-> Hits: 1, Late: 0, Early: 0, Misses: 0
6c9-> Hits: 3, Late: 0, Early: 0, Misses: 0
6ca-> Hits: 1, Late: 1, Early: 0, Misses: 0
6cc-> Hits: 2, Late: 0, Early: 0, Misses: 0
6cd-> Hits: 0, Late: 1, Early: 0, Misses: 0
6ce-> Hits: 8, Late: 0, Early: 0, Misses: 0
6d0-> Hits: 3, Late: 2, Early: 0, Misses: 0
6d1-> Hits: 2, Late: 0, Early: 0, Misses: 0
6d2-> Hits: 1, Late: 0, Early: 0, Misses: 0
6d3-> Hits: 25010, Late: 330, Early: 0, Misses: 7
6d4-> Hits: 380, Late: 15, Early: 0, Misses: 0
6d5-> Hits: 11, Late: 0, Early: 0, Misses: 0
6d6-> Hits: 3, Late: 0, Early: 0, Misses: 0
6d7-> Hits: 15, Late: 0, Early: 0, Misses: 0
6d9-> Hits: 12, Late: 0, Early: 0, Misses: 0
6da-> Hits: 2, Late: 0, Early: 0, Misses: 0
6db-> Hits: 11, Late: 0, Early: 0, Misses: 0
6dc-> Hits: 1, Late: 0, Early: 0, Misses: 0
6dd-> Hits: 10, Late: 0, Early: 0, Misses: 0
6de-> Hits: 2, Late: 0, Early: 0, Misses: 0
6df-> Hits: 2, Late: 0, Early: 0, Misses: 0
6e0-> Hits: 0, Late: 1, Early: 0, Misses: 0
6e1-> Hits: 1, Late: 0, Early: 0, Misses: 0
6e2-> Hits: 3, Late: 0, Early: 0, Misses: 0
6e3-> Hits: 21687, Late: 357, Early: 0, Misses: 1
6e4-> Hits: 105, Late: 129, Early: 0, Misses: 631
6e5-> Hits: 1, Late: 0, Early: 0, Misses: 0
6e6-> Hits: 1, Late: 0, Early: 0, Misses: 0
6e7-> Hits: 2, Late: 2, Early: 0, Misses: 0
6e8-> Hits: 514, Late: 46, Early: 0, Misses: 246
6eb-> Hits: 1, Late: 3, Early: 0, Misses: 0
6ed-> Hits: 43, Late: 17, Early: 0, Misses: 21
6ee-> Hits: 1, Late: 1, Early: 0, Misses: 0
6ef-> Hits: 1, Late: 0, Early: 0, Misses: 0
6f0-> Hits: 5, Late: 6, Early: 0, Misses: 0
6f1-> Hits: 0, Late: 1, Early: 0, Misses: 0
6f2-> Hits: 2, Late: 0, Early: 0, Misses: 0
6f3-> Hits: 2, Late: 0, Early: 0, Misses: 0
6f4-> Hits: 29707, Late: 3953, Early: 0, Misses: 4402
6f5-> Hits: 439, Late: 1, Early: 0, Misses: 0
6f6-> Hits: 4, Late: 0, Early: 0, Misses: 0
6f8-> Hits: 2, Late: 1, Early: 0, Misses: 0
6f9-> Hits: 24497, Late: 480, Early: 0, Misses: 2
6fa-> Hits: 3, Late: 0, Early: 0, Misses: 0
6fb-> Hits: 1, Late: 15, Early: 0, Misses: 0
6fc-> Hits: 3, Late: 0, Early: 0, Misses: 0
6fe-> Hits: 5, Late: 0, Early: 0, Misses: 0
700-> Hits: 6, Late: 0, Early: 0, Misses: 0
701-> Hits: 0, Late: 1, Early: 0, Misses: 0
702-> Hits: 4, Late: 0, Early: 0, Misses: 0
703-> Hits: 4, Late: 0, Early: 0, Misses: 0
705-> Hits: 459, Late: 2, Early: 0, Misses: 0
706-> Hits: 4, Late: 0, Early: 0, Misses: 0
708-> Hits: 1, Late: 1, Early: 0, Misses: 0
709-> Hits: 0, Late: 2, Early: 0, Misses: 0
70a-> Hits: 4940, Late: 5541, Early: 0, Misses: 27652
70b-> Hits: 3, Late: 1, Early: 0, Misses: 0
70d-> Hits: 7, Late: 2, Early: 0, Misses: 0
70e-> Hits: 23936, Late: 1668, Early: 0, Misses: 9175
70f-> Hits: 1, Late: 0, Early: 0, Misses: 0
710-> Hits: 0, Late: 1, Early: 0, Misses: 0
711-> Hits: 1, Late: 1, Early: 0, Misses: 0
713-> Hits: 2661, Late: 135, Early: 0, Misses: 606
716-> Hits: 414, Late: 2, Early: 0, Misses: 0
718-> Hits: 3, Late: 0, Early: 0, Misses: 0
719-> Hits: 4, Late: 0, Early: 0, Misses: 0
71b-> Hits: 24886, Late: 14, Early: 0, Misses: 0
71d-> Hits: 1, Late: 0, Early: 0, Misses: 0
71e-> Hits: 4, Late: 0, Early: 0, Misses: 0
720-> Hits: 5, Late: 1, Early: 0, Misses: 0
721-> Hits: 1, Late: 0, Early: 0, Misses: 0
722-> Hits: 3, Late: 0, Early: 0, Misses: 0
723-> Hits: 7, Late: 2, Early: 0, Misses: 0
724-> Hits: 2, Late: 0, Early: 0, Misses: 0
725-> Hits: 1, Late: 0, Early: 0, Misses: 0
726-> Hits: 1, Late: 0, Early: 0, Misses: 0
727-> Hits: 364, Late: 15, Early: 0, Misses: 0
729-> Hits: 4, Late: 16, Early: 0, Misses: 0
72b-> Hits: 26200, Late: 159, Early: 0, Misses: 18
72c-> Hits: 2, Late: 0, Early: 0, Misses: 0
72d-> Hits: 3, Late: 0, Early: 0, Misses: 0
72e-> Hits: 1, Late: 0, Early: 0, Misses: 0
72f-> Hits: 1, Late: 0, Early: 0, Misses: 0
730-> Hits: 4, Late: 0, Early: 0, Misses: 0
733-> Hits: 5, Late: 1, Early: 0, Misses: 0
734-> Hits: 1, Late: 0, Early: 0, Misses: 0
736-> Hits: 1, Late: 0, Early: 0, Misses: 0
737-> Hits: 98, Late: 161, Early: 0, Misses: 621
73a-> Hits: 1, Late: 0, Early: 0, Misses: 0
73b-> Hits: 490, Late: 53, Early: 0, Misses: 244
73c-> Hits: 24915, Late: 242, Early: 0, Misses: 18
73e-> Hits: 3, Late: 1, Early: 0, Misses: 0
740-> Hits: 58, Late: 4, Early: 0, Misses: 24
741-> Hits: 4, Late: 0, Early: 0, Misses: 0
742-> Hits: 1, Late: 0, Early: 0, Misses: 0
744-> Hits: 6, Late: 0, Early: 0, Misses: 0
745-> Hits: 2, Late: 0, Early: 0, Misses: 0
747-> Hits: 2, Late: 0, Early: 0, Misses: 0
748-> Hits: 351, Late: 2, Early: 0, Misses: 0
74b-> Hits: 1, Late: 2, Early: 0, Misses: 0
74c-> Hits: 1, Late: 0, Early: 0, Misses: 0
74d-> Hits: 26430, Late: 277, Early: 0, Misses: 3
74e-> Hits: 3, Late: 0, Early: 0, Misses: 0
74f-> Hits: 2, Late: 0, Early: 0, Misses: 0
750-> Hits: 4, Late: 0, Early: 0, Misses: 0
751-> Hits: 4, Late: 0, Early: 0, Misses: 0
752-> Hits: 5, Late: 0, Early: 0, Misses: 0
753-> Hits: 2, Late: 0, Early: 0, Misses: 0
754-> Hits: 5, Late: 0, Early: 0, Misses: 0
755-> Hits: 3, Late: 0, Early: 0, Misses: 0
756-> Hits: 4, Late: 0, Early: 0, Misses: 0
758-> Hits: 333, Late: 4, Early: 0, Misses: 0
75a-> Hits: 5, Late: 1, Early: 0, Misses: 0
75b-> Hits: 4, Late: 0, Early: 0, Misses: 0
75c-> Hits: 5, Late: 2, Early: 0, Misses: 0
75d-> Hits: 29265, Late: 331, Early: 0, Misses: 1
75f-> Hits: 1, Late: 0, Early: 0, Misses: 0
760-> Hits: 4, Late: 0, Early: 0, Misses: 0
761-> Hits: 5, Late: 0, Early: 0, Misses: 0
762-> Hits: 1, Late: 0, Early: 0, Misses: 0
763-> Hits: 1, Late: 0, Early: 0, Misses: 0
765-> Hits: 1, Late: 0, Early: 0, Misses: 0
766-> Hits: 1, Late: 2, Early: 0, Misses: 0
768-> Hits: 6, Late: 0, Early: 0, Misses: 0
769-> Hits: 365, Late: 5, Early: 0, Misses: 0
76a-> Hits: 1, Late: 0, Early: 0, Misses: 0
76b-> Hits: 1, Late: 1, Early: 0, Misses: 0
76c-> Hits: 2, Late: 0, Early: 0, Misses: 0
76e-> Hits: 23691, Late: 326, Early: 0, Misses: 0
76f-> Hits: 1, Late: 0, Early: 0, Misses: 0
770-> Hits: 2, Late: 2, Early: 0, Misses: 0
771-> Hits: 1, Late: 0, Early: 0, Misses: 0
772-> Hits: 1, Late: 1, Early: 0, Misses: 0
774-> Hits: 6, Late: 0, Early: 0, Misses: 0
775-> Hits: 3, Late: 2, Early: 0, Misses: 0
776-> Hits: 1, Late: 0, Early: 0, Misses: 0
77a-> Hits: 1, Late: 1, Early: 0, Misses: 0
77c-> Hits: 4, Late: 0, Early: 0, Misses: 0
77e-> Hits: 420, Late: 11, Early: 0, Misses: 0
77f-> Hits: 4695, Late: 5487, Early: 0, Misses: 27950
780-> Hits: 5, Late: 3, Early: 0, Misses: 0
781-> Hits: 1, Late: 1, Early: 0, Misses: 0
783-> Hits: 24173, Late: 1761, Early: 0, Misses: 9537
784-> Hits: 5, Late: 1, Early: 0, Misses: 0
785-> Hits: 18, Late: 0, Early: 0, Misses: 0
788-> Hits: 2187, Late: 116, Early: 0, Misses: 496
78a-> Hits: 3, Late: 0, Early: 0, Misses: 0
78b-> Hits: 2, Late: 0, Early: 0, Misses: 0
78f-> Hits: 1, Late: 0, Early: 0, Misses: 0
790-> Hits: 19482, Late: 10, Early: 0, Misses: 3
792-> Hits: 304, Late: 570, Early: 0, Misses: 0
793-> Hits: 10, Late: 0, Early: 0, Misses: 0
794-> Hits: 4, Late: 0, Early: 0, Misses: 0
796-> Hits: 4, Late: 0, Early: 0, Misses: 0
797-> Hits: 1, Late: 0, Early: 0, Misses: 0
798-> Hits: 3, Late: 0, Early: 0, Misses: 0
79a-> Hits: 3, Late: 0, Early: 0, Misses: 0
79b-> Hits: 0, Late: 1, Early: 0, Misses: 0
79c-> Hits: 3, Late: 0, Early: 0, Misses: 0
79f-> Hits: 2, Late: 1, Early: 0, Misses: 0
7a0-> Hits: 20148, Late: 130, Early: 0, Misses: 31
7a5-> Hits: 1, Late: 0, Early: 0, Misses: 0
7a6-> Hits: 13, Late: 0, Early: 0, Misses: 0
7a7-> Hits: 3, Late: 0, Early: 0, Misses: 0
7a8-> Hits: 2, Late: 0, Early: 0, Misses: 0
7aa-> Hits: 2, Late: 0, Early: 0, Misses: 0
7ab-> Hits: 3, Late: 0, Early: 0, Misses: 0
7ac-> Hits: 2, Late: 0, Early: 0, Misses: 0
7af-> Hits: 2, Late: 0, Early: 0, Misses: 0
7b0-> Hits: 3, Late: 48, Early: 0, Misses: 0
7b1-> Hits: 22079, Late: 167, Early: 0, Misses: 18
7b4-> Hits: 1, Late: 0, Early: 0, Misses: 0
7b5-> Hits: 10, Late: 50, Early: 0, Misses: 0
7b8-> Hits: 3, Late: 0, Early: 0, Misses: 0
7ba-> Hits: 8, Late: 0, Early: 0, Misses: 0
7bb-> Hits: 0, Late: 48, Early: 0, Misses: 0
7bc-> Hits: 6, Late: 0, Early: 0, Misses: 0
7c1-> Hits: 2, Late: 48, Early: 0, Misses: 0
7c3-> Hits: 1, Late: 0, Early: 0, Misses: 0
7c4-> Hits: 1, Late: 0, Early: 0, Misses: 0
7c6-> Hits: 20059, Late: 232, Early: 0, Misses: 1
7c8-> Hits: 48, Late: 1, Early: 0, Misses: 0
7d0-> Hits: 56, Late: 87, Early: 0, Misses: 534
7d4-> Hits: 370, Late: 27, Early: 0, Misses: 197
7d6-> Hits: 17553, Late: 252, Early: 0, Misses: 1
7d7-> Hits: 12, Late: 0, Early: 0, Misses: 0
7d9-> Hits: 38, Late: 6, Early: 0, Misses: 16
7da-> Hits: 2, Late: 0, Early: 0, Misses: 0
7db-> Hits: 3, Late: 0, Early: 0, Misses: 0
7dd-> Hits: 8, Late: 0, Early: 0, Misses: 0
7de-> Hits: 3, Late: 0, Early: 0, Misses: 0
7df-> Hits: 8, Late: 2, Early: 0, Misses: 0
7e0-> Hits: 4101, Late: 3, Early: 0, Misses: 0
7e1-> Hits: 616, Late: 3, Early: 0, Misses: 0
7e2-> Hits: 2, Late: 1, Early: 0, Misses: 0
7e4-> Hits: 1, Late: 0, Early: 0, Misses: 0
7e5-> Hits: 5, Late: 5, Early: 0, Misses: 0
7e6-> Hits: 2, Late: 0, Early: 0, Misses: 0
7e7-> Hits: 25580, Late: 318, Early: 0, Misses: 0
7e8-> Hits: 1, Late: 0, Early: 0, Misses: 0
7e9-> Hits: 5, Late: 0, Early: 0, Misses: 0
7ea-> Hits: 1, Late: 1, Early: 0, Misses: 0
7eb-> Hits: 3, Late: 0, Early: 0, Misses: 0
7ec-> Hits: 2, Late: 0, Early: 0, Misses: 0
7ed-> Hits: 1, Late: 0, Early: 0, Misses: 0
7ee-> Hits: 4, Late: 0, Early: 0, Misses: 0
7ef-> Hits: 1, Late: 1, Early: 0, Misses: 0
7f0-> Hits: 7, Late: 2, Early: 0, Misses: 0
7f1-> Hits: 659, Late: 7, Early: 0, Misses: 6
7f2-> Hits: 2, Late: 0, Early: 0, Misses: 0
7f3-> Hits: 9, Late: 0, Early: 0, Misses: 0
7f4-> Hits: 53, Late: 0, Early: 0, Misses: 0
7f5-> Hits: 612, Late: 3, Early: 0, Misses: 0
7f6-> Hits: 1, Late: 0, Early: 0, Misses: 0
7f7-> Hits: 1, Late: 0, Early: 0, Misses: 0
7f8-> Hits: 55, Late: 0, Early: 0, Misses: 0
7fa-> Hits: 7, Late: 2, Early: 0, Misses: 0
7fb-> Hits: 4, Late: 1, Early: 0, Misses: 0
7fc-> Hits: 20019, Late: 2549, Early: 0, Misses: 15568
7fd-> Hits: 2, Late: 0, Early: 0, Misses: 0
7ff-> Hits: 2, Late: 0, Early: 0, Misses: 0
800-> Hits: 4, Late: 0, Early: 0, Misses: 0
801-> Hits: 5, Late: 1, Early: 0, Misses: 0
803-> Hits: 0, Late: 1, Early: 0, Misses: 0
804-> Hits: 3, Late: 0, Early: 0, Misses: 0
805-> Hits: 1, Late: 16, Early: 0, Misses: 0
806-> Hits: 615, Late: 6, Early: 0, Misses: 0
808-> Hits: 2, Late: 1, Early: 0, Misses: 0
809-> Hits: 9, Late: 0, Early: 0, Misses: 0
80a-> Hits: 5, Late: 0, Early: 0, Misses: 0
810-> Hits: 3, Late: 2119, Early: 0, Misses: 0
811-> Hits: 1, Late: 0, Early: 0, Misses: 0
812-> Hits: 4099, Late: 0, Early: 0, Misses: 0
813-> Hits: 3, Late: 0, Early: 0, Misses: 0
814-> Hits: 16, Late: 0, Early: 0, Misses: 0
815-> Hits: 3, Late: 2118, Early: 0, Misses: 0
816-> Hits: 19, Late: 0, Early: 0, Misses: 0
817-> Hits: 593, Late: 27, Early: 0, Misses: 0
819-> Hits: 3, Late: 0, Early: 0, Misses: 0
81a-> Hits: 8, Late: 0, Early: 0, Misses: 0
81b-> Hits: 0, Late: 2118, Early: 0, Misses: 0
81c-> Hits: 1, Late: 0, Early: 0, Misses: 0
81d-> Hits: 3, Late: 1, Early: 0, Misses: 1
81e-> Hits: 14, Late: 0, Early: 0, Misses: 0
81f-> Hits: 5, Late: 0, Early: 0, Misses: 0
820-> Hits: 11, Late: 3, Early: 0, Misses: 0
821-> Hits: 9, Late: 2118, Early: 0, Misses: 0
822-> Hits: 4, Late: 0, Early: 0, Misses: 0
823-> Hits: 1, Late: 0, Early: 0, Misses: 0
824-> Hits: 4, Late: 0, Early: 0, Misses: 0
825-> Hits: 6, Late: 0, Early: 0, Misses: 0
826-> Hits: 6, Late: 2118, Early: 0, Misses: 0
827-> Hits: 49, Late: 77, Early: 0, Misses: 549
828-> Hits: 9, Late: 0, Early: 0, Misses: 0
829-> Hits: 1, Late: 0, Early: 0, Misses: 0
82a-> Hits: 3, Late: 16, Early: 0, Misses: 0
82b-> Hits: 374, Late: 29, Early: 0, Misses: 196
82c-> Hits: 4, Late: 2118, Early: 0, Misses: 0
82d-> Hits: 4, Late: 0, Early: 0, Misses: 0
82e-> Hits: 4, Late: 0, Early: 0, Misses: 0
82f-> Hits: 6, Late: 0, Early: 0, Misses: 0
830-> Hits: 121412, Late: 5610, Early: 0, Misses: 13
831-> Hits: 16, Late: 2, Early: 0, Misses: 0
832-> Hits: 4, Late: 0, Early: 0, Misses: 0
834-> Hits: 4, Late: 0, Early: 0, Misses: 0
835-> Hits: 3, Late: 0, Early: 0, Misses: 0
836-> Hits: 4, Late: 0, Early: 0, Misses: 0
838-> Hits: 298, Late: 2, Early: 0, Misses: 0
839-> Hits: 1, Late: 0, Early: 0, Misses: 0
83a-> Hits: 5, Late: 0, Early: 0, Misses: 0
83c-> Hits: 2, Late: 0, Early: 0, Misses: 0
83d-> Hits: 1, Late: 1, Early: 0, Misses: 0
83e-> Hits: 1, Late: 0, Early: 0, Misses: 0
840-> Hits: 2798, Late: 3247, Early: 0, Misses: 23608
841-> Hits: 2, Late: 0, Early: 0, Misses: 0
842-> Hits: 3, Late: 0, Early: 0, Misses: 0
844-> Hits: 19838, Late: 616, Early: 0, Misses: 7312
847-> Hits: 5, Late: 0, Early: 0, Misses: 1
848-> Hits: 546, Late: 50, Early: 0, Misses: 76
849-> Hits: 1312, Late: 34, Early: 0, Misses: 494
84a-> Hits: 2, Late: 0, Early: 0, Misses: 0
84b-> Hits: 21, Late: 0, Early: 0, Misses: 0
84d-> Hits: 239, Late: 0, Early: 0, Misses: 0
84e-> Hits: 3, Late: 1, Early: 0, Misses: 0
84f-> Hits: 3, Late: 0, Early: 0, Misses: 0
850-> Hits: 3, Late: 0, Early: 0, Misses: 0
851-> Hits: 27283, Late: 41, Early: 0, Misses: 0
852-> Hits: 1, Late: 0, Early: 0, Misses: 0
853-> Hits: 6, Late: 0, Early: 0, Misses: 0
854-> Hits: 2, Late: 2, Early: 0, Misses: 0
855-> Hits: 3, Late: 18, Early: 0, Misses: 0
856-> Hits: 1, Late: 0, Early: 0, Misses: 0
857-> Hits: 5, Late: 0, Early: 0, Misses: 0
859-> Hits: 1, Late: 0, Early: 0, Misses: 0
85b-> Hits: 2, Late: 0, Early: 0, Misses: 0
85c-> Hits: 8, Late: 0, Early: 0, Misses: 0
85d-> Hits: 4, Late: 0, Early: 0, Misses: 0
85e-> Hits: 211, Late: 1, Early: 0, Misses: 0
85f-> Hits: 3, Late: 0, Early: 0, Misses: 0
861-> Hits: 23046, Late: 1848, Early: 0, Misses: 4761
862-> Hits: 16, Late: 1, Early: 0, Misses: 0
864-> Hits: 3, Late: 0, Early: 0, Misses: 0
865-> Hits: 27985, Late: 148, Early: 0, Misses: 0
866-> Hits: 1, Late: 0, Early: 0, Misses: 0
867-> Hits: 1, Late: 0, Early: 0, Misses: 0
868-> Hits: 1, Late: 0, Early: 0, Misses: 0
869-> Hits: 1, Late: 1, Early: 0, Misses: 0
86a-> Hits: 2, Late: 0, Early: 0, Misses: 0
86b-> Hits: 1, Late: 0, Early: 0, Misses: 0
86c-> Hits: 5, Late: 0, Early: 0, Misses: 0
86d-> Hits: 1, Late: 1, Early: 0, Misses: 0
86e-> Hits: 3, Late: 0, Early: 0, Misses: 0
86f-> Hits: 162, Late: 10, Early: 0, Misses: 0
870-> Hits: 3, Late: 3, Early: 0, Misses: 0
871-> Hits: 18, Late: 0, Early: 0, Misses: 0
872-> Hits: 3, Late: 0, Early: 0, Misses: 0
873-> Hits: 5, Late: 0, Early: 0, Misses: 0
874-> Hits: 5, Late: 1, Early: 0, Misses: 0
875-> Hits: 1, Late: 0, Early: 0, Misses: 0
876-> Hits: 28621, Late: 90, Early: 0, Misses: 0
878-> Hits: 1, Late: 1, Early: 0, Misses: 0
879-> Hits: 1, Late: 0, Early: 0, Misses: 0
87a-> Hits: 12, Late: 1, Early: 0, Misses: 0
87b-> Hits: 4, Late: 0, Early: 0, Misses: 0
87c-> Hits: 1, Late: 1, Early: 0, Misses: 0
87d-> Hits: 6, Late: 0, Early: 0, Misses: 0
87f-> Hits: 56, Late: 92, Early: 0, Misses: 531
880-> Hits: 2, Late: 0, Early: 0, Misses: 0
881-> Hits: 5, Late: 0, Early: 0, Misses: 0
882-> Hits: 1, Late: 1, Early: 0, Misses: 0
883-> Hits: 375, Late: 32, Early: 0, Misses: 184
884-> Hits: 1, Late: 0, Early: 0, Misses: 0
885-> Hits: 10, Late: 3, Early: 0, Misses: 0
[...]
dad-> Hits: 13, Late: 0, Early: 0, Misses: 0
dae-> Hits: 1, Late: 0, Early: 0, Misses: 0
daf-> Hits: 3, Late: 0, Early: 0, Misses: 0
db0-> Hits: 7, Late: 4, Early: 0, Misses: 0
db1-> Hits: 12, Late: 0, Early: 0, Misses: 0
db2-> Hits: 0, Late: 1, Early: 0, Misses: 0
db3-> Hits: 2, Late: 0, Early: 0, Misses: 0
db5-> Hits: 3, Late: 0, Early: 0, Misses: 0
db7-> Hits: 3, Late: 0, Early: 0, Misses: 0
db8-> Hits: 3, Late: 0, Early: 0, Misses: 0
db9-> Hits: 2, Late: 0, Early: 0, Misses: 0
dba-> Hits: 2, Late: 0, Early: 0, Misses: 0
dbb-> Hits: 2, Late: 0, Early: 0, Misses: 0
dbc-> Hits: 1, Late: 0, Early: 0, Misses: 0
dbd-> Hits: 1, Late: 0, Early: 0, Misses: 0
dbe-> Hits: 5, Late: 0, Early: 0, Misses: 0
dbf-> Hits: 7, Late: 1, Early: 0, Misses: 0
dc0-> Hits: 30, Late: 6, Early: 0, Misses: 0
dc2-> Hits: 3, Late: 2, Early: 0, Misses: 0
dc3-> Hits: 1, Late: 0, Early: 0, Misses: 0
dc7-> Hits: 24, Late: 1, Early: 0, Misses: 0
dc8-> Hits: 3, Late: 1, Early: 0, Misses: 0
dca-> Hits: 3, Late: 0, Early: 0, Misses: 0
dcb-> Hits: 6, Late: 0, Early: 0, Misses: 0
dcc-> Hits: 22, Late: 2, Early: 0, Misses: 0
dcd-> Hits: 23, Late: 0, Early: 0, Misses: 0
dcf-> Hits: 16, Late: 0, Early: 0, Misses: 0
dd0-> Hits: 2, Late: 0, Early: 0, Misses: 0
dd1-> Hits: 17, Late: 0, Early: 0, Misses: 0
dd2-> Hits: 4, Late: 14, Early: 0, Misses: 10
dd3-> Hits: 22, Late: 0, Early: 0, Misses: 0
dd5-> Hits: 4, Late: 0, Early: 0, Misses: 0
dd6-> Hits: 4, Late: 0, Early: 0, Misses: 0
dd8-> Hits: 23, Late: 0, Early: 0, Misses: 0
dd9-> Hits: 16, Late: 0, Early: 0, Misses: 0
dda-> Hits: 4, Late: 0, Early: 0, Misses: 0
ddc-> Hits: 7, Late: 0, Early: 0, Misses: 0
dde-> Hits: 4, Late: 0, Early: 0, Misses: 0
ddf-> Hits: 4, Late: 0, Early: 0, Misses: 0
de0-> Hits: 9, Late: 0, Early: 0, Misses: 0
de2-> Hits: 2, Late: 0, Early: 0, Misses: 0
de3-> Hits: 4, Late: 0, Early: 0, Misses: 0
de4-> Hits: 2, Late: 0, Early: 0, Misses: 0
de7-> Hits: 1, Late: 0, Early: 0, Misses: 0
de8-> Hits: 1, Late: 0, Early: 0, Misses: 0
de9-> Hits: 3, Late: 0, Early: 0, Misses: 0
deb-> Hits: 1, Late: 0, Early: 0, Misses: 0
dec-> Hits: 4, Late: 0, Early: 0, Misses: 0
ded-> Hits: 5, Late: 0, Early: 0, Misses: 0
dee-> Hits: 5, Late: 0, Early: 0, Misses: 0
def-> Hits: 5, Late: 0, Early: 0, Misses: 0
df0-> Hits: 1, Late: 0, Early: 0, Misses: 0
df1-> Hits: 17, Late: 0, Early: 0, Misses: 0
df2-> Hits: 3, Late: 0, Early: 0, Misses: 0
df3-> Hits: 6, Late: 0, Early: 0, Misses: 0
df4-> Hits: 1, Late: 0, Early: 0, Misses: 0
df5-> Hits: 6, Late: 0, Early: 0, Misses: 0
df7-> Hits: 7, Late: 0, Early: 0, Misses: 0
df8-> Hits: 1, Late: 0, Early: 0, Misses: 0
df9-> Hits: 2, Late: 0, Early: 0, Misses: 0
dfb-> Hits: 1, Late: 0, Early: 0, Misses: 0
dfd-> Hits: 4, Late: 0, Early: 0, Misses: 0
e00-> Hits: 5, Late: 0, Early: 0, Misses: 0
e01-> Hits: 2, Late: 0, Early: 0, Misses: 0
e02-> Hits: 4, Late: 0, Early: 0, Misses: 0
e03-> Hits: 2, Late: 0, Early: 0, Misses: 0
e04-> Hits: 0, Late: 1, Early: 0, Misses: 62
e05-> Hits: 3, Late: 1, Early: 0, Misses: 0
e06-> Hits: 2, Late: 0, Early: 0, Misses: 0
e07-> Hits: 0, Late: 28, Early: 0, Misses: 0
e0e-> Hits: 71, Late: 1, Early: 0, Misses: 0
e0f-> Hits: 2, Late: 16, Early: 0, Misses: 12
e10-> Hits: 3, Late: 0, Early: 0, Misses: 0
e12-> Hits: 6, Late: 0, Early: 0, Misses: 0
e13-> Hits: 7, Late: 0, Early: 0, Misses: 0
e14-> Hits: 3, Late: 0, Early: 0, Misses: 0
e15-> Hits: 2, Late: 0, Early: 0, Misses: 0
e16-> Hits: 2, Late: 0, Early: 0, Misses: 0
e17-> Hits: 1, Late: 0, Early: 0, Misses: 0
e18-> Hits: 4, Late: 0, Early: 0, Misses: 0
e19-> Hits: 18, Late: 0, Early: 0, Misses: 0
e1a-> Hits: 2, Late: 0, Early: 0, Misses: 0
e1b-> Hits: 16, Late: 0, Early: 0, Misses: 0
e1c-> Hits: 5, Late: 0, Early: 0, Misses: 0
e1d-> Hits: 0, Late: 3, Early: 0, Misses: 0
e1e-> Hits: 0, Late: 16, Early: 0, Misses: 0
e20-> Hits: 12, Late: 4, Early: 0, Misses: 0
e22-> Hits: 7, Late: 0, Early: 0, Misses: 0
e23-> Hits: 20, Late: 16, Early: 0, Misses: 0
e25-> Hits: 1, Late: 0, Early: 0, Misses: 0
e26-> Hits: 2, Late: 0, Early: 0, Misses: 0
e27-> Hits: 1, Late: 0, Early: 0, Misses: 0
e28-> Hits: 8, Late: 16, Early: 0, Misses: 0
e29-> Hits: 1, Late: 0, Early: 0, Misses: 0
e2a-> Hits: 2, Late: 1, Early: 0, Misses: 0
e2c-> Hits: 1, Late: 16, Early: 0, Misses: 0
e2d-> Hits: 2, Late: 0, Early: 0, Misses: 0
e2f-> Hits: 1, Late: 0, Early: 0, Misses: 0
e30-> Hits: 18, Late: 0, Early: 0, Misses: 0
e31-> Hits: 0, Late: 16, Early: 0, Misses: 0
e33-> Hits: 3, Late: 0, Early: 0, Misses: 0
e34-> Hits: 1, Late: 0, Early: 0, Misses: 0
e35-> Hits: 16, Late: 0, Early: 0, Misses: 0
e36-> Hits: 2, Late: 0, Early: 0, Misses: 0
e38-> Hits: 2, Late: 0, Early: 0, Misses: 0
e39-> Hits: 8, Late: 16, Early: 0, Misses: 0
e3a-> Hits: 1, Late: 0, Early: 0, Misses: 0
e3b-> Hits: 0, Late: 1, Early: 0, Misses: 0
e3c-> Hits: 8, Late: 1, Early: 0, Misses: 0
e3d-> Hits: 14, Late: 3, Early: 0, Misses: 0
e3e-> Hits: 2, Late: 0, Early: 0, Misses: 0
e3f-> Hits: 1, Late: 0, Early: 0, Misses: 0
e40-> Hits: 6, Late: 1, Early: 0, Misses: 0
e41-> Hits: 3, Late: 16, Early: 0, Misses: 0
e42-> Hits: 2, Late: 0, Early: 0, Misses: 0
e43-> Hits: 1, Late: 0, Early: 0, Misses: 0
e44-> Hits: 3, Late: 0, Early: 0, Misses: 0
e45-> Hits: 1, Late: 1, Early: 0, Misses: 0
e47-> Hits: 2, Late: 0, Early: 0, Misses: 0
e48-> Hits: 3, Late: 0, Early: 0, Misses: 0
e49-> Hits: 0, Late: 16, Early: 0, Misses: 0
e4a-> Hits: 1, Late: 0, Early: 0, Misses: 0
e4c-> Hits: 0, Late: 1, Early: 0, Misses: 0
e4d-> Hits: 3, Late: 0, Early: 0, Misses: 0
e4f-> Hits: 2, Late: 0, Early: 0, Misses: 0
e50-> Hits: 0, Late: 3, Early: 0, Misses: 0
e51-> Hits: 2, Late: 0, Early: 0, Misses: 0
e54-> Hits: 1, Late: 0, Early: 0, Misses: 0
e55-> Hits: 2, Late: 0, Early: 0, Misses: 0
e57-> Hits: 8, Late: 0, Early: 0, Misses: 0
e58-> Hits: 2, Late: 0, Early: 0, Misses: 0
e59-> Hits: 20, Late: 0, Early: 0, Misses: 0
e5a-> Hits: 22, Late: 0, Early: 0, Misses: 0
e5b-> Hits: 22, Late: 0, Early: 0, Misses: 0
e5c-> Hits: 2, Late: 0, Early: 0, Misses: 0
e5d-> Hits: 20, Late: 0, Early: 0, Misses: 0
e5e-> Hits: 7, Late: 0, Early: 0, Misses: 0
e5f-> Hits: 20, Late: 0, Early: 0, Misses: 0
e60-> Hits: 6, Late: 2, Early: 0, Misses: 0
e61-> Hits: 22, Late: 0, Early: 0, Misses: 0
e62-> Hits: 2, Late: 0, Early: 0, Misses: 0
e63-> Hits: 26, Late: 0, Early: 0, Misses: 0
e64-> Hits: 0, Late: 1, Early: 0, Misses: 0
e65-> Hits: 6, Late: 0, Early: 0, Misses: 0
e68-> Hits: 2, Late: 0, Early: 0, Misses: 0
e6b-> Hits: 1, Late: 0, Early: 0, Misses: 0
e6c-> Hits: 1, Late: 0, Early: 0, Misses: 0
e6f-> Hits: 2, Late: 0, Early: 0, Misses: 0
e70-> Hits: 4, Late: 1, Early: 0, Misses: 0
e71-> Hits: 5, Late: 1, Early: 0, Misses: 0
e72-> Hits: 34, Late: 0, Early: 0, Misses: 0
e73-> Hits: 2, Late: 0, Early: 0, Misses: 0
e74-> Hits: 5, Late: 0, Early: 0, Misses: 0
e75-> Hits: 5, Late: 0, Early: 0, Misses: 0
e76-> Hits: 6, Late: 0, Early: 0, Misses: 0
e77-> Hits: 1, Late: 0, Early: 0, Misses: 0
e79-> Hits: 2, Late: 0, Early: 0, Misses: 0
e7a-> Hits: 1, Late: 0, Early: 0, Misses: 0
e7b-> Hits: 1, Late: 0, Early: 0, Misses: 0
e7d-> Hits: 16, Late: 0, Early: 0, Misses: 12
e7e-> Hits: 28, Late: 0, Early: 0, Misses: 0
e7f-> Hits: 30, Late: 0, Early: 0, Misses: 0
e80-> Hits: 1, Late: 0, Early: 0, Misses: 0
e81-> Hits: 21, Late: 1, Early: 0, Misses: 12
e82-> Hits: 4, Late: 0, Early: 0, Misses: 0
e83-> Hits: 31, Late: 0, Early: 0, Misses: 0
e84-> Hits: 19, Late: 0, Early: 0, Misses: 0
e85-> Hits: 28, Late: 0, Early: 0, Misses: 0
e86-> Hits: 3, Late: 0, Early: 0, Misses: 0
e87-> Hits: 28, Late: 0, Early: 0, Misses: 0
e88-> Hits: 18, Late: 0, Early: 0, Misses: 0
e8a-> Hits: 3, Late: 0, Early: 0, Misses: 0
e8b-> Hits: 2, Late: 0, Early: 0, Misses: 0
e8d-> Hits: 1, Late: 0, Early: 0, Misses: 0
e90-> Hits: 2, Late: 0, Early: 0, Misses: 0
e91-> Hits: 2, Late: 0, Early: 0, Misses: 0
e92-> Hits: 4, Late: 0, Early: 0, Misses: 0
e94-> Hits: 4, Late: 0, Early: 0, Misses: 0
e95-> Hits: 1, Late: 0, Early: 0, Misses: 0
e96-> Hits: 1, Late: 0, Early: 0, Misses: 0
e97-> Hits: 2, Late: 0, Early: 0, Misses: 0
e98-> Hits: 2, Late: 0, Early: 0, Misses: 0
e99-> Hits: 17, Late: 0, Early: 0, Misses: 0
e9a-> Hits: 2, Late: 0, Early: 0, Misses: 0
e9b-> Hits: 1, Late: 0, Early: 0, Misses: 0
e9d-> Hits: 1, Late: 0, Early: 0, Misses: 0
e9f-> Hits: 1, Late: 0, Early: 0, Misses: 0
ea0-> Hits: 2, Late: 1, Early: 0, Misses: 0
ea1-> Hits: 4, Late: 0, Early: 0, Misses: 0
ea2-> Hits: 2, Late: 0, Early: 0, Misses: 0
ea5-> Hits: 1, Late: 0, Early: 0, Misses: 0
ea6-> Hits: 0, Late: 1, Early: 0, Misses: 0
ea7-> Hits: 1, Late: 0, Early: 0, Misses: 0
ea8-> Hits: 1, Late: 0, Early: 0, Misses: 0
ea9-> Hits: 3, Late: 0, Early: 0, Misses: 0
eaa-> Hits: 1, Late: 0, Early: 0, Misses: 0
eab-> Hits: 5, Late: 0, Early: 0, Misses: 0
eac-> Hits: 1, Late: 0, Early: 0, Misses: 0
eaf-> Hits: 0, Late: 1, Early: 0, Misses: 0
eb0-> Hits: 7654, Late: 4087, Early: 0, Misses: 0
eb3-> Hits: 1, Late: 0, Early: 0, Misses: 0
eb4-> Hits: 1, Late: 0, Early: 0, Misses: 0
eb5-> Hits: 7835, Late: 2512, Early: 0, Misses: 0
eb6-> Hits: 4, Late: 1, Early: 0, Misses: 0
eb8-> Hits: 1, Late: 0, Early: 0, Misses: 0
eba-> Hits: 6737, Late: 4850, Early: 0, Misses: 0
ebc-> Hits: 3, Late: 0, Early: 0, Misses: 0
ebd-> Hits: 1, Late: 0, Early: 0, Misses: 0
ebe-> Hits: 2, Late: 0, Early: 0, Misses: 0
ebf-> Hits: 2, Late: 1, Early: 0, Misses: 0
ec0-> Hits: 7204, Late: 3566, Early: 0, Misses: 0
ec1-> Hits: 13, Late: 0, Early: 0, Misses: 0
ec2-> Hits: 1, Late: 1, Early: 0, Misses: 0
ec3-> Hits: 2, Late: 0, Early: 0, Misses: 0
ec4-> Hits: 1, Late: 1, Early: 0, Misses: 0
ec5-> Hits: 8, Late: 0, Early: 0, Misses: 0
ec6-> Hits: 5915, Late: 5545, Early: 0, Misses: 0
ec7-> Hits: 1, Late: 1, Early: 0, Misses: 0
ec8-> Hits: 1, Late: 0, Early: 0, Misses: 0
eca-> Hits: 1, Late: 0, Early: 0, Misses: 0
ecb-> Hits: 0, Late: 1, Early: 0, Misses: 0
ecc-> Hits: 6467, Late: 4232, Early: 0, Misses: 0
ecd-> Hits: 1, Late: 0, Early: 0, Misses: 0
ece-> Hits: 0, Late: 1, Early: 0, Misses: 0
ecf-> Hits: 4, Late: 0, Early: 0, Misses: 0
ed0-> Hits: 3, Late: 0, Early: 0, Misses: 0
ed1-> Hits: 19, Late: 0, Early: 0, Misses: 0
ed2-> Hits: 4449, Late: 6763, Early: 0, Misses: 0
ed3-> Hits: 2, Late: 0, Early: 0, Misses: 0
ed5-> Hits: 5, Late: 1, Early: 0, Misses: 0
ed6-> Hits: 2, Late: 1, Early: 0, Misses: 0
ed7-> Hits: 2, Late: 1, Early: 0, Misses: 0
ed8-> Hits: 5705, Late: 4842, Early: 0, Misses: 16
ed9-> Hits: 7, Late: 0, Early: 0, Misses: 0
edb-> Hits: 2, Late: 0, Early: 0, Misses: 0
edc-> Hits: 3, Late: 0, Early: 0, Misses: 0
edd-> Hits: 0, Late: 1, Early: 0, Misses: 0
edf-> Hits: 0, Late: 1, Early: 0, Misses: 0
ee0-> Hits: 6, Late: 1, Early: 0, Misses: 16
ee1-> Hits: 6, Late: 16, Early: 0, Misses: 0
ee2-> Hits: 3, Late: 0, Early: 0, Misses: 0
ee3-> Hits: 5, Late: 0, Early: 0, Misses: 0
ee4-> Hits: 8, Late: 0, Early: 0, Misses: 0
ee5-> Hits: 5, Late: 0, Early: 0, Misses: 0
ee7-> Hits: 5, Late: 0, Early: 0, Misses: 0
ee8-> Hits: 1, Late: 0, Early: 0, Misses: 0
ee9-> Hits: 6, Late: 0, Early: 0, Misses: 0
eea-> Hits: 5, Late: 0, Early: 0, Misses: 0
eeb-> Hits: 2, Late: 0, Early: 0, Misses: 0
eec-> Hits: 2, Late: 0, Early: 0, Misses: 0
eed-> Hits: 2, Late: 0, Early: 0, Misses: 0
eee-> Hits: 2, Late: 0, Early: 0, Misses: 0
eef-> Hits: 16, Late: 0, Early: 0, Misses: 0
ef0-> Hits: 5, Late: 0, Early: 0, Misses: 0
ef1-> Hits: 2, Late: 0, Early: 0, Misses: 0
ef2-> Hits: 3, Late: 0, Early: 0, Misses: 0
ef3-> Hits: 1, Late: 0, Early: 0, Misses: 0
ef4-> Hits: 11, Late: 0, Early: 0, Misses: 0
ef5-> Hits: 1, Late: 0, Early: 0, Misses: 0
ef6-> Hits: 2, Late: 0, Early: 0, Misses: 0
ef7-> Hits: 2, Late: 0, Early: 0, Misses: 0
ef8-> Hits: 3, Late: 2, Early: 0, Misses: 0
ef9-> Hits: 1, Late: 0, Early: 0, Misses: 0
efa-> Hits: 6, Late: 0, Early: 0, Misses: 0
efb-> Hits: 5, Late: 0, Early: 0, Misses: 0
efc-> Hits: 4, Late: 0, Early: 0, Misses: 0
efd-> Hits: 2, Late: 0, Early: 0, Misses: 0
efe-> Hits: 4775, Late: 10964, Early: 0, Misses: 606
eff-> Hits: 6, Late: 0, Early: 0, Misses: 0
f00-> Hits: 4, Late: 0, Early: 0, Misses: 0
f01-> Hits: 4, Late: 0, Early: 0, Misses: 0
f02-> Hits: 4, Late: 0, Early: 0, Misses: 0
f03-> Hits: 2, Late: 0, Early: 0, Misses: 0
f04-> Hits: 6, Late: 0, Early: 0, Misses: 0
f05-> Hits: 3, Late: 0, Early: 0, Misses: 0
f06-> Hits: 8, Late: 0, Early: 0, Misses: 0
f07-> Hits: 2, Late: 0, Early: 0, Misses: 0
f08-> Hits: 4, Late: 0, Early: 0, Misses: 0
f09-> Hits: 9, Late: 0, Early: 0, Misses: 0
f0b-> Hits: 2, Late: 0, Early: 0, Misses: 0
f0c-> Hits: 4, Late: 4, Early: 0, Misses: 0
f0d-> Hits: 2, Late: 0, Early: 0, Misses: 0
f0e-> Hits: 2, Late: 0, Early: 0, Misses: 0
f10-> Hits: 39, Late: 3, Early: 0, Misses: 0
f13-> Hits: 33, Late: 0, Early: 0, Misses: 0
f15-> Hits: 1, Late: 0, Early: 0, Misses: 0
f16-> Hits: 1, Late: 0, Early: 0, Misses: 0
f17-> Hits: 23, Late: 0, Early: 0, Misses: 0
f18-> Hits: 1, Late: 0, Early: 0, Misses: 0
f19-> Hits: 4, Late: 1, Early: 0, Misses: 0
f1c-> Hits: 1, Late: 0, Early: 0, Misses: 0
f1e-> Hits: 2, Late: 0, Early: 0, Misses: 1
f20-> Hits: 180, Late: 53, Early: 0, Misses: 0
f21-> Hits: 18, Late: 0, Early: 0, Misses: 0
f22-> Hits: 7, Late: 0, Early: 0, Misses: 1
f23-> Hits: 3, Late: 0, Early: 0, Misses: 0
f24-> Hits: 38, Late: 0, Early: 0, Misses: 0
f25-> Hits: 210, Late: 17, Early: 0, Misses: 0
f26-> Hits: 1, Late: 0, Early: 0, Misses: 0
f27-> Hits: 24, Late: 0, Early: 0, Misses: 0
f28-> Hits: 3, Late: 0, Early: 0, Misses: 0
f29-> Hits: 4, Late: 1, Early: 0, Misses: 0
f2a-> Hits: 138, Late: 99, Early: 0, Misses: 0
f2b-> Hits: 16, Late: 1, Early: 0, Misses: 0
f2f-> Hits: 5, Late: 0, Early: 0, Misses: 0
f30-> Hits: 193, Late: 45, Early: 0, Misses: 0
f31-> Hits: 164, Late: 0, Early: 0, Misses: 0
f32-> Hits: 36, Late: 0, Early: 0, Misses: 0
f33-> Hits: 9, Late: 0, Early: 0, Misses: 0
f34-> Hits: 1, Late: 2, Early: 0, Misses: 0
f37-> Hits: 14, Late: 0, Early: 0, Misses: 0
f39-> Hits: 3, Late: 0, Early: 0, Misses: 0
f3b-> Hits: 8, Late: 0, Early: 0, Misses: 0
f3c-> Hits: 8, Late: 0, Early: 0, Misses: 0
f3d-> Hits: 41, Late: 0, Early: 0, Misses: 0
f3e-> Hits: 2, Late: 0, Early: 0, Misses: 0
f3f-> Hits: 15, Late: 0, Early: 0, Misses: 0
f40-> Hits: 174, Late: 53, Early: 0, Misses: 0
f41-> Hits: 8, Late: 0, Early: 0, Misses: 0
f43-> Hits: 10, Late: 0, Early: 0, Misses: 0
f44-> Hits: 5, Late: 0, Early: 0, Misses: 0
f45-> Hits: 211, Late: 18, Early: 0, Misses: 0
f49-> Hits: 2, Late: 0, Early: 0, Misses: 0
f4a-> Hits: 139, Late: 88, Early: 0, Misses: 0
f4c-> Hits: 0, Late: 1, Early: 0, Misses: 0
f50-> Hits: 189, Late: 33, Early: 0, Misses: 0
f53-> Hits: 7, Late: 0, Early: 0, Misses: 0
f54-> Hits: 2, Late: 0, Early: 0, Misses: 0
f59-> Hits: 0, Late: 176, Early: 0, Misses: 1
f5a-> Hits: 20, Late: 0, Early: 0, Misses: 0
f5b-> Hits: 1, Late: 0, Early: 0, Misses: 0
f5d-> Hits: 1, Late: 0, Early: 0, Misses: 0
f5e-> Hits: 1, Late: 0, Early: 0, Misses: 0
f5f-> Hits: 171, Late: 53, Early: 0, Misses: 0
f60-> Hits: 13, Late: 2, Early: 0, Misses: 0
f61-> Hits: 0, Late: 0, Early: 0, Misses: 1
f63-> Hits: 2, Late: 0, Early: 0, Misses: 0
f64-> Hits: 192, Late: 184, Early: 0, Misses: 16
f65-> Hits: 4, Late: 1, Early: 0, Misses: 0
f66-> Hits: 2, Late: 0, Early: 0, Misses: 0
f68-> Hits: 2, Late: 0, Early: 0, Misses: 0
f69-> Hits: 146, Late: 76, Early: 0, Misses: 0
f6c-> Hits: 23, Late: 1, Early: 0, Misses: 0
f6d-> Hits: 8, Late: 0, Early: 0, Misses: 0
f6f-> Hits: 198, Late: 31, Early: 0, Misses: 0
f70-> Hits: 0, Late: 18, Early: 0, Misses: 0
f73-> Hits: 1, Late: 1, Early: 0, Misses: 0
f74-> Hits: 9, Late: 154, Early: 0, Misses: 15
f78-> Hits: 142, Late: 32, Early: 0, Misses: 2
f7a-> Hits: 4, Late: 0, Early: 0, Misses: 0
f7d-> Hits: 8, Late: 8, Early: 0, Misses: 0
f7e-> Hits: 128, Late: 90, Early: 0, Misses: 0
f7f-> Hits: 3, Late: 1, Early: 0, Misses: 0
f80-> Hits: 4, Late: 1, Early: 0, Misses: 0
f83-> Hits: 175, Late: 37, Early: 0, Misses: 0
f85-> Hits: 3, Late: 0, Early: 0, Misses: 0
f86-> Hits: 2, Late: 1, Early: 0, Misses: 0
f87-> Hits: 15, Late: 0, Early: 0, Misses: 0
f88-> Hits: 135, Late: 83, Early: 0, Misses: 0
f89-> Hits: 1, Late: 0, Early: 0, Misses: 0
f8b-> Hits: 7, Late: 0, Early: 0, Misses: 0
f8c-> Hits: 6, Late: 0, Early: 0, Misses: 0
f8d-> Hits: 4, Late: 0, Early: 0, Misses: 0
f8e-> Hits: 176, Late: 35, Early: 0, Misses: 0
f8f-> Hits: 1, Late: 0, Early: 0, Misses: 0
f90-> Hits: 7, Late: 0, Early: 0, Misses: 0
f91-> Hits: 1, Late: 0, Early: 0, Misses: 0
f92-> Hits: 2, Late: 0, Early: 0, Misses: 0
f93-> Hits: 6, Late: 0, Early: 0, Misses: 0
f94-> Hits: 1, Late: 0, Early: 0, Misses: 0
f95-> Hits: 0, Late: 2, Early: 0, Misses: 0
f96-> Hits: 1, Late: 0, Early: 0, Misses: 0
f98-> Hits: 1, Late: 0, Early: 0, Misses: 0
f9a-> Hits: 15, Late: 0, Early: 0, Misses: 0
f9c-> Hits: 3, Late: 0, Early: 0, Misses: 0
f9d-> Hits: 17, Late: 3, Early: 0, Misses: 0
f9e-> Hits: 1, Late: 0, Early: 0, Misses: 0
f9f-> Hits: 4, Late: 0, Early: 0, Misses: 0
fa0-> Hits: 5, Late: 1, Early: 0, Misses: 0
fa1-> Hits: 1, Late: 0, Early: 0, Misses: 0
fa4-> Hits: 1, Late: 0, Early: 0, Misses: 0
faa-> Hits: 2, Late: 1, Early: 0, Misses: 0
fb0-> Hits: 1567, Late: 163, Early: 0, Misses: 587
fb1-> Hits: 3, Late: 3, Early: 0, Misses: 0
fb3-> Hits: 10, Late: 0, Early: 0, Misses: 0
fb6-> Hits: 1, Late: 0, Early: 0, Misses: 0
fb8-> Hits: 4, Late: 1, Early: 0, Misses: 0
fba-> Hits: 27, Late: 1, Early: 0, Misses: 0
fbb-> Hits: 15, Late: 1, Early: 0, Misses: 0
fbd-> Hits: 1, Late: 0, Early: 0, Misses: 0
fbe-> Hits: 1, Late: 0, Early: 0, Misses: 0
fbf-> Hits: 2, Late: 0, Early: 0, Misses: 0
fc0-> Hits: 4, Late: 0, Early: 0, Misses: 0
fc1-> Hits: 256, Late: 0, Early: 0, Misses: 0
fc4-> Hits: 8, Late: 1, Early: 0, Misses: 0
fc5-> Hits: 2, Late: 0, Early: 0, Misses: 0
fc6-> Hits: 2, Late: 0, Early: 0, Misses: 0
fc7-> Hits: 2, Late: 0, Early: 0, Misses: 0
fc8-> Hits: 9, Late: 0, Early: 0, Misses: 0
fca-> Hits: 2, Late: 0, Early: 0, Misses: 0
fcb-> Hits: 1, Late: 0, Early: 0, Misses: 0
fcd-> Hits: 1, Late: 1, Early: 0, Misses: 0
fce-> Hits: 1, Late: 0, Early: 0, Misses: 0
fd0-> Hits: 4, Late: 0, Early: 0, Misses: 0
fd2-> Hits: 1, Late: 0, Early: 0, Misses: 0
fd5-> Hits: 256, Late: 0, Early: 0, Misses: 0
fd6-> Hits: 6, Late: 0, Early: 0, Misses: 0
fd7-> Hits: 6, Late: 0, Early: 0, Misses: 0
fd8-> Hits: 10, Late: 0, Early: 0, Misses: 0
fda-> Hits: 6, Late: 0, Early: 0, Misses: 0
fdc-> Hits: 7, Late: 1, Early: 0, Misses: 0
fde-> Hits: 8, Late: 0, Early: 0, Misses: 0
fdf-> Hits: 20, Late: 0, Early: 0, Misses: 0
fe0-> Hits: 7, Late: 0, Early: 0, Misses: 0
fe1-> Hits: 4, Late: 0, Early: 0, Misses: 0
fe2-> Hits: 2, Late: 0, Early: 0, Misses: 0
fe3-> Hits: 4, Late: 0, Early: 0, Misses: 0
fe4-> Hits: 16, Late: 1, Early: 0, Misses: 0
fe5-> Hits: 7, Late: 6, Early: 0, Misses: 0
fe6-> Hits: 2, Late: 0, Early: 0, Misses: 0
fe7-> Hits: 1, Late: 1, Early: 0, Misses: 0
fe8-> Hits: 135, Late: 75, Early: 0, Misses: 0
feb-> Hits: 1, Late: 2, Early: 0, Misses: 0
fec-> Hits: 5, Late: 0, Early: 0, Misses: 0
fed-> Hits: 180, Late: 28, Early: 0, Misses: 0
fee-> Hits: 1, Late: 0, Early: 0, Misses: 0
fef-> Hits: 0, Late: 1, Early: 0, Misses: 0
ff0-> Hits: 8, Late: 0, Early: 0, Misses: 0
ff2-> Hits: 146, Late: 229, Early: 0, Misses: 16
ff3-> Hits: 14, Late: 0, Early: 0, Misses: 0
ff5-> Hits: 2, Late: 0, Early: 0, Misses: 0
ff7-> Hits: 4, Late: 0, Early: 0, Misses: 0
ff8-> Hits: 174, Late: 31, Early: 0, Misses: 0
ff9-> Hits: 24, Late: 4, Early: 0, Misses: 0
ffd-> Hits: 2, Late: 0, Early: 0, Misses: 0
ffe-> Hits: 20, Late: 0, Early: 0, Misses: 0
fff-> Hits: 12, Late: 0, Early: 0, Misses: 0
Total misses (from ip) 1082308
Total accesses (misses) 10153400 1082308
Pref: Addr 0 IP 0 Current 0
CPU 0 L2C berti prefetcher final stats
Channel_0_RQ_row_buffer_hit 207318
Channel_0_RQ_row_buffer_miss 162065
Channel_0_WQ_row_buffer_hit 79312
Channel_0_WQ_row_buffer_miss 123890
Channel_0_WQ_full 0
Channel_0_dbus_congested 314725

avg_congested_cycle 10

EzSearch AVG IPC :0.77653: L2-Pf-HR :0.76171 : L2-HR :0.82293 Uful:0.21369
     > Finished combination: TraceType=770-tot Sim:37000000 Prefetcher=L2berti L1=berti
