TRACE: [1622000000][GPT-Neo-2_7B]_[h32][s1024][d80] Warmup: 2000000 NumTraces: 1622000000
L1:isb_ideal:L2:isb_ideal
*************************************************
   ChampSim Multicore Out-of-Order Simulator
   Last compiled: Oct 27 2024 04:13:02
*************************************************

trace_0 770-tot_memTraces_v3/memTraces[1622000000][GPT-Neo-2_7B]_[h32][s1024][d80].champsim.xz
L1D: Ideal ISB Prefetching
Ideal ISB Prefetching
MAIN.cc ln 751 stats print skipped
CPU  0 inst:    1000003 cyc:     500584 now IPC :1.99767: AVG IPC :1.99767: L2-Pf-HR :0.99736: L2-HR :0.87131: (Sim:0h0m20s) 
CPU  0 inst:    2000001 cyc:     985829 now IPC :2.06081: AVG IPC :2.02875: L2-Pf-HR :0.99704: L2-HR :0.90661: (Sim:0h0m41s) 

Warmup complete CPU  0 instructions:    2000001 cycles:     985829 (Simulation time: 0 hr 0 min 41 sec) 

CPU  0 inst:    3000005 cyc:    1605166 now IPC :1.61464: AVG IPC :1.61464: L2-Pf-HR :0.99715: L2-HR :0.94124: (Sim:0h0m59s) 
CPU  0 inst:    4000001 cyc:    2221377 now IPC :1.62281: AVG IPC :1.61871: L2-Pf-HR :0.99729: L2-HR :0.94207: (Sim:0h1m17s) 
CPU  0 inst:    5000001 cyc:    2838056 now IPC :1.62159: AVG IPC :1.61967: L2-Pf-HR :0.99730: L2-HR :0.94217: (Sim:0h1m35s) 
CPU  0 inst:    6000000 cyc:    3457120 now IPC :1.61534: AVG IPC :1.61859: L2-Pf-HR :0.99727: L2-HR :0.94197: (Sim:0h1m53s) 
CPU  0 inst:    7000005 cyc:    4074783 now IPC :1.61901: AVG IPC :1.61867: L2-Pf-HR :0.99728: L2-HR :0.94206: (Sim:0h2m12s) 
CPU  0 inst:    8000002 cyc:    4764261 now IPC :1.45037: AVG IPC :1.58796: L2-Pf-HR :0.99679: L2-HR :0.94034: (Sim:0h2m31s) 
CPU  0 inst:    9000001 cyc:    5389847 now IPC :1.59850: AVG IPC :1.58946: L2-Pf-HR :0.99585: L2-HR :0.94156: (Sim:0h2m49s) 
CPU  0 inst:   10000003 cyc:    6015516 now IPC :1.59829: AVG IPC :1.59056: L2-Pf-HR :0.99509: L2-HR :0.94241: (Sim:0h3m7s) 
CPU  0 inst:   11000001 cyc:    6640445 now IPC :1.60018: AVG IPC :1.59162: L2-Pf-HR :0.99452: L2-HR :0.94310: (Sim:0h3m25s) 
CPU  0 inst:   12000003 cyc:    7262864 now IPC :1.60664: AVG IPC :1.59311: L2-Pf-HR :0.99411: L2-HR :0.94370: (Sim:0h3m43s) 
CPU  0 inst:   13000001 cyc:    7884198 now IPC :1.60944: AVG IPC :1.59458: L2-Pf-HR :0.99375: L2-HR :0.94417: (Sim:0h4m2s) 
CPU  0 inst:   14000004 cyc:    8506276 now IPC :1.60752: AVG IPC :1.59565: L2-Pf-HR :0.99342: L2-HR :0.94454: (Sim:0h4m20s) 
CPU  0 inst:   15000001 cyc:    9128248 now IPC :1.60778: AVG IPC :1.59658: L2-Pf-HR :0.99312: L2-HR :0.94488: (Sim:0h4m38s) 
CPU  0 inst:   16000005 cyc:    9831101 now IPC :1.42278: AVG IPC :1.58277: L2-Pf-HR :0.99282: L2-HR :0.94511: (Sim:0h4m57s) 
CPU  0 inst:   17000002 cyc:   10461365 now IPC :1.58663: AVG IPC :1.58302: L2-Pf-HR :0.99254: L2-HR :0.94601: (Sim:0h5m15s) 
CPU  0 inst:   18000002 cyc:   11092438 now IPC :1.58460: AVG IPC :1.58312: L2-Pf-HR :0.99234: L2-HR :0.94673: (Sim:0h5m34s) 
CPU  0 inst:   19000004 cyc:   11721721 now IPC :1.58911: AVG IPC :1.58347: L2-Pf-HR :0.99214: L2-HR :0.94741: (Sim:0h5m52s) 
CPU  0 inst:   20000003 cyc:   12350634 now IPC :1.59004: AVG IPC :1.58384: L2-Pf-HR :0.99194: L2-HR :0.94802: (Sim:0h6m10s) 
CPU  0 inst:   21000000 cyc:   13107161 now IPC :1.32183: AVG IPC :1.56748: L2-Pf-HR :0.99164: L2-HR :0.94666: (Sim:0h6m30s) 
CPU  0 inst:   22000005 cyc:   13756008 now IPC :1.54120: AVG IPC :1.56615: L2-Pf-HR :0.99159: L2-HR :0.94646: (Sim:0h6m49s) 
CPU  0 inst:   23000001 cyc:   14402925 now IPC :1.54579: AVG IPC :1.56517: L2-Pf-HR :0.99150: L2-HR :0.94624: (Sim:0h7m7s) 
CPU  0 inst:   24000003 cyc:   15045309 now IPC :1.55670: AVG IPC :1.56478: L2-Pf-HR :0.99144: L2-HR :0.94611: (Sim:0h7m26s) 
CPU  0 inst:   25000001 cyc:   15693074 now IPC :1.54377: AVG IPC :1.56386: L2-Pf-HR :0.99141: L2-HR :0.94596: (Sim:0h7m45s) 
CPU  0 inst:   26000004 cyc:   16343124 now IPC :1.53835: AVG IPC :1.56278: L2-Pf-HR :0.99135: L2-HR :0.94580: (Sim:0h8m3s) 
CPU  0 inst:   27000003 cyc:   16993726 now IPC :1.53704: AVG IPC :1.56173: L2-Pf-HR :0.99129: L2-HR :0.94564: (Sim:0h8m22s) 
CPU  0 inst:   28000003 cyc:   17743388 now IPC :1.33393: AVG IPC :1.55154: L2-Pf-HR :0.99124: L2-HR :0.94516: (Sim:0h8m42s) 
CPU  0 inst:   29000005 cyc:   18382953 now IPC :1.56357: AVG IPC :1.55198: L2-Pf-HR :0.99120: L2-HR :0.94529: (Sim:0h9m1s) 
CPU  0 inst:   30000004 cyc:   19023342 now IPC :1.56155: AVG IPC :1.55232: L2-Pf-HR :0.99115: L2-HR :0.94539: (Sim:0h9m19s) 
CPU  0 inst:   31000000 cyc:   19663561 now IPC :1.56196: AVG IPC :1.55265: L2-Pf-HR :0.99111: L2-HR :0.94550: (Sim:0h9m38s) 
CPU  0 inst:   32000004 cyc:   20302030 now IPC :1.56625: AVG IPC :1.55310: L2-Pf-HR :0.99110: L2-HR :0.94562: (Sim:0h9m56s) 
CPU  0 inst:   33000002 cyc:   20941749 now IPC :1.56318: AVG IPC :1.55342: L2-Pf-HR :0.99106: L2-HR :0.94571: (Sim:0h10m15s) 
CPU  0 inst:   34000005 cyc:   21581244 now IPC :1.56374: AVG IPC :1.55374: L2-Pf-HR :0.99102: L2-HR :0.94580: (Sim:0h10m33s) 
CPU  0 inst:   35000005 cyc:   22220793 now IPC :1.56360: AVG IPC :1.55404: L2-Pf-HR :0.99098: L2-HR :0.94590: (Sim:0h10m52s) 
CPU  0 inst:   36000004 cyc:   22932480 now IPC :1.40511: AVG IPC :1.54921: L2-Pf-HR :0.99092: L2-HR :0.94595: (Sim:0h11m11s) 
CPU  0 inst:   37000001 cyc:   23571468 now IPC :1.56497: AVG IPC :1.54966: L2-Pf-HR :0.99086: L2-HR :0.94631: (Sim:0h11m30s) 
CPU  0 inst:   38000003 cyc:   24212290 now IPC :1.56050: AVG IPC :1.54996: L2-Pf-HR :0.99081: L2-HR :0.94661: (Sim:0h11m48s) 
CPU  0 inst:   39000002 cyc:   24850648 now IPC :1.56652: AVG IPC :1.55040: L2-Pf-HR :0.99078: L2-HR :0.94693: (Sim:0h12m7s) 
CPU  0 inst:   40000002 cyc:   25491082 now IPC :1.56144: AVG IPC :1.55069: L2-Pf-HR :0.99072: L2-HR :0.94723: (Sim:0h12m25s) 
CPU  0 inst:   41000003 cyc:   26251505 now IPC :1.31506: AVG IPC :1.54360: L2-Pf-HR :0.99059: L2-HR :0.94658: (Sim:0h12m45s) 
CPU  0 inst:   42000003 cyc:   26906525 now IPC :1.52667: AVG IPC :1.54317: L2-Pf-HR :0.99059: L2-HR :0.94648: (Sim:0h13m4s) 
CPU  0 inst:   43000002 cyc:   27561643 now IPC :1.52644: AVG IPC :1.54276: L2-Pf-HR :0.99057: L2-HR :0.94636: (Sim:0h13m23s) 
CPU  0 inst:   44000000 cyc:   28211481 now IPC :1.53884: AVG IPC :1.54266: L2-Pf-HR :0.99056: L2-HR :0.94628: (Sim:0h13m42s) 
CPU  0 inst:   45000000 cyc:   28866338 now IPC :1.52705: AVG IPC :1.54230: L2-Pf-HR :0.99057: L2-HR :0.94620: (Sim:0h14m1s) 
CPU  0 inst:   46000001 cyc:   29518246 now IPC :1.53396: AVG IPC :1.54211: L2-Pf-HR :0.99055: L2-HR :0.94609: (Sim:0h14m20s) 
CPU  0 inst:   47000001 cyc:   30175888 now IPC :1.52058: AVG IPC :1.54162: L2-Pf-HR :0.99054: L2-HR :0.94600: (Sim:0h14m39s) 
CPU  0 inst:   48000004 cyc:   30928585 now IPC :1.32856: AVG IPC :1.53626: L2-Pf-HR :0.99052: L2-HR :0.94571: (Sim:0h14m59s) 
CPU  0 inst:   49000000 cyc:   31571424 now IPC :1.55559: AVG IPC :1.53667: L2-Pf-HR :0.99052: L2-HR :0.94577: (Sim:0h15m18s) 
CPU  0 inst:   50000004 cyc:   32213430 now IPC :1.55762: AVG IPC :1.53710: L2-Pf-HR :0.99051: L2-HR :0.94582: (Sim:0h15m37s) 
CPU  0 inst:   51000001 cyc:   32855345 now IPC :1.55783: AVG IPC :1.53752: L2-Pf-HR :0.99050: L2-HR :0.94587: (Sim:0h15m56s) 
CPU  0 inst:   52000002 cyc:   33495883 now IPC :1.56119: AVG IPC :1.53799: L2-Pf-HR :0.99050: L2-HR :0.94592: (Sim:0h16m16s) 
CPU  0 inst:   53000001 cyc:   34136078 now IPC :1.56202: AVG IPC :1.53845: L2-Pf-HR :0.99050: L2-HR :0.94597: (Sim:0h16m35s) 
CPU  0 inst:   54000004 cyc:   34777760 now IPC :1.55841: AVG IPC :1.53883: L2-Pf-HR :0.99049: L2-HR :0.94602: (Sim:0h16m54s) 
CPU  0 inst:   55000000 cyc:   35420925 now IPC :1.55480: AVG IPC :1.53913: L2-Pf-HR :0.99047: L2-HR :0.94607: (Sim:0h17m13s) 
CPU  0 inst:   56000004 cyc:   36130791 now IPC :1.40872: AVG IPC :1.53649: L2-Pf-HR :0.99045: L2-HR :0.94610: (Sim:0h17m32s) 
CPU  0 inst:   57000005 cyc:   36766699 now IPC :1.57256: AVG IPC :1.53713: L2-Pf-HR :0.99042: L2-HR :0.94631: (Sim:0h17m51s) 
CPU  0 inst:   58000004 cyc:   37404201 now IPC :1.56862: AVG IPC :1.53769: L2-Pf-HR :0.99039: L2-HR :0.94651: (Sim:0h18m10s) 
CPU  0 inst:   59000002 cyc:   38040163 now IPC :1.57242: AVG IPC :1.53828: L2-Pf-HR :0.99037: L2-HR :0.94671: (Sim:0h18m29s) 
CPU  0 inst:   60000000 cyc:   38677236 now IPC :1.56968: AVG IPC :1.53881: L2-Pf-HR :0.99035: L2-HR :0.94691: (Sim:0h18m48s) 
CPU  0 inst:   61000001 cyc:   39442416 now IPC :1.30688: AVG IPC :1.53420: L2-Pf-HR :0.99027: L2-HR :0.94648: (Sim:0h19m8s) 
CPU  0 inst:   62000004 cyc:   40104556 now IPC :1.51026: AVG IPC :1.53379: L2-Pf-HR :0.99028: L2-HR :0.94641: (Sim:0h19m27s) 
CPU  0 inst:   63000000 cyc:   40766704 now IPC :1.51023: AVG IPC :1.53340: L2-Pf-HR :0.99028: L2-HR :0.94634: (Sim:0h19m47s) 
CPU  0 inst:   64000005 cyc:   41429818 now IPC :1.50804: AVG IPC :1.53298: L2-Pf-HR :0.99028: L2-HR :0.94627: (Sim:0h20m6s) 
CPU  0 inst:   65000001 cyc:   42086572 now IPC :1.52263: AVG IPC :1.53282: L2-Pf-HR :0.99029: L2-HR :0.94623: (Sim:0h20m25s) 
CPU  0 inst:   66000003 cyc:   42749495 now IPC :1.50847: AVG IPC :1.53243: L2-Pf-HR :0.99029: L2-HR :0.94616: (Sim:0h20m45s) 
CPU  0 inst:   67000001 cyc:   43411663 now IPC :1.51019: AVG IPC :1.53209: L2-Pf-HR :0.99029: L2-HR :0.94610: (Sim:0h21m4s) 
CPU  0 inst:   68000001 cyc:   44165929 now IPC :1.32579: AVG IPC :1.52848: L2-Pf-HR :0.99029: L2-HR :0.94589: (Sim:0h21m25s) 
CPU  0 inst:   69000001 cyc:   44797377 now IPC :1.58366: AVG IPC :1.52928: L2-Pf-HR :0.99030: L2-HR :0.94594: (Sim:0h21m44s) 
CPU  0 inst:   70000003 cyc:   45429826 now IPC :1.58116: AVG IPC :1.53002: L2-Pf-HR :0.99029: L2-HR :0.94597: (Sim:0h22m3s) 
CPU  0 inst:   71000002 cyc:   46061203 now IPC :1.58384: AVG IPC :1.53077: L2-Pf-HR :0.99029: L2-HR :0.94600: (Sim:0h22m22s) 
CPU  0 inst:   72000005 cyc:   46692178 now IPC :1.58485: AVG IPC :1.53152: L2-Pf-HR :0.99029: L2-HR :0.94604: (Sim:0h22m41s) 
CPU  0 inst:   73000004 cyc:   47323697 now IPC :1.58348: AVG IPC :1.53222: L2-Pf-HR :0.99030: L2-HR :0.94608: (Sim:0h23m0s) 
CPU  0 inst:   74000004 cyc:   47954740 now IPC :1.58468: AVG IPC :1.53293: L2-Pf-HR :0.99030: L2-HR :0.94612: (Sim:0h23m19s) 
CPU  0 inst:   75000004 cyc:   48587764 now IPC :1.57972: AVG IPC :1.53355: L2-Pf-HR :0.99029: L2-HR :0.94616: (Sim:0h23m38s) 
CPU  0 inst:   76000002 cyc:   49286812 now IPC :1.43051: AVG IPC :1.53206: L2-Pf-HR :0.99028: L2-HR :0.94618: (Sim:0h23m58s) 
CPU  0 inst:   77000001 cyc:   49912734 now IPC :1.59764: AVG IPC :1.53290: L2-Pf-HR :0.99026: L2-HR :0.94633: (Sim:0h24m16s) 
CPU  0 inst:   78000002 cyc:   50539798 now IPC :1.59474: AVG IPC :1.53368: L2-Pf-HR :0.99025: L2-HR :0.94647: (Sim:0h24m35s) 
CPU  0 inst:   79000000 cyc:   51166510 now IPC :1.59563: AVG IPC :1.53446: L2-Pf-HR :0.99023: L2-HR :0.94662: (Sim:0h24m54s) 
CPU  0 inst:   80000004 cyc:   51794369 now IPC :1.59272: AVG IPC :1.53518: L2-Pf-HR :0.99022: L2-HR :0.94677: (Sim:0h25m13s) 
CPU  0 inst:   81000003 cyc:   52553217 now IPC :1.31779: AVG IPC :1.53198: L2-Pf-HR :0.99016: L2-HR :0.94643: (Sim:0h25m34s) 
CPU  0 inst:   82000001 cyc:   53206399 now IPC :1.53096: AVG IPC :1.53196: L2-Pf-HR :0.99017: L2-HR :0.94639: (Sim:0h25m53s) 
CPU  0 inst:   83000001 cyc:   53865922 now IPC :1.51625: AVG IPC :1.53177: L2-Pf-HR :0.99017: L2-HR :0.94634: (Sim:0h26m12s) 
CPU  0 inst:   84000003 cyc:   54528292 now IPC :1.50973: AVG IPC :1.53149: L2-Pf-HR :0.99017: L2-HR :0.94628: (Sim:0h26m32s) 
CPU  0 inst:   85000005 cyc:   55186491 now IPC :1.51930: AVG IPC :1.53135: L2-Pf-HR :0.99018: L2-HR :0.94625: (Sim:0h26m51s) 
CPU  0 inst:   86000004 cyc:   55848418 now IPC :1.51074: AVG IPC :1.53110: L2-Pf-HR :0.99018: L2-HR :0.94620: (Sim:0h27m11s) 
CPU  0 inst:   87000000 cyc:   56511382 now IPC :1.50837: AVG IPC :1.53083: L2-Pf-HR :0.99018: L2-HR :0.94614: (Sim:0h27m30s) 
CPU  0 inst:   88000003 cyc:   57260447 now IPC :1.33500: AVG IPC :1.52822: L2-Pf-HR :0.99017: L2-HR :0.94598: (Sim:0h27m51s) 
CPU  0 inst:   89000004 cyc:   57901469 now IPC :1.56001: AVG IPC :1.52858: L2-Pf-HR :0.99018: L2-HR :0.94602: (Sim:0h28m10s) 
CPU  0 inst:   90000001 cyc:   58541773 now IPC :1.56175: AVG IPC :1.52895: L2-Pf-HR :0.99018: L2-HR :0.94605: (Sim:0h28m29s) 
CPU  0 inst:   91000001 cyc:   59182214 now IPC :1.56142: AVG IPC :1.52930: L2-Pf-HR :0.99018: L2-HR :0.94607: (Sim:0h28m48s) 
CPU  0 inst:   92000004 cyc:   59822084 now IPC :1.56282: AVG IPC :1.52967: L2-Pf-HR :0.99018: L2-HR :0.94610: (Sim:0h29m7s) 
CPU  0 inst:   93000000 cyc:   60461421 now IPC :1.56411: AVG IPC :1.53004: L2-Pf-HR :0.99018: L2-HR :0.94613: (Sim:0h29m26s) 
CPU  0 inst:   94000001 cyc:   61100104 now IPC :1.56572: AVG IPC :1.53042: L2-Pf-HR :0.99019: L2-HR :0.94615: (Sim:0h29m45s) 
CPU  0 inst:   95000002 cyc:   61741814 now IPC :1.55834: AVG IPC :1.53071: L2-Pf-HR :0.99018: L2-HR :0.94619: (Sim:0h30m4s) 
CPU  0 inst:   96000003 cyc:   62453477 now IPC :1.40516: AVG IPC :1.52926: L2-Pf-HR :0.99017: L2-HR :0.94620: (Sim:0h30m24s) 
CPU  0 inst:   97000000 cyc:   63094837 now IPC :1.55918: AVG IPC :1.52957: L2-Pf-HR :0.99016: L2-HR :0.94632: (Sim:0h30m43s) 
CPU  0 inst:   98000001 cyc:   63738189 now IPC :1.55436: AVG IPC :1.52982: L2-Pf-HR :0.99015: L2-HR :0.94643: (Sim:0h31m2s) 
CPU  0 inst:   99000002 cyc:   64379836 now IPC :1.55849: AVG IPC :1.53011: L2-Pf-HR :0.99014: L2-HR :0.94656: (Sim:0h31m21s) 
CPU  0 inst:  100000005 cyc:   65022853 now IPC :1.55517: AVG IPC :1.53036: L2-Pf-HR :0.99013: L2-HR :0.94668: (Sim:0h31m41s) 
CPU  0 inst:  101000001 cyc:   65781232 now IPC :1.31860: AVG IPC :1.52789: L2-Pf-HR :0.99009: L2-HR :0.94641: (Sim:0h32m1s) 
CPU  0 inst:  102000005 cyc:   66433859 now IPC :1.53227: AVG IPC :1.52793: L2-Pf-HR :0.99010: L2-HR :0.94638: (Sim:0h32m20s) 
CPU  0 inst:  103000002 cyc:   67092657 now IPC :1.51791: AVG IPC :1.52783: L2-Pf-HR :0.99010: L2-HR :0.94633: (Sim:0h32m40s) 
CPU  0 inst:  104000004 cyc:   67751420 now IPC :1.51800: AVG IPC :1.52773: L2-Pf-HR :0.99010: L2-HR :0.94629: (Sim:0h32m59s) 
CPU  0 inst:  105000002 cyc:   68408398 now IPC :1.52212: AVG IPC :1.52768: L2-Pf-HR :0.99010: L2-HR :0.94626: (Sim:0h33m18s) 
CPU  0 inst:  106000002 cyc:   69071618 now IPC :1.50780: AVG IPC :1.52748: L2-Pf-HR :0.99011: L2-HR :0.94622: (Sim:0h33m37s) 
CPU  0 inst:  107000001 cyc:   69732796 now IPC :1.51245: AVG IPC :1.52734: L2-Pf-HR :0.99011: L2-HR :0.94618: (Sim:0h33m55s) 
CPU  0 inst:  108000000 cyc:   70487004 now IPC :1.32589: AVG IPC :1.52515: L2-Pf-HR :0.99011: L2-HR :0.94605: (Sim:0h34m15s) 
CPU  0 inst:  109000000 cyc:   71126211 now IPC :1.56444: AVG IPC :1.52551: L2-Pf-HR :0.99012: L2-HR :0.94607: (Sim:0h34m33s) 
CPU  0 inst:  110000001 cyc:   71766483 now IPC :1.56184: AVG IPC :1.52584: L2-Pf-HR :0.99012: L2-HR :0.94609: (Sim:0h34m45s) 
CPU  0 inst:  111000004 cyc:   72406444 now IPC :1.56260: AVG IPC :1.52617: L2-Pf-HR :0.99012: L2-HR :0.94611: (Sim:0h34m54s) 
CPU  0 inst:  112000002 cyc:   73045302 now IPC :1.56529: AVG IPC :1.52652: L2-Pf-HR :0.99012: L2-HR :0.94613: (Sim:0h35m3s) 
CPU  0 inst:  113000001 cyc:   73684050 now IPC :1.56556: AVG IPC :1.52686: L2-Pf-HR :0.99013: L2-HR :0.94616: (Sim:0h35m11s) 
CPU  0 inst:  114000000 cyc:   74322577 now IPC :1.56610: AVG IPC :1.52720: L2-Pf-HR :0.99013: L2-HR :0.94618: (Sim:0h35m20s) 
CPU  0 inst:  115000000 cyc:   74963869 now IPC :1.55935: AVG IPC :1.52748: L2-Pf-HR :0.99013: L2-HR :0.94621: (Sim:0h35m29s) 
CPU  0 inst:  116000004 cyc:   75673193 now IPC :1.40980: AVG IPC :1.52636: L2-Pf-HR :0.99012: L2-HR :0.94622: (Sim:0h35m38s) 
CPU  0 inst:  117000002 cyc:   76312184 now IPC :1.56496: AVG IPC :1.52669: L2-Pf-HR :0.99012: L2-HR :0.94632: (Sim:0h35m46s) 
CPU  0 inst:  118000000 cyc:   76952646 now IPC :1.56137: AVG IPC :1.52698: L2-Pf-HR :0.99011: L2-HR :0.94641: (Sim:0h35m55s) 
CPU  0 inst:  119000000 cyc:   77594092 now IPC :1.55898: AVG IPC :1.52725: L2-Pf-HR :0.99010: L2-HR :0.94651: (Sim:0h36m4s) 
CPU  0 inst:  120000003 cyc:   78237549 now IPC :1.55411: AVG IPC :1.52747: L2-Pf-HR :0.99010: L2-HR :0.94662: (Sim:0h36m13s) 
CPU  0 inst:  121000002 cyc:   78994053 now IPC :1.32187: AVG IPC :1.52548: L2-Pf-HR :0.99006: L2-HR :0.94639: (Sim:0h36m22s) 
CPU  0 inst:  122000004 cyc:   79651895 now IPC :1.52012: AVG IPC :1.52544: L2-Pf-HR :0.99007: L2-HR :0.94636: (Sim:0h36m31s) 
CPU  0 inst:  123000000 cyc:   80316726 now IPC :1.50414: AVG IPC :1.52526: L2-Pf-HR :0.99007: L2-HR :0.94633: (Sim:0h36m40s) 
CPU  0 inst:  124000005 cyc:   80981735 now IPC :1.50375: AVG IPC :1.52508: L2-Pf-HR :0.99007: L2-HR :0.94629: (Sim:0h36m48s) 
CPU  0 inst:  125000003 cyc:   81643513 now IPC :1.51108: AVG IPC :1.52496: L2-Pf-HR :0.99008: L2-HR :0.94627: (Sim:0h36m57s) 
CPU  0 inst:  126000003 cyc:   82308218 now IPC :1.50443: AVG IPC :1.52480: L2-Pf-HR :0.99008: L2-HR :0.94624: (Sim:0h37m6s) 
CPU  0 inst:  127000005 cyc:   82974187 now IPC :1.50157: AVG IPC :1.52461: L2-Pf-HR :0.99008: L2-HR :0.94620: (Sim:0h37m15s) 
CPU  0 inst:  128000002 cyc:   83727499 now IPC :1.32747: AVG IPC :1.52281: L2-Pf-HR :0.99008: L2-HR :0.94609: (Sim:0h37m24s) 
CPU  0 inst:  129000004 cyc:   84363071 now IPC :1.57339: AVG IPC :1.52320: L2-Pf-HR :0.99009: L2-HR :0.94611: (Sim:0h37m33s) 
CPU  0 inst:  130000000 cyc:   84997623 now IPC :1.57591: AVG IPC :1.52360: L2-Pf-HR :0.99009: L2-HR :0.94613: (Sim:0h37m43s) 
CPU  0 inst:  131000004 cyc:   85632162 now IPC :1.57595: AVG IPC :1.52399: L2-Pf-HR :0.99009: L2-HR :0.94614: (Sim:0h37m51s) 
CPU  0 inst:  132000001 cyc:   86267313 now IPC :1.57442: AVG IPC :1.52436: L2-Pf-HR :0.99009: L2-HR :0.94616: (Sim:0h38m0s) 
CPU  0 inst:  133000004 cyc:   86899908 now IPC :1.58079: AVG IPC :1.52478: L2-Pf-HR :0.99010: L2-HR :0.94618: (Sim:0h38m8s) 
CPU  0 inst:  134000001 cyc:   87532560 now IPC :1.58064: AVG IPC :1.52519: L2-Pf-HR :0.99010: L2-HR :0.94620: (Sim:0h38m17s) 
CPU  0 inst:  135000001 cyc:   88171758 now IPC :1.56446: AVG IPC :1.52548: L2-Pf-HR :0.99010: L2-HR :0.94622: (Sim:0h38m25s) 
CPU  0 inst:  136000005 cyc:   88877209 now IPC :1.41754: AVG IPC :1.52461: L2-Pf-HR :0.99009: L2-HR :0.94623: (Sim:0h38m35s) 
CPU  0 inst:  137000001 cyc:   89515698 now IPC :1.56619: AVG IPC :1.52491: L2-Pf-HR :0.99009: L2-HR :0.94631: (Sim:0h38m45s) 
CPU  0 inst:  138000005 cyc:   90155676 now IPC :1.56256: AVG IPC :1.52518: L2-Pf-HR :0.99008: L2-HR :0.94639: (Sim:0h38m54s) 
CPU  0 inst:  139000001 cyc:   90794566 now IPC :1.56521: AVG IPC :1.52546: L2-Pf-HR :0.99008: L2-HR :0.94648: (Sim:0h39m3s) 
CPU  0 inst:  140000001 cyc:   91438360 now IPC :1.55329: AVG IPC :1.52566: L2-Pf-HR :0.99008: L2-HR :0.94657: (Sim:0h39m13s) 
CPU  0 inst:  141000000 cyc:   92194790 now IPC :1.32200: AVG IPC :1.52397: L2-Pf-HR :0.99005: L2-HR :0.94637: (Sim:0h39m23s) 
CPU  0 inst:  142000004 cyc:   92850936 now IPC :1.52406: AVG IPC :1.52397: L2-Pf-HR :0.99006: L2-HR :0.94635: (Sim:0h39m34s) 
CPU  0 inst:  143000001 cyc:   93511976 now IPC :1.51276: AVG IPC :1.52389: L2-Pf-HR :0.99006: L2-HR :0.94632: (Sim:0h39m42s) 
CPU  0 inst:  144000003 cyc:   94174002 now IPC :1.51052: AVG IPC :1.52380: L2-Pf-HR :0.99006: L2-HR :0.94629: (Sim:0h39m51s) 
CPU  0 inst:  145000005 cyc:   94831715 now IPC :1.52042: AVG IPC :1.52377: L2-Pf-HR :0.99007: L2-HR :0.94627: (Sim:0h40m0s) 
CPU  0 inst:  146000004 cyc:   95493476 now IPC :1.51112: AVG IPC :1.52369: L2-Pf-HR :0.99007: L2-HR :0.94624: (Sim:0h40m8s) 
CPU  0 inst:  147000000 cyc:   96156598 now IPC :1.50801: AVG IPC :1.52358: L2-Pf-HR :0.99008: L2-HR :0.94621: (Sim:0h40m17s) 
CPU  0 inst:  148000000 cyc:   96914109 now IPC :1.32011: AVG IPC :1.52197: L2-Pf-HR :0.99008: L2-HR :0.94611: (Sim:0h40m26s) 
CPU  0 inst:  149000005 cyc:   97555263 now IPC :1.55970: AVG IPC :1.52222: L2-Pf-HR :0.99008: L2-HR :0.94613: (Sim:0h40m35s) 
CPU  0 inst:  150000001 cyc:   98196442 now IPC :1.55962: AVG IPC :1.52247: L2-Pf-HR :0.99008: L2-HR :0.94615: (Sim:0h40m44s) 
CPU  0 inst:  151000003 cyc:   98837490 now IPC :1.55995: AVG IPC :1.52271: L2-Pf-HR :0.99009: L2-HR :0.94616: (Sim:0h40m52s) 
CPU  0 inst:  152000000 cyc:   99477301 now IPC :1.56296: AVG IPC :1.52297: L2-Pf-HR :0.99009: L2-HR :0.94618: (Sim:0h41m1s) 
CPU  0 inst:  153000000 cyc:  100117588 now IPC :1.56180: AVG IPC :1.52323: L2-Pf-HR :0.99009: L2-HR :0.94619: (Sim:0h41m9s) 
CPU  0 inst:  154000004 cyc:  100758439 now IPC :1.56043: AVG IPC :1.52346: L2-Pf-HR :0.99010: L2-HR :0.94621: (Sim:0h41m18s) 
CPU  0 inst:  155000001 cyc:  101403477 now IPC :1.55029: AVG IPC :1.52364: L2-Pf-HR :0.99010: L2-HR :0.94624: (Sim:0h41m27s) 
CPU  0 inst:  156000003 cyc:  102097262 now IPC :1.44137: AVG IPC :1.52307: L2-Pf-HR :0.99009: L2-HR :0.94624: (Sim:0h41m36s) 
CPU  0 inst:  157000002 cyc:  102721555 now IPC :1.60181: AVG IPC :1.52356: L2-Pf-HR :0.99009: L2-HR :0.94631: (Sim:0h41m44s) 
CPU  0 inst:  158000000 cyc:  103347157 now IPC :1.59846: AVG IPC :1.52401: L2-Pf-HR :0.99009: L2-HR :0.94638: (Sim:0h41m53s) 
CPU  0 inst:  159000002 cyc:  103972294 now IPC :1.59965: AVG IPC :1.52447: L2-Pf-HR :0.99008: L2-HR :0.94646: (Sim:0h42m2s) 
CPU  0 inst:  160000005 cyc:  104604367 now IPC :1.58210: AVG IPC :1.52482: L2-Pf-HR :0.99008: L2-HR :0.94654: (Sim:0h42m11s) 
CPU  0 inst:  161000001 cyc:  105361031 now IPC :1.32159: AVG IPC :1.52335: L2-Pf-HR :0.99006: L2-HR :0.94637: (Sim:0h42m21s) 
CPU  0 inst:  162000002 cyc:  106016665 now IPC :1.52524: AVG IPC :1.52336: L2-Pf-HR :0.99006: L2-HR :0.94635: (Sim:0h42m30s) 
CPU  0 inst:  163000004 cyc:  106677158 now IPC :1.51402: AVG IPC :1.52330: L2-Pf-HR :0.99007: L2-HR :0.94632: (Sim:0h42m38s) 
CPU  0 inst:  164000004 cyc:  107339031 now IPC :1.51086: AVG IPC :1.52323: L2-Pf-HR :0.99007: L2-HR :0.94629: (Sim:0h42m47s) 
CPU  0 inst:  165000000 cyc:  107999956 now IPC :1.51302: AVG IPC :1.52316: L2-Pf-HR :0.99007: L2-HR :0.94627: (Sim:0h42m56s) 
CPU  0 inst:  166000002 cyc:  108661178 now IPC :1.51235: AVG IPC :1.52310: L2-Pf-HR :0.99008: L2-HR :0.94625: (Sim:0h43m5s) 
CPU  0 inst:  167000001 cyc:  109326872 now IPC :1.50219: AVG IPC :1.52297: L2-Pf-HR :0.99008: L2-HR :0.94622: (Sim:0h43m13s) 
CPU  0 inst:  168000001 cyc:  110086178 now IPC :1.31699: AVG IPC :1.52154: L2-Pf-HR :0.99008: L2-HR :0.94614: (Sim:0h43m23s) 
CPU  0 inst:  169000003 cyc:  110726149 now IPC :1.56257: AVG IPC :1.52177: L2-Pf-HR :0.99009: L2-HR :0.94615: (Sim:0h43m32s) 
CPU  0 inst:  170000002 cyc:  111367041 now IPC :1.56032: AVG IPC :1.52200: L2-Pf-HR :0.99009: L2-HR :0.94617: (Sim:0h43m40s) 
CPU  0 inst:  171000004 cyc:  112007861 now IPC :1.56050: AVG IPC :1.52222: L2-Pf-HR :0.99009: L2-HR :0.94618: (Sim:0h43m49s) 
CPU  0 inst:  172000005 cyc:  112647968 now IPC :1.56224: AVG IPC :1.52245: L2-Pf-HR :0.99009: L2-HR :0.94619: (Sim:0h43m57s) 
CPU  0 inst:  173000001 cyc:  113288199 now IPC :1.56193: AVG IPC :1.52267: L2-Pf-HR :0.99010: L2-HR :0.94621: (Sim:0h44m6s) 
CPU  0 inst:  174000000 cyc:  113928170 now IPC :1.56257: AVG IPC :1.52290: L2-Pf-HR :0.99010: L2-HR :0.94622: (Sim:0h44m15s) 
CPU  0 inst:  175000003 cyc:  114571353 now IPC :1.55477: AVG IPC :1.52308: L2-Pf-HR :0.99010: L2-HR :0.94625: (Sim:0h44m25s) 
CPU  0 inst:  176000002 cyc:  115274369 now IPC :1.42244: AVG IPC :1.52246: L2-Pf-HR :0.99010: L2-HR :0.94624: (Sim:0h44m43s) 
CPU  0 inst:  177000000 cyc:  115913616 now IPC :1.56434: AVG IPC :1.52270: L2-Pf-HR :0.99010: L2-HR :0.94630: (Sim:0h45m1s) 
CPU  0 inst:  178000005 cyc:  116552357 now IPC :1.56559: AVG IPC :1.52293: L2-Pf-HR :0.99009: L2-HR :0.94637: (Sim:0h45m19s) 
CPU  0 inst:  179000002 cyc:  117192396 now IPC :1.56240: AVG IPC :1.52315: L2-Pf-HR :0.99009: L2-HR :0.94643: (Sim:0h45m37s) 
CPU  0 inst:  180000000 cyc:  117837106 now IPC :1.55108: AVG IPC :1.52330: L2-Pf-HR :0.99009: L2-HR :0.94651: (Sim:0h45m55s) 
CPU  0 inst:  181000002 cyc:  118587854 now IPC :1.33201: AVG IPC :1.52208: L2-Pf-HR :0.99007: L2-HR :0.94635: (Sim:0h46m14s) 
CPU  0 inst:  182000001 cyc:  119242739 now IPC :1.52698: AVG IPC :1.52211: L2-Pf-HR :0.99007: L2-HR :0.94633: (Sim:0h46m33s) 
CPU  0 inst:  183000000 cyc:  119901573 now IPC :1.51783: AVG IPC :1.52209: L2-Pf-HR :0.99008: L2-HR :0.94631: (Sim:0h46m51s) 
CPU  0 inst:  184000002 cyc:  120563730 now IPC :1.51022: AVG IPC :1.52202: L2-Pf-HR :0.99008: L2-HR :0.94629: (Sim:0h47m9s) 
CPU  0 inst:  185000005 cyc:  121220979 now IPC :1.52150: AVG IPC :1.52202: L2-Pf-HR :0.99008: L2-HR :0.94627: (Sim:0h47m27s) 
CPU  0 inst:  186000003 cyc:  121880813 now IPC :1.51553: AVG IPC :1.52198: L2-Pf-HR :0.99009: L2-HR :0.94625: (Sim:0h47m45s) 
CPU  0 inst:  187000005 cyc:  122543587 now IPC :1.50881: AVG IPC :1.52191: L2-Pf-HR :0.99009: L2-HR :0.94623: (Sim:0h48m4s) 
CPU  0 inst:  188000005 cyc:  123297810 now IPC :1.32587: AVG IPC :1.52070: L2-Pf-HR :0.99009: L2-HR :0.94615: (Sim:0h48m23s) 
CPU  0 inst:  189000001 cyc:  123939143 now IPC :1.55925: AVG IPC :1.52090: L2-Pf-HR :0.99010: L2-HR :0.94616: (Sim:0h48m41s) 
CPU  0 inst:  190000000 cyc:  124581420 now IPC :1.55696: AVG IPC :1.52109: L2-Pf-HR :0.99010: L2-HR :0.94618: (Sim:0h48m58s) 
CPU  0 inst:  191000002 cyc:  125222364 now IPC :1.56020: AVG IPC :1.52129: L2-Pf-HR :0.99010: L2-HR :0.94619: (Sim:0h49m16s) 
CPU  0 inst:  192000001 cyc:  125862871 now IPC :1.56126: AVG IPC :1.52150: L2-Pf-HR :0.99011: L2-HR :0.94620: (Sim:0h49m34s) 
CPU  0 inst:  193000004 cyc:  126504031 now IPC :1.55968: AVG IPC :1.52169: L2-Pf-HR :0.99011: L2-HR :0.94621: (Sim:0h49m52s) 
CPU  0 inst:  194000002 cyc:  127144893 now IPC :1.56040: AVG IPC :1.52189: L2-Pf-HR :0.99011: L2-HR :0.94622: (Sim:0h50m10s) 
CPU  0 inst:  195000001 cyc:  127791621 now IPC :1.54624: AVG IPC :1.52201: L2-Pf-HR :0.99012: L2-HR :0.94625: (Sim:0h50m28s) 
CPU  0 inst:  196000001 cyc:  128493762 now IPC :1.42422: AVG IPC :1.52147: L2-Pf-HR :0.99011: L2-HR :0.94624: (Sim:0h50m46s) 
CPU  0 inst:  197000001 cyc:  129131773 now IPC :1.56737: AVG IPC :1.52170: L2-Pf-HR :0.99011: L2-HR :0.94630: (Sim:0h51m5s) 
CPU  0 inst:  198000000 cyc:  129769652 now IPC :1.56769: AVG IPC :1.52193: L2-Pf-HR :0.99011: L2-HR :0.94636: (Sim:0h51m24s) 
CPU  0 inst:  199000001 cyc:  130407327 now IPC :1.56820: AVG IPC :1.52216: L2-Pf-HR :0.99011: L2-HR :0.94642: (Sim:0h51m43s) 
CPU  0 inst:  200000004 cyc:  131051712 now IPC :1.55187: AVG IPC :1.52231: L2-Pf-HR :0.99011: L2-HR :0.94649: (Sim:0h52m3s) 
CPU  0 inst:  201000005 cyc:  131805262 now IPC :1.32705: AVG IPC :1.52118: L2-Pf-HR :0.99009: L2-HR :0.94634: (Sim:0h52m15s) 
CPU  0 inst:  202000004 cyc:  132463384 now IPC :1.51947: AVG IPC :1.52117: L2-Pf-HR :0.99009: L2-HR :0.94633: (Sim:0h52m24s) 
CPU  0 inst:  203000001 cyc:  133124333 now IPC :1.51297: AVG IPC :1.52113: L2-Pf-HR :0.99010: L2-HR :0.94631: (Sim:0h52m32s) 
CPU  0 inst:  204000003 cyc:  133784361 now IPC :1.51509: AVG IPC :1.52110: L2-Pf-HR :0.99010: L2-HR :0.94629: (Sim:0h52m41s) 
CPU  0 inst:  205000002 cyc:  134443304 now IPC :1.51758: AVG IPC :1.52108: L2-Pf-HR :0.99010: L2-HR :0.94626: (Sim:0h52m50s) 
CPU  0 inst:  206000000 cyc:  135102426 now IPC :1.51717: AVG IPC :1.52106: L2-Pf-HR :0.99011: L2-HR :0.94625: (Sim:0h52m59s) 
CPU  0 inst:  207000000 cyc:  135764118 now IPC :1.51128: AVG IPC :1.52102: L2-Pf-HR :0.99011: L2-HR :0.94623: (Sim:0h53m7s) 
CPU  0 inst:  208000001 cyc:  136514441 now IPC :1.33276: AVG IPC :1.51997: L2-Pf-HR :0.99011: L2-HR :0.94616: (Sim:0h53m17s) 
CPU  0 inst:  209000002 cyc:  137151407 now IPC :1.56994: AVG IPC :1.52021: L2-Pf-HR :0.99012: L2-HR :0.94617: (Sim:0h53m26s) 
CPU  0 inst:  210000001 cyc:  137789530 now IPC :1.56709: AVG IPC :1.52043: L2-Pf-HR :0.99012: L2-HR :0.94619: (Sim:0h53m34s) 
CPU  0 inst:  211000003 cyc:  138425419 now IPC :1.57260: AVG IPC :1.52067: L2-Pf-HR :0.99013: L2-HR :0.94620: (Sim:0h53m43s) 
CPU  0 inst:  212000001 cyc:  139062718 now IPC :1.56912: AVG IPC :1.52089: L2-Pf-HR :0.99013: L2-HR :0.94620: (Sim:0h53m52s) 
CPU  0 inst:  213000003 cyc:  139699446 now IPC :1.57053: AVG IPC :1.52112: L2-Pf-HR :0.99013: L2-HR :0.94621: (Sim:0h54m0s) 
CPU  0 inst:  214000001 cyc:  140335188 now IPC :1.57296: AVG IPC :1.52136: L2-Pf-HR :0.99014: L2-HR :0.94623: (Sim:0h54m9s) 
CPU  0 inst:  215000002 cyc:  140978425 now IPC :1.55464: AVG IPC :1.52151: L2-Pf-HR :0.99014: L2-HR :0.94625: (Sim:0h54m19s) 
CPU  0 inst:  216000001 cyc:  141684497 now IPC :1.41628: AVG IPC :1.52098: L2-Pf-HR :0.99014: L2-HR :0.94625: (Sim:0h54m39s) 
CPU  0 inst:  217000002 cyc:  142323164 now IPC :1.56576: AVG IPC :1.52118: L2-Pf-HR :0.99014: L2-HR :0.94629: (Sim:0h54m58s) 
CPU  0 inst:  218000004 cyc:  142961590 now IPC :1.56636: AVG IPC :1.52139: L2-Pf-HR :0.99014: L2-HR :0.94635: (Sim:0h55m17s) 
CPU  0 inst:  219000004 cyc:  143600128 now IPC :1.56608: AVG IPC :1.52159: L2-Pf-HR :0.99013: L2-HR :0.94640: (Sim:0h55m36s) 
CPU  0 inst:  220000002 cyc:  144247203 now IPC :1.54541: AVG IPC :1.52169: L2-Pf-HR :0.99013: L2-HR :0.94646: (Sim:0h55m55s) 
CPU  0 inst:  221000001 cyc:  144995888 now IPC :1.33567: AVG IPC :1.52073: L2-Pf-HR :0.99012: L2-HR :0.94633: (Sim:0h56m16s) 
CPU  0 inst:  222000005 cyc:  145655557 now IPC :1.51592: AVG IPC :1.52071: L2-Pf-HR :0.99012: L2-HR :0.94631: (Sim:0h56m35s) 
CPU  0 inst:  223000005 cyc:  146311886 now IPC :1.52363: AVG IPC :1.52072: L2-Pf-HR :0.99013: L2-HR :0.94630: (Sim:0h56m55s) 
CPU  0 inst:  224000001 cyc:  146969615 now IPC :1.52038: AVG IPC :1.52072: L2-Pf-HR :0.99013: L2-HR :0.94628: (Sim:0h57m14s) 
CPU  0 inst:  225000000 cyc:  147631161 now IPC :1.51161: AVG IPC :1.52068: L2-Pf-HR :0.99013: L2-HR :0.94626: (Sim:0h57m33s) 
CPU  0 inst:  226000002 cyc:  148288772 now IPC :1.52066: AVG IPC :1.52068: L2-Pf-HR :0.99014: L2-HR :0.94625: (Sim:0h57m53s) 
CPU  0 inst:  227000004 cyc:  148951640 now IPC :1.50860: AVG IPC :1.52062: L2-Pf-HR :0.99014: L2-HR :0.94623: (Sim:0h58m12s) 
CPU  0 inst:  228000004 cyc:  149707465 now IPC :1.32306: AVG IPC :1.51962: L2-Pf-HR :0.99014: L2-HR :0.94616: (Sim:0h58m33s) 
CPU  0 inst:  229000003 cyc:  150347922 now IPC :1.56138: AVG IPC :1.51980: L2-Pf-HR :0.99015: L2-HR :0.94618: (Sim:0h58m52s) 
CPU  0 inst:  230000005 cyc:  150989129 now IPC :1.55956: AVG IPC :1.51997: L2-Pf-HR :0.99015: L2-HR :0.94619: (Sim:0h59m11s) 
CPU  0 inst:  231000001 cyc:  151629023 now IPC :1.56275: AVG IPC :1.52015: L2-Pf-HR :0.99015: L2-HR :0.94620: (Sim:0h59m30s) 
CPU  0 inst:  232000000 cyc:  152269724 now IPC :1.56079: AVG IPC :1.52032: L2-Pf-HR :0.99016: L2-HR :0.94620: (Sim:0h59m49s) 
CPU  0 inst:  233000002 cyc:  152910211 now IPC :1.56132: AVG IPC :1.52049: L2-Pf-HR :0.99016: L2-HR :0.94621: (Sim:1h0m8s) 
CPU  0 inst:  234000000 cyc:  153549715 now IPC :1.56371: AVG IPC :1.52067: L2-Pf-HR :0.99016: L2-HR :0.94622: (Sim:1h0m27s) 
CPU  0 inst:  235000000 cyc:  154195369 now IPC :1.54882: AVG IPC :1.52079: L2-Pf-HR :0.99017: L2-HR :0.94624: (Sim:1h0m47s) 
CPU  0 inst:  236000005 cyc:  154899927 now IPC :1.41934: AVG IPC :1.52033: L2-Pf-HR :0.99016: L2-HR :0.94624: (Sim:1h1m6s) 
CPU  0 inst:  237000000 cyc:  155540184 now IPC :1.56186: AVG IPC :1.52050: L2-Pf-HR :0.99016: L2-HR :0.94628: (Sim:1h1m25s) 
CPU  0 inst:  238000005 cyc:  156180708 now IPC :1.56123: AVG IPC :1.52067: L2-Pf-HR :0.99016: L2-HR :0.94633: (Sim:1h1m44s) 
CPU  0 inst:  239000004 cyc:  156820350 now IPC :1.56337: AVG IPC :1.52084: L2-Pf-HR :0.99016: L2-HR :0.94637: (Sim:1h2m4s) 
CPU  0 inst:  240000000 cyc:  157467698 now IPC :1.54476: AVG IPC :1.52094: L2-Pf-HR :0.99016: L2-HR :0.94642: (Sim:1h2m22s) 
CPU  0 inst:  241000005 cyc:  158215035 now IPC :1.33809: AVG IPC :1.52007: L2-Pf-HR :0.99015: L2-HR :0.94631: (Sim:1h2m42s) 
CPU  0 inst:  242000004 cyc:  158874097 now IPC :1.51731: AVG IPC :1.52006: L2-Pf-HR :0.99015: L2-HR :0.94629: (Sim:1h3m1s) 
CPU  0 inst:  243000000 cyc:  159529614 now IPC :1.52551: AVG IPC :1.52008: L2-Pf-HR :0.99016: L2-HR :0.94627: (Sim:1h3m20s) 
CPU  0 inst:  244000001 cyc:  160188539 now IPC :1.51762: AVG IPC :1.52007: L2-Pf-HR :0.99016: L2-HR :0.94626: (Sim:1h3m39s) 
CPU  0 inst:  245000001 cyc:  160848376 now IPC :1.51553: AVG IPC :1.52006: L2-Pf-HR :0.99016: L2-HR :0.94624: (Sim:1h3m58s) 
CPU  0 inst:  246000000 cyc:  161506350 now IPC :1.51982: AVG IPC :1.52005: L2-Pf-HR :0.99016: L2-HR :0.94623: (Sim:1h4m17s) 
CPU  0 inst:  247000005 cyc:  162167432 now IPC :1.51268: AVG IPC :1.52002: L2-Pf-HR :0.99017: L2-HR :0.94621: (Sim:1h4m36s) 
CPU  0 inst:  248000003 cyc:  162922334 now IPC :1.32467: AVG IPC :1.51911: L2-Pf-HR :0.99017: L2-HR :0.94615: (Sim:1h4m56s) 
CPU  0 inst:  249000003 cyc:  163563904 now IPC :1.55868: AVG IPC :1.51927: L2-Pf-HR :0.99018: L2-HR :0.94616: (Sim:1h5m15s) 
CPU  0 inst:  250000000 cyc:  164204985 now IPC :1.55986: AVG IPC :1.51943: L2-Pf-HR :0.99018: L2-HR :0.94617: (Sim:1h5m33s) 
CPU  0 inst:  251000004 cyc:  164845136 now IPC :1.56214: AVG IPC :1.51960: L2-Pf-HR :0.99018: L2-HR :0.94618: (Sim:1h5m52s) 
CPU  0 inst:  252000001 cyc:  165486391 now IPC :1.55944: AVG IPC :1.51975: L2-Pf-HR :0.99018: L2-HR :0.94619: (Sim:1h6m10s) 
CPU  0 inst:  253000003 cyc:  166127819 now IPC :1.55902: AVG IPC :1.51990: L2-Pf-HR :0.99019: L2-HR :0.94619: (Sim:1h6m22s) 
CPU  0 inst:  254000001 cyc:  166767134 now IPC :1.56417: AVG IPC :1.52007: L2-Pf-HR :0.99019: L2-HR :0.94620: (Sim:1h6m31s) 
CPU  0 inst:  255000000 cyc:  167414497 now IPC :1.54473: AVG IPC :1.52017: L2-Pf-HR :0.99020: L2-HR :0.94622: (Sim:1h6m40s) 
CPU  0 inst:  256000002 cyc:  168115964 now IPC :1.42559: AVG IPC :1.51977: L2-Pf-HR :0.99020: L2-HR :0.94622: (Sim:1h6m49s) 
CPU  0 inst:  257000001 cyc:  168748578 now IPC :1.58074: AVG IPC :1.52000: L2-Pf-HR :0.99020: L2-HR :0.94626: (Sim:1h6m58s) 
CPU  0 inst:  258000005 cyc:  169383725 now IPC :1.57445: AVG IPC :1.52021: L2-Pf-HR :0.99020: L2-HR :0.94631: (Sim:1h7m6s) 
CPU  0 inst:  259000005 cyc:  170017798 now IPC :1.57711: AVG IPC :1.52042: L2-Pf-HR :0.99019: L2-HR :0.94636: (Sim:1h7m15s) 
CPU  0 inst:  260000002 cyc:  170673713 now IPC :1.52458: AVG IPC :1.52044: L2-Pf-HR :0.99020: L2-HR :0.94640: (Sim:1h7m28s) 
CPU  0 inst:  261000002 cyc:  171418826 now IPC :1.34208: AVG IPC :1.51966: L2-Pf-HR :0.99019: L2-HR :0.94630: (Sim:1h7m49s) 
CPU  0 inst:  262000002 cyc:  172080832 now IPC :1.51056: AVG IPC :1.51962: L2-Pf-HR :0.99019: L2-HR :0.94628: (Sim:1h8m9s) 
CPU  0 inst:  263000004 cyc:  172738182 now IPC :1.52126: AVG IPC :1.51963: L2-Pf-HR :0.99019: L2-HR :0.94627: (Sim:1h8m28s) 
CPU  0 inst:  264000003 cyc:  173399574 now IPC :1.51196: AVG IPC :1.51960: L2-Pf-HR :0.99020: L2-HR :0.94625: (Sim:1h8m48s) 
CPU  0 inst:  265000002 cyc:  174062191 now IPC :1.50917: AVG IPC :1.51956: L2-Pf-HR :0.99020: L2-HR :0.94624: (Sim:1h9m7s) 
CPU  0 inst:  266000004 cyc:  174718095 now IPC :1.52462: AVG IPC :1.51958: L2-Pf-HR :0.99020: L2-HR :0.94622: (Sim:1h9m27s) 
CPU  0 inst:  267000000 cyc:  175376303 now IPC :1.51927: AVG IPC :1.51958: L2-Pf-HR :0.99021: L2-HR :0.94621: (Sim:1h9m46s) 
CPU  0 inst:  268000004 cyc:  176134108 now IPC :1.31961: AVG IPC :1.51871: L2-Pf-HR :0.99021: L2-HR :0.94616: (Sim:1h10m7s) 
CPU  0 inst:  269000005 cyc:  176777713 now IPC :1.55375: AVG IPC :1.51884: L2-Pf-HR :0.99021: L2-HR :0.94616: (Sim:1h10m26s) 
CPU  0 inst:  270000004 cyc:  177421163 now IPC :1.55412: AVG IPC :1.51897: L2-Pf-HR :0.99022: L2-HR :0.94617: (Sim:1h10m45s) 
CPU  0 inst:  271000003 cyc:  178064130 now IPC :1.55529: AVG IPC :1.51910: L2-Pf-HR :0.99022: L2-HR :0.94618: (Sim:1h11m5s) 
CPU  0 inst:  272000001 cyc:  178706984 now IPC :1.55556: AVG IPC :1.51923: L2-Pf-HR :0.99023: L2-HR :0.94619: (Sim:1h11m24s) 
CPU  0 inst:  273000001 cyc:  179349152 now IPC :1.55722: AVG IPC :1.51937: L2-Pf-HR :0.99023: L2-HR :0.94620: (Sim:1h11m43s) 
CPU  0 inst:  274000000 cyc:  179991768 now IPC :1.55614: AVG IPC :1.51950: L2-Pf-HR :0.99023: L2-HR :0.94620: (Sim:1h12m2s) 
CPU  0 inst:  275000002 cyc:  180642797 now IPC :1.53603: AVG IPC :1.51956: L2-Pf-HR :0.99024: L2-HR :0.94622: (Sim:1h12m22s) 
CPU  0 inst:  276000004 cyc:  181347031 now IPC :1.41999: AVG IPC :1.51917: L2-Pf-HR :0.99024: L2-HR :0.94622: (Sim:1h12m42s) 
CPU  0 inst:  277000000 cyc:  181985515 now IPC :1.56620: AVG IPC :1.51934: L2-Pf-HR :0.99024: L2-HR :0.94626: (Sim:1h13m1s) 
CPU  0 inst:  278000004 cyc:  182624334 now IPC :1.56539: AVG IPC :1.51950: L2-Pf-HR :0.99024: L2-HR :0.94630: (Sim:1h13m20s) 
CPU  0 inst:  279000002 cyc:  183263144 now IPC :1.56541: AVG IPC :1.51966: L2-Pf-HR :0.99024: L2-HR :0.94635: (Sim:1h13m39s) 
CPU  0 inst:  280000003 cyc:  183930956 now IPC :1.49743: AVG IPC :1.51958: L2-Pf-HR :0.99024: L2-HR :0.94638: (Sim:1h13m59s) 
CPU  0 inst:  281000004 cyc:  184660075 now IPC :1.37152: AVG IPC :1.51899: L2-Pf-HR :0.99023: L2-HR :0.94629: (Sim:1h14m20s) 
CPU  0 inst:  282000002 cyc:  185312101 now IPC :1.53368: AVG IPC :1.51905: L2-Pf-HR :0.99023: L2-HR :0.94627: (Sim:1h14m39s) 
CPU  0 inst:  283000004 cyc:  185963995 now IPC :1.53399: AVG IPC :1.51910: L2-Pf-HR :0.99024: L2-HR :0.94626: (Sim:1h14m58s) 
CPU  0 inst:  284000001 cyc:  186615043 now IPC :1.53598: AVG IPC :1.51916: L2-Pf-HR :0.99024: L2-HR :0.94625: (Sim:1h15m18s) 
CPU  0 inst:  285000000 cyc:  187266140 now IPC :1.53587: AVG IPC :1.51922: L2-Pf-HR :0.99024: L2-HR :0.94623: (Sim:1h15m37s) 
CPU  0 inst:  286000002 cyc:  187917462 now IPC :1.53534: AVG IPC :1.51927: L2-Pf-HR :0.99025: L2-HR :0.94622: (Sim:1h15m57s) 
CPU  0 inst:  287000003 cyc:  188572517 now IPC :1.52659: AVG IPC :1.51930: L2-Pf-HR :0.99025: L2-HR :0.94621: (Sim:1h16m16s) 
CPU  0 inst:  288000002 cyc:  189322954 now IPC :1.33256: AVG IPC :1.51855: L2-Pf-HR :0.99025: L2-HR :0.94616: (Sim:1h16m37s) 
CPU  0 inst:  289000001 cyc:  189954046 now IPC :1.58455: AVG IPC :1.51877: L2-Pf-HR :0.99026: L2-HR :0.94617: (Sim:1h16m57s) 
CPU  0 inst:  290000005 cyc:  190585368 now IPC :1.58398: AVG IPC :1.51899: L2-Pf-HR :0.99026: L2-HR :0.94617: (Sim:1h17m16s) 
CPU  0 inst:  291000001 cyc:  191216657 now IPC :1.58405: AVG IPC :1.51921: L2-Pf-HR :0.99026: L2-HR :0.94618: (Sim:1h17m35s) 
CPU  0 inst:  292000000 cyc:  191849191 now IPC :1.58094: AVG IPC :1.51941: L2-Pf-HR :0.99027: L2-HR :0.94619: (Sim:1h17m54s) 
CPU  0 inst:  293000005 cyc:  192480521 now IPC :1.58397: AVG IPC :1.51962: L2-Pf-HR :0.99027: L2-HR :0.94619: (Sim:1h18m13s) 
CPU  0 inst:  294000000 cyc:  193111155 now IPC :1.58570: AVG IPC :1.51984: L2-Pf-HR :0.99027: L2-HR :0.94620: (Sim:1h18m32s) 
CPU  0 inst:  295000000 cyc:  193753495 now IPC :1.55681: AVG IPC :1.51996: L2-Pf-HR :0.99028: L2-HR :0.94622: (Sim:1h18m52s) 
CPU  0 inst:  296000005 cyc:  194458505 now IPC :1.41843: AVG IPC :1.51959: L2-Pf-HR :0.99028: L2-HR :0.94622: (Sim:1h19m12s) 
CPU  0 inst:  297000000 cyc:  195098482 now IPC :1.56255: AVG IPC :1.51974: L2-Pf-HR :0.99028: L2-HR :0.94625: (Sim:1h19m31s) 
CPU  0 inst:  298000005 cyc:  195736687 now IPC :1.56690: AVG IPC :1.51989: L2-Pf-HR :0.99028: L2-HR :0.94630: (Sim:1h19m50s) 
CPU  0 inst:  299000001 cyc:  196376503 now IPC :1.56294: AVG IPC :1.52003: L2-Pf-HR :0.99028: L2-HR :0.94633: (Sim:1h20m9s) 
CPU  0 inst:  300000002 cyc:  197050831 now IPC :1.48296: AVG IPC :1.51990: L2-Pf-HR :0.99028: L2-HR :0.94635: (Sim:1h20m29s) 
CPU  0 inst:  301000005 cyc:  197782412 now IPC :1.36691: AVG IPC :1.51934: L2-Pf-HR :0.99027: L2-HR :0.94628: (Sim:1h20m50s) 
CPU  0 inst:  302000001 cyc:  198442030 now IPC :1.51602: AVG IPC :1.51932: L2-Pf-HR :0.99027: L2-HR :0.94627: (Sim:1h21m9s) 
CPU  0 inst:  303000003 cyc:  199099365 now IPC :1.52130: AVG IPC :1.51933: L2-Pf-HR :0.99028: L2-HR :0.94626: (Sim:1h21m29s) 
CPU  0 inst:  304000004 cyc:  199759012 now IPC :1.51596: AVG IPC :1.51932: L2-Pf-HR :0.99028: L2-HR :0.94625: (Sim:1h21m48s) 
CPU  0 inst:  305000004 cyc:  200417970 now IPC :1.51755: AVG IPC :1.51931: L2-Pf-HR :0.99029: L2-HR :0.94623: (Sim:1h22m8s) 
CPU  0 inst:  306000000 cyc:  201078192 now IPC :1.51464: AVG IPC :1.51930: L2-Pf-HR :0.99029: L2-HR :0.94622: (Sim:1h22m27s) 
CPU  0 inst:  307000001 cyc:  201742202 now IPC :1.50600: AVG IPC :1.51925: L2-Pf-HR :0.99029: L2-HR :0.94621: (Sim:1h22m47s) 
CPU  0 inst:  308000003 cyc:  202492154 now IPC :1.33342: AVG IPC :1.51856: L2-Pf-HR :0.99030: L2-HR :0.94616: (Sim:1h23m8s) 
CPU  0 inst:  309000005 cyc:  203131933 now IPC :1.56304: AVG IPC :1.51870: L2-Pf-HR :0.99030: L2-HR :0.94617: (Sim:1h23m27s) 
CPU  0 inst:  310000000 cyc:  203770533 now IPC :1.56592: AVG IPC :1.51885: L2-Pf-HR :0.99030: L2-HR :0.94617: (Sim:1h23m46s) 
CPU  0 inst:  311000002 cyc:  204410496 now IPC :1.56259: AVG IPC :1.51899: L2-Pf-HR :0.99031: L2-HR :0.94618: (Sim:1h24m6s) 
CPU  0 inst:  312000004 cyc:  205050169 now IPC :1.56330: AVG IPC :1.51913: L2-Pf-HR :0.99031: L2-HR :0.94619: (Sim:1h24m25s) 
CPU  0 inst:  313000002 cyc:  205688798 now IPC :1.56585: AVG IPC :1.51927: L2-Pf-HR :0.99031: L2-HR :0.94620: (Sim:1h24m44s) 
CPU  0 inst:  314000001 cyc:  206327516 now IPC :1.56563: AVG IPC :1.51942: L2-Pf-HR :0.99032: L2-HR :0.94620: (Sim:1h25m3s) 
CPU  0 inst:  315000001 cyc:  206976822 now IPC :1.54011: AVG IPC :1.51948: L2-Pf-HR :0.99032: L2-HR :0.94622: (Sim:1h25m22s) 
CPU  0 inst:  316000000 cyc:  207661683 now IPC :1.46015: AVG IPC :1.51929: L2-Pf-HR :0.99032: L2-HR :0.94622: (Sim:1h25m42s) 
CPU  0 inst:  317000001 cyc:  208289608 now IPC :1.59255: AVG IPC :1.51951: L2-Pf-HR :0.99032: L2-HR :0.94625: (Sim:1h26m1s) 
CPU  0 inst:  318000003 cyc:  208915029 now IPC :1.59893: AVG IPC :1.51975: L2-Pf-HR :0.99033: L2-HR :0.94629: (Sim:1h26m20s) 
CPU  0 inst:  319000002 cyc:  209541892 now IPC :1.59524: AVG IPC :1.51997: L2-Pf-HR :0.99033: L2-HR :0.94633: (Sim:1h26m39s) 
CPU  0 inst:  320000004 cyc:  210213876 now IPC :1.48813: AVG IPC :1.51987: L2-Pf-HR :0.99033: L2-HR :0.94634: (Sim:1h26m57s) 
CPU  0 inst:  321000003 cyc:  210936021 now IPC :1.38476: AVG IPC :1.51941: L2-Pf-HR :0.99032: L2-HR :0.94628: (Sim:1h27m16s) 
CPU  0 inst:  322000002 cyc:  211598314 now IPC :1.50990: AVG IPC :1.51938: L2-Pf-HR :0.99032: L2-HR :0.94627: (Sim:1h27m35s) 
CPU  0 inst:  323000004 cyc:  212255498 now IPC :1.52165: AVG IPC :1.51939: L2-Pf-HR :0.99033: L2-HR :0.94626: (Sim:1h27m54s) 
CPU  0 inst:  324000000 cyc:  212918196 now IPC :1.50898: AVG IPC :1.51935: L2-Pf-HR :0.99033: L2-HR :0.94625: (Sim:1h28m3s) 
CPU  0 inst:  325000004 cyc:  213580199 now IPC :1.51057: AVG IPC :1.51933: L2-Pf-HR :0.99033: L2-HR :0.94623: (Sim:1h28m12s) 
CPU  0 inst:  326000002 cyc:  214240182 now IPC :1.51519: AVG IPC :1.51931: L2-Pf-HR :0.99033: L2-HR :0.94622: (Sim:1h28m21s) 
CPU  0 inst:  327000003 cyc:  214902087 now IPC :1.51079: AVG IPC :1.51929: L2-Pf-HR :0.99034: L2-HR :0.94621: (Sim:1h28m30s) 
CPU  0 inst:  328000004 cyc:  215653275 now IPC :1.33123: AVG IPC :1.51863: L2-Pf-HR :0.99034: L2-HR :0.94617: (Sim:1h28m42s) 
CPU  0 inst:  329000000 cyc:  216292802 now IPC :1.56365: AVG IPC :1.51876: L2-Pf-HR :0.99034: L2-HR :0.94617: (Sim:1h29m0s) 
CPU  0 inst:  330000003 cyc:  216932273 now IPC :1.56380: AVG IPC :1.51890: L2-Pf-HR :0.99035: L2-HR :0.94618: (Sim:1h29m20s) 
CPU  0 inst:  331000000 cyc:  217571690 now IPC :1.56392: AVG IPC :1.51903: L2-Pf-HR :0.99035: L2-HR :0.94619: (Sim:1h29m39s) 
CPU  0 inst:  332000004 cyc:  218211312 now IPC :1.56343: AVG IPC :1.51916: L2-Pf-HR :0.99035: L2-HR :0.94619: (Sim:1h29m58s) 
CPU  0 inst:  333000001 cyc:  218849859 now IPC :1.56605: AVG IPC :1.51930: L2-Pf-HR :0.99036: L2-HR :0.94620: (Sim:1h30m17s) 
CPU  0 inst:  334000004 cyc:  219489231 now IPC :1.56404: AVG IPC :1.51943: L2-Pf-HR :0.99036: L2-HR :0.94621: (Sim:1h30m36s) 
CPU  0 inst:  335000005 cyc:  220146811 now IPC :1.52073: AVG IPC :1.51943: L2-Pf-HR :0.99037: L2-HR :0.94622: (Sim:1h30m56s) 
CPU  0 inst:  336000004 cyc:  220842328 now IPC :1.43778: AVG IPC :1.51917: L2-Pf-HR :0.99037: L2-HR :0.94622: (Sim:1h31m15s) 
CPU  0 inst:  337000002 cyc:  221484096 now IPC :1.55819: AVG IPC :1.51929: L2-Pf-HR :0.99037: L2-HR :0.94625: (Sim:1h31m34s) 
CPU  0 inst:  338000004 cyc:  222123069 now IPC :1.56501: AVG IPC :1.51942: L2-Pf-HR :0.99037: L2-HR :0.94629: (Sim:1h31m53s) 
CPU  0 inst:  339000005 cyc:  222762946 now IPC :1.56280: AVG IPC :1.51954: L2-Pf-HR :0.99037: L2-HR :0.94632: (Sim:1h32m12s) 
CPU  0 inst:  340000002 cyc:  223444271 now IPC :1.46772: AVG IPC :1.51938: L2-Pf-HR :0.99037: L2-HR :0.94632: (Sim:1h32m32s) 
CPU  0 inst:  341000004 cyc:  224143970 now IPC :1.42919: AVG IPC :1.51910: L2-Pf-HR :0.99036: L2-HR :0.94628: (Sim:1h32m51s) 
CPU  0 inst:  342000000 cyc:  224792876 now IPC :1.54105: AVG IPC :1.51917: L2-Pf-HR :0.99037: L2-HR :0.94626: (Sim:1h33m10s) 
CPU  0 inst:  343000002 cyc:  225438677 now IPC :1.54847: AVG IPC :1.51925: L2-Pf-HR :0.99037: L2-HR :0.94625: (Sim:1h33m29s) 
CPU  0 inst:  344000001 cyc:  226091306 now IPC :1.53226: AVG IPC :1.51929: L2-Pf-HR :0.99037: L2-HR :0.94624: (Sim:1h33m48s) 
CPU  0 inst:  345000003 cyc:  226743433 now IPC :1.53345: AVG IPC :1.51933: L2-Pf-HR :0.99037: L2-HR :0.94623: (Sim:1h34m8s) 
CPU  0 inst:  346000003 cyc:  227396093 now IPC :1.53219: AVG IPC :1.51937: L2-Pf-HR :0.99037: L2-HR :0.94622: (Sim:1h34m27s) 
CPU  0 inst:  347000000 cyc:  228043757 now IPC :1.54401: AVG IPC :1.51944: L2-Pf-HR :0.99038: L2-HR :0.94621: (Sim:1h34m46s) 
CPU  0 inst:  348000004 cyc:  228791989 now IPC :1.33649: AVG IPC :1.51884: L2-Pf-HR :0.99038: L2-HR :0.94617: (Sim:1h35m6s) 
CPU  0 inst:  349000001 cyc:  229432305 now IPC :1.56172: AVG IPC :1.51896: L2-Pf-HR :0.99039: L2-HR :0.94617: (Sim:1h35m25s) 
CPU  0 inst:  350000005 cyc:  230071217 now IPC :1.56517: AVG IPC :1.51908: L2-Pf-HR :0.99039: L2-HR :0.94618: (Sim:1h35m44s) 
CPU  0 inst:  351000001 cyc:  230711438 now IPC :1.56195: AVG IPC :1.51920: L2-Pf-HR :0.99039: L2-HR :0.94618: (Sim:1h36m3s) 
CPU  0 inst:  352000003 cyc:  231351593 now IPC :1.56212: AVG IPC :1.51932: L2-Pf-HR :0.99040: L2-HR :0.94619: (Sim:1h36m22s) 
CPU  0 inst:  353000001 cyc:  231990720 now IPC :1.56463: AVG IPC :1.51945: L2-Pf-HR :0.99040: L2-HR :0.94620: (Sim:1h36m41s) 
CPU  0 inst:  354000004 cyc:  232630405 now IPC :1.56327: AVG IPC :1.51957: L2-Pf-HR :0.99040: L2-HR :0.94620: (Sim:1h37m0s) 
CPU  0 inst:  355000004 cyc:  233296538 now IPC :1.50120: AVG IPC :1.51952: L2-Pf-HR :0.99041: L2-HR :0.94621: (Sim:1h37m19s) 
CPU  0 inst:  356000000 cyc:  233985872 now IPC :1.45067: AVG IPC :1.51931: L2-Pf-HR :0.99041: L2-HR :0.94622: (Sim:1h37m39s) 
CPU  0 inst:  357000004 cyc:  234628237 now IPC :1.55675: AVG IPC :1.51942: L2-Pf-HR :0.99041: L2-HR :0.94624: (Sim:1h37m58s) 
CPU  0 inst:  358000005 cyc:  235268234 now IPC :1.56251: AVG IPC :1.51953: L2-Pf-HR :0.99041: L2-HR :0.94628: (Sim:1h38m16s) 
CPU  0 inst:  359000001 cyc:  235909057 now IPC :1.56049: AVG IPC :1.51965: L2-Pf-HR :0.99041: L2-HR :0.94631: (Sim:1h38m35s) 
CPU  0 inst:  360000000 cyc:  236604974 now IPC :1.43695: AVG IPC :1.51940: L2-Pf-HR :0.99041: L2-HR :0.94630: (Sim:1h38m55s) 
CPU  0 inst:  361000005 cyc:  237304849 now IPC :1.42883: AVG IPC :1.51913: L2-Pf-HR :0.99041: L2-HR :0.94627: (Sim:1h39m15s) 
CPU  0 inst:  362000001 cyc:  237959818 now IPC :1.52678: AVG IPC :1.51915: L2-Pf-HR :0.99041: L2-HR :0.94625: (Sim:1h39m34s) 
CPU  0 inst:  363000000 cyc:  238614431 now IPC :1.52762: AVG IPC :1.51918: L2-Pf-HR :0.99041: L2-HR :0.94624: (Sim:1h39m53s) 
CPU  0 inst:  364000005 cyc:  239265287 now IPC :1.53645: AVG IPC :1.51922: L2-Pf-HR :0.99041: L2-HR :0.94623: (Sim:1h40m12s) 
CPU  0 inst:  365000004 cyc:  239918442 now IPC :1.53103: AVG IPC :1.51926: L2-Pf-HR :0.99042: L2-HR :0.94622: (Sim:1h40m31s) 
CPU  0 inst:  366000000 cyc:  240573953 now IPC :1.52552: AVG IPC :1.51927: L2-Pf-HR :0.99042: L2-HR :0.94621: (Sim:1h40m50s) 
CPU  0 inst:  367000002 cyc:  241226660 now IPC :1.53208: AVG IPC :1.51931: L2-Pf-HR :0.99043: L2-HR :0.94620: (Sim:1h41m10s) 
CPU  0 inst:  368000003 cyc:  241971433 now IPC :1.34269: AVG IPC :1.51876: L2-Pf-HR :0.99043: L2-HR :0.94616: (Sim:1h41m30s) 
CPU  0 inst:  369000001 cyc:  242598716 now IPC :1.59417: AVG IPC :1.51896: L2-Pf-HR :0.99043: L2-HR :0.94617: (Sim:1h41m49s) 
CPU  0 inst:  370000002 cyc:  243225808 now IPC :1.59466: AVG IPC :1.51915: L2-Pf-HR :0.99043: L2-HR :0.94617: (Sim:1h42m8s) 
CPU  0 inst:  371000002 cyc:  243853497 now IPC :1.59315: AVG IPC :1.51935: L2-Pf-HR :0.99044: L2-HR :0.94618: (Sim:1h42m27s) 
CPU  0 inst:  372000004 cyc:  244480749 now IPC :1.59426: AVG IPC :1.51954: L2-Pf-HR :0.99044: L2-HR :0.94619: (Sim:1h42m45s) 
CPU  0 inst:  373000000 cyc:  245107982 now IPC :1.59430: AVG IPC :1.51973: L2-Pf-HR :0.99044: L2-HR :0.94619: (Sim:1h43m4s) 
CPU  0 inst:  374000001 cyc:  245735463 now IPC :1.59368: AVG IPC :1.51992: L2-Pf-HR :0.99044: L2-HR :0.94620: (Sim:1h43m23s) 
CPU  0 inst:  375000001 cyc:  246401048 now IPC :1.50244: AVG IPC :1.51987: L2-Pf-HR :0.99045: L2-HR :0.94619: (Sim:1h43m42s) 
CPU  0 inst:  376000002 cyc:  247081842 now IPC :1.46887: AVG IPC :1.51973: L2-Pf-HR :0.99045: L2-HR :0.94621: (Sim:1h44m2s) 
CPU  0 inst:  377000002 cyc:  247725172 now IPC :1.55441: AVG IPC :1.51982: L2-Pf-HR :0.99045: L2-HR :0.94624: (Sim:1h44m20s) 
CPU  0 inst:  378000003 cyc:  248367998 now IPC :1.55563: AVG IPC :1.51992: L2-Pf-HR :0.99045: L2-HR :0.94627: (Sim:1h44m39s) 
CPU  0 inst:  379000002 cyc:  249009101 now IPC :1.55981: AVG IPC :1.52002: L2-Pf-HR :0.99045: L2-HR :0.94630: (Sim:1h44m58s) 
CPU  0 inst:  380000005 cyc:  249701485 now IPC :1.44429: AVG IPC :1.51981: L2-Pf-HR :0.99045: L2-HR :0.94627: (Sim:1h45m18s) 
CPU  0 inst:  381000003 cyc:  250397150 now IPC :1.43747: AVG IPC :1.51958: L2-Pf-HR :0.99045: L2-HR :0.94626: (Sim:1h45m37s) 
CPU  0 inst:  382000002 cyc:  251055826 now IPC :1.51820: AVG IPC :1.51957: L2-Pf-HR :0.99045: L2-HR :0.94624: (Sim:1h45m57s) 
CPU  0 inst:  383000004 cyc:  251714923 now IPC :1.51723: AVG IPC :1.51957: L2-Pf-HR :0.99045: L2-HR :0.94623: (Sim:1h46m16s) 
CPU  0 inst:  384000000 cyc:  252372721 now IPC :1.52022: AVG IPC :1.51957: L2-Pf-HR :0.99046: L2-HR :0.94623: (Sim:1h46m35s) 
CPU  0 inst:  385000002 cyc:  253033278 now IPC :1.51388: AVG IPC :1.51956: L2-Pf-HR :0.99046: L2-HR :0.94621: (Sim:1h46m54s) 
CPU  0 inst:  386000001 cyc:  253695470 now IPC :1.51013: AVG IPC :1.51953: L2-Pf-HR :0.99046: L2-HR :0.94620: (Sim:1h47m13s) 
CPU  0 inst:  387000003 cyc:  254354635 now IPC :1.51707: AVG IPC :1.51952: L2-Pf-HR :0.99047: L2-HR :0.94619: (Sim:1h47m33s) 
CPU  0 inst:  388000001 cyc:  255108024 now IPC :1.32733: AVG IPC :1.51895: L2-Pf-HR :0.99047: L2-HR :0.94616: (Sim:1h47m53s) 
CPU  0 inst:  389000002 cyc:  255745046 now IPC :1.56981: AVG IPC :1.51908: L2-Pf-HR :0.99047: L2-HR :0.94616: (Sim:1h48m12s) 
CPU  0 inst:  390000004 cyc:  256380832 now IPC :1.57286: AVG IPC :1.51922: L2-Pf-HR :0.99047: L2-HR :0.94617: (Sim:1h48m31s) 
CPU  0 inst:  391000000 cyc:  257017058 now IPC :1.57176: AVG IPC :1.51935: L2-Pf-HR :0.99048: L2-HR :0.94617: (Sim:1h48m50s) 
CPU  0 inst:  392000001 cyc:  257654320 now IPC :1.56921: AVG IPC :1.51947: L2-Pf-HR :0.99048: L2-HR :0.94618: (Sim:1h49m9s) 
CPU  0 inst:  393000000 cyc:  258290378 now IPC :1.57218: AVG IPC :1.51960: L2-Pf-HR :0.99048: L2-HR :0.94618: (Sim:1h49m28s) 
CPU  0 inst:  394000003 cyc:  258926062 now IPC :1.57311: AVG IPC :1.51973: L2-Pf-HR :0.99048: L2-HR :0.94619: (Sim:1h49m47s) 
CPU  0 inst:  395000000 cyc:  259606472 now IPC :1.46970: AVG IPC :1.51960: L2-Pf-HR :0.99049: L2-HR :0.94618: (Sim:1h50m6s) 
CPU  0 inst:  396000004 cyc:  260268595 now IPC :1.51030: AVG IPC :1.51958: L2-Pf-HR :0.99049: L2-HR :0.94620: (Sim:1h50m25s) 
CPU  0 inst:  397000005 cyc:  260903930 now IPC :1.57397: AVG IPC :1.51971: L2-Pf-HR :0.99049: L2-HR :0.94623: (Sim:1h50m44s) 
CPU  0 inst:  398000004 cyc:  261538097 now IPC :1.57687: AVG IPC :1.51985: L2-Pf-HR :0.99049: L2-HR :0.94626: (Sim:1h51m3s) 
CPU  0 inst:  399000003 cyc:  262171910 now IPC :1.57775: AVG IPC :1.51999: L2-Pf-HR :0.99049: L2-HR :0.94628: (Sim:1h51m22s) 
CPU  0 inst:  400000002 cyc:  262878616 now IPC :1.41501: AVG IPC :1.51971: L2-Pf-HR :0.99049: L2-HR :0.94626: (Sim:1h51m42s) 
CPU  0 inst:  401000004 cyc:  263572024 now IPC :1.44216: AVG IPC :1.51950: L2-Pf-HR :0.99049: L2-HR :0.94624: (Sim:1h52m1s) 
CPU  0 inst:  402000002 cyc:  264229997 now IPC :1.51982: AVG IPC :1.51950: L2-Pf-HR :0.99049: L2-HR :0.94623: (Sim:1h52m20s) 
CPU  0 inst:  403000005 cyc:  264885888 now IPC :1.52465: AVG IPC :1.51951: L2-Pf-HR :0.99049: L2-HR :0.94622: (Sim:1h52m39s) 
CPU  0 inst:  404000001 cyc:  265541536 now IPC :1.52520: AVG IPC :1.51953: L2-Pf-HR :0.99050: L2-HR :0.94621: (Sim:1h52m58s) 
CPU  0 inst:  405000003 cyc:  266199340 now IPC :1.52021: AVG IPC :1.51953: L2-Pf-HR :0.99050: L2-HR :0.94620: (Sim:1h53m7s) 
CPU  0 inst:  406000005 cyc:  266858653 now IPC :1.51673: AVG IPC :1.51952: L2-Pf-HR :0.99050: L2-HR :0.94619: (Sim:1h53m16s) 
CPU  0 inst:  407000001 cyc:  267516207 now IPC :1.52078: AVG IPC :1.51953: L2-Pf-HR :0.99050: L2-HR :0.94618: (Sim:1h53m25s) 
CPU  0 inst:  408000002 cyc:  268259666 now IPC :1.34507: AVG IPC :1.51904: L2-Pf-HR :0.99051: L2-HR :0.94615: (Sim:1h53m34s) 
CPU  0 inst:  409000001 cyc:  268900859 now IPC :1.55959: AVG IPC :1.51914: L2-Pf-HR :0.99051: L2-HR :0.94615: (Sim:1h53m43s) 
CPU  0 inst:  410000003 cyc:  269542438 now IPC :1.55866: AVG IPC :1.51923: L2-Pf-HR :0.99051: L2-HR :0.94616: (Sim:1h53m51s) 
CPU  0 inst:  411000000 cyc:  270184595 now IPC :1.55725: AVG IPC :1.51932: L2-Pf-HR :0.99052: L2-HR :0.94616: (Sim:1h54m0s) 
CPU  0 inst:  412000003 cyc:  270826746 now IPC :1.55727: AVG IPC :1.51941: L2-Pf-HR :0.99052: L2-HR :0.94617: (Sim:1h54m9s) 
CPU  0 inst:  413000000 cyc:  271468804 now IPC :1.55749: AVG IPC :1.51950: L2-Pf-HR :0.99052: L2-HR :0.94617: (Sim:1h54m17s) 
CPU  0 inst:  414000004 cyc:  272110321 now IPC :1.55881: AVG IPC :1.51960: L2-Pf-HR :0.99052: L2-HR :0.94618: (Sim:1h54m26s) 
CPU  0 inst:  415000001 cyc:  272801813 now IPC :1.44614: AVG IPC :1.51941: L2-Pf-HR :0.99053: L2-HR :0.94616: (Sim:1h54m35s) 
CPU  0 inst:  416000002 cyc:  273465827 now IPC :1.50599: AVG IPC :1.51938: L2-Pf-HR :0.99053: L2-HR :0.94619: (Sim:1h54m44s) 
CPU  0 inst:  417000001 cyc:  274107269 now IPC :1.55899: AVG IPC :1.51947: L2-Pf-HR :0.99053: L2-HR :0.94621: (Sim:1h54m53s) 
CPU  0 inst:  418000000 cyc:  274748038 now IPC :1.56062: AVG IPC :1.51957: L2-Pf-HR :0.99053: L2-HR :0.94624: (Sim:1h55m1s) 
CPU  0 inst:  419000001 cyc:  275389081 now IPC :1.55996: AVG IPC :1.51966: L2-Pf-HR :0.99053: L2-HR :0.94626: (Sim:1h55m10s) 
CPU  0 inst:  420000003 cyc:  276093621 now IPC :1.41937: AVG IPC :1.51940: L2-Pf-HR :0.99053: L2-HR :0.94624: (Sim:1h55m19s) 
CPU  0 inst:  421000002 cyc:  276787714 now IPC :1.44073: AVG IPC :1.51921: L2-Pf-HR :0.99053: L2-HR :0.94623: (Sim:1h55m28s) 
CPU  0 inst:  422000001 cyc:  277446648 now IPC :1.51760: AVG IPC :1.51920: L2-Pf-HR :0.99053: L2-HR :0.94622: (Sim:1h55m37s) 
CPU  0 inst:  423000002 cyc:  278105203 now IPC :1.51848: AVG IPC :1.51920: L2-Pf-HR :0.99054: L2-HR :0.94621: (Sim:1h55m46s) 
CPU  0 inst:  424000005 cyc:  278762739 now IPC :1.52083: AVG IPC :1.51920: L2-Pf-HR :0.99054: L2-HR :0.94620: (Sim:1h55m55s) 
CPU  0 inst:  425000004 cyc:  279424554 now IPC :1.51099: AVG IPC :1.51919: L2-Pf-HR :0.99054: L2-HR :0.94619: (Sim:1h56m4s) 
CPU  0 inst:  426000000 cyc:  280085516 now IPC :1.51294: AVG IPC :1.51917: L2-Pf-HR :0.99054: L2-HR :0.94618: (Sim:1h56m12s) 
CPU  0 inst:  427000002 cyc:  280746993 now IPC :1.51177: AVG IPC :1.51915: L2-Pf-HR :0.99055: L2-HR :0.94617: (Sim:1h56m21s) 
CPU  0 inst:  428000000 cyc:  281492684 now IPC :1.34104: AVG IPC :1.51868: L2-Pf-HR :0.99055: L2-HR :0.94614: (Sim:1h56m31s) 
CPU  0 inst:  429000005 cyc:  282130656 now IPC :1.56747: AVG IPC :1.51879: L2-Pf-HR :0.99055: L2-HR :0.94614: (Sim:1h56m40s) 
CPU  0 inst:  430000001 cyc:  282768443 now IPC :1.56792: AVG IPC :1.51890: L2-Pf-HR :0.99055: L2-HR :0.94615: (Sim:1h56m59s) 
CPU  0 inst:  431000000 cyc:  283407169 now IPC :1.56561: AVG IPC :1.51901: L2-Pf-HR :0.99056: L2-HR :0.94615: (Sim:1h57m17s) 
CPU  0 inst:  432000001 cyc:  284045465 now IPC :1.56667: AVG IPC :1.51911: L2-Pf-HR :0.99056: L2-HR :0.94616: (Sim:1h57m36s) 
CPU  0 inst:  433000000 cyc:  284683140 now IPC :1.56820: AVG IPC :1.51922: L2-Pf-HR :0.99056: L2-HR :0.94616: (Sim:1h57m55s) 
CPU  0 inst:  434000001 cyc:  285321416 now IPC :1.56672: AVG IPC :1.51933: L2-Pf-HR :0.99056: L2-HR :0.94616: (Sim:1h58m13s) 
CPU  0 inst:  435000002 cyc:  286006851 now IPC :1.45893: AVG IPC :1.51919: L2-Pf-HR :0.99057: L2-HR :0.94615: (Sim:1h58m33s) 
CPU  0 inst:  436000003 cyc:  286666849 now IPC :1.51516: AVG IPC :1.51918: L2-Pf-HR :0.99057: L2-HR :0.94617: (Sim:1h58m51s) 
CPU  0 inst:  437000002 cyc:  287305210 now IPC :1.56651: AVG IPC :1.51928: L2-Pf-HR :0.99057: L2-HR :0.94620: (Sim:1h59m9s) 
CPU  0 inst:  438000000 cyc:  287944709 now IPC :1.56372: AVG IPC :1.51938: L2-Pf-HR :0.99057: L2-HR :0.94623: (Sim:1h59m28s) 
CPU  0 inst:  439000004 cyc:  288584381 now IPC :1.56331: AVG IPC :1.51948: L2-Pf-HR :0.99057: L2-HR :0.94625: (Sim:1h59m46s) 
CPU  0 inst:  440000003 cyc:  289292737 now IPC :1.41172: AVG IPC :1.51921: L2-Pf-HR :0.99057: L2-HR :0.94622: (Sim:1h59m56s) 
CPU  0 inst:  441000005 cyc:  289983077 now IPC :1.44856: AVG IPC :1.51905: L2-Pf-HR :0.99057: L2-HR :0.94621: (Sim:2h0m5s) 
CPU  0 inst:  442000002 cyc:  290639649 now IPC :1.52306: AVG IPC :1.51905: L2-Pf-HR :0.99057: L2-HR :0.94620: (Sim:2h0m14s) 
CPU  0 inst:  443000000 cyc:  291299581 now IPC :1.51530: AVG IPC :1.51905: L2-Pf-HR :0.99057: L2-HR :0.94619: (Sim:2h0m23s) 
CPU  0 inst:  444000003 cyc:  291959562 now IPC :1.51520: AVG IPC :1.51904: L2-Pf-HR :0.99057: L2-HR :0.94618: (Sim:2h0m32s) 
CPU  0 inst:  445000004 cyc:  292619170 now IPC :1.51605: AVG IPC :1.51903: L2-Pf-HR :0.99058: L2-HR :0.94617: (Sim:2h0m41s) 
CPU  0 inst:  446000001 cyc:  293279560 now IPC :1.51425: AVG IPC :1.51902: L2-Pf-HR :0.99058: L2-HR :0.94616: (Sim:2h0m50s) 
CPU  0 inst:  447000003 cyc:  293937571 now IPC :1.51973: AVG IPC :1.51902: L2-Pf-HR :0.99058: L2-HR :0.94616: (Sim:2h0m59s) 
CPU  0 inst:  448000000 cyc:  294696518 now IPC :1.31761: AVG IPC :1.51850: L2-Pf-HR :0.99059: L2-HR :0.94612: (Sim:2h1m8s) 
CPU  0 inst:  449000003 cyc:  295337211 now IPC :1.56081: AVG IPC :1.51859: L2-Pf-HR :0.99059: L2-HR :0.94613: (Sim:2h1m17s) 
CPU  0 inst:  450000003 cyc:  295979546 now IPC :1.55682: AVG IPC :1.51868: L2-Pf-HR :0.99059: L2-HR :0.94613: (Sim:2h1m26s) 
CPU  0 inst:  451000000 cyc:  296620772 now IPC :1.55951: AVG IPC :1.51876: L2-Pf-HR :0.99059: L2-HR :0.94614: (Sim:2h1m35s) 
CPU  0 inst:  452000004 cyc:  297262918 now IPC :1.55728: AVG IPC :1.51885: L2-Pf-HR :0.99059: L2-HR :0.94614: (Sim:2h1m43s) 
CPU  0 inst:  453000001 cyc:  297904658 now IPC :1.55826: AVG IPC :1.51893: L2-Pf-HR :0.99060: L2-HR :0.94615: (Sim:2h1m52s) 
CPU  0 inst:  454000003 cyc:  298547252 now IPC :1.55620: AVG IPC :1.51901: L2-Pf-HR :0.99060: L2-HR :0.94615: (Sim:2h2m1s) 
CPU  0 inst:  455000005 cyc:  299238074 now IPC :1.44755: AVG IPC :1.51885: L2-Pf-HR :0.99060: L2-HR :0.94614: (Sim:2h2m10s) 
CPU  0 inst:  456000001 cyc:  299898882 now IPC :1.51329: AVG IPC :1.51884: L2-Pf-HR :0.99060: L2-HR :0.94616: (Sim:2h2m19s) 
CPU  0 inst:  457000000 cyc:  300540576 now IPC :1.55837: AVG IPC :1.51892: L2-Pf-HR :0.99060: L2-HR :0.94618: (Sim:2h2m28s) 
CPU  0 inst:  458000002 cyc:  301182641 now IPC :1.55748: AVG IPC :1.51900: L2-Pf-HR :0.99061: L2-HR :0.94621: (Sim:2h2m36s) 
CPU  0 inst:  459000005 cyc:  301826592 now IPC :1.55292: AVG IPC :1.51908: L2-Pf-HR :0.99061: L2-HR :0.94623: (Sim:2h2m45s) 
CPU  0 inst:  460000002 cyc:  302542999 now IPC :1.39585: AVG IPC :1.51878: L2-Pf-HR :0.99060: L2-HR :0.94621: (Sim:2h2m54s) 
CPU  0 inst:  461000001 cyc:  303224301 now IPC :1.46778: AVG IPC :1.51867: L2-Pf-HR :0.99060: L2-HR :0.94620: (Sim:2h3m3s) 
CPU  0 inst:  462000005 cyc:  303878210 now IPC :1.52927: AVG IPC :1.51869: L2-Pf-HR :0.99061: L2-HR :0.94619: (Sim:2h3m12s) 
CPU  0 inst:  463000005 cyc:  304531607 now IPC :1.53046: AVG IPC :1.51872: L2-Pf-HR :0.99061: L2-HR :0.94618: (Sim:2h3m21s) 
CPU  0 inst:  464000004 cyc:  305184346 now IPC :1.53200: AVG IPC :1.51875: L2-Pf-HR :0.99061: L2-HR :0.94617: (Sim:2h3m30s) 
CPU  0 inst:  465000003 cyc:  305839486 now IPC :1.52639: AVG IPC :1.51876: L2-Pf-HR :0.99061: L2-HR :0.94616: (Sim:2h3m39s) 
CPU  0 inst:  466000004 cyc:  306495688 now IPC :1.52392: AVG IPC :1.51877: L2-Pf-HR :0.99062: L2-HR :0.94615: (Sim:2h3m48s) 
CPU  0 inst:  467000000 cyc:  307151098 now IPC :1.52576: AVG IPC :1.51879: L2-Pf-HR :0.99062: L2-HR :0.94614: (Sim:2h3m57s) 
CPU  0 inst:  468000002 cyc:  307900615 now IPC :1.33420: AVG IPC :1.51834: L2-Pf-HR :0.99062: L2-HR :0.94611: (Sim:2h4m6s) 
CPU  0 inst:  469000004 cyc:  308539937 now IPC :1.56416: AVG IPC :1.51843: L2-Pf-HR :0.99062: L2-HR :0.94612: (Sim:2h4m15s) 
CPU  0 inst:  470000000 cyc:  309179047 now IPC :1.56467: AVG IPC :1.51853: L2-Pf-HR :0.99062: L2-HR :0.94612: (Sim:2h4m24s) 
CPU  0 inst:  471000004 cyc:  309820299 now IPC :1.55946: AVG IPC :1.51861: L2-Pf-HR :0.99063: L2-HR :0.94612: (Sim:2h4m32s) 
CPU  0 inst:  472000003 cyc:  310459195 now IPC :1.56520: AVG IPC :1.51871: L2-Pf-HR :0.99063: L2-HR :0.94613: (Sim:2h4m41s) 
CPU  0 inst:  473000001 cyc:  311097868 now IPC :1.56574: AVG IPC :1.51881: L2-Pf-HR :0.99063: L2-HR :0.94613: (Sim:2h4m50s) 
CPU  0 inst:  474000000 cyc:  311737499 now IPC :1.56340: AVG IPC :1.51890: L2-Pf-HR :0.99063: L2-HR :0.94614: (Sim:2h4m59s) 
CPU  0 inst:  475000001 cyc:  312430591 now IPC :1.44281: AVG IPC :1.51873: L2-Pf-HR :0.99064: L2-HR :0.94612: (Sim:2h5m8s) 
CPU  0 inst:  476000004 cyc:  313088455 now IPC :1.52008: AVG IPC :1.51873: L2-Pf-HR :0.99064: L2-HR :0.94614: (Sim:2h5m16s) 
CPU  0 inst:  477000001 cyc:  313728110 now IPC :1.56334: AVG IPC :1.51882: L2-Pf-HR :0.99064: L2-HR :0.94617: (Sim:2h5m25s) 
CPU  0 inst:  478000005 cyc:  314369244 now IPC :1.55974: AVG IPC :1.51891: L2-Pf-HR :0.99064: L2-HR :0.94619: (Sim:2h5m34s) 
CPU  0 inst:  479000001 cyc:  315010059 now IPC :1.56051: AVG IPC :1.51899: L2-Pf-HR :0.99064: L2-HR :0.94621: (Sim:2h5m43s) 
CPU  0 inst:  480000000 cyc:  315722934 now IPC :1.40277: AVG IPC :1.51873: L2-Pf-HR :0.99063: L2-HR :0.94619: (Sim:2h5m52s) 
CPU  0 inst:  481000005 cyc:  316403398 now IPC :1.46959: AVG IPC :1.51862: L2-Pf-HR :0.99064: L2-HR :0.94618: (Sim:2h6m1s) 
CPU  0 inst:  482000001 cyc:  317061439 now IPC :1.51966: AVG IPC :1.51862: L2-Pf-HR :0.99064: L2-HR :0.94617: (Sim:2h6m10s) 
CPU  0 inst:  483000005 cyc:  317718660 now IPC :1.52156: AVG IPC :1.51863: L2-Pf-HR :0.99064: L2-HR :0.94616: (Sim:2h6m19s) 
CPU  0 inst:  484000005 cyc:  318372986 now IPC :1.52829: AVG IPC :1.51865: L2-Pf-HR :0.99064: L2-HR :0.94615: (Sim:2h6m28s) 
CPU  0 inst:  485000001 cyc:  319029677 now IPC :1.52278: AVG IPC :1.51866: L2-Pf-HR :0.99064: L2-HR :0.94615: (Sim:2h6m37s) 
CPU  0 inst:  486000000 cyc:  319686410 now IPC :1.52269: AVG IPC :1.51867: L2-Pf-HR :0.99065: L2-HR :0.94614: (Sim:2h6m46s) 
CPU  0 inst:  487000004 cyc:  320345034 now IPC :1.51832: AVG IPC :1.51867: L2-Pf-HR :0.99065: L2-HR :0.94613: (Sim:2h6m54s) 
CPU  0 inst:  488000000 cyc:  321095197 now IPC :1.33304: AVG IPC :1.51823: L2-Pf-HR :0.99065: L2-HR :0.94610: (Sim:2h7m4s) 
CPU  0 inst:  489000005 cyc:  321733847 now IPC :1.56581: AVG IPC :1.51833: L2-Pf-HR :0.99065: L2-HR :0.94610: (Sim:2h7m13s) 
CPU  0 inst:  490000001 cyc:  322372302 now IPC :1.56627: AVG IPC :1.51842: L2-Pf-HR :0.99066: L2-HR :0.94611: (Sim:2h7m22s) 
CPU  0 inst:  491000003 cyc:  323010887 now IPC :1.56597: AVG IPC :1.51852: L2-Pf-HR :0.99066: L2-HR :0.94611: (Sim:2h7m31s) 
CPU  0 inst:  492000004 cyc:  323648314 now IPC :1.56881: AVG IPC :1.51861: L2-Pf-HR :0.99066: L2-HR :0.94612: (Sim:2h7m39s) 
CPU  0 inst:  493000000 cyc:  324286925 now IPC :1.56589: AVG IPC :1.51871: L2-Pf-HR :0.99066: L2-HR :0.94612: (Sim:2h7m49s) 
CPU  0 inst:  494000004 cyc:  324926249 now IPC :1.56416: AVG IPC :1.51880: L2-Pf-HR :0.99067: L2-HR :0.94612: (Sim:2h7m58s) 
CPU  0 inst:  495000002 cyc:  325617867 now IPC :1.44588: AVG IPC :1.51864: L2-Pf-HR :0.99067: L2-HR :0.94611: (Sim:2h8m7s) 
CPU  0 inst:  496000003 cyc:  326272519 now IPC :1.52753: AVG IPC :1.51866: L2-Pf-HR :0.99067: L2-HR :0.94613: (Sim:2h8m22s) 
CPU  0 inst:  497000002 cyc:  326910672 now IPC :1.56702: AVG IPC :1.51876: L2-Pf-HR :0.99067: L2-HR :0.94615: (Sim:2h8m42s) 
CPU  0 inst:  498000001 cyc:  327550540 now IPC :1.56282: AVG IPC :1.51884: L2-Pf-HR :0.99067: L2-HR :0.94618: (Sim:2h9m2s) 
CPU  0 inst:  499000002 cyc:  328191423 now IPC :1.56035: AVG IPC :1.51892: L2-Pf-HR :0.99067: L2-HR :0.94620: (Sim:2h9m21s) 
CPU  0 inst:  500000001 cyc:  328911453 now IPC :1.38883: AVG IPC :1.51864: L2-Pf-HR :0.99067: L2-HR :0.94617: (Sim:2h9m43s) 
CPU  0 inst:  501000003 cyc:  329595799 now IPC :1.46125: AVG IPC :1.51852: L2-Pf-HR :0.99067: L2-HR :0.94616: (Sim:2h10m3s) 
CPU  0 inst:  502000005 cyc:  330257214 now IPC :1.51191: AVG IPC :1.51850: L2-Pf-HR :0.99067: L2-HR :0.94616: (Sim:2h10m23s) 
CPU  0 inst:  503000004 cyc:  330918852 now IPC :1.51140: AVG IPC :1.51849: L2-Pf-HR :0.99067: L2-HR :0.94615: (Sim:2h10m43s) 
CPU  0 inst:  504000005 cyc:  331582092 now IPC :1.50775: AVG IPC :1.51847: L2-Pf-HR :0.99068: L2-HR :0.94614: (Sim:2h11m3s) 
CPU  0 inst:  505000002 cyc:  332238475 now IPC :1.52350: AVG IPC :1.51848: L2-Pf-HR :0.99068: L2-HR :0.94613: (Sim:2h11m23s) 
CPU  0 inst:  506000001 cyc:  332899944 now IPC :1.51179: AVG IPC :1.51847: L2-Pf-HR :0.99068: L2-HR :0.94612: (Sim:2h11m43s) 
CPU  0 inst:  507000003 cyc:  333564109 now IPC :1.50565: AVG IPC :1.51844: L2-Pf-HR :0.99068: L2-HR :0.94611: (Sim:2h12m3s) 
CPU  0 inst:  508000003 cyc:  334318031 now IPC :1.32640: AVG IPC :1.51801: L2-Pf-HR :0.99069: L2-HR :0.94609: (Sim:2h12m25s) 
CPU  0 inst:  509000003 cyc:  334958255 now IPC :1.56195: AVG IPC :1.51809: L2-Pf-HR :0.99069: L2-HR :0.94609: (Sim:2h12m45s) 
CPU  0 inst:  510000005 cyc:  335599953 now IPC :1.55837: AVG IPC :1.51817: L2-Pf-HR :0.99069: L2-HR :0.94609: (Sim:2h13m4s) 
CPU  0 inst:  511000000 cyc:  336240598 now IPC :1.56092: AVG IPC :1.51825: L2-Pf-HR :0.99069: L2-HR :0.94610: (Sim:2h13m24s) 
CPU  0 inst:  512000002 cyc:  336880213 now IPC :1.56344: AVG IPC :1.51833: L2-Pf-HR :0.99069: L2-HR :0.94610: (Sim:2h13m44s) 
CPU  0 inst:  513000004 cyc:  337521254 now IPC :1.55997: AVG IPC :1.51841: L2-Pf-HR :0.99070: L2-HR :0.94610: (Sim:2h14m4s) 
CPU  0 inst:  514000000 cyc:  338163609 now IPC :1.55677: AVG IPC :1.51849: L2-Pf-HR :0.99070: L2-HR :0.94611: (Sim:2h14m23s) 
CPU  0 inst:  515000000 cyc:  338859964 now IPC :1.43605: AVG IPC :1.51832: L2-Pf-HR :0.99070: L2-HR :0.94610: (Sim:2h14m44s) 
CPU  0 inst:  516000005 cyc:  339512431 now IPC :1.53265: AVG IPC :1.51834: L2-Pf-HR :0.99070: L2-HR :0.94611: (Sim:2h14m56s) 
CPU  0 inst:  517000005 cyc:  340149767 now IPC :1.56903: AVG IPC :1.51844: L2-Pf-HR :0.99071: L2-HR :0.94614: (Sim:2h15m4s) 
CPU  0 inst:  518000005 cyc:  340788068 now IPC :1.56666: AVG IPC :1.51853: L2-Pf-HR :0.99071: L2-HR :0.94616: (Sim:2h15m13s) 
CPU  0 inst:  519000004 cyc:  341428783 now IPC :1.56075: AVG IPC :1.51861: L2-Pf-HR :0.99071: L2-HR :0.94618: (Sim:2h15m21s) 
CPU  0 inst:  520000005 cyc:  342134980 now IPC :1.41604: AVG IPC :1.51840: L2-Pf-HR :0.99070: L2-HR :0.94616: (Sim:2h15m31s) 
CPU  0 inst:  521000005 cyc:  342821248 now IPC :1.45716: AVG IPC :1.51827: L2-Pf-HR :0.99071: L2-HR :0.94615: (Sim:2h15m40s) 
CPU  0 inst:  522000000 cyc:  343481415 now IPC :1.51476: AVG IPC :1.51827: L2-Pf-HR :0.99071: L2-HR :0.94614: (Sim:2h15m49s) 
CPU  0 inst:  523000002 cyc:  344145233 now IPC :1.50644: AVG IPC :1.51824: L2-Pf-HR :0.99071: L2-HR :0.94613: (Sim:2h15m58s) 
CPU  0 inst:  524000001 cyc:  344807512 now IPC :1.50994: AVG IPC :1.51823: L2-Pf-HR :0.99071: L2-HR :0.94612: (Sim:2h16m7s) 
CPU  0 inst:  525000000 cyc:  345468017 now IPC :1.51399: AVG IPC :1.51822: L2-Pf-HR :0.99071: L2-HR :0.94612: (Sim:2h16m16s) 
CPU  0 inst:  526000005 cyc:  346131604 now IPC :1.50697: AVG IPC :1.51820: L2-Pf-HR :0.99072: L2-HR :0.94611: (Sim:2h16m25s) 
CPU  0 inst:  527000004 cyc:  346796145 now IPC :1.50480: AVG IPC :1.51817: L2-Pf-HR :0.99072: L2-HR :0.94610: (Sim:2h16m33s) 
CPU  0 inst:  528000002 cyc:  347536818 now IPC :1.35012: AVG IPC :1.51781: L2-Pf-HR :0.99072: L2-HR :0.94607: (Sim:2h16m43s) 
CPU  0 inst:  529000005 cyc:  348169374 now IPC :1.58089: AVG IPC :1.51793: L2-Pf-HR :0.99072: L2-HR :0.94608: (Sim:2h16m52s) 
CPU  0 inst:  530000000 cyc:  348802411 now IPC :1.57968: AVG IPC :1.51804: L2-Pf-HR :0.99072: L2-HR :0.94608: (Sim:2h17m0s) 
CPU  0 inst:  531000001 cyc:  349436299 now IPC :1.57757: AVG IPC :1.51815: L2-Pf-HR :0.99072: L2-HR :0.94608: (Sim:2h17m9s) 
CPU  0 inst:  532000000 cyc:  350068494 now IPC :1.58179: AVG IPC :1.51827: L2-Pf-HR :0.99073: L2-HR :0.94609: (Sim:2h17m18s) 
CPU  0 inst:  533000005 cyc:  350702330 now IPC :1.57770: AVG IPC :1.51837: L2-Pf-HR :0.99073: L2-HR :0.94609: (Sim:2h17m26s) 
CPU  0 inst:  534000001 cyc:  351334594 now IPC :1.58161: AVG IPC :1.51849: L2-Pf-HR :0.99073: L2-HR :0.94609: (Sim:2h17m35s) 
CPU  0 inst:  535000001 cyc:  352027350 now IPC :1.44351: AVG IPC :1.51834: L2-Pf-HR :0.99073: L2-HR :0.94608: (Sim:2h17m45s) 
CPU  0 inst:  536000005 cyc:  352680044 now IPC :1.53212: AVG IPC :1.51836: L2-Pf-HR :0.99074: L2-HR :0.94610: (Sim:2h17m53s) 
CPU  0 inst:  537000001 cyc:  353317988 now IPC :1.56753: AVG IPC :1.51845: L2-Pf-HR :0.99074: L2-HR :0.94612: (Sim:2h18m2s) 
CPU  0 inst:  538000002 cyc:  353957413 now IPC :1.56391: AVG IPC :1.51854: L2-Pf-HR :0.99074: L2-HR :0.94614: (Sim:2h18m11s) 
CPU  0 inst:  539000005 cyc:  354597341 now IPC :1.56268: AVG IPC :1.51862: L2-Pf-HR :0.99074: L2-HR :0.94616: (Sim:2h18m20s) 
CPU  0 inst:  540000000 cyc:  355313634 now IPC :1.39607: AVG IPC :1.51837: L2-Pf-HR :0.99074: L2-HR :0.94614: (Sim:2h18m29s) 
CPU  0 inst:  541000002 cyc:  355996223 now IPC :1.46501: AVG IPC :1.51827: L2-Pf-HR :0.99074: L2-HR :0.94613: (Sim:2h18m38s) 
CPU  0 inst:  542000004 cyc:  356649976 now IPC :1.52963: AVG IPC :1.51829: L2-Pf-HR :0.99074: L2-HR :0.94613: (Sim:2h18m47s) 
CPU  0 inst:  543000003 cyc:  357309021 now IPC :1.51735: AVG IPC :1.51828: L2-Pf-HR :0.99074: L2-HR :0.94612: (Sim:2h18m56s) 
CPU  0 inst:  544000005 cyc:  357965716 now IPC :1.52278: AVG IPC :1.51829: L2-Pf-HR :0.99075: L2-HR :0.94611: (Sim:2h19m5s) 
CPU  0 inst:  545000001 cyc:  358618198 now IPC :1.53260: AVG IPC :1.51832: L2-Pf-HR :0.99075: L2-HR :0.94610: (Sim:2h19m14s) 
CPU  0 inst:  546000000 cyc:  359276242 now IPC :1.51965: AVG IPC :1.51832: L2-Pf-HR :0.99075: L2-HR :0.94609: (Sim:2h19m23s) 
CPU  0 inst:  547000004 cyc:  359934038 now IPC :1.52023: AVG IPC :1.51832: L2-Pf-HR :0.99075: L2-HR :0.94608: (Sim:2h19m42s) 
CPU  0 inst:  548000000 cyc:  360681170 now IPC :1.33845: AVG IPC :1.51795: L2-Pf-HR :0.99075: L2-HR :0.94606: (Sim:2h20m2s) 
CPU  0 inst:  549000002 cyc:  361312511 now IPC :1.58393: AVG IPC :1.51807: L2-Pf-HR :0.99076: L2-HR :0.94606: (Sim:2h20m21s) 
CPU  0 inst:  550000000 cyc:  361943865 now IPC :1.58389: AVG IPC :1.51818: L2-Pf-HR :0.99076: L2-HR :0.94607: (Sim:2h20m40s) 
CPU  0 inst:  551000003 cyc:  362574294 now IPC :1.58623: AVG IPC :1.51830: L2-Pf-HR :0.99076: L2-HR :0.94607: (Sim:2h20m59s) 
CPU  0 inst:  552000000 cyc:  363203684 now IPC :1.58884: AVG IPC :1.51842: L2-Pf-HR :0.99076: L2-HR :0.94607: (Sim:2h21m19s) 
CPU  0 inst:  553000000 cyc:  363835058 now IPC :1.58385: AVG IPC :1.51854: L2-Pf-HR :0.99076: L2-HR :0.94608: (Sim:2h21m38s) 
CPU  0 inst:  554000005 cyc:  364466646 now IPC :1.58332: AVG IPC :1.51865: L2-Pf-HR :0.99077: L2-HR :0.94608: (Sim:2h21m57s) 
CPU  0 inst:  555000002 cyc:  365159034 now IPC :1.44427: AVG IPC :1.51851: L2-Pf-HR :0.99077: L2-HR :0.94607: (Sim:2h22m18s) 
CPU  0 inst:  556000001 cyc:  365798597 now IPC :1.56357: AVG IPC :1.51859: L2-Pf-HR :0.99077: L2-HR :0.94609: (Sim:2h22m37s) 
CPU  0 inst:  557000005 cyc:  366425169 now IPC :1.59599: AVG IPC :1.51872: L2-Pf-HR :0.99077: L2-HR :0.94611: (Sim:2h22m57s) 
CPU  0 inst:  558000004 cyc:  367053814 now IPC :1.59072: AVG IPC :1.51884: L2-Pf-HR :0.99077: L2-HR :0.94613: (Sim:2h23m16s) 
CPU  0 inst:  559000000 cyc:  367682286 now IPC :1.59115: AVG IPC :1.51897: L2-Pf-HR :0.99077: L2-HR :0.94615: (Sim:2h23m35s) 
CPU  0 inst:  560000003 cyc:  368397463 now IPC :1.39826: AVG IPC :1.51873: L2-Pf-HR :0.99077: L2-HR :0.94613: (Sim:2h23m56s) 
CPU  0 inst:  561000003 cyc:  369073523 now IPC :1.47916: AVG IPC :1.51866: L2-Pf-HR :0.99077: L2-HR :0.94612: (Sim:2h24m16s) 
CPU  0 inst:  562000002 cyc:  369724829 now IPC :1.53538: AVG IPC :1.51869: L2-Pf-HR :0.99077: L2-HR :0.94611: (Sim:2h24m36s) 
CPU  0 inst:  563000001 cyc:  370379772 now IPC :1.52685: AVG IPC :1.51870: L2-Pf-HR :0.99077: L2-HR :0.94610: (Sim:2h24m56s) 
CPU  0 inst:  564000000 cyc:  371036608 now IPC :1.52245: AVG IPC :1.51871: L2-Pf-HR :0.99078: L2-HR :0.94609: (Sim:2h25m15s) 
CPU  0 inst:  565000002 cyc:  371689244 now IPC :1.53225: AVG IPC :1.51873: L2-Pf-HR :0.99078: L2-HR :0.94609: (Sim:2h25m35s) 
CPU  0 inst:  566000004 cyc:  372347514 now IPC :1.51914: AVG IPC :1.51874: L2-Pf-HR :0.99078: L2-HR :0.94608: (Sim:2h25m55s) 
CPU  0 inst:  567000003 cyc:  373001927 now IPC :1.52809: AVG IPC :1.51875: L2-Pf-HR :0.99078: L2-HR :0.94607: (Sim:2h26m15s) 
CPU  0 inst:  568000003 cyc:  373745690 now IPC :1.34451: AVG IPC :1.51840: L2-Pf-HR :0.99078: L2-HR :0.94605: (Sim:2h26m36s) 
CPU  0 inst:  569000003 cyc:  374378024 now IPC :1.58144: AVG IPC :1.51851: L2-Pf-HR :0.99079: L2-HR :0.94605: (Sim:2h26m55s) 
CPU  0 inst:  570000005 cyc:  375011863 now IPC :1.57769: AVG IPC :1.51861: L2-Pf-HR :0.99079: L2-HR :0.94605: (Sim:2h27m15s) 
CPU  0 inst:  571000001 cyc:  375643775 now IPC :1.58249: AVG IPC :1.51872: L2-Pf-HR :0.99079: L2-HR :0.94606: (Sim:2h27m34s) 
CPU  0 inst:  572000000 cyc:  376275306 now IPC :1.58345: AVG IPC :1.51883: L2-Pf-HR :0.99079: L2-HR :0.94606: (Sim:2h27m53s) 
CPU  0 inst:  573000004 cyc:  376907554 now IPC :1.58166: AVG IPC :1.51893: L2-Pf-HR :0.99079: L2-HR :0.94606: (Sim:2h28m12s) 
CPU  0 inst:  574000000 cyc:  377540506 now IPC :1.57989: AVG IPC :1.51904: L2-Pf-HR :0.99080: L2-HR :0.94607: (Sim:2h28m30s) 
CPU  0 inst:  575000005 cyc:  378236878 now IPC :1.43602: AVG IPC :1.51888: L2-Pf-HR :0.99080: L2-HR :0.94605: (Sim:2h28m50s) 
CPU  0 inst:  576000005 cyc:  378872141 now IPC :1.57415: AVG IPC :1.51898: L2-Pf-HR :0.99080: L2-HR :0.94607: (Sim:2h29m8s) 
CPU  0 inst:  577000000 cyc:  379496003 now IPC :1.60291: AVG IPC :1.51911: L2-Pf-HR :0.99080: L2-HR :0.94609: (Sim:2h29m26s) 
CPU  0 inst:  578000005 cyc:  380120886 now IPC :1.60031: AVG IPC :1.51925: L2-Pf-HR :0.99080: L2-HR :0.94611: (Sim:2h29m45s) 
CPU  0 inst:  579000004 cyc:  380746608 now IPC :1.59815: AVG IPC :1.51938: L2-Pf-HR :0.99080: L2-HR :0.94613: (Sim:2h30m3s) 
CPU  0 inst:  580000005 cyc:  381459693 now IPC :1.40236: AVG IPC :1.51916: L2-Pf-HR :0.99080: L2-HR :0.94611: (Sim:2h30m23s) 
CPU  0 inst:  581000003 cyc:  382140492 now IPC :1.46886: AVG IPC :1.51907: L2-Pf-HR :0.99080: L2-HR :0.94610: (Sim:2h30m42s) 
CPU  0 inst:  582000003 cyc:  382796738 now IPC :1.52382: AVG IPC :1.51908: L2-Pf-HR :0.99080: L2-HR :0.94609: (Sim:2h31m1s) 
CPU  0 inst:  583000004 cyc:  383456404 now IPC :1.51592: AVG IPC :1.51907: L2-Pf-HR :0.99081: L2-HR :0.94609: (Sim:2h31m19s) 
CPU  0 inst:  584000004 cyc:  384118519 now IPC :1.51031: AVG IPC :1.51906: L2-Pf-HR :0.99081: L2-HR :0.94608: (Sim:2h31m38s) 
CPU  0 inst:  585000003 cyc:  384777384 now IPC :1.51776: AVG IPC :1.51905: L2-Pf-HR :0.99081: L2-HR :0.94607: (Sim:2h31m57s) 
CPU  0 inst:  586000000 cyc:  385438693 now IPC :1.51215: AVG IPC :1.51904: L2-Pf-HR :0.99081: L2-HR :0.94607: (Sim:2h32m16s) 
CPU  0 inst:  587000001 cyc:  386101769 now IPC :1.50812: AVG IPC :1.51902: L2-Pf-HR :0.99081: L2-HR :0.94606: (Sim:2h32m35s) 
CPU  0 inst:  588000005 cyc:  386843174 now IPC :1.34880: AVG IPC :1.51870: L2-Pf-HR :0.99082: L2-HR :0.94603: (Sim:2h32m50s) 
CPU  0 inst:  589000001 cyc:  387481801 now IPC :1.56585: AVG IPC :1.51877: L2-Pf-HR :0.99082: L2-HR :0.94604: (Sim:2h32m58s) 
CPU  0 inst:  590000002 cyc:  388118791 now IPC :1.56988: AVG IPC :1.51886: L2-Pf-HR :0.99082: L2-HR :0.94604: (Sim:2h33m7s) 
CPU  0 inst:  591000004 cyc:  388755292 now IPC :1.57109: AVG IPC :1.51894: L2-Pf-HR :0.99082: L2-HR :0.94604: (Sim:2h33m16s) 
CPU  0 inst:  592000004 cyc:  389392419 now IPC :1.56955: AVG IPC :1.51903: L2-Pf-HR :0.99082: L2-HR :0.94605: (Sim:2h33m24s) 
CPU  0 inst:  593000002 cyc:  390029586 now IPC :1.56944: AVG IPC :1.51911: L2-Pf-HR :0.99083: L2-HR :0.94605: (Sim:2h33m33s) 
CPU  0 inst:  594000001 cyc:  390666709 now IPC :1.56955: AVG IPC :1.51919: L2-Pf-HR :0.99083: L2-HR :0.94605: (Sim:2h33m41s) 
CPU  0 inst:  595000001 cyc:  391367990 now IPC :1.42596: AVG IPC :1.51902: L2-Pf-HR :0.99083: L2-HR :0.94604: (Sim:2h33m51s) 
CPU  0 inst:  596000002 cyc:  392001833 now IPC :1.57768: AVG IPC :1.51912: L2-Pf-HR :0.99083: L2-HR :0.94606: (Sim:2h33m59s) 
CPU  0 inst:  597000001 cyc:  392625609 now IPC :1.60314: AVG IPC :1.51925: L2-Pf-HR :0.99083: L2-HR :0.94608: (Sim:2h34m8s) 
CPU  0 inst:  598000005 cyc:  393250951 now IPC :1.59913: AVG IPC :1.51938: L2-Pf-HR :0.99084: L2-HR :0.94610: (Sim:2h34m16s) 
CPU  0 inst:  599000005 cyc:  393876038 now IPC :1.59978: AVG IPC :1.51951: L2-Pf-HR :0.99084: L2-HR :0.94612: (Sim:2h34m25s) 
CPU  0 inst:  600000002 cyc:  394593531 now IPC :1.39374: AVG IPC :1.51928: L2-Pf-HR :0.99083: L2-HR :0.94610: (Sim:2h34m34s) 
CPU  0 inst:  601000002 cyc:  395275626 now IPC :1.46607: AVG IPC :1.51919: L2-Pf-HR :0.99084: L2-HR :0.94609: (Sim:2h34m43s) 
CPU  0 inst:  602000004 cyc:  395931747 now IPC :1.52411: AVG IPC :1.51920: L2-Pf-HR :0.99084: L2-HR :0.94608: (Sim:2h34m51s) 
CPU  0 inst:  603000005 cyc:  396594346 now IPC :1.50921: AVG IPC :1.51918: L2-Pf-HR :0.99084: L2-HR :0.94607: (Sim:2h35m0s) 
CPU  0 inst:  604000005 cyc:  397253926 now IPC :1.51612: AVG IPC :1.51917: L2-Pf-HR :0.99084: L2-HR :0.94607: (Sim:2h35m9s) 
CPU  0 inst:  605000002 cyc:  397913460 now IPC :1.51622: AVG IPC :1.51917: L2-Pf-HR :0.99084: L2-HR :0.94606: (Sim:2h35m17s) 
CPU  0 inst:  606000003 cyc:  398573710 now IPC :1.51458: AVG IPC :1.51916: L2-Pf-HR :0.99085: L2-HR :0.94605: (Sim:2h35m26s) 
CPU  0 inst:  607000002 cyc:  399236047 now IPC :1.50980: AVG IPC :1.51915: L2-Pf-HR :0.99085: L2-HR :0.94604: (Sim:2h35m35s) 
CPU  0 inst:  608000000 cyc:  399985736 now IPC :1.33388: AVG IPC :1.51880: L2-Pf-HR :0.99085: L2-HR :0.94602: (Sim:2h35m44s) 
CPU  0 inst:  609000002 cyc:  400626688 now IPC :1.56018: AVG IPC :1.51886: L2-Pf-HR :0.99085: L2-HR :0.94603: (Sim:2h35m53s) 
CPU  0 inst:  610000001 cyc:  401265777 now IPC :1.56473: AVG IPC :1.51894: L2-Pf-HR :0.99086: L2-HR :0.94603: (Sim:2h36m1s) 
CPU  0 inst:  611000003 cyc:  401904802 now IPC :1.56489: AVG IPC :1.51901: L2-Pf-HR :0.99086: L2-HR :0.94603: (Sim:2h36m10s) 
CPU  0 inst:  612000001 cyc:  402545011 now IPC :1.56199: AVG IPC :1.51908: L2-Pf-HR :0.99086: L2-HR :0.94603: (Sim:2h36m19s) 
CPU  0 inst:  613000003 cyc:  403184322 now IPC :1.56419: AVG IPC :1.51915: L2-Pf-HR :0.99086: L2-HR :0.94604: (Sim:2h36m27s) 
CPU  0 inst:  614000004 cyc:  403823808 now IPC :1.56376: AVG IPC :1.51922: L2-Pf-HR :0.99086: L2-HR :0.94604: (Sim:2h36m36s) 
CPU  0 inst:  615000005 cyc:  404527998 now IPC :1.42007: AVG IPC :1.51905: L2-Pf-HR :0.99086: L2-HR :0.94603: (Sim:2h36m45s) 
CPU  0 inst:  616000004 cyc:  405163518 now IPC :1.57351: AVG IPC :1.51913: L2-Pf-HR :0.99087: L2-HR :0.94605: (Sim:2h36m55s) 
CPU  0 inst:  617000000 cyc:  405790030 now IPC :1.59613: AVG IPC :1.51925: L2-Pf-HR :0.99087: L2-HR :0.94607: (Sim:2h37m3s) 
CPU  0 inst:  618000004 cyc:  406417834 now IPC :1.59286: AVG IPC :1.51937: L2-Pf-HR :0.99087: L2-HR :0.94608: (Sim:2h37m12s) 
CPU  0 inst:  619000002 cyc:  407046062 now IPC :1.59178: AVG IPC :1.51948: L2-Pf-HR :0.99087: L2-HR :0.94610: (Sim:2h37m20s) 
CPU  0 inst:  620000004 cyc:  407759646 now IPC :1.40138: AVG IPC :1.51927: L2-Pf-HR :0.99087: L2-HR :0.94608: (Sim:2h37m30s) 
CPU  0 inst:  621000003 cyc:  408433724 now IPC :1.48351: AVG IPC :1.51921: L2-Pf-HR :0.99087: L2-HR :0.94607: (Sim:2h37m39s) 
CPU  0 inst:  622000004 cyc:  409087108 now IPC :1.53050: AVG IPC :1.51923: L2-Pf-HR :0.99087: L2-HR :0.94607: (Sim:2h37m47s) 
CPU  0 inst:  623000001 cyc:  409742899 now IPC :1.52487: AVG IPC :1.51924: L2-Pf-HR :0.99087: L2-HR :0.94606: (Sim:2h37m56s) 
CPU  0 inst:  624000005 cyc:  410398348 now IPC :1.52568: AVG IPC :1.51925: L2-Pf-HR :0.99087: L2-HR :0.94605: (Sim:2h38m5s) 
CPU  0 inst:  625000005 cyc:  411053872 now IPC :1.52550: AVG IPC :1.51926: L2-Pf-HR :0.99088: L2-HR :0.94604: (Sim:2h38m20s) 
CPU  0 inst:  626000001 cyc:  411709564 now IPC :1.52510: AVG IPC :1.51927: L2-Pf-HR :0.99088: L2-HR :0.94604: (Sim:2h38m38s) 
CPU  0 inst:  627000000 cyc:  412368307 now IPC :1.51804: AVG IPC :1.51927: L2-Pf-HR :0.99088: L2-HR :0.94603: (Sim:2h38m57s) 
[...]
CPU  0 inst: 1497000005 cyc: 2208066445 now IPC :1.82487: AVG IPC :0.67737: L2-Pf-HR :0.98948: L2-HR :0.88840: (Sim:7h58m38s) 
CPU  0 inst: 1498000001 cyc: 2208654601 now IPC :1.70022: AVG IPC :0.67764: L2-Pf-HR :0.98948: L2-HR :0.88838: (Sim:7h58m59s) 
CPU  0 inst: 1499000005 cyc: 2209132699 now IPC :2.09163: AVG IPC :0.67794: L2-Pf-HR :0.98947: L2-HR :0.88841: (Sim:7h59m17s) 
CPU  0 inst: 1500000005 cyc: 2209717565 now IPC :1.70979: AVG IPC :0.67822: L2-Pf-HR :0.98947: L2-HR :0.88841: (Sim:7h59m37s) 
CPU  0 inst: 1501000000 cyc: 2210258842 now IPC :1.84747: AVG IPC :0.67850: L2-Pf-HR :0.98947: L2-HR :0.88842: (Sim:7h59m57s) 
CPU  0 inst: 1502000004 cyc: 2210835937 now IPC :1.73282: AVG IPC :0.67878: L2-Pf-HR :0.98946: L2-HR :0.88841: (Sim:8h0m17s) 
CPU  0 inst: 1503000003 cyc: 2211291027 now IPC :2.19737: AVG IPC :0.67909: L2-Pf-HR :0.98945: L2-HR :0.88844: (Sim:8h0m35s) 
CPU  0 inst: 1504000001 cyc: 2211886187 now IPC :1.68022: AVG IPC :0.67936: L2-Pf-HR :0.98945: L2-HR :0.88843: (Sim:8h0m56s) 
CPU  0 inst: 1505000002 cyc: 2212427275 now IPC :1.84813: AVG IPC :0.67965: L2-Pf-HR :0.98945: L2-HR :0.88845: (Sim:8h1m15s) 
CPU  0 inst: 1506000002 cyc: 2213002373 now IPC :1.73883: AVG IPC :0.67992: L2-Pf-HR :0.98944: L2-HR :0.88844: (Sim:8h1m36s) 
CPU  0 inst: 1507000003 cyc: 2213457846 now IPC :2.19552: AVG IPC :0.68023: L2-Pf-HR :0.98943: L2-HR :0.88846: (Sim:8h1m54s) 
CPU  0 inst: 1508000005 cyc: 2214053698 now IPC :1.67827: AVG IPC :0.68050: L2-Pf-HR :0.98943: L2-HR :0.88846: (Sim:8h2m14s) 
CPU  0 inst: 1509000000 cyc: 2214577540 now IPC :1.90896: AVG IPC :0.68079: L2-Pf-HR :0.98942: L2-HR :0.88848: (Sim:8h2m33s) 
CPU  0 inst: 1510000004 cyc: 2215082162 now IPC :1.98169: AVG IPC :0.68109: L2-Pf-HR :0.98942: L2-HR :0.88849: (Sim:8h2m51s) 
CPU  0 inst: 1511000001 cyc: 2215618670 now IPC :1.86390: AVG IPC :0.68138: L2-Pf-HR :0.98941: L2-HR :0.88851: (Sim:8h3m12s) 
CPU  0 inst: 1512000002 cyc: 2216296536 now IPC :1.47522: AVG IPC :0.68162: L2-Pf-HR :0.98941: L2-HR :0.88849: (Sim:8h3m33s) 
CPU  0 inst: 1513000005 cyc: 2216849710 now IPC :1.80775: AVG IPC :0.68190: L2-Pf-HR :0.98941: L2-HR :0.88850: (Sim:8h3m52s) 
CPU  0 inst: 1514000001 cyc: 2217431009 now IPC :1.72028: AVG IPC :0.68217: L2-Pf-HR :0.98941: L2-HR :0.88850: (Sim:8h4m11s) 
CPU  0 inst: 1515000004 cyc: 2218031275 now IPC :1.66593: AVG IPC :0.68244: L2-Pf-HR :0.98941: L2-HR :0.88850: (Sim:8h4m30s) 
CPU  0 inst: 1516000002 cyc: 2218634877 now IPC :1.65672: AVG IPC :0.68270: L2-Pf-HR :0.98941: L2-HR :0.88848: (Sim:8h4m51s) 
CPU  0 inst: 1517000002 cyc: 2219114113 now IPC :2.08665: AVG IPC :0.68301: L2-Pf-HR :0.98941: L2-HR :0.88851: (Sim:8h5m9s) 
CPU  0 inst: 1518000000 cyc: 2219700134 now IPC :1.70642: AVG IPC :0.68328: L2-Pf-HR :0.98941: L2-HR :0.88851: (Sim:8h5m29s) 
CPU  0 inst: 1519000005 cyc: 2220248532 now IPC :1.82350: AVG IPC :0.68356: L2-Pf-HR :0.98941: L2-HR :0.88852: (Sim:8h5m48s) 
CPU  0 inst: 1520000000 cyc: 2220836690 now IPC :1.70021: AVG IPC :0.68383: L2-Pf-HR :0.98941: L2-HR :0.88851: (Sim:8h6m9s) 
CPU  0 inst: 1521000002 cyc: 2221298733 now IPC :2.16430: AVG IPC :0.68414: L2-Pf-HR :0.98940: L2-HR :0.88853: (Sim:8h6m26s) 
CPU  0 inst: 1522000001 cyc: 2221897162 now IPC :1.67104: AVG IPC :0.68440: L2-Pf-HR :0.98940: L2-HR :0.88853: (Sim:8h6m46s) 
CPU  0 inst: 1523000001 cyc: 2222435313 now IPC :1.85821: AVG IPC :0.68469: L2-Pf-HR :0.98940: L2-HR :0.88855: (Sim:8h7m4s) 
CPU  0 inst: 1524000003 cyc: 2223017629 now IPC :1.71728: AVG IPC :0.68496: L2-Pf-HR :0.98939: L2-HR :0.88854: (Sim:8h7m23s) 
CPU  0 inst: 1525000000 cyc: 2223475592 now IPC :2.18358: AVG IPC :0.68527: L2-Pf-HR :0.98938: L2-HR :0.88856: (Sim:8h7m41s) 
CPU  0 inst: 1526000001 cyc: 2224072300 now IPC :1.67586: AVG IPC :0.68553: L2-Pf-HR :0.98938: L2-HR :0.88856: (Sim:8h8m1s) 
CPU  0 inst: 1527000000 cyc: 2224584380 now IPC :1.95282: AVG IPC :0.68583: L2-Pf-HR :0.98937: L2-HR :0.88858: (Sim:8h8m19s) 
CPU  0 inst: 1528000000 cyc: 2225085743 now IPC :1.99456: AVG IPC :0.68612: L2-Pf-HR :0.98937: L2-HR :0.88859: (Sim:8h8m37s) 
CPU  0 inst: 1529000002 cyc: 2225640692 now IPC :1.80197: AVG IPC :0.68640: L2-Pf-HR :0.98936: L2-HR :0.88858: (Sim:8h8m57s) 
CPU  0 inst: 1530000003 cyc: 2226235716 now IPC :1.68061: AVG IPC :0.68666: L2-Pf-HR :0.98936: L2-HR :0.88858: (Sim:8h9m16s) 
CPU  0 inst: 1531000003 cyc: 2226692697 now IPC :2.18827: AVG IPC :0.68697: L2-Pf-HR :0.98935: L2-HR :0.88861: (Sim:8h9m33s) 
CPU  0 inst: 1532000000 cyc: 2227217733 now IPC :1.90463: AVG IPC :0.68726: L2-Pf-HR :0.98935: L2-HR :0.88862: (Sim:8h9m52s) 
CPU  0 inst: 1533000003 cyc: 2227793593 now IPC :1.73654: AVG IPC :0.68753: L2-Pf-HR :0.98934: L2-HR :0.88863: (Sim:8h10m12s) 
CPU  0 inst: 1534000002 cyc: 2228467011 now IPC :1.48496: AVG IPC :0.68777: L2-Pf-HR :0.98934: L2-HR :0.88860: (Sim:8h10m34s) 
CPU  0 inst: 1535000002 cyc: 2228972850 now IPC :1.97691: AVG IPC :0.68807: L2-Pf-HR :0.98934: L2-HR :0.88862: (Sim:8h10m52s) 
CPU  0 inst: 1536000005 cyc: 2229608590 now IPC :1.57297: AVG IPC :0.68832: L2-Pf-HR :0.98934: L2-HR :0.88861: (Sim:8h11m10s) 
CPU  0 inst: 1537000002 cyc: 2230209396 now IPC :1.66443: AVG IPC :0.68858: L2-Pf-HR :0.98934: L2-HR :0.88861: (Sim:8h11m29s) 
CPU  0 inst: 1538000001 cyc: 2230806734 now IPC :1.67409: AVG IPC :0.68884: L2-Pf-HR :0.98934: L2-HR :0.88859: (Sim:8h11m50s) 
CPU  0 inst: 1539000005 cyc: 2231272060 now IPC :2.14904: AVG IPC :0.68915: L2-Pf-HR :0.98934: L2-HR :0.88862: (Sim:8h12m7s) 
CPU  0 inst: 1540000003 cyc: 2231870403 now IPC :1.67128: AVG IPC :0.68941: L2-Pf-HR :0.98934: L2-HR :0.88862: (Sim:8h12m27s) 
CPU  0 inst: 1541000004 cyc: 2232414793 now IPC :1.83692: AVG IPC :0.68969: L2-Pf-HR :0.98934: L2-HR :0.88863: (Sim:8h12m45s) 
CPU  0 inst: 1542000001 cyc: 2232994345 now IPC :1.72547: AVG IPC :0.68996: L2-Pf-HR :0.98934: L2-HR :0.88862: (Sim:8h13m4s) 
CPU  0 inst: 1543000001 cyc: 2233455203 now IPC :2.16987: AVG IPC :0.69027: L2-Pf-HR :0.98933: L2-HR :0.88864: (Sim:8h13m22s) 
CPU  0 inst: 1544000005 cyc: 2234046646 now IPC :1.69079: AVG IPC :0.69053: L2-Pf-HR :0.98933: L2-HR :0.88864: (Sim:8h13m42s) 
CPU  0 inst: 1545000000 cyc: 2234551447 now IPC :1.98097: AVG IPC :0.69082: L2-Pf-HR :0.98932: L2-HR :0.88866: (Sim:8h14m0s) 
CPU  0 inst: 1546000005 cyc: 2235050938 now IPC :2.00205: AVG IPC :0.69112: L2-Pf-HR :0.98932: L2-HR :0.88868: (Sim:8h14m18s) 
CPU  0 inst: 1547000003 cyc: 2235613634 now IPC :1.77716: AVG IPC :0.69139: L2-Pf-HR :0.98931: L2-HR :0.88866: (Sim:8h14m37s) 
CPU  0 inst: 1548000000 cyc: 2236204225 now IPC :1.69321: AVG IPC :0.69165: L2-Pf-HR :0.98931: L2-HR :0.88866: (Sim:8h14m56s) 
CPU  0 inst: 1549000003 cyc: 2236661177 now IPC :2.18842: AVG IPC :0.69196: L2-Pf-HR :0.98930: L2-HR :0.88869: (Sim:8h15m13s) 
CPU  0 inst: 1550000002 cyc: 2237186762 now IPC :1.90264: AVG IPC :0.69225: L2-Pf-HR :0.98930: L2-HR :0.88870: (Sim:8h15m32s) 
CPU  0 inst: 1551000003 cyc: 2237767057 now IPC :1.72326: AVG IPC :0.69251: L2-Pf-HR :0.98929: L2-HR :0.88868: (Sim:8h15m53s) 
CPU  0 inst: 1552000003 cyc: 2238363615 now IPC :1.67628: AVG IPC :0.69278: L2-Pf-HR :0.98928: L2-HR :0.88868: (Sim:8h16m12s) 
CPU  0 inst: 1553000005 cyc: 2238808589 now IPC :2.24733: AVG IPC :0.69308: L2-Pf-HR :0.98928: L2-HR :0.88871: (Sim:8h16m28s) 
CPU  0 inst: 1554000004 cyc: 2239345131 now IPC :1.86379: AVG IPC :0.69336: L2-Pf-HR :0.98928: L2-HR :0.88872: (Sim:8h16m46s) 
CPU  0 inst: 1555000001 cyc: 2239918692 now IPC :1.74349: AVG IPC :0.69363: L2-Pf-HR :0.98927: L2-HR :0.88872: (Sim:8h17m7s) 
CPU  0 inst: 1556000000 cyc: 2240584560 now IPC :1.50180: AVG IPC :0.69387: L2-Pf-HR :0.98926: L2-HR :0.88870: (Sim:8h17m29s) 
CPU  0 inst: 1557000000 cyc: 2241083024 now IPC :2.00616: AVG IPC :0.69417: L2-Pf-HR :0.98927: L2-HR :0.88872: (Sim:8h17m46s) 
CPU  0 inst: 1558000003 cyc: 2241735748 now IPC :1.53205: AVG IPC :0.69441: L2-Pf-HR :0.98927: L2-HR :0.88871: (Sim:8h18m5s) 
CPU  0 inst: 1559000003 cyc: 2242326714 now IPC :1.69214: AVG IPC :0.69467: L2-Pf-HR :0.98927: L2-HR :0.88871: (Sim:8h18m23s) 
CPU  0 inst: 1560000005 cyc: 2242932406 now IPC :1.65101: AVG IPC :0.69493: L2-Pf-HR :0.98927: L2-HR :0.88869: (Sim:8h18m44s) 
CPU  0 inst: 1561000001 cyc: 2243403391 now IPC :2.12320: AVG IPC :0.69523: L2-Pf-HR :0.98927: L2-HR :0.88871: (Sim:8h19m2s) 
CPU  0 inst: 1562000002 cyc: 2244012422 now IPC :1.64195: AVG IPC :0.69549: L2-Pf-HR :0.98926: L2-HR :0.88871: (Sim:8h19m22s) 
CPU  0 inst: 1563000000 cyc: 2244512399 now IPC :2.00009: AVG IPC :0.69578: L2-Pf-HR :0.98926: L2-HR :0.88874: (Sim:8h19m40s) 
CPU  0 inst: 1564000002 cyc: 2245025644 now IPC :1.94839: AVG IPC :0.69607: L2-Pf-HR :0.98926: L2-HR :0.88875: (Sim:8h19m59s) 
CPU  0 inst: 1565000001 cyc: 2245601597 now IPC :1.73625: AVG IPC :0.69633: L2-Pf-HR :0.98926: L2-HR :0.88873: (Sim:8h20m20s) 
CPU  0 inst: 1566000002 cyc: 2246216186 now IPC :1.62711: AVG IPC :0.69659: L2-Pf-HR :0.98925: L2-HR :0.88873: (Sim:8h20m40s) 
CPU  0 inst: 1567000005 cyc: 2246671039 now IPC :2.19852: AVG IPC :0.69689: L2-Pf-HR :0.98925: L2-HR :0.88876: (Sim:8h20m57s) 
CPU  0 inst: 1568000003 cyc: 2247199690 now IPC :1.89160: AVG IPC :0.69717: L2-Pf-HR :0.98925: L2-HR :0.88877: (Sim:8h21m16s) 
CPU  0 inst: 1569000000 cyc: 2247780640 now IPC :1.72131: AVG IPC :0.69744: L2-Pf-HR :0.98924: L2-HR :0.88875: (Sim:8h21m36s) 
CPU  0 inst: 1570000001 cyc: 2248393735 now IPC :1.63107: AVG IPC :0.69769: L2-Pf-HR :0.98923: L2-HR :0.88875: (Sim:8h21m57s) 
CPU  0 inst: 1571000002 cyc: 2248838137 now IPC :2.25022: AVG IPC :0.69800: L2-Pf-HR :0.98923: L2-HR :0.88877: (Sim:8h22m14s) 
CPU  0 inst: 1572000000 cyc: 2249375445 now IPC :1.86113: AVG IPC :0.69828: L2-Pf-HR :0.98922: L2-HR :0.88879: (Sim:8h22m33s) 
CPU  0 inst: 1573000004 cyc: 2249956712 now IPC :1.72039: AVG IPC :0.69854: L2-Pf-HR :0.98922: L2-HR :0.88877: (Sim:8h22m53s) 
CPU  0 inst: 1574000005 cyc: 2250558652 now IPC :1.66130: AVG IPC :0.69880: L2-Pf-HR :0.98921: L2-HR :0.88877: (Sim:8h23m10s) 
CPU  0 inst: 1575000005 cyc: 2251003140 now IPC :2.24978: AVG IPC :0.69911: L2-Pf-HR :0.98920: L2-HR :0.88879: (Sim:8h23m18s) 
CPU  0 inst: 1576000001 cyc: 2251541555 now IPC :1.85730: AVG IPC :0.69938: L2-Pf-HR :0.98920: L2-HR :0.88880: (Sim:8h23m26s) 
CPU  0 inst: 1577000001 cyc: 2252073511 now IPC :1.87985: AVG IPC :0.69966: L2-Pf-HR :0.98920: L2-HR :0.88882: (Sim:8h23m35s) 
CPU  0 inst: 1578000005 cyc: 2252754739 now IPC :1.46794: AVG IPC :0.69989: L2-Pf-HR :0.98919: L2-HR :0.88880: (Sim:8h23m46s) 
CPU  0 inst: 1579000003 cyc: 2253280602 now IPC :1.90163: AVG IPC :0.70017: L2-Pf-HR :0.98919: L2-HR :0.88881: (Sim:8h23m54s) 
CPU  0 inst: 1580000000 cyc: 2253937321 now IPC :1.52272: AVG IPC :0.70041: L2-Pf-HR :0.98919: L2-HR :0.88880: (Sim:8h24m4s) 
CPU  0 inst: 1581000003 cyc: 2254451379 now IPC :1.94531: AVG IPC :0.70070: L2-Pf-HR :0.98919: L2-HR :0.88882: (Sim:8h24m12s) 
CPU  0 inst: 1582000003 cyc: 2255020832 now IPC :1.75607: AVG IPC :0.70097: L2-Pf-HR :0.98919: L2-HR :0.88882: (Sim:8h24m21s) 
CPU  0 inst: 1583000005 cyc: 2255605271 now IPC :1.71105: AVG IPC :0.70123: L2-Pf-HR :0.98919: L2-HR :0.88880: (Sim:8h24m31s) 
CPU  0 inst: 1584000000 cyc: 2256213853 now IPC :1.64316: AVG IPC :0.70148: L2-Pf-HR :0.98919: L2-HR :0.88879: (Sim:8h24m41s) 
CPU  0 inst: 1585000001 cyc: 2256677252 now IPC :2.15797: AVG IPC :0.70178: L2-Pf-HR :0.98919: L2-HR :0.88882: (Sim:8h24m49s) 
CPU  0 inst: 1586000003 cyc: 2257215444 now IPC :1.85808: AVG IPC :0.70206: L2-Pf-HR :0.98919: L2-HR :0.88883: (Sim:8h24m58s) 
CPU  0 inst: 1587000005 cyc: 2257806040 now IPC :1.69321: AVG IPC :0.70232: L2-Pf-HR :0.98918: L2-HR :0.88882: (Sim:8h25m8s) 
CPU  0 inst: 1588000000 cyc: 2258413836 now IPC :1.64528: AVG IPC :0.70257: L2-Pf-HR :0.98918: L2-HR :0.88881: (Sim:8h25m18s) 
CPU  0 inst: 1589000001 cyc: 2258860139 now IPC :2.24063: AVG IPC :0.70287: L2-Pf-HR :0.98918: L2-HR :0.88884: (Sim:8h25m25s) 
CPU  0 inst: 1590000000 cyc: 2259399781 now IPC :1.85308: AVG IPC :0.70315: L2-Pf-HR :0.98917: L2-HR :0.88885: (Sim:8h25m34s) 
CPU  0 inst: 1591000001 cyc: 2259985141 now IPC :1.70835: AVG IPC :0.70341: L2-Pf-HR :0.98917: L2-HR :0.88883: (Sim:8h25m44s) 
CPU  0 inst: 1592000003 cyc: 2260585990 now IPC :1.66431: AVG IPC :0.70366: L2-Pf-HR :0.98916: L2-HR :0.88883: (Sim:8h25m54s) 
CPU  0 inst: 1593000000 cyc: 2261034014 now IPC :2.23202: AVG IPC :0.70397: L2-Pf-HR :0.98915: L2-HR :0.88885: (Sim:8h26m1s) 
CPU  0 inst: 1594000005 cyc: 2261575460 now IPC :1.84692: AVG IPC :0.70424: L2-Pf-HR :0.98915: L2-HR :0.88886: (Sim:8h26m10s) 
CPU  0 inst: 1595000005 cyc: 2262168671 now IPC :1.68574: AVG IPC :0.70450: L2-Pf-HR :0.98915: L2-HR :0.88885: (Sim:8h26m20s) 
CPU  0 inst: 1596000005 cyc: 2262643264 now IPC :2.10707: AVG IPC :0.70479: L2-Pf-HR :0.98914: L2-HR :0.88888: (Sim:8h26m29s) 
CPU  0 inst: 1597000002 cyc: 2263216226 now IPC :1.74531: AVG IPC :0.70506: L2-Pf-HR :0.98913: L2-HR :0.88887: (Sim:8h26m38s) 
CPU  0 inst: 1598000003 cyc: 2263752258 now IPC :1.86556: AVG IPC :0.70533: L2-Pf-HR :0.98913: L2-HR :0.88888: (Sim:8h26m47s) 
CPU  0 inst: 1599000000 cyc: 2264264709 now IPC :1.95140: AVG IPC :0.70561: L2-Pf-HR :0.98912: L2-HR :0.88889: (Sim:8h26m56s) 
CPU  0 inst: 1600000001 cyc: 2264815052 now IPC :1.81705: AVG IPC :0.70588: L2-Pf-HR :0.98912: L2-HR :0.88891: (Sim:8h27m5s) 
CPU  0 inst: 1601000000 cyc: 2265467982 now IPC :1.53156: AVG IPC :0.70612: L2-Pf-HR :0.98912: L2-HR :0.88888: (Sim:8h27m15s) 
CPU  0 inst: 1602000002 cyc: 2266135174 now IPC :1.49882: AVG IPC :0.70636: L2-Pf-HR :0.98912: L2-HR :0.88887: (Sim:8h27m25s) 
CPU  0 inst: 1603000000 cyc: 2266624632 now IPC :2.04307: AVG IPC :0.70664: L2-Pf-HR :0.98912: L2-HR :0.88889: (Sim:8h27m33s) 
CPU  0 inst: 1604000000 cyc: 2267210947 now IPC :1.70557: AVG IPC :0.70690: L2-Pf-HR :0.98912: L2-HR :0.88889: (Sim:8h27m42s) 
CPU  0 inst: 1605000000 cyc: 2267805342 now IPC :1.68238: AVG IPC :0.70716: L2-Pf-HR :0.98912: L2-HR :0.88887: (Sim:8h27m52s) 
CPU  0 inst: 1606000003 cyc: 2268424054 now IPC :1.61627: AVG IPC :0.70741: L2-Pf-HR :0.98912: L2-HR :0.88887: (Sim:8h28m2s) 
CPU  0 inst: 1607000003 cyc: 2268877837 now IPC :2.20370: AVG IPC :0.70771: L2-Pf-HR :0.98912: L2-HR :0.88889: (Sim:8h28m10s) 
CPU  0 inst: 1608000001 cyc: 2269421394 now IPC :1.83973: AVG IPC :0.70798: L2-Pf-HR :0.98912: L2-HR :0.88890: (Sim:8h28m19s) 
CPU  0 inst: 1609000004 cyc: 2270009793 now IPC :1.69953: AVG IPC :0.70823: L2-Pf-HR :0.98911: L2-HR :0.88889: (Sim:8h28m29s) 
CPU  0 inst: 1610000000 cyc: 2270620246 now IPC :1.63812: AVG IPC :0.70848: L2-Pf-HR :0.98911: L2-HR :0.88888: (Sim:8h28m39s) 
CPU  0 inst: 1611000001 cyc: 2271071562 now IPC :2.21574: AVG IPC :0.70878: L2-Pf-HR :0.98911: L2-HR :0.88891: (Sim:8h28m47s) 
CPU  0 inst: 1612000002 cyc: 2271605577 now IPC :1.87261: AVG IPC :0.70906: L2-Pf-HR :0.98910: L2-HR :0.88892: (Sim:8h28m56s) 
CPU  0 inst: 1613000002 cyc: 2272184896 now IPC :1.72616: AVG IPC :0.70932: L2-Pf-HR :0.98910: L2-HR :0.88890: (Sim:8h29m6s) 
CPU  0 inst: 1614000003 cyc: 2272661261 now IPC :2.09923: AVG IPC :0.70961: L2-Pf-HR :0.98909: L2-HR :0.88893: (Sim:8h29m15s) 
CPU  0 inst: 1615000003 cyc: 2273246385 now IPC :1.70904: AVG IPC :0.70987: L2-Pf-HR :0.98909: L2-HR :0.88892: (Sim:8h29m24s) 
CPU  0 inst: 1616000005 cyc: 2273780617 now IPC :1.87185: AVG IPC :0.71014: L2-Pf-HR :0.98908: L2-HR :0.88893: (Sim:8h29m33s) 
CPU  0 inst: 1617000001 cyc: 2274359460 now IPC :1.72758: AVG IPC :0.71040: L2-Pf-HR :0.98908: L2-HR :0.88891: (Sim:8h29m43s) 
CPU  0 inst: 1618000005 cyc: 2274817395 now IPC :2.18372: AVG IPC :0.71069: L2-Pf-HR :0.98907: L2-HR :0.88894: (Sim:8h29m52s) 
CPU  0 inst: 1619000003 cyc: 2275420920 now IPC :1.65693: AVG IPC :0.71095: L2-Pf-HR :0.98906: L2-HR :0.88893: (Sim:8h30m1s) 
Finished CPU 0 instr: 1617000002 cyc: 2274435091 AVG IPC: 0.71095 (Sim time: 8h30m1s)

ChampSim completed all CPUs

[ROI Statistics]
Core_0_instructions 1617000002
Core_0_cycles 2274435091
Core_0_IPC 0.71095

Core_0_branch_prediction_accuracy 99.26547
Core_0_branch_MPKI 0.21633
Core_0_average_ROB_occupancy_at_mispredict 611.39833

Core_0_L1D_total_access 391011047
Core_0_L1D_total_hit 357275937 L1D_total_Hit Ratio: 0.91372
Core_0_L1D_total_miss 33735110
Core_0_L1D_loads 346116784
Core_0_L1D_load_hit 314866168 L1D_load_Hit Ratio: 0.90971
Core_0_L1D_load_miss 31250616
Core_0_L1D_RFOs 43903237
Core_0_L1D_RFO_hit 41418743 L1D_RFO_Hit Ratio: 0.94341
Core_0_L1D_RFO_miss 2484494
Core_0_L1D_prefetches 991026
Core_0_L1D_prefetch_hit 991026 L1D_prefetch_Hit Ratio: 1.00000
Core_0_L1D_prefetch_miss 0
Core_0_L1D_writebacks 0
Core_0_L1D_writeback_hit 0 L1D_writeback_Hit Ratio: -nan
Core_0_L1D_writeback_miss 0
Core_0_L1D_prefetch_requested 155629333
Core_0_L1D_prefetch_issued 82484836
Core_0_L1D_prefetch_useful 0 L1D_Useful Ratio: 0.00000
Core_0_L1D_prefetch_useless 0
Core_0_L1D_prefetch_late 0
Core_0_L1D_average_miss_latency 129.51935

Core_0_L1I_total_access 230125017
Core_0_L1I_total_hit 230120116 L1I_total_Hit Ratio: 0.99998
Core_0_L1I_total_miss 4901
Core_0_L1I_loads 230125017
Core_0_L1I_load_hit 230120116 L1I_load_Hit Ratio: 0.99998
Core_0_L1I_load_miss 4901
Core_0_L1I_RFOs 0
Core_0_L1I_RFO_hit 0 L1I_RFO_Hit Ratio: -nan
Core_0_L1I_RFO_miss 0
Core_0_L1I_prefetches 0
Core_0_L1I_prefetch_hit 0 L1I_prefetch_Hit Ratio: -nan
Core_0_L1I_prefetch_miss 0
Core_0_L1I_writebacks 0
Core_0_L1I_writeback_hit 0 L1I_writeback_Hit Ratio: -nan
Core_0_L1I_writeback_miss 0
Core_0_L1I_prefetch_requested 0
Core_0_L1I_prefetch_issued 0
Core_0_L1I_prefetch_useful 0 L1I_Useful Ratio: -nan
Core_0_L1I_prefetch_useless 0
Core_0_L1I_prefetch_late 0
Core_0_L1I_average_miss_latency 282.61416

Core_0_L2C_total_access 118482418
Core_0_L2C_total_hit 105322833 L2C_total_Hit Ratio: 0.88893
Core_0_L2C_total_miss 13159585
Core_0_L2C_loads 31255439
Core_0_L2C_load_hit 21016935 L2C_load_Hit Ratio: 0.67242
Core_0_L2C_load_miss 10238504
Core_0_L2C_RFOs 2484494
Core_0_L2C_RFO_hit 375444 L2C_RFO_Hit Ratio: 0.15111
Core_0_L2C_RFO_miss 2109050
Core_0_L2C_prefetches 73794623
Core_0_L2C_prefetch_hit 72987500 L2C_prefetch_Hit Ratio: 0.98906
Core_0_L2C_prefetch_miss 807123
Core_0_L2C_writebacks 10947862
Core_0_L2C_writeback_hit 10942954 L2C_writeback_Hit Ratio: 0.99955
Core_0_L2C_writeback_miss 4908
Core_0_L2C_prefetch_requested 40910792
Core_0_L2C_prefetch_issued 1350616
Core_0_L2C_prefetch_useful 806780 L2C_Useful Ratio: 0.59734
Core_0_L2C_prefetch_useless 743
Core_0_L2C_prefetch_late 71782
Core_0_L2C_average_miss_latency 296.75924

Core_0_LLC_total_access 21348360
Core_0_LLC_total_hit 9745901 LLC_total_Hit Ratio: 0.45652
Core_0_LLC_total_miss 11602459
Core_0_LLC_loads 10166693
Core_0_LLC_load_hit 888259 LLC_load_Hit Ratio: 0.08737
Core_0_LLC_load_miss 9278434
Core_0_LLC_RFOs 2109050
Core_0_LLC_RFO_hit 8097 LLC_RFO_Hit Ratio: 0.00384
Core_0_LLC_RFO_miss 2100953
Core_0_LLC_prefetches 1245316
Core_0_LLC_prefetch_hit 1125913 LLC_prefetch_Hit Ratio: 0.90412
Core_0_LLC_prefetch_miss 119403
Core_0_LLC_writebacks 7827301
Core_0_LLC_writeback_hit 7723632 LLC_writeback_Hit Ratio: 0.98676
Core_0_LLC_writeback_miss 103669
Core_0_LLC_prefetch_requested 0
Core_0_LLC_prefetch_issued 0
Core_0_LLC_prefetch_useful 11282 LLC_Useful Ratio: inf
Core_0_LLC_prefetch_useless 105941
Core_0_LLC_prefetch_late 2141
Core_0_LLC_average_miss_latency 279.79575

Core_0_major_page_fault 0
Core_0_minor_page_fault 76848

CPU 0 L1D next line prefetcher final stats
Prefetcher final stats
Training Unit Size: 4731
Addr table size: 4847098 4847100


Triggers: 10256117
No Prediction: 4885037 47.63047
Stream end: 350645
No translation: 317220355 3092.98690
Predictions: 1350616 13.16888


Stream divergence: 144128 1.40529
Stream divergence -- new stream: 0
Channel_0_RQ_row_buffer_hit 6402372
Channel_0_RQ_row_buffer_miss 5095725
Channel_0_WQ_row_buffer_hit 2386858
Channel_0_WQ_row_buffer_miss 4328009
Channel_0_WQ_full 224
Channel_0_dbus_congested 6410499

avg_congested_cycle 10

EzSearch AVG IPC :0.71095: L2-Pf-HR :0.98906 : L2-HR :0.88893 Uful:0.59734
     > Finished combination: TraceType=770-tot Sim:1617000000 Prefetcher=L2isb_ideal L1=isb_ideal
