TRACE: [1183000000][GPT-Neo-1_3B]_[h16][s1024][d128] Warmup: 2000000 NumTraces: 1183000000
L1:berti:L2:berti
*************************************************
   ChampSim Multicore Out-of-Order Simulator
   Last compiled: Oct 27 2024 09:30:16
*************************************************

trace_0 770-tot_memTraces_v3/memTraces[1183000000][GPT-Neo-1_3B]_[h16][s1024][d128].champsim.xz
CPU 0 L1D Berti prefetcher
CPU 0 L2C Berti prefetcher
MAIN.cc ln 751 stats print skipped
CPU  0 inst:    1000001 cyc:     500081 now IPC :1.99968: AVG IPC :1.99968: L2-Pf-HR :0.65310: L2-HR :0.67971: (Sim:0h0m22s) 
CPU  0 inst:    2000002 cyc:     986254 now IPC :2.05688: AVG IPC :2.02788: L2-Pf-HR :0.72696: L2-HR :0.73913: (Sim:0h0m45s) 

Warmup complete CPU  0 instructions:    2000002 cycles:     986254 (Simulation time: 0 hr 0 min 45 sec) 

CPU  0 inst:    3000000 cyc:    1461922 now IPC :2.10230: AVG IPC :2.10230: L2-Pf-HR :0.82879: L2-HR :0.83640: (Sim:0h1m3s) 
CPU  0 inst:    4000000 cyc:    1937293 now IPC :2.10362: AVG IPC :2.10296: L2-Pf-HR :0.82926: L2-HR :0.83794: (Sim:0h1m21s) 
CPU  0 inst:    5000003 cyc:    2415470 now IPC :2.09128: AVG IPC :2.09905: L2-Pf-HR :0.82962: L2-HR :0.83819: (Sim:0h1m40s) 
CPU  0 inst:    6000001 cyc:    2891120 now IPC :2.10238: AVG IPC :2.09988: L2-Pf-HR :0.83058: L2-HR :0.83952: (Sim:0h1m58s) 
CPU  0 inst:    7000002 cyc:    3371169 now IPC :2.08312: AVG IPC :2.09651: L2-Pf-HR :0.83240: L2-HR :0.84091: (Sim:0h2m16s) 
CPU  0 inst:    8000005 cyc:    3846204 now IPC :2.10511: AVG IPC :2.09794: L2-Pf-HR :0.83299: L2-HR :0.84156: (Sim:0h2m35s) 
CPU  0 inst:    9000005 cyc:    4315609 now IPC :2.13036: AVG IPC :2.10251: L2-Pf-HR :0.83210: L2-HR :0.84113: (Sim:0h2m53s) 
CPU  0 inst:   10000000 cyc:    4794846 now IPC :2.08664: AVG IPC :2.10051: L2-Pf-HR :0.83154: L2-HR :0.84074: (Sim:0h3m11s) 
CPU  0 inst:   11000005 cyc:    5271657 now IPC :2.09728: AVG IPC :2.10015: L2-Pf-HR :0.83043: L2-HR :0.83978: (Sim:0h3m30s) 
CPU  0 inst:   12000004 cyc:    5750969 now IPC :2.08632: AVG IPC :2.09876: L2-Pf-HR :0.83226: L2-HR :0.84145: (Sim:0h3m48s) 
CPU  0 inst:   13000000 cyc:    6372403 now IPC :1.60917: AVG IPC :2.04228: L2-Pf-HR :0.83140: L2-HR :0.83711: (Sim:0h4m8s) 
CPU  0 inst:   14000002 cyc:    6860055 now IPC :2.05065: AVG IPC :2.04297: L2-Pf-HR :0.83118: L2-HR :0.83751: (Sim:0h4m26s) 
CPU  0 inst:   15000002 cyc:    7325212 now IPC :2.14981: AVG IPC :2.05081: L2-Pf-HR :0.83198: L2-HR :0.83870: (Sim:0h4m44s) 
CPU  0 inst:   16000001 cyc:    7791162 now IPC :2.14615: AVG IPC :2.05734: L2-Pf-HR :0.83238: L2-HR :0.83942: (Sim:0h5m2s) 
CPU  0 inst:   17000000 cyc:    8253266 now IPC :2.16401: AVG IPC :2.06412: L2-Pf-HR :0.83261: L2-HR :0.84005: (Sim:0h5m20s) 
CPU  0 inst:   18000001 cyc:    8716062 now IPC :2.16078: AVG IPC :2.06991: L2-Pf-HR :0.83284: L2-HR :0.84078: (Sim:0h5m38s) 
CPU  0 inst:   19000000 cyc:    9179219 now IPC :2.15909: AVG IPC :2.07495: L2-Pf-HR :0.83307: L2-HR :0.84124: (Sim:0h5m56s) 
CPU  0 inst:   20000005 cyc:    9637976 now IPC :2.17981: AVG IPC :2.08051: L2-Pf-HR :0.83315: L2-HR :0.84156: (Sim:0h6m15s) 
CPU  0 inst:   21000004 cyc:   10096532 now IPC :2.18076: AVG IPC :2.08556: L2-Pf-HR :0.83330: L2-HR :0.84200: (Sim:0h6m33s) 
CPU  0 inst:   22000001 cyc:   10557566 now IPC :2.16903: AVG IPC :2.08958: L2-Pf-HR :0.83310: L2-HR :0.84214: (Sim:0h6m51s) 
CPU  0 inst:   23000002 cyc:   11014401 now IPC :2.18898: AVG IPC :2.09411: L2-Pf-HR :0.83314: L2-HR :0.84250: (Sim:0h7m8s) 
CPU  0 inst:   24000002 cyc:   11589819 now IPC :1.73787: AVG IPC :2.07477: L2-Pf-HR :0.83339: L2-HR :0.84183: (Sim:0h7m27s) 
CPU  0 inst:   25000001 cyc:   12097138 now IPC :1.97114: AVG IPC :2.07004: L2-Pf-HR :0.83400: L2-HR :0.84246: (Sim:0h7m45s) 
CPU  0 inst:   26000004 cyc:   12563248 now IPC :2.14542: AVG IPC :2.07308: L2-Pf-HR :0.83595: L2-HR :0.84439: (Sim:0h8m3s) 
CPU  0 inst:   27000002 cyc:   13027800 now IPC :2.15261: AVG IPC :2.07615: L2-Pf-HR :0.83801: L2-HR :0.84643: (Sim:0h8m21s) 
CPU  0 inst:   28000000 cyc:   13489222 now IPC :2.16721: AVG IPC :2.07951: L2-Pf-HR :0.84005: L2-HR :0.84853: (Sim:0h8m39s) 
CPU  0 inst:   29000003 cyc:   13956637 now IPC :2.13943: AVG IPC :2.08167: L2-Pf-HR :0.84169: L2-HR :0.85018: (Sim:0h8m58s) 
CPU  0 inst:   30000001 cyc:   14416587 now IPC :2.17414: AVG IPC :2.08483: L2-Pf-HR :0.84332: L2-HR :0.85189: (Sim:0h9m16s) 
CPU  0 inst:   31000005 cyc:   14882476 now IPC :2.14644: AVG IPC :2.08690: L2-Pf-HR :0.84502: L2-HR :0.85354: (Sim:0h9m34s) 
CPU  0 inst:   32000004 cyc:   15542984 now IPC :1.51398: AVG IPC :2.06090: L2-Pf-HR :0.84466: L2-HR :0.85170: (Sim:0h9m53s) 
CPU  0 inst:   33000001 cyc:   16086770 now IPC :1.83895: AVG IPC :2.05291: L2-Pf-HR :0.84367: L2-HR :0.85080: (Sim:0h10m12s) 
CPU  0 inst:   34000003 cyc:   16602631 now IPC :1.93851: AVG IPC :2.04913: L2-Pf-HR :0.84313: L2-HR :0.85024: (Sim:0h10m31s) 
CPU  0 inst:   35000002 cyc:   17088354 now IPC :2.05878: AVG IPC :2.04942: L2-Pf-HR :0.84277: L2-HR :0.84994: (Sim:0h10m49s) 
CPU  0 inst:   36000003 cyc:   17590754 now IPC :1.99045: AVG IPC :2.04764: L2-Pf-HR :0.84246: L2-HR :0.84959: (Sim:0h11m8s) 
CPU  0 inst:   37000003 cyc:   18075945 now IPC :2.06104: AVG IPC :2.04802: L2-Pf-HR :0.84205: L2-HR :0.84928: (Sim:0h11m26s) 
CPU  0 inst:   38000004 cyc:   18573979 now IPC :2.00790: AVG IPC :2.04688: L2-Pf-HR :0.84170: L2-HR :0.84897: (Sim:0h11m45s) 
CPU  0 inst:   39000004 cyc:   19073072 now IPC :2.00363: AVG IPC :2.04569: L2-Pf-HR :0.84140: L2-HR :0.84867: (Sim:0h12m4s) 
CPU  0 inst:   40000003 cyc:   19557205 now IPC :2.06555: AVG IPC :2.04621: L2-Pf-HR :0.84109: L2-HR :0.84842: (Sim:0h12m22s) 
CPU  0 inst:   41000001 cyc:   20049447 now IPC :2.03152: AVG IPC :2.04583: L2-Pf-HR :0.84069: L2-HR :0.84809: (Sim:0h12m41s) 
CPU  0 inst:   42000004 cyc:   20540008 now IPC :2.03849: AVG IPC :2.04564: L2-Pf-HR :0.84038: L2-HR :0.84782: (Sim:0h12m59s) 
CPU  0 inst:   43000000 cyc:   21031630 now IPC :2.03408: AVG IPC :2.04536: L2-Pf-HR :0.84008: L2-HR :0.84760: (Sim:0h13m18s) 
CPU  0 inst:   44000003 cyc:   21672486 now IPC :1.56042: AVG IPC :2.03034: L2-Pf-HR :0.83996: L2-HR :0.84653: (Sim:0h13m38s) 
CPU  0 inst:   45000002 cyc:   22174746 now IPC :1.99100: AVG IPC :2.02940: L2-Pf-HR :0.83953: L2-HR :0.84631: (Sim:0h13m56s) 
CPU  0 inst:   46000005 cyc:   22656080 now IPC :2.07757: AVG IPC :2.03047: L2-Pf-HR :0.83950: L2-HR :0.84635: (Sim:0h14m14s) 
CPU  0 inst:   47000001 cyc:   23124528 now IPC :2.13470: AVG IPC :2.03268: L2-Pf-HR :0.83946: L2-HR :0.84645: (Sim:0h14m32s) 
CPU  0 inst:   48000001 cyc:   23588988 now IPC :2.15304: AVG IPC :2.03515: L2-Pf-HR :0.83952: L2-HR :0.84659: (Sim:0h14m51s) 
CPU  0 inst:   49000001 cyc:   24052637 now IPC :2.15680: AVG IPC :2.03760: L2-Pf-HR :0.83943: L2-HR :0.84670: (Sim:0h15m9s) 
CPU  0 inst:   50000001 cyc:   24518806 now IPC :2.14514: AVG IPC :2.03973: L2-Pf-HR :0.83948: L2-HR :0.84686: (Sim:0h15m27s) 
CPU  0 inst:   51000002 cyc:   24983636 now IPC :2.15133: AVG IPC :2.04189: L2-Pf-HR :0.83950: L2-HR :0.84694: (Sim:0h15m45s) 
CPU  0 inst:   52000002 cyc:   25443585 now IPC :2.17415: AVG IPC :2.04438: L2-Pf-HR :0.83941: L2-HR :0.84693: (Sim:0h16m3s) 
CPU  0 inst:   53000004 cyc:   25906931 now IPC :2.15822: AVG IPC :2.04649: L2-Pf-HR :0.83930: L2-HR :0.84691: (Sim:0h16m21s) 
CPU  0 inst:   54000002 cyc:   26365566 now IPC :2.18038: AVG IPC :2.04891: L2-Pf-HR :0.83925: L2-HR :0.84696: (Sim:0h16m39s) 
CPU  0 inst:   55000004 cyc:   26822579 now IPC :2.18813: AVG IPC :2.05138: L2-Pf-HR :0.83927: L2-HR :0.84709: (Sim:0h16m56s) 
CPU  0 inst:   56000004 cyc:   27435888 now IPC :1.63050: AVG IPC :2.04162: L2-Pf-HR :0.83955: L2-HR :0.84678: (Sim:0h17m15s) 
CPU  0 inst:   57000000 cyc:   27916175 now IPC :2.08208: AVG IPC :2.04234: L2-Pf-HR :0.83992: L2-HR :0.84721: (Sim:0h17m33s) 
CPU  0 inst:   58000002 cyc:   28382791 now IPC :2.14309: AVG IPC :2.04405: L2-Pf-HR :0.84054: L2-HR :0.84787: (Sim:0h17m51s) 
CPU  0 inst:   59000004 cyc:   28844848 now IPC :2.16424: AVG IPC :2.04605: L2-Pf-HR :0.84133: L2-HR :0.84870: (Sim:0h18m9s) 
CPU  0 inst:   60000004 cyc:   29309966 now IPC :2.14999: AVG IPC :2.04775: L2-Pf-HR :0.84219: L2-HR :0.84958: (Sim:0h18m27s) 
CPU  0 inst:   61000002 cyc:   29779910 now IPC :2.12791: AVG IPC :2.04906: L2-Pf-HR :0.84298: L2-HR :0.85039: (Sim:0h18m45s) 
CPU  0 inst:   62000003 cyc:   30245957 now IPC :2.14571: AVG IPC :2.05060: L2-Pf-HR :0.84358: L2-HR :0.85102: (Sim:0h19m3s) 
CPU  0 inst:   63000000 cyc:   30708816 now IPC :2.16048: AVG IPC :2.05231: L2-Pf-HR :0.84436: L2-HR :0.85179: (Sim:0h19m21s) 
CPU  0 inst:   64000004 cyc:   31412220 now IPC :1.42166: AVG IPC :2.03773: L2-Pf-HR :0.84365: L2-HR :0.85041: (Sim:0h19m41s) 
CPU  0 inst:   65000001 cyc:   31933538 now IPC :1.91821: AVG IPC :2.03572: L2-Pf-HR :0.84326: L2-HR :0.85009: (Sim:0h20m0s) 
CPU  0 inst:   66000003 cyc:   32427694 now IPC :2.02366: AVG IPC :2.03553: L2-Pf-HR :0.84301: L2-HR :0.84989: (Sim:0h20m18s) 
CPU  0 inst:   67000003 cyc:   32931766 now IPC :1.98384: AVG IPC :2.03471: L2-Pf-HR :0.84279: L2-HR :0.84968: (Sim:0h20m37s) 
CPU  0 inst:   68000000 cyc:   33417193 now IPC :2.06004: AVG IPC :2.03509: L2-Pf-HR :0.84256: L2-HR :0.84950: (Sim:0h20m55s) 
CPU  0 inst:   69000004 cyc:   33911617 now IPC :2.02256: AVG IPC :2.03491: L2-Pf-HR :0.84235: L2-HR :0.84932: (Sim:0h21m14s) 
CPU  0 inst:   70000000 cyc:   34410293 now IPC :2.00530: AVG IPC :2.03446: L2-Pf-HR :0.84224: L2-HR :0.84919: (Sim:0h21m33s) 
CPU  0 inst:   71000005 cyc:   34894756 now IPC :2.06415: AVG IPC :2.03489: L2-Pf-HR :0.84211: L2-HR :0.84910: (Sim:0h21m51s) 
CPU  0 inst:   72000001 cyc:   35387351 now IPC :2.03006: AVG IPC :2.03482: L2-Pf-HR :0.84188: L2-HR :0.84893: (Sim:0h22m10s) 
CPU  0 inst:   73000004 cyc:   35870576 now IPC :2.06944: AVG IPC :2.03530: L2-Pf-HR :0.84164: L2-HR :0.84874: (Sim:0h22m28s) 
CPU  0 inst:   74000001 cyc:   36356340 now IPC :2.05861: AVG IPC :2.03562: L2-Pf-HR :0.84147: L2-HR :0.84861: (Sim:0h22m47s) 
CPU  0 inst:   75000004 cyc:   36845146 now IPC :2.04581: AVG IPC :2.03576: L2-Pf-HR :0.84132: L2-HR :0.84851: (Sim:0h23m5s) 
CPU  0 inst:   76000001 cyc:   37499032 now IPC :1.52931: AVG IPC :2.02669: L2-Pf-HR :0.84113: L2-HR :0.84787: (Sim:0h23m25s) 
CPU  0 inst:   77000002 cyc:   37993622 now IPC :2.02188: AVG IPC :2.02662: L2-Pf-HR :0.84100: L2-HR :0.84782: (Sim:0h23m44s) 
CPU  0 inst:   78000004 cyc:   38466448 now IPC :2.11495: AVG IPC :2.02774: L2-Pf-HR :0.84093: L2-HR :0.84782: (Sim:0h24m2s) 
CPU  0 inst:   79000000 cyc:   38932360 now IPC :2.14632: AVG IPC :2.02919: L2-Pf-HR :0.84093: L2-HR :0.84787: (Sim:0h24m20s) 
CPU  0 inst:   80000001 cyc:   39398990 now IPC :2.14303: AVG IPC :2.03058: L2-Pf-HR :0.84096: L2-HR :0.84795: (Sim:0h24m38s) 
CPU  0 inst:   81000004 cyc:   39868453 now IPC :2.13010: AVG IPC :2.03178: L2-Pf-HR :0.84092: L2-HR :0.84799: (Sim:0h24m56s) 
CPU  0 inst:   82000000 cyc:   40330865 now IPC :2.16256: AVG IPC :2.03332: L2-Pf-HR :0.84093: L2-HR :0.84809: (Sim:0h25m14s) 
CPU  0 inst:   83000000 cyc:   40795950 now IPC :2.15014: AVG IPC :2.03468: L2-Pf-HR :0.84090: L2-HR :0.84810: (Sim:0h25m32s) 
CPU  0 inst:   84000000 cyc:   41256380 now IPC :2.17188: AVG IPC :2.03625: L2-Pf-HR :0.84083: L2-HR :0.84809: (Sim:0h25m50s) 
CPU  0 inst:   85000002 cyc:   41719100 now IPC :2.16114: AVG IPC :2.03767: L2-Pf-HR :0.84078: L2-HR :0.84810: (Sim:0h26m8s) 
CPU  0 inst:   86000004 cyc:   42179195 now IPC :2.17347: AVG IPC :2.03918: L2-Pf-HR :0.84073: L2-HR :0.84811: (Sim:0h26m25s) 
CPU  0 inst:   87000003 cyc:   42705642 now IPC :1.89952: AVG IPC :2.03742: L2-Pf-HR :0.84076: L2-HR :0.84794: (Sim:0h26m44s) 
CPU  0 inst:   88000000 cyc:   43240535 now IPC :1.86953: AVG IPC :2.03530: L2-Pf-HR :0.84087: L2-HR :0.84797: (Sim:0h27m2s) 
CPU  0 inst:   89000003 cyc:   43707421 now IPC :2.14186: AVG IPC :2.03646: L2-Pf-HR :0.84130: L2-HR :0.84841: (Sim:0h27m20s) 
CPU  0 inst:   90000003 cyc:   44169214 now IPC :2.16547: AVG IPC :2.03784: L2-Pf-HR :0.84186: L2-HR :0.84899: (Sim:0h27m38s) 
CPU  0 inst:   91000004 cyc:   44637388 now IPC :2.13596: AVG IPC :2.03889: L2-Pf-HR :0.84235: L2-HR :0.84951: (Sim:0h27m56s) 
CPU  0 inst:   92000003 cyc:   45099656 now IPC :2.16325: AVG IPC :2.04020: L2-Pf-HR :0.84291: L2-HR :0.85009: (Sim:0h28m14s) 
CPU  0 inst:   93000002 cyc:   45566081 now IPC :2.14397: AVG IPC :2.04128: L2-Pf-HR :0.84343: L2-HR :0.85062: (Sim:0h28m32s) 
CPU  0 inst:   94000001 cyc:   46034240 now IPC :2.13602: AVG IPC :2.04227: L2-Pf-HR :0.84394: L2-HR :0.85112: (Sim:0h28m46s) 
CPU  0 inst:   95000002 cyc:   46668812 now IPC :1.57587: AVG IPC :2.03579: L2-Pf-HR :0.84391: L2-HR :0.85071: (Sim:0h28m55s) 
CPU  0 inst:   96000004 cyc:   47236565 now IPC :1.76133: AVG IPC :2.03242: L2-Pf-HR :0.84357: L2-HR :0.85033: (Sim:0h29m4s) 
CPU  0 inst:   97000003 cyc:   47743293 now IPC :1.97344: AVG IPC :2.03178: L2-Pf-HR :0.84341: L2-HR :0.85021: (Sim:0h29m15s) 
CPU  0 inst:   98000005 cyc:   48245425 now IPC :1.99151: AVG IPC :2.03135: L2-Pf-HR :0.84327: L2-HR :0.85007: (Sim:0h29m26s) 
CPU  0 inst:   99000003 cyc:   48736572 now IPC :2.03605: AVG IPC :2.03140: L2-Pf-HR :0.84306: L2-HR :0.84989: (Sim:0h29m37s) 
CPU  0 inst:  100000001 cyc:   49223590 now IPC :2.05331: AVG IPC :2.03162: L2-Pf-HR :0.84292: L2-HR :0.84980: (Sim:0h29m57s) 
CPU  0 inst:  101000002 cyc:   49724224 now IPC :1.99747: AVG IPC :2.03127: L2-Pf-HR :0.84276: L2-HR :0.84966: (Sim:0h30m16s) 
CPU  0 inst:  102000000 cyc:   50213273 now IPC :2.04478: AVG IPC :2.03140: L2-Pf-HR :0.84267: L2-HR :0.84958: (Sim:0h30m35s) 
CPU  0 inst:  103000003 cyc:   50701829 now IPC :2.04685: AVG IPC :2.03156: L2-Pf-HR :0.84252: L2-HR :0.84946: (Sim:0h30m53s) 
CPU  0 inst:  104000005 cyc:   51187192 now IPC :2.06032: AVG IPC :2.03183: L2-Pf-HR :0.84238: L2-HR :0.84935: (Sim:0h31m11s) 
CPU  0 inst:  105000003 cyc:   51686198 now IPC :2.00398: AVG IPC :2.03156: L2-Pf-HR :0.84223: L2-HR :0.84921: (Sim:0h31m24s) 
CPU  0 inst:  106000002 cyc:   52181668 now IPC :2.01828: AVG IPC :2.03143: L2-Pf-HR :0.84208: L2-HR :0.84910: (Sim:0h31m33s) 
CPU  0 inst:  107000005 cyc:   52809321 now IPC :1.59324: AVG IPC :2.02612: L2-Pf-HR :0.84199: L2-HR :0.84870: (Sim:0h31m42s) 
CPU  0 inst:  108000002 cyc:   53343117 now IPC :1.87337: AVG IPC :2.02457: L2-Pf-HR :0.84189: L2-HR :0.84861: (Sim:0h31m51s) 
CPU  0 inst:  109000001 cyc:   53829534 now IPC :2.05585: AVG IPC :2.02486: L2-Pf-HR :0.84182: L2-HR :0.84857: (Sim:0h32m0s) 
CPU  0 inst:  110000000 cyc:   54295100 now IPC :2.14792: AVG IPC :2.02593: L2-Pf-HR :0.84180: L2-HR :0.84860: (Sim:0h32m8s) 
CPU  0 inst:  111000003 cyc:   54760073 now IPC :2.15067: AVG IPC :2.02701: L2-Pf-HR :0.84178: L2-HR :0.84862: (Sim:0h32m17s) 
CPU  0 inst:  112000000 cyc:   55221399 now IPC :2.16766: AVG IPC :2.02821: L2-Pf-HR :0.84174: L2-HR :0.84866: (Sim:0h32m26s) 
CPU  0 inst:  113000004 cyc:   55687713 now IPC :2.14449: AVG IPC :2.02920: L2-Pf-HR :0.84175: L2-HR :0.84872: (Sim:0h32m34s) 
CPU  0 inst:  114000000 cyc:   56154566 now IPC :2.14199: AVG IPC :2.03015: L2-Pf-HR :0.84180: L2-HR :0.84878: (Sim:0h32m43s) 
CPU  0 inst:  115000004 cyc:   56619290 now IPC :2.15182: AVG IPC :2.03117: L2-Pf-HR :0.84172: L2-HR :0.84875: (Sim:0h32m51s) 
CPU  0 inst:  116000001 cyc:   57082330 now IPC :2.15963: AVG IPC :2.03223: L2-Pf-HR :0.84166: L2-HR :0.84875: (Sim:0h33m0s) 
CPU  0 inst:  117000005 cyc:   57548937 now IPC :2.14314: AVG IPC :2.03314: L2-Pf-HR :0.84167: L2-HR :0.84879: (Sim:0h33m9s) 
CPU  0 inst:  118000000 cyc:   58005025 now IPC :2.19255: AVG IPC :2.03442: L2-Pf-HR :0.84163: L2-HR :0.84879: (Sim:0h33m17s) 
CPU  0 inst:  119000000 cyc:   58604851 now IPC :1.66715: AVG IPC :2.03059: L2-Pf-HR :0.84171: L2-HR :0.84862: (Sim:0h33m27s) 
CPU  0 inst:  120000004 cyc:   59086113 now IPC :2.07788: AVG IPC :2.03099: L2-Pf-HR :0.84178: L2-HR :0.84875: (Sim:0h33m35s) 
CPU  0 inst:  121000002 cyc:   59555335 now IPC :2.13118: AVG IPC :2.03179: L2-Pf-HR :0.84207: L2-HR :0.84906: (Sim:0h33m44s) 
CPU  0 inst:  122000001 cyc:   60017504 now IPC :2.16371: AVG IPC :2.03282: L2-Pf-HR :0.84242: L2-HR :0.84945: (Sim:0h33m53s) 
CPU  0 inst:  123000004 cyc:   60479968 now IPC :2.16234: AVG IPC :2.03383: L2-Pf-HR :0.84283: L2-HR :0.84988: (Sim:0h34m1s) 
CPU  0 inst:  124000004 cyc:   60943466 now IPC :2.15751: AVG IPC :2.03478: L2-Pf-HR :0.84318: L2-HR :0.85026: (Sim:0h34m10s) 
CPU  0 inst:  125000002 cyc:   61408775 now IPC :2.14911: AVG IPC :2.03566: L2-Pf-HR :0.84350: L2-HR :0.85061: (Sim:0h34m18s) 
CPU  0 inst:  126000004 cyc:   61870670 now IPC :2.16500: AVG IPC :2.03665: L2-Pf-HR :0.84387: L2-HR :0.85098: (Sim:0h34m27s) 
CPU  0 inst:  127000002 cyc:   62573837 now IPC :1.42213: AVG IPC :2.02963: L2-Pf-HR :0.84356: L2-HR :0.85034: (Sim:0h34m36s) 
CPU  0 inst:  128000001 cyc:   63085619 now IPC :1.95396: AVG IPC :2.02901: L2-Pf-HR :0.84335: L2-HR :0.85019: (Sim:0h34m45s) 
CPU  0 inst:  129000003 cyc:   63586006 now IPC :1.99846: AVG IPC :2.02876: L2-Pf-HR :0.84323: L2-HR :0.85008: (Sim:0h34m54s) 
CPU  0 inst:  130000002 cyc:   64075506 now IPC :2.04290: AVG IPC :2.02887: L2-Pf-HR :0.84312: L2-HR :0.84998: (Sim:0h35m3s) 
CPU  0 inst:  131000004 cyc:   64573735 now IPC :2.00711: AVG IPC :2.02870: L2-Pf-HR :0.84301: L2-HR :0.84989: (Sim:0h35m12s) 
CPU  0 inst:  132000004 cyc:   65073713 now IPC :2.00009: AVG IPC :2.02848: L2-Pf-HR :0.84290: L2-HR :0.84980: (Sim:0h35m21s) 
CPU  0 inst:  133000000 cyc:   65560648 now IPC :2.05365: AVG IPC :2.02867: L2-Pf-HR :0.84283: L2-HR :0.84975: (Sim:0h35m30s) 
CPU  0 inst:  134000003 cyc:   66054889 now IPC :2.02331: AVG IPC :2.02863: L2-Pf-HR :0.84273: L2-HR :0.84966: (Sim:0h35m39s) 
CPU  0 inst:  135000004 cyc:   66543320 now IPC :2.04737: AVG IPC :2.02877: L2-Pf-HR :0.84262: L2-HR :0.84958: (Sim:0h35m48s) 
CPU  0 inst:  136000003 cyc:   67043707 now IPC :1.99845: AVG IPC :2.02854: L2-Pf-HR :0.84249: L2-HR :0.84947: (Sim:0h35m57s) 
CPU  0 inst:  137000002 cyc:   67534295 now IPC :2.03837: AVG IPC :2.02861: L2-Pf-HR :0.84235: L2-HR :0.84935: (Sim:0h36m6s) 
CPU  0 inst:  138000003 cyc:   68014167 now IPC :2.08389: AVG IPC :2.02901: L2-Pf-HR :0.84227: L2-HR :0.84930: (Sim:0h36m15s) 
CPU  0 inst:  139000000 cyc:   68667349 now IPC :1.53096: AVG IPC :2.02420: L2-Pf-HR :0.84222: L2-HR :0.84895: (Sim:0h36m25s) 
CPU  0 inst:  140000001 cyc:   69165971 now IPC :2.00553: AVG IPC :2.02406: L2-Pf-HR :0.84211: L2-HR :0.84889: (Sim:0h36m34s) 
CPU  0 inst:  141000000 cyc:   69639840 now IPC :2.11029: AVG IPC :2.02466: L2-Pf-HR :0.84209: L2-HR :0.84890: (Sim:0h36m42s) 
CPU  0 inst:  142000000 cyc:   70106492 now IPC :2.14292: AVG IPC :2.02546: L2-Pf-HR :0.84207: L2-HR :0.84889: (Sim:0h36m51s) 
CPU  0 inst:  143000000 cyc:   70576043 now IPC :2.12969: AVG IPC :2.02616: L2-Pf-HR :0.84203: L2-HR :0.84888: (Sim:0h36m59s) 
CPU  0 inst:  144000002 cyc:   71047553 now IPC :2.12085: AVG IPC :2.02680: L2-Pf-HR :0.84205: L2-HR :0.84892: (Sim:0h37m8s) 
CPU  0 inst:  145000000 cyc:   71516087 now IPC :2.13431: AVG IPC :2.02751: L2-Pf-HR :0.84203: L2-HR :0.84895: (Sim:0h37m17s) 
CPU  0 inst:  146000001 cyc:   71981264 now IPC :2.14972: AVG IPC :2.02831: L2-Pf-HR :0.84198: L2-HR :0.84894: (Sim:0h37m26s) 
CPU  0 inst:  147000005 cyc:   72444105 now IPC :2.16058: AVG IPC :2.02917: L2-Pf-HR :0.84195: L2-HR :0.84894: (Sim:0h37m34s) 
CPU  0 inst:  148000005 cyc:   72912436 now IPC :2.13524: AVG IPC :2.02986: L2-Pf-HR :0.84190: L2-HR :0.84892: (Sim:0h37m43s) 
CPU  0 inst:  149000001 cyc:   73375030 now IPC :2.16171: AVG IPC :2.03070: L2-Pf-HR :0.84186: L2-HR :0.84893: (Sim:0h37m51s) 
CPU  0 inst:  150000000 cyc:   73837421 now IPC :2.16267: AVG IPC :2.03154: L2-Pf-HR :0.84198: L2-HR :0.84904: (Sim:0h38m0s) 
CPU  0 inst:  151000005 cyc:   74454388 now IPC :1.62084: AVG IPC :2.02809: L2-Pf-HR :0.84193: L2-HR :0.84882: (Sim:0h38m9s) 
CPU  0 inst:  152000002 cyc:   74927434 now IPC :2.11395: AVG IPC :2.02864: L2-Pf-HR :0.84217: L2-HR :0.84907: (Sim:0h38m18s) 
CPU  0 inst:  153000000 cyc:   75393395 now IPC :2.14610: AVG IPC :2.02938: L2-Pf-HR :0.84245: L2-HR :0.84936: (Sim:0h38m27s) 
CPU  0 inst:  154000004 cyc:   75857198 now IPC :2.15610: AVG IPC :2.03016: L2-Pf-HR :0.84277: L2-HR :0.84970: (Sim:0h38m35s) 
CPU  0 inst:  155000005 cyc:   76321422 now IPC :2.15413: AVG IPC :2.03092: L2-Pf-HR :0.84307: L2-HR :0.85002: (Sim:0h38m44s) 
CPU  0 inst:  156000005 cyc:   76787438 now IPC :2.14585: AVG IPC :2.03163: L2-Pf-HR :0.84337: L2-HR :0.85033: (Sim:0h38m53s) 
CPU  0 inst:  157000000 cyc:   77252446 now IPC :2.15049: AVG IPC :2.03236: L2-Pf-HR :0.84365: L2-HR :0.85062: (Sim:0h39m1s) 
CPU  0 inst:  158000000 cyc:   77839004 now IPC :1.70486: AVG IPC :2.02986: L2-Pf-HR :0.84366: L2-HR :0.85044: (Sim:0h39m11s) 
CPU  0 inst:  159000000 cyc:   78424214 now IPC :1.70879: AVG IPC :2.02743: L2-Pf-HR :0.84354: L2-HR :0.85023: (Sim:0h39m20s) 
CPU  0 inst:  160000005 cyc:   78943699 now IPC :1.92499: AVG IPC :2.02675: L2-Pf-HR :0.84342: L2-HR :0.85013: (Sim:0h39m29s) 
CPU  0 inst:  161000005 cyc:   79440737 now IPC :2.01192: AVG IPC :2.02665: L2-Pf-HR :0.84335: L2-HR :0.85007: (Sim:0h39m38s) 
CPU  0 inst:  162000001 cyc:   79935905 now IPC :2.01951: AVG IPC :2.02661: L2-Pf-HR :0.84326: L2-HR :0.85000: (Sim:0h39m47s) 
CPU  0 inst:  163000003 cyc:   80430747 now IPC :2.02085: AVG IPC :2.02657: L2-Pf-HR :0.84316: L2-HR :0.84990: (Sim:0h39m56s) 
CPU  0 inst:  164000002 cyc:   80915762 now IPC :2.06179: AVG IPC :2.02679: L2-Pf-HR :0.84310: L2-HR :0.84986: (Sim:0h40m5s) 
CPU  0 inst:  165000004 cyc:   81414203 now IPC :2.00626: AVG IPC :2.02666: L2-Pf-HR :0.84303: L2-HR :0.84980: (Sim:0h40m14s) 
CPU  0 inst:  166000001 cyc:   81904745 now IPC :2.03856: AVG IPC :2.02673: L2-Pf-HR :0.84297: L2-HR :0.84974: (Sim:0h40m23s) 
CPU  0 inst:  167000005 cyc:   82402879 now IPC :2.00750: AVG IPC :2.02661: L2-Pf-HR :0.84288: L2-HR :0.84966: (Sim:0h40m32s) 
CPU  0 inst:  168000001 cyc:   82896115 now IPC :2.02742: AVG IPC :2.02662: L2-Pf-HR :0.84275: L2-HR :0.84956: (Sim:0h40m41s) 
CPU  0 inst:  169000005 cyc:   83377351 now IPC :2.07799: AVG IPC :2.02692: L2-Pf-HR :0.84267: L2-HR :0.84949: (Sim:0h40m50s) 
CPU  0 inst:  170000003 cyc:   83970783 now IPC :1.68511: AVG IPC :2.02447: L2-Pf-HR :0.84257: L2-HR :0.84923: (Sim:0h40m59s) 
CPU  0 inst:  171000003 cyc:   84517320 now IPC :1.82970: AVG IPC :2.02320: L2-Pf-HR :0.84250: L2-HR :0.84915: (Sim:0h41m9s) 
CPU  0 inst:  172000004 cyc:   85003520 now IPC :2.05677: AVG IPC :2.02339: L2-Pf-HR :0.84246: L2-HR :0.84914: (Sim:0h41m18s) 
CPU  0 inst:  173000005 cyc:   85471446 now IPC :2.13709: AVG IPC :2.02402: L2-Pf-HR :0.84245: L2-HR :0.84916: (Sim:0h41m27s) 
CPU  0 inst:  174000005 cyc:   85939856 now IPC :2.13488: AVG IPC :2.02463: L2-Pf-HR :0.84242: L2-HR :0.84915: (Sim:0h41m35s) 
CPU  0 inst:  175000000 cyc:   86403191 now IPC :2.15825: AVG IPC :2.02536: L2-Pf-HR :0.84240: L2-HR :0.84918: (Sim:0h41m44s) 
CPU  0 inst:  176000000 cyc:   86867627 now IPC :2.15315: AVG IPC :2.02605: L2-Pf-HR :0.84239: L2-HR :0.84920: (Sim:0h41m53s) 
CPU  0 inst:  177000005 cyc:   87333452 now IPC :2.14674: AVG IPC :2.02670: L2-Pf-HR :0.84240: L2-HR :0.84922: (Sim:0h42m1s) 
CPU  0 inst:  178000005 cyc:   87795297 now IPC :2.16523: AVG IPC :2.02744: L2-Pf-HR :0.84236: L2-HR :0.84920: (Sim:0h42m10s) 
CPU  0 inst:  179000004 cyc:   88257720 now IPC :2.16252: AVG IPC :2.02815: L2-Pf-HR :0.84231: L2-HR :0.84918: (Sim:0h42m19s) 
CPU  0 inst:  180000002 cyc:   88719052 now IPC :2.16763: AVG IPC :2.02889: L2-Pf-HR :0.84225: L2-HR :0.84915: (Sim:0h42m27s) 
CPU  0 inst:  181000000 cyc:   89176778 now IPC :2.18471: AVG IPC :2.02970: L2-Pf-HR :0.84224: L2-HR :0.84918: (Sim:0h42m36s) 
CPU  0 inst:  182000004 cyc:   89761065 now IPC :1.71149: AVG IPC :2.02760: L2-Pf-HR :0.84228: L2-HR :0.84906: (Sim:0h42m45s) 
CPU  0 inst:  183000004 cyc:   90253913 now IPC :2.02902: AVG IPC :2.02761: L2-Pf-HR :0.84234: L2-HR :0.84914: (Sim:0h42m54s) 
CPU  0 inst:  184000001 cyc:   90721603 now IPC :2.13816: AVG IPC :2.02819: L2-Pf-HR :0.84252: L2-HR :0.84934: (Sim:0h43m3s) 
CPU  0 inst:  185000004 cyc:   91186856 now IPC :2.14937: AVG IPC :2.02881: L2-Pf-HR :0.84275: L2-HR :0.84959: (Sim:0h43m11s) 
CPU  0 inst:  186000002 cyc:   91648146 now IPC :2.16783: AVG IPC :2.02952: L2-Pf-HR :0.84302: L2-HR :0.84988: (Sim:0h43m20s) 
CPU  0 inst:  187000001 cyc:   92110326 now IPC :2.16366: AVG IPC :2.03020: L2-Pf-HR :0.84329: L2-HR :0.85016: (Sim:0h43m28s) 
CPU  0 inst:  188000004 cyc:   92576881 now IPC :2.14338: AVG IPC :2.03078: L2-Pf-HR :0.84353: L2-HR :0.85042: (Sim:0h43m37s) 
CPU  0 inst:  189000001 cyc:   93043272 now IPC :2.14412: AVG IPC :2.03135: L2-Pf-HR :0.84377: L2-HR :0.85067: (Sim:0h43m46s) 
CPU  0 inst:  190000002 cyc:   93731142 now IPC :1.45376: AVG IPC :2.02707: L2-Pf-HR :0.84365: L2-HR :0.85033: (Sim:0h43m58s) 
CPU  0 inst:  191000002 cyc:   94263980 now IPC :1.87674: AVG IPC :2.02621: L2-Pf-HR :0.84349: L2-HR :0.85019: (Sim:0h44m17s) 
CPU  0 inst:  192000000 cyc:   94763717 now IPC :2.00105: AVG IPC :2.02607: L2-Pf-HR :0.84342: L2-HR :0.85013: (Sim:0h44m36s) 
CPU  0 inst:  193000003 cyc:   95263470 now IPC :2.00099: AVG IPC :2.02594: L2-Pf-HR :0.84335: L2-HR :0.85007: (Sim:0h44m55s) 
CPU  0 inst:  194000004 cyc:   95761369 now IPC :2.00844: AVG IPC :2.02585: L2-Pf-HR :0.84327: L2-HR :0.85000: (Sim:0h45m13s) 
CPU  0 inst:  195000005 cyc:   96244494 now IPC :2.06986: AVG IPC :2.02607: L2-Pf-HR :0.84321: L2-HR :0.84995: (Sim:0h45m32s) 
CPU  0 inst:  196000000 cyc:   96736367 now IPC :2.03304: AVG IPC :2.02611: L2-Pf-HR :0.84312: L2-HR :0.84989: (Sim:0h45m51s) 
CPU  0 inst:  197000002 cyc:   97224693 now IPC :2.04782: AVG IPC :2.02622: L2-Pf-HR :0.84306: L2-HR :0.84983: (Sim:0h46m10s) 
CPU  0 inst:  198000005 cyc:   97720295 now IPC :2.01775: AVG IPC :2.02617: L2-Pf-HR :0.84300: L2-HR :0.84978: (Sim:0h46m28s) 
CPU  0 inst:  199000000 cyc:   98216376 now IPC :2.01579: AVG IPC :2.02612: L2-Pf-HR :0.84291: L2-HR :0.84970: (Sim:0h46m47s) 
CPU  0 inst:  200000005 cyc:   98705457 now IPC :2.04466: AVG IPC :2.02621: L2-Pf-HR :0.84285: L2-HR :0.84967: (Sim:0h47m6s) 
CPU  0 inst:  201000001 cyc:   99192964 now IPC :2.05124: AVG IPC :2.02634: L2-Pf-HR :0.84276: L2-HR :0.84959: (Sim:0h47m24s) 
CPU  0 inst:  202000004 cyc:   99848851 now IPC :1.52466: AVG IPC :2.02301: L2-Pf-HR :0.84272: L2-HR :0.84934: (Sim:0h47m44s) 
CPU  0 inst:  203000004 cyc:  100348795 now IPC :2.00022: AVG IPC :2.02290: L2-Pf-HR :0.84264: L2-HR :0.84931: (Sim:0h48m3s) 
CPU  0 inst:  204000004 cyc:  100820889 now IPC :2.11822: AVG IPC :2.02335: L2-Pf-HR :0.84261: L2-HR :0.84929: (Sim:0h48m22s) 
CPU  0 inst:  205000003 cyc:  101287591 now IPC :2.14269: AVG IPC :2.02390: L2-Pf-HR :0.84261: L2-HR :0.84932: (Sim:0h48m37s) 
CPU  0 inst:  206000005 cyc:  101754374 now IPC :2.14233: AVG IPC :2.02445: L2-Pf-HR :0.84262: L2-HR :0.84935: (Sim:0h48m46s) 
CPU  0 inst:  207000003 cyc:  102217454 now IPC :2.15945: AVG IPC :2.02507: L2-Pf-HR :0.84259: L2-HR :0.84936: (Sim:0h48m55s) 
CPU  0 inst:  208000004 cyc:  102683807 now IPC :2.14430: AVG IPC :2.02561: L2-Pf-HR :0.84259: L2-HR :0.84938: (Sim:0h49m4s) 
CPU  0 inst:  209000005 cyc:  103148270 now IPC :2.15303: AVG IPC :2.02619: L2-Pf-HR :0.84258: L2-HR :0.84939: (Sim:0h49m16s) 
CPU  0 inst:  210000001 cyc:  103612330 now IPC :2.15489: AVG IPC :2.02678: L2-Pf-HR :0.84255: L2-HR :0.84937: (Sim:0h49m26s) 
CPU  0 inst:  211000004 cyc:  104079436 now IPC :2.14085: AVG IPC :2.02729: L2-Pf-HR :0.84251: L2-HR :0.84936: (Sim:0h49m34s) 
CPU  0 inst:  212000004 cyc:  104544532 now IPC :2.15009: AVG IPC :2.02784: L2-Pf-HR :0.84250: L2-HR :0.84937: (Sim:0h49m44s) 
CPU  0 inst:  213000002 cyc:  105006235 now IPC :2.16589: AVG IPC :2.02846: L2-Pf-HR :0.84250: L2-HR :0.84939: (Sim:0h49m52s) 
CPU  0 inst:  214000004 cyc:  105618423 now IPC :1.63349: AVG IPC :2.02615: L2-Pf-HR :0.84253: L2-HR :0.84928: (Sim:0h50m1s) 
CPU  0 inst:  215000005 cyc:  106094652 now IPC :2.09983: AVG IPC :2.02648: L2-Pf-HR :0.84264: L2-HR :0.84941: (Sim:0h50m10s) 
CPU  0 inst:  216000005 cyc:  106560163 now IPC :2.14818: AVG IPC :2.02702: L2-Pf-HR :0.84281: L2-HR :0.84960: (Sim:0h50m18s) 
CPU  0 inst:  217000003 cyc:  107022728 now IPC :2.16185: AVG IPC :2.02760: L2-Pf-HR :0.84301: L2-HR :0.84981: (Sim:0h50m27s) 
CPU  0 inst:  218000000 cyc:  107489094 now IPC :2.14423: AVG IPC :2.02811: L2-Pf-HR :0.84323: L2-HR :0.85004: (Sim:0h50m36s) 
CPU  0 inst:  219000004 cyc:  107952051 now IPC :2.16004: AVG IPC :2.02869: L2-Pf-HR :0.84343: L2-HR :0.85025: (Sim:0h50m44s) 
CPU  0 inst:  220000002 cyc:  108414788 now IPC :2.16105: AVG IPC :2.02926: L2-Pf-HR :0.84361: L2-HR :0.85045: (Sim:0h50m53s) 
CPU  0 inst:  221000000 cyc:  108879037 now IPC :2.15401: AVG IPC :2.02979: L2-Pf-HR :0.84387: L2-HR :0.85070: (Sim:0h51m1s) 
CPU  0 inst:  222000000 cyc:  109577128 now IPC :1.43248: AVG IPC :2.02595: L2-Pf-HR :0.84361: L2-HR :0.85023: (Sim:0h51m11s) 
CPU  0 inst:  223000000 cyc:  110085355 now IPC :1.96762: AVG IPC :2.02568: L2-Pf-HR :0.84351: L2-HR :0.85015: (Sim:0h51m20s) 
CPU  0 inst:  224000004 cyc:  110581595 now IPC :2.01516: AVG IPC :2.02563: L2-Pf-HR :0.84343: L2-HR :0.85008: (Sim:0h51m29s) 
CPU  0 inst:  225000003 cyc:  111082623 now IPC :1.99589: AVG IPC :2.02550: L2-Pf-HR :0.84335: L2-HR :0.85001: (Sim:0h51m38s) 
CPU  0 inst:  226000002 cyc:  111569887 now IPC :2.05227: AVG IPC :2.02562: L2-Pf-HR :0.84331: L2-HR :0.84998: (Sim:0h51m47s) 
CPU  0 inst:  227000000 cyc:  112067364 now IPC :2.01014: AVG IPC :2.02555: L2-Pf-HR :0.84323: L2-HR :0.84993: (Sim:0h51m56s) 
CPU  0 inst:  228000004 cyc:  112555841 now IPC :2.04719: AVG IPC :2.02564: L2-Pf-HR :0.84319: L2-HR :0.84989: (Sim:0h52m5s) 
CPU  0 inst:  229000000 cyc:  113045055 now IPC :2.04409: AVG IPC :2.02572: L2-Pf-HR :0.84314: L2-HR :0.84985: (Sim:0h52m14s) 
CPU  0 inst:  230000005 cyc:  113541306 now IPC :2.01512: AVG IPC :2.02568: L2-Pf-HR :0.84306: L2-HR :0.84978: (Sim:0h52m23s) 
CPU  0 inst:  231000005 cyc:  114030875 now IPC :2.04261: AVG IPC :2.02575: L2-Pf-HR :0.84298: L2-HR :0.84972: (Sim:0h52m32s) 
CPU  0 inst:  232000000 cyc:  114520344 now IPC :2.04302: AVG IPC :2.02582: L2-Pf-HR :0.84290: L2-HR :0.84966: (Sim:0h52m41s) 
CPU  0 inst:  233000004 cyc:  115036375 now IPC :1.93788: AVG IPC :2.02543: L2-Pf-HR :0.84291: L2-HR :0.84962: (Sim:0h52m50s) 
CPU  0 inst:  234000004 cyc:  115671122 now IPC :1.57543: AVG IPC :2.02293: L2-Pf-HR :0.84284: L2-HR :0.84942: (Sim:0h53m0s) 
CPU  0 inst:  235000003 cyc:  116157844 now IPC :2.05456: AVG IPC :2.02307: L2-Pf-HR :0.84281: L2-HR :0.84943: (Sim:0h53m9s) 
CPU  0 inst:  236000003 cyc:  116621493 now IPC :2.15680: AVG IPC :2.02360: L2-Pf-HR :0.84278: L2-HR :0.84943: (Sim:0h53m18s) 
CPU  0 inst:  237000000 cyc:  117089302 now IPC :2.13762: AVG IPC :2.02406: L2-Pf-HR :0.84277: L2-HR :0.84943: (Sim:0h53m26s) 
CPU  0 inst:  238000005 cyc:  117554269 now IPC :2.15070: AVG IPC :2.02457: L2-Pf-HR :0.84276: L2-HR :0.84944: (Sim:0h53m35s) 
CPU  0 inst:  239000001 cyc:  118021425 now IPC :2.14060: AVG IPC :2.02503: L2-Pf-HR :0.84275: L2-HR :0.84946: (Sim:0h53m44s) 
CPU  0 inst:  240000002 cyc:  118486861 now IPC :2.14853: AVG IPC :2.02552: L2-Pf-HR :0.84274: L2-HR :0.84948: (Sim:0h53m52s) 
CPU  0 inst:  241000001 cyc:  118949558 now IPC :2.16124: AVG IPC :2.02605: L2-Pf-HR :0.84272: L2-HR :0.84949: (Sim:0h54m3s) 
CPU  0 inst:  242000003 cyc:  119414596 now IPC :2.15037: AVG IPC :2.02654: L2-Pf-HR :0.84270: L2-HR :0.84948: (Sim:0h54m21s) 
CPU  0 inst:  243000004 cyc:  119879467 now IPC :2.15114: AVG IPC :2.02703: L2-Pf-HR :0.84266: L2-HR :0.84946: (Sim:0h54m39s) 
CPU  0 inst:  244000002 cyc:  120339868 now IPC :2.17202: AVG IPC :2.02759: L2-Pf-HR :0.84264: L2-HR :0.84947: (Sim:0h54m57s) 
CPU  0 inst:  245000001 cyc:  120922264 now IPC :1.71704: AVG IPC :2.02608: L2-Pf-HR :0.84270: L2-HR :0.84939: (Sim:0h55m16s) 
CPU  0 inst:  246000003 cyc:  121423573 now IPC :1.99478: AVG IPC :2.02595: L2-Pf-HR :0.84274: L2-HR :0.84943: (Sim:0h55m34s) 
CPU  0 inst:  247000005 cyc:  121893797 now IPC :2.12665: AVG IPC :2.02634: L2-Pf-HR :0.84287: L2-HR :0.84958: (Sim:0h55m53s) 
CPU  0 inst:  248000003 cyc:  122359210 now IPC :2.14862: AVG IPC :2.02681: L2-Pf-HR :0.84305: L2-HR :0.84977: (Sim:0h56m11s) 
CPU  0 inst:  249000001 cyc:  122818571 now IPC :2.17693: AVG IPC :2.02738: L2-Pf-HR :0.84321: L2-HR :0.84995: (Sim:0h56m29s) 
CPU  0 inst:  250000000 cyc:  123288671 now IPC :2.12720: AVG IPC :2.02776: L2-Pf-HR :0.84341: L2-HR :0.85015: (Sim:0h56m47s) 
CPU  0 inst:  251000002 cyc:  123758225 now IPC :2.12968: AVG IPC :2.02815: L2-Pf-HR :0.84357: L2-HR :0.85033: (Sim:0h57m5s) 
CPU  0 inst:  252000002 cyc:  124218319 now IPC :2.17347: AVG IPC :2.02869: L2-Pf-HR :0.84376: L2-HR :0.85052: (Sim:0h57m23s) 
CPU  0 inst:  253000003 cyc:  124900240 now IPC :1.46645: AVG IPC :2.02560: L2-Pf-HR :0.84371: L2-HR :0.85030: (Sim:0h57m43s) 
CPU  0 inst:  254000002 cyc:  125425574 now IPC :1.90355: AVG IPC :2.02508: L2-Pf-HR :0.84360: L2-HR :0.85020: (Sim:0h58m2s) 
CPU  0 inst:  255000002 cyc:  125931491 now IPC :1.97661: AVG IPC :2.02489: L2-Pf-HR :0.84354: L2-HR :0.85015: (Sim:0h58m21s) 
CPU  0 inst:  256000000 cyc:  126425834 now IPC :2.02288: AVG IPC :2.02488: L2-Pf-HR :0.84347: L2-HR :0.85009: (Sim:0h58m40s) 
CPU  0 inst:  257000004 cyc:  126920635 now IPC :2.02102: AVG IPC :2.02486: L2-Pf-HR :0.84340: L2-HR :0.85003: (Sim:0h58m59s) 
CPU  0 inst:  258000001 cyc:  127413200 now IPC :2.03018: AVG IPC :2.02488: L2-Pf-HR :0.84333: L2-HR :0.84998: (Sim:0h59m18s) 
CPU  0 inst:  259000003 cyc:  127906685 now IPC :2.02641: AVG IPC :2.02489: L2-Pf-HR :0.84328: L2-HR :0.84993: (Sim:0h59m37s) 
CPU  0 inst:  260000000 cyc:  128400991 now IPC :2.02303: AVG IPC :2.02488: L2-Pf-HR :0.84325: L2-HR :0.84990: (Sim:0h59m55s) 
CPU  0 inst:  261000004 cyc:  128896384 now IPC :2.01861: AVG IPC :2.02486: L2-Pf-HR :0.84319: L2-HR :0.84986: (Sim:1h0m14s) 
CPU  0 inst:  262000005 cyc:  129381034 now IPC :2.06335: AVG IPC :2.02500: L2-Pf-HR :0.84315: L2-HR :0.84982: (Sim:1h0m33s) 
CPU  0 inst:  263000003 cyc:  129868669 now IPC :2.05071: AVG IPC :2.02510: L2-Pf-HR :0.84306: L2-HR :0.84975: (Sim:1h0m45s) 
CPU  0 inst:  264000003 cyc:  130345843 now IPC :2.09567: AVG IPC :2.02536: L2-Pf-HR :0.84302: L2-HR :0.84972: (Sim:1h0m54s) 
CPU  0 inst:  265000000 cyc:  131006803 now IPC :1.51295: AVG IPC :2.02276: L2-Pf-HR :0.84303: L2-HR :0.84956: (Sim:1h1m3s) 
CPU  0 inst:  266000003 cyc:  131511292 now IPC :1.98221: AVG IPC :2.02260: L2-Pf-HR :0.84295: L2-HR :0.84951: (Sim:1h1m12s) 
CPU  0 inst:  267000003 cyc:  131984794 now IPC :2.11192: AVG IPC :2.02292: L2-Pf-HR :0.84293: L2-HR :0.84950: (Sim:1h1m21s) 
CPU  0 inst:  268000002 cyc:  132454672 now IPC :2.12821: AVG IPC :2.02330: L2-Pf-HR :0.84292: L2-HR :0.84951: (Sim:1h1m30s) 
CPU  0 inst:  269000000 cyc:  132919960 now IPC :2.14920: AVG IPC :2.02374: L2-Pf-HR :0.84289: L2-HR :0.84951: (Sim:1h1m38s) 
CPU  0 inst:  270000002 cyc:  133382056 now IPC :2.16406: AVG IPC :2.02423: L2-Pf-HR :0.84286: L2-HR :0.84951: (Sim:1h1m47s) 
CPU  0 inst:  271000000 cyc:  133843636 now IPC :2.16647: AVG IPC :2.02473: L2-Pf-HR :0.84287: L2-HR :0.84954: (Sim:1h1m55s) 
CPU  0 inst:  272000005 cyc:  134308445 now IPC :2.15143: AVG IPC :2.02517: L2-Pf-HR :0.84286: L2-HR :0.84955: (Sim:1h2m4s) 
CPU  0 inst:  273000002 cyc:  134774305 now IPC :2.14656: AVG IPC :2.02559: L2-Pf-HR :0.84284: L2-HR :0.84955: (Sim:1h2m12s) 
CPU  0 inst:  274000003 cyc:  135240852 now IPC :2.14341: AVG IPC :2.02600: L2-Pf-HR :0.84282: L2-HR :0.84954: (Sim:1h2m21s) 
CPU  0 inst:  275000000 cyc:  135703564 now IPC :2.16116: AVG IPC :2.02647: L2-Pf-HR :0.84279: L2-HR :0.84954: (Sim:1h2m29s) 
CPU  0 inst:  276000005 cyc:  136163456 now IPC :2.17443: AVG IPC :2.02697: L2-Pf-HR :0.84280: L2-HR :0.84957: (Sim:1h2m38s) 
CPU  0 inst:  277000002 cyc:  136759885 now IPC :1.67664: AVG IPC :2.02543: L2-Pf-HR :0.84283: L2-HR :0.84949: (Sim:1h2m47s) 
CPU  0 inst:  278000005 cyc:  137238274 now IPC :2.09036: AVG IPC :2.02566: L2-Pf-HR :0.84289: L2-HR :0.84957: (Sim:1h2m56s) 
CPU  0 inst:  279000005 cyc:  137705750 now IPC :2.13915: AVG IPC :2.02605: L2-Pf-HR :0.84302: L2-HR :0.84972: (Sim:1h3m5s) 
CPU  0 inst:  280000005 cyc:  138170639 now IPC :2.15105: AVG IPC :2.02647: L2-Pf-HR :0.84317: L2-HR :0.84988: (Sim:1h3m13s) 
CPU  0 inst:  281000004 cyc:  138634875 now IPC :2.15407: AVG IPC :2.02690: L2-Pf-HR :0.84336: L2-HR :0.85008: (Sim:1h3m22s) 
CPU  0 inst:  282000002 cyc:  139097323 now IPC :2.16240: AVG IPC :2.02735: L2-Pf-HR :0.84349: L2-HR :0.85023: (Sim:1h3m30s) 
CPU  0 inst:  283000002 cyc:  139564908 now IPC :2.13865: AVG IPC :2.02773: L2-Pf-HR :0.84364: L2-HR :0.85039: (Sim:1h3m40s) 
CPU  0 inst:  284000000 cyc:  140029993 now IPC :2.15014: AVG IPC :2.02814: L2-Pf-HR :0.84382: L2-HR :0.85056: (Sim:1h3m57s) 
CPU  0 inst:  285000003 cyc:  140735976 now IPC :1.41647: AVG IPC :2.02505: L2-Pf-HR :0.84365: L2-HR :0.85024: (Sim:1h4m16s) 
CPU  0 inst:  286000002 cyc:  141255041 now IPC :1.92654: AVG IPC :2.02468: L2-Pf-HR :0.84356: L2-HR :0.85017: (Sim:1h4m35s) 
CPU  0 inst:  287000002 cyc:  141747177 now IPC :2.03196: AVG IPC :2.02471: L2-Pf-HR :0.84350: L2-HR :0.85011: (Sim:1h4m53s) 
CPU  0 inst:  288000000 cyc:  142247764 now IPC :1.99765: AVG IPC :2.02461: L2-Pf-HR :0.84343: L2-HR :0.85006: (Sim:1h5m11s) 
CPU  0 inst:  289000005 cyc:  142745289 now IPC :2.00996: AVG IPC :2.02456: L2-Pf-HR :0.84339: L2-HR :0.85002: (Sim:1h5m29s) 
CPU  0 inst:  290000004 cyc:  143231286 now IPC :2.05762: AVG IPC :2.02468: L2-Pf-HR :0.84334: L2-HR :0.84999: (Sim:1h5m47s) 
CPU  0 inst:  291000001 cyc:  143729433 now IPC :2.00743: AVG IPC :2.02462: L2-Pf-HR :0.84331: L2-HR :0.84996: (Sim:1h6m5s) 
CPU  0 inst:  292000001 cyc:  144218926 now IPC :2.04293: AVG IPC :2.02468: L2-Pf-HR :0.84325: L2-HR :0.84992: (Sim:1h6m23s) 
CPU  0 inst:  293000002 cyc:  144712560 now IPC :2.02579: AVG IPC :2.02468: L2-Pf-HR :0.84322: L2-HR :0.84990: (Sim:1h6m41s) 
CPU  0 inst:  294000000 cyc:  145205023 now IPC :2.03061: AVG IPC :2.02470: L2-Pf-HR :0.84316: L2-HR :0.84985: (Sim:1h6m59s) 
CPU  0 inst:  295000003 cyc:  145690869 now IPC :2.05827: AVG IPC :2.02481: L2-Pf-HR :0.84311: L2-HR :0.84981: (Sim:1h7m16s) 
CPU  0 inst:  296000004 cyc:  146181883 now IPC :2.03660: AVG IPC :2.02485: L2-Pf-HR :0.84311: L2-HR :0.84981: (Sim:1h7m34s) 
CPU  0 inst:  297000002 cyc:  146830679 now IPC :1.54131: AVG IPC :2.02270: L2-Pf-HR :0.84303: L2-HR :0.84962: (Sim:1h7m54s) 
CPU  0 inst:  298000003 cyc:  147321863 now IPC :2.03590: AVG IPC :2.02275: L2-Pf-HR :0.84300: L2-HR :0.84961: (Sim:1h8m12s) 
CPU  0 inst:  299000003 cyc:  147788038 now IPC :2.14512: AVG IPC :2.02314: L2-Pf-HR :0.84298: L2-HR :0.84960: (Sim:1h8m29s) 
CPU  0 inst:  300000003 cyc:  148251644 now IPC :2.15700: AVG IPC :2.02356: L2-Pf-HR :0.84296: L2-HR :0.84960: (Sim:1h8m47s) 
CPU  0 inst:  301000002 cyc:  148717269 now IPC :2.14765: AVG IPC :2.02395: L2-Pf-HR :0.84296: L2-HR :0.84961: (Sim:1h9m4s) 
CPU  0 inst:  302000000 cyc:  149181853 now IPC :2.15246: AVG IPC :2.02435: L2-Pf-HR :0.84295: L2-HR :0.84963: (Sim:1h9m21s) 
CPU  0 inst:  303000002 cyc:  149647697 now IPC :2.14665: AVG IPC :2.02473: L2-Pf-HR :0.84295: L2-HR :0.84965: (Sim:1h9m39s) 
CPU  0 inst:  304000000 cyc:  150112415 now IPC :2.15184: AVG IPC :2.02513: L2-Pf-HR :0.84294: L2-HR :0.84965: (Sim:1h9m56s) 
CPU  0 inst:  305000001 cyc:  150576692 now IPC :2.15389: AVG IPC :2.02553: L2-Pf-HR :0.84291: L2-HR :0.84965: (Sim:1h10m13s) 
CPU  0 inst:  306000000 cyc:  151039026 now IPC :2.16294: AVG IPC :2.02595: L2-Pf-HR :0.84288: L2-HR :0.84964: (Sim:1h10m31s) 
CPU  0 inst:  307000003 cyc:  151500807 now IPC :2.16554: AVG IPC :2.02638: L2-Pf-HR :0.84289: L2-HR :0.84966: (Sim:1h10m48s) 
CPU  0 inst:  308000000 cyc:  152061219 now IPC :1.78440: AVG IPC :2.02548: L2-Pf-HR :0.84290: L2-HR :0.84960: (Sim:1h11m6s) 
CPU  0 inst:  309000002 cyc:  152587831 now IPC :1.89894: AVG IPC :2.02504: L2-Pf-HR :0.84292: L2-HR :0.84961: (Sim:1h11m24s) 
CPU  0 inst:  310000004 cyc:  153054448 now IPC :2.14309: AVG IPC :2.02541: L2-Pf-HR :0.84303: L2-HR :0.84973: (Sim:1h11m42s) 
CPU  0 inst:  311000002 cyc:  153519589 now IPC :2.14988: AVG IPC :2.02579: L2-Pf-HR :0.84314: L2-HR :0.84985: (Sim:1h11m59s) 
CPU  0 inst:  312000001 cyc:  153987915 now IPC :2.13526: AVG IPC :2.02612: L2-Pf-HR :0.84327: L2-HR :0.84999: (Sim:1h12m10s) 
CPU  0 inst:  313000004 cyc:  154454674 now IPC :2.14244: AVG IPC :2.02648: L2-Pf-HR :0.84341: L2-HR :0.85014: (Sim:1h12m19s) 
CPU  0 inst:  314000002 cyc:  154920857 now IPC :2.14508: AVG IPC :2.02683: L2-Pf-HR :0.84353: L2-HR :0.85027: (Sim:1h12m28s) 
CPU  0 inst:  315000005 cyc:  155382317 now IPC :2.16704: AVG IPC :2.02725: L2-Pf-HR :0.84365: L2-HR :0.85040: (Sim:1h12m37s) 
CPU  0 inst:  316000000 cyc:  156021016 now IPC :1.56567: AVG IPC :2.02535: L2-Pf-HR :0.84362: L2-HR :0.85025: (Sim:1h12m46s) 
CPU  0 inst:  317000005 cyc:  156567440 now IPC :1.83009: AVG IPC :2.02467: L2-Pf-HR :0.84355: L2-HR :0.85017: (Sim:1h12m55s) 
CPU  0 inst:  318000004 cyc:  157072906 now IPC :1.97837: AVG IPC :2.02452: L2-Pf-HR :0.84350: L2-HR :0.85013: (Sim:1h13m4s) 
CPU  0 inst:  319000000 cyc:  157572005 now IPC :2.00360: AVG IPC :2.02445: L2-Pf-HR :0.84344: L2-HR :0.85008: (Sim:1h13m13s) 
CPU  0 inst:  320000001 cyc:  158064402 now IPC :2.03088: AVG IPC :2.02447: L2-Pf-HR :0.84337: L2-HR :0.85002: (Sim:1h13m22s) 
CPU  0 inst:  321000001 cyc:  158552420 now IPC :2.04910: AVG IPC :2.02455: L2-Pf-HR :0.84334: L2-HR :0.84999: (Sim:1h13m31s) 
CPU  0 inst:  322000005 cyc:  159044526 now IPC :2.03209: AVG IPC :2.02457: L2-Pf-HR :0.84330: L2-HR :0.84996: (Sim:1h13m40s) 
CPU  0 inst:  323000002 cyc:  159532665 now IPC :2.04859: AVG IPC :2.02464: L2-Pf-HR :0.84326: L2-HR :0.84993: (Sim:1h13m49s) 
CPU  0 inst:  324000002 cyc:  160027467 now IPC :2.02101: AVG IPC :2.02463: L2-Pf-HR :0.84323: L2-HR :0.84991: (Sim:1h13m58s) 
CPU  0 inst:  325000000 cyc:  160522708 now IPC :2.01921: AVG IPC :2.02462: L2-Pf-HR :0.84316: L2-HR :0.84985: (Sim:1h14m7s) 
CPU  0 inst:  326000001 cyc:  161013254 now IPC :2.03855: AVG IPC :2.02466: L2-Pf-HR :0.84311: L2-HR :0.84981: (Sim:1h14m16s) 
CPU  0 inst:  327000001 cyc:  161507658 now IPC :2.02264: AVG IPC :2.02465: L2-Pf-HR :0.84306: L2-HR :0.84977: (Sim:1h14m25s) 
CPU  0 inst:  328000001 cyc:  162148495 now IPC :1.56046: AVG IPC :2.02281: L2-Pf-HR :0.84303: L2-HR :0.84962: (Sim:1h14m35s) 
CPU  0 inst:  329000000 cyc:  162652788 now IPC :1.98297: AVG IPC :2.02268: L2-Pf-HR :0.84298: L2-HR :0.84960: (Sim:1h14m44s) 
CPU  0 inst:  330000005 cyc:  163129028 now IPC :2.09979: AVG IPC :2.02291: L2-Pf-HR :0.84294: L2-HR :0.84959: (Sim:1h14m53s) 
CPU  0 inst:  331000002 cyc:  163593001 now IPC :2.15529: AVG IPC :2.02329: L2-Pf-HR :0.84292: L2-HR :0.84959: (Sim:1h15m2s) 
CPU  0 inst:  332000004 cyc:  164055655 now IPC :2.16145: AVG IPC :2.02368: L2-Pf-HR :0.84291: L2-HR :0.84959: (Sim:1h15m11s) 
CPU  0 inst:  333000005 cyc:  164518980 now IPC :2.15831: AVG IPC :2.02406: L2-Pf-HR :0.84289: L2-HR :0.84960: (Sim:1h15m20s) 
CPU  0 inst:  334000000 cyc:  164984843 now IPC :2.14654: AVG IPC :2.02441: L2-Pf-HR :0.84288: L2-HR :0.84961: (Sim:1h15m28s) 
CPU  0 inst:  335000002 cyc:  165450253 now IPC :2.14865: AVG IPC :2.02476: L2-Pf-HR :0.84288: L2-HR :0.84962: (Sim:1h15m37s) 
CPU  0 inst:  336000001 cyc:  165918872 now IPC :2.13393: AVG IPC :2.02507: L2-Pf-HR :0.84287: L2-HR :0.84962: (Sim:1h15m46s) 
CPU  0 inst:  337000003 cyc:  166383341 now IPC :2.15300: AVG IPC :2.02543: L2-Pf-HR :0.84284: L2-HR :0.84960: (Sim:1h15m54s) 
CPU  0 inst:  338000000 cyc:  166844841 now IPC :2.16684: AVG IPC :2.02582: L2-Pf-HR :0.84283: L2-HR :0.84962: (Sim:1h16m3s) 
CPU  0 inst:  339000002 cyc:  167303337 now IPC :2.18105: AVG IPC :2.02625: L2-Pf-HR :0.84281: L2-HR :0.84962: (Sim:1h16m12s) 
CPU  0 inst:  340000001 cyc:  167907477 now IPC :1.65524: AVG IPC :2.02491: L2-Pf-HR :0.84281: L2-HR :0.84954: (Sim:1h16m21s) 
CPU  0 inst:  341000002 cyc:  168392898 now IPC :2.06007: AVG IPC :2.02501: L2-Pf-HR :0.84285: L2-HR :0.84959: (Sim:1h16m30s) 
CPU  0 inst:  342000004 cyc:  168854122 now IPC :2.16815: AVG IPC :2.02540: L2-Pf-HR :0.84295: L2-HR :0.84970: (Sim:1h16m39s) 
CPU  0 inst:  343000002 cyc:  169314754 now IPC :2.17093: AVG IPC :2.02580: L2-Pf-HR :0.84308: L2-HR :0.84983: (Sim:1h16m48s) 
CPU  0 inst:  344000003 cyc:  169777957 now IPC :2.15888: AVG IPC :2.02617: L2-Pf-HR :0.84320: L2-HR :0.84997: (Sim:1h16m56s) 
CPU  0 inst:  345000003 cyc:  170243709 now IPC :2.14707: AVG IPC :2.02650: L2-Pf-HR :0.84332: L2-HR :0.85010: (Sim:1h17m5s) 
CPU  0 inst:  346000001 cyc:  170709407 now IPC :2.14731: AVG IPC :2.02683: L2-Pf-HR :0.84345: L2-HR :0.85023: (Sim:1h17m14s) 
CPU  0 inst:  347000003 cyc:  171171264 now IPC :2.16518: AVG IPC :2.02721: L2-Pf-HR :0.84357: L2-HR :0.85035: (Sim:1h17m23s) 
CPU  0 inst:  348000001 cyc:  171876103 now IPC :1.41876: AVG IPC :2.02470: L2-Pf-HR :0.84345: L2-HR :0.85012: (Sim:1h17m32s) 
CPU  0 inst:  349000000 cyc:  172400361 now IPC :1.90746: AVG IPC :2.02434: L2-Pf-HR :0.84338: L2-HR :0.85005: (Sim:1h17m41s) 
CPU  0 inst:  350000002 cyc:  172902768 now IPC :1.99042: AVG IPC :2.02424: L2-Pf-HR :0.84334: L2-HR :0.85002: (Sim:1h17m50s) 
CPU  0 inst:  351000004 cyc:  173400259 now IPC :2.01009: AVG IPC :2.02420: L2-Pf-HR :0.84329: L2-HR :0.84997: (Sim:1h17m59s) 
CPU  0 inst:  352000005 cyc:  173887764 now IPC :2.05126: AVG IPC :2.02427: L2-Pf-HR :0.84326: L2-HR :0.84995: (Sim:1h18m8s) 
CPU  0 inst:  353000003 cyc:  174382935 now IPC :2.01950: AVG IPC :2.02426: L2-Pf-HR :0.84321: L2-HR :0.84991: (Sim:1h18m17s) 
CPU  0 inst:  354000000 cyc:  174874718 now IPC :2.03341: AVG IPC :2.02429: L2-Pf-HR :0.84317: L2-HR :0.84988: (Sim:1h18m26s) 
CPU  0 inst:  355000002 cyc:  175375919 now IPC :1.99521: AVG IPC :2.02420: L2-Pf-HR :0.84314: L2-HR :0.84985: (Sim:1h18m35s) 
CPU  0 inst:  356000000 cyc:  175867881 now IPC :2.03267: AVG IPC :2.02423: L2-Pf-HR :0.84309: L2-HR :0.84981: (Sim:1h18m44s) 
CPU  0 inst:  357000005 cyc:  176353472 now IPC :2.05936: AVG IPC :2.02432: L2-Pf-HR :0.84306: L2-HR :0.84978: (Sim:1h18m53s) 
CPU  0 inst:  358000003 cyc:  176849030 now IPC :2.01792: AVG IPC :2.02431: L2-Pf-HR :0.84301: L2-HR :0.84974: (Sim:1h19m2s) 
CPU  0 inst:  359000005 cyc:  177331070 now IPC :2.07452: AVG IPC :2.02444: L2-Pf-HR :0.84296: L2-HR :0.84971: (Sim:1h19m11s) 
CPU  0 inst:  360000002 cyc:  177977922 now IPC :1.54594: AVG IPC :2.02269: L2-Pf-HR :0.84294: L2-HR :0.84958: (Sim:1h19m21s) 
CPU  0 inst:  361000000 cyc:  178471879 now IPC :2.02446: AVG IPC :2.02270: L2-Pf-HR :0.84290: L2-HR :0.84957: (Sim:1h19m31s) 
CPU  0 inst:  362000004 cyc:  178940770 now IPC :2.13270: AVG IPC :2.02299: L2-Pf-HR :0.84287: L2-HR :0.84956: (Sim:1h19m39s) 
CPU  0 inst:  363000001 cyc:  179405364 now IPC :2.15241: AVG IPC :2.02333: L2-Pf-HR :0.84287: L2-HR :0.84957: (Sim:1h19m48s) 
CPU  0 inst:  364000000 cyc:  179866630 now IPC :2.16794: AVG IPC :2.02370: L2-Pf-HR :0.84285: L2-HR :0.84957: (Sim:1h19m57s) 
CPU  0 inst:  365000001 cyc:  180326419 now IPC :2.17491: AVG IPC :2.02409: L2-Pf-HR :0.84283: L2-HR :0.84958: (Sim:1h20m6s) 
CPU  0 inst:  366000001 cyc:  180789589 now IPC :2.15903: AVG IPC :2.02443: L2-Pf-HR :0.84284: L2-HR :0.84961: (Sim:1h20m15s) 
CPU  0 inst:  367000001 cyc:  181250535 now IPC :2.16945: AVG IPC :2.02480: L2-Pf-HR :0.84282: L2-HR :0.84960: (Sim:1h20m24s) 
CPU  0 inst:  368000003 cyc:  181708880 now IPC :2.18177: AVG IPC :2.02520: L2-Pf-HR :0.84280: L2-HR :0.84960: (Sim:1h20m33s) 
CPU  0 inst:  369000004 cyc:  182168450 now IPC :2.17595: AVG IPC :2.02559: L2-Pf-HR :0.84279: L2-HR :0.84960: (Sim:1h20m41s) 
CPU  0 inst:  370000003 cyc:  182630949 now IPC :2.16216: AVG IPC :2.02593: L2-Pf-HR :0.84278: L2-HR :0.84960: (Sim:1h20m50s) 
CPU  0 inst:  371000003 cyc:  183113060 now IPC :2.07421: AVG IPC :2.02606: L2-Pf-HR :0.84281: L2-HR :0.84962: (Sim:1h20m59s) 
CPU  0 inst:  372000004 cyc:  183715682 now IPC :1.65942: AVG IPC :2.02485: L2-Pf-HR :0.84282: L2-HR :0.84956: (Sim:1h21m8s) 
CPU  0 inst:  373000005 cyc:  184184191 now IPC :2.13443: AVG IPC :2.02513: L2-Pf-HR :0.84289: L2-HR :0.84964: (Sim:1h21m17s) 
CPU  0 inst:  374000004 cyc:  184648951 now IPC :2.15165: AVG IPC :2.02545: L2-Pf-HR :0.84299: L2-HR :0.84974: (Sim:1h21m26s) 
CPU  0 inst:  375000000 cyc:  185111763 now IPC :2.16070: AVG IPC :2.02579: L2-Pf-HR :0.84310: L2-HR :0.84986: (Sim:1h21m35s) 
CPU  0 inst:  376000001 cyc:  185577364 now IPC :2.14776: AVG IPC :2.02610: L2-Pf-HR :0.84322: L2-HR :0.84999: (Sim:1h21m44s) 
CPU  0 inst:  377000005 cyc:  186040232 now IPC :2.16045: AVG IPC :2.02644: L2-Pf-HR :0.84332: L2-HR :0.85010: (Sim:1h21m52s) 
CPU  0 inst:  378000001 cyc:  186505723 now IPC :2.14826: AVG IPC :2.02674: L2-Pf-HR :0.84341: L2-HR :0.85020: (Sim:1h22m1s) 
CPU  0 inst:  379000005 cyc:  187113771 now IPC :1.64461: AVG IPC :2.02549: L2-Pf-HR :0.84338: L2-HR :0.85009: (Sim:1h22m11s) 
CPU  0 inst:  380000004 cyc:  187685518 now IPC :1.74902: AVG IPC :2.02465: L2-Pf-HR :0.84334: L2-HR :0.85002: (Sim:1h22m20s) 
CPU  0 inst:  381000001 cyc:  188199826 now IPC :1.94435: AVG IPC :2.02443: L2-Pf-HR :0.84328: L2-HR :0.84997: (Sim:1h22m29s) 
CPU  0 inst:  382000002 cyc:  188698509 now IPC :2.00528: AVG IPC :2.02437: L2-Pf-HR :0.84323: L2-HR :0.84993: (Sim:1h22m38s) 
CPU  0 inst:  383000002 cyc:  189189836 now IPC :2.03530: AVG IPC :2.02440: L2-Pf-HR :0.84319: L2-HR :0.84990: (Sim:1h22m48s) 
CPU  0 inst:  384000000 cyc:  189687944 now IPC :2.00759: AVG IPC :2.02436: L2-Pf-HR :0.84315: L2-HR :0.84986: (Sim:1h22m57s) 
CPU  0 inst:  385000002 cyc:  190173600 now IPC :2.05907: AVG IPC :2.02445: L2-Pf-HR :0.84313: L2-HR :0.84984: (Sim:1h23m6s) 
CPU  0 inst:  386000005 cyc:  190673042 now IPC :2.00224: AVG IPC :2.02439: L2-Pf-HR :0.84310: L2-HR :0.84982: (Sim:1h23m15s) 
CPU  0 inst:  387000001 cyc:  191164395 now IPC :2.03519: AVG IPC :2.02442: L2-Pf-HR :0.84306: L2-HR :0.84978: (Sim:1h23m24s) 
CPU  0 inst:  388000000 cyc:  191650272 now IPC :2.05813: AVG IPC :2.02450: L2-Pf-HR :0.84302: L2-HR :0.84976: (Sim:1h23m33s) 
CPU  0 inst:  389000003 cyc:  192151790 now IPC :1.99395: AVG IPC :2.02442: L2-Pf-HR :0.84298: L2-HR :0.84971: (Sim:1h23m43s) 
CPU  0 inst:  390000001 cyc:  192629526 now IPC :2.09320: AVG IPC :2.02460: L2-Pf-HR :0.84293: L2-HR :0.84969: (Sim:1h23m51s) 
CPU  0 inst:  391000000 cyc:  193242818 now IPC :1.63054: AVG IPC :2.02334: L2-Pf-HR :0.84291: L2-HR :0.84958: (Sim:1h24m1s) 
CPU  0 inst:  392000002 cyc:  193779534 now IPC :1.86319: AVG IPC :2.02289: L2-Pf-HR :0.84289: L2-HR :0.84955: (Sim:1h24m10s) 
CPU  0 inst:  393000001 cyc:  194258865 now IPC :2.08624: AVG IPC :2.02305: L2-Pf-HR :0.84285: L2-HR :0.84953: (Sim:1h24m26s) 
CPU  0 inst:  394000005 cyc:  194721848 now IPC :2.15992: AVG IPC :2.02338: L2-Pf-HR :0.84284: L2-HR :0.84954: (Sim:1h24m44s) 
CPU  0 inst:  395000000 cyc:  195185690 now IPC :2.15590: AVG IPC :2.02369: L2-Pf-HR :0.84282: L2-HR :0.84954: (Sim:1h25m2s) 
CPU  0 inst:  396000001 cyc:  195652311 now IPC :2.14307: AVG IPC :2.02398: L2-Pf-HR :0.84281: L2-HR :0.84955: (Sim:1h25m20s) 
CPU  0 inst:  397000000 cyc:  196122638 now IPC :2.12618: AVG IPC :2.02423: L2-Pf-HR :0.84282: L2-HR :0.84957: (Sim:1h25m38s) 
CPU  0 inst:  398000003 cyc:  196591127 now IPC :2.13453: AVG IPC :2.02449: L2-Pf-HR :0.84280: L2-HR :0.84957: (Sim:1h25m56s) 
CPU  0 inst:  399000000 cyc:  197050931 now IPC :2.17483: AVG IPC :2.02484: L2-Pf-HR :0.84279: L2-HR :0.84958: (Sim:1h26m13s) 
CPU  0 inst:  400000003 cyc:  197511491 now IPC :2.17128: AVG IPC :2.02519: L2-Pf-HR :0.84277: L2-HR :0.84958: (Sim:1h26m31s) 
CPU  0 inst:  401000000 cyc:  197976118 now IPC :2.15226: AVG IPC :2.02548: L2-Pf-HR :0.84275: L2-HR :0.84957: (Sim:1h26m49s) 
CPU  0 inst:  402000001 cyc:  198435628 now IPC :2.17623: AVG IPC :2.02584: L2-Pf-HR :0.84274: L2-HR :0.84958: (Sim:1h27m6s) 
CPU  0 inst:  403000005 cyc:  199037094 now IPC :1.66261: AVG IPC :2.02473: L2-Pf-HR :0.84277: L2-HR :0.84953: (Sim:1h27m25s) 
CPU  0 inst:  404000005 cyc:  199526827 now IPC :2.04193: AVG IPC :2.02478: L2-Pf-HR :0.84280: L2-HR :0.84957: (Sim:1h27m43s) 
CPU  0 inst:  405000001 cyc:  199992182 now IPC :2.14889: AVG IPC :2.02507: L2-Pf-HR :0.84288: L2-HR :0.84966: (Sim:1h28m0s) 
CPU  0 inst:  406000005 cyc:  200454102 now IPC :2.16489: AVG IPC :2.02539: L2-Pf-HR :0.84300: L2-HR :0.84978: (Sim:1h28m18s) 
CPU  0 inst:  407000003 cyc:  200920509 now IPC :2.14405: AVG IPC :2.02567: L2-Pf-HR :0.84311: L2-HR :0.84990: (Sim:1h28m36s) 
CPU  0 inst:  408000002 cyc:  201384951 now IPC :2.15312: AVG IPC :2.02596: L2-Pf-HR :0.84323: L2-HR :0.85003: (Sim:1h28m54s) 
CPU  0 inst:  409000003 cyc:  201848140 now IPC :2.15895: AVG IPC :2.02627: L2-Pf-HR :0.84335: L2-HR :0.85015: (Sim:1h29m6s) 
CPU  0 inst:  410000002 cyc:  202314733 now IPC :2.14319: AVG IPC :2.02654: L2-Pf-HR :0.84346: L2-HR :0.85027: (Sim:1h29m14s) 
CPU  0 inst:  411000002 cyc:  203008075 now IPC :1.44229: AVG IPC :2.02453: L2-Pf-HR :0.84338: L2-HR :0.85008: (Sim:1h29m24s) 
CPU  0 inst:  412000005 cyc:  203539173 now IPC :1.88290: AVG IPC :2.02416: L2-Pf-HR :0.84332: L2-HR :0.85002: (Sim:1h29m33s) 
CPU  0 inst:  413000005 cyc:  204044422 now IPC :1.97922: AVG IPC :2.02405: L2-Pf-HR :0.84328: L2-HR :0.84999: (Sim:1h29m42s) 
CPU  0 inst:  414000001 cyc:  204539102 now IPC :2.02150: AVG IPC :2.02404: L2-Pf-HR :0.84325: L2-HR :0.84997: (Sim:1h29m51s) 
CPU  0 inst:  415000002 cyc:  205032369 now IPC :2.02730: AVG IPC :2.02405: L2-Pf-HR :0.84320: L2-HR :0.84993: (Sim:1h30m0s) 
CPU  0 inst:  416000004 cyc:  205517529 now IPC :2.06118: AVG IPC :2.02414: L2-Pf-HR :0.84316: L2-HR :0.84990: (Sim:1h30m9s) 
CPU  0 inst:  417000003 cyc:  206014109 now IPC :2.01377: AVG IPC :2.02412: L2-Pf-HR :0.84313: L2-HR :0.84987: (Sim:1h30m18s) 
CPU  0 inst:  418000001 cyc:  206507327 now IPC :2.02750: AVG IPC :2.02412: L2-Pf-HR :0.84311: L2-HR :0.84985: (Sim:1h30m27s) 
CPU  0 inst:  419000002 cyc:  206998836 now IPC :2.03455: AVG IPC :2.02415: L2-Pf-HR :0.84309: L2-HR :0.84984: (Sim:1h30m35s) 
CPU  0 inst:  420000000 cyc:  207494713 now IPC :2.01663: AVG IPC :2.02413: L2-Pf-HR :0.84305: L2-HR :0.84981: (Sim:1h30m45s) 
CPU  0 inst:  421000000 cyc:  207976884 now IPC :2.07395: AVG IPC :2.02425: L2-Pf-HR :0.84301: L2-HR :0.84977: (Sim:1h30m54s) 
CPU  0 inst:  422000001 cyc:  208462876 now IPC :2.05765: AVG IPC :2.02432: L2-Pf-HR :0.84298: L2-HR :0.84975: (Sim:1h31m3s) 
CPU  0 inst:  423000002 cyc:  209111408 now IPC :1.54195: AVG IPC :2.02282: L2-Pf-HR :0.84295: L2-HR :0.84964: (Sim:1h31m13s) 
CPU  0 inst:  424000005 cyc:  209613913 now IPC :1.99004: AVG IPC :2.02274: L2-Pf-HR :0.84291: L2-HR :0.84962: (Sim:1h31m22s) 
CPU  0 inst:  425000005 cyc:  210086834 now IPC :2.11452: AVG IPC :2.02295: L2-Pf-HR :0.84289: L2-HR :0.84961: (Sim:1h31m30s) 
CPU  0 inst:  426000005 cyc:  210552809 now IPC :2.14604: AVG IPC :2.02322: L2-Pf-HR :0.84288: L2-HR :0.84961: (Sim:1h31m39s) 
CPU  0 inst:  427000001 cyc:  211015795 now IPC :2.15988: AVG IPC :2.02352: L2-Pf-HR :0.84286: L2-HR :0.84961: (Sim:1h31m47s) 
CPU  0 inst:  428000003 cyc:  211478592 now IPC :2.16078: AVG IPC :2.02383: L2-Pf-HR :0.84285: L2-HR :0.84962: (Sim:1h31m56s) 
CPU  0 inst:  429000004 cyc:  211941139 now IPC :2.16194: AVG IPC :2.02413: L2-Pf-HR :0.84284: L2-HR :0.84964: (Sim:1h32m5s) 
CPU  0 inst:  430000000 cyc:  212400285 now IPC :2.17795: AVG IPC :2.02446: L2-Pf-HR :0.84283: L2-HR :0.84964: (Sim:1h32m13s) 
CPU  0 inst:  431000005 cyc:  212866119 now IPC :2.14670: AVG IPC :2.02473: L2-Pf-HR :0.84281: L2-HR :0.84963: (Sim:1h32m22s) 
CPU  0 inst:  432000004 cyc:  213327515 now IPC :2.16733: AVG IPC :2.02504: L2-Pf-HR :0.84279: L2-HR :0.84963: (Sim:1h32m31s) 
CPU  0 inst:  433000004 cyc:  213791565 now IPC :2.15494: AVG IPC :2.02533: L2-Pf-HR :0.84278: L2-HR :0.84964: (Sim:1h32m39s) 
CPU  0 inst:  434000003 cyc:  214253810 now IPC :2.16335: AVG IPC :2.02562: L2-Pf-HR :0.84280: L2-HR :0.84967: (Sim:1h32m48s) 
CPU  0 inst:  435000004 cyc:  214860264 now IPC :1.64893: AVG IPC :2.02456: L2-Pf-HR :0.84278: L2-HR :0.84960: (Sim:1h32m57s) 
CPU  0 inst:  436000002 cyc:  215334185 now IPC :2.11005: AVG IPC :2.02475: L2-Pf-HR :0.84285: L2-HR :0.84967: (Sim:1h33m6s) 
CPU  0 inst:  437000001 cyc:  215797175 now IPC :2.15987: AVG IPC :2.02504: L2-Pf-HR :0.84293: L2-HR :0.84976: (Sim:1h33m14s) 
CPU  0 inst:  438000002 cyc:  216257742 now IPC :2.17124: AVG IPC :2.02535: L2-Pf-HR :0.84304: L2-HR :0.84988: (Sim:1h33m23s) 
CPU  0 inst:  439000001 cyc:  216722882 now IPC :2.14989: AVG IPC :2.02562: L2-Pf-HR :0.84315: L2-HR :0.84999: (Sim:1h33m31s) 
CPU  0 inst:  440000004 cyc:  217189344 now IPC :2.14380: AVG IPC :2.02587: L2-Pf-HR :0.84323: L2-HR :0.85008: (Sim:1h33m40s) 
CPU  0 inst:  441000004 cyc:  217655096 now IPC :2.14707: AVG IPC :2.02613: L2-Pf-HR :0.84333: L2-HR :0.85019: (Sim:1h33m49s) 
CPU  0 inst:  442000003 cyc:  218170228 now IPC :1.94125: AVG IPC :2.02593: L2-Pf-HR :0.84344: L2-HR :0.85026: (Sim:1h33m58s) 
CPU  0 inst:  443000005 cyc:  218816644 now IPC :1.54699: AVG IPC :2.02451: L2-Pf-HR :0.84328: L2-HR :0.85006: (Sim:1h34m8s) 
CPU  0 inst:  444000005 cyc:  219331977 now IPC :1.94049: AVG IPC :2.02431: L2-Pf-HR :0.84323: L2-HR :0.85001: (Sim:1h34m17s) 
CPU  0 inst:  445000002 cyc:  219825010 now IPC :2.02826: AVG IPC :2.02432: L2-Pf-HR :0.84321: L2-HR :0.84999: (Sim:1h34m30s) 
CPU  0 inst:  446000001 cyc:  220321350 now IPC :2.01475: AVG IPC :2.02430: L2-Pf-HR :0.84317: L2-HR :0.84996: (Sim:1h34m39s) 
CPU  0 inst:  447000000 cyc:  220811851 now IPC :2.03873: AVG IPC :2.02433: L2-Pf-HR :0.84314: L2-HR :0.84994: (Sim:1h34m48s) 
CPU  0 inst:  448000005 cyc:  221307200 now IPC :2.01879: AVG IPC :2.02432: L2-Pf-HR :0.84311: L2-HR :0.84991: (Sim:1h34m57s) 
CPU  0 inst:  449000004 cyc:  221800337 now IPC :2.02783: AVG IPC :2.02433: L2-Pf-HR :0.84309: L2-HR :0.84989: (Sim:1h35m6s) 
CPU  0 inst:  450000004 cyc:  222291065 now IPC :2.03779: AVG IPC :2.02436: L2-Pf-HR :0.84306: L2-HR :0.84987: (Sim:1h35m16s) 
CPU  0 inst:  451000003 cyc:  222787287 now IPC :2.01522: AVG IPC :2.02434: L2-Pf-HR :0.84303: L2-HR :0.84984: (Sim:1h35m25s) 
CPU  0 inst:  452000000 cyc:  223268933 now IPC :2.07621: AVG IPC :2.02445: L2-Pf-HR :0.84299: L2-HR :0.84981: (Sim:1h35m45s) 
CPU  0 inst:  453000004 cyc:  223756138 now IPC :2.05253: AVG IPC :2.02451: L2-Pf-HR :0.84296: L2-HR :0.84979: (Sim:1h36m4s) 
CPU  0 inst:  454000003 cyc:  224346174 now IPC :1.69481: AVG IPC :2.02364: L2-Pf-HR :0.84294: L2-HR :0.84970: (Sim:1h36m23s) 
CPU  0 inst:  455000005 cyc:  224907404 now IPC :1.78180: AVG IPC :2.02303: L2-Pf-HR :0.84293: L2-HR :0.84967: (Sim:1h36m43s) 
CPU  0 inst:  456000005 cyc:  225395617 now IPC :2.04829: AVG IPC :2.02309: L2-Pf-HR :0.84290: L2-HR :0.84966: (Sim:1h37m2s) 
CPU  0 inst:  457000005 cyc:  225860588 now IPC :2.15067: AVG IPC :2.02335: L2-Pf-HR :0.84288: L2-HR :0.84965: (Sim:1h37m20s) 
CPU  0 inst:  458000001 cyc:  226326405 now IPC :2.14676: AVG IPC :2.02361: L2-Pf-HR :0.84287: L2-HR :0.84965: (Sim:1h37m38s) 
CPU  0 inst:  459000004 cyc:  226793270 now IPC :2.14195: AVG IPC :2.02385: L2-Pf-HR :0.84286: L2-HR :0.84966: (Sim:1h37m56s) 
CPU  0 inst:  460000000 cyc:  227261620 now IPC :2.13515: AVG IPC :2.02408: L2-Pf-HR :0.84285: L2-HR :0.84966: (Sim:1h38m15s) 
CPU  0 inst:  461000005 cyc:  227725437 now IPC :2.15603: AVG IPC :2.02435: L2-Pf-HR :0.84285: L2-HR :0.84967: (Sim:1h38m33s) 
CPU  0 inst:  462000003 cyc:  228184958 now IPC :2.17617: AVG IPC :2.02466: L2-Pf-HR :0.84284: L2-HR :0.84968: (Sim:1h38m51s) 
CPU  0 inst:  463000005 cyc:  228644793 now IPC :2.17470: AVG IPC :2.02496: L2-Pf-HR :0.84281: L2-HR :0.84967: (Sim:1h39m9s) 
CPU  0 inst:  464000005 cyc:  229106641 now IPC :2.16521: AVG IPC :2.02525: L2-Pf-HR :0.84280: L2-HR :0.84967: (Sim:1h39m28s) 
CPU  0 inst:  465000005 cyc:  229570096 now IPC :2.15771: AVG IPC :2.02552: L2-Pf-HR :0.84280: L2-HR :0.84968: (Sim:1h39m46s) 
CPU  0 inst:  466000005 cyc:  230161944 now IPC :1.68962: AVG IPC :2.02465: L2-Pf-HR :0.84281: L2-HR :0.84963: (Sim:1h40m5s) 
CPU  0 inst:  467000004 cyc:  230657294 now IPC :2.01877: AVG IPC :2.02463: L2-Pf-HR :0.84283: L2-HR :0.84966: (Sim:1h40m23s) 
CPU  0 inst:  468000000 cyc:  231127233 now IPC :2.12793: AVG IPC :2.02485: L2-Pf-HR :0.84291: L2-HR :0.84975: (Sim:1h40m42s) 
CPU  0 inst:  469000003 cyc:  231588771 now IPC :2.16668: AVG IPC :2.02513: L2-Pf-HR :0.84299: L2-HR :0.84984: (Sim:1h41m1s) 
CPU  0 inst:  470000003 cyc:  232052402 now IPC :2.15689: AVG IPC :2.02539: L2-Pf-HR :0.84310: L2-HR :0.84995: (Sim:1h41m20s) 
CPU  0 inst:  471000000 cyc:  232515824 now IPC :2.15785: AVG IPC :2.02566: L2-Pf-HR :0.84321: L2-HR :0.85006: (Sim:1h41m38s) 
CPU  0 inst:  472000004 cyc:  232980049 now IPC :2.15414: AVG IPC :2.02592: L2-Pf-HR :0.84330: L2-HR :0.85016: (Sim:1h41m58s) 
CPU  0 inst:  473000001 cyc:  233441102 now IPC :2.16894: AVG IPC :2.02620: L2-Pf-HR :0.84339: L2-HR :0.85026: (Sim:1h42m16s) 
CPU  0 inst:  474000000 cyc:  234128421 now IPC :1.45493: AVG IPC :2.02452: L2-Pf-HR :0.84338: L2-HR :0.85014: (Sim:1h42m37s) 
CPU  0 inst:  475000005 cyc:  234658140 now IPC :1.88780: AVG IPC :2.02421: L2-Pf-HR :0.84333: L2-HR :0.85009: (Sim:1h42m56s) 
CPU  0 inst:  476000005 cyc:  235158615 now IPC :1.99810: AVG IPC :2.02415: L2-Pf-HR :0.84330: L2-HR :0.85008: (Sim:1h43m16s) 
CPU  0 inst:  477000001 cyc:  235655958 now IPC :2.01068: AVG IPC :2.02412: L2-Pf-HR :0.84327: L2-HR :0.85005: (Sim:1h43m31s) 
CPU  0 inst:  478000000 cyc:  236147677 now IPC :2.03368: AVG IPC :2.02414: L2-Pf-HR :0.84323: L2-HR :0.85001: (Sim:1h43m41s) 
CPU  0 inst:  479000002 cyc:  236645279 now IPC :2.00964: AVG IPC :2.02411: L2-Pf-HR :0.84321: L2-HR :0.84999: (Sim:1h44m0s) 
CPU  0 inst:  480000004 cyc:  237139777 now IPC :2.02226: AVG IPC :2.02411: L2-Pf-HR :0.84318: L2-HR :0.84996: (Sim:1h44m19s) 
CPU  0 inst:  481000003 cyc:  237632284 now IPC :2.03043: AVG IPC :2.02412: L2-Pf-HR :0.84316: L2-HR :0.84995: (Sim:1h44m38s) 
CPU  0 inst:  482000005 cyc:  238126254 now IPC :2.02442: AVG IPC :2.02412: L2-Pf-HR :0.84313: L2-HR :0.84993: (Sim:1h44m57s) 
CPU  0 inst:  483000001 cyc:  238609635 now IPC :2.06875: AVG IPC :2.02421: L2-Pf-HR :0.84308: L2-HR :0.84990: (Sim:1h45m17s) 
CPU  0 inst:  484000005 cyc:  239102255 now IPC :2.02997: AVG IPC :2.02422: L2-Pf-HR :0.84305: L2-HR :0.84986: (Sim:1h45m35s) 
CPU  0 inst:  485000002 cyc:  239590716 now IPC :2.04724: AVG IPC :2.02427: L2-Pf-HR :0.84302: L2-HR :0.84984: (Sim:1h45m54s) 
CPU  0 inst:  486000004 cyc:  240242783 now IPC :1.53359: AVG IPC :2.02293: L2-Pf-HR :0.84302: L2-HR :0.84975: (Sim:1h46m15s) 
CPU  0 inst:  487000005 cyc:  240748604 now IPC :1.97699: AVG IPC :2.02284: L2-Pf-HR :0.84299: L2-HR :0.84973: (Sim:1h46m34s) 
CPU  0 inst:  488000004 cyc:  241220223 now IPC :2.12035: AVG IPC :2.02303: L2-Pf-HR :0.84297: L2-HR :0.84972: (Sim:1h46m52s) 
CPU  0 inst:  489000004 cyc:  241690528 now IPC :2.12628: AVG IPC :2.02323: L2-Pf-HR :0.84297: L2-HR :0.84974: (Sim:1h47m9s) 
CPU  0 inst:  490000002 cyc:  242153928 now IPC :2.15796: AVG IPC :2.02349: L2-Pf-HR :0.84296: L2-HR :0.84974: (Sim:1h47m18s) 
CPU  0 inst:  491000002 cyc:  242617216 now IPC :2.15848: AVG IPC :2.02375: L2-Pf-HR :0.84295: L2-HR :0.84974: (Sim:1h47m27s) 
CPU  0 inst:  492000003 cyc:  243080792 now IPC :2.15715: AVG IPC :2.02400: L2-Pf-HR :0.84295: L2-HR :0.84975: (Sim:1h47m37s) 
CPU  0 inst:  493000000 cyc:  243544265 now IPC :2.15762: AVG IPC :2.02426: L2-Pf-HR :0.84294: L2-HR :0.84975: (Sim:1h47m46s) 
CPU  0 inst:  494000001 cyc:  244008119 now IPC :2.15585: AVG IPC :2.02451: L2-Pf-HR :0.84293: L2-HR :0.84974: (Sim:1h47m54s) 
CPU  0 inst:  495000004 cyc:  244471330 now IPC :2.15885: AVG IPC :2.02476: L2-Pf-HR :0.84292: L2-HR :0.84974: (Sim:1h48m3s) 
CPU  0 inst:  496000001 cyc:  244930797 now IPC :2.17643: AVG IPC :2.02505: L2-Pf-HR :0.84290: L2-HR :0.84974: (Sim:1h48m12s) 
CPU  0 inst:  497000004 cyc:  245388326 now IPC :2.18566: AVG IPC :2.02535: L2-Pf-HR :0.84289: L2-HR :0.84975: (Sim:1h48m21s) 
CPU  0 inst:  498000004 cyc:  246010544 now IPC :1.60715: AVG IPC :2.02429: L2-Pf-HR :0.84290: L2-HR :0.84969: (Sim:1h48m31s) 
CPU  0 inst:  499000001 cyc:  246490816 now IPC :2.08215: AVG IPC :2.02440: L2-Pf-HR :0.84294: L2-HR :0.84974: (Sim:1h48m40s) 
CPU  0 inst:  500000000 cyc:  246952657 now IPC :2.16525: AVG IPC :2.02467: L2-Pf-HR :0.84301: L2-HR :0.84982: (Sim:1h48m49s) 
CPU  0 inst:  501000005 cyc:  247416849 now IPC :2.15429: AVG IPC :2.02491: L2-Pf-HR :0.84310: L2-HR :0.84991: (Sim:1h48m58s) 
CPU  0 inst:  502000005 cyc:  247882254 now IPC :2.14867: AVG IPC :2.02514: L2-Pf-HR :0.84317: L2-HR :0.84999: (Sim:1h49m7s) 
CPU  0 inst:  503000001 cyc:  248350242 now IPC :2.13680: AVG IPC :2.02536: L2-Pf-HR :0.84327: L2-HR :0.85009: (Sim:1h49m16s) 
CPU  0 inst:  504000003 cyc:  248815127 now IPC :2.15107: AVG IPC :2.02559: L2-Pf-HR :0.84335: L2-HR :0.85018: (Sim:1h49m25s) 
CPU  0 inst:  505000004 cyc:  249280587 now IPC :2.14841: AVG IPC :2.02582: L2-Pf-HR :0.84346: L2-HR :0.85029: (Sim:1h49m33s) 
CPU  0 inst:  506000001 cyc:  254138171 now IPC :0.20586: AVG IPC :1.99090: L2-Pf-HR :0.84105: L2-HR :0.84655: (Sim:1h49m57s) 
CPU  0 inst:  507000000 cyc:  259604570 now IPC :0.18294: AVG IPC :1.95268: L2-Pf-HR :0.83824: L2-HR :0.84249: (Sim:1h50m24s) 
CPU  0 inst:  508000002 cyc:  265083791 now IPC :0.18251: AVG IPC :1.91596: L2-Pf-HR :0.83548: L2-HR :0.83852: (Sim:1h50m51s) 
CPU  0 inst:  509000004 cyc:  270548647 now IPC :0.18299: AVG IPC :1.88083: L2-Pf-HR :0.83271: L2-HR :0.83466: (Sim:1h51m18s) 
CPU  0 inst:  510000000 cyc:  276019608 now IPC :0.18278: AVG IPC :1.84705: L2-Pf-HR :0.83000: L2-HR :0.83090: (Sim:1h51m44s) 
CPU  0 inst:  511000002 cyc:  281491590 now IPC :0.18275: AVG IPC :1.81458: L2-Pf-HR :0.82727: L2-HR :0.82723: (Sim:1h52m10s) 
CPU  0 inst:  512000004 cyc:  286963598 now IPC :0.18275: AVG IPC :1.78336: L2-Pf-HR :0.82456: L2-HR :0.82365: (Sim:1h52m36s) 
CPU  0 inst:  513000001 cyc:  292440910 now IPC :0.18257: AVG IPC :1.75327: L2-Pf-HR :0.82190: L2-HR :0.82016: (Sim:1h53m3s) 
CPU  0 inst:  514000002 cyc:  297920999 now IPC :0.18248: AVG IPC :1.72428: L2-Pf-HR :0.81930: L2-HR :0.81674: (Sim:1h53m29s) 
CPU  0 inst:  515000001 cyc:  302621465 now IPC :0.21274: AVG IPC :1.70073: L2-Pf-HR :0.81758: L2-HR :0.81454: (Sim:1h53m51s) 
CPU  0 inst:  516000004 cyc:  306312452 now IPC :0.27093: AVG IPC :1.68345: L2-Pf-HR :0.81714: L2-HR :0.81400: (Sim:1h54m9s) 
CPU  0 inst:  517000004 cyc:  310001479 now IPC :0.27107: AVG IPC :1.66658: L2-Pf-HR :0.81670: L2-HR :0.81345: (Sim:1h54m27s) 
CPU  0 inst:  518000000 cyc:  313691455 now IPC :0.27100: AVG IPC :1.65012: L2-Pf-HR :0.81625: L2-HR :0.81291: (Sim:1h54m44s) 
CPU  0 inst:  519000003 cyc:  317379381 now IPC :0.27116: AVG IPC :1.63404: L2-Pf-HR :0.81579: L2-HR :0.81237: (Sim:1h55m7s) 
CPU  0 inst:  520000002 cyc:  321066443 now IPC :0.27122: AVG IPC :1.61834: L2-Pf-HR :0.81534: L2-HR :0.81183: (Sim:1h55m44s) 
CPU  0 inst:  521000000 cyc:  324756350 now IPC :0.27101: AVG IPC :1.60299: L2-Pf-HR :0.81488: L2-HR :0.81128: (Sim:1h56m20s) 
CPU  0 inst:  522000005 cyc:  328447889 now IPC :0.27089: AVG IPC :1.58797: L2-Pf-HR :0.81443: L2-HR :0.81075: (Sim:1h56m59s) 
CPU  0 inst:  523000005 cyc:  332137816 now IPC :0.27101: AVG IPC :1.57330: L2-Pf-HR :0.81398: L2-HR :0.81021: (Sim:1h57m36s) 
CPU  0 inst:  524000002 cyc:  335825351 now IPC :0.27118: AVG IPC :1.55896: L2-Pf-HR :0.81352: L2-HR :0.80967: (Sim:1h58m12s) 
CPU  0 inst:  525000000 cyc:  339513179 now IPC :0.27116: AVG IPC :1.54493: L2-Pf-HR :0.81308: L2-HR :0.80914: (Sim:1h58m51s) 
CPU  0 inst:  526000000 cyc:  343200354 now IPC :0.27121: AVG IPC :1.53121: L2-Pf-HR :0.81263: L2-HR :0.80861: (Sim:1h59m29s) 
CPU  0 inst:  527000000 cyc:  346887038 now IPC :0.27125: AVG IPC :1.51778: L2-Pf-HR :0.81218: L2-HR :0.80808: (Sim:2h0m5s) 
CPU  0 inst:  528000002 cyc:  350577295 now IPC :0.27098: AVG IPC :1.50462: L2-Pf-HR :0.81173: L2-HR :0.80755: (Sim:2h0m42s) 
CPU  0 inst:  529000000 cyc:  354269143 now IPC :0.27087: AVG IPC :1.49172: L2-Pf-HR :0.81129: L2-HR :0.80703: (Sim:2h1m20s) 
CPU  0 inst:  530000001 cyc:  357959033 now IPC :0.27101: AVG IPC :1.47910: L2-Pf-HR :0.81085: L2-HR :0.80650: (Sim:2h1m57s) 
CPU  0 inst:  531000000 cyc:  361645771 now IPC :0.27124: AVG IPC :1.46676: L2-Pf-HR :0.81041: L2-HR :0.80598: (Sim:2h2m34s) 
CPU  0 inst:  532000002 cyc:  365332180 now IPC :0.27127: AVG IPC :1.45466: L2-Pf-HR :0.80999: L2-HR :0.80548: (Sim:2h3m12s) 
CPU  0 inst:  533000004 cyc:  369018644 now IPC :0.27126: AVG IPC :1.44281: L2-Pf-HR :0.80957: L2-HR :0.80498: (Sim:2h3m49s) 
CPU  0 inst:  534000004 cyc:  372705019 now IPC :0.27127: AVG IPC :1.43119: L2-Pf-HR :0.80915: L2-HR :0.80448: (Sim:2h4m25s) 
CPU  0 inst:  535000000 cyc:  376391179 now IPC :0.27128: AVG IPC :1.41980: L2-Pf-HR :0.80873: L2-HR :0.80398: (Sim:2h5m4s) 
CPU  0 inst:  536000005 cyc:  380077569 now IPC :0.27127: AVG IPC :1.40863: L2-Pf-HR :0.80832: L2-HR :0.80348: (Sim:2h5m43s) 
CPU  0 inst:  537000005 cyc:  383766609 now IPC :0.27107: AVG IPC :1.39767: L2-Pf-HR :0.80790: L2-HR :0.80299: (Sim:2h6m21s) 
CPU  0 inst:  538000004 cyc:  387455312 now IPC :0.27110: AVG IPC :1.38692: L2-Pf-HR :0.80750: L2-HR :0.80250: (Sim:2h7m0s) 
CPU  0 inst:  539000000 cyc:  391141964 now IPC :0.27125: AVG IPC :1.37637: L2-Pf-HR :0.80708: L2-HR :0.80200: (Sim:2h7m39s) 
CPU  0 inst:  540000003 cyc:  394828853 now IPC :0.27123: AVG IPC :1.36603: L2-Pf-HR :0.80667: L2-HR :0.80151: (Sim:2h8m17s) 
CPU  0 inst:  541000002 cyc:  398515817 now IPC :0.27123: AVG IPC :1.35587: L2-Pf-HR :0.80626: L2-HR :0.80102: (Sim:2h8m56s) 
CPU  0 inst:  542000000 cyc:  402202230 now IPC :0.27127: AVG IPC :1.34591: L2-Pf-HR :0.80584: L2-HR :0.80052: (Sim:2h9m35s) 
CPU  0 inst:  543000000 cyc:  405889764 now IPC :0.27118: AVG IPC :1.33612: L2-Pf-HR :0.80542: L2-HR :0.80003: (Sim:2h10m14s) 
CPU  0 inst:  544000002 cyc:  409579519 now IPC :0.27102: AVG IPC :1.32650: L2-Pf-HR :0.80501: L2-HR :0.79955: (Sim:2h10m52s) 
CPU  0 inst:  545000001 cyc:  413269480 now IPC :0.27101: AVG IPC :1.31706: L2-Pf-HR :0.80460: L2-HR :0.79906: (Sim:2h11m31s) 
CPU  0 inst:  546000000 cyc:  416956077 now IPC :0.27125: AVG IPC :1.30779: L2-Pf-HR :0.80419: L2-HR :0.79858: (Sim:2h12m10s) 
CPU  0 inst:  547000000 cyc:  420643445 now IPC :0.27120: AVG IPC :1.29868: L2-Pf-HR :0.80378: L2-HR :0.79809: (Sim:2h12m48s) 
CPU  0 inst:  548000000 cyc:  424329278 now IPC :0.27131: AVG IPC :1.28973: L2-Pf-HR :0.80338: L2-HR :0.79761: (Sim:2h13m27s) 
CPU  0 inst:  549000002 cyc:  428015240 now IPC :0.27130: AVG IPC :1.28094: L2-Pf-HR :0.80297: L2-HR :0.79713: (Sim:2h14m6s) 
CPU  0 inst:  550000004 cyc:  431702785 now IPC :0.27118: AVG IPC :1.27230: L2-Pf-HR :0.80256: L2-HR :0.79665: (Sim:2h14m43s) 
CPU  0 inst:  551000002 cyc:  435389721 now IPC :0.27123: AVG IPC :1.26380: L2-Pf-HR :0.80215: L2-HR :0.79617: (Sim:2h15m22s) 
CPU  0 inst:  552000000 cyc:  439079443 now IPC :0.27102: AVG IPC :1.25544: L2-Pf-HR :0.80175: L2-HR :0.79569: (Sim:2h16m1s) 
CPU  0 inst:  553000000 cyc:  442768212 now IPC :0.27109: AVG IPC :1.24722: L2-Pf-HR :0.80134: L2-HR :0.79522: (Sim:2h16m39s) 
CPU  0 inst:  554000004 cyc:  446454500 now IPC :0.27128: AVG IPC :1.23915: L2-Pf-HR :0.80094: L2-HR :0.79474: (Sim:2h17m18s) 
CPU  0 inst:  555000004 cyc:  450143719 now IPC :0.27106: AVG IPC :1.23119: L2-Pf-HR :0.80054: L2-HR :0.79427: (Sim:2h17m57s) 
CPU  0 inst:  556000000 cyc:  453829258 now IPC :0.27133: AVG IPC :1.22338: L2-Pf-HR :0.80014: L2-HR :0.79380: (Sim:2h18m35s) 
CPU  0 inst:  557000003 cyc:  457515324 now IPC :0.27129: AVG IPC :1.21569: L2-Pf-HR :0.79974: L2-HR :0.79333: (Sim:2h19m13s) 
CPU  0 inst:  558000002 cyc:  461202060 now IPC :0.27124: AVG IPC :1.20813: L2-Pf-HR :0.79935: L2-HR :0.79287: (Sim:2h19m52s) 
CPU  0 inst:  559000001 cyc:  464889858 now IPC :0.27116: AVG IPC :1.20068: L2-Pf-HR :0.79896: L2-HR :0.79241: (Sim:2h20m31s) 
CPU  0 inst:  560000001 cyc:  468578818 now IPC :0.27108: AVG IPC :1.19335: L2-Pf-HR :0.79857: L2-HR :0.79195: (Sim:2h21m9s) 
CPU  0 inst:  561000003 cyc:  472265469 now IPC :0.27125: AVG IPC :1.18613: L2-Pf-HR :0.79818: L2-HR :0.79149: (Sim:2h21m48s) 
CPU  0 inst:  562000002 cyc:  475953520 now IPC :0.27115: AVG IPC :1.17903: L2-Pf-HR :0.79778: L2-HR :0.79103: (Sim:2h22m27s) 
CPU  0 inst:  563000000 cyc:  479641023 now IPC :0.27119: AVG IPC :1.17203: L2-Pf-HR :0.79739: L2-HR :0.79057: (Sim:2h23m4s) 
CPU  0 inst:  564000000 cyc:  483327936 now IPC :0.27123: AVG IPC :1.16515: L2-Pf-HR :0.79699: L2-HR :0.79011: (Sim:2h23m43s) 
CPU  0 inst:  565000000 cyc:  487014826 now IPC :0.27123: AVG IPC :1.15837: L2-Pf-HR :0.79660: L2-HR :0.78965: (Sim:2h24m22s) 
CPU  0 inst:  566000001 cyc:  490702331 now IPC :0.27119: AVG IPC :1.15169: L2-Pf-HR :0.79621: L2-HR :0.78919: (Sim:2h24m59s) 
CPU  0 inst:  567000001 cyc:  494391205 now IPC :0.27109: AVG IPC :1.14510: L2-Pf-HR :0.79582: L2-HR :0.78874: (Sim:2h25m39s) 
CPU  0 inst:  568000000 cyc:  498079524 now IPC :0.27113: AVG IPC :1.13862: L2-Pf-HR :0.79543: L2-HR :0.78829: (Sim:2h26m17s) 
CPU  0 inst:  569000000 cyc:  501766656 now IPC :0.27121: AVG IPC :1.13223: L2-Pf-HR :0.79503: L2-HR :0.78783: (Sim:2h26m55s) 
CPU  0 inst:  570000002 cyc:  505454165 now IPC :0.27119: AVG IPC :1.12594: L2-Pf-HR :0.79463: L2-HR :0.78738: (Sim:2h27m34s) 
CPU  0 inst:  571000004 cyc:  509141979 now IPC :0.27116: AVG IPC :1.11974: L2-Pf-HR :0.79424: L2-HR :0.78693: (Sim:2h28m13s) 
CPU  0 inst:  572000004 cyc:  512828162 now IPC :0.27128: AVG IPC :1.11363: L2-Pf-HR :0.79386: L2-HR :0.78649: (Sim:2h28m51s) 
CPU  0 inst:  573000000 cyc:  516516084 now IPC :0.27115: AVG IPC :1.10760: L2-Pf-HR :0.79346: L2-HR :0.78604: (Sim:2h29m30s) 
CPU  0 inst:  574000000 cyc:  520203508 now IPC :0.27119: AVG IPC :1.10166: L2-Pf-HR :0.79308: L2-HR :0.78559: (Sim:2h30m9s) 
CPU  0 inst:  575000001 cyc:  523892792 now IPC :0.27106: AVG IPC :1.09580: L2-Pf-HR :0.79269: L2-HR :0.78515: (Sim:2h30m48s) 
CPU  0 inst:  576000004 cyc:  527579381 now IPC :0.27125: AVG IPC :1.09003: L2-Pf-HR :0.79231: L2-HR :0.78472: (Sim:2h31m26s) 
CPU  0 inst:  577000000 cyc:  531271014 now IPC :0.27088: AVG IPC :1.08432: L2-Pf-HR :0.79193: L2-HR :0.78427: (Sim:2h32m5s) 
CPU  0 inst:  578000003 cyc:  534957611 now IPC :0.27125: AVG IPC :1.07871: L2-Pf-HR :0.79155: L2-HR :0.78383: (Sim:2h32m43s) 
CPU  0 inst:  579000002 cyc:  538644969 now IPC :0.27120: AVG IPC :1.07317: L2-Pf-HR :0.79116: L2-HR :0.78339: (Sim:2h33m22s) 
CPU  0 inst:  580000000 cyc:  542330921 now IPC :0.27130: AVG IPC :1.06771: L2-Pf-HR :0.79078: L2-HR :0.78295: (Sim:2h34m0s) 
CPU  0 inst:  581000000 cyc:  546017533 now IPC :0.27125: AVG IPC :1.06232: L2-Pf-HR :0.79040: L2-HR :0.78252: (Sim:2h34m39s) 
CPU  0 inst:  582000005 cyc:  549706438 now IPC :0.27108: AVG IPC :1.05701: L2-Pf-HR :0.79001: L2-HR :0.78208: (Sim:2h35m17s) 
CPU  0 inst:  583000002 cyc:  553394911 now IPC :0.27111: AVG IPC :1.05176: L2-Pf-HR :0.78964: L2-HR :0.78164: (Sim:2h35m56s) 
CPU  0 inst:  584000000 cyc:  557080880 now IPC :0.27130: AVG IPC :1.04658: L2-Pf-HR :0.78927: L2-HR :0.78121: (Sim:2h36m34s) 
CPU  0 inst:  585000000 cyc:  560767426 now IPC :0.27126: AVG IPC :1.04148: L2-Pf-HR :0.78888: L2-HR :0.78078: (Sim:2h37m13s) 
CPU  0 inst:  586000000 cyc:  564454452 now IPC :0.27122: AVG IPC :1.03644: L2-Pf-HR :0.78850: L2-HR :0.78034: (Sim:2h37m52s) 
CPU  0 inst:  587000002 cyc:  568140888 now IPC :0.27127: AVG IPC :1.03146: L2-Pf-HR :0.78812: L2-HR :0.77991: (Sim:2h38m30s) 
CPU  0 inst:  588000004 cyc:  571827877 now IPC :0.27122: AVG IPC :1.02655: L2-Pf-HR :0.78774: L2-HR :0.77948: (Sim:2h39m9s) 
CPU  0 inst:  589000002 cyc:  575515699 now IPC :0.27116: AVG IPC :1.02171: L2-Pf-HR :0.78738: L2-HR :0.77906: (Sim:2h39m48s) 
CPU  0 inst:  590000001 cyc:  579205325 now IPC :0.27103: AVG IPC :1.01692: L2-Pf-HR :0.78701: L2-HR :0.77863: (Sim:2h40m27s) 
CPU  0 inst:  591000002 cyc:  582893801 now IPC :0.27111: AVG IPC :1.01219: L2-Pf-HR :0.78664: L2-HR :0.77821: (Sim:2h41m5s) 
CPU  0 inst:  592000004 cyc:  586580159 now IPC :0.27127: AVG IPC :1.00752: L2-Pf-HR :0.78627: L2-HR :0.77779: (Sim:2h41m43s) 
CPU  0 inst:  593000004 cyc:  590268075 now IPC :0.27116: AVG IPC :1.00292: L2-Pf-HR :0.78590: L2-HR :0.77736: (Sim:2h42m23s) 
CPU  0 inst:  594000000 cyc:  593954698 now IPC :0.27125: AVG IPC :0.99837: L2-Pf-HR :0.78553: L2-HR :0.77695: (Sim:2h43m0s) 
CPU  0 inst:  595000003 cyc:  597641168 now IPC :0.27126: AVG IPC :0.99387: L2-Pf-HR :0.78515: L2-HR :0.77652: (Sim:2h43m39s) 
CPU  0 inst:  596000002 cyc:  601328436 now IPC :0.27120: AVG IPC :0.98944: L2-Pf-HR :0.78478: L2-HR :0.77610: (Sim:2h44m18s) 
CPU  0 inst:  597000003 cyc:  605017159 now IPC :0.27110: AVG IPC :0.98505: L2-Pf-HR :0.78440: L2-HR :0.77568: (Sim:2h44m56s) 
CPU  0 inst:  598000000 cyc:  608705191 now IPC :0.27115: AVG IPC :0.98072: L2-Pf-HR :0.78403: L2-HR :0.77526: (Sim:2h45m34s) 
CPU  0 inst:  599000003 cyc:  612392633 now IPC :0.27119: AVG IPC :0.97644: L2-Pf-HR :0.78366: L2-HR :0.77485: (Sim:2h46m13s) 
CPU  0 inst:  600000002 cyc:  616080383 now IPC :0.27117: AVG IPC :0.97221: L2-Pf-HR :0.78329: L2-HR :0.77443: (Sim:2h46m51s) 
CPU  0 inst:  601000000 cyc:  619767224 now IPC :0.27123: AVG IPC :0.96803: L2-Pf-HR :0.78292: L2-HR :0.77401: (Sim:2h47m30s) 
CPU  0 inst:  602000000 cyc:  623454337 now IPC :0.27121: AVG IPC :0.96390: L2-Pf-HR :0.78256: L2-HR :0.77360: (Sim:2h48m9s) 
CPU  0 inst:  603000001 cyc:  627140805 now IPC :0.27126: AVG IPC :0.95983: L2-Pf-HR :0.78219: L2-HR :0.77319: (Sim:2h48m46s) 
CPU  0 inst:  604000005 cyc:  630829326 now IPC :0.27111: AVG IPC :0.95579: L2-Pf-HR :0.78184: L2-HR :0.77278: (Sim:2h49m25s) 
CPU  0 inst:  605000001 cyc:  634518949 now IPC :0.27103: AVG IPC :0.95181: L2-Pf-HR :0.78148: L2-HR :0.77238: (Sim:2h50m4s) 
CPU  0 inst:  606000000 cyc:  638205612 now IPC :0.27125: AVG IPC :0.94787: L2-Pf-HR :0.78113: L2-HR :0.77198: (Sim:2h50m43s) 
CPU  0 inst:  607000000 cyc:  641892034 now IPC :0.27127: AVG IPC :0.94398: L2-Pf-HR :0.78077: L2-HR :0.77157: (Sim:2h51m8s) 
CPU  0 inst:  608000002 cyc:  645578886 now IPC :0.27123: AVG IPC :0.94013: L2-Pf-HR :0.78041: L2-HR :0.77117: (Sim:2h51m26s) 
CPU  0 inst:  609000004 cyc:  649266064 now IPC :0.27121: AVG IPC :0.93632: L2-Pf-HR :0.78005: L2-HR :0.77076: (Sim:2h51m43s) 
CPU  0 inst:  610000004 cyc:  652952639 now IPC :0.27125: AVG IPC :0.93256: L2-Pf-HR :0.77968: L2-HR :0.77035: (Sim:2h52m1s) 
CPU  0 inst:  611000001 cyc:  656639727 now IPC :0.27122: AVG IPC :0.92884: L2-Pf-HR :0.77932: L2-HR :0.76995: (Sim:2h52m18s) 
CPU  0 inst:  612000001 cyc:  660328941 now IPC :0.27106: AVG IPC :0.92516: L2-Pf-HR :0.77896: L2-HR :0.76955: (Sim:2h52m36s) 
CPU  0 inst:  613000004 cyc:  664016846 now IPC :0.27116: AVG IPC :0.92153: L2-Pf-HR :0.77860: L2-HR :0.76915: (Sim:2h52m54s) 
CPU  0 inst:  614000004 cyc:  667704340 now IPC :0.27119: AVG IPC :0.91793: L2-Pf-HR :0.77823: L2-HR :0.76874: (Sim:2h53m11s) 
CPU  0 inst:  615000000 cyc:  671391895 now IPC :0.27118: AVG IPC :0.91437: L2-Pf-HR :0.77787: L2-HR :0.76834: (Sim:2h53m29s) 
CPU  0 inst:  616000003 cyc:  675078344 now IPC :0.27126: AVG IPC :0.91085: L2-Pf-HR :0.77752: L2-HR :0.76794: (Sim:2h53m47s) 
CPU  0 inst:  617000002 cyc:  678765600 now IPC :0.27120: AVG IPC :0.90737: L2-Pf-HR :0.77717: L2-HR :0.76755: (Sim:2h54m4s) 
CPU  0 inst:  618000000 cyc:  682452474 now IPC :0.27123: AVG IPC :0.90393: L2-Pf-HR :0.77680: L2-HR :0.76715: (Sim:2h54m22s) 
CPU  0 inst:  619000005 cyc:  686141437 now IPC :0.27108: AVG IPC :0.90053: L2-Pf-HR :0.77645: L2-HR :0.76675: (Sim:2h54m40s) 
CPU  0 inst:  620000005 cyc:  689830439 now IPC :0.27108: AVG IPC :0.89715: L2-Pf-HR :0.77610: L2-HR :0.76636: (Sim:2h54m58s) 
CPU  0 inst:  621000002 cyc:  693517574 now IPC :0.27121: AVG IPC :0.89382: L2-Pf-HR :0.77575: L2-HR :0.76598: (Sim:2h55m15s) 
CPU  0 inst:  622000000 cyc:  697204201 now IPC :0.27125: AVG IPC :0.89053: L2-Pf-HR :0.77540: L2-HR :0.76558: (Sim:2h55m33s) 
CPU  0 inst:  623000000 cyc:  700890658 now IPC :0.27126: AVG IPC :0.88726: L2-Pf-HR :0.77505: L2-HR :0.76519: (Sim:2h55m51s) 
CPU  0 inst:  624000000 cyc:  704577451 now IPC :0.27124: AVG IPC :0.88404: L2-Pf-HR :0.77470: L2-HR :0.76481: (Sim:2h56m8s) 
CPU  0 inst:  625000002 cyc:  708263597 now IPC :0.27129: AVG IPC :0.88084: L2-Pf-HR :0.77435: L2-HR :0.76442: (Sim:2h56m26s) 
CPU  0 inst:  626000000 cyc:  711950369 now IPC :0.27124: AVG IPC :0.87768: L2-Pf-HR :0.77399: L2-HR :0.76403: (Sim:2h56m43s) 
[...]
dac-> Hits: 10, Late: 0, Early: 0, Misses: 0
dad-> Hits: 13, Late: 0, Early: 0, Misses: 0
dae-> Hits: 1, Late: 0, Early: 0, Misses: 0
daf-> Hits: 3, Late: 0, Early: 0, Misses: 0
db0-> Hits: 7, Late: 4, Early: 0, Misses: 0
db1-> Hits: 48, Late: 10146, Early: 0, Misses: 0
db3-> Hits: 2, Late: 0, Early: 0, Misses: 0
db4-> Hits: 1, Late: 0, Early: 0, Misses: 0
db5-> Hits: 3, Late: 0, Early: 0, Misses: 0
db7-> Hits: 3, Late: 0, Early: 0, Misses: 0
db8-> Hits: 3, Late: 0, Early: 0, Misses: 0
db9-> Hits: 2, Late: 0, Early: 0, Misses: 0
dba-> Hits: 1, Late: 0, Early: 0, Misses: 0
dbb-> Hits: 2, Late: 0, Early: 0, Misses: 0
dbc-> Hits: 1, Late: 0, Early: 0, Misses: 0
dbd-> Hits: 1, Late: 0, Early: 0, Misses: 0
dbe-> Hits: 5, Late: 0, Early: 0, Misses: 0
dbf-> Hits: 8, Late: 0, Early: 0, Misses: 0
dc0-> Hits: 18, Late: 6, Early: 0, Misses: 0
dc1-> Hits: 32, Late: 4074, Early: 0, Misses: 0
dc2-> Hits: 3, Late: 2, Early: 0, Misses: 0
dc3-> Hits: 4, Late: 0, Early: 0, Misses: 0
dc7-> Hits: 11, Late: 1, Early: 0, Misses: 0
dc8-> Hits: 3, Late: 1, Early: 0, Misses: 0
dca-> Hits: 3, Late: 0, Early: 0, Misses: 0
dcb-> Hits: 7, Late: 0, Early: 0, Misses: 0
dcc-> Hits: 37, Late: 2, Early: 0, Misses: 0
dcd-> Hits: 37, Late: 0, Early: 0, Misses: 0
dcf-> Hits: 31, Late: 0, Early: 0, Misses: 0
dd1-> Hits: 106, Late: 6072, Early: 0, Misses: 0
dd2-> Hits: 1, Late: 26, Early: 0, Misses: 0
dd3-> Hits: 35, Late: 0, Early: 0, Misses: 0
dd5-> Hits: 2, Late: 0, Early: 0, Misses: 0
dd6-> Hits: 4, Late: 0, Early: 0, Misses: 0
dd8-> Hits: 38, Late: 0, Early: 0, Misses: 0
dd9-> Hits: 31, Late: 0, Early: 0, Misses: 0
dda-> Hits: 4, Late: 79, Early: 0, Misses: 0
ddc-> Hits: 5, Late: 0, Early: 0, Misses: 0
dde-> Hits: 4, Late: 0, Early: 0, Misses: 0
ddf-> Hits: 4, Late: 0, Early: 0, Misses: 0
de0-> Hits: 3, Late: 0, Early: 0, Misses: 0
de2-> Hits: 2, Late: 0, Early: 0, Misses: 0
de3-> Hits: 4, Late: 2, Early: 0, Misses: 0
de4-> Hits: 2, Late: 0, Early: 0, Misses: 0
de7-> Hits: 1, Late: 0, Early: 0, Misses: 0
de8-> Hits: 1, Late: 0, Early: 0, Misses: 0
de9-> Hits: 1, Late: 0, Early: 0, Misses: 0
deb-> Hits: 1, Late: 0, Early: 0, Misses: 0
dec-> Hits: 1, Late: 0, Early: 0, Misses: 0
ded-> Hits: 5, Late: 0, Early: 0, Misses: 0
dee-> Hits: 11, Late: 26, Early: 0, Misses: 0
def-> Hits: 5, Late: 0, Early: 0, Misses: 0
df0-> Hits: 1, Late: 0, Early: 0, Misses: 0
df1-> Hits: 17, Late: 0, Early: 0, Misses: 0
df2-> Hits: 3, Late: 0, Early: 0, Misses: 0
df3-> Hits: 6, Late: 0, Early: 0, Misses: 0
df4-> Hits: 1, Late: 0, Early: 0, Misses: 0
df5-> Hits: 6, Late: 0, Early: 0, Misses: 0
df7-> Hits: 7, Late: 0, Early: 0, Misses: 0
df8-> Hits: 0, Late: 1, Early: 0, Misses: 0
df9-> Hits: 2, Late: 0, Early: 0, Misses: 0
dfb-> Hits: 1, Late: 0, Early: 0, Misses: 0
dfd-> Hits: 3, Late: 0, Early: 0, Misses: 0
e00-> Hits: 16, Late: 1, Early: 0, Misses: 0
e01-> Hits: 2, Late: 0, Early: 0, Misses: 0
e02-> Hits: 4, Late: 0, Early: 0, Misses: 0
e03-> Hits: 1, Late: 0, Early: 0, Misses: 0
e05-> Hits: 2, Late: 1, Early: 0, Misses: 0
e06-> Hits: 17, Late: 23, Early: 0, Misses: 0
e07-> Hits: 0, Late: 31, Early: 0, Misses: 0
e0f-> Hits: 2, Late: 31, Early: 0, Misses: 0
e10-> Hits: 3, Late: 0, Early: 0, Misses: 0
e12-> Hits: 6, Late: 0, Early: 0, Misses: 0
e13-> Hits: 7, Late: 0, Early: 0, Misses: 0
e14-> Hits: 2, Late: 0, Early: 0, Misses: 0
e15-> Hits: 2, Late: 0, Early: 0, Misses: 0
e16-> Hits: 2, Late: 0, Early: 0, Misses: 0
e17-> Hits: 1, Late: 0, Early: 0, Misses: 0
e18-> Hits: 4, Late: 0, Early: 0, Misses: 0
e19-> Hits: 113, Late: 222, Early: 0, Misses: 0
e1a-> Hits: 2, Late: 0, Early: 0, Misses: 0
e1b-> Hits: 35, Late: 298, Early: 0, Misses: 0
e1c-> Hits: 5, Late: 0, Early: 0, Misses: 0
e1d-> Hits: 0, Late: 3, Early: 0, Misses: 0
e1e-> Hits: 15, Late: 318, Early: 0, Misses: 0
e20-> Hits: 12, Late: 4, Early: 0, Misses: 0
e22-> Hits: 3, Late: 0, Early: 0, Misses: 0
e23-> Hits: 5, Late: 333, Early: 0, Misses: 0
e25-> Hits: 1, Late: 0, Early: 0, Misses: 0
e26-> Hits: 2, Late: 0, Early: 0, Misses: 0
e27-> Hits: 1, Late: 0, Early: 0, Misses: 0
e28-> Hits: 8, Late: 333, Early: 0, Misses: 0
e29-> Hits: 32, Late: 301, Early: 0, Misses: 0
e2a-> Hits: 2, Late: 1, Early: 0, Misses: 0
e2c-> Hits: 1, Late: 333, Early: 0, Misses: 0
e2d-> Hits: 2, Late: 0, Early: 0, Misses: 0
e2f-> Hits: 2, Late: 0, Early: 0, Misses: 0
e30-> Hits: 15, Late: 0, Early: 0, Misses: 0
e31-> Hits: 0, Late: 333, Early: 0, Misses: 0
e33-> Hits: 3, Late: 0, Early: 0, Misses: 0
e34-> Hits: 1, Late: 0, Early: 0, Misses: 0
e35-> Hits: 16, Late: 0, Early: 0, Misses: 0
e36-> Hits: 2, Late: 0, Early: 0, Misses: 0
e38-> Hits: 2, Late: 0, Early: 0, Misses: 0
e39-> Hits: 5, Late: 328, Early: 0, Misses: 0
e3a-> Hits: 1, Late: 0, Early: 0, Misses: 0
e3b-> Hits: 0, Late: 1, Early: 0, Misses: 0
e3c-> Hits: 6, Late: 1, Early: 0, Misses: 0
e3d-> Hits: 15, Late: 3, Early: 0, Misses: 0
e3e-> Hits: 2, Late: 0, Early: 0, Misses: 0
e3f-> Hits: 1, Late: 0, Early: 0, Misses: 0
e40-> Hits: 6, Late: 1, Early: 0, Misses: 0
e41-> Hits: 5, Late: 553, Early: 0, Misses: 0
e42-> Hits: 2, Late: 0, Early: 0, Misses: 0
e44-> Hits: 3, Late: 0, Early: 0, Misses: 0
e45-> Hits: 1, Late: 1, Early: 0, Misses: 0
e47-> Hits: 2, Late: 0, Early: 0, Misses: 0
e48-> Hits: 3, Late: 0, Early: 0, Misses: 0
e49-> Hits: 0, Late: 327, Early: 0, Misses: 0
e4a-> Hits: 1, Late: 0, Early: 0, Misses: 0
e4c-> Hits: 1, Late: 1, Early: 0, Misses: 0
e4d-> Hits: 3, Late: 0, Early: 0, Misses: 0
e4f-> Hits: 2, Late: 0, Early: 0, Misses: 0
e50-> Hits: 0, Late: 3, Early: 0, Misses: 0
e51-> Hits: 2, Late: 0, Early: 0, Misses: 0
e54-> Hits: 1, Late: 0, Early: 0, Misses: 0
e55-> Hits: 3, Late: 0, Early: 0, Misses: 0
e57-> Hits: 8, Late: 0, Early: 0, Misses: 0
e58-> Hits: 2, Late: 0, Early: 0, Misses: 0
e59-> Hits: 20, Late: 0, Early: 0, Misses: 0
e5a-> Hits: 22, Late: 0, Early: 0, Misses: 0
e5b-> Hits: 22, Late: 0, Early: 0, Misses: 0
e5c-> Hits: 2, Late: 0, Early: 0, Misses: 0
e5d-> Hits: 20, Late: 0, Early: 0, Misses: 0
e5e-> Hits: 7, Late: 0, Early: 0, Misses: 0
e5f-> Hits: 20, Late: 0, Early: 0, Misses: 0
e60-> Hits: 6, Late: 2, Early: 0, Misses: 0
e61-> Hits: 22, Late: 0, Early: 0, Misses: 0
e62-> Hits: 2, Late: 0, Early: 0, Misses: 0
e63-> Hits: 26, Late: 0, Early: 0, Misses: 0
e64-> Hits: 0, Late: 1, Early: 0, Misses: 0
e65-> Hits: 6, Late: 0, Early: 0, Misses: 0
e68-> Hits: 2, Late: 0, Early: 0, Misses: 0
e6b-> Hits: 1, Late: 0, Early: 0, Misses: 0
e6c-> Hits: 1, Late: 0, Early: 0, Misses: 0
e6f-> Hits: 2, Late: 0, Early: 0, Misses: 0
e70-> Hits: 4, Late: 1, Early: 0, Misses: 1
e71-> Hits: 6, Late: 0, Early: 0, Misses: 0
e72-> Hits: 12, Late: 0, Early: 0, Misses: 0
e73-> Hits: 2, Late: 0, Early: 0, Misses: 0
e74-> Hits: 5, Late: 0, Early: 0, Misses: 0
e75-> Hits: 5, Late: 1, Early: 0, Misses: 0
e76-> Hits: 6, Late: 0, Early: 0, Misses: 0
e77-> Hits: 1, Late: 0, Early: 0, Misses: 0
e79-> Hits: 2, Late: 0, Early: 0, Misses: 0
e7a-> Hits: 1, Late: 0, Early: 0, Misses: 0
e7b-> Hits: 1, Late: 0, Early: 0, Misses: 0
e7d-> Hits: 28, Late: 3, Early: 0, Misses: 0
e7e-> Hits: 0, Late: 31, Early: 0, Misses: 0
e7f-> Hits: 34, Late: 0, Early: 0, Misses: 0
e80-> Hits: 1, Late: 0, Early: 0, Misses: 0
e81-> Hits: 37, Late: 0, Early: 0, Misses: 0
e82-> Hits: 3, Late: 0, Early: 0, Misses: 0
e83-> Hits: 33, Late: 0, Early: 0, Misses: 0
e84-> Hits: 135, Late: 179, Early: 0, Misses: 0
e85-> Hits: 31, Late: 0, Early: 0, Misses: 0
e86-> Hits: 2, Late: 0, Early: 0, Misses: 0
e87-> Hits: 31, Late: 0, Early: 0, Misses: 0
e88-> Hits: 324, Late: 11, Early: 0, Misses: 0
e8a-> Hits: 2, Late: 1, Early: 0, Misses: 0
e8b-> Hits: 2, Late: 0, Early: 0, Misses: 0
e8d-> Hits: 1, Late: 0, Early: 0, Misses: 0
e90-> Hits: 2, Late: 0, Early: 0, Misses: 0
e91-> Hits: 2, Late: 0, Early: 0, Misses: 0
e92-> Hits: 4, Late: 0, Early: 0, Misses: 0
e94-> Hits: 4, Late: 0, Early: 0, Misses: 0
e95-> Hits: 1, Late: 0, Early: 0, Misses: 0
e96-> Hits: 1, Late: 0, Early: 0, Misses: 0
e97-> Hits: 2, Late: 0, Early: 0, Misses: 0
e98-> Hits: 2, Late: 0, Early: 0, Misses: 0
e99-> Hits: 33, Late: 301, Early: 0, Misses: 0
e9a-> Hits: 2, Late: 0, Early: 0, Misses: 0
e9b-> Hits: 1, Late: 0, Early: 0, Misses: 0
e9d-> Hits: 1, Late: 0, Early: 0, Misses: 0
ea0-> Hits: 2, Late: 1, Early: 0, Misses: 0
ea1-> Hits: 4, Late: 0, Early: 0, Misses: 0
ea2-> Hits: 2, Late: 0, Early: 0, Misses: 0
ea5-> Hits: 1, Late: 0, Early: 0, Misses: 0
ea6-> Hits: 0, Late: 1, Early: 0, Misses: 0
ea7-> Hits: 1, Late: 0, Early: 0, Misses: 0
ea8-> Hits: 1, Late: 0, Early: 0, Misses: 0
ea9-> Hits: 3, Late: 0, Early: 0, Misses: 0
eaa-> Hits: 1, Late: 0, Early: 0, Misses: 0
eab-> Hits: 7, Late: 0, Early: 0, Misses: 0
eac-> Hits: 1, Late: 0, Early: 0, Misses: 0
eae-> Hits: 1, Late: 0, Early: 0, Misses: 0
eaf-> Hits: 0, Late: 1, Early: 0, Misses: 0
eb0-> Hits: 366393, Late: 294316, Early: 0, Misses: 0
eb3-> Hits: 1, Late: 0, Early: 0, Misses: 0
eb4-> Hits: 1, Late: 0, Early: 0, Misses: 0
eb5-> Hits: 462061, Late: 105271, Early: 0, Misses: 0
eb6-> Hits: 3, Late: 2, Early: 0, Misses: 0
eb8-> Hits: 1, Late: 0, Early: 0, Misses: 0
eba-> Hits: 343962, Late: 304606, Early: 0, Misses: 0
ebc-> Hits: 3, Late: 0, Early: 0, Misses: 0
ebd-> Hits: 1, Late: 0, Early: 0, Misses: 0
ebe-> Hits: 2, Late: 0, Early: 0, Misses: 0
ebf-> Hits: 2, Late: 1, Early: 0, Misses: 0
ec0-> Hits: 443980, Late: 118598, Early: 0, Misses: 0
ec1-> Hits: 13, Late: 0, Early: 0, Misses: 0
ec2-> Hits: 2, Late: 0, Early: 0, Misses: 0
ec3-> Hits: 2, Late: 0, Early: 0, Misses: 0
ec4-> Hits: 1, Late: 1, Early: 0, Misses: 0
ec5-> Hits: 5, Late: 0, Early: 0, Misses: 0
ec6-> Hits: 313820, Late: 306717, Early: 0, Misses: 0
ec7-> Hits: 1, Late: 1, Early: 0, Misses: 0
ec8-> Hits: 1, Late: 0, Early: 0, Misses: 0
eca-> Hits: 1, Late: 0, Early: 0, Misses: 0
ecb-> Hits: 0, Late: 1, Early: 0, Misses: 0
ecc-> Hits: 432985, Late: 107672, Early: 0, Misses: 0
ecd-> Hits: 1, Late: 0, Early: 0, Misses: 0
ece-> Hits: 0, Late: 1, Early: 0, Misses: 0
ecf-> Hits: 1, Late: 0, Early: 0, Misses: 0
ed0-> Hits: 3, Late: 0, Early: 0, Misses: 0
ed1-> Hits: 298, Late: 38, Early: 0, Misses: 0
ed2-> Hits: 271501, Late: 333933, Early: 0, Misses: 0
ed3-> Hits: 2, Late: 0, Early: 0, Misses: 0
ed5-> Hits: 5, Late: 1, Early: 0, Misses: 0
ed6-> Hits: 1, Late: 0, Early: 0, Misses: 0
ed7-> Hits: 3, Late: 0, Early: 0, Misses: 0
ed8-> Hits: 420620, Late: 107952, Early: 0, Misses: 0
ed9-> Hits: 5, Late: 0, Early: 0, Misses: 0
edb-> Hits: 2, Late: 0, Early: 0, Misses: 0
edc-> Hits: 3, Late: 0, Early: 0, Misses: 0
edf-> Hits: 0, Late: 1, Early: 0, Misses: 0
ee0-> Hits: 6, Late: 334, Early: 0, Misses: 0
ee1-> Hits: 6, Late: 32, Early: 0, Misses: 0
ee2-> Hits: 4, Late: 0, Early: 0, Misses: 0
ee3-> Hits: 5, Late: 0, Early: 0, Misses: 0
ee4-> Hits: 8, Late: 0, Early: 0, Misses: 0
ee5-> Hits: 5, Late: 0, Early: 0, Misses: 0
ee7-> Hits: 5, Late: 0, Early: 0, Misses: 0
ee8-> Hits: 1, Late: 0, Early: 0, Misses: 0
ee9-> Hits: 6, Late: 0, Early: 0, Misses: 0
eea-> Hits: 5, Late: 0, Early: 0, Misses: 0
eeb-> Hits: 2, Late: 0, Early: 0, Misses: 0
eec-> Hits: 2, Late: 0, Early: 0, Misses: 0
eed-> Hits: 2, Late: 0, Early: 0, Misses: 0
eee-> Hits: 2, Late: 0, Early: 0, Misses: 0
eef-> Hits: 16, Late: 0, Early: 0, Misses: 0
ef0-> Hits: 5, Late: 0, Early: 0, Misses: 0
ef1-> Hits: 2, Late: 0, Early: 0, Misses: 0
ef2-> Hits: 3, Late: 0, Early: 0, Misses: 0
ef3-> Hits: 1, Late: 0, Early: 0, Misses: 0
ef4-> Hits: 37, Late: 0, Early: 0, Misses: 0
ef5-> Hits: 1, Late: 0, Early: 0, Misses: 0
ef6-> Hits: 2, Late: 0, Early: 0, Misses: 0
ef7-> Hits: 2, Late: 0, Early: 0, Misses: 0
ef8-> Hits: 3, Late: 2, Early: 0, Misses: 0
ef9-> Hits: 1, Late: 0, Early: 0, Misses: 0
efa-> Hits: 5, Late: 0, Early: 0, Misses: 0
efb-> Hits: 5, Late: 0, Early: 0, Misses: 0
efc-> Hits: 4, Late: 0, Early: 0, Misses: 0
efd-> Hits: 2, Late: 0, Early: 0, Misses: 0
efe-> Hits: 430426, Late: 744127, Early: 0, Misses: 0
eff-> Hits: 6, Late: 0, Early: 0, Misses: 0
f00-> Hits: 4, Late: 0, Early: 0, Misses: 0
f01-> Hits: 4, Late: 0, Early: 0, Misses: 0
f02-> Hits: 4, Late: 0, Early: 0, Misses: 0
f03-> Hits: 2, Late: 0, Early: 0, Misses: 0
f04-> Hits: 6, Late: 0, Early: 0, Misses: 0
f05-> Hits: 3, Late: 0, Early: 0, Misses: 0
f06-> Hits: 8, Late: 0, Early: 0, Misses: 0
f07-> Hits: 2, Late: 0, Early: 0, Misses: 0
f08-> Hits: 4, Late: 0, Early: 0, Misses: 0
f09-> Hits: 9, Late: 0, Early: 0, Misses: 0
f0b-> Hits: 2, Late: 0, Early: 0, Misses: 0
f0c-> Hits: 4, Late: 4, Early: 0, Misses: 0
f0d-> Hits: 2, Late: 0, Early: 0, Misses: 0
f0e-> Hits: 1, Late: 0, Early: 0, Misses: 0
f10-> Hits: 40, Late: 3, Early: 0, Misses: 0
f13-> Hits: 34, Late: 0, Early: 0, Misses: 0
f15-> Hits: 1, Late: 0, Early: 0, Misses: 0
f16-> Hits: 1, Late: 0, Early: 0, Misses: 0
f17-> Hits: 341, Late: 0, Early: 0, Misses: 0
f18-> Hits: 1, Late: 0, Early: 0, Misses: 0
f19-> Hits: 4, Late: 2, Early: 0, Misses: 0
f1c-> Hits: 1, Late: 0, Early: 0, Misses: 0
f1e-> Hits: 3, Late: 0, Early: 0, Misses: 0
f20-> Hits: 343, Late: 149, Early: 0, Misses: 0
f21-> Hits: 22, Late: 9, Early: 0, Misses: 0
f22-> Hits: 7, Late: 0, Early: 0, Misses: 1
f23-> Hits: 9, Late: 0, Early: 0, Misses: 0
f24-> Hits: 38, Late: 0, Early: 0, Misses: 0
f25-> Hits: 442, Late: 46, Early: 0, Misses: 0
f26-> Hits: 1, Late: 0, Early: 0, Misses: 0
f27-> Hits: 10, Late: 0, Early: 0, Misses: 0
f28-> Hits: 2, Late: 0, Early: 0, Misses: 0
f29-> Hits: 14, Late: 3, Early: 0, Misses: 0
f2a-> Hits: 321, Late: 176, Early: 0, Misses: 0
f2b-> Hits: 32, Late: 1, Early: 0, Misses: 0
f2f-> Hits: 5, Late: 0, Early: 0, Misses: 0
f30-> Hits: 456, Late: 45, Early: 0, Misses: 0
f31-> Hits: 1153, Late: 0, Early: 0, Misses: 0
f32-> Hits: 37, Late: 0, Early: 0, Misses: 0
f33-> Hits: 9, Late: 0, Early: 0, Misses: 0
f34-> Hits: 1, Late: 2, Early: 0, Misses: 0
f37-> Hits: 5, Late: 0, Early: 0, Misses: 0
f39-> Hits: 3, Late: 0, Early: 0, Misses: 0
f3b-> Hits: 8, Late: 0, Early: 0, Misses: 0
f3c-> Hits: 8, Late: 0, Early: 0, Misses: 0
f3d-> Hits: 349, Late: 1, Early: 0, Misses: 0
f3e-> Hits: 1, Late: 0, Early: 0, Misses: 0
f3f-> Hits: 15, Late: 0, Early: 0, Misses: 0
f40-> Hits: 325, Late: 143, Early: 0, Misses: 0
f41-> Hits: 8, Late: 0, Early: 0, Misses: 0
f43-> Hits: 10, Late: 0, Early: 0, Misses: 0
f44-> Hits: 5, Late: 0, Early: 0, Misses: 0
f45-> Hits: 443, Late: 30, Early: 0, Misses: 0
f47-> Hits: 14, Late: 0, Early: 0, Misses: 0
f49-> Hits: 2, Late: 0, Early: 0, Misses: 0
f4a-> Hits: 294, Late: 174, Early: 0, Misses: 0
f4c-> Hits: 0, Late: 1, Early: 0, Misses: 0
f50-> Hits: 425, Late: 42, Early: 0, Misses: 0
f53-> Hits: 7, Late: 0, Early: 0, Misses: 0
f54-> Hits: 2, Late: 0, Early: 0, Misses: 0
f59-> Hits: 9, Late: 1249, Early: 0, Misses: 1
f5a-> Hits: 36, Late: 0, Early: 0, Misses: 0
f5b-> Hits: 1, Late: 0, Early: 0, Misses: 0
f5d-> Hits: 0, Late: 0, Early: 0, Misses: 1
f5e-> Hits: 1, Late: 0, Early: 0, Misses: 0
f5f-> Hits: 317, Late: 138, Early: 0, Misses: 0
f60-> Hits: 11, Late: 2, Early: 0, Misses: 0
f61-> Hits: 1, Late: 0, Early: 0, Misses: 0
f63-> Hits: 2, Late: 0, Early: 0, Misses: 0
f64-> Hits: 424, Late: 1285, Early: 0, Misses: 0
f65-> Hits: 4, Late: 1, Early: 0, Misses: 0
f66-> Hits: 25, Late: 0, Early: 0, Misses: 0
f68-> Hits: 2, Late: 0, Early: 0, Misses: 0
f69-> Hits: 269, Late: 185, Early: 0, Misses: 0
f6c-> Hits: 83, Late: 1, Early: 0, Misses: 0
f6d-> Hits: 8, Late: 0, Early: 0, Misses: 0
f6f-> Hits: 423, Late: 40, Early: 0, Misses: 0
f70-> Hits: 0, Late: 34, Early: 0, Misses: 0
f73-> Hits: 1, Late: 1, Early: 0, Misses: 0
f74-> Hits: 1009, Late: 251, Early: 0, Misses: 0
f78-> Hits: 0, Late: 1258, Early: 0, Misses: 0
f7a-> Hits: 4, Late: 0, Early: 0, Misses: 0
f7d-> Hits: 5, Late: 1, Early: 0, Misses: 0
f7e-> Hits: 311, Late: 134, Early: 0, Misses: 0
f7f-> Hits: 3, Late: 1, Early: 0, Misses: 0
f80-> Hits: 4, Late: 1, Early: 0, Misses: 0
f83-> Hits: 417, Late: 26, Early: 0, Misses: 0
f85-> Hits: 3, Late: 0, Early: 0, Misses: 0
f86-> Hits: 3, Late: 1, Early: 0, Misses: 0
f87-> Hits: 14, Late: 0, Early: 0, Misses: 0
f88-> Hits: 241, Late: 206, Early: 0, Misses: 0
f89-> Hits: 1, Late: 0, Early: 0, Misses: 0
f8b-> Hits: 57, Late: 0, Early: 0, Misses: 0
f8c-> Hits: 6, Late: 0, Early: 0, Misses: 0
f8d-> Hits: 4, Late: 0, Early: 0, Misses: 0
f8e-> Hits: 390, Late: 55, Early: 0, Misses: 0
f8f-> Hits: 1, Late: 0, Early: 0, Misses: 0
f90-> Hits: 6, Late: 0, Early: 0, Misses: 0
f91-> Hits: 1, Late: 0, Early: 0, Misses: 0
f92-> Hits: 2, Late: 0, Early: 0, Misses: 0
f93-> Hits: 6, Late: 0, Early: 0, Misses: 0
f94-> Hits: 1, Late: 0, Early: 0, Misses: 0
f95-> Hits: 0, Late: 2, Early: 0, Misses: 0
f96-> Hits: 1, Late: 0, Early: 0, Misses: 0
f98-> Hits: 1, Late: 0, Early: 0, Misses: 0
f9a-> Hits: 15, Late: 0, Early: 0, Misses: 0
f9c-> Hits: 3, Late: 0, Early: 0, Misses: 0
f9d-> Hits: 19, Late: 3, Early: 0, Misses: 0
f9e-> Hits: 1, Late: 0, Early: 0, Misses: 0
f9f-> Hits: 4, Late: 0, Early: 0, Misses: 0
fa0-> Hits: 5, Late: 1, Early: 0, Misses: 0
fa1-> Hits: 1, Late: 0, Early: 0, Misses: 0
fa4-> Hits: 1, Late: 0, Early: 0, Misses: 0
faa-> Hits: 3, Late: 0, Early: 0, Misses: 0
fb0-> Hits: 148, Late: 1133, Early: 0, Misses: 0
fb1-> Hits: 3, Late: 3, Early: 0, Misses: 0
fb3-> Hits: 10, Late: 0, Early: 0, Misses: 0
fb6-> Hits: 1, Late: 0, Early: 0, Misses: 0
fb8-> Hits: 6, Late: 1, Early: 0, Misses: 0
fba-> Hits: 35, Late: 104, Early: 0, Misses: 0
fbb-> Hits: 30, Late: 2, Early: 0, Misses: 0
fbd-> Hits: 1, Late: 0, Early: 0, Misses: 0
fbe-> Hits: 1, Late: 0, Early: 0, Misses: 0
fbf-> Hits: 2, Late: 0, Early: 0, Misses: 0
fc0-> Hits: 3, Late: 0, Early: 0, Misses: 0
fc1-> Hits: 335, Late: 134, Early: 0, Misses: 43
fc4-> Hits: 10, Late: 0, Early: 0, Misses: 0
fc5-> Hits: 2, Late: 0, Early: 0, Misses: 0
fc6-> Hits: 2, Late: 0, Early: 0, Misses: 0
fc7-> Hits: 2, Late: 0, Early: 0, Misses: 0
fc8-> Hits: 11, Late: 0, Early: 0, Misses: 0
fca-> Hits: 2, Late: 0, Early: 0, Misses: 0
fcb-> Hits: 1, Late: 0, Early: 0, Misses: 0
fcd-> Hits: 1, Late: 1, Early: 0, Misses: 0
fce-> Hits: 1, Late: 0, Early: 0, Misses: 0
fd0-> Hits: 4, Late: 0, Early: 0, Misses: 0
fd2-> Hits: 1, Late: 0, Early: 0, Misses: 0
fd5-> Hits: 352, Late: 124, Early: 0, Misses: 36
fd6-> Hits: 6, Late: 0, Early: 0, Misses: 0
fd7-> Hits: 6, Late: 0, Early: 0, Misses: 0
fd8-> Hits: 10, Late: 0, Early: 0, Misses: 0
fda-> Hits: 6, Late: 0, Early: 0, Misses: 0
fdc-> Hits: 7, Late: 1, Early: 0, Misses: 0
fde-> Hits: 8, Late: 0, Early: 0, Misses: 0
fdf-> Hits: 44, Late: 2, Early: 0, Misses: 0
fe0-> Hits: 11, Late: 0, Early: 0, Misses: 0
fe1-> Hits: 4, Late: 0, Early: 0, Misses: 0
fe2-> Hits: 2, Late: 0, Early: 0, Misses: 0
fe3-> Hits: 4, Late: 0, Early: 0, Misses: 0
fe4-> Hits: 31, Late: 2, Early: 0, Misses: 0
fe5-> Hits: 5, Late: 8, Early: 0, Misses: 0
fe6-> Hits: 2, Late: 0, Early: 0, Misses: 0
fe7-> Hits: 1, Late: 1, Early: 0, Misses: 0
fe8-> Hits: 271, Late: 172, Early: 0, Misses: 0
feb-> Hits: 1, Late: 2, Early: 0, Misses: 0
fec-> Hits: 6, Late: 0, Early: 0, Misses: 0
fed-> Hits: 403, Late: 40, Early: 0, Misses: 0
fef-> Hits: 0, Late: 1, Early: 0, Misses: 0
ff0-> Hits: 8, Late: 0, Early: 0, Misses: 0
ff2-> Hits: 216, Late: 1489, Early: 0, Misses: 0
ff3-> Hits: 14, Late: 0, Early: 0, Misses: 0
ff5-> Hits: 1, Late: 0, Early: 0, Misses: 0
ff7-> Hits: 4, Late: 0, Early: 0, Misses: 0
ff8-> Hits: 366, Late: 68, Early: 0, Misses: 0
ff9-> Hits: 11, Late: 29, Early: 0, Misses: 0
ffd-> Hits: 2, Late: 0, Early: 0, Misses: 0
ffe-> Hits: 11, Late: 0, Early: 0, Misses: 0
fff-> Hits: 12, Late: 0, Early: 0, Misses: 0
Total misses (from ip) 6323830
Total accesses (misses) 249074687 6323830
Pref: Addr 0 IP 0 Current 0
CPU 0 L2C berti prefetcher final stats
Channel_0_RQ_row_buffer_hit 4004857
Channel_0_RQ_row_buffer_miss 2950234
Channel_0_WQ_row_buffer_hit 1128173
Channel_0_WQ_row_buffer_miss 2547646
Channel_0_WQ_full 62
Channel_0_dbus_congested 5506899

avg_congested_cycle 11

EzSearch AVG IPC :1.11863: L2-Pf-HR :0.81146 : L2-HR :0.80351 Uful:0.12810
     > Finished combination: TraceType=770-tot Sim:1178000000 Prefetcher=L2berti L1=berti
