TRACE: [597000000][OPT-6_7B]_[h32][s512][d128] Warmup: 2000000 NumTraces: 597000000
L1:no:L2:no
*************************************************
   ChampSim Multicore Out-of-Order Simulator
   Last compiled: Oct 27 2024 04:06:21
*************************************************

trace_0 770-tot_memTraces_v3/memTraces[597000000][OPT-6_7B]_[h32][s512][d128].champsim.xz
MAIN.cc ln 751 stats print skipped
CPU  0 inst:    1000000 cyc:     498902 now IPC :2.00440: AVG IPC :2.00440: L2-Pf-HR :-nan: L2-HR :0.58016: (Sim:0h0m8s) 
CPU  0 inst:    2000001 cyc:     983466 now IPC :2.06371: AVG IPC :2.03362: L2-Pf-HR :-nan: L2-HR :0.68041: (Sim:0h0m17s) 

Warmup complete CPU  0 instructions:    2000001 cycles:     983466 (Simulation time: 0 hr 0 min 17 sec) 

CPU  0 inst:    3000000 cyc:    1586834 now IPC :1.65736: AVG IPC :1.65736: L2-Pf-HR :-nan: L2-HR :0.82705: (Sim:0h0m24s) 
CPU  0 inst:    4000001 cyc:    2180662 now IPC :1.68399: AVG IPC :1.67057: L2-Pf-HR :-nan: L2-HR :0.82711: (Sim:0h0m31s) 
CPU  0 inst:    5000003 cyc:    2784121 now IPC :1.65712: AVG IPC :1.66606: L2-Pf-HR :-nan: L2-HR :0.82526: (Sim:0h0m39s) 
CPU  0 inst:    6000003 cyc:    3382545 now IPC :1.67106: AVG IPC :1.66731: L2-Pf-HR :-nan: L2-HR :0.82437: (Sim:0h0m46s) 
CPU  0 inst:    7000003 cyc:    3963837 now IPC :1.72031: AVG IPC :1.67764: L2-Pf-HR :-nan: L2-HR :0.82236: (Sim:0h0m53s) 
CPU  0 inst:    8000000 cyc:    4510941 now IPC :1.82780: AVG IPC :1.70093: L2-Pf-HR :-nan: L2-HR :0.82946: (Sim:0h1m0s) 
CPU  0 inst:    9000002 cyc:    5155651 now IPC :1.55109: AVG IPC :1.67778: L2-Pf-HR :-nan: L2-HR :0.82226: (Sim:0h1m8s) 
CPU  0 inst:   10000004 cyc:    5731774 now IPC :1.73574: AVG IPC :1.68481: L2-Pf-HR :-nan: L2-HR :0.82618: (Sim:0h1m15s) 
CPU  0 inst:   11000000 cyc:    6310770 now IPC :1.72712: AVG IPC :1.68941: L2-Pf-HR :-nan: L2-HR :0.82841: (Sim:0h1m22s) 
CPU  0 inst:   12000002 cyc:    6880915 now IPC :1.75394: AVG IPC :1.69565: L2-Pf-HR :-nan: L2-HR :0.82967: (Sim:0h1m29s) 
CPU  0 inst:   13000001 cyc:    7454145 now IPC :1.74450: AVG IPC :1.69998: L2-Pf-HR :-nan: L2-HR :0.82960: (Sim:0h1m37s) 
CPU  0 inst:   14000003 cyc:    8025047 now IPC :1.75162: AVG IPC :1.70416: L2-Pf-HR :-nan: L2-HR :0.82941: (Sim:0h1m44s) 
CPU  0 inst:   15000003 cyc:    8615998 now IPC :1.69219: AVG IPC :1.70324: L2-Pf-HR :-nan: L2-HR :0.82845: (Sim:0h1m52s) 
CPU  0 inst:   16000005 cyc:    9178109 now IPC :1.77901: AVG IPC :1.70843: L2-Pf-HR :-nan: L2-HR :0.83089: (Sim:0h1m59s) 
CPU  0 inst:   17000002 cyc:    9886944 now IPC :1.41076: AVG IPC :1.68473: L2-Pf-HR :-nan: L2-HR :0.82756: (Sim:0h2m6s) 
CPU  0 inst:   18000001 cyc:   10500837 now IPC :1.62895: AVG IPC :1.68114: L2-Pf-HR :-nan: L2-HR :0.82920: (Sim:0h2m13s) 
CPU  0 inst:   19000000 cyc:   11099741 now IPC :1.66972: AVG IPC :1.68046: L2-Pf-HR :-nan: L2-HR :0.83047: (Sim:0h2m20s) 
CPU  0 inst:   20000002 cyc:   11712409 now IPC :1.63221: AVG IPC :1.67770: L2-Pf-HR :-nan: L2-HR :0.83069: (Sim:0h2m28s) 
CPU  0 inst:   21000004 cyc:   12325001 now IPC :1.63241: AVG IPC :1.67526: L2-Pf-HR :-nan: L2-HR :0.83057: (Sim:0h2m35s) 
CPU  0 inst:   22000004 cyc:   12930615 now IPC :1.65122: AVG IPC :1.67404: L2-Pf-HR :-nan: L2-HR :0.83062: (Sim:0h2m42s) 
CPU  0 inst:   23000002 cyc:   13540215 now IPC :1.64042: AVG IPC :1.67241: L2-Pf-HR :-nan: L2-HR :0.83006: (Sim:0h2m49s) 
CPU  0 inst:   24000002 cyc:   14109080 now IPC :1.75789: AVG IPC :1.67611: L2-Pf-HR :-nan: L2-HR :0.83146: (Sim:0h2m56s) 
CPU  0 inst:   25000005 cyc:   14826014 now IPC :1.39483: AVG IPC :1.66154: L2-Pf-HR :-nan: L2-HR :0.82937: (Sim:0h3m4s) 
CPU  0 inst:   26000001 cyc:   15441694 now IPC :1.62421: AVG IPC :1.65995: L2-Pf-HR :-nan: L2-HR :0.83040: (Sim:0h3m11s) 
CPU  0 inst:   27000000 cyc:   16049377 now IPC :1.64559: AVG IPC :1.65938: L2-Pf-HR :-nan: L2-HR :0.83123: (Sim:0h3m19s) 
CPU  0 inst:   28000002 cyc:   16665901 now IPC :1.62200: AVG IPC :1.65791: L2-Pf-HR :-nan: L2-HR :0.83132: (Sim:0h3m26s) 
CPU  0 inst:   29000005 cyc:   17281914 now IPC :1.62335: AVG IPC :1.65660: L2-Pf-HR :-nan: L2-HR :0.83110: (Sim:0h3m33s) 
CPU  0 inst:   30000005 cyc:   17887148 now IPC :1.65225: AVG IPC :1.65644: L2-Pf-HR :-nan: L2-HR :0.83132: (Sim:0h3m40s) 
CPU  0 inst:   31000004 cyc:   18495804 now IPC :1.64296: AVG IPC :1.65598: L2-Pf-HR :-nan: L2-HR :0.83073: (Sim:0h3m48s) 
CPU  0 inst:   32000001 cyc:   19066453 now IPC :1.75239: AVG IPC :1.65902: L2-Pf-HR :-nan: L2-HR :0.83161: (Sim:0h3m55s) 
CPU  0 inst:   33000005 cyc:   19779769 now IPC :1.40191: AVG IPC :1.64926: L2-Pf-HR :-nan: L2-HR :0.83016: (Sim:0h4m2s) 
CPU  0 inst:   34000001 cyc:   20391864 now IPC :1.63373: AVG IPC :1.64877: L2-Pf-HR :-nan: L2-HR :0.83084: (Sim:0h4m10s) 
CPU  0 inst:   35000002 cyc:   20994607 now IPC :1.65908: AVG IPC :1.64908: L2-Pf-HR :-nan: L2-HR :0.83139: (Sim:0h4m17s) 
CPU  0 inst:   36000002 cyc:   21607359 now IPC :1.63198: AVG IPC :1.64857: L2-Pf-HR :-nan: L2-HR :0.83148: (Sim:0h4m24s) 
CPU  0 inst:   37000005 cyc:   22208719 now IPC :1.66290: AVG IPC :1.64898: L2-Pf-HR :-nan: L2-HR :0.83156: (Sim:0h4m31s) 
CPU  0 inst:   38000003 cyc:   22822032 now IPC :1.63049: AVG IPC :1.64846: L2-Pf-HR :-nan: L2-HR :0.83157: (Sim:0h4m39s) 
CPU  0 inst:   39000004 cyc:   23427171 now IPC :1.65251: AVG IPC :1.64857: L2-Pf-HR :-nan: L2-HR :0.83103: (Sim:0h4m46s) 
CPU  0 inst:   40000004 cyc:   23995731 now IPC :1.75883: AVG IPC :1.65129: L2-Pf-HR :-nan: L2-HR :0.83170: (Sim:0h4m53s) 
CPU  0 inst:   41000005 cyc:   24710630 now IPC :1.39880: AVG IPC :1.64369: L2-Pf-HR :-nan: L2-HR :0.83053: (Sim:0h5m0s) 
CPU  0 inst:   42000004 cyc:   25308164 now IPC :1.67354: AVG IPC :1.64442: L2-Pf-HR :-nan: L2-HR :0.83119: (Sim:0h5m8s) 
CPU  0 inst:   43000005 cyc:   25918538 now IPC :1.63834: AVG IPC :1.64427: L2-Pf-HR :-nan: L2-HR :0.83149: (Sim:0h5m15s) 
CPU  0 inst:   44000002 cyc:   26529095 now IPC :1.63784: AVG IPC :1.64412: L2-Pf-HR :-nan: L2-HR :0.83155: (Sim:0h5m22s) 
CPU  0 inst:   45000001 cyc:   27131826 now IPC :1.65911: AVG IPC :1.64446: L2-Pf-HR :-nan: L2-HR :0.83170: (Sim:0h5m30s) 
CPU  0 inst:   46000003 cyc:   27740479 now IPC :1.64298: AVG IPC :1.64443: L2-Pf-HR :-nan: L2-HR :0.83171: (Sim:0h5m38s) 
CPU  0 inst:   47000001 cyc:   28351413 now IPC :1.63683: AVG IPC :1.64426: L2-Pf-HR :-nan: L2-HR :0.83114: (Sim:0h5m45s) 
CPU  0 inst:   48000000 cyc:   28926841 now IPC :1.73784: AVG IPC :1.64619: L2-Pf-HR :-nan: L2-HR :0.83177: (Sim:0h5m52s) 
CPU  0 inst:   49000005 cyc:   29637169 now IPC :1.40781: AVG IPC :1.64028: L2-Pf-HR :-nan: L2-HR :0.83080: (Sim:0h6m0s) 
CPU  0 inst:   50000004 cyc:   30236010 now IPC :1.66989: AVG IPC :1.64088: L2-Pf-HR :-nan: L2-HR :0.83127: (Sim:0h6m7s) 
CPU  0 inst:   51000003 cyc:   30852392 now IPC :1.62237: AVG IPC :1.64050: L2-Pf-HR :-nan: L2-HR :0.83153: (Sim:0h6m15s) 
CPU  0 inst:   52000002 cyc:   31462767 now IPC :1.63834: AVG IPC :1.64046: L2-Pf-HR :-nan: L2-HR :0.83150: (Sim:0h6m22s) 
CPU  0 inst:   53000004 cyc:   32058340 now IPC :1.67906: AVG IPC :1.64120: L2-Pf-HR :-nan: L2-HR :0.83173: (Sim:0h6m29s) 
CPU  0 inst:   54000003 cyc:   32664336 now IPC :1.65017: AVG IPC :1.64137: L2-Pf-HR :-nan: L2-HR :0.83173: (Sim:0h6m37s) 
CPU  0 inst:   55000003 cyc:   33280084 now IPC :1.62404: AVG IPC :1.64104: L2-Pf-HR :-nan: L2-HR :0.83133: (Sim:0h6m44s) 
CPU  0 inst:   56000001 cyc:   33852461 now IPC :1.74710: AVG IPC :1.64289: L2-Pf-HR :-nan: L2-HR :0.83180: (Sim:0h6m51s) 
CPU  0 inst:   57000005 cyc:   34566243 now IPC :1.40099: AVG IPC :1.63774: L2-Pf-HR :-nan: L2-HR :0.83099: (Sim:0h6m59s) 
CPU  0 inst:   58000004 cyc:   35172950 now IPC :1.64824: AVG IPC :1.63793: L2-Pf-HR :-nan: L2-HR :0.83140: (Sim:0h7m6s) 
CPU  0 inst:   59000005 cyc:   35785859 now IPC :1.63157: AVG IPC :1.63782: L2-Pf-HR :-nan: L2-HR :0.83161: (Sim:0h7m14s) 
CPU  0 inst:   60000002 cyc:   36386560 now IPC :1.66472: AVG IPC :1.63827: L2-Pf-HR :-nan: L2-HR :0.83175: (Sim:0h7m21s) 
CPU  0 inst:   61000004 cyc:   37001454 now IPC :1.62630: AVG IPC :1.63807: L2-Pf-HR :-nan: L2-HR :0.83186: (Sim:0h7m29s) 
CPU  0 inst:   62000000 cyc:   37617292 now IPC :1.62380: AVG IPC :1.63783: L2-Pf-HR :-nan: L2-HR :0.83183: (Sim:0h7m36s) 
CPU  0 inst:   63000003 cyc:   38224617 now IPC :1.64657: AVG IPC :1.63797: L2-Pf-HR :-nan: L2-HR :0.83146: (Sim:0h7m43s) 
CPU  0 inst:   64000001 cyc:   38789861 now IPC :1.76914: AVG IPC :1.63993: L2-Pf-HR :-nan: L2-HR :0.83182: (Sim:0h7m51s) 
CPU  0 inst:   65000005 cyc:   39489620 now IPC :1.42907: AVG IPC :1.63610: L2-Pf-HR :-nan: L2-HR :0.83121: (Sim:0h7m58s) 
CPU  0 inst:   66000001 cyc:   40105228 now IPC :1.62440: AVG IPC :1.63592: L2-Pf-HR :-nan: L2-HR :0.83146: (Sim:0h8m6s) 
CPU  0 inst:   67000002 cyc:   40719568 now IPC :1.62776: AVG IPC :1.63579: L2-Pf-HR :-nan: L2-HR :0.83163: (Sim:0h8m13s) 
CPU  0 inst:   68000002 cyc:   41324734 now IPC :1.65244: AVG IPC :1.63604: L2-Pf-HR :-nan: L2-HR :0.83182: (Sim:0h8m20s) 
CPU  0 inst:   69000004 cyc:   41938220 now IPC :1.63003: AVG IPC :1.63595: L2-Pf-HR :-nan: L2-HR :0.83191: (Sim:0h8m28s) 
CPU  0 inst:   70000002 cyc:   42544570 now IPC :1.64921: AVG IPC :1.63615: L2-Pf-HR :-nan: L2-HR :0.83190: (Sim:0h8m35s) 
CPU  0 inst:   71000003 cyc:   43166411 now IPC :1.60813: AVG IPC :1.63573: L2-Pf-HR :-nan: L2-HR :0.83158: (Sim:0h8m43s) 
CPU  0 inst:   72000001 cyc:   43738223 now IPC :1.74882: AVG IPC :1.63724: L2-Pf-HR :-nan: L2-HR :0.83186: (Sim:0h8m50s) 
CPU  0 inst:   73000005 cyc:   44431242 now IPC :1.44297: AVG IPC :1.63415: L2-Pf-HR :-nan: L2-HR :0.83132: (Sim:0h8m57s) 
CPU  0 inst:   74000001 cyc:   45048453 now IPC :1.62019: AVG IPC :1.63395: L2-Pf-HR :-nan: L2-HR :0.83155: (Sim:0h9m5s) 
CPU  0 inst:   75000000 cyc:   45659183 now IPC :1.63738: AVG IPC :1.63400: L2-Pf-HR :-nan: L2-HR :0.83170: (Sim:0h9m12s) 
CPU  0 inst:   76000002 cyc:   46255285 now IPC :1.67757: AVG IPC :1.63457: L2-Pf-HR :-nan: L2-HR :0.83191: (Sim:0h9m19s) 
CPU  0 inst:   77000004 cyc:   46864221 now IPC :1.64221: AVG IPC :1.63467: L2-Pf-HR :-nan: L2-HR :0.83200: (Sim:0h9m27s) 
CPU  0 inst:   78000002 cyc:   47466861 now IPC :1.65936: AVG IPC :1.63499: L2-Pf-HR :-nan: L2-HR :0.83200: (Sim:0h9m34s) 
CPU  0 inst:   79000000 cyc:   48092792 now IPC :1.59762: AVG IPC :1.63450: L2-Pf-HR :-nan: L2-HR :0.83169: (Sim:0h9m42s) 
CPU  0 inst:   80000000 cyc:   48669109 now IPC :1.73516: AVG IPC :1.63571: L2-Pf-HR :-nan: L2-HR :0.83192: (Sim:0h9m49s) 
CPU  0 inst:   81000005 cyc:   49372782 now IPC :1.42112: AVG IPC :1.63259: L2-Pf-HR :-nan: L2-HR :0.83142: (Sim:0h9m57s) 
CPU  0 inst:   82000001 cyc:   49976782 now IPC :1.65562: AVG IPC :1.63288: L2-Pf-HR :-nan: L2-HR :0.83163: (Sim:0h10m4s) 
CPU  0 inst:   83000000 cyc:   50574908 now IPC :1.67189: AVG IPC :1.63335: L2-Pf-HR :-nan: L2-HR :0.83185: (Sim:0h10m11s) 
CPU  0 inst:   84000002 cyc:   51183308 now IPC :1.64366: AVG IPC :1.63347: L2-Pf-HR :-nan: L2-HR :0.83199: (Sim:0h10m19s) 
CPU  0 inst:   85000004 cyc:   51794822 now IPC :1.63529: AVG IPC :1.63349: L2-Pf-HR :-nan: L2-HR :0.83206: (Sim:0h10m26s) 
CPU  0 inst:   86000005 cyc:   52395885 now IPC :1.66372: AVG IPC :1.63385: L2-Pf-HR :-nan: L2-HR :0.83204: (Sim:0h10m34s) 
CPU  0 inst:   87000002 cyc:   53017611 now IPC :1.60842: AVG IPC :1.63354: L2-Pf-HR :-nan: L2-HR :0.83174: (Sim:0h10m43s) 
CPU  0 inst:   88000000 cyc:   53594085 now IPC :1.73468: AVG IPC :1.63465: L2-Pf-HR :-nan: L2-HR :0.83198: (Sim:0h10m51s) 
CPU  0 inst:   89000004 cyc:   54296590 now IPC :1.42348: AVG IPC :1.63187: L2-Pf-HR :-nan: L2-HR :0.83149: (Sim:0h10m59s) 
CPU  0 inst:   90000003 cyc:   54910914 now IPC :1.62780: AVG IPC :1.63182: L2-Pf-HR :-nan: L2-HR :0.83168: (Sim:0h11m6s) 
CPU  0 inst:   91000000 cyc:   55519513 now IPC :1.64311: AVG IPC :1.63195: L2-Pf-HR :-nan: L2-HR :0.83191: (Sim:0h11m14s) 
CPU  0 inst:   92000002 cyc:   56131092 now IPC :1.63512: AVG IPC :1.63198: L2-Pf-HR :-nan: L2-HR :0.83204: (Sim:0h11m21s) 
CPU  0 inst:   93000000 cyc:   56736822 now IPC :1.65090: AVG IPC :1.63219: L2-Pf-HR :-nan: L2-HR :0.83207: (Sim:0h11m28s) 
CPU  0 inst:   94000002 cyc:   57337061 now IPC :1.66601: AVG IPC :1.63255: L2-Pf-HR :-nan: L2-HR :0.83206: (Sim:0h11m36s) 
CPU  0 inst:   95000004 cyc:   57952923 now IPC :1.62374: AVG IPC :1.63245: L2-Pf-HR :-nan: L2-HR :0.83180: (Sim:0h11m43s) 
CPU  0 inst:   96000002 cyc:   58520585 now IPC :1.76161: AVG IPC :1.63373: L2-Pf-HR :-nan: L2-HR :0.83200: (Sim:0h11m52s) 
CPU  0 inst:   97000005 cyc:   59220072 now IPC :1.42962: AVG IPC :1.63128: L2-Pf-HR :-nan: L2-HR :0.83153: (Sim:0h12m10s) 
CPU  0 inst:   98000001 cyc:   59834322 now IPC :1.62800: AVG IPC :1.63124: L2-Pf-HR :-nan: L2-HR :0.83170: (Sim:0h12m27s) 
CPU  0 inst:   99000000 cyc:   60432871 now IPC :1.67071: AVG IPC :1.63164: L2-Pf-HR :-nan: L2-HR :0.83194: (Sim:0h12m44s) 
CPU  0 inst:  100000002 cyc:   61050111 now IPC :1.62012: AVG IPC :1.63152: L2-Pf-HR :-nan: L2-HR :0.83206: (Sim:0h13m0s) 
CPU  0 inst:  101000004 cyc:   61653973 now IPC :1.65601: AVG IPC :1.63176: L2-Pf-HR :-nan: L2-HR :0.83212: (Sim:0h13m17s) 
CPU  0 inst:  102000005 cyc:   62267091 now IPC :1.63101: AVG IPC :1.63176: L2-Pf-HR :-nan: L2-HR :0.83206: (Sim:0h13m34s) 
CPU  0 inst:  103000004 cyc:   62891205 now IPC :1.60227: AVG IPC :1.63146: L2-Pf-HR :-nan: L2-HR :0.83184: (Sim:0h13m50s) 
CPU  0 inst:  104000005 cyc:   63460983 now IPC :1.75507: AVG IPC :1.63259: L2-Pf-HR :-nan: L2-HR :0.83200: (Sim:0h14m0s) 
CPU  0 inst:  105000000 cyc:   64166736 now IPC :1.41692: AVG IPC :1.63018: L2-Pf-HR :-nan: L2-HR :0.83157: (Sim:0h14m8s) 
CPU  0 inst:  106000004 cyc:   64772527 now IPC :1.65074: AVG IPC :1.63037: L2-Pf-HR :-nan: L2-HR :0.83178: (Sim:0h14m15s) 
CPU  0 inst:  107000003 cyc:   65391447 now IPC :1.61572: AVG IPC :1.63023: L2-Pf-HR :-nan: L2-HR :0.83197: (Sim:0h14m23s) 
CPU  0 inst:  108000002 cyc:   66005192 now IPC :1.62934: AVG IPC :1.63022: L2-Pf-HR :-nan: L2-HR :0.83209: (Sim:0h14m31s) 
CPU  0 inst:  109000004 cyc:   66608299 now IPC :1.65808: AVG IPC :1.63048: L2-Pf-HR :-nan: L2-HR :0.83214: (Sim:0h14m38s) 
CPU  0 inst:  110000003 cyc:   67217280 now IPC :1.64209: AVG IPC :1.63059: L2-Pf-HR :-nan: L2-HR :0.83208: (Sim:0h14m46s) 
CPU  0 inst:  111000004 cyc:   67835966 now IPC :1.61633: AVG IPC :1.63046: L2-Pf-HR :-nan: L2-HR :0.83191: (Sim:0h14m53s) 
CPU  0 inst:  112000005 cyc:   68404778 now IPC :1.75805: AVG IPC :1.63153: L2-Pf-HR :-nan: L2-HR :0.83201: (Sim:0h15m3s) 
CPU  0 inst:  113000001 cyc:   69107078 now IPC :1.42389: AVG IPC :1.62939: L2-Pf-HR :-nan: L2-HR :0.83161: (Sim:0h15m20s) 
CPU  0 inst:  114000001 cyc:   69711226 now IPC :1.65522: AVG IPC :1.62962: L2-Pf-HR :-nan: L2-HR :0.83183: (Sim:0h15m36s) 
CPU  0 inst:  115000003 cyc:   70323228 now IPC :1.63398: AVG IPC :1.62966: L2-Pf-HR :-nan: L2-HR :0.83200: (Sim:0h15m53s) 
CPU  0 inst:  116000005 cyc:   70936540 now IPC :1.63049: AVG IPC :1.62966: L2-Pf-HR :-nan: L2-HR :0.83209: (Sim:0h16m9s) 
CPU  0 inst:  117000004 cyc:   71544128 now IPC :1.64585: AVG IPC :1.62980: L2-Pf-HR :-nan: L2-HR :0.83213: (Sim:0h16m25s) 
CPU  0 inst:  118000000 cyc:   72161297 now IPC :1.62030: AVG IPC :1.62972: L2-Pf-HR :-nan: L2-HR :0.83207: (Sim:0h16m42s) 
CPU  0 inst:  119000003 cyc:   72785196 now IPC :1.60283: AVG IPC :1.62949: L2-Pf-HR :-nan: L2-HR :0.83194: (Sim:0h16m59s) 
CPU  0 inst:  120000004 cyc:   73354832 now IPC :1.75551: AVG IPC :1.63048: L2-Pf-HR :-nan: L2-HR :0.83201: (Sim:0h17m14s) 
CPU  0 inst:  121000004 cyc:   74061312 now IPC :1.41547: AVG IPC :1.62840: L2-Pf-HR :-nan: L2-HR :0.83162: (Sim:0h17m31s) 
CPU  0 inst:  122000001 cyc:   74654842 now IPC :1.68483: AVG IPC :1.62886: L2-Pf-HR :-nan: L2-HR :0.83185: (Sim:0h17m48s) 
CPU  0 inst:  123000003 cyc:   75260630 now IPC :1.65075: AVG IPC :1.62903: L2-Pf-HR :-nan: L2-HR :0.83202: (Sim:0h18m4s) 
CPU  0 inst:  124000002 cyc:   75861285 now IPC :1.66485: AVG IPC :1.62932: L2-Pf-HR :-nan: L2-HR :0.83215: (Sim:0h18m21s) 
CPU  0 inst:  125000004 cyc:   76475244 now IPC :1.62878: AVG IPC :1.62932: L2-Pf-HR :-nan: L2-HR :0.83215: (Sim:0h18m37s) 
CPU  0 inst:  126000002 cyc:   77088191 now IPC :1.63146: AVG IPC :1.62933: L2-Pf-HR :-nan: L2-HR :0.83209: (Sim:0h18m53s) 
CPU  0 inst:  127000003 cyc:   77708578 now IPC :1.61190: AVG IPC :1.62919: L2-Pf-HR :-nan: L2-HR :0.83199: (Sim:0h19m10s) 
CPU  0 inst:  128000001 cyc:   78281411 now IPC :1.74571: AVG IPC :1.63006: L2-Pf-HR :-nan: L2-HR :0.83206: (Sim:0h19m26s) 
CPU  0 inst:  129000002 cyc:   78975567 now IPC :1.44060: AVG IPC :1.62837: L2-Pf-HR :-nan: L2-HR :0.83171: (Sim:0h19m43s) 
CPU  0 inst:  130000003 cyc:   79585576 now IPC :1.63932: AVG IPC :1.62846: L2-Pf-HR :-nan: L2-HR :0.83191: (Sim:0h19m59s) 
CPU  0 inst:  131000003 cyc:   80197335 now IPC :1.63463: AVG IPC :1.62850: L2-Pf-HR :-nan: L2-HR :0.83207: (Sim:0h20m16s) 
CPU  0 inst:  132000004 cyc:   80805266 now IPC :1.64493: AVG IPC :1.62863: L2-Pf-HR :-nan: L2-HR :0.83218: (Sim:0h20m32s) 
CPU  0 inst:  133000004 cyc:   81412992 now IPC :1.64548: AVG IPC :1.62876: L2-Pf-HR :-nan: L2-HR :0.83219: (Sim:0h20m49s) 
CPU  0 inst:  134000000 cyc:   82024534 now IPC :1.63520: AVG IPC :1.62880: L2-Pf-HR :-nan: L2-HR :0.83210: (Sim:0h21m5s) 
CPU  0 inst:  135000003 cyc:   82650769 now IPC :1.59685: AVG IPC :1.62856: L2-Pf-HR :-nan: L2-HR :0.83204: (Sim:0h21m21s) 
CPU  0 inst:  136000001 cyc:   83228485 now IPC :1.73095: AVG IPC :1.62928: L2-Pf-HR :-nan: L2-HR :0.83212: (Sim:0h21m38s) 
CPU  0 inst:  137000005 cyc:   83915186 now IPC :1.45624: AVG IPC :1.62785: L2-Pf-HR :-nan: L2-HR :0.83180: (Sim:0h21m54s) 
CPU  0 inst:  138000001 cyc:   84533302 now IPC :1.61781: AVG IPC :1.62777: L2-Pf-HR :-nan: L2-HR :0.83199: (Sim:0h22m11s) 
CPU  0 inst:  139000003 cyc:   85144478 now IPC :1.63619: AVG IPC :1.62783: L2-Pf-HR :-nan: L2-HR :0.83212: (Sim:0h22m27s) 
CPU  0 inst:  140000001 cyc:   85747428 now IPC :1.65851: AVG IPC :1.62805: L2-Pf-HR :-nan: L2-HR :0.83219: (Sim:0h22m43s) 
CPU  0 inst:  141000004 cyc:   86359443 now IPC :1.63395: AVG IPC :1.62809: L2-Pf-HR :-nan: L2-HR :0.83221: (Sim:0h23m0s) 
CPU  0 inst:  142000000 cyc:   86962544 now IPC :1.65809: AVG IPC :1.62830: L2-Pf-HR :-nan: L2-HR :0.83219: (Sim:0h23m16s) 
CPU  0 inst:  143000005 cyc:   87594147 now IPC :1.58328: AVG IPC :1.62797: L2-Pf-HR :-nan: L2-HR :0.83211: (Sim:0h23m33s) 
CPU  0 inst:  144000000 cyc:   88167468 now IPC :1.74421: AVG IPC :1.62874: L2-Pf-HR :-nan: L2-HR :0.83214: (Sim:0h23m49s) 
CPU  0 inst:  145000000 cyc:   88851658 now IPC :1.46158: AVG IPC :1.62744: L2-Pf-HR :-nan: L2-HR :0.83184: (Sim:0h24m6s) 
CPU  0 inst:  146000001 cyc:   89469611 now IPC :1.61825: AVG IPC :1.62737: L2-Pf-HR :-nan: L2-HR :0.83202: (Sim:0h24m22s) 
CPU  0 inst:  147000000 cyc:   90075953 now IPC :1.64923: AVG IPC :1.62752: L2-Pf-HR :-nan: L2-HR :0.83217: (Sim:0h24m38s) 
CPU  0 inst:  148000005 cyc:   90691548 now IPC :1.62445: AVG IPC :1.62750: L2-Pf-HR :-nan: L2-HR :0.83223: (Sim:0h24m55s) 
CPU  0 inst:  149000004 cyc:   91305171 now IPC :1.62966: AVG IPC :1.62752: L2-Pf-HR :-nan: L2-HR :0.83222: (Sim:0h25m11s) 
CPU  0 inst:  150000000 cyc:   91911606 now IPC :1.64897: AVG IPC :1.62766: L2-Pf-HR :-nan: L2-HR :0.83223: (Sim:0h25m28s) 
CPU  0 inst:  151000002 cyc:   92541575 now IPC :1.58738: AVG IPC :1.62738: L2-Pf-HR :-nan: L2-HR :0.83213: (Sim:0h25m45s) 
CPU  0 inst:  152000000 cyc:   93116700 now IPC :1.73875: AVG IPC :1.62808: L2-Pf-HR :-nan: L2-HR :0.83215: (Sim:0h26m1s) 
CPU  0 inst:  153000005 cyc:   93798244 now IPC :1.46726: AVG IPC :1.62690: L2-Pf-HR :-nan: L2-HR :0.83188: (Sim:0h26m18s) 
CPU  0 inst:  154000001 cyc:   94424249 now IPC :1.59742: AVG IPC :1.62670: L2-Pf-HR :-nan: L2-HR :0.83205: (Sim:0h26m35s) 
CPU  0 inst:  155000003 cyc:   95032859 now IPC :1.64309: AVG IPC :1.62680: L2-Pf-HR :-nan: L2-HR :0.83218: (Sim:0h26m52s) 
CPU  0 inst:  156000001 cyc:   95642215 now IPC :1.64107: AVG IPC :1.62690: L2-Pf-HR :-nan: L2-HR :0.83221: (Sim:0h27m9s) 
CPU  0 inst:  157000001 cyc:   96252852 now IPC :1.63763: AVG IPC :1.62697: L2-Pf-HR :-nan: L2-HR :0.83218: (Sim:0h27m25s) 
CPU  0 inst:  158000000 cyc:   96856892 now IPC :1.65552: AVG IPC :1.62715: L2-Pf-HR :-nan: L2-HR :0.83223: (Sim:0h27m42s) 
CPU  0 inst:  159000004 cyc:   97483258 now IPC :1.59652: AVG IPC :1.62695: L2-Pf-HR :-nan: L2-HR :0.83217: (Sim:0h27m59s) 
CPU  0 inst:  160000002 cyc:   98051415 now IPC :1.76007: AVG IPC :1.62773: L2-Pf-HR :-nan: L2-HR :0.83212: (Sim:0h28m15s) 
CPU  0 inst:  161000002 cyc:   98737867 now IPC :1.45677: AVG IPC :1.62653: L2-Pf-HR :-nan: L2-HR :0.83187: (Sim:0h28m33s) 
CPU  0 inst:  162000001 cyc:   99358322 now IPC :1.61172: AVG IPC :1.62643: L2-Pf-HR :-nan: L2-HR :0.83202: (Sim:0h28m50s) 
CPU  0 inst:  163000003 cyc:   99963599 now IPC :1.65214: AVG IPC :1.62659: L2-Pf-HR :-nan: L2-HR :0.83215: (Sim:0h29m6s) 
CPU  0 inst:  164000004 cyc:  100577915 now IPC :1.62783: AVG IPC :1.62660: L2-Pf-HR :-nan: L2-HR :0.83220: (Sim:0h29m23s) 
CPU  0 inst:  165000004 cyc:  101179571 now IPC :1.66208: AVG IPC :1.62681: L2-Pf-HR :-nan: L2-HR :0.83222: (Sim:0h29m40s) 
CPU  0 inst:  166000002 cyc:  101791225 now IPC :1.63491: AVG IPC :1.62686: L2-Pf-HR :-nan: L2-HR :0.83224: (Sim:0h29m56s) 
CPU  0 inst:  167000004 cyc:  102424500 now IPC :1.57910: AVG IPC :1.62656: L2-Pf-HR :-nan: L2-HR :0.83216: (Sim:0h30m13s) 
CPU  0 inst:  168000002 cyc:  102996931 now IPC :1.74693: AVG IPC :1.62724: L2-Pf-HR :-nan: L2-HR :0.83214: (Sim:0h30m30s) 
CPU  0 inst:  169000002 cyc:  103676672 now IPC :1.47115: AVG IPC :1.62620: L2-Pf-HR :-nan: L2-HR :0.83190: (Sim:0h30m47s) 
CPU  0 inst:  170000001 cyc:  104293498 now IPC :1.62120: AVG IPC :1.62617: L2-Pf-HR :-nan: L2-HR :0.83207: (Sim:0h31m4s) 
CPU  0 inst:  171000003 cyc:  104907096 now IPC :1.62973: AVG IPC :1.62619: L2-Pf-HR :-nan: L2-HR :0.83214: (Sim:0h31m20s) 
CPU  0 inst:  172000000 cyc:  105520400 now IPC :1.63051: AVG IPC :1.62622: L2-Pf-HR :-nan: L2-HR :0.83217: (Sim:0h31m37s) 
CPU  0 inst:  173000004 cyc:  106117849 now IPC :1.67379: AVG IPC :1.62649: L2-Pf-HR :-nan: L2-HR :0.83221: (Sim:0h31m54s) 
CPU  0 inst:  174000000 cyc:  106725360 now IPC :1.64605: AVG IPC :1.62660: L2-Pf-HR :-nan: L2-HR :0.83222: (Sim:0h32m11s) 
CPU  0 inst:  175000004 cyc:  107354863 now IPC :1.58856: AVG IPC :1.62638: L2-Pf-HR :-nan: L2-HR :0.83214: (Sim:0h32m28s) 
CPU  0 inst:  176000005 cyc:  107932578 now IPC :1.73096: AVG IPC :1.62694: L2-Pf-HR :-nan: L2-HR :0.83213: (Sim:0h32m44s) 
CPU  0 inst:  177000002 cyc:  108610849 now IPC :1.47433: AVG IPC :1.62598: L2-Pf-HR :-nan: L2-HR :0.83189: (Sim:0h33m1s) 
CPU  0 inst:  178000001 cyc:  109225571 now IPC :1.62675: AVG IPC :1.62598: L2-Pf-HR :-nan: L2-HR :0.83205: (Sim:0h33m18s) 
CPU  0 inst:  179000003 cyc:  109836833 now IPC :1.63596: AVG IPC :1.62604: L2-Pf-HR :-nan: L2-HR :0.83213: (Sim:0h33m35s) 
CPU  0 inst:  180000005 cyc:  110447114 now IPC :1.63859: AVG IPC :1.62611: L2-Pf-HR :-nan: L2-HR :0.83215: (Sim:0h33m52s) 
CPU  0 inst:  181000003 cyc:  111047725 now IPC :1.66497: AVG IPC :1.62632: L2-Pf-HR :-nan: L2-HR :0.83223: (Sim:0h34m8s) 
CPU  0 inst:  182000000 cyc:  111654000 now IPC :1.64941: AVG IPC :1.62645: L2-Pf-HR :-nan: L2-HR :0.83225: (Sim:0h34m25s) 
CPU  0 inst:  183000003 cyc:  112283459 now IPC :1.58867: AVG IPC :1.62624: L2-Pf-HR :-nan: L2-HR :0.83218: (Sim:0h34m42s) 
CPU  0 inst:  184000003 cyc:  112861153 now IPC :1.73102: AVG IPC :1.62678: L2-Pf-HR :-nan: L2-HR :0.83217: (Sim:0h34m58s) 
CPU  0 inst:  185000002 cyc:  113529902 now IPC :1.49533: AVG IPC :1.62600: L2-Pf-HR :-nan: L2-HR :0.83195: (Sim:0h35m16s) 
CPU  0 inst:  186000000 cyc:  114151212 now IPC :1.60950: AVG IPC :1.62590: L2-Pf-HR :-nan: L2-HR :0.83209: (Sim:0h35m32s) 
CPU  0 inst:  187000000 cyc:  114764149 now IPC :1.63149: AVG IPC :1.62594: L2-Pf-HR :-nan: L2-HR :0.83216: (Sim:0h35m49s) 
CPU  0 inst:  188000002 cyc:  115371046 now IPC :1.64773: AVG IPC :1.62605: L2-Pf-HR :-nan: L2-HR :0.83222: (Sim:0h36m6s) 
CPU  0 inst:  189000004 cyc:  115986600 now IPC :1.62456: AVG IPC :1.62604: L2-Pf-HR :-nan: L2-HR :0.83227: (Sim:0h36m17s) 
CPU  0 inst:  190000002 cyc:  116595252 now IPC :1.64297: AVG IPC :1.62613: L2-Pf-HR :-nan: L2-HR :0.83226: (Sim:0h36m25s) 
CPU  0 inst:  191000005 cyc:  117222149 now IPC :1.59516: AVG IPC :1.62596: L2-Pf-HR :-nan: L2-HR :0.83220: (Sim:0h36m32s) 
CPU  0 inst:  192000001 cyc:  117803108 now IPC :1.72128: AVG IPC :1.62644: L2-Pf-HR :-nan: L2-HR :0.83217: (Sim:0h36m39s) 
CPU  0 inst:  193000002 cyc:  118469014 now IPC :1.50171: AVG IPC :1.62573: L2-Pf-HR :-nan: L2-HR :0.83196: (Sim:0h36m47s) 
CPU  0 inst:  194000004 cyc:  119096495 now IPC :1.59368: AVG IPC :1.62556: L2-Pf-HR :-nan: L2-HR :0.83208: (Sim:0h36m55s) 
CPU  0 inst:  195000003 cyc:  119708188 now IPC :1.63481: AVG IPC :1.62561: L2-Pf-HR :-nan: L2-HR :0.83215: (Sim:0h37m2s) 
CPU  0 inst:  196000005 cyc:  120307790 now IPC :1.66778: AVG IPC :1.62582: L2-Pf-HR :-nan: L2-HR :0.83221: (Sim:0h37m10s) 
CPU  0 inst:  197000004 cyc:  120916206 now IPC :1.64361: AVG IPC :1.62591: L2-Pf-HR :-nan: L2-HR :0.83227: (Sim:0h37m17s) 
CPU  0 inst:  198000000 cyc:  121526055 now IPC :1.63974: AVG IPC :1.62598: L2-Pf-HR :-nan: L2-HR :0.83226: (Sim:0h37m25s) 
CPU  0 inst:  199000003 cyc:  122146675 now IPC :1.61130: AVG IPC :1.62591: L2-Pf-HR :-nan: L2-HR :0.83220: (Sim:0h37m32s) 
CPU  0 inst:  200000001 cyc:  122720986 now IPC :1.74121: AVG IPC :1.62645: L2-Pf-HR :-nan: L2-HR :0.83216: (Sim:0h37m40s) 
CPU  0 inst:  201000002 cyc:  123344574 now IPC :1.60362: AVG IPC :1.62633: L2-Pf-HR :-nan: L2-HR :0.83214: (Sim:0h37m47s) 
CPU  0 inst:  202000004 cyc:  124003765 now IPC :1.51701: AVG IPC :1.62575: L2-Pf-HR :-nan: L2-HR :0.83208: (Sim:0h37m55s) 
CPU  0 inst:  203000003 cyc:  124614356 now IPC :1.63776: AVG IPC :1.62581: L2-Pf-HR :-nan: L2-HR :0.83215: (Sim:0h38m8s) 
CPU  0 inst:  204000005 cyc:  125223080 now IPC :1.64278: AVG IPC :1.62589: L2-Pf-HR :-nan: L2-HR :0.83224: (Sim:0h38m25s) 
CPU  0 inst:  205000001 cyc:  125835254 now IPC :1.63352: AVG IPC :1.62593: L2-Pf-HR :-nan: L2-HR :0.83228: (Sim:0h38m41s) 
CPU  0 inst:  206000000 cyc:  126445948 now IPC :1.63748: AVG IPC :1.62598: L2-Pf-HR :-nan: L2-HR :0.83229: (Sim:0h38m57s) 
CPU  0 inst:  207000000 cyc:  127053805 now IPC :1.64512: AVG IPC :1.62608: L2-Pf-HR :-nan: L2-HR :0.83236: (Sim:0h39m13s) 
CPU  0 inst:  208000000 cyc:  127651434 now IPC :1.67328: AVG IPC :1.62630: L2-Pf-HR :-nan: L2-HR :0.83217: (Sim:0h39m29s) 
CPU  0 inst:  209000005 cyc:  128235274 now IPC :1.71281: AVG IPC :1.62670: L2-Pf-HR :-nan: L2-HR :0.83229: (Sim:0h39m45s) 
CPU  0 inst:  210000003 cyc:  128940687 now IPC :1.41761: AVG IPC :1.62554: L2-Pf-HR :-nan: L2-HR :0.83208: (Sim:0h40m2s) 
CPU  0 inst:  211000003 cyc:  129544833 now IPC :1.65523: AVG IPC :1.62568: L2-Pf-HR :-nan: L2-HR :0.83216: (Sim:0h40m18s) 
CPU  0 inst:  212000001 cyc:  130163380 now IPC :1.61669: AVG IPC :1.62564: L2-Pf-HR :-nan: L2-HR :0.83224: (Sim:0h40m34s) 
CPU  0 inst:  213000001 cyc:  130768269 now IPC :1.65320: AVG IPC :1.62577: L2-Pf-HR :-nan: L2-HR :0.83228: (Sim:0h40m50s) 
CPU  0 inst:  214000000 cyc:  131367182 now IPC :1.66969: AVG IPC :1.62597: L2-Pf-HR :-nan: L2-HR :0.83229: (Sim:0h41m6s) 
CPU  0 inst:  215000005 cyc:  131972929 now IPC :1.65086: AVG IPC :1.62609: L2-Pf-HR :-nan: L2-HR :0.83235: (Sim:0h41m23s) 
CPU  0 inst:  216000000 cyc:  132582873 now IPC :1.63949: AVG IPC :1.62615: L2-Pf-HR :-nan: L2-HR :0.83218: (Sim:0h41m39s) 
CPU  0 inst:  217000001 cyc:  133155162 now IPC :1.74737: AVG IPC :1.62667: L2-Pf-HR :-nan: L2-HR :0.83235: (Sim:0h41m55s) 
CPU  0 inst:  218000000 cyc:  133864959 now IPC :1.40885: AVG IPC :1.62551: L2-Pf-HR :-nan: L2-HR :0.83207: (Sim:0h42m11s) 
CPU  0 inst:  219000003 cyc:  134461947 now IPC :1.67508: AVG IPC :1.62573: L2-Pf-HR :-nan: L2-HR :0.83217: (Sim:0h42m28s) 
CPU  0 inst:  220000005 cyc:  135074814 now IPC :1.63168: AVG IPC :1.62576: L2-Pf-HR :-nan: L2-HR :0.83224: (Sim:0h42m44s) 
CPU  0 inst:  221000001 cyc:  135691171 now IPC :1.62243: AVG IPC :1.62574: L2-Pf-HR :-nan: L2-HR :0.83227: (Sim:0h43m0s) 
CPU  0 inst:  222000000 cyc:  136290483 now IPC :1.66858: AVG IPC :1.62593: L2-Pf-HR :-nan: L2-HR :0.83228: (Sim:0h43m16s) 
CPU  0 inst:  223000001 cyc:  136898923 now IPC :1.64355: AVG IPC :1.62601: L2-Pf-HR :-nan: L2-HR :0.83231: (Sim:0h43m32s) 
CPU  0 inst:  224000002 cyc:  137512299 now IPC :1.63032: AVG IPC :1.62603: L2-Pf-HR :-nan: L2-HR :0.83219: (Sim:0h43m49s) 
CPU  0 inst:  225000000 cyc:  138084254 now IPC :1.74839: AVG IPC :1.62654: L2-Pf-HR :-nan: L2-HR :0.83232: (Sim:0h44m4s) 
CPU  0 inst:  226000002 cyc:  138801452 now IPC :1.39432: AVG IPC :1.62533: L2-Pf-HR :-nan: L2-HR :0.83207: (Sim:0h44m21s) 
CPU  0 inst:  227000005 cyc:  139407297 now IPC :1.65059: AVG IPC :1.62544: L2-Pf-HR :-nan: L2-HR :0.83218: (Sim:0h44m37s) 
CPU  0 inst:  228000005 cyc:  140026178 now IPC :1.61582: AVG IPC :1.62540: L2-Pf-HR :-nan: L2-HR :0.83225: (Sim:0h44m54s) 
CPU  0 inst:  229000000 cyc:  140627281 now IPC :1.66360: AVG IPC :1.62556: L2-Pf-HR :-nan: L2-HR :0.83230: (Sim:0h45m10s) 
CPU  0 inst:  230000000 cyc:  141239718 now IPC :1.63282: AVG IPC :1.62560: L2-Pf-HR :-nan: L2-HR :0.83229: (Sim:0h45m26s) 
CPU  0 inst:  231000000 cyc:  141844067 now IPC :1.65467: AVG IPC :1.62572: L2-Pf-HR :-nan: L2-HR :0.83228: (Sim:0h45m42s) 
CPU  0 inst:  232000002 cyc:  142447641 now IPC :1.65680: AVG IPC :1.62585: L2-Pf-HR :-nan: L2-HR :0.83219: (Sim:0h45m58s) 
CPU  0 inst:  233000003 cyc:  143020658 now IPC :1.74515: AVG IPC :1.62633: L2-Pf-HR :-nan: L2-HR :0.83233: (Sim:0h46m14s) 
CPU  0 inst:  234000001 cyc:  143726753 now IPC :1.41624: AVG IPC :1.62530: L2-Pf-HR :-nan: L2-HR :0.83210: (Sim:0h46m31s) 
CPU  0 inst:  235000003 cyc:  144340807 now IPC :1.62852: AVG IPC :1.62531: L2-Pf-HR :-nan: L2-HR :0.83219: (Sim:0h46m47s) 
CPU  0 inst:  236000005 cyc:  144946114 now IPC :1.65206: AVG IPC :1.62542: L2-Pf-HR :-nan: L2-HR :0.83226: (Sim:0h47m3s) 
CPU  0 inst:  237000000 cyc:  145541120 now IPC :1.68065: AVG IPC :1.62565: L2-Pf-HR :-nan: L2-HR :0.83230: (Sim:0h47m19s) 
CPU  0 inst:  238000000 cyc:  146153286 now IPC :1.63354: AVG IPC :1.62568: L2-Pf-HR :-nan: L2-HR :0.83229: (Sim:0h47m36s) 
CPU  0 inst:  239000003 cyc:  146758614 now IPC :1.65200: AVG IPC :1.62579: L2-Pf-HR :-nan: L2-HR :0.83226: (Sim:0h47m52s) 
CPU  0 inst:  240000002 cyc:  147367415 now IPC :1.64257: AVG IPC :1.62586: L2-Pf-HR :-nan: L2-HR :0.83222: (Sim:0h48m8s) 
CPU  0 inst:  241000003 cyc:  147941247 now IPC :1.74267: AVG IPC :1.62632: L2-Pf-HR :-nan: L2-HR :0.83235: (Sim:0h48m24s) 
CPU  0 inst:  242000004 cyc:  148651900 now IPC :1.40716: AVG IPC :1.62526: L2-Pf-HR :-nan: L2-HR :0.83212: (Sim:0h48m41s) 
CPU  0 inst:  243000003 cyc:  149259631 now IPC :1.64546: AVG IPC :1.62535: L2-Pf-HR :-nan: L2-HR :0.83222: (Sim:0h48m57s) 
CPU  0 inst:  244000005 cyc:  149865672 now IPC :1.65006: AVG IPC :1.62545: L2-Pf-HR :-nan: L2-HR :0.83228: (Sim:0h49m11s) 
CPU  0 inst:  245000001 cyc:  150468349 now IPC :1.65926: AVG IPC :1.62558: L2-Pf-HR :-nan: L2-HR :0.83232: (Sim:0h49m19s) 
CPU  0 inst:  246000000 cyc:  151078735 now IPC :1.63831: AVG IPC :1.62563: L2-Pf-HR :-nan: L2-HR :0.83231: (Sim:0h49m26s) 
CPU  0 inst:  247000002 cyc:  151679344 now IPC :1.66498: AVG IPC :1.62579: L2-Pf-HR :-nan: L2-HR :0.83228: (Sim:0h49m35s) 
CPU  0 inst:  248000001 cyc:  152288128 now IPC :1.64262: AVG IPC :1.62586: L2-Pf-HR :-nan: L2-HR :0.83223: (Sim:0h49m44s) 
CPU  0 inst:  249000005 cyc:  152860914 now IPC :1.74586: AVG IPC :1.62631: L2-Pf-HR :-nan: L2-HR :0.83236: (Sim:0h49m51s) 
CPU  0 inst:  250000004 cyc:  153572203 now IPC :1.40590: AVG IPC :1.62528: L2-Pf-HR :-nan: L2-HR :0.83215: (Sim:0h49m59s) 
CPU  0 inst:  251000003 cyc:  154181188 now IPC :1.64207: AVG IPC :1.62535: L2-Pf-HR :-nan: L2-HR :0.83224: (Sim:0h50m6s) 
CPU  0 inst:  252000000 cyc:  154782555 now IPC :1.66287: AVG IPC :1.62550: L2-Pf-HR :-nan: L2-HR :0.83232: (Sim:0h50m14s) 
CPU  0 inst:  253000003 cyc:  155387898 now IPC :1.65196: AVG IPC :1.62560: L2-Pf-HR :-nan: L2-HR :0.83232: (Sim:0h50m21s) 
CPU  0 inst:  254000003 cyc:  155998298 now IPC :1.63827: AVG IPC :1.62565: L2-Pf-HR :-nan: L2-HR :0.83231: (Sim:0h50m29s) 
CPU  0 inst:  255000000 cyc:  156604180 now IPC :1.65048: AVG IPC :1.62575: L2-Pf-HR :-nan: L2-HR :0.83230: (Sim:0h50m36s) 
CPU  0 inst:  256000001 cyc:  157216514 now IPC :1.63310: AVG IPC :1.62578: L2-Pf-HR :-nan: L2-HR :0.83224: (Sim:0h50m44s) 
CPU  0 inst:  257000005 cyc:  157787628 now IPC :1.75097: AVG IPC :1.62623: L2-Pf-HR :-nan: L2-HR :0.83235: (Sim:0h50m51s) 
CPU  0 inst:  258000002 cyc:  161988436 now IPC :0.23805: AVG IPC :1.59001: L2-Pf-HR :-nan: L2-HR :0.82209: (Sim:0h51m10s) 
CPU  0 inst:  259000001 cyc:  167467838 now IPC :0.18250: AVG IPC :1.54369: L2-Pf-HR :-nan: L2-HR :0.80980: (Sim:0h51m55s) 
CPU  0 inst:  260000001 cyc:  172946917 now IPC :0.18251: AVG IPC :1.50032: L2-Pf-HR :-nan: L2-HR :0.79841: (Sim:0h52m50s) 
CPU  0 inst:  261000000 cyc:  178428579 now IPC :0.18243: AVG IPC :1.45961: L2-Pf-HR :-nan: L2-HR :0.78783: (Sim:0h53m45s) 
CPU  0 inst:  262000001 cyc:  183803655 now IPC :0.18604: AVG IPC :1.42216: L2-Pf-HR :-nan: L2-HR :0.77822: (Sim:0h54m38s) 
CPU  0 inst:  263000003 cyc:  189293588 now IPC :0.18215: AVG IPC :1.38601: L2-Pf-HR :-nan: L2-HR :0.77655: (Sim:0h55m18s) 
CPU  0 inst:  264000001 cyc:  194769554 now IPC :0.18262: AVG IPC :1.35201: L2-Pf-HR :-nan: L2-HR :0.77488: (Sim:0h55m59s) 
CPU  0 inst:  265000003 cyc:  200175227 now IPC :0.18499: AVG IPC :1.32034: L2-Pf-HR :-nan: L2-HR :0.77323: (Sim:0h56m39s) 
CPU  0 inst:  266000003 cyc:  205325367 now IPC :0.19417: AVG IPC :1.29195: L2-Pf-HR :-nan: L2-HR :0.77160: (Sim:0h57m19s) 
CPU  0 inst:  267000002 cyc:  210553461 now IPC :0.19127: AVG IPC :1.26449: L2-Pf-HR :-nan: L2-HR :0.76997: (Sim:0h57m38s) 
CPU  0 inst:  268000002 cyc:  215670150 now IPC :0.19544: AVG IPC :1.23901: L2-Pf-HR :-nan: L2-HR :0.76836: (Sim:0h57m56s) 
CPU  0 inst:  269000001 cyc:  220863165 now IPC :0.19257: AVG IPC :1.21430: L2-Pf-HR :-nan: L2-HR :0.76676: (Sim:0h58m14s) 
CPU  0 inst:  270000000 cyc:  226017097 now IPC :0.19403: AVG IPC :1.19093: L2-Pf-HR :-nan: L2-HR :0.76517: (Sim:0h58m32s) 
CPU  0 inst:  271000001 cyc:  231267714 now IPC :0.19045: AVG IPC :1.16812: L2-Pf-HR :-nan: L2-HR :0.76359: (Sim:0h58m50s) 
CPU  0 inst:  272000000 cyc:  236470652 now IPC :0.19220: AVG IPC :1.14656: L2-Pf-HR :-nan: L2-HR :0.76203: (Sim:0h59m8s) 
CPU  0 inst:  273000003 cyc:  241650093 now IPC :0.19307: AVG IPC :1.12604: L2-Pf-HR :-nan: L2-HR :0.76047: (Sim:0h59m26s) 
CPU  0 inst:  274000003 cyc:  246844676 now IPC :0.19251: AVG IPC :1.10632: L2-Pf-HR :-nan: L2-HR :0.75893: (Sim:0h59m44s) 
CPU  0 inst:  275000002 cyc:  252113447 now IPC :0.18980: AVG IPC :1.08709: L2-Pf-HR :-nan: L2-HR :0.75739: (Sim:1h0m2s) 
CPU  0 inst:  276000002 cyc:  257197330 now IPC :0.19670: AVG IPC :1.06942: L2-Pf-HR :-nan: L2-HR :0.75587: (Sim:1h0m20s) 
CPU  0 inst:  277000001 cyc:  262471152 now IPC :0.18962: AVG IPC :1.05167: L2-Pf-HR :-nan: L2-HR :0.75436: (Sim:1h0m38s) 
CPU  0 inst:  278000000 cyc:  267524131 now IPC :0.19790: AVG IPC :1.03549: L2-Pf-HR :-nan: L2-HR :0.75286: (Sim:1h0m56s) 
CPU  0 inst:  279000000 cyc:  272546819 now IPC :0.19910: AVG IPC :1.02002: L2-Pf-HR :-nan: L2-HR :0.75137: (Sim:1h1m14s) 
CPU  0 inst:  280000003 cyc:  277543541 now IPC :0.20013: AVG IPC :1.00521: L2-Pf-HR :-nan: L2-HR :0.74989: (Sim:1h1m32s) 
CPU  0 inst:  281000003 cyc:  282641378 now IPC :0.19616: AVG IPC :0.99056: L2-Pf-HR :-nan: L2-HR :0.74843: (Sim:1h1m50s) 
CPU  0 inst:  282000001 cyc:  287624752 now IPC :0.20067: AVG IPC :0.97683: L2-Pf-HR :-nan: L2-HR :0.74697: (Sim:1h2m7s) 
CPU  0 inst:  283000005 cyc:  292820622 now IPC :0.19246: AVG IPC :0.96287: L2-Pf-HR :-nan: L2-HR :0.74552: (Sim:1h2m25s) 
CPU  0 inst:  284000002 cyc:  298022819 now IPC :0.19223: AVG IPC :0.94937: L2-Pf-HR :-nan: L2-HR :0.74408: (Sim:1h2m43s) 
CPU  0 inst:  285000001 cyc:  303276045 now IPC :0.19036: AVG IPC :0.93618: L2-Pf-HR :-nan: L2-HR :0.74265: (Sim:1h3m1s) 
CPU  0 inst:  286000000 cyc:  308468939 now IPC :0.19257: AVG IPC :0.92362: L2-Pf-HR :-nan: L2-HR :0.74123: (Sim:1h3m20s) 
CPU  0 inst:  287000000 cyc:  313512004 now IPC :0.19829: AVG IPC :0.91192: L2-Pf-HR :-nan: L2-HR :0.73983: (Sim:1h3m37s) 
CPU  0 inst:  288000000 cyc:  318598800 now IPC :0.19659: AVG IPC :0.90046: L2-Pf-HR :-nan: L2-HR :0.73843: (Sim:1h3m55s) 
CPU  0 inst:  289000001 cyc:  323834361 now IPC :0.19100: AVG IPC :0.88896: L2-Pf-HR :-nan: L2-HR :0.73704: (Sim:1h4m14s) 
CPU  0 inst:  290000003 cyc:  329092950 now IPC :0.19017: AVG IPC :0.87776: L2-Pf-HR :-nan: L2-HR :0.73566: (Sim:1h4m32s) 
CPU  0 inst:  291000003 cyc:  334379710 now IPC :0.18915: AVG IPC :0.86684: L2-Pf-HR :-nan: L2-HR :0.73429: (Sim:1h4m53s) 
CPU  0 inst:  292000002 cyc:  339420432 now IPC :0.19838: AVG IPC :0.85688: L2-Pf-HR :-nan: L2-HR :0.73293: (Sim:1h5m32s) 
CPU  0 inst:  293000001 cyc:  344696230 now IPC :0.18954: AVG IPC :0.84664: L2-Pf-HR :-nan: L2-HR :0.73158: (Sim:1h6m12s) 
CPU  0 inst:  294000000 cyc:  349905933 now IPC :0.19195: AVG IPC :0.83686: L2-Pf-HR :-nan: L2-HR :0.73023: (Sim:1h6m52s) 
CPU  0 inst:  295000000 cyc:  355057661 now IPC :0.19411: AVG IPC :0.82751: L2-Pf-HR :-nan: L2-HR :0.72890: (Sim:1h7m31s) 
CPU  0 inst:  296000000 cyc:  360211076 now IPC :0.19405: AVG IPC :0.81842: L2-Pf-HR :-nan: L2-HR :0.72758: (Sim:1h8m11s) 
CPU  0 inst:  297000001 cyc:  365372427 now IPC :0.19375: AVG IPC :0.80957: L2-Pf-HR :-nan: L2-HR :0.72626: (Sim:1h8m50s) 
CPU  0 inst:  298000003 cyc:  370546054 now IPC :0.19329: AVG IPC :0.80095: L2-Pf-HR :-nan: L2-HR :0.72496: (Sim:1h9m30s) 
CPU  0 inst:  299000003 cyc:  375671604 now IPC :0.19510: AVG IPC :0.79266: L2-Pf-HR :-nan: L2-HR :0.72366: (Sim:1h10m9s) 
CPU  0 inst:  300000003 cyc:  380818076 now IPC :0.19431: AVG IPC :0.78455: L2-Pf-HR :-nan: L2-HR :0.72237: (Sim:1h10m49s) 
CPU  0 inst:  301000002 cyc:  385963130 now IPC :0.19436: AVG IPC :0.77666: L2-Pf-HR :-nan: L2-HR :0.72109: (Sim:1h11m28s) 
CPU  0 inst:  302000000 cyc:  391217179 now IPC :0.19033: AVG IPC :0.76877: L2-Pf-HR :-nan: L2-HR :0.71981: (Sim:1h12m8s) 
CPU  0 inst:  303000000 cyc:  396382661 now IPC :0.19359: AVG IPC :0.76126: L2-Pf-HR :-nan: L2-HR :0.71855: (Sim:1h12m47s) 
CPU  0 inst:  304000000 cyc:  401545950 now IPC :0.19367: AVG IPC :0.75394: L2-Pf-HR :-nan: L2-HR :0.71729: (Sim:1h13m27s) 
CPU  0 inst:  305000001 cyc:  406738879 now IPC :0.19257: AVG IPC :0.74676: L2-Pf-HR :-nan: L2-HR :0.71605: (Sim:1h14m7s) 
CPU  0 inst:  306000003 cyc:  411924146 now IPC :0.19285: AVG IPC :0.73977: L2-Pf-HR :-nan: L2-HR :0.71481: (Sim:1h14m46s) 
CPU  0 inst:  307000003 cyc:  417171326 now IPC :0.19058: AVG IPC :0.73284: L2-Pf-HR :-nan: L2-HR :0.71357: (Sim:1h15m26s) 
CPU  0 inst:  308000002 cyc:  422249998 now IPC :0.19690: AVG IPC :0.72638: L2-Pf-HR :-nan: L2-HR :0.71235: (Sim:1h16m5s) 
CPU  0 inst:  309000002 cyc:  427430632 now IPC :0.19303: AVG IPC :0.71990: L2-Pf-HR :-nan: L2-HR :0.71113: (Sim:1h16m45s) 
CPU  0 inst:  310000003 cyc:  432527970 now IPC :0.19618: AVG IPC :0.71372: L2-Pf-HR :-nan: L2-HR :0.70993: (Sim:1h17m24s) 
CPU  0 inst:  311000002 cyc:  437662722 now IPC :0.19475: AVG IPC :0.70761: L2-Pf-HR :-nan: L2-HR :0.70873: (Sim:1h18m4s) 
CPU  0 inst:  312000003 cyc:  442754199 now IPC :0.19641: AVG IPC :0.70172: L2-Pf-HR :-nan: L2-HR :0.70753: (Sim:1h18m43s) 
CPU  0 inst:  313000001 cyc:  447839130 now IPC :0.19666: AVG IPC :0.69597: L2-Pf-HR :-nan: L2-HR :0.70635: (Sim:1h19m22s) 
CPU  0 inst:  314000003 cyc:  452967306 now IPC :0.19500: AVG IPC :0.69029: L2-Pf-HR :-nan: L2-HR :0.70517: (Sim:1h20m1s) 
CPU  0 inst:  315000003 cyc:  458075853 now IPC :0.19575: AVG IPC :0.68476: L2-Pf-HR :-nan: L2-HR :0.70400: (Sim:1h20m41s) 
CPU  0 inst:  316000000 cyc:  463322773 now IPC :0.19059: AVG IPC :0.67915: L2-Pf-HR :-nan: L2-HR :0.70284: (Sim:1h21m21s) 
CPU  0 inst:  317000002 cyc:  468482867 now IPC :0.19380: AVG IPC :0.67380: L2-Pf-HR :-nan: L2-HR :0.70168: (Sim:1h22m0s) 
CPU  0 inst:  318000001 cyc:  473627483 now IPC :0.19438: AVG IPC :0.66858: L2-Pf-HR :-nan: L2-HR :0.70053: (Sim:1h22m40s) 
CPU  0 inst:  319000000 cyc:  478791771 now IPC :0.19364: AVG IPC :0.66345: L2-Pf-HR :-nan: L2-HR :0.69939: (Sim:1h23m19s) 
CPU  0 inst:  320000003 cyc:  483955982 now IPC :0.19364: AVG IPC :0.65842: L2-Pf-HR :-nan: L2-HR :0.69826: (Sim:1h23m59s) 
CPU  0 inst:  321000000 cyc:  489195174 now IPC :0.19087: AVG IPC :0.65341: L2-Pf-HR :-nan: L2-HR :0.69713: (Sim:1h24m39s) 
CPU  0 inst:  322000001 cyc:  494358082 now IPC :0.19369: AVG IPC :0.64859: L2-Pf-HR :-nan: L2-HR :0.69601: (Sim:1h25m18s) 
CPU  0 inst:  323000003 cyc:  499590358 now IPC :0.19112: AVG IPC :0.64379: L2-Pf-HR :-nan: L2-HR :0.69489: (Sim:1h25m58s) 
CPU  0 inst:  324000002 cyc:  504607065 now IPC :0.19933: AVG IPC :0.63937: L2-Pf-HR :-nan: L2-HR :0.69379: (Sim:1h26m37s) 
CPU  0 inst:  325000002 cyc:  509752046 now IPC :0.19436: AVG IPC :0.63487: L2-Pf-HR :-nan: L2-HR :0.69269: (Sim:1h27m17s) 
CPU  0 inst:  326000001 cyc:  514960942 now IPC :0.19198: AVG IPC :0.63038: L2-Pf-HR :-nan: L2-HR :0.69159: (Sim:1h27m56s) 
CPU  0 inst:  327000005 cyc:  517114711 now IPC :0.46430: AVG IPC :0.62968: L2-Pf-HR :-nan: L2-HR :0.69075: (Sim:1h28m24s) 
CPU  0 inst:  328000003 cyc:  517718922 now IPC :1.65505: AVG IPC :0.63088: L2-Pf-HR :-nan: L2-HR :0.69111: (Sim:1h28m43s) 
CPU  0 inst:  329000003 cyc:  518369595 now IPC :1.53687: AVG IPC :0.63202: L2-Pf-HR :-nan: L2-HR :0.69159: (Sim:1h29m1s) 
CPU  0 inst:  330000002 cyc:  519030008 now IPC :1.51420: AVG IPC :0.63315: L2-Pf-HR :-nan: L2-HR :0.69197: (Sim:1h29m20s) 
CPU  0 inst:  331000004 cyc:  519507970 now IPC :2.09222: AVG IPC :0.63449: L2-Pf-HR :-nan: L2-HR :0.69248: (Sim:1h29m39s) 
CPU  0 inst:  332000000 cyc:  520045792 now IPC :1.85934: AVG IPC :0.63576: L2-Pf-HR :-nan: L2-HR :0.69306: (Sim:1h29m57s) 
CPU  0 inst:  333000000 cyc:  520602089 now IPC :1.79760: AVG IPC :0.63701: L2-Pf-HR :-nan: L2-HR :0.69353: (Sim:1h30m15s) 
CPU  0 inst:  334000002 cyc:  521089176 now IPC :2.05303: AVG IPC :0.63833: L2-Pf-HR :-nan: L2-HR :0.69412: (Sim:1h30m33s) 
CPU  0 inst:  335000005 cyc:  521787437 now IPC :1.43213: AVG IPC :0.63940: L2-Pf-HR :-nan: L2-HR :0.69450: (Sim:1h30m52s) 
CPU  0 inst:  336000003 cyc:  522374587 now IPC :1.70314: AVG IPC :0.64059: L2-Pf-HR :-nan: L2-HR :0.69488: (Sim:1h31m12s) 
CPU  0 inst:  337000003 cyc:  522959140 now IPC :1.71071: AVG IPC :0.64179: L2-Pf-HR :-nan: L2-HR :0.69534: (Sim:1h31m31s) 
CPU  0 inst:  338000000 cyc:  523673615 now IPC :1.39962: AVG IPC :0.64283: L2-Pf-HR :-nan: L2-HR :0.69567: (Sim:1h31m50s) 
CPU  0 inst:  339000003 cyc:  524143085 now IPC :2.13007: AVG IPC :0.64416: L2-Pf-HR :-nan: L2-HR :0.69617: (Sim:1h32m7s) 
CPU  0 inst:  340000004 cyc:  524611339 now IPC :2.13560: AVG IPC :0.64550: L2-Pf-HR :-nan: L2-HR :0.69664: (Sim:1h32m25s) 
CPU  0 inst:  341000000 cyc:  525118911 now IPC :1.97016: AVG IPC :0.64678: L2-Pf-HR :-nan: L2-HR :0.69727: (Sim:1h32m41s) 
CPU  0 inst:  342000003 cyc:  525681901 now IPC :1.77624: AVG IPC :0.64799: L2-Pf-HR :-nan: L2-HR :0.69771: (Sim:1h33m0s) 
CPU  0 inst:  343000005 cyc:  526178543 now IPC :2.01353: AVG IPC :0.64928: L2-Pf-HR :-nan: L2-HR :0.69833: (Sim:1h33m16s) 
CPU  0 inst:  344000004 cyc:  526844532 now IPC :1.50152: AVG IPC :0.65036: L2-Pf-HR :-nan: L2-HR :0.69854: (Sim:1h33m35s) 
CPU  0 inst:  345000001 cyc:  527413577 now IPC :1.75732: AVG IPC :0.65156: L2-Pf-HR :-nan: L2-HR :0.69889: (Sim:1h33m54s) 
CPU  0 inst:  346000004 cyc:  528008443 now IPC :1.68106: AVG IPC :0.65272: L2-Pf-HR :-nan: L2-HR :0.69937: (Sim:1h34m10s) 
CPU  0 inst:  347000001 cyc:  528616472 now IPC :1.64465: AVG IPC :0.65386: L2-Pf-HR :-nan: L2-HR :0.69970: (Sim:1h34m29s) 
CPU  0 inst:  348000004 cyc:  529085206 now IPC :2.13341: AVG IPC :0.65518: L2-Pf-HR :-nan: L2-HR :0.70018: (Sim:1h34m47s) 
CPU  0 inst:  349000004 cyc:  529609620 now IPC :1.90689: AVG IPC :0.65642: L2-Pf-HR :-nan: L2-HR :0.70071: (Sim:1h35m4s) 
CPU  0 inst:  350000003 cyc:  530149821 now IPC :1.85116: AVG IPC :0.65764: L2-Pf-HR :-nan: L2-HR :0.70114: (Sim:1h35m22s) 
CPU  0 inst:  351000003 cyc:  530629058 now IPC :2.08665: AVG IPC :0.65893: L2-Pf-HR :-nan: L2-HR :0.70171: (Sim:1h35m39s) 
CPU  0 inst:  352000005 cyc:  531284540 now IPC :1.52560: AVG IPC :0.66000: L2-Pf-HR :-nan: L2-HR :0.70199: (Sim:1h35m57s) 
CPU  0 inst:  353000005 cyc:  531861277 now IPC :1.73389: AVG IPC :0.66117: L2-Pf-HR :-nan: L2-HR :0.70235: (Sim:1h36m16s) 
CPU  0 inst:  354000001 cyc:  532416005 now IPC :1.80268: AVG IPC :0.66236: L2-Pf-HR :-nan: L2-HR :0.70280: (Sim:1h36m33s) 
CPU  0 inst:  355000001 cyc:  533086294 now IPC :1.49189: AVG IPC :0.66341: L2-Pf-HR :-nan: L2-HR :0.70306: (Sim:1h36m52s) 
CPU  0 inst:  356000004 cyc:  533556324 now IPC :2.12753: AVG IPC :0.66470: L2-Pf-HR :-nan: L2-HR :0.70352: (Sim:1h37m9s) 
CPU  0 inst:  357000000 cyc:  534029708 now IPC :2.11244: AVG IPC :0.66598: L2-Pf-HR :-nan: L2-HR :0.70398: (Sim:1h37m27s) 
CPU  0 inst:  358000005 cyc:  534561721 now IPC :1.87966: AVG IPC :0.66719: L2-Pf-HR :-nan: L2-HR :0.70450: (Sim:1h37m43s) 
CPU  0 inst:  359000000 cyc:  535089043 now IPC :1.89637: AVG IPC :0.66841: L2-Pf-HR :-nan: L2-HR :0.70494: (Sim:1h38m1s) 
CPU  0 inst:  360000000 cyc:  535588235 now IPC :2.00324: AVG IPC :0.66965: L2-Pf-HR :-nan: L2-HR :0.70552: (Sim:1h38m18s) 
CPU  0 inst:  361000004 cyc:  536254249 now IPC :1.50148: AVG IPC :0.67069: L2-Pf-HR :-nan: L2-HR :0.70567: (Sim:1h38m36s) 
CPU  0 inst:  362000001 cyc:  536821504 now IPC :1.76287: AVG IPC :0.67184: L2-Pf-HR :-nan: L2-HR :0.70599: (Sim:1h38m56s) 
CPU  0 inst:  363000002 cyc:  537409198 now IPC :1.70157: AVG IPC :0.67297: L2-Pf-HR :-nan: L2-HR :0.70643: (Sim:1h39m12s) 
CPU  0 inst:  364000004 cyc:  538003893 now IPC :1.68154: AVG IPC :0.67409: L2-Pf-HR :-nan: L2-HR :0.70673: (Sim:1h39m31s) 
CPU  0 inst:  365000000 cyc:  538472252 now IPC :2.13511: AVG IPC :0.67536: L2-Pf-HR :-nan: L2-HR :0.70717: (Sim:1h39m48s) 
CPU  0 inst:  366000000 cyc:  538990275 now IPC :1.93042: AVG IPC :0.67657: L2-Pf-HR :-nan: L2-HR :0.70767: (Sim:1h40m5s) 
CPU  0 inst:  367000005 cyc:  539531455 now IPC :1.84782: AVG IPC :0.67775: L2-Pf-HR :-nan: L2-HR :0.70806: (Sim:1h40m23s) 
CPU  0 inst:  368000003 cyc:  540021623 now IPC :2.04011: AVG IPC :0.67899: L2-Pf-HR :-nan: L2-HR :0.70861: (Sim:1h40m40s) 
CPU  0 inst:  369000000 cyc:  540683008 now IPC :1.51197: AVG IPC :0.68001: L2-Pf-HR :-nan: L2-HR :0.70881: (Sim:1h40m58s) 
CPU  0 inst:  370000002 cyc:  541247226 now IPC :1.77237: AVG IPC :0.68115: L2-Pf-HR :-nan: L2-HR :0.70916: (Sim:1h41m17s) 
CPU  0 inst:  371000004 cyc:  541839343 now IPC :1.68886: AVG IPC :0.68225: L2-Pf-HR :-nan: L2-HR :0.70953: (Sim:1h41m35s) 
CPU  0 inst:  372000005 cyc:  542468177 now IPC :1.59025: AVG IPC :0.68331: L2-Pf-HR :-nan: L2-HR :0.70980: (Sim:1h41m52s) 
CPU  0 inst:  373000004 cyc:  542937840 now IPC :2.12918: AVG IPC :0.68456: L2-Pf-HR :-nan: L2-HR :0.71022: (Sim:1h42m10s) 
CPU  0 inst:  374000000 cyc:  543420681 now IPC :2.07107: AVG IPC :0.68579: L2-Pf-HR :-nan: L2-HR :0.71068: (Sim:1h42m28s) 
CPU  0 inst:  375000001 cyc:  543991557 now IPC :1.75170: AVG IPC :0.68691: L2-Pf-HR :-nan: L2-HR :0.71104: (Sim:1h42m45s) 
CPU  0 inst:  376000003 cyc:  544466558 now IPC :2.10526: AVG IPC :0.68815: L2-Pf-HR :-nan: L2-HR :0.71154: (Sim:1h43m2s) 
CPU  0 inst:  377000004 cyc:  544963047 now IPC :2.01415: AVG IPC :0.68936: L2-Pf-HR :-nan: L2-HR :0.71208: (Sim:1h43m19s) 
CPU  0 inst:  378000003 cyc:  545652372 now IPC :1.45069: AVG IPC :0.69033: L2-Pf-HR :-nan: L2-HR :0.71217: (Sim:1h43m38s) 
CPU  0 inst:  379000004 cyc:  546218580 now IPC :1.76614: AVG IPC :0.69144: L2-Pf-HR :-nan: L2-HR :0.71247: (Sim:1h43m56s) 
CPU  0 inst:  380000003 cyc:  546807554 now IPC :1.69787: AVG IPC :0.69253: L2-Pf-HR :-nan: L2-HR :0.71289: (Sim:1h44m13s) 
CPU  0 inst:  381000003 cyc:  547398844 now IPC :1.69122: AVG IPC :0.69361: L2-Pf-HR :-nan: L2-HR :0.71315: (Sim:1h44m32s) 
CPU  0 inst:  382000000 cyc:  547881699 now IPC :2.07101: AVG IPC :0.69483: L2-Pf-HR :-nan: L2-HR :0.71355: (Sim:1h44m50s) 
CPU  0 inst:  383000003 cyc:  548387614 now IPC :1.97662: AVG IPC :0.69601: L2-Pf-HR :-nan: L2-HR :0.71402: (Sim:1h45m6s) 
CPU  0 inst:  384000005 cyc:  548933995 now IPC :1.83023: AVG IPC :0.69714: L2-Pf-HR :-nan: L2-HR :0.71437: (Sim:1h45m24s) 
CPU  0 inst:  385000002 cyc:  549438965 now IPC :1.98031: AVG IPC :0.69832: L2-Pf-HR :-nan: L2-HR :0.71487: (Sim:1h45m41s) 
CPU  0 inst:  386000000 cyc:  550079339 now IPC :1.56158: AVG IPC :0.69933: L2-Pf-HR :-nan: L2-HR :0.71504: (Sim:1h45m58s) 
CPU  0 inst:  387000001 cyc:  550641520 now IPC :1.77879: AVG IPC :0.70044: L2-Pf-HR :-nan: L2-HR :0.71536: (Sim:1h46m16s) 
CPU  0 inst:  388000000 cyc:  551240723 now IPC :1.66888: AVG IPC :0.70149: L2-Pf-HR :-nan: L2-HR :0.71571: (Sim:1h46m34s) 
CPU  0 inst:  389000004 cyc:  551867470 now IPC :1.59555: AVG IPC :0.70251: L2-Pf-HR :-nan: L2-HR :0.71594: (Sim:1h46m50s) 
CPU  0 inst:  390000001 cyc:  552338199 now IPC :2.12436: AVG IPC :0.70372: L2-Pf-HR :-nan: L2-HR :0.71633: (Sim:1h47m8s) 
CPU  0 inst:  391000004 cyc:  552832157 now IPC :2.02447: AVG IPC :0.70490: L2-Pf-HR :-nan: L2-HR :0.71678: (Sim:1h47m26s) 
CPU  0 inst:  392000001 cyc:  553396803 now IPC :1.77102: AVG IPC :0.70599: L2-Pf-HR :-nan: L2-HR :0.71709: (Sim:1h47m42s) 
CPU  0 inst:  393000003 cyc:  553871233 now IPC :2.10780: AVG IPC :0.70720: L2-Pf-HR :-nan: L2-HR :0.71755: (Sim:1h47m58s) 
CPU  0 inst:  394000002 cyc:  554408499 now IPC :1.86127: AVG IPC :0.70832: L2-Pf-HR :-nan: L2-HR :0.71800: (Sim:1h48m15s) 
CPU  0 inst:  395000000 cyc:  555065903 now IPC :1.52113: AVG IPC :0.70928: L2-Pf-HR :-nan: L2-HR :0.71810: (Sim:1h48m34s) 
CPU  0 inst:  396000000 cyc:  555632372 now IPC :1.76532: AVG IPC :0.71036: L2-Pf-HR :-nan: L2-HR :0.71837: (Sim:1h48m52s) 
CPU  0 inst:  397000003 cyc:  556211587 now IPC :1.72648: AVG IPC :0.71142: L2-Pf-HR :-nan: L2-HR :0.71876: (Sim:1h49m8s) 
CPU  0 inst:  398000002 cyc:  556804006 now IPC :1.68799: AVG IPC :0.71246: L2-Pf-HR :-nan: L2-HR :0.71900: (Sim:1h49m26s) 
CPU  0 inst:  399000003 cyc:  557287398 now IPC :2.06872: AVG IPC :0.71364: L2-Pf-HR :-nan: L2-HR :0.71936: (Sim:1h49m45s) 
CPU  0 inst:  400000000 cyc:  557795120 now IPC :1.96958: AVG IPC :0.71478: L2-Pf-HR :-nan: L2-HR :0.71981: (Sim:1h50m0s) 
CPU  0 inst:  401000001 cyc:  558343328 now IPC :1.82413: AVG IPC :0.71588: L2-Pf-HR :-nan: L2-HR :0.72012: (Sim:1h50m18s) 
CPU  0 inst:  402000005 cyc:  558848628 now IPC :1.97903: AVG IPC :0.71702: L2-Pf-HR :-nan: L2-HR :0.72059: (Sim:1h50m34s) 
CPU  0 inst:  403000000 cyc:  559496493 now IPC :1.54352: AVG IPC :0.71798: L2-Pf-HR :-nan: L2-HR :0.72074: (Sim:1h50m53s) 
CPU  0 inst:  404000004 cyc:  560046531 now IPC :1.81806: AVG IPC :0.71906: L2-Pf-HR :-nan: L2-HR :0.72102: (Sim:1h51m10s) 
CPU  0 inst:  405000001 cyc:  560646947 now IPC :1.66551: AVG IPC :0.72008: L2-Pf-HR :-nan: L2-HR :0.72134: (Sim:1h51m27s) 
CPU  0 inst:  406000004 cyc:  561264941 now IPC :1.61814: AVG IPC :0.72107: L2-Pf-HR :-nan: L2-HR :0.72155: (Sim:1h51m44s) 
CPU  0 inst:  407000002 cyc:  561746755 now IPC :2.07549: AVG IPC :0.72223: L2-Pf-HR :-nan: L2-HR :0.72192: (Sim:1h52m2s) 
CPU  0 inst:  408000003 cyc:  562265656 now IPC :1.92715: AVG IPC :0.72334: L2-Pf-HR :-nan: L2-HR :0.72230: (Sim:1h52m19s) 
CPU  0 inst:  409000005 cyc:  562800414 now IPC :1.87001: AVG IPC :0.72444: L2-Pf-HR :-nan: L2-HR :0.72262: (Sim:1h52m35s) 
CPU  0 inst:  410000004 cyc:  563282497 now IPC :2.07433: AVG IPC :0.72559: L2-Pf-HR :-nan: L2-HR :0.72304: (Sim:1h52m53s) 
CPU  0 inst:  411000002 cyc:  563881364 now IPC :1.66982: AVG IPC :0.72660: L2-Pf-HR :-nan: L2-HR :0.72333: (Sim:1h53m9s) 
CPU  0 inst:  412000005 cyc:  564475347 now IPC :1.68355: AVG IPC :0.72761: L2-Pf-HR :-nan: L2-HR :0.72354: (Sim:1h53m28s) 
CPU  0 inst:  413000001 cyc:  565034789 now IPC :1.78749: AVG IPC :0.72866: L2-Pf-HR :-nan: L2-HR :0.72378: (Sim:1h53m46s) 
CPU  0 inst:  414000004 cyc:  565624055 now IPC :1.69703: AVG IPC :0.72967: L2-Pf-HR :-nan: L2-HR :0.72416: (Sim:1h54m1s) 
CPU  0 inst:  415000000 cyc:  566210571 now IPC :1.70498: AVG IPC :0.73068: L2-Pf-HR :-nan: L2-HR :0.72436: (Sim:1h54m20s) 
CPU  0 inst:  416000000 cyc:  566679701 now IPC :2.13161: AVG IPC :0.73184: L2-Pf-HR :-nan: L2-HR :0.72471: (Sim:1h54m38s) 
CPU  0 inst:  417000005 cyc:  567186361 now IPC :1.97372: AVG IPC :0.73295: L2-Pf-HR :-nan: L2-HR :0.72513: (Sim:1h54m53s) 
CPU  0 inst:  418000001 cyc:  567732159 now IPC :1.83217: AVG IPC :0.73401: L2-Pf-HR :-nan: L2-HR :0.72542: (Sim:1h55m11s) 
CPU  0 inst:  419000005 cyc:  568237459 now IPC :1.97903: AVG IPC :0.73512: L2-Pf-HR :-nan: L2-HR :0.72586: (Sim:1h55m27s) 
CPU  0 inst:  420000005 cyc:  568893055 now IPC :1.52533: AVG IPC :0.73603: L2-Pf-HR :-nan: L2-HR :0.72597: (Sim:1h55m46s) 
CPU  0 inst:  421000004 cyc:  569442862 now IPC :1.81882: AVG IPC :0.73708: L2-Pf-HR :-nan: L2-HR :0.72623: (Sim:1h56m3s) 
CPU  0 inst:  422000002 cyc:  570046287 now IPC :1.65720: AVG IPC :0.73806: L2-Pf-HR :-nan: L2-HR :0.72653: (Sim:1h56m20s) 
CPU  0 inst:  423000000 cyc:  570655763 now IPC :1.64075: AVG IPC :0.73902: L2-Pf-HR :-nan: L2-HR :0.72671: (Sim:1h56m37s) 
CPU  0 inst:  424000001 cyc:  571135663 now IPC :2.08377: AVG IPC :0.74015: L2-Pf-HR :-nan: L2-HR :0.72707: (Sim:1h56m55s) 
CPU  0 inst:  425000002 cyc:  571654930 now IPC :1.92579: AVG IPC :0.74123: L2-Pf-HR :-nan: L2-HR :0.72743: (Sim:1h57m12s) 
CPU  0 inst:  426000001 cyc:  572183844 now IPC :1.89066: AVG IPC :0.74230: L2-Pf-HR :-nan: L2-HR :0.72771: (Sim:1h57m28s) 
CPU  0 inst:  427000001 cyc:  572665758 now IPC :2.07506: AVG IPC :0.74342: L2-Pf-HR :-nan: L2-HR :0.72811: (Sim:1h57m45s) 
CPU  0 inst:  428000001 cyc:  573299674 now IPC :1.57750: AVG IPC :0.74434: L2-Pf-HR :-nan: L2-HR :0.72831: (Sim:1h58m3s) 
CPU  0 inst:  429000000 cyc:  573875068 now IPC :1.73794: AVG IPC :0.74534: L2-Pf-HR :-nan: L2-HR :0.72855: (Sim:1h58m20s) 
CPU  0 inst:  430000003 cyc:  574445406 now IPC :1.75335: AVG IPC :0.74634: L2-Pf-HR :-nan: L2-HR :0.72879: (Sim:1h58m38s) 
CPU  0 inst:  431000000 cyc:  575047932 now IPC :1.65967: AVG IPC :0.74730: L2-Pf-HR :-nan: L2-HR :0.72912: (Sim:1h58m54s) 
CPU  0 inst:  432000002 cyc:  575611776 now IPC :1.77354: AVG IPC :0.74831: L2-Pf-HR :-nan: L2-HR :0.72932: (Sim:1h59m12s) 
CPU  0 inst:  433000000 cyc:  576082502 now IPC :2.12437: AVG IPC :0.74944: L2-Pf-HR :-nan: L2-HR :0.72963: (Sim:1h59m30s) 
CPU  0 inst:  434000000 cyc:  576588632 now IPC :1.97578: AVG IPC :0.75051: L2-Pf-HR :-nan: L2-HR :0.73004: (Sim:1h59m45s) 
CPU  0 inst:  435000004 cyc:  577136862 now IPC :1.82406: AVG IPC :0.75154: L2-Pf-HR :-nan: L2-HR :0.73030: (Sim:2h0m2s) 
CPU  0 inst:  436000002 cyc:  577642035 now IPC :1.97952: AVG IPC :0.75261: L2-Pf-HR :-nan: L2-HR :0.73071: (Sim:2h0m19s) 
CPU  0 inst:  437000001 cyc:  578300781 now IPC :1.51803: AVG IPC :0.75349: L2-Pf-HR :-nan: L2-HR :0.73079: (Sim:2h0m37s) 
CPU  0 inst:  438000005 cyc:  578855616 now IPC :1.80234: AVG IPC :0.75449: L2-Pf-HR :-nan: L2-HR :0.73104: (Sim:2h0m54s) 
CPU  0 inst:  439000000 cyc:  579466456 now IPC :1.63708: AVG IPC :0.75542: L2-Pf-HR :-nan: L2-HR :0.73132: (Sim:2h1m12s) 
CPU  0 inst:  440000000 cyc:  580077644 now IPC :1.63616: AVG IPC :0.75635: L2-Pf-HR :-nan: L2-HR :0.73149: (Sim:2h1m29s) 
CPU  0 inst:  441000000 cyc:  580546506 now IPC :2.13282: AVG IPC :0.75747: L2-Pf-HR :-nan: L2-HR :0.73181: (Sim:2h1m47s) 
CPU  0 inst:  442000002 cyc:  581066621 now IPC :1.92266: AVG IPC :0.75851: L2-Pf-HR :-nan: L2-HR :0.73215: (Sim:2h2m4s) 
CPU  0 inst:  443000002 cyc:  581604119 now IPC :1.86047: AVG IPC :0.75953: L2-Pf-HR :-nan: L2-HR :0.73241: (Sim:2h2m20s) 
CPU  0 inst:  444000001 cyc:  582078852 now IPC :2.10645: AVG IPC :0.76063: L2-Pf-HR :-nan: L2-HR :0.73278: (Sim:2h2m36s) 
CPU  0 inst:  445000002 cyc:  582722082 now IPC :1.55466: AVG IPC :0.76151: L2-Pf-HR :-nan: L2-HR :0.73294: (Sim:2h2m54s) 
CPU  0 inst:  446000003 cyc:  583292704 now IPC :1.75248: AVG IPC :0.76248: L2-Pf-HR :-nan: L2-HR :0.73317: (Sim:2h3m11s) 
CPU  0 inst:  447000002 cyc:  583857441 now IPC :1.77073: AVG IPC :0.76346: L2-Pf-HR :-nan: L2-HR :0.73343: (Sim:2h3m29s) 
CPU  0 inst:  448000003 cyc:  584497455 now IPC :1.56247: AVG IPC :0.76433: L2-Pf-HR :-nan: L2-HR :0.73362: (Sim:2h3m45s) 
CPU  0 inst:  449000004 cyc:  585003643 now IPC :1.97555: AVG IPC :0.76538: L2-Pf-HR :-nan: L2-HR :0.73389: (Sim:2h4m3s) 
CPU  0 inst:  450000003 cyc:  585474229 now IPC :2.12501: AVG IPC :0.76648: L2-Pf-HR :-nan: L2-HR :0.73419: (Sim:2h4m21s) 
CPU  0 inst:  451000000 cyc:  585981436 now IPC :1.97158: AVG IPC :0.76752: L2-Pf-HR :-nan: L2-HR :0.73457: (Sim:2h4m36s) 
CPU  0 inst:  452000004 cyc:  586536067 now IPC :1.80301: AVG IPC :0.76850: L2-Pf-HR :-nan: L2-HR :0.73482: (Sim:2h4m54s) 
CPU  0 inst:  453000005 cyc:  587033617 now IPC :2.00985: AVG IPC :0.76956: L2-Pf-HR :-nan: L2-HR :0.73521: (Sim:2h5m7s) 
CPU  0 inst:  454000001 cyc:  587700371 now IPC :1.49980: AVG IPC :0.77039: L2-Pf-HR :-nan: L2-HR :0.73526: (Sim:2h5m15s) 
CPU  0 inst:  455000002 cyc:  588255417 now IPC :1.80165: AVG IPC :0.77136: L2-Pf-HR :-nan: L2-HR :0.73547: (Sim:2h5m25s) 
CPU  0 inst:  456000000 cyc:  588841260 now IPC :1.70694: AVG IPC :0.77230: L2-Pf-HR :-nan: L2-HR :0.73575: (Sim:2h5m33s) 
CPU  0 inst:  457000003 cyc:  589448479 now IPC :1.64686: AVG IPC :0.77320: L2-Pf-HR :-nan: L2-HR :0.73591: (Sim:2h5m46s) 
CPU  0 inst:  458000002 cyc:  589919890 now IPC :2.12129: AVG IPC :0.77428: L2-Pf-HR :-nan: L2-HR :0.73621: (Sim:2h5m54s) 
CPU  0 inst:  459000005 cyc:  590437910 now IPC :1.93043: AVG IPC :0.77529: L2-Pf-HR :-nan: L2-HR :0.73654: (Sim:2h6m2s) 
CPU  0 inst:  460000002 cyc:  590975866 now IPC :1.85888: AVG IPC :0.77628: L2-Pf-HR :-nan: L2-HR :0.73678: (Sim:2h6m11s) 
CPU  0 inst:  461000000 cyc:  591455167 now IPC :2.08637: AVG IPC :0.77734: L2-Pf-HR :-nan: L2-HR :0.73713: (Sim:2h6m21s) 
CPU  0 inst:  462000002 cyc:  592112204 now IPC :1.52199: AVG IPC :0.77817: L2-Pf-HR :-nan: L2-HR :0.73726: (Sim:2h6m39s) 
CPU  0 inst:  463000000 cyc:  592683808 now IPC :1.74946: AVG IPC :0.77911: L2-Pf-HR :-nan: L2-HR :0.73747: (Sim:2h6m59s) 
CPU  0 inst:  464000001 cyc:  593253210 now IPC :1.75623: AVG IPC :0.78005: L2-Pf-HR :-nan: L2-HR :0.73775: (Sim:2h7m17s) 
CPU  0 inst:  465000000 cyc:  593927702 now IPC :1.48260: AVG IPC :0.78085: L2-Pf-HR :-nan: L2-HR :0.73785: (Sim:2h7m35s) 
CPU  0 inst:  466000000 cyc:  594396041 now IPC :2.13521: AVG IPC :0.78192: L2-Pf-HR :-nan: L2-HR :0.73814: (Sim:2h7m53s) 
CPU  0 inst:  467000002 cyc:  594865151 now IPC :2.13170: AVG IPC :0.78298: L2-Pf-HR :-nan: L2-HR :0.73842: (Sim:2h8m10s) 
CPU  0 inst:  468000002 cyc:  595376825 now IPC :1.95437: AVG IPC :0.78399: L2-Pf-HR :-nan: L2-HR :0.73880: (Sim:2h8m27s) 
CPU  0 inst:  469000000 cyc:  595921173 now IPC :1.83706: AVG IPC :0.78496: L2-Pf-HR :-nan: L2-HR :0.73902: (Sim:2h8m46s) 
CPU  0 inst:  470000002 cyc:  596420141 now IPC :2.00414: AVG IPC :0.78598: L2-Pf-HR :-nan: L2-HR :0.73939: (Sim:2h9m2s) 
CPU  0 inst:  471000001 cyc:  597089688 now IPC :1.49355: AVG IPC :0.78677: L2-Pf-HR :-nan: L2-HR :0.73942: (Sim:2h9m21s) 
CPU  0 inst:  472000005 cyc:  597658660 now IPC :1.75756: AVG IPC :0.78770: L2-Pf-HR :-nan: L2-HR :0.73961: (Sim:2h9m41s) 
CPU  0 inst:  473000001 cyc:  598252095 now IPC :1.68510: AVG IPC :0.78859: L2-Pf-HR :-nan: L2-HR :0.73988: (Sim:2h9m57s) 
CPU  0 inst:  474000000 cyc:  598852955 now IPC :1.66428: AVG IPC :0.78947: L2-Pf-HR :-nan: L2-HR :0.74002: (Sim:2h10m16s) 
CPU  0 inst:  475000003 cyc:  599322893 now IPC :2.12795: AVG IPC :0.79052: L2-Pf-HR :-nan: L2-HR :0.74031: (Sim:2h10m34s) 
CPU  0 inst:  476000005 cyc:  599844504 now IPC :1.91714: AVG IPC :0.79150: L2-Pf-HR :-nan: L2-HR :0.74063: (Sim:2h10m52s) 
CPU  0 inst:  477000004 cyc:  600384272 now IPC :1.85265: AVG IPC :0.79246: L2-Pf-HR :-nan: L2-HR :0.74084: (Sim:2h11m9s) 
CPU  0 inst:  478000000 cyc:  600867330 now IPC :2.07014: AVG IPC :0.79349: L2-Pf-HR :-nan: L2-HR :0.74120: (Sim:2h11m27s) 
CPU  0 inst:  479000002 cyc:  601518312 now IPC :1.53614: AVG IPC :0.79429: L2-Pf-HR :-nan: L2-HR :0.74127: (Sim:2h11m45s) 
CPU  0 inst:  480000000 cyc:  602093481 now IPC :1.73862: AVG IPC :0.79520: L2-Pf-HR :-nan: L2-HR :0.74148: (Sim:2h12m5s) 
CPU  0 inst:  481000004 cyc:  602673336 now IPC :1.72458: AVG IPC :0.79609: L2-Pf-HR :-nan: L2-HR :0.74171: (Sim:2h12m22s) 
CPU  0 inst:  482000003 cyc:  603318779 now IPC :1.54932: AVG IPC :0.79690: L2-Pf-HR :-nan: L2-HR :0.74182: (Sim:2h12m41s) 
CPU  0 inst:  483000003 cyc:  603787689 now IPC :2.13261: AVG IPC :0.79794: L2-Pf-HR :-nan: L2-HR :0.74211: (Sim:2h12m59s) 
CPU  0 inst:  484000002 cyc:  604265215 now IPC :2.09412: AVG IPC :0.79896: L2-Pf-HR :-nan: L2-HR :0.74241: (Sim:2h13m16s) 
CPU  0 inst:  485000005 cyc:  604826211 now IPC :1.78255: AVG IPC :0.79988: L2-Pf-HR :-nan: L2-HR :0.74264: (Sim:2h13m33s) 
CPU  0 inst:  486000005 cyc:  605322912 now IPC :2.01328: AVG IPC :0.80087: L2-Pf-HR :-nan: L2-HR :0.74294: (Sim:2h13m51s) 
CPU  0 inst:  487000002 cyc:  605821152 now IPC :2.00706: AVG IPC :0.80187: L2-Pf-HR :-nan: L2-HR :0.74330: (Sim:2h14m8s) 
CPU  0 inst:  488000003 cyc:  606487553 now IPC :1.50060: AVG IPC :0.80264: L2-Pf-HR :-nan: L2-HR :0.74331: (Sim:2h14m27s) 
CPU  0 inst:  489000005 cyc:  607055271 now IPC :1.76144: AVG IPC :0.80354: L2-Pf-HR :-nan: L2-HR :0.74349: (Sim:2h14m46s) 
CPU  0 inst:  490000000 cyc:  607642766 now IPC :1.70213: AVG IPC :0.80441: L2-Pf-HR :-nan: L2-HR :0.74375: (Sim:2h15m3s) 
CPU  0 inst:  491000000 cyc:  608234665 now IPC :1.68948: AVG IPC :0.80527: L2-Pf-HR :-nan: L2-HR :0.74387: (Sim:2h15m21s) 
CPU  0 inst:  492000002 cyc:  608715640 now IPC :2.07911: AVG IPC :0.80628: L2-Pf-HR :-nan: L2-HR :0.74413: (Sim:2h15m40s) 
CPU  0 inst:  493000003 cyc:  609224535 now IPC :1.96504: AVG IPC :0.80725: L2-Pf-HR :-nan: L2-HR :0.74444: (Sim:2h15m57s) 
CPU  0 inst:  494000005 cyc:  609762011 now IPC :1.86055: AVG IPC :0.80818: L2-Pf-HR :-nan: L2-HR :0.74465: (Sim:2h16m14s) 
CPU  0 inst:  495000000 cyc:  610253115 now IPC :2.03622: AVG IPC :0.80917: L2-Pf-HR :-nan: L2-HR :0.74500: (Sim:2h16m32s) 
CPU  0 inst:  496000004 cyc:  610910423 now IPC :1.52136: AVG IPC :0.80993: L2-Pf-HR :-nan: L2-HR :0.74503: (Sim:2h16m50s) 
CPU  0 inst:  497000001 cyc:  611482164 now IPC :1.74904: AVG IPC :0.81081: L2-Pf-HR :-nan: L2-HR :0.74523: (Sim:2h17m9s) 
CPU  0 inst:  498000000 cyc:  612083975 now IPC :1.66165: AVG IPC :0.81165: L2-Pf-HR :-nan: L2-HR :0.74544: (Sim:2h17m27s) 
CPU  0 inst:  499000000 cyc:  612715737 now IPC :1.58287: AVG IPC :0.81245: L2-Pf-HR :-nan: L2-HR :0.74555: (Sim:2h17m46s) 
CPU  0 inst:  500000000 cyc:  613185643 now IPC :2.12809: AVG IPC :0.81346: L2-Pf-HR :-nan: L2-HR :0.74581: (Sim:2h18m4s) 
CPU  0 inst:  501000001 cyc:  613671983 now IPC :2.05618: AVG IPC :0.81444: L2-Pf-HR :-nan: L2-HR :0.74611: (Sim:2h18m21s) 
CPU  0 inst:  502000003 cyc:  614241618 now IPC :1.75551: AVG IPC :0.81532: L2-Pf-HR :-nan: L2-HR :0.74628: (Sim:2h18m39s) 
CPU  0 inst:  503000005 cyc:  614716767 now IPC :2.10461: AVG IPC :0.81632: L2-Pf-HR :-nan: L2-HR :0.74659: (Sim:2h18m56s) 
CPU  0 inst:  504000000 cyc:  615221693 now IPC :1.98048: AVG IPC :0.81727: L2-Pf-HR :-nan: L2-HR :0.74694: (Sim:2h19m13s) 
CPU  0 inst:  505000002 cyc:  615909837 now IPC :1.45319: AVG IPC :0.81798: L2-Pf-HR :-nan: L2-HR :0.74691: (Sim:2h19m32s) 
CPU  0 inst:  506000000 cyc:  616469962 now IPC :1.78531: AVG IPC :0.81886: L2-Pf-HR :-nan: L2-HR :0.74708: (Sim:2h19m51s) 
CPU  0 inst:  507000004 cyc:  617055530 now IPC :1.70775: AVG IPC :0.81971: L2-Pf-HR :-nan: L2-HR :0.74733: (Sim:2h20m8s) 
CPU  0 inst:  508000003 cyc:  617640084 now IPC :1.71070: AVG IPC :0.82055: L2-Pf-HR :-nan: L2-HR :0.74744: (Sim:2h20m26s) 
CPU  0 inst:  509000002 cyc:  618120741 now IPC :2.08048: AVG IPC :0.82154: L2-Pf-HR :-nan: L2-HR :0.74769: (Sim:2h20m45s) 
CPU  0 inst:  510000001 cyc:  618628765 now IPC :1.96841: AVG IPC :0.82248: L2-Pf-HR :-nan: L2-HR :0.74798: (Sim:2h21m2s) 
CPU  0 inst:  511000003 cyc:  619173254 now IPC :1.83659: AVG IPC :0.82337: L2-Pf-HR :-nan: L2-HR :0.74817: (Sim:2h21m20s) 
CPU  0 inst:  512000004 cyc:  619676982 now IPC :1.98520: AVG IPC :0.82432: L2-Pf-HR :-nan: L2-HR :0.74848: (Sim:2h21m37s) 
CPU  0 inst:  513000003 cyc:  620328753 now IPC :1.53428: AVG IPC :0.82506: L2-Pf-HR :-nan: L2-HR :0.74852: (Sim:2h21m55s) 
CPU  0 inst:  514000002 cyc:  620875515 now IPC :1.82895: AVG IPC :0.82595: L2-Pf-HR :-nan: L2-HR :0.74871: (Sim:2h22m14s) 
CPU  0 inst:  515000003 cyc:  621473421 now IPC :1.67251: AVG IPC :0.82677: L2-Pf-HR :-nan: L2-HR :0.74890: (Sim:2h22m32s) 
CPU  0 inst:  516000002 cyc:  622088430 now IPC :1.62599: AVG IPC :0.82756: L2-Pf-HR :-nan: L2-HR :0.74900: (Sim:2h22m50s) 
CPU  0 inst:  517000002 cyc:  622569045 now IPC :2.08067: AVG IPC :0.82853: L2-Pf-HR :-nan: L2-HR :0.74925: (Sim:2h23m9s) 
CPU  0 inst:  518000003 cyc:  623053867 now IPC :2.06261: AVG IPC :0.82949: L2-Pf-HR :-nan: L2-HR :0.74955: (Sim:2h23m26s) 
CPU  0 inst:  519000003 cyc:  623614481 now IPC :1.78376: AVG IPC :0.83035: L2-Pf-HR :-nan: L2-HR :0.74969: (Sim:2h23m43s) 
CPU  0 inst:  520000003 cyc:  624095630 now IPC :2.07836: AVG IPC :0.83131: L2-Pf-HR :-nan: L2-HR :0.74998: (Sim:2h24m1s) 
CPU  0 inst:  521000000 cyc:  624655743 now IPC :1.78535: AVG IPC :0.83217: L2-Pf-HR :-nan: L2-HR :0.75022: (Sim:2h24m17s) 
CPU  0 inst:  522000002 cyc:  625281804 now IPC :1.59729: AVG IPC :0.83294: L2-Pf-HR :-nan: L2-HR :0.75027: (Sim:2h24m37s) 
CPU  0 inst:  523000000 cyc:  625837466 now IPC :1.79965: AVG IPC :0.83379: L2-Pf-HR :-nan: L2-HR :0.75043: (Sim:2h24m55s) 
CPU  0 inst:  524000005 cyc:  626421858 now IPC :1.71119: AVG IPC :0.83461: L2-Pf-HR :-nan: L2-HR :0.75067: (Sim:2h25m12s) 
CPU  0 inst:  525000000 cyc:  627003384 now IPC :1.71960: AVG IPC :0.83544: L2-Pf-HR :-nan: L2-HR :0.75078: (Sim:2h25m31s) 
CPU  0 inst:  526000005 cyc:  627484545 now IPC :2.07832: AVG IPC :0.83639: L2-Pf-HR :-nan: L2-HR :0.75100: (Sim:2h25m49s) 
CPU  0 inst:  527000002 cyc:  627991056 now IPC :1.97428: AVG IPC :0.83731: L2-Pf-HR :-nan: L2-HR :0.75128: (Sim:2h26m6s) 
CPU  0 inst:  528000003 cyc:  628535230 now IPC :1.83765: AVG IPC :0.83818: L2-Pf-HR :-nan: L2-HR :0.75146: (Sim:2h26m24s) 
CPU  0 inst:  529000004 cyc:  629039137 now IPC :1.98450: AVG IPC :0.83910: L2-Pf-HR :-nan: L2-HR :0.75176: (Sim:2h26m41s) 
CPU  0 inst:  530000003 cyc:  629697878 now IPC :1.51805: AVG IPC :0.83981: L2-Pf-HR :-nan: L2-HR :0.75178: (Sim:2h27m0s) 
CPU  0 inst:  531000001 cyc:  630252193 now IPC :1.80402: AVG IPC :0.84066: L2-Pf-HR :-nan: L2-HR :0.75196: (Sim:2h27m19s) 
CPU  0 inst:  532000004 cyc:  630858159 now IPC :1.65026: AVG IPC :0.84144: L2-Pf-HR :-nan: L2-HR :0.75215: (Sim:2h27m30s) 
CPU  0 inst:  533000002 cyc:  631465696 now IPC :1.64599: AVG IPC :0.84221: L2-Pf-HR :-nan: L2-HR :0.75223: (Sim:2h27m38s) 
CPU  0 inst:  534000004 cyc:  631945318 now IPC :2.08498: AVG IPC :0.84316: L2-Pf-HR :-nan: L2-HR :0.75247: (Sim:2h27m49s) 
CPU  0 inst:  535000004 cyc:  632465925 now IPC :1.92083: AVG IPC :0.84405: L2-Pf-HR :-nan: L2-HR :0.75272: (Sim:2h27m57s) 
CPU  0 inst:  536000003 cyc:  632994516 now IPC :1.89182: AVG IPC :0.84492: L2-Pf-HR :-nan: L2-HR :0.75289: (Sim:2h28m7s) 
CPU  0 inst:  537000005 cyc:  633476696 now IPC :2.07392: AVG IPC :0.84586: L2-Pf-HR :-nan: L2-HR :0.75317: (Sim:2h28m25s) 
CPU  0 inst:  538000004 cyc:  634107703 now IPC :1.58477: AVG IPC :0.84660: L2-Pf-HR :-nan: L2-HR :0.75325: (Sim:2h28m43s) 
CPU  0 inst:  539000002 cyc:  634676805 now IPC :1.75715: AVG IPC :0.84741: L2-Pf-HR :-nan: L2-HR :0.75342: (Sim:2h29m1s) 
CPU  0 inst:  540000000 cyc:  635239924 now IPC :1.77582: AVG IPC :0.84824: L2-Pf-HR :-nan: L2-HR :0.75356: (Sim:2h29m19s) 
CPU  0 inst:  541000002 cyc:  635833394 now IPC :1.68501: AVG IPC :0.84902: L2-Pf-HR :-nan: L2-HR :0.75382: (Sim:2h29m31s) 
CPU  0 inst:  542000002 cyc:  636419446 now IPC :1.70633: AVG IPC :0.84981: L2-Pf-HR :-nan: L2-HR :0.75389: (Sim:2h29m40s) 
CPU  0 inst:  543000002 cyc:  636889456 now IPC :2.12761: AVG IPC :0.85075: L2-Pf-HR :-nan: L2-HR :0.75412: (Sim:2h29m48s) 
CPU  0 inst:  544000002 cyc:  637399025 now IPC :1.96244: AVG IPC :0.85164: L2-Pf-HR :-nan: L2-HR :0.75440: (Sim:2h29m55s) 
CPU  0 inst:  545000001 cyc:  637945204 now IPC :1.83090: AVG IPC :0.85248: L2-Pf-HR :-nan: L2-HR :0.75455: (Sim:2h30m4s) 
CPU  0 inst:  546000005 cyc:  638451092 now IPC :1.97673: AVG IPC :0.85338: L2-Pf-HR :-nan: L2-HR :0.75484: (Sim:2h30m12s) 
CPU  0 inst:  547000000 cyc:  639101699 now IPC :1.53702: AVG IPC :0.85407: L2-Pf-HR :-nan: L2-HR :0.75485: (Sim:2h30m20s) 
CPU  0 inst:  548000001 cyc:  639651997 now IPC :1.81720: AVG IPC :0.85490: L2-Pf-HR :-nan: L2-HR :0.75502: (Sim:2h30m29s) 
CPU  0 inst:  549000000 cyc:  640255970 now IPC :1.65570: AVG IPC :0.85566: L2-Pf-HR :-nan: L2-HR :0.75520: (Sim:2h30m37s) 
CPU  0 inst:  550000000 cyc:  640859286 now IPC :1.65751: AVG IPC :0.85642: L2-Pf-HR :-nan: L2-HR :0.75527: (Sim:2h30m45s) 
CPU  0 inst:  551000005 cyc:  641338727 now IPC :2.08577: AVG IPC :0.85734: L2-Pf-HR :-nan: L2-HR :0.75551: (Sim:2h30m54s) 
CPU  0 inst:  552000001 cyc:  641865110 now IPC :1.89975: AVG IPC :0.85819: L2-Pf-HR :-nan: L2-HR :0.75574: (Sim:2h31m2s) 
CPU  0 inst:  553000000 cyc:  642394318 now IPC :1.88961: AVG IPC :0.85904: L2-Pf-HR :-nan: L2-HR :0.75590: (Sim:2h31m9s) 
CPU  0 inst:  554000003 cyc:  642876324 now IPC :2.07467: AVG IPC :0.85996: L2-Pf-HR :-nan: L2-HR :0.75617: (Sim:2h31m18s) 
CPU  0 inst:  555000000 cyc:  643513807 now IPC :1.56866: AVG IPC :0.86066: L2-Pf-HR :-nan: L2-HR :0.75624: (Sim:2h31m26s) 
CPU  0 inst:  556000004 cyc:  644081419 now IPC :1.76177: AVG IPC :0.86146: L2-Pf-HR :-nan: L2-HR :0.75639: (Sim:2h31m35s) 
CPU  0 inst:  557000002 cyc:  644644145 now IPC :1.77706: AVG IPC :0.86226: L2-Pf-HR :-nan: L2-HR :0.75656: (Sim:2h31m43s) 
CPU  0 inst:  558000005 cyc:  645271075 now IPC :1.59508: AVG IPC :0.86297: L2-Pf-HR :-nan: L2-HR :0.75671: (Sim:2h31m51s) 
CPU  0 inst:  559000005 cyc:  645804652 now IPC :1.87414: AVG IPC :0.86381: L2-Pf-HR :-nan: L2-HR :0.75684: (Sim:2h32m0s) 
CPU  0 inst:  560000002 cyc:  646276297 now IPC :2.12023: AVG IPC :0.86472: L2-Pf-HR :-nan: L2-HR :0.75705: (Sim:2h32m8s) 
CPU  0 inst:  561000004 cyc:  646788433 now IPC :1.95261: AVG IPC :0.86559: L2-Pf-HR :-nan: L2-HR :0.75732: (Sim:2h32m15s) 
CPU  0 inst:  562000004 cyc:  647339013 now IPC :1.81627: AVG IPC :0.86640: L2-Pf-HR :-nan: L2-HR :0.75747: (Sim:2h32m23s) 
CPU  0 inst:  563000003 cyc:  647842332 now IPC :1.98681: AVG IPC :0.86727: L2-Pf-HR :-nan: L2-HR :0.75775: (Sim:2h32m31s) 
CPU  0 inst:  564000001 cyc:  648502782 now IPC :1.51412: AVG IPC :0.86793: L2-Pf-HR :-nan: L2-HR :0.75775: (Sim:2h32m40s) 
CPU  0 inst:  565000000 cyc:  649050884 now IPC :1.82448: AVG IPC :0.86874: L2-Pf-HR :-nan: L2-HR :0.75790: (Sim:2h32m48s) 
CPU  0 inst:  566000004 cyc:  649662202 now IPC :1.63582: AVG IPC :0.86946: L2-Pf-HR :-nan: L2-HR :0.75807: (Sim:2h32m56s) 
CPU  0 inst:  567000002 cyc:  650270797 now IPC :1.64313: AVG IPC :0.87018: L2-Pf-HR :-nan: L2-HR :0.75814: (Sim:2h33m5s) 
CPU  0 inst:  568000002 cyc:  650739401 now IPC :2.13400: AVG IPC :0.87110: L2-Pf-HR :-nan: L2-HR :0.75836: (Sim:2h33m13s) 
CPU  0 inst:  569000005 cyc:  651259723 now IPC :1.92189: AVG IPC :0.87194: L2-Pf-HR :-nan: L2-HR :0.75859: (Sim:2h33m21s) 
CPU  0 inst:  570000001 cyc:  651794504 now IPC :1.86992: AVG IPC :0.87276: L2-Pf-HR :-nan: L2-HR :0.75874: (Sim:2h33m28s) 
CPU  0 inst:  571000000 cyc:  652271609 now IPC :2.09597: AVG IPC :0.87365: L2-Pf-HR :-nan: L2-HR :0.75899: (Sim:2h33m37s) 
CPU  0 inst:  572000004 cyc:  652919085 now IPC :1.54446: AVG IPC :0.87432: L2-Pf-HR :-nan: L2-HR :0.75904: (Sim:2h33m45s) 
CPU  0 inst:  573000004 cyc:  653483261 now IPC :1.77250: AVG IPC :0.87510: L2-Pf-HR :-nan: L2-HR :0.75919: (Sim:2h33m53s) 
CPU  0 inst:  574000003 cyc:  654042450 now IPC :1.78830: AVG IPC :0.87588: L2-Pf-HR :-nan: L2-HR :0.75937: (Sim:2h34m1s) 
CPU  0 inst:  575000000 cyc:  654721790 now IPC :1.47201: AVG IPC :0.87650: L2-Pf-HR :-nan: L2-HR :0.75940: (Sim:2h34m12s) 
CPU  0 inst:  576000001 cyc:  655191419 now IPC :2.12934: AVG IPC :0.87740: L2-Pf-HR :-nan: L2-HR :0.75961: (Sim:2h34m21s) 
CPU  0 inst:  577000005 cyc:  655662770 now IPC :2.12157: AVG IPC :0.87829: L2-Pf-HR :-nan: L2-HR :0.75981: (Sim:2h34m29s) 
CPU  0 inst:  578000004 cyc:  656172965 now IPC :1.96003: AVG IPC :0.87913: L2-Pf-HR :-nan: L2-HR :0.76007: (Sim:2h34m37s) 
CPU  0 inst:  579000001 cyc:  656724395 now IPC :1.81346: AVG IPC :0.87992: L2-Pf-HR :-nan: L2-HR :0.76021: (Sim:2h34m46s) 
CPU  0 inst:  580000001 cyc:  657221614 now IPC :2.01119: AVG IPC :0.88078: L2-Pf-HR :-nan: L2-HR :0.76048: (Sim:2h34m53s) 
CPU  0 inst:  581000005 cyc:  657884200 now IPC :1.50924: AVG IPC :0.88141: L2-Pf-HR :-nan: L2-HR :0.76046: (Sim:2h35m2s) 
CPU  0 inst:  582000000 cyc:  658449717 now IPC :1.76828: AVG IPC :0.88217: L2-Pf-HR :-nan: L2-HR :0.76059: (Sim:2h35m11s) 
CPU  0 inst:  583000001 cyc:  659046458 now IPC :1.67577: AVG IPC :0.88289: L2-Pf-HR :-nan: L2-HR :0.76077: (Sim:2h35m18s) 
CPU  0 inst:  584000005 cyc:  659646028 now IPC :1.66787: AVG IPC :0.88361: L2-Pf-HR :-nan: L2-HR :0.76083: (Sim:2h35m27s) 
CPU  0 inst:  585000005 cyc:  660114684 now IPC :2.13376: AVG IPC :0.88450: L2-Pf-HR :-nan: L2-HR :0.76104: (Sim:2h35m35s) 
CPU  0 inst:  586000003 cyc:  660635347 now IPC :1.92062: AVG IPC :0.88532: L2-Pf-HR :-nan: L2-HR :0.76125: (Sim:2h35m43s) 
CPU  0 inst:  587000004 cyc:  661172722 now IPC :1.86090: AVG IPC :0.88611: L2-Pf-HR :-nan: L2-HR :0.76139: (Sim:2h35m51s) 
CPU  0 inst:  588000001 cyc:  661651981 now IPC :2.08655: AVG IPC :0.88698: L2-Pf-HR :-nan: L2-HR :0.76165: (Sim:2h35m59s) 
CPU  0 inst:  589000003 cyc:  662303507 now IPC :1.53486: AVG IPC :0.88762: L2-Pf-HR :-nan: L2-HR :0.76167: (Sim:2h36m7s) 
CPU  0 inst:  590000003 cyc:  662878517 now IPC :1.73910: AVG IPC :0.88836: L2-Pf-HR :-nan: L2-HR :0.76181: (Sim:2h36m16s) 
CPU  0 inst:  591000005 cyc:  663429479 now IPC :1.81501: AVG IPC :0.88913: L2-Pf-HR :-nan: L2-HR :0.76200: (Sim:2h36m27s) 
CPU  0 inst:  592000004 cyc:  664098685 now IPC :1.49431: AVG IPC :0.88974: L2-Pf-HR :-nan: L2-HR :0.76201: (Sim:2h36m39s) 
CPU  0 inst:  593000004 cyc:  664568575 now IPC :2.12816: AVG IPC :0.89062: L2-Pf-HR :-nan: L2-HR :0.76221: (Sim:2h36m47s) 
CPU  0 inst:  594000004 cyc:  665043881 now IPC :2.10391: AVG IPC :0.89149: L2-Pf-HR :-nan: L2-HR :0.76242: (Sim:2h36m55s) 
Finished CPU 0 instr: 592000003 cyc: 664060415 AVG IPC: 0.89149 (Sim time: 2h36m55s)

ChampSim completed all CPUs

[ROI Statistics]
Core_0_instructions 592000003
Core_0_cycles 664060415
Core_0_IPC 0.89149

Core_0_branch_prediction_accuracy 98.24511
Core_0_branch_MPKI 0.42508
Core_0_average_ROB_occupancy_at_mispredict 577.11821

Core_0_L1D_total_access 135186957
Core_0_L1D_total_hit 123744406 L1D_total_Hit Ratio: 0.91536
Core_0_L1D_total_miss 11442551
Core_0_L1D_loads 123303410
Core_0_L1D_load_hit 112515326 L1D_load_Hit Ratio: 0.91251
Core_0_L1D_load_miss 10788084
Core_0_L1D_RFOs 11883547
Core_0_L1D_RFO_hit 11229080 L1D_RFO_Hit Ratio: 0.94493
Core_0_L1D_RFO_miss 654467
Core_0_L1D_prefetches 0
Core_0_L1D_prefetch_hit 0 L1D_prefetch_Hit Ratio: -nan
Core_0_L1D_prefetch_miss 0
Core_0_L1D_writebacks 0
Core_0_L1D_writeback_hit 0 L1D_writeback_Hit Ratio: -nan
Core_0_L1D_writeback_miss 0
Core_0_L1D_prefetch_requested 0
Core_0_L1D_prefetch_issued 0
Core_0_L1D_prefetch_useful 0 L1D_Useful Ratio: -nan
Core_0_L1D_prefetch_useless 0
Core_0_L1D_prefetch_late 0
Core_0_L1D_average_miss_latency 112.37995

Core_0_L1I_total_access 74799753
Core_0_L1I_total_hit 74794878 L1I_total_Hit Ratio: 0.99993
Core_0_L1I_total_miss 4875
Core_0_L1I_loads 74799753
Core_0_L1I_load_hit 74794878 L1I_load_Hit Ratio: 0.99993
Core_0_L1I_load_miss 4875
Core_0_L1I_RFOs 0
Core_0_L1I_RFO_hit 0 L1I_RFO_Hit Ratio: -nan
Core_0_L1I_RFO_miss 0
Core_0_L1I_prefetches 0
Core_0_L1I_prefetch_hit 0 L1I_prefetch_Hit Ratio: -nan
Core_0_L1I_prefetch_miss 0
Core_0_L1I_writebacks 0
Core_0_L1I_writeback_hit 0 L1I_writeback_Hit Ratio: -nan
Core_0_L1I_writeback_miss 0
Core_0_L1I_prefetch_requested 0
Core_0_L1I_prefetch_issued 0
Core_0_L1I_prefetch_useful 0 L1I_Useful Ratio: -nan
Core_0_L1I_prefetch_useless 0
Core_0_L1I_prefetch_late 0
Core_0_L1I_average_miss_latency 285.22585

Core_0_L2C_total_access 14652228
Core_0_L2C_total_hit 11171104 L2C_total_Hit Ratio: 0.76242
Core_0_L2C_total_miss 3481124
Core_0_L2C_loads 10792938
Core_0_L2C_load_hit 7839425 L2C_load_Hit Ratio: 0.72635
Core_0_L2C_load_miss 2953513
Core_0_L2C_RFOs 654467
Core_0_L2C_RFO_hit 126867 L2C_RFO_Hit Ratio: 0.19385
Core_0_L2C_RFO_miss 527600
Core_0_L2C_prefetches 0
Core_0_L2C_prefetch_hit 0 L2C_prefetch_Hit Ratio: -nan
Core_0_L2C_prefetch_miss 0
Core_0_L2C_writebacks 3204823
Core_0_L2C_writeback_hit 3204812 L2C_writeback_Hit Ratio: 1.00000
Core_0_L2C_writeback_miss 11
Core_0_L2C_prefetch_requested 0
Core_0_L2C_prefetch_issued 0
Core_0_L2C_prefetch_useful 0 L2C_Useful Ratio: -nan
Core_0_L2C_prefetch_useless 0
Core_0_L2C_prefetch_late 0
Core_0_L2C_average_miss_latency 319.01791

Core_0_LLC_total_access 5448385
Core_0_LLC_total_hit 2292611 LLC_total_Hit Ratio: 0.42079
Core_0_LLC_total_miss 3155774
Core_0_LLC_loads 2953503
Core_0_LLC_load_hit 332260 LLC_load_Hit Ratio: 0.11250
Core_0_LLC_load_miss 2621243
Core_0_LLC_RFOs 527584
Core_0_LLC_RFO_hit 2785 LLC_RFO_Hit Ratio: 0.00528
Core_0_LLC_RFO_miss 524799
Core_0_LLC_prefetches 0
Core_0_LLC_prefetch_hit 0 LLC_prefetch_Hit Ratio: -nan
Core_0_LLC_prefetch_miss 0
Core_0_LLC_writebacks 1967298
Core_0_LLC_writeback_hit 1957566 LLC_writeback_Hit Ratio: 0.99505
Core_0_LLC_writeback_miss 9732
Core_0_LLC_prefetch_requested 0
Core_0_LLC_prefetch_issued 0
Core_0_LLC_prefetch_useful 0 LLC_Useful Ratio: -nan
Core_0_LLC_prefetch_useless 0
Core_0_LLC_prefetch_late 0
Core_0_LLC_average_miss_latency 296.40737

Core_0_major_page_fault 0
Core_0_minor_page_fault 25625

Channel_0_RQ_row_buffer_hit 1853733
Channel_0_RQ_row_buffer_miss 1292307
Channel_0_WQ_row_buffer_hit 779941
Channel_0_WQ_row_buffer_miss 928702
Channel_0_WQ_full 1051
Channel_0_dbus_congested 1533727

avg_congested_cycle 10

EzSearch AVG IPC :0.89149: L2-Pf-HR :-nan : L2-HR :0.76242 Uful:-nan
     > Finished combination: TraceType=770-tot Sim:592000000 Prefetcher=L2no L1=no
