TRACE: [1622000000][GPT-Neo-2_7B]_[h32][s1024][d80] Warmup: 2000000 NumTraces: 1622000000
L1:bingo_dpc3_PHT1k:L2:bingo_dpc3_PHT1k
*************************************************
   ChampSim Multicore Out-of-Order Simulator
   Last compiled: Oct 27 2024 04:15:29
*************************************************

trace_0 770-tot_memTraces_v3/memTraces[1622000000][GPT-Neo-2_7B]_[h32][s1024][d80].champsim.xz
Bingo PHT WAYS: 16 and PHT_SIZE: 1024
Bingo2 PHT WAYS: 16 and PHT_SIZE: 1024
MAIN.cc ln 751 stats print skipped
CPU  0 inst:    1000005 cyc:     499992 now IPC :2.00004: AVG IPC :2.00004: L2-Pf-HR :0.74397: L2-HR :0.66481: (Sim:0h0m20s) 
CPU  0 inst:    2000001 cyc:     984520 now IPC :2.06386: AVG IPC :2.03145: L2-Pf-HR :0.78216: L2-HR :0.72118: (Sim:0h0m40s) 

Warmup complete CPU  0 instructions:    2000001 cycles:     984520 (Simulation time: 0 hr 0 min 40 sec) 

CPU  0 inst:    3000005 cyc:    1581985 now IPC :1.67374: AVG IPC :1.67374: L2-Pf-HR :0.90626: L2-HR :0.77186: (Sim:0h0m57s) 
CPU  0 inst:    4000001 cyc:    2179583 now IPC :1.67336: AVG IPC :1.67355: L2-Pf-HR :0.91042: L2-HR :0.77154: (Sim:0h1m14s) 
CPU  0 inst:    5000000 cyc:    2776283 now IPC :1.67588: AVG IPC :1.67433: L2-Pf-HR :0.90984: L2-HR :0.77158: (Sim:0h1m32s) 
CPU  0 inst:    6000000 cyc:    3365179 now IPC :1.69809: AVG IPC :1.68021: L2-Pf-HR :0.90425: L2-HR :0.77064: (Sim:0h1m49s) 
CPU  0 inst:    7000005 cyc:    3961924 now IPC :1.67577: AVG IPC :1.67932: L2-Pf-HR :0.90521: L2-HR :0.77006: (Sim:0h2m6s) 
CPU  0 inst:    8000005 cyc:    4634738 now IPC :1.48629: AVG IPC :1.64374: L2-Pf-HR :0.90255: L2-HR :0.76723: (Sim:0h2m24s) 
CPU  0 inst:    9000004 cyc:    5246340 now IPC :1.63505: AVG IPC :1.64249: L2-Pf-HR :0.90660: L2-HR :0.76943: (Sim:0h2m42s) 
CPU  0 inst:   10000000 cyc:    5859318 now IPC :1.63137: AVG IPC :1.64109: L2-Pf-HR :0.90902: L2-HR :0.77044: (Sim:0h3m0s) 
CPU  0 inst:   11000003 cyc:    6470824 now IPC :1.63531: AVG IPC :1.64045: L2-Pf-HR :0.91086: L2-HR :0.77129: (Sim:0h3m18s) 
CPU  0 inst:   12000000 cyc:    7082142 now IPC :1.63580: AVG IPC :1.63998: L2-Pf-HR :0.91300: L2-HR :0.77232: (Sim:0h3m35s) 
CPU  0 inst:   13000001 cyc:    7688822 now IPC :1.64832: AVG IPC :1.64074: L2-Pf-HR :0.91450: L2-HR :0.77313: (Sim:0h3m52s) 
CPU  0 inst:   14000003 cyc:    8297613 now IPC :1.64260: AVG IPC :1.64089: L2-Pf-HR :0.91552: L2-HR :0.77353: (Sim:0h4m9s) 
CPU  0 inst:   15000001 cyc:    8906918 now IPC :1.64121: AVG IPC :1.64092: L2-Pf-HR :0.91627: L2-HR :0.77409: (Sim:0h4m26s) 
CPU  0 inst:   16000005 cyc:    9598674 now IPC :1.44560: AVG IPC :1.62523: L2-Pf-HR :0.91537: L2-HR :0.77572: (Sim:0h4m45s) 
CPU  0 inst:   17000004 cyc:   10214914 now IPC :1.62274: AVG IPC :1.62507: L2-Pf-HR :0.91547: L2-HR :0.77885: (Sim:0h5m3s) 
CPU  0 inst:   18000002 cyc:   10833557 now IPC :1.61644: AVG IPC :1.62452: L2-Pf-HR :0.91554: L2-HR :0.78118: (Sim:0h5m20s) 
CPU  0 inst:   19000004 cyc:   11442600 now IPC :1.64192: AVG IPC :1.62554: L2-Pf-HR :0.91517: L2-HR :0.78370: (Sim:0h5m38s) 
CPU  0 inst:   20000003 cyc:   12057825 now IPC :1.62542: AVG IPC :1.62553: L2-Pf-HR :0.91529: L2-HR :0.78595: (Sim:0h5m56s) 
CPU  0 inst:   21000003 cyc:   12800941 now IPC :1.34568: AVG IPC :1.60793: L2-Pf-HR :0.91347: L2-HR :0.78281: (Sim:0h6m15s) 
CPU  0 inst:   22000002 cyc:   13436892 now IPC :1.57245: AVG IPC :1.60612: L2-Pf-HR :0.91330: L2-HR :0.78227: (Sim:0h6m33s) 
CPU  0 inst:   23000002 cyc:   14071091 now IPC :1.57679: AVG IPC :1.60470: L2-Pf-HR :0.91294: L2-HR :0.78152: (Sim:0h6m51s) 
CPU  0 inst:   24000002 cyc:   14701387 now IPC :1.58656: AVG IPC :1.60386: L2-Pf-HR :0.91302: L2-HR :0.78111: (Sim:0h7m9s) 
CPU  0 inst:   25000001 cyc:   15339688 now IPC :1.56666: AVG IPC :1.60221: L2-Pf-HR :0.91299: L2-HR :0.78079: (Sim:0h7m27s) 
CPU  0 inst:   26000000 cyc:   15977036 now IPC :1.56900: AVG IPC :1.60080: L2-Pf-HR :0.91280: L2-HR :0.78014: (Sim:0h7m46s) 
CPU  0 inst:   27000004 cyc:   16614563 now IPC :1.56857: AVG IPC :1.59948: L2-Pf-HR :0.91255: L2-HR :0.77961: (Sim:0h8m4s) 
CPU  0 inst:   28000002 cyc:   17353902 now IPC :1.35256: AVG IPC :1.58833: L2-Pf-HR :0.91176: L2-HR :0.77861: (Sim:0h8m23s) 
CPU  0 inst:   29000001 cyc:   17979694 now IPC :1.59797: AVG IPC :1.58869: L2-Pf-HR :0.91239: L2-HR :0.77872: (Sim:0h8m41s) 
CPU  0 inst:   30000004 cyc:   18605987 now IPC :1.59670: AVG IPC :1.58897: L2-Pf-HR :0.91285: L2-HR :0.77868: (Sim:0h8m59s) 
CPU  0 inst:   31000005 cyc:   19232001 now IPC :1.59741: AVG IPC :1.58926: L2-Pf-HR :0.91325: L2-HR :0.77870: (Sim:0h9m16s) 
CPU  0 inst:   32000001 cyc:   19859103 now IPC :1.59463: AVG IPC :1.58944: L2-Pf-HR :0.91393: L2-HR :0.77882: (Sim:0h9m34s) 
CPU  0 inst:   33000002 cyc:   20482831 now IPC :1.60326: AVG IPC :1.58988: L2-Pf-HR :0.91444: L2-HR :0.77895: (Sim:0h9m52s) 
CPU  0 inst:   34000005 cyc:   21108468 now IPC :1.59838: AVG IPC :1.59015: L2-Pf-HR :0.91479: L2-HR :0.77892: (Sim:0h10m10s) 
CPU  0 inst:   35000005 cyc:   21734244 now IPC :1.59802: AVG IPC :1.59038: L2-Pf-HR :0.91512: L2-HR :0.77903: (Sim:0h10m28s) 
CPU  0 inst:   36000004 cyc:   22434680 now IPC :1.42768: AVG IPC :1.58507: L2-Pf-HR :0.91468: L2-HR :0.77951: (Sim:0h10m46s) 
CPU  0 inst:   37000001 cyc:   23059854 now IPC :1.59955: AVG IPC :1.58548: L2-Pf-HR :0.91479: L2-HR :0.78074: (Sim:0h11m4s) 
CPU  0 inst:   38000002 cyc:   23687740 now IPC :1.59265: AVG IPC :1.58568: L2-Pf-HR :0.91483: L2-HR :0.78174: (Sim:0h11m22s) 
CPU  0 inst:   39000001 cyc:   24309351 now IPC :1.60872: AVG IPC :1.58629: L2-Pf-HR :0.91497: L2-HR :0.78292: (Sim:0h11m40s) 
CPU  0 inst:   40000005 cyc:   24934562 now IPC :1.59947: AVG IPC :1.58664: L2-Pf-HR :0.91494: L2-HR :0.78398: (Sim:0h11m58s) 
CPU  0 inst:   41000000 cyc:   25682675 now IPC :1.33669: AVG IPC :1.57907: L2-Pf-HR :0.91424: L2-HR :0.78244: (Sim:0h12m17s) 
CPU  0 inst:   42000000 cyc:   26324872 now IPC :1.55715: AVG IPC :1.57851: L2-Pf-HR :0.91404: L2-HR :0.78220: (Sim:0h12m35s) 
CPU  0 inst:   43000001 cyc:   26967226 now IPC :1.55678: AVG IPC :1.57797: L2-Pf-HR :0.91376: L2-HR :0.78182: (Sim:0h12m53s) 
CPU  0 inst:   44000000 cyc:   27604578 now IPC :1.56899: AVG IPC :1.57776: L2-Pf-HR :0.91365: L2-HR :0.78158: (Sim:0h13m11s) 
CPU  0 inst:   45000002 cyc:   28248285 now IPC :1.55350: AVG IPC :1.57719: L2-Pf-HR :0.91364: L2-HR :0.78140: (Sim:0h13m30s) 
CPU  0 inst:   46000001 cyc:   28885587 now IPC :1.56911: AVG IPC :1.57700: L2-Pf-HR :0.91349: L2-HR :0.78103: (Sim:0h13m48s) 
CPU  0 inst:   47000001 cyc:   29530654 now IPC :1.55023: AVG IPC :1.57640: L2-Pf-HR :0.91330: L2-HR :0.78071: (Sim:0h14m6s) 
CPU  0 inst:   48000004 cyc:   30275530 now IPC :1.34251: AVG IPC :1.57045: L2-Pf-HR :0.91287: L2-HR :0.78016: (Sim:0h14m25s) 
CPU  0 inst:   49000005 cyc:   30904552 now IPC :1.58977: AVG IPC :1.57085: L2-Pf-HR :0.91325: L2-HR :0.78021: (Sim:0h14m43s) 
CPU  0 inst:   50000004 cyc:   31532883 now IPC :1.59152: AVG IPC :1.57128: L2-Pf-HR :0.91352: L2-HR :0.78017: (Sim:0h15m1s) 
CPU  0 inst:   51000001 cyc:   32159992 now IPC :1.59461: AVG IPC :1.57175: L2-Pf-HR :0.91373: L2-HR :0.78015: (Sim:0h15m19s) 
CPU  0 inst:   52000005 cyc:   32789235 now IPC :1.58922: AVG IPC :1.57209: L2-Pf-HR :0.91418: L2-HR :0.78021: (Sim:0h15m37s) 
CPU  0 inst:   53000001 cyc:   33416505 now IPC :1.59420: AVG IPC :1.57252: L2-Pf-HR :0.91451: L2-HR :0.78024: (Sim:0h15m54s) 
CPU  0 inst:   54000004 cyc:   34044573 now IPC :1.59219: AVG IPC :1.57290: L2-Pf-HR :0.91476: L2-HR :0.78019: (Sim:0h16m12s) 
CPU  0 inst:   55000001 cyc:   34674533 now IPC :1.58740: AVG IPC :1.57317: L2-Pf-HR :0.91497: L2-HR :0.78023: (Sim:0h16m30s) 
CPU  0 inst:   56000003 cyc:   35372424 now IPC :1.43289: AVG IPC :1.57032: L2-Pf-HR :0.91477: L2-HR :0.78052: (Sim:0h16m49s) 
CPU  0 inst:   57000005 cyc:   35994899 now IPC :1.60649: AVG IPC :1.57096: L2-Pf-HR :0.91484: L2-HR :0.78127: (Sim:0h17m7s) 
CPU  0 inst:   58000004 cyc:   36619218 now IPC :1.60174: AVG IPC :1.57150: L2-Pf-HR :0.91486: L2-HR :0.78188: (Sim:0h17m24s) 
CPU  0 inst:   59000002 cyc:   37234024 now IPC :1.62653: AVG IPC :1.57244: L2-Pf-HR :0.91472: L2-HR :0.78265: (Sim:0h17m42s) 
CPU  0 inst:   60000003 cyc:   37854796 now IPC :1.61090: AVG IPC :1.57308: L2-Pf-HR :0.91471: L2-HR :0.78340: (Sim:0h18m0s) 
CPU  0 inst:   61000001 cyc:   38609356 now IPC :1.32527: AVG IPC :1.56811: L2-Pf-HR :0.91417: L2-HR :0.78240: (Sim:0h18m19s) 
CPU  0 inst:   62000000 cyc:   39258385 now IPC :1.54076: AVG IPC :1.56765: L2-Pf-HR :0.91408: L2-HR :0.78221: (Sim:0h18m37s) 
CPU  0 inst:   63000003 cyc:   39907191 now IPC :1.54130: AVG IPC :1.56721: L2-Pf-HR :0.91394: L2-HR :0.78197: (Sim:0h18m56s) 
CPU  0 inst:   64000004 cyc:   40557339 now IPC :1.53811: AVG IPC :1.56673: L2-Pf-HR :0.91373: L2-HR :0.78179: (Sim:0h19m14s) 
CPU  0 inst:   65000000 cyc:   41202719 now IPC :1.54947: AVG IPC :1.56646: L2-Pf-HR :0.91373: L2-HR :0.78166: (Sim:0h19m32s) 
CPU  0 inst:   66000000 cyc:   41851950 now IPC :1.54028: AVG IPC :1.56604: L2-Pf-HR :0.91368: L2-HR :0.78144: (Sim:0h19m50s) 
CPU  0 inst:   67000001 cyc:   42501604 now IPC :1.53928: AVG IPC :1.56562: L2-Pf-HR :0.91356: L2-HR :0.78122: (Sim:0h20m8s) 
CPU  0 inst:   68000001 cyc:   43244660 now IPC :1.34579: AVG IPC :1.56176: L2-Pf-HR :0.91323: L2-HR :0.78083: (Sim:0h20m27s) 
CPU  0 inst:   69000001 cyc:   43863206 now IPC :1.61669: AVG IPC :1.56255: L2-Pf-HR :0.91353: L2-HR :0.78087: (Sim:0h20m45s) 
CPU  0 inst:   70000003 cyc:   44481810 now IPC :1.61655: AVG IPC :1.56332: L2-Pf-HR :0.91370: L2-HR :0.78083: (Sim:0h21m3s) 
CPU  0 inst:   71000002 cyc:   45099527 now IPC :1.61886: AVG IPC :1.56409: L2-Pf-HR :0.91386: L2-HR :0.78080: (Sim:0h21m21s) 
CPU  0 inst:   72000005 cyc:   45719426 now IPC :1.61317: AVG IPC :1.56477: L2-Pf-HR :0.91421: L2-HR :0.78085: (Sim:0h21m39s) 
CPU  0 inst:   73000005 cyc:   46337656 now IPC :1.61752: AVG IPC :1.56549: L2-Pf-HR :0.91447: L2-HR :0.78086: (Sim:0h21m57s) 
CPU  0 inst:   74000004 cyc:   46955443 now IPC :1.61868: AVG IPC :1.56621: L2-Pf-HR :0.91468: L2-HR :0.78083: (Sim:0h22m15s) 
CPU  0 inst:   75000004 cyc:   47574626 now IPC :1.61503: AVG IPC :1.56686: L2-Pf-HR :0.91486: L2-HR :0.78089: (Sim:0h22m32s) 
CPU  0 inst:   76000005 cyc:   48262598 now IPC :1.45355: AVG IPC :1.56521: L2-Pf-HR :0.91470: L2-HR :0.78110: (Sim:0h22m51s) 
CPU  0 inst:   77000004 cyc:   48874966 now IPC :1.63300: AVG IPC :1.56607: L2-Pf-HR :0.91478: L2-HR :0.78163: (Sim:0h23m9s) 
CPU  0 inst:   78000000 cyc:   49488456 now IPC :1.63001: AVG IPC :1.56688: L2-Pf-HR :0.91479: L2-HR :0.78209: (Sim:0h23m25s) 
CPU  0 inst:   79000000 cyc:   50098183 now IPC :1.64008: AVG IPC :1.56779: L2-Pf-HR :0.91479: L2-HR :0.78262: (Sim:0h23m42s) 
CPU  0 inst:   80000001 cyc:   50708554 now IPC :1.63835: AVG IPC :1.56866: L2-Pf-HR :0.91476: L2-HR :0.78318: (Sim:0h23m59s) 
CPU  0 inst:   81000002 cyc:   51455546 now IPC :1.33870: AVG IPC :1.56525: L2-Pf-HR :0.91418: L2-HR :0.78238: (Sim:0h24m16s) 
CPU  0 inst:   82000001 cyc:   52095580 now IPC :1.56242: AVG IPC :1.56522: L2-Pf-HR :0.91414: L2-HR :0.78223: (Sim:0h24m33s) 
CPU  0 inst:   83000003 cyc:   52741517 now IPC :1.54814: AVG IPC :1.56501: L2-Pf-HR :0.91403: L2-HR :0.78206: (Sim:0h24m51s) 
CPU  0 inst:   84000000 cyc:   53391015 now IPC :1.53965: AVG IPC :1.56469: L2-Pf-HR :0.91389: L2-HR :0.78191: (Sim:0h25m8s) 
CPU  0 inst:   85000005 cyc:   54037757 now IPC :1.54622: AVG IPC :1.56447: L2-Pf-HR :0.91389: L2-HR :0.78180: (Sim:0h25m25s) 
CPU  0 inst:   86000004 cyc:   54686201 now IPC :1.54215: AVG IPC :1.56420: L2-Pf-HR :0.91384: L2-HR :0.78164: (Sim:0h25m42s) 
CPU  0 inst:   87000000 cyc:   55335557 now IPC :1.53998: AVG IPC :1.56391: L2-Pf-HR :0.91372: L2-HR :0.78145: (Sim:0h25m59s) 
CPU  0 inst:   88000003 cyc:   56074462 now IPC :1.35336: AVG IPC :1.56108: L2-Pf-HR :0.91345: L2-HR :0.78112: (Sim:0h26m17s) 
CPU  0 inst:   89000004 cyc:   56701734 now IPC :1.59421: AVG IPC :1.56146: L2-Pf-HR :0.91366: L2-HR :0.78114: (Sim:0h26m34s) 
CPU  0 inst:   90000004 cyc:   57328091 now IPC :1.59653: AVG IPC :1.56185: L2-Pf-HR :0.91380: L2-HR :0.78111: (Sim:0h26m51s) 
CPU  0 inst:   91000001 cyc:   57954218 now IPC :1.59712: AVG IPC :1.56223: L2-Pf-HR :0.91393: L2-HR :0.78109: (Sim:0h27m8s) 
CPU  0 inst:   92000004 cyc:   58582812 now IPC :1.59086: AVG IPC :1.56255: L2-Pf-HR :0.91418: L2-HR :0.78111: (Sim:0h27m25s) 
CPU  0 inst:   93000005 cyc:   59208454 now IPC :1.59836: AVG IPC :1.56293: L2-Pf-HR :0.91434: L2-HR :0.78111: (Sim:0h27m41s) 
CPU  0 inst:   94000001 cyc:   59833585 now IPC :1.59966: AVG IPC :1.56332: L2-Pf-HR :0.91451: L2-HR :0.78108: (Sim:0h27m58s) 
CPU  0 inst:   95000000 cyc:   60461832 now IPC :1.59173: AVG IPC :1.56362: L2-Pf-HR :0.91465: L2-HR :0.78113: (Sim:0h28m15s) 
CPU  0 inst:   96000002 cyc:   61161777 now IPC :1.42869: AVG IPC :1.56205: L2-Pf-HR :0.91453: L2-HR :0.78129: (Sim:0h28m32s) 
CPU  0 inst:   97000000 cyc:   61789644 now IPC :1.59269: AVG IPC :1.56237: L2-Pf-HR :0.91460: L2-HR :0.78171: (Sim:0h28m49s) 
CPU  0 inst:   98000003 cyc:   62419067 now IPC :1.58876: AVG IPC :1.56264: L2-Pf-HR :0.91460: L2-HR :0.78205: (Sim:0h29m6s) 
CPU  0 inst:   99000001 cyc:   63038350 now IPC :1.61477: AVG IPC :1.56316: L2-Pf-HR :0.91454: L2-HR :0.78254: (Sim:0h29m23s) 
CPU  0 inst:  100000003 cyc:   63663715 now IPC :1.59907: AVG IPC :1.56352: L2-Pf-HR :0.91447: L2-HR :0.78297: (Sim:0h29m40s) 
CPU  0 inst:  101000004 cyc:   64411597 now IPC :1.33711: AVG IPC :1.56085: L2-Pf-HR :0.91414: L2-HR :0.78234: (Sim:0h29m58s) 
CPU  0 inst:  102000002 cyc:   65051570 now IPC :1.56256: AVG IPC :1.56086: L2-Pf-HR :0.91411: L2-HR :0.78225: (Sim:0h30m16s) 
CPU  0 inst:  103000002 cyc:   65699587 now IPC :1.54317: AVG IPC :1.56069: L2-Pf-HR :0.91405: L2-HR :0.78210: (Sim:0h30m34s) 
CPU  0 inst:  104000003 cyc:   66348277 now IPC :1.54157: AVG IPC :1.56050: L2-Pf-HR :0.91400: L2-HR :0.78196: (Sim:0h30m51s) 
CPU  0 inst:  105000002 cyc:   66993650 now IPC :1.54949: AVG IPC :1.56039: L2-Pf-HR :0.91398: L2-HR :0.78187: (Sim:0h31m9s) 
CPU  0 inst:  106000005 cyc:   67643064 now IPC :1.53985: AVG IPC :1.56019: L2-Pf-HR :0.91396: L2-HR :0.78173: (Sim:0h31m27s) 
CPU  0 inst:  107000000 cyc:   68290832 now IPC :1.54375: AVG IPC :1.56003: L2-Pf-HR :0.91387: L2-HR :0.78159: (Sim:0h31m45s) 
CPU  0 inst:  108000000 cyc:   69036963 now IPC :1.34025: AVG IPC :1.55762: L2-Pf-HR :0.91363: L2-HR :0.78131: (Sim:0h32m4s) 
CPU  0 inst:  109000000 cyc:   69663711 now IPC :1.59554: AVG IPC :1.55797: L2-Pf-HR :0.91382: L2-HR :0.78134: (Sim:0h32m22s) 
CPU  0 inst:  110000001 cyc:   70290050 now IPC :1.59658: AVG IPC :1.55832: L2-Pf-HR :0.91394: L2-HR :0.78132: (Sim:0h32m40s) 
CPU  0 inst:  111000000 cyc:   70915644 now IPC :1.59848: AVG IPC :1.55868: L2-Pf-HR :0.91403: L2-HR :0.78129: (Sim:0h32m57s) 
CPU  0 inst:  112000001 cyc:   71544338 now IPC :1.59060: AVG IPC :1.55896: L2-Pf-HR :0.91418: L2-HR :0.78127: (Sim:0h33m15s) 
CPU  0 inst:  113000001 cyc:   72167901 now IPC :1.60369: AVG IPC :1.55935: L2-Pf-HR :0.91435: L2-HR :0.78130: (Sim:0h33m33s) 
CPU  0 inst:  114000000 cyc:   72792973 now IPC :1.59981: AVG IPC :1.55970: L2-Pf-HR :0.91449: L2-HR :0.78128: (Sim:0h33m50s) 
CPU  0 inst:  115000004 cyc:   73421135 now IPC :1.59195: AVG IPC :1.55998: L2-Pf-HR :0.91460: L2-HR :0.78131: (Sim:0h34m8s) 
CPU  0 inst:  116000004 cyc:   74118920 now IPC :1.43311: AVG IPC :1.55877: L2-Pf-HR :0.91450: L2-HR :0.78144: (Sim:0h34m26s) 
CPU  0 inst:  117000002 cyc:   74744646 now IPC :1.59814: AVG IPC :1.55911: L2-Pf-HR :0.91456: L2-HR :0.78178: (Sim:0h34m44s) 
CPU  0 inst:  118000005 cyc:   75371338 now IPC :1.59569: AVG IPC :1.55942: L2-Pf-HR :0.91456: L2-HR :0.78207: (Sim:0h35m1s) 
CPU  0 inst:  119000003 cyc:   75994214 now IPC :1.60545: AVG IPC :1.55980: L2-Pf-HR :0.91459: L2-HR :0.78244: (Sim:0h35m19s) 
CPU  0 inst:  120000000 cyc:   76624574 now IPC :1.58639: AVG IPC :1.56002: L2-Pf-HR :0.91463: L2-HR :0.78281: (Sim:0h35m37s) 
CPU  0 inst:  121000001 cyc:   77372023 now IPC :1.33789: AVG IPC :1.55785: L2-Pf-HR :0.91419: L2-HR :0.78219: (Sim:0h35m55s) 
CPU  0 inst:  122000004 cyc:   78013537 now IPC :1.55882: AVG IPC :1.55785: L2-Pf-HR :0.91410: L2-HR :0.78210: (Sim:0h36m13s) 
CPU  0 inst:  123000003 cyc:   78666884 now IPC :1.53058: AVG IPC :1.55763: L2-Pf-HR :0.91407: L2-HR :0.78199: (Sim:0h36m31s) 
CPU  0 inst:  124000005 cyc:   79320360 now IPC :1.53028: AVG IPC :1.55740: L2-Pf-HR :0.91395: L2-HR :0.78188: (Sim:0h36m49s) 
CPU  0 inst:  125000003 cyc:   79970879 now IPC :1.53723: AVG IPC :1.55723: L2-Pf-HR :0.91395: L2-HR :0.78182: (Sim:0h37m7s) 
CPU  0 inst:  126000003 cyc:   80621282 now IPC :1.53751: AVG IPC :1.55707: L2-Pf-HR :0.91389: L2-HR :0.78171: (Sim:0h37m25s) 
CPU  0 inst:  127000002 cyc:   81274184 now IPC :1.53162: AVG IPC :1.55686: L2-Pf-HR :0.91383: L2-HR :0.78160: (Sim:0h37m43s) 
CPU  0 inst:  128000001 cyc:   82017994 now IPC :1.34443: AVG IPC :1.55491: L2-Pf-HR :0.91365: L2-HR :0.78136: (Sim:0h38m2s) 
CPU  0 inst:  129000001 cyc:   82640160 now IPC :1.60729: AVG IPC :1.55531: L2-Pf-HR :0.91380: L2-HR :0.78137: (Sim:0h38m20s) 
CPU  0 inst:  130000002 cyc:   83261456 now IPC :1.60954: AVG IPC :1.55572: L2-Pf-HR :0.91389: L2-HR :0.78135: (Sim:0h38m37s) 
CPU  0 inst:  131000004 cyc:   83882218 now IPC :1.61093: AVG IPC :1.55613: L2-Pf-HR :0.91397: L2-HR :0.78131: (Sim:0h38m55s) 
CPU  0 inst:  132000004 cyc:   84505668 now IPC :1.60398: AVG IPC :1.55649: L2-Pf-HR :0.91413: L2-HR :0.78132: (Sim:0h39m13s) 
CPU  0 inst:  133000004 cyc:   85124900 now IPC :1.61490: AVG IPC :1.55692: L2-Pf-HR :0.91424: L2-HR :0.78131: (Sim:0h39m30s) 
CPU  0 inst:  134000001 cyc:   85743461 now IPC :1.61665: AVG IPC :1.55736: L2-Pf-HR :0.91437: L2-HR :0.78130: (Sim:0h39m48s) 
CPU  0 inst:  135000001 cyc:   86369119 now IPC :1.59832: AVG IPC :1.55766: L2-Pf-HR :0.91446: L2-HR :0.78131: (Sim:0h40m6s) 
CPU  0 inst:  136000005 cyc:   87062790 now IPC :1.44161: AVG IPC :1.55672: L2-Pf-HR :0.91437: L2-HR :0.78141: (Sim:0h40m24s) 
CPU  0 inst:  137000003 cyc:   87687294 now IPC :1.60127: AVG IPC :1.55704: L2-Pf-HR :0.91442: L2-HR :0.78170: (Sim:0h40m41s) 
CPU  0 inst:  138000005 cyc:   88313772 now IPC :1.59623: AVG IPC :1.55732: L2-Pf-HR :0.91444: L2-HR :0.78196: (Sim:0h40m59s) 
CPU  0 inst:  139000001 cyc:   88927447 now IPC :1.62952: AVG IPC :1.55783: L2-Pf-HR :0.91436: L2-HR :0.78229: (Sim:0h41m17s) 
CPU  0 inst:  140000001 cyc:   89548625 now IPC :1.60984: AVG IPC :1.55819: L2-Pf-HR :0.91429: L2-HR :0.78263: (Sim:0h41m34s) 
CPU  0 inst:  141000000 cyc:   90296439 now IPC :1.33723: AVG IPC :1.55634: L2-Pf-HR :0.91402: L2-HR :0.78218: (Sim:0h41m53s) 
CPU  0 inst:  142000004 cyc:   90938840 now IPC :1.55667: AVG IPC :1.55635: L2-Pf-HR :0.91400: L2-HR :0.78209: (Sim:0h42m11s) 
CPU  0 inst:  143000000 cyc:   91587544 now IPC :1.54153: AVG IPC :1.55624: L2-Pf-HR :0.91393: L2-HR :0.78201: (Sim:0h42m29s) 
CPU  0 inst:  144000000 cyc:   92238855 now IPC :1.53536: AVG IPC :1.55609: L2-Pf-HR :0.91387: L2-HR :0.78192: (Sim:0h42m47s) 
CPU  0 inst:  145000001 cyc:   92884632 now IPC :1.54852: AVG IPC :1.55604: L2-Pf-HR :0.91385: L2-HR :0.78186: (Sim:0h43m5s) 
CPU  0 inst:  146000004 cyc:   93533332 now IPC :1.54155: AVG IPC :1.55594: L2-Pf-HR :0.91385: L2-HR :0.78177: (Sim:0h43m23s) 
CPU  0 inst:  147000005 cyc:   94183385 now IPC :1.53834: AVG IPC :1.55581: L2-Pf-HR :0.91380: L2-HR :0.78167: (Sim:0h43m41s) 
CPU  0 inst:  148000003 cyc:   94929322 now IPC :1.34059: AVG IPC :1.55410: L2-Pf-HR :0.91366: L2-HR :0.78147: (Sim:0h44m0s) 
CPU  0 inst:  149000005 cyc:   95556360 now IPC :1.59480: AVG IPC :1.55437: L2-Pf-HR :0.91377: L2-HR :0.78148: (Sim:0h44m18s) 
CPU  0 inst:  150000000 cyc:   96183509 now IPC :1.59451: AVG IPC :1.55464: L2-Pf-HR :0.91386: L2-HR :0.78146: (Sim:0h44m35s) 
CPU  0 inst:  151000000 cyc:   96810797 now IPC :1.59416: AVG IPC :1.55490: L2-Pf-HR :0.91393: L2-HR :0.78144: (Sim:0h44m53s) 
CPU  0 inst:  152000000 cyc:   97439790 now IPC :1.58984: AVG IPC :1.55512: L2-Pf-HR :0.91407: L2-HR :0.78145: (Sim:0h45m11s) 
CPU  0 inst:  153000000 cyc:   98066695 now IPC :1.59514: AVG IPC :1.55538: L2-Pf-HR :0.91418: L2-HR :0.78143: (Sim:0h45m28s) 
CPU  0 inst:  154000004 cyc:   98693948 now IPC :1.59426: AVG IPC :1.55563: L2-Pf-HR :0.91429: L2-HR :0.78142: (Sim:0h45m46s) 
CPU  0 inst:  155000001 cyc:   99326170 now IPC :1.58172: AVG IPC :1.55580: L2-Pf-HR :0.91440: L2-HR :0.78147: (Sim:0h46m4s) 
CPU  0 inst:  156000003 cyc:  100009185 now IPC :1.46410: AVG IPC :1.55517: L2-Pf-HR :0.91431: L2-HR :0.78156: (Sim:0h46m22s) 
CPU  0 inst:  157000001 cyc:  100620025 now IPC :1.63709: AVG IPC :1.55567: L2-Pf-HR :0.91435: L2-HR :0.78180: (Sim:0h46m39s) 
CPU  0 inst:  158000000 cyc:  101232020 now IPC :1.63400: AVG IPC :1.55615: L2-Pf-HR :0.91437: L2-HR :0.78204: (Sim:0h46m57s) 
CPU  0 inst:  159000002 cyc:  101835445 now IPC :1.65721: AVG IPC :1.55675: L2-Pf-HR :0.91434: L2-HR :0.78231: (Sim:0h47m14s) 
CPU  0 inst:  160000005 cyc:  102453932 now IPC :1.61685: AVG IPC :1.55712: L2-Pf-HR :0.91438: L2-HR :0.78259: (Sim:0h47m32s) 
CPU  0 inst:  161000001 cyc:  103199725 now IPC :1.34085: AVG IPC :1.55554: L2-Pf-HR :0.91415: L2-HR :0.78220: (Sim:0h47m51s) 
CPU  0 inst:  162000002 cyc:  103842114 now IPC :1.55669: AVG IPC :1.55555: L2-Pf-HR :0.91412: L2-HR :0.78212: (Sim:0h48m8s) 
CPU  0 inst:  163000004 cyc:  104490363 now IPC :1.54262: AVG IPC :1.55547: L2-Pf-HR :0.91411: L2-HR :0.78204: (Sim:0h48m26s) 
CPU  0 inst:  164000003 cyc:  105140805 now IPC :1.53741: AVG IPC :1.55536: L2-Pf-HR :0.91403: L2-HR :0.78195: (Sim:0h48m44s) 
CPU  0 inst:  165000000 cyc:  105791253 now IPC :1.53740: AVG IPC :1.55524: L2-Pf-HR :0.91400: L2-HR :0.78188: (Sim:0h49m2s) 
CPU  0 inst:  166000004 cyc:  106439040 now IPC :1.54372: AVG IPC :1.55517: L2-Pf-HR :0.91400: L2-HR :0.78180: (Sim:0h49m20s) 
CPU  0 inst:  167000001 cyc:  107091488 now IPC :1.53268: AVG IPC :1.55503: L2-Pf-HR :0.91396: L2-HR :0.78171: (Sim:0h49m38s) 
CPU  0 inst:  168000001 cyc:  107839587 now IPC :1.33672: AVG IPC :1.55351: L2-Pf-HR :0.91380: L2-HR :0.78153: (Sim:0h49m56s) 
CPU  0 inst:  169000000 cyc:  108466238 now IPC :1.59578: AVG IPC :1.55375: L2-Pf-HR :0.91392: L2-HR :0.78154: (Sim:0h50m14s) 
CPU  0 inst:  170000002 cyc:  109093475 now IPC :1.59430: AVG IPC :1.55399: L2-Pf-HR :0.91400: L2-HR :0.78153: (Sim:0h50m31s) 
CPU  0 inst:  171000001 cyc:  109720808 now IPC :1.59405: AVG IPC :1.55422: L2-Pf-HR :0.91407: L2-HR :0.78152: (Sim:0h50m49s) 
CPU  0 inst:  172000005 cyc:  110349796 now IPC :1.58986: AVG IPC :1.55442: L2-Pf-HR :0.91419: L2-HR :0.78153: (Sim:0h51m6s) 
CPU  0 inst:  173000001 cyc:  110976487 now IPC :1.59568: AVG IPC :1.55466: L2-Pf-HR :0.91428: L2-HR :0.78152: (Sim:0h51m24s) 
CPU  0 inst:  174000003 cyc:  111602389 now IPC :1.59770: AVG IPC :1.55490: L2-Pf-HR :0.91438: L2-HR :0.78151: (Sim:0h51m41s) 
CPU  0 inst:  175000004 cyc:  112233131 now IPC :1.58544: AVG IPC :1.55508: L2-Pf-HR :0.91447: L2-HR :0.78154: (Sim:0h51m59s) 
CPU  0 inst:  176000002 cyc:  112924499 now IPC :1.44640: AVG IPC :1.55440: L2-Pf-HR :0.91436: L2-HR :0.78161: (Sim:0h52m16s) 
CPU  0 inst:  177000001 cyc:  113549656 now IPC :1.59960: AVG IPC :1.55466: L2-Pf-HR :0.91440: L2-HR :0.78181: (Sim:0h52m34s) 
CPU  0 inst:  178000002 cyc:  114174152 now IPC :1.60129: AVG IPC :1.55491: L2-Pf-HR :0.91441: L2-HR :0.78203: (Sim:0h52m51s) 
CPU  0 inst:  179000002 cyc:  114792416 now IPC :1.61743: AVG IPC :1.55525: L2-Pf-HR :0.91440: L2-HR :0.78226: (Sim:0h53m9s) 
CPU  0 inst:  180000004 cyc:  115415706 now IPC :1.60439: AVG IPC :1.55552: L2-Pf-HR :0.91438: L2-HR :0.78251: (Sim:0h53m28s) 
CPU  0 inst:  181000002 cyc:  116156917 now IPC :1.34914: AVG IPC :1.55419: L2-Pf-HR :0.91417: L2-HR :0.78210: (Sim:0h53m47s) 
CPU  0 inst:  182000004 cyc:  116796993 now IPC :1.56232: AVG IPC :1.55424: L2-Pf-HR :0.91413: L2-HR :0.78203: (Sim:0h54m5s) 
CPU  0 inst:  183000000 cyc:  117444212 now IPC :1.54507: AVG IPC :1.55419: L2-Pf-HR :0.91411: L2-HR :0.78196: (Sim:0h54m24s) 
CPU  0 inst:  184000002 cyc:  118094748 now IPC :1.53720: AVG IPC :1.55409: L2-Pf-HR :0.91408: L2-HR :0.78190: (Sim:0h54m43s) 
CPU  0 inst:  185000005 cyc:  118739986 now IPC :1.54982: AVG IPC :1.55407: L2-Pf-HR :0.91406: L2-HR :0.78183: (Sim:0h55m1s) 
CPU  0 inst:  186000003 cyc:  119387224 now IPC :1.54502: AVG IPC :1.55402: L2-Pf-HR :0.91406: L2-HR :0.78176: (Sim:0h55m20s) 
CPU  0 inst:  187000001 cyc:  120037298 now IPC :1.53828: AVG IPC :1.55393: L2-Pf-HR :0.91403: L2-HR :0.78170: (Sim:0h55m39s) 
CPU  0 inst:  188000005 cyc:  120781815 now IPC :1.34316: AVG IPC :1.55262: L2-Pf-HR :0.91389: L2-HR :0.78154: (Sim:0h55m58s) 
CPU  0 inst:  189000001 cyc:  121409525 now IPC :1.59309: AVG IPC :1.55283: L2-Pf-HR :0.91398: L2-HR :0.78154: (Sim:0h56m16s) 
CPU  0 inst:  190000005 cyc:  122037971 now IPC :1.59123: AVG IPC :1.55303: L2-Pf-HR :0.91407: L2-HR :0.78154: (Sim:0h56m35s) 
CPU  0 inst:  191000005 cyc:  122665417 now IPC :1.59376: AVG IPC :1.55324: L2-Pf-HR :0.91413: L2-HR :0.78152: (Sim:0h56m53s) 
CPU  0 inst:  192000000 cyc:  123294779 now IPC :1.58890: AVG IPC :1.55343: L2-Pf-HR :0.91424: L2-HR :0.78153: (Sim:0h57m11s) 
CPU  0 inst:  193000004 cyc:  123921591 now IPC :1.59538: AVG IPC :1.55364: L2-Pf-HR :0.91429: L2-HR :0.78151: (Sim:0h57m29s) 
CPU  0 inst:  194000002 cyc:  124546111 now IPC :1.60123: AVG IPC :1.55388: L2-Pf-HR :0.91439: L2-HR :0.78151: (Sim:0h57m48s) 
CPU  0 inst:  195000005 cyc:  125180332 now IPC :1.57674: AVG IPC :1.55400: L2-Pf-HR :0.91446: L2-HR :0.78154: (Sim:0h58m6s) 
CPU  0 inst:  196000001 cyc:  125872725 now IPC :1.44426: AVG IPC :1.55339: L2-Pf-HR :0.91436: L2-HR :0.78161: (Sim:0h58m25s) 
CPU  0 inst:  197000000 cyc:  126497521 now IPC :1.60052: AVG IPC :1.55362: L2-Pf-HR :0.91439: L2-HR :0.78180: (Sim:0h58m43s) 
CPU  0 inst:  198000000 cyc:  127121646 now IPC :1.60224: AVG IPC :1.55386: L2-Pf-HR :0.91442: L2-HR :0.78201: (Sim:0h59m1s) 
CPU  0 inst:  199000001 cyc:  127736982 now IPC :1.62513: AVG IPC :1.55421: L2-Pf-HR :0.91439: L2-HR :0.78223: (Sim:0h59m19s) 
CPU  0 inst:  200000002 cyc:  128360985 now IPC :1.60256: AVG IPC :1.55445: L2-Pf-HR :0.91440: L2-HR :0.78244: (Sim:0h59m38s) 
CPU  0 inst:  201000005 cyc:  129101569 now IPC :1.35029: AVG IPC :1.55327: L2-Pf-HR :0.91418: L2-HR :0.78212: (Sim:0h59m57s) 
CPU  0 inst:  202000004 cyc:  129745788 now IPC :1.55227: AVG IPC :1.55326: L2-Pf-HR :0.91416: L2-HR :0.78206: (Sim:1h0m16s) 
CPU  0 inst:  203000001 cyc:  130394008 now IPC :1.54268: AVG IPC :1.55321: L2-Pf-HR :0.91414: L2-HR :0.78200: (Sim:1h0m34s) 
CPU  0 inst:  204000002 cyc:  131042769 now IPC :1.54140: AVG IPC :1.55315: L2-Pf-HR :0.91411: L2-HR :0.78195: (Sim:1h0m53s) 
CPU  0 inst:  205000002 cyc:  131689730 now IPC :1.54569: AVG IPC :1.55311: L2-Pf-HR :0.91408: L2-HR :0.78190: (Sim:1h1m11s) 
CPU  0 inst:  206000000 cyc:  132335494 now IPC :1.54855: AVG IPC :1.55309: L2-Pf-HR :0.91409: L2-HR :0.78184: (Sim:1h1m30s) 
CPU  0 inst:  207000000 cyc:  132984736 now IPC :1.54026: AVG IPC :1.55303: L2-Pf-HR :0.91405: L2-HR :0.78178: (Sim:1h1m49s) 
CPU  0 inst:  208000004 cyc:  133724039 now IPC :1.35263: AVG IPC :1.55191: L2-Pf-HR :0.91392: L2-HR :0.78164: (Sim:1h2m8s) 
CPU  0 inst:  209000002 cyc:  134347021 now IPC :1.60518: AVG IPC :1.55216: L2-Pf-HR :0.91400: L2-HR :0.78163: (Sim:1h2m26s) 
CPU  0 inst:  210000000 cyc:  134971445 now IPC :1.60147: AVG IPC :1.55239: L2-Pf-HR :0.91407: L2-HR :0.78162: (Sim:1h2m44s) 
CPU  0 inst:  211000002 cyc:  135594188 now IPC :1.60580: AVG IPC :1.55264: L2-Pf-HR :0.91414: L2-HR :0.78162: (Sim:1h3m3s) 
CPU  0 inst:  212000001 cyc:  136220362 now IPC :1.59700: AVG IPC :1.55284: L2-Pf-HR :0.91424: L2-HR :0.78162: (Sim:1h3m21s) 
CPU  0 inst:  213000000 cyc:  136843156 now IPC :1.60567: AVG IPC :1.55308: L2-Pf-HR :0.91431: L2-HR :0.78161: (Sim:1h3m39s) 
CPU  0 inst:  214000001 cyc:  137465712 now IPC :1.60628: AVG IPC :1.55333: L2-Pf-HR :0.91439: L2-HR :0.78160: (Sim:1h3m57s) 
CPU  0 inst:  215000005 cyc:  138096160 now IPC :1.58618: AVG IPC :1.55348: L2-Pf-HR :0.91447: L2-HR :0.78164: (Sim:1h4m16s) 
CPU  0 inst:  216000001 cyc:  138792707 now IPC :1.43565: AVG IPC :1.55288: L2-Pf-HR :0.91439: L2-HR :0.78171: (Sim:1h4m35s) 
CPU  0 inst:  217000002 cyc:  139418206 now IPC :1.59873: AVG IPC :1.55309: L2-Pf-HR :0.91442: L2-HR :0.78186: (Sim:1h4m53s) 
CPU  0 inst:  218000001 cyc:  140042533 now IPC :1.60172: AVG IPC :1.55331: L2-Pf-HR :0.91444: L2-HR :0.78205: (Sim:1h5m11s) 
CPU  0 inst:  219000004 cyc:  140662420 now IPC :1.61320: AVG IPC :1.55357: L2-Pf-HR :0.91442: L2-HR :0.78224: (Sim:1h5m28s) 
CPU  0 inst:  220000000 cyc:  141292601 now IPC :1.58684: AVG IPC :1.55372: L2-Pf-HR :0.91443: L2-HR :0.78242: (Sim:1h5m46s) 
CPU  0 inst:  221000003 cyc:  142030780 now IPC :1.35469: AVG IPC :1.55268: L2-Pf-HR :0.91427: L2-HR :0.78213: (Sim:1h6m4s) 
CPU  0 inst:  222000005 cyc:  142676902 now IPC :1.54770: AVG IPC :1.55266: L2-Pf-HR :0.91423: L2-HR :0.78206: (Sim:1h6m22s) 
CPU  0 inst:  223000005 cyc:  143320452 now IPC :1.55388: AVG IPC :1.55266: L2-Pf-HR :0.91422: L2-HR :0.78201: (Sim:1h6m40s) 
CPU  0 inst:  224000001 cyc:  143967243 now IPC :1.54609: AVG IPC :1.55264: L2-Pf-HR :0.91420: L2-HR :0.78196: (Sim:1h6m58s) 
CPU  0 inst:  225000005 cyc:  144617089 now IPC :1.53883: AVG IPC :1.55257: L2-Pf-HR :0.91416: L2-HR :0.78190: (Sim:1h7m16s) 
CPU  0 inst:  226000005 cyc:  145261678 now IPC :1.55138: AVG IPC :1.55257: L2-Pf-HR :0.91415: L2-HR :0.78184: (Sim:1h7m33s) 
CPU  0 inst:  227000004 cyc:  145911121 now IPC :1.53978: AVG IPC :1.55251: L2-Pf-HR :0.91413: L2-HR :0.78179: (Sim:1h7m51s) 
CPU  0 inst:  228000004 cyc:  146656185 now IPC :1.34217: AVG IPC :1.55143: L2-Pf-HR :0.91401: L2-HR :0.78165: (Sim:1h8m10s) 
CPU  0 inst:  229000001 cyc:  147282936 now IPC :1.59553: AVG IPC :1.55162: L2-Pf-HR :0.91408: L2-HR :0.78165: (Sim:1h8m27s) 
CPU  0 inst:  230000000 cyc:  147909868 now IPC :1.59507: AVG IPC :1.55181: L2-Pf-HR :0.91415: L2-HR :0.78164: (Sim:1h8m45s) 
CPU  0 inst:  231000002 cyc:  148536909 now IPC :1.59480: AVG IPC :1.55199: L2-Pf-HR :0.91421: L2-HR :0.78163: (Sim:1h9m2s) 
CPU  0 inst:  232000000 cyc:  149166623 now IPC :1.58802: AVG IPC :1.55214: L2-Pf-HR :0.91430: L2-HR :0.78164: (Sim:1h9m20s) 
CPU  0 inst:  233000005 cyc:  149792839 now IPC :1.59690: AVG IPC :1.55233: L2-Pf-HR :0.91435: L2-HR :0.78162: (Sim:1h9m37s) 
CPU  0 inst:  234000005 cyc:  150418870 now IPC :1.59737: AVG IPC :1.55252: L2-Pf-HR :0.91442: L2-HR :0.78161: (Sim:1h9m54s) 
CPU  0 inst:  235000000 cyc:  151051812 now IPC :1.57992: AVG IPC :1.55264: L2-Pf-HR :0.91450: L2-HR :0.78165: (Sim:1h10m12s) 
CPU  0 inst:  236000001 cyc:  151745354 now IPC :1.44188: AVG IPC :1.55213: L2-Pf-HR :0.91443: L2-HR :0.78170: (Sim:1h10m30s) 
CPU  0 inst:  237000000 cyc:  152372899 now IPC :1.59351: AVG IPC :1.55230: L2-Pf-HR :0.91444: L2-HR :0.78182: (Sim:1h10m47s) 
CPU  0 inst:  238000000 cyc:  152996895 now IPC :1.60257: AVG IPC :1.55251: L2-Pf-HR :0.91445: L2-HR :0.78199: (Sim:1h11m5s) 
CPU  0 inst:  239000005 cyc:  153617314 now IPC :1.61182: AVG IPC :1.55275: L2-Pf-HR :0.91443: L2-HR :0.78215: (Sim:1h11m22s) 
CPU  0 inst:  240000000 cyc:  154242999 now IPC :1.59824: AVG IPC :1.55293: L2-Pf-HR :0.91442: L2-HR :0.78232: (Sim:1h11m40s) 
CPU  0 inst:  241000002 cyc:  154979297 now IPC :1.35815: AVG IPC :1.55200: L2-Pf-HR :0.91425: L2-HR :0.78206: (Sim:1h11m58s) 
CPU  0 inst:  242000004 cyc:  155627304 now IPC :1.54320: AVG IPC :1.55196: L2-Pf-HR :0.91422: L2-HR :0.78199: (Sim:1h12m16s) 
CPU  0 inst:  243000000 cyc:  156270384 now IPC :1.55501: AVG IPC :1.55198: L2-Pf-HR :0.91421: L2-HR :0.78194: (Sim:1h12m33s) 
CPU  0 inst:  244000001 cyc:  156918486 now IPC :1.54297: AVG IPC :1.55194: L2-Pf-HR :0.91419: L2-HR :0.78190: (Sim:1h12m51s) 
CPU  0 inst:  245000001 cyc:  157567285 now IPC :1.54131: AVG IPC :1.55189: L2-Pf-HR :0.91416: L2-HR :0.78186: (Sim:1h13m9s) 
CPU  0 inst:  246000003 cyc:  158212926 now IPC :1.54885: AVG IPC :1.55188: L2-Pf-HR :0.91416: L2-HR :0.78180: (Sim:1h13m27s) 
CPU  0 inst:  247000004 cyc:  158862020 now IPC :1.54061: AVG IPC :1.55184: L2-Pf-HR :0.91414: L2-HR :0.78176: (Sim:1h13m44s) 
CPU  0 inst:  248000003 cyc:  159607731 now IPC :1.34100: AVG IPC :1.55084: L2-Pf-HR :0.91403: L2-HR :0.78164: (Sim:1h14m3s) 
CPU  0 inst:  249000003 cyc:  160235226 now IPC :1.59364: AVG IPC :1.55101: L2-Pf-HR :0.91409: L2-HR :0.78163: (Sim:1h14m21s) 
CPU  0 inst:  250000000 cyc:  160861586 now IPC :1.59652: AVG IPC :1.55119: L2-Pf-HR :0.91415: L2-HR :0.78162: (Sim:1h14m38s) 
CPU  0 inst:  251000004 cyc:  161488615 now IPC :1.59483: AVG IPC :1.55136: L2-Pf-HR :0.91420: L2-HR :0.78161: (Sim:1h14m55s) 
CPU  0 inst:  252000001 cyc:  162118640 now IPC :1.58723: AVG IPC :1.55150: L2-Pf-HR :0.91428: L2-HR :0.78162: (Sim:1h15m13s) 
CPU  0 inst:  253000003 cyc:  162745632 now IPC :1.59492: AVG IPC :1.55167: L2-Pf-HR :0.91433: L2-HR :0.78161: (Sim:1h15m30s) 
CPU  0 inst:  254000000 cyc:  163371937 now IPC :1.59666: AVG IPC :1.55184: L2-Pf-HR :0.91439: L2-HR :0.78160: (Sim:1h15m48s) 
CPU  0 inst:  255000000 cyc:  164005073 now IPC :1.57944: AVG IPC :1.55195: L2-Pf-HR :0.91445: L2-HR :0.78162: (Sim:1h16m5s) 
CPU  0 inst:  256000002 cyc:  164694487 now IPC :1.45051: AVG IPC :1.55152: L2-Pf-HR :0.91438: L2-HR :0.78168: (Sim:1h16m23s) 
CPU  0 inst:  257000002 cyc:  165315533 now IPC :1.61019: AVG IPC :1.55175: L2-Pf-HR :0.91440: L2-HR :0.78182: (Sim:1h16m41s) 
CPU  0 inst:  258000005 cyc:  165936214 now IPC :1.61114: AVG IPC :1.55197: L2-Pf-HR :0.91442: L2-HR :0.78198: (Sim:1h16m58s) 
CPU  0 inst:  259000005 cyc:  166546835 now IPC :1.63768: AVG IPC :1.55229: L2-Pf-HR :0.91438: L2-HR :0.78216: (Sim:1h17m16s) 
CPU  0 inst:  260000002 cyc:  167183210 now IPC :1.57140: AVG IPC :1.55236: L2-Pf-HR :0.91437: L2-HR :0.78229: (Sim:1h17m33s) 
CPU  0 inst:  261000002 cyc:  167916786 now IPC :1.36319: AVG IPC :1.55153: L2-Pf-HR :0.91422: L2-HR :0.78208: (Sim:1h17m52s) 
CPU  0 inst:  262000005 cyc:  168563762 now IPC :1.54566: AVG IPC :1.55150: L2-Pf-HR :0.91418: L2-HR :0.78202: (Sim:1h18m9s) 
CPU  0 inst:  263000000 cyc:  169209177 now IPC :1.54938: AVG IPC :1.55150: L2-Pf-HR :0.91417: L2-HR :0.78198: (Sim:1h18m27s) 
CPU  0 inst:  264000004 cyc:  169859721 now IPC :1.53718: AVG IPC :1.55144: L2-Pf-HR :0.91416: L2-HR :0.78195: (Sim:1h18m45s) 
CPU  0 inst:  265000002 cyc:  170510344 now IPC :1.53699: AVG IPC :1.55139: L2-Pf-HR :0.91413: L2-HR :0.78191: (Sim:1h19m3s) 
CPU  0 inst:  266000004 cyc:  171154635 now IPC :1.55210: AVG IPC :1.55139: L2-Pf-HR :0.91412: L2-HR :0.78185: (Sim:1h19m21s) 
CPU  0 inst:  267000000 cyc:  171798246 now IPC :1.55373: AVG IPC :1.55140: L2-Pf-HR :0.91411: L2-HR :0.78181: (Sim:1h19m38s) 
CPU  0 inst:  268000000 cyc:  172546749 now IPC :1.33600: AVG IPC :1.55046: L2-Pf-HR :0.91402: L2-HR :0.78170: (Sim:1h19m57s) 
CPU  0 inst:  269000003 cyc:  173176988 now IPC :1.58670: AVG IPC :1.55059: L2-Pf-HR :0.91408: L2-HR :0.78170: (Sim:1h20m15s) 
CPU  0 inst:  270000001 cyc:  173805934 now IPC :1.58996: AVG IPC :1.55073: L2-Pf-HR :0.91414: L2-HR :0.78169: (Sim:1h20m32s) 
CPU  0 inst:  271000003 cyc:  174435877 now IPC :1.58745: AVG IPC :1.55087: L2-Pf-HR :0.91419: L2-HR :0.78169: (Sim:1h20m50s) 
CPU  0 inst:  272000001 cyc:  175068477 now IPC :1.58077: AVG IPC :1.55098: L2-Pf-HR :0.91427: L2-HR :0.78170: (Sim:1h21m7s) 
CPU  0 inst:  273000004 cyc:  175697288 now IPC :1.59031: AVG IPC :1.55112: L2-Pf-HR :0.91432: L2-HR :0.78168: (Sim:1h21m25s) 
CPU  0 inst:  274000000 cyc:  176326502 now IPC :1.58928: AVG IPC :1.55125: L2-Pf-HR :0.91438: L2-HR :0.78167: (Sim:1h21m42s) 
CPU  0 inst:  275000002 cyc:  176965559 now IPC :1.56481: AVG IPC :1.55130: L2-Pf-HR :0.91445: L2-HR :0.78170: (Sim:1h21m54s) 
CPU  0 inst:  276000001 cyc:  177658358 now IPC :1.44342: AVG IPC :1.55088: L2-Pf-HR :0.91438: L2-HR :0.78176: (Sim:1h22m2s) 
CPU  0 inst:  277000000 cyc:  178284799 now IPC :1.59632: AVG IPC :1.55104: L2-Pf-HR :0.91439: L2-HR :0.78188: (Sim:1h22m10s) 
CPU  0 inst:  278000005 cyc:  178910089 now IPC :1.59927: AVG IPC :1.55121: L2-Pf-HR :0.91441: L2-HR :0.78203: (Sim:1h22m18s) 
CPU  0 inst:  279000002 cyc:  179534779 now IPC :1.60079: AVG IPC :1.55138: L2-Pf-HR :0.91443: L2-HR :0.78217: (Sim:1h22m26s) 
CPU  0 inst:  280000005 cyc:  180183605 now IPC :1.54125: AVG IPC :1.55135: L2-Pf-HR :0.91442: L2-HR :0.78228: (Sim:1h22m34s) 
CPU  0 inst:  281000001 cyc:  180903267 now IPC :1.38954: AVG IPC :1.55070: L2-Pf-HR :0.91429: L2-HR :0.78209: (Sim:1h22m42s) 
CPU  0 inst:  282000002 cyc:  181539970 now IPC :1.57059: AVG IPC :1.55077: L2-Pf-HR :0.91425: L2-HR :0.78204: (Sim:1h22m50s) 
CPU  0 inst:  283000004 cyc:  182177748 now IPC :1.56795: AVG IPC :1.55083: L2-Pf-HR :0.91422: L2-HR :0.78200: (Sim:1h22m58s) 
CPU  0 inst:  284000001 cyc:  182818066 now IPC :1.56172: AVG IPC :1.55087: L2-Pf-HR :0.91421: L2-HR :0.78196: (Sim:1h23m6s) 
CPU  0 inst:  285000001 cyc:  183456896 now IPC :1.56536: AVG IPC :1.55092: L2-Pf-HR :0.91419: L2-HR :0.78193: (Sim:1h23m14s) 
CPU  0 inst:  286000002 cyc:  184095617 now IPC :1.56563: AVG IPC :1.55097: L2-Pf-HR :0.91417: L2-HR :0.78187: (Sim:1h23m22s) 
CPU  0 inst:  287000003 cyc:  184737672 now IPC :1.55750: AVG IPC :1.55099: L2-Pf-HR :0.91417: L2-HR :0.78183: (Sim:1h23m30s) 
CPU  0 inst:  288000002 cyc:  185478356 now IPC :1.35010: AVG IPC :1.55019: L2-Pf-HR :0.91408: L2-HR :0.78173: (Sim:1h23m38s) 
CPU  0 inst:  289000003 cyc:  186096136 now IPC :1.61870: AVG IPC :1.55042: L2-Pf-HR :0.91414: L2-HR :0.78173: (Sim:1h23m46s) 
CPU  0 inst:  290000004 cyc:  186713539 now IPC :1.61969: AVG IPC :1.55065: L2-Pf-HR :0.91419: L2-HR :0.78172: (Sim:1h23m54s) 
CPU  0 inst:  291000004 cyc:  187332089 now IPC :1.61668: AVG IPC :1.55087: L2-Pf-HR :0.91424: L2-HR :0.78172: (Sim:1h24m2s) 
CPU  0 inst:  292000001 cyc:  187953605 now IPC :1.60896: AVG IPC :1.55106: L2-Pf-HR :0.91431: L2-HR :0.78173: (Sim:1h24m10s) 
CPU  0 inst:  293000005 cyc:  188571416 now IPC :1.61862: AVG IPC :1.55128: L2-Pf-HR :0.91436: L2-HR :0.78172: (Sim:1h24m18s) 
CPU  0 inst:  294000000 cyc:  189188217 now IPC :1.62126: AVG IPC :1.55151: L2-Pf-HR :0.91441: L2-HR :0.78171: (Sim:1h24m26s) 
CPU  0 inst:  295000000 cyc:  189817499 now IPC :1.58911: AVG IPC :1.55164: L2-Pf-HR :0.91447: L2-HR :0.78174: (Sim:1h24m34s) 
CPU  0 inst:  296000004 cyc:  190510365 now IPC :1.44329: AVG IPC :1.55124: L2-Pf-HR :0.91442: L2-HR :0.78179: (Sim:1h24m42s) 
CPU  0 inst:  297000000 cyc:  191137573 now IPC :1.59436: AVG IPC :1.55138: L2-Pf-HR :0.91442: L2-HR :0.78190: (Sim:1h24m50s) 
CPU  0 inst:  298000005 cyc:  191761850 now IPC :1.60186: AVG IPC :1.55155: L2-Pf-HR :0.91445: L2-HR :0.78205: (Sim:1h24m58s) 
CPU  0 inst:  299000001 cyc:  192385235 now IPC :1.60414: AVG IPC :1.55172: L2-Pf-HR :0.91445: L2-HR :0.78218: (Sim:1h25m6s) 
CPU  0 inst:  300000003 cyc:  193040354 now IPC :1.52644: AVG IPC :1.55163: L2-Pf-HR :0.91442: L2-HR :0.78226: (Sim:1h25m14s) 
CPU  0 inst:  301000005 cyc:  193761593 now IPC :1.38651: AVG IPC :1.55101: L2-Pf-HR :0.91432: L2-HR :0.78211: (Sim:1h25m22s) 
CPU  0 inst:  302000001 cyc:  194407827 now IPC :1.54742: AVG IPC :1.55100: L2-Pf-HR :0.91430: L2-HR :0.78207: (Sim:1h25m30s) 
CPU  0 inst:  303000003 cyc:  195052352 now IPC :1.55153: AVG IPC :1.55100: L2-Pf-HR :0.91429: L2-HR :0.78203: (Sim:1h25m39s) 
CPU  0 inst:  304000004 cyc:  195700591 now IPC :1.54264: AVG IPC :1.55098: L2-Pf-HR :0.91428: L2-HR :0.78199: (Sim:1h25m47s) 
CPU  0 inst:  305000004 cyc:  196348001 now IPC :1.54462: AVG IPC :1.55096: L2-Pf-HR :0.91426: L2-HR :0.78196: (Sim:1h25m55s) 
CPU  0 inst:  306000002 cyc:  196995225 now IPC :1.54506: AVG IPC :1.55094: L2-Pf-HR :0.91425: L2-HR :0.78190: (Sim:1h26m3s) 
CPU  0 inst:  307000001 cyc:  197646331 now IPC :1.53585: AVG IPC :1.55089: L2-Pf-HR :0.91425: L2-HR :0.78187: (Sim:1h26m11s) 
CPU  0 inst:  308000000 cyc:  198387067 now IPC :1.35001: AVG IPC :1.55013: L2-Pf-HR :0.91417: L2-HR :0.78178: (Sim:1h26m20s) 
CPU  0 inst:  309000002 cyc:  199013214 now IPC :1.59707: AVG IPC :1.55028: L2-Pf-HR :0.91422: L2-HR :0.78178: (Sim:1h26m28s) 
CPU  0 inst:  310000001 cyc:  199637589 now IPC :1.60160: AVG IPC :1.55044: L2-Pf-HR :0.91426: L2-HR :0.78176: (Sim:1h26m36s) 
CPU  0 inst:  311000002 cyc:  200263783 now IPC :1.59695: AVG IPC :1.55059: L2-Pf-HR :0.91432: L2-HR :0.78177: (Sim:1h26m44s) 
CPU  0 inst:  312000004 cyc:  200892195 now IPC :1.59132: AVG IPC :1.55072: L2-Pf-HR :0.91439: L2-HR :0.78178: (Sim:1h26m52s) 
CPU  0 inst:  313000002 cyc:  201517629 now IPC :1.59889: AVG IPC :1.55087: L2-Pf-HR :0.91443: L2-HR :0.78178: (Sim:1h27m0s) 
CPU  0 inst:  314000001 cyc:  202142255 now IPC :1.60096: AVG IPC :1.55102: L2-Pf-HR :0.91448: L2-HR :0.78176: (Sim:1h27m8s) 
CPU  0 inst:  315000001 cyc:  202779119 now IPC :1.57019: AVG IPC :1.55108: L2-Pf-HR :0.91454: L2-HR :0.78179: (Sim:1h27m16s) 
CPU  0 inst:  316000000 cyc:  203451929 now IPC :1.48630: AVG IPC :1.55087: L2-Pf-HR :0.91449: L2-HR :0.78184: (Sim:1h27m24s) 
CPU  0 inst:  317000001 cyc:  204067232 now IPC :1.62522: AVG IPC :1.55109: L2-Pf-HR :0.91450: L2-HR :0.78195: (Sim:1h27m32s) 
CPU  0 inst:  318000000 cyc:  204680240 now IPC :1.63130: AVG IPC :1.55133: L2-Pf-HR :0.91451: L2-HR :0.78208: (Sim:1h27m40s) 
CPU  0 inst:  319000005 cyc:  205289093 now IPC :1.64244: AVG IPC :1.55160: L2-Pf-HR :0.91448: L2-HR :0.78220: (Sim:1h27m48s) 
CPU  0 inst:  320000000 cyc:  205937170 now IPC :1.54302: AVG IPC :1.55158: L2-Pf-HR :0.91443: L2-HR :0.78229: (Sim:1h27m56s) 
CPU  0 inst:  321000003 cyc:  206647243 now IPC :1.40831: AVG IPC :1.55108: L2-Pf-HR :0.91434: L2-HR :0.78215: (Sim:1h28m4s) 
CPU  0 inst:  322000000 cyc:  207296245 now IPC :1.54082: AVG IPC :1.55105: L2-Pf-HR :0.91432: L2-HR :0.78211: (Sim:1h28m13s) 
CPU  0 inst:  323000003 cyc:  207941267 now IPC :1.55034: AVG IPC :1.55105: L2-Pf-HR :0.91430: L2-HR :0.78207: (Sim:1h28m21s) 
CPU  0 inst:  324000003 cyc:  208592769 now IPC :1.53491: AVG IPC :1.55100: L2-Pf-HR :0.91429: L2-HR :0.78204: (Sim:1h28m29s) 
CPU  0 inst:  325000004 cyc:  209244581 now IPC :1.53419: AVG IPC :1.55095: L2-Pf-HR :0.91426: L2-HR :0.78200: (Sim:1h28m37s) 
CPU  0 inst:  326000004 cyc:  209893791 now IPC :1.54033: AVG IPC :1.55091: L2-Pf-HR :0.91424: L2-HR :0.78195: (Sim:1h28m45s) 
CPU  0 inst:  327000005 cyc:  210540187 now IPC :1.54704: AVG IPC :1.55090: L2-Pf-HR :0.91425: L2-HR :0.78193: (Sim:1h28m53s) 
CPU  0 inst:  328000003 cyc:  211281821 now IPC :1.34837: AVG IPC :1.55019: L2-Pf-HR :0.91418: L2-HR :0.78184: (Sim:1h29m2s) 
CPU  0 inst:  329000002 cyc:  211907437 now IPC :1.59842: AVG IPC :1.55033: L2-Pf-HR :0.91422: L2-HR :0.78184: (Sim:1h29m10s) 
CPU  0 inst:  330000003 cyc:  212532933 now IPC :1.59873: AVG IPC :1.55047: L2-Pf-HR :0.91426: L2-HR :0.78183: (Sim:1h29m18s) 
CPU  0 inst:  331000003 cyc:  213158854 now IPC :1.59765: AVG IPC :1.55061: L2-Pf-HR :0.91431: L2-HR :0.78183: (Sim:1h29m26s) 
CPU  0 inst:  332000004 cyc:  213787095 now IPC :1.59175: AVG IPC :1.55073: L2-Pf-HR :0.91437: L2-HR :0.78183: (Sim:1h29m34s) 
CPU  0 inst:  333000004 cyc:  214412299 now IPC :1.59948: AVG IPC :1.55088: L2-Pf-HR :0.91442: L2-HR :0.78183: (Sim:1h29m42s) 
CPU  0 inst:  334000004 cyc:  215038299 now IPC :1.59744: AVG IPC :1.55101: L2-Pf-HR :0.91446: L2-HR :0.78182: (Sim:1h29m50s) 
CPU  0 inst:  335000005 cyc:  215683130 now IPC :1.55080: AVG IPC :1.55101: L2-Pf-HR :0.91451: L2-HR :0.78182: (Sim:1h29m58s) 
CPU  0 inst:  336000003 cyc:  216367453 now IPC :1.46130: AVG IPC :1.55073: L2-Pf-HR :0.91446: L2-HR :0.78188: (Sim:1h30m6s) 
CPU  0 inst:  337000002 cyc:  216995787 now IPC :1.59151: AVG IPC :1.55085: L2-Pf-HR :0.91448: L2-HR :0.78199: (Sim:1h30m14s) 
CPU  0 inst:  338000002 cyc:  217621941 now IPC :1.59705: AVG IPC :1.55098: L2-Pf-HR :0.91449: L2-HR :0.78212: (Sim:1h30m22s) 
CPU  0 inst:  339000005 cyc:  218242628 now IPC :1.61112: AVG IPC :1.55115: L2-Pf-HR :0.91446: L2-HR :0.78223: (Sim:1h30m30s) 
CPU  0 inst:  340000003 cyc:  218905052 now IPC :1.50960: AVG IPC :1.55102: L2-Pf-HR :0.91439: L2-HR :0.78229: (Sim:1h30m38s) 
CPU  0 inst:  341000003 cyc:  219594416 now IPC :1.45061: AVG IPC :1.55071: L2-Pf-HR :0.91434: L2-HR :0.78218: (Sim:1h30m46s) 
CPU  0 inst:  342000003 cyc:  220227943 now IPC :1.57846: AVG IPC :1.55079: L2-Pf-HR :0.91430: L2-HR :0.78215: (Sim:1h30m54s) 
CPU  0 inst:  343000005 cyc:  220860639 now IPC :1.58054: AVG IPC :1.55087: L2-Pf-HR :0.91428: L2-HR :0.78211: (Sim:1h31m2s) 
CPU  0 inst:  344000000 cyc:  221501144 now IPC :1.56126: AVG IPC :1.55090: L2-Pf-HR :0.91426: L2-HR :0.78208: (Sim:1h31m10s) 
CPU  0 inst:  345000000 cyc:  222143034 now IPC :1.55790: AVG IPC :1.55092: L2-Pf-HR :0.91424: L2-HR :0.78204: (Sim:1h31m18s) 
CPU  0 inst:  346000003 cyc:  222782908 now IPC :1.56281: AVG IPC :1.55096: L2-Pf-HR :0.91422: L2-HR :0.78199: (Sim:1h31m26s) 
CPU  0 inst:  347000000 cyc:  223416391 now IPC :1.57857: AVG IPC :1.55104: L2-Pf-HR :0.91423: L2-HR :0.78196: (Sim:1h31m34s) 
CPU  0 inst:  348000004 cyc:  224156812 now IPC :1.35059: AVG IPC :1.55037: L2-Pf-HR :0.91415: L2-HR :0.78188: (Sim:1h31m43s) 
CPU  0 inst:  349000001 cyc:  224783195 now IPC :1.59646: AVG IPC :1.55050: L2-Pf-HR :0.91419: L2-HR :0.78188: (Sim:1h31m59s) 
CPU  0 inst:  350000005 cyc:  225409098 now IPC :1.59770: AVG IPC :1.55063: L2-Pf-HR :0.91422: L2-HR :0.78186: (Sim:1h32m16s) 
CPU  0 inst:  351000001 cyc:  226035454 now IPC :1.59653: AVG IPC :1.55076: L2-Pf-HR :0.91427: L2-HR :0.78186: (Sim:1h32m33s) 
CPU  0 inst:  352000000 cyc:  226663617 now IPC :1.59194: AVG IPC :1.55087: L2-Pf-HR :0.91433: L2-HR :0.78186: (Sim:1h32m49s) 
CPU  0 inst:  353000001 cyc:  227287823 now IPC :1.60204: AVG IPC :1.55102: L2-Pf-HR :0.91435: L2-HR :0.78185: (Sim:1h33m6s) 
CPU  0 inst:  354000003 cyc:  227912390 now IPC :1.60111: AVG IPC :1.55115: L2-Pf-HR :0.91440: L2-HR :0.78185: (Sim:1h33m23s) 
CPU  0 inst:  355000000 cyc:  228564530 now IPC :1.53341: AVG IPC :1.55110: L2-Pf-HR :0.91444: L2-HR :0.78185: (Sim:1h33m40s) 
CPU  0 inst:  356000004 cyc:  229241101 now IPC :1.47805: AVG IPC :1.55089: L2-Pf-HR :0.91441: L2-HR :0.78191: (Sim:1h33m56s) 
CPU  0 inst:  357000004 cyc:  229869675 now IPC :1.59090: AVG IPC :1.55100: L2-Pf-HR :0.91441: L2-HR :0.78201: (Sim:1h34m13s) 
CPU  0 inst:  358000005 cyc:  230495925 now IPC :1.59681: AVG IPC :1.55112: L2-Pf-HR :0.91442: L2-HR :0.78213: (Sim:1h34m30s) 
CPU  0 inst:  359000004 cyc:  231119918 now IPC :1.60258: AVG IPC :1.55126: L2-Pf-HR :0.91440: L2-HR :0.78222: (Sim:1h34m46s) 
CPU  0 inst:  360000000 cyc:  231793481 now IPC :1.48464: AVG IPC :1.55107: L2-Pf-HR :0.91429: L2-HR :0.78224: (Sim:1h35m3s) 
CPU  0 inst:  361000005 cyc:  232482250 now IPC :1.45187: AVG IPC :1.55077: L2-Pf-HR :0.91427: L2-HR :0.78216: (Sim:1h35m20s) 
CPU  0 inst:  362000000 cyc:  233121869 now IPC :1.56342: AVG IPC :1.55081: L2-Pf-HR :0.91425: L2-HR :0.78213: (Sim:1h35m37s) 
CPU  0 inst:  363000000 cyc:  233762137 now IPC :1.56185: AVG IPC :1.55084: L2-Pf-HR :0.91423: L2-HR :0.78209: (Sim:1h35m54s) 
CPU  0 inst:  364000002 cyc:  234401601 now IPC :1.56381: AVG IPC :1.55087: L2-Pf-HR :0.91423: L2-HR :0.78207: (Sim:1h36m11s) 
CPU  0 inst:  365000003 cyc:  235044370 now IPC :1.55577: AVG IPC :1.55089: L2-Pf-HR :0.91422: L2-HR :0.78205: (Sim:1h36m28s) 
CPU  0 inst:  366000003 cyc:  235686549 now IPC :1.55720: AVG IPC :1.55090: L2-Pf-HR :0.91419: L2-HR :0.78199: (Sim:1h36m44s) 
CPU  0 inst:  367000005 cyc:  236325243 now IPC :1.56570: AVG IPC :1.55094: L2-Pf-HR :0.91420: L2-HR :0.78197: (Sim:1h37m2s) 
CPU  0 inst:  368000002 cyc:  237061795 now IPC :1.35767: AVG IPC :1.55034: L2-Pf-HR :0.91413: L2-HR :0.78189: (Sim:1h37m20s) 
CPU  0 inst:  369000001 cyc:  237675114 now IPC :1.63047: AVG IPC :1.55055: L2-Pf-HR :0.91417: L2-HR :0.78189: (Sim:1h37m36s) 
CPU  0 inst:  370000005 cyc:  238288766 now IPC :1.62959: AVG IPC :1.55075: L2-Pf-HR :0.91420: L2-HR :0.78188: (Sim:1h37m52s) 
CPU  0 inst:  371000002 cyc:  238902790 now IPC :1.62860: AVG IPC :1.55095: L2-Pf-HR :0.91425: L2-HR :0.78187: (Sim:1h38m1s) 
CPU  0 inst:  372000004 cyc:  239518083 now IPC :1.62525: AVG IPC :1.55114: L2-Pf-HR :0.91431: L2-HR :0.78188: (Sim:1h38m9s) 
CPU  0 inst:  373000005 cyc:  240131693 now IPC :1.62970: AVG IPC :1.55135: L2-Pf-HR :0.91434: L2-HR :0.78187: (Sim:1h38m16s) 
CPU  0 inst:  374000000 cyc:  240745872 now IPC :1.62818: AVG IPC :1.55154: L2-Pf-HR :0.91438: L2-HR :0.78186: (Sim:1h38m24s) 
CPU  0 inst:  375000002 cyc:  241398592 now IPC :1.53205: AVG IPC :1.55149: L2-Pf-HR :0.91440: L2-HR :0.78184: (Sim:1h38m32s) 
CPU  0 inst:  376000002 cyc:  242065680 now IPC :1.49905: AVG IPC :1.55134: L2-Pf-HR :0.91439: L2-HR :0.78192: (Sim:1h38m40s) 
CPU  0 inst:  377000005 cyc:  242694354 now IPC :1.59065: AVG IPC :1.55145: L2-Pf-HR :0.91439: L2-HR :0.78201: (Sim:1h38m48s) 
CPU  0 inst:  378000005 cyc:  243322497 now IPC :1.59199: AVG IPC :1.55155: L2-Pf-HR :0.91440: L2-HR :0.78212: (Sim:1h38m56s) 
CPU  0 inst:  379000000 cyc:  243946685 now IPC :1.60207: AVG IPC :1.55168: L2-Pf-HR :0.91437: L2-HR :0.78221: (Sim:1h39m5s) 
CPU  0 inst:  380000005 cyc:  244623269 now IPC :1.47802: AVG IPC :1.55148: L2-Pf-HR :0.91427: L2-HR :0.78218: (Sim:1h39m23s) 
CPU  0 inst:  381000000 cyc:  245305919 now IPC :1.46487: AVG IPC :1.55124: L2-Pf-HR :0.91429: L2-HR :0.78216: (Sim:1h39m41s) 
CPU  0 inst:  382000004 cyc:  245950557 now IPC :1.55126: AVG IPC :1.55124: L2-Pf-HR :0.91427: L2-HR :0.78213: (Sim:1h39m59s) 
CPU  0 inst:  383000000 cyc:  246597802 now IPC :1.54500: AVG IPC :1.55122: L2-Pf-HR :0.91425: L2-HR :0.78208: (Sim:1h40m17s) 
CPU  0 inst:  384000005 cyc:  247243883 now IPC :1.54780: AVG IPC :1.55121: L2-Pf-HR :0.91425: L2-HR :0.78206: (Sim:1h40m35s) 
CPU  0 inst:  385000005 cyc:  247892707 now IPC :1.54125: AVG IPC :1.55118: L2-Pf-HR :0.91424: L2-HR :0.78203: (Sim:1h40m53s) 
CPU  0 inst:  386000000 cyc:  248542441 now IPC :1.53908: AVG IPC :1.55115: L2-Pf-HR :0.91422: L2-HR :0.78199: (Sim:1h41m11s) 
CPU  0 inst:  387000003 cyc:  249188381 now IPC :1.54814: AVG IPC :1.55114: L2-Pf-HR :0.91421: L2-HR :0.78196: (Sim:1h41m29s) 
CPU  0 inst:  388000001 cyc:  249932400 now IPC :1.34405: AVG IPC :1.55053: L2-Pf-HR :0.91416: L2-HR :0.78189: (Sim:1h41m48s) 
CPU  0 inst:  389000002 cyc:  250556191 now IPC :1.60310: AVG IPC :1.55066: L2-Pf-HR :0.91419: L2-HR :0.78189: (Sim:1h42m5s) 
CPU  0 inst:  390000004 cyc:  251179356 now IPC :1.60471: AVG IPC :1.55079: L2-Pf-HR :0.91422: L2-HR :0.78188: (Sim:1h42m23s) 
CPU  0 inst:  391000003 cyc:  251802200 now IPC :1.60554: AVG IPC :1.55093: L2-Pf-HR :0.91426: L2-HR :0.78187: (Sim:1h42m41s) 
CPU  0 inst:  392000003 cyc:  252427951 now IPC :1.59808: AVG IPC :1.55104: L2-Pf-HR :0.91432: L2-HR :0.78189: (Sim:1h42m58s) 
CPU  0 inst:  393000000 cyc:  253050692 now IPC :1.60580: AVG IPC :1.55118: L2-Pf-HR :0.91435: L2-HR :0.78188: (Sim:1h43m16s) 
CPU  0 inst:  394000002 cyc:  253673044 now IPC :1.60681: AVG IPC :1.55132: L2-Pf-HR :0.91439: L2-HR :0.78187: (Sim:1h43m33s) 
CPU  0 inst:  395000000 cyc:  254341357 now IPC :1.49630: AVG IPC :1.55117: L2-Pf-HR :0.91439: L2-HR :0.78184: (Sim:1h43m52s) 
CPU  0 inst:  396000004 cyc:  254990464 now IPC :1.54058: AVG IPC :1.55114: L2-Pf-HR :0.91438: L2-HR :0.78192: (Sim:1h44m9s) 
CPU  0 inst:  397000005 cyc:  255611809 now IPC :1.60941: AVG IPC :1.55129: L2-Pf-HR :0.91440: L2-HR :0.78201: (Sim:1h44m27s) 
CPU  0 inst:  398000004 cyc:  256231691 now IPC :1.61321: AVG IPC :1.55144: L2-Pf-HR :0.91440: L2-HR :0.78212: (Sim:1h44m44s) 
CPU  0 inst:  399000003 cyc:  256845744 now IPC :1.62852: AVG IPC :1.55162: L2-Pf-HR :0.91438: L2-HR :0.78222: (Sim:1h45m2s) 
CPU  0 inst:  400000004 cyc:  257540975 now IPC :1.43837: AVG IPC :1.55132: L2-Pf-HR :0.91427: L2-HR :0.78217: (Sim:1h45m20s) 
CPU  0 inst:  401000003 cyc:  258221086 now IPC :1.47035: AVG IPC :1.55110: L2-Pf-HR :0.91430: L2-HR :0.78217: (Sim:1h45m38s) 
CPU  0 inst:  402000002 cyc:  258861467 now IPC :1.56157: AVG IPC :1.55113: L2-Pf-HR :0.91426: L2-HR :0.78214: (Sim:1h45m56s) 
CPU  0 inst:  403000005 cyc:  259503981 now IPC :1.55639: AVG IPC :1.55114: L2-Pf-HR :0.91425: L2-HR :0.78209: (Sim:1h46m14s) 
CPU  0 inst:  404000001 cyc:  260146713 now IPC :1.55585: AVG IPC :1.55115: L2-Pf-HR :0.91425: L2-HR :0.78207: (Sim:1h46m32s) 
CPU  0 inst:  405000002 cyc:  260793696 now IPC :1.54564: AVG IPC :1.55114: L2-Pf-HR :0.91423: L2-HR :0.78204: (Sim:1h46m50s) 
CPU  0 inst:  406000002 cyc:  261441456 now IPC :1.54378: AVG IPC :1.55112: L2-Pf-HR :0.91421: L2-HR :0.78200: (Sim:1h47m8s) 
CPU  0 inst:  407000004 cyc:  262085751 now IPC :1.55209: AVG IPC :1.55112: L2-Pf-HR :0.91421: L2-HR :0.78197: (Sim:1h47m26s) 
CPU  0 inst:  408000001 cyc:  262817642 now IPC :1.36632: AVG IPC :1.55061: L2-Pf-HR :0.91416: L2-HR :0.78191: (Sim:1h47m45s) 
CPU  0 inst:  409000001 cyc:  263444997 now IPC :1.59399: AVG IPC :1.55071: L2-Pf-HR :0.91419: L2-HR :0.78191: (Sim:1h48m3s) 
CPU  0 inst:  410000003 cyc:  264073415 now IPC :1.59130: AVG IPC :1.55081: L2-Pf-HR :0.91422: L2-HR :0.78190: (Sim:1h48m20s) 
CPU  0 inst:  411000000 cyc:  264701935 now IPC :1.59103: AVG IPC :1.55090: L2-Pf-HR :0.91426: L2-HR :0.78189: (Sim:1h48m38s) 
CPU  0 inst:  412000002 cyc:  265331732 now IPC :1.58782: AVG IPC :1.55099: L2-Pf-HR :0.91431: L2-HR :0.78190: (Sim:1h48m56s) 
CPU  0 inst:  413000000 cyc:  265958120 now IPC :1.59645: AVG IPC :1.55110: L2-Pf-HR :0.91434: L2-HR :0.78189: (Sim:1h49m13s) 
CPU  0 inst:  414000003 cyc:  266585219 now IPC :1.59465: AVG IPC :1.55120: L2-Pf-HR :0.91437: L2-HR :0.78189: (Sim:1h49m31s) 
CPU  0 inst:  415000000 cyc:  267264871 now IPC :1.47134: AVG IPC :1.55100: L2-Pf-HR :0.91436: L2-HR :0.78184: (Sim:1h49m49s) 
CPU  0 inst:  416000005 cyc:  267914821 now IPC :1.53859: AVG IPC :1.55097: L2-Pf-HR :0.91437: L2-HR :0.78193: (Sim:1h50m7s) 
CPU  0 inst:  417000004 cyc:  268541554 now IPC :1.59557: AVG IPC :1.55107: L2-Pf-HR :0.91439: L2-HR :0.78203: (Sim:1h50m24s) 
CPU  0 inst:  418000000 cyc:  269167371 now IPC :1.59790: AVG IPC :1.55118: L2-Pf-HR :0.91439: L2-HR :0.78213: (Sim:1h50m42s) 
CPU  0 inst:  419000004 cyc:  269790467 now IPC :1.60490: AVG IPC :1.55130: L2-Pf-HR :0.91438: L2-HR :0.78221: (Sim:1h51m0s) 
CPU  0 inst:  420000003 cyc:  270482649 now IPC :1.44471: AVG IPC :1.55103: L2-Pf-HR :0.91428: L2-HR :0.78216: (Sim:1h51m18s) 
CPU  0 inst:  421000005 cyc:  271159413 now IPC :1.47762: AVG IPC :1.55085: L2-Pf-HR :0.91429: L2-HR :0.78216: (Sim:1h51m36s) 
CPU  0 inst:  422000004 cyc:  271800410 now IPC :1.56007: AVG IPC :1.55087: L2-Pf-HR :0.91426: L2-HR :0.78214: (Sim:1h51m54s) 
CPU  0 inst:  423000002 cyc:  272445609 now IPC :1.54991: AVG IPC :1.55087: L2-Pf-HR :0.91424: L2-HR :0.78210: (Sim:1h52m12s) 
CPU  0 inst:  424000001 cyc:  273093244 now IPC :1.54408: AVG IPC :1.55085: L2-Pf-HR :0.91424: L2-HR :0.78209: (Sim:1h52m30s) 
CPU  0 inst:  425000005 cyc:  273744874 now IPC :1.53462: AVG IPC :1.55081: L2-Pf-HR :0.91423: L2-HR :0.78206: (Sim:1h52m48s) 
CPU  0 inst:  426000005 cyc:  274394804 now IPC :1.53863: AVG IPC :1.55078: L2-Pf-HR :0.91421: L2-HR :0.78202: (Sim:1h53m6s) 
CPU  0 inst:  427000002 cyc:  275042716 now IPC :1.54341: AVG IPC :1.55077: L2-Pf-HR :0.91421: L2-HR :0.78199: (Sim:1h53m24s) 
CPU  0 inst:  428000001 cyc:  275777296 now IPC :1.36132: AVG IPC :1.55026: L2-Pf-HR :0.91416: L2-HR :0.78193: (Sim:1h53m43s) 
CPU  0 inst:  429000003 cyc:  276401521 now IPC :1.60199: AVG IPC :1.55038: L2-Pf-HR :0.91420: L2-HR :0.78193: (Sim:1h54m0s) 
CPU  0 inst:  430000004 cyc:  277026125 now IPC :1.60102: AVG IPC :1.55049: L2-Pf-HR :0.91422: L2-HR :0.78192: (Sim:1h54m18s) 
CPU  0 inst:  431000000 cyc:  277651187 now IPC :1.59983: AVG IPC :1.55060: L2-Pf-HR :0.91425: L2-HR :0.78191: (Sim:1h54m36s) 
CPU  0 inst:  432000000 cyc:  278277732 now IPC :1.59605: AVG IPC :1.55071: L2-Pf-HR :0.91431: L2-HR :0.78192: (Sim:1h54m54s) 
CPU  0 inst:  433000000 cyc:  278902731 now IPC :1.60000: AVG IPC :1.55082: L2-Pf-HR :0.91435: L2-HR :0.78192: (Sim:1h55m11s) 
CPU  0 inst:  434000001 cyc:  279526906 now IPC :1.60212: AVG IPC :1.55093: L2-Pf-HR :0.91438: L2-HR :0.78191: (Sim:1h55m29s) 
CPU  0 inst:  435000001 cyc:  280200475 now IPC :1.48463: AVG IPC :1.55077: L2-Pf-HR :0.91436: L2-HR :0.78187: (Sim:1h55m47s) 
CPU  0 inst:  436000003 cyc:  280846700 now IPC :1.54745: AVG IPC :1.55076: L2-Pf-HR :0.91438: L2-HR :0.78196: (Sim:1h56m5s) 
CPU  0 inst:  437000001 cyc:  281470535 now IPC :1.60298: AVG IPC :1.55088: L2-Pf-HR :0.91440: L2-HR :0.78205: (Sim:1h56m22s) 
CPU  0 inst:  438000000 cyc:  282094538 now IPC :1.60255: AVG IPC :1.55099: L2-Pf-HR :0.91440: L2-HR :0.78214: (Sim:1h56m40s) 
CPU  0 inst:  439000002 cyc:  282710826 now IPC :1.62262: AVG IPC :1.55115: L2-Pf-HR :0.91436: L2-HR :0.78223: (Sim:1h56m58s) 
CPU  0 inst:  440000003 cyc:  283404168 now IPC :1.44229: AVG IPC :1.55088: L2-Pf-HR :0.91427: L2-HR :0.78219: (Sim:1h57m16s) 
CPU  0 inst:  441000005 cyc:  284081554 now IPC :1.47627: AVG IPC :1.55071: L2-Pf-HR :0.91428: L2-HR :0.78218: (Sim:1h57m34s) 
CPU  0 inst:  442000002 cyc:  284720694 now IPC :1.56460: AVG IPC :1.55074: L2-Pf-HR :0.91426: L2-HR :0.78216: (Sim:1h57m52s) 
CPU  0 inst:  443000000 cyc:  285368166 now IPC :1.54447: AVG IPC :1.55072: L2-Pf-HR :0.91424: L2-HR :0.78212: (Sim:1h58m10s) 
CPU  0 inst:  444000003 cyc:  286016115 now IPC :1.54334: AVG IPC :1.55071: L2-Pf-HR :0.91423: L2-HR :0.78210: (Sim:1h58m28s) 
CPU  0 inst:  445000004 cyc:  286663995 now IPC :1.54350: AVG IPC :1.55069: L2-Pf-HR :0.91422: L2-HR :0.78208: (Sim:1h58m46s) 
CPU  0 inst:  446000000 cyc:  287312512 now IPC :1.54197: AVG IPC :1.55067: L2-Pf-HR :0.91420: L2-HR :0.78204: (Sim:1h59m4s) 
CPU  0 inst:  447000003 cyc:  287957206 now IPC :1.55113: AVG IPC :1.55067: L2-Pf-HR :0.91419: L2-HR :0.78201: (Sim:1h59m22s) 
CPU  0 inst:  448000000 cyc:  288706209 now IPC :1.33510: AVG IPC :1.55011: L2-Pf-HR :0.91416: L2-HR :0.78195: (Sim:1h59m41s) 
CPU  0 inst:  449000003 cyc:  289333970 now IPC :1.59297: AVG IPC :1.55020: L2-Pf-HR :0.91419: L2-HR :0.78195: (Sim:1h59m58s) 
CPU  0 inst:  450000003 cyc:  289963250 now IPC :1.58912: AVG IPC :1.55029: L2-Pf-HR :0.91422: L2-HR :0.78194: (Sim:2h0m16s) 
CPU  0 inst:  451000005 cyc:  290590634 now IPC :1.59392: AVG IPC :1.55038: L2-Pf-HR :0.91424: L2-HR :0.78194: (Sim:2h0m34s) 
CPU  0 inst:  452000004 cyc:  291221267 now IPC :1.58571: AVG IPC :1.55046: L2-Pf-HR :0.91430: L2-HR :0.78194: (Sim:2h0m51s) 
CPU  0 inst:  453000001 cyc:  291849567 now IPC :1.59159: AVG IPC :1.55055: L2-Pf-HR :0.91433: L2-HR :0.78194: (Sim:2h1m9s) 
CPU  0 inst:  454000003 cyc:  292478226 now IPC :1.59069: AVG IPC :1.55063: L2-Pf-HR :0.91436: L2-HR :0.78193: (Sim:2h1m27s) 
CPU  0 inst:  455000005 cyc:  293156727 now IPC :1.47384: AVG IPC :1.55046: L2-Pf-HR :0.91435: L2-HR :0.78189: (Sim:2h1m45s) 
CPU  0 inst:  456000004 cyc:  293803922 now IPC :1.54513: AVG IPC :1.55044: L2-Pf-HR :0.91436: L2-HR :0.78197: (Sim:2h2m2s) 
CPU  0 inst:  457000003 cyc:  294431223 now IPC :1.59413: AVG IPC :1.55054: L2-Pf-HR :0.91438: L2-HR :0.78206: (Sim:2h2m20s) 
CPU  0 inst:  458000004 cyc:  295057990 now IPC :1.59549: AVG IPC :1.55063: L2-Pf-HR :0.91438: L2-HR :0.78215: (Sim:2h2m38s) 
CPU  0 inst:  459000005 cyc:  295677532 now IPC :1.61410: AVG IPC :1.55077: L2-Pf-HR :0.91435: L2-HR :0.78223: (Sim:2h2m55s) 
CPU  0 inst:  460000002 cyc:  296377236 now IPC :1.42917: AVG IPC :1.55048: L2-Pf-HR :0.91426: L2-HR :0.78220: (Sim:2h3m14s) 
CPU  0 inst:  461000001 cyc:  297045543 now IPC :1.49632: AVG IPC :1.55036: L2-Pf-HR :0.91427: L2-HR :0.78219: (Sim:2h3m32s) 
CPU  0 inst:  462000005 cyc:  297684793 now IPC :1.56434: AVG IPC :1.55039: L2-Pf-HR :0.91426: L2-HR :0.78216: (Sim:2h3m50s) 
CPU  0 inst:  463000005 cyc:  298324791 now IPC :1.56250: AVG IPC :1.55041: L2-Pf-HR :0.91423: L2-HR :0.78213: (Sim:2h4m8s) 
CPU  0 inst:  464000001 cyc:  298965377 now IPC :1.56106: AVG IPC :1.55044: L2-Pf-HR :0.91422: L2-HR :0.78211: (Sim:2h4m26s) 
CPU  0 inst:  465000003 cyc:  299610824 now IPC :1.54932: AVG IPC :1.55043: L2-Pf-HR :0.91421: L2-HR :0.78209: (Sim:2h4m44s) 
CPU  0 inst:  466000004 cyc:  300254396 now IPC :1.55383: AVG IPC :1.55044: L2-Pf-HR :0.91420: L2-HR :0.78206: (Sim:2h5m2s) 
CPU  0 inst:  467000000 cyc:  300896943 now IPC :1.55630: AVG IPC :1.55045: L2-Pf-HR :0.91419: L2-HR :0.78203: (Sim:2h5m20s) 
CPU  0 inst:  468000001 cyc:  301636695 now IPC :1.35181: AVG IPC :1.54996: L2-Pf-HR :0.91415: L2-HR :0.78197: (Sim:2h5m38s) 
CPU  0 inst:  469000001 cyc:  302261677 now IPC :1.60005: AVG IPC :1.55007: L2-Pf-HR :0.91418: L2-HR :0.78197: (Sim:2h5m56s) 
CPU  0 inst:  470000003 cyc:  302887520 now IPC :1.59785: AVG IPC :1.55017: L2-Pf-HR :0.91420: L2-HR :0.78196: (Sim:2h6m14s) 
CPU  0 inst:  471000004 cyc:  303514493 now IPC :1.59497: AVG IPC :1.55026: L2-Pf-HR :0.91423: L2-HR :0.78196: (Sim:2h6m31s) 
CPU  0 inst:  472000004 cyc:  304141554 now IPC :1.59474: AVG IPC :1.55035: L2-Pf-HR :0.91427: L2-HR :0.78196: (Sim:2h6m49s) 
CPU  0 inst:  473000001 cyc:  304767111 now IPC :1.59857: AVG IPC :1.55045: L2-Pf-HR :0.91430: L2-HR :0.78196: (Sim:2h7m7s) 
CPU  0 inst:  474000000 cyc:  305392533 now IPC :1.59892: AVG IPC :1.55055: L2-Pf-HR :0.91433: L2-HR :0.78195: (Sim:2h7m24s) 
CPU  0 inst:  475000004 cyc:  306074185 now IPC :1.46703: AVG IPC :1.55036: L2-Pf-HR :0.91432: L2-HR :0.78191: (Sim:2h7m42s) 
CPU  0 inst:  476000004 cyc:  306718941 now IPC :1.55097: AVG IPC :1.55037: L2-Pf-HR :0.91433: L2-HR :0.78199: (Sim:2h8m0s) 
CPU  0 inst:  477000004 cyc:  307343944 now IPC :1.59999: AVG IPC :1.55047: L2-Pf-HR :0.91434: L2-HR :0.78207: (Sim:2h8m18s) 
CPU  0 inst:  478000004 cyc:  307970816 now IPC :1.59522: AVG IPC :1.55056: L2-Pf-HR :0.91435: L2-HR :0.78216: (Sim:2h8m35s) 
CPU  0 inst:  479000003 cyc:  308592777 now IPC :1.60782: AVG IPC :1.55067: L2-Pf-HR :0.91435: L2-HR :0.78224: (Sim:2h8m53s) 
CPU  0 inst:  480000002 cyc:  309293957 now IPC :1.42617: AVG IPC :1.55039: L2-Pf-HR :0.91426: L2-HR :0.78220: (Sim:2h9m11s) 
CPU  0 inst:  481000005 cyc:  309961789 now IPC :1.49739: AVG IPC :1.55028: L2-Pf-HR :0.91427: L2-HR :0.78219: (Sim:2h9m29s) 
CPU  0 inst:  482000001 cyc:  310604739 now IPC :1.55532: AVG IPC :1.55029: L2-Pf-HR :0.91426: L2-HR :0.78216: (Sim:2h9m47s) 
CPU  0 inst:  483000005 cyc:  311248343 now IPC :1.55376: AVG IPC :1.55029: L2-Pf-HR :0.91423: L2-HR :0.78213: (Sim:2h10m5s) 
CPU  0 inst:  484000004 cyc:  311890931 now IPC :1.55621: AVG IPC :1.55031: L2-Pf-HR :0.91423: L2-HR :0.78211: (Sim:2h10m23s) 
CPU  0 inst:  485000004 cyc:  312536833 now IPC :1.54822: AVG IPC :1.55030: L2-Pf-HR :0.91422: L2-HR :0.78209: (Sim:2h10m41s) 
CPU  0 inst:  486000005 cyc:  313181391 now IPC :1.55145: AVG IPC :1.55030: L2-Pf-HR :0.91420: L2-HR :0.78206: (Sim:2h10m59s) 
CPU  0 inst:  487000004 cyc:  313827339 now IPC :1.54811: AVG IPC :1.55030: L2-Pf-HR :0.91418: L2-HR :0.78203: (Sim:2h11m17s) 
CPU  0 inst:  488000003 cyc:  314568741 now IPC :1.34879: AVG IPC :1.54982: L2-Pf-HR :0.91414: L2-HR :0.78197: (Sim:2h11m36s) 
CPU  0 inst:  489000005 cyc:  315194157 now IPC :1.59894: AVG IPC :1.54992: L2-Pf-HR :0.91418: L2-HR :0.78197: (Sim:2h11m53s) 
CPU  0 inst:  490000000 cyc:  315819424 now IPC :1.59931: AVG IPC :1.55002: L2-Pf-HR :0.91420: L2-HR :0.78196: (Sim:2h12m11s) 
CPU  0 inst:  491000005 cyc:  316444485 now IPC :1.59985: AVG IPC :1.55012: L2-Pf-HR :0.91422: L2-HR :0.78196: (Sim:2h12m29s) 
CPU  0 inst:  492000004 cyc:  317070696 now IPC :1.59690: AVG IPC :1.55021: L2-Pf-HR :0.91427: L2-HR :0.78197: (Sim:2h12m46s) 
CPU  0 inst:  493000000 cyc:  317695960 now IPC :1.59932: AVG IPC :1.55031: L2-Pf-HR :0.91430: L2-HR :0.78196: (Sim:2h13m4s) 
CPU  0 inst:  494000004 cyc:  318321524 now IPC :1.59856: AVG IPC :1.55040: L2-Pf-HR :0.91433: L2-HR :0.78196: (Sim:2h13m21s) 
CPU  0 inst:  495000001 cyc:  319002191 now IPC :1.46914: AVG IPC :1.55023: L2-Pf-HR :0.91433: L2-HR :0.78193: (Sim:2h13m40s) 
CPU  0 inst:  496000003 cyc:  319644037 now IPC :1.55801: AVG IPC :1.55024: L2-Pf-HR :0.91434: L2-HR :0.78200: (Sim:2h13m57s) 
CPU  0 inst:  497000005 cyc:  320268012 now IPC :1.60263: AVG IPC :1.55035: L2-Pf-HR :0.91435: L2-HR :0.78208: (Sim:2h14m15s) 
CPU  0 inst:  498000001 cyc:  320893066 now IPC :1.59986: AVG IPC :1.55044: L2-Pf-HR :0.91436: L2-HR :0.78216: (Sim:2h14m32s) 
CPU  0 inst:  499000002 cyc:  321514051 now IPC :1.61035: AVG IPC :1.55056: L2-Pf-HR :0.91435: L2-HR :0.78223: (Sim:2h14m50s) 
CPU  0 inst:  500000004 cyc:  322218839 now IPC :1.41887: AVG IPC :1.55027: L2-Pf-HR :0.91427: L2-HR :0.78220: (Sim:2h15m8s) 
CPU  0 inst:  501000004 cyc:  322890798 now IPC :1.48819: AVG IPC :1.55014: L2-Pf-HR :0.91427: L2-HR :0.78218: (Sim:2h15m26s) 
CPU  0 inst:  502000002 cyc:  323540176 now IPC :1.53993: AVG IPC :1.55012: L2-Pf-HR :0.91427: L2-HR :0.78216: (Sim:2h15m44s) 
CPU  0 inst:  503000004 cyc:  324188695 now IPC :1.54198: AVG IPC :1.55010: L2-Pf-HR :0.91424: L2-HR :0.78212: (Sim:2h16m2s) 
CPU  0 inst:  504000005 cyc:  324841031 now IPC :1.53295: AVG IPC :1.55007: L2-Pf-HR :0.91423: L2-HR :0.78211: (Sim:2h16m20s) 
CPU  0 inst:  505000005 cyc:  325485139 now IPC :1.55253: AVG IPC :1.55007: L2-Pf-HR :0.91423: L2-HR :0.78209: (Sim:2h16m38s) 
CPU  0 inst:  506000001 cyc:  326131243 now IPC :1.54773: AVG IPC :1.55007: L2-Pf-HR :0.91420: L2-HR :0.78206: (Sim:2h16m56s) 
CPU  0 inst:  507000001 cyc:  326782387 now IPC :1.53576: AVG IPC :1.55004: L2-Pf-HR :0.91419: L2-HR :0.78203: (Sim:2h17m14s) 
CPU  0 inst:  508000003 cyc:  327527465 now IPC :1.34214: AVG IPC :1.54957: L2-Pf-HR :0.91415: L2-HR :0.78198: (Sim:2h17m33s) 
CPU  0 inst:  509000000 cyc:  328154346 now IPC :1.59519: AVG IPC :1.54965: L2-Pf-HR :0.91418: L2-HR :0.78198: (Sim:2h17m50s) 
CPU  0 inst:  510000002 cyc:  328782375 now IPC :1.59229: AVG IPC :1.54974: L2-Pf-HR :0.91420: L2-HR :0.78197: (Sim:2h18m8s) 
CPU  0 inst:  511000000 cyc:  329409088 now IPC :1.59562: AVG IPC :1.54982: L2-Pf-HR :0.91423: L2-HR :0.78196: (Sim:2h18m25s) 
CPU  0 inst:  512000001 cyc:  330037671 now IPC :1.59088: AVG IPC :1.54990: L2-Pf-HR :0.91427: L2-HR :0.78196: (Sim:2h18m43s) 
CPU  0 inst:  513000000 cyc:  330665176 now IPC :1.59361: AVG IPC :1.54998: L2-Pf-HR :0.91430: L2-HR :0.78196: (Sim:2h19m1s) 
CPU  0 inst:  514000003 cyc:  331293050 now IPC :1.59268: AVG IPC :1.55007: L2-Pf-HR :0.91433: L2-HR :0.78196: (Sim:2h19m18s) 
CPU  0 inst:  515000002 cyc:  331977840 now IPC :1.46030: AVG IPC :1.54988: L2-Pf-HR :0.91432: L2-HR :0.78192: (Sim:2h19m36s) 
CPU  0 inst:  516000002 cyc:  332618176 now IPC :1.56168: AVG IPC :1.54990: L2-Pf-HR :0.91433: L2-HR :0.78199: (Sim:2h19m54s) 
CPU  0 inst:  517000005 cyc:  333241877 now IPC :1.60334: AVG IPC :1.55000: L2-Pf-HR :0.91434: L2-HR :0.78208: (Sim:2h20m11s) 
CPU  0 inst:  518000002 cyc:  333864610 now IPC :1.60582: AVG IPC :1.55011: L2-Pf-HR :0.91435: L2-HR :0.78215: (Sim:2h20m29s) 
CPU  0 inst:  519000000 cyc:  334485181 now IPC :1.61142: AVG IPC :1.55022: L2-Pf-HR :0.91433: L2-HR :0.78222: (Sim:2h20m46s) 
CPU  0 inst:  520000005 cyc:  335173855 now IPC :1.45207: AVG IPC :1.55002: L2-Pf-HR :0.91425: L2-HR :0.78218: (Sim:2h21m5s) 
CPU  0 inst:  521000005 cyc:  335847393 now IPC :1.48470: AVG IPC :1.54989: L2-Pf-HR :0.91424: L2-HR :0.78216: (Sim:2h21m22s) 
CPU  0 inst:  522000001 cyc:  336491802 now IPC :1.55180: AVG IPC :1.54989: L2-Pf-HR :0.91424: L2-HR :0.78214: (Sim:2h21m40s) 
CPU  0 inst:  523000002 cyc:  337141136 now IPC :1.54004: AVG IPC :1.54987: L2-Pf-HR :0.91422: L2-HR :0.78211: (Sim:2h21m58s) 
CPU  0 inst:  524000001 cyc:  337793053 now IPC :1.53394: AVG IPC :1.54984: L2-Pf-HR :0.91420: L2-HR :0.78208: (Sim:2h22m16s) 
CPU  0 inst:  525000000 cyc:  338440589 now IPC :1.54431: AVG IPC :1.54983: L2-Pf-HR :0.91421: L2-HR :0.78207: (Sim:2h22m34s) 
CPU  0 inst:  526000002 cyc:  339091062 now IPC :1.53735: AVG IPC :1.54981: L2-Pf-HR :0.91419: L2-HR :0.78204: (Sim:2h22m52s) 
CPU  0 inst:  527000004 cyc:  339743596 now IPC :1.53249: AVG IPC :1.54977: L2-Pf-HR :0.91418: L2-HR :0.78201: (Sim:2h23m10s) 
CPU  0 inst:  528000002 cyc:  340474047 now IPC :1.36901: AVG IPC :1.54939: L2-Pf-HR :0.91414: L2-HR :0.78196: (Sim:2h23m29s) 
CPU  0 inst:  529000005 cyc:  341093737 now IPC :1.61371: AVG IPC :1.54950: L2-Pf-HR :0.91418: L2-HR :0.78196: (Sim:2h23m46s) 
CPU  0 inst:  530000005 cyc:  341713196 now IPC :1.61431: AVG IPC :1.54962: L2-Pf-HR :0.91420: L2-HR :0.78195: (Sim:2h24m4s) 
CPU  0 inst:  531000001 cyc:  342332978 now IPC :1.61346: AVG IPC :1.54974: L2-Pf-HR :0.91422: L2-HR :0.78195: (Sim:2h24m21s) 
CPU  0 inst:  532000000 cyc:  342953781 now IPC :1.61082: AVG IPC :1.54985: L2-Pf-HR :0.91426: L2-HR :0.78195: (Sim:2h24m39s) 
CPU  0 inst:  533000002 cyc:  343573793 now IPC :1.61288: AVG IPC :1.54996: L2-Pf-HR :0.91429: L2-HR :0.78194: (Sim:2h24m56s) 
CPU  0 inst:  534000000 cyc:  344192361 now IPC :1.61663: AVG IPC :1.55008: L2-Pf-HR :0.91432: L2-HR :0.78194: (Sim:2h25m14s) 
CPU  0 inst:  535000000 cyc:  344873970 now IPC :1.46712: AVG IPC :1.54992: L2-Pf-HR :0.91431: L2-HR :0.78191: (Sim:2h25m32s) 
CPU  0 inst:  536000005 cyc:  345515064 now IPC :1.55984: AVG IPC :1.54994: L2-Pf-HR :0.91432: L2-HR :0.78198: (Sim:2h25m49s) 
CPU  0 inst:  537000000 cyc:  346139970 now IPC :1.60023: AVG IPC :1.55003: L2-Pf-HR :0.91433: L2-HR :0.78206: (Sim:2h26m7s) 
CPU  0 inst:  538000002 cyc:  346764318 now IPC :1.60167: AVG IPC :1.55012: L2-Pf-HR :0.91434: L2-HR :0.78213: (Sim:2h26m24s) 
CPU  0 inst:  539000005 cyc:  347382800 now IPC :1.61687: AVG IPC :1.55024: L2-Pf-HR :0.91432: L2-HR :0.78220: (Sim:2h26m42s) 
CPU  0 inst:  540000005 cyc:  348083482 now IPC :1.42718: AVG IPC :1.54999: L2-Pf-HR :0.91424: L2-HR :0.78216: (Sim:2h27m0s) 
CPU  0 inst:  541000005 cyc:  348752032 now IPC :1.49577: AVG IPC :1.54989: L2-Pf-HR :0.91424: L2-HR :0.78216: (Sim:2h27m18s) 
CPU  0 inst:  542000001 cyc:  349389246 now IPC :1.56933: AVG IPC :1.54992: L2-Pf-HR :0.91424: L2-HR :0.78214: (Sim:2h27m36s) 
CPU  0 inst:  543000003 cyc:  350036524 now IPC :1.54493: AVG IPC :1.54991: L2-Pf-HR :0.91423: L2-HR :0.78211: (Sim:2h27m54s) 
CPU  0 inst:  544000002 cyc:  350682193 now IPC :1.54878: AVG IPC :1.54991: L2-Pf-HR :0.91421: L2-HR :0.78209: (Sim:2h28m12s) 
CPU  0 inst:  545000000 cyc:  351322869 now IPC :1.56085: AVG IPC :1.54993: L2-Pf-HR :0.91422: L2-HR :0.78207: (Sim:2h28m29s) 
CPU  0 inst:  546000000 cyc:  351968277 now IPC :1.54941: AVG IPC :1.54993: L2-Pf-HR :0.91420: L2-HR :0.78204: (Sim:2h28m47s) 
CPU  0 inst:  547000004 cyc:  352613124 now IPC :1.55076: AVG IPC :1.54993: L2-Pf-HR :0.91419: L2-HR :0.78202: (Sim:2h29m5s) 
CPU  0 inst:  548000005 cyc:  353347651 now IPC :1.36142: AVG IPC :1.54954: L2-Pf-HR :0.91416: L2-HR :0.78197: (Sim:2h29m24s) 
CPU  0 inst:  549000005 cyc:  353966327 now IPC :1.61635: AVG IPC :1.54965: L2-Pf-HR :0.91419: L2-HR :0.78197: (Sim:2h29m41s) 
CPU  0 inst:  550000000 cyc:  354584256 now IPC :1.61830: AVG IPC :1.54977: L2-Pf-HR :0.91421: L2-HR :0.78197: (Sim:2h29m59s) 
CPU  0 inst:  551000005 cyc:  355201817 now IPC :1.61928: AVG IPC :1.54990: L2-Pf-HR :0.91423: L2-HR :0.78196: (Sim:2h30m16s) 
CPU  0 inst:  552000000 cyc:  355820439 now IPC :1.61649: AVG IPC :1.55001: L2-Pf-HR :0.91426: L2-HR :0.78196: (Sim:2h30m34s) 
CPU  0 inst:  553000000 cyc:  356438443 now IPC :1.61811: AVG IPC :1.55013: L2-Pf-HR :0.91430: L2-HR :0.78196: (Sim:2h30m52s) 
CPU  0 inst:  554000005 cyc:  357056558 now IPC :1.61783: AVG IPC :1.55025: L2-Pf-HR :0.91433: L2-HR :0.78196: (Sim:2h31m8s) 
CPU  0 inst:  555000002 cyc:  357739183 now IPC :1.46493: AVG IPC :1.55008: L2-Pf-HR :0.91431: L2-HR :0.78193: (Sim:2h31m16s) 
CPU  0 inst:  556000001 cyc:  358366881 now IPC :1.59312: AVG IPC :1.55016: L2-Pf-HR :0.91432: L2-HR :0.78199: (Sim:2h31m24s) 
CPU  0 inst:  557000002 cyc:  358981032 now IPC :1.62827: AVG IPC :1.55029: L2-Pf-HR :0.91433: L2-HR :0.78207: (Sim:2h31m32s) 
CPU  0 inst:  558000005 cyc:  359594325 now IPC :1.63055: AVG IPC :1.55043: L2-Pf-HR :0.91434: L2-HR :0.78214: (Sim:2h31m40s) 
CPU  0 inst:  559000000 cyc:  360202090 now IPC :1.64536: AVG IPC :1.55059: L2-Pf-HR :0.91432: L2-HR :0.78220: (Sim:2h31m47s) 
CPU  0 inst:  560000003 cyc:  360900535 now IPC :1.43176: AVG IPC :1.55036: L2-Pf-HR :0.91424: L2-HR :0.78217: (Sim:2h31m55s) 
CPU  0 inst:  561000001 cyc:  361560646 now IPC :1.51489: AVG IPC :1.55030: L2-Pf-HR :0.91425: L2-HR :0.78217: (Sim:2h32m3s) 
CPU  0 inst:  562000002 cyc:  362195210 now IPC :1.57589: AVG IPC :1.55034: L2-Pf-HR :0.91424: L2-HR :0.78215: (Sim:2h32m11s) 
CPU  0 inst:  563000004 cyc:  362838496 now IPC :1.55452: AVG IPC :1.55035: L2-Pf-HR :0.91422: L2-HR :0.78212: (Sim:2h32m19s) 
CPU  0 inst:  564000000 cyc:  363484523 now IPC :1.54792: AVG IPC :1.55034: L2-Pf-HR :0.91422: L2-HR :0.78211: (Sim:2h32m27s) 
CPU  0 inst:  565000002 cyc:  364126286 now IPC :1.55821: AVG IPC :1.55036: L2-Pf-HR :0.91422: L2-HR :0.78209: (Sim:2h32m35s) 
CPU  0 inst:  566000000 cyc:  364772155 now IPC :1.54830: AVG IPC :1.55036: L2-Pf-HR :0.91421: L2-HR :0.78207: (Sim:2h32m42s) 
CPU  0 inst:  567000003 cyc:  365413967 now IPC :1.55809: AVG IPC :1.55037: L2-Pf-HR :0.91420: L2-HR :0.78204: (Sim:2h32m50s) 
CPU  0 inst:  568000003 cyc:  366148831 now IPC :1.36080: AVG IPC :1.54999: L2-Pf-HR :0.91416: L2-HR :0.78199: (Sim:2h32m59s) 
CPU  0 inst:  569000005 cyc:  366768330 now IPC :1.61421: AVG IPC :1.55010: L2-Pf-HR :0.91419: L2-HR :0.78199: (Sim:2h33m6s) 
CPU  0 inst:  570000004 cyc:  367388079 now IPC :1.61355: AVG IPC :1.55020: L2-Pf-HR :0.91422: L2-HR :0.78199: (Sim:2h33m14s) 
CPU  0 inst:  571000001 cyc:  368007445 now IPC :1.61455: AVG IPC :1.55031: L2-Pf-HR :0.91424: L2-HR :0.78199: (Sim:2h33m23s) 
CPU  0 inst:  572000000 cyc:  368628076 now IPC :1.61126: AVG IPC :1.55041: L2-Pf-HR :0.91427: L2-HR :0.78199: (Sim:2h33m31s) 
CPU  0 inst:  573000001 cyc:  369243957 now IPC :1.62369: AVG IPC :1.55054: L2-Pf-HR :0.91429: L2-HR :0.78198: (Sim:2h33m39s) 
CPU  0 inst:  574000004 cyc:  369862222 now IPC :1.61743: AVG IPC :1.55065: L2-Pf-HR :0.91433: L2-HR :0.78199: (Sim:2h33m46s) 
CPU  0 inst:  575000005 cyc:  370547309 now IPC :1.45967: AVG IPC :1.55048: L2-Pf-HR :0.91431: L2-HR :0.78195: (Sim:2h33m56s) 
CPU  0 inst:  576000000 cyc:  371170488 now IPC :1.60467: AVG IPC :1.55057: L2-Pf-HR :0.91432: L2-HR :0.78202: (Sim:2h34m4s) 
CPU  0 inst:  577000005 cyc:  371782241 now IPC :1.63465: AVG IPC :1.55071: L2-Pf-HR :0.91433: L2-HR :0.78209: (Sim:2h34m11s) 
CPU  0 inst:  578000002 cyc:  372392111 now IPC :1.63969: AVG IPC :1.55086: L2-Pf-HR :0.91434: L2-HR :0.78216: (Sim:2h34m19s) 
CPU  0 inst:  579000000 cyc:  372995247 now IPC :1.65800: AVG IPC :1.55103: L2-Pf-HR :0.91432: L2-HR :0.78222: (Sim:2h34m26s) 
CPU  0 inst:  580000004 cyc:  373693706 now IPC :1.43173: AVG IPC :1.55081: L2-Pf-HR :0.91425: L2-HR :0.78219: (Sim:2h34m34s) 
CPU  0 inst:  581000003 cyc:  374362621 now IPC :1.49496: AVG IPC :1.55071: L2-Pf-HR :0.91424: L2-HR :0.78218: (Sim:2h34m42s) 
CPU  0 inst:  582000000 cyc:  375002909 now IPC :1.56179: AVG IPC :1.55073: L2-Pf-HR :0.91424: L2-HR :0.78216: (Sim:2h34m50s) 
CPU  0 inst:  583000004 cyc:  375649179 now IPC :1.54735: AVG IPC :1.55072: L2-Pf-HR :0.91423: L2-HR :0.78214: (Sim:2h34m58s) 
CPU  0 inst:  584000004 cyc:  376301433 now IPC :1.53315: AVG IPC :1.55069: L2-Pf-HR :0.91422: L2-HR :0.78212: (Sim:2h35m6s) 
CPU  0 inst:  585000003 cyc:  376947176 now IPC :1.54860: AVG IPC :1.55069: L2-Pf-HR :0.91422: L2-HR :0.78210: (Sim:2h35m14s) 
CPU  0 inst:  586000001 cyc:  377594024 now IPC :1.54596: AVG IPC :1.55068: L2-Pf-HR :0.91420: L2-HR :0.78207: (Sim:2h35m21s) 
CPU  0 inst:  587000003 cyc:  378244593 now IPC :1.53712: AVG IPC :1.55065: L2-Pf-HR :0.91419: L2-HR :0.78205: (Sim:2h35m29s) 
CPU  0 inst:  588000002 cyc:  378977703 now IPC :1.36405: AVG IPC :1.55029: L2-Pf-HR :0.91415: L2-HR :0.78200: (Sim:2h35m37s) 
CPU  0 inst:  589000003 cyc:  379602521 now IPC :1.60047: AVG IPC :1.55038: L2-Pf-HR :0.91417: L2-HR :0.78200: (Sim:2h35m45s) 
CPU  0 inst:  590000002 cyc:  380225610 now IPC :1.60491: AVG IPC :1.55046: L2-Pf-HR :0.91420: L2-HR :0.78200: (Sim:2h35m53s) 
CPU  0 inst:  591000004 cyc:  380849034 now IPC :1.60405: AVG IPC :1.55055: L2-Pf-HR :0.91422: L2-HR :0.78200: (Sim:2h36m0s) 
CPU  0 inst:  592000001 cyc:  381474558 now IPC :1.59865: AVG IPC :1.55063: L2-Pf-HR :0.91425: L2-HR :0.78200: (Sim:2h36m9s) 
CPU  0 inst:  593000005 cyc:  382098088 now IPC :1.60378: AVG IPC :1.55072: L2-Pf-HR :0.91428: L2-HR :0.78199: (Sim:2h36m26s) 
CPU  0 inst:  594000000 cyc:  382721267 now IPC :1.60467: AVG IPC :1.55081: L2-Pf-HR :0.91431: L2-HR :0.78199: (Sim:2h36m44s) 
CPU  0 inst:  595000001 cyc:  383411795 now IPC :1.44817: AVG IPC :1.55062: L2-Pf-HR :0.91429: L2-HR :0.78196: (Sim:2h37m2s) 
CPU  0 inst:  596000002 cyc:  384033426 now IPC :1.60867: AVG IPC :1.55072: L2-Pf-HR :0.91431: L2-HR :0.78203: (Sim:2h37m19s) 
CPU  0 inst:  597000000 cyc:  384646218 now IPC :1.63187: AVG IPC :1.55085: L2-Pf-HR :0.91432: L2-HR :0.78209: (Sim:2h37m36s) 
CPU  0 inst:  598000005 cyc:  385256969 now IPC :1.63734: AVG IPC :1.55098: L2-Pf-HR :0.91433: L2-HR :0.78216: (Sim:2h37m54s) 
CPU  0 inst:  599000005 cyc:  385868162 now IPC :1.63614: AVG IPC :1.55112: L2-Pf-HR :0.91434: L2-HR :0.78223: (Sim:2h38m11s) 
CPU  0 inst:  600000002 cyc:  386573029 now IPC :1.41870: AVG IPC :1.55088: L2-Pf-HR :0.91427: L2-HR :0.78219: (Sim:2h38m30s) 
CPU  0 inst:  601000003 cyc:  387243197 now IPC :1.49216: AVG IPC :1.55077: L2-Pf-HR :0.91428: L2-HR :0.78218: (Sim:2h38m48s) 
CPU  0 inst:  602000003 cyc:  387883500 now IPC :1.56176: AVG IPC :1.55079: L2-Pf-HR :0.91427: L2-HR :0.78217: (Sim:2h39m6s) 
CPU  0 inst:  603000005 cyc:  388533259 now IPC :1.53904: AVG IPC :1.55077: L2-Pf-HR :0.91426: L2-HR :0.78214: (Sim:2h39m23s) 
CPU  0 inst:  604000000 cyc:  389181416 now IPC :1.54283: AVG IPC :1.55076: L2-Pf-HR :0.91425: L2-HR :0.78213: (Sim:2h39m41s) 
CPU  0 inst:  605000002 cyc:  389828717 now IPC :1.54488: AVG IPC :1.55075: L2-Pf-HR :0.91425: L2-HR :0.78211: (Sim:2h39m59s) 
CPU  0 inst:  606000000 cyc:  390476027 now IPC :1.54485: AVG IPC :1.55074: L2-Pf-HR :0.91425: L2-HR :0.78209: (Sim:2h40m17s) 
CPU  0 inst:  607000002 cyc:  391125996 now IPC :1.53854: AVG IPC :1.55072: L2-Pf-HR :0.91424: L2-HR :0.78207: (Sim:2h40m35s) 
CPU  0 inst:  608000002 cyc:  391866168 now IPC :1.35104: AVG IPC :1.55034: L2-Pf-HR :0.91420: L2-HR :0.78202: (Sim:2h40m54s) 
CPU  0 inst:  609000001 cyc:  392494085 now IPC :1.59257: AVG IPC :1.55041: L2-Pf-HR :0.91423: L2-HR :0.78202: (Sim:2h41m12s) 
CPU  0 inst:  610000001 cyc:  393119586 now IPC :1.59872: AVG IPC :1.55049: L2-Pf-HR :0.91426: L2-HR :0.78202: (Sim:2h41m29s) 
CPU  0 inst:  611000003 cyc:  393745883 now IPC :1.59669: AVG IPC :1.55056: L2-Pf-HR :0.91428: L2-HR :0.78201: (Sim:2h41m47s) 
CPU  0 inst:  612000001 cyc:  394374851 now IPC :1.58990: AVG IPC :1.55062: L2-Pf-HR :0.91431: L2-HR :0.78201: (Sim:2h42m4s) 
CPU  0 inst:  613000000 cyc:  395000238 now IPC :1.59901: AVG IPC :1.55070: L2-Pf-HR :0.91434: L2-HR :0.78201: (Sim:2h42m22s) 
CPU  0 inst:  614000004 cyc:  395625968 now IPC :1.59814: AVG IPC :1.55077: L2-Pf-HR :0.91436: L2-HR :0.78200: (Sim:2h42m40s) 
CPU  0 inst:  615000002 cyc:  396319266 now IPC :1.44238: AVG IPC :1.55058: L2-Pf-HR :0.91435: L2-HR :0.78198: (Sim:2h42m58s) 
CPU  0 inst:  616000000 cyc:  396941985 now IPC :1.60586: AVG IPC :1.55067: L2-Pf-HR :0.91436: L2-HR :0.78205: (Sim:2h43m15s) 
CPU  0 inst:  617000000 cyc:  397556545 now IPC :1.62718: AVG IPC :1.55079: L2-Pf-HR :0.91437: L2-HR :0.78211: (Sim:2h43m33s) 
CPU  0 inst:  618000004 cyc:  398170038 now IPC :1.63002: AVG IPC :1.55091: L2-Pf-HR :0.91438: L2-HR :0.78217: (Sim:2h43m50s) 
CPU  0 inst:  619000002 cyc:  398774683 now IPC :1.65386: AVG IPC :1.55107: L2-Pf-HR :0.91435: L2-HR :0.78224: (Sim:2h44m8s) 
CPU  0 inst:  620000000 cyc:  399474137 now IPC :1.42968: AVG IPC :1.55086: L2-Pf-HR :0.91428: L2-HR :0.78220: (Sim:2h44m26s) 
CPU  0 inst:  621000003 cyc:  400136471 now IPC :1.50982: AVG IPC :1.55079: L2-Pf-HR :0.91428: L2-HR :0.78220: (Sim:2h44m44s) 
CPU  0 inst:  622000004 cyc:  400775770 now IPC :1.56421: AVG IPC :1.55081: L2-Pf-HR :0.91428: L2-HR :0.78217: (Sim:2h45m2s) 
CPU  0 inst:  623000000 cyc:  401419771 now IPC :1.55279: AVG IPC :1.55081: L2-Pf-HR :0.91427: L2-HR :0.78215: (Sim:2h45m19s) 
CPU  0 inst:  624000005 cyc:  402063839 now IPC :1.55264: AVG IPC :1.55082: L2-Pf-HR :0.91426: L2-HR :0.78213: (Sim:2h45m37s) 
CPU  0 inst:  625000002 cyc:  402706838 now IPC :1.55521: AVG IPC :1.55082: L2-Pf-HR :0.91425: L2-HR :0.78211: (Sim:2h45m55s) 
CPU  0 inst:  626000001 cyc:  403350878 now IPC :1.55270: AVG IPC :1.55083: L2-Pf-HR :0.91425: L2-HR :0.78209: (Sim:2h46m13s) 
[...]
CPU  0 inst: 1510000005 cyc: 1771511739 now IPC :2.06067: AVG IPC :0.85172: L2-Pf-HR :0.76977: L2-HR :0.72598: (Sim:6h47m53s) 
CPU  0 inst: 1511000000 cyc: 1772030218 now IPC :1.92871: AVG IPC :0.85204: L2-Pf-HR :0.76991: L2-HR :0.72611: (Sim:6h48m4s) 
CPU  0 inst: 1512000002 cyc: 1772655300 now IPC :1.59979: AVG IPC :0.85230: L2-Pf-HR :0.76987: L2-HR :0.72615: (Sim:6h48m22s) 
CPU  0 inst: 1513000001 cyc: 1773154985 now IPC :2.00126: AVG IPC :0.85263: L2-Pf-HR :0.76996: L2-HR :0.72624: (Sim:6h48m38s) 
CPU  0 inst: 1514000001 cyc: 1773680762 now IPC :1.90195: AVG IPC :0.85294: L2-Pf-HR :0.76996: L2-HR :0.72629: (Sim:6h48m54s) 
CPU  0 inst: 1515000003 cyc: 1774218937 now IPC :1.85814: AVG IPC :0.85324: L2-Pf-HR :0.77003: L2-HR :0.72638: (Sim:6h49m10s) 
CPU  0 inst: 1516000000 cyc: 1774764726 now IPC :1.83220: AVG IPC :0.85354: L2-Pf-HR :0.77005: L2-HR :0.72643: (Sim:6h49m27s) 
CPU  0 inst: 1517000000 cyc: 1775215885 now IPC :2.21651: AVG IPC :0.85389: L2-Pf-HR :0.77017: L2-HR :0.72654: (Sim:6h49m42s) 
CPU  0 inst: 1518000000 cyc: 1775768659 now IPC :1.80906: AVG IPC :0.85419: L2-Pf-HR :0.77019: L2-HR :0.72662: (Sim:6h49m59s) 
CPU  0 inst: 1519000001 cyc: 1776277491 now IPC :1.96529: AVG IPC :0.85451: L2-Pf-HR :0.77030: L2-HR :0.72672: (Sim:6h50m15s) 
CPU  0 inst: 1520000000 cyc: 1776825342 now IPC :1.82531: AVG IPC :0.85481: L2-Pf-HR :0.77037: L2-HR :0.72678: (Sim:6h50m33s) 
CPU  0 inst: 1521000002 cyc: 1777261722 now IPC :2.29159: AVG IPC :0.85516: L2-Pf-HR :0.77048: L2-HR :0.72687: (Sim:6h50m49s) 
CPU  0 inst: 1522000004 cyc: 1777828184 now IPC :1.76535: AVG IPC :0.85545: L2-Pf-HR :0.77053: L2-HR :0.72696: (Sim:6h51m6s) 
CPU  0 inst: 1523000004 cyc: 1778338675 now IPC :1.95890: AVG IPC :0.85577: L2-Pf-HR :0.77064: L2-HR :0.72706: (Sim:6h51m21s) 
CPU  0 inst: 1524000003 cyc: 1778879500 now IPC :1.84903: AVG IPC :0.85607: L2-Pf-HR :0.77069: L2-HR :0.72713: (Sim:6h51m38s) 
CPU  0 inst: 1525000003 cyc: 1779317499 now IPC :2.28311: AVG IPC :0.85642: L2-Pf-HR :0.77079: L2-HR :0.72722: (Sim:6h51m53s) 
CPU  0 inst: 1526000001 cyc: 1779877258 now IPC :1.78648: AVG IPC :0.85671: L2-Pf-HR :0.77082: L2-HR :0.72731: (Sim:6h52m10s) 
CPU  0 inst: 1527000000 cyc: 1780365883 now IPC :2.04656: AVG IPC :0.85704: L2-Pf-HR :0.77094: L2-HR :0.72741: (Sim:6h52m26s) 
CPU  0 inst: 1528000000 cyc: 1780845942 now IPC :2.08308: AVG IPC :0.85737: L2-Pf-HR :0.77105: L2-HR :0.72752: (Sim:6h52m42s) 
CPU  0 inst: 1529000005 cyc: 1781362788 now IPC :1.93482: AVG IPC :0.85768: L2-Pf-HR :0.77106: L2-HR :0.72757: (Sim:6h53m0s) 
CPU  0 inst: 1530000000 cyc: 1781926071 now IPC :1.77530: AVG IPC :0.85797: L2-Pf-HR :0.77110: L2-HR :0.72766: (Sim:6h53m15s) 
CPU  0 inst: 1531000003 cyc: 1782368480 now IPC :2.26036: AVG IPC :0.85832: L2-Pf-HR :0.77123: L2-HR :0.72777: (Sim:6h53m30s) 
CPU  0 inst: 1532000004 cyc: 1782860440 now IPC :2.03269: AVG IPC :0.85865: L2-Pf-HR :0.77131: L2-HR :0.72787: (Sim:6h53m45s) 
CPU  0 inst: 1533000002 cyc: 1783417994 now IPC :1.79354: AVG IPC :0.85894: L2-Pf-HR :0.77145: L2-HR :0.72799: (Sim:6h54m3s) 
CPU  0 inst: 1534000002 cyc: 1784052111 now IPC :1.57700: AVG IPC :0.85919: L2-Pf-HR :0.77142: L2-HR :0.72803: (Sim:6h54m22s) 
CPU  0 inst: 1535000002 cyc: 1784505708 now IPC :2.20460: AVG IPC :0.85954: L2-Pf-HR :0.77151: L2-HR :0.72813: (Sim:6h54m37s) 
CPU  0 inst: 1536000005 cyc: 1785082909 now IPC :1.73250: AVG IPC :0.85982: L2-Pf-HR :0.77151: L2-HR :0.72818: (Sim:6h54m54s) 
CPU  0 inst: 1537000004 cyc: 1785620965 now IPC :1.85854: AVG IPC :0.86012: L2-Pf-HR :0.77158: L2-HR :0.72826: (Sim:6h55m9s) 
CPU  0 inst: 1538000001 cyc: 1786161289 now IPC :1.85074: AVG IPC :0.86042: L2-Pf-HR :0.77161: L2-HR :0.72832: (Sim:6h55m26s) 
CPU  0 inst: 1539000002 cyc: 1786596812 now IPC :2.29609: AVG IPC :0.86077: L2-Pf-HR :0.77171: L2-HR :0.72841: (Sim:6h55m41s) 
CPU  0 inst: 1540000002 cyc: 1787159085 now IPC :1.77850: AVG IPC :0.86106: L2-Pf-HR :0.77175: L2-HR :0.72850: (Sim:6h55m57s) 
CPU  0 inst: 1541000000 cyc: 1787664758 now IPC :1.97756: AVG IPC :0.86137: L2-Pf-HR :0.77185: L2-HR :0.72860: (Sim:6h56m14s) 
CPU  0 inst: 1542000005 cyc: 1788213608 now IPC :1.82200: AVG IPC :0.86167: L2-Pf-HR :0.77193: L2-HR :0.72866: (Sim:6h56m32s) 
CPU  0 inst: 1543000000 cyc: 1788651065 now IPC :2.28593: AVG IPC :0.86202: L2-Pf-HR :0.77202: L2-HR :0.72874: (Sim:6h56m47s) 
CPU  0 inst: 1544000004 cyc: 1789215877 now IPC :1.77051: AVG IPC :0.86230: L2-Pf-HR :0.77209: L2-HR :0.72881: (Sim:6h57m4s) 
CPU  0 inst: 1545000000 cyc: 1789698205 now IPC :2.07327: AVG IPC :0.86263: L2-Pf-HR :0.77221: L2-HR :0.72891: (Sim:6h57m20s) 
CPU  0 inst: 1546000002 cyc: 1790177018 now IPC :2.08850: AVG IPC :0.86296: L2-Pf-HR :0.77232: L2-HR :0.72901: (Sim:6h57m35s) 
CPU  0 inst: 1547000005 cyc: 1790701014 now IPC :1.90842: AVG IPC :0.86327: L2-Pf-HR :0.77233: L2-HR :0.72905: (Sim:6h57m51s) 
CPU  0 inst: 1548000000 cyc: 1791259710 now IPC :1.78987: AVG IPC :0.86355: L2-Pf-HR :0.77238: L2-HR :0.72914: (Sim:6h58m8s) 
CPU  0 inst: 1549000000 cyc: 1791701186 now IPC :2.26513: AVG IPC :0.86390: L2-Pf-HR :0.77250: L2-HR :0.72924: (Sim:6h58m18s) 
CPU  0 inst: 1550000004 cyc: 1792198562 now IPC :2.01056: AVG IPC :0.86422: L2-Pf-HR :0.77259: L2-HR :0.72933: (Sim:6h58m25s) 
CPU  0 inst: 1551000000 cyc: 1792741355 now IPC :1.84232: AVG IPC :0.86451: L2-Pf-HR :0.77261: L2-HR :0.72939: (Sim:6h58m33s) 
CPU  0 inst: 1552000000 cyc: 1793299014 now IPC :1.79321: AVG IPC :0.86480: L2-Pf-HR :0.77266: L2-HR :0.72948: (Sim:6h58m41s) 
CPU  0 inst: 1553000004 cyc: 1793728047 now IPC :2.33083: AVG IPC :0.86515: L2-Pf-HR :0.77277: L2-HR :0.72957: (Sim:6h58m48s) 
CPU  0 inst: 1554000000 cyc: 1794230015 now IPC :1.99215: AVG IPC :0.86547: L2-Pf-HR :0.77287: L2-HR :0.72967: (Sim:6h58m56s) 
CPU  0 inst: 1555000001 cyc: 1794783507 now IPC :1.80671: AVG IPC :0.86576: L2-Pf-HR :0.77300: L2-HR :0.72977: (Sim:6h59m4s) 
CPU  0 inst: 1556000000 cyc: 1795403692 now IPC :1.61242: AVG IPC :0.86602: L2-Pf-HR :0.77300: L2-HR :0.72983: (Sim:6h59m12s) 
CPU  0 inst: 1557000000 cyc: 1795849006 now IPC :2.24561: AVG IPC :0.86636: L2-Pf-HR :0.77306: L2-HR :0.72990: (Sim:6h59m19s) 
CPU  0 inst: 1558000002 cyc: 1796432677 now IPC :1.71330: AVG IPC :0.86664: L2-Pf-HR :0.77306: L2-HR :0.72997: (Sim:6h59m27s) 
CPU  0 inst: 1559000003 cyc: 1796960060 now IPC :1.89616: AVG IPC :0.86694: L2-Pf-HR :0.77314: L2-HR :0.73006: (Sim:6h59m37s) 
CPU  0 inst: 1560000005 cyc: 1797504352 now IPC :1.83725: AVG IPC :0.86723: L2-Pf-HR :0.77316: L2-HR :0.73012: (Sim:6h59m54s) 
CPU  0 inst: 1561000004 cyc: 1797942887 now IPC :2.28032: AVG IPC :0.86758: L2-Pf-HR :0.77324: L2-HR :0.73020: (Sim:7h0m9s) 
CPU  0 inst: 1562000002 cyc: 1798503868 now IPC :1.78259: AVG IPC :0.86786: L2-Pf-HR :0.77329: L2-HR :0.73028: (Sim:7h0m26s) 
CPU  0 inst: 1563000000 cyc: 1798972974 now IPC :2.13171: AVG IPC :0.86819: L2-Pf-HR :0.77341: L2-HR :0.73038: (Sim:7h0m42s) 
CPU  0 inst: 1564000004 cyc: 1799449341 now IPC :2.09923: AVG IPC :0.86852: L2-Pf-HR :0.77352: L2-HR :0.73048: (Sim:7h0m57s) 
CPU  0 inst: 1565000001 cyc: 1799983820 now IPC :1.87098: AVG IPC :0.86882: L2-Pf-HR :0.77355: L2-HR :0.73052: (Sim:7h1m14s) 
CPU  0 inst: 1566000002 cyc: 1800557217 now IPC :1.74399: AVG IPC :0.86910: L2-Pf-HR :0.77363: L2-HR :0.73059: (Sim:7h1m30s) 
CPU  0 inst: 1567000000 cyc: 1800997305 now IPC :2.27227: AVG IPC :0.86944: L2-Pf-HR :0.77375: L2-HR :0.73068: (Sim:7h1m46s) 
CPU  0 inst: 1568000002 cyc: 1801497954 now IPC :1.99741: AVG IPC :0.86975: L2-Pf-HR :0.77386: L2-HR :0.73077: (Sim:7h2m2s) 
CPU  0 inst: 1569000000 cyc: 1802041634 now IPC :1.83931: AVG IPC :0.87004: L2-Pf-HR :0.77387: L2-HR :0.73082: (Sim:7h2m19s) 
CPU  0 inst: 1570000004 cyc: 1802612770 now IPC :1.75090: AVG IPC :0.87032: L2-Pf-HR :0.77392: L2-HR :0.73091: (Sim:7h2m35s) 
CPU  0 inst: 1571000005 cyc: 1803042865 now IPC :2.32507: AVG IPC :0.87067: L2-Pf-HR :0.77403: L2-HR :0.73100: (Sim:7h2m50s) 
CPU  0 inst: 1572000000 cyc: 1803549306 now IPC :1.97455: AVG IPC :0.87098: L2-Pf-HR :0.77413: L2-HR :0.73110: (Sim:7h3m7s) 
CPU  0 inst: 1573000004 cyc: 1804087923 now IPC :1.85661: AVG IPC :0.87128: L2-Pf-HR :0.77414: L2-HR :0.73115: (Sim:7h3m24s) 
CPU  0 inst: 1574000000 cyc: 1804649359 now IPC :1.78114: AVG IPC :0.87156: L2-Pf-HR :0.77419: L2-HR :0.73125: (Sim:7h3m41s) 
CPU  0 inst: 1575000005 cyc: 1805077778 now IPC :2.33418: AVG IPC :0.87191: L2-Pf-HR :0.77428: L2-HR :0.73132: (Sim:7h3m55s) 
CPU  0 inst: 1576000001 cyc: 1805584052 now IPC :1.97521: AVG IPC :0.87222: L2-Pf-HR :0.77438: L2-HR :0.73142: (Sim:7h4m11s) 
CPU  0 inst: 1577000002 cyc: 1806100120 now IPC :1.93773: AVG IPC :0.87252: L2-Pf-HR :0.77450: L2-HR :0.73153: (Sim:7h4m28s) 
CPU  0 inst: 1578000005 cyc: 1806731004 now IPC :1.58508: AVG IPC :0.87277: L2-Pf-HR :0.77456: L2-HR :0.73161: (Sim:7h4m46s) 
CPU  0 inst: 1579000003 cyc: 1807210136 now IPC :2.08710: AVG IPC :0.87309: L2-Pf-HR :0.77458: L2-HR :0.73165: (Sim:7h5m3s) 
CPU  0 inst: 1580000000 cyc: 1807795195 now IPC :1.70922: AVG IPC :0.87336: L2-Pf-HR :0.77457: L2-HR :0.73170: (Sim:7h5m18s) 
CPU  0 inst: 1581000004 cyc: 1808262179 now IPC :2.14141: AVG IPC :0.87369: L2-Pf-HR :0.77468: L2-HR :0.73180: (Sim:7h5m34s) 
CPU  0 inst: 1582000005 cyc: 1808770867 now IPC :1.96584: AVG IPC :0.87400: L2-Pf-HR :0.77475: L2-HR :0.73188: (Sim:7h5m49s) 
CPU  0 inst: 1583000004 cyc: 1809302780 now IPC :1.88000: AVG IPC :0.87429: L2-Pf-HR :0.77475: L2-HR :0.73193: (Sim:7h6m7s) 
CPU  0 inst: 1584000001 cyc: 1809860492 now IPC :1.79303: AVG IPC :0.87458: L2-Pf-HR :0.77480: L2-HR :0.73201: (Sim:7h6m24s) 
CPU  0 inst: 1585000000 cyc: 1810297823 now IPC :2.28660: AVG IPC :0.87492: L2-Pf-HR :0.77491: L2-HR :0.73210: (Sim:7h6m39s) 
CPU  0 inst: 1586000005 cyc: 1810796521 now IPC :2.00523: AVG IPC :0.87523: L2-Pf-HR :0.77500: L2-HR :0.73220: (Sim:7h6m55s) 
CPU  0 inst: 1587000001 cyc: 1811342918 now IPC :1.83016: AVG IPC :0.87552: L2-Pf-HR :0.77505: L2-HR :0.73225: (Sim:7h7m12s) 
CPU  0 inst: 1588000000 cyc: 1811916117 now IPC :1.74459: AVG IPC :0.87579: L2-Pf-HR :0.77514: L2-HR :0.73232: (Sim:7h7m29s) 
CPU  0 inst: 1589000004 cyc: 1812347379 now IPC :2.31879: AVG IPC :0.87614: L2-Pf-HR :0.77524: L2-HR :0.73241: (Sim:7h7m44s) 
CPU  0 inst: 1590000003 cyc: 1812860316 now IPC :1.94956: AVG IPC :0.87644: L2-Pf-HR :0.77536: L2-HR :0.73249: (Sim:7h8m0s) 
CPU  0 inst: 1591000003 cyc: 1813402695 now IPC :1.84373: AVG IPC :0.87673: L2-Pf-HR :0.77537: L2-HR :0.73254: (Sim:7h8m17s) 
CPU  0 inst: 1592000003 cyc: 1813958292 now IPC :1.79987: AVG IPC :0.87701: L2-Pf-HR :0.77544: L2-HR :0.73263: (Sim:7h8m33s) 
CPU  0 inst: 1593000005 cyc: 1814390065 now IPC :2.31604: AVG IPC :0.87735: L2-Pf-HR :0.77553: L2-HR :0.73271: (Sim:7h8m48s) 
CPU  0 inst: 1594000002 cyc: 1814894438 now IPC :1.98265: AVG IPC :0.87766: L2-Pf-HR :0.77562: L2-HR :0.73281: (Sim:7h9m5s) 
CPU  0 inst: 1595000001 cyc: 1815437070 now IPC :1.84287: AVG IPC :0.87795: L2-Pf-HR :0.77565: L2-HR :0.73286: (Sim:7h9m22s) 
CPU  0 inst: 1596000005 cyc: 1815891615 now IPC :2.20001: AVG IPC :0.87828: L2-Pf-HR :0.77578: L2-HR :0.73297: (Sim:7h9m38s) 
CPU  0 inst: 1597000005 cyc: 1816424831 now IPC :1.87541: AVG IPC :0.87857: L2-Pf-HR :0.77580: L2-HR :0.73304: (Sim:7h9m53s) 
CPU  0 inst: 1598000003 cyc: 1816931668 now IPC :1.97302: AVG IPC :0.87888: L2-Pf-HR :0.77590: L2-HR :0.73314: (Sim:7h10m9s) 
CPU  0 inst: 1599000003 cyc: 1817430058 now IPC :2.00646: AVG IPC :0.87919: L2-Pf-HR :0.77601: L2-HR :0.73323: (Sim:7h10m26s) 
CPU  0 inst: 1600000000 cyc: 1817957229 now IPC :1.89691: AVG IPC :0.87948: L2-Pf-HR :0.77614: L2-HR :0.73335: (Sim:7h10m43s) 
CPU  0 inst: 1601000003 cyc: 1818544566 now IPC :1.70261: AVG IPC :0.87975: L2-Pf-HR :0.77608: L2-HR :0.73336: (Sim:7h11m0s) 
CPU  0 inst: 1602000002 cyc: 1819131339 now IPC :1.70423: AVG IPC :0.88002: L2-Pf-HR :0.77609: L2-HR :0.73342: (Sim:7h11m16s) 
CPU  0 inst: 1603000004 cyc: 1819571506 now IPC :2.27187: AVG IPC :0.88035: L2-Pf-HR :0.77619: L2-HR :0.73350: (Sim:7h11m31s) 
CPU  0 inst: 1604000000 cyc: 1820106660 now IPC :1.86861: AVG IPC :0.88064: L2-Pf-HR :0.77625: L2-HR :0.73357: (Sim:7h11m47s) 
CPU  0 inst: 1605000000 cyc: 1820648823 now IPC :1.84446: AVG IPC :0.88093: L2-Pf-HR :0.77628: L2-HR :0.73363: (Sim:7h12m5s) 
CPU  0 inst: 1606000003 cyc: 1821208276 now IPC :1.78747: AVG IPC :0.88121: L2-Pf-HR :0.77633: L2-HR :0.73371: (Sim:7h12m22s) 
CPU  0 inst: 1607000003 cyc: 1821638160 now IPC :2.32621: AVG IPC :0.88155: L2-Pf-HR :0.77644: L2-HR :0.73380: (Sim:7h12m37s) 
CPU  0 inst: 1608000000 cyc: 1822147729 now IPC :1.96244: AVG IPC :0.88185: L2-Pf-HR :0.77654: L2-HR :0.73390: (Sim:7h12m53s) 
CPU  0 inst: 1609000004 cyc: 1822693659 now IPC :1.83174: AVG IPC :0.88214: L2-Pf-HR :0.77660: L2-HR :0.73395: (Sim:7h13m11s) 
CPU  0 inst: 1610000000 cyc: 1823255345 now IPC :1.78035: AVG IPC :0.88242: L2-Pf-HR :0.77670: L2-HR :0.73403: (Sim:7h13m28s) 
CPU  0 inst: 1611000001 cyc: 1823692535 now IPC :2.28734: AVG IPC :0.88275: L2-Pf-HR :0.77679: L2-HR :0.73411: (Sim:7h13m43s) 
CPU  0 inst: 1612000002 cyc: 1824203081 now IPC :1.95869: AVG IPC :0.88305: L2-Pf-HR :0.77689: L2-HR :0.73420: (Sim:7h13m59s) 
CPU  0 inst: 1613000002 cyc: 1824743135 now IPC :1.85167: AVG IPC :0.88334: L2-Pf-HR :0.77690: L2-HR :0.73424: (Sim:7h14m16s) 
CPU  0 inst: 1614000000 cyc: 1825199586 now IPC :2.19081: AVG IPC :0.88367: L2-Pf-HR :0.77703: L2-HR :0.73435: (Sim:7h14m32s) 
CPU  0 inst: 1615000003 cyc: 1825739219 now IPC :1.85312: AVG IPC :0.88395: L2-Pf-HR :0.77706: L2-HR :0.73441: (Sim:7h14m48s) 
CPU  0 inst: 1616000005 cyc: 1826250155 now IPC :1.95720: AVG IPC :0.88425: L2-Pf-HR :0.77715: L2-HR :0.73451: (Sim:7h15m4s) 
CPU  0 inst: 1617000000 cyc: 1826795712 now IPC :1.83298: AVG IPC :0.88454: L2-Pf-HR :0.77717: L2-HR :0.73456: (Sim:7h15m21s) 
CPU  0 inst: 1618000003 cyc: 1827232847 now IPC :2.28763: AVG IPC :0.88487: L2-Pf-HR :0.77727: L2-HR :0.73466: (Sim:7h15m36s) 
CPU  0 inst: 1619000003 cyc: 1827789021 now IPC :1.79800: AVG IPC :0.88515: L2-Pf-HR :0.77732: L2-HR :0.73473: (Sim:7h15m53s) 
Finished CPU 0 instr: 1617000002 cyc: 1826804501 AVG IPC: 0.88515 (Sim time: 7h15m53s)

ChampSim completed all CPUs

[ROI Statistics]
Core_0_instructions 1617000002
Core_0_cycles 1826804501
Core_0_IPC 0.88515

Core_0_branch_prediction_accuracy 99.26547
Core_0_branch_MPKI 0.21633
Core_0_average_ROB_occupancy_at_mispredict 610.67156

Core_0_L1D_total_access 415490330
Core_0_L1D_total_hit 381575189 L1D_total_Hit Ratio: 0.91837
Core_0_L1D_total_miss 33915141
Core_0_L1D_loads 347981653
Core_0_L1D_load_hit 337020956 L1D_load_Hit Ratio: 0.96850
Core_0_L1D_load_miss 10960697
Core_0_L1D_RFOs 44173848
Core_0_L1D_RFO_hit 42211976 L1D_RFO_Hit Ratio: 0.95559
Core_0_L1D_RFO_miss 1961872
Core_0_L1D_prefetches 23334829
Core_0_L1D_prefetch_hit 2342257 L1D_prefetch_Hit Ratio: 0.10038
Core_0_L1D_prefetch_miss 20992572
Core_0_L1D_writebacks 0
Core_0_L1D_writeback_hit 0 L1D_writeback_Hit Ratio: -nan
Core_0_L1D_writeback_miss 0
Core_0_L1D_prefetch_requested 27511540
Core_0_L1D_prefetch_issued 27511540
Core_0_L1D_prefetch_useful 20851851 L1D_Useful Ratio: 0.75793
Core_0_L1D_prefetch_useless 167022
Core_0_L1D_prefetch_late 1860946
Core_0_L1D_average_miss_latency 58861683.02760

Core_0_L1I_total_access 230359921
Core_0_L1I_total_hit 230355021 L1I_total_Hit Ratio: 0.99998
Core_0_L1I_total_miss 4900
Core_0_L1I_loads 230359921
Core_0_L1I_load_hit 230355021 L1I_load_Hit Ratio: 0.99998
Core_0_L1I_load_miss 4900
Core_0_L1I_RFOs 0
Core_0_L1I_RFO_hit 0 L1I_RFO_Hit Ratio: -nan
Core_0_L1I_RFO_miss 0
Core_0_L1I_prefetches 0
Core_0_L1I_prefetch_hit 0 L1I_prefetch_Hit Ratio: -nan
Core_0_L1I_prefetch_miss 0
Core_0_L1I_writebacks 0
Core_0_L1I_writeback_hit 0 L1I_writeback_Hit Ratio: -nan
Core_0_L1I_writeback_miss 0
Core_0_L1I_prefetch_requested 0
Core_0_L1I_prefetch_issued 0
Core_0_L1I_prefetch_useful 0 L1I_Useful Ratio: -nan
Core_0_L1I_prefetch_useless 0
Core_0_L1I_prefetch_late 0
Core_0_L1I_average_miss_latency 273.23041

Core_0_L2C_total_access 49687286
Core_0_L2C_total_hit 36506700 L2C_total_Hit Ratio: 0.73473
Core_0_L2C_total_miss 13180586
Core_0_L2C_loads 9106089
Core_0_L2C_load_hit 3673224 L2C_load_Hit Ratio: 0.40338
Core_0_L2C_load_miss 5432865
Core_0_L2C_RFOs 1961837
Core_0_L2C_RFO_hit 381049 L2C_RFO_Hit Ratio: 0.19423
Core_0_L2C_RFO_miss 1580788
Core_0_L2C_prefetches 27671479
Core_0_L2C_prefetch_hit 21509458 L2C_prefetch_Hit Ratio: 0.77732
Core_0_L2C_prefetch_miss 6162021
Core_0_L2C_writebacks 10947881
Core_0_L2C_writeback_hit 10942969 L2C_writeback_Hit Ratio: 0.99955
Core_0_L2C_writeback_miss 4912
Core_0_L2C_prefetch_requested 11363853
Core_0_L2C_prefetch_issued 11363853
Core_0_L2C_prefetch_useful 1247079 L2C_Useful Ratio: 0.10974
Core_0_L2C_prefetch_useless 4914321
Core_0_L2C_prefetch_late 1713544
Core_0_L2C_average_miss_latency 352.42839

Core_0_LLC_total_access 21009309
Core_0_LLC_total_hit 9393958 LLC_total_Hit Ratio: 0.44713
Core_0_LLC_total_miss 11615351
Core_0_LLC_loads 3719331
Core_0_LLC_load_hit 627993 LLC_load_Hit Ratio: 0.16885
Core_0_LLC_load_miss 3091338
Core_0_LLC_RFOs 1580788
Core_0_LLC_RFO_hit 7426 LLC_RFO_Hit Ratio: 0.00470
Core_0_LLC_RFO_miss 1573362
Core_0_LLC_prefetches 7875482
Core_0_LLC_prefetch_hit 1030617 LLC_prefetch_Hit Ratio: 0.13086
Core_0_LLC_prefetch_miss 6844865
Core_0_LLC_writebacks 7833708
Core_0_LLC_writeback_hit 7727922 LLC_writeback_Hit Ratio: 0.98650
Core_0_LLC_writeback_miss 105786
Core_0_LLC_prefetch_requested 0
Core_0_LLC_prefetch_issued 0
Core_0_LLC_prefetch_useful 44687 LLC_Useful Ratio: inf
Core_0_LLC_prefetch_useless 6771304
Core_0_LLC_prefetch_late 0
Core_0_LLC_average_miss_latency 401.98510

Core_0_major_page_fault 0
Core_0_minor_page_fault 76848

[Bingo] PHT Access: 2859709
[Bingo] PHT Hit PC+Addr: 124523
[Bingo] PHT Hit PC+Offs: 2513483
[Bingo] PHT Miss: 221703
[Bingo] Prefetch PC+Addr: 0
[Bingo] Prefetch PC+Offs: 0
[Bingo] Useful PC+Addr: 0
[Bingo] Useful PC+Offs: 0
[Bingo] Useless PC+Addr: 0
[Bingo] Useless PC+Offs: 0
[Bingo] L1 Prefetch per Region: 12.58681
[Bingo] L2 Prefetch per Region: 0.17925
[Bingo] L3 Prefetch per Region: 0.00000
[Bingo] No Prefetch per Region: 19.23394
[Bingo] Number of Voters Mean: 14.32142
[Bingo] Number of Voters SD: 3.78602
PHT read accesses: 44957779
PHT write accesses: 2739904
AT read accesses: 329225295
AT write accesses: 329225294
FT read accesses: 51239326
FT write accesses: 2859709
PS read accesses: 16729824
PS write accesses: 2638006
PHT tag read accesses: 130568978
PHT tag write accesses: 2864427
AT tag read accesses: 6250596090
AT tag write accesses: 331965198
FT tag read accesses: 1068480986
FT tag write accesses: 29909154
PS tag read accesses: 5704692489
PS tag write accesses: 19363127
[Bingo2] PHT Access: 2405284
[Bingo2] PHT Hit PC+Addr: 87955
[Bingo2] PHT Hit PC+Offs: 1742161
[Bingo2] PHT Miss: 575168
[Bingo2] Prefetch PC+Addr: 0
[Bingo2] Prefetch PC+Offs: 0
[Bingo2] Useful PC+Addr: 0
[Bingo2] Useful PC+Offs: 0
[Bingo2] Useless PC+Addr: 0
[Bingo2] Useless PC+Offs: 0
[Bingo2] L1 Prefetch per Region: 0.00000
[Bingo2] L2 Prefetch per Region: 9.00126
[Bingo2] L3 Prefetch per Region: 0.00000
[Bingo2] No Prefetch per Region: 22.99874
[Bingo2] Number of Voters Mean: 13.12210
[Bingo2] Number of Voters SD: 4.66190
PHT read accesses: 37864603
PHT write accesses: 1766676
AT read accesses: 6640674
AT write accesses: 8402960
FT read accesses: 5471552
FT write accesses: 2405284
PS read accesses: 4298556
PS write accesses: 1830116
PHT tag read accesses: 93717559
PHT tag write accesses: 1854631
AT tag read accesses: 441229107
AT tag write accesses: 8407360
FT tag read accesses: 368862055
FT tag write accesses: 6045619
PS tag read accesses: 210826497
PS tag write accesses: 5993788
Channel_0_RQ_row_buffer_hit 6807461
Channel_0_RQ_row_buffer_miss 4701108
Channel_0_WQ_row_buffer_hit 2258525
Channel_0_WQ_row_buffer_miss 4460134
Channel_0_WQ_full 694
Channel_0_dbus_congested 10918598

avg_congested_cycle 11

EzSearch AVG IPC :0.88515: L2-Pf-HR :0.77732 : L2-HR :0.73473 Uful:0.10974
     > Finished combination: TraceType=770-tot Sim:1617000000 Prefetcher=L2bingo_dpc3_PHT1k L1=bingo_dpc3_PHT1k
