TRACE: [597000000][OPT-6_7B]_[h32][s512][d128] Warmup: 2000000 NumTraces: 597000000
L1:no:L2:spp_berti_src
Initialize SIGNATURE TABLE
ST_SET: 1
ST_WAY: 256
ST_TAG_BIT: 16
ST_TAG_MASK: ffff

Initialize PATTERN TABLE
PT_SET: 512
PT_WAY: 4
SIG_DELTA_BIT: 7
C_SIG_BIT: 4
C_DELTA_BIT: 4

Initialize PREFETCH FILTER
FILTER_SET: 1024
*************************************************
   ChampSim Multicore Out-of-Order Simulator
   Last compiled: Oct 27 2024 04:03:44
*************************************************

trace_0 770-tot_memTraces_v3/memTraces[597000000][OPT-6_7B]_[h32][s512][d128].champsim.xz
ST_WAYS: 256
PT_SETS: 512
MAIN.cc ln 751 stats print skipped
CPU  0 inst:    1000000 cyc:     499030 now IPC :2.00389: AVG IPC :2.00389: L2-Pf-HR :0.97636: L2-HR :0.85584: (Sim:0h0m8s) 
CPU  0 inst:    2000001 cyc:     983825 now IPC :2.06273: AVG IPC :2.03288: L2-Pf-HR :0.98577: L2-HR :0.90912: (Sim:0h0m19s) 

Warmup complete CPU  0 instructions:    2000001 cycles:     983825 (Simulation time: 0 hr 0 min 19 sec) 

CPU  0 inst:    3000000 cyc:    1517570 now IPC :1.87355: AVG IPC :1.87355: L2-Pf-HR :0.99525: L2-HR :0.95896: (Sim:0h0m26s) 
CPU  0 inst:    4000001 cyc:    2054600 now IPC :1.86210: AVG IPC :1.86781: L2-Pf-HR :0.99419: L2-HR :0.95773: (Sim:0h0m33s) 
CPU  0 inst:    5000003 cyc:    2603268 now IPC :1.82260: AVG IPC :1.85249: L2-Pf-HR :0.99411: L2-HR :0.95698: (Sim:0h0m40s) 
CPU  0 inst:    6000003 cyc:    3148242 now IPC :1.83495: AVG IPC :1.84807: L2-Pf-HR :0.99398: L2-HR :0.95749: (Sim:0h0m47s) 
CPU  0 inst:    7000003 cyc:    3697962 now IPC :1.81911: AVG IPC :1.84221: L2-Pf-HR :0.99400: L2-HR :0.95528: (Sim:0h0m54s) 
CPU  0 inst:    8000000 cyc:    4207178 now IPC :1.96380: AVG IPC :1.86142: L2-Pf-HR :0.99410: L2-HR :0.95584: (Sim:0h1m1s) 
CPU  0 inst:    9000002 cyc:    4822831 now IPC :1.62429: AVG IPC :1.82339: L2-Pf-HR :0.99484: L2-HR :0.95289: (Sim:0h1m8s) 
CPU  0 inst:   10000004 cyc:    5353907 now IPC :1.88297: AVG IPC :1.83063: L2-Pf-HR :0.99517: L2-HR :0.95451: (Sim:0h1m15s) 
CPU  0 inst:   11000000 cyc:    5887239 now IPC :1.87500: AVG IPC :1.83546: L2-Pf-HR :0.99514: L2-HR :0.95523: (Sim:0h1m22s) 
CPU  0 inst:   12000002 cyc:    6415069 now IPC :1.89455: AVG IPC :1.84120: L2-Pf-HR :0.99510: L2-HR :0.95586: (Sim:0h1m29s) 
CPU  0 inst:   13000001 cyc:    6944496 now IPC :1.88883: AVG IPC :1.84543: L2-Pf-HR :0.99507: L2-HR :0.95610: (Sim:0h1m36s) 
CPU  0 inst:   14000003 cyc:    7473653 now IPC :1.88980: AVG IPC :1.84905: L2-Pf-HR :0.99506: L2-HR :0.95648: (Sim:0h1m43s) 
CPU  0 inst:   15000003 cyc:    8035587 now IPC :1.77957: AVG IPC :1.84351: L2-Pf-HR :0.99501: L2-HR :0.95585: (Sim:0h1m50s) 
CPU  0 inst:   16000005 cyc:    8556322 now IPC :1.92037: AVG IPC :1.84880: L2-Pf-HR :0.99494: L2-HR :0.95597: (Sim:0h1m57s) 
CPU  0 inst:   17000002 cyc:    9227965 now IPC :1.48888: AVG IPC :1.81947: L2-Pf-HR :0.99524: L2-HR :0.95466: (Sim:0h2m5s) 
CPU  0 inst:   18000001 cyc:    9783804 now IPC :1.79908: AVG IPC :1.81819: L2-Pf-HR :0.99524: L2-HR :0.95518: (Sim:0h2m12s) 
CPU  0 inst:   19000000 cyc:   10323300 now IPC :1.85358: AVG IPC :1.82023: L2-Pf-HR :0.99533: L2-HR :0.95576: (Sim:0h2m19s) 
CPU  0 inst:   20000002 cyc:   10877976 now IPC :1.80286: AVG IPC :1.81926: L2-Pf-HR :0.99529: L2-HR :0.95593: (Sim:0h2m26s) 
CPU  0 inst:   21000004 cyc:   11429057 now IPC :1.81462: AVG IPC :1.81901: L2-Pf-HR :0.99532: L2-HR :0.95609: (Sim:0h2m33s) 
CPU  0 inst:   22000004 cyc:   11981568 now IPC :1.80992: AVG IPC :1.81856: L2-Pf-HR :0.99532: L2-HR :0.95641: (Sim:0h2m40s) 
CPU  0 inst:   23000002 cyc:   12555301 now IPC :1.74297: AVG IPC :1.81481: L2-Pf-HR :0.99531: L2-HR :0.95608: (Sim:0h2m48s) 
CPU  0 inst:   24000002 cyc:   13076577 now IPC :1.91837: AVG IPC :1.81927: L2-Pf-HR :0.99528: L2-HR :0.95617: (Sim:0h2m54s) 
CPU  0 inst:   25000005 cyc:   13754652 now IPC :1.47477: AVG IPC :1.80098: L2-Pf-HR :0.99545: L2-HR :0.95533: (Sim:0h3m2s) 
CPU  0 inst:   26000001 cyc:   14314915 now IPC :1.78487: AVG IPC :1.80030: L2-Pf-HR :0.99553: L2-HR :0.95574: (Sim:0h3m9s) 
CPU  0 inst:   27000000 cyc:   14864653 now IPC :1.81905: AVG IPC :1.80105: L2-Pf-HR :0.99557: L2-HR :0.95615: (Sim:0h3m16s) 
CPU  0 inst:   28000002 cyc:   15424148 now IPC :1.78733: AVG IPC :1.80051: L2-Pf-HR :0.99555: L2-HR :0.95624: (Sim:0h3m23s) 
CPU  0 inst:   29000005 cyc:   15983031 now IPC :1.78929: AVG IPC :1.80010: L2-Pf-HR :0.99549: L2-HR :0.95625: (Sim:0h3m31s) 
CPU  0 inst:   30000005 cyc:   16532860 now IPC :1.81875: AVG IPC :1.80076: L2-Pf-HR :0.99540: L2-HR :0.95640: (Sim:0h3m38s) 
CPU  0 inst:   31000004 cyc:   17104745 now IPC :1.74860: AVG IPC :1.79891: L2-Pf-HR :0.99535: L2-HR :0.95614: (Sim:0h3m45s) 
CPU  0 inst:   32000001 cyc:   17631423 now IPC :1.89869: AVG IPC :1.80206: L2-Pf-HR :0.99534: L2-HR :0.95617: (Sim:0h3m52s) 
CPU  0 inst:   33000005 cyc:   18302494 now IPC :1.49016: AVG IPC :1.78998: L2-Pf-HR :0.99546: L2-HR :0.95550: (Sim:0h3m59s) 
CPU  0 inst:   34000001 cyc:   18860955 now IPC :1.79063: AVG IPC :1.79000: L2-Pf-HR :0.99552: L2-HR :0.95578: (Sim:0h4m7s) 
CPU  0 inst:   35000002 cyc:   19406376 now IPC :1.83345: AVG IPC :1.79128: L2-Pf-HR :0.99550: L2-HR :0.95599: (Sim:0h4m14s) 
CPU  0 inst:   36000002 cyc:   19961565 now IPC :1.80119: AVG IPC :1.79157: L2-Pf-HR :0.99553: L2-HR :0.95616: (Sim:0h4m21s) 
CPU  0 inst:   37000005 cyc:   20508170 now IPC :1.82948: AVG IPC :1.79263: L2-Pf-HR :0.99549: L2-HR :0.95625: (Sim:0h4m28s) 
CPU  0 inst:   38000003 cyc:   21064944 now IPC :1.79606: AVG IPC :1.79273: L2-Pf-HR :0.99542: L2-HR :0.95628: (Sim:0h4m35s) 
CPU  0 inst:   39000004 cyc:   21638647 now IPC :1.74306: AVG IPC :1.79135: L2-Pf-HR :0.99539: L2-HR :0.95608: (Sim:0h4m42s) 
CPU  0 inst:   40000003 cyc:   22162264 now IPC :1.90979: AVG IPC :1.79428: L2-Pf-HR :0.99536: L2-HR :0.95608: (Sim:0h4m50s) 
CPU  0 inst:   41000005 cyc:   22833251 now IPC :1.49034: AVG IPC :1.78494: L2-Pf-HR :0.99545: L2-HR :0.95554: (Sim:0h4m57s) 
CPU  0 inst:   42000004 cyc:   23378119 now IPC :1.83531: AVG IPC :1.78617: L2-Pf-HR :0.99549: L2-HR :0.95580: (Sim:0h5m4s) 
CPU  0 inst:   43000005 cyc:   23930132 now IPC :1.81155: AVG IPC :1.78678: L2-Pf-HR :0.99553: L2-HR :0.95598: (Sim:0h5m13s) 
CPU  0 inst:   44000002 cyc:   24482524 now IPC :1.81030: AVG IPC :1.78733: L2-Pf-HR :0.99555: L2-HR :0.95608: (Sim:0h5m20s) 
CPU  0 inst:   45000001 cyc:   25032738 now IPC :1.81747: AVG IPC :1.78802: L2-Pf-HR :0.99557: L2-HR :0.95625: (Sim:0h5m28s) 
CPU  0 inst:   46000003 cyc:   25584456 now IPC :1.81252: AVG IPC :1.78857: L2-Pf-HR :0.99556: L2-HR :0.95634: (Sim:0h5m36s) 
CPU  0 inst:   47000001 cyc:   26158599 now IPC :1.74172: AVG IPC :1.78750: L2-Pf-HR :0.99554: L2-HR :0.95617: (Sim:0h5m43s) 
CPU  0 inst:   48000000 cyc:   26681257 now IPC :1.91330: AVG IPC :1.79006: L2-Pf-HR :0.99553: L2-HR :0.95621: (Sim:0h5m50s) 
CPU  0 inst:   49000005 cyc:   27348072 now IPC :1.49967: AVG IPC :1.78272: L2-Pf-HR :0.99559: L2-HR :0.95576: (Sim:0h5m59s) 
CPU  0 inst:   50000004 cyc:   27894241 now IPC :1.83093: AVG IPC :1.78370: L2-Pf-HR :0.99562: L2-HR :0.95596: (Sim:0h6m6s) 
CPU  0 inst:   51000003 cyc:   28454158 now IPC :1.78598: AVG IPC :1.78374: L2-Pf-HR :0.99565: L2-HR :0.95609: (Sim:0h6m15s) 
CPU  0 inst:   52000002 cyc:   29011271 now IPC :1.79497: AVG IPC :1.78397: L2-Pf-HR :0.99563: L2-HR :0.95614: (Sim:0h6m25s) 
CPU  0 inst:   53000004 cyc:   29552622 now IPC :1.84723: AVG IPC :1.78516: L2-Pf-HR :0.99560: L2-HR :0.95624: (Sim:0h6m32s) 
CPU  0 inst:   54000003 cyc:   30101711 now IPC :1.82120: AVG IPC :1.78584: L2-Pf-HR :0.99556: L2-HR :0.95627: (Sim:0h6m39s) 
CPU  0 inst:   55000003 cyc:   30683630 now IPC :1.71845: AVG IPC :1.78452: L2-Pf-HR :0.99554: L2-HR :0.95614: (Sim:0h6m46s) 
CPU  0 inst:   56000001 cyc:   31207175 now IPC :1.91005: AVG IPC :1.78670: L2-Pf-HR :0.99551: L2-HR :0.95614: (Sim:0h6m53s) 
CPU  0 inst:   57000005 cyc:   31880318 now IPC :1.48557: AVG IPC :1.78014: L2-Pf-HR :0.99557: L2-HR :0.95577: (Sim:0h7m1s) 
CPU  0 inst:   58000004 cyc:   32437113 now IPC :1.79599: AVG IPC :1.78042: L2-Pf-HR :0.99560: L2-HR :0.95595: (Sim:0h7m8s) 
CPU  0 inst:   59000005 cyc:   32988902 now IPC :1.81229: AVG IPC :1.78097: L2-Pf-HR :0.99560: L2-HR :0.95604: (Sim:0h7m15s) 
CPU  0 inst:   60000002 cyc:   33537591 now IPC :1.82252: AVG IPC :1.78167: L2-Pf-HR :0.99558: L2-HR :0.95612: (Sim:0h7m22s) 
CPU  0 inst:   61000004 cyc:   34092405 now IPC :1.80241: AVG IPC :1.78202: L2-Pf-HR :0.99558: L2-HR :0.95621: (Sim:0h7m29s) 
CPU  0 inst:   62000000 cyc:   34652573 now IPC :1.78517: AVG IPC :1.78207: L2-Pf-HR :0.99557: L2-HR :0.95624: (Sim:0h7m37s) 
CPU  0 inst:   63000003 cyc:   35227596 now IPC :1.73907: AVG IPC :1.78135: L2-Pf-HR :0.99559: L2-HR :0.95618: (Sim:0h7m44s) 
CPU  0 inst:   64000001 cyc:   35746187 now IPC :1.92830: AVG IPC :1.78354: L2-Pf-HR :0.99561: L2-HR :0.95621: (Sim:0h7m51s) 
CPU  0 inst:   65000005 cyc:   36407544 now IPC :1.51205: AVG IPC :1.77847: L2-Pf-HR :0.99567: L2-HR :0.95591: (Sim:0h7m58s) 
CPU  0 inst:   66000001 cyc:   36970206 now IPC :1.77726: AVG IPC :1.77845: L2-Pf-HR :0.99569: L2-HR :0.95603: (Sim:0h8m6s) 
CPU  0 inst:   67000002 cyc:   37523505 now IPC :1.80734: AVG IPC :1.77889: L2-Pf-HR :0.99570: L2-HR :0.95611: (Sim:0h8m13s) 
CPU  0 inst:   68000002 cyc:   38072624 now IPC :1.82110: AVG IPC :1.77951: L2-Pf-HR :0.99571: L2-HR :0.95622: (Sim:0h8m20s) 
CPU  0 inst:   69000004 cyc:   38629141 now IPC :1.79689: AVG IPC :1.77977: L2-Pf-HR :0.99571: L2-HR :0.95629: (Sim:0h8m27s) 
CPU  0 inst:   70000001 cyc:   39179033 now IPC :1.81853: AVG IPC :1.78033: L2-Pf-HR :0.99570: L2-HR :0.95635: (Sim:0h8m34s) 
CPU  0 inst:   71000003 cyc:   39766255 now IPC :1.70294: AVG IPC :1.77916: L2-Pf-HR :0.99568: L2-HR :0.95625: (Sim:0h8m41s) 
CPU  0 inst:   72000001 cyc:   40294519 now IPC :1.89299: AVG IPC :1.78069: L2-Pf-HR :0.99566: L2-HR :0.95623: (Sim:0h8m49s) 
CPU  0 inst:   73000005 cyc:   40940420 now IPC :1.54823: AVG IPC :1.77693: L2-Pf-HR :0.99570: L2-HR :0.95595: (Sim:0h8m56s) 
CPU  0 inst:   74000001 cyc:   41509389 now IPC :1.75756: AVG IPC :1.77666: L2-Pf-HR :0.99573: L2-HR :0.95606: (Sim:0h9m3s) 
CPU  0 inst:   75000000 cyc:   42065405 now IPC :1.79851: AVG IPC :1.77695: L2-Pf-HR :0.99573: L2-HR :0.95613: (Sim:0h9m10s) 
CPU  0 inst:   76000002 cyc:   42604416 now IPC :1.85525: AVG IPC :1.77797: L2-Pf-HR :0.99576: L2-HR :0.95628: (Sim:0h9m18s) 
CPU  0 inst:   77000004 cyc:   43156767 now IPC :1.81045: AVG IPC :1.77839: L2-Pf-HR :0.99574: L2-HR :0.95632: (Sim:0h9m25s) 
CPU  0 inst:   78000002 cyc:   43701257 now IPC :1.83658: AVG IPC :1.77913: L2-Pf-HR :0.99572: L2-HR :0.95636: (Sim:0h9m32s) 
CPU  0 inst:   79000000 cyc:   44294285 now IPC :1.68626: AVG IPC :1.77786: L2-Pf-HR :0.99572: L2-HR :0.95630: (Sim:0h9m39s) 
CPU  0 inst:   80000000 cyc:   44822143 now IPC :1.89445: AVG IPC :1.77927: L2-Pf-HR :0.99571: L2-HR :0.95629: (Sim:0h9m46s) 
CPU  0 inst:   81000005 cyc:   45483982 now IPC :1.51095: AVG IPC :1.77527: L2-Pf-HR :0.99576: L2-HR :0.95605: (Sim:0h9m54s) 
CPU  0 inst:   82000001 cyc:   46041400 now IPC :1.79398: AVG IPC :1.77551: L2-Pf-HR :0.99577: L2-HR :0.95614: (Sim:0h10m1s) 
CPU  0 inst:   83000000 cyc:   46588048 now IPC :1.82933: AVG IPC :1.77615: L2-Pf-HR :0.99578: L2-HR :0.95624: (Sim:0h10m8s) 
CPU  0 inst:   84000002 cyc:   47140302 now IPC :1.81076: AVG IPC :1.77657: L2-Pf-HR :0.99576: L2-HR :0.95629: (Sim:0h10m15s) 
CPU  0 inst:   85000004 cyc:   47696028 now IPC :1.79945: AVG IPC :1.77684: L2-Pf-HR :0.99574: L2-HR :0.95632: (Sim:0h10m23s) 
CPU  0 inst:   86000005 cyc:   48241452 now IPC :1.83344: AVG IPC :1.77749: L2-Pf-HR :0.99571: L2-HR :0.95634: (Sim:0h10m30s) 
CPU  0 inst:   87000002 cyc:   48826314 now IPC :1.70980: AVG IPC :1.77666: L2-Pf-HR :0.99571: L2-HR :0.95629: (Sim:0h10m37s) 
CPU  0 inst:   88000000 cyc:   49353722 now IPC :1.89606: AVG IPC :1.77797: L2-Pf-HR :0.99573: L2-HR :0.95631: (Sim:0h10m44s) 
CPU  0 inst:   89000004 cyc:   50014031 now IPC :1.51445: AVG IPC :1.77442: L2-Pf-HR :0.99577: L2-HR :0.95607: (Sim:0h10m52s) 
CPU  0 inst:   90000003 cyc:   50572199 now IPC :1.79157: AVG IPC :1.77461: L2-Pf-HR :0.99578: L2-HR :0.95614: (Sim:0h10m59s) 
CPU  0 inst:   91000000 cyc:   51124696 now IPC :1.80996: AVG IPC :1.77500: L2-Pf-HR :0.99577: L2-HR :0.95622: (Sim:0h11m6s) 
CPU  0 inst:   92000002 cyc:   51677040 now IPC :1.81047: AVG IPC :1.77539: L2-Pf-HR :0.99575: L2-HR :0.95627: (Sim:0h11m13s) 
CPU  0 inst:   93000000 cyc:   52223022 now IPC :1.83156: AVG IPC :1.77598: L2-Pf-HR :0.99577: L2-HR :0.95635: (Sim:0h11m21s) 
CPU  0 inst:   94000002 cyc:   52767799 now IPC :1.83562: AVG IPC :1.77661: L2-Pf-HR :0.99577: L2-HR :0.95639: (Sim:0h11m28s) 
CPU  0 inst:   95000004 cyc:   53354068 now IPC :1.70571: AVG IPC :1.77582: L2-Pf-HR :0.99576: L2-HR :0.95634: (Sim:0h11m37s) 
CPU  0 inst:   96000002 cyc:   53876957 now IPC :1.91245: AVG IPC :1.77717: L2-Pf-HR :0.99574: L2-HR :0.95631: (Sim:0h11m46s) 
CPU  0 inst:   97000005 cyc:   54538867 now IPC :1.51078: AVG IPC :1.77388: L2-Pf-HR :0.99576: L2-HR :0.95607: (Sim:0h11m53s) 
CPU  0 inst:   98000001 cyc:   55102684 now IPC :1.77362: AVG IPC :1.77387: L2-Pf-HR :0.99577: L2-HR :0.95614: (Sim:0h12m1s) 
CPU  0 inst:   99000000 cyc:   55640266 now IPC :1.86018: AVG IPC :1.77472: L2-Pf-HR :0.99578: L2-HR :0.95625: (Sim:0h12m8s) 
CPU  0 inst:  100000002 cyc:   56196953 now IPC :1.79635: AVG IPC :1.77494: L2-Pf-HR :0.99579: L2-HR :0.95633: (Sim:0h12m16s) 
CPU  0 inst:  101000004 cyc:   56744421 now IPC :1.82659: AVG IPC :1.77545: L2-Pf-HR :0.99579: L2-HR :0.95638: (Sim:0h12m23s) 
CPU  0 inst:  102000005 cyc:   57303747 now IPC :1.78787: AVG IPC :1.77557: L2-Pf-HR :0.99579: L2-HR :0.95639: (Sim:0h12m31s) 
CPU  0 inst:  103000004 cyc:   57894900 now IPC :1.69161: AVG IPC :1.77470: L2-Pf-HR :0.99578: L2-HR :0.95634: (Sim:0h12m40s) 
CPU  0 inst:  104000005 cyc:   58417997 now IPC :1.91169: AVG IPC :1.77595: L2-Pf-HR :0.99578: L2-HR :0.95633: (Sim:0h12m47s) 
CPU  0 inst:  105000000 cyc:   59084857 now IPC :1.49956: AVG IPC :1.77277: L2-Pf-HR :0.99580: L2-HR :0.95611: (Sim:0h12m55s) 
CPU  0 inst:  106000004 cyc:   59643535 now IPC :1.78995: AVG IPC :1.77294: L2-Pf-HR :0.99581: L2-HR :0.95619: (Sim:0h13m2s) 
CPU  0 inst:  107000003 cyc:   60201393 now IPC :1.79257: AVG IPC :1.77312: L2-Pf-HR :0.99580: L2-HR :0.95626: (Sim:0h13m10s) 
CPU  0 inst:  108000002 cyc:   60756526 now IPC :1.80137: AVG IPC :1.77338: L2-Pf-HR :0.99581: L2-HR :0.95632: (Sim:0h13m17s) 
CPU  0 inst:  109000004 cyc:   61303588 now IPC :1.82795: AVG IPC :1.77388: L2-Pf-HR :0.99580: L2-HR :0.95637: (Sim:0h13m24s) 
CPU  0 inst:  110000003 cyc:   61854044 now IPC :1.81667: AVG IPC :1.77427: L2-Pf-HR :0.99580: L2-HR :0.95639: (Sim:0h13m31s) 
CPU  0 inst:  111000004 cyc:   62435464 now IPC :1.71993: AVG IPC :1.77375: L2-Pf-HR :0.99578: L2-HR :0.95634: (Sim:0h13m39s) 
CPU  0 inst:  112000005 cyc:   62962371 now IPC :1.89787: AVG IPC :1.77481: L2-Pf-HR :0.99577: L2-HR :0.95631: (Sim:0h13m46s) 
CPU  0 inst:  113000001 cyc:   63623031 now IPC :1.51363: AVG IPC :1.77205: L2-Pf-HR :0.99578: L2-HR :0.95609: (Sim:0h13m54s) 
CPU  0 inst:  114000001 cyc:   64177037 now IPC :1.80503: AVG IPC :1.77234: L2-Pf-HR :0.99581: L2-HR :0.95620: (Sim:0h14m1s) 
CPU  0 inst:  115000003 cyc:   64730924 now IPC :1.80543: AVG IPC :1.77263: L2-Pf-HR :0.99582: L2-HR :0.95628: (Sim:0h14m9s) 
CPU  0 inst:  116000005 cyc:   65280709 now IPC :1.81890: AVG IPC :1.77303: L2-Pf-HR :0.99580: L2-HR :0.95631: (Sim:0h14m17s) 
CPU  0 inst:  117000004 cyc:   65831707 now IPC :1.81489: AVG IPC :1.77338: L2-Pf-HR :0.99580: L2-HR :0.95634: (Sim:0h14m24s) 
CPU  0 inst:  118000000 cyc:   66391406 now IPC :1.78667: AVG IPC :1.77349: L2-Pf-HR :0.99578: L2-HR :0.95634: (Sim:0h14m31s) 
CPU  0 inst:  119000003 cyc:   66978657 now IPC :1.70285: AVG IPC :1.77287: L2-Pf-HR :0.99577: L2-HR :0.95633: (Sim:0h14m40s) 
CPU  0 inst:  120000004 cyc:   67504800 now IPC :1.90063: AVG IPC :1.77388: L2-Pf-HR :0.99578: L2-HR :0.95631: (Sim:0h14m48s) 
CPU  0 inst:  121000004 cyc:   68168608 now IPC :1.50646: AVG IPC :1.77123: L2-Pf-HR :0.99580: L2-HR :0.95611: (Sim:0h14m56s) 
CPU  0 inst:  122000001 cyc:   68713940 now IPC :1.83374: AVG IPC :1.77174: L2-Pf-HR :0.99581: L2-HR :0.95620: (Sim:0h15m3s) 
CPU  0 inst:  123000003 cyc:   69262575 now IPC :1.82271: AVG IPC :1.77215: L2-Pf-HR :0.99583: L2-HR :0.95628: (Sim:0h15m11s) 
CPU  0 inst:  124000002 cyc:   69804567 now IPC :1.84504: AVG IPC :1.77272: L2-Pf-HR :0.99583: L2-HR :0.95635: (Sim:0h15m20s) 
CPU  0 inst:  125000004 cyc:   70359551 now IPC :1.80186: AVG IPC :1.77295: L2-Pf-HR :0.99582: L2-HR :0.95636: (Sim:0h15m28s) 
CPU  0 inst:  126000002 cyc:   70915973 now IPC :1.79719: AVG IPC :1.77315: L2-Pf-HR :0.99580: L2-HR :0.95636: (Sim:0h15m35s) 
CPU  0 inst:  127000003 cyc:   71501245 now IPC :1.70861: AVG IPC :1.77261: L2-Pf-HR :0.99579: L2-HR :0.95636: (Sim:0h15m43s) 
CPU  0 inst:  128000001 cyc:   72024481 now IPC :1.91118: AVG IPC :1.77363: L2-Pf-HR :0.99578: L2-HR :0.95633: (Sim:0h15m51s) 
CPU  0 inst:  129000002 cyc:   72678061 now IPC :1.53004: AVG IPC :1.77141: L2-Pf-HR :0.99579: L2-HR :0.95614: (Sim:0h15m59s) 
CPU  0 inst:  130000003 cyc:   73233429 now IPC :1.80061: AVG IPC :1.77164: L2-Pf-HR :0.99580: L2-HR :0.95621: (Sim:0h16m6s) 
CPU  0 inst:  131000003 cyc:   73786818 now IPC :1.80705: AVG IPC :1.77191: L2-Pf-HR :0.99582: L2-HR :0.95630: (Sim:0h16m13s) 
CPU  0 inst:  132000004 cyc:   74336567 now IPC :1.81901: AVG IPC :1.77226: L2-Pf-HR :0.99582: L2-HR :0.95634: (Sim:0h16m28s) 
CPU  0 inst:  133000004 cyc:   74886881 now IPC :1.81714: AVG IPC :1.77259: L2-Pf-HR :0.99581: L2-HR :0.95637: (Sim:0h16m43s) 
CPU  0 inst:  134000000 cyc:   75441414 now IPC :1.80331: AVG IPC :1.77282: L2-Pf-HR :0.99581: L2-HR :0.95637: (Sim:0h16m59s) 
CPU  0 inst:  135000003 cyc:   76035401 now IPC :1.68354: AVG IPC :1.77211: L2-Pf-HR :0.99581: L2-HR :0.95638: (Sim:0h17m15s) 
CPU  0 inst:  136000001 cyc:   76561893 now IPC :1.89936: AVG IPC :1.77300: L2-Pf-HR :0.99579: L2-HR :0.95636: (Sim:0h17m31s) 
CPU  0 inst:  137000005 cyc:   77204600 now IPC :1.55593: AVG IPC :1.77117: L2-Pf-HR :0.99580: L2-HR :0.95619: (Sim:0h17m47s) 
CPU  0 inst:  138000001 cyc:   77776944 now IPC :1.74719: AVG IPC :1.77099: L2-Pf-HR :0.99582: L2-HR :0.95626: (Sim:0h18m3s) 
CPU  0 inst:  139000003 cyc:   78327173 now IPC :1.81743: AVG IPC :1.77132: L2-Pf-HR :0.99582: L2-HR :0.95632: (Sim:0h18m18s) 
CPU  0 inst:  140000001 cyc:   78873365 now IPC :1.83085: AVG IPC :1.77174: L2-Pf-HR :0.99582: L2-HR :0.95635: (Sim:0h18m34s) 
CPU  0 inst:  141000004 cyc:   79428911 now IPC :1.80004: AVG IPC :1.77194: L2-Pf-HR :0.99580: L2-HR :0.95637: (Sim:0h18m50s) 
CPU  0 inst:  142000000 cyc:   79975648 now IPC :1.82903: AVG IPC :1.77234: L2-Pf-HR :0.99580: L2-HR :0.95640: (Sim:0h19m6s) 
CPU  0 inst:  143000005 cyc:   80571257 now IPC :1.67896: AVG IPC :1.77164: L2-Pf-HR :0.99579: L2-HR :0.95639: (Sim:0h19m22s) 
CPU  0 inst:  144000000 cyc:   81098309 now IPC :1.89734: AVG IPC :1.77246: L2-Pf-HR :0.99578: L2-HR :0.95635: (Sim:0h19m37s) 
CPU  0 inst:  145000000 cyc:   81745122 now IPC :1.54604: AVG IPC :1.77065: L2-Pf-HR :0.99578: L2-HR :0.95618: (Sim:0h19m54s) 
CPU  0 inst:  146000001 cyc:   82314276 now IPC :1.75700: AVG IPC :1.77055: L2-Pf-HR :0.99580: L2-HR :0.95624: (Sim:0h20m9s) 
CPU  0 inst:  147000000 cyc:   82861781 now IPC :1.82647: AVG IPC :1.77093: L2-Pf-HR :0.99580: L2-HR :0.95631: (Sim:0h20m25s) 
CPU  0 inst:  148000005 cyc:   83420277 now IPC :1.79053: AVG IPC :1.77106: L2-Pf-HR :0.99580: L2-HR :0.95634: (Sim:0h20m41s) 
CPU  0 inst:  149000004 cyc:   83972037 now IPC :1.81238: AVG IPC :1.77134: L2-Pf-HR :0.99579: L2-HR :0.95635: (Sim:0h20m56s) 
CPU  0 inst:  150000000 cyc:   84516447 now IPC :1.83684: AVG IPC :1.77176: L2-Pf-HR :0.99579: L2-HR :0.95638: (Sim:0h21m12s) 
CPU  0 inst:  151000002 cyc:   85107318 now IPC :1.69242: AVG IPC :1.77121: L2-Pf-HR :0.99578: L2-HR :0.95637: (Sim:0h21m28s) 
CPU  0 inst:  152000000 cyc:   85637999 now IPC :1.88437: AVG IPC :1.77191: L2-Pf-HR :0.99576: L2-HR :0.95633: (Sim:0h21m43s) 
CPU  0 inst:  153000005 cyc:   86273676 now IPC :1.57313: AVG IPC :1.77043: L2-Pf-HR :0.99577: L2-HR :0.95616: (Sim:0h22m0s) 
CPU  0 inst:  154000001 cyc:   86850900 now IPC :1.73242: AVG IPC :1.77018: L2-Pf-HR :0.99578: L2-HR :0.95622: (Sim:0h22m15s) 
CPU  0 inst:  155000003 cyc:   87405132 now IPC :1.80430: AVG IPC :1.77040: L2-Pf-HR :0.99579: L2-HR :0.95628: (Sim:0h22m31s) 
CPU  0 inst:  156000001 cyc:   87954405 now IPC :1.82058: AVG IPC :1.77071: L2-Pf-HR :0.99579: L2-HR :0.95632: (Sim:0h22m47s) 
CPU  0 inst:  157000001 cyc:   88510348 now IPC :1.79875: AVG IPC :1.77089: L2-Pf-HR :0.99580: L2-HR :0.95634: (Sim:0h23m2s) 
CPU  0 inst:  158000000 cyc:   89057796 now IPC :1.82666: AVG IPC :1.77124: L2-Pf-HR :0.99580: L2-HR :0.95638: (Sim:0h23m18s) 
CPU  0 inst:  159000004 cyc:   89640160 now IPC :1.71715: AVG IPC :1.77088: L2-Pf-HR :0.99578: L2-HR :0.95637: (Sim:0h23m34s) 
CPU  0 inst:  160000002 cyc:   90166910 now IPC :1.89843: AVG IPC :1.77164: L2-Pf-HR :0.99578: L2-HR :0.95633: (Sim:0h23m49s) 
CPU  0 inst:  161000002 cyc:   90804999 now IPC :1.56718: AVG IPC :1.77018: L2-Pf-HR :0.99579: L2-HR :0.95618: (Sim:0h24m5s) 
CPU  0 inst:  162000001 cyc:   91380941 now IPC :1.73628: AVG IPC :1.76997: L2-Pf-HR :0.99582: L2-HR :0.95625: (Sim:0h24m21s) 
CPU  0 inst:  163000003 cyc:   91931054 now IPC :1.81781: AVG IPC :1.77026: L2-Pf-HR :0.99582: L2-HR :0.95630: (Sim:0h24m37s) 
CPU  0 inst:  164000004 cyc:   92484990 now IPC :1.80526: AVG IPC :1.77047: L2-Pf-HR :0.99581: L2-HR :0.95632: (Sim:0h24m53s) 
CPU  0 inst:  165000004 cyc:   93029366 now IPC :1.83697: AVG IPC :1.77086: L2-Pf-HR :0.99581: L2-HR :0.95636: (Sim:0h25m8s) 
CPU  0 inst:  166000002 cyc:   93585668 now IPC :1.79758: AVG IPC :1.77102: L2-Pf-HR :0.99580: L2-HR :0.95637: (Sim:0h25m24s) 
CPU  0 inst:  167000004 cyc:   94174833 now IPC :1.69732: AVG IPC :1.77056: L2-Pf-HR :0.99579: L2-HR :0.95636: (Sim:0h25m40s) 
CPU  0 inst:  168000002 cyc:   94705185 now IPC :1.88554: AVG IPC :1.77121: L2-Pf-HR :0.99577: L2-HR :0.95632: (Sim:0h25m55s) 
CPU  0 inst:  169000002 cyc:   95339285 now IPC :1.57704: AVG IPC :1.76990: L2-Pf-HR :0.99578: L2-HR :0.95617: (Sim:0h26m12s) 
CPU  0 inst:  170000001 cyc:   95913964 now IPC :1.74010: AVG IPC :1.76972: L2-Pf-HR :0.99579: L2-HR :0.95624: (Sim:0h26m27s) 
CPU  0 inst:  171000003 cyc:   96471007 now IPC :1.79520: AVG IPC :1.76987: L2-Pf-HR :0.99580: L2-HR :0.95628: (Sim:0h26m43s) 
CPU  0 inst:  172000000 cyc:   97031535 now IPC :1.78403: AVG IPC :1.76995: L2-Pf-HR :0.99579: L2-HR :0.95630: (Sim:0h26m59s) 
CPU  0 inst:  173000004 cyc:   97574250 now IPC :1.84260: AVG IPC :1.77036: L2-Pf-HR :0.99578: L2-HR :0.95632: (Sim:0h27m15s) 
CPU  0 inst:  174000000 cyc:   98123606 now IPC :1.82031: AVG IPC :1.77064: L2-Pf-HR :0.99578: L2-HR :0.95634: (Sim:0h27m30s) 
CPU  0 inst:  175000004 cyc:   98714188 now IPC :1.69325: AVG IPC :1.77018: L2-Pf-HR :0.99577: L2-HR :0.95633: (Sim:0h27m46s) 
CPU  0 inst:  176000005 cyc:   99246435 now IPC :1.87883: AVG IPC :1.77077: L2-Pf-HR :0.99577: L2-HR :0.95631: (Sim:0h28m2s) 
CPU  0 inst:  177000002 cyc:   99869990 now IPC :1.60370: AVG IPC :1.76971: L2-Pf-HR :0.99578: L2-HR :0.95618: (Sim:0h28m18s) 
CPU  0 inst:  178000001 cyc:  100445771 now IPC :1.73677: AVG IPC :1.76952: L2-Pf-HR :0.99579: L2-HR :0.95623: (Sim:0h28m34s) 
CPU  0 inst:  179000003 cyc:  100999501 now IPC :1.80594: AVG IPC :1.76972: L2-Pf-HR :0.99580: L2-HR :0.95628: (Sim:0h28m49s) 
CPU  0 inst:  180000005 cyc:  101556073 now IPC :1.79672: AVG IPC :1.76987: L2-Pf-HR :0.99580: L2-HR :0.95630: (Sim:0h29m5s) 
CPU  0 inst:  181000003 cyc:  102100335 now IPC :1.83735: AVG IPC :1.77024: L2-Pf-HR :0.99580: L2-HR :0.95634: (Sim:0h29m21s) 
CPU  0 inst:  182000000 cyc:  102649449 now IPC :1.82111: AVG IPC :1.77051: L2-Pf-HR :0.99579: L2-HR :0.95635: (Sim:0h29m36s) 
CPU  0 inst:  183000003 cyc:  103239898 now IPC :1.69363: AVG IPC :1.77007: L2-Pf-HR :0.99578: L2-HR :0.95635: (Sim:0h29m53s) 
CPU  0 inst:  184000003 cyc:  103775287 now IPC :1.86780: AVG IPC :1.77058: L2-Pf-HR :0.99577: L2-HR :0.95631: (Sim:0h30m8s) 
CPU  0 inst:  185000002 cyc:  104391050 now IPC :1.62400: AVG IPC :1.76970: L2-Pf-HR :0.99578: L2-HR :0.95619: (Sim:0h30m24s) 
CPU  0 inst:  186000000 cyc:  104976824 now IPC :1.70714: AVG IPC :1.76935: L2-Pf-HR :0.99579: L2-HR :0.95624: (Sim:0h30m40s) 
CPU  0 inst:  187000000 cyc:  105525674 now IPC :1.82199: AVG IPC :1.76963: L2-Pf-HR :0.99579: L2-HR :0.95627: (Sim:0h30m56s) 
CPU  0 inst:  188000002 cyc:  106075678 now IPC :1.81817: AVG IPC :1.76988: L2-Pf-HR :0.99580: L2-HR :0.95631: (Sim:0h31m11s) 
CPU  0 inst:  189000004 cyc:  106634510 now IPC :1.78945: AVG IPC :1.76998: L2-Pf-HR :0.99579: L2-HR :0.95633: (Sim:0h31m27s) 
CPU  0 inst:  190000000 cyc:  107184717 now IPC :1.81749: AVG IPC :1.77023: L2-Pf-HR :0.99578: L2-HR :0.95634: (Sim:0h31m43s) 
CPU  0 inst:  191000005 cyc:  107766645 now IPC :1.71843: AVG IPC :1.76995: L2-Pf-HR :0.99578: L2-HR :0.95635: (Sim:0h31m59s) 
CPU  0 inst:  192000001 cyc:  108306511 now IPC :1.85230: AVG IPC :1.77036: L2-Pf-HR :0.99577: L2-HR :0.95632: (Sim:0h32m14s) 
CPU  0 inst:  193000004 cyc:  108918840 now IPC :1.63311: AVG IPC :1.76958: L2-Pf-HR :0.99577: L2-HR :0.95619: (Sim:0h32m30s) 
CPU  0 inst:  194000004 cyc:  109513037 now IPC :1.68294: AVG IPC :1.76911: L2-Pf-HR :0.99579: L2-HR :0.95623: (Sim:0h32m46s) 
CPU  0 inst:  195000003 cyc:  110067361 now IPC :1.80400: AVG IPC :1.76929: L2-Pf-HR :0.99580: L2-HR :0.95627: (Sim:0h33m2s) 
CPU  0 inst:  196000005 cyc:  110607462 now IPC :1.85151: AVG IPC :1.76969: L2-Pf-HR :0.99579: L2-HR :0.95631: (Sim:0h33m18s) 
CPU  0 inst:  197000004 cyc:  111157974 now IPC :1.81649: AVG IPC :1.76993: L2-Pf-HR :0.99579: L2-HR :0.95634: (Sim:0h33m33s) 
CPU  0 inst:  198000000 cyc:  111712168 now IPC :1.80442: AVG IPC :1.77010: L2-Pf-HR :0.99579: L2-HR :0.95636: (Sim:0h33m49s) 
CPU  0 inst:  199000003 cyc:  112288430 now IPC :1.73533: AVG IPC :1.76992: L2-Pf-HR :0.99578: L2-HR :0.95635: (Sim:0h34m5s) 
CPU  0 inst:  200000001 cyc:  112820474 now IPC :1.87954: AVG IPC :1.77044: L2-Pf-HR :0.99578: L2-HR :0.95632: (Sim:0h34m21s) 
CPU  0 inst:  201000003 cyc:  113393039 now IPC :1.74653: AVG IPC :1.77032: L2-Pf-HR :0.99579: L2-HR :0.95627: (Sim:0h34m36s) 
CPU  0 inst:  202000004 cyc:  114017720 now IPC :1.60082: AVG IPC :1.76938: L2-Pf-HR :0.99580: L2-HR :0.95625: (Sim:0h34m53s) 
CPU  0 inst:  203000003 cyc:  114575053 now IPC :1.79426: AVG IPC :1.76950: L2-Pf-HR :0.99581: L2-HR :0.95629: (Sim:0h35m8s) 
CPU  0 inst:  204000005 cyc:  115124944 now IPC :1.81855: AVG IPC :1.76974: L2-Pf-HR :0.99582: L2-HR :0.95634: (Sim:0h35m24s) 
CPU  0 inst:  205000001 cyc:  115681799 now IPC :1.79579: AVG IPC :1.76987: L2-Pf-HR :0.99581: L2-HR :0.95635: (Sim:0h35m40s) 
CPU  0 inst:  206000000 cyc:  116238460 now IPC :1.79642: AVG IPC :1.76999: L2-Pf-HR :0.99580: L2-HR :0.95636: (Sim:0h35m55s) 
CPU  0 inst:  207000003 cyc:  116801310 now IPC :1.77668: AVG IPC :1.77003: L2-Pf-HR :0.99579: L2-HR :0.95641: (Sim:0h36m11s) 
CPU  0 inst:  208000000 cyc:  117357645 now IPC :1.79747: AVG IPC :1.77016: L2-Pf-HR :0.99578: L2-HR :0.95632: (Sim:0h36m27s) 
CPU  0 inst:  209000005 cyc:  117896943 now IPC :1.85427: AVG IPC :1.77055: L2-Pf-HR :0.99578: L2-HR :0.95632: (Sim:0h36m43s) 
CPU  0 inst:  210000003 cyc:  118563640 now IPC :1.49993: AVG IPC :1.76901: L2-Pf-HR :0.99579: L2-HR :0.95623: (Sim:0h36m59s) 
CPU  0 inst:  211000003 cyc:  119110776 now IPC :1.82770: AVG IPC :1.76928: L2-Pf-HR :0.99580: L2-HR :0.95628: (Sim:0h37m15s) 
CPU  0 inst:  212000001 cyc:  119674514 now IPC :1.77387: AVG IPC :1.76930: L2-Pf-HR :0.99580: L2-HR :0.95632: (Sim:0h37m30s) 
CPU  0 inst:  213000001 cyc:  120220088 now IPC :1.83293: AVG IPC :1.76960: L2-Pf-HR :0.99579: L2-HR :0.95633: (Sim:0h37m46s) 
CPU  0 inst:  214000000 cyc:  120765057 now IPC :1.83496: AVG IPC :1.76989: L2-Pf-HR :0.99578: L2-HR :0.95634: (Sim:0h38m2s) 
CPU  0 inst:  215000005 cyc:  121327484 now IPC :1.77802: AVG IPC :1.76993: L2-Pf-HR :0.99578: L2-HR :0.95638: (Sim:0h38m18s) 
CPU  0 inst:  216000000 cyc:  121895022 now IPC :1.76199: AVG IPC :1.76989: L2-Pf-HR :0.99577: L2-HR :0.95630: (Sim:0h38m33s) 
CPU  0 inst:  217000001 cyc:  122424193 now IPC :1.88975: AVG IPC :1.77042: L2-Pf-HR :0.99577: L2-HR :0.95633: (Sim:0h38m49s) 
CPU  0 inst:  218000000 cyc:  123089707 now IPC :1.50260: AVG IPC :1.76896: L2-Pf-HR :0.99578: L2-HR :0.95621: (Sim:0h39m6s) 
CPU  0 inst:  219000003 cyc:  123629604 now IPC :1.85221: AVG IPC :1.76932: L2-Pf-HR :0.99578: L2-HR :0.95626: (Sim:0h39m21s) 
CPU  0 inst:  220000005 cyc:  124182815 now IPC :1.80763: AVG IPC :1.76950: L2-Pf-HR :0.99578: L2-HR :0.95630: (Sim:0h39m37s) 
CPU  0 inst:  221000001 cyc:  124744225 now IPC :1.78122: AVG IPC :1.76955: L2-Pf-HR :0.99578: L2-HR :0.95632: (Sim:0h39m53s) 
CPU  0 inst:  222000000 cyc:  125288723 now IPC :1.83655: AVG IPC :1.76984: L2-Pf-HR :0.99577: L2-HR :0.95633: (Sim:0h40m9s) 
CPU  0 inst:  223000001 cyc:  125853035 now IPC :1.77207: AVG IPC :1.76985: L2-Pf-HR :0.99578: L2-HR :0.95637: (Sim:0h40m24s) 
CPU  0 inst:  224000002 cyc:  126427413 now IPC :1.74102: AVG IPC :1.76972: L2-Pf-HR :0.99577: L2-HR :0.95631: (Sim:0h40m40s) 
CPU  0 inst:  225000000 cyc:  126951091 now IPC :1.90957: AVG IPC :1.77030: L2-Pf-HR :0.99577: L2-HR :0.95632: (Sim:0h40m55s) 
CPU  0 inst:  226000003 cyc:  127629589 now IPC :1.47385: AVG IPC :1.76871: L2-Pf-HR :0.99578: L2-HR :0.95622: (Sim:0h41m12s) 
CPU  0 inst:  227000005 cyc:  128178388 now IPC :1.82216: AVG IPC :1.76894: L2-Pf-HR :0.99578: L2-HR :0.95626: (Sim:0h41m28s) 
CPU  0 inst:  228000005 cyc:  128739899 now IPC :1.78091: AVG IPC :1.76900: L2-Pf-HR :0.99578: L2-HR :0.95630: (Sim:0h41m41s) 
CPU  0 inst:  229000000 cyc:  129286968 now IPC :1.82791: AVG IPC :1.76925: L2-Pf-HR :0.99578: L2-HR :0.95633: (Sim:0h41m49s) 
CPU  0 inst:  230000000 cyc:  129844626 now IPC :1.79321: AVG IPC :1.76935: L2-Pf-HR :0.99578: L2-HR :0.95633: (Sim:0h41m57s) 
CPU  0 inst:  231000000 cyc:  130403254 now IPC :1.79010: AVG IPC :1.76944: L2-Pf-HR :0.99578: L2-HR :0.95636: (Sim:0h42m5s) 
CPU  0 inst:  232000002 cyc:  130968309 now IPC :1.76974: AVG IPC :1.76944: L2-Pf-HR :0.99577: L2-HR :0.95631: (Sim:0h42m14s) 
CPU  0 inst:  233000003 cyc:  131493628 now IPC :1.90361: AVG IPC :1.76998: L2-Pf-HR :0.99577: L2-HR :0.95632: (Sim:0h42m30s) 
CPU  0 inst:  234000001 cyc:  132161169 now IPC :1.49803: AVG IPC :1.76860: L2-Pf-HR :0.99578: L2-HR :0.95623: (Sim:0h42m47s) 
CPU  0 inst:  235000003 cyc:  132716750 now IPC :1.79992: AVG IPC :1.76873: L2-Pf-HR :0.99579: L2-HR :0.95627: (Sim:0h43m4s) 
CPU  0 inst:  236000005 cyc:  133263416 now IPC :1.82927: AVG IPC :1.76898: L2-Pf-HR :0.99578: L2-HR :0.95629: (Sim:0h43m20s) 
CPU  0 inst:  237000000 cyc:  133801461 now IPC :1.85857: AVG IPC :1.76934: L2-Pf-HR :0.99578: L2-HR :0.95631: (Sim:0h43m36s) 
CPU  0 inst:  238000000 cyc:  134357557 now IPC :1.79825: AVG IPC :1.76946: L2-Pf-HR :0.99578: L2-HR :0.95633: (Sim:0h43m52s) 
CPU  0 inst:  239000003 cyc:  134908423 now IPC :1.81533: AVG IPC :1.76965: L2-Pf-HR :0.99577: L2-HR :0.95633: (Sim:0h44m8s) 
CPU  0 inst:  240000002 cyc:  135476852 now IPC :1.75923: AVG IPC :1.76961: L2-Pf-HR :0.99577: L2-HR :0.95631: (Sim:0h44m24s) 
CPU  0 inst:  241000003 cyc:  136000976 now IPC :1.90795: AVG IPC :1.77015: L2-Pf-HR :0.99577: L2-HR :0.95633: (Sim:0h44m40s) 
CPU  0 inst:  242000004 cyc:  136673121 now IPC :1.48778: AVG IPC :1.76875: L2-Pf-HR :0.99579: L2-HR :0.95624: (Sim:0h44m57s) 
CPU  0 inst:  243000003 cyc:  137225787 now IPC :1.80941: AVG IPC :1.76891: L2-Pf-HR :0.99579: L2-HR :0.95627: (Sim:0h45m14s) 
CPU  0 inst:  244000005 cyc:  137774579 now IPC :1.82219: AVG IPC :1.76913: L2-Pf-HR :0.99579: L2-HR :0.95630: (Sim:0h45m30s) 
CPU  0 inst:  245000001 cyc:  138317550 now IPC :1.84171: AVG IPC :1.76941: L2-Pf-HR :0.99579: L2-HR :0.95633: (Sim:0h45m46s) 
CPU  0 inst:  246000000 cyc:  138872372 now IPC :1.80238: AVG IPC :1.76955: L2-Pf-HR :0.99579: L2-HR :0.95634: (Sim:0h46m2s) 
CPU  0 inst:  247000002 cyc:  139421435 now IPC :1.82129: AVG IPC :1.76975: L2-Pf-HR :0.99578: L2-HR :0.95635: (Sim:0h46m18s) 
CPU  0 inst:  248000001 cyc:  139992722 now IPC :1.75043: AVG IPC :1.76967: L2-Pf-HR :0.99578: L2-HR :0.95632: (Sim:0h46m35s) 
CPU  0 inst:  249000005 cyc:  140515219 now IPC :1.91389: AVG IPC :1.77021: L2-Pf-HR :0.99578: L2-HR :0.95633: (Sim:0h46m51s) 
CPU  0 inst:  250000004 cyc:  141184582 now IPC :1.49396: AVG IPC :1.76889: L2-Pf-HR :0.99579: L2-HR :0.95624: (Sim:0h47m8s) 
CPU  0 inst:  251000003 cyc:  141738501 now IPC :1.80532: AVG IPC :1.76904: L2-Pf-HR :0.99579: L2-HR :0.95627: (Sim:0h47m24s) 
CPU  0 inst:  252000000 cyc:  142283199 now IPC :1.83587: AVG IPC :1.76929: L2-Pf-HR :0.99579: L2-HR :0.95630: (Sim:0h47m40s) 
CPU  0 inst:  253000003 cyc:  142827486 now IPC :1.83727: AVG IPC :1.76955: L2-Pf-HR :0.99579: L2-HR :0.95632: (Sim:0h47m56s) 
CPU  0 inst:  254000003 cyc:  143379503 now IPC :1.81154: AVG IPC :1.76972: L2-Pf-HR :0.99579: L2-HR :0.95633: (Sim:0h48m13s) 
CPU  0 inst:  255000000 cyc:  143936497 now IPC :1.79535: AVG IPC :1.76982: L2-Pf-HR :0.99579: L2-HR :0.95635: (Sim:0h48m26s) 
CPU  0 inst:  256000001 cyc:  144510613 now IPC :1.74181: AVG IPC :1.76970: L2-Pf-HR :0.99578: L2-HR :0.95632: (Sim:0h48m33s) 
CPU  0 inst:  257000005 cyc:  145034007 now IPC :1.91061: AVG IPC :1.77022: L2-Pf-HR :0.99578: L2-HR :0.95633: (Sim:0h48m41s) 
CPU  0 inst:  258000000 cyc:  149129019 now IPC :0.24420: AVG IPC :1.72803: L2-Pf-HR :0.99572: L2-HR :0.95262: (Sim:0h49m2s) 
CPU  0 inst:  259000002 cyc:  154519861 now IPC :0.18550: AVG IPC :1.67387: L2-Pf-HR :0.99565: L2-HR :0.94793: (Sim:0h49m34s) 
CPU  0 inst:  260000004 cyc:  159912712 now IPC :0.18543: AVG IPC :1.62337: L2-Pf-HR :0.99557: L2-HR :0.94333: (Sim:0h50m1s) 
CPU  0 inst:  261000004 cyc:  165310019 now IPC :0.18528: AVG IPC :1.57613: L2-Pf-HR :0.99550: L2-HR :0.93883: (Sim:0h50m29s) 
CPU  0 inst:  262000001 cyc:  170614928 now IPC :0.18850: AVG IPC :1.53274: L2-Pf-HR :0.99543: L2-HR :0.93454: (Sim:0h50m55s) 
CPU  0 inst:  263000003 cyc:  174409434 now IPC :0.26354: AVG IPC :1.50497: L2-Pf-HR :0.99523: L2-HR :0.93389: (Sim:0h51m13s) 
CPU  0 inst:  264000001 cyc:  178198256 now IPC :0.26393: AVG IPC :1.47843: L2-Pf-HR :0.99504: L2-HR :0.93323: (Sim:0h51m31s) 
CPU  0 inst:  265000003 cyc:  181984735 now IPC :0.26410: AVG IPC :1.45303: L2-Pf-HR :0.99485: L2-HR :0.93258: (Sim:0h51m47s) 
CPU  0 inst:  266000003 cyc:  185768997 now IPC :0.26425: AVG IPC :1.42869: L2-Pf-HR :0.99465: L2-HR :0.93193: (Sim:0h52m3s) 
CPU  0 inst:  267000002 cyc:  189551824 now IPC :0.26435: AVG IPC :1.40533: L2-Pf-HR :0.99446: L2-HR :0.93128: (Sim:0h52m18s) 
CPU  0 inst:  268000002 cyc:  193334230 now IPC :0.26438: AVG IPC :1.38289: L2-Pf-HR :0.99427: L2-HR :0.93063: (Sim:0h52m34s) 
CPU  0 inst:  269000001 cyc:  197118127 now IPC :0.26428: AVG IPC :1.36131: L2-Pf-HR :0.99408: L2-HR :0.92998: (Sim:0h52m50s) 
CPU  0 inst:  270000000 cyc:  200903570 now IPC :0.26417: AVG IPC :1.34054: L2-Pf-HR :0.99388: L2-HR :0.92933: (Sim:0h53m6s) 
CPU  0 inst:  271000001 cyc:  204689589 now IPC :0.26413: AVG IPC :1.32053: L2-Pf-HR :0.99369: L2-HR :0.92869: (Sim:0h53m22s) 
CPU  0 inst:  272000000 cyc:  208470157 now IPC :0.26451: AVG IPC :1.30129: L2-Pf-HR :0.99350: L2-HR :0.92805: (Sim:0h53m38s) 
CPU  0 inst:  273000003 cyc:  212253645 now IPC :0.26431: AVG IPC :1.28272: L2-Pf-HR :0.99330: L2-HR :0.92741: (Sim:0h53m54s) 
CPU  0 inst:  274000003 cyc:  216037896 now IPC :0.26425: AVG IPC :1.26480: L2-Pf-HR :0.99311: L2-HR :0.92677: (Sim:0h54m9s) 
CPU  0 inst:  275000002 cyc:  219823222 now IPC :0.26418: AVG IPC :1.24749: L2-Pf-HR :0.99292: L2-HR :0.92613: (Sim:0h54m41s) 
CPU  0 inst:  276000002 cyc:  223603623 now IPC :0.26452: AVG IPC :1.23080: L2-Pf-HR :0.99273: L2-HR :0.92549: (Sim:0h55m15s) 
CPU  0 inst:  277000001 cyc:  227388572 now IPC :0.26420: AVG IPC :1.21464: L2-Pf-HR :0.99253: L2-HR :0.92486: (Sim:0h55m49s) 
CPU  0 inst:  278000000 cyc:  231171613 now IPC :0.26434: AVG IPC :1.19902: L2-Pf-HR :0.99234: L2-HR :0.92423: (Sim:0h56m23s) 
CPU  0 inst:  279000000 cyc:  234951724 now IPC :0.26454: AVG IPC :1.18392: L2-Pf-HR :0.99215: L2-HR :0.92359: (Sim:0h56m57s) 
CPU  0 inst:  280000003 cyc:  238733039 now IPC :0.26446: AVG IPC :1.16930: L2-Pf-HR :0.99196: L2-HR :0.92296: (Sim:0h57m31s) 
CPU  0 inst:  281000003 cyc:  242514113 now IPC :0.26448: AVG IPC :1.15513: L2-Pf-HR :0.99176: L2-HR :0.92234: (Sim:0h58m5s) 
CPU  0 inst:  282000001 cyc:  246293743 now IPC :0.26458: AVG IPC :1.14141: L2-Pf-HR :0.99157: L2-HR :0.92171: (Sim:0h58m39s) 
CPU  0 inst:  283000005 cyc:  250076758 now IPC :0.26434: AVG IPC :1.12809: L2-Pf-HR :0.99138: L2-HR :0.92108: (Sim:0h59m13s) 
CPU  0 inst:  284000002 cyc:  253860322 now IPC :0.26430: AVG IPC :1.11517: L2-Pf-HR :0.99119: L2-HR :0.92046: (Sim:0h59m47s) 
CPU  0 inst:  285000001 cyc:  257643334 now IPC :0.26434: AVG IPC :1.10263: L2-Pf-HR :0.99100: L2-HR :0.91984: (Sim:1h0m21s) 
CPU  0 inst:  286000000 cyc:  261426476 now IPC :0.26433: AVG IPC :1.09045: L2-Pf-HR :0.99080: L2-HR :0.91922: (Sim:1h0m56s) 
CPU  0 inst:  287000000 cyc:  265208806 now IPC :0.26439: AVG IPC :1.07863: L2-Pf-HR :0.99061: L2-HR :0.91860: (Sim:1h1m30s) 
CPU  0 inst:  288000000 cyc:  268991399 now IPC :0.26437: AVG IPC :1.06713: L2-Pf-HR :0.99042: L2-HR :0.91798: (Sim:1h2m4s) 
CPU  0 inst:  289000001 cyc:  272777324 now IPC :0.26414: AVG IPC :1.05595: L2-Pf-HR :0.99023: L2-HR :0.91736: (Sim:1h2m38s) 
CPU  0 inst:  290000003 cyc:  276560674 now IPC :0.26432: AVG IPC :1.04508: L2-Pf-HR :0.99004: L2-HR :0.91675: (Sim:1h3m12s) 
CPU  0 inst:  291000003 cyc:  280344557 now IPC :0.26428: AVG IPC :1.03450: L2-Pf-HR :0.98985: L2-HR :0.91614: (Sim:1h3m47s) 
CPU  0 inst:  292000002 cyc:  284125354 now IPC :0.26449: AVG IPC :1.02422: L2-Pf-HR :0.98965: L2-HR :0.91552: (Sim:1h4m22s) 
CPU  0 inst:  293000001 cyc:  287908308 now IPC :0.26434: AVG IPC :1.01420: L2-Pf-HR :0.98946: L2-HR :0.91491: (Sim:1h4m58s) 
CPU  0 inst:  294000000 cyc:  291690774 now IPC :0.26438: AVG IPC :1.00445: L2-Pf-HR :0.98927: L2-HR :0.91430: (Sim:1h5m34s) 
CPU  0 inst:  295000000 cyc:  295474597 now IPC :0.26428: AVG IPC :0.99494: L2-Pf-HR :0.98908: L2-HR :0.91370: (Sim:1h6m9s) 
CPU  0 inst:  296000000 cyc:  299260982 now IPC :0.26410: AVG IPC :0.98566: L2-Pf-HR :0.98889: L2-HR :0.91309: (Sim:1h6m45s) 
CPU  0 inst:  297000001 cyc:  303043113 now IPC :0.26440: AVG IPC :0.97663: L2-Pf-HR :0.98870: L2-HR :0.91249: (Sim:1h7m21s) 
CPU  0 inst:  298000003 cyc:  306826455 now IPC :0.26432: AVG IPC :0.96782: L2-Pf-HR :0.98851: L2-HR :0.91188: (Sim:1h7m56s) 
CPU  0 inst:  299000003 cyc:  310610277 now IPC :0.26428: AVG IPC :0.95922: L2-Pf-HR :0.98832: L2-HR :0.91128: (Sim:1h8m32s) 
CPU  0 inst:  300000003 cyc:  314393608 now IPC :0.26432: AVG IPC :0.95083: L2-Pf-HR :0.98813: L2-HR :0.91068: (Sim:1h9m7s) 
CPU  0 inst:  301000002 cyc:  318175940 now IPC :0.26439: AVG IPC :0.94265: L2-Pf-HR :0.98794: L2-HR :0.91008: (Sim:1h9m43s) 
CPU  0 inst:  302000000 cyc:  321960909 now IPC :0.26420: AVG IPC :0.93465: L2-Pf-HR :0.98775: L2-HR :0.90948: (Sim:1h10m19s) 
CPU  0 inst:  303000000 cyc:  325741829 now IPC :0.26449: AVG IPC :0.92684: L2-Pf-HR :0.98756: L2-HR :0.90889: (Sim:1h10m54s) 
CPU  0 inst:  304000000 cyc:  329524592 now IPC :0.26436: AVG IPC :0.91922: L2-Pf-HR :0.98737: L2-HR :0.90829: (Sim:1h11m30s) 
CPU  0 inst:  305000001 cyc:  333310053 now IPC :0.26417: AVG IPC :0.91175: L2-Pf-HR :0.98718: L2-HR :0.90770: (Sim:1h11m48s) 
CPU  0 inst:  306000003 cyc:  337092846 now IPC :0.26436: AVG IPC :0.90447: L2-Pf-HR :0.98699: L2-HR :0.90711: (Sim:1h12m3s) 
CPU  0 inst:  307000003 cyc:  340877872 now IPC :0.26420: AVG IPC :0.89734: L2-Pf-HR :0.98680: L2-HR :0.90652: (Sim:1h12m19s) 
CPU  0 inst:  308000002 cyc:  344658654 now IPC :0.26450: AVG IPC :0.89038: L2-Pf-HR :0.98661: L2-HR :0.90593: (Sim:1h12m34s) 
CPU  0 inst:  309000002 cyc:  348442295 now IPC :0.26430: AVG IPC :0.88356: L2-Pf-HR :0.98642: L2-HR :0.90534: (Sim:1h12m50s) 
CPU  0 inst:  310000003 cyc:  352224479 now IPC :0.26440: AVG IPC :0.87689: L2-Pf-HR :0.98622: L2-HR :0.90475: (Sim:1h13m5s) 
CPU  0 inst:  311000002 cyc:  356005115 now IPC :0.26451: AVG IPC :0.87037: L2-Pf-HR :0.98604: L2-HR :0.90417: (Sim:1h13m21s) 
CPU  0 inst:  312000003 cyc:  359785714 now IPC :0.26451: AVG IPC :0.86399: L2-Pf-HR :0.98585: L2-HR :0.90359: (Sim:1h13m36s) 
CPU  0 inst:  313000001 cyc:  363568776 now IPC :0.26434: AVG IPC :0.85773: L2-Pf-HR :0.98566: L2-HR :0.90300: (Sim:1h13m52s) 
CPU  0 inst:  314000003 cyc:  367354716 now IPC :0.26414: AVG IPC :0.85160: L2-Pf-HR :0.98547: L2-HR :0.90242: (Sim:1h14m7s) 
CPU  0 inst:  315000003 cyc:  371135554 now IPC :0.26449: AVG IPC :0.84560: L2-Pf-HR :0.98528: L2-HR :0.90184: (Sim:1h14m22s) 
CPU  0 inst:  316000000 cyc:  374920568 now IPC :0.26420: AVG IPC :0.83971: L2-Pf-HR :0.98509: L2-HR :0.90127: (Sim:1h14m38s) 
CPU  0 inst:  317000002 cyc:  378706049 now IPC :0.26417: AVG IPC :0.83395: L2-Pf-HR :0.98490: L2-HR :0.90069: (Sim:1h14m53s) 
CPU  0 inst:  318000001 cyc:  382488759 now IPC :0.26436: AVG IPC :0.82830: L2-Pf-HR :0.98471: L2-HR :0.90011: (Sim:1h15m9s) 
CPU  0 inst:  319000000 cyc:  386271394 now IPC :0.26437: AVG IPC :0.82276: L2-Pf-HR :0.98452: L2-HR :0.89954: (Sim:1h15m24s) 
CPU  0 inst:  320000003 cyc:  390054163 now IPC :0.26436: AVG IPC :0.81733: L2-Pf-HR :0.98433: L2-HR :0.89897: (Sim:1h15m39s) 
CPU  0 inst:  321000000 cyc:  393835637 now IPC :0.26445: AVG IPC :0.81201: L2-Pf-HR :0.98414: L2-HR :0.89840: (Sim:1h15m55s) 
CPU  0 inst:  322000001 cyc:  397622201 now IPC :0.26409: AVG IPC :0.80678: L2-Pf-HR :0.98395: L2-HR :0.89782: (Sim:1h16m14s) 
CPU  0 inst:  323000003 cyc:  401406352 now IPC :0.26426: AVG IPC :0.80165: L2-Pf-HR :0.98376: L2-HR :0.89726: (Sim:1h16m48s) 
CPU  0 inst:  324000002 cyc:  405186214 now IPC :0.26456: AVG IPC :0.79663: L2-Pf-HR :0.98357: L2-HR :0.89669: (Sim:1h17m23s) 
CPU  0 inst:  325000002 cyc:  408969366 now IPC :0.26433: AVG IPC :0.79169: L2-Pf-HR :0.98338: L2-HR :0.89612: (Sim:1h17m57s) 
CPU  0 inst:  326000001 cyc:  412753216 now IPC :0.26428: AVG IPC :0.78685: L2-Pf-HR :0.98320: L2-HR :0.89556: (Sim:1h18m31s) 
CPU  0 inst:  327000005 cyc:  414522926 now IPC :0.56507: AVG IPC :0.78590: L2-Pf-HR :0.98315: L2-HR :0.89523: (Sim:1h18m57s) 
CPU  0 inst:  328000003 cyc:  415045370 now IPC :1.91408: AVG IPC :0.78732: L2-Pf-HR :0.98324: L2-HR :0.89559: (Sim:1h19m16s) 
CPU  0 inst:  329000003 cyc:  415645174 now IPC :1.66721: AVG IPC :0.78860: L2-Pf-HR :0.98332: L2-HR :0.89596: (Sim:1h19m24s) 
CPU  0 inst:  330000002 cyc:  416249137 now IPC :1.65573: AVG IPC :0.78986: L2-Pf-HR :0.98339: L2-HR :0.89617: (Sim:1h19m33s) 
CPU  0 inst:  331000004 cyc:  416724983 now IPC :2.10152: AVG IPC :0.79136: L2-Pf-HR :0.98348: L2-HR :0.89659: (Sim:1h19m42s) 
CPU  0 inst:  332000000 cyc:  417253903 now IPC :1.89064: AVG IPC :0.79275: L2-Pf-HR :0.98357: L2-HR :0.89700: (Sim:1h19m50s) 
CPU  0 inst:  333000000 cyc:  417779537 now IPC :1.90246: AVG IPC :0.79415: L2-Pf-HR :0.98365: L2-HR :0.89728: (Sim:1h19m59s) 
CPU  0 inst:  334000002 cyc:  418268113 now IPC :2.04677: AVG IPC :0.79562: L2-Pf-HR :0.98373: L2-HR :0.89766: (Sim:1h20m8s) 
CPU  0 inst:  335000005 cyc:  418950475 now IPC :1.46550: AVG IPC :0.79671: L2-Pf-HR :0.98378: L2-HR :0.89781: (Sim:1h20m16s) 
CPU  0 inst:  336000003 cyc:  419483169 now IPC :1.87725: AVG IPC :0.79809: L2-Pf-HR :0.98387: L2-HR :0.89817: (Sim:1h20m25s) 
CPU  0 inst:  337000003 cyc:  420020869 now IPC :1.85977: AVG IPC :0.79945: L2-Pf-HR :0.98396: L2-HR :0.89856: (Sim:1h20m34s) 
CPU  0 inst:  338000000 cyc:  420665348 now IPC :1.55164: AVG IPC :0.80061: L2-Pf-HR :0.98402: L2-HR :0.89871: (Sim:1h20m43s) 
CPU  0 inst:  339000003 cyc:  421133599 now IPC :2.13561: AVG IPC :0.80209: L2-Pf-HR :0.98410: L2-HR :0.89910: (Sim:1h20m51s) 
CPU  0 inst:  340000004 cyc:  421600411 now IPC :2.14219: AVG IPC :0.80358: L2-Pf-HR :0.98419: L2-HR :0.89950: (Sim:1h20m59s) 
CPU  0 inst:  341000000 cyc:  422099805 now IPC :2.00242: AVG IPC :0.80500: L2-Pf-HR :0.98427: L2-HR :0.89987: (Sim:1h21m6s) 
CPU  0 inst:  342000003 cyc:  422632415 now IPC :1.87755: AVG IPC :0.80636: L2-Pf-HR :0.98434: L2-HR :0.90012: (Sim:1h21m15s) 
CPU  0 inst:  343000005 cyc:  423122548 now IPC :2.04027: AVG IPC :0.80779: L2-Pf-HR :0.98441: L2-HR :0.90046: (Sim:1h21m23s) 
CPU  0 inst:  344000004 cyc:  423738448 now IPC :1.62364: AVG IPC :0.80898: L2-Pf-HR :0.98446: L2-HR :0.90060: (Sim:1h21m31s) 
CPU  0 inst:  345000001 cyc:  424254610 now IPC :1.93737: AVG IPC :0.81036: L2-Pf-HR :0.98454: L2-HR :0.90092: (Sim:1h21m40s) 
CPU  0 inst:  346000004 cyc:  424813083 now IPC :1.79060: AVG IPC :0.81165: L2-Pf-HR :0.98461: L2-HR :0.90125: (Sim:1h21m48s) 
CPU  0 inst:  347000001 cyc:  425385360 now IPC :1.74740: AVG IPC :0.81291: L2-Pf-HR :0.98466: L2-HR :0.90144: (Sim:1h21m56s) 
CPU  0 inst:  348000004 cyc:  425853106 now IPC :2.13792: AVG IPC :0.81437: L2-Pf-HR :0.98474: L2-HR :0.90183: (Sim:1h22m5s) 
CPU  0 inst:  349000004 cyc:  426366433 now IPC :1.94808: AVG IPC :0.81574: L2-Pf-HR :0.98481: L2-HR :0.90217: (Sim:1h22m13s) 
CPU  0 inst:  350000003 cyc:  426882053 now IPC :1.93941: AVG IPC :0.81710: L2-Pf-HR :0.98488: L2-HR :0.90241: (Sim:1h22m21s) 
CPU  0 inst:  351000003 cyc:  427360133 now IPC :2.09170: AVG IPC :0.81853: L2-Pf-HR :0.98494: L2-HR :0.90274: (Sim:1h22m29s) 
CPU  0 inst:  352000005 cyc:  427989246 now IPC :1.58954: AVG IPC :0.81966: L2-Pf-HR :0.98498: L2-HR :0.90285: (Sim:1h22m37s) 
CPU  0 inst:  353000005 cyc:  428516877 now IPC :1.89526: AVG IPC :0.82099: L2-Pf-HR :0.98505: L2-HR :0.90315: (Sim:1h22m46s) 
CPU  0 inst:  354000001 cyc:  429029388 now IPC :1.95117: AVG IPC :0.82234: L2-Pf-HR :0.98512: L2-HR :0.90351: (Sim:1h22m54s) 
CPU  0 inst:  355000001 cyc:  429643151 now IPC :1.62929: AVG IPC :0.82350: L2-Pf-HR :0.98516: L2-HR :0.90361: (Sim:1h23m2s) 
CPU  0 inst:  356000004 cyc:  430112449 now IPC :2.13085: AVG IPC :0.82493: L2-Pf-HR :0.98523: L2-HR :0.90395: (Sim:1h23m11s) 
CPU  0 inst:  357000000 cyc:  430582741 now IPC :2.12633: AVG IPC :0.82635: L2-Pf-HR :0.98530: L2-HR :0.90429: (Sim:1h23m19s) 
CPU  0 inst:  358000001 cyc:  431099270 now IPC :1.93600: AVG IPC :0.82768: L2-Pf-HR :0.98537: L2-HR :0.90458: (Sim:1h23m26s) 
CPU  0 inst:  359000000 cyc:  431610332 now IPC :1.95671: AVG IPC :0.82902: L2-Pf-HR :0.98543: L2-HR :0.90482: (Sim:1h23m35s) 
CPU  0 inst:  360000000 cyc:  432102243 now IPC :2.03289: AVG IPC :0.83040: L2-Pf-HR :0.98549: L2-HR :0.90512: (Sim:1h23m42s) 
CPU  0 inst:  361000004 cyc:  432723307 now IPC :1.61015: AVG IPC :0.83152: L2-Pf-HR :0.98552: L2-HR :0.90523: (Sim:1h23m51s) 
CPU  0 inst:  362000001 cyc:  433243511 now IPC :1.92232: AVG IPC :0.83283: L2-Pf-HR :0.98559: L2-HR :0.90550: (Sim:1h24m0s) 
CPU  0 inst:  363000002 cyc:  433792168 now IPC :1.82263: AVG IPC :0.83409: L2-Pf-HR :0.98565: L2-HR :0.90578: (Sim:1h24m7s) 
CPU  0 inst:  364000004 cyc:  434349952 now IPC :1.79281: AVG IPC :0.83532: L2-Pf-HR :0.98569: L2-HR :0.90595: (Sim:1h24m16s) 
CPU  0 inst:  365000000 cyc:  434817352 now IPC :2.13949: AVG IPC :0.83673: L2-Pf-HR :0.98576: L2-HR :0.90628: (Sim:1h24m24s) 
CPU  0 inst:  366000000 cyc:  435326759 now IPC :1.96307: AVG IPC :0.83805: L2-Pf-HR :0.98582: L2-HR :0.90659: (Sim:1h24m32s) 
CPU  0 inst:  367000005 cyc:  435844553 now IPC :1.93128: AVG IPC :0.83935: L2-Pf-HR :0.98588: L2-HR :0.90679: (Sim:1h24m40s) 
CPU  0 inst:  368000003 cyc:  436333751 now IPC :2.04416: AVG IPC :0.84070: L2-Pf-HR :0.98594: L2-HR :0.90710: (Sim:1h24m48s) 
CPU  0 inst:  369000000 cyc:  436960002 now IPC :1.59680: AVG IPC :0.84179: L2-Pf-HR :0.98597: L2-HR :0.90716: (Sim:1h24m56s) 
CPU  0 inst:  370000002 cyc:  437479333 now IPC :1.92556: AVG IPC :0.84308: L2-Pf-HR :0.98603: L2-HR :0.90744: (Sim:1h25m5s) 
CPU  0 inst:  371000004 cyc:  438034417 now IPC :1.80153: AVG IPC :0.84430: L2-Pf-HR :0.98609: L2-HR :0.90771: (Sim:1h25m13s) 
CPU  0 inst:  372000004 cyc:  438612098 now IPC :1.73106: AVG IPC :0.84547: L2-Pf-HR :0.98613: L2-HR :0.90783: (Sim:1h25m22s) 
CPU  0 inst:  373000004 cyc:  439081259 now IPC :2.13146: AVG IPC :0.84684: L2-Pf-HR :0.98619: L2-HR :0.90814: (Sim:1h25m30s) 
CPU  0 inst:  374000000 cyc:  439560713 now IPC :2.08570: AVG IPC :0.84820: L2-Pf-HR :0.98626: L2-HR :0.90846: (Sim:1h25m38s) 
CPU  0 inst:  375000001 cyc:  440096373 now IPC :1.86686: AVG IPC :0.84944: L2-Pf-HR :0.98631: L2-HR :0.90864: (Sim:1h25m46s) 
CPU  0 inst:  376000003 cyc:  440570490 now IPC :2.10919: AVG IPC :0.85080: L2-Pf-HR :0.98637: L2-HR :0.90892: (Sim:1h25m54s) 
CPU  0 inst:  377000004 cyc:  441061428 now IPC :2.03692: AVG IPC :0.85212: L2-Pf-HR :0.98642: L2-HR :0.90917: (Sim:1h26m2s) 
CPU  0 inst:  378000003 cyc:  441693878 now IPC :1.58115: AVG IPC :0.85317: L2-Pf-HR :0.98645: L2-HR :0.90926: (Sim:1h26m11s) 
CPU  0 inst:  379000004 cyc:  442207093 now IPC :1.94850: AVG IPC :0.85444: L2-Pf-HR :0.98651: L2-HR :0.90952: (Sim:1h26m19s) 
CPU  0 inst:  380000003 cyc:  442755526 now IPC :1.82337: AVG IPC :0.85565: L2-Pf-HR :0.98657: L2-HR :0.90977: (Sim:1h26m27s) 
CPU  0 inst:  381000003 cyc:  443324003 now IPC :1.75909: AVG IPC :0.85681: L2-Pf-HR :0.98661: L2-HR :0.90993: (Sim:1h26m35s) 
CPU  0 inst:  382000000 cyc:  443803457 now IPC :2.08570: AVG IPC :0.85814: L2-Pf-HR :0.98667: L2-HR :0.91022: (Sim:1h26m44s) 
CPU  0 inst:  383000003 cyc:  444302693 now IPC :2.00307: AVG IPC :0.85943: L2-Pf-HR :0.98673: L2-HR :0.91049: (Sim:1h26m52s) 
CPU  0 inst:  384000005 cyc:  444825005 now IPC :1.91457: AVG IPC :0.86067: L2-Pf-HR :0.98678: L2-HR :0.91066: (Sim:1h27m0s) 
CPU  0 inst:  385000002 cyc:  445322602 now IPC :2.00965: AVG IPC :0.86195: L2-Pf-HR :0.98683: L2-HR :0.91093: (Sim:1h27m8s) 
CPU  0 inst:  386000000 cyc:  445938210 now IPC :1.62441: AVG IPC :0.86301: L2-Pf-HR :0.98684: L2-HR :0.91099: (Sim:1h27m16s) 
CPU  0 inst:  387000005 cyc:  446451571 now IPC :1.94796: AVG IPC :0.86426: L2-Pf-HR :0.98690: L2-HR :0.91123: (Sim:1h27m25s) 
CPU  0 inst:  388000000 cyc:  447010884 now IPC :1.78790: AVG IPC :0.86542: L2-Pf-HR :0.98695: L2-HR :0.91147: (Sim:1h27m33s) 
CPU  0 inst:  389000004 cyc:  447582215 now IPC :1.75031: AVG IPC :0.86655: L2-Pf-HR :0.98698: L2-HR :0.91157: (Sim:1h27m41s) 
CPU  0 inst:  390000001 cyc:  448052326 now IPC :2.12715: AVG IPC :0.86788: L2-Pf-HR :0.98703: L2-HR :0.91185: (Sim:1h27m50s) 
CPU  0 inst:  391000004 cyc:  448542349 now IPC :2.04073: AVG IPC :0.86916: L2-Pf-HR :0.98709: L2-HR :0.91215: (Sim:1h27m58s) 
CPU  0 inst:  392000001 cyc:  449078560 now IPC :1.86493: AVG IPC :0.87035: L2-Pf-HR :0.98713: L2-HR :0.91228: (Sim:1h28m6s) 
CPU  0 inst:  393000003 cyc:  449552146 now IPC :2.11155: AVG IPC :0.87166: L2-Pf-HR :0.98718: L2-HR :0.91252: (Sim:1h28m14s) 
CPU  0 inst:  394000002 cyc:  450079248 now IPC :1.89716: AVG IPC :0.87287: L2-Pf-HR :0.98722: L2-HR :0.91272: (Sim:1h28m22s) 
CPU  0 inst:  395000000 cyc:  450678281 now IPC :1.66935: AVG IPC :0.87393: L2-Pf-HR :0.98725: L2-HR :0.91282: (Sim:1h28m31s) 
CPU  0 inst:  396000000 cyc:  451194536 now IPC :1.93703: AVG IPC :0.87515: L2-Pf-HR :0.98730: L2-HR :0.91304: (Sim:1h28m39s) 
CPU  0 inst:  397000003 cyc:  451739259 now IPC :1.83580: AVG IPC :0.87631: L2-Pf-HR :0.98735: L2-HR :0.91326: (Sim:1h28m47s) 
CPU  0 inst:  398000002 cyc:  452300391 now IPC :1.78211: AVG IPC :0.87743: L2-Pf-HR :0.98738: L2-HR :0.91339: (Sim:1h28m56s) 
CPU  0 inst:  399000003 cyc:  452782421 now IPC :2.07456: AVG IPC :0.87871: L2-Pf-HR :0.98743: L2-HR :0.91363: (Sim:1h29m5s) 
CPU  0 inst:  400000000 cyc:  453282085 now IPC :2.00134: AVG IPC :0.87995: L2-Pf-HR :0.98748: L2-HR :0.91388: (Sim:1h29m12s) 
CPU  0 inst:  401000001 cyc:  453805586 now IPC :1.91022: AVG IPC :0.88114: L2-Pf-HR :0.98752: L2-HR :0.91403: (Sim:1h29m21s) 
CPU  0 inst:  402000005 cyc:  454303687 now IPC :2.00763: AVG IPC :0.88238: L2-Pf-HR :0.98757: L2-HR :0.91426: (Sim:1h29m29s) 
CPU  0 inst:  403000000 cyc:  454928394 now IPC :1.60074: AVG IPC :0.88337: L2-Pf-HR :0.98759: L2-HR :0.91431: (Sim:1h29m38s) 
CPU  0 inst:  404000004 cyc:  455427955 now IPC :2.00177: AVG IPC :0.88460: L2-Pf-HR :0.98764: L2-HR :0.91453: (Sim:1h29m46s) 
CPU  0 inst:  405000001 cyc:  455991782 now IPC :1.77359: AVG IPC :0.88570: L2-Pf-HR :0.98768: L2-HR :0.91474: (Sim:1h29m54s) 
CPU  0 inst:  406000004 cyc:  456560303 now IPC :1.75896: AVG IPC :0.88679: L2-Pf-HR :0.98772: L2-HR :0.91483: (Sim:1h30m2s) 
CPU  0 inst:  407000002 cyc:  457040900 now IPC :2.08074: AVG IPC :0.88805: L2-Pf-HR :0.98777: L2-HR :0.91509: (Sim:1h30m11s) 
CPU  0 inst:  408000003 cyc:  457548305 now IPC :1.97081: AVG IPC :0.88925: L2-Pf-HR :0.98782: L2-HR :0.91533: (Sim:1h30m19s) 
CPU  0 inst:  409000005 cyc:  458059828 now IPC :1.95495: AVG IPC :0.89044: L2-Pf-HR :0.98786: L2-HR :0.91547: (Sim:1h30m27s) 
CPU  0 inst:  410000004 cyc:  458541427 now IPC :2.07641: AVG IPC :0.89169: L2-Pf-HR :0.98790: L2-HR :0.91569: (Sim:1h30m36s) 
CPU  0 inst:  411000002 cyc:  459120599 now IPC :1.72660: AVG IPC :0.89275: L2-Pf-HR :0.98792: L2-HR :0.91578: (Sim:1h30m43s) 
CPU  0 inst:  412000005 cyc:  459667147 now IPC :1.82967: AVG IPC :0.89386: L2-Pf-HR :0.98796: L2-HR :0.91595: (Sim:1h30m53s) 
CPU  0 inst:  413000001 cyc:  460183279 now IPC :1.93748: AVG IPC :0.89504: L2-Pf-HR :0.98800: L2-HR :0.91615: (Sim:1h31m1s) 
CPU  0 inst:  414000004 cyc:  460732823 now IPC :1.81970: AVG IPC :0.89614: L2-Pf-HR :0.98805: L2-HR :0.91635: (Sim:1h31m9s) 
CPU  0 inst:  415000000 cyc:  461293307 now IPC :1.78417: AVG IPC :0.89722: L2-Pf-HR :0.98808: L2-HR :0.91646: (Sim:1h31m18s) 
CPU  0 inst:  416000000 cyc:  461761936 now IPC :2.13388: AVG IPC :0.89848: L2-Pf-HR :0.98812: L2-HR :0.91670: (Sim:1h31m26s) 
CPU  0 inst:  417000005 cyc:  462262615 now IPC :1.99730: AVG IPC :0.89967: L2-Pf-HR :0.98816: L2-HR :0.91692: (Sim:1h31m34s) 
CPU  0 inst:  418000001 cyc:  462785302 now IPC :1.91318: AVG IPC :0.90082: L2-Pf-HR :0.98820: L2-HR :0.91705: (Sim:1h31m42s) 
CPU  0 inst:  419000005 cyc:  463282369 now IPC :2.01181: AVG IPC :0.90201: L2-Pf-HR :0.98824: L2-HR :0.91726: (Sim:1h31m50s) 
CPU  0 inst:  420000005 cyc:  463901232 now IPC :1.61587: AVG IPC :0.90297: L2-Pf-HR :0.98826: L2-HR :0.91730: (Sim:1h31m59s) 
CPU  0 inst:  421000004 cyc:  464401721 now IPC :1.99804: AVG IPC :0.90415: L2-Pf-HR :0.98830: L2-HR :0.91750: (Sim:1h32m7s) 
CPU  0 inst:  422000002 cyc:  464968267 now IPC :1.76508: AVG IPC :0.90520: L2-Pf-HR :0.98834: L2-HR :0.91768: (Sim:1h32m15s) 
CPU  0 inst:  423000000 cyc:  465530782 now IPC :1.77773: AVG IPC :0.90626: L2-Pf-HR :0.98836: L2-HR :0.91776: (Sim:1h32m23s) 
CPU  0 inst:  424000001 cyc:  466010141 now IPC :2.08612: AVG IPC :0.90748: L2-Pf-HR :0.98840: L2-HR :0.91799: (Sim:1h32m32s) 
CPU  0 inst:  425000002 cyc:  466519375 now IPC :1.96374: AVG IPC :0.90863: L2-Pf-HR :0.98844: L2-HR :0.91820: (Sim:1h32m40s) 
CPU  0 inst:  426000001 cyc:  467025415 now IPC :1.97613: AVG IPC :0.90979: L2-Pf-HR :0.98848: L2-HR :0.91833: (Sim:1h32m48s) 
CPU  0 inst:  427000001 cyc:  467506242 now IPC :2.07975: AVG IPC :0.91100: L2-Pf-HR :0.98852: L2-HR :0.91853: (Sim:1h32m56s) 
CPU  0 inst:  428000001 cyc:  468116333 now IPC :1.63910: AVG IPC :0.91195: L2-Pf-HR :0.98854: L2-HR :0.91857: (Sim:1h33m4s) 
CPU  0 inst:  429000000 cyc:  468638658 now IPC :1.91451: AVG IPC :0.91307: L2-Pf-HR :0.98858: L2-HR :0.91876: (Sim:1h33m12s) 
CPU  0 inst:  430000003 cyc:  469157174 now IPC :1.92859: AVG IPC :0.91419: L2-Pf-HR :0.98861: L2-HR :0.91893: (Sim:1h33m21s) 
CPU  0 inst:  431000000 cyc:  469716498 now IPC :1.78787: AVG IPC :0.91523: L2-Pf-HR :0.98865: L2-HR :0.91910: (Sim:1h33m28s) 
CPU  0 inst:  432000002 cyc:  470263503 now IPC :1.82814: AVG IPC :0.91630: L2-Pf-HR :0.98867: L2-HR :0.91922: (Sim:1h33m37s) 
CPU  0 inst:  433000000 cyc:  470732528 now IPC :2.13208: AVG IPC :0.91751: L2-Pf-HR :0.98871: L2-HR :0.91942: (Sim:1h33m45s) 
CPU  0 inst:  434000000 cyc:  471231012 now IPC :2.00608: AVG IPC :0.91867: L2-Pf-HR :0.98875: L2-HR :0.91962: (Sim:1h33m53s) 
CPU  0 inst:  435000004 cyc:  471755936 now IPC :1.90505: AVG IPC :0.91977: L2-Pf-HR :0.98878: L2-HR :0.91974: (Sim:1h34m1s) 
CPU  0 inst:  436000002 cyc:  472253426 now IPC :2.01009: AVG IPC :0.92092: L2-Pf-HR :0.98882: L2-HR :0.91992: (Sim:1h34m9s) 
CPU  0 inst:  437000001 cyc:  472877042 now IPC :1.60355: AVG IPC :0.92182: L2-Pf-HR :0.98883: L2-HR :0.91995: (Sim:1h34m18s) 
CPU  0 inst:  438000005 cyc:  473377674 now IPC :1.99748: AVG IPC :0.92296: L2-Pf-HR :0.98887: L2-HR :0.92013: (Sim:1h34m26s) 
CPU  0 inst:  439000000 cyc:  473952376 now IPC :1.74002: AVG IPC :0.92395: L2-Pf-HR :0.98890: L2-HR :0.92029: (Sim:1h34m35s) 
CPU  0 inst:  440000000 cyc:  474523706 now IPC :1.75030: AVG IPC :0.92495: L2-Pf-HR :0.98892: L2-HR :0.92035: (Sim:1h34m43s) 
CPU  0 inst:  441000000 cyc:  474991271 now IPC :2.13874: AVG IPC :0.92615: L2-Pf-HR :0.98895: L2-HR :0.92056: (Sim:1h34m52s) 
CPU  0 inst:  442000002 cyc:  475500585 now IPC :1.96343: AVG IPC :0.92726: L2-Pf-HR :0.98899: L2-HR :0.92074: (Sim:1h35m0s) 
CPU  0 inst:  443000002 cyc:  476013435 now IPC :1.94989: AVG IPC :0.92836: L2-Pf-HR :0.98902: L2-HR :0.92086: (Sim:1h35m8s) 
CPU  0 inst:  444000001 cyc:  476487373 now IPC :2.10998: AVG IPC :0.92954: L2-Pf-HR :0.98906: L2-HR :0.92104: (Sim:1h35m16s) 
CPU  0 inst:  445000002 cyc:  477107670 now IPC :1.61213: AVG IPC :0.93043: L2-Pf-HR :0.98907: L2-HR :0.92107: (Sim:1h35m24s) 
CPU  0 inst:  446000003 cyc:  477631038 now IPC :1.91070: AVG IPC :0.93151: L2-Pf-HR :0.98911: L2-HR :0.92124: (Sim:1h35m32s) 
CPU  0 inst:  447000002 cyc:  478149286 now IPC :1.92958: AVG IPC :0.93259: L2-Pf-HR :0.98914: L2-HR :0.92142: (Sim:1h35m41s) 
CPU  0 inst:  448000003 cyc:  478741331 now IPC :1.68906: AVG IPC :0.93353: L2-Pf-HR :0.98916: L2-HR :0.92149: (Sim:1h35m49s) 
CPU  0 inst:  449000004 cyc:  479243739 now IPC :1.99042: AVG IPC :0.93464: L2-Pf-HR :0.98919: L2-HR :0.92165: (Sim:1h35m57s) 
CPU  0 inst:  450000003 cyc:  479712768 now IPC :2.13206: AVG IPC :0.93581: L2-Pf-HR :0.98923: L2-HR :0.92185: (Sim:1h36m6s) 
CPU  0 inst:  451000000 cyc:  480215412 now IPC :1.98947: AVG IPC :0.93692: L2-Pf-HR :0.98926: L2-HR :0.92203: (Sim:1h36m13s) 
CPU  0 inst:  452000004 cyc:  480746081 now IPC :1.88442: AVG IPC :0.93796: L2-Pf-HR :0.98929: L2-HR :0.92214: (Sim:1h36m22s) 
CPU  0 inst:  453000005 cyc:  481237001 now IPC :2.03699: AVG IPC :0.93909: L2-Pf-HR :0.98932: L2-HR :0.92231: (Sim:1h36m30s) 
CPU  0 inst:  454000001 cyc:  481868728 now IPC :1.58296: AVG IPC :0.93993: L2-Pf-HR :0.98934: L2-HR :0.92234: (Sim:1h36m38s) 
CPU  0 inst:  455000002 cyc:  482378556 now IPC :1.96145: AVG IPC :0.94102: L2-Pf-HR :0.98937: L2-HR :0.92249: (Sim:1h36m48s) 
CPU  0 inst:  456000000 cyc:  482936699 now IPC :1.79165: AVG IPC :0.94200: L2-Pf-HR :0.98940: L2-HR :0.92264: (Sim:1h36m56s) 
CPU  0 inst:  457000003 cyc:  483504239 now IPC :1.76200: AVG IPC :0.94297: L2-Pf-HR :0.98942: L2-HR :0.92270: (Sim:1h37m4s) 
CPU  0 inst:  458000002 cyc:  483974304 now IPC :2.12736: AVG IPC :0.94412: L2-Pf-HR :0.98945: L2-HR :0.92289: (Sim:1h37m13s) 
CPU  0 inst:  459000005 cyc:  484484268 now IPC :1.96093: AVG IPC :0.94519: L2-Pf-HR :0.98948: L2-HR :0.92306: (Sim:1h37m21s) 
CPU  0 inst:  460000002 cyc:  485000370 now IPC :1.93760: AVG IPC :0.94625: L2-Pf-HR :0.98951: L2-HR :0.92316: (Sim:1h37m31s) 
CPU  0 inst:  461000000 cyc:  485479859 now IPC :2.08555: AVG IPC :0.94738: L2-Pf-HR :0.98954: L2-HR :0.92333: (Sim:1h37m40s) 
CPU  0 inst:  462000002 cyc:  486103638 now IPC :1.60314: AVG IPC :0.94822: L2-Pf-HR :0.98956: L2-HR :0.92336: (Sim:1h37m48s) 
CPU  0 inst:  463000000 cyc:  486626839 now IPC :1.91131: AVG IPC :0.94926: L2-Pf-HR :0.98959: L2-HR :0.92352: (Sim:1h37m57s) 
CPU  0 inst:  464000001 cyc:  487153943 now IPC :1.89716: AVG IPC :0.95028: L2-Pf-HR :0.98962: L2-HR :0.92369: (Sim:1h38m6s) 
CPU  0 inst:  465000000 cyc:  487774061 now IPC :1.61259: AVG IPC :0.95113: L2-Pf-HR :0.98963: L2-HR :0.92370: (Sim:1h38m14s) 
CPU  0 inst:  466000000 cyc:  488241554 now IPC :2.13907: AVG IPC :0.95227: L2-Pf-HR :0.98967: L2-HR :0.92388: (Sim:1h38m23s) 
CPU  0 inst:  467000002 cyc:  488709439 now IPC :2.13728: AVG IPC :0.95340: L2-Pf-HR :0.98970: L2-HR :0.92406: (Sim:1h38m31s) 
CPU  0 inst:  468000002 cyc:  489213678 now IPC :1.98319: AVG IPC :0.95447: L2-Pf-HR :0.98973: L2-HR :0.92422: (Sim:1h38m39s) 
CPU  0 inst:  469000000 cyc:  489735708 now IPC :1.91559: AVG IPC :0.95550: L2-Pf-HR :0.98976: L2-HR :0.92431: (Sim:1h38m47s) 
CPU  0 inst:  470000002 cyc:  490227184 now IPC :2.03469: AVG IPC :0.95658: L2-Pf-HR :0.98978: L2-HR :0.92446: (Sim:1h38m55s) 
CPU  0 inst:  471000001 cyc:  490849147 now IPC :1.60781: AVG IPC :0.95741: L2-Pf-HR :0.98980: L2-HR :0.92449: (Sim:1h39m4s) 
CPU  0 inst:  472000005 cyc:  491365575 now IPC :1.93639: AVG IPC :0.95844: L2-Pf-HR :0.98983: L2-HR :0.92463: (Sim:1h39m13s) 
CPU  0 inst:  473000001 cyc:  491922883 now IPC :1.79433: AVG IPC :0.95939: L2-Pf-HR :0.98986: L2-HR :0.92477: (Sim:1h39m20s) 
CPU  0 inst:  474000000 cyc:  492490815 now IPC :1.76077: AVG IPC :0.96031: L2-Pf-HR :0.98988: L2-HR :0.92483: (Sim:1h39m29s) 
CPU  0 inst:  475000003 cyc:  492959841 now IPC :2.13208: AVG IPC :0.96143: L2-Pf-HR :0.98991: L2-HR :0.92501: (Sim:1h39m37s) 
CPU  0 inst:  476000005 cyc:  493471481 now IPC :1.95450: AVG IPC :0.96246: L2-Pf-HR :0.98994: L2-HR :0.92517: (Sim:1h39m45s) 
CPU  0 inst:  477000004 cyc:  493987384 now IPC :1.93835: AVG IPC :0.96348: L2-Pf-HR :0.98996: L2-HR :0.92526: (Sim:1h39m54s) 
CPU  0 inst:  478000000 cyc:  494469148 now IPC :2.07570: AVG IPC :0.96457: L2-Pf-HR :0.98999: L2-HR :0.92542: (Sim:1h40m2s) 
CPU  0 inst:  479000002 cyc:  495094990 now IPC :1.59785: AVG IPC :0.96537: L2-Pf-HR :0.99000: L2-HR :0.92542: (Sim:1h40m10s) 
CPU  0 inst:  480000000 cyc:  495625248 now IPC :1.88587: AVG IPC :0.96636: L2-Pf-HR :0.99003: L2-HR :0.92556: (Sim:1h40m19s) 
CPU  0 inst:  481000003 cyc:  496165254 now IPC :1.85184: AVG IPC :0.96732: L2-Pf-HR :0.99006: L2-HR :0.92571: (Sim:1h40m27s) 
CPU  0 inst:  482000003 cyc:  496757709 now IPC :1.68789: AVG IPC :0.96818: L2-Pf-HR :0.99007: L2-HR :0.92573: (Sim:1h40m35s) 
CPU  0 inst:  483000003 cyc:  497225711 now IPC :2.13674: AVG IPC :0.96929: L2-Pf-HR :0.99010: L2-HR :0.92591: (Sim:1h40m44s) 
CPU  0 inst:  484000002 cyc:  497701486 now IPC :2.10183: AVG IPC :0.97037: L2-Pf-HR :0.99013: L2-HR :0.92608: (Sim:1h40m52s) 
CPU  0 inst:  485000000 cyc:  498236750 now IPC :1.86823: AVG IPC :0.97134: L2-Pf-HR :0.99016: L2-HR :0.92618: (Sim:1h41m0s) 
CPU  0 inst:  486000005 cyc:  498728162 now IPC :2.03496: AVG IPC :0.97239: L2-Pf-HR :0.99018: L2-HR :0.92631: (Sim:1h41m8s) 
CPU  0 inst:  487000002 cyc:  499218090 now IPC :2.04111: AVG IPC :0.97344: L2-Pf-HR :0.99021: L2-HR :0.92645: (Sim:1h41m16s) 
CPU  0 inst:  488000004 cyc:  499833298 now IPC :1.62547: AVG IPC :0.97424: L2-Pf-HR :0.99022: L2-HR :0.92647: (Sim:1h41m25s) 
CPU  0 inst:  489000005 cyc:  500355903 now IPC :1.91349: AVG IPC :0.97522: L2-Pf-HR :0.99025: L2-HR :0.92659: (Sim:1h41m33s) 
CPU  0 inst:  490000000 cyc:  500909190 now IPC :1.80737: AVG IPC :0.97615: L2-Pf-HR :0.99027: L2-HR :0.92672: (Sim:1h41m41s) 
CPU  0 inst:  491000000 cyc:  501470926 now IPC :1.78020: AVG IPC :0.97705: L2-Pf-HR :0.99028: L2-HR :0.92677: (Sim:1h41m50s) 
CPU  0 inst:  492000002 cyc:  501950324 now IPC :2.08595: AVG IPC :0.97811: L2-Pf-HR :0.99031: L2-HR :0.92693: (Sim:1h41m59s) 
CPU  0 inst:  493000003 cyc:  502447906 now IPC :2.00972: AVG IPC :0.97913: L2-Pf-HR :0.99033: L2-HR :0.92708: (Sim:1h42m6s) 
CPU  0 inst:  494000005 cyc:  502963480 now IPC :1.93959: AVG IPC :0.98012: L2-Pf-HR :0.99036: L2-HR :0.92716: (Sim:1h42m15s) 
CPU  0 inst:  495000000 cyc:  503453540 now IPC :2.04056: AVG IPC :0.98115: L2-Pf-HR :0.99038: L2-HR :0.92732: (Sim:1h42m23s) 
CPU  0 inst:  496000004 cyc:  504078881 now IPC :1.59913: AVG IPC :0.98192: L2-Pf-HR :0.99039: L2-HR :0.92731: (Sim:1h42m32s) 
CPU  0 inst:  497000001 cyc:  504600110 now IPC :1.91854: AVG IPC :0.98289: L2-Pf-HR :0.99042: L2-HR :0.92744: (Sim:1h42m41s) 
CPU  0 inst:  498000000 cyc:  505159962 now IPC :1.78618: AVG IPC :0.98378: L2-Pf-HR :0.99044: L2-HR :0.92756: (Sim:1h42m59s) 
CPU  0 inst:  499000000 cyc:  505727457 now IPC :1.76213: AVG IPC :0.98466: L2-Pf-HR :0.99045: L2-HR :0.92759: (Sim:1h43m18s) 
CPU  0 inst:  500000000 cyc:  506196649 now IPC :2.13132: AVG IPC :0.98572: L2-Pf-HR :0.99047: L2-HR :0.92775: (Sim:1h43m36s) 
CPU  0 inst:  501000001 cyc:  506682242 now IPC :2.05934: AVG IPC :0.98675: L2-Pf-HR :0.99050: L2-HR :0.92791: (Sim:1h43m54s) 
CPU  0 inst:  502000003 cyc:  507225576 now IPC :1.84049: AVG IPC :0.98767: L2-Pf-HR :0.99052: L2-HR :0.92797: (Sim:1h44m12s) 
CPU  0 inst:  503000005 cyc:  507699962 now IPC :2.10799: AVG IPC :0.98872: L2-Pf-HR :0.99054: L2-HR :0.92811: (Sim:1h44m29s) 
CPU  0 inst:  504000000 cyc:  508197365 now IPC :2.01043: AVG IPC :0.98972: L2-Pf-HR :0.99056: L2-HR :0.92824: (Sim:1h44m46s) 
CPU  0 inst:  505000002 cyc:  508839798 now IPC :1.55659: AVG IPC :0.99044: L2-Pf-HR :0.99057: L2-HR :0.92824: (Sim:1h45m1s) 
CPU  0 inst:  506000000 cyc:  509354710 now IPC :1.94208: AVG IPC :0.99140: L2-Pf-HR :0.99059: L2-HR :0.92836: (Sim:1h45m10s) 
CPU  0 inst:  507000004 cyc:  509903508 now IPC :1.82217: AVG IPC :0.99230: L2-Pf-HR :0.99061: L2-HR :0.92848: (Sim:1h45m18s) 
CPU  0 inst:  508000003 cyc:  510460712 now IPC :1.79467: AVG IPC :0.99318: L2-Pf-HR :0.99062: L2-HR :0.92853: (Sim:1h45m27s) 
CPU  0 inst:  509000002 cyc:  510940781 now IPC :2.08303: AVG IPC :0.99420: L2-Pf-HR :0.99065: L2-HR :0.92867: (Sim:1h45m36s) 
CPU  0 inst:  510000001 cyc:  511441520 now IPC :1.99705: AVG IPC :0.99519: L2-Pf-HR :0.99067: L2-HR :0.92881: (Sim:1h45m43s) 
CPU  0 inst:  511000003 cyc:  511962390 now IPC :1.91987: AVG IPC :0.99613: L2-Pf-HR :0.99069: L2-HR :0.92888: (Sim:1h45m52s) 
CPU  0 inst:  512000004 cyc:  512459165 now IPC :2.01299: AVG IPC :0.99712: L2-Pf-HR :0.99072: L2-HR :0.92901: (Sim:1h46m0s) 
CPU  0 inst:  513000003 cyc:  513083292 now IPC :1.60224: AVG IPC :0.99785: L2-Pf-HR :0.99073: L2-HR :0.92901: (Sim:1h46m9s) 
CPU  0 inst:  514000002 cyc:  513584658 now IPC :1.99455: AVG IPC :0.99883: L2-Pf-HR :0.99075: L2-HR :0.92914: (Sim:1h46m17s) 
CPU  0 inst:  515000003 cyc:  514145809 now IPC :1.78205: AVG IPC :0.99968: L2-Pf-HR :0.99077: L2-HR :0.92925: (Sim:1h46m26s) 
CPU  0 inst:  516000002 cyc:  514724761 now IPC :1.72726: AVG IPC :1.00050: L2-Pf-HR :0.99078: L2-HR :0.92928: (Sim:1h46m34s) 
CPU  0 inst:  517000002 cyc:  515204255 now IPC :2.08553: AVG IPC :1.00152: L2-Pf-HR :0.99081: L2-HR :0.92943: (Sim:1h46m43s) 
CPU  0 inst:  518000003 cyc:  515689029 now IPC :2.06282: AVG IPC :1.00252: L2-Pf-HR :0.99084: L2-HR :0.92959: (Sim:1h46m51s) 
CPU  0 inst:  519000003 cyc:  516215392 now IPC :1.89983: AVG IPC :1.00343: L2-Pf-HR :0.99085: L2-HR :0.92964: (Sim:1h46m59s) 
CPU  0 inst:  520000003 cyc:  516695614 now IPC :2.08237: AVG IPC :1.00444: L2-Pf-HR :0.99087: L2-HR :0.92976: (Sim:1h47m7s) 
CPU  0 inst:  521000000 cyc:  517243733 now IPC :1.82442: AVG IPC :1.00531: L2-Pf-HR :0.99089: L2-HR :0.92983: (Sim:1h47m15s) 
CPU  0 inst:  522000002 cyc:  517820204 now IPC :1.73470: AVG IPC :1.00612: L2-Pf-HR :0.99091: L2-HR :0.92989: (Sim:1h47m24s) 
CPU  0 inst:  523000000 cyc:  518332137 now IPC :1.95338: AVG IPC :1.00706: L2-Pf-HR :0.99093: L2-HR :0.93000: (Sim:1h47m33s) 
CPU  0 inst:  524000005 cyc:  518877691 now IPC :1.83301: AVG IPC :1.00793: L2-Pf-HR :0.99095: L2-HR :0.93011: (Sim:1h47m40s) 
CPU  0 inst:  525000000 cyc:  519430888 now IPC :1.80767: AVG IPC :1.00878: L2-Pf-HR :0.99096: L2-HR :0.93016: (Sim:1h47m50s) 
CPU  0 inst:  526000005 cyc:  519910850 now IPC :2.08351: AVG IPC :1.00978: L2-Pf-HR :0.99099: L2-HR :0.93029: (Sim:1h48m8s) 
CPU  0 inst:  527000002 cyc:  520410656 now IPC :2.00077: AVG IPC :1.01073: L2-Pf-HR :0.99101: L2-HR :0.93042: (Sim:1h48m24s) 
CPU  0 inst:  528000003 cyc:  520933919 now IPC :1.91109: AVG IPC :1.01164: L2-Pf-HR :0.99103: L2-HR :0.93048: (Sim:1h48m41s) 
CPU  0 inst:  529000004 cyc:  521431432 now IPC :2.01000: AVG IPC :1.01259: L2-Pf-HR :0.99105: L2-HR :0.93061: (Sim:1h48m57s) 
CPU  0 inst:  530000003 cyc:  522055231 now IPC :1.60308: AVG IPC :1.01330: L2-Pf-HR :0.99105: L2-HR :0.93060: (Sim:1h49m15s) 
CPU  0 inst:  531000001 cyc:  522562158 now IPC :1.97267: AVG IPC :1.01423: L2-Pf-HR :0.99108: L2-HR :0.93072: (Sim:1h49m34s) 
CPU  0 inst:  532000004 cyc:  523135469 now IPC :1.74426: AVG IPC :1.01503: L2-Pf-HR :0.99110: L2-HR :0.93082: (Sim:1h49m51s) 
CPU  0 inst:  533000002 cyc:  523701633 now IPC :1.76627: AVG IPC :1.01584: L2-Pf-HR :0.99110: L2-HR :0.93084: (Sim:1h50m8s) 
CPU  0 inst:  534000004 cyc:  524180382 now IPC :2.08878: AVG IPC :1.01683: L2-Pf-HR :0.99112: L2-HR :0.93098: (Sim:1h50m26s) 
CPU  0 inst:  535000004 cyc:  524692369 now IPC :1.95317: AVG IPC :1.01774: L2-Pf-HR :0.99115: L2-HR :0.93111: (Sim:1h50m43s) 
CPU  0 inst:  536000003 cyc:  525197667 now IPC :1.97903: AVG IPC :1.01867: L2-Pf-HR :0.99117: L2-HR :0.93117: (Sim:1h50m59s) 
CPU  0 inst:  537000005 cyc:  525678661 now IPC :2.07903: AVG IPC :1.01964: L2-Pf-HR :0.99119: L2-HR :0.93129: (Sim:1h51m16s) 
CPU  0 inst:  538000004 cyc:  526283084 now IPC :1.65447: AVG IPC :1.02037: L2-Pf-HR :0.99119: L2-HR :0.93129: (Sim:1h51m34s) 
CPU  0 inst:  539000002 cyc:  526808808 now IPC :1.90214: AVG IPC :1.02125: L2-Pf-HR :0.99121: L2-HR :0.93140: (Sim:1h51m52s) 
CPU  0 inst:  540000000 cyc:  527325742 now IPC :1.93448: AVG IPC :1.02215: L2-Pf-HR :0.99123: L2-HR :0.93150: (Sim:1h52m9s) 
CPU  0 inst:  541000002 cyc:  527878121 now IPC :1.81035: AVG IPC :1.02298: L2-Pf-HR :0.99125: L2-HR :0.93161: (Sim:1h52m25s) 
CPU  0 inst:  542000002 cyc:  528436998 now IPC :1.78930: AVG IPC :1.02379: L2-Pf-HR :0.99126: L2-HR :0.93164: (Sim:1h52m44s) 
CPU  0 inst:  543000002 cyc:  528905929 now IPC :2.13251: AVG IPC :1.02477: L2-Pf-HR :0.99128: L2-HR :0.93177: (Sim:1h53m1s) 
CPU  0 inst:  544000002 cyc:  529407500 now IPC :1.99374: AVG IPC :1.02569: L2-Pf-HR :0.99130: L2-HR :0.93189: (Sim:1h53m17s) 
CPU  0 inst:  545000001 cyc:  529931105 now IPC :1.90983: AVG IPC :1.02657: L2-Pf-HR :0.99132: L2-HR :0.93195: (Sim:1h53m34s) 
CPU  0 inst:  546000005 cyc:  530429230 now IPC :2.00754: AVG IPC :1.02749: L2-Pf-HR :0.99134: L2-HR :0.93206: (Sim:1h53m50s) 
CPU  0 inst:  547000000 cyc:  531049607 now IPC :1.61191: AVG IPC :1.02817: L2-Pf-HR :0.99135: L2-HR :0.93205: (Sim:1h54m10s) 
CPU  0 inst:  548000001 cyc:  531551848 now IPC :1.99108: AVG IPC :1.02909: L2-Pf-HR :0.99137: L2-HR :0.93216: (Sim:1h54m27s) 
CPU  0 inst:  549000001 cyc:  532119421 now IPC :1.76189: AVG IPC :1.02987: L2-Pf-HR :0.99139: L2-HR :0.93225: (Sim:1h54m44s) 
CPU  0 inst:  550000000 cyc:  532681958 now IPC :1.77766: AVG IPC :1.03066: L2-Pf-HR :0.99140: L2-HR :0.93228: (Sim:1h55m1s) 
CPU  0 inst:  551000005 cyc:  533159359 now IPC :2.09469: AVG IPC :1.03161: L2-Pf-HR :0.99142: L2-HR :0.93241: (Sim:1h55m19s) 
CPU  0 inst:  552000001 cyc:  533675565 now IPC :1.93720: AVG IPC :1.03249: L2-Pf-HR :0.99144: L2-HR :0.93252: (Sim:1h55m36s) 
CPU  0 inst:  553000000 cyc:  534184092 now IPC :1.96646: AVG IPC :1.03338: L2-Pf-HR :0.99146: L2-HR :0.93258: (Sim:1h55m52s) 
CPU  0 inst:  554000003 cyc:  534664334 now IPC :2.08229: AVG IPC :1.03433: L2-Pf-HR :0.99147: L2-HR :0.93269: (Sim:1h56m9s) 
CPU  0 inst:  555000001 cyc:  535269523 now IPC :1.65237: AVG IPC :1.03503: L2-Pf-HR :0.99148: L2-HR :0.93269: (Sim:1h56m27s) 
CPU  0 inst:  556000004 cyc:  535793347 now IPC :1.90904: AVG IPC :1.03588: L2-Pf-HR :0.99150: L2-HR :0.93279: (Sim:1h56m44s) 
CPU  0 inst:  557000002 cyc:  536309847 now IPC :1.93610: AVG IPC :1.03675: L2-Pf-HR :0.99152: L2-HR :0.93289: (Sim:1h57m1s) 
CPU  0 inst:  558000005 cyc:  536889696 now IPC :1.72459: AVG IPC :1.03750: L2-Pf-HR :0.99153: L2-HR :0.93295: (Sim:1h57m17s) 
CPU  0 inst:  559000005 cyc:  537412828 now IPC :1.91156: AVG IPC :1.03835: L2-Pf-HR :0.99154: L2-HR :0.93302: (Sim:1h57m37s) 
CPU  0 inst:  560000002 cyc:  537881633 now IPC :2.13308: AVG IPC :1.03930: L2-Pf-HR :0.99156: L2-HR :0.93314: (Sim:1h57m53s) 
CPU  0 inst:  561000004 cyc:  538381631 now IPC :2.00001: AVG IPC :1.04020: L2-Pf-HR :0.99158: L2-HR :0.93325: (Sim:1h58m10s) 
CPU  0 inst:  562000004 cyc:  538909252 now IPC :1.89530: AVG IPC :1.04104: L2-Pf-HR :0.99160: L2-HR :0.93331: (Sim:1h58m27s) 
CPU  0 inst:  563000003 cyc:  539406668 now IPC :2.01039: AVG IPC :1.04193: L2-Pf-HR :0.99162: L2-HR :0.93341: (Sim:1h58m43s) 
CPU  0 inst:  564000001 cyc:  540028864 now IPC :1.60721: AVG IPC :1.04258: L2-Pf-HR :0.99162: L2-HR :0.93340: (Sim:1h59m1s) 
CPU  0 inst:  565000000 cyc:  540530569 now IPC :1.99320: AVG IPC :1.04347: L2-Pf-HR :0.99164: L2-HR :0.93350: (Sim:1h59m18s) 
CPU  0 inst:  566000004 cyc:  541104597 now IPC :1.74208: AVG IPC :1.04421: L2-Pf-HR :0.99165: L2-HR :0.93359: (Sim:1h59m35s) 
CPU  0 inst:  567000002 cyc:  541675373 now IPC :1.75200: AVG IPC :1.04496: L2-Pf-HR :0.99166: L2-HR :0.93361: (Sim:1h59m53s) 
CPU  0 inst:  568000002 cyc:  542143078 now IPC :2.13810: AVG IPC :1.04590: L2-Pf-HR :0.99168: L2-HR :0.93373: (Sim:2h0m10s) 
CPU  0 inst:  569000005 cyc:  542653802 now IPC :1.95801: AVG IPC :1.04676: L2-Pf-HR :0.99170: L2-HR :0.93383: (Sim:2h0m28s) 
CPU  0 inst:  570000001 cyc:  543168762 now IPC :1.94189: AVG IPC :1.04761: L2-Pf-HR :0.99171: L2-HR :0.93389: (Sim:2h0m45s) 
CPU  0 inst:  571000000 cyc:  543644613 now IPC :2.10150: AVG IPC :1.04854: L2-Pf-HR :0.99173: L2-HR :0.93399: (Sim:2h1m1s) 
CPU  0 inst:  572000004 cyc:  544263250 now IPC :1.61646: AVG IPC :1.04918: L2-Pf-HR :0.99173: L2-HR :0.93398: (Sim:2h1m18s) 
CPU  0 inst:  573000004 cyc:  544783691 now IPC :1.92145: AVG IPC :1.05002: L2-Pf-HR :0.99175: L2-HR :0.93408: (Sim:2h1m35s) 
CPU  0 inst:  574000003 cyc:  545304808 now IPC :1.91895: AVG IPC :1.05085: L2-Pf-HR :0.99177: L2-HR :0.93418: (Sim:2h1m53s) 
CPU  0 inst:  575000000 cyc:  545926986 now IPC :1.60725: AVG IPC :1.05149: L2-Pf-HR :0.99177: L2-HR :0.93417: (Sim:2h2m10s) 
CPU  0 inst:  576000001 cyc:  546396588 now IPC :2.12946: AVG IPC :1.05241: L2-Pf-HR :0.99179: L2-HR :0.93428: (Sim:2h2m28s) 
CPU  0 inst:  577000005 cyc:  546866014 now IPC :2.13027: AVG IPC :1.05334: L2-Pf-HR :0.99181: L2-HR :0.93440: (Sim:2h2m45s) 
CPU  0 inst:  578000004 cyc:  547370008 now IPC :1.98415: AVG IPC :1.05420: L2-Pf-HR :0.99183: L2-HR :0.93450: (Sim:2h3m1s) 
CPU  0 inst:  579000001 cyc:  547899654 now IPC :1.88805: AVG IPC :1.05501: L2-Pf-HR :0.99184: L2-HR :0.93455: (Sim:2h3m18s) 
CPU  0 inst:  580000001 cyc:  548390031 now IPC :2.03925: AVG IPC :1.05589: L2-Pf-HR :0.99186: L2-HR :0.93465: (Sim:2h3m34s) 
CPU  0 inst:  581000005 cyc:  549013934 now IPC :1.60282: AVG IPC :1.05651: L2-Pf-HR :0.99186: L2-HR :0.93464: (Sim:2h3m52s) 
CPU  0 inst:  582000000 cyc:  549530735 now IPC :1.93497: AVG IPC :1.05734: L2-Pf-HR :0.99188: L2-HR :0.93473: (Sim:2h4m11s) 
CPU  0 inst:  583000001 cyc:  550093441 now IPC :1.77713: AVG IPC :1.05808: L2-Pf-HR :0.99190: L2-HR :0.93481: (Sim:2h4m26s) 
CPU  0 inst:  584000005 cyc:  550657690 now IPC :1.77227: AVG IPC :1.05881: L2-Pf-HR :0.99191: L2-HR :0.93484: (Sim:2h4m44s) 
CPU  0 inst:  585000005 cyc:  551125768 now IPC :2.13640: AVG IPC :1.05973: L2-Pf-HR :0.99193: L2-HR :0.93495: (Sim:2h5m1s) 
CPU  0 inst:  586000003 cyc:  551634470 now IPC :1.96578: AVG IPC :1.06056: L2-Pf-HR :0.99194: L2-HR :0.93505: (Sim:2h5m18s) 
CPU  0 inst:  587000004 cyc:  552149128 now IPC :1.94304: AVG IPC :1.06139: L2-Pf-HR :0.99196: L2-HR :0.93510: (Sim:2h5m35s) 
CPU  0 inst:  588000001 cyc:  552627965 now IPC :2.08839: AVG IPC :1.06228: L2-Pf-HR :0.99197: L2-HR :0.93520: (Sim:2h5m51s) 
CPU  0 inst:  589000003 cyc:  553248206 now IPC :1.61228: AVG IPC :1.06290: L2-Pf-HR :0.99198: L2-HR :0.93518: (Sim:2h6m9s) 
CPU  0 inst:  590000003 cyc:  553781138 now IPC :1.87641: AVG IPC :1.06368: L2-Pf-HR :0.99199: L2-HR :0.93527: (Sim:2h6m28s) 
CPU  0 inst:  591000005 cyc:  554293916 now IPC :1.95017: AVG IPC :1.06450: L2-Pf-HR :0.99201: L2-HR :0.93538: (Sim:2h6m44s) 
CPU  0 inst:  592000004 cyc:  554908998 now IPC :1.62580: AVG IPC :1.06513: L2-Pf-HR :0.99201: L2-HR :0.93536: (Sim:2h7m1s) 
CPU  0 inst:  593000004 cyc:  555378435 now IPC :2.13021: AVG IPC :1.06603: L2-Pf-HR :0.99203: L2-HR :0.93547: (Sim:2h7m19s) 
CPU  0 inst:  594000004 cyc:  555852065 now IPC :2.11135: AVG IPC :1.06692: L2-Pf-HR :0.99205: L2-HR :0.93558: (Sim:2h7m35s) 
Finished CPU 0 instr: 592000003 cyc: 554868240 AVG IPC: 1.06692 (Sim time: 2h7m35s)

ChampSim completed all CPUs

[ROI Statistics]
Core_0_instructions 592000003
Core_0_cycles 554868240
Core_0_IPC 1.06692

Core_0_branch_prediction_accuracy 98.24511
Core_0_branch_MPKI 0.42508
Core_0_average_ROB_occupancy_at_mispredict 577.09204

Core_0_L1D_total_access 135417033
Core_0_L1D_total_hit 123974502 L1D_total_Hit Ratio: 0.91550
Core_0_L1D_total_miss 11442531
Core_0_L1D_loads 123547110
Core_0_L1D_load_hit 112759088 L1D_load_Hit Ratio: 0.91268
Core_0_L1D_load_miss 10788022
Core_0_L1D_RFOs 11869923
Core_0_L1D_RFO_hit 11215414 L1D_RFO_Hit Ratio: 0.94486
Core_0_L1D_RFO_miss 654509
Core_0_L1D_prefetches 0
Core_0_L1D_prefetch_hit 0 L1D_prefetch_Hit Ratio: -nan
Core_0_L1D_prefetch_miss 0
Core_0_L1D_writebacks 0
Core_0_L1D_writeback_hit 0 L1D_writeback_Hit Ratio: -nan
Core_0_L1D_writeback_miss 0
Core_0_L1D_prefetch_requested 0
Core_0_L1D_prefetch_issued 0
Core_0_L1D_prefetch_useful 0 L1D_Useful Ratio: -nan
Core_0_L1D_prefetch_useless 0
Core_0_L1D_prefetch_late 0
Core_0_L1D_average_miss_latency 83.97757

Core_0_L1I_total_access 74893836
Core_0_L1I_total_hit 74888960 L1I_total_Hit Ratio: 0.99993
Core_0_L1I_total_miss 4876
Core_0_L1I_loads 74893836
Core_0_L1I_load_hit 74888960 L1I_load_Hit Ratio: 0.99993
Core_0_L1I_load_miss 4876
Core_0_L1I_RFOs 0
Core_0_L1I_RFO_hit 0 L1I_RFO_Hit Ratio: -nan
Core_0_L1I_RFO_miss 0
Core_0_L1I_prefetches 0
Core_0_L1I_prefetch_hit 0 L1I_prefetch_Hit Ratio: -nan
Core_0_L1I_prefetch_miss 0
Core_0_L1I_writebacks 0
Core_0_L1I_writeback_hit 0 L1I_writeback_Hit Ratio: -nan
Core_0_L1I_writeback_miss 0
Core_0_L1I_prefetch_requested 0
Core_0_L1I_prefetch_issued 0
Core_0_L1I_prefetch_useful 0 L1I_Useful Ratio: -nan
Core_0_L1I_prefetch_useless 0
Core_0_L1I_prefetch_late 0
Core_0_L1I_average_miss_latency 315.99262

Core_0_L2C_total_access 54260272
Core_0_L2C_total_hit 50764782 L2C_total_Hit Ratio: 0.93558
Core_0_L2C_total_miss 3495490
Core_0_L2C_loads 10792878
Core_0_L2C_load_hit 8139853 L2C_load_Hit Ratio: 0.75419
Core_0_L2C_load_miss 2653025
Core_0_L2C_RFOs 654509
Core_0_L2C_RFO_hit 126970 L2C_RFO_Hit Ratio: 0.19399
Core_0_L2C_RFO_miss 527539
Core_0_L2C_prefetches 39608060
Core_0_L2C_prefetch_hit 39293143 L2C_prefetch_Hit Ratio: 0.99205
Core_0_L2C_prefetch_miss 314917
Core_0_L2C_writebacks 3204825
Core_0_L2C_writeback_hit 3204816 L2C_writeback_Hit Ratio: 1.00000
Core_0_L2C_writeback_miss 9
Core_0_L2C_prefetch_requested 66166012
Core_0_L2C_prefetch_issued 61964995
Core_0_L2C_prefetch_useful 308224 L2C_Useful Ratio: 0.00497
Core_0_L2C_prefetch_useless 8386
Core_0_L2C_prefetch_late 612008
Core_0_L2C_average_miss_latency 234.02714

Core_0_LLC_total_access 11339305
Core_0_LLC_total_hit 8177876 LLC_total_Hit Ratio: 0.72120
Core_0_LLC_total_miss 3161429
Core_0_LLC_loads 2041066
Core_0_LLC_load_hit 994948 LLC_load_Hit Ratio: 0.48746
Core_0_LLC_load_miss 1046118
Core_0_LLC_RFOs 527520
Core_0_LLC_RFO_hit 2768 LLC_RFO_Hit Ratio: 0.00525
Core_0_LLC_RFO_miss 524752
Core_0_LLC_prefetches 6801706
Core_0_LLC_prefetch_hit 5222123 LLC_prefetch_Hit Ratio: 0.76777
Core_0_LLC_prefetch_miss 1579583
Core_0_LLC_writebacks 1969013
Core_0_LLC_writeback_hit 1958037 LLC_writeback_Hit Ratio: 0.99443
Core_0_LLC_writeback_miss 10976
Core_0_LLC_prefetch_requested 0
Core_0_LLC_prefetch_issued 0
Core_0_LLC_prefetch_useful 722769 LLC_Useful Ratio: inf
Core_0_LLC_prefetch_useless 857502
Core_0_LLC_prefetch_late 470860
Core_0_LLC_average_miss_latency 335.07997

Core_0_major_page_fault 0
Core_0_minor_page_fault 25625

 All Calls: 10832908
 Critical Calls: 10832908
------------------
Depth Distribution
------------------
depth 0: 0
depth 1: 9400117
depth 2: 9029638
depth 3: 8601042
depth 4: 8194683
depth 5: 7546849
depth 6: 5976483
depth 7: 4230021
depth 8: 3158895
depth 9: 2308592
depth 10: 1613653
depth 11: 997146
depth 12: 570533
depth 13: 237612
depth 14: 50445
depth 15: 49121
depth 16: 165
depth 17: 0
depth 18: 0
depth 19: 0
depth 20: 0
depth 21: 0
depth 22: 0
depth 23: 0
depth 24: 0
depth 25: 0
depth 26: 0
depth 27: 0
depth 28: 0
depth 29: 0
Total: 61964995
-----------------------------
-----------------------------
	Captured at Filter
-----------------------------
depth 0: 0
depth 1: 653471
depth 2: 638530
depth 3: 634253
depth 4: 572163
depth 5: 543037
depth 6: 437986
depth 7: 293799
depth 8: 198864
depth 9: 137223
depth 10: 72353
depth 11: 30927
depth 12: 10050
depth 13: 1926
depth 14: 238
depth 15: 212
depth 16: 0
depth 17: 0
depth 18: 0
depth 19: 0
depth 20: 0
depth 21: 0
depth 22: 0
depth 23: 0
depth 24: 0
depth 25: 0
depth 26: 0
depth 27: 0
depth 28: 0
depth 29: 0
-----------------------------
-----------------------------
		Lost at Page
-----------------------------
depth 0: 0
depth 1: 303973
depth 2: 440790
depth 3: 569014
depth 4: 654886
depth 5: 767510
depth 6: 784905
depth 7: 671142
depth 8: 584603
depth 9: 485915
depth 10: 367328
depth 11: 243835
depth 12: 149433
depth 13: 65857
depth 14: 14144
depth 15: 15132
depth 16: 12
depth 17: 0
depth 18: 0
depth 19: 0
depth 20: 0
depth 21: 0
depth 22: 0
depth 23: 0
depth 24: 0
depth 25: 0
depth 26: 0
depth 27: 0
depth 28: 0
depth 29: 0
-----------------------------
-----------------------------
	Lost due to PQ Size
-----------------------------
4201017
-----------------------------
ST read accesses: 10687722
ST write accesses: 105156
PT read accesses: 436244931
PT write accesses: 15972725
FILTER read accesses: 84478356
FILTER write accesses: 15685080
GHR read accesses: 36191517
GHR write accesses: 6106239
GHR counter read accesses: 368476072
GHR counter write accesses: 23388350
ST tag read accesses: 4246977671
ST tag write accesses: 92973509
Channel_0_RQ_row_buffer_hit 1755794
Channel_0_RQ_row_buffer_miss 1394657
Channel_0_WQ_row_buffer_hit 633256
Channel_0_WQ_row_buffer_miss 1076809
Channel_0_WQ_full 765
Channel_0_dbus_congested 2436155

avg_congested_cycle 11

EzSearch AVG IPC :1.06692: L2-Pf-HR :0.99205 : L2-HR :0.93558 Uful:0.00497
     > Finished combination: TraceType=770-tot Sim:592000000 Prefetcher=L2spp_berti_src L1=no
