TRACE: [167000000][OPT-350M]_[h16][s512][d64] Warmup: 2000000 NumTraces: 167000000
L1:berti:L2:berti
*************************************************
   ChampSim Multicore Out-of-Order Simulator
   Last compiled: Oct 27 2024 04:07:46
*************************************************

trace_0 770-tot_memTraces_v3/memTraces[167000000][OPT-350M]_[h16][s512][d64].champsim.xz
CPU 0 L1D Berti prefetcher
CPU 0 L2C Berti prefetcher
MAIN.cc ln 751 stats print skipped
CPU  0 inst:    1000000 cyc:     499657 now IPC :2.00137: AVG IPC :2.00137: L2-Pf-HR :0.66719: L2-HR :0.68855: (Sim:0h0m11s) 
CPU  0 inst:    2000002 cyc:     982392 now IPC :2.07153: AVG IPC :2.03585: L2-Pf-HR :0.76177: L2-HR :0.77849: (Sim:0h0m23s) 

Warmup complete CPU  0 instructions:    2000002 cycles:     982392 (Simulation time: 0 hr 0 min 23 sec) 

CPU  0 inst:    3000000 cyc:    1454198 now IPC :2.11951: AVG IPC :2.11951: L2-Pf-HR :0.93290: L2-HR :0.93615: (Sim:0h0m32s) 
CPU  0 inst:    4000001 cyc:    1972541 now IPC :1.92923: AVG IPC :2.01990: L2-Pf-HR :0.89907: L2-HR :0.90203: (Sim:0h0m41s) 
CPU  0 inst:    5000003 cyc:    2578578 now IPC :1.65007: AVG IPC :1.87948: L2-Pf-HR :0.87237: L2-HR :0.86901: (Sim:0h0m51s) 
CPU  0 inst:    6000000 cyc:    3059628 now IPC :2.07878: AVG IPC :1.92563: L2-Pf-HR :0.87064: L2-HR :0.87269: (Sim:0h1m0s) 
CPU  0 inst:    7000004 cyc:    3529583 now IPC :2.12787: AVG IPC :1.96295: L2-Pf-HR :0.88263: L2-HR :0.88476: (Sim:0h1m9s) 
CPU  0 inst:    8000002 cyc:    4045699 now IPC :1.93755: AVG IPC :1.95867: L2-Pf-HR :0.87791: L2-HR :0.88137: (Sim:0h1m19s) 
CPU  0 inst:    9000000 cyc:    4664131 now IPC :1.61699: AVG IPC :1.90127: L2-Pf-HR :0.87145: L2-HR :0.87189: (Sim:0h1m29s) 
CPU  0 inst:   10000004 cyc:    5185555 now IPC :1.91783: AVG IPC :1.90333: L2-Pf-HR :0.87053: L2-HR :0.87272: (Sim:0h1m38s) 
CPU  0 inst:   11000003 cyc:    5672777 now IPC :2.05245: AVG IPC :1.91882: L2-Pf-HR :0.87520: L2-HR :0.87812: (Sim:0h1m48s) 
CPU  0 inst:   12000001 cyc:    6239650 now IPC :1.76406: AVG IPC :1.90213: L2-Pf-HR :0.87482: L2-HR :0.87729: (Sim:0h1m57s) 
CPU  0 inst:   13000004 cyc:    6876889 now IPC :1.56927: AVG IPC :1.86615: L2-Pf-HR :0.87233: L2-HR :0.87274: (Sim:0h2m7s) 
CPU  0 inst:   14000002 cyc:    7422756 now IPC :1.83194: AVG IPC :1.86325: L2-Pf-HR :0.87053: L2-HR :0.87212: (Sim:0h2m16s) 
CPU  0 inst:   15000000 cyc:    7917291 now IPC :2.02210: AVG IPC :1.87458: L2-Pf-HR :0.87326: L2-HR :0.87543: (Sim:0h2m28s) 
CPU  0 inst:   16000004 cyc:    8480959 now IPC :1.77410: AVG IPC :1.86702: L2-Pf-HR :0.87377: L2-HR :0.87568: (Sim:0h2m39s) 
CPU  0 inst:   17000002 cyc:    9125404 now IPC :1.55172: AVG IPC :1.84207: L2-Pf-HR :0.87186: L2-HR :0.87257: (Sim:0h2m49s) 
CPU  0 inst:   18000004 cyc:    9689389 now IPC :1.77310: AVG IPC :1.83760: L2-Pf-HR :0.87068: L2-HR :0.87190: (Sim:0h2m58s) 
CPU  0 inst:   19000003 cyc:   10182961 now IPC :2.02604: AVG IPC :1.84771: L2-Pf-HR :0.87234: L2-HR :0.87420: (Sim:0h3m7s) 
CPU  0 inst:   20000001 cyc:   10741213 now IPC :1.79130: AVG IPC :1.84449: L2-Pf-HR :0.87394: L2-HR :0.87541: (Sim:0h3m17s) 
CPU  0 inst:   21000001 cyc:   11363311 now IPC :1.60746: AVG IPC :1.83028: L2-Pf-HR :0.87205: L2-HR :0.87321: (Sim:0h3m27s) 
CPU  0 inst:   22000003 cyc:   11939006 now IPC :1.73703: AVG IPC :1.82538: L2-Pf-HR :0.87043: L2-HR :0.87198: (Sim:0h3m36s) 
CPU  0 inst:   23000000 cyc:   12438353 now IPC :2.00261: AVG IPC :1.83311: L2-Pf-HR :0.87118: L2-HR :0.87335: (Sim:0h3m46s) 
CPU  0 inst:   24000000 cyc:   12987074 now IPC :1.82242: AVG IPC :1.83262: L2-Pf-HR :0.87344: L2-HR :0.87505: (Sim:0h3m55s) 
CPU  0 inst:   25000005 cyc:   13587549 now IPC :1.66536: AVG IPC :1.82465: L2-Pf-HR :0.87205: L2-HR :0.87338: (Sim:0h4m4s) 
CPU  0 inst:   26000005 cyc:   14178301 now IPC :1.69276: AVG IPC :1.81875: L2-Pf-HR :0.87050: L2-HR :0.87204: (Sim:0h4m14s) 
CPU  0 inst:   27000002 cyc:   14680291 now IPC :1.99207: AVG IPC :1.82510: L2-Pf-HR :0.87066: L2-HR :0.87288: (Sim:0h4m23s) 
CPU  0 inst:   28000000 cyc:   15218865 now IPC :1.85675: AVG IPC :1.82629: L2-Pf-HR :0.87330: L2-HR :0.87492: (Sim:0h4m33s) 
CPU  0 inst:   29000005 cyc:   15811804 now IPC :1.68652: AVG IPC :1.82071: L2-Pf-HR :0.87181: L2-HR :0.87347: (Sim:0h4m42s) 
CPU  0 inst:   30000004 cyc:   16432158 now IPC :1.61198: AVG IPC :1.81233: L2-Pf-HR :0.87045: L2-HR :0.87203: (Sim:0h4m52s) 
CPU  0 inst:   31000000 cyc:   16935232 now IPC :1.98777: AVG IPC :1.81786: L2-Pf-HR :0.87039: L2-HR :0.87257: (Sim:0h5m1s) 
CPU  0 inst:   32000001 cyc:   17457574 now IPC :1.91446: AVG IPC :1.82092: L2-Pf-HR :0.87304: L2-HR :0.87488: (Sim:0h5m11s) 
CPU  0 inst:   33000002 cyc:   18026681 now IPC :1.75714: AVG IPC :1.81879: L2-Pf-HR :0.87206: L2-HR :0.87403: (Sim:0h5m20s) 
CPU  0 inst:   34000005 cyc:   18688221 now IPC :1.51163: AVG IPC :1.80731: L2-Pf-HR :0.87034: L2-HR :0.87186: (Sim:0h5m30s) 
CPU  0 inst:   35000004 cyc:   19192149 now IPC :1.98441: AVG IPC :1.81222: L2-Pf-HR :0.87050: L2-HR :0.87249: (Sim:0h5m39s) 
CPU  0 inst:   36000004 cyc:   19686913 now IPC :2.02117: AVG IPC :1.81774: L2-Pf-HR :0.87274: L2-HR :0.87461: (Sim:0h5m48s) 
CPU  0 inst:   37000005 cyc:   20251803 now IPC :1.77026: AVG IPC :1.81635: L2-Pf-HR :0.87197: L2-HR :0.87406: (Sim:0h5m58s) 
CPU  0 inst:   38000005 cyc:   20937378 now IPC :1.45863: AVG IPC :1.80406: L2-Pf-HR :0.87046: L2-HR :0.87188: (Sim:0h6m8s) 
CPU  0 inst:   39000002 cyc:   21443422 now IPC :1.97611: AVG IPC :1.80832: L2-Pf-HR :0.87046: L2-HR :0.87232: (Sim:0h6m17s) 
CPU  0 inst:   40000002 cyc:   21940677 now IPC :2.01104: AVG IPC :1.81313: L2-Pf-HR :0.87216: L2-HR :0.87398: (Sim:0h6m26s) 
CPU  0 inst:   41000005 cyc:   22492752 now IPC :1.81135: AVG IPC :1.81308: L2-Pf-HR :0.87155: L2-HR :0.87359: (Sim:0h6m36s) 
CPU  0 inst:   42000001 cyc:   23173879 now IPC :1.46815: AVG IPC :1.80249: L2-Pf-HR :0.87014: L2-HR :0.87190: (Sim:0h6m46s) 
CPU  0 inst:   43000005 cyc:   23695203 now IPC :1.91820: AVG IPC :1.80515: L2-Pf-HR :0.87016: L2-HR :0.87223: (Sim:0h6m55s) 
CPU  0 inst:   44000002 cyc:   24193085 now IPC :2.00850: AVG IPC :1.80951: L2-Pf-HR :0.87152: L2-HR :0.87359: (Sim:0h7m4s) 
CPU  0 inst:   45000002 cyc:   24759207 now IPC :1.76640: AVG IPC :1.80848: L2-Pf-HR :0.87136: L2-HR :0.87341: (Sim:0h7m14s) 
CPU  0 inst:   46000004 cyc:   25428667 now IPC :1.49374: AVG IPC :1.79987: L2-Pf-HR :0.87043: L2-HR :0.87198: (Sim:0h7m24s) 
CPU  0 inst:   47000000 cyc:   25950389 now IPC :1.91672: AVG IPC :1.80231: L2-Pf-HR :0.87041: L2-HR :0.87221: (Sim:0h7m34s) 
CPU  0 inst:   48000004 cyc:   26447521 now IPC :2.01155: AVG IPC :1.80639: L2-Pf-HR :0.87131: L2-HR :0.87324: (Sim:0h7m43s) 
CPU  0 inst:   49000002 cyc:   27007615 now IPC :1.78541: AVG IPC :1.80594: L2-Pf-HR :0.87117: L2-HR :0.87310: (Sim:0h7m58s) 
CPU  0 inst:   50000003 cyc:   27659677 now IPC :1.53360: AVG IPC :1.79928: L2-Pf-HR :0.87052: L2-HR :0.87204: (Sim:0h8m7s) 
CPU  0 inst:   51000005 cyc:   28201729 now IPC :1.84485: AVG IPC :1.80019: L2-Pf-HR :0.87023: L2-HR :0.87199: (Sim:0h8m17s) 
CPU  0 inst:   52000002 cyc:   28701846 now IPC :1.99953: AVG IPC :1.80379: L2-Pf-HR :0.87110: L2-HR :0.87294: (Sim:0h8m26s) 
CPU  0 inst:   53000004 cyc:   29262936 now IPC :1.78225: AVG IPC :1.80336: L2-Pf-HR :0.87139: L2-HR :0.87313: (Sim:0h8m38s) 
CPU  0 inst:   54000005 cyc:   29902318 now IPC :1.56401: AVG IPC :1.79807: L2-Pf-HR :0.87075: L2-HR :0.87215: (Sim:0h8m48s) 
CPU  0 inst:   55000001 cyc:   30450199 now IPC :1.82521: AVG IPC :1.79857: L2-Pf-HR :0.87043: L2-HR :0.87203: (Sim:0h8m57s) 
CPU  0 inst:   56000004 cyc:   30945981 now IPC :2.01702: AVG IPC :1.80219: L2-Pf-HR :0.87093: L2-HR :0.87270: (Sim:0h9m7s) 
CPU  0 inst:   57000004 cyc:   31508093 now IPC :1.77900: AVG IPC :1.80176: L2-Pf-HR :0.87149: L2-HR :0.87311: (Sim:0h9m16s) 
CPU  0 inst:   58000004 cyc:   32139480 now IPC :1.58381: AVG IPC :1.79734: L2-Pf-HR :0.87103: L2-HR :0.87239: (Sim:0h9m26s) 
CPU  0 inst:   59000004 cyc:   32708769 now IPC :1.75658: AVG IPC :1.79661: L2-Pf-HR :0.87054: L2-HR :0.87202: (Sim:0h9m36s) 
CPU  0 inst:   60000000 cyc:   33209026 now IPC :1.99896: AVG IPC :1.79975: L2-Pf-HR :0.87076: L2-HR :0.87247: (Sim:0h9m45s) 
CPU  0 inst:   61000002 cyc:   33770427 now IPC :1.78126: AVG IPC :1.79944: L2-Pf-HR :0.87163: L2-HR :0.87307: (Sim:0h9m55s) 
CPU  0 inst:   62000005 cyc:   34378445 now IPC :1.64469: AVG IPC :1.79662: L2-Pf-HR :0.87115: L2-HR :0.87245: (Sim:0h10m6s) 
CPU  0 inst:   63000003 cyc:   34966864 now IPC :1.69947: AVG IPC :1.79494: L2-Pf-HR :0.87059: L2-HR :0.87196: (Sim:0h10m16s) 
CPU  0 inst:   64000004 cyc:   35470850 now IPC :1.98418: AVG IPC :1.79770: L2-Pf-HR :0.87076: L2-HR :0.87234: (Sim:0h10m26s) 
CPU  0 inst:   65000000 cyc:   36016902 now IPC :1.83132: AVG IPC :1.79823: L2-Pf-HR :0.87185: L2-HR :0.87318: (Sim:0h10m36s) 
CPU  0 inst:   66000001 cyc:   37195571 now IPC :0.84842: AVG IPC :1.76731: L2-Pf-HR :0.86953: L2-HR :0.86952: (Sim:0h10m50s) 
CPU  0 inst:   67000000 cyc:   42438005 now IPC :0.19075: AVG IPC :1.56794: L2-Pf-HR :0.84817: L2-HR :0.84264: (Sim:0h11m19s) 
CPU  0 inst:   68000005 cyc:   47907956 now IPC :0.18282: AVG IPC :1.40648: L2-Pf-HR :0.82830: L2-HR :0.81978: (Sim:0h12m13s) 
CPU  0 inst:   69000000 cyc:   51965817 now IPC :0.24643: AVG IPC :1.31415: L2-Pf-HR :0.82020: L2-HR :0.81160: (Sim:0h12m54s) 
CPU  0 inst:   70000000 cyc:   55537616 now IPC :0.27997: AVG IPC :1.24644: L2-Pf-HR :0.81669: L2-HR :0.80841: (Sim:0h13m30s) 
CPU  0 inst:   71000002 cyc:   59109736 now IPC :0.27995: AVG IPC :1.18705: L2-Pf-HR :0.81329: L2-HR :0.80532: (Sim:0h14m5s) 
CPU  0 inst:   72000004 cyc:   62679204 now IPC :0.28015: AVG IPC :1.13458: L2-Pf-HR :0.80997: L2-HR :0.80229: (Sim:0h14m41s) 
CPU  0 inst:   73000003 cyc:   66250362 now IPC :0.28002: AVG IPC :1.08782: L2-Pf-HR :0.80669: L2-HR :0.79931: (Sim:0h15m16s) 
CPU  0 inst:   74000000 cyc:   69820232 now IPC :0.28012: AVG IPC :1.04594: L2-Pf-HR :0.80342: L2-HR :0.79638: (Sim:0h15m51s) 
CPU  0 inst:   75000005 cyc:   73390105 now IPC :0.28012: AVG IPC :1.00818: L2-Pf-HR :0.80021: L2-HR :0.79349: (Sim:0h16m26s) 
CPU  0 inst:   76000000 cyc:   76959685 now IPC :0.28014: AVG IPC :0.97398: L2-Pf-HR :0.79704: L2-HR :0.79065: (Sim:0h17m2s) 
CPU  0 inst:   77000000 cyc:   80531417 now IPC :0.27998: AVG IPC :0.94281: L2-Pf-HR :0.79397: L2-HR :0.78789: (Sim:0h17m37s) 
CPU  0 inst:   78000000 cyc:   84102498 now IPC :0.28003: AVG IPC :0.91434: L2-Pf-HR :0.79089: L2-HR :0.78516: (Sim:0h18m12s) 
CPU  0 inst:   79000000 cyc:   87673885 now IPC :0.28000: AVG IPC :0.88821: L2-Pf-HR :0.78784: L2-HR :0.78246: (Sim:0h18m47s) 
CPU  0 inst:   80000004 cyc:   91245463 now IPC :0.27999: AVG IPC :0.86414: L2-Pf-HR :0.78485: L2-HR :0.77981: (Sim:0h19m23s) 
CPU  0 inst:   81000004 cyc:   94815082 now IPC :0.28014: AVG IPC :0.84192: L2-Pf-HR :0.78195: L2-HR :0.77723: (Sim:0h19m58s) 
CPU  0 inst:   82000000 cyc:   98385697 now IPC :0.28006: AVG IPC :0.82133: L2-Pf-HR :0.77901: L2-HR :0.77464: (Sim:0h20m33s) 
CPU  0 inst:   83000005 cyc:  101955625 now IPC :0.28012: AVG IPC :0.80219: L2-Pf-HR :0.77613: L2-HR :0.77212: (Sim:0h21m9s) 
CPU  0 inst:   84000001 cyc:  105524261 now IPC :0.28022: AVG IPC :0.78437: L2-Pf-HR :0.77333: L2-HR :0.76965: (Sim:0h21m44s) 
CPU  0 inst:   85000005 cyc:  109094831 now IPC :0.28007: AVG IPC :0.76772: L2-Pf-HR :0.77057: L2-HR :0.76723: (Sim:0h22m19s) 
CPU  0 inst:   86000000 cyc:  112665744 now IPC :0.28004: AVG IPC :0.75213: L2-Pf-HR :0.76787: L2-HR :0.76485: (Sim:0h22m54s) 
CPU  0 inst:   87000002 cyc:  116237146 now IPC :0.28000: AVG IPC :0.73750: L2-Pf-HR :0.76519: L2-HR :0.76250: (Sim:0h23m30s) 
CPU  0 inst:   88000004 cyc:  119807397 now IPC :0.28009: AVG IPC :0.72375: L2-Pf-HR :0.76247: L2-HR :0.76015: (Sim:0h24m5s) 
CPU  0 inst:   89000004 cyc:  123377494 now IPC :0.28010: AVG IPC :0.71081: L2-Pf-HR :0.75982: L2-HR :0.75787: (Sim:0h24m40s) 
CPU  0 inst:   90000000 cyc:  126947433 now IPC :0.28012: AVG IPC :0.69861: L2-Pf-HR :0.75723: L2-HR :0.75562: (Sim:0h25m15s) 
CPU  0 inst:   91000003 cyc:  130518656 now IPC :0.28002: AVG IPC :0.68707: L2-Pf-HR :0.75470: L2-HR :0.75342: (Sim:0h25m51s) 
CPU  0 inst:   92000002 cyc:  134089464 now IPC :0.28005: AVG IPC :0.67615: L2-Pf-HR :0.75218: L2-HR :0.75124: (Sim:0h26m26s) 
CPU  0 inst:   93000003 cyc:  137657810 now IPC :0.28024: AVG IPC :0.66581: L2-Pf-HR :0.74967: L2-HR :0.74909: (Sim:0h27m1s) 
CPU  0 inst:   94000002 cyc:  141227573 now IPC :0.28013: AVG IPC :0.65599: L2-Pf-HR :0.74724: L2-HR :0.74699: (Sim:0h27m37s) 
CPU  0 inst:   95000002 cyc:  144797825 now IPC :0.28009: AVG IPC :0.64666: L2-Pf-HR :0.74484: L2-HR :0.74491: (Sim:0h28m12s) 
CPU  0 inst:   96000004 cyc:  148367629 now IPC :0.28013: AVG IPC :0.63778: L2-Pf-HR :0.74251: L2-HR :0.74290: (Sim:0h28m47s) 
CPU  0 inst:   97000004 cyc:  151938553 now IPC :0.28004: AVG IPC :0.62932: L2-Pf-HR :0.74016: L2-HR :0.74089: (Sim:0h29m22s) 
CPU  0 inst:   98000000 cyc:  155509385 now IPC :0.28005: AVG IPC :0.62125: L2-Pf-HR :0.73780: L2-HR :0.73889: (Sim:0h29m58s) 
CPU  0 inst:   99000003 cyc:  159079765 now IPC :0.28008: AVG IPC :0.61355: L2-Pf-HR :0.73547: L2-HR :0.73691: (Sim:0h30m33s) 
CPU  0 inst:  100000002 cyc:  162650588 now IPC :0.28005: AVG IPC :0.60618: L2-Pf-HR :0.73318: L2-HR :0.73497: (Sim:0h31m8s) 
CPU  0 inst:  101000003 cyc:  164689101 now IPC :0.49055: AVG IPC :0.60474: L2-Pf-HR :0.73255: L2-HR :0.73554: (Sim:0h31m39s) 
CPU  0 inst:  102000004 cyc:  165278970 now IPC :1.69529: AVG IPC :0.60866: L2-Pf-HR :0.73389: L2-HR :0.73901: (Sim:0h32m6s) 
CPU  0 inst:  103000000 cyc:  165878225 now IPC :1.66873: AVG IPC :0.61251: L2-Pf-HR :0.73587: L2-HR :0.74294: (Sim:0h32m33s) 
CPU  0 inst:  104000003 cyc:  166404161 now IPC :1.90138: AVG IPC :0.61661: L2-Pf-HR :0.73899: L2-HR :0.74775: (Sim:0h32m59s) 
CPU  0 inst:  105000003 cyc:  166994872 now IPC :1.69288: AVG IPC :0.62044: L2-Pf-HR :0.74124: L2-HR :0.75186: (Sim:0h33m27s) 
CPU  0 inst:  106000000 cyc:  167584476 now IPC :1.69605: AVG IPC :0.62424: L2-Pf-HR :0.74256: L2-HR :0.75527: (Sim:0h33m54s) 
CPU  0 inst:  107000000 cyc:  168187259 now IPC :1.65897: AVG IPC :0.62797: L2-Pf-HR :0.74423: L2-HR :0.75880: (Sim:0h34m22s) 
CPU  0 inst:  108000005 cyc:  168707451 now IPC :1.92238: AVG IPC :0.63199: L2-Pf-HR :0.74734: L2-HR :0.76320: (Sim:0h34m48s) 
CPU  0 inst:  109000000 cyc:  169280070 now IPC :1.74635: AVG IPC :0.63578: L2-Pf-HR :0.74969: L2-HR :0.76696: (Sim:0h35m16s) 
CPU  0 inst:  110000005 cyc:  169857457 now IPC :1.73195: AVG IPC :0.63953: L2-Pf-HR :0.75057: L2-HR :0.76968: (Sim:0h35m43s) 
CPU  0 inst:  111000002 cyc:  170431905 now IPC :1.74080: AVG IPC :0.64326: L2-Pf-HR :0.75167: L2-HR :0.77244: (Sim:0h36m10s) 
CPU  0 inst:  112000000 cyc:  170953844 now IPC :1.91593: AVG IPC :0.64717: L2-Pf-HR :0.75422: L2-HR :0.77606: (Sim:0h36m36s) 
CPU  0 inst:  113000000 cyc:  171491409 now IPC :1.86024: AVG IPC :0.65099: L2-Pf-HR :0.75640: L2-HR :0.77935: (Sim:0h37m3s) 
CPU  0 inst:  114000001 cyc:  172058836 now IPC :1.76234: AVG IPC :0.65468: L2-Pf-HR :0.75714: L2-HR :0.78167: (Sim:0h37m30s) 
CPU  0 inst:  115000000 cyc:  172613565 now IPC :1.80268: AVG IPC :0.65839: L2-Pf-HR :0.75809: L2-HR :0.78407: (Sim:0h37m57s) 
CPU  0 inst:  116000002 cyc:  173154257 now IPC :1.84949: AVG IPC :0.66213: L2-Pf-HR :0.75970: L2-HR :0.78682: (Sim:0h38m23s) 
CPU  0 inst:  117000004 cyc:  173674772 now IPC :1.92118: AVG IPC :0.66592: L2-Pf-HR :0.76151: L2-HR :0.78968: (Sim:0h38m50s) 
CPU  0 inst:  118000004 cyc:  174257524 now IPC :1.71600: AVG IPC :0.66946: L2-Pf-HR :0.76229: L2-HR :0.79175: (Sim:0h39m17s) 
CPU  0 inst:  119000005 cyc:  174815405 now IPC :1.79250: AVG IPC :0.67306: L2-Pf-HR :0.76331: L2-HR :0.79395: (Sim:0h39m44s) 
CPU  0 inst:  120000005 cyc:  175363630 now IPC :1.82407: AVG IPC :0.67668: L2-Pf-HR :0.76516: L2-HR :0.79653: (Sim:0h40m10s) 
CPU  0 inst:  121000004 cyc:  175883150 now IPC :1.92485: AVG IPC :0.68039: L2-Pf-HR :0.76750: L2-HR :0.79935: (Sim:0h40m37s) 
CPU  0 inst:  122000003 cyc:  176458482 now IPC :1.73813: AVG IPC :0.68385: L2-Pf-HR :0.76858: L2-HR :0.80137: (Sim:0h41m4s) 
CPU  0 inst:  123000001 cyc:  177022094 now IPC :1.77427: AVG IPC :0.68734: L2-Pf-HR :0.76955: L2-HR :0.80335: (Sim:0h41m31s) 
CPU  0 inst:  124000002 cyc:  177581987 now IPC :1.78606: AVG IPC :0.69083: L2-Pf-HR :0.77127: L2-HR :0.80569: (Sim:0h41m57s) 
CPU  0 inst:  125000003 cyc:  178099868 now IPC :1.93095: AVG IPC :0.69445: L2-Pf-HR :0.77370: L2-HR :0.80839: (Sim:0h42m24s) 
CPU  0 inst:  126000005 cyc:  178658577 now IPC :1.78984: AVG IPC :0.69790: L2-Pf-HR :0.77504: L2-HR :0.81037: (Sim:0h42m49s) 
CPU  0 inst:  127000002 cyc:  179217154 now IPC :1.79026: AVG IPC :0.70132: L2-Pf-HR :0.77587: L2-HR :0.81204: (Sim:0h43m2s) 
CPU  0 inst:  128000001 cyc:  179776746 now IPC :1.78701: AVG IPC :0.70472: L2-Pf-HR :0.77696: L2-HR :0.81383: (Sim:0h43m16s) 
CPU  0 inst:  129000000 cyc:  180297251 now IPC :1.92121: AVG IPC :0.70825: L2-Pf-HR :0.77852: L2-HR :0.81593: (Sim:0h43m28s) 
CPU  0 inst:  130000002 cyc:  180858853 now IPC :1.78062: AVG IPC :0.71160: L2-Pf-HR :0.77956: L2-HR :0.81764: (Sim:0h43m41s) 
CPU  0 inst:  131000004 cyc:  181420587 now IPC :1.78021: AVG IPC :0.71493: L2-Pf-HR :0.78005: L2-HR :0.81906: (Sim:0h43m55s) 
CPU  0 inst:  132000001 cyc:  181989718 now IPC :1.75706: AVG IPC :0.71820: L2-Pf-HR :0.78065: L2-HR :0.82048: (Sim:0h44m8s) 
CPU  0 inst:  133000000 cyc:  182512117 now IPC :1.91424: AVG IPC :0.72164: L2-Pf-HR :0.78265: L2-HR :0.82261: (Sim:0h44m25s) 
CPU  0 inst:  134000001 cyc:  183054368 now IPC :1.84417: AVG IPC :0.72499: L2-Pf-HR :0.78432: L2-HR :0.82452: (Sim:0h44m51s) 
CPU  0 inst:  135000004 cyc:  183616870 now IPC :1.77778: AVG IPC :0.72823: L2-Pf-HR :0.78494: L2-HR :0.82587: (Sim:0h45m17s) 
CPU  0 inst:  136000001 cyc:  184197013 now IPC :1.72371: AVG IPC :0.73138: L2-Pf-HR :0.78538: L2-HR :0.82706: (Sim:0h45m43s) 
CPU  0 inst:  137000001 cyc:  184716013 now IPC :1.92678: AVG IPC :0.73476: L2-Pf-HR :0.78722: L2-HR :0.82896: (Sim:0h46m9s) 
CPU  0 inst:  138000002 cyc:  185233704 now IPC :1.93166: AVG IPC :0.73812: L2-Pf-HR :0.78904: L2-HR :0.83086: (Sim:0h46m34s) 
CPU  0 inst:  139000002 cyc:  185815954 now IPC :1.71748: AVG IPC :0.74121: L2-Pf-HR :0.78948: L2-HR :0.83194: (Sim:0h47m0s) 
CPU  0 inst:  140000005 cyc:  186381711 now IPC :1.76755: AVG IPC :0.74434: L2-Pf-HR :0.78989: L2-HR :0.83305: (Sim:0h47m15s) 
CPU  0 inst:  141000004 cyc:  186925540 now IPC :1.83881: AVG IPC :0.74754: L2-Pf-HR :0.79084: L2-HR :0.83437: (Sim:0h47m29s) 
CPU  0 inst:  142000000 cyc:  187445646 now IPC :1.92268: AVG IPC :0.75082: L2-Pf-HR :0.79202: L2-HR :0.83583: (Sim:0h47m42s) 
CPU  0 inst:  143000000 cyc:  188013265 now IPC :1.76175: AVG IPC :0.75389: L2-Pf-HR :0.79248: L2-HR :0.83684: (Sim:0h47m55s) 
CPU  0 inst:  144000005 cyc:  188578689 now IPC :1.76859: AVG IPC :0.75694: L2-Pf-HR :0.79287: L2-HR :0.83780: (Sim:0h48m8s) 
CPU  0 inst:  145000004 cyc:  189126140 now IPC :1.82665: AVG IPC :0.76006: L2-Pf-HR :0.79379: L2-HR :0.83904: (Sim:0h48m21s) 
CPU  0 inst:  146000004 cyc:  189643638 now IPC :1.93237: AVG IPC :0.76327: L2-Pf-HR :0.79511: L2-HR :0.84052: (Sim:0h48m33s) 
CPU  0 inst:  147000000 cyc:  190207812 now IPC :1.77250: AVG IPC :0.76628: L2-Pf-HR :0.79564: L2-HR :0.84154: (Sim:0h48m46s) 
CPU  0 inst:  148000004 cyc:  190774185 now IPC :1.76563: AVG IPC :0.76926: L2-Pf-HR :0.79587: L2-HR :0.84241: (Sim:0h48m59s) 
CPU  0 inst:  149000001 cyc:  191326609 now IPC :1.81020: AVG IPC :0.77229: L2-Pf-HR :0.79651: L2-HR :0.84344: (Sim:0h49m12s) 
CPU  0 inst:  150000000 cyc:  191845042 now IPC :1.92889: AVG IPC :0.77543: L2-Pf-HR :0.79766: L2-HR :0.84473: (Sim:0h49m25s) 
CPU  0 inst:  151000005 cyc:  192404446 now IPC :1.78763: AVG IPC :0.77838: L2-Pf-HR :0.79830: L2-HR :0.84571: (Sim:0h49m38s) 
CPU  0 inst:  152000003 cyc:  192972714 now IPC :1.75973: AVG IPC :0.78129: L2-Pf-HR :0.79861: L2-HR :0.84656: (Sim:0h49m51s) 
CPU  0 inst:  153000003 cyc:  193538855 now IPC :1.76634: AVG IPC :0.78419: L2-Pf-HR :0.79927: L2-HR :0.84755: (Sim:0h50m8s) 
CPU  0 inst:  154000003 cyc:  194056956 now IPC :1.93013: AVG IPC :0.78726: L2-Pf-HR :0.80063: L2-HR :0.84888: (Sim:0h50m34s) 
CPU  0 inst:  155000003 cyc:  194612653 now IPC :1.79954: AVG IPC :0.79017: L2-Pf-HR :0.80151: L2-HR :0.84991: (Sim:0h51m1s) 
CPU  0 inst:  156000002 cyc:  195168387 now IPC :1.79942: AVG IPC :0.79305: L2-Pf-HR :0.80194: L2-HR :0.85073: (Sim:0h51m27s) 
CPU  0 inst:  157000000 cyc:  195731735 now IPC :1.77510: AVG IPC :0.79589: L2-Pf-HR :0.80242: L2-HR :0.85155: (Sim:0h51m54s) 
CPU  0 inst:  158000000 cyc:  196251067 now IPC :1.92555: AVG IPC :0.79890: L2-Pf-HR :0.80386: L2-HR :0.85285: (Sim:0h52m20s) 
CPU  0 inst:  159000000 cyc:  196804520 now IPC :1.80684: AVG IPC :0.80175: L2-Pf-HR :0.80498: L2-HR :0.85393: (Sim:0h52m45s) 
CPU  0 inst:  160000003 cyc:  197363639 now IPC :1.78853: AVG IPC :0.80456: L2-Pf-HR :0.80541: L2-HR :0.85472: (Sim:0h53m11s) 
CPU  0 inst:  161000002 cyc:  197920630 now IPC :1.79536: AVG IPC :0.80736: L2-Pf-HR :0.80589: L2-HR :0.85553: (Sim:0h53m36s) 
CPU  0 inst:  162000002 cyc:  198456936 now IPC :1.86461: AVG IPC :0.81023: L2-Pf-HR :0.80677: L2-HR :0.85648: (Sim:0h54m2s) 
CPU  0 inst:  163000000 cyc:  198980322 now IPC :1.91063: AVG IPC :0.81314: L2-Pf-HR :0.80775: L2-HR :0.85750: (Sim:0h54m27s) 
CPU  0 inst:  164000001 cyc:  199563945 now IPC :1.71344: AVG IPC :0.81579: L2-Pf-HR :0.80797: L2-HR :0.85811: (Sim:0h54m52s) 
Finished CPU 0 instr: 162000005 cyc: 198581554 AVG IPC: 0.81579 (Sim time: 0h54m52s)

ChampSim completed all CPUs

[ROI Statistics]
Core_0_instructions 162000005
Core_0_cycles 198581554
Core_0_IPC 0.81579

Core_0_branch_prediction_accuracy 99.21038
Core_0_branch_MPKI 0.23475
Core_0_average_ROB_occupancy_at_mispredict 452.46904

Core_0_L1D_total_access 72347902
Core_0_L1D_total_hit 64433510 L1D_total_Hit Ratio: 0.89061
Core_0_L1D_total_miss 7914392
Core_0_L1D_loads 40695313
Core_0_L1D_load_hit 36564985 L1D_load_Hit Ratio: 0.89851
Core_0_L1D_load_miss 4130328
Core_0_L1D_RFOs 4379125
Core_0_L1D_RFO_hit 4173412 L1D_RFO_Hit Ratio: 0.95302
Core_0_L1D_RFO_miss 205713
Core_0_L1D_prefetches 27273464
Core_0_L1D_prefetch_hit 23695113 L1D_prefetch_Hit Ratio: 0.86880
Core_0_L1D_prefetch_miss 3578351
Core_0_L1D_writebacks 0
Core_0_L1D_writeback_hit 0 L1D_writeback_Hit Ratio: -nan
Core_0_L1D_writeback_miss 0
Core_0_L1D_prefetch_requested 29527307
Core_0_L1D_prefetch_issued 29527307
Core_0_L1D_prefetch_useful 1918369 L1D_Useful Ratio: 0.06497
Core_0_L1D_prefetch_useless 1693836
Core_0_L1D_prefetch_late 124333
Core_0_L1D_average_miss_latency 1164552.58751

Core_0_L1I_total_access 22931795
Core_0_L1I_total_hit 22926781 L1I_total_Hit Ratio: 0.99978
Core_0_L1I_total_miss 5014
Core_0_L1I_loads 22931795
Core_0_L1I_load_hit 22926781 L1I_load_Hit Ratio: 0.99978
Core_0_L1I_load_miss 5014
Core_0_L1I_RFOs 0
Core_0_L1I_RFO_hit 0 L1I_RFO_Hit Ratio: -nan
Core_0_L1I_RFO_miss 0
Core_0_L1I_prefetches 0
Core_0_L1I_prefetch_hit 0 L1I_prefetch_Hit Ratio: -nan
Core_0_L1I_prefetch_miss 0
Core_0_L1I_writebacks 0
Core_0_L1I_writeback_hit 0 L1I_writeback_Hit Ratio: -nan
Core_0_L1I_writeback_miss 0
Core_0_L1I_prefetch_requested 0
Core_0_L1I_prefetch_issued 0
Core_0_L1I_prefetch_useful 0 L1I_Useful Ratio: -nan
Core_0_L1I_prefetch_useless 0
Core_0_L1I_prefetch_late 0
Core_0_L1I_average_miss_latency 298.60531

Core_0_L2C_total_access 10338945
Core_0_L2C_total_hit 8871911 L2C_total_Hit Ratio: 0.85811
Core_0_L2C_total_miss 1467034
Core_0_L2C_loads 4011491
Core_0_L2C_load_hit 3722587 L2C_load_Hit Ratio: 0.92798
Core_0_L2C_load_miss 288904
Core_0_L2C_RFOs 205713
Core_0_L2C_RFO_hit 10739 L2C_RFO_Hit Ratio: 0.05220
Core_0_L2C_RFO_miss 194974
Core_0_L2C_prefetches 5119668
Core_0_L2C_prefetch_hit 4136520 L2C_prefetch_Hit Ratio: 0.80797
Core_0_L2C_prefetch_miss 983148
Core_0_L2C_writebacks 1002073
Core_0_L2C_writeback_hit 1002065 L2C_writeback_Hit Ratio: 0.99999
Core_0_L2C_writeback_miss 8
Core_0_L2C_prefetch_requested 2232641
Core_0_L2C_prefetch_issued 1798078
Core_0_L2C_prefetch_useful 372880 L2C_Useful Ratio: 0.20738
Core_0_L2C_prefetch_useless 617988
Core_0_L2C_prefetch_late 104358
Core_0_L2C_average_miss_latency 366.86620

Core_0_LLC_total_access 2304520
Core_0_LLC_total_hit 874968 LLC_total_Hit Ratio: 0.37967
Core_0_LLC_total_miss 1429552
Core_0_LLC_loads 184676
Core_0_LLC_load_hit 6216 LLC_load_Hit Ratio: 0.03366
Core_0_LLC_load_miss 178460
Core_0_LLC_RFOs 194973
Core_0_LLC_RFO_hit 277 LLC_RFO_Hit Ratio: 0.00142
Core_0_LLC_RFO_miss 194696
Core_0_LLC_prefetches 1087377
Core_0_LLC_prefetch_hit 34563 LLC_prefetch_Hit Ratio: 0.03179
Core_0_LLC_prefetch_miss 1052814
Core_0_LLC_writebacks 837494
Core_0_LLC_writeback_hit 833912 LLC_writeback_Hit Ratio: 0.99572
Core_0_LLC_writeback_miss 3582
Core_0_LLC_prefetch_requested 0
Core_0_LLC_prefetch_issued 0
Core_0_LLC_prefetch_useful 3812 LLC_Useful Ratio: inf
Core_0_LLC_prefetch_useless 1020729
Core_0_LLC_prefetch_late 0
Core_0_LLC_average_miss_latency 355.70673

Core_0_major_page_fault 0
Core_0_minor_page_fault 11197

CPU 0 L1D berti prefetcher final stats
0-> Hits: 16, Late: 5, Early: 0, Misses: 0
1-> Hits: 2, Late: 1, Early: 0, Misses: 0
3-> Hits: 5, Late: 0, Early: 0, Misses: 0
4-> Hits: 2, Late: 0, Early: 0, Misses: 0
5-> Hits: 3, Late: 1, Early: 0, Misses: 0
6-> Hits: 1, Late: 0, Early: 0, Misses: 0
7-> Hits: 2, Late: 0, Early: 0, Misses: 0
8-> Hits: 0, Late: 1, Early: 0, Misses: 0
9-> Hits: 2, Late: 0, Early: 0, Misses: 0
a-> Hits: 0, Late: 2, Early: 0, Misses: 0
b-> Hits: 5, Late: 0, Early: 0, Misses: 0
e-> Hits: 21, Late: 0, Early: 0, Misses: 0
10-> Hits: 2, Late: 0, Early: 0, Misses: 0
11-> Hits: 0, Late: 1, Early: 0, Misses: 0
13-> Hits: 1, Late: 0, Early: 0, Misses: 0
14-> Hits: 2, Late: 0, Early: 0, Misses: 0
16-> Hits: 12, Late: 0, Early: 0, Misses: 0
17-> Hits: 3, Late: 0, Early: 0, Misses: 0
18-> Hits: 1, Late: 0, Early: 0, Misses: 0
1a-> Hits: 352, Late: 2, Early: 0, Misses: 0
1b-> Hits: 1, Late: 0, Early: 0, Misses: 0
1c-> Hits: 21, Late: 0, Early: 0, Misses: 0
1d-> Hits: 3, Late: 1, Early: 0, Misses: 0
1e-> Hits: 3, Late: 0, Early: 0, Misses: 0
1f-> Hits: 1, Late: 0, Early: 0, Misses: 0
20-> Hits: 2, Late: 1, Early: 0, Misses: 0
21-> Hits: 308, Late: 0, Early: 0, Misses: 0
22-> Hits: 2, Late: 2, Early: 0, Misses: 0
24-> Hits: 19, Late: 0, Early: 0, Misses: 0
25-> Hits: 3, Late: 0, Early: 0, Misses: 0
27-> Hits: 29, Late: 0, Early: 0, Misses: 0
28-> Hits: 10, Late: 0, Early: 0, Misses: 0
2a-> Hits: 333, Late: 1, Early: 0, Misses: 0
2b-> Hits: 6, Late: 0, Early: 0, Misses: 0
2c-> Hits: 1, Late: 0, Early: 0, Misses: 0
2d-> Hits: 1, Late: 0, Early: 0, Misses: 0
2f-> Hits: 1, Late: 0, Early: 0, Misses: 0
30-> Hits: 7, Late: 2, Early: 0, Misses: 0
33-> Hits: 11, Late: 0, Early: 0, Misses: 0
34-> Hits: 11, Late: 0, Early: 0, Misses: 0
35-> Hits: 7, Late: 328, Early: 0, Misses: 16
36-> Hits: 2, Late: 0, Early: 0, Misses: 0
37-> Hits: 1, Late: 0, Early: 0, Misses: 0
38-> Hits: 4, Late: 0, Early: 0, Misses: 0
39-> Hits: 2, Late: 0, Early: 0, Misses: 0
3a-> Hits: 2, Late: 0, Early: 0, Misses: 0
3c-> Hits: 2, Late: 0, Early: 0, Misses: 0
3d-> Hits: 0, Late: 32, Early: 0, Misses: 0
3e-> Hits: 2, Late: 0, Early: 0, Misses: 0
3f-> Hits: 1, Late: 0, Early: 0, Misses: 0
40-> Hits: 2, Late: 2, Early: 0, Misses: 0
43-> Hits: 2, Late: 0, Early: 0, Misses: 0
44-> Hits: 3, Late: 0, Early: 0, Misses: 0
45-> Hits: 2, Late: 0, Early: 0, Misses: 0
46-> Hits: 2, Late: 0, Early: 0, Misses: 0
47-> Hits: 2, Late: 0, Early: 0, Misses: 0
48-> Hits: 37, Late: 0, Early: 0, Misses: 0
49-> Hits: 39, Late: 0, Early: 0, Misses: 0
4a-> Hits: 34, Late: 0, Early: 0, Misses: 0
4b-> Hits: 34, Late: 0, Early: 0, Misses: 0
4d-> Hits: 34, Late: 0, Early: 0, Misses: 0
4e-> Hits: 1, Late: 0, Early: 0, Misses: 0
4f-> Hits: 32, Late: 0, Early: 0, Misses: 0
50-> Hits: 8, Late: 2, Early: 0, Misses: 0
51-> Hits: 32, Late: 0, Early: 0, Misses: 0
52-> Hits: 1, Late: 0, Early: 0, Misses: 0
53-> Hits: 35, Late: 0, Early: 0, Misses: 0
54-> Hits: 3, Late: 0, Early: 0, Misses: 0
56-> Hits: 634, Late: 0, Early: 0, Misses: 66
58-> Hits: 2, Late: 0, Early: 0, Misses: 0
5a-> Hits: 2, Late: 0, Early: 0, Misses: 0
5c-> Hits: 9, Late: 1, Early: 0, Misses: 0
5d-> Hits: 4, Late: 0, Early: 0, Misses: 0
61-> Hits: 3, Late: 0, Early: 0, Misses: 0
62-> Hits: 2, Late: 0, Early: 0, Misses: 0
63-> Hits: 0, Late: 2, Early: 0, Misses: 0
64-> Hits: 353, Late: 2, Early: 0, Misses: 0
69-> Hits: 2, Late: 0, Early: 0, Misses: 0
6a-> Hits: 2, Late: 0, Early: 0, Misses: 0
6b-> Hits: 1, Late: 16, Early: 0, Misses: 0
6f-> Hits: 1, Late: 0, Early: 0, Misses: 0
70-> Hits: 545, Late: 1, Early: 0, Misses: 0
76-> Hits: 2, Late: 1, Early: 0, Misses: 0
77-> Hits: 2, Late: 0, Early: 0, Misses: 0
78-> Hits: 354, Late: 0, Early: 0, Misses: 0
79-> Hits: 1, Late: 0, Early: 0, Misses: 0
7a-> Hits: 3, Late: 0, Early: 0, Misses: 0
7b-> Hits: 3, Late: 2, Early: 0, Misses: 0
7c-> Hits: 1, Late: 0, Early: 0, Misses: 0
7d-> Hits: 1, Late: 0, Early: 0, Misses: 0
7e-> Hits: 3, Late: 0, Early: 0, Misses: 0
7f-> Hits: 5, Late: 0, Early: 0, Misses: 0
80-> Hits: 42918, Late: 94, Early: 0, Misses: 0
81-> Hits: 1, Late: 0, Early: 0, Misses: 0
82-> Hits: 2, Late: 0, Early: 0, Misses: 0
84-> Hits: 4, Late: 1, Early: 0, Misses: 0
86-> Hits: 1, Late: 0, Early: 0, Misses: 0
88-> Hits: 3707, Late: 443, Early: 0, Misses: 32
89-> Hits: 16, Late: 1, Early: 0, Misses: 0
8a-> Hits: 2, Late: 0, Early: 0, Misses: 0
8f-> Hits: 27, Late: 0, Early: 0, Misses: 15
90-> Hits: 0, Late: 1, Early: 0, Misses: 0
91-> Hits: 2, Late: 0, Early: 0, Misses: 0
92-> Hits: 42791, Late: 16, Early: 0, Misses: 0
94-> Hits: 16, Late: 0, Early: 0, Misses: 0
95-> Hits: 1, Late: 0, Early: 0, Misses: 0
96-> Hits: 3, Late: 0, Early: 0, Misses: 0
98-> Hits: 3, Late: 0, Early: 0, Misses: 0
99-> Hits: 1, Late: 0, Early: 0, Misses: 0
9a-> Hits: 5, Late: 0, Early: 0, Misses: 0
9b-> Hits: 3, Late: 0, Early: 0, Misses: 0
9c-> Hits: 2620, Late: 0, Early: 0, Misses: 0
9d-> Hits: 2, Late: 0, Early: 0, Misses: 0
9e-> Hits: 2, Late: 0, Early: 0, Misses: 0
9f-> Hits: 4, Late: 0, Early: 0, Misses: 0
a0-> Hits: 2017, Late: 2, Early: 0, Misses: 2
a1-> Hits: 5, Late: 0, Early: 0, Misses: 0
a2-> Hits: 1, Late: 0, Early: 0, Misses: 0
a3-> Hits: 3, Late: 0, Early: 0, Misses: 0
a4-> Hits: 7, Late: 0, Early: 0, Misses: 0
a5-> Hits: 4, Late: 0, Early: 0, Misses: 0
a6-> Hits: 42791, Late: 16, Early: 0, Misses: 0
a7-> Hits: 4, Late: 0, Early: 0, Misses: 0
a8-> Hits: 3, Late: 0, Early: 0, Misses: 0
a9-> Hits: 4, Late: 0, Early: 0, Misses: 0
aa-> Hits: 3, Late: 0, Early: 0, Misses: 0
ab-> Hits: 5, Late: 0, Early: 0, Misses: 0
ac-> Hits: 541, Late: 17, Early: 0, Misses: 0
ad-> Hits: 4, Late: 0, Early: 0, Misses: 0
ae-> Hits: 7, Late: 0, Early: 0, Misses: 0
af-> Hits: 3, Late: 15, Early: 0, Misses: 0
b0-> Hits: 15, Late: 6, Early: 0, Misses: 0
b1-> Hits: 1, Late: 1, Early: 0, Misses: 0
b3-> Hits: 6, Late: 0, Early: 0, Misses: 0
b4-> Hits: 4, Late: 0, Early: 0, Misses: 0
b6-> Hits: 30551, Late: 12464, Early: 0, Misses: 0
b7-> Hits: 2043, Late: 0, Early: 0, Misses: 0
b8-> Hits: 2, Late: 1, Early: 0, Misses: 0
ba-> Hits: 2, Late: 0, Early: 0, Misses: 0
bb-> Hits: 1648, Late: 41361, Early: 0, Misses: 0
bc-> Hits: 2, Late: 0, Early: 0, Misses: 0
bf-> Hits: 1, Late: 0, Early: 0, Misses: 0
c0-> Hits: 11, Late: 34, Early: 0, Misses: 0
c1-> Hits: 1, Late: 0, Early: 0, Misses: 0
c2-> Hits: 6, Late: 1, Early: 0, Misses: 0
c3-> Hits: 6, Late: 0, Early: 0, Misses: 0
c4-> Hits: 357, Late: 0, Early: 0, Misses: 16
c5-> Hits: 1, Late: 0, Early: 0, Misses: 0
c6-> Hits: 151, Late: 1, Early: 0, Misses: 0
c7-> Hits: 5, Late: 0, Early: 0, Misses: 0
c8-> Hits: 10, Late: 0, Early: 0, Misses: 0
c9-> Hits: 1, Late: 0, Early: 0, Misses: 0
ca-> Hits: 1, Late: 0, Early: 0, Misses: 0
cb-> Hits: 33575, Late: 9785, Early: 0, Misses: 17
cc-> Hits: 1, Late: 0, Early: 0, Misses: 0
cf-> Hits: 1, Late: 0, Early: 0, Misses: 0
d0-> Hits: 1811, Late: 43245, Early: 0, Misses: 0
d1-> Hits: 4, Late: 0, Early: 0, Misses: 0
d2-> Hits: 6, Late: 0, Early: 0, Misses: 0
d3-> Hits: 38, Late: 0, Early: 0, Misses: 0
d4-> Hits: 1, Late: 0, Early: 0, Misses: 0
d5-> Hits: 2, Late: 0, Early: 0, Misses: 0
d6-> Hits: 1, Late: 1, Early: 0, Misses: 0
d7-> Hits: 1, Late: 0, Early: 0, Misses: 0
d8-> Hits: 1, Late: 0, Early: 0, Misses: 0
d9-> Hits: 5, Late: 367, Early: 0, Misses: 1
da-> Hits: 1225, Late: 823, Early: 0, Misses: 0
db-> Hits: 2, Late: 0, Early: 0, Misses: 0
dd-> Hits: 2, Late: 0, Early: 0, Misses: 0
df-> Hits: 1, Late: 0, Early: 0, Misses: 0
e0-> Hits: 12, Late: 6, Early: 0, Misses: 0
e1-> Hits: 1, Late: 0, Early: 0, Misses: 0
e5-> Hits: 0, Late: 2048, Early: 0, Misses: 0
ea-> Hits: 2, Late: 0, Early: 0, Misses: 0
ef-> Hits: 1781, Late: 267, Early: 0, Misses: 0
f3-> Hits: 361, Late: 1, Early: 0, Misses: 0
f4-> Hits: 1, Late: 0, Early: 0, Misses: 0
f6-> Hits: 2, Late: 0, Early: 0, Misses: 0
f7-> Hits: 4, Late: 0, Early: 0, Misses: 0
f8-> Hits: 3, Late: 0, Early: 0, Misses: 0
fa-> Hits: 2, Late: 0, Early: 0, Misses: 0
fb-> Hits: 16, Late: 0, Early: 0, Misses: 0
fc-> Hits: 1, Late: 0, Early: 0, Misses: 0
fd-> Hits: 2, Late: 0, Early: 0, Misses: 0
fe-> Hits: 1, Late: 0, Early: 0, Misses: 0
ff-> Hits: 4, Late: 0, Early: 0, Misses: 0
100-> Hits: 11, Late: 2, Early: 0, Misses: 0
101-> Hits: 1, Late: 0, Early: 0, Misses: 0
103-> Hits: 1, Late: 0, Early: 0, Misses: 0
104-> Hits: 0, Late: 1, Early: 0, Misses: 0
106-> Hits: 1, Late: 0, Early: 0, Misses: 0
10a-> Hits: 1, Late: 0, Early: 0, Misses: 0
10b-> Hits: 3, Late: 0, Early: 0, Misses: 0
10d-> Hits: 3, Late: 0, Early: 0, Misses: 0
10e-> Hits: 1, Late: 0, Early: 0, Misses: 0
10f-> Hits: 1, Late: 0, Early: 0, Misses: 0
110-> Hits: 1, Late: 1, Early: 0, Misses: 0
112-> Hits: 12, Late: 1, Early: 0, Misses: 0
114-> Hits: 1, Late: 0, Early: 0, Misses: 0
115-> Hits: 32562, Late: 207, Early: 0, Misses: 0
116-> Hits: 1, Late: 0, Early: 0, Misses: 0
117-> Hits: 3, Late: 0, Early: 0, Misses: 0
118-> Hits: 1, Late: 0, Early: 0, Misses: 0
11a-> Hits: 4, Late: 0, Early: 0, Misses: 0
11b-> Hits: 3, Late: 0, Early: 0, Misses: 0
11c-> Hits: 7924, Late: 7, Early: 0, Misses: 0
11d-> Hits: 1, Late: 0, Early: 0, Misses: 0
11e-> Hits: 2, Late: 0, Early: 0, Misses: 0
11f-> Hits: 1, Late: 0, Early: 0, Misses: 0
120-> Hits: 2, Late: 2, Early: 0, Misses: 0
121-> Hits: 1, Late: 0, Early: 0, Misses: 0
122-> Hits: 2, Late: 0, Early: 0, Misses: 0
123-> Hits: 1, Late: 0, Early: 0, Misses: 0
124-> Hits: 3, Late: 0, Early: 0, Misses: 0
125-> Hits: 1, Late: 0, Early: 0, Misses: 0
126-> Hits: 1, Late: 0, Early: 0, Misses: 0
127-> Hits: 32763, Late: 2, Early: 0, Misses: 0
128-> Hits: 361, Late: 7, Early: 0, Misses: 0
129-> Hits: 2, Late: 0, Early: 0, Misses: 0
12b-> Hits: 6, Late: 0, Early: 0, Misses: 0
12c-> Hits: 2, Late: 0, Early: 0, Misses: 0
12d-> Hits: 2, Late: 0, Early: 0, Misses: 0
12e-> Hits: 3065, Late: 0, Early: 0, Misses: 0
12f-> Hits: 1, Late: 0, Early: 0, Misses: 0
130-> Hits: 9, Late: 1, Early: 0, Misses: 0
132-> Hits: 1, Late: 0, Early: 0, Misses: 0
133-> Hits: 1, Late: 0, Early: 0, Misses: 0
134-> Hits: 0, Late: 1, Early: 0, Misses: 0
136-> Hits: 1, Late: 0, Early: 0, Misses: 0
137-> Hits: 1, Late: 0, Early: 0, Misses: 0
138-> Hits: 1, Late: 0, Early: 0, Misses: 0
139-> Hits: 2292, Late: 0, Early: 0, Misses: 0
13a-> Hits: 3, Late: 0, Early: 0, Misses: 0
13b-> Hits: 1, Late: 0, Early: 0, Misses: 0
13c-> Hits: 1, Late: 0, Early: 0, Misses: 0
13e-> Hits: 1, Late: 0, Early: 0, Misses: 0
13f-> Hits: 1, Late: 0, Early: 0, Misses: 0
140-> Hits: 1, Late: 3, Early: 0, Misses: 0
142-> Hits: 4, Late: 0, Early: 0, Misses: 0
143-> Hits: 1, Late: 0, Early: 0, Misses: 0
144-> Hits: 1988, Late: 11, Early: 0, Misses: 0
145-> Hits: 1, Late: 0, Early: 0, Misses: 0
147-> Hits: 18, Late: 0, Early: 0, Misses: 0
148-> Hits: 2, Late: 0, Early: 0, Misses: 0
149-> Hits: 4, Late: 0, Early: 0, Misses: 0
14a-> Hits: 32758, Late: 0, Early: 0, Misses: 0
14d-> Hits: 0, Late: 1, Early: 0, Misses: 0
14f-> Hits: 17, Late: 0, Early: 0, Misses: 0
154-> Hits: 2721, Late: 2, Early: 0, Misses: 0
155-> Hits: 2, Late: 2, Early: 0, Misses: 0
156-> Hits: 0, Late: 1, Early: 0, Misses: 0
159-> Hits: 20, Late: 0, Early: 0, Misses: 0
15b-> Hits: 2, Late: 0, Early: 0, Misses: 0
15d-> Hits: 3, Late: 0, Early: 0, Misses: 0
15f-> Hits: 3452, Late: 0, Early: 0, Misses: 0
160-> Hits: 1, Late: 0, Early: 0, Misses: 0
163-> Hits: 1, Late: 0, Early: 0, Misses: 0
164-> Hits: 369, Late: 0, Early: 0, Misses: 0
165-> Hits: 2, Late: 0, Early: 0, Misses: 0
168-> Hits: 1, Late: 0, Early: 0, Misses: 0
169-> Hits: 16, Late: 0, Early: 0, Misses: 0
16a-> Hits: 7388, Late: 27, Early: 0, Misses: 0
16b-> Hits: 18, Late: 0, Early: 0, Misses: 0
16d-> Hits: 32, Late: 0, Early: 0, Misses: 0
16e-> Hits: 5, Late: 368, Early: 0, Misses: 0
16f-> Hits: 18, Late: 0, Early: 0, Misses: 0
171-> Hits: 16, Late: 0, Early: 0, Misses: 0
172-> Hits: 2, Late: 0, Early: 0, Misses: 0
175-> Hits: 7317, Late: 28, Early: 0, Misses: 0
176-> Hits: 18, Late: 0, Early: 0, Misses: 0
177-> Hits: 17, Late: 0, Early: 0, Misses: 0
178-> Hits: 1, Late: 0, Early: 0, Misses: 0
17a-> Hits: 0, Late: 1, Early: 0, Misses: 0
17b-> Hits: 4145, Late: 0, Early: 0, Misses: 0
17c-> Hits: 22, Late: 0, Early: 0, Misses: 0
17d-> Hits: 2, Late: 0, Early: 0, Misses: 0
17e-> Hits: 2, Late: 0, Early: 0, Misses: 0
180-> Hits: 13, Late: 6, Early: 0, Misses: 0
181-> Hits: 9, Late: 0, Early: 0, Misses: 0
184-> Hits: 6, Late: 0, Early: 0, Misses: 0
185-> Hits: 6419, Late: 0, Early: 0, Misses: 0
188-> Hits: 2, Late: 0, Early: 0, Misses: 0
189-> Hits: 3, Late: 0, Early: 0, Misses: 0
18b-> Hits: 32685, Late: 3, Early: 0, Misses: 0
18c-> Hits: 2, Late: 0, Early: 0, Misses: 0
18e-> Hits: 1, Late: 0, Early: 0, Misses: 0
18f-> Hits: 1, Late: 0, Early: 0, Misses: 0
190-> Hits: 10, Late: 1, Early: 0, Misses: 0
192-> Hits: 2, Late: 0, Early: 0, Misses: 0
194-> Hits: 1, Late: 32, Early: 0, Misses: 0
195-> Hits: 3, Late: 0, Early: 0, Misses: 0
197-> Hits: 4431, Late: 1, Early: 0, Misses: 0
198-> Hits: 5, Late: 0, Early: 0, Misses: 0
199-> Hits: 6, Late: 32, Early: 0, Misses: 0
19a-> Hits: 3, Late: 0, Early: 0, Misses: 0
19b-> Hits: 6, Late: 0, Early: 0, Misses: 0
19c-> Hits: 3, Late: 0, Early: 0, Misses: 0
19d-> Hits: 12, Late: 1, Early: 0, Misses: 0
19e-> Hits: 2, Late: 0, Early: 0, Misses: 0
19f-> Hits: 4, Late: 0, Early: 0, Misses: 0
1a0-> Hits: 3595, Late: 2295, Early: 0, Misses: 84834
1a1-> Hits: 5, Late: 0, Early: 0, Misses: 0
1a2-> Hits: 3397, Late: 14, Early: 0, Misses: 0
1a4-> Hits: 54352, Late: 640, Early: 0, Misses: 29193
1a5-> Hits: 1, Late: 0, Early: 0, Misses: 0
1a6-> Hits: 1, Late: 0, Early: 0, Misses: 0
1a7-> Hits: 4, Late: 0, Early: 0, Misses: 0
1a8-> Hits: 4, Late: 0, Early: 0, Misses: 0
1a9-> Hits: 4026, Late: 60, Early: 0, Misses: 2552
1ad-> Hits: 3066, Late: 16, Early: 0, Misses: 0
1ae-> Hits: 2, Late: 0, Early: 0, Misses: 0
1af-> Hits: 7, Late: 0, Early: 0, Misses: 0
1b0-> Hits: 5, Late: 2, Early: 0, Misses: 0
1b1-> Hits: 77719, Late: 1436, Early: 0, Misses: 3775
1b3-> Hits: 32772, Late: 0, Early: 0, Misses: 0
1b5-> Hits: 2, Late: 2, Early: 0, Misses: 0
1b6-> Hits: 2, Late: 1, Early: 0, Misses: 0
1b7-> Hits: 26, Late: 3, Early: 0, Misses: 0
1b8-> Hits: 2, Late: 2, Early: 0, Misses: 0
1b9-> Hits: 1, Late: 0, Early: 0, Misses: 0
1ba-> Hits: 3, Late: 0, Early: 0, Misses: 0
1bc-> Hits: 3007, Late: 3, Early: 0, Misses: 0
1bd-> Hits: 5, Late: 0, Early: 0, Misses: 0
1be-> Hits: 5, Late: 0, Early: 0, Misses: 0
1bf-> Hits: 7, Late: 0, Early: 0, Misses: 0
1c0-> Hits: 3, Late: 3, Early: 0, Misses: 0
1c1-> Hits: 62759, Late: 6886, Early: 0, Misses: 21069
1c2-> Hits: 16, Late: 2, Early: 0, Misses: 0
1c3-> Hits: 5, Late: 0, Early: 0, Misses: 0
1c4-> Hits: 3, Late: 0, Early: 0, Misses: 0
1c5-> Hits: 80117, Late: 1447, Early: 0, Misses: 3773
1c6-> Hits: 4, Late: 0, Early: 0, Misses: 0
1c7-> Hits: 2728, Late: 2, Early: 0, Misses: 0
1c8-> Hits: 3, Late: 0, Early: 0, Misses: 0
1c9-> Hits: 1, Late: 0, Early: 0, Misses: 0
1ca-> Hits: 2, Late: 0, Early: 0, Misses: 0
1cc-> Hits: 1, Late: 2, Early: 0, Misses: 0
1cd-> Hits: 9, Late: 0, Early: 0, Misses: 0
1ce-> Hits: 3, Late: 0, Early: 0, Misses: 0
1d0-> Hits: 11, Late: 1, Early: 0, Misses: 0
1d2-> Hits: 3713, Late: 1, Early: 0, Misses: 0
1d4-> Hits: 1, Late: 0, Early: 0, Misses: 0
1d6-> Hits: 82260, Late: 1534, Early: 0, Misses: 3780
1d7-> Hits: 1, Late: 0, Early: 0, Misses: 0
1d8-> Hits: 7, Late: 0, Early: 0, Misses: 0
1da-> Hits: 3, Late: 0, Early: 0, Misses: 0
1db-> Hits: 5, Late: 1, Early: 0, Misses: 0
1dd-> Hits: 32498, Late: 77, Early: 0, Misses: 0
1de-> Hits: 11, Late: 1, Early: 0, Misses: 0
1df-> Hits: 13, Late: 0, Early: 0, Misses: 0
1e0-> Hits: 9, Late: 1, Early: 0, Misses: 0
1e1-> Hits: 8, Late: 1, Early: 0, Misses: 0
1e2-> Hits: 1, Late: 1, Early: 0, Misses: 0
1e3-> Hits: 3641, Late: 0, Early: 0, Misses: 0
1e4-> Hits: 0, Late: 1, Early: 0, Misses: 0
1e5-> Hits: 1, Late: 1, Early: 0, Misses: 0
1e7-> Hits: 80578, Late: 1515, Early: 0, Misses: 3780
1e8-> Hits: 0, Late: 1, Early: 0, Misses: 0
1ea-> Hits: 0, Late: 1, Early: 0, Misses: 0
1eb-> Hits: 5, Late: 0, Early: 0, Misses: 0
1ec-> Hits: 2, Late: 0, Early: 0, Misses: 0
1ef-> Hits: 19, Late: 0, Early: 0, Misses: 0
1f0-> Hits: 13, Late: 370, Early: 0, Misses: 0
1f1-> Hits: 1, Late: 1, Early: 0, Misses: 0
1f2-> Hits: 1, Late: 0, Early: 0, Misses: 0
1f4-> Hits: 1, Late: 310, Early: 0, Misses: 0
1f6-> Hits: 1, Late: 0, Early: 0, Misses: 0
1f7-> Hits: 82578, Late: 1498, Early: 0, Misses: 3775
1f8-> Hits: 5, Late: 0, Early: 0, Misses: 0
1f9-> Hits: 2, Late: 12, Early: 0, Misses: 0
1fa-> Hits: 1, Late: 0, Early: 0, Misses: 0
1fc-> Hits: 2, Late: 16, Early: 0, Misses: 0
1fd-> Hits: 0, Late: 1, Early: 0, Misses: 0
1fe-> Hits: 13, Late: 35, Early: 0, Misses: 0
200-> Hits: 1, Late: 0, Early: 0, Misses: 0
201-> Hits: 5, Late: 0, Early: 0, Misses: 0
202-> Hits: 1, Late: 0, Early: 0, Misses: 0
203-> Hits: 11, Late: 1, Early: 0, Misses: 0
205-> Hits: 3, Late: 0, Early: 0, Misses: 0
206-> Hits: 4, Late: 1, Early: 0, Misses: 0
207-> Hits: 10, Late: 0, Early: 0, Misses: 0
208-> Hits: 81314, Late: 1528, Early: 0, Misses: 3774
20a-> Hits: 5, Late: 0, Early: 0, Misses: 0
20c-> Hits: 5, Late: 0, Early: 0, Misses: 0
20e-> Hits: 6, Late: 0, Early: 0, Misses: 0
20f-> Hits: 13, Late: 3, Early: 0, Misses: 0
210-> Hits: 2064, Late: 3, Early: 0, Misses: 0
212-> Hits: 5, Late: 0, Early: 0, Misses: 0
214-> Hits: 4, Late: 10, Early: 0, Misses: 0
216-> Hits: 3, Late: 0, Early: 0, Misses: 0
217-> Hits: 12, Late: 1, Early: 0, Misses: 0
218-> Hits: 3, Late: 0, Early: 0, Misses: 0
219-> Hits: 3400, Late: 1764, Early: 0, Misses: 85557
21a-> Hits: 8, Late: 1, Early: 0, Misses: 0
21d-> Hits: 56466, Late: 653, Early: 0, Misses: 27297
21f-> Hits: 10, Late: 0, Early: 0, Misses: 0
220-> Hits: 5, Late: 4, Early: 0, Misses: 0
221-> Hits: 4, Late: 1, Early: 0, Misses: 0
222-> Hits: 5106, Late: 40, Early: 0, Misses: 1285
224-> Hits: 1, Late: 2, Early: 0, Misses: 0
225-> Hits: 7, Late: 0, Early: 0, Misses: 0
226-> Hits: 1, Late: 0, Early: 0, Misses: 0
227-> Hits: 0, Late: 1, Early: 0, Misses: 0
228-> Hits: 1, Late: 0, Early: 0, Misses: 0
22a-> Hits: 38971, Late: 128, Early: 0, Misses: 670
22b-> Hits: 7, Late: 1, Early: 0, Misses: 0
22c-> Hits: 5, Late: 0, Early: 0, Misses: 0
22d-> Hits: 3, Late: 0, Early: 0, Misses: 0
22e-> Hits: 1, Late: 0, Early: 0, Misses: 0
22f-> Hits: 3, Late: 0, Early: 0, Misses: 0
230-> Hits: 4, Late: 1, Early: 0, Misses: 0
231-> Hits: 7, Late: 0, Early: 0, Misses: 0
232-> Hits: 4, Late: 0, Early: 0, Misses: 0
233-> Hits: 4, Late: 0, Early: 0, Misses: 0
234-> Hits: 1, Late: 0, Early: 0, Misses: 0
235-> Hits: 2, Late: 0, Early: 0, Misses: 0
236-> Hits: 1, Late: 0, Early: 0, Misses: 0
23a-> Hits: 83212, Late: 2223, Early: 0, Misses: 5292
23b-> Hits: 4, Late: 0, Early: 0, Misses: 0
23c-> Hits: 5, Late: 0, Early: 0, Misses: 0
23d-> Hits: 15, Late: 8, Early: 0, Misses: 0
23e-> Hits: 6, Late: 0, Early: 0, Misses: 0
23f-> Hits: 38032, Late: 125, Early: 0, Misses: 630
240-> Hits: 11, Late: 5, Early: 0, Misses: 0
241-> Hits: 1, Late: 0, Early: 0, Misses: 0
245-> Hits: 4, Late: 0, Early: 0, Misses: 1
246-> Hits: 4, Late: 0, Early: 0, Misses: 0
247-> Hits: 1, Late: 0, Early: 0, Misses: 0
248-> Hits: 4, Late: 0, Early: 0, Misses: 0
249-> Hits: 2, Late: 0, Early: 0, Misses: 0
24a-> Hits: 1, Late: 1, Early: 0, Misses: 0
24b-> Hits: 1, Late: 0, Early: 0, Misses: 0
24d-> Hits: 2, Late: 0, Early: 0, Misses: 0
24e-> Hits: 1, Late: 0, Early: 0, Misses: 0
24f-> Hits: 4, Late: 0, Early: 0, Misses: 0
250-> Hits: 35172, Late: 74, Early: 0, Misses: 594
251-> Hits: 4, Late: 0, Early: 0, Misses: 0
252-> Hits: 4, Late: 1, Early: 0, Misses: 0
253-> Hits: 1, Late: 0, Early: 0, Misses: 0
254-> Hits: 4, Late: 0, Early: 0, Misses: 0
255-> Hits: 4, Late: 1, Early: 0, Misses: 0
256-> Hits: 3, Late: 0, Early: 0, Misses: 0
258-> Hits: 4, Late: 0, Early: 0, Misses: 0
25a-> Hits: 3, Late: 0, Early: 0, Misses: 0
25c-> Hits: 2, Late: 0, Early: 0, Misses: 0
25d-> Hits: 1, Late: 0, Early: 0, Misses: 0
25e-> Hits: 1, Late: 0, Early: 0, Misses: 0
25f-> Hits: 2, Late: 2, Early: 0, Misses: 0
260-> Hits: 2056, Late: 4, Early: 0, Misses: 0
261-> Hits: 35479, Late: 97, Early: 0, Misses: 527
262-> Hits: 1, Late: 0, Early: 0, Misses: 0
263-> Hits: 10, Late: 0, Early: 0, Misses: 0
264-> Hits: 2, Late: 0, Early: 0, Misses: 0
265-> Hits: 3, Late: 0, Early: 0, Misses: 0
266-> Hits: 4, Late: 0, Early: 0, Misses: 0
267-> Hits: 6, Late: 0, Early: 0, Misses: 0
268-> Hits: 1961, Late: 76, Early: 0, Misses: 16
269-> Hits: 1, Late: 0, Early: 0, Misses: 0
26a-> Hits: 2, Late: 0, Early: 0, Misses: 0
26b-> Hits: 1, Late: 0, Early: 0, Misses: 0
26d-> Hits: 16, Late: 0, Early: 0, Misses: 0
26e-> Hits: 0, Late: 0, Early: 0, Misses: 32
270-> Hits: 16, Late: 1, Early: 0, Misses: 0
271-> Hits: 33822, Late: 129, Early: 0, Misses: 533
274-> Hits: 1, Late: 0, Early: 0, Misses: 0
275-> Hits: 16, Late: 0, Early: 0, Misses: 0
276-> Hits: 2021, Late: 28, Early: 0, Misses: 0
277-> Hits: 1, Late: 0, Early: 0, Misses: 0
278-> Hits: 1, Late: 0, Early: 0, Misses: 0
27a-> Hits: 16, Late: 0, Early: 0, Misses: 0
27b-> Hits: 5, Late: 0, Early: 0, Misses: 0
27c-> Hits: 2, Late: 0, Early: 0, Misses: 0
27d-> Hits: 351, Late: 1, Early: 0, Misses: 1
27e-> Hits: 6, Late: 0, Early: 0, Misses: 0
27f-> Hits: 16, Late: 0, Early: 0, Misses: 0
280-> Hits: 0, Late: 2, Early: 0, Misses: 0
281-> Hits: 1, Late: 0, Early: 0, Misses: 0
282-> Hits: 34777, Late: 256, Early: 0, Misses: 910
284-> Hits: 4, Late: 0, Early: 0, Misses: 0
285-> Hits: 13, Late: 1, Early: 0, Misses: 0
289-> Hits: 0, Late: 1, Early: 0, Misses: 0
28a-> Hits: 3, Late: 0, Early: 0, Misses: 0
28f-> Hits: 10, Late: 0, Early: 0, Misses: 0
290-> Hits: 1, Late: 0, Early: 0, Misses: 0
291-> Hits: 1, Late: 0, Early: 0, Misses: 0
293-> Hits: 3361, Late: 1969, Early: 0, Misses: 85391
297-> Hits: 59002, Late: 570, Early: 0, Misses: 25425
298-> Hits: 1, Late: 0, Early: 0, Misses: 0
299-> Hits: 1, Late: 0, Early: 0, Misses: 0
29a-> Hits: 1, Late: 0, Early: 0, Misses: 0
29c-> Hits: 4327, Late: 48, Early: 0, Misses: 1554
29d-> Hits: 11, Late: 2, Early: 0, Misses: 0
29e-> Hits: 2, Late: 0, Early: 0, Misses: 0
29f-> Hits: 9, Late: 0, Early: 0, Misses: 0
2a0-> Hits: 2, Late: 1, Early: 0, Misses: 0
2a1-> Hits: 2, Late: 0, Early: 0, Misses: 0
2a2-> Hits: 15, Late: 0, Early: 0, Misses: 0
2a4-> Hits: 65106, Late: 428, Early: 0, Misses: 2196
2a5-> Hits: 1, Late: 0, Early: 0, Misses: 0
2a6-> Hits: 4, Late: 0, Early: 0, Misses: 0
2a7-> Hits: 5, Late: 0, Early: 0, Misses: 0
2a8-> Hits: 1, Late: 0, Early: 0, Misses: 0
2a9-> Hits: 7, Late: 0, Early: 0, Misses: 0
2aa-> Hits: 5, Late: 0, Early: 0, Misses: 0
2ad-> Hits: 1, Late: 1, Early: 0, Misses: 0
2ae-> Hits: 352, Late: 0, Early: 0, Misses: 0
2af-> Hits: 1, Late: 1, Early: 0, Misses: 0
2b0-> Hits: 1, Late: 0, Early: 0, Misses: 0
2b1-> Hits: 1, Late: 1, Early: 0, Misses: 0
2b3-> Hits: 1, Late: 1, Early: 0, Misses: 0
2b4-> Hits: 58592, Late: 370, Early: 0, Misses: 2472
2b6-> Hits: 1, Late: 1, Early: 0, Misses: 0
2b7-> Hits: 0, Late: 1, Early: 0, Misses: 0
2bd-> Hits: 15, Late: 0, Early: 0, Misses: 0
2c0-> Hits: 155, Late: 62, Early: 0, Misses: 0
2c1-> Hits: 1, Late: 1, Early: 0, Misses: 0
2c3-> Hits: 1, Late: 0, Early: 0, Misses: 0
2c5-> Hits: 67258, Late: 6552, Early: 0, Misses: 17113
2c6-> Hits: 3, Late: 0, Early: 0, Misses: 0
2c7-> Hits: 1, Late: 0, Early: 0, Misses: 0
2c8-> Hits: 2, Late: 0, Early: 0, Misses: 0
2c9-> Hits: 7, Late: 1, Early: 0, Misses: 0
2ca-> Hits: 62074, Late: 442, Early: 0, Misses: 2502
2cc-> Hits: 2, Late: 1, Early: 0, Misses: 0
2cd-> Hits: 1, Late: 2, Early: 0, Misses: 0
2d0-> Hits: 158, Late: 39, Early: 0, Misses: 0
2d1-> Hits: 1, Late: 1, Early: 0, Misses: 0
2d3-> Hits: 0, Late: 1, Early: 0, Misses: 0
2d6-> Hits: 2, Late: 1, Early: 0, Misses: 0
2d8-> Hits: 1, Late: 0, Early: 0, Misses: 0
2da-> Hits: 2, Late: 0, Early: 0, Misses: 0
2db-> Hits: 62261, Late: 282, Early: 0, Misses: 2442
2dc-> Hits: 4, Late: 0, Early: 0, Misses: 0
2de-> Hits: 2, Late: 0, Early: 0, Misses: 0
2df-> Hits: 2, Late: 2, Early: 0, Misses: 0
2e0-> Hits: 150, Late: 100, Early: 0, Misses: 0
2e2-> Hits: 3, Late: 0, Early: 0, Misses: 0
2e4-> Hits: 2, Late: 0, Early: 0, Misses: 0
2e5-> Hits: 188, Late: 51, Early: 0, Misses: 0
2e6-> Hits: 5, Late: 1, Early: 0, Misses: 0
2e9-> Hits: 3, Late: 0, Early: 0, Misses: 0
2ea-> Hits: 128, Late: 112, Early: 0, Misses: 0
2eb-> Hits: 63281, Late: 199, Early: 0, Misses: 2412
2ed-> Hits: 1, Late: 0, Early: 0, Misses: 0
2ee-> Hits: 1, Late: 0, Early: 0, Misses: 0
2ef-> Hits: 1, Late: 0, Early: 0, Misses: 0
2f0-> Hits: 172, Late: 67, Early: 0, Misses: 0
2f1-> Hits: 2, Late: 0, Early: 0, Misses: 0
2f2-> Hits: 2, Late: 0, Early: 0, Misses: 0
2f3-> Hits: 27, Late: 3, Early: 0, Misses: 0
2f4-> Hits: 10, Late: 0, Early: 0, Misses: 0
2f5-> Hits: 13, Late: 0, Early: 0, Misses: 0
2f6-> Hits: 10, Late: 0, Early: 0, Misses: 0
2f7-> Hits: 12, Late: 0, Early: 0, Misses: 0
2f8-> Hits: 10, Late: 0, Early: 0, Misses: 0
2fa-> Hits: 10, Late: 0, Early: 0, Misses: 0
2fb-> Hits: 22, Late: 1, Early: 0, Misses: 0
2fc-> Hits: 64813, Late: 231, Early: 0, Misses: 1952
2ff-> Hits: 149, Late: 88, Early: 0, Misses: 0
300-> Hits: 42586, Late: 343, Early: 0, Misses: 0
301-> Hits: 1, Late: 0, Early: 0, Misses: 0
302-> Hits: 2, Late: 0, Early: 0, Misses: 0
304-> Hits: 7346, Late: 1139, Early: 0, Misses: 0
305-> Hits: 10, Late: 0, Early: 0, Misses: 0
306-> Hits: 1, Late: 0, Early: 0, Misses: 0
308-> Hits: 1, Late: 1, Early: 0, Misses: 0
309-> Hits: 3180, Late: 4278, Early: 0, Misses: 0
30a-> Hits: 2, Late: 0, Early: 0, Misses: 0
30b-> Hits: 2, Late: 0, Early: 0, Misses: 0
30c-> Hits: 1, Late: 0, Early: 0, Misses: 0
30d-> Hits: 2857, Late: 2277, Early: 0, Misses: 85586
30f-> Hits: 3959, Late: 757, Early: 0, Misses: 0
310-> Hits: 1, Late: 1, Early: 0, Misses: 0
311-> Hits: 56738, Late: 992, Early: 0, Misses: 27883
312-> Hits: 3, Late: 0, Early: 0, Misses: 0
313-> Hits: 1, Late: 0, Early: 0, Misses: 0
314-> Hits: 2418, Late: 2919, Early: 0, Misses: 16
315-> Hits: 720, Late: 0, Early: 0, Misses: 0
316-> Hits: 3313, Late: 62, Early: 0, Misses: 1924
317-> Hits: 8, Late: 3, Early: 0, Misses: 0
318-> Hits: 12, Late: 1, Early: 0, Misses: 1
319-> Hits: 7, Late: 0, Early: 0, Misses: 0
31a-> Hits: 1036, Late: 42692, Early: 0, Misses: 0
31b-> Hits: 5, Late: 0, Early: 0, Misses: 0
31d-> Hits: 4, Late: 0, Early: 0, Misses: 0
31e-> Hits: 54465, Late: 663, Early: 0, Misses: 252
31f-> Hits: 1767, Late: 41251, Early: 0, Misses: 0
320-> Hits: 559, Late: 0, Early: 0, Misses: 0
323-> Hits: 148, Late: 52, Early: 0, Misses: 0
324-> Hits: 1, Late: 0, Early: 0, Misses: 0
325-> Hits: 359, Late: 42650, Early: 0, Misses: 0
326-> Hits: 5, Late: 0, Early: 0, Misses: 0
327-> Hits: 1, Late: 0, Early: 0, Misses: 0
328-> Hits: 45, Late: 157, Early: 0, Misses: 0
32a-> Hits: 2369, Late: 40639, Early: 0, Misses: 0
32c-> Hits: 1, Late: 0, Early: 0, Misses: 0
32d-> Hits: 1, Late: 0, Early: 0, Misses: 0
32e-> Hits: 60996, Late: 693, Early: 0, Misses: 523
32f-> Hits: 1, Late: 0, Early: 0, Misses: 0
330-> Hits: 4, Late: 1, Early: 0, Misses: 0
332-> Hits: 5, Late: 0, Early: 0, Misses: 0
333-> Hits: 2, Late: 0, Early: 0, Misses: 0
334-> Hits: 42713, Late: 261, Early: 0, Misses: 0
335-> Hits: 2, Late: 0, Early: 0, Misses: 0
336-> Hits: 1, Late: 0, Early: 0, Misses: 0
338-> Hits: 4, Late: 0, Early: 0, Misses: 0
339-> Hits: 1, Late: 0, Early: 0, Misses: 0
33a-> Hits: 7, Late: 0, Early: 0, Misses: 0
33c-> Hits: 1, Late: 0, Early: 0, Misses: 0
33d-> Hits: 2, Late: 0, Early: 0, Misses: 0
33f-> Hits: 52314, Late: 725, Early: 0, Misses: 361
340-> Hits: 61, Late: 57, Early: 0, Misses: 2046
341-> Hits: 3, Late: 0, Early: 0, Misses: 0
344-> Hits: 1104, Late: 21, Early: 0, Misses: 832
347-> Hits: 3, Late: 3, Early: 0, Misses: 0
349-> Hits: 102, Late: 5, Early: 0, Misses: 105
34a-> Hits: 4, Late: 0, Early: 0, Misses: 0
34b-> Hits: 2, Late: 0, Early: 0, Misses: 0
34c-> Hits: 4, Late: 0, Early: 0, Misses: 0
34d-> Hits: 3, Late: 2, Early: 0, Misses: 0
34e-> Hits: 1, Late: 0, Early: 0, Misses: 0
34f-> Hits: 678641, Late: 9655, Early: 0, Misses: 205
350-> Hits: 71121, Late: 6174, Early: 0, Misses: 13809
351-> Hits: 1822, Late: 47, Early: 0, Misses: 90
352-> Hits: 0, Late: 1, Early: 0, Misses: 0
353-> Hits: 3, Late: 0, Early: 0, Misses: 0
354-> Hits: 61318, Late: 793, Early: 0, Misses: 749
355-> Hits: 0, Late: 1, Early: 0, Misses: 0
356-> Hits: 39408, Late: 88, Early: 0, Misses: 3
357-> Hits: 312, Late: 0, Early: 0, Misses: 0
358-> Hits: 3, Late: 1, Early: 0, Misses: 0
359-> Hits: 5, Late: 1, Early: 0, Misses: 0
35a-> Hits: 307, Late: 0, Early: 0, Misses: 0
35c-> Hits: 687764, Late: 234, Early: 0, Misses: 57
35d-> Hits: 368, Late: 0, Early: 0, Misses: 0
360-> Hits: 15, Late: 0, Early: 0, Misses: 0
361-> Hits: 1418, Late: 262, Early: 0, Misses: 740
362-> Hits: 4, Late: 0, Early: 0, Misses: 0
363-> Hits: 9, Late: 0, Early: 0, Misses: 0
364-> Hits: 59671, Late: 524, Early: 0, Misses: 645
365-> Hits: 1861, Late: 31, Early: 0, Misses: 90
366-> Hits: 4, Late: 1, Early: 0, Misses: 0
367-> Hits: 1, Late: 0, Early: 0, Misses: 0
368-> Hits: 6, Late: 0, Early: 0, Misses: 0
36a-> Hits: 4, Late: 0, Early: 0, Misses: 0
36c-> Hits: 9, Late: 0, Early: 0, Misses: 0
36d-> Hits: 0, Late: 1, Early: 0, Misses: 0
36e-> Hits: 0, Late: 1, Early: 0, Misses: 0
36f-> Hits: 1, Late: 0, Early: 0, Misses: 0
370-> Hits: 659, Late: 0, Early: 0, Misses: 0
372-> Hits: 70356, Late: 117, Early: 0, Misses: 1
374-> Hits: 2, Late: 0, Early: 0, Misses: 0
375-> Hits: 60094, Late: 559, Early: 0, Misses: 1206
376-> Hits: 1870, Late: 59, Early: 0, Misses: 90
377-> Hits: 2, Late: 0, Early: 0, Misses: 0
379-> Hits: 2, Late: 1, Early: 0, Misses: 0
37a-> Hits: 9, Late: 1, Early: 0, Misses: 0
37b-> Hits: 3, Late: 0, Early: 0, Misses: 0
37d-> Hits: 3, Late: 1, Early: 0, Misses: 0
37f-> Hits: 2, Late: 2, Early: 0, Misses: 0
380-> Hits: 2, Late: 0, Early: 0, Misses: 0
382-> Hits: 1, Late: 0, Early: 0, Misses: 0
383-> Hits: 0, Late: 2, Early: 0, Misses: 0
385-> Hits: 2, Late: 0, Early: 0, Misses: 0
386-> Hits: 2454, Late: 2226, Early: 0, Misses: 86040
387-> Hits: 37325, Late: 73, Early: 0, Misses: 102
388-> Hits: 1, Late: 0, Early: 0, Misses: 0
389-> Hits: 4, Late: 0, Early: 0, Misses: 0
38a-> Hits: 54897, Late: 1012, Early: 0, Misses: 29593
38b-> Hits: 2, Late: 0, Early: 0, Misses: 0
38d-> Hits: 687820, Late: 282, Early: 0, Misses: 21
38e-> Hits: 1, Late: 0, Early: 0, Misses: 0
38f-> Hits: 3934, Late: 41, Early: 0, Misses: 2079
391-> Hits: 5, Late: 0, Early: 0, Misses: 0
392-> Hits: 1, Late: 0, Early: 0, Misses: 0
393-> Hits: 2, Late: 0, Early: 0, Misses: 0
394-> Hits: 3, Late: 0, Early: 0, Misses: 0
395-> Hits: 1, Late: 0, Early: 0, Misses: 0
396-> Hits: 2, Late: 1, Early: 0, Misses: 0
397-> Hits: 65992, Late: 333, Early: 0, Misses: 2293
398-> Hits: 1, Late: 0, Early: 0, Misses: 0
399-> Hits: 312134, Late: 13, Early: 0, Misses: 0
39a-> Hits: 1, Late: 1, Early: 0, Misses: 0
39b-> Hits: 1190, Late: 18, Early: 0, Misses: 833
39c-> Hits: 1, Late: 0, Early: 0, Misses: 0
39d-> Hits: 1, Late: 0, Early: 0, Misses: 0
3a0-> Hits: 86, Late: 2, Early: 0, Misses: 45
3a2-> Hits: 1, Late: 0, Early: 0, Misses: 0
3a3-> Hits: 623874, Late: 41, Early: 0, Misses: 0
3a7-> Hits: 65400, Late: 305, Early: 0, Misses: 483
3a8-> Hits: 843, Late: 11, Early: 0, Misses: 5
3aa-> Hits: 3, Late: 0, Early: 0, Misses: 0
3ab-> Hits: 1, Late: 0, Early: 0, Misses: 0
3ac-> Hits: 89398, Late: 2, Early: 0, Misses: 0
3af-> Hits: 1, Late: 0, Early: 0, Misses: 0
3b0-> Hits: 3, Late: 0, Early: 0, Misses: 0
3b1-> Hits: 119874, Late: 65, Early: 0, Misses: 9
3b2-> Hits: 2, Late: 0, Early: 0, Misses: 0
3b3-> Hits: 1, Late: 0, Early: 0, Misses: 0
3b5-> Hits: 1, Late: 0, Early: 0, Misses: 0
3b7-> Hits: 1, Late: 0, Early: 0, Misses: 0
3b8-> Hits: 70654, Late: 268, Early: 0, Misses: 502
3b9-> Hits: 3, Late: 0, Early: 0, Misses: 0
3bd-> Hits: 700, Late: 1, Early: 0, Misses: 0
3c0-> Hits: 12, Late: 0, Early: 0, Misses: 0
3c6-> Hits: 231499, Late: 225, Early: 0, Misses: 22
3c8-> Hits: 1, Late: 0, Early: 0, Misses: 0
3c9-> Hits: 58772, Late: 178, Early: 0, Misses: 399
3ca-> Hits: 4, Late: 1, Early: 0, Misses: 0
3cb-> Hits: 1, Late: 0, Early: 0, Misses: 0
3cd-> Hits: 6, Late: 0, Early: 0, Misses: 0
3ce-> Hits: 602, Late: 6, Early: 0, Misses: 0
3cf-> Hits: 1, Late: 1, Early: 0, Misses: 0
3d0-> Hits: 4, Late: 0, Early: 0, Misses: 0
3d5-> Hits: 2, Late: 0, Early: 0, Misses: 0
3d6-> Hits: 2, Late: 0, Early: 0, Misses: 0
3d9-> Hits: 66715, Late: 6648, Early: 0, Misses: 17348
3db-> Hits: 229491, Late: 267, Early: 0, Misses: 17
3dc-> Hits: 1, Late: 0, Early: 0, Misses: 0
3dd-> Hits: 4, Late: 0, Early: 0, Misses: 0
3de-> Hits: 63723, Late: 446, Early: 0, Misses: 368
3df-> Hits: 519, Late: 5, Early: 0, Misses: 0
3e0-> Hits: 524296, Late: 1, Early: 0, Misses: 0
3e1-> Hits: 687781, Late: 305, Early: 0, Misses: 43
3e4-> Hits: 2, Late: 0, Early: 0, Misses: 0
3e5-> Hits: 2, Late: 0, Early: 0, Misses: 0
3e6-> Hits: 2, Late: 0, Early: 0, Misses: 0
3e8-> Hits: 3, Late: 0, Early: 0, Misses: 0
3ea-> Hits: 2, Late: 0, Early: 0, Misses: 0
3eb-> Hits: 1, Late: 0, Early: 0, Misses: 0
3ec-> Hits: 2, Late: 0, Early: 0, Misses: 0
3ed-> Hits: 1, Late: 0, Early: 0, Misses: 0
3ee-> Hits: 2, Late: 0, Early: 0, Misses: 0
3ef-> Hits: 58441, Late: 500, Early: 0, Misses: 2439
3f0-> Hits: 12, Late: 4, Early: 0, Misses: 0
3f3-> Hits: 1174, Late: 15, Early: 0, Misses: 831
3f5-> Hits: 1, Late: 0, Early: 0, Misses: 0
3f7-> Hits: 124501, Late: 48, Early: 0, Misses: 7
3f8-> Hits: 88, Late: 1, Early: 0, Misses: 56
3fe-> Hits: 1, Late: 1, Early: 0, Misses: 0
400-> Hits: 3501, Late: 2218, Early: 0, Misses: 86030
401-> Hits: 4, Late: 0, Early: 0, Misses: 0
402-> Hits: 686901, Late: 42, Early: 0, Misses: 0
403-> Hits: 16, Late: 0, Early: 0, Misses: 0
404-> Hits: 53688, Late: 1095, Early: 0, Misses: 31659
405-> Hits: 1, Late: 1, Early: 0, Misses: 0
406-> Hits: 19, Late: 0, Early: 0, Misses: 0
408-> Hits: 20, Late: 0, Early: 0, Misses: 0
409-> Hits: 2907, Late: 69, Early: 0, Misses: 1344
40a-> Hits: 19, Late: 0, Early: 0, Misses: 0
40b-> Hits: 2, Late: 2, Early: 0, Misses: 0
40c-> Hits: 46433, Late: 1, Early: 0, Misses: 0
40d-> Hits: 1, Late: 0, Early: 0, Misses: 0
40e-> Hits: 2, Late: 0, Early: 0, Misses: 0
40f-> Hits: 0, Late: 0, Early: 0, Misses: 15
410-> Hits: 896, Late: 0, Early: 0, Misses: 37
411-> Hits: 52709, Late: 235, Early: 0, Misses: 27
413-> Hits: 1, Late: 0, Early: 0, Misses: 0
416-> Hits: 688038, Late: 45, Early: 0, Misses: 0
419-> Hits: 3, Late: 0, Early: 0, Misses: 0
41c-> Hits: 2, Late: 0, Early: 0, Misses: 0
41e-> Hits: 112908, Late: 72, Early: 0, Misses: 4
420-> Hits: 9, Late: 0, Early: 0, Misses: 0
421-> Hits: 53501, Late: 436, Early: 0, Misses: 589
422-> Hits: 2, Late: 0, Early: 0, Misses: 0
424-> Hits: 9, Late: 0, Early: 0, Misses: 0
426-> Hits: 1166, Late: 12, Early: 0, Misses: 36
427-> Hits: 2, Late: 0, Early: 0, Misses: 0
428-> Hits: 5, Late: 2, Early: 0, Misses: 0
42a-> Hits: 2, Late: 0, Early: 0, Misses: 0
42b-> Hits: 3, Late: 0, Early: 0, Misses: 0
42c-> Hits: 2, Late: 0, Early: 0, Misses: 0
42d-> Hits: 1, Late: 0, Early: 0, Misses: 0
42e-> Hits: 687807, Late: 314, Early: 0, Misses: 9
430-> Hits: 2901, Late: 1701, Early: 0, Misses: 88746
432-> Hits: 49787, Late: 263, Early: 0, Misses: 24
434-> Hits: 55434, Late: 353, Early: 0, Misses: 30310
437-> Hits: 1369, Late: 7, Early: 0, Misses: 37
438-> Hits: 4, Late: 0, Early: 0, Misses: 0
439-> Hits: 4124, Late: 29, Early: 0, Misses: 2715
43a-> Hits: 69275, Late: 41, Early: 0, Misses: 1
43b-> Hits: 3, Late: 1, Early: 0, Misses: 0
43f-> Hits: 1, Late: 0, Early: 0, Misses: 0
440-> Hits: 9, Late: 4, Early: 0, Misses: 0
441-> Hits: 79515, Late: 1631, Early: 0, Misses: 3886
443-> Hits: 58010, Late: 260, Early: 0, Misses: 11
444-> Hits: 1, Late: 0, Early: 0, Misses: 0
447-> Hits: 67, Late: 45, Early: 0, Misses: 2052
448-> Hits: 7, Late: 0, Early: 0, Misses: 0
44a-> Hits: 3, Late: 0, Early: 0, Misses: 0
44b-> Hits: 1176, Late: 18, Early: 0, Misses: 826
44c-> Hits: 2, Late: 1, Early: 0, Misses: 0
44f-> Hits: 100281, Late: 240, Early: 0, Misses: 18
450-> Hits: 86, Late: 1, Early: 0, Misses: 65
451-> Hits: 55321, Late: 12249, Early: 0, Misses: 25777
453-> Hits: 46498, Late: 282, Early: 0, Misses: 7
454-> Hits: 33, Late: 31, Early: 0, Misses: 0
455-> Hits: 81567, Late: 1831, Early: 0, Misses: 3886
458-> Hits: 1245, Late: 7, Early: 0, Misses: 4
459-> Hits: 10, Late: 1, Early: 0, Misses: 0
45a-> Hits: 11, Late: 0, Early: 0, Misses: 0
45b-> Hits: 26, Late: 0, Early: 0, Misses: 0
45d-> Hits: 23, Late: 0, Early: 0, Misses: 0
45f-> Hits: 3, Late: 0, Early: 0, Misses: 0
460-> Hits: 4, Late: 0, Early: 0, Misses: 0
461-> Hits: 1, Late: 0, Early: 0, Misses: 0
463-> Hits: 3, Late: 0, Early: 0, Misses: 0
464-> Hits: 145009, Late: 6251, Early: 0, Misses: 13036
466-> Hits: 83663, Late: 2019, Early: 0, Misses: 3883
468-> Hits: 1310, Late: 14, Early: 0, Misses: 46
469-> Hits: 54719, Late: 339, Early: 0, Misses: 22
46a-> Hits: 687811, Late: 315, Early: 0, Misses: 3
46d-> Hits: 4, Late: 0, Early: 0, Misses: 0
470-> Hits: 524657, Late: 18, Early: 0, Misses: 0
471-> Hits: 26, Late: 0, Early: 0, Misses: 0
472-> Hits: 1, Late: 0, Early: 0, Misses: 0
473-> Hits: 3, Late: 0, Early: 0, Misses: 0
475-> Hits: 2, Late: 0, Early: 0, Misses: 0
476-> Hits: 137187, Late: 5, Early: 0, Misses: 0
477-> Hits: 81932, Late: 2063, Early: 0, Misses: 3886
478-> Hits: 404, Late: 0, Early: 0, Misses: 0
479-> Hits: 1055, Late: 25, Early: 0, Misses: 46
47a-> Hits: 2802, Late: 2121, Early: 0, Misses: 85797
47b-> Hits: 1, Late: 0, Early: 0, Misses: 0
47c-> Hits: 3, Late: 0, Early: 0, Misses: 0
47d-> Hits: 406, Late: 0, Early: 0, Misses: 0
47e-> Hits: 52712, Late: 935, Early: 0, Misses: 30655
47f-> Hits: 10, Late: 0, Early: 0, Misses: 0
480-> Hits: 16, Late: 3, Early: 0, Misses: 0
481-> Hits: 1, Late: 0, Early: 0, Misses: 0
482-> Hits: 5, Late: 0, Early: 0, Misses: 0
483-> Hits: 677461, Late: 93, Early: 0, Misses: 2277
484-> Hits: 2, Late: 0, Early: 0, Misses: 0
486-> Hits: 66, Late: 0, Early: 0, Misses: 0
487-> Hits: 83878, Late: 2084, Early: 0, Misses: 3886
488-> Hits: 18, Late: 0, Early: 0, Misses: 0
489-> Hits: 9, Late: 0, Early: 0, Misses: 0
48a-> Hits: 1652, Late: 149, Early: 0, Misses: 360
48b-> Hits: 58239, Late: 176, Early: 0, Misses: 28
48d-> Hits: 9, Late: 2, Early: 0, Misses: 0
48e-> Hits: 899, Late: 30, Early: 0, Misses: 58
48f-> Hits: 5, Late: 0, Early: 0, Misses: 0
490-> Hits: 45191, Late: 14, Early: 0, Misses: 0
491-> Hits: 5, Late: 0, Early: 0, Misses: 0
493-> Hits: 37, Late: 2, Early: 0, Misses: 0
494-> Hits: 41, Late: 0, Early: 0, Misses: 0
495-> Hits: 39, Late: 0, Early: 0, Misses: 0
496-> Hits: 4, Late: 0, Early: 0, Misses: 0
497-> Hits: 42, Late: 0, Early: 0, Misses: 0
498-> Hits: 529491, Late: 2681, Early: 0, Misses: 3904
499-> Hits: 39, Late: 0, Early: 0, Misses: 0
49b-> Hits: 59335, Late: 180, Early: 0, Misses: 38
49d-> Hits: 416, Late: 0, Early: 0, Misses: 0
49e-> Hits: 69, Late: 44, Early: 0, Misses: 2047
4a0-> Hits: 2, Late: 1, Early: 0, Misses: 0
4a2-> Hits: 1133, Late: 16, Early: 0, Misses: 856
4a3-> Hits: 314, Late: 0, Early: 0, Misses: 0
4a5-> Hits: 16, Late: 0, Early: 0, Misses: 0
4a6-> Hits: 2, Late: 0, Early: 0, Misses: 0
4a7-> Hits: 108, Late: 3, Early: 0, Misses: 57
4a9-> Hits: 2651, Late: 1754, Early: 0, Misses: 88943
4ab-> Hits: 5, Late: 0, Early: 0, Misses: 0
4ac-> Hits: 61470, Late: 164, Early: 0, Misses: 31
4ad-> Hits: 99304, Late: 367, Early: 0, Misses: 28397
4ae-> Hits: 5, Late: 0, Early: 0, Misses: 0
4af-> Hits: 1024, Late: 10, Early: 0, Misses: 0
4b0-> Hits: 24, Late: 0, Early: 0, Misses: 0
4b1-> Hits: 3, Late: 0, Early: 0, Misses: 0
4b2-> Hits: 5453, Late: 19, Early: 0, Misses: 1466
4b3-> Hits: 687768, Late: 350, Early: 0, Misses: 13
4b4-> Hits: 4, Late: 1, Early: 0, Misses: 0
4b7-> Hits: 16, Late: 0, Early: 0, Misses: 0
4b8-> Hits: 23, Late: 0, Early: 0, Misses: 0
4b9-> Hits: 4, Late: 0, Early: 0, Misses: 0
4ba-> Hits: 39655, Late: 56, Early: 0, Misses: 536
4bb-> Hits: 17, Late: 0, Early: 0, Misses: 0
4bd-> Hits: 62387, Late: 237, Early: 0, Misses: 1
4be-> Hits: 1, Late: 1, Early: 0, Misses: 0
4bf-> Hits: 1105, Late: 3, Early: 0, Misses: 0
4c0-> Hits: 2, Late: 1, Early: 0, Misses: 0
4c1-> Hits: 1, Late: 0, Early: 0, Misses: 0
4c2-> Hits: 2, Late: 0, Early: 0, Misses: 0
4c4-> Hits: 2, Late: 0, Early: 0, Misses: 0
4c5-> Hits: 18, Late: 0, Early: 0, Misses: 0
4c6-> Hits: 6, Late: 0, Early: 0, Misses: 0
4c7-> Hits: 0, Late: 1, Early: 0, Misses: 0
4c8-> Hits: 1, Late: 1, Early: 0, Misses: 0
4c9-> Hits: 72022, Late: 3, Early: 0, Misses: 2
4ca-> Hits: 86974, Late: 2404, Early: 0, Misses: 3968
4cb-> Hits: 3, Late: 0, Early: 0, Misses: 0
4cc-> Hits: 1, Late: 0, Early: 0, Misses: 0
4cd-> Hits: 69612, Late: 238, Early: 0, Misses: 12
4ce-> Hits: 4, Late: 2, Early: 0, Misses: 0
4cf-> Hits: 39195, Late: 107, Early: 0, Misses: 506
4d0-> Hits: 1338, Late: 30, Early: 0, Misses: 2
4d1-> Hits: 27, Late: 0, Early: 0, Misses: 0
4d2-> Hits: 4, Late: 0, Early: 0, Misses: 0
4d3-> Hits: 1, Late: 0, Early: 0, Misses: 0
4d4-> Hits: 6, Late: 0, Early: 0, Misses: 0
4d5-> Hits: 1, Late: 1, Early: 0, Misses: 0
4d6-> Hits: 11, Late: 25, Early: 0, Misses: 0
4d7-> Hits: 4, Late: 0, Early: 0, Misses: 0
4da-> Hits: 1, Late: 0, Early: 0, Misses: 0
4dc-> Hits: 3, Late: 2, Early: 0, Misses: 0
4dd-> Hits: 4, Late: 0, Early: 0, Misses: 0
4de-> Hits: 143261, Late: 191, Early: 0, Misses: 30
4df-> Hits: 3, Late: 0, Early: 0, Misses: 0
4e0-> Hits: 36109, Late: 257, Early: 0, Misses: 2541
4e1-> Hits: 1323, Late: 10, Early: 0, Misses: 3
4e2-> Hits: 6, Late: 0, Early: 0, Misses: 0
4e4-> Hits: 1090, Late: 0, Early: 0, Misses: 869
4e5-> Hits: 6, Late: 0, Early: 0, Misses: 0
4e6-> Hits: 1, Late: 0, Early: 0, Misses: 0
4e7-> Hits: 3, Late: 0, Early: 0, Misses: 0
4e8-> Hits: 5, Late: 0, Early: 0, Misses: 0
4e9-> Hits: 119, Late: 0, Early: 0, Misses: 95
4ea-> Hits: 2, Late: 0, Early: 0, Misses: 0
4eb-> Hits: 23, Late: 0, Early: 0, Misses: 0
4ec-> Hits: 1, Late: 0, Early: 0, Misses: 0
4ed-> Hits: 688053, Late: 28, Early: 0, Misses: 0
4ef-> Hits: 2520, Late: 1921, Early: 0, Misses: 86281
4f1-> Hits: 38770, Late: 468, Early: 0, Misses: 2596
4f2-> Hits: 15, Late: 0, Early: 0, Misses: 1
4f3-> Hits: 51656, Late: 975, Early: 0, Misses: 31283
4f5-> Hits: 1065, Late: 17, Early: 0, Misses: 891
4f6-> Hits: 1, Late: 0, Early: 0, Misses: 0
4f7-> Hits: 4, Late: 0, Early: 0, Misses: 0
4f8-> Hits: 4960, Late: 53, Early: 0, Misses: 2581
4f9-> Hits: 19, Late: 0, Early: 0, Misses: 0
4fa-> Hits: 24566, Late: 1, Early: 0, Misses: 66
4fb-> Hits: 16, Late: 0, Early: 0, Misses: 0
4fc-> Hits: 1, Late: 0, Early: 0, Misses: 0
4fd-> Hits: 58, Late: 0, Early: 0, Misses: 1
4fe-> Hits: 1, Late: 0, Early: 0, Misses: 0
4ff-> Hits: 30, Late: 0, Early: 0, Misses: 0
500-> Hits: 53852, Late: 219, Early: 0, Misses: 45
501-> Hits: 35725, Late: 558, Early: 0, Misses: 1365
502-> Hits: 1213, Late: 8, Early: 0, Misses: 0
503-> Hits: 2, Late: 0, Early: 0, Misses: 0
504-> Hits: 17, Late: 0, Early: 0, Misses: 0
505-> Hits: 1840, Late: 74, Early: 0, Misses: 90
506-> Hits: 4, Late: 0, Early: 0, Misses: 0
507-> Hits: 688044, Late: 31, Early: 0, Misses: 0
508-> Hits: 1, Late: 0, Early: 0, Misses: 0
509-> Hits: 1, Late: 0, Early: 0, Misses: 0
50b-> Hits: 0, Late: 1, Early: 0, Misses: 0
50c-> Hits: 1, Late: 1, Early: 0, Misses: 0
50d-> Hits: 2, Late: 0, Early: 0, Misses: 0
510-> Hits: 52289, Late: 182, Early: 0, Misses: 68
511-> Hits: 1, Late: 0, Early: 0, Misses: 0
512-> Hits: 34793, Late: 304, Early: 0, Misses: 572
514-> Hits: 0, Late: 1, Early: 0, Misses: 0
515-> Hits: 1, Late: 0, Early: 0, Misses: 0
516-> Hits: 688651, Late: 1131, Early: 0, Misses: 244
518-> Hits: 1, Late: 0, Early: 0, Misses: 0
519-> Hits: 2, Late: 0, Early: 0, Misses: 0
51a-> Hits: 1, Late: 0, Early: 0, Misses: 0
51b-> Hits: 4, Late: 0, Early: 0, Misses: 0
51c-> Hits: 10, Late: 0, Early: 0, Misses: 154
51d-> Hits: 32, Late: 0, Early: 0, Misses: 0
51f-> Hits: 1, Late: 1, Early: 0, Misses: 0
520-> Hits: 524289, Late: 354, Early: 0, Misses: 0
521-> Hits: 51397, Late: 238, Early: 0, Misses: 34
522-> Hits: 1, Late: 0, Early: 0, Misses: 0
523-> Hits: 4547, Late: 1985, Early: 0, Misses: 87805
524-> Hits: 9, Late: 0, Early: 0, Misses: 0
527-> Hits: 61903, Late: 485, Early: 0, Misses: 26160
528-> Hits: 524320, Late: 1, Early: 0, Misses: 0
529-> Hits: 32, Late: 0, Early: 0, Misses: 0
52a-> Hits: 1, Late: 0, Early: 0, Misses: 0
52b-> Hits: 2, Late: 0, Early: 0, Misses: 0
52c-> Hits: 4563, Late: 24, Early: 0, Misses: 1611
52e-> Hits: 2, Late: 0, Early: 0, Misses: 0
530-> Hits: 8, Late: 1, Early: 0, Misses: 0
532-> Hits: 1, Late: 0, Early: 0, Misses: 0
534-> Hits: 66055, Late: 413, Early: 0, Misses: 2648
535-> Hits: 1, Late: 0, Early: 0, Misses: 0
536-> Hits: 49872, Late: 135, Early: 0, Misses: 0
537-> Hits: 47, Late: 21, Early: 0, Misses: 2092
538-> Hits: 29, Late: 0, Early: 0, Misses: 3
539-> Hits: 1, Late: 0, Early: 0, Misses: 0
53a-> Hits: 9, Late: 0, Early: 0, Misses: 0
53b-> Hits: 1162, Late: 0, Early: 0, Misses: 859
53c-> Hits: 524319, Late: 1, Early: 0, Misses: 0
53d-> Hits: 1, Late: 0, Early: 0, Misses: 0
53e-> Hits: 0, Late: 1, Early: 0, Misses: 0
53f-> Hits: 4, Late: 0, Early: 0, Misses: 0
540-> Hits: 93, Late: 1, Early: 0, Misses: 61
541-> Hits: 2, Late: 0, Early: 0, Misses: 0
544-> Hits: 58583, Late: 388, Early: 0, Misses: 4628
545-> Hits: 524301, Late: 0, Early: 0, Misses: 0
546-> Hits: 48831, Late: 146, Early: 0, Misses: 4
547-> Hits: 0, Late: 1, Early: 0, Misses: 0
548-> Hits: 1950, Late: 30, Early: 0, Misses: 908
549-> Hits: 1, Late: 0, Early: 0, Misses: 0
54a-> Hits: 1, Late: 0, Early: 0, Misses: 0
54b-> Hits: 1, Late: 0, Early: 0, Misses: 0
54c-> Hits: 0, Late: 1, Early: 0, Misses: 0
54d-> Hits: 141, Late: 1, Early: 0, Misses: 62
54e-> Hits: 524415, Late: 0, Early: 0, Misses: 26
550-> Hits: 0, Late: 2, Early: 0, Misses: 0
553-> Hits: 8, Late: 1, Early: 0, Misses: 0
554-> Hits: 2, Late: 0, Early: 0, Misses: 0
555-> Hits: 56394, Late: 12631, Early: 0, Misses: 25467
556-> Hits: 9, Late: 0, Early: 0, Misses: 0
557-> Hits: 582055, Late: 136, Early: 0, Misses: 3
558-> Hits: 1901, Late: 100, Early: 0, Misses: 162
559-> Hits: 2, Late: 0, Early: 0, Misses: 0
55a-> Hits: 62721, Late: 385, Early: 0, Misses: 2664
55b-> Hits: 2, Late: 0, Early: 0, Misses: 0
55c-> Hits: 4, Late: 2, Early: 0, Misses: 0
55d-> Hits: 703, Late: 6, Early: 0, Misses: 151
55e-> Hits: 6, Late: 0, Early: 0, Misses: 0
55f-> Hits: 3, Late: 0, Early: 0, Misses: 0
560-> Hits: 524298, Late: 2, Early: 0, Misses: 0
561-> Hits: 33, Late: 0, Early: 0, Misses: 0
562-> Hits: 5, Late: 0, Early: 0, Misses: 0
563-> Hits: 3, Late: 4, Early: 0, Misses: 0
564-> Hits: 65, Late: 1, Early: 0, Misses: 0
565-> Hits: 1096, Late: 1, Early: 0, Misses: 4
566-> Hits: 2, Late: 0, Early: 0, Misses: 0
567-> Hits: 1, Late: 0, Early: 0, Misses: 0
568-> Hits: 10, Late: 0, Early: 0, Misses: 0
569-> Hits: 524287, Late: 1, Early: 0, Misses: 0
56a-> Hits: 9, Late: 0, Early: 0, Misses: 154
56b-> Hits: 63496, Late: 508, Early: 0, Misses: 2545
56c-> Hits: 12914, Late: 5300, Early: 0, Misses: 72506
56d-> Hits: 54, Late: 0, Early: 0, Misses: 0
56e-> Hits: 608, Late: 14, Early: 0, Misses: 0
570-> Hits: 652, Late: 0, Early: 0, Misses: 0
572-> Hits: 524290, Late: 1, Early: 0, Misses: 0
574-> Hits: 15, Late: 1, Early: 0, Misses: 26
576-> Hits: 1096, Late: 7, Early: 0, Misses: 4
577-> Hits: 26, Late: 16, Early: 0, Misses: 0
578-> Hits: 14, Late: 0, Early: 0, Misses: 0
579-> Hits: 4, Late: 0, Early: 0, Misses: 0
57a-> Hits: 7, Late: 0, Early: 0, Misses: 0
57b-> Hits: 65000, Late: 394, Early: 0, Misses: 2419
57c-> Hits: 1, Late: 3, Early: 0, Misses: 0
57d-> Hits: 3, Late: 0, Early: 0, Misses: 0
57f-> Hits: 650, Late: 6, Early: 0, Misses: 0
580-> Hits: 60, Late: 4989, Early: 0, Misses: 0
581-> Hits: 3, Late: 3, Early: 0, Misses: 0
582-> Hits: 2, Late: 0, Early: 0, Misses: 0
583-> Hits: 29, Late: 1, Early: 0, Misses: 0
584-> Hits: 524292, Late: 2, Early: 0, Misses: 0
585-> Hits: 88, Late: 4952, Early: 0, Misses: 0
586-> Hits: 1, Late: 2, Early: 0, Misses: 0
587-> Hits: 1090, Late: 7, Early: 0, Misses: 3
588-> Hits: 6, Late: 1, Early: 0, Misses: 0
58b-> Hits: 691, Late: 4367, Early: 0, Misses: 150
58c-> Hits: 66341, Late: 680, Early: 0, Misses: 2342
58e-> Hits: 9, Late: 0, Early: 0, Misses: 0
58f-> Hits: 48, Late: 32, Early: 0, Misses: 2080
590-> Hits: 17, Late: 5, Early: 0, Misses: 0
591-> Hits: 525359, Late: 3970, Early: 0, Misses: 0
593-> Hits: 1194, Late: 4, Early: 0, Misses: 834
594-> Hits: 1, Late: 0, Early: 0, Misses: 0
595-> Hits: 3, Late: 0, Early: 0, Misses: 0
596-> Hits: 715, Late: 4325, Early: 0, Misses: 0
597-> Hits: 42, Late: 48, Early: 0, Misses: 2070
598-> Hits: 109, Late: 1, Early: 0, Misses: 58
599-> Hits: 9, Late: 2, Early: 0, Misses: 0
59a-> Hits: 2, Late: 0, Early: 0, Misses: 0
59b-> Hits: 1088, Late: 22, Early: 0, Misses: 896
59c-> Hits: 811, Late: 4229, Early: 0, Misses: 0
59d-> Hits: 3557, Late: 1858, Early: 0, Misses: 87945
59e-> Hits: 4, Late: 0, Early: 0, Misses: 0
59f-> Hits: 4, Late: 0, Early: 0, Misses: 0
5a0-> Hits: 1027, Late: 40, Early: 0, Misses: 282
5a1-> Hits: 57727, Late: 476, Early: 0, Misses: 28804
5a2-> Hits: 6, Late: 0, Early: 0, Misses: 0
5a3-> Hits: 2, Late: 0, Early: 0, Misses: 0
5a5-> Hits: 524288, Late: 1, Early: 0, Misses: 0
5a6-> Hits: 3640, Late: 20, Early: 0, Misses: 1956
5a7-> Hits: 1, Late: 0, Early: 0, Misses: 0
5a8-> Hits: 957, Late: 9, Early: 0, Misses: 0
5a9-> Hits: 3, Late: 0, Early: 0, Misses: 0
5aa-> Hits: 14, Late: 4, Early: 0, Misses: 0
5ab-> Hits: 0, Late: 1, Early: 0, Misses: 168
5ac-> Hits: 1, Late: 0, Early: 0, Misses: 0
5ae-> Hits: 56135, Late: 659, Early: 0, Misses: 352
5af-> Hits: 13, Late: 0, Early: 0, Misses: 150
5b0-> Hits: 1672, Late: 301, Early: 0, Misses: 69411
5b1-> Hits: 2, Late: 0, Early: 0, Misses: 0
5b2-> Hits: 2, Late: 0, Early: 0, Misses: 0
5b4-> Hits: 42653, Late: 56, Early: 0, Misses: 22456
5b5-> Hits: 1, Late: 0, Early: 0, Misses: 0
5b6-> Hits: 5, Late: 0, Early: 0, Misses: 0
5b8-> Hits: 1096, Late: 1, Early: 0, Misses: 5
5b9-> Hits: 3251, Late: 4, Early: 0, Misses: 2355
5bb-> Hits: 1, Late: 0, Early: 0, Misses: 0
5bc-> Hits: 2, Late: 0, Early: 0, Misses: 0
5bd-> Hits: 32, Late: 0, Early: 0, Misses: 0
5be-> Hits: 62395, Late: 692, Early: 0, Misses: 725
5bf-> Hits: 8, Late: 0, Early: 0, Misses: 0
5c0-> Hits: 4149, Late: 0, Early: 0, Misses: 0
5c1-> Hits: 107739, Late: 1296, Early: 0, Misses: 801
5c2-> Hits: 5, Late: 0, Early: 0, Misses: 0
5c3-> Hits: 9, Late: 0, Early: 0, Misses: 0
5c4-> Hits: 8, Late: 0, Early: 0, Misses: 0
5c5-> Hits: 1, Late: 0, Early: 0, Misses: 0
5c6-> Hits: 1106, Late: 38, Early: 0, Misses: 81
5c7-> Hits: 5, Late: 0, Early: 0, Misses: 0
5c8-> Hits: 7, Late: 0, Early: 0, Misses: 0
5c9-> Hits: 918, Late: 9, Early: 0, Misses: 0
5ca-> Hits: 41, Late: 0, Early: 0, Misses: 0
5cb-> Hits: 2, Late: 0, Early: 0, Misses: 0
5cc-> Hits: 51, Late: 0, Early: 0, Misses: 0
5ce-> Hits: 0, Late: 1, Early: 0, Misses: 0
5cf-> Hits: 53622, Late: 690, Early: 0, Misses: 456
5d0-> Hits: 152, Late: 20, Early: 0, Misses: 22
5d1-> Hits: 574537, Late: 5452, Early: 0, Misses: 14872
5d2-> Hits: 1, Late: 0, Early: 0, Misses: 0
5d5-> Hits: 66658, Late: 212, Early: 0, Misses: 0
5d6-> Hits: 3, Late: 2, Early: 0, Misses: 0
5d7-> Hits: 1324, Late: 31, Early: 0, Misses: 81
5d8-> Hits: 3, Late: 4, Early: 0, Misses: 0
5da-> Hits: 32, Late: 0, Early: 0, Misses: 0
5db-> Hits: 495095, Late: 2, Early: 0, Misses: 0
5dc-> Hits: 49, Late: 2, Early: 0, Misses: 0
5dd-> Hits: 40395, Late: 2511, Early: 0, Misses: 0
5de-> Hits: 947, Late: 4, Early: 0, Misses: 0
5df-> Hits: 9, Late: 4, Early: 0, Misses: 1
5e0-> Hits: 86262, Late: 2936, Early: 0, Misses: 4148
5e1-> Hits: 5, Late: 0, Early: 0, Misses: 0
5e2-> Hits: 1, Late: 0, Early: 0, Misses: 0
5e3-> Hits: 6, Late: 0, Early: 0, Misses: 0
5e4-> Hits: 61854, Late: 862, Early: 0, Misses: 707
5e5-> Hits: 3, Late: 0, Early: 0, Misses: 0
5e6-> Hits: 68236, Late: 58, Early: 0, Misses: 0
5e7-> Hits: 55, Late: 31, Early: 0, Misses: 2079
5e9-> Hits: 1, Late: 1, Early: 0, Misses: 0
5ea-> Hits: 2, Late: 0, Early: 0, Misses: 0
5eb-> Hits: 1194, Late: 8, Early: 0, Misses: 817
5ec-> Hits: 17, Late: 0, Early: 0, Misses: 145
5ed-> Hits: 2, Late: 0, Early: 0, Misses: 0
5ee-> Hits: 3, Late: 0, Early: 0, Misses: 0
5f0-> Hits: 89, Late: 1, Early: 0, Misses: 68
5f2-> Hits: 42, Late: 0, Early: 0, Misses: 2122
5f3-> Hits: 8, Late: 0, Early: 0, Misses: 0
5f4-> Hits: 59520, Late: 520, Early: 0, Misses: 932
5f5-> Hits: 41022, Late: 1990, Early: 0, Misses: 0
5f6-> Hits: 1, Late: 0, Early: 0, Misses: 0
5f7-> Hits: 67115, Late: 266, Early: 0, Misses: 0
5f8-> Hits: 1274, Late: 35, Early: 0, Misses: 4
5f9-> Hits: 7, Late: 0, Early: 0, Misses: 0
5fa-> Hits: 1, Late: 0, Early: 0, Misses: 0
5fb-> Hits: 6, Late: 0, Early: 0, Misses: 0
5fc-> Hits: 1, Late: 0, Early: 0, Misses: 0
5fd-> Hits: 1, Late: 0, Early: 0, Misses: 0
5fe-> Hits: 5, Late: 0, Early: 0, Misses: 334
5ff-> Hits: 3, Late: 0, Early: 0, Misses: 1
600-> Hits: 1, Late: 2, Early: 0, Misses: 0
602-> Hits: 6, Late: 0, Early: 0, Misses: 0
604-> Hits: 5, Late: 0, Early: 0, Misses: 0
605-> Hits: 59677, Late: 700, Early: 0, Misses: 963
606-> Hits: 24, Late: 0, Early: 0, Misses: 0
607-> Hits: 68591, Late: 63, Early: 0, Misses: 0
608-> Hits: 1305, Late: 39, Early: 0, Misses: 57
609-> Hits: 16, Late: 0, Early: 0, Misses: 0
60a-> Hits: 3, Late: 0, Early: 0, Misses: 0
60b-> Hits: 20, Late: 0, Early: 0, Misses: 0
60c-> Hits: 3, Late: 0, Early: 0, Misses: 0
60d-> Hits: 1, Late: 0, Early: 0, Misses: 0
60e-> Hits: 5, Late: 0, Early: 0, Misses: 0
60f-> Hits: 0, Late: 0, Early: 0, Misses: 30
610-> Hits: 2, Late: 121, Early: 0, Misses: 0
611-> Hits: 1, Late: 0, Early: 0, Misses: 0
614-> Hits: 1, Late: 0, Early: 0, Misses: 30
615-> Hits: 0, Late: 120, Early: 0, Misses: 0
616-> Hits: 4383, Late: 1977, Early: 0, Misses: 86991
618-> Hits: 67560, Late: 153, Early: 0, Misses: 0
619-> Hits: 1015, Late: 30, Early: 0, Misses: 4
61a-> Hits: 56253, Late: 530, Early: 0, Misses: 30442
61b-> Hits: 0, Late: 120, Early: 0, Misses: 0
61c-> Hits: 3, Late: 0, Early: 0, Misses: 0
61d-> Hits: 16, Late: 0, Early: 0, Misses: 0
61e-> Hits: 1, Late: 0, Early: 0, Misses: 0
61f-> Hits: 4270, Late: 44, Early: 0, Misses: 1931
620-> Hits: 8, Late: 1, Early: 0, Misses: 0
621-> Hits: 4, Late: 121, Early: 0, Misses: 0
622-> Hits: 0, Late: 0, Early: 0, Misses: 30
623-> Hits: 3, Late: 0, Early: 0, Misses: 0
625-> Hits: 18, Late: 3, Early: 0, Misses: 0
626-> Hits: 1, Late: 0, Early: 0, Misses: 0
627-> Hits: 65911, Late: 597, Early: 0, Misses: 274
628-> Hits: 4, Late: 1, Early: 0, Misses: 0
629-> Hits: 1273, Late: 265, Early: 0, Misses: 69022
62a-> Hits: 1925, Late: 93, Early: 0, Misses: 144
62b-> Hits: 10, Late: 0, Early: 0, Misses: 0
62c-> Hits: 1, Late: 0, Early: 0, Misses: 0
62d-> Hits: 45048, Late: 63, Early: 0, Misses: 20782
62e-> Hits: 908, Late: 21, Early: 0, Misses: 4
62f-> Hits: 4, Late: 1, Early: 0, Misses: 0
630-> Hits: 116, Late: 0, Early: 0, Misses: 1567
631-> Hits: 3, Late: 0, Early: 0, Misses: 0
632-> Hits: 3790, Late: 3, Early: 0, Misses: 921
634-> Hits: 821, Late: 0, Early: 0, Misses: 698
635-> Hits: 2, Late: 0, Early: 0, Misses: 0
636-> Hits: 6, Late: 1, Early: 0, Misses: 0
637-> Hits: 64823, Late: 629, Early: 0, Misses: 714
638-> Hits: 3, Late: 0, Early: 0, Misses: 0
[...]
da0-> Hits: 7, Late: 1, Early: 0, Misses: 0
da1-> Hits: 1, Late: 0, Early: 0, Misses: 0
da2-> Hits: 7, Late: 0, Early: 0, Misses: 0
da3-> Hits: 1, Late: 0, Early: 0, Misses: 0
da5-> Hits: 5, Late: 0, Early: 0, Misses: 0
da6-> Hits: 7, Late: 5, Early: 0, Misses: 0
da7-> Hits: 3, Late: 0, Early: 0, Misses: 0
da8-> Hits: 2, Late: 0, Early: 0, Misses: 0
da9-> Hits: 1, Late: 0, Early: 0, Misses: 0
daa-> Hits: 1, Late: 0, Early: 0, Misses: 0
dab-> Hits: 8, Late: 0, Early: 0, Misses: 0
dac-> Hits: 10, Late: 0, Early: 0, Misses: 0
dad-> Hits: 13, Late: 0, Early: 0, Misses: 0
dae-> Hits: 1, Late: 0, Early: 0, Misses: 0
daf-> Hits: 3, Late: 0, Early: 0, Misses: 0
db0-> Hits: 6, Late: 4, Early: 0, Misses: 0
db1-> Hits: 12, Late: 0, Early: 0, Misses: 0
db3-> Hits: 4187, Late: 0, Early: 0, Misses: 855
db5-> Hits: 3, Late: 0, Early: 0, Misses: 0
db6-> Hits: 1, Late: 0, Early: 0, Misses: 0
db7-> Hits: 3, Late: 0, Early: 0, Misses: 0
db8-> Hits: 3, Late: 0, Early: 0, Misses: 0
db9-> Hits: 2, Late: 0, Early: 0, Misses: 0
dba-> Hits: 2, Late: 0, Early: 0, Misses: 0
dbb-> Hits: 2, Late: 0, Early: 0, Misses: 0
dbc-> Hits: 1, Late: 0, Early: 0, Misses: 0
dbd-> Hits: 1, Late: 0, Early: 0, Misses: 0
dbe-> Hits: 5, Late: 0, Early: 0, Misses: 0
dbf-> Hits: 7, Late: 1, Early: 0, Misses: 0
dc0-> Hits: 78, Late: 5, Early: 0, Misses: 0
dc2-> Hits: 3, Late: 2, Early: 0, Misses: 0
dc3-> Hits: 2, Late: 0, Early: 0, Misses: 0
dc5-> Hits: 227, Late: 0, Early: 0, Misses: 26
dc7-> Hits: 27, Late: 1, Early: 0, Misses: 0
dc8-> Hits: 3, Late: 1, Early: 0, Misses: 0
dca-> Hits: 4, Late: 0, Early: 0, Misses: 0
dcb-> Hits: 6, Late: 0, Early: 0, Misses: 0
dcc-> Hits: 22, Late: 2, Early: 0, Misses: 0
dcd-> Hits: 23, Late: 0, Early: 0, Misses: 0
dcf-> Hits: 16, Late: 0, Early: 0, Misses: 0
dd0-> Hits: 4, Late: 0, Early: 0, Misses: 0
dd1-> Hits: 17, Late: 0, Early: 0, Misses: 0
dd2-> Hits: 1, Late: 3, Early: 0, Misses: 0
dd3-> Hits: 20, Late: 0, Early: 0, Misses: 0
dd5-> Hits: 3, Late: 0, Early: 0, Misses: 0
dd6-> Hits: 4, Late: 0, Early: 0, Misses: 0
dd8-> Hits: 23, Late: 0, Early: 0, Misses: 0
dd9-> Hits: 16, Late: 0, Early: 0, Misses: 0
dda-> Hits: 4328, Late: 4, Early: 0, Misses: 707
ddc-> Hits: 5, Late: 0, Early: 0, Misses: 0
dde-> Hits: 4, Late: 0, Early: 0, Misses: 0
ddf-> Hits: 4, Late: 0, Early: 0, Misses: 0
de0-> Hits: 12, Late: 0, Early: 0, Misses: 0
de2-> Hits: 2, Late: 0, Early: 0, Misses: 0
de3-> Hits: 4, Late: 2, Early: 0, Misses: 0
de4-> Hits: 2, Late: 0, Early: 0, Misses: 0
de7-> Hits: 1, Late: 0, Early: 0, Misses: 0
de8-> Hits: 1, Late: 0, Early: 0, Misses: 0
de9-> Hits: 1, Late: 11, Early: 0, Misses: 14
deb-> Hits: 1, Late: 0, Early: 0, Misses: 0
dec-> Hits: 5, Late: 0, Early: 0, Misses: 0
ded-> Hits: 5, Late: 0, Early: 0, Misses: 0
dee-> Hits: 9, Late: 14, Early: 0, Misses: 14
def-> Hits: 90, Late: 0, Early: 0, Misses: 7
df0-> Hits: 1, Late: 0, Early: 0, Misses: 0
df1-> Hits: 17, Late: 0, Early: 0, Misses: 0
df2-> Hits: 3, Late: 0, Early: 0, Misses: 0
df3-> Hits: 6, Late: 0, Early: 0, Misses: 0
df4-> Hits: 1, Late: 0, Early: 0, Misses: 0
df5-> Hits: 6, Late: 0, Early: 0, Misses: 0
df7-> Hits: 7, Late: 0, Early: 0, Misses: 0
df8-> Hits: 1, Late: 0, Early: 0, Misses: 0
df9-> Hits: 2, Late: 0, Early: 0, Misses: 0
dfb-> Hits: 1, Late: 0, Early: 0, Misses: 0
dfd-> Hits: 6, Late: 0, Early: 0, Misses: 0
e00-> Hits: 9, Late: 0, Early: 0, Misses: 0
e01-> Hits: 2, Late: 0, Early: 0, Misses: 0
e02-> Hits: 4, Late: 0, Early: 0, Misses: 0
e03-> Hits: 1, Late: 0, Early: 0, Misses: 0
e04-> Hits: 1, Late: 1, Early: 0, Misses: 168
e05-> Hits: 2, Late: 1, Early: 0, Misses: 0
e06-> Hits: 4201, Late: 21, Early: 0, Misses: 837
e07-> Hits: 0, Late: 31, Early: 0, Misses: 0
e0e-> Hits: 186, Late: 0, Early: 0, Misses: 0
e0f-> Hits: 2, Late: 16, Early: 0, Misses: 15
e10-> Hits: 4, Late: 0, Early: 0, Misses: 0
e12-> Hits: 6, Late: 0, Early: 0, Misses: 0
e13-> Hits: 7, Late: 0, Early: 0, Misses: 0
e14-> Hits: 2, Late: 0, Early: 0, Misses: 0
e15-> Hits: 2, Late: 0, Early: 0, Misses: 0
e16-> Hits: 2, Late: 0, Early: 0, Misses: 0
e17-> Hits: 1, Late: 0, Early: 0, Misses: 0
e18-> Hits: 4, Late: 0, Early: 0, Misses: 0
e19-> Hits: 18, Late: 16, Early: 0, Misses: 0
e1a-> Hits: 2, Late: 0, Early: 0, Misses: 0
e1b-> Hits: 50, Late: 16, Early: 0, Misses: 0
e1c-> Hits: 5, Late: 0, Early: 0, Misses: 0
e1d-> Hits: 0, Late: 3, Early: 0, Misses: 0
e1e-> Hits: 15, Late: 17, Early: 0, Misses: 0
e20-> Hits: 14, Late: 2, Early: 0, Misses: 0
e22-> Hits: 14, Late: 0, Early: 0, Misses: 0
e23-> Hits: 5, Late: 32, Early: 0, Misses: 0
e25-> Hits: 1, Late: 0, Early: 0, Misses: 0
e26-> Hits: 2, Late: 0, Early: 0, Misses: 0
e27-> Hits: 1, Late: 0, Early: 0, Misses: 0
e28-> Hits: 21, Late: 19, Early: 0, Misses: 0
e29-> Hits: 31, Late: 1, Early: 0, Misses: 0
e2a-> Hits: 2, Late: 1, Early: 0, Misses: 0
e2c-> Hits: 16, Late: 17, Early: 0, Misses: 0
e2d-> Hits: 2, Late: 0, Early: 0, Misses: 0
e30-> Hits: 16, Late: 0, Early: 0, Misses: 0
e31-> Hits: 15, Late: 17, Early: 0, Misses: 0
e33-> Hits: 3, Late: 0, Early: 0, Misses: 0
e34-> Hits: 1, Late: 0, Early: 0, Misses: 0
e35-> Hits: 16, Late: 0, Early: 0, Misses: 0
e36-> Hits: 2, Late: 0, Early: 0, Misses: 0
e38-> Hits: 2, Late: 0, Early: 0, Misses: 0
e39-> Hits: 19, Late: 17, Early: 0, Misses: 0
e3a-> Hits: 1, Late: 0, Early: 0, Misses: 0
e3b-> Hits: 0, Late: 1, Early: 0, Misses: 0
e3c-> Hits: 7, Late: 1, Early: 0, Misses: 0
e3d-> Hits: 13, Late: 4, Early: 0, Misses: 0
e3e-> Hits: 2, Late: 0, Early: 0, Misses: 0
e3f-> Hits: 1, Late: 0, Early: 0, Misses: 0
e40-> Hits: 6, Late: 1, Early: 0, Misses: 0
e41-> Hits: 18, Late: 33, Early: 0, Misses: 0
e42-> Hits: 2, Late: 0, Early: 0, Misses: 0
e44-> Hits: 3, Late: 0, Early: 0, Misses: 0
e45-> Hits: 1, Late: 1, Early: 0, Misses: 0
e47-> Hits: 2, Late: 0, Early: 0, Misses: 0
e48-> Hits: 3415, Late: 0, Early: 0, Misses: 1628
e49-> Hits: 14, Late: 18, Early: 0, Misses: 0
e4a-> Hits: 1, Late: 0, Early: 0, Misses: 0
e4c-> Hits: 0, Late: 1, Early: 0, Misses: 0
e4d-> Hits: 3, Late: 0, Early: 0, Misses: 0
e4e-> Hits: 7, Late: 0, Early: 0, Misses: 0
e4f-> Hits: 1, Late: 0, Early: 0, Misses: 0
e50-> Hits: 0, Late: 3, Early: 0, Misses: 0
e51-> Hits: 2, Late: 0, Early: 0, Misses: 0
e54-> Hits: 1, Late: 0, Early: 0, Misses: 0
e55-> Hits: 3, Late: 0, Early: 0, Misses: 0
e57-> Hits: 8, Late: 0, Early: 0, Misses: 0
e58-> Hits: 2, Late: 0, Early: 0, Misses: 0
e59-> Hits: 20, Late: 0, Early: 0, Misses: 0
e5a-> Hits: 22, Late: 0, Early: 0, Misses: 0
e5b-> Hits: 22, Late: 0, Early: 0, Misses: 0
e5c-> Hits: 2, Late: 0, Early: 0, Misses: 0
e5d-> Hits: 20, Late: 0, Early: 0, Misses: 0
e5e-> Hits: 7, Late: 0, Early: 0, Misses: 0
e5f-> Hits: 20, Late: 0, Early: 0, Misses: 0
e60-> Hits: 592, Late: 2, Early: 0, Misses: 0
e61-> Hits: 22, Late: 0, Early: 0, Misses: 0
e62-> Hits: 2, Late: 0, Early: 0, Misses: 0
e63-> Hits: 26, Late: 0, Early: 0, Misses: 0
e64-> Hits: 0, Late: 1, Early: 0, Misses: 0
e65-> Hits: 6, Late: 0, Early: 0, Misses: 0
e68-> Hits: 2, Late: 0, Early: 0, Misses: 0
e6b-> Hits: 1, Late: 0, Early: 0, Misses: 0
e6c-> Hits: 1, Late: 0, Early: 0, Misses: 0
e6f-> Hits: 2, Late: 0, Early: 0, Misses: 0
e70-> Hits: 4, Late: 2, Early: 0, Misses: 0
e71-> Hits: 6, Late: 0, Early: 0, Misses: 0
e72-> Hits: 35, Late: 0, Early: 0, Misses: 0
e73-> Hits: 2, Late: 0, Early: 0, Misses: 0
e74-> Hits: 5, Late: 0, Early: 0, Misses: 0
e75-> Hits: 4, Late: 1, Early: 0, Misses: 0
e76-> Hits: 6, Late: 0, Early: 0, Misses: 0
e77-> Hits: 1, Late: 0, Early: 0, Misses: 0
e79-> Hits: 2, Late: 0, Early: 0, Misses: 0
e7a-> Hits: 1, Late: 0, Early: 0, Misses: 0
e7b-> Hits: 1, Late: 0, Early: 0, Misses: 0
e7d-> Hits: 16, Late: 0, Early: 0, Misses: 15
e7e-> Hits: 0, Late: 16, Early: 0, Misses: 15
e7f-> Hits: 34, Late: 0, Early: 0, Misses: 0
e81-> Hits: 37, Late: 0, Early: 0, Misses: 0
e82-> Hits: 4, Late: 0, Early: 0, Misses: 0
e83-> Hits: 34, Late: 0, Early: 0, Misses: 0
e84-> Hits: 34, Late: 1, Early: 0, Misses: 0
e85-> Hits: 31, Late: 0, Early: 0, Misses: 0
e86-> Hits: 3, Late: 0, Early: 0, Misses: 0
e87-> Hits: 31, Late: 0, Early: 0, Misses: 0
e88-> Hits: 34, Late: 0, Early: 0, Misses: 0
e8a-> Hits: 3, Late: 0, Early: 0, Misses: 0
e8b-> Hits: 2, Late: 0, Early: 0, Misses: 0
e8d-> Hits: 1, Late: 0, Early: 0, Misses: 0
e90-> Hits: 2, Late: 0, Early: 0, Misses: 0
e91-> Hits: 2, Late: 0, Early: 0, Misses: 0
e92-> Hits: 4, Late: 0, Early: 0, Misses: 0
e94-> Hits: 4, Late: 0, Early: 0, Misses: 0
e95-> Hits: 2, Late: 0, Early: 0, Misses: 0
e96-> Hits: 1, Late: 0, Early: 0, Misses: 0
e97-> Hits: 2, Late: 0, Early: 0, Misses: 0
e98-> Hits: 2, Late: 0, Early: 0, Misses: 0
e99-> Hits: 17, Late: 16, Early: 0, Misses: 0
e9a-> Hits: 2, Late: 0, Early: 0, Misses: 0
e9b-> Hits: 1, Late: 0, Early: 0, Misses: 0
e9d-> Hits: 1, Late: 0, Early: 0, Misses: 0
e9f-> Hits: 1, Late: 0, Early: 0, Misses: 0
ea0-> Hits: 2, Late: 1, Early: 0, Misses: 0
ea1-> Hits: 5, Late: 0, Early: 0, Misses: 0
ea2-> Hits: 2, Late: 0, Early: 0, Misses: 0
ea5-> Hits: 1, Late: 0, Early: 0, Misses: 0
ea6-> Hits: 0, Late: 1, Early: 0, Misses: 0
ea7-> Hits: 1, Late: 0, Early: 0, Misses: 0
ea8-> Hits: 1, Late: 0, Early: 0, Misses: 0
ea9-> Hits: 3, Late: 0, Early: 0, Misses: 0
eaa-> Hits: 1, Late: 0, Early: 0, Misses: 0
eab-> Hits: 7, Late: 0, Early: 0, Misses: 0
eac-> Hits: 1, Late: 0, Early: 0, Misses: 0
eae-> Hits: 1, Late: 0, Early: 0, Misses: 0
eaf-> Hits: 0, Late: 1, Early: 0, Misses: 0
eb0-> Hits: 13466, Late: 9175, Early: 0, Misses: 0
eb3-> Hits: 1, Late: 0, Early: 0, Misses: 0
eb4-> Hits: 1, Late: 0, Early: 0, Misses: 0
eb5-> Hits: 13584, Late: 5958, Early: 0, Misses: 0
eb6-> Hits: 3, Late: 2, Early: 0, Misses: 0
eb8-> Hits: 1, Late: 0, Early: 0, Misses: 0
eba-> Hits: 11977, Late: 10317, Early: 0, Misses: 0
ebc-> Hits: 3, Late: 0, Early: 0, Misses: 0
ebd-> Hits: 1, Late: 0, Early: 0, Misses: 0
ebe-> Hits: 2, Late: 0, Early: 0, Misses: 0
ebf-> Hits: 2, Late: 1, Early: 0, Misses: 0
ec0-> Hits: 12460, Late: 7993, Early: 0, Misses: 0
ec1-> Hits: 13, Late: 0, Early: 0, Misses: 0
ec2-> Hits: 1, Late: 1, Early: 0, Misses: 0
ec3-> Hits: 2, Late: 0, Early: 0, Misses: 0
ec4-> Hits: 1, Late: 1, Early: 0, Misses: 0
ec5-> Hits: 7, Late: 0, Early: 0, Misses: 0
ec6-> Hits: 10713, Late: 11355, Early: 0, Misses: 0
ec7-> Hits: 1, Late: 1, Early: 0, Misses: 0
ec8-> Hits: 1, Late: 0, Early: 0, Misses: 0
eca-> Hits: 1, Late: 0, Early: 0, Misses: 0
ecb-> Hits: 0, Late: 1, Early: 0, Misses: 0
ecc-> Hits: 11764, Late: 8505, Early: 0, Misses: 0
ecd-> Hits: 1, Late: 0, Early: 0, Misses: 0
ece-> Hits: 0, Late: 1, Early: 0, Misses: 0
ecf-> Hits: 2, Late: 0, Early: 0, Misses: 0
ed0-> Hits: 3, Late: 0, Early: 0, Misses: 0
ed1-> Hits: 35, Late: 0, Early: 0, Misses: 0
ed2-> Hits: 7695, Late: 13910, Early: 0, Misses: 0
ed3-> Hits: 2, Late: 0, Early: 0, Misses: 0
ed5-> Hits: 5, Late: 1, Early: 0, Misses: 0
ed6-> Hits: 3, Late: 0, Early: 0, Misses: 0
ed7-> Hits: 2, Late: 1, Early: 0, Misses: 0
ed8-> Hits: 10368, Late: 9507, Early: 0, Misses: 32
ed9-> Hits: 5, Late: 0, Early: 0, Misses: 0
edb-> Hits: 2, Late: 0, Early: 0, Misses: 0
edc-> Hits: 3, Late: 0, Early: 0, Misses: 0
edf-> Hits: 0, Late: 1, Early: 0, Misses: 0
ee0-> Hits: 21, Late: 13, Early: 0, Misses: 5
ee1-> Hits: 6, Late: 16, Early: 0, Misses: 0
ee2-> Hits: 3, Late: 0, Early: 0, Misses: 0
ee3-> Hits: 5, Late: 0, Early: 0, Misses: 0
ee4-> Hits: 8, Late: 0, Early: 0, Misses: 0
ee5-> Hits: 5, Late: 0, Early: 0, Misses: 0
ee7-> Hits: 5, Late: 0, Early: 0, Misses: 0
ee8-> Hits: 2, Late: 0, Early: 0, Misses: 0
ee9-> Hits: 6, Late: 0, Early: 0, Misses: 0
eea-> Hits: 5, Late: 0, Early: 0, Misses: 0
eeb-> Hits: 2, Late: 0, Early: 0, Misses: 0
eec-> Hits: 2, Late: 0, Early: 0, Misses: 0
eed-> Hits: 2, Late: 0, Early: 0, Misses: 0
eee-> Hits: 2, Late: 0, Early: 0, Misses: 0
eef-> Hits: 16, Late: 0, Early: 0, Misses: 0
ef0-> Hits: 5, Late: 0, Early: 0, Misses: 0
ef1-> Hits: 2, Late: 0, Early: 0, Misses: 0
ef2-> Hits: 3, Late: 0, Early: 0, Misses: 0
ef3-> Hits: 1, Late: 0, Early: 0, Misses: 0
ef4-> Hits: 17, Late: 0, Early: 0, Misses: 0
ef5-> Hits: 1, Late: 0, Early: 0, Misses: 0
ef6-> Hits: 2, Late: 0, Early: 0, Misses: 0
ef7-> Hits: 2, Late: 0, Early: 0, Misses: 0
ef8-> Hits: 3, Late: 2, Early: 0, Misses: 0
ef9-> Hits: 1, Late: 0, Early: 0, Misses: 0
efa-> Hits: 5, Late: 0, Early: 0, Misses: 0
efb-> Hits: 4, Late: 0, Early: 0, Misses: 0
efc-> Hits: 4, Late: 0, Early: 0, Misses: 0
efd-> Hits: 2, Late: 0, Early: 0, Misses: 0
efe-> Hits: 10716, Late: 20648, Early: 0, Misses: 1365
eff-> Hits: 6, Late: 0, Early: 0, Misses: 0
f00-> Hits: 4, Late: 0, Early: 0, Misses: 0
f01-> Hits: 4, Late: 0, Early: 0, Misses: 0
f02-> Hits: 4, Late: 0, Early: 0, Misses: 0
f03-> Hits: 2, Late: 0, Early: 0, Misses: 0
f04-> Hits: 6, Late: 0, Early: 0, Misses: 0
f05-> Hits: 3, Late: 0, Early: 0, Misses: 0
f06-> Hits: 8, Late: 0, Early: 0, Misses: 0
f07-> Hits: 2, Late: 0, Early: 0, Misses: 0
f08-> Hits: 4, Late: 0, Early: 0, Misses: 0
f09-> Hits: 9, Late: 0, Early: 0, Misses: 0
f0b-> Hits: 2, Late: 0, Early: 0, Misses: 0
f0c-> Hits: 4, Late: 4, Early: 0, Misses: 0
f0d-> Hits: 2, Late: 0, Early: 0, Misses: 0
f10-> Hits: 40, Late: 3, Early: 0, Misses: 0
f13-> Hits: 34, Late: 0, Early: 0, Misses: 0
f15-> Hits: 1, Late: 0, Early: 0, Misses: 0
f16-> Hits: 1, Late: 0, Early: 0, Misses: 0
f17-> Hits: 39, Late: 0, Early: 0, Misses: 0
f18-> Hits: 1, Late: 0, Early: 0, Misses: 0
f19-> Hits: 3, Late: 2, Early: 0, Misses: 0
f1c-> Hits: 1, Late: 0, Early: 0, Misses: 0
f1e-> Hits: 2, Late: 0, Early: 0, Misses: 1
f20-> Hits: 1, Late: 0, Early: 0, Misses: 0
f21-> Hits: 14, Late: 0, Early: 0, Misses: 0
f22-> Hits: 7, Late: 0, Early: 0, Misses: 1
f23-> Hits: 14, Late: 0, Early: 0, Misses: 0
f24-> Hits: 38, Late: 0, Early: 0, Misses: 0
f25-> Hits: 1, Late: 0, Early: 0, Misses: 0
f26-> Hits: 1, Late: 0, Early: 0, Misses: 0
f27-> Hits: 10, Late: 0, Early: 0, Misses: 0
f28-> Hits: 3, Late: 0, Early: 0, Misses: 0
f29-> Hits: 5, Late: 0, Early: 0, Misses: 0
f2a-> Hits: 6, Late: 0, Early: 0, Misses: 0
f2b-> Hits: 16, Late: 1, Early: 0, Misses: 0
f2f-> Hits: 5, Late: 0, Early: 0, Misses: 0
f30-> Hits: 11, Late: 2, Early: 0, Misses: 0
f31-> Hits: 338, Late: 0, Early: 0, Misses: 0
f32-> Hits: 38, Late: 0, Early: 0, Misses: 0
f33-> Hits: 9, Late: 0, Early: 0, Misses: 0
f34-> Hits: 1, Late: 2, Early: 0, Misses: 0
f37-> Hits: 3, Late: 0, Early: 0, Misses: 0
f39-> Hits: 3, Late: 0, Early: 0, Misses: 0
f3b-> Hits: 8, Late: 0, Early: 0, Misses: 0
f3c-> Hits: 8, Late: 0, Early: 0, Misses: 0
f3d-> Hits: 51, Late: 0, Early: 0, Misses: 0
f3e-> Hits: 1, Late: 0, Early: 0, Misses: 0
f3f-> Hits: 15, Late: 0, Early: 0, Misses: 0
f41-> Hits: 8, Late: 0, Early: 0, Misses: 0
f43-> Hits: 10, Late: 0, Early: 0, Misses: 0
f44-> Hits: 5, Late: 0, Early: 0, Misses: 0
f45-> Hits: 8, Late: 0, Early: 0, Misses: 0
f47-> Hits: 16, Late: 0, Early: 0, Misses: 0
f49-> Hits: 2, Late: 0, Early: 0, Misses: 0
f4c-> Hits: 0, Late: 1, Early: 0, Misses: 0
f50-> Hits: 0, Late: 1, Early: 0, Misses: 0
f53-> Hits: 6, Late: 0, Early: 0, Misses: 0
f54-> Hits: 2, Late: 0, Early: 0, Misses: 0
f59-> Hits: 0, Late: 352, Early: 0, Misses: 1
f5a-> Hits: 20, Late: 0, Early: 0, Misses: 0
f5b-> Hits: 1, Late: 0, Early: 0, Misses: 0
f5d-> Hits: 0, Late: 0, Early: 0, Misses: 1
f5e-> Hits: 1, Late: 0, Early: 0, Misses: 0
f5f-> Hits: 2, Late: 0, Early: 0, Misses: 0
f60-> Hits: 12, Late: 2, Early: 0, Misses: 0
f61-> Hits: 1, Late: 0, Early: 0, Misses: 0
f63-> Hits: 2, Late: 0, Early: 0, Misses: 0
f64-> Hits: 0, Late: 336, Early: 0, Misses: 16
f65-> Hits: 4, Late: 1, Early: 0, Misses: 0
f66-> Hits: 2, Late: 0, Early: 0, Misses: 0
f68-> Hits: 2, Late: 0, Early: 0, Misses: 0
f6c-> Hits: 21, Late: 1, Early: 0, Misses: 0
f6d-> Hits: 8, Late: 0, Early: 0, Misses: 0
f6f-> Hits: 10, Late: 2, Early: 0, Misses: 0
f70-> Hits: 0, Late: 18, Early: 0, Misses: 0
f73-> Hits: 1, Late: 1, Early: 0, Misses: 0
f74-> Hits: 2, Late: 336, Early: 0, Misses: 16
f78-> Hits: 342, Late: 9, Early: 0, Misses: 1
f7a-> Hits: 4, Late: 0, Early: 0, Misses: 0
f7d-> Hits: 2, Late: 9, Early: 0, Misses: 1
f7f-> Hits: 3, Late: 1, Early: 0, Misses: 0
f80-> Hits: 4, Late: 1, Early: 0, Misses: 0
f85-> Hits: 3, Late: 0, Early: 0, Misses: 0
f86-> Hits: 3, Late: 1, Early: 0, Misses: 0
f87-> Hits: 14, Late: 0, Early: 0, Misses: 0
f89-> Hits: 1, Late: 0, Early: 0, Misses: 0
f8b-> Hits: 6, Late: 0, Early: 0, Misses: 0
f8c-> Hits: 6, Late: 0, Early: 0, Misses: 0
f8d-> Hits: 4, Late: 0, Early: 0, Misses: 0
f8f-> Hits: 1, Late: 0, Early: 0, Misses: 0
f90-> Hits: 6, Late: 0, Early: 0, Misses: 0
f91-> Hits: 1, Late: 0, Early: 0, Misses: 0
f92-> Hits: 2, Late: 0, Early: 0, Misses: 0
f93-> Hits: 6, Late: 0, Early: 0, Misses: 0
f94-> Hits: 1, Late: 0, Early: 0, Misses: 0
f95-> Hits: 0, Late: 2, Early: 0, Misses: 0
f96-> Hits: 1, Late: 0, Early: 0, Misses: 0
f98-> Hits: 1, Late: 0, Early: 0, Misses: 0
f9a-> Hits: 15, Late: 0, Early: 0, Misses: 0
f9c-> Hits: 3, Late: 0, Early: 0, Misses: 0
f9d-> Hits: 16, Late: 3, Early: 0, Misses: 0
f9e-> Hits: 1, Late: 0, Early: 0, Misses: 0
f9f-> Hits: 5, Late: 0, Early: 0, Misses: 0
fa0-> Hits: 5, Late: 1, Early: 0, Misses: 0
fa1-> Hits: 1, Late: 0, Early: 0, Misses: 0
fa4-> Hits: 1, Late: 0, Early: 0, Misses: 0
faa-> Hits: 3, Late: 0, Early: 0, Misses: 0
fb0-> Hits: 3913, Late: 339, Early: 0, Misses: 1308
fb1-> Hits: 3, Late: 3, Early: 0, Misses: 0
fb3-> Hits: 10, Late: 0, Early: 0, Misses: 0
fb6-> Hits: 1, Late: 0, Early: 0, Misses: 0
fb8-> Hits: 4, Late: 0, Early: 0, Misses: 0
fba-> Hits: 27, Late: 2, Early: 0, Misses: 0
fbb-> Hits: 15, Late: 1, Early: 0, Misses: 0
fbd-> Hits: 1, Late: 0, Early: 0, Misses: 0
fbe-> Hits: 1, Late: 0, Early: 0, Misses: 0
fbf-> Hits: 2, Late: 0, Early: 0, Misses: 0
fc0-> Hits: 4, Late: 0, Early: 0, Misses: 0
fc4-> Hits: 11, Late: 0, Early: 0, Misses: 0
fc5-> Hits: 2, Late: 0, Early: 0, Misses: 0
fc6-> Hits: 2, Late: 0, Early: 0, Misses: 0
fc7-> Hits: 2, Late: 0, Early: 0, Misses: 0
fc8-> Hits: 8, Late: 0, Early: 0, Misses: 0
fca-> Hits: 2, Late: 0, Early: 0, Misses: 0
fcb-> Hits: 1, Late: 0, Early: 0, Misses: 0
fcd-> Hits: 1, Late: 1, Early: 0, Misses: 0
fce-> Hits: 1, Late: 0, Early: 0, Misses: 0
fd0-> Hits: 4, Late: 0, Early: 0, Misses: 0
fd2-> Hits: 1, Late: 0, Early: 0, Misses: 0
fd6-> Hits: 6, Late: 0, Early: 0, Misses: 0
fd7-> Hits: 6, Late: 0, Early: 0, Misses: 0
fd8-> Hits: 10, Late: 0, Early: 0, Misses: 0
fda-> Hits: 6, Late: 0, Early: 0, Misses: 0
fdc-> Hits: 7, Late: 1, Early: 0, Misses: 0
fde-> Hits: 8, Late: 0, Early: 0, Misses: 0
fdf-> Hits: 29, Late: 0, Early: 0, Misses: 0
fe0-> Hits: 11, Late: 0, Early: 0, Misses: 0
fe1-> Hits: 4, Late: 0, Early: 0, Misses: 0
fe2-> Hits: 2, Late: 0, Early: 0, Misses: 0
fe3-> Hits: 4, Late: 0, Early: 0, Misses: 0
fe4-> Hits: 16, Late: 1, Early: 0, Misses: 0
fe5-> Hits: 5, Late: 8, Early: 0, Misses: 0
fe6-> Hits: 2, Late: 0, Early: 0, Misses: 0
fe7-> Hits: 1, Late: 1, Early: 0, Misses: 0
feb-> Hits: 1, Late: 2, Early: 0, Misses: 0
fec-> Hits: 5, Late: 1, Early: 0, Misses: 0
fed-> Hits: 6, Late: 0, Early: 0, Misses: 0
fee-> Hits: 1, Late: 0, Early: 0, Misses: 0
fef-> Hits: 0, Late: 1, Early: 0, Misses: 0
ff0-> Hits: 8, Late: 0, Early: 0, Misses: 0
ff2-> Hits: 5, Late: 336, Early: 0, Misses: 16
ff3-> Hits: 14, Late: 0, Early: 0, Misses: 0
ff5-> Hits: 1, Late: 0, Early: 0, Misses: 0
ff7-> Hits: 4, Late: 0, Early: 0, Misses: 0
ff9-> Hits: 19, Late: 10, Early: 0, Misses: 0
ffd-> Hits: 2, Late: 0, Early: 0, Misses: 0
ffe-> Hits: 14, Late: 0, Early: 0, Misses: 0
fff-> Hits: 12, Late: 0, Early: 0, Misses: 0
Total misses (from ip) 5163316
Total accesses (misses) 42411054 5163316
Pref: Addr 0 IP 0 Current 0
CPU 0 L2C berti prefetcher final stats
Channel_0_RQ_row_buffer_hit 745130
Channel_0_RQ_row_buffer_miss 680840
Channel_0_WQ_row_buffer_hit 317110
Channel_0_WQ_row_buffer_miss 501232
Channel_0_WQ_full 149
Channel_0_dbus_congested 1114145

avg_congested_cycle 10

EzSearch AVG IPC :0.81579: L2-Pf-HR :0.80797 : L2-HR :0.85811 Uful:0.20738
     > Finished combination: TraceType=770-tot Sim:162000000 Prefetcher=L2berti L1=berti
