TRACE: [662000000][OPT-350M]_[h16][s1024][d64] Warmup: 2000000 NumTraces: 662000000
L1:next_line:L2:029-SecTOP-L2-MultiMarkovDelta_ip_stride_v4
*************************************************
   ChampSim Multicore Out-of-Order Simulator
   Last compiled: Oct 21 2024 08:08:12
*************************************************

trace_0 770-tot_memTraces_v3/memTraces[662000000][OPT-350M]_[h16][s1024][d64].champsim.xz
CPU 0 L1D next line prefetcher
MK1: Size: 128 TMAX: 64 TMIN: 32 MKPTHRESH: 20
MK2: Size: 256 TMAX: 32 TMIN: 16 MKPTHRESH: 20
MK3: Size: 384 TMAX: 16 TMIN: 8 MKPTHRESH: 20
MK4: Size: 512 TMAX: 8 TMIN: 0 MKPTHRESH: 15
Stride Size: 512 Prefetch Degree: 14

CPU 0 L2C prefetcher
MAIN.cc ln 751 stats print skipped
CPU 0 L2C prefetcher initialized


Cache Size: 512
number of cache lines: 8192
CPU  0 inst:    1000003 cyc:     503079 now IPC :1.98777: AVG IPC :1.98777: L2-Pf-HR :0.82539: L2-HR :0.78727: (Sim:0h0m5s) 
CPU  0 inst:    2000000 cyc:     978527 now IPC :2.10327: AVG IPC :2.04389: L2-Pf-HR :0.85355: L2-HR :0.81646: (Sim:0h0m10s) 

Warmup complete CPU  0 instructions:    2000001 cycles:     978528 (Simulation time: 0 hr 0 min 10 sec) 

CPU  0 inst:    3000002 cyc:    1561611 now IPC :1.71502: AVG IPC :1.71502: L2-Pf-HR :0.83167: L2-HR :0.80691: (Sim:0h0m15s) 
CPU  0 inst:    4000000 cyc:    2138106 now IPC :1.73462: AVG IPC :1.72476: L2-Pf-HR :0.83457: L2-HR :0.80953: (Sim:0h0m20s) 
CPU  0 inst:    5000002 cyc:    2709205 now IPC :1.75101: AVG IPC :1.73343: L2-Pf-HR :0.83904: L2-HR :0.81357: (Sim:0h0m25s) 
CPU  0 inst:    6000002 cyc:    3294850 now IPC :1.70752: AVG IPC :1.72688: L2-Pf-HR :0.84876: L2-HR :0.82154: (Sim:0h0m29s) 
CPU  0 inst:    7000001 cyc:    4054207 now IPC :1.31690: AVG IPC :1.62566: L2-Pf-HR :0.85179: L2-HR :0.82452: (Sim:0h0m35s) 
CPU  0 inst:    8000000 cyc:    4644686 now IPC :1.69354: AVG IPC :1.63659: L2-Pf-HR :0.85141: L2-HR :0.82423: (Sim:0h0m39s) 
CPU  0 inst:    9000000 cyc:    5227552 now IPC :1.71566: AVG IPC :1.64744: L2-Pf-HR :0.85146: L2-HR :0.82435: (Sim:0h0m44s) 
CPU  0 inst:   10000001 cyc:    5816253 now IPC :1.69866: AVG IPC :1.65367: L2-Pf-HR :0.85196: L2-HR :0.82485: (Sim:0h0m49s) 
CPU  0 inst:   11000002 cyc:    6399281 now IPC :1.71519: AVG IPC :1.66029: L2-Pf-HR :0.85243: L2-HR :0.82528: (Sim:0h0m54s) 
CPU  0 inst:   12000000 cyc:    6984931 now IPC :1.70750: AVG IPC :1.66489: L2-Pf-HR :0.85486: L2-HR :0.82723: (Sim:0h0m59s) 
CPU  0 inst:   13000003 cyc:    7673428 now IPC :1.45244: AVG IPC :1.64304: L2-Pf-HR :0.85724: L2-HR :0.82929: (Sim:0h1m3s) 
CPU  0 inst:   14000003 cyc:    8274663 now IPC :1.66324: AVG IPC :1.64471: L2-Pf-HR :0.85828: L2-HR :0.83016: (Sim:0h1m8s) 
CPU  0 inst:   15000003 cyc:    8868003 now IPC :1.68537: AVG IPC :1.64777: L2-Pf-HR :0.85937: L2-HR :0.83116: (Sim:0h1m13s) 
CPU  0 inst:   16000000 cyc:    9461797 now IPC :1.68408: AVG IPC :1.65031: L2-Pf-HR :0.86086: L2-HR :0.83240: (Sim:0h1m18s) 
CPU  0 inst:   17000000 cyc:   10268388 now IPC :1.23979: AVG IPC :1.61466: L2-Pf-HR :0.86094: L2-HR :0.83240: (Sim:0h1m23s) 
CPU  0 inst:   18000000 cyc:   10897982 now IPC :1.58833: AVG IPC :1.61299: L2-Pf-HR :0.86070: L2-HR :0.83210: (Sim:0h1m28s) 
CPU  0 inst:   19000003 cyc:   11529934 now IPC :1.58240: AVG IPC :1.61116: L2-Pf-HR :0.86048: L2-HR :0.83185: (Sim:0h1m33s) 
CPU  0 inst:   20000000 cyc:   12156671 now IPC :1.59556: AVG IPC :1.61029: L2-Pf-HR :0.86044: L2-HR :0.83178: (Sim:0h1m38s) 
CPU  0 inst:   21000002 cyc:   12795154 now IPC :1.56622: AVG IPC :1.60790: L2-Pf-HR :0.86007: L2-HR :0.83144: (Sim:0h1m42s) 
CPU  0 inst:   22000000 cyc:   13423319 now IPC :1.59194: AVG IPC :1.60710: L2-Pf-HR :0.86044: L2-HR :0.83171: (Sim:0h1m47s) 
CPU  0 inst:   23000002 cyc:   14190831 now IPC :1.30291: AVG IPC :1.58943: L2-Pf-HR :0.86132: L2-HR :0.83250: (Sim:0h1m52s) 
CPU  0 inst:   24000000 cyc:   14788645 now IPC :1.67276: AVG IPC :1.59303: L2-Pf-HR :0.86102: L2-HR :0.83225: (Sim:0h1m57s) 
CPU  0 inst:   25000000 cyc:   15383324 now IPC :1.68158: AVG IPC :1.59669: L2-Pf-HR :0.86081: L2-HR :0.83208: (Sim:0h2m0s) 
CPU  0 inst:   26000001 cyc:   15975437 now IPC :1.68887: AVG IPC :1.60033: L2-Pf-HR :0.86079: L2-HR :0.83209: (Sim:0h2m3s) 
CPU  0 inst:   27000000 cyc:   16563428 now IPC :1.70070: AVG IPC :1.60412: L2-Pf-HR :0.86058: L2-HR :0.83191: (Sim:0h2m7s) 
CPU  0 inst:   28000000 cyc:   17146484 now IPC :1.71510: AVG IPC :1.60812: L2-Pf-HR :0.86094: L2-HR :0.83222: (Sim:0h2m12s) 
CPU  0 inst:   29000001 cyc:   17841755 now IPC :1.43829: AVG IPC :1.60112: L2-Pf-HR :0.86196: L2-HR :0.83311: (Sim:0h2m16s) 
CPU  0 inst:   30000002 cyc:   18438427 now IPC :1.67596: AVG IPC :1.60367: L2-Pf-HR :0.86257: L2-HR :0.83364: (Sim:0h2m21s) 
CPU  0 inst:   31000000 cyc:   19033564 now IPC :1.68028: AVG IPC :1.60620: L2-Pf-HR :0.86296: L2-HR :0.83398: (Sim:0h2m26s) 
CPU  0 inst:   32000000 cyc:   19628420 now IPC :1.68108: AVG IPC :1.60859: L2-Pf-HR :0.86354: L2-HR :0.83449: (Sim:0h2m31s) 
CPU  0 inst:   33000002 cyc:   20418992 now IPC :1.26491: AVG IPC :1.59461: L2-Pf-HR :0.86377: L2-HR :0.83463: (Sim:0h2m35s) 
CPU  0 inst:   34000001 cyc:   21042401 now IPC :1.60408: AVG IPC :1.59491: L2-Pf-HR :0.86361: L2-HR :0.83445: (Sim:0h2m40s) 
CPU  0 inst:   35000002 cyc:   21653768 now IPC :1.63568: AVG IPC :1.59611: L2-Pf-HR :0.86360: L2-HR :0.83443: (Sim:0h2m45s) 
CPU  0 inst:   36000000 cyc:   22264613 now IPC :1.63707: AVG IPC :1.59729: L2-Pf-HR :0.86344: L2-HR :0.83427: (Sim:0h2m50s) 
CPU  0 inst:   37000001 cyc:   22882666 now IPC :1.61799: AVG IPC :1.59787: L2-Pf-HR :0.86316: L2-HR :0.83402: (Sim:0h2m55s) 
CPU  0 inst:   38000001 cyc:   23489188 now IPC :1.64874: AVG IPC :1.59924: L2-Pf-HR :0.86321: L2-HR :0.83404: (Sim:0h2m59s) 
CPU  0 inst:   39000001 cyc:   24245575 now IPC :1.32207: AVG IPC :1.59023: L2-Pf-HR :0.86372: L2-HR :0.83447: (Sim:0h3m3s) 
CPU  0 inst:   40000000 cyc:   24849370 now IPC :1.65619: AVG IPC :1.59190: L2-Pf-HR :0.86358: L2-HR :0.83436: (Sim:0h3m6s) 
CPU  0 inst:   41000000 cyc:   25447313 now IPC :1.67240: AVG IPC :1.59387: L2-Pf-HR :0.86348: L2-HR :0.83429: (Sim:0h3m9s) 
CPU  0 inst:   42000002 cyc:   26044433 now IPC :1.67471: AVG IPC :1.59579: L2-Pf-HR :0.86336: L2-HR :0.83421: (Sim:0h3m12s) 
CPU  0 inst:   43000002 cyc:   26631561 now IPC :1.70321: AVG IPC :1.59825: L2-Pf-HR :0.86325: L2-HR :0.83412: (Sim:0h3m15s) 
CPU  0 inst:   44000000 cyc:   27224328 now IPC :1.68700: AVG IPC :1.60026: L2-Pf-HR :0.86339: L2-HR :0.83425: (Sim:0h3m19s) 
CPU  0 inst:   45000002 cyc:   27914486 now IPC :1.44895: AVG IPC :1.59638: L2-Pf-HR :0.86399: L2-HR :0.83476: (Sim:0h3m22s) 
CPU  0 inst:   46000000 cyc:   28517854 now IPC :1.65736: AVG IPC :1.59772: L2-Pf-HR :0.86409: L2-HR :0.83485: (Sim:0h3m25s) 
CPU  0 inst:   47000001 cyc:   29119722 now IPC :1.66150: AVG IPC :1.59908: L2-Pf-HR :0.86424: L2-HR :0.83500: (Sim:0h3m28s) 
CPU  0 inst:   48000000 cyc:   29722934 now IPC :1.65779: AVG IPC :1.60031: L2-Pf-HR :0.86447: L2-HR :0.83520: (Sim:0h3m31s) 
CPU  0 inst:   49000003 cyc:   30507641 now IPC :1.27436: AVG IPC :1.59165: L2-Pf-HR :0.86458: L2-HR :0.83529: (Sim:0h3m35s) 
CPU  0 inst:   50000002 cyc:   31125339 now IPC :1.61891: AVG IPC :1.59221: L2-Pf-HR :0.86447: L2-HR :0.83517: (Sim:0h3m38s) 
CPU  0 inst:   51000002 cyc:   31748148 now IPC :1.60563: AVG IPC :1.59248: L2-Pf-HR :0.86437: L2-HR :0.83505: (Sim:0h3m41s) 
CPU  0 inst:   52000000 cyc:   32368686 now IPC :1.61150: AVG IPC :1.59286: L2-Pf-HR :0.86428: L2-HR :0.83496: (Sim:0h3m44s) 
CPU  0 inst:   53000000 cyc:   32980407 now IPC :1.63473: AVG IPC :1.59366: L2-Pf-HR :0.86409: L2-HR :0.83479: (Sim:0h3m49s) 
CPU  0 inst:   54000002 cyc:   33597841 now IPC :1.61961: AVG IPC :1.59415: L2-Pf-HR :0.86401: L2-HR :0.83470: (Sim:0h3m54s) 
CPU  0 inst:   55000001 cyc:   34357973 now IPC :1.31556: AVG IPC :1.58780: L2-Pf-HR :0.86444: L2-HR :0.83507: (Sim:0h3m59s) 
CPU  0 inst:   56000000 cyc:   34962901 now IPC :1.65309: AVG IPC :1.58897: L2-Pf-HR :0.86433: L2-HR :0.83497: (Sim:0h4m4s) 
CPU  0 inst:   57000000 cyc:   35561018 now IPC :1.67191: AVG IPC :1.59040: L2-Pf-HR :0.86422: L2-HR :0.83488: (Sim:0h4m9s) 
CPU  0 inst:   58000001 cyc:   36150404 now IPC :1.69668: AVG IPC :1.59218: L2-Pf-HR :0.86416: L2-HR :0.83484: (Sim:0h4m13s) 
CPU  0 inst:   59000003 cyc:   36746990 now IPC :1.67621: AVG IPC :1.59358: L2-Pf-HR :0.86406: L2-HR :0.83475: (Sim:0h4m18s) 
CPU  0 inst:   60000000 cyc:   37335962 now IPC :1.69787: AVG IPC :1.59527: L2-Pf-HR :0.86407: L2-HR :0.83476: (Sim:0h4m23s) 
CPU  0 inst:   61000002 cyc:   38020167 now IPC :1.46155: AVG IPC :1.59280: L2-Pf-HR :0.86449: L2-HR :0.83511: (Sim:0h4m28s) 
CPU  0 inst:   62000000 cyc:   38620183 now IPC :1.66662: AVG IPC :1.59398: L2-Pf-HR :0.86458: L2-HR :0.83518: (Sim:0h4m32s) 
CPU  0 inst:   63000002 cyc:   39219234 now IPC :1.66931: AVG IPC :1.59516: L2-Pf-HR :0.86473: L2-HR :0.83533: (Sim:0h4m37s) 
CPU  0 inst:   64000000 cyc:   39815244 now IPC :1.67782: AVG IPC :1.59643: L2-Pf-HR :0.86483: L2-HR :0.83543: (Sim:0h4m42s) 
CPU  0 inst:   65000003 cyc:   40592537 now IPC :1.28652: AVG IPC :1.59035: L2-Pf-HR :0.86497: L2-HR :0.83554: (Sim:0h4m47s) 
CPU  0 inst:   66000000 cyc:   41215484 now IPC :1.60527: AVG IPC :1.59058: L2-Pf-HR :0.86488: L2-HR :0.83545: (Sim:0h4m51s) 
CPU  0 inst:   67000000 cyc:   41827758 now IPC :1.63326: AVG IPC :1.59122: L2-Pf-HR :0.86486: L2-HR :0.83542: (Sim:0h4m56s) 
CPU  0 inst:   68000000 cyc:   42438939 now IPC :1.63618: AVG IPC :1.59188: L2-Pf-HR :0.86480: L2-HR :0.83536: (Sim:0h5m1s) 
CPU  0 inst:   69000003 cyc:   43052458 now IPC :1.62995: AVG IPC :1.59244: L2-Pf-HR :0.86469: L2-HR :0.83526: (Sim:0h5m6s) 
CPU  0 inst:   70000001 cyc:   43662098 now IPC :1.64031: AVG IPC :1.59312: L2-Pf-HR :0.86463: L2-HR :0.83519: (Sim:0h5m10s) 
CPU  0 inst:   71000003 cyc:   44405990 now IPC :1.34428: AVG IPC :1.58886: L2-Pf-HR :0.86493: L2-HR :0.83543: (Sim:0h5m15s) 
CPU  0 inst:   72000000 cyc:   45011971 now IPC :1.65021: AVG IPC :1.58970: L2-Pf-HR :0.86477: L2-HR :0.83529: (Sim:0h5m20s) 
CPU  0 inst:   73000003 cyc:   45603924 now IPC :1.68933: AVG IPC :1.59102: L2-Pf-HR :0.86461: L2-HR :0.83516: (Sim:0h5m25s) 
CPU  0 inst:   74000002 cyc:   46199985 now IPC :1.67768: AVG IPC :1.59216: L2-Pf-HR :0.86448: L2-HR :0.83506: (Sim:0h5m29s) 
CPU  0 inst:   75000000 cyc:   46796832 now IPC :1.67547: AVG IPC :1.59325: L2-Pf-HR :0.86440: L2-HR :0.83499: (Sim:0h5m34s) 
CPU  0 inst:   76000000 cyc:   47390123 now IPC :1.68551: AVG IPC :1.59443: L2-Pf-HR :0.86431: L2-HR :0.83493: (Sim:0h5m39s) 
CPU  0 inst:   77000002 cyc:   48074356 now IPC :1.46149: AVG IPC :1.59250: L2-Pf-HR :0.86462: L2-HR :0.83520: (Sim:0h5m44s) 
CPU  0 inst:   78000003 cyc:   48686676 now IPC :1.63313: AVG IPC :1.59302: L2-Pf-HR :0.86473: L2-HR :0.83530: (Sim:0h5m48s) 
CPU  0 inst:   79000002 cyc:   49285187 now IPC :1.67081: AVG IPC :1.59398: L2-Pf-HR :0.86490: L2-HR :0.83545: (Sim:0h5m53s) 
CPU  0 inst:   80000000 cyc:   49884509 now IPC :1.66855: AVG IPC :1.59490: L2-Pf-HR :0.86500: L2-HR :0.83554: (Sim:0h5m58s) 
CPU  0 inst:   81000000 cyc:   50648202 now IPC :1.30943: AVG IPC :1.59051: L2-Pf-HR :0.86512: L2-HR :0.83564: (Sim:0h6m3s) 
CPU  0 inst:   82000000 cyc:   51277954 now IPC :1.58793: AVG IPC :1.59048: L2-Pf-HR :0.86508: L2-HR :0.83559: (Sim:0h6m8s) 
CPU  0 inst:   83000001 cyc:   51891765 now IPC :1.62917: AVG IPC :1.59094: L2-Pf-HR :0.86503: L2-HR :0.83553: (Sim:0h6m13s) 
CPU  0 inst:   84000000 cyc:   52505379 now IPC :1.62969: AVG IPC :1.59140: L2-Pf-HR :0.86495: L2-HR :0.83546: (Sim:0h6m18s) 
CPU  0 inst:   85000003 cyc:   53120125 now IPC :1.62669: AVG IPC :1.59182: L2-Pf-HR :0.86489: L2-HR :0.83540: (Sim:0h6m23s) 
CPU  0 inst:   86000003 cyc:   53733567 now IPC :1.63015: AVG IPC :1.59227: L2-Pf-HR :0.86484: L2-HR :0.83535: (Sim:0h6m28s) 
CPU  0 inst:   87000001 cyc:   54444923 now IPC :1.40576: AVG IPC :1.58978: L2-Pf-HR :0.86509: L2-HR :0.83557: (Sim:0h6m33s) 
CPU  0 inst:   88000000 cyc:   55092999 now IPC :1.54303: AVG IPC :1.58922: L2-Pf-HR :0.86495: L2-HR :0.83546: (Sim:0h6m38s) 
CPU  0 inst:   89000001 cyc:   55689572 now IPC :1.67624: AVG IPC :1.59017: L2-Pf-HR :0.86485: L2-HR :0.83537: (Sim:0h6m42s) 
CPU  0 inst:   90000002 cyc:   56285483 now IPC :1.67810: AVG IPC :1.59112: L2-Pf-HR :0.86480: L2-HR :0.83533: (Sim:0h6m47s) 
CPU  0 inst:   91000003 cyc:   56886618 now IPC :1.66352: AVG IPC :1.59190: L2-Pf-HR :0.86471: L2-HR :0.83526: (Sim:0h6m52s) 
CPU  0 inst:   92000000 cyc:   57475143 now IPC :1.69916: AVG IPC :1.59302: L2-Pf-HR :0.86464: L2-HR :0.83520: (Sim:0h6m57s) 
CPU  0 inst:   93000003 cyc:   58142726 now IPC :1.49795: AVG IPC :1.59191: L2-Pf-HR :0.86489: L2-HR :0.83541: (Sim:0h7m1s) 
CPU  0 inst:   94000001 cyc:   58766657 now IPC :1.60274: AVG IPC :1.59202: L2-Pf-HR :0.86498: L2-HR :0.83549: (Sim:0h7m5s) 
CPU  0 inst:   95000001 cyc:   59359185 now IPC :1.68768: AVG IPC :1.59299: L2-Pf-HR :0.86509: L2-HR :0.83560: (Sim:0h7m10s) 
CPU  0 inst:   96000000 cyc:   59958158 now IPC :1.66952: AVG IPC :1.59377: L2-Pf-HR :0.86519: L2-HR :0.83569: (Sim:0h7m14s) 
CPU  0 inst:   97000002 cyc:   60678796 now IPC :1.38766: AVG IPC :1.59128: L2-Pf-HR :0.86533: L2-HR :0.83582: (Sim:0h7m19s) 
CPU  0 inst:   98000000 cyc:   61361012 now IPC :1.46581: AVG IPC :1.58986: L2-Pf-HR :0.86529: L2-HR :0.83576: (Sim:0h7m23s) 
CPU  0 inst:   99000001 cyc:   61977409 now IPC :1.62233: AVG IPC :1.59019: L2-Pf-HR :0.86525: L2-HR :0.83572: (Sim:0h7m26s) 
CPU  0 inst:  100000000 cyc:   62591736 now IPC :1.62780: AVG IPC :1.59057: L2-Pf-HR :0.86524: L2-HR :0.83570: (Sim:0h7m29s) 
CPU  0 inst:  101000003 cyc:   63207197 now IPC :1.62480: AVG IPC :1.59091: L2-Pf-HR :0.86520: L2-HR :0.83566: (Sim:0h7m34s) 
CPU  0 inst:  102000002 cyc:   63823181 now IPC :1.62342: AVG IPC :1.59123: L2-Pf-HR :0.86515: L2-HR :0.83561: (Sim:0h7m39s) 
CPU  0 inst:  103000000 cyc:   64441210 now IPC :1.61804: AVG IPC :1.59149: L2-Pf-HR :0.86539: L2-HR :0.83580: (Sim:0h7m44s) 
CPU  0 inst:  104000000 cyc:   65200370 now IPC :1.31725: AVG IPC :1.58824: L2-Pf-HR :0.86529: L2-HR :0.83572: (Sim:0h7m49s) 
CPU  0 inst:  105000003 cyc:   65792541 now IPC :1.68871: AVG IPC :1.58916: L2-Pf-HR :0.86517: L2-HR :0.83563: (Sim:0h7m54s) 
CPU  0 inst:  106000003 cyc:   66391476 now IPC :1.66963: AVG IPC :1.58990: L2-Pf-HR :0.86509: L2-HR :0.83557: (Sim:0h7m58s) 
CPU  0 inst:  107000003 cyc:   66987081 now IPC :1.67897: AVG IPC :1.59070: L2-Pf-HR :0.86500: L2-HR :0.83549: (Sim:0h8m3s) 
CPU  0 inst:  108000000 cyc:   67578095 now IPC :1.69200: AVG IPC :1.59160: L2-Pf-HR :0.86492: L2-HR :0.83543: (Sim:0h8m8s) 
CPU  0 inst:  109000002 cyc:   68166250 now IPC :1.70024: AVG IPC :1.59255: L2-Pf-HR :0.86514: L2-HR :0.83561: (Sim:0h8m13s) 
CPU  0 inst:  110000001 cyc:   68860441 now IPC :1.44052: AVG IPC :1.59100: L2-Pf-HR :0.86515: L2-HR :0.83564: (Sim:0h8m18s) 
CPU  0 inst:  111000000 cyc:   69459506 now IPC :1.66927: AVG IPC :1.59168: L2-Pf-HR :0.86519: L2-HR :0.83568: (Sim:0h8m23s) 
CPU  0 inst:  112000000 cyc:   70058135 now IPC :1.67048: AVG IPC :1.59237: L2-Pf-HR :0.86526: L2-HR :0.83574: (Sim:0h8m29s) 
CPU  0 inst:  113000001 cyc:   70655831 now IPC :1.67309: AVG IPC :1.59306: L2-Pf-HR :0.86544: L2-HR :0.83591: (Sim:0h8m33s) 
CPU  0 inst:  114000003 cyc:   71454531 now IPC :1.25204: AVG IPC :1.58919: L2-Pf-HR :0.86532: L2-HR :0.83579: (Sim:0h8m38s) 
CPU  0 inst:  115000002 cyc:   72076748 now IPC :1.60715: AVG IPC :1.58935: L2-Pf-HR :0.86529: L2-HR :0.83576: (Sim:0h8m42s) 
CPU  0 inst:  116000000 cyc:   72691324 now IPC :1.62713: AVG IPC :1.58967: L2-Pf-HR :0.86527: L2-HR :0.83573: (Sim:0h8m46s) 
CPU  0 inst:  117000001 cyc:   73309238 now IPC :1.61835: AVG IPC :1.58992: L2-Pf-HR :0.86521: L2-HR :0.83568: (Sim:0h8m51s) 
CPU  0 inst:  118000001 cyc:   73920690 now IPC :1.63545: AVG IPC :1.59030: L2-Pf-HR :0.86516: L2-HR :0.83563: (Sim:0h8m56s) 
CPU  0 inst:  119000001 cyc:   74528319 now IPC :1.64574: AVG IPC :1.59076: L2-Pf-HR :0.86530: L2-HR :0.83574: (Sim:0h9m0s) 
CPU  0 inst:  120000000 cyc:   75287191 now IPC :1.31774: AVG IPC :1.58797: L2-Pf-HR :0.86532: L2-HR :0.83576: (Sim:0h9m5s) 
CPU  0 inst:  121000003 cyc:   75887607 now IPC :1.66552: AVG IPC :1.58859: L2-Pf-HR :0.86526: L2-HR :0.83571: (Sim:0h9m10s) 
CPU  0 inst:  122000000 cyc:   76479474 now IPC :1.68956: AVG IPC :1.58938: L2-Pf-HR :0.86521: L2-HR :0.83568: (Sim:0h9m14s) 
CPU  0 inst:  123000000 cyc:   77079984 now IPC :1.66525: AVG IPC :1.58998: L2-Pf-HR :0.86519: L2-HR :0.83566: (Sim:0h9m18s) 
CPU  0 inst:  124000000 cyc:   77672411 now IPC :1.68797: AVG IPC :1.59074: L2-Pf-HR :0.86515: L2-HR :0.83563: (Sim:0h9m23s) 
CPU  0 inst:  125000002 cyc:   78258015 now IPC :1.70764: AVG IPC :1.59163: L2-Pf-HR :0.86527: L2-HR :0.83572: (Sim:0h9m28s) 
CPU  0 inst:  126000003 cyc:   78955064 now IPC :1.43462: AVG IPC :1.59022: L2-Pf-HR :0.86533: L2-HR :0.83579: (Sim:0h9m33s) 
CPU  0 inst:  127000001 cyc:   79553772 now IPC :1.67026: AVG IPC :1.59083: L2-Pf-HR :0.86538: L2-HR :0.83583: (Sim:0h9m37s) 
CPU  0 inst:  128000000 cyc:   80148565 now IPC :1.68126: AVG IPC :1.59151: L2-Pf-HR :0.86543: L2-HR :0.83589: (Sim:0h9m42s) 
CPU  0 inst:  129000003 cyc:   80740704 now IPC :1.68880: AVG IPC :1.59223: L2-Pf-HR :0.86553: L2-HR :0.83597: (Sim:0h9m47s) 
CPU  0 inst:  130000000 cyc:   81534254 now IPC :1.26016: AVG IPC :1.58896: L2-Pf-HR :0.86548: L2-HR :0.83592: (Sim:0h9m52s) 
CPU  0 inst:  131000002 cyc:   82150465 now IPC :1.62282: AVG IPC :1.58922: L2-Pf-HR :0.86541: L2-HR :0.83586: (Sim:0h9m57s) 
CPU  0 inst:  132000000 cyc:   82759462 now IPC :1.64204: AVG IPC :1.58961: L2-Pf-HR :0.86539: L2-HR :0.83583: (Sim:0h10m2s) 
CPU  0 inst:  133000002 cyc:   83374204 now IPC :1.62670: AVG IPC :1.58989: L2-Pf-HR :0.86537: L2-HR :0.83581: (Sim:0h10m7s) 
CPU  0 inst:  134000003 cyc:   83986683 now IPC :1.63271: AVG IPC :1.59021: L2-Pf-HR :0.86532: L2-HR :0.83576: (Sim:0h10m11s) 
CPU  0 inst:  135000000 cyc:   84600842 now IPC :1.62824: AVG IPC :1.59048: L2-Pf-HR :0.86537: L2-HR :0.83579: (Sim:0h10m16s) 
CPU  0 inst:  136000000 cyc:   85362381 now IPC :1.31313: AVG IPC :1.58798: L2-Pf-HR :0.86542: L2-HR :0.83584: (Sim:0h10m21s) 
CPU  0 inst:  137000000 cyc:   85957210 now IPC :1.68116: AVG IPC :1.58863: L2-Pf-HR :0.86535: L2-HR :0.83577: (Sim:0h10m26s) 
CPU  0 inst:  138000003 cyc:   86556454 now IPC :1.66877: AVG IPC :1.58919: L2-Pf-HR :0.86529: L2-HR :0.83572: (Sim:0h10m31s) 
CPU  0 inst:  139000000 cyc:   87155540 now IPC :1.66920: AVG IPC :1.58975: L2-Pf-HR :0.86524: L2-HR :0.83569: (Sim:0h10m35s) 
CPU  0 inst:  140000000 cyc:   87751721 now IPC :1.67734: AVG IPC :1.59035: L2-Pf-HR :0.86519: L2-HR :0.83565: (Sim:0h10m40s) 
CPU  0 inst:  141000003 cyc:   88342567 now IPC :1.69249: AVG IPC :1.59104: L2-Pf-HR :0.86523: L2-HR :0.83568: (Sim:0h10m45s) 
CPU  0 inst:  142000003 cyc:   89037703 now IPC :1.43857: AVG IPC :1.58984: L2-Pf-HR :0.86533: L2-HR :0.83577: (Sim:0h10m50s) 
CPU  0 inst:  143000002 cyc:   89642217 now IPC :1.65422: AVG IPC :1.59028: L2-Pf-HR :0.86536: L2-HR :0.83580: (Sim:0h10m55s) 
CPU  0 inst:  144000000 cyc:   90249471 now IPC :1.64675: AVG IPC :1.59066: L2-Pf-HR :0.86541: L2-HR :0.83584: (Sim:0h11m0s) 
CPU  0 inst:  145000003 cyc:   90846791 now IPC :1.67415: AVG IPC :1.59122: L2-Pf-HR :0.86548: L2-HR :0.83591: (Sim:0h11m4s) 
CPU  0 inst:  146000001 cyc:   91638044 now IPC :1.26382: AVG IPC :1.58836: L2-Pf-HR :0.86546: L2-HR :0.83589: (Sim:0h11m9s) 
CPU  0 inst:  147000000 cyc:   92254106 now IPC :1.62321: AVG IPC :1.58860: L2-Pf-HR :0.86543: L2-HR :0.83585: (Sim:0h11m14s) 
CPU  0 inst:  148000000 cyc:   92868629 now IPC :1.62728: AVG IPC :1.58885: L2-Pf-HR :0.86539: L2-HR :0.83582: (Sim:0h11m19s) 
CPU  0 inst:  149000003 cyc:   93486187 now IPC :1.61929: AVG IPC :1.58906: L2-Pf-HR :0.86535: L2-HR :0.83578: (Sim:0h11m24s) 
CPU  0 inst:  150000003 cyc:   94109585 now IPC :1.60411: AVG IPC :1.58916: L2-Pf-HR :0.86532: L2-HR :0.83574: (Sim:0h11m28s) 
CPU  0 inst:  151000003 cyc:   94720136 now IPC :1.63786: AVG IPC :1.58948: L2-Pf-HR :0.86532: L2-HR :0.83574: (Sim:0h11m33s) 
CPU  0 inst:  152000000 cyc:   95481975 now IPC :1.31261: AVG IPC :1.58724: L2-Pf-HR :0.86541: L2-HR :0.83581: (Sim:0h11m38s) 
CPU  0 inst:  153000003 cyc:   96092031 now IPC :1.63920: AVG IPC :1.58758: L2-Pf-HR :0.86536: L2-HR :0.83576: (Sim:0h11m43s) 
CPU  0 inst:  154000003 cyc:   96688482 now IPC :1.67658: AVG IPC :1.58813: L2-Pf-HR :0.86532: L2-HR :0.83573: (Sim:0h11m48s) 
CPU  0 inst:  155000003 cyc:   97288165 now IPC :1.66755: AVG IPC :1.58863: L2-Pf-HR :0.86530: L2-HR :0.83573: (Sim:0h11m52s) 
CPU  0 inst:  156000000 cyc:   97879724 now IPC :1.69044: AVG IPC :1.58925: L2-Pf-HR :0.86524: L2-HR :0.83567: (Sim:0h11m57s) 
CPU  0 inst:  157000003 cyc:   98475965 now IPC :1.67718: AVG IPC :1.58979: L2-Pf-HR :0.86525: L2-HR :0.83568: (Sim:0h12m2s) 
CPU  0 inst:  158000000 cyc:   99169369 now IPC :1.44216: AVG IPC :1.58874: L2-Pf-HR :0.86538: L2-HR :0.83579: (Sim:0h12m7s) 
CPU  0 inst:  159000002 cyc:   99772122 now IPC :1.65906: AVG IPC :1.58917: L2-Pf-HR :0.86544: L2-HR :0.83584: (Sim:0h12m11s) 
CPU  0 inst:  160000000 cyc:  100369967 now IPC :1.67267: AVG IPC :1.58967: L2-Pf-HR :0.86549: L2-HR :0.83589: (Sim:0h12m16s) 
CPU  0 inst:  161000001 cyc:  100968810 now IPC :1.66989: AVG IPC :1.59015: L2-Pf-HR :0.86555: L2-HR :0.83595: (Sim:0h12m21s) 
CPU  0 inst:  162000003 cyc:  101742121 now IPC :1.29314: AVG IPC :1.58788: L2-Pf-HR :0.86558: L2-HR :0.83597: (Sim:0h12m26s) 
CPU  0 inst:  163000002 cyc:  102359009 now IPC :1.62104: AVG IPC :1.58808: L2-Pf-HR :0.86554: L2-HR :0.83593: (Sim:0h12m31s) 
CPU  0 inst:  164000000 cyc:  102974030 now IPC :1.62596: AVG IPC :1.58831: L2-Pf-HR :0.86552: L2-HR :0.83591: (Sim:0h12m36s) 
CPU  0 inst:  165000001 cyc:  103589722 now IPC :1.62419: AVG IPC :1.58852: L2-Pf-HR :0.86551: L2-HR :0.83589: (Sim:0h12m41s) 
CPU  0 inst:  166000003 cyc:  104204416 now IPC :1.62683: AVG IPC :1.58875: L2-Pf-HR :0.86548: L2-HR :0.83586: (Sim:0h12m46s) 
CPU  0 inst:  167000001 cyc:  104821897 now IPC :1.61948: AVG IPC :1.58893: L2-Pf-HR :0.86548: L2-HR :0.83586: (Sim:0h12m51s) 
CPU  0 inst:  168000000 cyc:  105583454 now IPC :1.31310: AVG IPC :1.58692: L2-Pf-HR :0.86560: L2-HR :0.83596: (Sim:0h12m56s) 
CPU  0 inst:  169000003 cyc:  106181846 now IPC :1.67115: AVG IPC :1.58740: L2-Pf-HR :0.86552: L2-HR :0.83589: (Sim:0h13m1s) 
CPU  0 inst:  170000000 cyc:  106777833 now IPC :1.67788: AVG IPC :1.58791: L2-Pf-HR :0.86548: L2-HR :0.83586: (Sim:0h13m6s) 
CPU  0 inst:  171000001 cyc:  107367882 now IPC :1.69478: AVG IPC :1.58850: L2-Pf-HR :0.86544: L2-HR :0.83583: (Sim:0h13m10s) 
CPU  0 inst:  172000000 cyc:  107960374 now IPC :1.68778: AVG IPC :1.58905: L2-Pf-HR :0.86538: L2-HR :0.83578: (Sim:0h13m15s) 
CPU  0 inst:  173000002 cyc:  108553651 now IPC :1.68556: AVG IPC :1.58959: L2-Pf-HR :0.86537: L2-HR :0.83577: (Sim:0h13m19s) 
CPU  0 inst:  174000002 cyc:  109239892 now IPC :1.45721: AVG IPC :1.58875: L2-Pf-HR :0.86552: L2-HR :0.83591: (Sim:0h13m24s) 
CPU  0 inst:  175000001 cyc:  109842799 now IPC :1.65863: AVG IPC :1.58913: L2-Pf-HR :0.86554: L2-HR :0.83593: (Sim:0h13m29s) 
CPU  0 inst:  176000000 cyc:  110437991 now IPC :1.68013: AVG IPC :1.58963: L2-Pf-HR :0.86560: L2-HR :0.83598: (Sim:0h13m33s) 
CPU  0 inst:  177000002 cyc:  111039109 now IPC :1.66357: AVG IPC :1.59003: L2-Pf-HR :0.86564: L2-HR :0.83602: (Sim:0h13m36s) 
CPU  0 inst:  178000003 cyc:  111824489 now IPC :1.27327: AVG IPC :1.58779: L2-Pf-HR :0.86569: L2-HR :0.83605: (Sim:0h13m39s) 
CPU  0 inst:  179000002 cyc:  112445906 now IPC :1.60922: AVG IPC :1.58791: L2-Pf-HR :0.86563: L2-HR :0.83599: (Sim:0h13m42s) 
CPU  0 inst:  180000000 cyc:  113058585 now IPC :1.63217: AVG IPC :1.58815: L2-Pf-HR :0.86559: L2-HR :0.83596: (Sim:0h13m46s) 
CPU  0 inst:  181000001 cyc:  113672752 now IPC :1.62822: AVG IPC :1.58837: L2-Pf-HR :0.86559: L2-HR :0.83596: (Sim:0h13m49s) 
CPU  0 inst:  182000002 cyc:  114291747 now IPC :1.61552: AVG IPC :1.58852: L2-Pf-HR :0.86554: L2-HR :0.83591: (Sim:0h13m52s) 
CPU  0 inst:  183000001 cyc:  114901990 now IPC :1.63869: AVG IPC :1.58879: L2-Pf-HR :0.86553: L2-HR :0.83589: (Sim:0h13m55s) 
CPU  0 inst:  184000000 cyc:  115653250 now IPC :1.33110: AVG IPC :1.58710: L2-Pf-HR :0.86564: L2-HR :0.83599: (Sim:0h13m59s) 
CPU  0 inst:  185000002 cyc:  116265911 now IPC :1.63223: AVG IPC :1.58734: L2-Pf-HR :0.86558: L2-HR :0.83595: (Sim:0h14m2s) 
CPU  0 inst:  186000001 cyc:  116861346 now IPC :1.67944: AVG IPC :1.58781: L2-Pf-HR :0.86556: L2-HR :0.83593: (Sim:0h14m5s) 
CPU  0 inst:  187000002 cyc:  117455711 now IPC :1.68247: AVG IPC :1.58829: L2-Pf-HR :0.86552: L2-HR :0.83590: (Sim:0h14m8s) 
CPU  0 inst:  188000000 cyc:  118050991 now IPC :1.67988: AVG IPC :1.58876: L2-Pf-HR :0.86548: L2-HR :0.83587: (Sim:0h14m11s) 
CPU  0 inst:  189000002 cyc:  118645359 now IPC :1.68246: AVG IPC :1.58923: L2-Pf-HR :0.86547: L2-HR :0.83586: (Sim:0h14m15s) 
CPU  0 inst:  190000003 cyc:  119332722 now IPC :1.45484: AVG IPC :1.58845: L2-Pf-HR :0.86561: L2-HR :0.83597: (Sim:0h14m18s) 
CPU  0 inst:  191000003 cyc:  119932909 now IPC :1.66615: AVG IPC :1.58884: L2-Pf-HR :0.86563: L2-HR :0.83599: (Sim:0h14m21s) 
CPU  0 inst:  192000000 cyc:  120529121 now IPC :1.67725: AVG IPC :1.58929: L2-Pf-HR :0.86568: L2-HR :0.83604: (Sim:0h14m24s) 
CPU  0 inst:  193000002 cyc:  121129367 now IPC :1.66599: AVG IPC :1.58967: L2-Pf-HR :0.86571: L2-HR :0.83607: (Sim:0h14m28s) 
CPU  0 inst:  194000001 cyc:  121898193 now IPC :1.30068: AVG IPC :1.58783: L2-Pf-HR :0.86575: L2-HR :0.83610: (Sim:0h14m33s) 
CPU  0 inst:  195000000 cyc:  122526598 now IPC :1.59133: AVG IPC :1.58785: L2-Pf-HR :0.86571: L2-HR :0.83605: (Sim:0h14m36s) 
CPU  0 inst:  196000000 cyc:  123135840 now IPC :1.64138: AVG IPC :1.58812: L2-Pf-HR :0.86568: L2-HR :0.83602: (Sim:0h14m39s) 
CPU  0 inst:  197000003 cyc:  123754133 now IPC :1.61736: AVG IPC :1.58826: L2-Pf-HR :0.86565: L2-HR :0.83600: (Sim:0h14m43s) 
CPU  0 inst:  198000002 cyc:  124369402 now IPC :1.62530: AVG IPC :1.58845: L2-Pf-HR :0.86563: L2-HR :0.83598: (Sim:0h14m46s) 
CPU  0 inst:  199000002 cyc:  124984380 now IPC :1.62607: AVG IPC :1.58863: L2-Pf-HR :0.86561: L2-HR :0.83596: (Sim:0h14m49s) 
CPU  0 inst:  200000000 cyc:  125727382 now IPC :1.34589: AVG IPC :1.58719: L2-Pf-HR :0.86571: L2-HR :0.83604: (Sim:0h14m52s) 
CPU  0 inst:  201000003 cyc:  126375649 now IPC :1.54258: AVG IPC :1.58696: L2-Pf-HR :0.86567: L2-HR :0.83600: (Sim:0h14m56s) 
CPU  0 inst:  202000001 cyc:  126999421 now IPC :1.60315: AVG IPC :1.58704: L2-Pf-HR :0.86563: L2-HR :0.83597: (Sim:0h14m59s) 
CPU  0 inst:  203000001 cyc:  127624612 now IPC :1.59951: AVG IPC :1.58710: L2-Pf-HR :0.86561: L2-HR :0.83595: (Sim:0h15m2s) 
CPU  0 inst:  204000000 cyc:  128250131 now IPC :1.59867: AVG IPC :1.58716: L2-Pf-HR :0.86557: L2-HR :0.83592: (Sim:0h15m7s) 
CPU  0 inst:  205000003 cyc:  128877767 now IPC :1.59328: AVG IPC :1.58719: L2-Pf-HR :0.86555: L2-HR :0.83591: (Sim:0h15m12s) 
CPU  0 inst:  206000002 cyc:  129584441 now IPC :1.41508: AVG IPC :1.58624: L2-Pf-HR :0.86566: L2-HR :0.83601: (Sim:0h15m17s) 
CPU  0 inst:  207000003 cyc:  130191069 now IPC :1.64846: AVG IPC :1.58653: L2-Pf-HR :0.86570: L2-HR :0.83604: (Sim:0h15m22s) 
CPU  0 inst:  208000000 cyc:  130794084 now IPC :1.65833: AVG IPC :1.58687: L2-Pf-HR :0.86575: L2-HR :0.83609: (Sim:0h15m26s) 
CPU  0 inst:  209000003 cyc:  131388579 now IPC :1.68210: AVG IPC :1.58730: L2-Pf-HR :0.86580: L2-HR :0.83613: (Sim:0h15m31s) 
CPU  0 inst:  210000003 cyc:  132129067 now IPC :1.35046: AVG IPC :1.58596: L2-Pf-HR :0.86585: L2-HR :0.83617: (Sim:0h15m36s) 
CPU  0 inst:  211000001 cyc:  132777023 now IPC :1.54331: AVG IPC :1.58575: L2-Pf-HR :0.86582: L2-HR :0.83614: (Sim:0h15m41s) 
CPU  0 inst:  212000000 cyc:  133394059 now IPC :1.62065: AVG IPC :1.58592: L2-Pf-HR :0.86579: L2-HR :0.83611: (Sim:0h15m44s) 
CPU  0 inst:  213000003 cyc:  134008744 now IPC :1.62685: AVG IPC :1.58611: L2-Pf-HR :0.86576: L2-HR :0.83608: (Sim:0h15m47s) 
CPU  0 inst:  214000000 cyc:  134625378 now IPC :1.62170: AVG IPC :1.58627: L2-Pf-HR :0.86574: L2-HR :0.83606: (Sim:0h15m50s) 
CPU  0 inst:  215000000 cyc:  135235882 now IPC :1.63799: AVG IPC :1.58651: L2-Pf-HR :0.86571: L2-HR :0.83604: (Sim:0h15m54s) 
CPU  0 inst:  216000000 cyc:  135901287 now IPC :1.50284: AVG IPC :1.58609: L2-Pf-HR :0.86583: L2-HR :0.83613: (Sim:0h15m57s) 
CPU  0 inst:  217000002 cyc:  136605941 now IPC :1.41914: AVG IPC :1.58523: L2-Pf-HR :0.86578: L2-HR :0.83609: (Sim:0h16m0s) 
CPU  0 inst:  218000000 cyc:  137198823 now IPC :1.68667: AVG IPC :1.58567: L2-Pf-HR :0.86574: L2-HR :0.83606: (Sim:0h16m3s) 
CPU  0 inst:  219000002 cyc:  137797679 now IPC :1.66985: AVG IPC :1.58604: L2-Pf-HR :0.86570: L2-HR :0.83603: (Sim:0h16m7s) 
CPU  0 inst:  220000000 cyc:  138392779 now IPC :1.68039: AVG IPC :1.58644: L2-Pf-HR :0.86566: L2-HR :0.83600: (Sim:0h16m10s) 
CPU  0 inst:  221000003 cyc:  138983495 now IPC :1.69287: AVG IPC :1.58690: L2-Pf-HR :0.86563: L2-HR :0.83597: (Sim:0h16m14s) 
CPU  0 inst:  222000003 cyc:  139603683 now IPC :1.61241: AVG IPC :1.58701: L2-Pf-HR :0.86573: L2-HR :0.83606: (Sim:0h16m19s) 
CPU  0 inst:  223000003 cyc:  140274779 now IPC :1.49010: AVG IPC :1.58655: L2-Pf-HR :0.86574: L2-HR :0.83607: (Sim:0h16m24s) 
CPU  0 inst:  224000000 cyc:  140867042 now IPC :1.68843: AVG IPC :1.58698: L2-Pf-HR :0.86576: L2-HR :0.83610: (Sim:0h16m28s) 
CPU  0 inst:  225000003 cyc:  141463783 now IPC :1.67577: AVG IPC :1.58736: L2-Pf-HR :0.86578: L2-HR :0.83611: (Sim:0h16m31s) 
CPU  0 inst:  226000002 cyc:  142080230 now IPC :1.62220: AVG IPC :1.58751: L2-Pf-HR :0.86587: L2-HR :0.83619: (Sim:0h16m34s) 
CPU  0 inst:  227000002 cyc:  142855417 now IPC :1.29001: AVG IPC :1.58588: L2-Pf-HR :0.86581: L2-HR :0.83613: (Sim:0h16m37s) 
CPU  0 inst:  228000000 cyc:  143465990 now IPC :1.63780: AVG IPC :1.58610: L2-Pf-HR :0.86577: L2-HR :0.83610: (Sim:0h16m41s) 
CPU  0 inst:  229000002 cyc:  144081039 now IPC :1.62589: AVG IPC :1.58628: L2-Pf-HR :0.86575: L2-HR :0.83608: (Sim:0h16m44s) 
CPU  0 inst:  230000000 cyc:  144697557 now IPC :1.62201: AVG IPC :1.58643: L2-Pf-HR :0.86573: L2-HR :0.83606: (Sim:0h16m47s) 
CPU  0 inst:  231000002 cyc:  145323629 now IPC :1.59726: AVG IPC :1.58648: L2-Pf-HR :0.86571: L2-HR :0.83604: (Sim:0h16m50s) 
CPU  0 inst:  232000000 cyc:  145933761 now IPC :1.63899: AVG IPC :1.58670: L2-Pf-HR :0.86580: L2-HR :0.83611: (Sim:0h16m53s) 
CPU  0 inst:  233000002 cyc:  146707839 now IPC :1.29186: AVG IPC :1.58513: L2-Pf-HR :0.86580: L2-HR :0.83612: (Sim:0h16m57s) 
CPU  0 inst:  234000002 cyc:  147313832 now IPC :1.65018: AVG IPC :1.58540: L2-Pf-HR :0.86575: L2-HR :0.83608: (Sim:0h17m0s) 
CPU  0 inst:  235000000 cyc:  147917936 now IPC :1.65534: AVG IPC :1.58569: L2-Pf-HR :0.86573: L2-HR :0.83606: (Sim:0h17m3s) 
CPU  0 inst:  236000000 cyc:  148522246 now IPC :1.65478: AVG IPC :1.58597: L2-Pf-HR :0.86570: L2-HR :0.83603: (Sim:0h17m6s) 
CPU  0 inst:  237000002 cyc:  149128409 now IPC :1.64972: AVG IPC :1.58623: L2-Pf-HR :0.86566: L2-HR :0.83601: (Sim:0h17m10s) 
CPU  0 inst:  238000002 cyc:  149721385 now IPC :1.68641: AVG IPC :1.58663: L2-Pf-HR :0.86574: L2-HR :0.83607: (Sim:0h17m13s) 
CPU  0 inst:  239000000 cyc:  150422584 now IPC :1.42613: AVG IPC :1.58588: L2-Pf-HR :0.86578: L2-HR :0.83611: (Sim:0h17m16s) 
CPU  0 inst:  240000000 cyc:  151022543 now IPC :1.66678: AVG IPC :1.58620: L2-Pf-HR :0.86582: L2-HR :0.83615: (Sim:0h17m19s) 
CPU  0 inst:  241000003 cyc:  151623867 now IPC :1.66300: AVG IPC :1.58651: L2-Pf-HR :0.86585: L2-HR :0.83618: (Sim:0h17m22s) 
CPU  0 inst:  242000002 cyc:  152214408 now IPC :1.69336: AVG IPC :1.58693: L2-Pf-HR :0.86592: L2-HR :0.83623: (Sim:0h17m26s) 
CPU  0 inst:  243000003 cyc:  153004913 now IPC :1.26502: AVG IPC :1.58525: L2-Pf-HR :0.86588: L2-HR :0.83619: (Sim:0h17m29s) 
CPU  0 inst:  244000000 cyc:  153626789 now IPC :1.60803: AVG IPC :1.58534: L2-Pf-HR :0.86583: L2-HR :0.83615: (Sim:0h17m32s) 
CPU  0 inst:  245000002 cyc:  154238379 now IPC :1.63509: AVG IPC :1.58554: L2-Pf-HR :0.86580: L2-HR :0.83612: (Sim:0h17m35s) 
CPU  0 inst:  246000002 cyc:  154861854 now IPC :1.60391: AVG IPC :1.58562: L2-Pf-HR :0.86577: L2-HR :0.83609: (Sim:0h17m38s) 
CPU  0 inst:  247000000 cyc:  155476112 now IPC :1.62798: AVG IPC :1.58579: L2-Pf-HR :0.86574: L2-HR :0.83606: (Sim:0h17m42s) 
CPU  0 inst:  248000000 cyc:  156099763 now IPC :1.60346: AVG IPC :1.58586: L2-Pf-HR :0.86578: L2-HR :0.83610: (Sim:0h17m45s) 
CPU  0 inst:  249000003 cyc:  156861868 now IPC :1.31216: AVG IPC :1.58452: L2-Pf-HR :0.86581: L2-HR :0.83612: (Sim:0h17m50s) 
CPU  0 inst:  250000000 cyc:  157456661 now IPC :1.68125: AVG IPC :1.58489: L2-Pf-HR :0.86576: L2-HR :0.83609: (Sim:0h17m55s) 
CPU  0 inst:  251000002 cyc:  158052643 now IPC :1.67791: AVG IPC :1.58524: L2-Pf-HR :0.86573: L2-HR :0.83606: (Sim:0h17m59s) 
CPU  0 inst:  252000000 cyc:  158645322 now IPC :1.68725: AVG IPC :1.58562: L2-Pf-HR :0.86571: L2-HR :0.83605: (Sim:0h18m4s) 
CPU  0 inst:  253000001 cyc:  159239703 now IPC :1.68242: AVG IPC :1.58599: L2-Pf-HR :0.86568: L2-HR :0.83602: (Sim:0h18m8s) 
CPU  0 inst:  254000002 cyc:  159833857 now IPC :1.68307: AVG IPC :1.58635: L2-Pf-HR :0.86571: L2-HR :0.83605: (Sim:0h18m11s) 
CPU  0 inst:  255000003 cyc:  160529404 now IPC :1.43772: AVG IPC :1.58570: L2-Pf-HR :0.86578: L2-HR :0.83611: (Sim:0h18m14s) 
CPU  0 inst:  256000000 cyc:  161131144 now IPC :1.66184: AVG IPC :1.58599: L2-Pf-HR :0.86581: L2-HR :0.83614: (Sim:0h18m17s) 
CPU  0 inst:  257000001 cyc:  161730176 now IPC :1.66936: AVG IPC :1.58630: L2-Pf-HR :0.86585: L2-HR :0.83617: (Sim:0h18m20s) 
CPU  0 inst:  258000003 cyc:  162324652 now IPC :1.68216: AVG IPC :1.58665: L2-Pf-HR :0.86590: L2-HR :0.83622: (Sim:0h18m24s) 
CPU  0 inst:  259000000 cyc:  166967222 now IPC :0.21540: AVG IPC :1.54830: L2-Pf-HR :0.86299: L2-HR :0.83419: (Sim:0h18m37s) 
CPU  0 inst:  260000000 cyc:  173452131 now IPC :0.15420: AVG IPC :1.49588: L2-Pf-HR :0.85887: L2-HR :0.83143: (Sim:0h18m55s) 
CPU  0 inst:  261000003 cyc:  179934797 now IPC :0.15426: AVG IPC :1.44728: L2-Pf-HR :0.85480: L2-HR :0.82873: (Sim:0h19m12s) 
CPU  0 inst:  262000001 cyc:  186417772 now IPC :0.15425: AVG IPC :1.40208: L2-Pf-HR :0.85078: L2-HR :0.82608: (Sim:0h19m29s) 
CPU  0 inst:  263000003 cyc:  192901265 now IPC :0.15424: AVG IPC :1.35992: L2-Pf-HR :0.84680: L2-HR :0.82347: (Sim:0h19m46s) 
CPU  0 inst:  264000000 cyc:  199389368 now IPC :0.15413: AVG IPC :1.32049: L2-Pf-HR :0.84287: L2-HR :0.82091: (Sim:0h20m3s) 
CPU  0 inst:  265000003 cyc:  205880065 now IPC :0.15407: AVG IPC :1.28354: L2-Pf-HR :0.83899: L2-HR :0.81840: (Sim:0h20m20s) 
CPU  0 inst:  266000001 cyc:  212375490 now IPC :0.15395: AVG IPC :1.24884: L2-Pf-HR :0.83515: L2-HR :0.81593: (Sim:0h20m37s) 
CPU  0 inst:  267000003 cyc:  218876922 now IPC :0.15381: AVG IPC :1.21616: L2-Pf-HR :0.83135: L2-HR :0.81351: (Sim:0h20m55s) 
CPU  0 inst:  268000000 cyc:  224647445 now IPC :0.17329: AVG IPC :1.18926: L2-Pf-HR :0.82849: L2-HR :0.81162: (Sim:0h21m10s) 
CPU  0 inst:  269000000 cyc:  228202854 now IPC :0.28126: AVG IPC :1.17505: L2-Pf-HR :0.82848: L2-HR :0.81147: (Sim:0h21m20s) 
CPU  0 inst:  270000000 cyc:  231749762 now IPC :0.28194: AVG IPC :1.16132: L2-Pf-HR :0.82852: L2-HR :0.81135: (Sim:0h21m30s) 
CPU  0 inst:  271000000 cyc:  235293110 now IPC :0.28222: AVG IPC :1.14803: L2-Pf-HR :0.82860: L2-HR :0.81128: (Sim:0h21m40s) 
CPU  0 inst:  272000000 cyc:  238835775 now IPC :0.28227: AVG IPC :1.13513: L2-Pf-HR :0.82869: L2-HR :0.81122: (Sim:0h21m49s) 
CPU  0 inst:  273000000 cyc:  242377651 now IPC :0.28234: AVG IPC :1.12262: L2-Pf-HR :0.82880: L2-HR :0.81116: (Sim:0h21m59s) 
CPU  0 inst:  274000002 cyc:  245922652 now IPC :0.28209: AVG IPC :1.11046: L2-Pf-HR :0.82887: L2-HR :0.81108: (Sim:0h22m9s) 
CPU  0 inst:  275000001 cyc:  249468813 now IPC :0.28199: AVG IPC :1.09863: L2-Pf-HR :0.82895: L2-HR :0.81101: (Sim:0h22m19s) 
CPU  0 inst:  276000000 cyc:  253012498 now IPC :0.28219: AVG IPC :1.08715: L2-Pf-HR :0.82903: L2-HR :0.81094: (Sim:0h22m29s) 
CPU  0 inst:  277000000 cyc:  256556788 now IPC :0.28214: AVG IPC :1.07599: L2-Pf-HR :0.82910: L2-HR :0.81086: (Sim:0h22m39s) 
CPU  0 inst:  278000000 cyc:  260100423 now IPC :0.28220: AVG IPC :1.06514: L2-Pf-HR :0.82918: L2-HR :0.81079: (Sim:0h22m48s) 
CPU  0 inst:  279000000 cyc:  263644753 now IPC :0.28214: AVG IPC :1.05457: L2-Pf-HR :0.82925: L2-HR :0.81071: (Sim:0h22m58s) 
CPU  0 inst:  280000000 cyc:  267189318 now IPC :0.28212: AVG IPC :1.04429: L2-Pf-HR :0.82932: L2-HR :0.81063: (Sim:0h23m8s) 
CPU  0 inst:  281000002 cyc:  270732848 now IPC :0.28221: AVG IPC :1.03427: L2-Pf-HR :0.82941: L2-HR :0.81057: (Sim:0h23m18s) 
CPU  0 inst:  282000003 cyc:  274278633 now IPC :0.28203: AVG IPC :1.02451: L2-Pf-HR :0.82948: L2-HR :0.81050: (Sim:0h23m28s) 
CPU  0 inst:  283000000 cyc:  277823466 now IPC :0.28210: AVG IPC :1.01501: L2-Pf-HR :0.82956: L2-HR :0.81043: (Sim:0h23m34s) 
CPU  0 inst:  284000000 cyc:  281368271 now IPC :0.28210: AVG IPC :1.00574: L2-Pf-HR :0.82963: L2-HR :0.81036: (Sim:0h23m41s) 
CPU  0 inst:  285000003 cyc:  284912621 now IPC :0.28214: AVG IPC :0.99671: L2-Pf-HR :0.82970: L2-HR :0.81028: (Sim:0h23m47s) 
CPU  0 inst:  286000000 cyc:  288456807 now IPC :0.28215: AVG IPC :0.98790: L2-Pf-HR :0.82977: L2-HR :0.81020: (Sim:0h23m56s) 
CPU  0 inst:  287000000 cyc:  291999237 now IPC :0.28229: AVG IPC :0.97931: L2-Pf-HR :0.82986: L2-HR :0.81015: (Sim:0h24m6s) 
CPU  0 inst:  288000000 cyc:  295542926 now IPC :0.28219: AVG IPC :0.97093: L2-Pf-HR :0.82993: L2-HR :0.81008: (Sim:0h24m16s) 
CPU  0 inst:  289000003 cyc:  299088431 now IPC :0.28205: AVG IPC :0.96273: L2-Pf-HR :0.82999: L2-HR :0.81000: (Sim:0h24m25s) 
CPU  0 inst:  290000001 cyc:  302633258 now IPC :0.28210: AVG IPC :0.95473: L2-Pf-HR :0.83008: L2-HR :0.80995: (Sim:0h24m34s) 
CPU  0 inst:  291000000 cyc:  306175844 now IPC :0.28228: AVG IPC :0.94693: L2-Pf-HR :0.83017: L2-HR :0.80989: (Sim:0h24m41s) 
CPU  0 inst:  292000000 cyc:  309719022 now IPC :0.28223: AVG IPC :0.93930: L2-Pf-HR :0.83024: L2-HR :0.80983: (Sim:0h24m51s) 
CPU  0 inst:  293000002 cyc:  313262755 now IPC :0.28219: AVG IPC :0.93184: L2-Pf-HR :0.83031: L2-HR :0.80976: (Sim:0h25m1s) 
CPU  0 inst:  294000000 cyc:  316806458 now IPC :0.28219: AVG IPC :0.92455: L2-Pf-HR :0.83039: L2-HR :0.80970: (Sim:0h25m10s) 
CPU  0 inst:  295000000 cyc:  320349802 now IPC :0.28222: AVG IPC :0.91743: L2-Pf-HR :0.83046: L2-HR :0.80963: (Sim:0h25m20s) 
CPU  0 inst:  296000000 cyc:  323893818 now IPC :0.28217: AVG IPC :0.91046: L2-Pf-HR :0.83054: L2-HR :0.80957: (Sim:0h25m30s) 
CPU  0 inst:  297000003 cyc:  327438082 now IPC :0.28215: AVG IPC :0.90363: L2-Pf-HR :0.83063: L2-HR :0.80953: (Sim:0h25m40s) 
CPU  0 inst:  298000000 cyc:  330981879 now IPC :0.28218: AVG IPC :0.89696: L2-Pf-HR :0.83071: L2-HR :0.80946: (Sim:0h25m48s) 
CPU  0 inst:  299000000 cyc:  334524916 now IPC :0.28224: AVG IPC :0.89043: L2-Pf-HR :0.83077: L2-HR :0.80940: (Sim:0h25m54s) 
CPU  0 inst:  300000000 cyc:  338067904 now IPC :0.28225: AVG IPC :0.88404: L2-Pf-HR :0.83085: L2-HR :0.80934: (Sim:0h26m1s) 
CPU  0 inst:  301000000 cyc:  341609724 now IPC :0.28234: AVG IPC :0.87778: L2-Pf-HR :0.83096: L2-HR :0.80931: (Sim:0h26m7s) 
CPU  0 inst:  302000003 cyc:  345152480 now IPC :0.28227: AVG IPC :0.87165: L2-Pf-HR :0.83105: L2-HR :0.80926: (Sim:0h26m13s) 
CPU  0 inst:  303000000 cyc:  348694448 now IPC :0.28233: AVG IPC :0.86565: L2-Pf-HR :0.83114: L2-HR :0.80922: (Sim:0h26m19s) 
CPU  0 inst:  304000000 cyc:  352239016 now IPC :0.28212: AVG IPC :0.85976: L2-Pf-HR :0.83122: L2-HR :0.80917: (Sim:0h26m26s) 
CPU  0 inst:  305000001 cyc:  355782443 now IPC :0.28221: AVG IPC :0.85399: L2-Pf-HR :0.83133: L2-HR :0.80914: (Sim:0h26m32s) 
CPU  0 inst:  306000003 cyc:  359325904 now IPC :0.28221: AVG IPC :0.84834: L2-Pf-HR :0.83140: L2-HR :0.80908: (Sim:0h26m38s) 
CPU  0 inst:  307000000 cyc:  362870553 now IPC :0.28211: AVG IPC :0.84279: L2-Pf-HR :0.83146: L2-HR :0.80901: (Sim:0h26m45s) 
CPU  0 inst:  308000000 cyc:  366415031 now IPC :0.28213: AVG IPC :0.83735: L2-Pf-HR :0.83151: L2-HR :0.80894: (Sim:0h26m51s) 
CPU  0 inst:  309000000 cyc:  369959661 now IPC :0.28212: AVG IPC :0.83202: L2-Pf-HR :0.83156: L2-HR :0.80886: (Sim:0h26m57s) 
CPU  0 inst:  310000002 cyc:  373501224 now IPC :0.28236: AVG IPC :0.82680: L2-Pf-HR :0.83165: L2-HR :0.80882: (Sim:0h27m3s) 
CPU  0 inst:  311000000 cyc:  377044681 now IPC :0.28221: AVG IPC :0.82166: L2-Pf-HR :0.83172: L2-HR :0.80877: (Sim:0h27m9s) 
CPU  0 inst:  312000000 cyc:  380594331 now IPC :0.28172: AVG IPC :0.81662: L2-Pf-HR :0.83174: L2-HR :0.80867: (Sim:0h27m16s) 
CPU  0 inst:  313000000 cyc:  384138515 now IPC :0.28215: AVG IPC :0.81167: L2-Pf-HR :0.83181: L2-HR :0.80861: (Sim:0h27m22s) 
CPU  0 inst:  314000002 cyc:  387681249 now IPC :0.28227: AVG IPC :0.80682: L2-Pf-HR :0.83188: L2-HR :0.80856: (Sim:0h27m28s) 
CPU  0 inst:  315000000 cyc:  391225950 now IPC :0.28211: AVG IPC :0.80206: L2-Pf-HR :0.83193: L2-HR :0.80848: (Sim:0h27m35s) 
CPU  0 inst:  316000000 cyc:  394771315 now IPC :0.28206: AVG IPC :0.79737: L2-Pf-HR :0.83198: L2-HR :0.80841: (Sim:0h27m41s) 
CPU  0 inst:  317000000 cyc:  398315885 now IPC :0.28212: AVG IPC :0.79278: L2-Pf-HR :0.83205: L2-HR :0.80835: (Sim:0h27m47s) 
CPU  0 inst:  318000001 cyc:  401859681 now IPC :0.28218: AVG IPC :0.78826: L2-Pf-HR :0.83212: L2-HR :0.80830: (Sim:0h27m53s) 
CPU  0 inst:  319000003 cyc:  405404235 now IPC :0.28212: AVG IPC :0.78383: L2-Pf-HR :0.83219: L2-HR :0.80825: (Sim:0h27m59s) 
CPU  0 inst:  320000000 cyc:  408948261 now IPC :0.28216: AVG IPC :0.77947: L2-Pf-HR :0.83228: L2-HR :0.80821: (Sim:0h28m6s) 
CPU  0 inst:  321000000 cyc:  412491373 now IPC :0.28224: AVG IPC :0.77519: L2-Pf-HR :0.83235: L2-HR :0.80816: (Sim:0h28m12s) 
CPU  0 inst:  322000000 cyc:  416036396 now IPC :0.28209: AVG IPC :0.77098: L2-Pf-HR :0.83239: L2-HR :0.80809: (Sim:0h28m18s) 
CPU  0 inst:  323000003 cyc:  419582805 now IPC :0.28198: AVG IPC :0.76683: L2-Pf-HR :0.83242: L2-HR :0.80799: (Sim:0h28m24s) 
CPU  0 inst:  324000000 cyc:  423127773 now IPC :0.28209: AVG IPC :0.76276: L2-Pf-HR :0.83246: L2-HR :0.80793: (Sim:0h28m31s) 
CPU  0 inst:  325000000 cyc:  426672048 now IPC :0.28215: AVG IPC :0.75876: L2-Pf-HR :0.83252: L2-HR :0.80786: (Sim:0h28m37s) 
CPU  0 inst:  326000002 cyc:  430216466 now IPC :0.28213: AVG IPC :0.75483: L2-Pf-HR :0.83258: L2-HR :0.80780: (Sim:0h28m43s) 
CPU  0 inst:  327000001 cyc:  433763059 now IPC :0.28196: AVG IPC :0.75095: L2-Pf-HR :0.83264: L2-HR :0.80774: (Sim:0h28m49s) 
CPU  0 inst:  328000000 cyc:  437308375 now IPC :0.28206: AVG IPC :0.74714: L2-Pf-HR :0.83268: L2-HR :0.80767: (Sim:0h28m55s) 
CPU  0 inst:  329000000 cyc:  440853385 now IPC :0.28209: AVG IPC :0.74339: L2-Pf-HR :0.83272: L2-HR :0.80759: (Sim:0h29m1s) 
CPU  0 inst:  330000000 cyc:  444397199 now IPC :0.28218: AVG IPC :0.73971: L2-Pf-HR :0.83277: L2-HR :0.80753: (Sim:0h29m8s) 
CPU  0 inst:  331000002 cyc:  447942033 now IPC :0.28210: AVG IPC :0.73608: L2-Pf-HR :0.83281: L2-HR :0.80746: (Sim:0h29m14s) 
CPU  0 inst:  332000000 cyc:  451484183 now IPC :0.28231: AVG IPC :0.73251: L2-Pf-HR :0.83288: L2-HR :0.80742: (Sim:0h29m20s) 
CPU  0 inst:  333000002 cyc:  455028765 now IPC :0.28212: AVG IPC :0.72899: L2-Pf-HR :0.83294: L2-HR :0.80736: (Sim:0h29m26s) 
CPU  0 inst:  334000003 cyc:  458574334 now IPC :0.28204: AVG IPC :0.72553: L2-Pf-HR :0.83299: L2-HR :0.80729: (Sim:0h29m32s) 
CPU  0 inst:  335000002 cyc:  462120667 now IPC :0.28198: AVG IPC :0.72212: L2-Pf-HR :0.83304: L2-HR :0.80723: (Sim:0h29m38s) 
CPU  0 inst:  336000000 cyc:  465662575 now IPC :0.28233: AVG IPC :0.71877: L2-Pf-HR :0.83312: L2-HR :0.80720: (Sim:0h29m44s) 
CPU  0 inst:  337000000 cyc:  469206472 now IPC :0.28218: AVG IPC :0.71546: L2-Pf-HR :0.83317: L2-HR :0.80714: (Sim:0h29m51s) 
CPU  0 inst:  338000000 cyc:  472750334 now IPC :0.28218: AVG IPC :0.71221: L2-Pf-HR :0.83323: L2-HR :0.80709: (Sim:0h29m58s) 
CPU  0 inst:  339000000 cyc:  476294218 now IPC :0.28218: AVG IPC :0.70900: L2-Pf-HR :0.83329: L2-HR :0.80704: (Sim:0h30m5s) 
CPU  0 inst:  340000000 cyc:  479837472 now IPC :0.28223: AVG IPC :0.70584: L2-Pf-HR :0.83336: L2-HR :0.80699: (Sim:0h30m11s) 
CPU  0 inst:  341000001 cyc:  483382566 now IPC :0.28208: AVG IPC :0.70273: L2-Pf-HR :0.83341: L2-HR :0.80694: (Sim:0h30m17s) 
CPU  0 inst:  342000001 cyc:  486928053 now IPC :0.28205: AVG IPC :0.69966: L2-Pf-HR :0.83348: L2-HR :0.80689: (Sim:0h30m24s) 
CPU  0 inst:  343000000 cyc:  490471370 now IPC :0.28222: AVG IPC :0.69664: L2-Pf-HR :0.83355: L2-HR :0.80685: (Sim:0h30m30s) 
CPU  0 inst:  344000000 cyc:  494016635 now IPC :0.28207: AVG IPC :0.69366: L2-Pf-HR :0.83358: L2-HR :0.80678: (Sim:0h30m36s) 
CPU  0 inst:  345000000 cyc:  497559878 now IPC :0.28223: AVG IPC :0.69072: L2-Pf-HR :0.83364: L2-HR :0.80673: (Sim:0h30m42s) 
CPU  0 inst:  346000000 cyc:  501103785 now IPC :0.28217: AVG IPC :0.68783: L2-Pf-HR :0.83371: L2-HR :0.80669: (Sim:0h30m48s) 
CPU  0 inst:  347000000 cyc:  504646966 now IPC :0.28223: AVG IPC :0.68497: L2-Pf-HR :0.83377: L2-HR :0.80665: (Sim:0h30m55s) 
CPU  0 inst:  348000000 cyc:  508190675 now IPC :0.28219: AVG IPC :0.68216: L2-Pf-HR :0.83383: L2-HR :0.80659: (Sim:0h31m1s) 
CPU  0 inst:  349000003 cyc:  511735927 now IPC :0.28207: AVG IPC :0.67938: L2-Pf-HR :0.83388: L2-HR :0.80654: (Sim:0h31m7s) 
CPU  0 inst:  350000000 cyc:  515277933 now IPC :0.28233: AVG IPC :0.67665: L2-Pf-HR :0.83397: L2-HR :0.80652: (Sim:0h31m13s) 
CPU  0 inst:  351000000 cyc:  518821558 now IPC :0.28220: AVG IPC :0.67395: L2-Pf-HR :0.83402: L2-HR :0.80647: (Sim:0h31m20s) 
CPU  0 inst:  352000000 cyc:  522363881 now IPC :0.28230: AVG IPC :0.67129: L2-Pf-HR :0.83408: L2-HR :0.80642: (Sim:0h31m26s) 
CPU  0 inst:  353000000 cyc:  525906653 now IPC :0.28226: AVG IPC :0.66866: L2-Pf-HR :0.83414: L2-HR :0.80638: (Sim:0h31m36s) 
CPU  0 inst:  354000000 cyc:  529449130 now IPC :0.28229: AVG IPC :0.66607: L2-Pf-HR :0.83421: L2-HR :0.80634: (Sim:0h31m46s) 
CPU  0 inst:  355000000 cyc:  532992944 now IPC :0.28218: AVG IPC :0.66352: L2-Pf-HR :0.83426: L2-HR :0.80629: (Sim:0h31m56s) 
CPU  0 inst:  356000000 cyc:  536535201 now IPC :0.28231: AVG IPC :0.66099: L2-Pf-HR :0.83434: L2-HR :0.80626: (Sim:0h32m6s) 
CPU  0 inst:  357000001 cyc:  540080644 now IPC :0.28205: AVG IPC :0.65850: L2-Pf-HR :0.83440: L2-HR :0.80622: (Sim:0h32m15s) 
CPU  0 inst:  358000000 cyc:  543624103 now IPC :0.28221: AVG IPC :0.65605: L2-Pf-HR :0.83446: L2-HR :0.80618: (Sim:0h32m25s) 
CPU  0 inst:  359000000 cyc:  547167979 now IPC :0.28218: AVG IPC :0.65362: L2-Pf-HR :0.83451: L2-HR :0.80613: (Sim:0h32m35s) 
CPU  0 inst:  360000000 cyc:  550711842 now IPC :0.28218: AVG IPC :0.65122: L2-Pf-HR :0.83456: L2-HR :0.80608: (Sim:0h32m45s) 
CPU  0 inst:  361000003 cyc:  554257821 now IPC :0.28201: AVG IPC :0.64886: L2-Pf-HR :0.83460: L2-HR :0.80601: (Sim:0h32m54s) 
CPU  0 inst:  362000000 cyc:  557801596 now IPC :0.28218: AVG IPC :0.64652: L2-Pf-HR :0.83464: L2-HR :0.80596: (Sim:0h33m4s) 
CPU  0 inst:  363000000 cyc:  561345289 now IPC :0.28219: AVG IPC :0.64422: L2-Pf-HR :0.83469: L2-HR :0.80591: (Sim:0h33m14s) 
CPU  0 inst:  364000000 cyc:  564890433 now IPC :0.28208: AVG IPC :0.64194: L2-Pf-HR :0.83475: L2-HR :0.80587: (Sim:0h33m24s) 
CPU  0 inst:  365000003 cyc:  568433632 now IPC :0.28223: AVG IPC :0.63970: L2-Pf-HR :0.83483: L2-HR :0.80585: (Sim:0h33m34s) 
CPU  0 inst:  366000000 cyc:  571974458 now IPC :0.28242: AVG IPC :0.63748: L2-Pf-HR :0.83492: L2-HR :0.80584: (Sim:0h33m43s) 
CPU  0 inst:  367000000 cyc:  575518413 now IPC :0.28217: AVG IPC :0.63529: L2-Pf-HR :0.83497: L2-HR :0.80579: (Sim:0h33m53s) 
CPU  0 inst:  368000000 cyc:  579063096 now IPC :0.28211: AVG IPC :0.63313: L2-Pf-HR :0.83501: L2-HR :0.80573: (Sim:0h34m3s) 
CPU  0 inst:  369000002 cyc:  582608085 now IPC :0.28209: AVG IPC :0.63099: L2-Pf-HR :0.83506: L2-HR :0.80569: (Sim:0h34m13s) 
CPU  0 inst:  370000000 cyc:  586151168 now IPC :0.28224: AVG IPC :0.62887: L2-Pf-HR :0.83511: L2-HR :0.80564: (Sim:0h34m23s) 
CPU  0 inst:  371000002 cyc:  589697469 now IPC :0.28198: AVG IPC :0.62678: L2-Pf-HR :0.83514: L2-HR :0.80558: (Sim:0h34m32s) 
CPU  0 inst:  372000000 cyc:  593244017 now IPC :0.28196: AVG IPC :0.62472: L2-Pf-HR :0.83519: L2-HR :0.80553: (Sim:0h34m42s) 
CPU  0 inst:  373000002 cyc:  596788049 now IPC :0.28217: AVG IPC :0.62268: L2-Pf-HR :0.83524: L2-HR :0.80548: (Sim:0h34m52s) 
CPU  0 inst:  374000000 cyc:  600331587 now IPC :0.28220: AVG IPC :0.62067: L2-Pf-HR :0.83530: L2-HR :0.80544: (Sim:0h35m2s) 
CPU  0 inst:  375000000 cyc:  603875122 now IPC :0.28220: AVG IPC :0.61868: L2-Pf-HR :0.83535: L2-HR :0.80540: (Sim:0h35m12s) 
CPU  0 inst:  376000000 cyc:  607419427 now IPC :0.28214: AVG IPC :0.61671: L2-Pf-HR :0.83539: L2-HR :0.80534: (Sim:0h35m22s) 
CPU  0 inst:  377000000 cyc:  610960967 now IPC :0.28236: AVG IPC :0.61477: L2-Pf-HR :0.83545: L2-HR :0.80532: (Sim:0h35m32s) 
CPU  0 inst:  378000002 cyc:  614503534 now IPC :0.28228: AVG IPC :0.61285: L2-Pf-HR :0.83552: L2-HR :0.80529: (Sim:0h35m42s) 
CPU  0 inst:  379000003 cyc:  618048185 now IPC :0.28212: AVG IPC :0.61095: L2-Pf-HR :0.83558: L2-HR :0.80526: (Sim:0h35m52s) 
CPU  0 inst:  380000000 cyc:  621594863 now IPC :0.28195: AVG IPC :0.60907: L2-Pf-HR :0.83561: L2-HR :0.80520: (Sim:0h36m2s) 
CPU  0 inst:  381000000 cyc:  625139364 now IPC :0.28213: AVG IPC :0.60722: L2-Pf-HR :0.83565: L2-HR :0.80514: (Sim:0h36m12s) 
CPU  0 inst:  382000003 cyc:  628682841 now IPC :0.28221: AVG IPC :0.60538: L2-Pf-HR :0.83570: L2-HR :0.80510: (Sim:0h36m22s) 
CPU  0 inst:  383000000 cyc:  632228133 now IPC :0.28206: AVG IPC :0.60356: L2-Pf-HR :0.83574: L2-HR :0.80505: (Sim:0h36m32s) 
CPU  0 inst:  384000000 cyc:  635770645 now IPC :0.28229: AVG IPC :0.60177: L2-Pf-HR :0.83580: L2-HR :0.80501: (Sim:0h36m42s) 
CPU  0 inst:  385000000 cyc:  639313710 now IPC :0.28224: AVG IPC :0.60000: L2-Pf-HR :0.83585: L2-HR :0.80497: (Sim:0h36m52s) 
CPU  0 inst:  386000003 cyc:  642858196 now IPC :0.28213: AVG IPC :0.59824: L2-Pf-HR :0.83590: L2-HR :0.80493: (Sim:0h37m1s) 
CPU  0 inst:  387000001 cyc:  646406168 now IPC :0.28185: AVG IPC :0.59650: L2-Pf-HR :0.83593: L2-HR :0.80487: (Sim:0h37m11s) 
CPU  0 inst:  388000000 cyc:  649947716 now IPC :0.28236: AVG IPC :0.59479: L2-Pf-HR :0.83599: L2-HR :0.80485: (Sim:0h37m21s) 
CPU  0 inst:  389000000 cyc:  653491248 now IPC :0.28220: AVG IPC :0.59309: L2-Pf-HR :0.83603: L2-HR :0.80480: (Sim:0h37m31s) 
CPU  0 inst:  390000002 cyc:  657034450 now IPC :0.28223: AVG IPC :0.59141: L2-Pf-HR :0.83609: L2-HR :0.80477: (Sim:0h37m40s) 
CPU  0 inst:  391000000 cyc:  660574475 now IPC :0.28248: AVG IPC :0.58975: L2-Pf-HR :0.83616: L2-HR :0.80475: (Sim:0h37m50s) 
CPU  0 inst:  392000000 cyc:  664116688 now IPC :0.28231: AVG IPC :0.58811: L2-Pf-HR :0.83622: L2-HR :0.80472: (Sim:0h38m0s) 
CPU  0 inst:  393000001 cyc:  667657492 now IPC :0.28242: AVG IPC :0.58649: L2-Pf-HR :0.83629: L2-HR :0.80470: (Sim:0h38m9s) 
CPU  0 inst:  394000001 cyc:  671202318 now IPC :0.28210: AVG IPC :0.58488: L2-Pf-HR :0.83636: L2-HR :0.80468: (Sim:0h38m15s) 
CPU  0 inst:  395000002 cyc:  674805740 now IPC :0.27751: AVG IPC :0.58324: L2-Pf-HR :0.83636: L2-HR :0.80459: (Sim:0h38m21s) 
CPU  0 inst:  396000000 cyc:  675527023 now IPC :1.38642: AVG IPC :0.58409: L2-Pf-HR :0.83766: L2-HR :0.80608: (Sim:0h38m25s) 
CPU  0 inst:  397000002 cyc:  676220100 now IPC :1.44284: AVG IPC :0.58498: L2-Pf-HR :0.83894: L2-HR :0.80754: (Sim:0h38m30s) 
CPU  0 inst:  398000003 cyc:  676890157 now IPC :1.49241: AVG IPC :0.58588: L2-Pf-HR :0.84020: L2-HR :0.80898: (Sim:0h38m34s) 
CPU  0 inst:  399000002 cyc:  677576493 now IPC :1.45701: AVG IPC :0.58676: L2-Pf-HR :0.84142: L2-HR :0.81039: (Sim:0h38m40s) 
CPU  0 inst:  400000000 cyc:  678231819 now IPC :1.52595: AVG IPC :0.58767: L2-Pf-HR :0.84262: L2-HR :0.81177: (Sim:0h38m46s) 
CPU  0 inst:  401000000 cyc:  678857644 now IPC :1.59789: AVG IPC :0.58860: L2-Pf-HR :0.84382: L2-HR :0.81316: (Sim:0h38m52s) 
CPU  0 inst:  402000002 cyc:  679475415 now IPC :1.61873: AVG IPC :0.58954: L2-Pf-HR :0.84499: L2-HR :0.81452: (Sim:0h38m58s) 
CPU  0 inst:  403000001 cyc:  680094645 now IPC :1.61491: AVG IPC :0.59047: L2-Pf-HR :0.84613: L2-HR :0.81584: (Sim:0h39m5s) 
CPU  0 inst:  404000000 cyc:  680748408 now IPC :1.52960: AVG IPC :0.59138: L2-Pf-HR :0.84725: L2-HR :0.81714: (Sim:0h39m11s) 
CPU  0 inst:  405000002 cyc:  681371442 now IPC :1.60505: AVG IPC :0.59230: L2-Pf-HR :0.84839: L2-HR :0.81846: (Sim:0h39m17s) 
CPU  0 inst:  406000003 cyc:  681988606 now IPC :1.62032: AVG IPC :0.59324: L2-Pf-HR :0.84951: L2-HR :0.81976: (Sim:0h39m23s) 
CPU  0 inst:  407000001 cyc:  682603602 now IPC :1.62602: AVG IPC :0.59417: L2-Pf-HR :0.85061: L2-HR :0.82103: (Sim:0h39m30s) 
CPU  0 inst:  408000000 cyc:  683251317 now IPC :1.54389: AVG IPC :0.59507: L2-Pf-HR :0.85169: L2-HR :0.82228: (Sim:0h39m36s) 
CPU  0 inst:  409000000 cyc:  683880530 now IPC :1.58929: AVG IPC :0.59599: L2-Pf-HR :0.85280: L2-HR :0.82355: (Sim:0h39m42s) 
CPU  0 inst:  410000001 cyc:  684513808 now IPC :1.57909: AVG IPC :0.59690: L2-Pf-HR :0.85389: L2-HR :0.82479: (Sim:0h39m48s) 
CPU  0 inst:  411000000 cyc:  685143845 now IPC :1.58721: AVG IPC :0.59781: L2-Pf-HR :0.85496: L2-HR :0.82602: (Sim:0h39m55s) 
CPU  0 inst:  412000000 cyc:  685817536 now IPC :1.48436: AVG IPC :0.59868: L2-Pf-HR :0.85594: L2-HR :0.82716: (Sim:0h40m1s) 
CPU  0 inst:  413000002 cyc:  686486306 now IPC :1.49529: AVG IPC :0.59956: L2-Pf-HR :0.85690: L2-HR :0.82828: (Sim:0h40m7s) 
CPU  0 inst:  414000002 cyc:  687157797 now IPC :1.48922: AVG IPC :0.60043: L2-Pf-HR :0.85783: L2-HR :0.82938: (Sim:0h40m13s) 
CPU  0 inst:  415000000 cyc:  687829496 now IPC :1.48876: AVG IPC :0.60129: L2-Pf-HR :0.85875: L2-HR :0.83045: (Sim:0h40m20s) 
CPU  0 inst:  416000000 cyc:  688510314 now IPC :1.46882: AVG IPC :0.60215: L2-Pf-HR :0.85964: L2-HR :0.83151: (Sim:0h40m26s) 
CPU  0 inst:  417000003 cyc:  689133767 now IPC :1.60397: AVG IPC :0.60306: L2-Pf-HR :0.86056: L2-HR :0.83259: (Sim:0h40m32s) 
CPU  0 inst:  418000003 cyc:  689763807 now IPC :1.58720: AVG IPC :0.60396: L2-Pf-HR :0.86143: L2-HR :0.83362: (Sim:0h40m38s) 
CPU  0 inst:  419000002 cyc:  690385042 now IPC :1.60970: AVG IPC :0.60487: L2-Pf-HR :0.86228: L2-HR :0.83464: (Sim:0h40m44s) 
CPU  0 inst:  420000000 cyc:  691011856 now IPC :1.59537: AVG IPC :0.60577: L2-Pf-HR :0.86315: L2-HR :0.83566: (Sim:0h40m51s) 
CPU  0 inst:  421000000 cyc:  691646441 now IPC :1.57583: AVG IPC :0.60666: L2-Pf-HR :0.86399: L2-HR :0.83666: (Sim:0h40m57s) 
CPU  0 inst:  422000000 cyc:  692270872 now IPC :1.60146: AVG IPC :0.60756: L2-Pf-HR :0.86484: L2-HR :0.83766: (Sim:0h41m3s) 
CPU  0 inst:  423000000 cyc:  692890332 now IPC :1.61431: AVG IPC :0.60846: L2-Pf-HR :0.86567: L2-HR :0.83865: (Sim:0h41m8s) 
CPU  0 inst:  424000000 cyc:  693523361 now IPC :1.57971: AVG IPC :0.60935: L2-Pf-HR :0.86649: L2-HR :0.83962: (Sim:0h41m12s) 
CPU  0 inst:  425000000 cyc:  694162253 now IPC :1.56521: AVG IPC :0.61023: L2-Pf-HR :0.86735: L2-HR :0.84061: (Sim:0h41m16s) 
CPU  0 inst:  426000000 cyc:  694800292 now IPC :1.56730: AVG IPC :0.61111: L2-Pf-HR :0.86819: L2-HR :0.84159: (Sim:0h41m20s) 
CPU  0 inst:  427000001 cyc:  695429919 now IPC :1.58824: AVG IPC :0.61199: L2-Pf-HR :0.86902: L2-HR :0.84256: (Sim:0h41m24s) 
CPU  0 inst:  428000000 cyc:  696065118 now IPC :1.57431: AVG IPC :0.61287: L2-Pf-HR :0.86984: L2-HR :0.84351: (Sim:0h41m28s) 
CPU  0 inst:  429000003 cyc:  696750083 now IPC :1.45993: AVG IPC :0.61371: L2-Pf-HR :0.87057: L2-HR :0.84439: (Sim:0h41m33s) 
CPU  0 inst:  430000002 cyc:  697419561 now IPC :1.49370: AVG IPC :0.61455: L2-Pf-HR :0.87131: L2-HR :0.84526: (Sim:0h41m37s) 
CPU  0 inst:  431000003 cyc:  698088354 now IPC :1.49523: AVG IPC :0.61540: L2-Pf-HR :0.87205: L2-HR :0.84614: (Sim:0h41m41s) 
CPU  0 inst:  432000000 cyc:  698754074 now IPC :1.50213: AVG IPC :0.61624: L2-Pf-HR :0.87278: L2-HR :0.84700: (Sim:0h41m45s) 
CPU  0 inst:  433000001 cyc:  699419325 now IPC :1.50319: AVG IPC :0.61709: L2-Pf-HR :0.87346: L2-HR :0.84783: (Sim:0h41m49s) 
CPU  0 inst:  434000002 cyc:  700045231 now IPC :1.59769: AVG IPC :0.61797: L2-Pf-HR :0.87416: L2-HR :0.84867: (Sim:0h41m53s) 
CPU  0 inst:  435000000 cyc:  700667968 now IPC :1.60581: AVG IPC :0.61885: L2-Pf-HR :0.87485: L2-HR :0.84949: (Sim:0h41m57s) 
CPU  0 inst:  436000000 cyc:  701286199 now IPC :1.61752: AVG IPC :0.61973: L2-Pf-HR :0.87552: L2-HR :0.85030: (Sim:0h42m3s) 
CPU  0 inst:  437000002 cyc:  701924511 now IPC :1.56664: AVG IPC :0.62059: L2-Pf-HR :0.87618: L2-HR :0.85110: (Sim:0h42m9s) 
CPU  0 inst:  438000000 cyc:  702543829 now IPC :1.61468: AVG IPC :0.62147: L2-Pf-HR :0.87686: L2-HR :0.85191: (Sim:0h42m15s) 
CPU  0 inst:  439000003 cyc:  703163797 now IPC :1.61299: AVG IPC :0.62234: L2-Pf-HR :0.87754: L2-HR :0.85272: (Sim:0h42m21s) 
CPU  0 inst:  440000000 cyc:  703780613 now IPC :1.62122: AVG IPC :0.62322: L2-Pf-HR :0.87820: L2-HR :0.85351: (Sim:0h42m27s) 
CPU  0 inst:  441000003 cyc:  704419687 now IPC :1.56477: AVG IPC :0.62407: L2-Pf-HR :0.87884: L2-HR :0.85428: (Sim:0h42m34s) 
CPU  0 inst:  442000003 cyc:  705050344 now IPC :1.58565: AVG IPC :0.62494: L2-Pf-HR :0.87951: L2-HR :0.85508: (Sim:0h42m40s) 
CPU  0 inst:  443000003 cyc:  705681568 now IPC :1.58422: AVG IPC :0.62580: L2-Pf-HR :0.88018: L2-HR :0.85586: (Sim:0h42m46s) 
CPU  0 inst:  444000000 cyc:  706310494 now IPC :1.59001: AVG IPC :0.62666: L2-Pf-HR :0.88084: L2-HR :0.85664: (Sim:0h42m52s) 
CPU  0 inst:  445000001 cyc:  706953693 now IPC :1.55473: AVG IPC :0.62750: L2-Pf-HR :0.88147: L2-HR :0.85739: (Sim:0h42m58s) 
CPU  0 inst:  446000002 cyc:  707633748 now IPC :1.47047: AVG IPC :0.62831: L2-Pf-HR :0.88205: L2-HR :0.85808: (Sim:0h43m4s) 
CPU  0 inst:  447000003 cyc:  708305223 now IPC :1.48926: AVG IPC :0.62913: L2-Pf-HR :0.88262: L2-HR :0.85878: (Sim:0h43m9s) 
CPU  0 inst:  448000000 cyc:  708971937 now IPC :1.49989: AVG IPC :0.62995: L2-Pf-HR :0.88319: L2-HR :0.85947: (Sim:0h43m13s) 
CPU  0 inst:  449000001 cyc:  709642740 now IPC :1.49075: AVG IPC :0.63076: L2-Pf-HR :0.88375: L2-HR :0.86015: (Sim:0h43m17s) 
CPU  0 inst:  450000000 cyc:  710295245 now IPC :1.53255: AVG IPC :0.63159: L2-Pf-HR :0.88430: L2-HR :0.86081: (Sim:0h43m22s) 
CPU  0 inst:  451000002 cyc:  710916726 now IPC :1.60906: AVG IPC :0.63245: L2-Pf-HR :0.88485: L2-HR :0.86149: (Sim:0h43m28s) 
CPU  0 inst:  452000000 cyc:  711540253 now IPC :1.60378: AVG IPC :0.63330: L2-Pf-HR :0.88540: L2-HR :0.86215: (Sim:0h43m34s) 
CPU  0 inst:  453000003 cyc:  712161057 now IPC :1.61082: AVG IPC :0.63416: L2-Pf-HR :0.88594: L2-HR :0.86281: (Sim:0h43m38s) 
CPU  0 inst:  454000002 cyc:  712793644 now IPC :1.58081: AVG IPC :0.63500: L2-Pf-HR :0.88648: L2-HR :0.86347: (Sim:0h43m42s) 
CPU  0 inst:  455000000 cyc:  713418528 now IPC :1.60029: AVG IPC :0.63584: L2-Pf-HR :0.88702: L2-HR :0.86412: (Sim:0h43m46s) 
CPU  0 inst:  456000000 cyc:  714043026 now IPC :1.60129: AVG IPC :0.63669: L2-Pf-HR :0.88755: L2-HR :0.86477: (Sim:0h43m50s) 
CPU  0 inst:  457000003 cyc:  714660090 now IPC :1.62058: AVG IPC :0.63754: L2-Pf-HR :0.88809: L2-HR :0.86542: (Sim:0h43m54s) 
CPU  0 inst:  458000002 cyc:  715298205 now IPC :1.56711: AVG IPC :0.63837: L2-Pf-HR :0.88863: L2-HR :0.86606: (Sim:0h43m58s) 
CPU  0 inst:  459000003 cyc:  715932529 now IPC :1.57648: AVG IPC :0.63920: L2-Pf-HR :0.88917: L2-HR :0.86671: (Sim:0h44m3s) 
CPU  0 inst:  460000000 cyc:  716572038 now IPC :1.56369: AVG IPC :0.64003: L2-Pf-HR :0.88971: L2-HR :0.86735: (Sim:0h44m7s) 
CPU  0 inst:  461000002 cyc:  717202766 now IPC :1.58547: AVG IPC :0.64086: L2-Pf-HR :0.89025: L2-HR :0.86799: (Sim:0h44m11s) 
CPU  0 inst:  462000003 cyc:  717864866 now IPC :1.51035: AVG IPC :0.64166: L2-Pf-HR :0.89075: L2-HR :0.86860: (Sim:0h44m15s) 
CPU  0 inst:  463000002 cyc:  718537619 now IPC :1.48643: AVG IPC :0.64246: L2-Pf-HR :0.89121: L2-HR :0.86916: (Sim:0h44m19s) 
CPU  0 inst:  464000000 cyc:  719205445 now IPC :1.49739: AVG IPC :0.64325: L2-Pf-HR :0.89168: L2-HR :0.86974: (Sim:0h44m23s) 
CPU  0 inst:  465000003 cyc:  719871812 now IPC :1.50068: AVG IPC :0.64405: L2-Pf-HR :0.89216: L2-HR :0.87031: (Sim:0h44m27s) 
CPU  0 inst:  466000001 cyc:  720557936 now IPC :1.45746: AVG IPC :0.64482: L2-Pf-HR :0.89260: L2-HR :0.87086: (Sim:0h44m33s) 
CPU  0 inst:  467000000 cyc:  721180710 now IPC :1.60572: AVG IPC :0.64565: L2-Pf-HR :0.89307: L2-HR :0.87143: (Sim:0h44m38s) 
CPU  0 inst:  468000000 cyc:  721806002 now IPC :1.59925: AVG IPC :0.64648: L2-Pf-HR :0.89352: L2-HR :0.87199: (Sim:0h44m45s) 
CPU  0 inst:  469000000 cyc:  722425694 now IPC :1.61370: AVG IPC :0.64731: L2-Pf-HR :0.89397: L2-HR :0.87254: (Sim:0h44m49s) 
CPU  0 inst:  470000002 cyc:  723054065 now IPC :1.59142: AVG IPC :0.64813: L2-Pf-HR :0.89440: L2-HR :0.87307: (Sim:0h44m54s) 
CPU  0 inst:  471000000 cyc:  723682135 now IPC :1.59218: AVG IPC :0.64895: L2-Pf-HR :0.89484: L2-HR :0.87361: (Sim:0h45m0s) 
CPU  0 inst:  472000000 cyc:  724304658 now IPC :1.60637: AVG IPC :0.64978: L2-Pf-HR :0.89529: L2-HR :0.87416: (Sim:0h45m7s) 
CPU  0 inst:  473000003 cyc:  724920504 now IPC :1.62379: AVG IPC :0.65060: L2-Pf-HR :0.89574: L2-HR :0.87471: (Sim:0h45m13s) 
CPU  0 inst:  474000001 cyc:  725537287 now IPC :1.62131: AVG IPC :0.65143: L2-Pf-HR :0.89619: L2-HR :0.87525: (Sim:0h45m18s) 
CPU  0 inst:  475000001 cyc:  726186984 now IPC :1.53918: AVG IPC :0.65223: L2-Pf-HR :0.89663: L2-HR :0.87579: (Sim:0h45m22s) 
CPU  0 inst:  476000000 cyc:  726820404 now IPC :1.57873: AVG IPC :0.65303: L2-Pf-HR :0.89708: L2-HR :0.87633: (Sim:0h45m26s) 
CPU  0 inst:  477000000 cyc:  727455376 now IPC :1.57487: AVG IPC :0.65384: L2-Pf-HR :0.89753: L2-HR :0.87687: (Sim:0h45m31s) 
CPU  0 inst:  478000000 cyc:  728085143 now IPC :1.58789: AVG IPC :0.65465: L2-Pf-HR :0.89797: L2-HR :0.87740: (Sim:0h45m35s) 
CPU  0 inst:  479000001 cyc:  728764682 now IPC :1.47159: AVG IPC :0.65541: L2-Pf-HR :0.89837: L2-HR :0.87788: (Sim:0h45m39s) 
CPU  0 inst:  480000000 cyc:  729432408 now IPC :1.49762: AVG IPC :0.65618: L2-Pf-HR :0.89876: L2-HR :0.87837: (Sim:0h45m43s) 
CPU  0 inst:  481000002 cyc:  730098123 now IPC :1.50215: AVG IPC :0.65696: L2-Pf-HR :0.89915: L2-HR :0.87885: (Sim:0h45m48s) 
CPU  0 inst:  482000000 cyc:  730766606 now IPC :1.49592: AVG IPC :0.65773: L2-Pf-HR :0.89954: L2-HR :0.87932: (Sim:0h45m52s) 
CPU  0 inst:  483000000 cyc:  731442855 now IPC :1.47875: AVG IPC :0.65849: L2-Pf-HR :0.89991: L2-HR :0.87978: (Sim:0h45m56s) 
CPU  0 inst:  484000000 cyc:  732065927 now IPC :1.60495: AVG IPC :0.65929: L2-Pf-HR :0.90029: L2-HR :0.88025: (Sim:0h46m0s) 
CPU  0 inst:  485000002 cyc:  732691973 now IPC :1.59733: AVG IPC :0.66009: L2-Pf-HR :0.90066: L2-HR :0.88071: (Sim:0h46m5s) 
CPU  0 inst:  486000002 cyc:  733309566 now IPC :1.61919: AVG IPC :0.66090: L2-Pf-HR :0.90102: L2-HR :0.88117: (Sim:0h46m9s) 
CPU  0 inst:  487000000 cyc:  733946014 now IPC :1.57122: AVG IPC :0.66169: L2-Pf-HR :0.90138: L2-HR :0.88162: (Sim:0h46m13s) 
CPU  0 inst:  488000000 cyc:  734567102 now IPC :1.61008: AVG IPC :0.66250: L2-Pf-HR :0.90177: L2-HR :0.88209: (Sim:0h46m17s) 
CPU  0 inst:  489000001 cyc:  735190549 now IPC :1.60399: AVG IPC :0.66330: L2-Pf-HR :0.90214: L2-HR :0.88255: (Sim:0h46m21s) 
CPU  0 inst:  490000001 cyc:  735809281 now IPC :1.61621: AVG IPC :0.66410: L2-Pf-HR :0.90250: L2-HR :0.88300: (Sim:0h46m25s) 
CPU  0 inst:  491000002 cyc:  736434273 now IPC :1.60002: AVG IPC :0.66489: L2-Pf-HR :0.90288: L2-HR :0.88346: (Sim:0h46m29s) 
CPU  0 inst:  492000000 cyc:  737079302 now IPC :1.55031: AVG IPC :0.66567: L2-Pf-HR :0.90325: L2-HR :0.88391: (Sim:0h46m33s) 
CPU  0 inst:  493000000 cyc:  737716974 now IPC :1.56820: AVG IPC :0.66645: L2-Pf-HR :0.90362: L2-HR :0.88436: (Sim:0h46m37s) 
CPU  0 inst:  494000002 cyc:  738350630 now IPC :1.57815: AVG IPC :0.66723: L2-Pf-HR :0.90400: L2-HR :0.88482: (Sim:0h46m41s) 
CPU  0 inst:  495000001 cyc:  738989311 now IPC :1.56573: AVG IPC :0.66801: L2-Pf-HR :0.90436: L2-HR :0.88526: (Sim:0h46m47s) 
CPU  0 inst:  496000000 cyc:  739663103 now IPC :1.48414: AVG IPC :0.66876: L2-Pf-HR :0.90470: L2-HR :0.88567: (Sim:0h46m53s) 
CPU  0 inst:  497000001 cyc:  740338163 now IPC :1.48135: AVG IPC :0.66950: L2-Pf-HR :0.90502: L2-HR :0.88607: (Sim:0h46m59s) 
CPU  0 inst:  498000000 cyc:  741006555 now IPC :1.49613: AVG IPC :0.67024: L2-Pf-HR :0.90535: L2-HR :0.88648: (Sim:0h47m5s) 
CPU  0 inst:  499000000 cyc:  741673325 now IPC :1.49977: AVG IPC :0.67099: L2-Pf-HR :0.90568: L2-HR :0.88689: (Sim:0h47m12s) 
CPU  0 inst:  500000000 cyc:  742339168 now IPC :1.50186: AVG IPC :0.67174: L2-Pf-HR :0.90599: L2-HR :0.88728: (Sim:0h47m18s) 
CPU  0 inst:  501000000 cyc:  742966955 now IPC :1.59290: AVG IPC :0.67252: L2-Pf-HR :0.90631: L2-HR :0.88768: (Sim:0h47m24s) 
CPU  0 inst:  502000000 cyc:  743587941 now IPC :1.61034: AVG IPC :0.67330: L2-Pf-HR :0.90663: L2-HR :0.88808: (Sim:0h47m30s) 
CPU  0 inst:  503000000 cyc:  744204506 now IPC :1.62189: AVG IPC :0.67409: L2-Pf-HR :0.90695: L2-HR :0.88848: (Sim:0h47m37s) 
CPU  0 inst:  504000000 cyc:  744845913 now IPC :1.55907: AVG IPC :0.67485: L2-Pf-HR :0.90725: L2-HR :0.88886: (Sim:0h47m43s) 
CPU  0 inst:  505000000 cyc:  745467129 now IPC :1.60975: AVG IPC :0.67563: L2-Pf-HR :0.90757: L2-HR :0.88926: (Sim:0h47m48s) 
CPU  0 inst:  506000000 cyc:  746086213 now IPC :1.61529: AVG IPC :0.67641: L2-Pf-HR :0.90789: L2-HR :0.88965: (Sim:0h47m53s) 
CPU  0 inst:  507000003 cyc:  746701692 now IPC :1.62476: AVG IPC :0.67720: L2-Pf-HR :0.90821: L2-HR :0.89004: (Sim:0h47m58s) 
CPU  0 inst:  508000000 cyc:  747348142 now IPC :1.54691: AVG IPC :0.67795: L2-Pf-HR :0.90851: L2-HR :0.89042: (Sim:0h48m5s) 
CPU  0 inst:  509000001 cyc:  747978322 now IPC :1.58685: AVG IPC :0.67872: L2-Pf-HR :0.90885: L2-HR :0.89082: (Sim:0h48m11s) 
CPU  0 inst:  510000002 cyc:  748610764 now IPC :1.58117: AVG IPC :0.67948: L2-Pf-HR :0.90917: L2-HR :0.89122: (Sim:0h48m16s) 
CPU  0 inst:  511000000 cyc:  749242410 now IPC :1.58316: AVG IPC :0.68024: L2-Pf-HR :0.90950: L2-HR :0.89161: (Sim:0h48m20s) 
CPU  0 inst:  512000000 cyc:  749904636 now IPC :1.51006: AVG IPC :0.68098: L2-Pf-HR :0.90979: L2-HR :0.89198: (Sim:0h48m24s) 
CPU  0 inst:  513000002 cyc:  750578231 now IPC :1.48457: AVG IPC :0.68170: L2-Pf-HR :0.91008: L2-HR :0.89233: (Sim:0h48m28s) 
CPU  0 inst:  514000001 cyc:  751245973 now IPC :1.49758: AVG IPC :0.68242: L2-Pf-HR :0.91036: L2-HR :0.89268: (Sim:0h48m33s) 
CPU  0 inst:  515000002 cyc:  751913974 now IPC :1.49701: AVG IPC :0.68315: L2-Pf-HR :0.91064: L2-HR :0.89303: (Sim:0h48m37s) 
CPU  0 inst:  516000000 cyc:  752594841 now IPC :1.46871: AVG IPC :0.68386: L2-Pf-HR :0.91091: L2-HR :0.89337: (Sim:0h48m41s) 
CPU  0 inst:  517000002 cyc:  753233913 now IPC :1.56477: AVG IPC :0.68461: L2-Pf-HR :0.91118: L2-HR :0.89371: (Sim:0h48m45s) 
CPU  0 inst:  518000002 cyc:  753856410 now IPC :1.60643: AVG IPC :0.68537: L2-Pf-HR :0.91146: L2-HR :0.89406: (Sim:0h48m49s) 
CPU  0 inst:  519000000 cyc:  754480051 now IPC :1.60348: AVG IPC :0.68613: L2-Pf-HR :0.91173: L2-HR :0.89440: (Sim:0h48m55s) 
CPU  0 inst:  520000000 cyc:  755100765 now IPC :1.61105: AVG IPC :0.68689: L2-Pf-HR :0.91199: L2-HR :0.89473: (Sim:0h49m1s) 
CPU  0 inst:  521000001 cyc:  755740636 now IPC :1.56282: AVG IPC :0.68763: L2-Pf-HR :0.91226: L2-HR :0.89507: (Sim:0h49m8s) 
CPU  0 inst:  522000003 cyc:  756364026 now IPC :1.60414: AVG IPC :0.68839: L2-Pf-HR :0.91253: L2-HR :0.89541: (Sim:0h49m14s) 
CPU  0 inst:  523000002 cyc:  756985982 now IPC :1.60783: AVG IPC :0.68915: L2-Pf-HR :0.91280: L2-HR :0.89575: (Sim:0h49m21s) 
CPU  0 inst:  524000000 cyc:  757606177 now IPC :1.61239: AVG IPC :0.68990: L2-Pf-HR :0.91307: L2-HR :0.89608: (Sim:0h49m27s) 
CPU  0 inst:  525000002 cyc:  758246926 now IPC :1.56068: AVG IPC :0.69064: L2-Pf-HR :0.91335: L2-HR :0.89643: (Sim:0h49m33s) 
CPU  0 inst:  526000003 cyc:  758879860 now IPC :1.57995: AVG IPC :0.69138: L2-Pf-HR :0.91364: L2-HR :0.89677: (Sim:0h49m39s) 
CPU  0 inst:  527000001 cyc:  759519594 now IPC :1.56315: AVG IPC :0.69212: L2-Pf-HR :0.91391: L2-HR :0.89711: (Sim:0h49m43s) 
CPU  0 inst:  528000000 cyc:  760154915 now IPC :1.57401: AVG IPC :0.69286: L2-Pf-HR :0.91419: L2-HR :0.89745: (Sim:0h49m47s) 
CPU  0 inst:  529000003 cyc:  760820356 now IPC :1.50277: AVG IPC :0.69357: L2-Pf-HR :0.91445: L2-HR :0.89777: (Sim:0h49m53s) 
CPU  0 inst:  530000002 cyc:  761491712 now IPC :1.48952: AVG IPC :0.69427: L2-Pf-HR :0.91469: L2-HR :0.89807: (Sim:0h49m57s) 
CPU  0 inst:  531000002 cyc:  762164037 now IPC :1.48738: AVG IPC :0.69497: L2-Pf-HR :0.91493: L2-HR :0.89837: (Sim:0h50m1s) 
CPU  0 inst:  532000000 cyc:  762830741 now IPC :1.49991: AVG IPC :0.69567: L2-Pf-HR :0.91517: L2-HR :0.89867: (Sim:0h50m5s) 
CPU  0 inst:  533000001 cyc:  763510256 now IPC :1.47164: AVG IPC :0.69636: L2-Pf-HR :0.91540: L2-HR :0.89896: (Sim:0h50m9s) 
CPU  0 inst:  534000002 cyc:  764133395 now IPC :1.60478: AVG IPC :0.69711: L2-Pf-HR :0.91564: L2-HR :0.89926: (Sim:0h50m15s) 
CPU  0 inst:  535000003 cyc:  764757286 now IPC :1.60285: AVG IPC :0.69785: L2-Pf-HR :0.91588: L2-HR :0.89957: (Sim:0h50m19s) 
CPU  0 inst:  536000000 cyc:  765375330 now IPC :1.61800: AVG IPC :0.69859: L2-Pf-HR :0.91611: L2-HR :0.89986: (Sim:0h50m23s) 
CPU  0 inst:  537000002 cyc:  766015242 now IPC :1.56272: AVG IPC :0.69931: L2-Pf-HR :0.91633: L2-HR :0.90015: (Sim:0h50m27s) 
CPU  0 inst:  538000000 cyc:  766634075 now IPC :1.61594: AVG IPC :0.70005: L2-Pf-HR :0.91657: L2-HR :0.90045: (Sim:0h50m31s) 
CPU  0 inst:  539000000 cyc:  767256012 now IPC :1.60788: AVG IPC :0.70079: L2-Pf-HR :0.91682: L2-HR :0.90075: (Sim:0h50m36s) 
CPU  0 inst:  540000000 cyc:  767869468 now IPC :1.63011: AVG IPC :0.70153: L2-Pf-HR :0.91705: L2-HR :0.90105: (Sim:0h50m40s) 
CPU  0 inst:  541000003 cyc:  768495606 now IPC :1.59710: AVG IPC :0.70226: L2-Pf-HR :0.91728: L2-HR :0.90134: (Sim:0h50m44s) 
CPU  0 inst:  542000001 cyc:  769136048 now IPC :1.56142: AVG IPC :0.70298: L2-Pf-HR :0.91753: L2-HR :0.90164: (Sim:0h50m48s) 
CPU  0 inst:  543000001 cyc:  769769469 now IPC :1.57873: AVG IPC :0.70370: L2-Pf-HR :0.91778: L2-HR :0.90195: (Sim:0h50m52s) 
CPU  0 inst:  544000000 cyc:  770400480 now IPC :1.58476: AVG IPC :0.70442: L2-Pf-HR :0.91803: L2-HR :0.90225: (Sim:0h50m56s) 
CPU  0 inst:  545000001 cyc:  771029637 now IPC :1.58943: AVG IPC :0.70515: L2-Pf-HR :0.91827: L2-HR :0.90255: (Sim:0h51m1s) 
CPU  0 inst:  546000001 cyc:  771711463 now IPC :1.46665: AVG IPC :0.70582: L2-Pf-HR :0.91848: L2-HR :0.90281: (Sim:0h51m5s) 
CPU  0 inst:  547000003 cyc:  772380963 now IPC :1.49365: AVG IPC :0.70651: L2-Pf-HR :0.91869: L2-HR :0.90307: (Sim:0h51m11s) 
CPU  0 inst:  548000000 cyc:  773048144 now IPC :1.49884: AVG IPC :0.70719: L2-Pf-HR :0.91890: L2-HR :0.90334: (Sim:0h51m16s) 
CPU  0 inst:  549000003 cyc:  773712925 now IPC :1.50426: AVG IPC :0.70788: L2-Pf-HR :0.91911: L2-HR :0.90360: (Sim:0h51m21s) 
CPU  0 inst:  550000000 cyc:  774382387 now IPC :1.49373: AVG IPC :0.70856: L2-Pf-HR :0.91930: L2-HR :0.90385: (Sim:0h51m25s) 
CPU  0 inst:  551000000 cyc:  775006851 now IPC :1.60137: AVG IPC :0.70928: L2-Pf-HR :0.91951: L2-HR :0.90411: (Sim:0h51m30s) 
CPU  0 inst:  552000000 cyc:  775630922 now IPC :1.60238: AVG IPC :0.71000: L2-Pf-HR :0.91971: L2-HR :0.90438: (Sim:0h51m37s) 
CPU  0 inst:  553000000 cyc:  776247189 now IPC :1.62267: AVG IPC :0.71072: L2-Pf-HR :0.91992: L2-HR :0.90464: (Sim:0h51m43s) 
CPU  0 inst:  554000003 cyc:  776887989 now IPC :1.56055: AVG IPC :0.71142: L2-Pf-HR :0.92011: L2-HR :0.90488: (Sim:0h51m49s) 
CPU  0 inst:  555000000 cyc:  777505324 now IPC :1.61986: AVG IPC :0.71215: L2-Pf-HR :0.92032: L2-HR :0.90515: (Sim:0h51m56s) 
CPU  0 inst:  556000000 cyc:  778125662 now IPC :1.61202: AVG IPC :0.71286: L2-Pf-HR :0.92053: L2-HR :0.90542: (Sim:0h52m2s) 
CPU  0 inst:  557000002 cyc:  778745507 now IPC :1.61331: AVG IPC :0.71358: L2-Pf-HR :0.92073: L2-HR :0.90567: (Sim:0h52m8s) 
CPU  0 inst:  558000001 cyc:  779383599 now IPC :1.56717: AVG IPC :0.71428: L2-Pf-HR :0.92093: L2-HR :0.90592: (Sim:0h52m15s) 
CPU  0 inst:  559000002 cyc:  780015701 now IPC :1.58202: AVG IPC :0.71499: L2-Pf-HR :0.92115: L2-HR :0.90619: (Sim:0h52m21s) 
CPU  0 inst:  560000000 cyc:  780652054 now IPC :1.57145: AVG IPC :0.71568: L2-Pf-HR :0.92137: L2-HR :0.90646: (Sim:0h52m27s) 
CPU  0 inst:  561000003 cyc:  781287202 now IPC :1.57444: AVG IPC :0.71638: L2-Pf-HR :0.92158: L2-HR :0.90672: (Sim:0h52m33s) 
CPU  0 inst:  562000002 cyc:  781920328 now IPC :1.57946: AVG IPC :0.71708: L2-Pf-HR :0.92180: L2-HR :0.90698: (Sim:0h52m40s) 
CPU  0 inst:  563000000 cyc:  782606770 now IPC :1.45678: AVG IPC :0.71773: L2-Pf-HR :0.92198: L2-HR :0.90721: (Sim:0h52m44s) 
CPU  0 inst:  564000000 cyc:  783285494 now IPC :1.47335: AVG IPC :0.71839: L2-Pf-HR :0.92216: L2-HR :0.90744: (Sim:0h52m51s) 
CPU  0 inst:  565000003 cyc:  783955950 now IPC :1.49153: AVG IPC :0.71905: L2-Pf-HR :0.92235: L2-HR :0.90768: (Sim:0h52m57s) 
CPU  0 inst:  566000002 cyc:  784630252 now IPC :1.48301: AVG IPC :0.71971: L2-Pf-HR :0.92253: L2-HR :0.90791: (Sim:0h53m3s) 
CPU  0 inst:  567000001 cyc:  785271256 now IPC :1.56005: AVG IPC :0.72039: L2-Pf-HR :0.92271: L2-HR :0.90814: (Sim:0h53m9s) 
CPU  0 inst:  568000000 cyc:  785901192 now IPC :1.58746: AVG IPC :0.72109: L2-Pf-HR :0.92289: L2-HR :0.90837: (Sim:0h53m15s) 
CPU  0 inst:  569000001 cyc:  786519927 now IPC :1.61620: AVG IPC :0.72180: L2-Pf-HR :0.92307: L2-HR :0.90860: (Sim:0h53m19s) 
CPU  0 inst:  570000001 cyc:  787134581 now IPC :1.62693: AVG IPC :0.72250: L2-Pf-HR :0.92325: L2-HR :0.90883: (Sim:0h53m23s) 
CPU  0 inst:  571000002 cyc:  787774135 now IPC :1.56359: AVG IPC :0.72319: L2-Pf-HR :0.92342: L2-HR :0.90906: (Sim:0h53m28s) 
CPU  0 inst:  572000000 cyc:  788396908 now IPC :1.60572: AVG IPC :0.72388: L2-Pf-HR :0.92361: L2-HR :0.90929: (Sim:0h53m32s) 
CPU  0 inst:  573000001 cyc:  789015216 now IPC :1.61732: AVG IPC :0.72459: L2-Pf-HR :0.92379: L2-HR :0.90953: (Sim:0h53m36s) 
CPU  0 inst:  574000003 cyc:  789630347 now IPC :1.62567: AVG IPC :0.72529: L2-Pf-HR :0.92398: L2-HR :0.90976: (Sim:0h53m41s) 
CPU  0 inst:  575000002 cyc:  790276841 now IPC :1.54680: AVG IPC :0.72596: L2-Pf-HR :0.92416: L2-HR :0.90998: (Sim:0h53m45s) 
CPU  0 inst:  576000000 cyc:  790908015 now IPC :1.58435: AVG IPC :0.72665: L2-Pf-HR :0.92435: L2-HR :0.91022: (Sim:0h53m49s) 
CPU  0 inst:  577000000 cyc:  791542347 now IPC :1.57646: AVG IPC :0.72733: L2-Pf-HR :0.92455: L2-HR :0.91046: (Sim:0h53m55s) 
CPU  0 inst:  578000003 cyc:  792171583 now IPC :1.58923: AVG IPC :0.72801: L2-Pf-HR :0.92474: L2-HR :0.91070: (Sim:0h54m0s) 
CPU  0 inst:  579000000 cyc:  792836903 now IPC :1.50303: AVG IPC :0.72867: L2-Pf-HR :0.92491: L2-HR :0.91091: (Sim:0h54m4s) 
CPU  0 inst:  580000000 cyc:  793507642 now IPC :1.49089: AVG IPC :0.72931: L2-Pf-HR :0.92507: L2-HR :0.91112: (Sim:0h54m8s) 
CPU  0 inst:  581000000 cyc:  794177458 now IPC :1.49295: AVG IPC :0.72996: L2-Pf-HR :0.92524: L2-HR :0.91133: (Sim:0h54m12s) 
CPU  0 inst:  582000003 cyc:  794844437 now IPC :1.49930: AVG IPC :0.73060: L2-Pf-HR :0.92540: L2-HR :0.91154: (Sim:0h54m19s) 
CPU  0 inst:  583000000 cyc:  795531237 now IPC :1.45602: AVG IPC :0.73123: L2-Pf-HR :0.92555: L2-HR :0.91173: (Sim:0h54m25s) 
CPU  0 inst:  584000000 cyc:  796156931 now IPC :1.59823: AVG IPC :0.73191: L2-Pf-HR :0.92572: L2-HR :0.91194: (Sim:0h54m32s) 
CPU  0 inst:  585000001 cyc:  796781795 now IPC :1.60035: AVG IPC :0.73259: L2-Pf-HR :0.92588: L2-HR :0.91215: (Sim:0h54m38s) 
CPU  0 inst:  586000001 cyc:  797401478 now IPC :1.61373: AVG IPC :0.73328: L2-Pf-HR :0.92604: L2-HR :0.91236: (Sim:0h54m44s) 
CPU  0 inst:  587000001 cyc:  798028664 now IPC :1.59442: AVG IPC :0.73396: L2-Pf-HR :0.92620: L2-HR :0.91256: (Sim:0h54m48s) 
CPU  0 inst:  588000000 cyc:  798657165 now IPC :1.59109: AVG IPC :0.73463: L2-Pf-HR :0.92636: L2-HR :0.91277: (Sim:0h54m52s) 
CPU  0 inst:  589000001 cyc:  799278077 now IPC :1.61054: AVG IPC :0.73531: L2-Pf-HR :0.92653: L2-HR :0.91298: (Sim:0h54m57s) 
CPU  0 inst:  590000002 cyc:  799896765 now IPC :1.61633: AVG IPC :0.73600: L2-Pf-HR :0.92670: L2-HR :0.91320: (Sim:0h55m1s) 
CPU  0 inst:  591000003 cyc:  800513487 now IPC :1.62148: AVG IPC :0.73668: L2-Pf-HR :0.92686: L2-HR :0.91340: (Sim:0h55m6s) 
CPU  0 inst:  592000000 cyc:  801160929 now IPC :1.54454: AVG IPC :0.73733: L2-Pf-HR :0.92703: L2-HR :0.91362: (Sim:0h55m12s) 
CPU  0 inst:  593000000 cyc:  801793071 now IPC :1.58192: AVG IPC :0.73800: L2-Pf-HR :0.92721: L2-HR :0.91383: (Sim:0h55m19s) 
CPU  0 inst:  594000000 cyc:  802430837 now IPC :1.56797: AVG IPC :0.73866: L2-Pf-HR :0.92738: L2-HR :0.91405: (Sim:0h55m25s) 
CPU  0 inst:  595000003 cyc:  803064359 now IPC :1.57848: AVG IPC :0.73932: L2-Pf-HR :0.92755: L2-HR :0.91425: (Sim:0h55m30s) 
CPU  0 inst:  596000000 cyc:  803736664 now IPC :1.48742: AVG IPC :0.73995: L2-Pf-HR :0.92771: L2-HR :0.91445: (Sim:0h55m35s) 
CPU  0 inst:  597000001 cyc:  804410724 now IPC :1.48355: AVG IPC :0.74057: L2-Pf-HR :0.92786: L2-HR :0.91464: (Sim:0h55m41s) 
CPU  0 inst:  598000003 cyc:  805086663 now IPC :1.47943: AVG IPC :0.74119: L2-Pf-HR :0.92800: L2-HR :0.91482: (Sim:0h55m47s) 
CPU  0 inst:  599000001 cyc:  805753563 now IPC :1.49947: AVG IPC :0.74182: L2-Pf-HR :0.92815: L2-HR :0.91501: (Sim:0h55m53s) 
CPU  0 inst:  600000000 cyc:  806416089 now IPC :1.50937: AVG IPC :0.74245: L2-Pf-HR :0.92829: L2-HR :0.91519: (Sim:0h56m0s) 
CPU  0 inst:  601000002 cyc:  807046182 now IPC :1.58707: AVG IPC :0.74311: L2-Pf-HR :0.92843: L2-HR :0.91538: (Sim:0h56m6s) 
CPU  0 inst:  602000000 cyc:  807671274 now IPC :1.59976: AVG IPC :0.74378: L2-Pf-HR :0.92858: L2-HR :0.91556: (Sim:0h56m12s) 
CPU  0 inst:  603000002 cyc:  808288562 now IPC :1.61999: AVG IPC :0.74445: L2-Pf-HR :0.92872: L2-HR :0.91574: (Sim:0h56m18s) 
CPU  0 inst:  604000000 cyc:  808926173 now IPC :1.56835: AVG IPC :0.74510: L2-Pf-HR :0.92885: L2-HR :0.91592: (Sim:0h56m22s) 
CPU  0 inst:  605000003 cyc:  809548696 now IPC :1.60637: AVG IPC :0.74576: L2-Pf-HR :0.92900: L2-HR :0.91611: (Sim:0h56m26s) 
CPU  0 inst:  606000000 cyc:  810168172 now IPC :1.61426: AVG IPC :0.74643: L2-Pf-HR :0.92915: L2-HR :0.91630: (Sim:0h56m31s) 
CPU  0 inst:  607000001 cyc:  810783206 now IPC :1.62593: AVG IPC :0.74709: L2-Pf-HR :0.92930: L2-HR :0.91649: (Sim:0h56m35s) 
CPU  0 inst:  608000000 cyc:  811422132 now IPC :1.56512: AVG IPC :0.74774: L2-Pf-HR :0.92944: L2-HR :0.91667: (Sim:0h56m39s) 
CPU  0 inst:  609000002 cyc:  812050151 now IPC :1.59231: AVG IPC :0.74839: L2-Pf-HR :0.92960: L2-HR :0.91686: (Sim:0h56m43s) 
CPU  0 inst:  610000000 cyc:  812685902 now IPC :1.57294: AVG IPC :0.74904: L2-Pf-HR :0.92975: L2-HR :0.91705: (Sim:0h56m48s) 
CPU  0 inst:  611000001 cyc:  813315701 now IPC :1.58781: AVG IPC :0.74969: L2-Pf-HR :0.92991: L2-HR :0.91725: (Sim:0h56m54s) 
CPU  0 inst:  612000000 cyc:  813955891 now IPC :1.56203: AVG IPC :0.75033: L2-Pf-HR :0.93006: L2-HR :0.91743: (Sim:0h57m0s) 
CPU  0 inst:  613000001 cyc:  814635585 now IPC :1.47125: AVG IPC :0.75093: L2-Pf-HR :0.93019: L2-HR :0.91760: (Sim:0h57m6s) 
CPU  0 inst:  614000002 cyc:  815303423 now IPC :1.49737: AVG IPC :0.75154: L2-Pf-HR :0.93032: L2-HR :0.91776: (Sim:0h57m13s) 
CPU  0 inst:  615000001 cyc:  815972425 now IPC :1.49476: AVG IPC :0.75215: L2-Pf-HR :0.93045: L2-HR :0.91793: (Sim:0h57m19s) 
CPU  0 inst:  616000000 cyc:  816638546 now IPC :1.50123: AVG IPC :0.75276: L2-Pf-HR :0.93058: L2-HR :0.91810: (Sim:0h57m25s) 
CPU  0 inst:  617000002 cyc:  817300828 now IPC :1.50993: AVG IPC :0.75338: L2-Pf-HR :0.93070: L2-HR :0.91826: (Sim:0h57m31s) 
CPU  0 inst:  618000001 cyc:  817925000 now IPC :1.60212: AVG IPC :0.75403: L2-Pf-HR :0.93083: L2-HR :0.91843: (Sim:0h57m38s) 
CPU  0 inst:  619000001 cyc:  818548519 now IPC :1.60380: AVG IPC :0.75468: L2-Pf-HR :0.93096: L2-HR :0.91860: (Sim:0h57m44s) 
CPU  0 inst:  620000000 cyc:  819165774 now IPC :1.62007: AVG IPC :0.75533: L2-Pf-HR :0.93109: L2-HR :0.91877: (Sim:0h57m50s) 
CPU  0 inst:  621000001 cyc:  819809569 now IPC :1.55329: AVG IPC :0.75596: L2-Pf-HR :0.93121: L2-HR :0.91892: (Sim:0h57m56s) 
CPU  0 inst:  622000000 cyc:  820430355 now IPC :1.61086: AVG IPC :0.75660: L2-Pf-HR :0.93135: L2-HR :0.91910: (Sim:0h58m3s) 
CPU  0 inst:  623000000 cyc:  821047858 now IPC :1.61943: AVG IPC :0.75725: L2-Pf-HR :0.93149: L2-HR :0.91927: (Sim:0h58m9s) 
CPU  0 inst:  624000000 cyc:  821663980 now IPC :1.62306: AVG IPC :0.75790: L2-Pf-HR :0.93162: L2-HR :0.91944: (Sim:0h58m15s) 
CPU  0 inst:  625000003 cyc:  822313291 now IPC :1.54010: AVG IPC :0.75852: L2-Pf-HR :0.93175: L2-HR :0.91961: (Sim:0h58m21s) 
CPU  0 inst:  626000003 cyc:  822945321 now IPC :1.58220: AVG IPC :0.75915: L2-Pf-HR :0.93189: L2-HR :0.91978: (Sim:0h58m26s) 
CPU  0 inst:  627000003 cyc:  823582261 now IPC :1.57001: AVG IPC :0.75978: L2-Pf-HR :0.93204: L2-HR :0.91996: (Sim:0h58m30s) 
CPU  0 inst:  628000000 cyc:  824215673 now IPC :1.57875: AVG IPC :0.76041: L2-Pf-HR :0.93218: L2-HR :0.92013: (Sim:0h58m35s) 
CPU  0 inst:  629000002 cyc:  824875314 now IPC :1.51598: AVG IPC :0.76102: L2-Pf-HR :0.93230: L2-HR :0.92029: (Sim:0h58m40s) 
CPU  0 inst:  630000001 cyc:  825544496 now IPC :1.49436: AVG IPC :0.76161: L2-Pf-HR :0.93243: L2-HR :0.92045: (Sim:0h58m44s) 
CPU  0 inst:  631000003 cyc:  826221788 now IPC :1.47647: AVG IPC :0.76220: L2-Pf-HR :0.93255: L2-HR :0.92060: (Sim:0h58m48s) 
CPU  0 inst:  632000000 cyc:  826893066 now IPC :1.48969: AVG IPC :0.76279: L2-Pf-HR :0.93266: L2-HR :0.92075: (Sim:0h58m54s) 
CPU  0 inst:  633000001 cyc:  827561742 now IPC :1.49549: AVG IPC :0.76338: L2-Pf-HR :0.93278: L2-HR :0.92090: (Sim:0h59m0s) 
CPU  0 inst:  634000002 cyc:  828200040 now IPC :1.56667: AVG IPC :0.76400: L2-Pf-HR :0.93289: L2-HR :0.92105: (Sim:0h59m7s) 
CPU  0 inst:  635000001 cyc:  828830984 now IPC :1.58493: AVG IPC :0.76463: L2-Pf-HR :0.93300: L2-HR :0.92120: (Sim:0h59m13s) 
CPU  0 inst:  636000000 cyc:  829450408 now IPC :1.61440: AVG IPC :0.76526: L2-Pf-HR :0.93312: L2-HR :0.92135: (Sim:0h59m19s) 
CPU  0 inst:  637000002 cyc:  830079422 now IPC :1.58979: AVG IPC :0.76589: L2-Pf-HR :0.93323: L2-HR :0.92149: (Sim:0h59m25s) 
CPU  0 inst:  638000002 cyc:  830704081 now IPC :1.60087: AVG IPC :0.76652: L2-Pf-HR :0.93335: L2-HR :0.92165: (Sim:0h59m32s) 
CPU  0 inst:  639000002 cyc:  831328986 now IPC :1.60024: AVG IPC :0.76715: L2-Pf-HR :0.93347: L2-HR :0.92180: (Sim:0h59m38s) 
CPU  0 inst:  640000000 cyc:  831944353 now IPC :1.62504: AVG IPC :0.76778: L2-Pf-HR :0.93359: L2-HR :0.92196: (Sim:0h59m44s) 
CPU  0 inst:  641000003 cyc:  832558651 now IPC :1.62788: AVG IPC :0.76842: L2-Pf-HR :0.93371: L2-HR :0.92211: (Sim:0h59m50s) 
CPU  0 inst:  642000003 cyc:  833210757 now IPC :1.53349: AVG IPC :0.76902: L2-Pf-HR :0.93383: L2-HR :0.92226: (Sim:0h59m57s) 
CPU  0 inst:  643000002 cyc:  833842503 now IPC :1.58291: AVG IPC :0.76963: L2-Pf-HR :0.93396: L2-HR :0.92242: (Sim:1h0m3s) 
CPU  0 inst:  644000000 cyc:  834477376 now IPC :1.57511: AVG IPC :0.77025: L2-Pf-HR :0.93409: L2-HR :0.92258: (Sim:1h0m9s) 
CPU  0 inst:  645000001 cyc:  835107047 now IPC :1.58813: AVG IPC :0.77086: L2-Pf-HR :0.93422: L2-HR :0.92274: (Sim:1h0m15s) 
CPU  0 inst:  646000001 cyc:  835785250 now IPC :1.47448: AVG IPC :0.77144: L2-Pf-HR :0.93433: L2-HR :0.92288: (Sim:1h0m22s) 
CPU  0 inst:  647000003 cyc:  836452322 now IPC :1.49909: AVG IPC :0.77202: L2-Pf-HR :0.93444: L2-HR :0.92302: (Sim:1h0m28s) 
CPU  0 inst:  648000000 cyc:  837119560 now IPC :1.49871: AVG IPC :0.77260: L2-Pf-HR :0.93455: L2-HR :0.92316: (Sim:1h0m34s) 
CPU  0 inst:  649000003 cyc:  837786068 now IPC :1.50036: AVG IPC :0.77318: L2-Pf-HR :0.93465: L2-HR :0.92330: (Sim:1h0m41s) 
CPU  0 inst:  650000001 cyc:  838470435 now IPC :1.46120: AVG IPC :0.77374: L2-Pf-HR :0.93475: L2-HR :0.92343: (Sim:1h0m47s) 
CPU  0 inst:  651000003 cyc:  839096758 now IPC :1.59662: AVG IPC :0.77435: L2-Pf-HR :0.93486: L2-HR :0.92357: (Sim:1h0m53s) 
CPU  0 inst:  652000000 cyc:  839719513 now IPC :1.60576: AVG IPC :0.77497: L2-Pf-HR :0.93497: L2-HR :0.92371: (Sim:1h0m59s) 
CPU  0 inst:  653000003 cyc:  840336004 now IPC :1.62209: AVG IPC :0.77559: L2-Pf-HR :0.93508: L2-HR :0.92385: (Sim:1h1m5s) 
CPU  0 inst:  654000003 cyc:  840980262 now IPC :1.55217: AVG IPC :0.77619: L2-Pf-HR :0.93517: L2-HR :0.92398: (Sim:1h1m12s) 
CPU  0 inst:  655000002 cyc:  841599043 now IPC :1.61608: AVG IPC :0.77681: L2-Pf-HR :0.93528: L2-HR :0.92412: (Sim:1h1m18s) 
CPU  0 inst:  656000000 cyc:  842222477 now IPC :1.60402: AVG IPC :0.77742: L2-Pf-HR :0.93540: L2-HR :0.92426: (Sim:1h1m24s) 
CPU  0 inst:  657000002 cyc:  842836421 now IPC :1.62882: AVG IPC :0.77804: L2-Pf-HR :0.93551: L2-HR :0.92441: (Sim:1h1m30s) 
CPU  0 inst:  658000000 cyc:  843465373 now IPC :1.58994: AVG IPC :0.77865: L2-Pf-HR :0.93561: L2-HR :0.92454: (Sim:1h1m37s) 
CPU  0 inst:  659000003 cyc:  844104930 now IPC :1.56359: AVG IPC :0.77924: L2-Pf-HR :0.93573: L2-HR :0.92468: (Sim:1h1m43s) 
Finished CPU 0 instr: 657000002 cyc: 843126402 AVG IPC: 0.77924 (Sim time: 1h1m43s)

ChampSim completed all CPUs

[ROI Statistics]
Core_0_instructions 657000002
Core_0_cycles 843126402
Core_0_IPC 0.77924

Core_0_branch_prediction_accuracy 99.58944
Core_0_branch_MPKI 0.11916
Core_0_average_ROB_occupancy_at_mispredict 241.25023

Core_0_L1D_total_access 447212080
Core_0_L1D_total_hit 408177340 L1D_total_Hit Ratio: 0.91272
Core_0_L1D_total_miss 39034740
Core_0_L1D_loads 179974799
Core_0_L1D_load_hit 163033616 L1D_load_Hit Ratio: 0.90587
Core_0_L1D_load_miss 16941183
Core_0_L1D_RFOs 17160596
Core_0_L1D_RFO_hit 16101823 L1D_RFO_Hit Ratio: 0.93830
Core_0_L1D_RFO_miss 1058773
Core_0_L1D_prefetches 250076685
Core_0_L1D_prefetch_hit 229041901 L1D_prefetch_Hit Ratio: 0.91589
Core_0_L1D_prefetch_miss 21034784
Core_0_L1D_writebacks 0
Core_0_L1D_writeback_hit 0 L1D_writeback_Hit Ratio: -nan
Core_0_L1D_writeback_miss 0
Core_0_L1D_prefetch_requested 543329553
Core_0_L1D_prefetch_issued 285103395
Core_0_L1D_prefetch_useful 8426476 L1D_Useful Ratio: 0.02956
Core_0_L1D_prefetch_useless 12636352
Core_0_L1D_prefetch_late 2171393
Core_0_L1D_average_miss_latency 23126642.55845

Core_0_L1I_total_access 167278635
Core_0_L1I_total_hit 167273598 L1I_total_Hit Ratio: 0.99997
Core_0_L1I_total_miss 5037
Core_0_L1I_loads 167278635
Core_0_L1I_load_hit 167273598 L1I_load_Hit Ratio: 0.99997
Core_0_L1I_load_miss 5037
Core_0_L1I_RFOs 0
Core_0_L1I_RFO_hit 0 L1I_RFO_Hit Ratio: -nan
Core_0_L1I_RFO_miss 0
Core_0_L1I_prefetches 0
Core_0_L1I_prefetch_hit 0 L1I_prefetch_Hit Ratio: -nan
Core_0_L1I_prefetch_miss 0
Core_0_L1I_writebacks 0
Core_0_L1I_writeback_hit 0 L1I_writeback_Hit Ratio: -nan
Core_0_L1I_writeback_miss 0
Core_0_L1I_prefetch_requested 0
Core_0_L1I_prefetch_issued 0
Core_0_L1I_prefetch_useful 0 L1I_Useful Ratio: -nan
Core_0_L1I_prefetch_useless 0
Core_0_L1I_prefetch_late 0
Core_0_L1I_average_miss_latency 357.65694

Core_0_L2C_total_access 125559144
Core_0_L2C_total_hit 116102598 L2C_total_Hit Ratio: 0.92468
Core_0_L2C_total_miss 9456546
Core_0_L2C_loads 14775452
Core_0_L2C_load_hit 13123884 L2C_load_Hit Ratio: 0.88822
Core_0_L2C_load_miss 1651568
Core_0_L2C_RFOs 1058770
Core_0_L2C_RFO_hit 59132 L2C_RFO_Hit Ratio: 0.05585
Core_0_L2C_RFO_miss 999638
Core_0_L2C_prefetches 105831801
Core_0_L2C_prefetch_hit 99029760 L2C_prefetch_Hit Ratio: 0.93573
Core_0_L2C_prefetch_miss 6802041
Core_0_L2C_writebacks 3893121
Core_0_L2C_writeback_hit 3889822 L2C_writeback_Hit Ratio: 0.99915
Core_0_L2C_writeback_miss 3299
Core_0_L2C_prefetch_requested 329421152
Core_0_L2C_prefetch_issued 149677335
Core_0_L2C_prefetch_useful 553762 L2C_Useful Ratio: 0.00370
Core_0_L2C_prefetch_useless 6268069
Core_0_L2C_prefetch_late 22059
Core_0_L2C_average_miss_latency 213.83592

Core_0_LLC_total_access 13391901
Core_0_LLC_total_hit 6891622 LLC_total_Hit Ratio: 0.51461
Core_0_LLC_total_miss 6500279
Core_0_LLC_loads 1629510
Core_0_LLC_load_hit 1129463 LLC_load_Hit Ratio: 0.69313
Core_0_LLC_load_miss 500047
Core_0_LLC_RFOs 999638
Core_0_LLC_RFO_hit 45 LLC_RFO_Hit Ratio: 0.00005
Core_0_LLC_RFO_miss 999593
Core_0_LLC_prefetches 6932202
Core_0_LLC_prefetch_hit 1932996 LLC_prefetch_Hit Ratio: 0.27884
Core_0_LLC_prefetch_miss 4999206
Core_0_LLC_writebacks 3830551
Core_0_LLC_writeback_hit 3829118 LLC_writeback_Hit Ratio: 0.99963
Core_0_LLC_writeback_miss 1433
Core_0_LLC_prefetch_requested 0
Core_0_LLC_prefetch_issued 0
Core_0_LLC_prefetch_useful 830998 LLC_Useful Ratio: inf
Core_0_LLC_prefetch_useless 4154859
Core_0_LLC_prefetch_late 9738
Core_0_LLC_average_miss_latency 277.86176

Core_0_major_page_fault 0
Core_0_minor_page_fault 37887

CPU 0 L1D next line prefetcher final stats
CPU 0 L2C PC-based stride prefetcher final stats
Stride Degree: 14
MK1  MARKOV_LRU_SIZE: 128
MK1  MARKOV_PREDICTION_PERCENTTHRESHOLD: 20.00000
MK1  OUTLIERS_THRESHOLD_Max: 64
MK1  OUTLIERS_THRESHOLD_Min: 32
MK2  MARKOV_LRU_SIZE: 512
MK2  MARKOV_PREDICTION_PERCENTTHRESHOLD: 15.00000
MK2  OUTLIERS_THRESHOLD_Max: 8
MK2  OUTLIERS_THRESHOLD_Min: 0
MK3  MARKOV_LRU_SIZE: 384
MK3  MARKOV_PREDICTION_PERCENTTHRESHOLD: 20.00000
MK3  OUTLIERS_THRESHOLD_Max: 16
MK3  OUTLIERS_THRESHOLD_Min: 8
MK4  MARKOV_LRU_SIZE: 512
MK4  MARKOV_PREDICTION_PERCENTTHRESHOLD: 15.00000
MK4  OUTLIERS_THRESHOLD_Max: 8
MK4  OUTLIERS_THRESHOLD_Min: 0
IPStride Degree/Access Ratio: 2.82689
MK1 IPDEltaMarkov  Degree/Access Ratio: 1.19432
MK2 IPDEltaMarkov  Degree/Access Ratio: 1.96158
MK3 IPDEltaMarkov  Degree/Access Ratio: 1.21479
MK4 IPDEltaMarkov  Degree/Access Ratio: 2.02174
Channel_0_RQ_row_buffer_hit 3250622
Channel_0_RQ_row_buffer_miss 3247927
Channel_0_WQ_row_buffer_hit 796866
Channel_0_WQ_row_buffer_miss 2570782
Channel_0_WQ_full 0
Channel_0_dbus_congested 5785588

avg_congested_cycle 10

EzSearch AVG IPC :0.77924: L2-Pf-HR :0.93573 : L2-HR :0.92468 Uful:0.00370
     > Finished combination: TraceType=770-tot Sim:657000000 Prefetcher=L2029-SecTOP-L2-MultiMarkovDelta_ip_stride_v4 L1=next_line
