TRACE: [298000000][GPT-Neo_1_3B]_[h16][s512][d128] Warmup: 2000000 NumTraces: 298000000
L1:next_line:L2:029-SecTOP-L2-MultiMarkovDelta_ip_stride_v4-MK2-P30
*************************************************
   ChampSim Multicore Out-of-Order Simulator
   Last compiled: Oct 27 2024 07:33:30
*************************************************

trace_0 770-tot_memTraces_v3/memTraces[298000000][GPT-Neo_1_3B]_[h16][s512][d128].champsim.xz
CPU 0 L1D next line prefetcher
MK1: Size: 128 TMAX: 64 TMIN: 32 MKPTHRESH: 40
MK2: Size: 256 TMAX: 32 TMIN: 16 MK2PTHRESH: 30
MK3: Size: 384 TMAX: 16 TMIN: 8 MK3PTHRESH: 25
MK4: Size: 512 TMAX: 8 TMIN: 0 MK4PTHRESH: 20
Stride Size: 512 Prefetch Degree: 15

CPU 0 L2C prefetcher
MAIN.cc ln 751 stats print skipped
CPU 0 L2C prefetcher initialized


Cache Size: 1280
number of cache lines: 20480
CPU  0 inst:    1000003 cyc:     499280 now IPC :2.00289: AVG IPC :2.00289: L2-Pf-HR :0.91754: L2-HR :0.89217: (Sim:0h0m19s) 
CPU  0 inst:    2000001 cyc:     984115 now IPC :2.06255: AVG IPC :2.03228: L2-Pf-HR :0.95175: L2-HR :0.93440: (Sim:0h0m40s) 

Warmup complete CPU  0 instructions:    2000001 cycles:     984115 (Simulation time: 0 hr 0 min 40 sec) 

CPU  0 inst:    3000000 cyc:    1496758 now IPC :1.95067: AVG IPC :1.95067: L2-Pf-HR :0.95518: L2-HR :0.95235: (Sim:0h0m49s) 
CPU  0 inst:    4000002 cyc:    1992279 now IPC :2.01808: AVG IPC :1.98381: L2-Pf-HR :0.95979: L2-HR :0.95750: (Sim:0h1m0s) 
CPU  0 inst:    5000004 cyc:    2488307 now IPC :2.01602: AVG IPC :1.99443: L2-Pf-HR :0.96273: L2-HR :0.96035: (Sim:0h1m8s) 
CPU  0 inst:    6000003 cyc:    2989115 now IPC :1.99677: AVG IPC :1.99501: L2-Pf-HR :0.96595: L2-HR :0.96316: (Sim:0h1m15s) 
CPU  0 inst:    7000000 cyc:    3521564 now IPC :1.87811: AVG IPC :1.97048: L2-Pf-HR :0.96338: L2-HR :0.95932: (Sim:0h1m23s) 
CPU  0 inst:    8000004 cyc:    4009140 now IPC :2.05097: AVG IPC :1.98346: L2-Pf-HR :0.96624: L2-HR :0.96189: (Sim:0h1m31s) 
CPU  0 inst:    9000005 cyc:    4592474 now IPC :1.71429: AVG IPC :1.93994: L2-Pf-HR :0.96114: L2-HR :0.95529: (Sim:0h1m38s) 
CPU  0 inst:   10000001 cyc:    5076503 now IPC :2.06598: AVG IPC :1.95485: L2-Pf-HR :0.96134: L2-HR :0.95603: (Sim:0h1m46s) 
CPU  0 inst:   11000003 cyc:    5560083 now IPC :2.06791: AVG IPC :1.96680: L2-Pf-HR :0.96182: L2-HR :0.95699: (Sim:0h1m53s) 
CPU  0 inst:   12000001 cyc:    6038704 now IPC :2.08933: AVG IPC :1.97840: L2-Pf-HR :0.96263: L2-HR :0.95810: (Sim:0h2m1s) 
CPU  0 inst:   13000004 cyc:    6520559 now IPC :2.07532: AVG IPC :1.98684: L2-Pf-HR :0.96365: L2-HR :0.95928: (Sim:0h2m9s) 
CPU  0 inst:   14000000 cyc:    7000678 now IPC :2.08281: AVG IPC :1.99449: L2-Pf-HR :0.96479: L2-HR :0.96054: (Sim:0h2m17s) 
CPU  0 inst:   15000001 cyc:    7539573 now IPC :1.85565: AVG IPC :1.98308: L2-Pf-HR :0.96418: L2-HR :0.95961: (Sim:0h2m26s) 
CPU  0 inst:   16000000 cyc:    8042522 now IPC :1.98827: AVG IPC :1.98345: L2-Pf-HR :0.96526: L2-HR :0.96060: (Sim:0h2m34s) 
CPU  0 inst:   17000002 cyc:    8693307 now IPC :1.53661: AVG IPC :1.94573: L2-Pf-HR :0.96326: L2-HR :0.95794: (Sim:0h2m43s) 
CPU  0 inst:   18000005 cyc:    9193851 now IPC :1.99783: AVG IPC :1.94891: L2-Pf-HR :0.96320: L2-HR :0.95811: (Sim:0h2m50s) 
CPU  0 inst:   19000003 cyc:    9687872 now IPC :2.02420: AVG IPC :1.95318: L2-Pf-HR :0.96350: L2-HR :0.95863: (Sim:0h2m58s) 
CPU  0 inst:   20000004 cyc:   10186154 now IPC :2.00690: AVG IPC :1.95609: L2-Pf-HR :0.96388: L2-HR :0.95914: (Sim:0h3m5s) 
CPU  0 inst:   21000001 cyc:   10684148 now IPC :2.00805: AVG IPC :1.95876: L2-Pf-HR :0.96440: L2-HR :0.95977: (Sim:0h3m13s) 
CPU  0 inst:   22000001 cyc:   11168948 now IPC :2.06271: AVG IPC :1.96370: L2-Pf-HR :0.96496: L2-HR :0.96045: (Sim:0h3m20s) 
CPU  0 inst:   23000005 cyc:   11720380 now IPC :1.81347: AVG IPC :1.95599: L2-Pf-HR :0.96466: L2-HR :0.95997: (Sim:0h3m28s) 
CPU  0 inst:   24000003 cyc:   12222151 now IPC :1.99294: AVG IPC :1.95764: L2-Pf-HR :0.96528: L2-HR :0.96053: (Sim:0h3m35s) 
CPU  0 inst:   25000002 cyc:   12875634 now IPC :1.53026: AVG IPC :1.93415: L2-Pf-HR :0.96394: L2-HR :0.95871: (Sim:0h3m43s) 
CPU  0 inst:   26000001 cyc:   13378139 now IPC :1.99003: AVG IPC :1.93642: L2-Pf-HR :0.96387: L2-HR :0.95880: (Sim:0h3m51s) 
CPU  0 inst:   27000004 cyc:   13871681 now IPC :2.02618: AVG IPC :1.93985: L2-Pf-HR :0.96403: L2-HR :0.95910: (Sim:0h3m58s) 
CPU  0 inst:   28000003 cyc:   14371283 now IPC :2.00159: AVG IPC :1.94216: L2-Pf-HR :0.96413: L2-HR :0.95933: (Sim:0h4m5s) 
CPU  0 inst:   29000001 cyc:   14868676 now IPC :2.01048: AVG IPC :1.94461: L2-Pf-HR :0.96439: L2-HR :0.95967: (Sim:0h4m13s) 
CPU  0 inst:   30000002 cyc:   15358524 now IPC :2.04145: AVG IPC :1.94791: L2-Pf-HR :0.96488: L2-HR :0.96022: (Sim:0h4m20s) 
CPU  0 inst:   31000003 cyc:   15915412 now IPC :1.79569: AVG IPC :1.94223: L2-Pf-HR :0.96465: L2-HR :0.95986: (Sim:0h4m28s) 
CPU  0 inst:   32000002 cyc:   16415464 now IPC :1.99979: AVG IPC :1.94409: L2-Pf-HR :0.96508: L2-HR :0.96025: (Sim:0h4m35s) 
CPU  0 inst:   33000004 cyc:   17064727 now IPC :1.54021: AVG IPC :1.92779: L2-Pf-HR :0.96406: L2-HR :0.95887: (Sim:0h4m46s) 
CPU  0 inst:   34000001 cyc:   17570224 now IPC :1.97825: AVG IPC :1.92933: L2-Pf-HR :0.96396: L2-HR :0.95884: (Sim:0h4m53s) 
CPU  0 inst:   35000003 cyc:   18063507 now IPC :2.02724: AVG IPC :1.93215: L2-Pf-HR :0.96402: L2-HR :0.95898: (Sim:0h5m3s) 
CPU  0 inst:   36000000 cyc:   18557294 now IPC :2.02516: AVG IPC :1.93477: L2-Pf-HR :0.96410: L2-HR :0.95912: (Sim:0h5m20s) 
CPU  0 inst:   37000001 cyc:   19051374 now IPC :2.02397: AVG IPC :1.93721: L2-Pf-HR :0.96440: L2-HR :0.95944: (Sim:0h5m37s) 
CPU  0 inst:   38000000 cyc:   19546395 now IPC :2.02011: AVG IPC :1.93942: L2-Pf-HR :0.96472: L2-HR :0.95976: (Sim:0h5m54s) 
CPU  0 inst:   39000001 cyc:   20103400 now IPC :1.79532: AVG IPC :1.93522: L2-Pf-HR :0.96455: L2-HR :0.95947: (Sim:0h6m12s) 
CPU  0 inst:   40000002 cyc:   20609813 now IPC :1.97467: AVG IPC :1.93624: L2-Pf-HR :0.96486: L2-HR :0.95975: (Sim:0h6m29s) 
CPU  0 inst:   41000002 cyc:   21256137 now IPC :1.54721: AVG IPC :1.92383: L2-Pf-HR :0.96413: L2-HR :0.95874: (Sim:0h6m47s) 
CPU  0 inst:   42000000 cyc:   21752977 now IPC :2.01272: AVG IPC :1.92596: L2-Pf-HR :0.96410: L2-HR :0.95881: (Sim:0h7m4s) 
CPU  0 inst:   43000003 cyc:   22256087 now IPC :1.98764: AVG IPC :1.92742: L2-Pf-HR :0.96419: L2-HR :0.95897: (Sim:0h7m22s) 
CPU  0 inst:   44000005 cyc:   22756587 now IPC :1.99801: AVG IPC :1.92904: L2-Pf-HR :0.96427: L2-HR :0.95912: (Sim:0h7m39s) 
CPU  0 inst:   45000004 cyc:   23244325 now IPC :2.05028: AVG IPC :1.93170: L2-Pf-HR :0.96446: L2-HR :0.95938: (Sim:0h7m55s) 
CPU  0 inst:   46000000 cyc:   23734039 now IPC :2.04200: AVG IPC :1.93407: L2-Pf-HR :0.96471: L2-HR :0.95968: (Sim:0h8m12s) 
CPU  0 inst:   47000004 cyc:   24298509 now IPC :1.77158: AVG IPC :1.93014: L2-Pf-HR :0.96461: L2-HR :0.95949: (Sim:0h8m30s) 
CPU  0 inst:   48000002 cyc:   24802570 now IPC :1.98388: AVG IPC :1.93128: L2-Pf-HR :0.96487: L2-HR :0.95974: (Sim:0h8m45s) 
CPU  0 inst:   49000005 cyc:   25448720 now IPC :1.54763: AVG IPC :1.92114: L2-Pf-HR :0.96430: L2-HR :0.95893: (Sim:0h8m54s) 
CPU  0 inst:   50000001 cyc:   25950876 now IPC :1.99141: AVG IPC :1.92256: L2-Pf-HR :0.96424: L2-HR :0.95895: (Sim:0h9m1s) 
CPU  0 inst:   51000002 cyc:   26455847 now IPC :1.98031: AVG IPC :1.92370: L2-Pf-HR :0.96427: L2-HR :0.95905: (Sim:0h9m9s) 
CPU  0 inst:   52000002 cyc:   26957873 now IPC :1.99193: AVG IPC :1.92502: L2-Pf-HR :0.96434: L2-HR :0.95918: (Sim:0h9m16s) 
CPU  0 inst:   53000004 cyc:   27443545 now IPC :2.05901: AVG IPC :1.92748: L2-Pf-HR :0.96452: L2-HR :0.95941: (Sim:0h9m23s) 
CPU  0 inst:   54000003 cyc:   27935592 now IPC :2.03232: AVG IPC :1.92939: L2-Pf-HR :0.96477: L2-HR :0.95970: (Sim:0h9m31s) 
CPU  0 inst:   55000000 cyc:   28494426 now IPC :1.78943: AVG IPC :1.92655: L2-Pf-HR :0.96467: L2-HR :0.95954: (Sim:0h9m38s) 
CPU  0 inst:   56000004 cyc:   29001276 now IPC :1.97298: AVG IPC :1.92739: L2-Pf-HR :0.96488: L2-HR :0.95974: (Sim:0h9m46s) 
CPU  0 inst:   57000002 cyc:   29649835 now IPC :1.54188: AVG IPC :1.91867: L2-Pf-HR :0.96441: L2-HR :0.95908: (Sim:0h9m54s) 
CPU  0 inst:   58000001 cyc:   30150707 now IPC :1.99652: AVG IPC :1.92000: L2-Pf-HR :0.96435: L2-HR :0.95909: (Sim:0h10m1s) 
CPU  0 inst:   59000003 cyc:   30644361 now IPC :2.02571: AVG IPC :1.92176: L2-Pf-HR :0.96438: L2-HR :0.95916: (Sim:0h10m9s) 
CPU  0 inst:   60000005 cyc:   31139027 now IPC :2.02157: AVG IPC :1.92340: L2-Pf-HR :0.96447: L2-HR :0.95930: (Sim:0h10m16s) 
CPU  0 inst:   61000004 cyc:   31634853 now IPC :2.01683: AVG IPC :1.92491: L2-Pf-HR :0.96458: L2-HR :0.95945: (Sim:0h10m23s) 
CPU  0 inst:   62000003 cyc:   32133668 now IPC :2.00475: AVG IPC :1.92619: L2-Pf-HR :0.96473: L2-HR :0.95964: (Sim:0h10m31s) 
CPU  0 inst:   63000000 cyc:   32682519 now IPC :1.82198: AVG IPC :1.92439: L2-Pf-HR :0.96466: L2-HR :0.95951: (Sim:0h10m38s) 
CPU  0 inst:   64000004 cyc:   33191442 now IPC :1.96494: AVG IPC :1.92503: L2-Pf-HR :0.96481: L2-HR :0.95965: (Sim:0h10m46s) 
CPU  0 inst:   65000002 cyc:   33837779 now IPC :1.54718: AVG IPC :1.91759: L2-Pf-HR :0.96441: L2-HR :0.95907: (Sim:0h10m54s) 
CPU  0 inst:   66000000 cyc:   34350107 now IPC :1.95187: AVG IPC :1.91812: L2-Pf-HR :0.96435: L2-HR :0.95906: (Sim:0h11m1s) 
CPU  0 inst:   67000003 cyc:   34853363 now IPC :1.98707: AVG IPC :1.91915: L2-Pf-HR :0.96438: L2-HR :0.95915: (Sim:0h11m9s) 
CPU  0 inst:   68000002 cyc:   35352084 now IPC :2.00513: AVG IPC :1.92039: L2-Pf-HR :0.96444: L2-HR :0.95925: (Sim:0h11m17s) 
CPU  0 inst:   69000001 cyc:   35844796 now IPC :2.02958: AVG IPC :1.92194: L2-Pf-HR :0.96454: L2-HR :0.95941: (Sim:0h11m24s) 
CPU  0 inst:   70000002 cyc:   36334131 now IPC :2.04359: AVG IPC :1.92362: L2-Pf-HR :0.96469: L2-HR :0.95959: (Sim:0h11m32s) 
CPU  0 inst:   71000000 cyc:   36889184 now IPC :1.80163: AVG IPC :1.92173: L2-Pf-HR :0.96463: L2-HR :0.95948: (Sim:0h11m39s) 
CPU  0 inst:   72000001 cyc:   37392673 now IPC :1.98614: AVG IPC :1.92262: L2-Pf-HR :0.96476: L2-HR :0.95960: (Sim:0h11m47s) 
CPU  0 inst:   73000005 cyc:   38028636 now IPC :1.57242: AVG IPC :1.91661: L2-Pf-HR :0.96444: L2-HR :0.95911: (Sim:0h11m55s) 
CPU  0 inst:   74000000 cyc:   38537883 now IPC :1.96367: AVG IPC :1.91725: L2-Pf-HR :0.96436: L2-HR :0.95908: (Sim:0h12m2s) 
CPU  0 inst:   75000000 cyc:   39038039 now IPC :1.99938: AVG IPC :1.91833: L2-Pf-HR :0.96436: L2-HR :0.95914: (Sim:0h12m10s) 
CPU  0 inst:   76000005 cyc:   39529167 now IPC :2.03614: AVG IPC :1.91983: L2-Pf-HR :0.96444: L2-HR :0.95926: (Sim:0h12m17s) 
CPU  0 inst:   77000001 cyc:   40024780 now IPC :2.01770: AVG IPC :1.92107: L2-Pf-HR :0.96454: L2-HR :0.95939: (Sim:0h12m25s) 
CPU  0 inst:   78000005 cyc:   40511914 now IPC :2.05283: AVG IPC :1.92270: L2-Pf-HR :0.96470: L2-HR :0.95958: (Sim:0h12m32s) 
CPU  0 inst:   79000000 cyc:   41061339 now IPC :1.82008: AVG IPC :1.92129: L2-Pf-HR :0.96466: L2-HR :0.95950: (Sim:0h12m39s) 
CPU  0 inst:   80000003 cyc:   41566984 now IPC :1.97768: AVG IPC :1.92199: L2-Pf-HR :0.96477: L2-HR :0.95960: (Sim:0h12m47s) 
CPU  0 inst:   81000002 cyc:   42203486 now IPC :1.57109: AVG IPC :1.91657: L2-Pf-HR :0.96449: L2-HR :0.95918: (Sim:0h12m54s) 
CPU  0 inst:   82000003 cyc:   42710122 now IPC :1.97381: AVG IPC :1.91727: L2-Pf-HR :0.96445: L2-HR :0.95918: (Sim:0h13m2s) 
CPU  0 inst:   83000003 cyc:   43208325 now IPC :2.00721: AVG IPC :1.91833: L2-Pf-HR :0.96449: L2-HR :0.95926: (Sim:0h13m9s) 
CPU  0 inst:   84000002 cyc:   43707576 now IPC :2.00300: AVG IPC :1.91932: L2-Pf-HR :0.96452: L2-HR :0.95933: (Sim:0h13m17s) 
CPU  0 inst:   85000003 cyc:   44204394 now IPC :2.01281: AVG IPC :1.92039: L2-Pf-HR :0.96459: L2-HR :0.95944: (Sim:0h13m24s) 
CPU  0 inst:   86000000 cyc:   44695364 now IPC :2.03678: AVG IPC :1.92170: L2-Pf-HR :0.96472: L2-HR :0.95960: (Sim:0h13m32s) 
CPU  0 inst:   87000005 cyc:   45244578 now IPC :1.82079: AVG IPC :1.92045: L2-Pf-HR :0.96467: L2-HR :0.95951: (Sim:0h13m41s) 
CPU  0 inst:   88000005 cyc:   45746742 now IPC :1.99138: AVG IPC :1.92125: L2-Pf-HR :0.96478: L2-HR :0.95962: (Sim:0h13m49s) 
CPU  0 inst:   89000002 cyc:   46394527 now IPC :1.54372: AVG IPC :1.91586: L2-Pf-HR :0.96455: L2-HR :0.95925: (Sim:0h13m57s) 
CPU  0 inst:   90000001 cyc:   46903980 now IPC :1.96289: AVG IPC :1.91638: L2-Pf-HR :0.96446: L2-HR :0.95920: (Sim:0h14m5s) 
CPU  0 inst:   91000003 cyc:   47399773 now IPC :2.01697: AVG IPC :1.91746: L2-Pf-HR :0.96448: L2-HR :0.95925: (Sim:0h14m12s) 
CPU  0 inst:   92000002 cyc:   47898456 now IPC :2.00528: AVG IPC :1.91839: L2-Pf-HR :0.96450: L2-HR :0.95929: (Sim:0h14m19s) 
CPU  0 inst:   93000004 cyc:   48396064 now IPC :2.00962: AVG IPC :1.91935: L2-Pf-HR :0.96457: L2-HR :0.95937: (Sim:0h14m26s) 
CPU  0 inst:   94000001 cyc:   48891086 now IPC :2.02011: AVG IPC :1.92039: L2-Pf-HR :0.96471: L2-HR :0.95952: (Sim:0h14m34s) 
CPU  0 inst:   95000002 cyc:   49445787 now IPC :1.80277: AVG IPC :1.91904: L2-Pf-HR :0.96467: L2-HR :0.95945: (Sim:0h14m41s) 
CPU  0 inst:   96000005 cyc:   49948900 now IPC :1.98763: AVG IPC :1.91975: L2-Pf-HR :0.96475: L2-HR :0.95951: (Sim:0h14m49s) 
CPU  0 inst:   97000005 cyc:   50600593 now IPC :1.53446: AVG IPC :1.91469: L2-Pf-HR :0.96451: L2-HR :0.95914: (Sim:0h14m56s) 
CPU  0 inst:   98000000 cyc:   51109148 now IPC :1.96635: AVG IPC :1.91521: L2-Pf-HR :0.96444: L2-HR :0.95911: (Sim:0h15m4s) 
CPU  0 inst:   99000003 cyc:   51598864 now IPC :2.04201: AVG IPC :1.91644: L2-Pf-HR :0.96446: L2-HR :0.95918: (Sim:0h15m11s) 
CPU  0 inst:  100000005 cyc:   52096844 now IPC :2.00812: AVG IPC :1.91733: L2-Pf-HR :0.96452: L2-HR :0.95926: (Sim:0h15m19s) 
CPU  0 inst:  101000001 cyc:   52586334 now IPC :2.04293: AVG IPC :1.91852: L2-Pf-HR :0.96460: L2-HR :0.95937: (Sim:0h15m26s) 
CPU  0 inst:  102000003 cyc:   53084779 now IPC :2.00624: AVG IPC :1.91936: L2-Pf-HR :0.96472: L2-HR :0.95951: (Sim:0h15m33s) 
CPU  0 inst:  103000003 cyc:   53635810 now IPC :1.81478: AVG IPC :1.91827: L2-Pf-HR :0.96467: L2-HR :0.95944: (Sim:0h15m41s) 
CPU  0 inst:  104000002 cyc:   54141980 now IPC :1.97562: AVG IPC :1.91881: L2-Pf-HR :0.96473: L2-HR :0.95950: (Sim:0h15m48s) 
CPU  0 inst:  105000004 cyc:   54793335 now IPC :1.53526: AVG IPC :1.91417: L2-Pf-HR :0.96454: L2-HR :0.95919: (Sim:0h15m56s) 
CPU  0 inst:  106000001 cyc:   55300082 now IPC :1.97337: AVG IPC :1.91472: L2-Pf-HR :0.96450: L2-HR :0.95919: (Sim:0h16m3s) 
CPU  0 inst:  107000003 cyc:   55801188 now IPC :1.99559: AVG IPC :1.91546: L2-Pf-HR :0.96450: L2-HR :0.95923: (Sim:0h16m11s) 
CPU  0 inst:  108000005 cyc:   56299041 now IPC :2.00863: AVG IPC :1.91630: L2-Pf-HR :0.96453: L2-HR :0.95928: (Sim:0h16m18s) 
CPU  0 inst:  109000002 cyc:   56790790 now IPC :2.03355: AVG IPC :1.91733: L2-Pf-HR :0.96460: L2-HR :0.95939: (Sim:0h16m25s) 
CPU  0 inst:  110000000 cyc:   57284414 now IPC :2.02583: AVG IPC :1.91828: L2-Pf-HR :0.96470: L2-HR :0.95950: (Sim:0h16m33s) 
CPU  0 inst:  111000000 cyc:   57824896 now IPC :1.85020: AVG IPC :1.91764: L2-Pf-HR :0.96468: L2-HR :0.95946: (Sim:0h16m40s) 
CPU  0 inst:  112000005 cyc:   58333906 now IPC :1.96461: AVG IPC :1.91805: L2-Pf-HR :0.96474: L2-HR :0.95951: (Sim:0h16m47s) 
CPU  0 inst:  113000002 cyc:   58996325 now IPC :1.50961: AVG IPC :1.91339: L2-Pf-HR :0.96457: L2-HR :0.95924: (Sim:0h16m55s) 
CPU  0 inst:  114000004 cyc:   59498051 now IPC :1.99312: AVG IPC :1.91407: L2-Pf-HR :0.96452: L2-HR :0.95923: (Sim:0h17m3s) 
CPU  0 inst:  115000000 cyc:   59998078 now IPC :1.99988: AVG IPC :1.91480: L2-Pf-HR :0.96452: L2-HR :0.95926: (Sim:0h17m10s) 
CPU  0 inst:  116000002 cyc:   60491357 now IPC :2.02725: AVG IPC :1.91573: L2-Pf-HR :0.96454: L2-HR :0.95932: (Sim:0h17m17s) 
CPU  0 inst:  117000000 cyc:   60988746 now IPC :2.01049: AVG IPC :1.91652: L2-Pf-HR :0.96463: L2-HR :0.95942: (Sim:0h17m25s) 
CPU  0 inst:  118000003 cyc:   61489843 now IPC :1.99563: AVG IPC :1.91717: L2-Pf-HR :0.96473: L2-HR :0.95954: (Sim:0h17m32s) 
CPU  0 inst:  119000002 cyc:   62034928 now IPC :1.83457: AVG IPC :1.91644: L2-Pf-HR :0.96470: L2-HR :0.95950: (Sim:0h17m40s) 
CPU  0 inst:  120000002 cyc:   62542629 now IPC :1.96966: AVG IPC :1.91688: L2-Pf-HR :0.96474: L2-HR :0.95953: (Sim:0h17m48s) 
CPU  0 inst:  121000002 cyc:   63187985 now IPC :1.54953: AVG IPC :1.91306: L2-Pf-HR :0.96457: L2-HR :0.95924: (Sim:0h17m56s) 
CPU  0 inst:  122000004 cyc:   63686132 now IPC :2.00744: AVG IPC :1.91381: L2-Pf-HR :0.96453: L2-HR :0.95924: (Sim:0h18m3s) 
CPU  0 inst:  123000003 cyc:   64190930 now IPC :1.98099: AVG IPC :1.91435: L2-Pf-HR :0.96455: L2-HR :0.95928: (Sim:0h18m10s) 
CPU  0 inst:  124000002 cyc:   64682513 now IPC :2.03424: AVG IPC :1.91528: L2-Pf-HR :0.96457: L2-HR :0.95933: (Sim:0h18m18s) 
CPU  0 inst:  125000002 cyc:   65181430 now IPC :2.00434: AVG IPC :1.91597: L2-Pf-HR :0.96462: L2-HR :0.95939: (Sim:0h18m25s) 
CPU  0 inst:  126000003 cyc:   65682008 now IPC :1.99769: AVG IPC :1.91660: L2-Pf-HR :0.96468: L2-HR :0.95948: (Sim:0h18m32s) 
CPU  0 inst:  127000002 cyc:   66225911 now IPC :1.83856: AVG IPC :1.91595: L2-Pf-HR :0.96467: L2-HR :0.95945: (Sim:0h18m40s) 
CPU  0 inst:  128000004 cyc:   66729970 now IPC :1.98390: AVG IPC :1.91647: L2-Pf-HR :0.96472: L2-HR :0.95949: (Sim:0h18m47s) 
CPU  0 inst:  129000004 cyc:   68743539 now IPC :0.49663: AVG IPC :1.87428: L2-Pf-HR :0.96361: L2-HR :0.95686: (Sim:0h18m58s) 
CPU  0 inst:  130000000 cyc:   73989356 now IPC :0.19063: AVG IPC :1.75330: L2-Pf-HR :0.96016: L2-HR :0.94917: (Sim:0h19m22s) 
CPU  0 inst:  131000005 cyc:   79399925 now IPC :0.18482: AVG IPC :1.64508: L2-Pf-HR :0.95671: L2-HR :0.94175: (Sim:0h19m47s) 
CPU  0 inst:  132000004 cyc:   83069442 now IPC :0.27252: AVG IPC :1.58372: L2-Pf-HR :0.95579: L2-HR :0.94042: (Sim:0h20m3s) 
CPU  0 inst:  133000000 cyc:   86650940 now IPC :0.27921: AVG IPC :1.52918: L2-Pf-HR :0.95507: L2-HR :0.93954: (Sim:0h20m18s) 
CPU  0 inst:  134000000 cyc:   90232933 now IPC :0.27917: AVG IPC :1.47901: L2-Pf-HR :0.95436: L2-HR :0.93866: (Sim:0h20m32s) 
CPU  0 inst:  135000004 cyc:   93812735 now IPC :0.27935: AVG IPC :1.43275: L2-Pf-HR :0.95367: L2-HR :0.93781: (Sim:0h20m47s) 
CPU  0 inst:  136000000 cyc:   97393635 now IPC :0.27926: AVG IPC :1.38990: L2-Pf-HR :0.95298: L2-HR :0.93697: (Sim:0h21m2s) 
CPU  0 inst:  137000000 cyc:  100974905 now IPC :0.27923: AVG IPC :1.35012: L2-Pf-HR :0.95230: L2-HR :0.93614: (Sim:0h21m17s) 
CPU  0 inst:  138000000 cyc:  104555031 now IPC :0.27932: AVG IPC :1.31311: L2-Pf-HR :0.95163: L2-HR :0.93532: (Sim:0h21m32s) 
CPU  0 inst:  139000000 cyc:  108136302 now IPC :0.27923: AVG IPC :1.27856: L2-Pf-HR :0.95097: L2-HR :0.93450: (Sim:0h21m47s) 
CPU  0 inst:  140000000 cyc:  111716996 now IPC :0.27928: AVG IPC :1.24624: L2-Pf-HR :0.95031: L2-HR :0.93370: (Sim:0h22m2s) 
CPU  0 inst:  141000002 cyc:  115296394 now IPC :0.27938: AVG IPC :1.21597: L2-Pf-HR :0.94966: L2-HR :0.93290: (Sim:0h22m17s) 
CPU  0 inst:  142000003 cyc:  118875839 now IPC :0.27937: AVG IPC :1.18753: L2-Pf-HR :0.94902: L2-HR :0.93211: (Sim:0h22m32s) 
CPU  0 inst:  143000001 cyc:  122455521 now IPC :0.27935: AVG IPC :1.16077: L2-Pf-HR :0.94838: L2-HR :0.93133: (Sim:0h22m48s) 
CPU  0 inst:  144000000 cyc:  126034403 now IPC :0.27942: AVG IPC :1.13554: L2-Pf-HR :0.94775: L2-HR :0.93056: (Sim:0h23m6s) 
CPU  0 inst:  145000000 cyc:  129615048 now IPC :0.27928: AVG IPC :1.11171: L2-Pf-HR :0.94713: L2-HR :0.92980: (Sim:0h23m40s) 
CPU  0 inst:  146000000 cyc:  133196159 now IPC :0.27924: AVG IPC :1.08916: L2-Pf-HR :0.94651: L2-HR :0.92904: (Sim:0h24m14s) 
CPU  0 inst:  147000000 cyc:  136776407 now IPC :0.27931: AVG IPC :1.06781: L2-Pf-HR :0.94590: L2-HR :0.92830: (Sim:0h24m47s) 
CPU  0 inst:  148000000 cyc:  140357410 now IPC :0.27925: AVG IPC :1.04755: L2-Pf-HR :0.94529: L2-HR :0.92756: (Sim:0h25m21s) 
CPU  0 inst:  149000000 cyc:  143937860 now IPC :0.27929: AVG IPC :1.02830: L2-Pf-HR :0.94470: L2-HR :0.92682: (Sim:0h25m55s) 
CPU  0 inst:  150000000 cyc:  147517324 now IPC :0.27937: AVG IPC :1.01001: L2-Pf-HR :0.94410: L2-HR :0.92610: (Sim:0h26m29s) 
CPU  0 inst:  151000002 cyc:  151098179 now IPC :0.27926: AVG IPC :0.99258: L2-Pf-HR :0.94352: L2-HR :0.92539: (Sim:0h27m2s) 
CPU  0 inst:  152000000 cyc:  154677362 now IPC :0.27939: AVG IPC :0.97597: L2-Pf-HR :0.94294: L2-HR :0.92468: (Sim:0h27m36s) 
CPU  0 inst:  153000002 cyc:  158257259 now IPC :0.27934: AVG IPC :0.96011: L2-Pf-HR :0.94236: L2-HR :0.92398: (Sim:0h28m10s) 
CPU  0 inst:  154000000 cyc:  161838093 now IPC :0.27926: AVG IPC :0.94496: L2-Pf-HR :0.94179: L2-HR :0.92328: (Sim:0h28m44s) 
CPU  0 inst:  155000000 cyc:  165418562 now IPC :0.27929: AVG IPC :0.93046: L2-Pf-HR :0.94123: L2-HR :0.92259: (Sim:0h29m17s) 
CPU  0 inst:  156000000 cyc:  168999048 now IPC :0.27929: AVG IPC :0.91659: L2-Pf-HR :0.94067: L2-HR :0.92191: (Sim:0h29m51s) 
CPU  0 inst:  157000000 cyc:  172580922 now IPC :0.27918: AVG IPC :0.90328: L2-Pf-HR :0.94012: L2-HR :0.92124: (Sim:0h30m25s) 
CPU  0 inst:  158000000 cyc:  176160513 now IPC :0.27936: AVG IPC :0.89053: L2-Pf-HR :0.93957: L2-HR :0.92057: (Sim:0h30m42s) 
CPU  0 inst:  159000000 cyc:  179740430 now IPC :0.27934: AVG IPC :0.87829: L2-Pf-HR :0.93903: L2-HR :0.91991: (Sim:0h30m57s) 
CPU  0 inst:  160000004 cyc:  183321735 now IPC :0.27923: AVG IPC :0.86652: L2-Pf-HR :0.93849: L2-HR :0.91926: (Sim:0h31m12s) 
CPU  0 inst:  161000002 cyc:  186900891 now IPC :0.27939: AVG IPC :0.85522: L2-Pf-HR :0.93796: L2-HR :0.91861: (Sim:0h31m27s) 
CPU  0 inst:  162000001 cyc:  190479920 now IPC :0.27941: AVG IPC :0.84435: L2-Pf-HR :0.93743: L2-HR :0.91796: (Sim:0h31m41s) 
CPU  0 inst:  163000002 cyc:  194059960 now IPC :0.27933: AVG IPC :0.83387: L2-Pf-HR :0.93691: L2-HR :0.91733: (Sim:0h31m56s) 
CPU  0 inst:  164000001 cyc:  195848119 now IPC :0.55923: AVG IPC :0.83135: L2-Pf-HR :0.93621: L2-HR :0.91643: (Sim:0h32m9s) 
CPU  0 inst:  165000002 cyc:  196353332 now IPC :1.97937: AVG IPC :0.83432: L2-Pf-HR :0.93649: L2-HR :0.91677: (Sim:0h32m17s) 
CPU  0 inst:  166000000 cyc:  196916820 now IPC :1.77466: AVG IPC :0.83702: L2-Pf-HR :0.93674: L2-HR :0.91711: (Sim:0h32m25s) 
CPU  0 inst:  167000002 cyc:  197485558 now IPC :1.75828: AVG IPC :0.83969: L2-Pf-HR :0.93663: L2-HR :0.91704: (Sim:0h32m34s) 
CPU  0 inst:  168000000 cyc:  197948996 now IPC :2.15778: AVG IPC :0.84279: L2-Pf-HR :0.93693: L2-HR :0.91741: (Sim:0h32m42s) 
CPU  0 inst:  169000001 cyc:  198457461 now IPC :1.96671: AVG IPC :0.84568: L2-Pf-HR :0.93718: L2-HR :0.91775: (Sim:0h32m49s) 
CPU  0 inst:  170000003 cyc:  198952496 now IPC :2.02006: AVG IPC :0.84862: L2-Pf-HR :0.93711: L2-HR :0.91775: (Sim:0h32m57s) 
CPU  0 inst:  171000001 cyc:  199408899 now IPC :2.19104: AVG IPC :0.85171: L2-Pf-HR :0.93746: L2-HR :0.91818: (Sim:0h33m5s) 
CPU  0 inst:  172000005 cyc:  200146378 now IPC :1.35598: AVG IPC :0.85358: L2-Pf-HR :0.93724: L2-HR :0.91802: (Sim:0h33m14s) 
CPU  0 inst:  173000000 cyc:  200640988 now IPC :2.02178: AVG IPC :0.85647: L2-Pf-HR :0.93746: L2-HR :0.91830: (Sim:0h33m22s) 
CPU  0 inst:  174000004 cyc:  201118283 now IPC :2.09515: AVG IPC :0.85942: L2-Pf-HR :0.93780: L2-HR :0.91874: (Sim:0h33m30s) 
CPU  0 inst:  175000003 cyc:  201718187 now IPC :1.66693: AVG IPC :0.86184: L2-Pf-HR :0.93754: L2-HR :0.91859: (Sim:0h33m47s) 
CPU  0 inst:  176000003 cyc:  202174868 now IPC :2.18971: AVG IPC :0.86485: L2-Pf-HR :0.93776: L2-HR :0.91888: (Sim:0h34m5s) 
CPU  0 inst:  177000000 cyc:  202623719 now IPC :2.22790: AVG IPC :0.86789: L2-Pf-HR :0.93808: L2-HR :0.91929: (Sim:0h34m21s) 
CPU  0 inst:  178000000 cyc:  203117102 now IPC :2.02682: AVG IPC :0.87071: L2-Pf-HR :0.93834: L2-HR :0.91963: (Sim:0h34m38s) 
CPU  0 inst:  179000002 cyc:  203612639 now IPC :2.01802: AVG IPC :0.87352: L2-Pf-HR :0.93832: L2-HR :0.91965: (Sim:0h34m57s) 
CPU  0 inst:  180000003 cyc:  204082630 now IPC :2.12770: AVG IPC :0.87642: L2-Pf-HR :0.93860: L2-HR :0.92002: (Sim:0h35m13s) 
CPU  0 inst:  181000002 cyc:  204713647 now IPC :1.58474: AVG IPC :0.87862: L2-Pf-HR :0.93839: L2-HR :0.91983: (Sim:0h35m33s) 
CPU  0 inst:  182000004 cyc:  205180034 now IPC :2.14415: AVG IPC :0.88151: L2-Pf-HR :0.93864: L2-HR :0.92015: (Sim:0h35m51s) 
CPU  0 inst:  183000001 cyc:  205713515 now IPC :1.87448: AVG IPC :0.88409: L2-Pf-HR :0.93882: L2-HR :0.92042: (Sim:0h36m8s) 
CPU  0 inst:  184000004 cyc:  206265987 now IPC :1.81005: AVG IPC :0.88659: L2-Pf-HR :0.93869: L2-HR :0.92035: (Sim:0h36m27s) 
CPU  0 inst:  185000002 cyc:  206721577 now IPC :2.19495: AVG IPC :0.88948: L2-Pf-HR :0.93897: L2-HR :0.92070: (Sim:0h36m44s) 
CPU  0 inst:  186000005 cyc:  207215601 now IPC :2.02420: AVG IPC :0.89220: L2-Pf-HR :0.93920: L2-HR :0.92102: (Sim:0h37m1s) 
CPU  0 inst:  187000005 cyc:  207707596 now IPC :2.03254: AVG IPC :0.89492: L2-Pf-HR :0.93920: L2-HR :0.92106: (Sim:0h37m19s) 
CPU  0 inst:  188000004 cyc:  208168602 now IPC :2.16917: AVG IPC :0.89775: L2-Pf-HR :0.93951: L2-HR :0.92145: (Sim:0h37m36s) 
CPU  0 inst:  189000001 cyc:  208802298 now IPC :1.57804: AVG IPC :0.89983: L2-Pf-HR :0.93931: L2-HR :0.92130: (Sim:0h37m55s) 
CPU  0 inst:  190000000 cyc:  209286124 now IPC :2.06686: AVG IPC :0.90254: L2-Pf-HR :0.93948: L2-HR :0.92154: (Sim:0h38m14s) 
CPU  0 inst:  191000005 cyc:  209777003 now IPC :2.03717: AVG IPC :0.90520: L2-Pf-HR :0.93975: L2-HR :0.92188: (Sim:0h38m31s) 
CPU  0 inst:  192000001 cyc:  210365923 now IPC :1.69802: AVG IPC :0.90743: L2-Pf-HR :0.93957: L2-HR :0.92179: (Sim:0h38m50s) 
CPU  0 inst:  193000005 cyc:  210829917 now IPC :2.15521: AVG IPC :0.91019: L2-Pf-HR :0.93980: L2-HR :0.92207: (Sim:0h39m8s) 
CPU  0 inst:  194000003 cyc:  211284501 now IPC :2.19981: AVG IPC :0.91298: L2-Pf-HR :0.94010: L2-HR :0.92244: (Sim:0h39m24s) 
CPU  0 inst:  195000003 cyc:  211796185 now IPC :1.95433: AVG IPC :0.91551: L2-Pf-HR :0.94015: L2-HR :0.92256: (Sim:0h39m42s) 
CPU  0 inst:  196000004 cyc:  212275433 now IPC :2.08660: AVG IPC :0.91816: L2-Pf-HR :0.94028: L2-HR :0.92274: (Sim:0h40m0s) 
CPU  0 inst:  197000005 cyc:  212746844 now IPC :2.12129: AVG IPC :0.92084: L2-Pf-HR :0.94055: L2-HR :0.92307: (Sim:0h40m16s) 
CPU  0 inst:  198000000 cyc:  213385965 now IPC :1.56464: AVG IPC :0.92278: L2-Pf-HR :0.94028: L2-HR :0.92284: (Sim:0h40m36s) 
CPU  0 inst:  199000001 cyc:  213854239 now IPC :2.13550: AVG IPC :0.92545: L2-Pf-HR :0.94049: L2-HR :0.92311: (Sim:0h40m54s) 
CPU  0 inst:  200000000 cyc:  214386691 now IPC :1.87810: AVG IPC :0.92782: L2-Pf-HR :0.94064: L2-HR :0.92333: (Sim:0h41m11s) 
CPU  0 inst:  201000003 cyc:  214926446 now IPC :1.85270: AVG IPC :0.93016: L2-Pf-HR :0.94053: L2-HR :0.92328: (Sim:0h41m19s) 
CPU  0 inst:  202000000 cyc:  215381992 now IPC :2.19516: AVG IPC :0.93285: L2-Pf-HR :0.94077: L2-HR :0.92358: (Sim:0h41m27s) 
CPU  0 inst:  203000005 cyc:  215871576 now IPC :2.04256: AVG IPC :0.93537: L2-Pf-HR :0.94098: L2-HR :0.92385: (Sim:0h41m35s) 
CPU  0 inst:  204000005 cyc:  216363778 now IPC :2.03169: AVG IPC :0.93788: L2-Pf-HR :0.94096: L2-HR :0.92387: (Sim:0h41m43s) 
CPU  0 inst:  205000005 cyc:  216835556 now IPC :2.11964: AVG IPC :0.94046: L2-Pf-HR :0.94127: L2-HR :0.92424: (Sim:0h41m50s) 
CPU  0 inst:  206000001 cyc:  217476670 now IPC :1.55978: AVG IPC :0.94230: L2-Pf-HR :0.94104: L2-HR :0.92401: (Sim:0h41m59s) 
CPU  0 inst:  207000001 cyc:  217959614 now IPC :2.07063: AVG IPC :0.94481: L2-Pf-HR :0.94120: L2-HR :0.92422: (Sim:0h42m7s) 
CPU  0 inst:  208000000 cyc:  218492050 now IPC :1.87816: AVG IPC :0.94709: L2-Pf-HR :0.94136: L2-HR :0.92444: (Sim:0h42m15s) 
CPU  0 inst:  209000005 cyc:  219032715 now IPC :1.84958: AVG IPC :0.94933: L2-Pf-HR :0.94122: L2-HR :0.92436: (Sim:0h42m25s) 
CPU  0 inst:  210000003 cyc:  219494519 now IPC :2.16542: AVG IPC :0.95190: L2-Pf-HR :0.94141: L2-HR :0.92461: (Sim:0h42m43s) 
CPU  0 inst:  211000003 cyc:  219956434 now IPC :2.16490: AVG IPC :0.95446: L2-Pf-HR :0.94170: L2-HR :0.92496: (Sim:0h43m0s) 
CPU  0 inst:  212000000 cyc:  220465696 now IPC :1.96362: AVG IPC :0.95680: L2-Pf-HR :0.94162: L2-HR :0.92493: (Sim:0h43m18s) 
CPU  0 inst:  213000002 cyc:  220927472 now IPC :2.16556: AVG IPC :0.95934: L2-Pf-HR :0.94185: L2-HR :0.92520: (Sim:0h43m36s) 
CPU  0 inst:  214000003 cyc:  221403819 now IPC :2.09931: AVG IPC :0.96180: L2-Pf-HR :0.94208: L2-HR :0.92549: (Sim:0h43m51s) 
CPU  0 inst:  215000002 cyc:  222059707 now IPC :1.52465: AVG IPC :0.96347: L2-Pf-HR :0.94180: L2-HR :0.92523: (Sim:0h44m0s) 
CPU  0 inst:  216000000 cyc:  222520507 now IPC :2.17013: AVG IPC :0.96598: L2-Pf-HR :0.94199: L2-HR :0.92548: (Sim:0h44m7s) 
CPU  0 inst:  217000005 cyc:  223055051 now IPC :1.87076: AVG IPC :0.96816: L2-Pf-HR :0.94212: L2-HR :0.92567: (Sim:0h44m15s) 
CPU  0 inst:  218000000 cyc:  223595489 now IPC :1.85034: AVG IPC :0.97030: L2-Pf-HR :0.94200: L2-HR :0.92559: (Sim:0h44m30s) 
CPU  0 inst:  219000005 cyc:  224052594 now IPC :2.18769: AVG IPC :0.97280: L2-Pf-HR :0.94224: L2-HR :0.92588: (Sim:0h44m47s) 
CPU  0 inst:  220000005 cyc:  224539696 now IPC :2.05296: AVG IPC :0.97515: L2-Pf-HR :0.94240: L2-HR :0.92611: (Sim:0h45m4s) 
CPU  0 inst:  221000000 cyc:  225034559 now IPC :2.02075: AVG IPC :0.97746: L2-Pf-HR :0.94239: L2-HR :0.92612: (Sim:0h45m22s) 
CPU  0 inst:  222000004 cyc:  225507467 now IPC :2.11458: AVG IPC :0.97985: L2-Pf-HR :0.94260: L2-HR :0.92638: (Sim:0h45m38s) 
CPU  0 inst:  223000004 cyc:  226164029 now IPC :1.52309: AVG IPC :0.98144: L2-Pf-HR :0.94240: L2-HR :0.92620: (Sim:0h45m57s) 
CPU  0 inst:  224000001 cyc:  226635054 now IPC :2.12302: AVG IPC :0.98382: L2-Pf-HR :0.94256: L2-HR :0.92640: (Sim:0h46m14s) 
CPU  0 inst:  225000003 cyc:  227165259 now IPC :1.88607: AVG IPC :0.98594: L2-Pf-HR :0.94269: L2-HR :0.92659: (Sim:0h46m31s) 
CPU  0 inst:  226000004 cyc:  227697592 now IPC :1.87853: AVG IPC :0.98803: L2-Pf-HR :0.94259: L2-HR :0.92652: (Sim:0h46m49s) 
CPU  0 inst:  227000002 cyc:  228161020 now IPC :2.15783: AVG IPC :0.99042: L2-Pf-HR :0.94278: L2-HR :0.92675: (Sim:0h47m6s) 
CPU  0 inst:  228000000 cyc:  228629077 now IPC :2.13649: AVG IPC :0.99277: L2-Pf-HR :0.94304: L2-HR :0.92707: (Sim:0h47m22s) 
CPU  0 inst:  229000003 cyc:  229125670 now IPC :2.01373: AVG IPC :0.99500: L2-Pf-HR :0.94294: L2-HR :0.92700: (Sim:0h47m40s) 
CPU  0 inst:  230000003 cyc:  229587298 now IPC :2.16625: AVG IPC :0.99736: L2-Pf-HR :0.94315: L2-HR :0.92726: (Sim:0h47m57s) 
CPU  0 inst:  231000000 cyc:  230135367 now IPC :1.82458: AVG IPC :0.99934: L2-Pf-HR :0.94323: L2-HR :0.92737: (Sim:0h48m13s) 
CPU  0 inst:  232000005 cyc:  230731761 now IPC :1.67675: AVG IPC :1.00110: L2-Pf-HR :0.94311: L2-HR :0.92726: (Sim:0h48m33s) 
CPU  0 inst:  233000000 cyc:  231191713 now IPC :2.17413: AVG IPC :1.00344: L2-Pf-HR :0.94329: L2-HR :0.92749: (Sim:0h48m49s) 
CPU  0 inst:  234000005 cyc:  231725676 now IPC :1.87280: AVG IPC :1.00545: L2-Pf-HR :0.94343: L2-HR :0.92767: (Sim:0h49m6s) 
CPU  0 inst:  235000000 cyc:  232264441 now IPC :1.85609: AVG IPC :1.00744: L2-Pf-HR :0.94332: L2-HR :0.92758: (Sim:0h49m25s) 
CPU  0 inst:  236000002 cyc:  232727759 now IPC :2.15835: AVG IPC :1.00974: L2-Pf-HR :0.94353: L2-HR :0.92783: (Sim:0h49m41s) 
CPU  0 inst:  237000000 cyc:  233223601 now IPC :2.01677: AVG IPC :1.01189: L2-Pf-HR :0.94370: L2-HR :0.92805: (Sim:0h49m56s) 
CPU  0 inst:  238000003 cyc:  233719721 now IPC :2.01565: AVG IPC :1.01403: L2-Pf-HR :0.94368: L2-HR :0.92805: (Sim:0h50m13s) 
CPU  0 inst:  239000000 cyc:  234196297 now IPC :2.09829: AVG IPC :1.01624: L2-Pf-HR :0.94387: L2-HR :0.92828: (Sim:0h50m28s) 
CPU  0 inst:  240000003 cyc:  234829289 now IPC :1.57980: AVG IPC :1.01777: L2-Pf-HR :0.94370: L2-HR :0.92813: (Sim:0h50m46s) 
CPU  0 inst:  241000001 cyc:  235293084 now IPC :2.15612: AVG IPC :1.02002: L2-Pf-HR :0.94385: L2-HR :0.92832: (Sim:0h51m1s) 
CPU  0 inst:  242000004 cyc:  235824172 now IPC :1.88293: AVG IPC :1.02197: L2-Pf-HR :0.94395: L2-HR :0.92848: (Sim:0h51m17s) 
CPU  0 inst:  243000000 cyc:  236374990 now IPC :1.81547: AVG IPC :1.02383: L2-Pf-HR :0.94384: L2-HR :0.92841: (Sim:0h51m34s) 
CPU  0 inst:  244000003 cyc:  236838829 now IPC :2.15593: AVG IPC :1.02606: L2-Pf-HR :0.94402: L2-HR :0.92863: (Sim:0h51m50s) 
CPU  0 inst:  245000000 cyc:  237332118 now IPC :2.02720: AVG IPC :1.02814: L2-Pf-HR :0.94419: L2-HR :0.92885: (Sim:0h52m6s) 
CPU  0 inst:  246000005 cyc:  237820616 now IPC :2.04710: AVG IPC :1.03025: L2-Pf-HR :0.94417: L2-HR :0.92885: (Sim:0h52m22s) 
CPU  0 inst:  247000000 cyc:  238280440 now IPC :2.17473: AVG IPC :1.03246: L2-Pf-HR :0.94436: L2-HR :0.92908: (Sim:0h52m38s) 
CPU  0 inst:  248000004 cyc:  238909337 now IPC :1.59009: AVG IPC :1.03394: L2-Pf-HR :0.94425: L2-HR :0.92897: (Sim:0h52m57s) 
CPU  0 inst:  249000003 cyc:  239406906 now IPC :2.00977: AVG IPC :1.03597: L2-Pf-HR :0.94433: L2-HR :0.92908: (Sim:0h53m13s) 
CPU  0 inst:  250000005 cyc:  239870225 now IPC :2.15834: AVG IPC :1.03815: L2-Pf-HR :0.94449: L2-HR :0.92928: (Sim:0h53m29s) 
CPU  0 inst:  251000004 cyc:  240398659 now IPC :1.89238: AVG IPC :1.04004: L2-Pf-HR :0.94461: L2-HR :0.92945: (Sim:0h53m45s) 
CPU  0 inst:  252000002 cyc:  240945183 now IPC :1.82974: AVG IPC :1.04184: L2-Pf-HR :0.94446: L2-HR :0.92935: (Sim:0h54m4s) 
CPU  0 inst:  253000000 cyc:  241395603 now IPC :2.22015: AVG IPC :1.04404: L2-Pf-HR :0.94466: L2-HR :0.92959: (Sim:0h54m19s) 
CPU  0 inst:  254000005 cyc:  241888941 now IPC :2.02702: AVG IPC :1.04606: L2-Pf-HR :0.94480: L2-HR :0.92977: (Sim:0h54m35s) 
CPU  0 inst:  255000003 cyc:  242386754 now IPC :2.00878: AVG IPC :1.04804: L2-Pf-HR :0.94477: L2-HR :0.92976: (Sim:0h54m52s) 
CPU  0 inst:  256000004 cyc:  242861132 now IPC :2.10803: AVG IPC :1.05012: L2-Pf-HR :0.94494: L2-HR :0.92997: (Sim:0h55m8s) 
CPU  0 inst:  257000003 cyc:  243501553 now IPC :1.56147: AVG IPC :1.05147: L2-Pf-HR :0.94475: L2-HR :0.92981: (Sim:0h55m26s) 
CPU  0 inst:  258000001 cyc:  243965792 now IPC :2.15406: AVG IPC :1.05358: L2-Pf-HR :0.94489: L2-HR :0.92998: (Sim:0h55m43s) 
CPU  0 inst:  259000003 cyc:  244504987 now IPC :1.85462: AVG IPC :1.05535: L2-Pf-HR :0.94499: L2-HR :0.93012: (Sim:0h55m59s) 
CPU  0 inst:  260000001 cyc:  245048035 now IPC :1.84145: AVG IPC :1.05710: L2-Pf-HR :0.94493: L2-HR :0.93007: (Sim:0h56m17s) 
CPU  0 inst:  261000002 cyc:  245513024 now IPC :2.15059: AVG IPC :1.05918: L2-Pf-HR :0.94508: L2-HR :0.93026: (Sim:0h56m34s) 
CPU  0 inst:  262000004 cyc:  246003038 now IPC :2.04076: AVG IPC :1.06114: L2-Pf-HR :0.94523: L2-HR :0.93046: (Sim:0h56m49s) 
CPU  0 inst:  263000000 cyc:  246491053 now IPC :2.04911: AVG IPC :1.06311: L2-Pf-HR :0.94520: L2-HR :0.93045: (Sim:0h57m6s) 
CPU  0 inst:  264000003 cyc:  246951070 now IPC :2.17384: AVG IPC :1.06518: L2-Pf-HR :0.94539: L2-HR :0.93067: (Sim:0h57m22s) 
CPU  0 inst:  265000003 cyc:  247579668 now IPC :1.59084: AVG IPC :1.06652: L2-Pf-HR :0.94526: L2-HR :0.93055: (Sim:0h57m41s) 
CPU  0 inst:  266000001 cyc:  248073262 now IPC :2.02595: AVG IPC :1.06844: L2-Pf-HR :0.94534: L2-HR :0.93067: (Sim:0h57m58s) 
CPU  0 inst:  267000000 cyc:  248540049 now IPC :2.14230: AVG IPC :1.07047: L2-Pf-HR :0.94549: L2-HR :0.93086: (Sim:0h58m14s) 
CPU  0 inst:  268000000 cyc:  249098934 now IPC :1.78928: AVG IPC :1.07208: L2-Pf-HR :0.94553: L2-HR :0.93093: (Sim:0h58m30s) 
CPU  0 inst:  269000002 cyc:  249616136 now IPC :1.93348: AVG IPC :1.07388: L2-Pf-HR :0.94550: L2-HR :0.93094: (Sim:0h58m49s) 
CPU  0 inst:  270000001 cyc:  250066035 now IPC :2.22272: AVG IPC :1.07595: L2-Pf-HR :0.94569: L2-HR :0.93116: (Sim:0h59m5s) 
CPU  0 inst:  271000005 cyc:  250558576 now IPC :2.03030: AVG IPC :1.07783: L2-Pf-HR :0.94581: L2-HR :0.93132: (Sim:0h59m21s) 
CPU  0 inst:  272000000 cyc:  251059545 now IPC :1.99612: AVG IPC :1.07967: L2-Pf-HR :0.94578: L2-HR :0.93131: (Sim:0h59m37s) 
CPU  0 inst:  273000000 cyc:  251535334 now IPC :2.10177: AVG IPC :1.08162: L2-Pf-HR :0.94594: L2-HR :0.93150: (Sim:0h59m53s) 
CPU  0 inst:  274000002 cyc:  252179579 now IPC :1.55221: AVG IPC :1.08282: L2-Pf-HR :0.94578: L2-HR :0.93135: (Sim:1h0m12s) 
CPU  0 inst:  275000003 cyc:  252641963 now IPC :2.16271: AVG IPC :1.08481: L2-Pf-HR :0.94590: L2-HR :0.93150: (Sim:1h0m28s) 
CPU  0 inst:  276000003 cyc:  253183428 now IPC :1.84684: AVG IPC :1.08644: L2-Pf-HR :0.94599: L2-HR :0.93162: (Sim:1h0m44s) 
CPU  0 inst:  277000002 cyc:  253734686 now IPC :1.81403: AVG IPC :1.08803: L2-Pf-HR :0.94589: L2-HR :0.93155: (Sim:1h1m2s) 
CPU  0 inst:  278000000 cyc:  254189819 now IPC :2.19716: AVG IPC :1.09002: L2-Pf-HR :0.94605: L2-HR :0.93174: (Sim:1h1m18s) 
CPU  0 inst:  279000002 cyc:  254674531 now IPC :2.06308: AVG IPC :1.09188: L2-Pf-HR :0.94617: L2-HR :0.93192: (Sim:1h1m34s) 
CPU  0 inst:  280000001 cyc:  255163526 now IPC :2.04501: AVG IPC :1.09372: L2-Pf-HR :0.94616: L2-HR :0.93192: (Sim:1h1m42s) 
CPU  0 inst:  281000000 cyc:  255620544 now IPC :2.18810: AVG IPC :1.09568: L2-Pf-HR :0.94635: L2-HR :0.93214: (Sim:1h1m49s) 
CPU  0 inst:  282000000 cyc:  256261456 now IPC :1.56028: AVG IPC :1.09685: L2-Pf-HR :0.94619: L2-HR :0.93199: (Sim:1h2m0s) 
CPU  0 inst:  283000004 cyc:  256751499 now IPC :2.04065: AVG IPC :1.09865: L2-Pf-HR :0.94627: L2-HR :0.93210: (Sim:1h2m8s) 
CPU  0 inst:  284000001 cyc:  257224820 now IPC :2.11272: AVG IPC :1.10053: L2-Pf-HR :0.94643: L2-HR :0.93229: (Sim:1h2m16s) 
CPU  0 inst:  285000002 cyc:  257809805 now IPC :1.70945: AVG IPC :1.10191: L2-Pf-HR :0.94631: L2-HR :0.93220: (Sim:1h2m24s) 
CPU  0 inst:  286000001 cyc:  258296591 now IPC :2.05429: AVG IPC :1.10372: L2-Pf-HR :0.94640: L2-HR :0.93231: (Sim:1h2m33s) 
CPU  0 inst:  287000005 cyc:  258745031 now IPC :2.22996: AVG IPC :1.10568: L2-Pf-HR :0.94657: L2-HR :0.93252: (Sim:1h2m43s) 
CPU  0 inst:  288000004 cyc:  259229866 now IPC :2.06256: AVG IPC :1.10747: L2-Pf-HR :0.94668: L2-HR :0.93267: (Sim:1h2m51s) 
CPU  0 inst:  289000001 cyc:  259725093 now IPC :2.01927: AVG IPC :1.10922: L2-Pf-HR :0.94665: L2-HR :0.93264: (Sim:1h3m0s) 
CPU  0 inst:  290000001 cyc:  260195795 now IPC :2.12449: AVG IPC :1.11106: L2-Pf-HR :0.94679: L2-HR :0.93281: (Sim:1h3m7s) 
CPU  0 inst:  291000000 cyc:  260842122 now IPC :1.54720: AVG IPC :1.11215: L2-Pf-HR :0.94661: L2-HR :0.93263: (Sim:1h3m16s) 
CPU  0 inst:  292000002 cyc:  261310753 now IPC :2.13388: AVG IPC :1.11399: L2-Pf-HR :0.94672: L2-HR :0.93277: (Sim:1h3m24s) 
CPU  0 inst:  293000005 cyc:  261844416 now IPC :1.87385: AVG IPC :1.11554: L2-Pf-HR :0.94680: L2-HR :0.93289: (Sim:1h3m32s) 
CPU  0 inst:  294000002 cyc:  262382039 now IPC :1.86003: AVG IPC :1.11707: L2-Pf-HR :0.94670: L2-HR :0.93281: (Sim:1h3m41s) 
CPU  0 inst:  295000001 cyc:  262835458 now IPC :2.20546: AVG IPC :1.11896: L2-Pf-HR :0.94684: L2-HR :0.93298: (Sim:1h3m48s) 
Finished CPU 0 instr: 293000000 cyc: 261851343 AVG IPC: 1.11896 (Sim time: 1h3m48s)

ChampSim completed all CPUs

[ROI Statistics]
Core_0_instructions 293000000
Core_0_cycles 261851343
Core_0_IPC 1.11896

Core_0_branch_prediction_accuracy 98.23791
Core_0_branch_MPKI 0.42863
Core_0_average_ROB_occupancy_at_mispredict 572.51939

Core_0_L1D_total_access 158330591
Core_0_L1D_total_hit 152156509 L1D_total_Hit Ratio: 0.96101
Core_0_L1D_total_miss 6174082
Core_0_L1D_loads 61847296
Core_0_L1D_load_hit 58325491 L1D_load_Hit Ratio: 0.94306
Core_0_L1D_load_miss 3521805
Core_0_L1D_RFOs 5959153
Core_0_L1D_RFO_hit 5663742 L1D_RFO_Hit Ratio: 0.95043
Core_0_L1D_RFO_miss 295411
Core_0_L1D_prefetches 90524142
Core_0_L1D_prefetch_hit 88167276 L1D_prefetch_Hit Ratio: 0.97396
Core_0_L1D_prefetch_miss 2356866
Core_0_L1D_writebacks 0
Core_0_L1D_writeback_hit 0 L1D_writeback_Hit Ratio: -nan
Core_0_L1D_writeback_miss 0
Core_0_L1D_prefetch_requested 188862483
Core_0_L1D_prefetch_issued 110480964
Core_0_L1D_prefetch_useful 1854650 L1D_Useful Ratio: 0.01679
Core_0_L1D_prefetch_useless 518411
Core_0_L1D_prefetch_late 452037
Core_0_L1D_average_miss_latency 10794456.26727

Core_0_L1I_total_access 37383843
Core_0_L1I_total_hit 37379000 L1I_total_Hit Ratio: 0.99987
Core_0_L1I_total_miss 4843
Core_0_L1I_loads 37383843
Core_0_L1I_load_hit 37379000 L1I_load_Hit Ratio: 0.99987
Core_0_L1I_load_miss 4843
Core_0_L1I_RFOs 0
Core_0_L1I_RFO_hit 0 L1I_RFO_Hit Ratio: -nan
Core_0_L1I_RFO_miss 0
Core_0_L1I_prefetches 0
Core_0_L1I_prefetch_hit 0 L1I_prefetch_Hit Ratio: -nan
Core_0_L1I_prefetch_miss 0
Core_0_L1I_writebacks 0
Core_0_L1I_writeback_hit 0 L1I_writeback_Hit Ratio: -nan
Core_0_L1I_writeback_miss 0
Core_0_L1I_prefetch_requested 0
Core_0_L1I_prefetch_issued 0
Core_0_L1I_prefetch_useful 0 L1I_Useful Ratio: -nan
Core_0_L1I_prefetch_useless 0
Core_0_L1I_prefetch_late 0
Core_0_L1I_average_miss_latency 336.48255

Core_0_L2C_total_access 30003974
Core_0_L2C_total_hit 27993143 L2C_total_Hit Ratio: 0.93298
Core_0_L2C_total_miss 2010831
Core_0_L2C_loads 3075933
Core_0_L2C_load_hit 2578848 L2C_load_Hit Ratio: 0.83840
Core_0_L2C_load_miss 497085
Core_0_L2C_RFOs 295343
Core_0_L2C_RFO_hit 113282 L2C_RFO_Hit Ratio: 0.38356
Core_0_L2C_RFO_miss 182061
Core_0_L2C_prefetches 25043501
Core_0_L2C_prefetch_hit 23712184 L2C_prefetch_Hit Ratio: 0.94684
Core_0_L2C_prefetch_miss 1331317
Core_0_L2C_writebacks 1589197
Core_0_L2C_writeback_hit 1588829 L2C_writeback_Hit Ratio: 0.99977
Core_0_L2C_writeback_miss 368
Core_0_L2C_prefetch_requested 56994868
Core_0_L2C_prefetch_issued 32843653
Core_0_L2C_prefetch_useful 531141 L2C_Useful Ratio: 0.01617
Core_0_L2C_prefetch_useless 806869
Core_0_L2C_prefetch_late 233858
Core_0_L2C_average_miss_latency 298.46180

Core_0_LLC_total_access 3095272
Core_0_LLC_total_hit 1498043 LLC_total_Hit Ratio: 0.48398
Core_0_LLC_total_miss 1597229
Core_0_LLC_loads 263240
Core_0_LLC_load_hit 93161 LLC_load_Hit Ratio: 0.35390
Core_0_LLC_load_miss 170079
Core_0_LLC_RFOs 182061
Core_0_LLC_RFO_hit 2242 LLC_RFO_Hit Ratio: 0.01231
Core_0_LLC_RFO_miss 179819
Core_0_LLC_prefetches 1599944
Core_0_LLC_prefetch_hit 368011 LLC_prefetch_Hit Ratio: 0.23001
Core_0_LLC_prefetch_miss 1231933
Core_0_LLC_writebacks 1050027
Core_0_LLC_writeback_hit 1034629 LLC_writeback_Hit Ratio: 0.98534
Core_0_LLC_writeback_miss 15398
Core_0_LLC_prefetch_requested 0
Core_0_LLC_prefetch_issued 0
Core_0_LLC_prefetch_useful 57746 LLC_Useful Ratio: inf
Core_0_LLC_prefetch_useless 1152920
Core_0_LLC_prefetch_late 9852
Core_0_LLC_average_miss_latency 372.38996

Core_0_major_page_fault 0
Core_0_minor_page_fault 13331

CPU 0 L1D next line prefetcher final stats
CPU 0 L2C PC-based stride prefetcher final stats
Stride Degree: 15
MK1  MARKOV_LRU_SIZE: 128
MK1  MARKOV_PREDICTION_PERCENTTHRESHOLD: 40.00000
MK1  OUTLIERS_THRESHOLD_Max: 64
MK1  OUTLIERS_THRESHOLD_Min: 32
MK2  MARKOV_LRU_SIZE: 256
MK2  MARKOV_PREDICTION_PERCENTTHRESHOLD: 30.00000
MK2  OUTLIERS_THRESHOLD_Max: 32
MK2  OUTLIERS_THRESHOLD_Min: 16
MK3  MARKOV_LRU_SIZE: 384
MK3  MARKOV_PREDICTION_PERCENTTHRESHOLD: 25.00000
MK3  OUTLIERS_THRESHOLD_Max: 16
MK3  OUTLIERS_THRESHOLD_Min: 8
MK4  MARKOV_LRU_SIZE: 512
MK4  MARKOV_PREDICTION_PERCENTTHRESHOLD: 20.00000
MK4  OUTLIERS_THRESHOLD_Max: 8
MK4  OUTLIERS_THRESHOLD_Min: 0
IPStride Degree/Access Ratio: 7.38472
MK1 IPDEltaMarkov  Degree/Access Ratio: 0.19574
MK2 IPDEltaMarkov  Degree/Access Ratio: 0.34549
MK3 IPDEltaMarkov  Degree/Access Ratio: 0.59710
MK4 IPDEltaMarkov  Degree/Access Ratio: 1.60024
Channel_0_RQ_row_buffer_hit 869321
Channel_0_RQ_row_buffer_miss 712498
Channel_0_WQ_row_buffer_hit 276433
Channel_0_WQ_row_buffer_miss 587648
Channel_0_WQ_full 792
Channel_0_dbus_congested 1615197

avg_congested_cycle 11

EzSearch AVG IPC :1.11896: L2-Pf-HR :0.94684 : L2-HR :0.93298 Uful:0.01617
     > Finished combination: TraceType=770-tot Sim:293000000 Prefetcher=L2029-SecTOP-L2-MultiMarkovDelta_ip_stride_v4-MK2-P30 L1=next_line
