TRACE: [42000000]_FE_[OPT-350M]_[h16]_[s256]_[d64] Warmup: 2000000 NumTraces: 42000000
L1:bingo_dpc3_PHT1k:L2:bingo_dpc3_PHT1k
*************************************************
   ChampSim Multicore Out-of-Order Simulator
   Last compiled: Oct 27 2024 13:24:29
*************************************************

trace_0 770-tot_memTraces_v3/memTraces[42000000]_FE_[OPT-350M]_[h16]_[s256]_[d64].champsim.xz
Bingo PHT WAYS: 16 and PHT_SIZE: 1024
Bingo2 PHT WAYS: 16 and PHT_SIZE: 1024
MAIN.cc ln 751 stats print skipped
CPU  0 inst:    1000002 cyc:     500615 now IPC :1.99755: AVG IPC :1.99755: L2-Pf-HR :0.79701: L2-HR :0.67285: (Sim:0h0m18s) 
CPU  0 inst:    2000000 cyc:     987842 now IPC :2.05243: AVG IPC :2.02462: L2-Pf-HR :0.80573: L2-HR :0.74311: (Sim:0h0m38s) 

Warmup complete CPU  0 instructions:    2000002 cycles:     987843 (Simulation time: 0 hr 0 min 38 sec) 

CPU  0 inst:    3000003 cyc:    1594377 now IPC :1.64871: AVG IPC :1.64871: L2-Pf-HR :0.82349: L2-HR :0.80549: (Sim:0h0m54s) 
CPU  0 inst:    4000003 cyc:    2164678 now IPC :1.75346: AVG IPC :1.69947: L2-Pf-HR :0.81588: L2-HR :0.81129: (Sim:0h1m11s) 
CPU  0 inst:    5000002 cyc:    2729468 now IPC :1.77057: AVG IPC :1.72253: L2-Pf-HR :0.81017: L2-HR :0.81205: (Sim:0h1m24s) 
CPU  0 inst:    6000000 cyc:    3316082 now IPC :1.70470: AVG IPC :1.71804: L2-Pf-HR :0.80634: L2-HR :0.81087: (Sim:0h1m32s) 
CPU  0 inst:    7000002 cyc:    3873410 now IPC :1.79428: AVG IPC :1.73276: L2-Pf-HR :0.80942: L2-HR :0.81444: (Sim:0h1m40s) 
CPU  0 inst:    8000003 cyc:    4431227 now IPC :1.79270: AVG IPC :1.74247: L2-Pf-HR :0.81015: L2-HR :0.81612: (Sim:0h1m48s) 
CPU  0 inst:    9000005 cyc:    5018932 now IPC :1.70154: AVG IPC :1.73650: L2-Pf-HR :0.81098: L2-HR :0.81662: (Sim:0h1m56s) 
CPU  0 inst:   10000004 cyc:    5641587 now IPC :1.60602: AVG IPC :1.71905: L2-Pf-HR :0.80299: L2-HR :0.81178: (Sim:0h2m4s) 
CPU  0 inst:   11000002 cyc:    6257344 now IPC :1.62401: AVG IPC :1.70794: L2-Pf-HR :0.80593: L2-HR :0.81416: (Sim:0h2m12s) 
CPU  0 inst:   12000004 cyc:    6837820 now IPC :1.72273: AVG IPC :1.70941: L2-Pf-HR :0.80928: L2-HR :0.81717: (Sim:0h2m20s) 
CPU  0 inst:   13000005 cyc:    7459000 now IPC :1.60984: AVG IPC :1.69985: L2-Pf-HR :0.80972: L2-HR :0.81719: (Sim:0h2m29s) 
CPU  0 inst:   14000001 cyc:    8084266 now IPC :1.59931: AVG IPC :1.69099: L2-Pf-HR :0.80937: L2-HR :0.81633: (Sim:0h2m47s) 
CPU  0 inst:   15000000 cyc:    8716180 now IPC :1.58249: AVG IPC :1.68212: L2-Pf-HR :0.80867: L2-HR :0.81537: (Sim:0h3m5s) 
CPU  0 inst:   16000002 cyc:    9328881 now IPC :1.63212: AVG IPC :1.67845: L2-Pf-HR :0.80980: L2-HR :0.81652: (Sim:0h3m22s) 
CPU  0 inst:   17000003 cyc:    9991174 now IPC :1.50991: AVG IPC :1.66605: L2-Pf-HR :0.81053: L2-HR :0.81627: (Sim:0h3m39s) 
CPU  0 inst:   18000001 cyc:   14215240 now IPC :0.23674: AVG IPC :1.20961: L2-Pf-HR :0.74964: L2-HR :0.74465: (Sim:0h4m17s) 
CPU  0 inst:   19000000 cyc:   17600536 now IPC :0.29539: AVG IPC :1.02331: L2-Pf-HR :0.71454: L2-HR :0.72963: (Sim:0h4m45s) 
CPU  0 inst:   20000000 cyc:   20986094 now IPC :0.29537: AVG IPC :0.90008: L2-Pf-HR :0.68256: L2-HR :0.71565: (Sim:0h5m14s) 
CPU  0 inst:   21000000 cyc:   24371735 now IPC :0.29537: AVG IPC :0.81253: L2-Pf-HR :0.65333: L2-HR :0.70263: (Sim:0h5m42s) 
CPU  0 inst:   22000000 cyc:   27757613 now IPC :0.29534: AVG IPC :0.74711: L2-Pf-HR :0.62649: L2-HR :0.69046: (Sim:0h6m9s) 
CPU  0 inst:   23000000 cyc:   31143673 now IPC :0.29533: AVG IPC :0.69638: L2-Pf-HR :0.60177: L2-HR :0.67907: (Sim:0h6m37s) 
CPU  0 inst:   24000000 cyc:   34531103 now IPC :0.29521: AVG IPC :0.65587: L2-Pf-HR :0.57893: L2-HR :0.66838: (Sim:0h7m5s) 
CPU  0 inst:   25000000 cyc:   37921761 now IPC :0.29493: AVG IPC :0.62273: L2-Pf-HR :0.55776: L2-HR :0.65834: (Sim:0h7m33s) 
CPU  0 inst:   26000001 cyc:   41061959 now IPC :0.31845: AVG IPC :0.59889: L2-Pf-HR :0.54235: L2-HR :0.65084: (Sim:0h7m59s) 
CPU  0 inst:   27000000 cyc:   41677393 now IPC :1.62487: AVG IPC :0.61441: L2-Pf-HR :0.56151: L2-HR :0.67096: (Sim:0h8m20s) 
CPU  0 inst:   28000002 cyc:   42280633 now IPC :1.65772: AVG IPC :0.62965: L2-Pf-HR :0.57792: L2-HR :0.68840: (Sim:0h8m41s) 
CPU  0 inst:   29000005 cyc:   42867252 now IPC :1.70469: AVG IPC :0.64471: L2-Pf-HR :0.59407: L2-HR :0.70444: (Sim:0h9m1s) 
CPU  0 inst:   30000002 cyc:   43441225 now IPC :1.74224: AVG IPC :0.65955: L2-Pf-HR :0.60768: L2-HR :0.71828: (Sim:0h9m22s) 
CPU  0 inst:   31000003 cyc:   44047613 now IPC :1.64911: AVG IPC :0.67348: L2-Pf-HR :0.61929: L2-HR :0.72995: (Sim:0h9m42s) 
CPU  0 inst:   32000003 cyc:   44650905 now IPC :1.65757: AVG IPC :0.68708: L2-Pf-HR :0.62982: L2-HR :0.74031: (Sim:0h10m2s) 
CPU  0 inst:   33000003 cyc:   45242018 now IPC :1.69172: AVG IPC :0.70050: L2-Pf-HR :0.63942: L2-HR :0.74958: (Sim:0h10m22s) 
CPU  0 inst:   34000000 cyc:   45820418 now IPC :1.72890: AVG IPC :0.71377: L2-Pf-HR :0.64832: L2-HR :0.75807: (Sim:0h10m43s) 
CPU  0 inst:   35000000 cyc:   46397395 now IPC :1.73317: AVG IPC :0.72672: L2-Pf-HR :0.65720: L2-HR :0.76613: (Sim:0h11m3s) 
CPU  0 inst:   36000004 cyc:   46966766 now IPC :1.75633: AVG IPC :0.73947: L2-Pf-HR :0.66476: L2-HR :0.77315: (Sim:0h11m24s) 
CPU  0 inst:   37000001 cyc:   47545278 now IPC :1.72857: AVG IPC :0.75176: L2-Pf-HR :0.67144: L2-HR :0.77937: (Sim:0h11m43s) 
CPU  0 inst:   38000003 cyc:   48123394 now IPC :1.72976: AVG IPC :0.76375: L2-Pf-HR :0.67761: L2-HR :0.78509: (Sim:0h12m3s) 
CPU  0 inst:   39000005 cyc:   48692992 now IPC :1.75563: AVG IPC :0.77560: L2-Pf-HR :0.68344: L2-HR :0.79042: (Sim:0h12m24s) 
Finished CPU 0 instr: 37000003 cyc: 47705149 AVG IPC: 0.77560 (Sim time: 0h12m24s)

ChampSim completed all CPUs

[ROI Statistics]
Core_0_instructions 37000003
Core_0_cycles 47705149
Core_0_IPC 0.77560

Core_0_branch_prediction_accuracy 98.43855
Core_0_branch_MPKI 0.50535
Core_0_average_ROB_occupancy_at_mispredict 342.76842

Core_0_L1D_total_access 11109131
Core_0_L1D_total_hit 9751630 L1D_total_Hit Ratio: 0.87780
Core_0_L1D_total_miss 1357501
Core_0_L1D_loads 9241279
Core_0_L1D_load_hit 8473945 L1D_load_Hit Ratio: 0.91697
Core_0_L1D_load_miss 767334
Core_0_L1D_RFOs 1161853
Core_0_L1D_RFO_hit 1154640 L1D_RFO_Hit Ratio: 0.99379
Core_0_L1D_RFO_miss 7213
Core_0_L1D_prefetches 705999
Core_0_L1D_prefetch_hit 123045 L1D_prefetch_Hit Ratio: 0.17428
Core_0_L1D_prefetch_miss 582954
Core_0_L1D_writebacks 0
Core_0_L1D_writeback_hit 0 L1D_writeback_Hit Ratio: -nan
Core_0_L1D_writeback_miss 0
Core_0_L1D_prefetch_requested 1116961
Core_0_L1D_prefetch_issued 1116961
Core_0_L1D_prefetch_useful 595285 L1D_Useful Ratio: 0.53295
Core_0_L1D_prefetch_useless 14169
Core_0_L1D_prefetch_late 101492
Core_0_L1D_average_miss_latency 2104781.82792

Core_0_L1I_total_access 5036785
Core_0_L1I_total_hit 5032069 L1I_total_Hit Ratio: 0.99906
Core_0_L1I_total_miss 4716
Core_0_L1I_loads 5036785
Core_0_L1I_load_hit 5032069 L1I_load_Hit Ratio: 0.99906
Core_0_L1I_load_miss 4716
Core_0_L1I_RFOs 0
Core_0_L1I_RFO_hit 0 L1I_RFO_Hit Ratio: -nan
Core_0_L1I_RFO_miss 0
Core_0_L1I_prefetches 0
Core_0_L1I_prefetch_hit 0 L1I_prefetch_Hit Ratio: -nan
Core_0_L1I_prefetch_miss 0
Core_0_L1I_writebacks 0
Core_0_L1I_writeback_hit 0 L1I_writeback_Hit Ratio: -nan
Core_0_L1I_writeback_miss 0
Core_0_L1I_prefetch_requested 0
Core_0_L1I_prefetch_issued 0
Core_0_L1I_prefetch_useful 0 L1I_Useful Ratio: -nan
Core_0_L1I_prefetch_useless 0
Core_0_L1I_prefetch_late 0
Core_0_L1I_average_miss_latency 251.54177

Core_0_L2C_total_access 1752183
Core_0_L2C_total_hit 1384963 L2C_total_Hit Ratio: 0.79042
Core_0_L2C_total_miss 367220
Core_0_L2C_loads 671913
Core_0_L2C_load_hit 573260 L2C_load_Hit Ratio: 0.85318
Core_0_L2C_load_miss 98653
Core_0_L2C_RFOs 7089
Core_0_L2C_RFO_hit 2406 L2C_RFO_Hit Ratio: 0.33940
Core_0_L2C_RFO_miss 4683
Core_0_L2C_prefetches 833574
Core_0_L2C_prefetch_hit 569695 L2C_prefetch_Hit Ratio: 0.68344
Core_0_L2C_prefetch_miss 263879
Core_0_L2C_writebacks 239607
Core_0_L2C_writeback_hit 239602 L2C_writeback_Hit Ratio: 0.99998
Core_0_L2C_writeback_miss 5
Core_0_L2C_prefetch_requested 243500
Core_0_L2C_prefetch_issued 243500
Core_0_L2C_prefetch_useful 77006 L2C_Useful Ratio: 0.31625
Core_0_L2C_prefetch_useless 186492
Core_0_L2C_prefetch_late 44809
Core_0_L2C_average_miss_latency 384.11482

Core_0_LLC_total_access 575341
Core_0_LLC_total_hit 206948 LLC_total_Hit Ratio: 0.35970
Core_0_LLC_total_miss 368393
Core_0_LLC_loads 53869
Core_0_LLC_load_hit 4 LLC_load_Hit Ratio: 0.00007
Core_0_LLC_load_miss 53865
Core_0_LLC_RFOs 4683
Core_0_LLC_RFO_hit 1 LLC_RFO_Hit Ratio: 0.00021
Core_0_LLC_RFO_miss 4682
Core_0_LLC_prefetches 308664
Core_0_LLC_prefetch_hit 0 LLC_prefetch_Hit Ratio: 0.00000
Core_0_LLC_prefetch_miss 308664
Core_0_LLC_writebacks 208125
Core_0_LLC_writeback_hit 206943 LLC_writeback_Hit Ratio: 0.99432
Core_0_LLC_writeback_miss 1182
Core_0_LLC_prefetch_requested 0
Core_0_LLC_prefetch_issued 0
Core_0_LLC_prefetch_useful 0 LLC_Useful Ratio: -nan
Core_0_LLC_prefetch_useless 271507
Core_0_LLC_prefetch_late 0
Core_0_LLC_average_miss_latency 378.83973

Core_0_major_page_fault 0
Core_0_minor_page_fault 3913

[Bingo] PHT Access: 149473
[Bingo] PHT Hit PC+Addr: 35870
[Bingo] PHT Hit PC+Offs: 93332
[Bingo] PHT Miss: 20271
[Bingo] Prefetch PC+Addr: 0
[Bingo] Prefetch PC+Offs: 0
[Bingo] Useful PC+Addr: 0
[Bingo] Useful PC+Offs: 0
[Bingo] Useless PC+Addr: 0
[Bingo] Useless PC+Offs: 0
[Bingo] L1 Prefetch per Region: 10.13614
[Bingo] L2 Prefetch per Region: 0.58646
[Bingo] L3 Prefetch per Region: 0.00000
[Bingo] No Prefetch per Region: 21.27740
[Bingo] Number of Voters Mean: 9.06632
[Bingo] Number of Voters SD: 5.92247
PHT read accesses: 2118877
PHT write accesses: 142967
AT read accesses: 8719731
AT write accesses: 8719725
FT read accesses: 1803159
FT write accesses: 149473
PS read accesses: 766480
PS write accesses: 129202
PHT tag read accesses: 6358343
PHT tag write accesses: 178837
AT tag read accesses: 177208780
AT tag write accesses: 8862692
FT tag read accesses: 42225011
FT tag write accesses: 1125724
PS tag read accesses: 154829218
PS tag write accesses: 891145
[Bingo2] PHT Access: 25799
[Bingo2] PHT Hit PC+Addr: 1596
[Bingo2] PHT Hit PC+Offs: 20245
[Bingo2] PHT Miss: 3958
[Bingo2] Prefetch PC+Addr: 0
[Bingo2] Prefetch PC+Offs: 0
[Bingo2] Useful PC+Addr: 0
[Bingo2] Useful PC+Offs: 0
[Bingo2] Useless PC+Addr: 0
[Bingo2] Useless PC+Offs: 0
[Bingo2] L1 Prefetch per Region: 0.00000
[Bingo2] L2 Prefetch per Region: 13.73330
[Bingo2] L3 Prefetch per Region: 0.00000
[Bingo2] No Prefetch per Region: 18.26670
[Bingo2] Number of Voters Mean: 14.85863
[Bingo2] Number of Voters SD: 3.89905
PHT read accesses: 395448
PHT write accesses: 22212
AT read accesses: 640978
AT write accesses: 663056
FT read accesses: 77297
FT write accesses: 25799
PS read accesses: 62695
PS write accesses: 21841
PHT tag read accesses: 1091976
PHT tag write accesses: 23808
AT tag read accesses: 17618551
AT tag write accesses: 663190
FT tag read accesses: 7642718
FT tag write accesses: 75614
PS tag read accesses: 11491166
PS tag write accesses: 83715
Channel_0_RQ_row_buffer_hit 228863
Channel_0_RQ_row_buffer_miss 138350
Channel_0_WQ_row_buffer_hit 91556
Channel_0_WQ_row_buffer_miss 111734
Channel_0_WQ_full 0
Channel_0_dbus_congested 458008

avg_congested_cycle 11

EzSearch AVG IPC :0.77560: L2-Pf-HR :0.68344 : L2-HR :0.79042 Uful:0.31625
     > Finished combination: TraceType=770-tot Sim:37000000 Prefetcher=L2bingo_dpc3_PHT1k L1=bingo_dpc3_PHT1k
