TRACE: [32000000]_FE_[OPT-125M]_[h12]_[s256]_[d64] Warmup: 2000000 NumTraces: 32000000
L1:no:L2:no
*************************************************
   ChampSim Multicore Out-of-Order Simulator
   Last compiled: Oct 27 2024 13:50:47
*************************************************

trace_0 770-tot_memTraces_v3/memTraces[32000000]_FE_[OPT-125M]_[h12]_[s256]_[d64].champsim.xz
MAIN.cc ln 751 stats print skipped
CPU  0 inst:    1000000 cyc:     500688 now IPC :1.99725: AVG IPC :1.99725: L2-Pf-HR :-nan: L2-HR :0.66081: (Sim:0h0m19s) 
CPU  0 inst:    2000004 cyc:     988758 now IPC :2.04889: AVG IPC :2.02274: L2-Pf-HR :-nan: L2-HR :0.72197: (Sim:0h0m39s) 

Warmup complete CPU  0 instructions:    2000004 cycles:     988758 (Simulation time: 0 hr 0 min 39 sec) 

CPU  0 inst:    3000004 cyc:    1640943 now IPC :1.53331: AVG IPC :1.53331: L2-Pf-HR :-nan: L2-HR :0.78740: (Sim:0h0m56s) 
CPU  0 inst:    4000001 cyc:    2290701 now IPC :1.53903: AVG IPC :1.53616: L2-Pf-HR :-nan: L2-HR :0.78631: (Sim:0h1m14s) 
CPU  0 inst:    5000001 cyc:    2940084 now IPC :1.53992: AVG IPC :1.53741: L2-Pf-HR :-nan: L2-HR :0.78597: (Sim:0h1m31s) 
CPU  0 inst:    6000003 cyc:    3592179 now IPC :1.53352: AVG IPC :1.53644: L2-Pf-HR :-nan: L2-HR :0.78631: (Sim:0h1m49s) 
CPU  0 inst:    7000005 cyc:    4242405 now IPC :1.53793: AVG IPC :1.53674: L2-Pf-HR :-nan: L2-HR :0.78666: (Sim:0h2m6s) 
CPU  0 inst:    8000002 cyc:    4897222 now IPC :1.52714: AVG IPC :1.53513: L2-Pf-HR :-nan: L2-HR :0.78584: (Sim:0h2m24s) 
CPU  0 inst:    9000004 cyc:    5580291 now IPC :1.46398: AVG IPC :1.52455: L2-Pf-HR :-nan: L2-HR :0.78618: (Sim:0h2m42s) 
CPU  0 inst:   10000003 cyc:    6292422 now IPC :1.40423: AVG IPC :1.50839: L2-Pf-HR :-nan: L2-HR :0.78633: (Sim:0h3m0s) 
CPU  0 inst:   11000002 cyc:    7006686 now IPC :1.40004: AVG IPC :1.49553: L2-Pf-HR :-nan: L2-HR :0.78620: (Sim:0h3m12s) 
CPU  0 inst:   12000001 cyc:    7717974 now IPC :1.40590: AVG IPC :1.48606: L2-Pf-HR :-nan: L2-HR :0.78614: (Sim:0h3m20s) 
CPU  0 inst:   13000004 cyc:    9377496 now IPC :0.60258: AVG IPC :1.31128: L2-Pf-HR :-nan: L2-HR :0.74481: (Sim:0h3m30s) 
CPU  0 inst:   14000003 cyc:   13706085 now IPC :0.23102: AVG IPC :0.94359: L2-Pf-HR :-nan: L2-HR :0.69383: (Sim:0h3m46s) 
CPU  0 inst:   15000000 cyc:   18734573 now IPC :0.19887: AVG IPC :0.73257: L2-Pf-HR :-nan: L2-HR :0.67400: (Sim:0h4m2s) 
CPU  0 inst:   16000003 cyc:   23753230 now IPC :0.19926: AVG IPC :0.61499: L2-Pf-HR :-nan: L2-HR :0.65624: (Sim:0h4m19s) 
CPU  0 inst:   17000003 cyc:   28678168 now IPC :0.20305: AVG IPC :0.54172: L2-Pf-HR :-nan: L2-HR :0.64024: (Sim:0h4m35s) 
CPU  0 inst:   18000000 cyc:   33562093 now IPC :0.20475: AVG IPC :0.49120: L2-Pf-HR :-nan: L2-HR :0.62575: (Sim:0h4m51s) 
CPU  0 inst:   19000003 cyc:   38413619 now IPC :0.20612: AVG IPC :0.45424: L2-Pf-HR :-nan: L2-HR :0.61256: (Sim:0h5m7s) 
CPU  0 inst:   20000005 cyc:   41064193 now IPC :0.37728: AVG IPC :0.44915: L2-Pf-HR :-nan: L2-HR :0.62393: (Sim:0h5m19s) 
CPU  0 inst:   21000001 cyc:   41803783 now IPC :1.35210: AVG IPC :0.46551: L2-Pf-HR :-nan: L2-HR :0.65301: (Sim:0h5m28s) 
CPU  0 inst:   22000004 cyc:   42547328 now IPC :1.34491: AVG IPC :0.48125: L2-Pf-HR :-nan: L2-HR :0.67673: (Sim:0h5m38s) 
CPU  0 inst:   23000000 cyc:   43277578 now IPC :1.36939: AVG IPC :0.49659: L2-Pf-HR :-nan: L2-HR :0.69675: (Sim:0h5m47s) 
CPU  0 inst:   24000004 cyc:   43988241 now IPC :1.40714: AVG IPC :0.51163: L2-Pf-HR :-nan: L2-HR :0.71388: (Sim:0h5m55s) 
CPU  0 inst:   25000003 cyc:   44725422 now IPC :1.35652: AVG IPC :0.52587: L2-Pf-HR :-nan: L2-HR :0.72799: (Sim:0h6m5s) 
CPU  0 inst:   26000002 cyc:   45459284 now IPC :1.36265: AVG IPC :0.53968: L2-Pf-HR :-nan: L2-HR :0.74019: (Sim:0h6m14s) 
CPU  0 inst:   27000003 cyc:   46176401 now IPC :1.39447: AVG IPC :0.55325: L2-Pf-HR :-nan: L2-HR :0.75085: (Sim:0h6m23s) 
CPU  0 inst:   28000003 cyc:   46880689 now IPC :1.41987: AVG IPC :0.56655: L2-Pf-HR :-nan: L2-HR :0.76073: (Sim:0h6m31s) 
CPU  0 inst:   29000004 cyc:   47589215 now IPC :1.41138: AVG IPC :0.57939: L2-Pf-HR :-nan: L2-HR :0.76919: (Sim:0h6m40s) 
Finished CPU 0 instr: 27000000 cyc: 46600457 AVG IPC: 0.57939 (Sim time: 0h6m40s)

ChampSim completed all CPUs

[ROI Statistics]
Core_0_instructions 27000000
Core_0_cycles 46600457
Core_0_IPC 0.57939

Core_0_branch_prediction_accuracy 98.37822
Core_0_branch_MPKI 0.53456
Core_0_average_ROB_occupancy_at_mispredict 336.60050

Core_0_L1D_total_access 7428325
Core_0_L1D_total_hit 6431083 L1D_total_Hit Ratio: 0.86575
Core_0_L1D_total_miss 997242
Core_0_L1D_loads 6602881
Core_0_L1D_load_hit 5655775 L1D_load_Hit Ratio: 0.85656
Core_0_L1D_load_miss 947106
Core_0_L1D_RFOs 825444
Core_0_L1D_RFO_hit 775308 L1D_RFO_Hit Ratio: 0.93926
Core_0_L1D_RFO_miss 50136
Core_0_L1D_prefetches 0
Core_0_L1D_prefetch_hit 0 L1D_prefetch_Hit Ratio: -nan
Core_0_L1D_prefetch_miss 0
Core_0_L1D_writebacks 0
Core_0_L1D_writeback_hit 0 L1D_writeback_Hit Ratio: -nan
Core_0_L1D_writeback_miss 0
Core_0_L1D_prefetch_requested 0
Core_0_L1D_prefetch_issued 0
Core_0_L1D_prefetch_useful 0 L1D_Useful Ratio: -nan
Core_0_L1D_prefetch_useless 0
Core_0_L1D_prefetch_late 0
Core_0_L1D_average_miss_latency 95.01853

Core_0_L1I_total_access 3637523
Core_0_L1I_total_hit 3632802 L1I_total_Hit Ratio: 0.99870
Core_0_L1I_total_miss 4721
Core_0_L1I_loads 3637523
Core_0_L1I_load_hit 3632802 L1I_load_Hit Ratio: 0.99870
Core_0_L1I_load_miss 4721
Core_0_L1I_RFOs 0
Core_0_L1I_RFO_hit 0 L1I_RFO_Hit Ratio: -nan
Core_0_L1I_RFO_miss 0
Core_0_L1I_prefetches 0
Core_0_L1I_prefetch_hit 0 L1I_prefetch_Hit Ratio: -nan
Core_0_L1I_prefetch_miss 0
Core_0_L1I_writebacks 0
Core_0_L1I_writeback_hit 0 L1I_writeback_Hit Ratio: -nan
Core_0_L1I_writeback_miss 0
Core_0_L1I_prefetch_requested 0
Core_0_L1I_prefetch_issued 0
Core_0_L1I_prefetch_useful 0 L1I_Useful Ratio: -nan
Core_0_L1I_prefetch_useless 0
Core_0_L1I_prefetch_late 0
Core_0_L1I_average_miss_latency 263.88371

Core_0_L2C_total_access 1178253
Core_0_L2C_total_hit 906303 L2C_total_Hit Ratio: 0.76919
Core_0_L2C_total_miss 271950
Core_0_L2C_loads 951827
Core_0_L2C_load_hit 729237 L2C_load_Hit Ratio: 0.76614
Core_0_L2C_load_miss 222590
Core_0_L2C_RFOs 50136
Core_0_L2C_RFO_hit 782 L2C_RFO_Hit Ratio: 0.01560
Core_0_L2C_RFO_miss 49354
Core_0_L2C_prefetches 0
Core_0_L2C_prefetch_hit 0 L2C_prefetch_Hit Ratio: -nan
Core_0_L2C_prefetch_miss 0
Core_0_L2C_writebacks 176290
Core_0_L2C_writeback_hit 176284 L2C_writeback_Hit Ratio: 0.99997
Core_0_L2C_writeback_miss 6
Core_0_L2C_prefetch_requested 0
Core_0_L2C_prefetch_issued 0
Core_0_L2C_prefetch_useful 0 L2C_Useful Ratio: -nan
Core_0_L2C_prefetch_useless 0
Core_0_L2C_prefetch_late 0
Core_0_L2C_average_miss_latency 297.00220

Core_0_LLC_total_access 427381
Core_0_LLC_total_hit 159527 LLC_total_Hit Ratio: 0.37327
Core_0_LLC_total_miss 267854
Core_0_LLC_loads 222590
Core_0_LLC_load_hit 5268 LLC_load_Hit Ratio: 0.02367
Core_0_LLC_load_miss 217322
Core_0_LLC_RFOs 49354
Core_0_LLC_RFO_hit 2 LLC_RFO_Hit Ratio: 0.00004
Core_0_LLC_RFO_miss 49352
Core_0_LLC_prefetches 0
Core_0_LLC_prefetch_hit 0 LLC_prefetch_Hit Ratio: -nan
Core_0_LLC_prefetch_miss 0
Core_0_LLC_writebacks 155437
Core_0_LLC_writeback_hit 154257 LLC_writeback_Hit Ratio: 0.99241
Core_0_LLC_writeback_miss 1180
Core_0_LLC_prefetch_requested 0
Core_0_LLC_prefetch_issued 0
Core_0_LLC_prefetch_useful 0 LLC_Useful Ratio: -nan
Core_0_LLC_prefetch_useless 0
Core_0_LLC_prefetch_late 0
Core_0_LLC_average_miss_latency 250.65993

Core_0_major_page_fault 0
Core_0_minor_page_fault 3170

Channel_0_RQ_row_buffer_hit 137489
Channel_0_RQ_row_buffer_miss 129185
Channel_0_WQ_row_buffer_hit 70390
Channel_0_WQ_row_buffer_miss 76448
Channel_0_WQ_full 0
Channel_0_dbus_congested 115836

avg_congested_cycle 10

EzSearch AVG IPC :0.57939: L2-Pf-HR :-nan : L2-HR :0.76919 Uful:-nan
     > Finished combination: TraceType=770-tot Sim:27000000 Prefetcher=L2no L1=no
